CHEMBL3690468
 OpenBabel04072215373D

 46 49  0  0  0  0  0  0  0  0999 V2000
    2.5636    0.1846   -1.4041 O   0  0  0  0  0  0  0  0  0  0  0  0
    2.2683    0.4313   -0.2431 C   0  0  0  0  0  0  0  0  0  0  0  0
    0.9623    0.3445    0.1925 N   0  0  0  0  0  0  0  0  0  0  0  0
   -0.0922    0.0994   -0.7995 C   0  0  0  0  0  0  0  0  0  0  0  0
   -0.6108    1.3541   -1.5161 C   0  0  0  0  0  0  0  0  0  0  0  0
   -0.0206    2.4803   -1.0504 F   0  0  0  0  0  0  0  0  0  0  0  0
   -0.4240    1.3018   -2.8499 F   0  0  0  0  0  0  0  0  0  0  0  0
   -1.9420    1.4939   -1.2961 F   0  0  0  0  0  0  0  0  0  0  0  0
    3.1176    0.7956    0.7784 N   0  0  0  0  0  0  0  0  0  0  0  0
    4.5176    0.9637    0.6980 C   0  0  0  0  0  0  0  0  0  0  0  0
    5.2405    0.7660   -0.4787 C   0  0  0  0  0  0  0  0  0  0  0  0
    6.6281    0.8577   -0.4803 C   0  0  0  0  0  0  0  0  0  0  0  0
    7.3024    1.1870    0.6900 C   0  0  0  0  0  0  0  0  0  0  0  0
    6.6007    1.5265    1.8528 C   0  0  0  0  0  0  0  0  0  0  0  0
    7.2967    2.0952    3.0158 C   0  0  0  0  0  0  0  0  0  0  0  0
    7.0544    1.9515    4.3725 C   0  0  0  0  0  0  0  0  0  0  0  0
    7.9118    2.6991    5.1373 N   0  0  0  0  0  0  0  0  0  0  0  0
    8.6850    3.3245    4.2762 C   0  0  0  0  0  0  0  0  0  0  0  0
    9.7537    4.2468    4.4859 C   0  0  0  0  0  0  0  0  0  0  0  0
   10.4407    4.7723    3.4427 C   0  0  0  0  0  0  0  0  0  0  0  0
   11.5387    5.7071    3.6750 C   0  0  0  0  0  0  0  0  0  0  0  0
   12.6375    5.3557    4.3667 C   0  0  0  0  0  0  0  0  0  0  0  0
   13.6685    6.2433    4.5278 N   0  0  0  0  0  0  0  0  0  0  0  0
   13.6120    7.5022    3.9853 C   0  0  0  0  0  0  0  0  0  0  0  0
   14.4897    8.3453    4.0745 O   0  0  0  0  0  0  0  0  0  0  0  0
   12.3404    7.7909    3.2194 C   0  0  0  0  0  0  0  0  0  0  0  0
   11.3699    6.9355    3.0706 N   0  0  0  0  0  0  0  0  0  0  0  0
   10.0469    4.4065    2.0782 C   0  0  0  0  0  0  0  0  0  0  0  0
    9.0223    3.5704    1.8732 C   0  0  0  0  0  0  0  0  0  0  0  0
    8.3526    3.0061    2.9624 N   0  0  0  0  0  0  0  0  0  0  0  0
    5.2054    1.3559    1.8592 C   0  0  0  0  0  0  0  0  0  0  0  0
    0.7160    0.9619    0.9533 H   0  0  0  0  0  0  0  0  0  0  0  0
   -0.9122   -0.3838   -0.2605 H   0  0  0  0  0  0  0  0  0  0  0  0
    0.2734   -0.6191   -1.5430 H   0  0  0  0  0  0  0  0  0  0  0  0
    2.7069    0.8760    1.6958 H   0  0  0  0  0  0  0  0  0  0  0  0
    4.7581    0.5154   -1.4175 H   0  0  0  0  0  0  0  0  0  0  0  0
    7.1814    0.6789   -1.3981 H   0  0  0  0  0  0  0  0  0  0  0  0
    8.3883    1.2010    0.6637 H   0  0  0  0  0  0  0  0  0  0  0  0
    6.2932    1.3418    4.8440 H   0  0  0  0  0  0  0  0  0  0  0  0
    9.9790    4.5157    5.5126 H   0  0  0  0  0  0  0  0  0  0  0  0
   12.7662    4.3749    4.8110 H   0  0  0  0  0  0  0  0  0  0  0  0
   14.5043    5.9910    5.0392 H   0  0  0  0  0  0  0  0  0  0  0  0
   12.2820    8.7953    2.7680 H   0  0  0  0  0  0  0  0  0  0  0  0
   10.5898    4.8463    1.2471 H   0  0  0  0  0  0  0  0  0  0  0  0
    8.6995    3.3271    0.8733 H   0  0  0  0  0  0  0  0  0  0  0  0
    4.6481    1.5631    2.7704 H   0  0  0  0  0  0  0  0  0  0  0  0
  1  2  2  0  0  0  0
  2  3  1  0  0  0  0
  2  9  1  0  0  0  0
  3  4  1  0  0  0  0
  3 32  1  0  0  0  0
  4  5  1  0  0  0  0
  4 33  1  0  0  0  0
  4 34  1  0  0  0  0
  5  6  1  0  0  0  0
  5  7  1  0  0  0  0
  5  8  1  0  0  0  0
  9 10  1  0  0  0  0
  9 35  1  0  0  0  0
 10 11  1  0  0  0  0
 10 31  2  0  0  0  0
 11 12  2  0  0  0  0
 11 36  1  0  0  0  0
 12 13  1  0  0  0  0
 12 37  1  0  0  0  0
 13 14  2  0  0  0  0
 13 38  1  0  0  0  0
 14 15  1  0  0  0  0
 14 31  1  0  0  0  0
 15 16  2  0  0  0  0
 15 30  1  0  0  0  0
 16 17  1  0  0  0  0
 16 39  1  0  0  0  0
 17 18  2  0  0  0  0
 18 19  1  0  0  0  0
 18 30  1  0  0  0  0
 19 20  2  0  0  0  0
 19 40  1  0  0  0  0
 20 21  1  0  0  0  0
 20 28  1  0  0  0  0
 21 22  2  0  0  0  0
 21 27  1  0  0  0  0
 22 23  1  0  0  0  0
 22 41  1  0  0  0  0
 23 24  1  0  0  0  0
 23 42  1  0  0  0  0
 24 25  2  0  0  0  0
 24 26  1  0  0  0  0
 26 27  2  0  0  0  0
 26 43  1  0  0  0  0
 28 29  2  0  0  0  0
 28 44  1  0  0  0  0
 29 30  1  0  0  0  0
 29 45  1  0  0  0  0
 31 46  1  0  0  0  0
M  END
$$$$
