CHEMBL2047253
 OpenBabel04072215363D

 35 38  0  0  0  0  0  0  0  0999 V2000
    1.2403   -0.0066   -0.2682 N   0  0  0  0  0  0  0  0  0  0  0  0
    2.6187   -0.0263   -0.2130 C   0  0  0  0  0  0  0  0  0  0  0  0
    3.2529    1.1415   -0.1201 N   0  0  0  0  0  0  0  0  0  0  0  0
    4.5883    1.0353   -0.0742 C   0  0  0  0  0  0  0  0  0  0  0  0
    5.3095   -0.1567   -0.0943 C   0  0  0  0  0  0  0  0  0  0  0  0
    4.5591   -1.3020   -0.1861 C   0  0  0  0  0  0  0  0  0  0  0  0
    5.1703   -2.5726   -0.2568 N   0  0  0  0  0  0  0  0  0  0  0  0
    4.5566   -3.7265   -0.7976 C   0  0  0  0  0  0  0  0  0  0  0  0
    3.7236   -3.6464   -1.9238 C   0  0  0  0  0  0  0  0  0  0  0  0
    3.1133   -4.7864   -2.4492 C   0  0  0  0  0  0  0  0  0  0  0  0
    3.3550   -6.0277   -1.8672 C   0  0  0  0  0  0  0  0  0  0  0  0
    2.5722   -7.4246   -2.4948 Cl  0  0  0  0  0  0  0  0  0  0  0  0
    4.2199   -6.1427   -0.7824 C   0  0  0  0  0  0  0  0  0  0  0  0
    4.8191   -4.9962   -0.2669 C   0  0  0  0  0  0  0  0  0  0  0  0
    5.6510   -5.1132    0.7807 F   0  0  0  0  0  0  0  0  0  0  0  0
    3.2075   -1.2287   -0.2290 N   0  0  0  0  0  0  0  0  0  0  0  0
    6.7267    0.1420   -0.0817 C   0  0  0  0  0  0  0  0  0  0  0  0
    7.8426   -0.6775   -0.1188 C   0  0  0  0  0  0  0  0  0  0  0  0
    9.1102   -0.0831   -0.1148 C   0  0  0  0  0  0  0  0  0  0  0  0
    9.2546    1.3138   -0.0817 C   0  0  0  0  0  0  0  0  0  0  0  0
    8.1348    2.1444   -0.0535 C   0  0  0  0  0  0  0  0  0  0  0  0
    6.8851    1.5472   -0.0528 C   0  0  0  0  0  0  0  0  0  0  0  0
    5.5327    2.2272   -0.0476 C   0  0  0  0  0  0  0  0  0  0  0  0
    0.8900    0.8429    0.1498 H   0  0  0  0  0  0  0  0  0  0  0  0
    0.8749   -0.8832    0.0776 H   0  0  0  0  0  0  0  0  0  0  0  0
    5.6698   -2.7718    0.6071 H   0  0  0  0  0  0  0  0  0  0  0  0
    3.5327   -2.6839   -2.3943 H   0  0  0  0  0  0  0  0  0  0  0  0
    2.4500   -4.6884   -3.3048 H   0  0  0  0  0  0  0  0  0  0  0  0
    4.4275   -7.1062   -0.3302 H   0  0  0  0  0  0  0  0  0  0  0  0
    7.7587   -1.7578   -0.1654 H   0  0  0  0  0  0  0  0  0  0  0  0
    9.9984   -0.7108   -0.1464 H   0  0  0  0  0  0  0  0  0  0  0  0
   10.2509    1.7508   -0.0860 H   0  0  0  0  0  0  0  0  0  0  0  0
    8.2446    3.2239   -0.0408 H   0  0  0  0  0  0  0  0  0  0  0  0
    5.3975    2.8361   -0.9462 H   0  0  0  0  0  0  0  0  0  0  0  0
    5.3867    2.8129    0.8637 H   0  0  0  0  0  0  0  0  0  0  0  0
  1  2  1  0  0  0  0
  1 24  1  0  0  0  0
  1 25  1  0  0  0  0
  2  3  1  0  0  0  0
  2 16  2  0  0  0  0
  3  4  2  0  0  0  0
  4  5  1  0  0  0  0
  4 23  1  0  0  0  0
  5  6  2  0  0  0  0
  5 17  1  0  0  0  0
  6  7  1  0  0  0  0
  6 16  1  0  0  0  0
  7  8  1  0  0  0  0
  7 26  1  0  0  0  0
  8  9  1  0  0  0  0
  8 14  2  0  0  0  0
  9 10  2  0  0  0  0
  9 27  1  0  0  0  0
 10 11  1  0  0  0  0
 10 28  1  0  0  0  0
 11 12  1  0  0  0  0
 11 13  2  0  0  0  0
 13 14  1  0  0  0  0
 13 29  1  0  0  0  0
 14 15  1  0  0  0  0
 17 18  1  0  0  0  0
 17 22  2  0  0  0  0
 18 19  2  0  0  0  0
 18 30  1  0  0  0  0
 19 20  1  0  0  0  0
 19 31  1  0  0  0  0
 20 21  2  0  0  0  0
 20 32  1  0  0  0  0
 21 22  1  0  0  0  0
 21 33  1  0  0  0  0
 22 23  1  0  0  0  0
 23 34  1  0  0  0  0
 23 35  1  0  0  0  0
M  END
$$$$
