CHEMBL427267
 OpenBabel04072215383D

 54 58  0  0  0  0  0  0  0  0999 V2000
    2.3752   -0.4627    1.6116 C   0  0  0  0  0  0  0  0  0  0  0  0
    0.8827   -0.3287    1.5654 C   0  0  0  0  0  0  0  0  0  0  0  0
    0.2752    0.8580    1.9920 C   0  0  0  0  0  0  0  0  0  0  0  0
   -1.1070    0.9834    1.9638 C   0  0  0  0  0  0  0  0  0  0  0  0
   -1.8945   -0.0739    1.5074 C   0  0  0  0  0  0  0  0  0  0  0  0
   -1.3175   -1.2683    1.0626 C   0  0  0  0  0  0  0  0  0  0  0  0
   -2.0757   -2.3738    0.5960 N   0  0  0  0  0  0  0  0  0  0  0  0
   -3.4428   -2.3772    0.3905 C   0  0  0  0  0  0  0  0  0  0  0  0
   -4.1687   -1.3951    0.4868 O   0  0  0  0  0  0  0  0  0  0  0  0
   -3.9270   -3.6499    0.0930 N   0  0  0  0  0  0  0  0  0  0  0  0
   -5.3112   -3.8356   -0.1443 C   0  0  0  0  0  0  0  0  0  0  0  0
   -6.0401   -2.9144   -0.8947 C   0  0  0  0  0  0  0  0  0  0  0  0
   -7.4318   -2.9818   -0.9364 C   0  0  0  0  0  0  0  0  0  0  0  0
   -8.1254   -3.9991   -0.2672 C   0  0  0  0  0  0  0  0  0  0  0  0
   -9.5994   -3.9751   -0.2338 C   0  0  0  0  0  0  0  0  0  0  0  0
  -10.2678   -3.5832   -1.3755 C   0  0  0  0  0  0  0  0  0  0  0  0
  -11.9295   -3.4272   -1.1528 S   0  0  0  0  0  0  0  0  0  0  0  0
  -11.8798   -4.0951    0.4461 C   0  0  0  0  0  0  0  0  0  0  0  0
  -12.9938   -4.3876    1.2824 C   0  0  0  0  0  0  0  0  0  0  0  0
  -14.4149   -4.2337    0.8966 C   0  0  0  0  0  0  0  0  0  0  0  0
  -15.3904   -3.8062    1.8145 C   0  0  0  0  0  0  0  0  0  0  0  0
  -16.7274   -3.6673    1.4345 C   0  0  0  0  0  0  0  0  0  0  0  0
  -17.0710   -3.9469    0.1264 C   0  0  0  0  0  0  0  0  0  0  0  0
  -16.1890   -4.3829   -0.7902 N   0  0  0  0  0  0  0  0  0  0  0  0
  -14.9025   -4.5294   -0.3797 C   0  0  0  0  0  0  0  0  0  0  0  0
  -12.6262   -4.8360    2.5470 C   0  0  0  0  0  0  0  0  0  0  0  0
  -11.3707   -4.9721    3.0061 N   0  0  0  0  0  0  0  0  0  0  0  0
  -10.3284   -4.6911    2.2037 C   0  0  0  0  0  0  0  0  0  0  0  0
   -9.0940   -4.8232    2.8282 N   0  0  0  0  0  0  0  0  0  0  0  0
  -10.5389   -4.2755    0.8594 C   0  0  0  0  0  0  0  0  0  0  0  0
   -7.3762   -5.0019    0.3604 C   0  0  0  0  0  0  0  0  0  0  0  0
   -5.9752   -4.9146    0.4372 C   0  0  0  0  0  0  0  0  0  0  0  0
    0.0791   -1.3871    1.1001 C   0  0  0  0  0  0  0  0  0  0  0  0
    2.8439    0.4414    2.0167 H   0  0  0  0  0  0  0  0  0  0  0  0
    2.7724   -0.6213    0.6047 H   0  0  0  0  0  0  0  0  0  0  0  0
    2.6613   -1.3003    2.2549 H   0  0  0  0  0  0  0  0  0  0  0  0
    0.8735    1.6909    2.3540 H   0  0  0  0  0  0  0  0  0  0  0  0
   -1.5836    1.9024    2.2936 H   0  0  0  0  0  0  0  0  0  0  0  0
   -2.9677    0.0804    1.5206 H   0  0  0  0  0  0  0  0  0  0  0  0
   -1.5641   -3.1714    0.2656 H   0  0  0  0  0  0  0  0  0  0  0  0
   -3.4423   -4.4049    0.5561 H   0  0  0  0  0  0  0  0  0  0  0  0
   -5.5413   -2.0991   -1.4131 H   0  0  0  0  0  0  0  0  0  0  0  0
   -7.9561   -2.1943   -1.4741 H   0  0  0  0  0  0  0  0  0  0  0  0
   -9.8493   -3.3237   -2.3388 H   0  0  0  0  0  0  0  0  0  0  0  0
  -15.1264   -3.5669    2.8423 H   0  0  0  0  0  0  0  0  0  0  0  0
  -17.4802   -3.3432    2.1444 H   0  0  0  0  0  0  0  0  0  0  0  0
  -18.0911   -3.8312   -0.2275 H   0  0  0  0  0  0  0  0  0  0  0  0
  -14.2579   -4.9280   -1.1578 H   0  0  0  0  0  0  0  0  0  0  0  0
  -13.3797   -5.1125    3.2819 H   0  0  0  0  0  0  0  0  0  0  0  0
   -9.2459   -4.9160    3.8276 H   0  0  0  0  0  0  0  0  0  0  0  0
   -8.4341   -4.1011    2.5655 H   0  0  0  0  0  0  0  0  0  0  0  0
   -7.8711   -5.8381    0.8496 H   0  0  0  0  0  0  0  0  0  0  0  0
   -5.4380   -5.6539    1.0249 H   0  0  0  0  0  0  0  0  0  0  0  0
    0.5598   -2.3040    0.7688 H   0  0  0  0  0  0  0  0  0  0  0  0
  1  2  1  0  0  0  0
  1 34  1  0  0  0  0
  1 35  1  0  0  0  0
  1 36  1  0  0  0  0
  2  3  1  0  0  0  0
  2 33  2  0  0  0  0
  3  4  2  0  0  0  0
  3 37  1  0  0  0  0
  4  5  1  0  0  0  0
  4 38  1  0  0  0  0
  5  6  2  0  0  0  0
  5 39  1  0  0  0  0
  6  7  1  0  0  0  0
  6 33  1  0  0  0  0
  7  8  1  0  0  0  0
  7 40  1  0  0  0  0
  8  9  2  0  0  0  0
  8 10  1  0  0  0  0
 10 11  1  0  0  0  0
 10 41  1  0  0  0  0
 11 12  1  0  0  0  0
 11 32  2  0  0  0  0
 12 13  2  0  0  0  0
 12 42  1  0  0  0  0
 13 14  1  0  0  0  0
 13 43  1  0  0  0  0
 14 15  1  0  0  0  0
 14 31  2  0  0  0  0
 15 16  2  0  0  0  0
 15 30  1  0  0  0  0
 16 17  1  0  0  0  0
 16 44  1  0  0  0  0
 17 18  1  0  0  0  0
 18 19  1  0  0  0  0
 18 30  2  0  0  0  0
 19 20  1  0  0  0  0
 19 26  2  0  0  0  0
 20 21  1  0  0  0  0
 20 25  2  0  0  0  0
 21 22  2  0  0  0  0
 21 45  1  0  0  0  0
 22 23  1  0  0  0  0
 22 46  1  0  0  0  0
 23 24  2  0  0  0  0
 23 47  1  0  0  0  0
 24 25  1  0  0  0  0
 25 48  1  0  0  0  0
 26 27  1  0  0  0  0
 26 49  1  0  0  0  0
 27 28  2  0  0  0  0
 28 29  1  0  0  0  0
 28 30  1  0  0  0  0
 29 50  1  0  0  0  0
 29 51  1  0  0  0  0
 31 32  1  0  0  0  0
 31 52  1  0  0  0  0
 32 53  1  0  0  0  0
 33 54  1  0  0  0  0
M  END
$$$$
