CHEMBL371379
 OpenBabel04072215373D

 56 60  0  0  0  0  0  0  0  0999 V2000
    2.5371   -0.2919   -0.5181 C   0  0  0  0  0  0  0  0  0  0  0  0
    1.0471   -0.2393   -0.6815 C   0  0  0  0  0  0  0  0  0  0  0  0
    0.4641    0.9484   -1.1518 C   0  0  0  0  0  0  0  0  0  0  0  0
   -0.9008    1.0237   -1.3222 C   0  0  0  0  0  0  0  0  0  0  0  0
   -1.6975   -0.0826   -1.0214 C   0  0  0  0  0  0  0  0  0  0  0  0
   -1.1564   -1.2840   -0.5407 C   0  0  0  0  0  0  0  0  0  0  0  0
   -1.9737   -2.4181   -0.2184 N   0  0  0  0  0  0  0  0  0  0  0  0
   -3.3377   -2.4160   -0.3136 C   0  0  0  0  0  0  0  0  0  0  0  0
   -4.0069   -1.4522   -0.6684 O   0  0  0  0  0  0  0  0  0  0  0  0
   -3.9625   -3.6185    0.0318 N   0  0  0  0  0  0  0  0  0  0  0  0
   -5.3681   -3.7874   -0.1059 C   0  0  0  0  0  0  0  0  0  0  0  0
   -6.1372   -3.0338   -1.0065 C   0  0  0  0  0  0  0  0  0  0  0  0
   -7.5235   -3.1813   -1.1040 C   0  0  0  0  0  0  0  0  0  0  0  0
   -8.2136   -3.9740   -0.2038 C   0  0  0  0  0  0  0  0  0  0  0  0
   -9.6882   -3.9494   -0.1558 C   0  0  0  0  0  0  0  0  0  0  0  0
  -10.4310   -5.1221    0.0198 C   0  0  0  0  0  0  0  0  0  0  0  0
   -9.9895   -6.5725    0.1694 C   0  0  0  0  0  0  0  0  0  0  0  0
   -9.6728   -6.9992    1.5911 C   0  0  0  0  0  0  0  0  0  0  0  0
  -10.3342   -6.4776    2.7072 C   0  0  0  0  0  0  0  0  0  0  0  0
   -9.9041   -6.7977    3.9902 C   0  0  0  0  0  0  0  0  0  0  0  0
   -8.8366   -7.6653    4.1262 C   0  0  0  0  0  0  0  0  0  0  0  0
   -8.1917   -8.2265    3.0813 N   0  0  0  0  0  0  0  0  0  0  0  0
   -8.6276   -7.8914    1.8441 C   0  0  0  0  0  0  0  0  0  0  0  0
  -12.1193   -4.8098    0.0252 S   0  0  0  0  0  0  0  0  0  0  0  0
  -11.9017   -3.1541   -0.2500 C   0  0  0  0  0  0  0  0  0  0  0  0
  -12.9884   -2.3746   -0.3864 N   0  0  0  0  0  0  0  0  0  0  0  0
  -12.6804   -1.1097   -0.6352 C   0  0  0  0  0  0  0  0  0  0  0  0
  -11.4570   -0.5814   -0.7137 N   0  0  0  0  0  0  0  0  0  0  0  0
  -10.3847   -1.3750   -0.5197 C   0  0  0  0  0  0  0  0  0  0  0  0
   -9.1956   -0.6747   -0.5553 N   0  0  0  0  0  0  0  0  0  0  0  0
  -10.5674   -2.7676   -0.3161 C   0  0  0  0  0  0  0  0  0  0  0  0
   -7.4335   -4.7601    0.6561 C   0  0  0  0  0  0  0  0  0  0  0  0
   -6.0295   -4.7197    0.6720 C   0  0  0  0  0  0  0  0  0  0  0  0
    0.2354   -1.3586   -0.3772 C   0  0  0  0  0  0  0  0  0  0  0  0
    2.9964    0.6662   -0.7810 H   0  0  0  0  0  0  0  0  0  0  0  0
    2.9636   -1.0550   -1.1782 H   0  0  0  0  0  0  0  0  0  0  0  0
    2.8020   -0.5102    0.5225 H   0  0  0  0  0  0  0  0  0  0  0  0
    1.0728    1.8183   -1.3859 H   0  0  0  0  0  0  0  0  0  0  0  0
   -1.3728    1.9315   -1.6872 H   0  0  0  0  0  0  0  0  0  0  0  0
   -2.7541    0.0696   -1.1923 H   0  0  0  0  0  0  0  0  0  0  0  0
   -1.4988   -3.2655    0.0740 H   0  0  0  0  0  0  0  0  0  0  0  0
   -3.4816   -4.2185    0.6839 H   0  0  0  0  0  0  0  0  0  0  0  0
   -5.6953   -2.2894   -1.6600 H   0  0  0  0  0  0  0  0  0  0  0  0
   -8.0396   -2.6074   -1.8701 H   0  0  0  0  0  0  0  0  0  0  0  0
   -9.0983   -6.7108   -0.4582 H   0  0  0  0  0  0  0  0  0  0  0  0
  -10.7428   -7.2551   -0.2423 H   0  0  0  0  0  0  0  0  0  0  0  0
  -11.1577   -5.7784    2.6009 H   0  0  0  0  0  0  0  0  0  0  0  0
  -10.3828   -6.3595    4.8586 H   0  0  0  0  0  0  0  0  0  0  0  0
   -8.4585   -7.9319    5.1089 H   0  0  0  0  0  0  0  0  0  0  0  0
   -8.0446   -8.3287    1.0365 H   0  0  0  0  0  0  0  0  0  0  0  0
  -13.5069   -0.4218   -0.7908 H   0  0  0  0  0  0  0  0  0  0  0  0
   -9.2858    0.2351   -0.9843 H   0  0  0  0  0  0  0  0  0  0  0  0
   -8.3074   -1.1252   -0.6266 H   0  0  0  0  0  0  0  0  0  0  0  0
   -7.8941   -5.4170    1.3718 H   0  0  0  0  0  0  0  0  0  0  0  0
   -5.5056   -5.3837    1.3523 H   0  0  0  0  0  0  0  0  0  0  0  0
    0.7004   -2.2668   -0.0152 H   0  0  0  0  0  0  0  0  0  0  0  0
  1  2  1  0  0  0  0
  1 35  1  0  0  0  0
  1 36  1  0  0  0  0
  1 37  1  0  0  0  0
  2  3  1  0  0  0  0
  2 34  2  0  0  0  0
  3  4  2  0  0  0  0
  3 38  1  0  0  0  0
  4  5  1  0  0  0  0
  4 39  1  0  0  0  0
  5  6  2  0  0  0  0
  5 40  1  0  0  0  0
  6  7  1  0  0  0  0
  6 34  1  0  0  0  0
  7  8  1  0  0  0  0
  7 41  1  0  0  0  0
  8  9  2  0  0  0  0
  8 10  1  0  0  0  0
 10 11  1  0  0  0  0
 10 42  1  0  0  0  0
 11 12  1  0  0  0  0
 11 33  2  0  0  0  0
 12 13  2  0  0  0  0
 12 43  1  0  0  0  0
 13 14  1  0  0  0  0
 13 44  1  0  0  0  0
 14 15  1  0  0  0  0
 14 32  2  0  0  0  0
 15 16  2  0  0  0  0
 15 31  1  0  0  0  0
 16 17  1  0  0  0  0
 16 24  1  0  0  0  0
 17 18  1  0  0  0  0
 17 45  1  0  0  0  0
 17 46  1  0  0  0  0
 18 19  1  0  0  0  0
 18 23  2  0  0  0  0
 19 20  2  0  0  0  0
 19 47  1  0  0  0  0
 20 21  1  0  0  0  0
 20 48  1  0  0  0  0
 21 22  2  0  0  0  0
 21 49  1  0  0  0  0
 22 23  1  0  0  0  0
 23 50  1  0  0  0  0
 24 25  1  0  0  0  0
 25 26  1  0  0  0  0
 25 31  2  0  0  0  0
 26 27  2  0  0  0  0
 27 28  1  0  0  0  0
 27 51  1  0  0  0  0
 28 29  2  0  0  0  0
 29 30  1  0  0  0  0
 29 31  1  0  0  0  0
 30 52  1  0  0  0  0
 30 53  1  0  0  0  0
 32 33  1  0  0  0  0
 32 54  1  0  0  0  0
 33 55  1  0  0  0  0
 34 56  1  0  0  0  0
M  END
$$$$
