CHEMBL3671584
 OpenBabel04072215373D

 50 52  0  0  0  0  0  0  0  0999 V2000
    3.4320   -0.1776   -4.1736 C   0  0  0  0  0  0  0  0  0  0  0  0
    3.4587    0.6993   -3.1626 C   0  0  0  0  0  0  0  0  0  0  0  0
    3.7004    0.2013   -1.7818 C   0  0  0  0  0  0  0  0  0  0  0  0
    3.2715   -0.8790   -1.3944 O   0  0  0  0  0  0  0  0  0  0  0  0
    4.4834    0.9783   -0.9601 N   0  0  0  0  0  0  0  0  0  0  0  0
    5.2378    2.0659   -1.4241 C   0  0  0  0  0  0  0  0  0  0  0  0
    6.3258    1.7867   -2.2505 C   0  0  0  0  0  0  0  0  0  0  0  0
    6.8993    2.8048   -3.0385 C   0  0  0  0  0  0  0  0  0  0  0  0
    7.9259    2.5824   -3.9730 C   0  0  0  0  0  0  0  0  0  0  0  0
    8.3552    1.2601   -4.2203 N   0  0  0  0  0  0  0  0  0  0  0  0
    9.6409    0.8040   -4.5873 C   0  0  0  0  0  0  0  0  0  0  0  0
   10.7895    1.5006   -4.1871 C   0  0  0  0  0  0  0  0  0  0  0  0
   12.0596    0.9388   -4.3387 C   0  0  0  0  0  0  0  0  0  0  0  0
   12.1943   -0.3281   -4.9001 C   0  0  0  0  0  0  0  0  0  0  0  0
   13.9007   -1.1369   -4.9809 Br  0  0  0  0  0  0  0  0  0  0  0  0
   11.0783   -1.0187   -5.3633 C   0  0  0  0  0  0  0  0  0  0  0  0
    9.8112   -0.4531   -5.2024 C   0  0  0  0  0  0  0  0  0  0  0  0
    8.4383   -1.3457   -5.7673 Cl  0  0  0  0  0  0  0  0  0  0  0  0
    8.4643    3.5822   -4.6885 N   0  0  0  0  0  0  0  0  0  0  0  0
    7.9419    4.7974   -4.4990 C   0  0  0  0  0  0  0  0  0  0  0  0
    6.9497    5.1149   -3.6543 N   0  0  0  0  0  0  0  0  0  0  0  0
    6.4337    4.1208   -2.9236 C   0  0  0  0  0  0  0  0  0  0  0  0
    5.3903    4.3869   -2.0325 C   0  0  0  0  0  0  0  0  0  0  0  0
    4.7905    3.3816   -1.2628 C   0  0  0  0  0  0  0  0  0  0  0  0
    3.7360    3.7766   -0.4690 O   0  0  0  0  0  0  0  0  0  0  0  0
    3.6821    3.1286    0.8115 C   0  0  0  0  0  0  0  0  0  0  0  0
    2.6663    3.8013    1.7408 C   0  0  0  0  0  0  0  0  0  0  0  0
    2.5489    3.0838    3.0055 N   0  0  0  0  0  0  0  0  0  0  0  0
    3.4535    3.2748    4.0248 C   0  0  0  0  0  0  0  0  0  0  0  0
    3.2824    2.3462    5.1985 C   0  0  0  0  0  0  0  0  0  0  0  0
    4.3326    4.1295    3.9941 O   0  0  0  0  0  0  0  0  0  0  0  0
    3.3270    0.1583   -5.1991 H   0  0  0  0  0  0  0  0  0  0  0  0
    3.5313   -1.2453   -3.9975 H   0  0  0  0  0  0  0  0  0  0  0  0
    3.3795    1.7647   -3.3367 H   0  0  0  0  0  0  0  0  0  0  0  0
    4.8862    0.4141   -0.2195 H   0  0  0  0  0  0  0  0  0  0  0  0
    6.6803    0.7616   -2.3378 H   0  0  0  0  0  0  0  0  0  0  0  0
    7.6117    0.7103   -4.6446 H   0  0  0  0  0  0  0  0  0  0  0  0
   10.7020    2.4747   -3.7115 H   0  0  0  0  0  0  0  0  0  0  0  0
   12.9288    1.4872   -3.9839 H   0  0  0  0  0  0  0  0  0  0  0  0
   11.1870   -1.9995   -5.8178 H   0  0  0  0  0  0  0  0  0  0  0  0
    8.3539    5.6042   -5.0970 H   0  0  0  0  0  0  0  0  0  0  0  0
    5.0210    5.4078   -1.9545 H   0  0  0  0  0  0  0  0  0  0  0  0
    4.6742    3.1272    1.2801 H   0  0  0  0  0  0  0  0  0  0  0  0
    3.3355    2.0988    0.6974 H   0  0  0  0  0  0  0  0  0  0  0  0
    1.6739    3.8076    1.2766 H   0  0  0  0  0  0  0  0  0  0  0  0
    2.9468    4.8426    1.9301 H   0  0  0  0  0  0  0  0  0  0  0  0
    1.9127    2.2973    3.0526 H   0  0  0  0  0  0  0  0  0  0  0  0
    2.6901    1.4658    4.9346 H   0  0  0  0  0  0  0  0  0  0  0  0
    2.7913    2.8788    6.0166 H   0  0  0  0  0  0  0  0  0  0  0  0
    4.2688    2.0028    5.5247 H   0  0  0  0  0  0  0  0  0  0  0  0
  1  2  2  0  0  0  0
  1 32  1  0  0  0  0
  1 33  1  0  0  0  0
  2  3  1  0  0  0  0
  2 34  1  0  0  0  0
  3  4  2  0  0  0  0
  3  5  1  0  0  0  0
  5  6  1  0  0  0  0
  5 35  1  0  0  0  0
  6  7  1  0  0  0  0
  6 24  2  0  0  0  0
  7  8  2  0  0  0  0
  7 36  1  0  0  0  0
  8  9  1  0  0  0  0
  8 22  1  0  0  0  0
  9 10  1  0  0  0  0
  9 19  2  0  0  0  0
 10 11  1  0  0  0  0
 10 37  1  0  0  0  0
 11 12  1  0  0  0  0
 11 17  2  0  0  0  0
 12 13  2  0  0  0  0
 12 38  1  0  0  0  0
 13 14  1  0  0  0  0
 13 39  1  0  0  0  0
 14 15  1  0  0  0  0
 14 16  2  0  0  0  0
 16 17  1  0  0  0  0
 16 40  1  0  0  0  0
 17 18  1  0  0  0  0
 19 20  1  0  0  0  0
 20 21  2  0  0  0  0
 20 41  1  0  0  0  0
 21 22  1  0  0  0  0
 22 23  2  0  0  0  0
 23 24  1  0  0  0  0
 23 42  1  0  0  0  0
 24 25  1  0  0  0  0
 25 26  1  0  0  0  0
 26 27  1  0  0  0  0
 26 43  1  0  0  0  0
 26 44  1  0  0  0  0
 27 28  1  0  0  0  0
 27 45  1  0  0  0  0
 27 46  1  0  0  0  0
 28 29  1  0  0  0  0
 28 47  1  0  0  0  0
 29 30  1  0  0  0  0
 29 31  2  0  0  0  0
 30 48  1  0  0  0  0
 30 49  1  0  0  0  0
 30 50  1  0  0  0  0
M  END
$$$$
