CHEMBL4799113
 OpenBabel04072215383D

 86 90  0  0  0  0  0  0  0  0999 V2000
    7.6841    0.7353    0.6943 C   0  0  0  0  0  0  0  0  0  0  0  0
    6.7845   -0.3294    0.3390 O   0  0  0  0  0  0  0  0  0  0  0  0
    5.5565   -0.1680    1.0579 C   0  0  0  0  0  0  0  0  0  0  0  0
    4.4725   -1.1799    0.6840 C   0  0  0  0  0  0  0  0  0  0  0  0
    4.7765   -2.6598    0.9451 C   0  0  0  0  0  0  0  0  0  0  0  0
    3.8845   -3.5241    1.3184 N   0  0  0  0  0  0  0  0  0  0  0  0
    2.3940   -3.2781    1.9334 S   0  0  0  0  0  0  0  0  0  0  0  0
    1.9038   -4.5881    2.3040 O   0  0  0  0  0  0  0  0  0  0  0  0
    2.4929   -2.2319    2.9237 O   0  0  0  0  0  0  0  0  0  0  0  0
    1.3782   -2.6733    0.5786 C   0  0  0  0  0  0  0  0  0  0  0  0
   -0.0446   -2.4826    1.0847 C   0  0  0  0  0  0  0  0  0  0  0  0
   -0.4563   -1.2751    1.6777 C   0  0  0  0  0  0  0  0  0  0  0  0
   -1.7595   -1.1247    2.1743 C   0  0  0  0  0  0  0  0  0  0  0  0
   -2.6651   -2.1788    2.0826 C   0  0  0  0  0  0  0  0  0  0  0  0
   -4.2604   -1.9995    2.7021 Cl  0  0  0  0  0  0  0  0  0  0  0  0
   -2.2772   -3.3863    1.4954 C   0  0  0  0  0  0  0  0  0  0  0  0
   -0.9767   -3.5312    1.0019 C   0  0  0  0  0  0  0  0  0  0  0  0
    6.0869   -3.0375    0.6835 N   0  0  0  0  0  0  0  0  0  0  0  0
    6.6914   -4.2958    0.8848 C   0  0  0  0  0  0  0  0  0  0  0  0
    6.0107   -5.5151    0.7589 C   0  0  0  0  0  0  0  0  0  0  0  0
    6.6428   -6.7407    1.0264 C   0  0  0  0  0  0  0  0  0  0  0  0
    7.9735   -6.7676    1.4398 C   0  0  0  0  0  0  0  0  0  0  0  0
    8.5136   -8.0032    1.7236 O   0  0  0  0  0  0  0  0  0  0  0  0
    9.3687   -8.1421    2.8043 C   0  0  0  0  0  0  0  0  0  0  0  0
    9.3179   -7.3108    3.9198 C   0  0  0  0  0  0  0  0  0  0  0  0
   10.2638   -7.4835    4.9045 C   0  0  0  0  0  0  0  0  0  0  0  0
   11.1842   -8.4703    4.8906 N   0  0  0  0  0  0  0  0  0  0  0  0
   11.1768   -9.3335    3.8590 C   0  0  0  0  0  0  0  0  0  0  0  0
   12.0808  -10.3927    3.8540 C   0  0  0  0  0  0  0  0  0  0  0  0
   12.1789  -11.3480    2.8114 C   0  0  0  0  0  0  0  0  0  0  0  0
   13.1698  -12.2489    3.1085 O   0  0  0  0  0  0  0  0  0  0  0  0
   13.8749  -12.8392    2.0363 C   0  0  0  0  0  0  0  0  0  0  0  0
   15.3638  -12.5580    2.0398 C   0  0  0  0  0  0  0  0  0  0  0  0
   16.0787  -13.1328    3.2515 C   0  0  0  0  0  0  0  0  0  0  0  0
   17.5391  -12.9317    3.1800 N   0  0  0  0  0  0  0  0  0  0  0  0
   18.1936  -13.4983    4.3833 C   0  0  0  0  0  0  0  0  0  0  0  0
   17.9509  -12.6816    5.6703 C   0  0  0  0  0  0  0  0  0  0  0  0
   18.2704  -11.2923    5.5054 O   0  0  0  0  0  0  0  0  0  0  0  0
   17.5809  -10.7306    4.3808 C   0  0  0  0  0  0  0  0  0  0  0  0
   17.9335  -11.5048    3.1037 C   0  0  0  0  0  0  0  0  0  0  0  0
   11.3011  -11.2462    1.7274 C   0  0  0  0  0  0  0  0  0  0  0  0
   11.0656  -11.9625    0.5966 O   0  0  0  0  0  0  0  0  0  0  0  0
   11.6209  -13.1874    0.1739 C   0  0  0  0  0  0  0  0  0  0  0  0
   10.3875  -10.1647    1.7364 C   0  0  0  0  0  0  0  0  0  0  0  0
   10.3017   -9.2102    2.7747 C   0  0  0  0  0  0  0  0  0  0  0  0
    8.6736   -5.5622    1.5063 C   0  0  0  0  0  0  0  0  0  0  0  0
    9.9732   -5.5359    1.8376 F   0  0  0  0  0  0  0  0  0  0  0  0
    8.0361   -4.3433    1.2753 C   0  0  0  0  0  0  0  0  0  0  0  0
    8.6142    0.6447    0.1260 H   0  0  0  0  0  0  0  0  0  0  0  0
    7.9204    0.6813    1.7622 H   0  0  0  0  0  0  0  0  0  0  0  0
    7.2347    1.7088    0.4677 H   0  0  0  0  0  0  0  0  0  0  0  0
    5.1646    0.8300    0.8270 H   0  0  0  0  0  0  0  0  0  0  0  0
    5.7724   -0.2333    2.1290 H   0  0  0  0  0  0  0  0  0  0  0  0
    4.2418   -1.1037   -0.3861 H   0  0  0  0  0  0  0  0  0  0  0  0
    3.5827   -0.8798    1.2360 H   0  0  0  0  0  0  0  0  0  0  0  0
    1.4062   -3.3978   -0.2387 H   0  0  0  0  0  0  0  0  0  0  0  0
    1.7727   -1.7201    0.2197 H   0  0  0  0  0  0  0  0  0  0  0  0
    0.2360   -0.4425    1.7841 H   0  0  0  0  0  0  0  0  0  0  0  0
   -2.0576   -0.1902    2.6439 H   0  0  0  0  0  0  0  0  0  0  0  0
   -2.9777   -4.2113    1.4373 H   0  0  0  0  0  0  0  0  0  0  0  0
   -0.6918   -4.4909    0.5719 H   0  0  0  0  0  0  0  0  0  0  0  0
    6.7525   -2.2753    0.5435 H   0  0  0  0  0  0  0  0  0  0  0  0
    4.9736   -5.5365    0.4329 H   0  0  0  0  0  0  0  0  0  0  0  0
    6.0816   -7.6666    0.9206 H   0  0  0  0  0  0  0  0  0  0  0  0
    8.5944   -6.5112    4.0167 H   0  0  0  0  0  0  0  0  0  0  0  0
   10.3164   -6.8047    5.7491 H   0  0  0  0  0  0  0  0  0  0  0  0
   12.7476  -10.4731    4.7143 H   0  0  0  0  0  0  0  0  0  0  0  0
   13.5678  -12.4044    1.1006 H   0  0  0  0  0  0  0  0  0  0  0  0
   13.6894  -13.9176    2.0695 H   0  0  0  0  0  0  0  0  0  0  0  0
   15.4880  -11.4716    1.9881 H   0  0  0  0  0  0  0  0  0  0  0  0
   15.7879  -12.9880    1.1230 H   0  0  0  0  0  0  0  0  0  0  0  0
   15.8817  -14.2119    3.2812 H   0  0  0  0  0  0  0  0  0  0  0  0
   15.6416  -12.7106    4.1613 H   0  0  0  0  0  0  0  0  0  0  0  0
   19.2730  -13.5283    4.1858 H   0  0  0  0  0  0  0  0  0  0  0  0
   17.8846  -14.5399    4.5314 H   0  0  0  0  0  0  0  0  0  0  0  0
   18.5875  -13.0692    6.4717 H   0  0  0  0  0  0  0  0  0  0  0  0
   16.9133  -12.7691    6.0101 H   0  0  0  0  0  0  0  0  0  0  0  0
   17.8917   -9.6867    4.2808 H   0  0  0  0  0  0  0  0  0  0  0  0
   16.5018  -10.7252    4.5762 H   0  0  0  0  0  0  0  0  0  0  0  0
   19.0216  -11.4671    2.9581 H   0  0  0  0  0  0  0  0  0  0  0  0
   17.5131  -11.0167    2.2191 H   0  0  0  0  0  0  0  0  0  0  0  0
   10.9535  -13.6043   -0.5866 H   0  0  0  0  0  0  0  0  0  0  0  0
   11.7120  -13.9243    0.9735 H   0  0  0  0  0  0  0  0  0  0  0  0
   12.5609  -13.0197   -0.3640 H   0  0  0  0  0  0  0  0  0  0  0  0
    9.7018  -10.0755    0.8928 H   0  0  0  0  0  0  0  0  0  0  0  0
    8.6106   -3.4347    1.4285 H   0  0  0  0  0  0  0  0  0  0  0  0
  1  2  1  0  0  0  0
  1 49  1  0  0  0  0
  1 50  1  0  0  0  0
  1 51  1  0  0  0  0
  2  3  1  0  0  0  0
  3  4  1  0  0  0  0
  3 52  1  0  0  0  0
  3 53  1  0  0  0  0
  4  5  1  0  0  0  0
  4 54  1  0  0  0  0
  4 55  1  0  0  0  0
  5  6  2  0  0  0  0
  5 18  1  0  0  0  0
  6  7  1  0  0  0  0
  7  8  2  0  0  0  0
  7  9  2  0  0  0  0
  7 10  1  0  0  0  0
 10 11  1  0  0  0  0
 10 56  1  0  0  0  0
 10 57  1  0  0  0  0
 11 12  1  0  0  0  0
 11 17  2  0  0  0  0
 12 13  2  0  0  0  0
 12 58  1  0  0  0  0
 13 14  1  0  0  0  0
 13 59  1  0  0  0  0
 14 15  1  0  0  0  0
 14 16  2  0  0  0  0
 16 17  1  0  0  0  0
 16 60  1  0  0  0  0
 17 61  1  0  0  0  0
 18 19  1  0  0  0  0
 18 62  1  0  0  0  0
 19 20  1  0  0  0  0
 19 48  2  0  0  0  0
 20 21  2  0  0  0  0
 20 63  1  0  0  0  0
 21 22  1  0  0  0  0
 21 64  1  0  0  0  0
 22 23  1  0  0  0  0
 22 46  2  0  0  0  0
 23 24  1  0  0  0  0
 24 25  1  0  0  0  0
 24 45  2  0  0  0  0
 25 26  2  0  0  0  0
 25 65  1  0  0  0  0
 26 27  1  0  0  0  0
 26 66  1  0  0  0  0
 27 28  2  0  0  0  0
 28 29  1  0  0  0  0
 28 45  1  0  0  0  0
 29 30  2  0  0  0  0
 29 67  1  0  0  0  0
 30 31  1  0  0  0  0
 30 41  1  0  0  0  0
 31 32  1  0  0  0  0
 32 33  1  0  0  0  0
 32 68  1  0  0  0  0
 32 69  1  0  0  0  0
 33 34  1  0  0  0  0
 33 70  1  0  0  0  0
 33 71  1  0  0  0  0
 34 35  1  0  0  0  0
 34 72  1  0  0  0  0
 34 73  1  0  0  0  0
 35 36  1  0  0  0  0
 35 40  1  0  0  0  0
 36 37  1  0  0  0  0
 36 74  1  0  0  0  0
 36 75  1  0  0  0  0
 37 38  1  0  0  0  0
 37 76  1  0  0  0  0
 37 77  1  0  0  0  0
 38 39  1  0  0  0  0
 39 40  1  0  0  0  0
 39 78  1  0  0  0  0
 39 79  1  0  0  0  0
 40 80  1  0  0  0  0
 40 81  1  0  0  0  0
 41 42  1  0  0  0  0
 41 44  2  0  0  0  0
 42 43  1  0  0  0  0
 43 82  1  0  0  0  0
 43 83  1  0  0  0  0
 43 84  1  0  0  0  0
 44 45  1  0  0  0  0
 44 85  1  0  0  0  0
 46 47  1  0  0  0  0
 46 48  1  0  0  0  0
 48 86  1  0  0  0  0
M  END
$$$$
