CHEMBL2347053
 OpenBabel04072215363D

 37 40  0  0  0  0  0  0  0  0999 V2000
   -2.6684   -4.5484   -1.3939 O   0  0  0  0  0  0  0  0  0  0  0  0
   -1.5321   -4.1653   -1.2048 C   0  0  0  0  0  0  0  0  0  0  0  0
   -0.3687   -4.8315   -1.5546 N   0  0  0  0  0  0  0  0  0  0  0  0
    0.7631   -4.1060   -1.1996 C   0  0  0  0  0  0  0  0  0  0  0  0
    2.0761   -4.4803   -1.3992 C   0  0  0  0  0  0  0  0  0  0  0  0
    3.0661   -3.6050   -0.9500 C   0  0  0  0  0  0  0  0  0  0  0  0
    2.7230   -2.3958   -0.3164 C   0  0  0  0  0  0  0  0  0  0  0  0
    1.3820   -2.0349   -0.1274 C   0  0  0  0  0  0  0  0  0  0  0  0
    0.4043   -2.9024   -0.5838 C   0  0  0  0  0  0  0  0  0  0  0  0
   -1.0639   -2.8824   -0.5673 C   0  0  0  0  0  0  0  0  0  0  0  0
   -1.8472   -1.9082   -0.0853 C   0  0  0  0  0  0  0  0  0  0  0  0
   -3.2700   -1.9205   -0.0335 C   0  0  0  0  0  0  0  0  0  0  0  0
   -4.0751   -1.4207   -1.0291 C   0  0  0  0  0  0  0  0  0  0  0  0
   -5.3503   -1.6167   -0.5989 N   0  0  0  0  0  0  0  0  0  0  0  0
   -5.4276   -2.1259    0.6381 N   0  0  0  0  0  0  0  0  0  0  0  0
   -4.1572   -2.3935    0.9863 C   0  0  0  0  0  0  0  0  0  0  0  0
   -3.8733   -3.0149    2.2881 C   0  0  0  0  0  0  0  0  0  0  0  0
   -2.6832   -2.7081    2.9716 C   0  0  0  0  0  0  0  0  0  0  0  0
   -2.4246   -3.2061    4.2555 C   0  0  0  0  0  0  0  0  0  0  0  0
   -3.3612   -4.0065    4.9027 C   0  0  0  0  0  0  0  0  0  0  0  0
   -4.5434   -4.3424    4.2507 C   0  0  0  0  0  0  0  0  0  0  0  0
   -4.7788   -3.8612    2.9498 C   0  0  0  0  0  0  0  0  0  0  0  0
   -5.9861   -4.3424    2.3013 N   0  3  0  0  0  0  0  0  0  0  0  0
   -5.8442   -5.1704    1.3899 O   0  0  0  0  0  0  0  0  0  0  0  0
   -7.0677   -4.0081    2.8098 O   0  5  0  0  0  0  0  0  0  0  0  0
   -0.3803   -5.7319   -2.0073 H   0  0  0  0  0  0  0  0  0  0  0  0
    2.3344   -5.4145   -1.8839 H   0  0  0  0  0  0  0  0  0  0  0  0
    4.1146   -3.8610   -1.0888 H   0  0  0  0  0  0  0  0  0  0  0  0
    3.5149   -1.7342    0.0307 H   0  0  0  0  0  0  0  0  0  0  0  0
    1.1346   -1.1013    0.3659 H   0  0  0  0  0  0  0  0  0  0  0  0
   -1.3805   -1.0171    0.3265 H   0  0  0  0  0  0  0  0  0  0  0  0
   -3.8642   -0.9829   -1.9938 H   0  0  0  0  0  0  0  0  0  0  0  0
   -6.2162   -1.4021   -1.0827 H   0  0  0  0  0  0  0  0  0  0  0  0
   -1.9379   -2.0520    2.5336 H   0  0  0  0  0  0  0  0  0  0  0  0
   -1.4925   -2.9499    4.7546 H   0  0  0  0  0  0  0  0  0  0  0  0
   -3.1673   -4.3700    5.9089 H   0  0  0  0  0  0  0  0  0  0  0  0
   -5.2739   -4.9773    4.7484 H   0  0  0  0  0  0  0  0  0  0  0  0
  1  2  2  0  0  0  0
  2  3  1  0  0  0  0
  2 10  1  0  0  0  0
  3  4  1  0  0  0  0
  3 26  1  0  0  0  0
  4  5  1  0  0  0  0
  4  9  2  0  0  0  0
  5  6  2  0  0  0  0
  5 27  1  0  0  0  0
  6  7  1  0  0  0  0
  6 28  1  0  0  0  0
  7  8  2  0  0  0  0
  7 29  1  0  0  0  0
  8  9  1  0  0  0  0
  8 30  1  0  0  0  0
  9 10  1  0  0  0  0
 10 11  2  0  0  0  0
 11 12  1  0  0  0  0
 11 31  1  0  0  0  0
 12 13  2  0  0  0  0
 12 16  1  0  0  0  0
 13 14  1  0  0  0  0
 13 32  1  0  0  0  0
 14 15  1  0  0  0  0
 14 33  1  0  0  0  0
 15 16  2  0  0  0  0
 16 17  1  0  0  0  0
 17 18  1  0  0  0  0
 17 22  2  0  0  0  0
 18 19  2  0  0  0  0
 18 34  1  0  0  0  0
 19 20  1  0  0  0  0
 19 35  1  0  0  0  0
 20 21  2  0  0  0  0
 20 36  1  0  0  0  0
 21 22  1  0  0  0  0
 21 37  1  0  0  0  0
 22 23  1  0  0  0  0
 23 24  2  0  0  0  0
 23 25  1  0  0  0  0
M  CHG  2  23   1  25  -1
M  END
$$$$
