CHEMBL205325
 OpenBabel04072215363D

 55 58  0  0  0  0  0  0  0  0999 V2000
    4.3301    1.1711    0.4745 C   0  0  0  0  0  0  0  0  0  0  0  0
    3.6824   -0.2314    0.5313 C   0  0  0  0  0  0  0  0  0  0  0  0
    4.2698   -0.9562    1.7607 C   0  0  0  0  0  0  0  0  0  0  0  0
    2.1669   -0.0267    0.7480 C   0  0  0  0  0  0  0  0  0  0  0  0
    3.9148   -1.0634   -0.7420 C   0  0  0  0  0  0  0  0  0  0  0  0
    4.6310   -0.5732   -1.8443 C   0  0  0  0  0  0  0  0  0  0  0  0
    4.7940   -1.3304   -3.0149 C   0  0  0  0  0  0  0  0  0  0  0  0
    4.2313   -2.5988   -3.1437 C   0  0  0  0  0  0  0  0  0  0  0  0
    4.3523   -3.4093   -4.2858 N   0  0  0  0  0  0  0  0  0  0  0  0
    5.0763   -3.2362   -5.4069 C   0  0  0  0  0  0  0  0  0  0  0  0
    4.9110   -3.8352   -6.5673 N   0  0  0  0  0  0  0  0  0  0  0  0
    5.9371   -3.4151   -7.3831 N   0  0  0  0  0  0  0  0  0  0  0  0
    6.6617   -2.5700   -6.6805 C   0  0  0  0  0  0  0  0  0  0  0  0
    7.8712   -1.8274   -7.0249 C   0  0  0  0  0  0  0  0  0  0  0  0
    8.5771   -1.1477   -6.0122 C   0  0  0  0  0  0  0  0  0  0  0  0
    9.7755   -0.4934   -6.2833 C   0  0  0  0  0  0  0  0  0  0  0  0
   10.2476   -0.5232   -7.5760 C   0  0  0  0  0  0  0  0  0  0  0  0
    9.5989   -1.1363   -8.5855 N   0  0  0  0  0  0  0  0  0  0  0  0
    8.4192   -1.7778   -8.3183 C   0  0  0  0  0  0  0  0  0  0  0  0
    7.8336   -2.4556   -9.5375 C   0  0  0  0  0  0  0  0  0  0  0  0
    6.4831   -1.9484  -10.0652 C   0  0  0  0  0  0  0  0  0  0  0  0
    6.3115   -0.4682  -10.3007 C   0  0  0  0  0  0  0  0  0  0  0  0
    7.3137    0.3317  -10.8493 C   0  0  0  0  0  0  0  0  0  0  0  0
    7.0397    1.6729  -11.0856 C   0  0  0  0  0  0  0  0  0  0  0  0
    5.8521    2.2634  -10.8266 N   0  0  0  0  0  0  0  0  0  0  0  0
    4.8904    1.4683  -10.3069 C   0  0  0  0  0  0  0  0  0  0  0  0
    5.0688    0.1212  -10.0376 C   0  0  0  0  0  0  0  0  0  0  0  0
    6.1753   -2.4215   -5.4031 O   0  0  0  0  0  0  0  0  0  0  0  0
    3.5540   -3.1132   -2.0282 C   0  0  0  0  0  0  0  0  0  0  0  0
    3.3923   -2.3615   -0.8553 C   0  0  0  0  0  0  0  0  0  0  0  0
    4.1510    1.7303    1.3999 H   0  0  0  0  0  0  0  0  0  0  0  0
    3.9207    1.7698   -0.3481 H   0  0  0  0  0  0  0  0  0  0  0  0
    5.4166    1.1067    0.3413 H   0  0  0  0  0  0  0  0  0  0  0  0
    4.1271   -0.3619    2.6714 H   0  0  0  0  0  0  0  0  0  0  0  0
    5.3457   -1.1293    1.6419 H   0  0  0  0  0  0  0  0  0  0  0  0
    3.7952   -1.9276    1.9358 H   0  0  0  0  0  0  0  0  0  0  0  0
    1.9745    0.5724    1.6457 H   0  0  0  0  0  0  0  0  0  0  0  0
    1.6346   -0.9758    0.8758 H   0  0  0  0  0  0  0  0  0  0  0  0
    1.7122    0.4935   -0.1034 H   0  0  0  0  0  0  0  0  0  0  0  0
    5.0749    0.4184   -1.8366 H   0  0  0  0  0  0  0  0  0  0  0  0
    5.3414   -0.8705   -3.8319 H   0  0  0  0  0  0  0  0  0  0  0  0
    3.6109   -4.0949   -4.3681 H   0  0  0  0  0  0  0  0  0  0  0  0
    8.2093   -1.1384   -4.9878 H   0  0  0  0  0  0  0  0  0  0  0  0
   10.3286    0.0140   -5.5008 H   0  0  0  0  0  0  0  0  0  0  0  0
   11.1872   -0.0492   -7.8452 H   0  0  0  0  0  0  0  0  0  0  0  0
    7.7694   -3.5331   -9.3419 H   0  0  0  0  0  0  0  0  0  0  0  0
    8.5637   -2.3683  -10.3555 H   0  0  0  0  0  0  0  0  0  0  0  0
    5.6844   -2.2750   -9.3969 H   0  0  0  0  0  0  0  0  0  0  0  0
    6.2829   -2.4550  -11.0188 H   0  0  0  0  0  0  0  0  0  0  0  0
    8.2937   -0.0645  -11.0974 H   0  0  0  0  0  0  0  0  0  0  0  0
    7.7913    2.3278  -11.5127 H   0  0  0  0  0  0  0  0  0  0  0  0
    3.9397    1.9559  -10.1139 H   0  0  0  0  0  0  0  0  0  0  0  0
    4.2448   -0.4591   -9.6329 H   0  0  0  0  0  0  0  0  0  0  0  0
    3.1329   -4.1156   -2.0583 H   0  0  0  0  0  0  0  0  0  0  0  0
    2.8418   -2.8108   -0.0309 H   0  0  0  0  0  0  0  0  0  0  0  0
  1  2  1  0  0  0  0
  1 31  1  0  0  0  0
  1 32  1  0  0  0  0
  1 33  1  0  0  0  0
  2  3  1  0  0  0  0
  2  4  1  0  0  0  0
  2  5  1  0  0  0  0
  3 34  1  0  0  0  0
  3 35  1  0  0  0  0
  3 36  1  0  0  0  0
  4 37  1  0  0  0  0
  4 38  1  0  0  0  0
  4 39  1  0  0  0  0
  5  6  1  0  0  0  0
  5 30  2  0  0  0  0
  6  7  2  0  0  0  0
  6 40  1  0  0  0  0
  7  8  1  0  0  0  0
  7 41  1  0  0  0  0
  8  9  1  0  0  0  0
  8 29  2  0  0  0  0
  9 10  1  0  0  0  0
  9 42  1  0  0  0  0
 10 11  2  0  0  0  0
 10 28  1  0  0  0  0
 11 12  1  0  0  0  0
 12 13  2  0  0  0  0
 13 14  1  0  0  0  0
 13 28  1  0  0  0  0
 14 15  1  0  0  0  0
 14 19  2  0  0  0  0
 15 16  2  0  0  0  0
 15 43  1  0  0  0  0
 16 17  1  0  0  0  0
 16 44  1  0  0  0  0
 17 18  2  0  0  0  0
 17 45  1  0  0  0  0
 18 19  1  0  0  0  0
 19 20  1  0  0  0  0
 20 21  1  0  0  0  0
 20 46  1  0  0  0  0
 20 47  1  0  0  0  0
 21 22  1  0  0  0  0
 21 48  1  0  0  0  0
 21 49  1  0  0  0  0
 22 23  1  0  0  0  0
 22 27  2  0  0  0  0
 23 24  2  0  0  0  0
 23 50  1  0  0  0  0
 24 25  1  0  0  0  0
 24 51  1  0  0  0  0
 25 26  2  0  0  0  0
 26 27  1  0  0  0  0
 26 52  1  0  0  0  0
 27 53  1  0  0  0  0
 29 30  1  0  0  0  0
 29 54  1  0  0  0  0
 30 55  1  0  0  0  0
M  END
$$$$
