CHEMBL3899692
 OpenBabel04072215373D

 66 69  0  0  1  0  0  0  0  0999 V2000
    0.5901    0.3945    3.9931 C   0  0  0  0  0  0  0  0  0  0  0  0
    1.9413    0.7727    4.2693 O   0  0  0  0  0  0  0  0  0  0  0  0
    2.8823    0.4798    3.3087 C   0  0  0  0  0  0  0  0  0  0  0  0
    2.6067   -0.2237    2.1351 C   0  0  0  0  0  0  0  0  0  0  0  0
    3.6097   -0.4180    1.1910 C   0  0  0  0  0  0  0  0  0  0  0  0
    3.4561   -1.0505   -0.0145 O   0  0  0  0  0  0  0  0  0  0  0  0
    2.1937   -1.6515   -0.2763 C   0  0  0  0  0  0  0  0  0  0  0  0
    4.8944    0.0941    1.4223 C   0  0  0  0  0  0  0  0  0  0  0  0
    5.2234    0.8068    2.5877 C   0  0  0  0  0  0  0  0  0  0  0  0
    6.4559    1.5055    2.7286 N   0  0  0  0  0  0  0  0  0  0  0  0
    7.0427    2.0493    1.4335 C   0  0  0  0  0  0  0  0  0  0  0  0
    6.1463    3.0406    0.6382 C   0  0  0  0  0  0  0  0  0  0  0  0
    6.7379    3.5360   -0.6225 N   0  0  0  0  0  0  0  0  0  0  0  0
    7.1557    2.6693   -1.6221 C   0  0  0  0  0  0  0  0  0  0  0  0
    7.1343    1.4491   -1.4658 O   0  0  0  0  0  0  0  0  0  0  0  0
    7.5674    3.3012   -2.9704 C   0  0  3  0  0  0  0  0  0  0  0  0
    7.8103    2.1959   -4.0120 C   0  0  0  0  0  0  0  0  0  0  0  0
    6.4432    4.0927   -3.4286 O   0  0  0  0  0  0  0  0  0  0  0  0
    8.8512    4.1413   -2.7915 C   0  0  0  0  0  0  0  0  0  0  0  0
    9.3358    4.1199   -1.5295 F   0  0  0  0  0  0  0  0  0  0  0  0
    9.8570    3.7234   -3.5999 F   0  0  0  0  0  0  0  0  0  0  0  0
    8.6357    5.4468   -3.0974 F   0  0  0  0  0  0  0  0  0  0  0  0
    7.5528    1.2584    3.6380 C   0  0  0  0  0  0  0  0  0  0  0  0
    8.2587    2.3953    4.0168 C   0  0  0  0  0  0  0  0  0  0  0  0
    9.5821    2.3079    4.3957 C   0  0  0  0  0  0  0  0  0  0  0  0
   10.1950    1.0984    4.5955 C   0  0  0  0  0  0  0  0  0  0  0  0
   11.5207    1.1835    4.7840 N   0  0  0  0  0  0  0  0  0  0  0  0
   12.1482    0.0591    5.1497 C   0  0  0  0  0  0  0  0  0  0  0  0
   11.4638   -1.1122    5.3981 C   0  0  0  0  0  0  0  0  0  0  0  0
   12.1907   -2.1163    6.1732 C   0  0  0  0  0  0  0  0  0  0  0  0
   12.1413   -2.3837    7.5679 C   0  0  0  0  0  0  0  0  0  0  0  0
   13.1222   -3.1963    7.9825 N   0  0  0  0  0  0  0  0  0  0  0  0
   13.8107   -3.4529    6.8579 N   0  0  0  0  0  0  0  0  0  0  0  0
   14.7952   -4.5104    6.8282 C   0  0  0  0  0  0  0  0  0  0  0  0
   13.3908   -2.7003    5.7932 C   0  0  0  0  0  0  0  0  0  0  0  0
   10.1259   -1.2344    5.0778 N   0  0  0  0  0  0  0  0  0  0  0  0
    9.4649   -0.1021    4.5819 C   0  0  0  0  0  0  0  0  0  0  0  0
    8.1169    0.0113    4.0278 C   0  0  0  0  0  0  0  0  0  0  0  0
    4.1899    0.9694    3.5378 C   0  0  0  0  0  0  0  0  0  0  0  0
   -0.0466    0.7640    4.8034 H   0  0  0  0  0  0  0  0  0  0  0  0
    0.4845   -0.6960    3.9619 H   0  0  0  0  0  0  0  0  0  0  0  0
    0.2250    0.8468    3.0629 H   0  0  0  0  0  0  0  0  0  0  0  0
    1.6114   -0.6054    1.9493 H   0  0  0  0  0  0  0  0  0  0  0  0
    2.2610   -2.1654   -1.2398 H   0  0  0  0  0  0  0  0  0  0  0  0
    1.4055   -0.8951   -0.3570 H   0  0  0  0  0  0  0  0  0  0  0  0
    1.9462   -2.4003    0.4835 H   0  0  0  0  0  0  0  0  0  0  0  0
    5.6333   -0.0517    0.6385 H   0  0  0  0  0  0  0  0  0  0  0  0
    7.3808    1.2053    0.8286 H   0  0  0  0  0  0  0  0  0  0  0  0
    7.9596    2.6221    1.6264 H   0  0  0  0  0  0  0  0  0  0  0  0
    5.9541    3.9303    1.2508 H   0  0  0  0  0  0  0  0  0  0  0  0
    5.1773    2.6075    0.3764 H   0  0  0  0  0  0  0  0  0  0  0  0
    6.5371    4.4989   -0.8907 H   0  0  0  0  0  0  0  0  0  0  0  0
    6.9078    1.5954   -4.1748 H   0  0  0  0  0  0  0  0  0  0  0  0
    8.6119    1.5167   -3.6986 H   0  0  0  0  0  0  0  0  0  0  0  0
    8.0790    2.6223   -4.9852 H   0  0  0  0  0  0  0  0  0  0  0  0
    5.7128    3.4757   -3.6201 H   0  0  0  0  0  0  0  0  0  0  0  0
    7.8353    3.3860    3.8463 H   0  0  0  0  0  0  0  0  0  0  0  0
   10.1607    3.2183    4.5100 H   0  0  0  0  0  0  0  0  0  0  0  0
   13.2176    0.1533    5.3091 H   0  0  0  0  0  0  0  0  0  0  0  0
   11.4589   -1.9873    8.3092 H   0  0  0  0  0  0  0  0  0  0  0  0
   14.8634   -4.9856    7.8110 H   0  0  0  0  0  0  0  0  0  0  0  0
   15.7658   -4.1009    6.5386 H   0  0  0  0  0  0  0  0  0  0  0  0
   14.4575   -5.2461    6.0929 H   0  0  0  0  0  0  0  0  0  0  0  0
   13.9600   -2.6719    4.8746 H   0  0  0  0  0  0  0  0  0  0  0  0
    7.5620   -0.9113    3.8533 H   0  0  0  0  0  0  0  0  0  0  0  0
    4.3742    1.5540    4.4371 H   0  0  0  0  0  0  0  0  0  0  0  0
  1  2  1  0  0  0  0
  1 40  1  0  0  0  0
  1 41  1  0  0  0  0
  1 42  1  0  0  0  0
  2  3  1  0  0  0  0
  3  4  1  0  0  0  0
  3 39  2  0  0  0  0
  4  5  2  0  0  0  0
  4 43  1  0  0  0  0
  5  6  1  0  0  0  0
  5  8  1  0  0  0  0
  6  7  1  0  0  0  0
  7 44  1  0  0  0  0
  7 45  1  0  0  0  0
  7 46  1  0  0  0  0
  8  9  2  0  0  0  0
  8 47  1  0  0  0  0
  9 10  1  0  0  0  0
  9 39  1  0  0  0  0
 10 11  1  0  0  0  0
 10 23  1  0  0  0  0
 11 12  1  0  0  0  0
 11 48  1  0  0  0  0
 11 49  1  0  0  0  0
 12 13  1  0  0  0  0
 12 50  1  0  0  0  0
 12 51  1  0  0  0  0
 13 14  1  0  0  0  0
 13 52  1  0  0  0  0
 14 15  2  0  0  0  0
 14 16  1  0  0  0  0
 16 17  1  0  0  0  0
 16 18  1  0  0  0  0
 16 19  1  0  0  0  0
 17 53  1  0  0  0  0
 17 54  1  0  0  0  0
 17 55  1  0  0  0  0
 18 56  1  0  0  0  0
 19 20  1  0  0  0  0
 19 21  1  0  0  0  0
 19 22  1  0  0  0  0
 23 24  1  0  0  0  0
 23 38  2  0  0  0  0
 24 25  2  0  0  0  0
 24 57  1  0  0  0  0
 25 26  1  0  0  0  0
 25 58  1  0  0  0  0
 26 27  1  0  0  0  0
 26 37  2  0  0  0  0
 27 28  2  0  0  0  0
 28 29  1  0  0  0  0
 28 59  1  0  0  0  0
 29 30  1  0  0  0  0
 29 36  2  0  0  0  0
 30 31  1  0  0  0  0
 30 35  2  0  0  0  0
 31 32  2  0  0  0  0
 31 60  1  0  0  0  0
 32 33  1  0  0  0  0
 33 34  1  0  0  0  0
 33 35  1  0  0  0  0
 34 61  1  0  0  0  0
 34 62  1  0  0  0  0
 34 63  1  0  0  0  0
 35 64  1  0  0  0  0
 36 37  1  0  0  0  0
 37 38  1  0  0  0  0
 38 65  1  0  0  0  0
 39 66  1  0  0  0  0
M  END
$$$$
