CHEMBL4239716
 OpenBabel04072215383D

 35 37  0  0  0  0  0  0  0  0999 V2000
    4.2615    1.2085   -0.3540 C   0  0  0  0  0  0  0  0  0  0  0  0
    3.1195    0.0712    0.4835 S   0  0  0  0  0  0  0  0  0  0  0  0
    3.4637   -1.4948   -0.3045 C   0  0  0  0  0  0  0  0  0  0  0  0
    3.3365   -2.6533    0.4699 C   0  0  0  0  0  0  0  0  0  0  0  0
    3.6252   -3.9183   -0.0657 C   0  0  0  0  0  0  0  0  0  0  0  0
    4.0833   -4.0603   -1.3839 C   0  0  0  0  0  0  0  0  0  0  0  0
    4.5438   -5.2813   -1.9016 N   0  0  0  0  0  0  0  0  0  0  0  0
    3.9907   -6.5356   -1.3845 C   0  0  0  0  0  0  0  0  0  0  0  0
    5.7588   -5.5025   -2.5907 C   0  0  0  0  0  0  0  0  0  0  0  0
    5.7926   -6.5304   -3.4985 N   0  0  0  0  0  0  0  0  0  0  0  0
    6.9133   -6.7801   -4.1969 C   0  0  0  0  0  0  0  0  0  0  0  0
    8.0765   -6.1472   -4.1156 N   0  0  0  0  0  0  0  0  0  0  0  0
    8.0451   -5.1801   -3.1942 C   0  0  0  0  0  0  0  0  0  0  0  0
    9.1476   -4.4342   -2.9203 O   0  0  0  0  0  0  0  0  0  0  0  0
    8.8171   -3.5893   -1.9211 C   0  0  0  0  0  0  0  0  0  0  0  0
    7.5129   -3.7671   -1.5260 C   0  0  0  0  0  0  0  0  0  0  0  0
    6.8968   -3.0283   -0.4010 C   0  0  0  0  0  0  0  0  0  0  0  0
    6.9747   -4.7922   -2.3887 C   0  0  0  0  0  0  0  0  0  0  0  0
    4.1371   -2.8965   -2.1719 C   0  0  0  0  0  0  0  0  0  0  0  0
    3.8310   -1.6319   -1.6427 C   0  0  0  0  0  0  0  0  0  0  0  0
    4.1422    2.2051    0.0824 H   0  0  0  0  0  0  0  0  0  0  0  0
    4.0353    1.2855   -1.4196 H   0  0  0  0  0  0  0  0  0  0  0  0
    5.3007    0.8969   -0.2154 H   0  0  0  0  0  0  0  0  0  0  0  0
    3.0499   -2.5853    1.5174 H   0  0  0  0  0  0  0  0  0  0  0  0
    3.5711   -4.7742    0.6007 H   0  0  0  0  0  0  0  0  0  0  0  0
    3.0304   -6.3980   -0.8755 H   0  0  0  0  0  0  0  0  0  0  0  0
    4.6858   -6.9980   -0.6742 H   0  0  0  0  0  0  0  0  0  0  0  0
    3.7897   -7.2502   -2.1911 H   0  0  0  0  0  0  0  0  0  0  0  0
    6.8591   -7.5991   -4.9093 H   0  0  0  0  0  0  0  0  0  0  0  0
    9.6155   -2.9367   -1.5848 H   0  0  0  0  0  0  0  0  0  0  0  0
    7.6613   -2.6043    0.2616 H   0  0  0  0  0  0  0  0  0  0  0  0
    6.2826   -3.6815    0.2197 H   0  0  0  0  0  0  0  0  0  0  0  0
    6.3212   -2.1813   -0.7724 H   0  0  0  0  0  0  0  0  0  0  0  0
    4.4585   -2.9638   -3.2097 H   0  0  0  0  0  0  0  0  0  0  0  0
    3.9229   -0.7689   -2.2960 H   0  0  0  0  0  0  0  0  0  0  0  0
  1  2  1  0  0  0  0
  1 21  1  0  0  0  0
  1 22  1  0  0  0  0
  1 23  1  0  0  0  0
  2  3  1  0  0  0  0
  3  4  1  0  0  0  0
  3 20  2  0  0  0  0
  4  5  2  0  0  0  0
  4 24  1  0  0  0  0
  5  6  1  0  0  0  0
  5 25  1  0  0  0  0
  6  7  1  0  0  0  0
  6 19  2  0  0  0  0
  7  8  1  0  0  0  0
  7  9  1  0  0  0  0
  8 26  1  0  0  0  0
  8 27  1  0  0  0  0
  8 28  1  0  0  0  0
  9 10  1  0  0  0  0
  9 18  2  0  0  0  0
 10 11  2  0  0  0  0
 11 12  1  0  0  0  0
 11 29  1  0  0  0  0
 12 13  2  0  0  0  0
 13 14  1  0  0  0  0
 13 18  1  0  0  0  0
 14 15  1  0  0  0  0
 15 16  2  0  0  0  0
 15 30  1  0  0  0  0
 16 17  1  0  0  0  0
 16 18  1  0  0  0  0
 17 31  1  0  0  0  0
 17 32  1  0  0  0  0
 17 33  1  0  0  0  0
 19 20  1  0  0  0  0
 19 34  1  0  0  0  0
 20 35  1  0  0  0  0
M  END
$$$$
