CHEMBL3814710
 OpenBabel04072215373D

 74 78  0  0  0  0  0  0  0  0999 V2000
    2.3494   -0.1265    0.3003 N   0  0  0  0  0  0  0  0  0  0  0  0
    0.9733    0.0152    0.1299 C   0  0  0  0  0  0  0  0  0  0  0  0
    0.3165   -1.1507   -0.0068 N   0  0  0  0  0  0  0  0  0  0  0  0
   -1.0194   -1.0891   -0.0375 C   0  0  0  0  0  0  0  0  0  0  0  0
   -1.7535    0.0218    0.0514 N   0  0  0  0  0  0  0  0  0  0  0  0
   -1.0619    1.1817    0.1233 C   0  0  0  0  0  0  0  0  0  0  0  0
   -1.7972    2.3632    0.1208 O   0  0  0  0  0  0  0  0  0  0  0  0
   -3.0400    2.3538   -0.4889 C   0  0  0  0  0  0  0  0  0  0  0  0
   -4.0710    3.0329    0.1658 C   0  0  0  0  0  0  0  0  0  0  0  0
   -5.3390    3.1434   -0.4257 C   0  0  0  0  0  0  0  0  0  0  0  0
   -5.5719    2.6338   -1.7073 C   0  0  0  0  0  0  0  0  0  0  0  0
   -6.8296    2.8843   -2.3009 N   0  0  0  0  0  0  0  0  0  0  0  0
   -6.9775    3.2758   -3.6215 C   0  0  0  0  0  0  0  0  0  0  0  0
   -6.0889    3.3463   -4.4631 O   0  0  0  0  0  0  0  0  0  0  0  0
   -8.3662    3.7306   -3.9903 C   0  0  0  0  0  0  0  0  0  0  0  0
   -8.8666    4.9483   -3.2551 C   0  0  0  0  0  0  0  0  0  0  0  0
   -9.1665    4.7868   -2.0769 O   0  0  0  0  0  0  0  0  0  0  0  0
   -8.9036    6.1159   -3.9750 N   0  0  0  0  0  0  0  0  0  0  0  0
   -9.3141    7.3931   -3.5061 C   0  0  0  0  0  0  0  0  0  0  0  0
   -9.8122    7.6120   -2.2168 C   0  0  0  0  0  0  0  0  0  0  0  0
  -10.1478    8.9021   -1.7910 C   0  0  0  0  0  0  0  0  0  0  0  0
   -9.9990    9.9717   -2.6596 C   0  0  0  0  0  0  0  0  0  0  0  0
  -10.3009   11.2093   -2.2418 F   0  0  0  0  0  0  0  0  0  0  0  0
   -9.5420    9.7746   -3.9541 C   0  0  0  0  0  0  0  0  0  0  0  0
   -9.1998    8.4839   -4.3801 C   0  0  0  0  0  0  0  0  0  0  0  0
   -9.4182    2.6446   -4.2423 C   0  0  0  0  0  0  0  0  0  0  0  0
   -8.8601    3.4096   -5.3978 C   0  0  0  0  0  0  0  0  0  0  0  0
   -4.5494    1.9426   -2.3607 C   0  0  0  0  0  0  0  0  0  0  0  0
   -3.2959    1.8087   -1.7533 C   0  0  0  0  0  0  0  0  0  0  0  0
   -2.3287    1.1738   -2.4339 F   0  0  0  0  0  0  0  0  0  0  0  0
    0.3219    1.2400    0.2137 C   0  0  0  0  0  0  0  0  0  0  0  0
    1.0615    2.5111    0.3789 C   0  0  0  0  0  0  0  0  0  0  0  0
    2.2982    2.6422   -0.0042 N   0  0  0  0  0  0  0  0  0  0  0  0
    2.7701    3.9356    0.2963 O   0  0  0  0  0  0  0  0  0  0  0  0
    4.1236    4.0470   -0.1723 C   0  0  0  0  0  0  0  0  0  0  0  0
    4.7091    5.4307    0.1519 C   0  0  0  0  0  0  0  0  0  0  0  0
    4.8444    5.6153    1.6704 C   0  0  0  0  0  0  0  0  0  0  0  0
    5.2780    6.9439    2.1344 N   0  0  0  0  0  0  0  0  0  0  0  0
    6.6624    7.3335    1.7883 C   0  0  0  0  0  0  0  0  0  0  0  0
    7.7896    6.7123    2.6453 C   0  0  0  0  0  0  0  0  0  0  0  0
    7.5206    6.7532    4.0530 O   0  0  0  0  0  0  0  0  0  0  0  0
    6.2310    6.2076    4.3417 C   0  0  0  0  0  0  0  0  0  0  0  0
    5.1491    7.0183    3.6123 C   0  0  0  0  0  0  0  0  0  0  0  0
    2.6245   -1.0718    0.0556 H   0  0  0  0  0  0  0  0  0  0  0  0
    2.8687    0.6062   -0.1829 H   0  0  0  0  0  0  0  0  0  0  0  0
   -1.5529   -2.0268   -0.1473 H   0  0  0  0  0  0  0  0  0  0  0  0
   -3.8901    3.5005    1.1301 H   0  0  0  0  0  0  0  0  0  0  0  0
   -6.1154    3.7028    0.0918 H   0  0  0  0  0  0  0  0  0  0  0  0
   -7.5903    3.1589   -1.6821 H   0  0  0  0  0  0  0  0  0  0  0  0
   -8.5441    6.0844   -4.9273 H   0  0  0  0  0  0  0  0  0  0  0  0
   -9.9521    6.8041   -1.5077 H   0  0  0  0  0  0  0  0  0  0  0  0
  -10.5171    9.0692   -0.7836 H   0  0  0  0  0  0  0  0  0  0  0  0
   -9.4452   10.6257   -4.6224 H   0  0  0  0  0  0  0  0  0  0  0  0
   -8.8377    8.3538   -5.3951 H   0  0  0  0  0  0  0  0  0  0  0  0
  -10.4478    2.8439   -3.9618 H   0  0  0  0  0  0  0  0  0  0  0  0
   -9.1263    1.6077   -4.1158 H   0  0  0  0  0  0  0  0  0  0  0  0
   -9.5152    4.1054   -5.9072 H   0  0  0  0  0  0  0  0  0  0  0  0
   -8.1825    2.8828   -6.0659 H   0  0  0  0  0  0  0  0  0  0  0  0
   -4.7032    1.4988   -3.3397 H   0  0  0  0  0  0  0  0  0  0  0  0
    0.5223    3.3538    0.8474 H   0  0  0  0  0  0  0  0  0  0  0  0
    4.1320    3.8914   -1.2565 H   0  0  0  0  0  0  0  0  0  0  0  0
    4.7338    3.2636    0.2957 H   0  0  0  0  0  0  0  0  0  0  0  0
    4.0576    6.2096   -0.2602 H   0  0  0  0  0  0  0  0  0  0  0  0
    5.6903    5.5190   -0.3274 H   0  0  0  0  0  0  0  0  0  0  0  0
    5.4980    4.8251    2.0561 H   0  0  0  0  0  0  0  0  0  0  0  0
    3.8475    5.4388    2.0910 H   0  0  0  0  0  0  0  0  0  0  0  0
    6.7178    8.4227    1.9309 H   0  0  0  0  0  0  0  0  0  0  0  0
    6.8744    7.1757    0.7255 H   0  0  0  0  0  0  0  0  0  0  0  0
    8.7130    7.2821    2.4900 H   0  0  0  0  0  0  0  0  0  0  0  0
    7.9860    5.6771    2.3508 H   0  0  0  0  0  0  0  0  0  0  0  0
    6.0739    6.2589    5.4226 H   0  0  0  0  0  0  0  0  0  0  0  0
    6.2169    5.1457    4.0678 H   0  0  0  0  0  0  0  0  0  0  0  0
    5.2423    8.0729    3.9061 H   0  0  0  0  0  0  0  0  0  0  0  0
    4.1498    6.6976    3.9285 H   0  0  0  0  0  0  0  0  0  0  0  0
  1  2  1  0  0  0  0
  1 44  1  0  0  0  0
  1 45  1  0  0  0  0
  2  3  1  0  0  0  0
  2 31  2  0  0  0  0
  3  4  2  0  0  0  0
  4  5  1  0  0  0  0
  4 46  1  0  0  0  0
  5  6  2  0  0  0  0
  6  7  1  0  0  0  0
  6 31  1  0  0  0  0
  7  8  1  0  0  0  0
  8  9  1  0  0  0  0
  8 29  2  0  0  0  0
  9 10  2  0  0  0  0
  9 47  1  0  0  0  0
 10 11  1  0  0  0  0
 10 48  1  0  0  0  0
 11 12  1  0  0  0  0
 11 28  2  0  0  0  0
 12 13  1  0  0  0  0
 12 49  1  0  0  0  0
 13 14  2  0  0  0  0
 13 15  1  0  0  0  0
 15 16  1  0  0  0  0
 15 26  1  0  0  0  0
 15 27  1  0  0  0  0
 16 17  2  0  0  0  0
 16 18  1  0  0  0  0
 18 19  1  0  0  0  0
 18 50  1  0  0  0  0
 19 20  1  0  0  0  0
 19 25  2  0  0  0  0
 20 21  2  0  0  0  0
 20 51  1  0  0  0  0
 21 22  1  0  0  0  0
 21 52  1  0  0  0  0
 22 23  1  0  0  0  0
 22 24  2  0  0  0  0
 24 25  1  0  0  0  0
 24 53  1  0  0  0  0
 25 54  1  0  0  0  0
 26 27  1  0  0  0  0
 26 55  1  0  0  0  0
 26 56  1  0  0  0  0
 27 57  1  0  0  0  0
 27 58  1  0  0  0  0
 28 29  1  0  0  0  0
 28 59  1  0  0  0  0
 29 30  1  0  0  0  0
 31 32  1  0  0  0  0
 32 33  2  0  0  0  0
 32 60  1  0  0  0  0
 33 34  1  0  0  0  0
 34 35  1  0  0  0  0
 35 36  1  0  0  0  0
 35 61  1  0  0  0  0
 35 62  1  0  0  0  0
 36 37  1  0  0  0  0
 36 63  1  0  0  0  0
 36 64  1  0  0  0  0
 37 38  1  0  0  0  0
 37 65  1  0  0  0  0
 37 66  1  0  0  0  0
 38 39  1  0  0  0  0
 38 43  1  0  0  0  0
 39 40  1  0  0  0  0
 39 67  1  0  0  0  0
 39 68  1  0  0  0  0
 40 41  1  0  0  0  0
 40 69  1  0  0  0  0
 40 70  1  0  0  0  0
 41 42  1  0  0  0  0
 42 43  1  0  0  0  0
 42 71  1  0  0  0  0
 42 72  1  0  0  0  0
 43 73  1  0  0  0  0
 43 74  1  0  0  0  0
M  END
$$$$
