CHEMBL1964307
 OpenBabel04072215363D

 47 50  0  0  0  0  0  0  0  0999 V2000
   -4.8921   -4.9474    7.2648 C   0  0  0  0  0  0  0  0  0  0  0  0
   -3.9516   -4.5773    6.1584 C   0  0  0  0  0  0  0  0  0  0  0  0
   -2.5821   -4.4621    6.4151 C   0  0  0  0  0  0  0  0  0  0  0  0
   -1.7031   -4.1236    5.3941 C   0  0  0  0  0  0  0  0  0  0  0  0
   -2.1826   -3.9248    4.0997 C   0  0  0  0  0  0  0  0  0  0  0  0
   -3.5382   -4.0683    3.7992 C   0  0  0  0  0  0  0  0  0  0  0  0
   -4.0544   -3.9187    2.4925 N   0  0  0  0  0  0  0  0  0  0  0  0
   -3.3025   -3.8934    1.3269 C   0  0  0  0  0  0  0  0  0  0  0  0
   -2.0842   -4.0808    1.2646 O   0  0  0  0  0  0  0  0  0  0  0  0
   -4.0358   -3.6440    0.0238 C   0  0  0  0  0  0  0  0  0  0  0  0
   -5.5163   -3.3990    0.0751 C   0  0  0  0  0  0  0  0  0  0  0  0
   -6.0253   -2.1080    0.2272 C   0  0  0  0  0  0  0  0  0  0  0  0
   -7.4066   -1.8853    0.2413 C   0  0  0  0  0  0  0  0  0  0  0  0
   -8.3203   -2.9382    0.0763 C   0  0  0  0  0  0  0  0  0  0  0  0
   -9.7819   -2.7080    0.0382 C   0  0  0  0  0  0  0  0  0  0  0  0
  -10.3353   -1.5309   -0.5253 C   0  0  0  0  0  0  0  0  0  0  0  0
  -11.7106   -1.3515   -0.6863 C   0  0  0  0  0  0  0  0  0  0  0  0
  -12.6024   -2.3717   -0.3646 C   0  0  0  0  0  0  0  0  0  0  0  0
  -12.0625   -3.5235    0.2095 C   0  0  0  0  0  0  0  0  0  0  0  0
  -12.6527   -4.7017    0.5824 N   0  0  0  0  0  0  0  0  0  0  0  0
  -11.8557   -5.5264    1.2680 N   0  0  0  0  0  0  0  0  0  0  0  0
  -10.6776   -4.9053    1.2535 C   0  0  0  0  0  0  0  0  0  0  0  0
   -9.6174   -5.3973    1.9079 N   0  0  0  0  0  0  0  0  0  0  0  0
  -10.7086   -3.6888    0.4970 C   0  0  0  0  0  0  0  0  0  0  0  0
   -7.7755   -4.2222   -0.1173 C   0  0  0  0  0  0  0  0  0  0  0  0
   -6.4040   -4.4651   -0.0675 C   0  0  0  0  0  0  0  0  0  0  0  0
   -4.4289   -4.3684    4.8467 C   0  0  0  0  0  0  0  0  0  0  0  0
   -4.3595   -5.0554    8.2201 H   0  0  0  0  0  0  0  0  0  0  0  0
   -5.3778   -5.9038    7.0488 H   0  0  0  0  0  0  0  0  0  0  0  0
   -5.6522   -4.1718    7.3980 H   0  0  0  0  0  0  0  0  0  0  0  0
   -2.1883   -4.6326    7.4134 H   0  0  0  0  0  0  0  0  0  0  0  0
   -0.6416   -4.0198    5.5936 H   0  0  0  0  0  0  0  0  0  0  0  0
   -1.4593   -3.6406    3.3421 H   0  0  0  0  0  0  0  0  0  0  0  0
   -5.0606   -3.9242    2.4011 H   0  0  0  0  0  0  0  0  0  0  0  0
   -3.8403   -4.5069   -0.6288 H   0  0  0  0  0  0  0  0  0  0  0  0
   -3.5542   -2.7835   -0.4592 H   0  0  0  0  0  0  0  0  0  0  0  0
   -5.3527   -1.2577    0.3191 H   0  0  0  0  0  0  0  0  0  0  0  0
   -7.7568   -0.8626    0.3637 H   0  0  0  0  0  0  0  0  0  0  0  0
   -9.6818   -0.7339   -0.8782 H   0  0  0  0  0  0  0  0  0  0  0  0
  -12.0859   -0.4199   -1.1035 H   0  0  0  0  0  0  0  0  0  0  0  0
  -13.6681   -2.2598   -0.5375 H   0  0  0  0  0  0  0  0  0  0  0  0
  -13.6081   -4.9944    0.4057 H   0  0  0  0  0  0  0  0  0  0  0  0
   -9.7544   -6.1956    2.5150 H   0  0  0  0  0  0  0  0  0  0  0  0
   -8.8235   -4.8111    2.1368 H   0  0  0  0  0  0  0  0  0  0  0  0
   -8.4231   -5.0754   -0.3147 H   0  0  0  0  0  0  0  0  0  0  0  0
   -6.0425   -5.4864   -0.1748 H   0  0  0  0  0  0  0  0  0  0  0  0
   -5.4886   -4.4650    4.6522 H   0  0  0  0  0  0  0  0  0  0  0  0
  1  2  1  0  0  0  0
  1 28  1  0  0  0  0
  1 29  1  0  0  0  0
  1 30  1  0  0  0  0
  2  3  1  0  0  0  0
  2 27  2  0  0  0  0
  3  4  2  0  0  0  0
  3 31  1  0  0  0  0
  4  5  1  0  0  0  0
  4 32  1  0  0  0  0
  5  6  2  0  0  0  0
  5 33  1  0  0  0  0
  6  7  1  0  0  0  0
  6 27  1  0  0  0  0
  7  8  1  0  0  0  0
  7 34  1  0  0  0  0
  8  9  2  0  0  0  0
  8 10  1  0  0  0  0
 10 11  1  0  0  0  0
 10 35  1  0  0  0  0
 10 36  1  0  0  0  0
 11 12  1  0  0  0  0
 11 26  2  0  0  0  0
 12 13  2  0  0  0  0
 12 37  1  0  0  0  0
 13 14  1  0  0  0  0
 13 38  1  0  0  0  0
 14 15  1  0  0  0  0
 14 25  2  0  0  0  0
 15 16  1  0  0  0  0
 15 24  2  0  0  0  0
 16 17  2  0  0  0  0
 16 39  1  0  0  0  0
 17 18  1  0  0  0  0
 17 40  1  0  0  0  0
 18 19  2  0  0  0  0
 18 41  1  0  0  0  0
 19 20  1  0  0  0  0
 19 24  1  0  0  0  0
 20 21  1  0  0  0  0
 20 42  1  0  0  0  0
 21 22  2  0  0  0  0
 22 23  1  0  0  0  0
 22 24  1  0  0  0  0
 23 43  1  0  0  0  0
 23 44  1  0  0  0  0
 25 26  1  0  0  0  0
 25 45  1  0  0  0  0
 26 46  1  0  0  0  0
 27 47  1  0  0  0  0
M  END
$$$$
