CHEMBL1242119
 OpenBabel04072215363D

 43 47  0  0  0  0  0  0  0  0999 V2000
    1.0815    0.2120   -0.2064 N   0  0  0  0  0  0  0  0  0  0  0  0
    2.4503    0.0435   -0.1176 C   0  0  0  0  0  0  0  0  0  0  0  0
    3.1732    1.1836   -0.0530 N   0  0  0  0  0  0  0  0  0  0  0  0
    4.5155    1.1032   -0.0168 C   0  0  0  0  0  0  0  0  0  0  0  0
    5.2717   -0.0027   -0.0393 N   0  0  0  0  0  0  0  0  0  0  0  0
    4.5164   -1.1139   -0.0909 C   0  0  0  0  0  0  0  0  0  0  0  0
    3.1296   -1.1842   -0.1090 C   0  0  0  0  0  0  0  0  0  0  0  0
    2.8433   -2.5856   -0.1256 C   0  0  0  0  0  0  0  0  0  0  0  0
    1.5628   -3.2961   -0.0976 C   0  0  0  0  0  0  0  0  0  0  0  0
    1.3695   -4.3855   -0.9657 C   0  0  0  0  0  0  0  0  0  0  0  0
    0.1858   -5.1266   -0.9424 C   0  0  0  0  0  0  0  0  0  0  0  0
   -0.8162   -4.7948   -0.0359 C   0  0  0  0  0  0  0  0  0  0  0  0
   -1.9497   -5.5691   -0.0484 O   0  0  0  0  0  0  0  0  0  0  0  0
   -2.8961   -5.3207    0.9165 C   0  0  0  0  0  0  0  0  0  0  0  0
   -2.8498   -4.3450    1.8265 C   0  0  0  0  0  0  0  0  0  0  0  0
   -1.6971   -3.4286    1.8134 C   0  0  0  0  0  0  0  0  0  0  0  0
   -1.6382   -2.4705    2.5746 O   0  0  0  0  0  0  0  0  0  0  0  0
   -0.6292   -3.7294    0.8446 C   0  0  0  0  0  0  0  0  0  0  0  0
    0.5576   -2.9812    0.8258 C   0  0  0  0  0  0  0  0  0  0  0  0
    3.9750   -3.3126   -0.1789 N   0  0  0  0  0  0  0  0  0  0  0  0
    4.9682   -2.4033   -0.1250 N   0  0  0  0  0  0  0  0  0  0  0  0
    6.3441   -2.8400   -0.0094 C   0  0  0  0  0  0  0  0  0  0  0  0
    6.8588   -3.6785   -1.1829 C   0  0  0  0  0  0  0  0  0  0  0  0
    8.0304   -4.4803   -0.6134 C   0  0  0  0  0  0  0  0  0  0  0  0
    7.9214   -4.4016    0.9084 C   0  0  0  0  0  0  0  0  0  0  0  0
    6.5796   -3.7479    1.1965 C   0  0  0  0  0  0  0  0  0  0  0  0
    0.7986    1.1460    0.0667 H   0  0  0  0  0  0  0  0  0  0  0  0
    0.4777   -0.5436    0.0698 H   0  0  0  0  0  0  0  0  0  0  0  0
    5.0474    2.0483    0.0356 H   0  0  0  0  0  0  0  0  0  0  0  0
    2.1621   -4.6753   -1.6545 H   0  0  0  0  0  0  0  0  0  0  0  0
    0.0610   -5.9704   -1.6156 H   0  0  0  0  0  0  0  0  0  0  0  0
   -3.7053   -6.0396    0.8459 H   0  0  0  0  0  0  0  0  0  0  0  0
   -3.6192   -4.1934    2.5735 H   0  0  0  0  0  0  0  0  0  0  0  0
    0.6999   -2.1886    1.5577 H   0  0  0  0  0  0  0  0  0  0  0  0
    6.9768   -1.9481    0.0852 H   0  0  0  0  0  0  0  0  0  0  0  0
    7.1722   -3.0536   -2.0262 H   0  0  0  0  0  0  0  0  0  0  0  0
    6.0929   -4.3670   -1.5594 H   0  0  0  0  0  0  0  0  0  0  0  0
    8.9891   -4.0636   -0.9423 H   0  0  0  0  0  0  0  0  0  0  0  0
    7.9931   -5.5187   -0.9605 H   0  0  0  0  0  0  0  0  0  0  0  0
    8.7339   -3.7848    1.3084 H   0  0  0  0  0  0  0  0  0  0  0  0
    7.9960   -5.3885    1.3762 H   0  0  0  0  0  0  0  0  0  0  0  0
    6.5851   -3.1882    2.1374 H   0  0  0  0  0  0  0  0  0  0  0  0
    5.8063   -4.5215    1.2778 H   0  0  0  0  0  0  0  0  0  0  0  0
  1  2  1  0  0  0  0
  1 27  1  0  0  0  0
  1 28  1  0  0  0  0
  2  3  1  0  0  0  0
  2  7  2  0  0  0  0
  3  4  2  0  0  0  0
  4  5  1  0  0  0  0
  4 29  1  0  0  0  0
  5  6  2  0  0  0  0
  6  7  1  0  0  0  0
  6 21  1  0  0  0  0
  7  8  1  0  0  0  0
  8  9  1  0  0  0  0
  8 20  2  0  0  0  0
  9 10  1  0  0  0  0
  9 19  2  0  0  0  0
 10 11  2  0  0  0  0
 10 30  1  0  0  0  0
 11 12  1  0  0  0  0
 11 31  1  0  0  0  0
 12 13  1  0  0  0  0
 12 18  2  0  0  0  0
 13 14  1  0  0  0  0
 14 15  2  0  0  0  0
 14 32  1  0  0  0  0
 15 16  1  0  0  0  0
 15 33  1  0  0  0  0
 16 17  2  0  0  0  0
 16 18  1  0  0  0  0
 18 19  1  0  0  0  0
 19 34  1  0  0  0  0
 20 21  1  0  0  0  0
 21 22  1  0  0  0  0
 22 23  1  0  0  0  0
 22 26  1  0  0  0  0
 22 35  1  0  0  0  0
 23 24  1  0  0  0  0
 23 36  1  0  0  0  0
 23 37  1  0  0  0  0
 24 25  1  0  0  0  0
 24 38  1  0  0  0  0
 24 39  1  0  0  0  0
 25 26  1  0  0  0  0
 25 40  1  0  0  0  0
 25 41  1  0  0  0  0
 26 42  1  0  0  0  0
 26 43  1  0  0  0  0
M  END
$$$$
