CHEMBL3808957
 OpenBabel04072215373D

 53 57  0  0  0  0  0  0  0  0999 V2000
   -0.1348    0.9641    2.2120 C   0  0  0  0  0  0  0  0  0  0  0  0
    0.3137    0.3060    0.8944 C   0  0  0  0  0  0  0  0  0  0  0  0
   -0.9156    0.0142    0.0175 C   0  0  0  0  0  0  0  0  0  0  0  0
    1.2178    1.3024    0.1413 C   0  0  0  0  0  0  0  0  0  0  0  0
    1.0267   -0.9778    1.2290 C   0  0  0  0  0  0  0  0  0  0  0  0
    0.6620   -2.1318    1.8922 C   0  0  0  0  0  0  0  0  0  0  0  0
    1.8507   -2.8954    1.9818 C   0  0  0  0  0  0  0  0  0  0  0  0
    1.9674   -4.1140    2.6359 N   0  0  0  0  0  0  0  0  0  0  0  0
    3.0992   -4.8940    2.4997 C   0  0  0  0  0  0  0  0  0  0  0  0
    4.0869   -4.7075    1.8039 O   0  0  0  0  0  0  0  0  0  0  0  0
    2.9695   -6.1598    3.1183 N   0  0  0  0  0  0  0  0  0  0  0  0
    3.4069   -7.3180    2.4918 C   0  0  0  0  0  0  0  0  0  0  0  0
    3.2086   -8.3874    3.3172 C   0  0  0  0  0  0  0  0  0  0  0  0
    2.6744   -7.8857    4.5255 C   0  0  0  0  0  0  0  0  0  0  0  0
    2.3744   -8.5104    5.7480 C   0  0  0  0  0  0  0  0  0  0  0  0
    1.8532   -7.7589    6.7908 C   0  0  0  0  0  0  0  0  0  0  0  0
    1.5724   -6.3964    6.6268 C   0  0  0  0  0  0  0  0  0  0  0  0
    0.9662   -5.6252    7.6112 O   0  0  0  0  0  0  0  0  0  0  0  0
    0.0852   -6.2964    8.4490 C   0  0  0  0  0  0  0  0  0  0  0  0
   -0.8019   -7.1577    7.9004 N   0  0  0  0  0  0  0  0  0  0  0  0
   -1.3832   -8.0312    8.7453 C   0  0  0  0  0  0  0  0  0  0  0  0
   -1.1582   -8.1313   10.0659 N   0  0  0  0  0  0  0  0  0  0  0  0
   -0.3213   -7.2021   10.5444 C   0  0  0  0  0  0  0  0  0  0  0  0
    0.2859   -6.2240    9.7925 C   0  0  0  0  0  0  0  0  0  0  0  0
    1.1808   -5.4181   10.6517 C   0  0  0  0  0  0  0  0  0  0  0  0
    1.5339   -6.3417   11.7599 N   0  0  0  0  0  0  0  0  0  0  0  0
    0.3190   -7.2034   11.9107 C   0  0  0  0  0  0  0  0  0  0  0  0
    1.9344   -5.7358    5.4403 C   0  0  0  0  0  0  0  0  0  0  0  0
    2.4664   -6.5042    4.3789 C   0  0  0  0  0  0  0  0  0  0  0  0
    2.8488   -2.2616    1.3607 N   0  0  0  0  0  0  0  0  0  0  0  0
    2.3397   -1.0740    0.8934 O   0  0  0  0  0  0  0  0  0  0  0  0
   -0.6813    1.8951    2.0280 H   0  0  0  0  0  0  0  0  0  0  0  0
    0.7288    1.2016    2.8459 H   0  0  0  0  0  0  0  0  0  0  0  0
   -0.7897    0.3017    2.7898 H   0  0  0  0  0  0  0  0  0  0  0  0
   -1.4818    0.9312   -0.1849 H   0  0  0  0  0  0  0  0  0  0  0  0
   -1.5976   -0.6963    0.4972 H   0  0  0  0  0  0  0  0  0  0  0  0
   -0.6209   -0.4127   -0.9485 H   0  0  0  0  0  0  0  0  0  0  0  0
    0.6862    2.2393   -0.0652 H   0  0  0  0  0  0  0  0  0  0  0  0
    1.5526    0.8961   -0.8204 H   0  0  0  0  0  0  0  0  0  0  0  0
    2.1124    1.5559    0.7224 H   0  0  0  0  0  0  0  0  0  0  0  0
   -0.3168   -2.3624    2.2830 H   0  0  0  0  0  0  0  0  0  0  0  0
    1.1349   -4.4948    3.0624 H   0  0  0  0  0  0  0  0  0  0  0  0
    3.8142   -7.2580    1.4908 H   0  0  0  0  0  0  0  0  0  0  0  0
    3.4585   -9.4145    3.0913 H   0  0  0  0  0  0  0  0  0  0  0  0
    2.5530   -9.5761    5.8792 H   0  0  0  0  0  0  0  0  0  0  0  0
    1.6454   -8.2675    7.7313 H   0  0  0  0  0  0  0  0  0  0  0  0
   -2.0600   -8.7555    8.3047 H   0  0  0  0  0  0  0  0  0  0  0  0
    0.6226   -4.5683   11.0745 H   0  0  0  0  0  0  0  0  0  0  0  0
    2.0628   -5.0377   10.1389 H   0  0  0  0  0  0  0  0  0  0  0  0
    2.2704   -6.9513   11.3899 H   0  0  0  0  0  0  0  0  0  0  0  0
   -0.3542   -6.7668   12.6559 H   0  0  0  0  0  0  0  0  0  0  0  0
    0.6058   -8.2145   12.2122 H   0  0  0  0  0  0  0  0  0  0  0  0
    1.8090   -4.6601    5.3660 H   0  0  0  0  0  0  0  0  0  0  0  0
  1  2  1  0  0  0  0
  1 32  1  0  0  0  0
  1 33  1  0  0  0  0
  1 34  1  0  0  0  0
  2  3  1  0  0  0  0
  2  4  1  0  0  0  0
  2  5  1  0  0  0  0
  3 35  1  0  0  0  0
  3 36  1  0  0  0  0
  3 37  1  0  0  0  0
  4 38  1  0  0  0  0
  4 39  1  0  0  0  0
  4 40  1  0  0  0  0
  5  6  2  0  0  0  0
  5 31  1  0  0  0  0
  6  7  1  0  0  0  0
  6 41  1  0  0  0  0
  7  8  1  0  0  0  0
  7 30  2  0  0  0  0
  8  9  1  0  0  0  0
  8 42  1  0  0  0  0
  9 10  2  0  0  0  0
  9 11  1  0  0  0  0
 11 12  1  0  0  0  0
 11 29  1  0  0  0  0
 12 13  2  0  0  0  0
 12 43  1  0  0  0  0
 13 14  1  0  0  0  0
 13 44  1  0  0  0  0
 14 15  1  0  0  0  0
 14 29  2  0  0  0  0
 15 16  2  0  0  0  0
 15 45  1  0  0  0  0
 16 17  1  0  0  0  0
 16 46  1  0  0  0  0
 17 18  1  0  0  0  0
 17 28  2  0  0  0  0
 18 19  1  0  0  0  0
 19 20  1  0  0  0  0
 19 24  2  0  0  0  0
 20 21  2  0  0  0  0
 21 22  1  0  0  0  0
 21 47  1  0  0  0  0
 22 23  2  0  0  0  0
 23 24  1  0  0  0  0
 23 27  1  0  0  0  0
 24 25  1  0  0  0  0
 25 26  1  0  0  0  0
 25 48  1  0  0  0  0
 25 49  1  0  0  0  0
 26 27  1  0  0  0  0
 26 50  1  0  0  0  0
 27 51  1  0  0  0  0
 27 52  1  0  0  0  0
 28 29  1  0  0  0  0
 28 53  1  0  0  0  0
 30 31  1  0  0  0  0
M  END
$$$$
