CHEMBL3913993
 OpenBabel04072215373D

 52 55  0  0  1  0  0  0  0  0999 V2000
    3.0405    0.8811   -0.9356 C   0  0  0  0  0  0  0  0  0  0  0  0
    2.5539   -0.3072   -0.3067 O   0  0  0  0  0  0  0  0  0  0  0  0
    3.3119   -0.9367    0.6440 C   0  0  0  0  0  0  0  0  0  0  0  0
    4.4351   -0.3639    1.2392 C   0  0  0  0  0  0  0  0  0  0  0  0
    5.2233   -1.0692    2.1782 C   0  0  0  0  0  0  0  0  0  0  0  0
    6.3740   -0.5600    2.7923 C   0  0  0  0  0  0  0  0  0  0  0  0
    6.7614    0.7794    2.5148 N   0  0  0  0  0  0  0  0  0  0  0  0
    8.0590    1.2818    2.7410 C   0  0  0  0  0  0  0  0  0  0  0  0
    9.1716    0.5485    2.2960 C   0  0  0  0  0  0  0  0  0  0  0  0
   10.4673    0.9821    2.5541 C   0  0  0  0  0  0  0  0  0  0  0  0
   10.6656    2.1707    3.2524 C   0  0  0  0  0  0  0  0  0  0  0  0
   12.4249    2.7231    3.6637 Br  0  0  0  0  0  0  0  0  0  0  0  0
    9.5804    2.9451    3.6608 C   0  0  0  0  0  0  0  0  0  0  0  0
    8.2831    2.5038    3.3958 C   0  0  0  0  0  0  0  0  0  0  0  0
    6.8270    3.5780    3.9765 Br  0  0  0  0  0  0  0  0  0  0  0  0
    7.1185   -1.2890    3.6418 N   0  0  0  0  0  0  0  0  0  0  0  0
    6.6976   -2.5305    3.8920 C   0  0  0  0  0  0  0  0  0  0  0  0
    5.6194   -3.1140    3.3670 N   0  0  0  0  0  0  0  0  0  0  0  0
    4.8977   -2.3789    2.5189 C   0  0  0  0  0  0  0  0  0  0  0  0
    3.7629   -2.9300    1.9562 C   0  0  0  0  0  0  0  0  0  0  0  0
    2.9278   -2.2228    1.0679 C   0  0  0  0  0  0  0  0  0  0  0  0
    1.7340   -2.7591    0.6089 O   0  0  0  0  0  0  0  0  0  0  0  0
    1.2209   -3.8146    1.4453 C   0  0  0  0  0  0  0  0  0  0  0  0
   -0.2573   -4.1589    1.2057 C   0  0  3  0  0  0  0  0  0  0  0  0
   -1.2028   -2.9582    1.3783 C   0  0  0  0  0  0  0  0  0  0  0  0
   -1.2663   -2.5202    2.7885 N   0  0  0  0  0  0  0  0  0  0  0  0
   -2.1454   -1.3651    2.9283 C   0  0  0  0  0  0  0  0  0  0  0  0
   -1.7262   -3.6516    3.6146 C   0  0  0  0  0  0  0  0  0  0  0  0
   -0.8026   -4.8673    3.4402 C   0  0  0  0  0  0  0  0  0  0  0  0
   -0.6742   -5.2565    2.0607 O   0  0  0  0  0  0  0  0  0  0  0  0
    3.0754    0.7164   -2.0168 H   0  0  0  0  0  0  0  0  0  0  0  0
    4.0384    1.2202   -0.6523 H   0  0  0  0  0  0  0  0  0  0  0  0
    2.3367    1.6933   -0.7321 H   0  0  0  0  0  0  0  0  0  0  0  0
    4.7513    0.6456    1.0018 H   0  0  0  0  0  0  0  0  0  0  0  0
    6.0425    1.4133    2.8572 H   0  0  0  0  0  0  0  0  0  0  0  0
    9.0209   -0.3848    1.7561 H   0  0  0  0  0  0  0  0  0  0  0  0
   11.3067    0.3789    2.2201 H   0  0  0  0  0  0  0  0  0  0  0  0
    9.7453    3.8761    4.1959 H   0  0  0  0  0  0  0  0  0  0  0  0
    7.2981   -3.1224    4.5765 H   0  0  0  0  0  0  0  0  0  0  0  0
    3.5418   -3.9508    2.2493 H   0  0  0  0  0  0  0  0  0  0  0  0
    1.3442   -3.5387    2.4985 H   0  0  0  0  0  0  0  0  0  0  0  0
    1.7989   -4.7292    1.2585 H   0  0  0  0  0  0  0  0  0  0  0  0
   -0.3603   -4.5215    0.1757 H   0  0  0  0  0  0  0  0  0  0  0  0
   -2.2071   -3.2561    1.0438 H   0  0  0  0  0  0  0  0  0  0  0  0
   -0.8718   -2.1359    0.7353 H   0  0  0  0  0  0  0  0  0  0  0  0
   -1.7585   -0.5245    2.3416 H   0  0  0  0  0  0  0  0  0  0  0  0
   -2.1782   -1.0320    3.9710 H   0  0  0  0  0  0  0  0  0  0  0  0
   -3.1687   -1.5753    2.5980 H   0  0  0  0  0  0  0  0  0  0  0  0
   -2.7486   -3.9372    3.3345 H   0  0  0  0  0  0  0  0  0  0  0  0
   -1.7353   -3.3657    4.6729 H   0  0  0  0  0  0  0  0  0  0  0  0
   -1.2154   -5.7220    3.9873 H   0  0  0  0  0  0  0  0  0  0  0  0
    0.1876   -4.6762    3.8681 H   0  0  0  0  0  0  0  0  0  0  0  0
  1  2  1  0  0  0  0
  1 31  1  0  0  0  0
  1 32  1  0  0  0  0
  1 33  1  0  0  0  0
  2  3  1  0  0  0  0
  3  4  1  0  0  0  0
  3 21  2  0  0  0  0
  4  5  2  0  0  0  0
  4 34  1  0  0  0  0
  5  6  1  0  0  0  0
  5 19  1  0  0  0  0
  6  7  1  0  0  0  0
  6 16  2  0  0  0  0
  7  8  1  0  0  0  0
  7 35  1  0  0  0  0
  8  9  1  0  0  0  0
  8 14  2  0  0  0  0
  9 10  2  0  0  0  0
  9 36  1  0  0  0  0
 10 11  1  0  0  0  0
 10 37  1  0  0  0  0
 11 12  1  0  0  0  0
 11 13  2  0  0  0  0
 13 14  1  0  0  0  0
 13 38  1  0  0  0  0
 14 15  1  0  0  0  0
 16 17  1  0  0  0  0
 17 18  2  0  0  0  0
 17 39  1  0  0  0  0
 18 19  1  0  0  0  0
 19 20  2  0  0  0  0
 20 21  1  0  0  0  0
 20 40  1  0  0  0  0
 21 22  1  0  0  0  0
 22 23  1  0  0  0  0
 23 24  1  0  0  0  0
 23 41  1  0  0  0  0
 23 42  1  0  0  0  0
 24 25  1  0  0  0  0
 24 30  1  0  0  0  0
 24 43  1  0  0  0  0
 25 26  1  0  0  0  0
 25 44  1  0  0  0  0
 25 45  1  0  0  0  0
 26 27  1  0  0  0  0
 26 28  1  0  0  0  0
 27 46  1  0  0  0  0
 27 47  1  0  0  0  0
 27 48  1  0  0  0  0
 28 29  1  0  0  0  0
 28 49  1  0  0  0  0
 28 50  1  0  0  0  0
 29 30  1  0  0  0  0
 29 51  1  0  0  0  0
 29 52  1  0  0  0  0
M  END
$$$$
