CHEMBL67211
 OpenBabel04072215383D

 49 52  0  0  0  0  0  0  0  0999 V2000
    0.7488   -0.1656    1.5638 C   0  0  0  0  0  0  0  0  0  0  0  0
    1.7793   -0.3318    0.4428 C   0  0  0  0  0  0  0  0  0  0  0  0
    2.5908    0.9517    0.2598 C   0  0  0  0  0  0  0  0  0  0  0  0
    2.6447   -1.4892    0.6686 N   0  0  0  0  0  0  0  0  0  0  0  0
    3.4802   -1.6490    1.7457 C   0  0  0  0  0  0  0  0  0  0  0  0
    4.1076   -2.8795    1.6475 C   0  0  0  0  0  0  0  0  0  0  0  0
    5.0396   -3.3518    2.6688 C   0  0  0  0  0  0  0  0  0  0  0  0
    4.8651   -2.9963    4.0134 C   0  0  0  0  0  0  0  0  0  0  0  0
    5.7139   -3.4978    5.0021 C   0  0  0  0  0  0  0  0  0  0  0  0
    6.6813   -4.4485    4.6741 C   0  0  0  0  0  0  0  0  0  0  0  0
    7.4766   -5.1055    5.5873 O   0  0  0  0  0  0  0  0  0  0  0  0
    7.0034   -5.3490    6.8612 C   0  0  0  0  0  0  0  0  0  0  0  0
    5.6486   -5.6365    7.1047 C   0  0  0  0  0  0  0  0  0  0  0  0
    5.1719   -5.7751    8.4061 C   0  0  0  0  0  0  0  0  0  0  0  0
    6.0569   -5.7072    9.4740 C   0  0  0  0  0  0  0  0  0  0  0  0
    7.4206   -5.5249    9.2356 C   0  0  0  0  0  0  0  0  0  0  0  0
    7.9147   -5.3503    7.9295 C   0  0  0  0  0  0  0  0  0  0  0  0
    9.3963   -5.1885    7.7998 C   0  0  0  0  0  0  0  0  0  0  0  0
   10.1348   -5.2039    8.7736 O   0  0  0  0  0  0  0  0  0  0  0  0
    9.8838   -5.0454    6.5515 O   0  0  0  0  0  0  0  0  0  0  0  0
    6.9109   -4.7558    3.3356 C   0  0  0  0  0  0  0  0  0  0  0  0
    6.1190   -4.1781    2.3392 C   0  0  0  0  0  0  0  0  0  0  0  0
    3.6276   -3.4944    0.4365 C   0  0  0  0  0  0  0  0  0  0  0  0
    3.8063   -4.7119   -0.2523 C   0  0  0  0  0  0  0  0  0  0  0  0
    4.5775   -5.7797    0.1920 N   0  0  0  0  0  0  0  0  0  0  0  0
    3.1741   -4.9026   -1.4254 N   0  0  0  0  0  0  0  0  0  0  0  0
    2.3709   -3.9229   -1.8857 C   0  0  0  0  0  0  0  0  0  0  0  0
    2.0897   -2.7470   -1.3112 N   0  0  0  0  0  0  0  0  0  0  0  0
    2.7462   -2.5872   -0.1498 C   0  0  0  0  0  0  0  0  0  0  0  0
    0.1091    0.7038    1.3764 H   0  0  0  0  0  0  0  0  0  0  0  0
    1.2259   -0.0212    2.5395 H   0  0  0  0  0  0  0  0  0  0  0  0
    0.1042   -1.0481    1.6364 H   0  0  0  0  0  0  0  0  0  0  0  0
    1.2291   -0.5149   -0.4877 H   0  0  0  0  0  0  0  0  0  0  0  0
    3.1722    1.1958    1.1555 H   0  0  0  0  0  0  0  0  0  0  0  0
    1.9295    1.7997    0.0514 H   0  0  0  0  0  0  0  0  0  0  0  0
    3.2905    0.8553   -0.5770 H   0  0  0  0  0  0  0  0  0  0  0  0
    3.5569   -0.8729    2.4966 H   0  0  0  0  0  0  0  0  0  0  0  0
    4.0548   -2.3375    4.3176 H   0  0  0  0  0  0  0  0  0  0  0  0
    5.5654   -3.1687    6.0270 H   0  0  0  0  0  0  0  0  0  0  0  0
    4.9383   -5.7244    6.2853 H   0  0  0  0  0  0  0  0  0  0  0  0
    4.1101   -5.9312    8.5818 H   0  0  0  0  0  0  0  0  0  0  0  0
    5.6921   -5.8131   10.4928 H   0  0  0  0  0  0  0  0  0  0  0  0
    8.1042   -5.5155   10.0843 H   0  0  0  0  0  0  0  0  0  0  0  0
    9.2078   -5.0405    5.8474 H   0  0  0  0  0  0  0  0  0  0  0  0
    7.6951   -5.4546    3.0551 H   0  0  0  0  0  0  0  0  0  0  0  0
    6.3499   -4.4033    1.3005 H   0  0  0  0  0  0  0  0  0  0  0  0
    4.5612   -5.9005    1.1968 H   0  0  0  0  0  0  0  0  0  0  0  0
    4.3632   -6.6102   -0.3488 H   0  0  0  0  0  0  0  0  0  0  0  0
    1.8944   -4.1178   -2.8387 H   0  0  0  0  0  0  0  0  0  0  0  0
  1  2  1  0  0  0  0
  1 30  1  0  0  0  0
  1 31  1  0  0  0  0
  1 32  1  0  0  0  0
  2  3  1  0  0  0  0
  2  4  1  0  0  0  0
  2 33  1  0  0  0  0
  3 34  1  0  0  0  0
  3 35  1  0  0  0  0
  3 36  1  0  0  0  0
  4  5  1  0  0  0  0
  4 29  1  0  0  0  0
  5  6  2  0  0  0  0
  5 37  1  0  0  0  0
  6  7  1  0  0  0  0
  6 23  1  0  0  0  0
  7  8  1  0  0  0  0
  7 22  2  0  0  0  0
  8  9  2  0  0  0  0
  8 38  1  0  0  0  0
  9 10  1  0  0  0  0
  9 39  1  0  0  0  0
 10 11  1  0  0  0  0
 10 21  2  0  0  0  0
 11 12  1  0  0  0  0
 12 13  1  0  0  0  0
 12 17  2  0  0  0  0
 13 14  2  0  0  0  0
 13 40  1  0  0  0  0
 14 15  1  0  0  0  0
 14 41  1  0  0  0  0
 15 16  2  0  0  0  0
 15 42  1  0  0  0  0
 16 17  1  0  0  0  0
 16 43  1  0  0  0  0
 17 18  1  0  0  0  0
 18 19  2  0  0  0  0
 18 20  1  0  0  0  0
 20 44  1  0  0  0  0
 21 22  1  0  0  0  0
 21 45  1  0  0  0  0
 22 46  1  0  0  0  0
 23 24  1  0  0  0  0
 23 29  2  0  0  0  0
 24 25  1  0  0  0  0
 24 26  2  0  0  0  0
 25 47  1  0  0  0  0
 25 48  1  0  0  0  0
 26 27  1  0  0  0  0
 27 28  2  0  0  0  0
 27 49  1  0  0  0  0
 28 29  1  0  0  0  0
M  END
$$$$
