CHEMBL179517
 OpenBabel04072215363D

 64 67  0  0  0  0  0  0  0  0999 V2000
    0.5467    2.1152   -5.2717 C   0  0  0  0  0  0  0  0  0  0  0  0
    1.2302    1.9311   -3.9503 C   0  0  0  0  0  0  0  0  0  0  0  0
    2.5965    2.1888   -3.8204 C   0  0  0  0  0  0  0  0  0  0  0  0
    3.2343    2.0264   -2.5840 C   0  0  0  0  0  0  0  0  0  0  0  0
    2.5284    1.6372   -1.4346 C   0  0  0  0  0  0  0  0  0  0  0  0
    3.1809    1.4553   -0.1931 N   0  0  0  0  0  0  0  0  0  0  0  0
    4.4514    0.9318   -0.0274 C   0  0  0  0  0  0  0  0  0  0  0  0
    4.9196    0.1578   -0.9698 N   0  0  0  0  0  0  0  0  0  0  0  0
    6.1441   -0.4215   -0.8618 C   0  0  0  0  0  0  0  0  0  0  0  0
    6.9697   -0.2839    0.1191 N   0  0  0  0  0  0  0  0  0  0  0  0
    6.5145    0.5097    1.0950 N   0  0  0  0  0  0  0  0  0  0  0  0
    7.2326    0.7844    2.2115 C   0  0  0  0  0  0  0  0  0  0  0  0
    6.5106    1.6369    3.0240 C   0  0  0  0  0  0  0  0  0  0  0  0
    7.0284    2.0849    4.3279 C   0  0  0  0  0  0  0  0  0  0  0  0
    6.3112    2.2521    5.3116 O   0  0  0  0  0  0  0  0  0  0  0  0
    8.3888    2.2878    4.3430 N   0  0  0  0  0  0  0  0  0  0  0  0
    9.1370    2.7323    5.5083 C   0  0  0  0  0  0  0  0  0  0  0  0
   10.6332    2.7280    5.1880 C   0  0  0  0  0  0  0  0  0  0  0  0
   11.5319    3.1519    6.3591 C   0  0  0  0  0  0  0  0  0  0  0  0
   12.9636    3.1772    5.9891 N   0  0  0  0  0  0  0  0  0  0  0  0
   13.5103    1.8678    5.5964 C   0  0  0  0  0  0  0  0  0  0  0  0
   13.9938    1.2447    6.8876 C   0  0  0  0  0  0  0  0  0  0  0  0
   14.6391    2.4270    7.5756 C   0  0  0  0  0  0  0  0  0  0  0  0
   13.8074    3.6262    7.1217 C   0  0  0  0  0  0  0  0  0  0  0  0
    5.2549    1.9013    2.3240 C   0  0  0  0  0  0  0  0  0  0  0  0
    4.1258    2.8093    2.7826 C   0  0  0  0  0  0  0  0  0  0  0  0
    3.1137    2.0592    3.6517 C   0  0  0  0  0  0  0  0  0  0  0  0
    4.5612    4.0963    3.4947 C   0  0  0  0  0  0  0  0  0  0  0  0
    5.3075    1.1529    1.1278 C   0  0  0  0  0  0  0  0  0  0  0  0
    1.1621    1.3495   -1.5766 C   0  0  0  0  0  0  0  0  0  0  0  0
    0.5298    1.4923   -2.8246 C   0  0  0  0  0  0  0  0  0  0  0  0
   -0.7964    1.1924   -2.9655 O   0  0  0  0  0  0  0  0  0  0  0  0
    1.2398    2.4926   -6.0344 H   0  0  0  0  0  0  0  0  0  0  0  0
   -0.2650    2.8461   -5.1825 H   0  0  0  0  0  0  0  0  0  0  0  0
    0.1414    1.1660   -5.6345 H   0  0  0  0  0  0  0  0  0  0  0  0
    3.1812    2.5154   -4.6759 H   0  0  0  0  0  0  0  0  0  0  0  0
    4.3010    2.2337   -2.5240 H   0  0  0  0  0  0  0  0  0  0  0  0
    2.6601    1.7477    0.6199 H   0  0  0  0  0  0  0  0  0  0  0  0
    6.4451   -1.0699   -1.7035 H   0  0  0  0  0  0  0  0  0  0  0  0
    8.2006    0.3219    2.3469 H   0  0  0  0  0  0  0  0  0  0  0  0
    8.8844    2.1986    3.4669 H   0  0  0  0  0  0  0  0  0  0  0  0
    8.9103    2.0541    6.3390 H   0  0  0  0  0  0  0  0  0  0  0  0
    8.7867    3.7332    5.7794 H   0  0  0  0  0  0  0  0  0  0  0  0
   10.8209    3.3867    4.3297 H   0  0  0  0  0  0  0  0  0  0  0  0
   10.8842    1.7137    4.8622 H   0  0  0  0  0  0  0  0  0  0  0  0
   11.3556    2.5044    7.2262 H   0  0  0  0  0  0  0  0  0  0  0  0
   11.2386    4.1692    6.6514 H   0  0  0  0  0  0  0  0  0  0  0  0
   14.3630    2.0412    4.9268 H   0  0  0  0  0  0  0  0  0  0  0  0
   12.8276    1.2120    5.0544 H   0  0  0  0  0  0  0  0  0  0  0  0
   14.6935    0.4209    6.7215 H   0  0  0  0  0  0  0  0  0  0  0  0
   13.1512    0.8685    7.4798 H   0  0  0  0  0  0  0  0  0  0  0  0
   15.6736    2.5346    7.2254 H   0  0  0  0  0  0  0  0  0  0  0  0
   14.6588    2.3096    8.6627 H   0  0  0  0  0  0  0  0  0  0  0  0
   14.4732    4.4299    6.7862 H   0  0  0  0  0  0  0  0  0  0  0  0
   13.2213    4.0252    7.9579 H   0  0  0  0  0  0  0  0  0  0  0  0
    3.5982    3.1565    1.8851 H   0  0  0  0  0  0  0  0  0  0  0  0
    3.5814    1.6633    4.5595 H   0  0  0  0  0  0  0  0  0  0  0  0
    2.6731    1.2175    3.1076 H   0  0  0  0  0  0  0  0  0  0  0  0
    2.2958    2.7221    3.9582 H   0  0  0  0  0  0  0  0  0  0  0  0
    4.9246    3.9130    4.5083 H   0  0  0  0  0  0  0  0  0  0  0  0
    3.7073    4.7748    3.6083 H   0  0  0  0  0  0  0  0  0  0  0  0
    5.3413    4.6250    2.9404 H   0  0  0  0  0  0  0  0  0  0  0  0
    0.5988    0.9902   -0.7211 H   0  0  0  0  0  0  0  0  0  0  0  0
   -1.1235    0.7987   -2.1408 H   0  0  0  0  0  0  0  0  0  0  0  0
  1  2  1  0  0  0  0
  1 33  1  0  0  0  0
  1 34  1  0  0  0  0
  1 35  1  0  0  0  0
  2  3  1  0  0  0  0
  2 31  2  0  0  0  0
  3  4  2  0  0  0  0
  3 36  1  0  0  0  0
  4  5  1  0  0  0  0
  4 37  1  0  0  0  0
  5  6  1  0  0  0  0
  5 30  2  0  0  0  0
  6  7  1  0  0  0  0
  6 38  1  0  0  0  0
  7  8  2  0  0  0  0
  7 29  1  0  0  0  0
  8  9  1  0  0  0  0
  9 10  2  0  0  0  0
  9 39  1  0  0  0  0
 10 11  1  0  0  0  0
 11 12  1  0  0  0  0
 11 29  1  0  0  0  0
 12 13  2  0  0  0  0
 12 40  1  0  0  0  0
 13 14  1  0  0  0  0
 13 25  1  0  0  0  0
 14 15  2  0  0  0  0
 14 16  1  0  0  0  0
 16 17  1  0  0  0  0
 16 41  1  0  0  0  0
 17 18  1  0  0  0  0
 17 42  1  0  0  0  0
 17 43  1  0  0  0  0
 18 19  1  0  0  0  0
 18 44  1  0  0  0  0
 18 45  1  0  0  0  0
 19 20  1  0  0  0  0
 19 46  1  0  0  0  0
 19 47  1  0  0  0  0
 20 21  1  0  0  0  0
 20 24  1  0  0  0  0
 21 22  1  0  0  0  0
 21 48  1  0  0  0  0
 21 49  1  0  0  0  0
 22 23  1  0  0  0  0
 22 50  1  0  0  0  0
 22 51  1  0  0  0  0
 23 24  1  0  0  0  0
 23 52  1  0  0  0  0
 23 53  1  0  0  0  0
 24 54  1  0  0  0  0
 24 55  1  0  0  0  0
 25 26  1  0  0  0  0
 25 29  2  0  0  0  0
 26 27  1  0  0  0  0
 26 28  1  0  0  0  0
 26 56  1  0  0  0  0
 27 57  1  0  0  0  0
 27 58  1  0  0  0  0
 27 59  1  0  0  0  0
 28 60  1  0  0  0  0
 28 61  1  0  0  0  0
 28 62  1  0  0  0  0
 30 31  1  0  0  0  0
 30 63  1  0  0  0  0
 31 32  1  0  0  0  0
 32 64  1  0  0  0  0
M  END
$$$$
