CHEMBL1084028
 OpenBabel04072215363D

 78 83  0  0  0  0  0  0  0  0999 V2000
   -5.9289   -2.4398    7.6862 C   0  0  0  0  0  0  0  0  0  0  0  0
   -4.9994   -1.9007    6.7000 N   0  0  0  0  0  0  0  0  0  0  0  0
   -4.9143   -2.7885    5.5194 C   0  0  0  0  0  0  0  0  0  0  0  0
   -3.9245   -2.2583    4.4570 C   0  0  0  0  0  0  0  0  0  0  0  0
   -4.2859   -0.8885    4.0761 N   0  0  0  0  0  0  0  0  0  0  0  0
   -4.3020   -0.4863    2.7581 C   0  0  0  0  0  0  0  0  0  0  0  0
   -3.4768   -1.0730    1.7900 C   0  0  0  0  0  0  0  0  0  0  0  0
   -3.5636   -0.7263    0.4394 C   0  0  0  0  0  0  0  0  0  0  0  0
   -4.4961    0.2178    0.0212 C   0  0  0  0  0  0  0  0  0  0  0  0
   -5.3290    0.8352    0.9558 C   0  0  0  0  0  0  0  0  0  0  0  0
   -6.3497    1.7751    0.5255 C   0  0  0  0  0  0  0  0  0  0  0  0
   -7.1162    1.8063   -0.6570 C   0  0  0  0  0  0  0  0  0  0  0  0
   -7.9788    2.8218   -0.7020 N   0  0  0  0  0  0  0  0  0  0  0  0
   -7.7919    3.4703    0.4874 N   0  0  0  0  0  0  0  0  0  0  0  0
   -8.4573    4.6477    0.9271 C   0  0  0  0  0  0  0  0  0  0  0  0
   -9.4450    5.1667    0.0897 N   0  0  0  0  0  0  0  0  0  0  0  0
   -8.0699    5.1940    2.1006 C   0  0  0  0  0  0  0  0  0  0  0  0
   -8.6204    6.4220    2.6738 C   0  0  0  0  0  0  0  0  0  0  0  0
   -9.7691    6.3709    3.4564 C   0  0  0  0  0  0  0  0  0  0  0  0
  -10.2584    7.5318    4.0560 C   0  0  0  0  0  0  0  0  0  0  0  0
   -9.6204    8.7632    3.8865 C   0  0  0  0  0  0  0  0  0  0  0  0
  -10.0806    9.9647    4.4853 N   0  0  0  0  0  0  0  0  0  0  0  0
  -11.2058   10.0878    5.2746 C   0  0  0  0  0  0  0  0  0  0  0  0
  -11.9706    9.1862    5.5884 O   0  0  0  0  0  0  0  0  0  0  0  0
  -11.4370   11.3831    5.6869 N   0  0  0  0  0  0  0  0  0  0  0  0
  -12.5950   11.5901    6.5400 C   0  0  0  0  0  0  0  0  0  0  0  0
  -12.8150   13.0381    6.9781 C   0  0  0  0  0  0  0  0  0  0  0  0
  -14.0749   13.1197    7.8610 C   0  0  0  0  0  0  0  0  0  0  0  0
  -14.3652   14.5511    8.3015 C   0  0  0  0  0  0  0  0  0  0  0  0
  -14.4705   15.4922    7.1062 C   0  0  0  0  0  0  0  0  0  0  0  0
  -13.2339   15.4130    6.2174 C   0  0  0  0  0  0  0  0  0  0  0  0
  -12.9468   13.9811    5.7753 C   0  0  0  0  0  0  0  0  0  0  0  0
   -8.4743    8.8145    3.0843 C   0  0  0  0  0  0  0  0  0  0  0  0
   -7.9794    7.6505    2.4792 C   0  0  0  0  0  0  0  0  0  0  0  0
   -7.0084    4.4534    2.8451 C   0  0  0  0  0  0  0  0  0  0  0  0
   -6.4017    3.3744    2.4639 N   0  0  0  0  0  0  0  0  0  0  0  0
   -6.7854    2.8688    1.2512 C   0  0  0  0  0  0  0  0  0  0  0  0
   -5.2058    0.4855    2.3106 C   0  0  0  0  0  0  0  0  0  0  0  0
   -4.4664    0.0474    5.1973 C   0  0  0  0  0  0  0  0  0  0  0  0
   -5.4264   -0.5546    6.2502 C   0  0  0  0  0  0  0  0  0  0  0  0
   -5.5872   -3.4215    8.0325 H   0  0  0  0  0  0  0  0  0  0  0  0
   -6.9451   -2.5468    7.2911 H   0  0  0  0  0  0  0  0  0  0  0  0
   -5.9657   -1.7911    8.5680 H   0  0  0  0  0  0  0  0  0  0  0  0
   -5.9056   -2.8979    5.0559 H   0  0  0  0  0  0  0  0  0  0  0  0
   -4.5860   -3.7885    5.8251 H   0  0  0  0  0  0  0  0  0  0  0  0
   -3.9700   -2.9450    3.6037 H   0  0  0  0  0  0  0  0  0  0  0  0
   -2.9002   -2.2740    4.8475 H   0  0  0  0  0  0  0  0  0  0  0  0
   -2.7345   -1.8115    2.0814 H   0  0  0  0  0  0  0  0  0  0  0  0
   -2.9090   -1.2046   -0.2829 H   0  0  0  0  0  0  0  0  0  0  0  0
   -4.5596    0.4647   -1.0346 H   0  0  0  0  0  0  0  0  0  0  0  0
   -7.0833    1.1167   -1.4913 H   0  0  0  0  0  0  0  0  0  0  0  0
   -9.3412    4.8207   -0.8679 H   0  0  0  0  0  0  0  0  0  0  0  0
   -9.5634    6.1730    0.1573 H   0  0  0  0  0  0  0  0  0  0  0  0
  -10.2983    5.4342    3.6172 H   0  0  0  0  0  0  0  0  0  0  0  0
  -11.1554    7.4228    4.6568 H   0  0  0  0  0  0  0  0  0  0  0  0
   -9.5820   10.8085    4.2664 H   0  0  0  0  0  0  0  0  0  0  0  0
  -10.6438   11.9961    5.7905 H   0  0  0  0  0  0  0  0  0  0  0  0
  -12.4747   10.9515    7.4244 H   0  0  0  0  0  0  0  0  0  0  0  0
  -13.4735   11.2225    5.9939 H   0  0  0  0  0  0  0  0  0  0  0  0
  -11.9501   13.3555    7.5763 H   0  0  0  0  0  0  0  0  0  0  0  0
  -13.9589   12.4840    8.7473 H   0  0  0  0  0  0  0  0  0  0  0  0
  -14.9419   12.7327    7.3087 H   0  0  0  0  0  0  0  0  0  0  0  0
  -13.5671   14.8943    8.9708 H   0  0  0  0  0  0  0  0  0  0  0  0
  -15.2983   14.5790    8.8761 H   0  0  0  0  0  0  0  0  0  0  0  0
  -14.6065   16.5212    7.4577 H   0  0  0  0  0  0  0  0  0  0  0  0
  -15.3594   15.2349    6.5171 H   0  0  0  0  0  0  0  0  0  0  0  0
  -12.3663   15.8052    6.7621 H   0  0  0  0  0  0  0  0  0  0  0  0
  -13.3719   16.0468    5.3347 H   0  0  0  0  0  0  0  0  0  0  0  0
  -12.0249   13.9712    5.1829 H   0  0  0  0  0  0  0  0  0  0  0  0
  -13.7532   13.6346    5.1164 H   0  0  0  0  0  0  0  0  0  0  0  0
   -7.9431    9.7495    2.9222 H   0  0  0  0  0  0  0  0  0  0  0  0
   -7.0849    7.7075    1.8613 H   0  0  0  0  0  0  0  0  0  0  0  0
   -6.7279    4.8851    3.8215 H   0  0  0  0  0  0  0  0  0  0  0  0
   -5.8854    0.9388    3.0268 H   0  0  0  0  0  0  0  0  0  0  0  0
   -4.8545    1.0236    4.8883 H   0  0  0  0  0  0  0  0  0  0  0  0
   -3.4891    0.2388    5.6587 H   0  0  0  0  0  0  0  0  0  0  0  0
   -6.4370   -0.6008    5.8210 H   0  0  0  0  0  0  0  0  0  0  0  0
   -5.4658    0.1249    7.1096 H   0  0  0  0  0  0  0  0  0  0  0  0
  1  2  1  0  0  0  0
  1 41  1  0  0  0  0
  1 42  1  0  0  0  0
  1 43  1  0  0  0  0
  2  3  1  0  0  0  0
  2 40  1  0  0  0  0
  3  4  1  0  0  0  0
  3 44  1  0  0  0  0
  3 45  1  0  0  0  0
  4  5  1  0  0  0  0
  4 46  1  0  0  0  0
  4 47  1  0  0  0  0
  5  6  1  0  0  0  0
  5 39  1  0  0  0  0
  6  7  1  0  0  0  0
  6 38  2  0  0  0  0
  7  8  2  0  0  0  0
  7 48  1  0  0  0  0
  8  9  1  0  0  0  0
  8 49  1  0  0  0  0
  9 10  2  0  0  0  0
  9 50  1  0  0  0  0
 10 11  1  0  0  0  0
 10 38  1  0  0  0  0
 11 12  1  0  0  0  0
 11 37  2  0  0  0  0
 12 13  2  0  0  0  0
 12 51  1  0  0  0  0
 13 14  1  0  0  0  0
 14 15  1  0  0  0  0
 14 37  1  0  0  0  0
 15 16  1  0  0  0  0
 15 17  2  0  0  0  0
 16 52  1  0  0  0  0
 16 53  1  0  0  0  0
 17 18  1  0  0  0  0
 17 35  1  0  0  0  0
 18 19  1  0  0  0  0
 18 34  2  0  0  0  0
 19 20  2  0  0  0  0
 19 54  1  0  0  0  0
 20 21  1  0  0  0  0
 20 55  1  0  0  0  0
 21 22  1  0  0  0  0
 21 33  2  0  0  0  0
 22 23  1  0  0  0  0
 22 56  1  0  0  0  0
 23 24  2  0  0  0  0
 23 25  1  0  0  0  0
 25 26  1  0  0  0  0
 25 57  1  0  0  0  0
 26 27  1  0  0  0  0
 26 58  1  0  0  0  0
 26 59  1  0  0  0  0
 27 28  1  0  0  0  0
 27 32  1  0  0  0  0
 27 60  1  0  0  0  0
 28 29  1  0  0  0  0
 28 61  1  0  0  0  0
 28 62  1  0  0  0  0
 29 30  1  0  0  0  0
 29 63  1  0  0  0  0
 29 64  1  0  0  0  0
 30 31  1  0  0  0  0
 30 65  1  0  0  0  0
 30 66  1  0  0  0  0
 31 32  1  0  0  0  0
 31 67  1  0  0  0  0
 31 68  1  0  0  0  0
 32 69  1  0  0  0  0
 32 70  1  0  0  0  0
 33 34  1  0  0  0  0
 33 71  1  0  0  0  0
 34 72  1  0  0  0  0
 35 36  2  0  0  0  0
 35 73  1  0  0  0  0
 36 37  1  0  0  0  0
 38 74  1  0  0  0  0
 39 40  1  0  0  0  0
 39 75  1  0  0  0  0
 39 76  1  0  0  0  0
 40 77  1  0  0  0  0
 40 78  1  0  0  0  0
M  END
$$$$
