CHEMBL1983575
 OpenBabel04072215363D

 32 33  0  0  0  0  0  0  0  0999 V2000
    2.8612   -0.1802   -0.8429 O   0  0  0  0  0  0  0  0  0  0  0  0
    2.1743   -0.0543    0.1657 C   0  0  0  0  0  0  0  0  0  0  0  0
    2.7686    0.3639    1.3445 N   0  0  0  0  0  0  0  0  0  0  0  0
    2.0607    0.5449    2.4975 N   0  0  0  0  0  0  0  0  0  0  0  0
    2.7764    0.8714    3.5271 C   0  0  0  0  0  0  0  0  0  0  0  0
    2.1503    1.1380    4.8373 C   0  0  0  0  0  0  0  0  0  0  0  0
    0.7616    1.0539    4.9808 C   0  0  0  0  0  0  0  0  0  0  0  0
    0.1797    1.3171    6.2193 C   0  0  0  0  0  0  0  0  0  0  0  0
   -1.7046    1.1935    6.3839 Br  0  0  0  0  0  0  0  0  0  0  0  0
    0.9751    1.6685    7.3138 C   0  0  0  0  0  0  0  0  0  0  0  0
    0.4118    1.9283    8.5347 O   0  0  0  0  0  0  0  0  0  0  0  0
    2.3628    1.7568    7.1611 C   0  0  0  0  0  0  0  0  0  0  0  0
    3.4870    2.2480    8.6084 Br  0  0  0  0  0  0  0  0  0  0  0  0
    2.9565    1.4889    5.9238 C   0  0  0  0  0  0  0  0  0  0  0  0
    0.8280   -0.2819    0.3032 N   0  0  0  0  0  0  0  0  0  0  0  0
   -0.0939   -0.7116   -0.6659 C   0  0  0  0  0  0  0  0  0  0  0  0
    0.2605   -1.0226   -1.9807 C   0  0  0  0  0  0  0  0  0  0  0  0
   -0.7110   -1.4230   -2.9028 C   0  0  0  0  0  0  0  0  0  0  0  0
   -2.0449   -1.5221   -2.5179 C   0  0  0  0  0  0  0  0  0  0  0  0
   -2.4076   -1.2298   -1.2051 C   0  0  0  0  0  0  0  0  0  0  0  0
   -1.4363   -0.8264   -0.2834 C   0  0  0  0  0  0  0  0  0  0  0  0
    3.7613    0.5625    1.2943 H   0  0  0  0  0  0  0  0  0  0  0  0
    3.8773    0.9634    3.4694 H   0  0  0  0  0  0  0  0  0  0  0  0
    0.1397    0.7881    4.1294 H   0  0  0  0  0  0  0  0  0  0  0  0
   -0.5524    1.8101    8.4556 H   0  0  0  0  0  0  0  0  0  0  0  0
    4.0357    1.5574    5.8133 H   0  0  0  0  0  0  0  0  0  0  0  0
    0.5050   -0.0720    1.2398 H   0  0  0  0  0  0  0  0  0  0  0  0
    1.2895   -0.9624   -2.3202 H   0  0  0  0  0  0  0  0  0  0  0  0
   -0.4181   -1.6546   -3.9243 H   0  0  0  0  0  0  0  0  0  0  0  0
   -2.7981   -1.8268   -3.2396 H   0  0  0  0  0  0  0  0  0  0  0  0
   -3.4474   -1.3129   -0.8995 H   0  0  0  0  0  0  0  0  0  0  0  0
   -1.7432   -0.6036    0.7347 H   0  0  0  0  0  0  0  0  0  0  0  0
  1  2  2  0  0  0  0
  2  3  1  0  0  0  0
  2 15  1  0  0  0  0
  3  4  1  0  0  0  0
  3 22  1  0  0  0  0
  4  5  2  3  0  0  0
  5  6  1  0  0  0  0
  5 23  1  0  0  0  0
  6  7  1  0  0  0  0
  6 14  2  0  0  0  0
  7  8  2  0  0  0  0
  7 24  1  0  0  0  0
  8  9  1  0  0  0  0
  8 10  1  0  0  0  0
 10 11  1  0  0  0  0
 10 12  2  0  0  0  0
 11 25  1  0  0  0  0
 12 13  1  0  0  0  0
 12 14  1  0  0  0  0
 14 26  1  0  0  0  0
 15 16  1  0  0  0  0
 15 27  1  0  0  0  0
 16 17  1  0  0  0  0
 16 21  2  0  0  0  0
 17 18  2  0  0  0  0
 17 28  1  0  0  0  0
 18 19  1  0  0  0  0
 18 29  1  0  0  0  0
 19 20  2  0  0  0  0
 19 30  1  0  0  0  0
 20 21  1  0  0  0  0
 20 31  1  0  0  0  0
 21 32  1  0  0  0  0
M  END
$$$$
