CHEMBL3956571
 OpenBabel04072215373D

 49 52  0  0  0  0  0  0  0  0999 V2000
    2.4275    4.6529    2.1051 C   0  0  0  0  0  0  0  0  0  0  0  0
    2.5425    3.3525    2.6827 O   0  0  0  0  0  0  0  0  0  0  0  0
    3.7898    3.0290    3.1493 C   0  0  0  0  0  0  0  0  0  0  0  0
    4.7210    3.9580    3.5971 C   0  0  0  0  0  0  0  0  0  0  0  0
    5.9825    3.5266    3.9911 C   0  0  0  0  0  0  0  0  0  0  0  0
    6.3126    2.1635    3.9602 C   0  0  0  0  0  0  0  0  0  0  0  0
    7.9815    1.8051    4.2819 Cl  0  0  0  0  0  0  0  0  0  0  0  0
    5.3585    1.1752    3.6046 C   0  0  0  0  0  0  0  0  0  0  0  0
    5.6249   -0.2209    3.6811 N   0  0  0  0  0  0  0  0  0  0  0  0
    5.0241   -1.1259    2.6580 C   0  0  0  0  0  0  0  0  0  0  0  0
    4.2562   -2.3304    3.2525 C   0  0  0  0  0  0  0  0  0  0  0  0
    3.1152   -1.9347    4.0071 O   0  0  0  0  0  0  0  0  0  0  0  0
    6.3690   -0.8681    4.6930 C   0  0  0  0  0  0  0  0  0  0  0  0
    7.2137   -1.9539    4.4087 C   0  0  0  0  0  0  0  0  0  0  0  0
    7.7776   -2.6944    5.4379 C   0  0  0  0  0  0  0  0  0  0  0  0
    7.5791   -2.3555    6.7658 C   0  0  0  0  0  0  0  0  0  0  0  0
    8.0844   -3.1552    7.7164 N   0  0  0  0  0  0  0  0  0  0  0  0
    7.8679   -2.7643    8.9876 C   0  0  0  0  0  0  0  0  0  0  0  0
    7.1825   -1.6043    9.3159 C   0  0  0  0  0  0  0  0  0  0  0  0
    7.0533   -1.1787   10.6981 C   0  0  0  0  0  0  0  0  0  0  0  0
    7.5489   -1.7588   11.8896 C   0  0  0  0  0  0  0  0  0  0  0  0
    7.2467   -1.0481   12.9800 N   0  0  0  0  0  0  0  0  0  0  0  0
    6.5628   -0.0001   12.4880 N   0  0  0  0  0  0  0  0  0  0  0  0
    6.0819    1.0239   13.3838 C   0  0  0  0  0  0  0  0  0  0  0  0
    6.4166   -0.0330   11.1317 C   0  0  0  0  0  0  0  0  0  0  0  0
    6.6408   -0.8149    8.3590 N   0  0  0  0  0  0  0  0  0  0  0  0
    6.8212   -1.1992    7.0792 C   0  0  0  0  0  0  0  0  0  0  0  0
    6.2416   -0.4842    6.0394 C   0  0  0  0  0  0  0  0  0  0  0  0
    4.0945    1.6573    3.1941 C   0  0  0  0  0  0  0  0  0  0  0  0
    1.4567    4.7177    1.6045 H   0  0  0  0  0  0  0  0  0  0  0  0
    3.2040    4.8248    1.3503 H   0  0  0  0  0  0  0  0  0  0  0  0
    2.4531    5.4310    2.8750 H   0  0  0  0  0  0  0  0  0  0  0  0
    4.4968    5.0181    3.6477 H   0  0  0  0  0  0  0  0  0  0  0  0
    6.7177    4.2629    4.3085 H   0  0  0  0  0  0  0  0  0  0  0  0
    5.8217   -1.4985    2.0029 H   0  0  0  0  0  0  0  0  0  0  0  0
    4.3402   -0.5929    1.9908 H   0  0  0  0  0  0  0  0  0  0  0  0
    4.8756   -2.9724    3.8870 H   0  0  0  0  0  0  0  0  0  0  0  0
    3.9019   -2.9648    2.4345 H   0  0  0  0  0  0  0  0  0  0  0  0
    3.4282   -1.7613    4.9142 H   0  0  0  0  0  0  0  0  0  0  0  0
    7.4110   -2.2547    3.3848 H   0  0  0  0  0  0  0  0  0  0  0  0
    8.3816   -3.5731    5.2009 H   0  0  0  0  0  0  0  0  0  0  0  0
    8.2784   -3.4310    9.7353 H   0  0  0  0  0  0  0  0  0  0  0  0
    8.1236   -2.6663   12.0165 H   0  0  0  0  0  0  0  0  0  0  0  0
    6.2911    0.7309   14.4161 H   0  0  0  0  0  0  0  0  0  0  0  0
    5.0047    1.1318   13.2394 H   0  0  0  0  0  0  0  0  0  0  0  0
    6.6007    1.9557   13.1483 H   0  0  0  0  0  0  0  0  0  0  0  0
    5.8965    0.7480   10.5930 H   0  0  0  0  0  0  0  0  0  0  0  0
    5.6254    0.3759    6.2970 H   0  0  0  0  0  0  0  0  0  0  0  0
    3.3012    0.9670    2.9161 H   0  0  0  0  0  0  0  0  0  0  0  0
  1  2  1  0  0  0  0
  1 30  1  0  0  0  0
  1 31  1  0  0  0  0
  1 32  1  0  0  0  0
  2  3  1  0  0  0  0
  3  4  1  0  0  0  0
  3 29  2  0  0  0  0
  4  5  2  0  0  0  0
  4 33  1  0  0  0  0
  5  6  1  0  0  0  0
  5 34  1  0  0  0  0
  6  7  1  0  0  0  0
  6  8  2  0  0  0  0
  8  9  1  0  0  0  0
  8 29  1  0  0  0  0
  9 10  1  0  0  0  0
  9 13  1  0  0  0  0
 10 11  1  0  0  0  0
 10 35  1  0  0  0  0
 10 36  1  0  0  0  0
 11 12  1  0  0  0  0
 11 37  1  0  0  0  0
 11 38  1  0  0  0  0
 12 39  1  0  0  0  0
 13 14  1  0  0  0  0
 13 28  2  0  0  0  0
 14 15  2  0  0  0  0
 14 40  1  0  0  0  0
 15 16  1  0  0  0  0
 15 41  1  0  0  0  0
 16 17  1  0  0  0  0
 16 27  2  0  0  0  0
 17 18  2  0  0  0  0
 18 19  1  0  0  0  0
 18 42  1  0  0  0  0
 19 20  1  0  0  0  0
 19 26  2  0  0  0  0
 20 21  1  0  0  0  0
 20 25  2  0  0  0  0
 21 22  2  0  0  0  0
 21 43  1  0  0  0  0
 22 23  1  0  0  0  0
 23 24  1  0  0  0  0
 23 25  1  0  0  0  0
 24 44  1  0  0  0  0
 24 45  1  0  0  0  0
 24 46  1  0  0  0  0
 25 47  1  0  0  0  0
 26 27  1  0  0  0  0
 27 28  1  0  0  0  0
 28 48  1  0  0  0  0
 29 49  1  0  0  0  0
M  END
$$$$
