CHEMBL59042
 OpenBabel04072215383D

 62 65  0  0  0  0  0  0  0  0999 V2000
    0.7953    1.1440    1.1634 C   0  0  0  0  0  0  0  0  0  0  0  0
    2.2922    0.8884    1.2132 C   0  0  0  0  0  0  0  0  0  0  0  0
    3.1549    1.8949    0.0232 S   0  0  0  0  0  0  0  0  0  0  0  0
    2.6388    1.5678   -1.2908 O   0  0  0  0  0  0  0  0  0  0  0  0
    3.1678    3.2651    0.4982 O   0  0  0  0  0  0  0  0  0  0  0  0
    4.8507    1.3341    0.0796 C   0  0  0  0  0  0  0  0  0  0  0  0
    5.3957    0.7487   -1.0828 C   0  0  0  0  0  0  0  0  0  0  0  0
    6.7426    0.3984   -1.1260 C   0  0  0  0  0  0  0  0  0  0  0  0
    7.4999    0.6493    0.0005 C   0  0  0  0  0  0  0  0  0  0  0  0
    6.9786    1.2190    1.1718 C   0  0  0  0  0  0  0  0  0  0  0  0
    5.6377    1.5771    1.2240 C   0  0  0  0  0  0  0  0  0  0  0  0
    8.1186    1.3134    2.1092 C   0  0  0  0  0  0  0  0  0  0  0  0
    8.0863    1.7200    3.3902 C   0  0  0  0  0  0  0  0  0  0  0  0
    9.2237    1.6582    4.2397 C   0  0  0  0  0  0  0  0  0  0  0  0
   10.0723    2.7407    4.2866 N   0  0  0  0  0  0  0  0  0  0  0  0
   11.1324    2.4521    5.1000 C   0  0  0  0  0  0  0  0  0  0  0  0
   10.9747    1.1731    5.5936 C   0  0  0  0  0  0  0  0  0  0  0  0
    9.7404    0.6660    5.0695 C   0  0  0  0  0  0  0  0  0  0  0  0
    9.1421   -0.6943    5.2818 C   0  0  0  0  0  0  0  0  0  0  0  0
    8.8783   -1.0677    6.7415 C   0  0  0  0  0  0  0  0  0  0  0  0
    7.9427   -0.0934    7.4719 C   0  0  0  0  0  0  0  0  0  0  0  0
    7.6862   -0.4915    8.8730 N   0  0  0  0  0  0  0  0  0  0  0  0
    8.9117   -0.4710    9.6782 C   0  0  0  0  0  0  0  0  0  0  0  0
    6.6982    0.4090    9.4748 C   0  0  0  0  0  0  0  0  0  0  0  0
   12.0261    0.5209    6.4393 C   0  0  0  0  0  0  0  0  0  0  0  0
   13.0698    1.5343    6.9497 C   0  0  0  0  0  0  0  0  0  0  0  0
   13.4844    2.5459    5.8692 C   0  0  0  0  0  0  0  0  0  0  0  0
   12.2816    3.3620    5.3628 C   0  0  0  0  0  0  0  0  0  0  0  0
    9.3387    0.8124    1.3620 C   0  0  0  0  0  0  0  0  0  0  0  0
   10.5026    0.7834    1.7069 O   0  0  0  0  0  0  0  0  0  0  0  0
    8.8609    0.4131    0.1263 N   0  0  0  0  0  0  0  0  0  0  0  0
    0.2797    0.5618    1.9330 H   0  0  0  0  0  0  0  0  0  0  0  0
    0.3799    0.8608    0.1903 H   0  0  0  0  0  0  0  0  0  0  0  0
    0.5674    2.2029    1.3240 H   0  0  0  0  0  0  0  0  0  0  0  0
    2.5027   -0.1606    0.9858 H   0  0  0  0  0  0  0  0  0  0  0  0
    2.6853    1.1328    2.2035 H   0  0  0  0  0  0  0  0  0  0  0  0
    4.7813    0.5914   -1.9685 H   0  0  0  0  0  0  0  0  0  0  0  0
    7.1776   -0.0320   -2.0217 H   0  0  0  0  0  0  0  0  0  0  0  0
    5.2171    2.0608    2.0997 H   0  0  0  0  0  0  0  0  0  0  0  0
    7.1537    2.0401    3.8444 H   0  0  0  0  0  0  0  0  0  0  0  0
    9.9653    3.5905    3.7510 H   0  0  0  0  0  0  0  0  0  0  0  0
    9.8215   -1.4375    4.8461 H   0  0  0  0  0  0  0  0  0  0  0  0
    8.2007   -0.7804    4.7255 H   0  0  0  0  0  0  0  0  0  0  0  0
    9.8361   -1.1434    7.2585 H   0  0  0  0  0  0  0  0  0  0  0  0
    8.4402   -2.0736    6.7678 H   0  0  0  0  0  0  0  0  0  0  0  0
    6.9876   -0.0828    6.9298 H   0  0  0  0  0  0  0  0  0  0  0  0
    8.3412    0.9281    7.4379 H   0  0  0  0  0  0  0  0  0  0  0  0
    9.6060   -1.2561    9.3640 H   0  0  0  0  0  0  0  0  0  0  0  0
    8.6883   -0.6835   10.7298 H   0  0  0  0  0  0  0  0  0  0  0  0
    9.4262    0.4952    9.6244 H   0  0  0  0  0  0  0  0  0  0  0  0
    5.7512    0.3684    8.9259 H   0  0  0  0  0  0  0  0  0  0  0  0
    7.0439    1.4492    9.4958 H   0  0  0  0  0  0  0  0  0  0  0  0
    6.4750    0.1013   10.5030 H   0  0  0  0  0  0  0  0  0  0  0  0
   12.5322   -0.2446    5.8380 H   0  0  0  0  0  0  0  0  0  0  0  0
   11.5864    0.0220    7.3060 H   0  0  0  0  0  0  0  0  0  0  0  0
   13.9516    0.9955    7.3164 H   0  0  0  0  0  0  0  0  0  0  0  0
   12.6554    2.0814    7.8066 H   0  0  0  0  0  0  0  0  0  0  0  0
   13.9431    2.0044    5.0317 H   0  0  0  0  0  0  0  0  0  0  0  0
   14.2478    3.2245    6.2670 H   0  0  0  0  0  0  0  0  0  0  0  0
   12.5638    3.9171    4.4622 H   0  0  0  0  0  0  0  0  0  0  0  0
   11.9905    4.0912    6.1284 H   0  0  0  0  0  0  0  0  0  0  0  0
    9.4708    0.0498   -0.5897 H   0  0  0  0  0  0  0  0  0  0  0  0
  1  2  1  0  0  0  0
  1 32  1  0  0  0  0
  1 33  1  0  0  0  0
  1 34  1  0  0  0  0
  2  3  1  0  0  0  0
  2 35  1  0  0  0  0
  2 36  1  0  0  0  0
  3  4  2  0  0  0  0
  3  5  2  0  0  0  0
  3  6  1  0  0  0  0
  6  7  1  0  0  0  0
  6 11  2  0  0  0  0
  7  8  2  0  0  0  0
  7 37  1  0  0  0  0
  8  9  1  0  0  0  0
  8 38  1  0  0  0  0
  9 10  2  0  0  0  0
  9 31  1  0  0  0  0
 10 11  1  0  0  0  0
 10 12  1  0  0  0  0
 11 39  1  0  0  0  0
 12 13  2  0  0  0  0
 12 29  1  0  0  0  0
 13 14  1  0  0  0  0
 13 40  1  0  0  0  0
 14 15  1  0  0  0  0
 14 18  2  0  0  0  0
 15 16  1  0  0  0  0
 15 41  1  0  0  0  0
 16 17  2  0  0  0  0
 16 28  1  0  0  0  0
 17 18  1  0  0  0  0
 17 25  1  0  0  0  0
 18 19  1  0  0  0  0
 19 20  1  0  0  0  0
 19 42  1  0  0  0  0
 19 43  1  0  0  0  0
 20 21  1  0  0  0  0
 20 44  1  0  0  0  0
 20 45  1  0  0  0  0
 21 22  1  0  0  0  0
 21 46  1  0  0  0  0
 21 47  1  0  0  0  0
 22 23  1  0  0  0  0
 22 24  1  0  0  0  0
 23 48  1  0  0  0  0
 23 49  1  0  0  0  0
 23 50  1  0  0  0  0
 24 51  1  0  0  0  0
 24 52  1  0  0  0  0
 24 53  1  0  0  0  0
 25 26  1  0  0  0  0
 25 54  1  0  0  0  0
 25 55  1  0  0  0  0
 26 27  1  0  0  0  0
 26 56  1  0  0  0  0
 26 57  1  0  0  0  0
 27 28  1  0  0  0  0
 27 58  1  0  0  0  0
 27 59  1  0  0  0  0
 28 60  1  0  0  0  0
 28 61  1  0  0  0  0
 29 30  2  0  0  0  0
 29 31  1  0  0  0  0
 31 62  1  0  0  0  0
M  END
$$$$
