CHEMBL1202477
 OpenBabel04072215363D

 61 63  0  0  0  0  0  0  0  0999 V2000
    2.9138   -1.1206   -0.6407 C   0  0  0  0  0  0  0  0  0  0  0  0
    2.5563   -0.4758    0.5380 O   0  0  0  0  0  0  0  0  0  0  0  0
    3.2368    0.5081    1.2093 C   0  0  0  0  0  0  0  0  0  0  0  0
    4.3802    1.1568    0.6489 C   0  0  0  0  0  0  0  0  0  0  0  0
    5.0639    2.1719    1.3507 C   0  0  0  0  0  0  0  0  0  0  0  0
    6.1621    2.9060    0.8308 C   0  0  0  0  0  0  0  0  0  0  0  0
    6.7095    2.6909   -0.4706 N   0  0  0  0  0  0  0  0  0  0  0  0
    7.4294    3.7267   -1.1471 C   0  0  0  0  0  0  0  0  0  0  0  0
    7.0994    5.0851   -0.9425 C   0  0  0  0  0  0  0  0  0  0  0  0
    7.7998    6.0978   -1.5945 C   0  0  0  0  0  0  0  0  0  0  0  0
    8.8480    5.7773   -2.4561 C   0  0  0  0  0  0  0  0  0  0  0  0
    9.8180    7.1734   -3.3251 Br  0  0  0  0  0  0  0  0  0  0  0  0
    9.1810    4.4365   -2.6802 C   0  0  0  0  0  0  0  0  0  0  0  0
    8.4675    3.4125   -2.0417 C   0  0  0  0  0  0  0  0  0  0  0  0
    8.8145    2.1202   -2.2652 F   0  0  0  0  0  0  0  0  0  0  0  0
    6.7360    3.8647    1.6109 N   0  0  0  0  0  0  0  0  0  0  0  0
    6.3023    4.1428    2.8595 C   0  0  0  0  0  0  0  0  0  0  0  0
    5.2429    3.4785    3.3584 N   0  0  0  0  0  0  0  0  0  0  0  0
    4.6185    2.5185    2.6352 C   0  0  0  0  0  0  0  0  0  0  0  0
    3.5115    1.9135    3.1837 C   0  0  0  0  0  0  0  0  0  0  0  0
    2.7757    0.9218    2.4985 C   0  0  0  0  0  0  0  0  0  0  0  0
    1.6380    0.4086    3.0838 O   0  0  0  0  0  0  0  0  0  0  0  0
    1.1550    0.9225    4.2958 C   0  0  0  0  0  0  0  0  0  0  0  0
   -0.1605    0.3512    4.8213 C   0  0  0  0  0  0  0  0  0  0  0  0
   -1.3597    0.6124    3.8957 C   0  0  0  0  0  0  0  0  0  0  0  0
   -1.2325   -0.0595    2.5873 N   0  0  0  0  0  0  0  0  0  0  0  0
   -1.1188   -1.5255    2.7483 C   0  0  0  0  0  0  0  0  0  0  0  0
   -1.0010   -2.1997    1.3866 C   0  0  0  0  0  0  0  0  0  0  0  0
   -2.1607   -1.8967    0.5324 N   0  0  0  0  0  0  0  0  0  0  0  0
   -3.3873   -2.5784    0.9851 C   0  0  0  0  0  0  0  0  0  0  0  0
   -2.3256   -0.4352    0.3899 C   0  0  0  0  0  0  0  0  0  0  0  0
   -2.4087    0.2717    1.7536 C   0  0  0  0  0  0  0  0  0  0  0  0
    1.2144    2.7179   -1.5824 Cl  0  0  0  0  0  0  0  0  0  0  0  0
    2.9646   -2.2147   -0.4560 H   0  0  0  0  0  0  0  0  0  0  0  0
    3.8977   -0.8357   -1.0494 H   0  0  0  0  0  0  0  0  0  0  0  0
    2.1478   -0.9293   -1.4203 H   0  0  0  0  0  0  0  0  0  0  0  0
    4.7266    0.9054   -0.3350 H   0  0  0  0  0  0  0  0  0  0  0  0
    6.6601    1.7560   -0.8991 H   0  0  0  0  0  0  0  0  0  0  0  0
    6.2833    5.3704   -0.2924 H   0  0  0  0  0  0  0  0  0  0  0  0
    7.5252    7.1315   -1.4254 H   0  0  0  0  0  0  0  0  0  0  0  0
    9.9957    4.1904   -3.3484 H   0  0  0  0  0  0  0  0  0  0  0  0
    6.7926    4.9003    3.4528 H   0  0  0  0  0  0  0  0  0  0  0  0
    3.2268    2.2633    4.1615 H   0  0  0  0  0  0  0  0  0  0  0  0
    0.9930    2.0181    4.1828 H   0  0  0  0  0  0  0  0  0  0  0  0
    1.9135    0.7359    5.0867 H   0  0  0  0  0  0  0  0  0  0  0  0
   -0.3724    0.8732    5.7815 H   0  0  0  0  0  0  0  0  0  0  0  0
   -0.0519   -0.7171    5.0887 H   0  0  0  0  0  0  0  0  0  0  0  0
   -1.4488    1.7131    3.7487 H   0  0  0  0  0  0  0  0  0  0  0  0
   -2.2830    0.2711    4.4196 H   0  0  0  0  0  0  0  0  0  0  0  0
   -1.9833   -1.9257    3.3250 H   0  0  0  0  0  0  0  0  0  0  0  0
   -0.1899   -1.7928    3.2854 H   0  0  0  0  0  0  0  0  0  0  0  0
   -0.8846   -3.2966    1.5201 H   0  0  0  0  0  0  0  0  0  0  0  0
   -0.0765   -1.8264    0.8917 H   0  0  0  0  0  0  0  0  0  0  0  0
   -3.1963   -3.6658    1.1135 H   0  0  0  0  0  0  0  0  0  0  0  0
   -4.1827   -2.4662    0.2202 H   0  0  0  0  0  0  0  0  0  0  0  0
   -3.7651   -2.1807    1.9481 H   0  0  0  0  0  0  0  0  0  0  0  0
   -3.2251   -0.2023   -0.2201 H   0  0  0  0  0  0  0  0  0  0  0  0
   -1.4442   -0.0335   -0.1573 H   0  0  0  0  0  0  0  0  0  0  0  0
   -3.3499   -0.0091    2.2739 H   0  0  0  0  0  0  0  0  0  0  0  0
   -2.4493    1.3708    1.5725 H   0  0  0  0  0  0  0  0  0  0  0  0
    2.1432    2.1728   -0.7334 H   0  0  0  0  0  0  0  0  0  0  0  0
  1  2  1  0  0  0  0
  1 34  1  0  0  0  0
  1 35  1  0  0  0  0
  1 36  1  0  0  0  0
  2  3  1  0  0  0  0
  3  4  1  0  0  0  0
  3 21  2  0  0  0  0
  4  5  2  0  0  0  0
  4 37  1  0  0  0  0
  5  6  1  0  0  0  0
  5 19  1  0  0  0  0
  6  7  1  0  0  0  0
  6 16  2  0  0  0  0
  7  8  1  0  0  0  0
  7 38  1  0  0  0  0
  8  9  1  0  0  0  0
  8 14  2  0  0  0  0
  9 10  2  0  0  0  0
  9 39  1  0  0  0  0
 10 11  1  0  0  0  0
 10 40  1  0  0  0  0
 11 12  1  0  0  0  0
 11 13  2  0  0  0  0
 13 14  1  0  0  0  0
 13 41  1  0  0  0  0
 14 15  1  0  0  0  0
 16 17  1  0  0  0  0
 17 18  2  0  0  0  0
 17 42  1  0  0  0  0
 18 19  1  0  0  0  0
 19 20  2  0  0  0  0
 20 21  1  0  0  0  0
 20 43  1  0  0  0  0
 21 22  1  0  0  0  0
 22 23  1  0  0  0  0
 23 24  1  0  0  0  0
 23 44  1  0  0  0  0
 23 45  1  0  0  0  0
 24 25  1  0  0  0  0
 24 46  1  0  0  0  0
 24 47  1  0  0  0  0
 25 26  1  0  0  0  0
 25 48  1  0  0  0  0
 25 49  1  0  0  0  0
 26 27  1  0  0  0  0
 26 32  1  0  0  0  0
 27 28  1  0  0  0  0
 27 50  1  0  0  0  0
 27 51  1  0  0  0  0
 28 29  1  0  0  0  0
 28 52  1  0  0  0  0
 28 53  1  0  0  0  0
 29 30  1  0  0  0  0
 29 31  1  0  0  0  0
 30 54  1  0  0  0  0
 30 55  1  0  0  0  0
 30 56  1  0  0  0  0
 31 32  1  0  0  0  0
 31 57  1  0  0  0  0
 31 58  1  0  0  0  0
 32 59  1  0  0  0  0
 32 60  1  0  0  0  0
 33 61  1  0  0  0  0
M  END
$$$$
