CHEMBL2331570
 OpenBabel04072215363D

 43 46  0  0  0  0  0  0  0  0999 V2000
    1.2057    0.7758    0.1010 O   0  0  0  0  0  0  0  0  0  0  0  0
    2.2915    0.2211   -0.0319 C   0  0  0  0  0  0  0  0  0  0  0  0
    2.8401   -0.1336   -1.2570 N   0  0  0  0  0  0  0  0  0  0  0  0
    2.2148    0.0539   -2.5132 C   0  0  0  0  0  0  0  0  0  0  0  0
    1.1039    0.8793   -2.6963 C   0  0  0  0  0  0  0  0  0  0  0  0
    0.4552    0.9501   -3.9293 C   0  0  0  0  0  0  0  0  0  0  0  0
    0.9468    0.2447   -5.0249 C   0  0  0  0  0  0  0  0  0  0  0  0
    0.3451    0.2262   -6.2632 O   0  0  0  0  0  0  0  0  0  0  0  0
   -0.3436    1.3571   -6.6801 C   0  0  0  0  0  0  0  0  0  0  0  0
    0.0559    2.5915   -6.2794 N   0  0  0  0  0  0  0  0  0  0  0  0
   -0.6590    3.6556   -6.6893 C   0  0  0  0  0  0  0  0  0  0  0  0
   -1.7314    3.6665   -7.5012 N   0  0  0  0  0  0  0  0  0  0  0  0
   -2.0487    2.4263   -7.9043 C   0  0  0  0  0  0  0  0  0  0  0  0
   -3.0652    2.0743   -8.7453 N   0  0  0  0  0  0  0  0  0  0  0  0
   -3.1457    0.7460   -8.9698 N   0  0  0  0  0  0  0  0  0  0  0  0
   -2.1403    0.2487   -8.2375 C   0  0  0  0  0  0  0  0  0  0  0  0
   -1.4204    1.2480   -7.5530 C   0  0  0  0  0  0  0  0  0  0  0  0
    2.0731   -0.5643   -4.8613 C   0  0  0  0  0  0  0  0  0  0  0  0
    2.7114   -0.6517   -3.6149 C   0  0  0  0  0  0  0  0  0  0  0  0
    3.0975   -0.1613    1.0256 N   0  0  0  0  0  0  0  0  0  0  0  0
    2.7729   -0.0678    2.4006 C   0  0  0  0  0  0  0  0  0  0  0  0
    1.5537    0.4180    2.8844 C   0  0  0  0  0  0  0  0  0  0  0  0
    1.2920    0.4751    4.2546 C   0  0  0  0  0  0  0  0  0  0  0  0
    2.2435    0.0309    5.1644 C   0  0  0  0  0  0  0  0  0  0  0  0
    3.4669   -0.4773    4.7090 C   0  0  0  0  0  0  0  0  0  0  0  0
    4.4933   -1.0036    5.6783 C   0  0  0  0  0  0  0  0  0  0  0  0
    4.1127   -0.9156    6.9825 F   0  0  0  0  0  0  0  0  0  0  0  0
    4.7800   -2.3173    5.4609 F   0  0  0  0  0  0  0  0  0  0  0  0
    5.6812   -0.3442    5.5887 F   0  0  0  0  0  0  0  0  0  0  0  0
    3.7258   -0.5117    3.3244 C   0  0  0  0  0  0  0  0  0  0  0  0
    3.6406   -0.7454   -1.2428 H   0  0  0  0  0  0  0  0  0  0  0  0
    0.6996    1.4897   -1.8955 H   0  0  0  0  0  0  0  0  0  0  0  0
   -0.4335    1.5704   -4.0021 H   0  0  0  0  0  0  0  0  0  0  0  0
   -0.3320    4.6199   -6.3114 H   0  0  0  0  0  0  0  0  0  0  0  0
   -3.7288    2.6963   -9.1918 H   0  0  0  0  0  0  0  0  0  0  0  0
   -1.9750   -0.8209   -8.2336 H   0  0  0  0  0  0  0  0  0  0  0  0
    2.4514   -1.1401   -5.7022 H   0  0  0  0  0  0  0  0  0  0  0  0
    3.5774   -1.3007   -3.5195 H   0  0  0  0  0  0  0  0  0  0  0  0
    4.0192   -0.5017    0.7995 H   0  0  0  0  0  0  0  0  0  0  0  0
    0.7665    0.7647    2.2234 H   0  0  0  0  0  0  0  0  0  0  0  0
    0.3369    0.8631    4.6014 H   0  0  0  0  0  0  0  0  0  0  0  0
    2.0212    0.0758    6.2293 H   0  0  0  0  0  0  0  0  0  0  0  0
    4.6811   -0.9048    2.9811 H   0  0  0  0  0  0  0  0  0  0  0  0
  1  2  2  0  0  0  0
  2  3  1  0  0  0  0
  2 20  1  0  0  0  0
  3  4  1  0  0  0  0
  3 31  1  0  0  0  0
  4  5  1  0  0  0  0
  4 19  2  0  0  0  0
  5  6  2  0  0  0  0
  5 32  1  0  0  0  0
  6  7  1  0  0  0  0
  6 33  1  0  0  0  0
  7  8  1  0  0  0  0
  7 18  2  0  0  0  0
  8  9  1  0  0  0  0
  9 10  1  0  0  0  0
  9 17  2  0  0  0  0
 10 11  2  0  0  0  0
 11 12  1  0  0  0  0
 11 34  1  0  0  0  0
 12 13  2  0  0  0  0
 13 14  1  0  0  0  0
 13 17  1  0  0  0  0
 14 15  1  0  0  0  0
 14 35  1  0  0  0  0
 15 16  2  0  0  0  0
 16 17  1  0  0  0  0
 16 36  1  0  0  0  0
 18 19  1  0  0  0  0
 18 37  1  0  0  0  0
 19 38  1  0  0  0  0
 20 21  1  0  0  0  0
 20 39  1  0  0  0  0
 21 22  1  0  0  0  0
 21 30  2  0  0  0  0
 22 23  2  0  0  0  0
 22 40  1  0  0  0  0
 23 24  1  0  0  0  0
 23 41  1  0  0  0  0
 24 25  2  0  0  0  0
 24 42  1  0  0  0  0
 25 26  1  0  0  0  0
 25 30  1  0  0  0  0
 26 27  1  0  0  0  0
 26 28  1  0  0  0  0
 26 29  1  0  0  0  0
 30 43  1  0  0  0  0
M  END
$$$$
