CHEMBL1242287
 OpenBabel04072215363D

 36 39  0  0  0  0  0  0  0  0999 V2000
    1.1258    0.3692    0.1166 N   0  0  0  0  0  0  0  0  0  0  0  0
    2.4998    0.1691    0.0947 C   0  0  0  0  0  0  0  0  0  0  0  0
    3.2515    1.2896    0.1130 N   0  0  0  0  0  0  0  0  0  0  0  0
    4.5900    1.1700    0.1088 C   0  0  0  0  0  0  0  0  0  0  0  0
    5.3160    0.0450    0.1027 N   0  0  0  0  0  0  0  0  0  0  0  0
    4.5312   -1.0505    0.0748 C   0  0  0  0  0  0  0  0  0  0  0  0
    3.1449   -1.0772    0.0539 C   0  0  0  0  0  0  0  0  0  0  0  0
    2.8086   -2.4677   -0.0258 C   0  0  0  0  0  0  0  0  0  0  0  0
    1.4953   -3.1133   -0.1436 C   0  0  0  0  0  0  0  0  0  0  0  0
    0.4567   -2.5099   -0.8680 C   0  0  0  0  0  0  0  0  0  0  0  0
   -0.8018   -3.1143   -0.9568 C   0  0  0  0  0  0  0  0  0  0  0  0
   -1.0112   -4.3630   -0.3785 C   0  0  0  0  0  0  0  0  0  0  0  0
   -2.7106   -5.1801   -0.5424 Br  0  0  0  0  0  0  0  0  0  0  0  0
    0.0310   -4.9973    0.2939 C   0  0  0  0  0  0  0  0  0  0  0  0
   -0.1069   -6.2460    0.8389 O   0  0  0  0  0  0  0  0  0  0  0  0
    1.2716   -4.3752    0.4275 C   0  0  0  0  0  0  0  0  0  0  0  0
    3.9131   -3.2351   -0.0023 N   0  0  0  0  0  0  0  0  0  0  0  0
    4.9377   -2.3602    0.0362 N   0  0  0  0  0  0  0  0  0  0  0  0
    6.3221   -2.7662   -0.0101 C   0  0  0  0  0  0  0  0  0  0  0  0
    6.6302   -3.6226   -1.2776 C   0  0  0  0  0  0  0  0  0  0  0  0
    7.5005   -4.5226   -0.3844 C   0  0  0  0  0  0  0  0  0  0  0  0
    6.6310   -4.0613    0.7994 C   0  0  0  0  0  0  0  0  0  0  0  0
    0.9130    1.3360    0.3374 H   0  0  0  0  0  0  0  0  0  0  0  0
    0.6023   -0.3184    0.6458 H   0  0  0  0  0  0  0  0  0  0  0  0
    5.1495    2.1031    0.1086 H   0  0  0  0  0  0  0  0  0  0  0  0
    0.6115   -1.5696   -1.3896 H   0  0  0  0  0  0  0  0  0  0  0  0
   -1.5972   -2.6056   -1.4952 H   0  0  0  0  0  0  0  0  0  0  0  0
   -0.9862   -6.5778    0.5849 H   0  0  0  0  0  0  0  0  0  0  0  0
    2.0670   -4.8885    0.9620 H   0  0  0  0  0  0  0  0  0  0  0  0
    7.0458   -1.9556    0.1359 H   0  0  0  0  0  0  0  0  0  0  0  0
    7.1688   -3.1005   -2.0733 H   0  0  0  0  0  0  0  0  0  0  0  0
    5.7792   -4.1501   -1.7251 H   0  0  0  0  0  0  0  0  0  0  0  0
    8.5467   -4.2046   -0.3183 H   0  0  0  0  0  0  0  0  0  0  0  0
    7.4644   -5.5912   -0.6120 H   0  0  0  0  0  0  0  0  0  0  0  0
    7.1739   -3.9080    1.7368 H   0  0  0  0  0  0  0  0  0  0  0  0
    5.7866   -4.7316    0.9972 H   0  0  0  0  0  0  0  0  0  0  0  0
  1  2  1  0  0  0  0
  1 23  1  0  0  0  0
  1 24  1  0  0  0  0
  2  3  1  0  0  0  0
  2  7  2  0  0  0  0
  3  4  2  0  0  0  0
  4  5  1  0  0  0  0
  4 25  1  0  0  0  0
  5  6  2  0  0  0  0
  6  7  1  0  0  0  0
  6 18  1  0  0  0  0
  7  8  1  0  0  0  0
  8  9  1  0  0  0  0
  8 17  2  0  0  0  0
  9 10  1  0  0  0  0
  9 16  2  0  0  0  0
 10 11  2  0  0  0  0
 10 26  1  0  0  0  0
 11 12  1  0  0  0  0
 11 27  1  0  0  0  0
 12 13  1  0  0  0  0
 12 14  2  0  0  0  0
 14 15  1  0  0  0  0
 14 16  1  0  0  0  0
 15 28  1  0  0  0  0
 16 29  1  0  0  0  0
 17 18  1  0  0  0  0
 18 19  1  0  0  0  0
 19 20  1  0  0  0  0
 19 22  1  0  0  0  0
 19 30  1  0  0  0  0
 20 21  1  0  0  0  0
 20 31  1  0  0  0  0
 20 32  1  0  0  0  0
 21 22  1  0  0  0  0
 21 33  1  0  0  0  0
 21 34  1  0  0  0  0
 22 35  1  0  0  0  0
 22 36  1  0  0  0  0
M  END
$$$$
