CHEMBL240430
 OpenBabel04072215363D

 76 81  0  0  0  0  0  0  0  0999 V2000
    1.4929   -0.2838    0.0723 C   0  0  0  0  0  0  0  0  0  0  0  0
    1.0471    0.9424   -0.4103 C   0  0  0  0  0  0  0  0  0  0  0  0
   -0.3180    1.2438   -0.4009 C   0  0  0  0  0  0  0  0  0  0  0  0
   -1.2657    0.2865   -0.0082 C   0  0  0  0  0  0  0  0  0  0  0  0
   -2.7110    0.5390   -0.1151 C   0  0  0  0  0  0  0  0  0  0  0  0
   -3.3151    1.1727   -1.2003 C   0  0  0  0  0  0  0  0  0  0  0  0
   -2.8230    1.7835   -2.4323 C   0  0  0  0  0  0  0  0  0  0  0  0
   -1.7663    1.1828   -3.1166 C   0  0  0  0  0  0  0  0  0  0  0  0
   -1.0866    1.8529   -4.1229 C   0  0  0  0  0  0  0  0  0  0  0  0
   -1.5329    3.0952   -4.5696 C   0  0  0  0  0  0  0  0  0  0  0  0
   -0.9677    3.7940   -5.6080 O   0  0  0  0  0  0  0  0  0  0  0  0
   -0.1476    2.9775   -6.4564 C   0  0  0  0  0  0  0  0  0  0  0  0
   -0.0466    3.5489   -7.8742 C   0  0  0  0  0  0  0  0  0  0  0  0
    0.7549    2.6998   -8.7782 N   0  0  0  0  0  0  0  0  0  0  0  0
    0.8464    3.2878  -10.1355 C   0  0  0  0  0  0  0  0  0  0  0  0
   -0.4128    3.0826  -10.9979 C   0  0  0  0  0  0  0  0  0  0  0  0
   -0.7706    1.6995  -11.0939 O   0  0  0  0  0  0  0  0  0  0  0  0
   -0.9767    1.1418   -9.7907 C   0  0  0  0  0  0  0  0  0  0  0  0
    0.2798    1.3023   -8.9199 C   0  0  0  0  0  0  0  0  0  0  0  0
   -2.6355    3.6832   -3.9477 C   0  0  0  0  0  0  0  0  0  0  0  0
   -3.2771    3.0281   -2.8769 C   0  0  0  0  0  0  0  0  0  0  0  0
   -4.6586    1.1862   -1.0502 O   0  0  0  0  0  0  0  0  0  0  0  0
   -4.9593    0.5336    0.1041 C   0  0  0  0  0  0  0  0  0  0  0  0
   -6.2284    0.3277    0.5065 N   0  0  0  0  0  0  0  0  0  0  0  0
   -6.3097   -0.3351    1.6732 C   0  0  0  0  0  0  0  0  0  0  0  0
   -5.2372   -0.7529    2.4456 C   0  0  0  0  0  0  0  0  0  0  0  0
   -3.9250   -0.4849    2.0254 C   0  0  0  0  0  0  0  0  0  0  0  0
   -2.8433   -0.7455    2.8735 N   0  0  0  0  0  0  0  0  0  0  0  0
   -2.7264   -2.0548    3.5232 C   0  0  0  0  0  0  0  0  0  0  0  0
   -1.6405   -1.9584    4.6181 C   0  0  0  0  0  0  0  0  0  0  0  0
   -1.5104   -3.1382    5.4973 N   0  0  0  0  0  0  0  0  0  0  0  0
   -0.4902   -2.8762    6.5410 C   0  0  0  0  0  0  0  0  0  0  0  0
    0.9741   -2.9035    6.0333 C   0  0  0  0  0  0  0  0  0  0  0  0
    1.3166   -4.1149    5.2663 N   0  0  0  0  0  0  0  0  0  0  0  0
    0.3102   -4.3559    4.2208 C   0  0  0  0  0  0  0  0  0  0  0  0
   -1.1313   -4.3683    4.7747 C   0  0  0  0  0  0  0  0  0  0  0  0
   -3.7869    0.1514    0.7543 C   0  0  0  0  0  0  0  0  0  0  0  0
   -0.7981   -0.9596    0.4292 C   0  0  0  0  0  0  0  0  0  0  0  0
    0.5714   -1.2261    0.5178 C   0  0  0  0  0  0  0  0  0  0  0  0
    2.5567   -0.5070    0.0928 H   0  0  0  0  0  0  0  0  0  0  0  0
    1.7579    1.6667   -0.8009 H   0  0  0  0  0  0  0  0  0  0  0  0
   -0.6264    2.2237   -0.7599 H   0  0  0  0  0  0  0  0  0  0  0  0
   -1.4026    0.1948   -2.8198 H   0  0  0  0  0  0  0  0  0  0  0  0
   -0.2003    1.3736   -4.5287 H   0  0  0  0  0  0  0  0  0  0  0  0
   -0.6196    1.9921   -6.5453 H   0  0  0  0  0  0  0  0  0  0  0  0
    0.8511    2.8790   -6.0181 H   0  0  0  0  0  0  0  0  0  0  0  0
    0.4274    4.5371   -7.7970 H   0  0  0  0  0  0  0  0  0  0  0  0
   -1.0539    3.7315   -8.2614 H   0  0  0  0  0  0  0  0  0  0  0  0
    1.6896    2.7978  -10.6386 H   0  0  0  0  0  0  0  0  0  0  0  0
    1.1001    4.3529  -10.0800 H   0  0  0  0  0  0  0  0  0  0  0  0
   -0.2190    3.4386  -12.0148 H   0  0  0  0  0  0  0  0  0  0  0  0
   -1.2679    3.6463  -10.6087 H   0  0  0  0  0  0  0  0  0  0  0  0
   -1.1949    0.0772   -9.9209 H   0  0  0  0  0  0  0  0  0  0  0  0
   -1.8567    1.6060   -9.3306 H   0  0  0  0  0  0  0  0  0  0  0  0
    1.0929    0.7392   -9.3915 H   0  0  0  0  0  0  0  0  0  0  0  0
    0.1287    0.8138   -7.9553 H   0  0  0  0  0  0  0  0  0  0  0  0
   -2.9937    4.6546   -4.2784 H   0  0  0  0  0  0  0  0  0  0  0  0
   -4.1142    3.5184   -2.3829 H   0  0  0  0  0  0  0  0  0  0  0  0
   -7.3264   -0.5207    2.0181 H   0  0  0  0  0  0  0  0  0  0  0  0
   -5.4314   -1.2284    3.3967 H   0  0  0  0  0  0  0  0  0  0  0  0
   -1.9614   -0.4155    2.4903 H   0  0  0  0  0  0  0  0  0  0  0  0
   -2.4495   -2.8021    2.7733 H   0  0  0  0  0  0  0  0  0  0  0  0
   -3.6675   -2.3692    3.9860 H   0  0  0  0  0  0  0  0  0  0  0  0
   -1.9003   -1.0973    5.2487 H   0  0  0  0  0  0  0  0  0  0  0  0
   -0.6877   -1.7024    4.1385 H   0  0  0  0  0  0  0  0  0  0  0  0
   -0.6037   -3.6404    7.3213 H   0  0  0  0  0  0  0  0  0  0  0  0
   -0.6900   -1.9188    7.0374 H   0  0  0  0  0  0  0  0  0  0  0  0
    1.6489   -2.8359    6.8939 H   0  0  0  0  0  0  0  0  0  0  0  0
    1.1764   -2.0212    5.4154 H   0  0  0  0  0  0  0  0  0  0  0  0
    1.2891   -4.9041    5.9108 H   0  0  0  0  0  0  0  0  0  0  0  0
    0.5200   -5.3197    3.7469 H   0  0  0  0  0  0  0  0  0  0  0  0
    0.4097   -3.5979    3.4340 H   0  0  0  0  0  0  0  0  0  0  0  0
   -1.2265   -5.2109    5.4753 H   0  0  0  0  0  0  0  0  0  0  0  0
   -1.8437   -4.5900    3.9734 H   0  0  0  0  0  0  0  0  0  0  0  0
   -1.4958   -1.7465    0.7063 H   0  0  0  0  0  0  0  0  0  0  0  0
    0.9173   -2.1782    0.9123 H   0  0  0  0  0  0  0  0  0  0  0  0
  1  2  1  0  0  0  0
  1 39  2  0  0  0  0
  1 40  1  0  0  0  0
  2  3  2  0  0  0  0
  2 41  1  0  0  0  0
  3  4  1  0  0  0  0
  3 42  1  0  0  0  0
  4  5  1  0  0  0  0
  4 38  2  0  0  0  0
  5  6  2  0  0  0  0
  5 37  1  0  0  0  0
  6  7  1  0  0  0  0
  6 22  1  0  0  0  0
  7  8  1  0  0  0  0
  7 21  2  0  0  0  0
  8  9  2  0  0  0  0
  8 43  1  0  0  0  0
  9 10  1  0  0  0  0
  9 44  1  0  0  0  0
 10 11  1  0  0  0  0
 10 20  2  0  0  0  0
 11 12  1  0  0  0  0
 12 13  1  0  0  0  0
 12 45  1  0  0  0  0
 12 46  1  0  0  0  0
 13 14  1  0  0  0  0
 13 47  1  0  0  0  0
 13 48  1  0  0  0  0
 14 15  1  0  0  0  0
 14 19  1  0  0  0  0
 15 16  1  0  0  0  0
 15 49  1  0  0  0  0
 15 50  1  0  0  0  0
 16 17  1  0  0  0  0
 16 51  1  0  0  0  0
 16 52  1  0  0  0  0
 17 18  1  0  0  0  0
 18 19  1  0  0  0  0
 18 53  1  0  0  0  0
 18 54  1  0  0  0  0
 19 55  1  0  0  0  0
 19 56  1  0  0  0  0
 20 21  1  0  0  0  0
 20 57  1  0  0  0  0
 21 58  1  0  0  0  0
 22 23  1  0  0  0  0
 23 24  1  0  0  0  0
 23 37  2  0  0  0  0
 24 25  2  0  0  0  0
 25 26  1  0  0  0  0
 25 59  1  0  0  0  0
 26 27  2  0  0  0  0
 26 60  1  0  0  0  0
 27 28  1  0  0  0  0
 27 37  1  0  0  0  0
 28 29  1  0  0  0  0
 28 61  1  0  0  0  0
 29 30  1  0  0  0  0
 29 62  1  0  0  0  0
 29 63  1  0  0  0  0
 30 31  1  0  0  0  0
 30 64  1  0  0  0  0
 30 65  1  0  0  0  0
 31 32  1  0  0  0  0
 31 36  1  0  0  0  0
 32 33  1  0  0  0  0
 32 66  1  0  0  0  0
 32 67  1  0  0  0  0
 33 34  1  0  0  0  0
 33 68  1  0  0  0  0
 33 69  1  0  0  0  0
 34 35  1  0  0  0  0
 34 70  1  0  0  0  0
 35 36  1  0  0  0  0
 35 71  1  0  0  0  0
 35 72  1  0  0  0  0
 36 73  1  0  0  0  0
 36 74  1  0  0  0  0
 38 39  1  0  0  0  0
 38 75  1  0  0  0  0
 39 76  1  0  0  0  0
M  END
$$$$
