CHEMBL3925114
 OpenBabel04072215373D

 73 76  0  0  0  0  0  0  0  0999 V2000
    6.2230   -1.1894   -4.3139 C   0  0  0  0  0  0  0  0  0  0  0  0
    7.2461   -0.1755   -4.3153 N   0  0  0  0  0  0  0  0  0  0  0  0
    7.4732    0.5938   -5.4383 C   0  0  0  0  0  0  0  0  0  0  0  0
    6.9081    0.3930   -6.5114 O   0  0  0  0  0  0  0  0  0  0  0  0
    8.5184    1.6707   -5.2757 C   0  0  0  0  0  0  0  0  0  0  0  0
    8.0956    2.6841   -4.3304 N   0  0  0  0  0  0  0  0  0  0  0  0
    7.4050    3.8275   -4.6122 C   0  0  0  0  0  0  0  0  0  0  0  0
    7.3037    4.5327   -3.4286 C   0  0  0  0  0  0  0  0  0  0  0  0
    6.6471    5.8218   -3.3001 C   0  0  0  0  0  0  0  0  0  0  0  0
    6.5652    6.4995   -2.0926 C   0  0  0  0  0  0  0  0  0  0  0  0
    5.9258    7.6885   -1.9618 N   0  0  0  0  0  0  0  0  0  0  0  0
    5.3498    8.1860   -3.0739 C   0  0  0  0  0  0  0  0  0  0  0  0
    4.6478    9.3785   -3.0169 C   0  0  0  0  0  0  0  0  0  0  0  0
    3.9881    9.8864   -4.1409 C   0  0  0  0  0  0  0  0  0  0  0  0
    4.0396    9.2305   -5.3849 C   0  0  0  0  0  0  0  0  0  0  0  0
    3.2946    9.7552   -6.4695 N   0  0  0  0  0  0  0  0  0  0  0  0
    2.8792    8.8963   -7.6136 C   0  0  0  0  0  0  0  0  0  0  0  0
    2.4058    7.4677   -7.3317 C   0  0  0  0  0  0  0  0  0  0  0  0
    1.3064    7.3149   -6.2824 C   0  0  0  0  0  0  0  0  0  0  0  0
    1.0189    5.8780   -6.1907 N   0  0  0  0  0  0  0  0  0  0  0  0
    0.0057    5.5135   -5.1980 C   0  0  0  0  0  0  0  0  0  0  0  0
   -1.3701    6.0867   -5.5333 C   0  0  0  0  0  0  0  0  0  0  0  0
   -0.0714    3.9825   -5.1674 C   0  0  0  0  0  0  0  0  0  0  0  0
    3.3402   11.1477   -6.8448 C   0  0  0  0  0  0  0  0  0  0  0  0
    4.4679   11.9466   -6.5670 C   0  0  0  0  0  0  0  0  0  0  0  0
    4.5033   13.3024   -6.9127 C   0  0  0  0  0  0  0  0  0  0  0  0
    5.5378   14.1691   -6.6780 O   0  0  0  0  0  0  0  0  0  0  0  0
    6.6794   13.6486   -6.0104 C   0  0  0  0  0  0  0  0  0  0  0  0
    3.4146   13.8796   -7.5699 C   0  0  0  0  0  0  0  0  0  0  0  0
    2.2972   13.1139   -7.8822 C   0  0  0  0  0  0  0  0  0  0  0  0
    1.1889   13.5457   -8.5593 O   0  0  0  0  0  0  0  0  0  0  0  0
    1.1807   14.9018   -8.9896 C   0  0  0  0  0  0  0  0  0  0  0  0
    2.2589   11.7687   -7.4960 C   0  0  0  0  0  0  0  0  0  0  0  0
    4.8216    8.0695   -5.4365 C   0  0  0  0  0  0  0  0  0  0  0  0
    5.4369    7.5156   -4.3139 C   0  0  0  0  0  0  0  0  0  0  0  0
    6.0911    6.3395   -4.4251 N   0  0  0  0  0  0  0  0  0  0  0  0
    7.9548    3.7015   -2.4871 C   0  0  0  0  0  0  0  0  0  0  0  0
    8.4222    2.5705   -3.0257 N   0  0  0  0  0  0  0  0  0  0  0  0
    6.1741   -1.6418   -3.3211 H   0  0  0  0  0  0  0  0  0  0  0  0
    6.4677   -1.9498   -5.0606 H   0  0  0  0  0  0  0  0  0  0  0  0
    5.2616   -0.7330   -4.5654 H   0  0  0  0  0  0  0  0  0  0  0  0
    7.6135    0.1559   -3.4256 H   0  0  0  0  0  0  0  0  0  0  0  0
    8.6985    2.1602   -6.2382 H   0  0  0  0  0  0  0  0  0  0  0  0
    9.4606    1.2350   -4.9276 H   0  0  0  0  0  0  0  0  0  0  0  0
    7.0525    4.0485   -5.6109 H   0  0  0  0  0  0  0  0  0  0  0  0
    7.0003    6.1167   -1.1798 H   0  0  0  0  0  0  0  0  0  0  0  0
    4.5899    9.9156   -2.0734 H   0  0  0  0  0  0  0  0  0  0  0  0
    3.4137   10.8035   -4.0358 H   0  0  0  0  0  0  0  0  0  0  0  0
    3.6982    8.8565   -8.3432 H   0  0  0  0  0  0  0  0  0  0  0  0
    2.0344    9.3521   -8.1415 H   0  0  0  0  0  0  0  0  0  0  0  0
    3.2460    6.8128   -7.0932 H   0  0  0  0  0  0  0  0  0  0  0  0
    2.0215    7.0727   -8.2843 H   0  0  0  0  0  0  0  0  0  0  0  0
    0.4234    7.8736   -6.6081 H   0  0  0  0  0  0  0  0  0  0  0  0
    1.6255    7.7001   -5.3096 H   0  0  0  0  0  0  0  0  0  0  0  0
    1.8856    5.3858   -5.9651 H   0  0  0  0  0  0  0  0  0  0  0  0
    0.3152    5.8602   -4.2046 H   0  0  0  0  0  0  0  0  0  0  0  0
   -1.6843    5.8028   -6.5441 H   0  0  0  0  0  0  0  0  0  0  0  0
   -1.3781    7.1789   -5.4674 H   0  0  0  0  0  0  0  0  0  0  0  0
   -2.1242    5.7151   -4.8313 H   0  0  0  0  0  0  0  0  0  0  0  0
   -0.3748    3.5776   -6.1405 H   0  0  0  0  0  0  0  0  0  0  0  0
   -0.7982    3.6430   -4.4220 H   0  0  0  0  0  0  0  0  0  0  0  0
    0.8978    3.5405   -4.9086 H   0  0  0  0  0  0  0  0  0  0  0  0
    5.3267   11.4856   -6.0919 H   0  0  0  0  0  0  0  0  0  0  0  0
    7.4024   14.4633   -5.9034 H   0  0  0  0  0  0  0  0  0  0  0  0
    7.1541   12.8584   -6.6006 H   0  0  0  0  0  0  0  0  0  0  0  0
    6.4227   13.2963   -5.0061 H   0  0  0  0  0  0  0  0  0  0  0  0
    3.4747   14.9329   -7.8238 H   0  0  0  0  0  0  0  0  0  0  0  0
    0.3120   15.0404   -9.6406 H   0  0  0  0  0  0  0  0  0  0  0  0
    2.0699   15.1525   -9.5779 H   0  0  0  0  0  0  0  0  0  0  0  0
    1.0715   15.5727   -8.1318 H   0  0  0  0  0  0  0  0  0  0  0  0
    1.3437   11.2205   -7.7013 H   0  0  0  0  0  0  0  0  0  0  0  0
    4.9829    7.5561   -6.3792 H   0  0  0  0  0  0  0  0  0  0  0  0
    8.1095    3.8664   -1.4286 H   0  0  0  0  0  0  0  0  0  0  0  0
  1  2  1  0  0  0  0
  1 39  1  0  0  0  0
  1 40  1  0  0  0  0
  1 41  1  0  0  0  0
  2  3  1  0  0  0  0
  2 42  1  0  0  0  0
  3  4  2  0  0  0  0
  3  5  1  0  0  0  0
  5  6  1  0  0  0  0
  5 43  1  0  0  0  0
  5 44  1  0  0  0  0
  6  7  1  0  0  0  0
  6 38  1  0  0  0  0
  7  8  2  0  0  0  0
  7 45  1  0  0  0  0
  8  9  1  0  0  0  0
  8 37  1  0  0  0  0
  9 10  1  0  0  0  0
  9 36  2  0  0  0  0
 10 11  2  0  0  0  0
 10 46  1  0  0  0  0
 11 12  1  0  0  0  0
 12 13  1  0  0  0  0
 12 35  2  0  0  0  0
 13 14  2  0  0  0  0
 13 47  1  0  0  0  0
 14 15  1  0  0  0  0
 14 48  1  0  0  0  0
 15 16  1  0  0  0  0
 15 34  2  0  0  0  0
 16 17  1  0  0  0  0
 16 24  1  0  0  0  0
 17 18  1  0  0  0  0
 17 49  1  0  0  0  0
 17 50  1  0  0  0  0
 18 19  1  0  0  0  0
 18 51  1  0  0  0  0
 18 52  1  0  0  0  0
 19 20  1  0  0  0  0
 19 53  1  0  0  0  0
 19 54  1  0  0  0  0
 20 21  1  0  0  0  0
 20 55  1  0  0  0  0
 21 22  1  0  0  0  0
 21 23  1  0  0  0  0
 21 56  1  0  0  0  0
 22 57  1  0  0  0  0
 22 58  1  0  0  0  0
 22 59  1  0  0  0  0
 23 60  1  0  0  0  0
 23 61  1  0  0  0  0
 23 62  1  0  0  0  0
 24 25  1  0  0  0  0
 24 33  2  0  0  0  0
 25 26  2  0  0  0  0
 25 63  1  0  0  0  0
 26 27  1  0  0  0  0
 26 29  1  0  0  0  0
 27 28  1  0  0  0  0
 28 64  1  0  0  0  0
 28 65  1  0  0  0  0
 28 66  1  0  0  0  0
 29 30  2  0  0  0  0
 29 67  1  0  0  0  0
 30 31  1  0  0  0  0
 30 33  1  0  0  0  0
 31 32  1  0  0  0  0
 32 68  1  0  0  0  0
 32 69  1  0  0  0  0
 32 70  1  0  0  0  0
 33 71  1  0  0  0  0
 34 35  1  0  0  0  0
 34 72  1  0  0  0  0
 35 36  1  0  0  0  0
 37 38  2  0  0  0  0
 37 73  1  0  0  0  0
M  END
$$$$
