CHEMBL4075720
 OpenBabel04072215383D

 56 60  0  0  0  0  0  0  0  0999 V2000
    1.8312    0.2468   -1.1714 C   0  0  0  0  0  0  0  0  0  0  0  0
    0.3772    0.3831   -1.1627 N   0  0  0  0  0  0  0  0  0  0  0  0
   -0.2686   -0.8851   -0.7863 C   0  0  0  0  0  0  0  0  0  0  0  0
   -1.8071   -0.7416   -0.7206 C   0  0  0  0  0  0  0  0  0  0  0  0
   -2.2933    0.2919    0.2238 N   0  0  0  0  0  0  0  0  0  0  0  0
   -2.0843   -0.0289    1.6477 C   0  0  0  0  0  0  0  0  0  0  0  0
   -2.7070   -1.3290    2.1202 C   0  0  0  0  0  0  0  0  0  0  0  0
   -1.9628   -2.5091    2.0382 C   0  0  0  0  0  0  0  0  0  0  0  0
   -2.5122   -3.7368    2.3978 C   0  0  0  0  0  0  0  0  0  0  0  0
   -3.8142   -3.8263    2.8831 C   0  0  0  0  0  0  0  0  0  0  0  0
   -4.4110   -5.0586    3.2162 N   0  0  0  0  0  0  0  0  0  0  0  0
   -3.8515   -6.3217    3.0821 C   0  0  0  0  0  0  0  0  0  0  0  0
   -2.7254   -6.5882    2.6622 O   0  0  0  0  0  0  0  0  0  0  0  0
   -4.7450   -7.4048    3.5130 C   0  0  0  0  0  0  0  0  0  0  0  0
   -6.0187   -7.1868    3.9102 N   0  0  0  0  0  0  0  0  0  0  0  0
   -6.4614   -8.4185    4.2368 N   0  0  0  0  0  0  0  0  0  0  0  0
   -5.5424   -9.4037    4.0514 C   0  0  0  0  0  0  0  0  0  0  0  0
   -4.4009   -8.7837    3.6144 C   0  0  0  0  0  0  0  0  0  0  0  0
   -3.1982   -9.3539    3.3432 N   0  0  0  0  0  0  0  0  0  0  0  0
   -2.6196  -10.4649    3.9946 C   0  0  0  0  0  0  0  0  0  0  0  0
   -3.3030  -11.0842    4.9913 N   0  0  0  0  0  0  0  0  0  0  0  0
   -2.7327  -12.0890    5.6647 C   0  0  0  0  0  0  0  0  0  0  0  0
   -1.5209  -12.6032    5.4734 N   0  0  0  0  0  0  0  0  0  0  0  0
   -0.8626  -11.9951    4.4746 C   0  0  0  0  0  0  0  0  0  0  0  0
    0.7127  -12.4977    4.0598 S   0  0  0  0  0  0  0  0  0  0  0  0
    0.8239  -11.3280    2.8211 C   0  0  0  0  0  0  0  0  0  0  0  0
   -0.3228  -10.5667    2.7267 C   0  0  0  0  0  0  0  0  0  0  0  0
   -1.3216  -10.9412    3.6954 C   0  0  0  0  0  0  0  0  0  0  0  0
   -4.5498   -2.6431    3.0327 C   0  0  0  0  0  0  0  0  0  0  0  0
   -4.0059   -1.4045    2.6403 C   0  0  0  0  0  0  0  0  0  0  0  0
   -1.6054    1.5593   -0.1307 C   0  0  0  0  0  0  0  0  0  0  0  0
   -0.0586    1.4628   -0.2575 C   0  0  0  0  0  0  0  0  0  0  0  0
    2.1394   -0.5499   -1.8583 H   0  0  0  0  0  0  0  0  0  0  0  0
    2.2344    0.0157   -0.1787 H   0  0  0  0  0  0  0  0  0  0  0  0
    2.3009    1.1692   -1.5293 H   0  0  0  0  0  0  0  0  0  0  0  0
    0.1216   -1.2359    0.1759 H   0  0  0  0  0  0  0  0  0  0  0  0
   -0.0268   -1.6548   -1.5292 H   0  0  0  0  0  0  0  0  0  0  0  0
   -2.2703   -1.7135   -0.5233 H   0  0  0  0  0  0  0  0  0  0  0  0
   -2.1662   -0.4737   -1.7248 H   0  0  0  0  0  0  0  0  0  0  0  0
   -2.5166    0.7796    2.2526 H   0  0  0  0  0  0  0  0  0  0  0  0
   -1.0188   -0.0483    1.9082 H   0  0  0  0  0  0  0  0  0  0  0  0
   -0.9438   -2.4962    1.6647 H   0  0  0  0  0  0  0  0  0  0  0  0
   -1.8800   -4.6074    2.2696 H   0  0  0  0  0  0  0  0  0  0  0  0
   -5.3637   -5.0587    3.5713 H   0  0  0  0  0  0  0  0  0  0  0  0
   -7.4078   -8.5181    4.5887 H   0  0  0  0  0  0  0  0  0  0  0  0
   -5.7652  -10.4393    4.2639 H   0  0  0  0  0  0  0  0  0  0  0  0
   -2.4909   -8.7706    2.8945 H   0  0  0  0  0  0  0  0  0  0  0  0
   -3.3253  -12.5227    6.4634 H   0  0  0  0  0  0  0  0  0  0  0  0
    1.7228  -11.2600    2.2233 H   0  0  0  0  0  0  0  0  0  0  0  0
   -0.4407   -9.7797    1.9929 H   0  0  0  0  0  0  0  0  0  0  0  0
   -5.5577   -2.6632    3.4397 H   0  0  0  0  0  0  0  0  0  0  0  0
   -4.6056   -0.5019    2.7425 H   0  0  0  0  0  0  0  0  0  0  0  0
   -1.8651    2.3442    0.5903 H   0  0  0  0  0  0  0  0  0  0  0  0
   -2.0075    1.9022   -1.0938 H   0  0  0  0  0  0  0  0  0  0  0  0
    0.3773    1.3249    0.7402 H   0  0  0  0  0  0  0  0  0  0  0  0
    0.3129    2.4211   -0.6398 H   0  0  0  0  0  0  0  0  0  0  0  0
  1  2  1  0  0  0  0
  1 33  1  0  0  0  0
  1 34  1  0  0  0  0
  1 35  1  0  0  0  0
  2  3  1  0  0  0  0
  2 32  1  0  0  0  0
  3  4  1  0  0  0  0
  3 36  1  0  0  0  0
  3 37  1  0  0  0  0
  4  5  1  0  0  0  0
  4 38  1  0  0  0  0
  4 39  1  0  0  0  0
  5  6  1  0  0  0  0
  5 31  1  0  0  0  0
  6  7  1  0  0  0  0
  6 40  1  0  0  0  0
  6 41  1  0  0  0  0
  7  8  1  0  0  0  0
  7 30  2  0  0  0  0
  8  9  2  0  0  0  0
  8 42  1  0  0  0  0
  9 10  1  0  0  0  0
  9 43  1  0  0  0  0
 10 11  1  0  0  0  0
 10 29  2  0  0  0  0
 11 12  1  0  0  0  0
 11 44  1  0  0  0  0
 12 13  2  0  0  0  0
 12 14  1  0  0  0  0
 14 15  2  0  0  0  0
 14 18  1  0  0  0  0
 15 16  1  0  0  0  0
 16 17  1  0  0  0  0
 16 45  1  0  0  0  0
 17 18  2  0  0  0  0
 17 46  1  0  0  0  0
 18 19  1  0  0  0  0
 19 20  1  0  0  0  0
 19 47  1  0  0  0  0
 20 21  1  0  0  0  0
 20 28  2  0  0  0  0
 21 22  2  0  0  0  0
 22 23  1  0  0  0  0
 22 48  1  0  0  0  0
 23 24  2  0  0  0  0
 24 25  1  0  0  0  0
 24 28  1  0  0  0  0
 25 26  1  0  0  0  0
 26 27  2  0  0  0  0
 26 49  1  0  0  0  0
 27 28  1  0  0  0  0
 27 50  1  0  0  0  0
 29 30  1  0  0  0  0
 29 51  1  0  0  0  0
 30 52  1  0  0  0  0
 31 32  1  0  0  0  0
 31 53  1  0  0  0  0
 31 54  1  0  0  0  0
 32 55  1  0  0  0  0
 32 56  1  0  0  0  0
M  END
$$$$
