CHEMBL223999
 OpenBabel04072215363D

 64 69  0  0  0  0  0  0  0  0999 V2000
   -1.6948   -0.3427    1.1797 C   0  0  0  0  0  0  0  0  0  0  0  0
   -0.2725    0.0073    1.1480 N   0  0  0  0  0  0  0  0  0  0  0  0
    0.5183   -1.1688    0.7635 C   0  0  0  0  0  0  0  0  0  0  0  0
    2.0036   -0.8314    0.6419 C   0  0  0  0  0  0  0  0  0  0  0  0
    2.2393    0.2727   -0.3980 C   0  0  0  0  0  0  0  0  0  0  0  0
    1.8445   -0.1120   -1.8474 C   0  0  0  0  0  0  0  0  0  0  0  0
    2.5787   -1.3050   -2.4158 C   0  0  0  0  0  0  0  0  0  0  0  0
    2.0645   -2.6170   -2.2417 C   0  0  0  0  0  0  0  0  0  0  0  0
    2.7454   -3.7478   -2.6999 C   0  0  0  0  0  0  0  0  0  0  0  0
    3.9197   -3.5302   -3.3723 C   0  0  0  0  0  0  0  0  0  0  0  0
    4.4314   -2.2251   -3.6128 C   0  0  0  0  0  0  0  0  0  0  0  0
    3.7719   -1.1107   -3.1243 C   0  0  0  0  0  0  0  0  0  0  0  0
    5.7273   -2.2238   -4.4370 C   0  0  0  0  0  0  0  0  0  0  0  0
    5.8682   -3.6982   -4.5605 C   0  0  0  0  0  0  0  0  0  0  0  0
    6.7089   -4.6661   -5.1039 C   0  0  0  0  0  0  0  0  0  0  0  0
    7.9371   -4.3574   -5.8375 C   0  0  0  0  0  0  0  0  0  0  0  0
    8.7433   -3.2644   -5.6012 C   0  0  0  0  0  0  0  0  0  0  0  0
   10.0576   -3.1820   -6.6839 S   0  0  0  0  0  0  0  0  0  0  0  0
    9.5638   -4.6139   -7.4711 C   0  0  0  0  0  0  0  0  0  0  0  0
   10.2702   -5.1500   -8.5817 C   0  0  0  0  0  0  0  0  0  0  0  0
   10.9556   -5.6163   -9.5881 C   0  0  0  0  0  0  0  0  0  0  0  0
   11.7546   -6.1598  -10.7613 C   0  0  0  0  0  0  0  0  0  0  0  0
   11.8619   -7.5764  -10.6567 O   0  0  0  0  0  0  0  0  0  0  0  0
   12.5727   -8.1540  -11.6694 C   0  0  0  0  0  0  0  0  0  0  0  0
   13.6126   -7.5268  -12.3595 C   0  0  0  0  0  0  0  0  0  0  0  0
   14.2635   -8.1836  -13.4024 C   0  0  0  0  0  0  0  0  0  0  0  0
   13.8915   -9.4802  -13.7454 C   0  0  0  0  0  0  0  0  0  0  0  0
   12.8838  -10.1286  -13.0335 C   0  0  0  0  0  0  0  0  0  0  0  0
   12.2292   -9.4685  -11.9922 C   0  0  0  0  0  0  0  0  0  0  0  0
    8.4304   -5.1588   -6.9085 C   0  0  0  0  0  0  0  0  0  0  0  0
    6.2362   -5.9112   -4.8929 N   0  0  0  0  0  0  0  0  0  0  0  0
    5.1056   -5.7155   -4.1609 N   0  0  0  0  0  0  0  0  0  0  0  0
    4.8571   -4.4057   -3.9755 C   0  0  0  0  0  0  0  0  0  0  0  0
    1.4341    1.4958    0.0762 C   0  0  0  0  0  0  0  0  0  0  0  0
   -0.0529    1.1651    0.2677 C   0  0  0  0  0  0  0  0  0  0  0  0
   -1.8703   -1.1931    1.8477 H   0  0  0  0  0  0  0  0  0  0  0  0
   -2.0784   -0.6055    0.1874 H   0  0  0  0  0  0  0  0  0  0  0  0
   -2.2883    0.4943    1.5682 H   0  0  0  0  0  0  0  0  0  0  0  0
    0.1441   -1.5866   -0.1761 H   0  0  0  0  0  0  0  0  0  0  0  0
    0.4067   -1.9534    1.5214 H   0  0  0  0  0  0  0  0  0  0  0  0
    2.5871   -1.7279    0.4104 H   0  0  0  0  0  0  0  0  0  0  0  0
    2.3685   -0.4854    1.6200 H   0  0  0  0  0  0  0  0  0  0  0  0
    3.3064    0.5324   -0.3875 H   0  0  0  0  0  0  0  0  0  0  0  0
    2.0342    0.7527   -2.4986 H   0  0  0  0  0  0  0  0  0  0  0  0
    0.7696   -0.2989   -1.9427 H   0  0  0  0  0  0  0  0  0  0  0  0
    1.1140   -2.7659   -1.7368 H   0  0  0  0  0  0  0  0  0  0  0  0
    2.3521   -4.7430   -2.5345 H   0  0  0  0  0  0  0  0  0  0  0  0
    4.1674   -0.1144   -3.2968 H   0  0  0  0  0  0  0  0  0  0  0  0
    6.5441   -1.7668   -3.8758 H   0  0  0  0  0  0  0  0  0  0  0  0
    5.5706   -1.7451   -5.4078 H   0  0  0  0  0  0  0  0  0  0  0  0
    8.6305   -2.5004   -4.8431 H   0  0  0  0  0  0  0  0  0  0  0  0
   12.7368   -5.6806  -10.6906 H   0  0  0  0  0  0  0  0  0  0  0  0
   11.2562   -5.8762  -11.6958 H   0  0  0  0  0  0  0  0  0  0  0  0
   13.9566   -6.5300  -12.1060 H   0  0  0  0  0  0  0  0  0  0  0  0
   15.0605   -7.6805  -13.9403 H   0  0  0  0  0  0  0  0  0  0  0  0
   14.3966   -9.9884  -14.5645 H   0  0  0  0  0  0  0  0  0  0  0  0
   12.6050  -11.1472  -13.2910 H   0  0  0  0  0  0  0  0  0  0  0  0
   11.4397   -9.9739  -11.4410 H   0  0  0  0  0  0  0  0  0  0  0  0
    7.9592   -6.0689   -7.2598 H   0  0  0  0  0  0  0  0  0  0  0  0
    4.5840   -6.5243   -3.8393 H   0  0  0  0  0  0  0  0  0  0  0  0
    1.5435    2.3242   -0.6334 H   0  0  0  0  0  0  0  0  0  0  0  0
    1.8462    1.8490    1.0314 H   0  0  0  0  0  0  0  0  0  0  0  0
   -0.5183    1.0059   -0.7128 H   0  0  0  0  0  0  0  0  0  0  0  0
   -0.5417    2.0436    0.7061 H   0  0  0  0  0  0  0  0  0  0  0  0
  1  2  1  0  0  0  0
  1 36  1  0  0  0  0
  1 37  1  0  0  0  0
  1 38  1  0  0  0  0
  2  3  1  0  0  0  0
  2 35  1  0  0  0  0
  3  4  1  0  0  0  0
  3 39  1  0  0  0  0
  3 40  1  0  0  0  0
  4  5  1  0  0  0  0
  4 41  1  0  0  0  0
  4 42  1  0  0  0  0
  5  6  1  0  0  0  0
  5 34  1  0  0  0  0
  5 43  1  0  0  0  0
  6  7  1  0  0  0  0
  6 44  1  0  0  0  0
  6 45  1  0  0  0  0
  7  8  1  0  0  0  0
  7 12  2  0  0  0  0
  8  9  2  0  0  0  0
  8 46  1  0  0  0  0
  9 10  1  0  0  0  0
  9 47  1  0  0  0  0
 10 11  2  0  0  0  0
 10 33  1  0  0  0  0
 11 12  1  0  0  0  0
 11 13  1  0  0  0  0
 12 48  1  0  0  0  0
 13 14  1  0  0  0  0
 13 49  1  0  0  0  0
 13 50  1  0  0  0  0
 14 15  1  0  0  0  0
 14 33  2  0  0  0  0
 15 16  1  0  0  0  0
 15 31  2  0  0  0  0
 16 17  2  0  0  0  0
 16 30  1  0  0  0  0
 17 18  1  0  0  0  0
 17 51  1  0  0  0  0
 18 19  1  0  0  0  0
 19 20  1  0  0  0  0
 19 30  2  0  0  0  0
 20 21  3  0  0  0  0
 21 22  1  0  0  0  0
 22 23  1  0  0  0  0
 22 52  1  0  0  0  0
 22 53  1  0  0  0  0
 23 24  1  0  0  0  0
 24 25  1  0  0  0  0
 24 29  2  0  0  0  0
 25 26  2  0  0  0  0
 25 54  1  0  0  0  0
 26 27  1  0  0  0  0
 26 55  1  0  0  0  0
 27 28  2  0  0  0  0
 27 56  1  0  0  0  0
 28 29  1  0  0  0  0
 28 57  1  0  0  0  0
 29 58  1  0  0  0  0
 30 59  1  0  0  0  0
 31 32  1  0  0  0  0
 32 33  1  0  0  0  0
 32 60  1  0  0  0  0
 34 35  1  0  0  0  0
 34 61  1  0  0  0  0
 34 62  1  0  0  0  0
 35 63  1  0  0  0  0
 35 64  1  0  0  0  0
M  END
$$$$
