CHEMBL381577
 OpenBabel04072215373D

 46 49  0  0  0  0  0  0  0  0999 V2000
   -1.7037   -3.7807    6.8856 F   0  0  0  0  0  0  0  0  0  0  0  0
   -1.8043   -4.2118    5.5958 C   0  0  0  0  0  0  0  0  0  0  0  0
   -2.7202   -5.2193    5.6121 F   0  0  0  0  0  0  0  0  0  0  0  0
   -2.3847   -3.1904    4.9072 F   0  0  0  0  0  0  0  0  0  0  0  0
   -0.4871   -4.6372    4.9961 C   0  0  0  0  0  0  0  0  0  0  0  0
    0.7041   -4.5225    5.7197 C   0  0  0  0  0  0  0  0  0  0  0  0
    1.9080   -4.9337    5.1532 C   0  0  0  0  0  0  0  0  0  0  0  0
    1.9355   -5.4569    3.8560 C   0  0  0  0  0  0  0  0  0  0  0  0
    0.7701   -5.5625    3.0895 C   0  0  0  0  0  0  0  0  0  0  0  0
    0.7284   -6.1034    1.7906 N   0  0  0  0  0  0  0  0  0  0  0  0
    1.6993   -6.6982    1.0664 C   0  0  0  0  0  0  0  0  0  0  0  0
    1.7700   -6.8334   -0.2407 N   0  0  0  0  0  0  0  0  0  0  0  0
    2.9138   -7.5617   -0.5100 N   0  0  0  0  0  0  0  0  0  0  0  0
    3.4521   -7.8642    0.6526 C   0  0  0  0  0  0  0  0  0  0  0  0
    4.6391   -8.6554    1.0062 C   0  0  0  0  0  0  0  0  0  0  0  0
    4.9202   -8.8384    2.3749 C   0  0  0  0  0  0  0  0  0  0  0  0
    6.0290   -9.5655    2.7642 C   0  0  0  0  0  0  0  0  0  0  0  0
    6.8886  -10.1102    1.8944 N   0  0  0  0  0  0  0  0  0  0  0  0
    6.6195   -9.9318    0.5833 C   0  0  0  0  0  0  0  0  0  0  0  0
    5.5136   -9.2473    0.0627 C   0  0  0  0  0  0  0  0  0  0  0  0
    5.3691   -9.1106   -1.4471 C   0  0  0  0  0  0  0  0  0  0  0  0
    5.9126  -10.2943   -2.2751 C   0  0  0  0  0  0  0  0  0  0  0  0
    5.7762  -10.0990   -3.7642 C   0  0  0  0  0  0  0  0  0  0  0  0
    6.8353   -9.5750   -4.5119 C   0  0  0  0  0  0  0  0  0  0  0  0
    6.6788   -9.4346   -5.8823 C   0  0  0  0  0  0  0  0  0  0  0  0
    5.5537   -9.7717   -6.5472 N   0  0  0  0  0  0  0  0  0  0  0  0
    4.5415  -10.2704   -5.8065 C   0  0  0  0  0  0  0  0  0  0  0  0
    4.6017  -10.4498   -4.4321 C   0  0  0  0  0  0  0  0  0  0  0  0
    2.7293   -7.3372    1.6999 O   0  0  0  0  0  0  0  0  0  0  0  0
   -0.4384   -5.1610    3.6873 C   0  0  0  0  0  0  0  0  0  0  0  0
    0.7013   -4.1157    6.7302 H   0  0  0  0  0  0  0  0  0  0  0  0
    2.8317   -4.8446    5.7192 H   0  0  0  0  0  0  0  0  0  0  0  0
    2.9012   -5.7475    3.4545 H   0  0  0  0  0  0  0  0  0  0  0  0
   -0.0605   -5.7789    1.2416 H   0  0  0  0  0  0  0  0  0  0  0  0
    4.2836   -8.4225    3.1507 H   0  0  0  0  0  0  0  0  0  0  0  0
    6.2610   -9.7236    3.8122 H   0  0  0  0  0  0  0  0  0  0  0  0
    7.3757  -10.3819   -0.0535 H   0  0  0  0  0  0  0  0  0  0  0  0
    5.8741   -8.1842   -1.7500 H   0  0  0  0  0  0  0  0  0  0  0  0
    4.3146   -9.0074   -1.7150 H   0  0  0  0  0  0  0  0  0  0  0  0
    5.3995  -11.2201   -1.9826 H   0  0  0  0  0  0  0  0  0  0  0  0
    6.9750  -10.4673   -2.0710 H   0  0  0  0  0  0  0  0  0  0  0  0
    7.7729   -9.2905   -4.0457 H   0  0  0  0  0  0  0  0  0  0  0  0
    7.4803   -9.0386   -6.4990 H   0  0  0  0  0  0  0  0  0  0  0  0
    3.6484  -10.5353   -6.3653 H   0  0  0  0  0  0  0  0  0  0  0  0
    3.7504  -10.8637   -3.9024 H   0  0  0  0  0  0  0  0  0  0  0  0
   -1.3730   -5.2548    3.1327 H   0  0  0  0  0  0  0  0  0  0  0  0
  1  2  1  0  0  0  0
  2  3  1  0  0  0  0
  2  4  1  0  0  0  0
  2  5  1  0  0  0  0
  5  6  1  0  0  0  0
  5 30  2  0  0  0  0
  6  7  2  0  0  0  0
  6 31  1  0  0  0  0
  7  8  1  0  0  0  0
  7 32  1  0  0  0  0
  8  9  2  0  0  0  0
  8 33  1  0  0  0  0
  9 10  1  0  0  0  0
  9 30  1  0  0  0  0
 10 11  1  0  0  0  0
 10 34  1  0  0  0  0
 11 12  2  0  0  0  0
 11 29  1  0  0  0  0
 12 13  1  0  0  0  0
 13 14  2  0  0  0  0
 14 15  1  0  0  0  0
 14 29  1  0  0  0  0
 15 16  1  0  0  0  0
 15 20  2  0  0  0  0
 16 17  2  0  0  0  0
 16 35  1  0  0  0  0
 17 18  1  0  0  0  0
 17 36  1  0  0  0  0
 18 19  2  0  0  0  0
 19 20  1  0  0  0  0
 19 37  1  0  0  0  0
 20 21  1  0  0  0  0
 21 22  1  0  0  0  0
 21 38  1  0  0  0  0
 21 39  1  0  0  0  0
 22 23  1  0  0  0  0
 22 40  1  0  0  0  0
 22 41  1  0  0  0  0
 23 24  1  0  0  0  0
 23 28  2  0  0  0  0
 24 25  2  0  0  0  0
 24 42  1  0  0  0  0
 25 26  1  0  0  0  0
 25 43  1  0  0  0  0
 26 27  2  0  0  0  0
 27 28  1  0  0  0  0
 27 44  1  0  0  0  0
 28 45  1  0  0  0  0
 30 46  1  0  0  0  0
M  END
$$$$
