CHEMBL256556
 OpenBabel04072215363D

 38 40  0  0  0  0  0  0  0  0999 V2000
    1.1612   -0.4396   -0.8024 O   0  0  0  0  0  0  0  0  0  0  0  0
    2.0857   -0.0692   -0.0802 C   0  0  0  0  0  0  0  0  0  0  0  0
    2.2849    1.2416    0.3067 N   0  0  0  0  0  0  0  0  0  0  0  0
    1.4626    2.3483   -0.0177 C   0  0  0  0  0  0  0  0  0  0  0  0
    0.3147    2.2623   -0.8146 C   0  0  0  0  0  0  0  0  0  0  0  0
   -0.4685    3.3904   -1.0763 C   0  0  0  0  0  0  0  0  0  0  0  0
   -0.1050    4.6209   -0.5443 C   0  0  0  0  0  0  0  0  0  0  0  0
   -1.0741    6.0059   -0.8582 Cl  0  0  0  0  0  0  0  0  0  0  0  0
    1.0386    4.7304    0.2426 C   0  0  0  0  0  0  0  0  0  0  0  0
    1.8204    3.5978    0.5043 C   0  0  0  0  0  0  0  0  0  0  0  0
    3.0341   -1.1305    0.3919 C   0  0  0  0  0  0  0  0  0  0  0  0
    2.7446   -2.4274   -0.0923 C   0  0  0  0  0  0  0  0  0  0  0  0
    3.5098   -3.5257    0.2677 C   0  0  0  0  0  0  0  0  0  0  0  0
    4.5706   -3.3050    1.1129 C   0  0  0  0  0  0  0  0  0  0  0  0
    4.8976   -2.0860    1.5939 N   0  0  0  0  0  0  0  0  0  0  0  0
    4.1421   -1.0057    1.2397 C   0  0  0  0  0  0  0  0  0  0  0  0
    4.6977    0.5285    1.9978 S   0  0  0  0  0  0  0  0  0  0  0  0
    6.4179    0.0789    2.4315 C   0  0  0  0  0  0  0  0  0  0  0  0
    7.1681    1.1878    3.1325 C   0  0  0  0  0  0  0  0  0  0  0  0
    7.3581    1.1590    4.5193 C   0  0  0  0  0  0  0  0  0  0  0  0
    8.1180    2.1573    5.1130 C   0  0  0  0  0  0  0  0  0  0  0  0
    8.6863    3.1736    4.4315 N   0  0  0  0  0  0  0  0  0  0  0  0
    8.4832    3.1936    3.0974 C   0  0  0  0  0  0  0  0  0  0  0  0
    7.7415    2.2409    2.4125 C   0  0  0  0  0  0  0  0  0  0  0  0
    3.0794    1.4378    0.9075 H   0  0  0  0  0  0  0  0  0  0  0  0
   -0.0147    1.3272   -1.2543 H   0  0  0  0  0  0  0  0  0  0  0  0
   -1.3585    3.2900   -1.6921 H   0  0  0  0  0  0  0  0  0  0  0  0
    1.3251    5.6921    0.6588 H   0  0  0  0  0  0  0  0  0  0  0  0
    2.7054    3.7099    1.1258 H   0  0  0  0  0  0  0  0  0  0  0  0
    1.8980   -2.5913   -0.7618 H   0  0  0  0  0  0  0  0  0  0  0  0
    3.2739   -4.5171   -0.1021 H   0  0  0  0  0  0  0  0  0  0  0  0
    5.2044   -4.1249    1.4401 H   0  0  0  0  0  0  0  0  0  0  0  0
    6.9576   -0.1858    1.5146 H   0  0  0  0  0  0  0  0  0  0  0  0
    6.4228   -0.8060    3.0776 H   0  0  0  0  0  0  0  0  0  0  0  0
    6.9450    0.3643    5.1322 H   0  0  0  0  0  0  0  0  0  0  0  0
    8.3041    2.1586    6.1837 H   0  0  0  0  0  0  0  0  0  0  0  0
    8.9578    4.0181    2.5724 H   0  0  0  0  0  0  0  0  0  0  0  0
    7.6349    2.3132    1.3355 H   0  0  0  0  0  0  0  0  0  0  0  0
  1  2  2  0  0  0  0
  2  3  1  0  0  0  0
  2 11  1  0  0  0  0
  3  4  1  0  0  0  0
  3 25  1  0  0  0  0
  4  5  1  0  0  0  0
  4 10  2  0  0  0  0
  5  6  2  0  0  0  0
  5 26  1  0  0  0  0
  6  7  1  0  0  0  0
  6 27  1  0  0  0  0
  7  8  1  0  0  0  0
  7  9  2  0  0  0  0
  9 10  1  0  0  0  0
  9 28  1  0  0  0  0
 10 29  1  0  0  0  0
 11 12  1  0  0  0  0
 11 16  2  0  0  0  0
 12 13  2  0  0  0  0
 12 30  1  0  0  0  0
 13 14  1  0  0  0  0
 13 31  1  0  0  0  0
 14 15  2  0  0  0  0
 14 32  1  0  0  0  0
 15 16  1  0  0  0  0
 16 17  1  0  0  0  0
 17 18  1  0  0  0  0
 18 19  1  0  0  0  0
 18 33  1  0  0  0  0
 18 34  1  0  0  0  0
 19 20  1  0  0  0  0
 19 24  2  0  0  0  0
 20 21  2  0  0  0  0
 20 35  1  0  0  0  0
 21 22  1  0  0  0  0
 21 36  1  0  0  0  0
 22 23  2  0  0  0  0
 23 24  1  0  0  0  0
 23 37  1  0  0  0  0
 24 38  1  0  0  0  0
M  END
$$$$
