CHEMBL1973483
 OpenBabel04072215363D

 38 40  0  0  0  0  0  0  0  0999 V2000
    1.1551    0.0973   -0.4847 O   0  0  0  0  0  0  0  0  0  0  0  0
    2.3650   -0.0358   -0.3196 C   0  0  0  0  0  0  0  0  0  0  0  0
    2.9336   -0.9521    0.5206 N   0  0  0  0  0  0  0  0  0  0  0  0
    2.2190   -1.9679    1.1634 C   0  0  0  0  0  0  0  0  0  0  0  0
    1.1950   -2.6665    0.5312 C   0  0  0  0  0  0  0  0  0  0  0  0
    0.5544   -3.6878    1.2246 C   0  0  0  0  0  0  0  0  0  0  0  0
    0.9107   -3.9522    2.5426 C   0  0  0  0  0  0  0  0  0  0  0  0
    1.9426   -3.2093    3.1217 C   0  0  0  0  0  0  0  0  0  0  0  0
    2.2953   -3.4278    4.5885 C   0  0  0  0  0  0  0  0  0  0  0  0
    1.5420   -4.4016    5.1842 F   0  0  0  0  0  0  0  0  0  0  0  0
    3.5911   -3.8041    4.7834 F   0  0  0  0  0  0  0  0  0  0  0  0
    2.1063   -2.3124    5.3503 F   0  0  0  0  0  0  0  0  0  0  0  0
    2.6323   -2.2537    2.4137 N   0  0  0  0  0  0  0  0  0  0  0  0
    3.2017    0.8698   -0.9239 N   0  0  0  0  0  0  0  0  0  0  0  0
    4.6075    0.9085   -1.0129 C   0  0  0  0  0  0  0  0  0  0  0  0
    5.3883   -0.2388   -0.8851 C   0  0  0  0  0  0  0  0  0  0  0  0
    6.7360   -0.0869   -0.6371 C   0  0  0  0  0  0  0  0  0  0  0  0
    7.3095    1.1058   -0.3953 N   0  0  0  0  0  0  0  0  0  0  0  0
    6.5568    2.2005   -0.5732 C   0  0  0  0  0  0  0  0  0  0  0  0
    6.9938    3.4211   -0.0618 C   0  0  0  0  0  0  0  0  0  0  0  0
    6.1265    4.5198   -0.1168 C   0  0  0  0  0  0  0  0  0  0  0  0
    5.7156    5.1884    1.1901 C   0  0  0  0  0  0  0  0  0  0  0  0
    5.9083    4.3705    2.2635 F   0  0  0  0  0  0  0  0  0  0  0  0
    6.3646    6.3506    1.4610 F   0  0  0  0  0  0  0  0  0  0  0  0
    4.3792    5.4817    1.2116 F   0  0  0  0  0  0  0  0  0  0  0  0
    5.1832    4.5738   -1.1357 C   0  0  0  0  0  0  0  0  0  0  0  0
    4.6531    3.3579   -1.5225 C   0  0  0  0  0  0  0  0  0  0  0  0
    5.2631    2.1508   -1.0887 C   0  0  0  0  0  0  0  0  0  0  0  0
    3.7025   -0.6146    1.0811 H   0  0  0  0  0  0  0  0  0  0  0  0
    0.9183   -2.4480   -0.4972 H   0  0  0  0  0  0  0  0  0  0  0  0
   -0.2396   -4.2589    0.7437 H   0  0  0  0  0  0  0  0  0  0  0  0
    0.3975   -4.7202    3.1036 H   0  0  0  0  0  0  0  0  0  0  0  0
    2.6936    1.7150   -1.1457 H   0  0  0  0  0  0  0  0  0  0  0  0
    4.9689   -1.2323   -0.9743 H   0  0  0  0  0  0  0  0  0  0  0  0
    7.3935   -0.9483   -0.5678 H   0  0  0  0  0  0  0  0  0  0  0  0
    7.8579    3.4225    0.6022 H   0  0  0  0  0  0  0  0  0  0  0  0
    4.6501    5.4929   -1.3593 H   0  0  0  0  0  0  0  0  0  0  0  0
    3.7344    3.3504   -2.0949 H   0  0  0  0  0  0  0  0  0  0  0  0
  1  2  2  0  0  0  0
  2  3  1  0  0  0  0
  2 14  1  0  0  0  0
  3  4  1  0  0  0  0
  3 29  1  0  0  0  0
  4  5  1  0  0  0  0
  4 13  2  0  0  0  0
  5  6  2  0  0  0  0
  5 30  1  0  0  0  0
  6  7  1  0  0  0  0
  6 31  1  0  0  0  0
  7  8  2  0  0  0  0
  7 32  1  0  0  0  0
  8  9  1  0  0  0  0
  8 13  1  0  0  0  0
  9 10  1  0  0  0  0
  9 11  1  0  0  0  0
  9 12  1  0  0  0  0
 14 15  1  0  0  0  0
 14 33  1  0  0  0  0
 15 16  1  0  0  0  0
 15 28  2  0  0  0  0
 16 17  2  0  0  0  0
 16 34  1  0  0  0  0
 17 18  1  0  0  0  0
 17 35  1  0  0  0  0
 18 19  2  0  0  0  0
 19 20  1  0  0  0  0
 19 28  1  0  0  0  0
 20 21  2  0  0  0  0
 20 36  1  0  0  0  0
 21 22  1  0  0  0  0
 21 26  1  0  0  0  0
 22 23  1  0  0  0  0
 22 24  1  0  0  0  0
 22 25  1  0  0  0  0
 26 27  2  0  0  0  0
 26 37  1  0  0  0  0
 27 28  1  0  0  0  0
 27 38  1  0  0  0  0
M  END
$$$$
