CHEMBL4521028
 OpenBabel04072215383D

 61 64  0  0  0  0  0  0  0  0999 V2000
    3.3268    0.3885   -1.2988 C   0  0  0  0  0  0  0  0  0  0  0  0
    2.5438   -0.3330   -0.3478 O   0  0  0  0  0  0  0  0  0  0  0  0
    3.2439   -1.0322    0.5944 C   0  0  0  0  0  0  0  0  0  0  0  0
    4.3370   -0.4361    1.2262 C   0  0  0  0  0  0  0  0  0  0  0  0
    5.1165   -1.1510    2.1578 C   0  0  0  0  0  0  0  0  0  0  0  0
    6.2378   -0.6209    2.8156 C   0  0  0  0  0  0  0  0  0  0  0  0
    6.6071    0.7347    2.6086 N   0  0  0  0  0  0  0  0  0  0  0  0
    7.4504    1.4565    3.4844 C   0  0  0  0  0  0  0  0  0  0  0  0
    7.3014    1.3494    4.8738 C   0  0  0  0  0  0  0  0  0  0  0  0
    8.1922    1.9832    5.7399 C   0  0  0  0  0  0  0  0  0  0  0  0
    9.2253    2.7563    5.2180 C   0  0  0  0  0  0  0  0  0  0  0  0
   10.4803    3.5394    6.3929 Br  0  0  0  0  0  0  0  0  0  0  0  0
    9.3502    2.9401    3.8414 C   0  0  0  0  0  0  0  0  0  0  0  0
    8.4554    2.2972    2.9906 C   0  0  0  0  0  0  0  0  0  0  0  0
    8.5853    2.4604    1.6630 F   0  0  0  0  0  0  0  0  0  0  0  0
    6.9700   -1.3635    3.6642 N   0  0  0  0  0  0  0  0  0  0  0  0
    6.5682   -2.6137    3.8806 C   0  0  0  0  0  0  0  0  0  0  0  0
    5.4882   -3.1982    3.3510 N   0  0  0  0  0  0  0  0  0  0  0  0
    4.7679   -2.4660    2.4916 C   0  0  0  0  0  0  0  0  0  0  0  0
    3.6172   -3.0077    1.9304 C   0  0  0  0  0  0  0  0  0  0  0  0
    2.8389   -2.3171    0.9890 C   0  0  0  0  0  0  0  0  0  0  0  0
    1.7470   -3.0391    0.5563 O   0  0  0  0  0  0  0  0  0  0  0  0
    0.9134   -2.4087   -0.4108 C   0  0  0  0  0  0  0  0  0  0  0  0
   -0.2614   -3.2839   -0.8347 C   0  0  0  0  0  0  0  0  0  0  0  0
   -0.9820   -2.5349   -1.8181 O   0  0  0  0  0  0  0  0  0  0  0  0
   -2.0675   -3.2488   -2.3924 C   0  0  0  0  0  0  0  0  0  0  0  0
   -2.7217   -2.3530   -3.4485 C   0  0  0  0  0  0  0  0  0  0  0  0
   -3.8732   -2.9799   -4.0713 N   0  0  0  0  0  0  0  0  0  0  0  0
   -3.7350   -3.8346   -5.1438 C   0  0  0  0  0  0  0  0  0  0  0  0
   -2.6512   -4.0836   -5.6658 O   0  0  0  0  0  0  0  0  0  0  0  0
   -5.0144   -4.4702   -5.6302 C   0  0  0  0  0  0  0  0  0  0  0  0
   -5.3411   -4.0259   -6.9652 N   0  0  0  0  0  0  0  0  0  0  0  0
   -4.6646   -4.2715   -8.1231 C   0  0  0  0  0  0  0  0  0  0  0  0
   -5.2839   -3.6979   -9.1311 N   0  0  0  0  0  0  0  0  0  0  0  0
   -6.3626   -3.1029   -8.5192 C   0  0  0  0  0  0  0  0  0  0  0  0
   -7.3273   -2.2824   -9.2335 N   0  3  0  0  0  0  0  0  0  0  0  0
   -7.0918   -2.0372  -10.4287 O   0  0  0  0  0  0  0  0  0  0  0  0
   -8.3203   -1.8721   -8.6086 O   0  5  0  0  0  0  0  0  0  0  0  0
   -6.4541   -3.2963   -7.1905 N   0  0  0  0  0  0  0  0  0  0  0  0
    2.9635    0.1358   -2.2995 H   0  0  0  0  0  0  0  0  0  0  0  0
    4.3977    0.1570   -1.2724 H   0  0  0  0  0  0  0  0  0  0  0  0
    3.1747    1.4588   -1.1344 H   0  0  0  0  0  0  0  0  0  0  0  0
    4.5849    0.5960    0.9972 H   0  0  0  0  0  0  0  0  0  0  0  0
    6.8452    0.8989    1.6336 H   0  0  0  0  0  0  0  0  0  0  0  0
    6.5019    0.7385    5.2879 H   0  0  0  0  0  0  0  0  0  0  0  0
    8.0765    1.8434    6.8110 H   0  0  0  0  0  0  0  0  0  0  0  0
   10.1407    3.5508    3.4236 H   0  0  0  0  0  0  0  0  0  0  0  0
    7.1776   -3.2151    4.5453 H   0  0  0  0  0  0  0  0  0  0  0  0
    3.3197   -4.0067    2.2386 H   0  0  0  0  0  0  0  0  0  0  0  0
    1.4930   -2.1976   -1.3167 H   0  0  0  0  0  0  0  0  0  0  0  0
    0.4973   -1.4792   -0.0034 H   0  0  0  0  0  0  0  0  0  0  0  0
   -0.9098   -3.5096    0.0196 H   0  0  0  0  0  0  0  0  0  0  0  0
    0.0971   -4.2304   -1.2556 H   0  0  0  0  0  0  0  0  0  0  0  0
   -2.7948   -3.4988   -1.6117 H   0  0  0  0  0  0  0  0  0  0  0  0
   -1.7077   -4.1776   -2.8485 H   0  0  0  0  0  0  0  0  0  0  0  0
   -1.9876   -2.0840   -4.2178 H   0  0  0  0  0  0  0  0  0  0  0  0
   -3.0583   -1.4140   -2.9944 H   0  0  0  0  0  0  0  0  0  0  0  0
   -4.7882   -2.7739   -3.6876 H   0  0  0  0  0  0  0  0  0  0  0  0
   -5.8534   -4.2355   -4.9671 H   0  0  0  0  0  0  0  0  0  0  0  0
   -4.8891   -5.5574   -5.6504 H   0  0  0  0  0  0  0  0  0  0  0  0
   -3.7446   -4.8413   -8.1696 H   0  0  0  0  0  0  0  0  0  0  0  0
  1  2  1  0  0  0  0
  1 40  1  0  0  0  0
  1 41  1  0  0  0  0
  1 42  1  0  0  0  0
  2  3  1  0  0  0  0
  3  4  1  0  0  0  0
  3 21  2  0  0  0  0
  4  5  2  0  0  0  0
  4 43  1  0  0  0  0
  5  6  1  0  0  0  0
  5 19  1  0  0  0  0
  6  7  1  0  0  0  0
  6 16  2  0  0  0  0
  7  8  1  0  0  0  0
  7 44  1  0  0  0  0
  8  9  1  0  0  0  0
  8 14  2  0  0  0  0
  9 10  2  0  0  0  0
  9 45  1  0  0  0  0
 10 11  1  0  0  0  0
 10 46  1  0  0  0  0
 11 12  1  0  0  0  0
 11 13  2  0  0  0  0
 13 14  1  0  0  0  0
 13 47  1  0  0  0  0
 14 15  1  0  0  0  0
 16 17  1  0  0  0  0
 17 18  2  0  0  0  0
 17 48  1  0  0  0  0
 18 19  1  0  0  0  0
 19 20  2  0  0  0  0
 20 21  1  0  0  0  0
 20 49  1  0  0  0  0
 21 22  1  0  0  0  0
 22 23  1  0  0  0  0
 23 24  1  0  0  0  0
 23 50  1  0  0  0  0
 23 51  1  0  0  0  0
 24 25  1  0  0  0  0
 24 52  1  0  0  0  0
 24 53  1  0  0  0  0
 25 26  1  0  0  0  0
 26 27  1  0  0  0  0
 26 54  1  0  0  0  0
 26 55  1  0  0  0  0
 27 28  1  0  0  0  0
 27 56  1  0  0  0  0
 27 57  1  0  0  0  0
 28 29  1  0  0  0  0
 28 58  1  0  0  0  0
 29 30  2  0  0  0  0
 29 31  1  0  0  0  0
 31 32  1  0  0  0  0
 31 59  1  0  0  0  0
 31 60  1  0  0  0  0
 32 33  1  0  0  0  0
 32 39  1  0  0  0  0
 33 34  2  0  0  0  0
 33 61  1  0  0  0  0
 34 35  1  0  0  0  0
 35 36  1  0  0  0  0
 35 39  2  0  0  0  0
 36 37  2  0  0  0  0
 36 38  1  0  0  0  0
M  CHG  2  36   1  38  -1
M  END
$$$$
