CHEMBL1995813
 OpenBabel04072215363D

 43 46  0  0  1  0  0  0  0  0999 V2000
    1.1620   -1.0939   -2.5332 N   0  0  0  0  0  0  0  0  0  0  0  0
    0.8217   -0.6785   -1.1604 C   0  0  3  0  0  0  0  0  0  0  0  0
    1.2376    0.7912   -0.9837 C   0  0  0  0  0  0  0  0  0  0  0  0
    0.8708    1.3301    0.3937 C   0  0  0  0  0  0  0  0  0  0  0  0
   -0.6185    1.1738    0.6519 C   0  0  0  0  0  0  0  0  0  0  0  0
   -1.0294   -0.2886    0.5633 C   0  0  0  0  0  0  0  0  0  0  0  0
   -0.6886   -0.9143   -0.8060 C   0  0  3  0  0  0  0  0  0  0  0  0
   -0.9788   -2.3551   -0.7933 N   0  0  0  0  0  0  0  0  0  0  0  0
   -2.2953   -2.7108   -0.5479 C   0  0  0  0  0  0  0  0  0  0  0  0
   -2.4762   -3.8064    0.1989 N   0  0  0  0  0  0  0  0  0  0  0  0
   -3.7443   -4.1063    0.5409 C   0  0  0  0  0  0  0  0  0  0  0  0
   -4.8262   -3.3425    0.1851 C   0  0  0  0  0  0  0  0  0  0  0  0
   -4.5368   -2.2335   -0.5789 C   0  0  0  0  0  0  0  0  0  0  0  0
   -5.5672   -1.2795   -0.9654 C   0  0  0  0  0  0  0  0  0  0  0  0
   -6.6477   -0.9485   -0.1609 C   0  0  0  0  0  0  0  0  0  0  0  0
   -7.3830    0.0106   -0.8082 N   0  0  0  0  0  0  0  0  0  0  0  0
   -6.8085    0.3058   -2.0112 C   0  0  0  0  0  0  0  0  0  0  0  0
   -7.2992    1.2090   -2.8797 N   0  0  0  0  0  0  0  0  0  0  0  0
   -6.5473    1.3213   -3.9984 C   0  0  0  0  0  0  0  0  0  0  0  0
   -5.3846    0.6105   -4.2690 C   0  0  0  0  0  0  0  0  0  0  0  0
   -4.9209   -0.3099   -3.3278 C   0  0  0  0  0  0  0  0  0  0  0  0
   -5.6647   -0.4748   -2.1449 C   0  0  0  0  0  0  0  0  0  0  0  0
   -3.2897   -1.9227   -0.9704 N   0  0  0  0  0  0  0  0  0  0  0  0
    2.1423   -0.8965   -2.7237 H   0  0  0  0  0  0  0  0  0  0  0  0
    0.6219   -0.5425   -3.1992 H   0  0  0  0  0  0  0  0  0  0  0  0
    1.4318   -1.2921   -0.4853 H   0  0  0  0  0  0  0  0  0  0  0  0
    0.7552    1.4145   -1.7484 H   0  0  0  0  0  0  0  0  0  0  0  0
    2.3200    0.8955   -1.1275 H   0  0  0  0  0  0  0  0  0  0  0  0
    1.1493    2.3872    0.4648 H   0  0  0  0  0  0  0  0  0  0  0  0
    1.4383    0.7947    1.1646 H   0  0  0  0  0  0  0  0  0  0  0  0
   -1.1880    1.7627   -0.0779 H   0  0  0  0  0  0  0  0  0  0  0  0
   -0.8673    1.5654    1.6443 H   0  0  0  0  0  0  0  0  0  0  0  0
   -2.1060   -0.3477    0.7593 H   0  0  0  0  0  0  0  0  0  0  0  0
   -0.5398   -0.8568    1.3646 H   0  0  0  0  0  0  0  0  0  0  0  0
   -1.2913   -0.4264   -1.5850 H   0  0  0  0  0  0  0  0  0  0  0  0
   -0.4004   -2.9117   -0.1744 H   0  0  0  0  0  0  0  0  0  0  0  0
   -3.8622   -5.0006    1.1454 H   0  0  0  0  0  0  0  0  0  0  0  0
   -5.8276   -3.6026    0.4923 H   0  0  0  0  0  0  0  0  0  0  0  0
   -6.9406   -1.2845    0.8239 H   0  0  0  0  0  0  0  0  0  0  0  0
   -8.2209    0.4590   -0.4686 H   0  0  0  0  0  0  0  0  0  0  0  0
   -6.9236    2.0422   -4.7206 H   0  0  0  0  0  0  0  0  0  0  0  0
   -4.8487    0.7679   -5.1986 H   0  0  0  0  0  0  0  0  0  0  0  0
   -4.0143   -0.8826   -3.5015 H   0  0  0  0  0  0  0  0  0  0  0  0
  1  2  1  0  0  0  0
  1 24  1  0  0  0  0
  1 25  1  0  0  0  0
  2  3  1  0  0  0  0
  2  7  1  0  0  0  0
  2 26  1  0  0  0  0
  3  4  1  0  0  0  0
  3 27  1  0  0  0  0
  3 28  1  0  0  0  0
  4  5  1  0  0  0  0
  4 29  1  0  0  0  0
  4 30  1  0  0  0  0
  5  6  1  0  0  0  0
  5 31  1  0  0  0  0
  5 32  1  0  0  0  0
  6  7  1  0  0  0  0
  6 33  1  0  0  0  0
  6 34  1  0  0  0  0
  7  8  1  0  0  0  0
  7 35  1  0  0  0  0
  8  9  1  0  0  0  0
  8 36  1  0  0  0  0
  9 10  1  0  0  0  0
  9 23  2  0  0  0  0
 10 11  2  0  0  0  0
 11 12  1  0  0  0  0
 11 37  1  0  0  0  0
 12 13  2  0  0  0  0
 12 38  1  0  0  0  0
 13 14  1  0  0  0  0
 13 23  1  0  0  0  0
 14 15  2  0  0  0  0
 14 22  1  0  0  0  0
 15 16  1  0  0  0  0
 15 39  1  0  0  0  0
 16 17  1  0  0  0  0
 16 40  1  0  0  0  0
 17 18  1  0  0  0  0
 17 22  2  0  0  0  0
 18 19  2  0  0  0  0
 19 20  1  0  0  0  0
 19 41  1  0  0  0  0
 20 21  2  0  0  0  0
 20 42  1  0  0  0  0
 21 22  1  0  0  0  0
 21 43  1  0  0  0  0
M  END
$$$$
