CHEMBL4083910
 OpenBabel04072215383D

 59 63  0  0  0  0  0  0  0  0999 V2000
    1.2775   -1.2094   -3.4349 C   0  0  0  0  0  0  0  0  0  0  0  0
    0.6332   -0.9388   -2.1099 C   0  0  0  0  0  0  0  0  0  0  0  0
    1.0133    0.1495   -1.3360 C   0  0  0  0  0  0  0  0  0  0  0  0
    0.4357    0.3537   -0.0792 C   0  0  0  0  0  0  0  0  0  0  0  0
   -0.5350   -0.5132    0.4654 C   0  0  0  0  0  0  0  0  0  0  0  0
   -1.0515   -0.2029    1.7167 N   0  0  0  0  0  0  0  0  0  0  0  0
   -2.4276   -0.4937    2.1331 C   0  0  0  0  0  0  0  0  0  0  0  0
   -2.9510    0.6483    3.0280 C   0  0  0  0  0  0  0  0  0  0  0  0
   -2.0737    0.9169    4.1358 O   0  0  0  0  0  0  0  0  0  0  0  0
   -0.7720    1.2881    3.6535 C   0  0  0  0  0  0  0  0  0  0  0  0
   -0.1470    0.1574    2.8240 C   0  0  0  0  0  0  0  0  0  0  0  0
   -0.9609   -1.5704   -0.3669 C   0  0  0  0  0  0  0  0  0  0  0  0
   -1.9281   -2.5137    0.0597 N   0  0  0  0  0  0  0  0  0  0  0  0
   -3.0475   -2.8153   -0.6923 C   0  0  0  0  0  0  0  0  0  0  0  0
   -3.2905   -2.2819   -1.7789 O   0  0  0  0  0  0  0  0  0  0  0  0
   -3.9134   -3.6626   -0.0323 N   0  0  0  0  0  0  0  0  0  0  0  0
   -5.1822   -4.1014   -0.4895 C   0  0  0  0  0  0  0  0  0  0  0  0
   -5.6478   -3.9029   -1.7889 C   0  0  0  0  0  0  0  0  0  0  0  0
   -6.9534   -4.2687   -2.1462 C   0  0  0  0  0  0  0  0  0  0  0  0
   -7.8320   -4.8935   -1.2411 C   0  0  0  0  0  0  0  0  0  0  0  0
   -9.2170   -5.2517   -1.6271 C   0  0  0  0  0  0  0  0  0  0  0  0
   -9.5067   -5.6820   -2.9445 C   0  0  0  0  0  0  0  0  0  0  0  0
  -10.8009   -6.0079   -3.3244 C   0  0  0  0  0  0  0  0  0  0  0  0
  -11.8743   -5.9679   -2.5197 N   0  0  0  0  0  0  0  0  0  0  0  0
  -11.5739   -5.5560   -1.2748 C   0  0  0  0  0  0  0  0  0  0  0  0
  -12.4888   -5.4254   -0.2743 N   0  0  0  0  0  0  0  0  0  0  0  0
  -11.9789   -4.9789    0.8797 N   0  0  0  0  0  0  0  0  0  0  0  0
  -10.6755   -4.7972    0.6006 C   0  0  0  0  0  0  0  0  0  0  0  0
   -9.8363   -4.2508    1.6988 C   0  0  0  0  0  0  0  0  0  0  0  0
  -10.3410   -5.1760   -0.7488 C   0  0  0  0  0  0  0  0  0  0  0  0
   -7.2947   -5.1895    0.0201 C   0  0  0  0  0  0  0  0  0  0  0  0
   -6.0153   -4.7622    0.4091 C   0  0  0  0  0  0  0  0  0  0  0  0
   -0.3756   -1.7771   -1.6327 C   0  0  0  0  0  0  0  0  0  0  0  0
    2.0687   -0.4833   -3.6488 H   0  0  0  0  0  0  0  0  0  0  0  0
    0.5356   -1.1495   -4.2372 H   0  0  0  0  0  0  0  0  0  0  0  0
    1.7337   -2.2052   -3.4355 H   0  0  0  0  0  0  0  0  0  0  0  0
    1.7531    0.8584   -1.7009 H   0  0  0  0  0  0  0  0  0  0  0  0
    0.7277    1.2515    0.4604 H   0  0  0  0  0  0  0  0  0  0  0  0
   -2.4303   -1.4317    2.7039 H   0  0  0  0  0  0  0  0  0  0  0  0
   -3.1101   -0.5868    1.2863 H   0  0  0  0  0  0  0  0  0  0  0  0
   -3.9286    0.3788    3.4393 H   0  0  0  0  0  0  0  0  0  0  0  0
   -3.0766    1.5695    2.4458 H   0  0  0  0  0  0  0  0  0  0  0  0
   -0.1436    1.5056    4.5226 H   0  0  0  0  0  0  0  0  0  0  0  0
   -0.8570    2.2109    3.0640 H   0  0  0  0  0  0  0  0  0  0  0  0
   -0.0177   -0.7298    3.4569 H   0  0  0  0  0  0  0  0  0  0  0  0
    0.8497    0.4639    2.4938 H   0  0  0  0  0  0  0  0  0  0  0  0
   -1.7026   -3.0296    0.8951 H   0  0  0  0  0  0  0  0  0  0  0  0
   -3.6856   -3.8805    0.9296 H   0  0  0  0  0  0  0  0  0  0  0  0
   -5.0239   -3.4592   -2.5585 H   0  0  0  0  0  0  0  0  0  0  0  0
   -7.2693   -4.0504   -3.1656 H   0  0  0  0  0  0  0  0  0  0  0  0
   -8.7216   -5.7733   -3.6896 H   0  0  0  0  0  0  0  0  0  0  0  0
  -11.0108   -6.3271   -4.3422 H   0  0  0  0  0  0  0  0  0  0  0  0
  -13.4787   -5.6308   -0.3347 H   0  0  0  0  0  0  0  0  0  0  0  0
  -10.4522   -3.8155    2.4906 H   0  0  0  0  0  0  0  0  0  0  0  0
   -9.1771   -3.4566    1.3348 H   0  0  0  0  0  0  0  0  0  0  0  0
   -9.2407   -5.0453    2.1644 H   0  0  0  0  0  0  0  0  0  0  0  0
   -7.8739   -5.7692    0.7307 H   0  0  0  0  0  0  0  0  0  0  0  0
   -5.6974   -4.9497    1.4302 H   0  0  0  0  0  0  0  0  0  0  0  0
   -0.6884   -2.6280   -2.2333 H   0  0  0  0  0  0  0  0  0  0  0  0
  1  2  1  0  0  0  0
  1 34  1  0  0  0  0
  1 35  1  0  0  0  0
  1 36  1  0  0  0  0
  2  3  1  0  0  0  0
  2 33  2  0  0  0  0
  3  4  2  0  0  0  0
  3 37  1  0  0  0  0
  4  5  1  0  0  0  0
  4 38  1  0  0  0  0
  5  6  1  0  0  0  0
  5 12  2  0  0  0  0
  6  7  1  0  0  0  0
  6 11  1  0  0  0  0
  7  8  1  0  0  0  0
  7 39  1  0  0  0  0
  7 40  1  0  0  0  0
  8  9  1  0  0  0  0
  8 41  1  0  0  0  0
  8 42  1  0  0  0  0
  9 10  1  0  0  0  0
 10 11  1  0  0  0  0
 10 43  1  0  0  0  0
 10 44  1  0  0  0  0
 11 45  1  0  0  0  0
 11 46  1  0  0  0  0
 12 13  1  0  0  0  0
 12 33  1  0  0  0  0
 13 14  1  0  0  0  0
 13 47  1  0  0  0  0
 14 15  2  0  0  0  0
 14 16  1  0  0  0  0
 16 17  1  0  0  0  0
 16 48  1  0  0  0  0
 17 18  1  0  0  0  0
 17 32  2  0  0  0  0
 18 19  2  0  0  0  0
 18 49  1  0  0  0  0
 19 20  1  0  0  0  0
 19 50  1  0  0  0  0
 20 21  1  0  0  0  0
 20 31  2  0  0  0  0
 21 22  1  0  0  0  0
 21 30  2  0  0  0  0
 22 23  2  0  0  0  0
 22 51  1  0  0  0  0
 23 24  1  0  0  0  0
 23 52  1  0  0  0  0
 24 25  2  0  0  0  0
 25 26  1  0  0  0  0
 25 30  1  0  0  0  0
 26 27  1  0  0  0  0
 26 53  1  0  0  0  0
 27 28  2  0  0  0  0
 28 29  1  0  0  0  0
 28 30  1  0  0  0  0
 29 54  1  0  0  0  0
 29 55  1  0  0  0  0
 29 56  1  0  0  0  0
 31 32  1  0  0  0  0
 31 57  1  0  0  0  0
 32 58  1  0  0  0  0
 33 59  1  0  0  0  0
M  END
$$$$
