CHEMBL3671496
 OpenBabel04072215373D

 55 57  0  0  0  0  0  0  0  0999 V2000
    3.6183    4.0958    0.0499 C   0  0  0  0  0  0  0  0  0  0  0  0
    3.5686    3.0563    0.8910 C   0  0  0  0  0  0  0  0  0  0  0  0
    3.6892    1.6767    0.3481 C   0  0  0  0  0  0  0  0  0  0  0  0
    3.2718    1.3733   -0.7654 O   0  0  0  0  0  0  0  0  0  0  0  0
    4.3339    0.7470    1.1300 N   0  0  0  0  0  0  0  0  0  0  0  0
    5.1534    1.0929    2.2197 C   0  0  0  0  0  0  0  0  0  0  0  0
    6.3310    1.7967    1.9563 C   0  0  0  0  0  0  0  0  0  0  0  0
    7.0588    2.3906    3.0086 C   0  0  0  0  0  0  0  0  0  0  0  0
    8.1767    3.2236    2.8388 C   0  0  0  0  0  0  0  0  0  0  0  0
    8.6150    3.5729    1.5323 N   0  0  0  0  0  0  0  0  0  0  0  0
    9.4624    4.6750    1.2595 C   0  0  0  0  0  0  0  0  0  0  0  0
    9.2495    5.9193    1.8711 C   0  0  0  0  0  0  0  0  0  0  0  0
   10.1408    6.9763    1.6870 C   0  0  0  0  0  0  0  0  0  0  0  0
   11.2518    6.7976    0.8632 C   0  0  0  0  0  0  0  0  0  0  0  0
   12.5065    8.2009    0.6878 Br  0  0  0  0  0  0  0  0  0  0  0  0
   11.4489    5.5998    0.1903 C   0  0  0  0  0  0  0  0  0  0  0  0
   10.5492    4.5528    0.3850 C   0  0  0  0  0  0  0  0  0  0  0  0
   10.7545    3.3886   -0.2518 F   0  0  0  0  0  0  0  0  0  0  0  0
    8.8198    3.7674    3.8887 N   0  0  0  0  0  0  0  0  0  0  0  0
    8.3358    3.5071    5.1025 C   0  0  0  0  0  0  0  0  0  0  0  0
    7.2532    2.7721    5.3729 N   0  0  0  0  0  0  0  0  0  0  0  0
    6.6203    2.2247    4.3315 C   0  0  0  0  0  0  0  0  0  0  0  0
    5.4691    1.4818    4.5704 C   0  0  0  0  0  0  0  0  0  0  0  0
    4.7367    0.8840    3.5398 C   0  0  0  0  0  0  0  0  0  0  0  0
    3.6279    0.1844    3.9541 O   0  0  0  0  0  0  0  0  0  0  0  0
    3.2624   -0.9337    3.1359 C   0  0  0  0  0  0  0  0  0  0  0  0
    2.6149   -2.0429    3.9725 C   0  0  0  0  0  0  0  0  0  0  0  0
    2.3377   -3.2330    3.1742 N   0  0  0  0  0  0  0  0  0  0  0  0
    3.3591   -4.0903    2.8480 C   0  0  0  0  0  0  0  0  0  0  0  0
    4.5011   -3.9801    3.2729 O   0  0  0  0  0  0  0  0  0  0  0  0
    2.9535   -5.0716    1.9753 N   0  0  0  0  0  0  0  0  0  0  0  0
    3.8954   -6.1224    1.6366 C   0  0  0  0  0  0  0  0  0  0  0  0
    3.3420   -7.1035    0.6213 C   0  0  0  0  0  0  0  0  0  0  0  0
    3.6021    5.1136    0.4229 H   0  0  0  0  0  0  0  0  0  0  0  0
    3.6995    3.9506   -1.0239 H   0  0  0  0  0  0  0  0  0  0  0  0
    3.5111    3.1992    1.9626 H   0  0  0  0  0  0  0  0  0  0  0  0
    4.6646   -0.0120    0.5425 H   0  0  0  0  0  0  0  0  0  0  0  0
    6.6438    1.9443    0.9255 H   0  0  0  0  0  0  0  0  0  0  0  0
    8.8935    2.7456    1.0103 H   0  0  0  0  0  0  0  0  0  0  0  0
    8.3917    6.0611    2.5269 H   0  0  0  0  0  0  0  0  0  0  0  0
    9.9707    7.9130    2.2082 H   0  0  0  0  0  0  0  0  0  0  0  0
   12.3023    5.4520   -0.4658 H   0  0  0  0  0  0  0  0  0  0  0  0
    8.8658    3.9404    5.9426 H   0  0  0  0  0  0  0  0  0  0  0  0
    5.1223    1.3791    5.5972 H   0  0  0  0  0  0  0  0  0  0  0  0
    4.1368   -1.3559    2.6279 H   0  0  0  0  0  0  0  0  0  0  0  0
    2.5334   -0.5962    2.3897 H   0  0  0  0  0  0  0  0  0  0  0  0
    1.6689   -1.6994    4.4044 H   0  0  0  0  0  0  0  0  0  0  0  0
    3.2718   -2.3138    4.8075 H   0  0  0  0  0  0  0  0  0  0  0  0
    1.5719   -3.1861    2.5179 H   0  0  0  0  0  0  0  0  0  0  0  0
    1.9799   -5.3283    2.0453 H   0  0  0  0  0  0  0  0  0  0  0  0
    4.1608   -6.6488    2.5603 H   0  0  0  0  0  0  0  0  0  0  0  0
    4.8062   -5.6539    1.2468 H   0  0  0  0  0  0  0  0  0  0  0  0
    2.4822   -7.6453    1.0286 H   0  0  0  0  0  0  0  0  0  0  0  0
    4.1078   -7.8387    0.3520 H   0  0  0  0  0  0  0  0  0  0  0  0
    3.0188   -6.5944   -0.2920 H   0  0  0  0  0  0  0  0  0  0  0  0
  1  2  2  0  0  0  0
  1 34  1  0  0  0  0
  1 35  1  0  0  0  0
  2  3  1  0  0  0  0
  2 36  1  0  0  0  0
  3  4  2  0  0  0  0
  3  5  1  0  0  0  0
  5  6  1  0  0  0  0
  5 37  1  0  0  0  0
  6  7  1  0  0  0  0
  6 24  2  0  0  0  0
  7  8  2  0  0  0  0
  7 38  1  0  0  0  0
  8  9  1  0  0  0  0
  8 22  1  0  0  0  0
  9 10  1  0  0  0  0
  9 19  2  0  0  0  0
 10 11  1  0  0  0  0
 10 39  1  0  0  0  0
 11 12  1  0  0  0  0
 11 17  2  0  0  0  0
 12 13  2  0  0  0  0
 12 40  1  0  0  0  0
 13 14  1  0  0  0  0
 13 41  1  0  0  0  0
 14 15  1  0  0  0  0
 14 16  2  0  0  0  0
 16 17  1  0  0  0  0
 16 42  1  0  0  0  0
 17 18  1  0  0  0  0
 19 20  1  0  0  0  0
 20 21  2  0  0  0  0
 20 43  1  0  0  0  0
 21 22  1  0  0  0  0
 22 23  2  0  0  0  0
 23 24  1  0  0  0  0
 23 44  1  0  0  0  0
 24 25  1  0  0  0  0
 25 26  1  0  0  0  0
 26 27  1  0  0  0  0
 26 45  1  0  0  0  0
 26 46  1  0  0  0  0
 27 28  1  0  0  0  0
 27 47  1  0  0  0  0
 27 48  1  0  0  0  0
 28 29  1  0  0  0  0
 28 49  1  0  0  0  0
 29 30  2  0  0  0  0
 29 31  1  0  0  0  0
 31 32  1  0  0  0  0
 31 50  1  0  0  0  0
 32 33  1  0  0  0  0
 32 51  1  0  0  0  0
 32 52  1  0  0  0  0
 33 53  1  0  0  0  0
 33 54  1  0  0  0  0
 33 55  1  0  0  0  0
M  END
$$$$
