CHEMBL1242469
 OpenBabel04072215363D

 36 38  0  0  0  0  0  0  0  0999 V2000
    2.3811    0.2321    3.8026 N   0  0  0  0  0  0  0  0  0  0  0  0
    3.4617   -0.1864    3.3056 C   0  0  0  0  0  0  0  0  0  0  0  0
    4.7644   -0.6908    2.7064 C   0  0  0  0  0  0  0  0  0  0  0  0
    4.5822   -0.9112    1.2033 C   0  0  0  0  0  0  0  0  0  0  0  0
    5.8485   -1.4189    0.5125 C   0  0  0  0  0  0  0  0  0  0  0  0
    6.2840   -2.7070    1.0122 N   0  0  0  0  0  0  0  0  0  0  0  0
    7.1767   -2.7604    2.0176 N   0  0  0  0  0  0  0  0  0  0  0  0
    7.3283   -4.0786    2.2612 C   0  0  0  0  0  0  0  0  0  0  0  0
    8.2969   -4.5204    3.2687 C   0  0  0  0  0  0  0  0  0  0  0  0
    9.0054   -5.7233    3.1002 C   0  0  0  0  0  0  0  0  0  0  0  0
    9.8905   -6.1823    4.0764 C   0  0  0  0  0  0  0  0  0  0  0  0
   10.1330   -5.3967    5.1905 C   0  0  0  0  0  0  0  0  0  0  0  0
   11.0091   -5.8094    6.1176 F   0  0  0  0  0  0  0  0  0  0  0  0
    9.4904   -4.1713    5.3466 C   0  0  0  0  0  0  0  0  0  0  0  0
    9.7636   -3.3754    6.4223 O   0  0  0  0  0  0  0  0  0  0  0  0
    8.5683   -3.7389    4.4055 C   0  0  0  0  0  0  0  0  0  0  0  0
    6.4528   -4.8578    1.4343 C   0  0  0  0  0  0  0  0  0  0  0  0
    6.0981   -6.2023    1.2258 C   0  0  0  0  0  0  0  0  0  0  0  0
    6.5858   -7.2845    1.9318 N   0  0  0  0  0  0  0  0  0  0  0  0
    5.2251   -6.4921    0.2382 N   0  0  0  0  0  0  0  0  0  0  0  0
    4.7113   -5.4860   -0.4963 C   0  0  0  0  0  0  0  0  0  0  0  0
    4.9444   -4.1725   -0.3666 N   0  0  0  0  0  0  0  0  0  0  0  0
    5.8292   -3.9294    0.6158 C   0  0  0  0  0  0  0  0  0  0  0  0
    5.0252   -1.6219    3.2190 H   0  0  0  0  0  0  0  0  0  0  0  0
    5.5567    0.0409    2.8971 H   0  0  0  0  0  0  0  0  0  0  0  0
    4.2786    0.0310    0.7304 H   0  0  0  0  0  0  0  0  0  0  0  0
    3.7589   -1.6198    1.0335 H   0  0  0  0  0  0  0  0  0  0  0  0
    6.6742   -0.7082    0.6399 H   0  0  0  0  0  0  0  0  0  0  0  0
    5.6726   -1.5227   -0.5648 H   0  0  0  0  0  0  0  0  0  0  0  0
    8.8856   -6.3135    2.1948 H   0  0  0  0  0  0  0  0  0  0  0  0
   10.3960   -7.1348    3.9587 H   0  0  0  0  0  0  0  0  0  0  0  0
   10.4660   -3.8202    6.9345 H   0  0  0  0  0  0  0  0  0  0  0  0
    8.0675   -2.7775    4.5486 H   0  0  0  0  0  0  0  0  0  0  0  0
    6.9235   -7.1599    2.8746 H   0  0  0  0  0  0  0  0  0  0  0  0
    6.1304   -8.1600    1.7041 H   0  0  0  0  0  0  0  0  0  0  0  0
    4.0282   -5.7796   -1.2873 H   0  0  0  0  0  0  0  0  0  0  0  0
  1  2  3  0  0  0  0
  2  3  1  0  0  0  0
  3  4  1  0  0  0  0
  3 24  1  0  0  0  0
  3 25  1  0  0  0  0
  4  5  1  0  0  0  0
  4 26  1  0  0  0  0
  4 27  1  0  0  0  0
  5  6  1  0  0  0  0
  5 28  1  0  0  0  0
  5 29  1  0  0  0  0
  6  7  1  0  0  0  0
  6 23  1  0  0  0  0
  7  8  2  0  0  0  0
  8  9  1  0  0  0  0
  8 17  1  0  0  0  0
  9 10  1  0  0  0  0
  9 16  2  0  0  0  0
 10 11  2  0  0  0  0
 10 30  1  0  0  0  0
 11 12  1  0  0  0  0
 11 31  1  0  0  0  0
 12 13  1  0  0  0  0
 12 14  2  0  0  0  0
 14 15  1  0  0  0  0
 14 16  1  0  0  0  0
 15 32  1  0  0  0  0
 16 33  1  0  0  0  0
 17 18  1  0  0  0  0
 17 23  2  0  0  0  0
 18 19  1  0  0  0  0
 18 20  2  0  0  0  0
 19 34  1  0  0  0  0
 19 35  1  0  0  0  0
 20 21  1  0  0  0  0
 21 22  2  0  0  0  0
 21 36  1  0  0  0  0
 22 23  1  0  0  0  0
M  END
$$$$
