CHEMBL3604468
 OpenBabel04072215363D

 40 41  0  0  1  0  0  0  0  0999 V2000
    4.4833    1.0880   -0.8500 C   0  0  0  0  0  0  0  0  0  0  0  0
    3.5990    0.7246    0.3367 C   0  0  1  0  0  0  0  0  0  0  0  0
    2.3507    0.2507   -0.1844 O   0  0  0  0  0  0  0  0  0  0  0  0
    4.2309   -0.3264    1.2910 C   0  0  1  0  0  0  0  0  0  0  0  0
    3.2599   -0.6020    2.4453 C   0  0  0  0  0  0  0  0  0  0  0  0
    4.4593   -1.5201    0.5248 O   0  0  0  0  0  0  0  0  0  0  0  0
    5.1223   -2.5516    1.1686 C   0  0  0  0  0  0  0  0  0  0  0  0
    5.9339   -2.2735    2.2202 N   0  0  0  0  0  0  0  0  0  0  0  0
    6.5658   -3.3221    2.7760 C   0  0  0  0  0  0  0  0  0  0  0  0
    7.4883   -3.0909    3.7971 N   0  0  0  0  0  0  0  0  0  0  0  0
    8.6332   -3.8593    4.0911 C   0  0  0  0  0  0  0  0  0  0  0  0
    9.2477   -4.6670    3.1202 C   0  0  0  0  0  0  0  0  0  0  0  0
   10.3188   -5.5032    3.4394 C   0  0  0  0  0  0  0  0  0  0  0  0
   10.7945   -5.5613    4.7491 C   0  0  0  0  0  0  0  0  0  0  0  0
   12.1253   -6.7174    5.1482 S   0  3  3  0  0  0  0  0  0  0  0  0
   13.3007   -5.5822    4.8766 N   0  0  0  0  0  0  0  0  0  0  0  0
   12.0112   -7.0611    6.6707 O   0  5  0  0  0  0  0  0  0  0  0  0
   10.2042   -4.7533    5.7258 C   0  0  0  0  0  0  0  0  0  0  0  0
    9.1414   -3.8985    5.3955 C   0  0  0  0  0  0  0  0  0  0  0  0
    6.3625   -4.5959    2.3899 N   0  0  0  0  0  0  0  0  0  0  0  0
    5.5560   -4.8204    1.3447 C   0  0  0  0  0  0  0  0  0  0  0  0
    4.9291   -3.8196    0.6558 C   0  0  0  0  0  0  0  0  0  0  0  0
    3.9014   -4.2068   -0.8705 Br  0  0  0  0  0  0  0  0  0  0  0  0
    3.9489    1.7708   -1.5218 H   0  0  0  0  0  0  0  0  0  0  0  0
    4.7400    0.2077   -1.4476 H   0  0  0  0  0  0  0  0  0  0  0  0
    5.4057    1.5753   -0.5223 H   0  0  0  0  0  0  0  0  0  0  0  0
    3.3794    1.6385    0.9000 H   0  0  0  0  0  0  0  0  0  0  0  0
    2.5407   -0.5807   -0.6567 H   0  0  0  0  0  0  0  0  0  0  0  0
    5.1808    0.0732    1.6670 H   0  0  0  0  0  0  0  0  0  0  0  0
    2.3514   -1.0992    2.0882 H   0  0  0  0  0  0  0  0  0  0  0  0
    2.9800    0.3266    2.9521 H   0  0  0  0  0  0  0  0  0  0  0  0
    3.7030   -1.2667    3.1927 H   0  0  0  0  0  0  0  0  0  0  0  0
    7.5129   -2.1238    4.0905 H   0  0  0  0  0  0  0  0  0  0  0  0
    8.8928   -4.6604    2.0918 H   0  0  0  0  0  0  0  0  0  0  0  0
   10.7511   -6.1238    2.6596 H   0  0  0  0  0  0  0  0  0  0  0  0
   13.5569   -5.3925    3.9136 H   0  0  0  0  0  0  0  0  0  0  0  0
   14.1583   -5.7244    5.4025 H   0  0  0  0  0  0  0  0  0  0  0  0
   10.5592   -4.8016    6.7533 H   0  0  0  0  0  0  0  0  0  0  0  0
    8.6782   -3.3085    6.1829 H   0  0  0  0  0  0  0  0  0  0  0  0
    5.4465   -5.8672    1.0753 H   0  0  0  0  0  0  0  0  0  0  0  0
  1  2  1  0  0  0  0
  1 24  1  0  0  0  0
  1 25  1  0  0  0  0
  1 26  1  0  0  0  0
  2  3  1  0  0  0  0
  2  4  1  0  0  0  0
  2 27  1  1  0  0  0
  3 28  1  0  0  0  0
  4  5  1  0  0  0  0
  4  6  1  0  0  0  0
  4 29  1  1  0  0  0
  5 30  1  0  0  0  0
  5 31  1  0  0  0  0
  5 32  1  0  0  0  0
  6  7  1  0  0  0  0
  7  8  1  0  0  0  0
  7 22  2  0  0  0  0
  8  9  2  0  0  0  0
  9 10  1  0  0  0  0
  9 20  1  0  0  0  0
 10 11  1  0  0  0  0
 10 33  1  0  0  0  0
 11 12  1  0  0  0  0
 11 19  2  0  0  0  0
 12 13  2  0  0  0  0
 12 34  1  0  0  0  0
 13 14  1  0  0  0  0
 13 35  1  0  0  0  0
 14 15  1  0  0  0  0
 14 18  2  0  0  0  0
 15 16  1  0  0  0  0
 15 17  1  0  0  0  0
 16 36  1  0  0  0  0
 16 37  1  0  0  0  0
 18 19  1  0  0  0  0
 18 38  1  0  0  0  0
 19 39  1  0  0  0  0
 20 21  2  0  0  0  0
 21 22  1  0  0  0  0
 21 40  1  0  0  0  0
 22 23  1  0  0  0  0
M  CHG  2  15   1  17  -1
M  END
$$$$
