CHEMBL230081
 OpenBabel04072215363D

 45 48  0  0  1  0  0  0  0  0999 V2000
    2.9212    1.1156    0.7897 O   0  0  0  0  0  0  0  0  0  0  0  0
    3.6233    1.6560   -0.0476 C   0  0  0  0  0  0  0  0  0  0  0  0
    3.6938    3.0016   -0.1832 O   0  0  0  0  0  0  0  0  0  0  0  0
    4.5237    0.9495   -1.0287 C   0  0  0  0  0  0  0  0  0  0  0  0
    4.5604   -0.5702   -0.8708 C   0  0  0  0  0  0  0  0  0  0  0  0
    5.3950   -1.2982   -1.9535 C   0  0  3  0  0  0  0  0  0  0  0  0
    5.2847   -2.8388   -1.7288 C   0  0  0  0  0  0  0  0  0  0  0  0
    6.3373   -3.6474   -2.5109 C   0  0  0  0  0  0  0  0  0  0  0  0
    7.7702   -3.2688   -2.0968 C   0  0  0  0  0  0  0  0  0  0  0  0
    7.8902   -1.7875   -2.0606 C   0  0  0  0  0  0  0  0  0  0  0  0
    9.0733   -1.0992   -2.1422 N   0  0  0  0  0  0  0  0  0  0  0  0
    8.8012    0.2440   -2.2109 C   0  0  0  0  0  0  0  0  0  0  0  0
    9.8463    1.1767   -2.3674 C   0  0  0  0  0  0  0  0  0  0  0  0
   10.1805    1.6633   -3.5718 C   0  0  0  0  0  0  0  0  0  0  0  0
    9.6174    1.2425   -4.9139 C   0  0  0  0  0  0  0  0  0  0  0  0
    8.8102    0.3717   -5.1753 O   0  0  0  0  0  0  0  0  0  0  0  0
   10.2442    2.0651   -5.8321 N   0  0  0  0  0  0  0  0  0  0  0  0
   11.1418    2.9275   -5.2211 C   0  0  0  0  0  0  0  0  0  0  0  0
   11.9364    3.8610   -5.8523 C   0  0  0  0  0  0  0  0  0  0  0  0
   12.7807    4.6276   -5.0491 C   0  0  0  0  0  0  0  0  0  0  0  0
   12.8025    4.4479   -3.6526 C   0  0  0  0  0  0  0  0  0  0  0  0
   11.9824    3.4949   -3.0332 C   0  0  0  0  0  0  0  0  0  0  0  0
   11.1538    2.7291   -3.8366 C   0  0  0  0  0  0  0  0  0  0  0  0
    7.4325    0.3945   -2.1820 C   0  0  0  0  0  0  0  0  0  0  0  0
    6.8455   -0.8833   -2.0074 C   0  0  0  0  0  0  0  0  0  0  0  0
    4.3125    3.2906   -0.8828 H   0  0  0  0  0  0  0  0  0  0  0  0
    5.5135    1.3599   -0.8246 H   0  0  0  0  0  0  0  0  0  0  0  0
    4.2021    1.2153   -2.0423 H   0  0  0  0  0  0  0  0  0  0  0  0
    3.5315   -0.9552   -0.9044 H   0  0  0  0  0  0  0  0  0  0  0  0
    4.9460   -0.8163    0.1273 H   0  0  0  0  0  0  0  0  0  0  0  0
    4.9598   -1.0765   -2.9379 H   0  0  0  0  0  0  0  0  0  0  0  0
    4.2810   -3.1756   -2.0160 H   0  0  0  0  0  0  0  0  0  0  0  0
    5.4002   -3.0707   -0.6615 H   0  0  0  0  0  0  0  0  0  0  0  0
    6.2010   -3.4677   -3.5854 H   0  0  0  0  0  0  0  0  0  0  0  0
    6.1838   -4.7201   -2.3453 H   0  0  0  0  0  0  0  0  0  0  0  0
    8.4840   -3.7024   -2.8057 H   0  0  0  0  0  0  0  0  0  0  0  0
    7.9918   -3.6766   -1.1044 H   0  0  0  0  0  0  0  0  0  0  0  0
    9.9898   -1.5170   -2.2305 H   0  0  0  0  0  0  0  0  0  0  0  0
   10.3069    1.5641   -1.4629 H   0  0  0  0  0  0  0  0  0  0  0  0
   10.0594    1.9999   -6.8217 H   0  0  0  0  0  0  0  0  0  0  0  0
   11.9116    3.9941   -6.9275 H   0  0  0  0  0  0  0  0  0  0  0  0
   13.4292    5.3709   -5.5072 H   0  0  0  0  0  0  0  0  0  0  0  0
   13.4704    5.0599   -3.0491 H   0  0  0  0  0  0  0  0  0  0  0  0
   12.0078    3.3720   -1.9558 H   0  0  0  0  0  0  0  0  0  0  0  0
    6.9352    1.3436   -2.3129 H   0  0  0  0  0  0  0  0  0  0  0  0
  1  2  2  0  0  0  0
  2  3  1  0  0  0  0
  2  4  1  0  0  0  0
  3 26  1  0  0  0  0
  4  5  1  0  0  0  0
  4 27  1  0  0  0  0
  4 28  1  0  0  0  0
  5  6  1  0  0  0  0
  5 29  1  0  0  0  0
  5 30  1  0  0  0  0
  6  7  1  0  0  0  0
  6 25  1  0  0  0  0
  6 31  1  0  0  0  0
  7  8  1  0  0  0  0
  7 32  1  0  0  0  0
  7 33  1  0  0  0  0
  8  9  1  0  0  0  0
  8 34  1  0  0  0  0
  8 35  1  0  0  0  0
  9 10  1  0  0  0  0
  9 36  1  0  0  0  0
  9 37  1  0  0  0  0
 10 11  1  0  0  0  0
 10 25  2  0  0  0  0
 11 12  1  0  0  0  0
 11 38  1  0  0  0  0
 12 13  1  0  0  0  0
 12 24  2  0  0  0  0
 13 14  2  0  0  0  0
 13 39  1  0  0  0  0
 14 15  1  0  0  0  0
 14 23  1  0  0  0  0
 15 16  2  0  0  0  0
 15 17  1  0  0  0  0
 17 18  1  0  0  0  0
 17 40  1  0  0  0  0
 18 19  1  0  0  0  0
 18 23  2  0  0  0  0
 19 20  2  0  0  0  0
 19 41  1  0  0  0  0
 20 21  1  0  0  0  0
 20 42  1  0  0  0  0
 21 22  2  0  0  0  0
 21 43  1  0  0  0  0
 22 23  1  0  0  0  0
 22 44  1  0  0  0  0
 24 25  1  0  0  0  0
 24 45  1  0  0  0  0
M  END
$$$$
