CHEMBL3099479
 OpenBabel04072215363D

 78 80  0  0  0  0  0  0  0  0999 V2000
    2.6192   -1.2063   -1.5339 C   0  0  0  0  0  0  0  0  0  0  0  0
    3.1204   -0.2437   -0.6105 O   0  0  0  0  0  0  0  0  0  0  0  0
    3.4416   -0.6678    0.6527 C   0  0  0  0  0  0  0  0  0  0  0  0
    3.0910   -1.9284    1.1538 C   0  0  0  0  0  0  0  0  0  0  0  0
    3.5866   -2.4434    2.3787 C   0  0  0  0  0  0  0  0  0  0  0  0
    3.3250   -3.8717    2.7545 C   0  0  0  0  0  0  0  0  0  0  0  0
    3.2320   -4.7973    1.6899 C   0  0  0  0  0  0  0  0  0  0  0  0
    2.9605   -6.1539    1.8400 C   0  0  0  0  0  0  0  0  0  0  0  0
    2.7986   -7.0234    0.7304 N   0  0  0  0  0  0  0  0  0  0  0  0
    2.9061   -6.6669   -0.6111 C   0  0  0  0  0  0  0  0  0  0  0  0
    3.1920   -5.5558   -1.0426 O   0  0  0  0  0  0  0  0  0  0  0  0
    2.5989   -7.7362   -1.4536 N   0  0  0  0  0  0  0  0  0  0  0  0
    2.6314   -7.4682   -2.8515 C   0  0  0  0  0  0  0  0  0  0  0  0
    1.4323   -7.1402   -3.4917 C   0  0  0  0  0  0  0  0  0  0  0  0
    1.4221   -6.8050   -4.8492 C   0  0  0  0  0  0  0  0  0  0  0  0
    2.6047   -6.8271   -5.5853 C   0  0  0  0  0  0  0  0  0  0  0  0
    2.7063   -6.5759   -6.9273 O   0  0  0  0  0  0  0  0  0  0  0  0
    1.7132   -5.7076   -7.4859 C   0  0  0  0  0  0  0  0  0  0  0  0
    1.9907   -5.5749   -8.9822 C   0  0  0  0  0  0  0  0  0  0  0  0
    1.0115   -4.6287   -9.6872 C   0  0  0  0  0  0  0  0  0  0  0  0
    1.0089   -3.2523   -9.1634 N   0  0  0  0  0  0  0  0  0  0  0  0
    2.3018   -2.5888   -9.3535 C   0  0  0  0  0  0  0  0  0  0  0  0
   -0.0448   -2.4665   -9.8128 C   0  0  0  0  0  0  0  0  0  0  0  0
    3.7987   -7.1833   -4.9499 C   0  0  0  0  0  0  0  0  0  0  0  0
    3.8335   -7.4942   -3.5777 C   0  0  0  0  0  0  0  0  0  0  0  0
    5.1374   -7.8895   -2.9447 C   0  0  0  0  0  0  0  0  0  0  0  0
    2.8240   -6.6399    3.1366 C   0  0  0  0  0  0  0  0  0  0  0  0
    2.9539   -5.7749    4.2432 C   0  0  0  0  0  0  0  0  0  0  0  0
    2.7417   -6.2613    5.5127 O   0  0  0  0  0  0  0  0  0  0  0  0
    3.4828   -7.4382    5.8301 C   0  0  0  0  0  0  0  0  0  0  0  0
    3.1889   -4.3885    4.0642 C   0  0  0  0  0  0  0  0  0  0  0  0
    3.2318   -3.4690    5.0852 O   0  0  0  0  0  0  0  0  0  0  0  0
    3.7566   -3.8988    6.3342 C   0  0  0  0  0  0  0  0  0  0  0  0
    4.4096   -1.5934    3.1247 C   0  0  0  0  0  0  0  0  0  0  0  0
    4.6865   -0.2887    2.6898 C   0  0  0  0  0  0  0  0  0  0  0  0
    4.1902    0.1894    1.4657 C   0  0  0  0  0  0  0  0  0  0  0  0
    4.4829    1.6129    1.1033 C   0  0  0  0  0  0  0  0  0  0  0  0
    3.4456    2.4043    0.3248 C   0  0  0  0  0  0  0  0  0  0  0  0
    5.5958    2.1522    1.5197 N   0  0  0  0  0  0  0  0  0  0  0  0
    5.6894    3.4951    1.1342 O   0  0  0  0  0  0  0  0  0  0  0  0
    2.5409   -0.7208   -2.5119 H   0  0  0  0  0  0  0  0  0  0  0  0
    1.6138   -1.5297   -1.2468 H   0  0  0  0  0  0  0  0  0  0  0  0
    3.2977   -2.0599   -1.6402 H   0  0  0  0  0  0  0  0  0  0  0  0
    2.4272   -2.5546    0.5645 H   0  0  0  0  0  0  0  0  0  0  0  0
    3.3955   -4.4100    0.6941 H   0  0  0  0  0  0  0  0  0  0  0  0
    2.6688   -8.0061    0.9244 H   0  0  0  0  0  0  0  0  0  0  0  0
    1.7274   -8.1482   -1.1490 H   0  0  0  0  0  0  0  0  0  0  0  0
    0.5030   -7.0865   -2.9322 H   0  0  0  0  0  0  0  0  0  0  0  0
    0.4730   -6.5380   -5.2995 H   0  0  0  0  0  0  0  0  0  0  0  0
    1.7705   -4.7318   -6.9904 H   0  0  0  0  0  0  0  0  0  0  0  0
    0.7113   -6.1326   -7.3634 H   0  0  0  0  0  0  0  0  0  0  0  0
    1.9125   -6.5693   -9.4415 H   0  0  0  0  0  0  0  0  0  0  0  0
    3.0301   -5.2700   -9.1508 H   0  0  0  0  0  0  0  0  0  0  0  0
    0.0049   -5.0528   -9.5704 H   0  0  0  0  0  0  0  0  0  0  0  0
    1.2273   -4.6302  -10.7639 H   0  0  0  0  0  0  0  0  0  0  0  0
    3.0875   -3.0777   -8.7692 H   0  0  0  0  0  0  0  0  0  0  0  0
    2.2609   -1.5551   -8.9915 H   0  0  0  0  0  0  0  0  0  0  0  0
    2.6069   -2.5729  -10.4059 H   0  0  0  0  0  0  0  0  0  0  0  0
   -1.0280   -2.9167   -9.6371 H   0  0  0  0  0  0  0  0  0  0  0  0
    0.1093   -2.3821  -10.8949 H   0  0  0  0  0  0  0  0  0  0  0  0
   -0.0860   -1.4557   -9.3910 H   0  0  0  0  0  0  0  0  0  0  0  0
    4.7145   -7.2054   -5.5378 H   0  0  0  0  0  0  0  0  0  0  0  0
    5.9658   -7.8267   -3.6593 H   0  0  0  0  0  0  0  0  0  0  0  0
    5.0829   -8.9255   -2.5952 H   0  0  0  0  0  0  0  0  0  0  0  0
    5.3817   -7.2325   -2.1050 H   0  0  0  0  0  0  0  0  0  0  0  0
    2.5871   -7.6866    3.3039 H   0  0  0  0  0  0  0  0  0  0  0  0
    3.6962   -7.4248    6.9029 H   0  0  0  0  0  0  0  0  0  0  0  0
    4.4502   -7.4793    5.3033 H   0  0  0  0  0  0  0  0  0  0  0  0
    2.8930   -8.3284    5.6088 H   0  0  0  0  0  0  0  0  0  0  0  0
    4.1272   -3.0154    6.8658 H   0  0  0  0  0  0  0  0  0  0  0  0
    4.6047   -4.5848    6.2232 H   0  0  0  0  0  0  0  0  0  0  0  0
    2.9673   -4.3332    6.9546 H   0  0  0  0  0  0  0  0  0  0  0  0
    4.8562   -1.9283    4.0581 H   0  0  0  0  0  0  0  0  0  0  0  0
    5.3085    0.3511    3.3130 H   0  0  0  0  0  0  0  0  0  0  0  0
    2.5158    1.8582    0.1631 H   0  0  0  0  0  0  0  0  0  0  0  0
    3.8638    2.6983   -0.6427 H   0  0  0  0  0  0  0  0  0  0  0  0
    3.1794    3.3024    0.8904 H   0  0  0  0  0  0  0  0  0  0  0  0
    6.5376    3.7675    1.5283 H   0  0  0  0  0  0  0  0  0  0  0  0
  1  2  1  0  0  0  0
  1 41  1  0  0  0  0
  1 42  1  0  0  0  0
  1 43  1  0  0  0  0
  2  3  1  0  0  0  0
  3  4  1  0  0  0  0
  3 36  2  0  0  0  0
  4  5  2  0  0  0  0
  4 44  1  0  0  0  0
  5  6  1  0  0  0  0
  5 34  1  0  0  0  0
  6  7  1  0  0  0  0
  6 31  2  0  0  0  0
  7  8  2  0  0  0  0
  7 45  1  0  0  0  0
  8  9  1  0  0  0  0
  8 27  1  0  0  0  0
  9 10  1  0  0  0  0
  9 46  1  0  0  0  0
 10 11  2  0  0  0  0
 10 12  1  0  0  0  0
 12 13  1  0  0  0  0
 12 47  1  0  0  0  0
 13 14  1  0  0  0  0
 13 25  2  0  0  0  0
 14 15  2  0  0  0  0
 14 48  1  0  0  0  0
 15 16  1  0  0  0  0
 15 49  1  0  0  0  0
 16 17  1  0  0  0  0
 16 24  2  0  0  0  0
 17 18  1  0  0  0  0
 18 19  1  0  0  0  0
 18 50  1  0  0  0  0
 18 51  1  0  0  0  0
 19 20  1  0  0  0  0
 19 52  1  0  0  0  0
 19 53  1  0  0  0  0
 20 21  1  0  0  0  0
 20 54  1  0  0  0  0
 20 55  1  0  0  0  0
 21 22  1  0  0  0  0
 21 23  1  0  0  0  0
 22 56  1  0  0  0  0
 22 57  1  0  0  0  0
 22 58  1  0  0  0  0
 23 59  1  0  0  0  0
 23 60  1  0  0  0  0
 23 61  1  0  0  0  0
 24 25  1  0  0  0  0
 24 62  1  0  0  0  0
 25 26  1  0  0  0  0
 26 63  1  0  0  0  0
 26 64  1  0  0  0  0
 26 65  1  0  0  0  0
 27 28  2  0  0  0  0
 27 66  1  0  0  0  0
 28 29  1  0  0  0  0
 28 31  1  0  0  0  0
 29 30  1  0  0  0  0
 30 67  1  0  0  0  0
 30 68  1  0  0  0  0
 30 69  1  0  0  0  0
 31 32  1  0  0  0  0
 32 33  1  0  0  0  0
 33 70  1  0  0  0  0
 33 71  1  0  0  0  0
 33 72  1  0  0  0  0
 34 35  2  0  0  0  0
 34 73  1  0  0  0  0
 35 36  1  0  0  0  0
 35 74  1  0  0  0  0
 36 37  1  0  0  0  0
 37 38  1  0  0  0  0
 37 39  2  0  0  0  0
 38 75  1  0  0  0  0
 38 76  1  0  0  0  0
 38 77  1  0  0  0  0
 39 40  1  0  0  0  0
 40 78  1  0  0  0  0
M  END
$$$$
