CHEMBL385178
 OpenBabel04072215373D

 50 53  0  0  0  0  0  0  0  0999 V2000
    0.9119    0.4589   -0.1712 O   0  0  0  0  0  0  0  0  0  0  0  0
    2.0964    0.3118    0.1127 C   0  0  0  0  0  0  0  0  0  0  0  0
    2.5985   -0.3483    1.2225 N   0  0  0  0  0  0  0  0  0  0  0  0
    1.8318   -1.0076    2.2126 C   0  0  0  0  0  0  0  0  0  0  0  0
    0.4407   -1.1230    2.1524 C   0  0  0  0  0  0  0  0  0  0  0  0
   -0.2739   -1.7882    3.1510 C   0  0  0  0  0  0  0  0  0  0  0  0
    0.3988   -2.4072    4.2006 C   0  0  0  0  0  0  0  0  0  0  0  0
   -0.2253   -3.1194    5.2008 O   0  0  0  0  0  0  0  0  0  0  0  0
   -1.3727   -3.8307    4.9161 C   0  0  0  0  0  0  0  0  0  0  0  0
   -1.6079   -4.4895    3.7047 C   0  0  0  0  0  0  0  0  0  0  0  0
   -2.8128   -5.1622    3.4933 C   0  0  0  0  0  0  0  0  0  0  0  0
   -3.7617   -5.2297    4.5118 C   0  0  0  0  0  0  0  0  0  0  0  0
   -3.5048   -4.6278    5.7433 C   0  0  0  0  0  0  0  0  0  0  0  0
   -2.3125   -3.9281    5.9449 C   0  0  0  0  0  0  0  0  0  0  0  0
    1.7847   -2.2688    4.2944 C   0  0  0  0  0  0  0  0  0  0  0  0
    2.4993   -1.5767    3.3039 C   0  0  0  0  0  0  0  0  0  0  0  0
    3.0795    0.8788   -0.8406 C   0  0  0  0  0  0  0  0  0  0  0  0
    2.6929    0.8804   -2.1904 C   0  0  0  0  0  0  0  0  0  0  0  0
    3.5307    1.4194   -3.1515 C   0  0  0  0  0  0  0  0  0  0  0  0
    4.7316    1.9451   -2.7241 C   0  0  0  0  0  0  0  0  0  0  0  0
    5.1214    1.9797   -1.4296 N   0  0  0  0  0  0  0  0  0  0  0  0
    4.2959    1.4754   -0.4777 C   0  0  0  0  0  0  0  0  0  0  0  0
    4.7218    1.5051    0.8673 N   0  0  0  0  0  0  0  0  0  0  0  0
    5.7725    2.4874    1.1657 C   0  0  0  0  0  0  0  0  0  0  0  0
    5.1415    3.7242    1.7645 C   0  0  0  0  0  0  0  0  0  0  0  0
    4.9841    3.8425    3.1492 C   0  0  0  0  0  0  0  0  0  0  0  0
    4.3378    4.9604    3.6521 C   0  0  0  0  0  0  0  0  0  0  0  0
    3.8418    5.9501    2.8810 N   0  0  0  0  0  0  0  0  0  0  0  0
    3.9968    5.8159    1.5463 C   0  0  0  0  0  0  0  0  0  0  0  0
    4.6295    4.7374    0.9479 C   0  0  0  0  0  0  0  0  0  0  0  0
    3.6102   -0.3832    1.3203 H   0  0  0  0  0  0  0  0  0  0  0  0
   -0.1380   -0.7172    1.3302 H   0  0  0  0  0  0  0  0  0  0  0  0
   -1.3568   -1.8276    3.0717 H   0  0  0  0  0  0  0  0  0  0  0  0
   -0.8703   -4.4724    2.9073 H   0  0  0  0  0  0  0  0  0  0  0  0
   -3.0080   -5.6336    2.5335 H   0  0  0  0  0  0  0  0  0  0  0  0
   -4.6970   -5.7589    4.3478 H   0  0  0  0  0  0  0  0  0  0  0  0
   -4.2352   -4.7000    6.5450 H   0  0  0  0  0  0  0  0  0  0  0  0
   -2.1202   -3.4543    6.9037 H   0  0  0  0  0  0  0  0  0  0  0  0
    2.3131   -2.7069    5.1374 H   0  0  0  0  0  0  0  0  0  0  0  0
    3.5784   -1.4947    3.4026 H   0  0  0  0  0  0  0  0  0  0  0  0
    1.7309    0.4645   -2.4866 H   0  0  0  0  0  0  0  0  0  0  0  0
    3.2506    1.4303   -4.1980 H   0  0  0  0  0  0  0  0  0  0  0  0
    5.4374    2.3715   -3.4318 H   0  0  0  0  0  0  0  0  0  0  0  0
    3.9140    1.6971    1.4614 H   0  0  0  0  0  0  0  0  0  0  0  0
    6.4191    2.7572    0.3220 H   0  0  0  0  0  0  0  0  0  0  0  0
    6.4500    2.0436    1.9055 H   0  0  0  0  0  0  0  0  0  0  0  0
    5.3481    3.0776    3.8270 H   0  0  0  0  0  0  0  0  0  0  0  0
    4.1920    5.0888    4.7209 H   0  0  0  0  0  0  0  0  0  0  0  0
    3.5784    6.6221    0.9501 H   0  0  0  0  0  0  0  0  0  0  0  0
    4.7080    4.6833   -0.1338 H   0  0  0  0  0  0  0  0  0  0  0  0
  1  2  2  0  0  0  0
  2  3  1  0  0  0  0
  2 17  1  0  0  0  0
  3  4  1  0  0  0  0
  3 31  1  0  0  0  0
  4  5  1  0  0  0  0
  4 16  2  0  0  0  0
  5  6  2  0  0  0  0
  5 32  1  0  0  0  0
  6  7  1  0  0  0  0
  6 33  1  0  0  0  0
  7  8  1  0  0  0  0
  7 15  2  0  0  0  0
  8  9  1  0  0  0  0
  9 10  1  0  0  0  0
  9 14  2  0  0  0  0
 10 11  2  0  0  0  0
 10 34  1  0  0  0  0
 11 12  1  0  0  0  0
 11 35  1  0  0  0  0
 12 13  2  0  0  0  0
 12 36  1  0  0  0  0
 13 14  1  0  0  0  0
 13 37  1  0  0  0  0
 14 38  1  0  0  0  0
 15 16  1  0  0  0  0
 15 39  1  0  0  0  0
 16 40  1  0  0  0  0
 17 18  1  0  0  0  0
 17 22  2  0  0  0  0
 18 19  2  0  0  0  0
 18 41  1  0  0  0  0
 19 20  1  0  0  0  0
 19 42  1  0  0  0  0
 20 21  2  0  0  0  0
 20 43  1  0  0  0  0
 21 22  1  0  0  0  0
 22 23  1  0  0  0  0
 23 24  1  0  0  0  0
 23 44  1  0  0  0  0
 24 25  1  0  0  0  0
 24 45  1  0  0  0  0
 24 46  1  0  0  0  0
 25 26  1  0  0  0  0
 25 30  2  0  0  0  0
 26 27  2  0  0  0  0
 26 47  1  0  0  0  0
 27 28  1  0  0  0  0
 27 48  1  0  0  0  0
 28 29  2  0  0  0  0
 29 30  1  0  0  0  0
 29 49  1  0  0  0  0
 30 50  1  0  0  0  0
M  END
$$$$
