CHEMBL231824
 OpenBabel04072215363D

 63 66  0  0  0  0  0  0  0  0999 V2000
   -1.0915    0.1245    1.7291 C   0  0  0  0  0  0  0  0  0  0  0  0
    0.2713   -0.5227    1.9149 C   0  0  0  0  0  0  0  0  0  0  0  0
    1.3637    0.2619    1.2663 C   0  0  0  0  0  0  0  0  0  0  0  0
    2.0384    1.2335    1.8524 N   0  0  0  0  0  0  0  0  0  0  0  0
    2.9630    1.6616    0.9395 C   0  0  0  0  0  0  0  0  0  0  0  0
    2.8628    0.9403   -0.2227 C   0  0  0  0  0  0  0  0  0  0  0  0
    1.8265    0.0689   -0.0136 N   0  0  0  0  0  0  0  0  0  0  0  0
    1.2793   -0.7992   -1.0350 C   0  0  0  0  0  0  0  0  0  0  0  0
    1.9547   -2.1686   -1.0929 C   0  0  0  0  0  0  0  0  0  0  0  0
    1.3926   -3.0674   -2.1722 C   0  0  0  0  0  0  0  0  0  0  0  0
    0.9808   -2.5800   -3.4220 C   0  0  0  0  0  0  0  0  0  0  0  0
    0.4710   -3.4378   -4.4026 C   0  0  0  0  0  0  0  0  0  0  0  0
    0.4041   -4.8113   -4.1762 C   0  0  0  0  0  0  0  0  0  0  0  0
   -0.0993   -5.6761   -5.1631 N   0  0  0  0  0  0  0  0  0  0  0  0
    0.3797   -6.9624   -5.4315 C   0  0  0  0  0  0  0  0  0  0  0  0
    1.6168   -7.2851   -5.0295 N   0  0  0  0  0  0  0  0  0  0  0  0
    2.0519   -8.5235   -5.2804 C   0  0  0  0  0  0  0  0  0  0  0  0
    1.2900   -9.4838   -5.8936 C   0  0  0  0  0  0  0  0  0  0  0  0
    1.8541  -10.7802   -6.0426 C   0  0  0  0  0  0  0  0  0  0  0  0
    2.3579  -11.8197   -6.1770 N   0  0  0  0  0  0  0  0  0  0  0  0
    0.0183   -9.0904   -6.2895 C   0  0  0  0  0  0  0  0  0  0  0  0
   -0.9926   -9.9975   -6.8915 C   0  0  0  0  0  0  0  0  0  0  0  0
   -2.3560   -9.8639   -6.5797 C   0  0  0  0  0  0  0  0  0  0  0  0
   -3.3202  -10.7653   -7.0622 C   0  0  0  0  0  0  0  0  0  0  0  0
   -2.9602  -11.8503   -7.8751 C   0  0  0  0  0  0  0  0  0  0  0  0
   -3.9558  -12.9055   -8.3746 C   0  0  0  0  0  0  0  0  0  0  0  0
   -3.9663  -12.9533   -9.9135 C   0  0  0  0  0  0  0  0  0  0  0  0
   -3.5832  -14.2900   -7.8106 C   0  0  0  0  0  0  0  0  0  0  0  0
   -5.3398  -12.6421   -7.9553 N   0  0  0  0  0  0  0  0  0  0  0  0
   -1.6053  -11.9573   -8.2238 C   0  0  0  0  0  0  0  0  0  0  0  0
   -0.6524  -11.0411   -7.7641 C   0  0  0  0  0  0  0  0  0  0  0  0
   -0.4195   -7.8138   -6.0892 N   0  0  0  0  0  0  0  0  0  0  0  0
    0.8173   -5.2967   -2.9264 C   0  0  0  0  0  0  0  0  0  0  0  0
    1.3189   -4.4439   -1.9424 C   0  0  0  0  0  0  0  0  0  0  0  0
   -1.8146   -0.3157    2.4238 H   0  0  0  0  0  0  0  0  0  0  0  0
   -1.4675   -0.0338    0.7130 H   0  0  0  0  0  0  0  0  0  0  0  0
   -1.0587    1.2039    1.9113 H   0  0  0  0  0  0  0  0  0  0  0  0
    0.2503   -1.5535    1.5454 H   0  0  0  0  0  0  0  0  0  0  0  0
    0.4895   -0.5834    2.9880 H   0  0  0  0  0  0  0  0  0  0  0  0
    3.6497    2.4662    1.1665 H   0  0  0  0  0  0  0  0  0  0  0  0
    3.4096    0.9872   -1.1540 H   0  0  0  0  0  0  0  0  0  0  0  0
    1.4034   -0.2594   -1.9804 H   0  0  0  0  0  0  0  0  0  0  0  0
    0.2019   -0.8973   -0.8665 H   0  0  0  0  0  0  0  0  0  0  0  0
    1.8364   -2.6588   -0.1169 H   0  0  0  0  0  0  0  0  0  0  0  0
    3.0343   -2.0624   -1.2579 H   0  0  0  0  0  0  0  0  0  0  0  0
    1.0488   -1.5242   -3.6675 H   0  0  0  0  0  0  0  0  0  0  0  0
    0.1492   -3.0165   -5.3513 H   0  0  0  0  0  0  0  0  0  0  0  0
   -0.3699   -5.2466   -6.0363 H   0  0  0  0  0  0  0  0  0  0  0  0
    3.0654   -8.7162   -4.9412 H   0  0  0  0  0  0  0  0  0  0  0  0
   -2.6904   -9.0536   -5.9312 H   0  0  0  0  0  0  0  0  0  0  0  0
   -4.3538  -10.5966   -6.7694 H   0  0  0  0  0  0  0  0  0  0  0  0
   -2.9934  -13.2490  -10.3222 H   0  0  0  0  0  0  0  0  0  0  0  0
   -4.2157  -11.9749  -10.3422 H   0  0  0  0  0  0  0  0  0  0  0  0
   -4.6991  -13.6793  -10.2861 H   0  0  0  0  0  0  0  0  0  0  0  0
   -2.5983  -14.6227   -8.1586 H   0  0  0  0  0  0  0  0  0  0  0  0
   -4.3047  -15.0563   -8.1192 H   0  0  0  0  0  0  0  0  0  0  0  0
   -3.5538  -14.2814   -6.7138 H   0  0  0  0  0  0  0  0  0  0  0  0
   -5.6326  -11.7317   -8.3033 H   0  0  0  0  0  0  0  0  0  0  0  0
   -5.3880  -12.6162   -6.9391 H   0  0  0  0  0  0  0  0  0  0  0  0
   -1.2591  -12.7714   -8.8584 H   0  0  0  0  0  0  0  0  0  0  0  0
    0.3679  -11.1839   -8.1105 H   0  0  0  0  0  0  0  0  0  0  0  0
    0.7560   -6.3602   -2.7069 H   0  0  0  0  0  0  0  0  0  0  0  0
    1.6477   -4.8729   -0.9981 H   0  0  0  0  0  0  0  0  0  0  0  0
  1  2  1  0  0  0  0
  1 35  1  0  0  0  0
  1 36  1  0  0  0  0
  1 37  1  0  0  0  0
  2  3  1  0  0  0  0
  2 38  1  0  0  0  0
  2 39  1  0  0  0  0
  3  4  2  0  0  0  0
  3  7  1  0  0  0  0
  4  5  1  0  0  0  0
  5  6  2  0  0  0  0
  5 40  1  0  0  0  0
  6  7  1  0  0  0  0
  6 41  1  0  0  0  0
  7  8  1  0  0  0  0
  8  9  1  0  0  0  0
  8 42  1  0  0  0  0
  8 43  1  0  0  0  0
  9 10  1  0  0  0  0
  9 44  1  0  0  0  0
  9 45  1  0  0  0  0
 10 11  1  0  0  0  0
 10 34  2  0  0  0  0
 11 12  2  0  0  0  0
 11 46  1  0  0  0  0
 12 13  1  0  0  0  0
 12 47  1  0  0  0  0
 13 14  1  0  0  0  0
 13 33  2  0  0  0  0
 14 15  1  0  0  0  0
 14 48  1  0  0  0  0
 15 16  1  0  0  0  0
 15 32  2  0  0  0  0
 16 17  2  0  0  0  0
 17 18  1  0  0  0  0
 17 49  1  0  0  0  0
 18 19  1  0  0  0  0
 18 21  2  0  0  0  0
 19 20  3  0  0  0  0
 21 22  1  0  0  0  0
 21 32  1  0  0  0  0
 22 23  1  0  0  0  0
 22 31  2  0  0  0  0
 23 24  2  0  0  0  0
 23 50  1  0  0  0  0
 24 25  1  0  0  0  0
 24 51  1  0  0  0  0
 25 26  1  0  0  0  0
 25 30  2  0  0  0  0
 26 27  1  0  0  0  0
 26 28  1  0  0  0  0
 26 29  1  0  0  0  0
 27 52  1  0  0  0  0
 27 53  1  0  0  0  0
 27 54  1  0  0  0  0
 28 55  1  0  0  0  0
 28 56  1  0  0  0  0
 28 57  1  0  0  0  0
 29 58  1  0  0  0  0
 29 59  1  0  0  0  0
 30 31  1  0  0  0  0
 30 60  1  0  0  0  0
 31 61  1  0  0  0  0
 33 34  1  0  0  0  0
 33 62  1  0  0  0  0
 34 63  1  0  0  0  0
M  END
$$$$
