CHEMBL3958312
 OpenBabel04072215373D

 55 57  0  0  0  0  0  0  0  0999 V2000
    1.7803    1.2286    1.6403 C   0  0  0  0  0  0  0  0  0  0  0  0
    2.9182    0.8607    0.9404 O   0  0  0  0  0  0  0  0  0  0  0  0
    3.4105    1.5049   -0.1540 C   0  0  0  0  0  0  0  0  0  0  0  0
    2.8055    2.6637   -0.6536 C   0  0  0  0  0  0  0  0  0  0  0  0
    3.2922    3.2881   -1.8055 C   0  0  0  0  0  0  0  0  0  0  0  0
    2.6889    4.3973   -2.3215 O   0  0  0  0  0  0  0  0  0  0  0  0
    1.4865    4.9412   -1.9112 C   0  0  0  0  0  0  0  0  0  0  0  0
    4.4137    2.7565   -2.4681 C   0  0  0  0  0  0  0  0  0  0  0  0
    4.8287    3.5506   -3.9976 Cl  0  0  0  0  0  0  0  0  0  0  0  0
    5.0922    1.5927   -1.9618 C   0  0  0  0  0  0  0  0  0  0  0  0
    6.2592    1.0209   -2.6274 N   0  0  0  0  0  0  0  0  0  0  0  0
    6.4939   -0.4359   -2.6192 C   0  0  0  0  0  0  0  0  0  0  0  0
    7.8781   -0.8037   -2.0421 C   0  0  0  0  0  0  0  0  0  0  0  0
    7.9813   -0.4219   -0.6975 O   0  0  0  0  0  0  0  0  0  0  0  0
    7.2237    1.8517   -3.3090 C   0  0  0  0  0  0  0  0  0  0  0  0
    7.9547    1.3797   -4.4296 C   0  0  0  0  0  0  0  0  0  0  0  0
    8.8924    2.1898   -5.0747 C   0  0  0  0  0  0  0  0  0  0  0  0
    9.1231    3.4852   -4.6188 C   0  0  0  0  0  0  0  0  0  0  0  0
   10.0173    4.2938   -5.2433 N   0  0  0  0  0  0  0  0  0  0  0  0
   10.2377    5.5631   -4.8169 C   0  0  0  0  0  0  0  0  0  0  0  0
    9.5310    6.0548   -3.7045 C   0  0  0  0  0  0  0  0  0  0  0  0
    9.7046    7.4331   -3.2151 C   0  0  0  0  0  0  0  0  0  0  0  0
    9.0706    8.0047   -2.1254 C   0  0  0  0  0  0  0  0  0  0  0  0
    9.4754    9.2826   -2.0012 N   0  0  0  0  0  0  0  0  0  0  0  0
   10.3357    9.5275   -2.9779 N   0  0  0  0  0  0  0  0  0  0  0  0
   10.9900   10.8100   -3.1881 C   0  0  0  0  0  0  0  0  0  0  0  0
   10.5041    8.4305   -3.7366 C   0  0  0  0  0  0  0  0  0  0  0  0
    8.6470    5.2359   -3.0739 N   0  0  0  0  0  0  0  0  0  0  0  0
    8.4213    3.9693   -3.5019 C   0  0  0  0  0  0  0  0  0  0  0  0
    7.4939    3.1579   -2.8474 C   0  0  0  0  0  0  0  0  0  0  0  0
    4.5432    0.9843   -0.8021 C   0  0  0  0  0  0  0  0  0  0  0  0
    1.6530   -2.1025   -1.3047 Cl  0  0  0  0  0  0  0  0  0  0  0  0
    1.5910    0.4996    2.4540 H   0  0  0  0  0  0  0  0  0  0  0  0
    0.8955    1.2320    0.9656 H   0  0  0  0  0  0  0  0  0  0  0  0
    1.9096    2.2368    2.0904 H   0  0  0  0  0  0  0  0  0  0  0  0
    1.9414    3.0739   -0.1539 H   0  0  0  0  0  0  0  0  0  0  0  0
    1.2779    5.8545   -2.5053 H   0  0  0  0  0  0  0  0  0  0  0  0
    1.5204    5.2269   -0.8381 H   0  0  0  0  0  0  0  0  0  0  0  0
    0.6681    4.2110   -2.0869 H   0  0  0  0  0  0  0  0  0  0  0  0
    6.4324   -0.8252   -3.6554 H   0  0  0  0  0  0  0  0  0  0  0  0
    5.7153   -0.9899   -2.0632 H   0  0  0  0  0  0  0  0  0  0  0  0
    8.7122   -0.3652   -2.6376 H   0  0  0  0  0  0  0  0  0  0  0  0
    8.0292   -1.9018   -2.1114 H   0  0  0  0  0  0  0  0  0  0  0  0
    8.4190    0.4694   -0.6844 H   0  0  0  0  0  0  0  0  0  0  0  0
    7.8026    0.3887   -4.8287 H   0  0  0  0  0  0  0  0  0  0  0  0
    9.4315    1.8092   -5.9333 H   0  0  0  0  0  0  0  0  0  0  0  0
   10.9503    6.1793   -5.3466 H   0  0  0  0  0  0  0  0  0  0  0  0
    8.3598    7.5219   -1.4659 H   0  0  0  0  0  0  0  0  0  0  0  0
   10.6710   11.5358   -2.4105 H   0  0  0  0  0  0  0  0  0  0  0  0
   10.7155   11.2081   -4.1877 H   0  0  0  0  0  0  0  0  0  0  0  0
   12.0912   10.6805   -3.1337 H   0  0  0  0  0  0  0  0  0  0  0  0
   11.1525    8.3714   -4.6003 H   0  0  0  0  0  0  0  0  0  0  0  0
    6.9770    3.5515   -1.9812 H   0  0  0  0  0  0  0  0  0  0  0  0
    4.9902    0.0984   -0.3726 H   0  0  0  0  0  0  0  0  0  0  0  0
    1.9605   -0.8441   -1.7658 H   0  0  0  0  0  0  0  0  0  0  0  0
  1  2  1  0  0  0  0
  1 33  1  0  0  0  0
  1 34  1  0  0  0  0
  1 35  1  0  0  0  0
  2  3  1  0  0  0  0
  3  4  1  0  0  0  0
  3 31  2  0  0  0  0
  4  5  2  0  0  0  0
  4 36  1  0  0  0  0
  5  6  1  0  0  0  0
  5  8  1  0  0  0  0
  6  7  1  0  0  0  0
  7 37  1  0  0  0  0
  7 38  1  0  0  0  0
  7 39  1  0  0  0  0
  8  9  1  0  0  0  0
  8 10  2  0  0  0  0
 10 11  1  0  0  0  0
 10 31  1  0  0  0  0
 11 12  1  0  0  0  0
 11 15  1  0  0  0  0
 12 13  1  0  0  0  0
 12 40  1  0  0  0  0
 12 41  1  0  0  0  0
 13 14  1  0  0  0  0
 13 42  1  0  0  0  0
 13 43  1  0  0  0  0
 14 44  1  0  0  0  0
 15 16  1  0  0  0  0
 15 30  2  0  0  0  0
 16 17  2  0  0  0  0
 16 45  1  0  0  0  0
 17 18  1  0  0  0  0
 17 46  1  0  0  0  0
 18 19  1  0  0  0  0
 18 29  2  0  0  0  0
 19 20  2  0  0  0  0
 20 21  1  0  0  0  0
 20 47  1  0  0  0  0
 21 22  1  0  0  0  0
 21 28  2  0  0  0  0
 22 23  1  0  0  0  0
 22 27  2  0  0  0  0
 23 24  2  0  0  0  0
 23 48  1  0  0  0  0
 24 25  1  0  0  0  0
 25 26  1  0  0  0  0
 25 27  1  0  0  0  0
 26 49  1  0  0  0  0
 26 50  1  0  0  0  0
 26 51  1  0  0  0  0
 27 52  1  0  0  0  0
 28 29  1  0  0  0  0
 29 30  1  0  0  0  0
 30 53  1  0  0  0  0
 31 54  1  0  0  0  0
 32 55  1  0  0  0  0
M  END
$$$$
