CHEMBL256682
 OpenBabel04072215363D

 41 43  0  0  0  0  0  0  0  0999 V2000
    2.7654   -1.4408    0.8411 C   0  0  0  0  0  0  0  0  0  0  0  0
    2.5861   -0.1174    0.1148 C   0  0  0  0  0  0  0  0  0  0  0  0
    3.1058   -0.1567   -1.3139 C   0  0  0  0  0  0  0  0  0  0  0  0
    4.5247   -0.4463   -1.3986 N   0  0  0  0  0  0  0  0  0  0  0  0
    5.0725   -0.5690   -2.6614 C   0  0  0  0  0  0  0  0  0  0  0  0
    4.3847   -0.4889   -3.6726 O   0  0  0  0  0  0  0  0  0  0  0  0
    6.4280   -0.8119   -2.6051 N   0  0  0  0  0  0  0  0  0  0  0  0
    7.2694   -0.9615   -3.7313 C   0  0  0  0  0  0  0  0  0  0  0  0
    6.9103   -0.5280   -5.0030 C   0  0  0  0  0  0  0  0  0  0  0  0
    7.7009   -0.8408   -6.1125 C   0  0  0  0  0  0  0  0  0  0  0  0
    8.9023   -1.5557   -5.9841 C   0  0  0  0  0  0  0  0  0  0  0  0
    9.6546   -1.9877   -7.1804 C   0  0  0  0  0  0  0  0  0  0  0  0
    9.7171   -1.1803   -8.3398 C   0  0  0  0  0  0  0  0  0  0  0  0
   10.3878   -1.6178   -9.4736 C   0  0  0  0  0  0  0  0  0  0  0  0
   11.0408   -2.7889   -9.5857 N   0  0  0  0  0  0  0  0  0  0  0  0
   10.9630   -3.5364   -8.4698 C   0  0  0  0  0  0  0  0  0  0  0  0
   11.5271   -4.7651   -8.3182 N   0  0  0  0  0  0  0  0  0  0  0  0
   11.2788   -5.3392   -7.1305 N   0  0  0  0  0  0  0  0  0  0  0  0
   10.5171   -4.4415   -6.5084 C   0  0  0  0  0  0  0  0  0  0  0  0
   10.0174   -4.7108   -5.2911 N   0  0  0  0  0  0  0  0  0  0  0  0
   10.3065   -3.2488   -7.2761 C   0  0  0  0  0  0  0  0  0  0  0  0
    9.3251   -1.8360   -4.6757 C   0  0  0  0  0  0  0  0  0  0  0  0
    8.5067   -1.5816   -3.5642 C   0  0  0  0  0  0  0  0  0  0  0  0
    2.3311   -1.3806    1.8437 H   0  0  0  0  0  0  0  0  0  0  0  0
    3.8248   -1.6934    0.9488 H   0  0  0  0  0  0  0  0  0  0  0  0
    2.2699   -2.2549    0.3026 H   0  0  0  0  0  0  0  0  0  0  0  0
    3.0938    0.6763    0.6746 H   0  0  0  0  0  0  0  0  0  0  0  0
    1.5194    0.1341    0.0916 H   0  0  0  0  0  0  0  0  0  0  0  0
    2.9331    0.8116   -1.7987 H   0  0  0  0  0  0  0  0  0  0  0  0
    2.5651   -0.9140   -1.8959 H   0  0  0  0  0  0  0  0  0  0  0  0
    5.1278   -0.0055   -0.7180 H   0  0  0  0  0  0  0  0  0  0  0  0
    6.7627   -1.1860   -1.7318 H   0  0  0  0  0  0  0  0  0  0  0  0
    5.9978    0.0354   -5.1752 H   0  0  0  0  0  0  0  0  0  0  0  0
    7.3288   -0.5376   -7.0887 H   0  0  0  0  0  0  0  0  0  0  0  0
    9.2396   -0.2049   -8.3692 H   0  0  0  0  0  0  0  0  0  0  0  0
   10.4120   -0.9975  -10.3668 H   0  0  0  0  0  0  0  0  0  0  0  0
   12.0857   -5.2579   -9.0015 H   0  0  0  0  0  0  0  0  0  0  0  0
   10.1415   -5.6683   -4.9790 H   0  0  0  0  0  0  0  0  0  0  0  0
    9.1074   -4.3372   -5.0433 H   0  0  0  0  0  0  0  0  0  0  0  0
   10.2916   -2.3070   -4.5022 H   0  0  0  0  0  0  0  0  0  0  0  0
    8.8434   -1.9118   -2.5853 H   0  0  0  0  0  0  0  0  0  0  0  0
  1  2  1  0  0  0  0
  1 24  1  0  0  0  0
  1 25  1  0  0  0  0
  1 26  1  0  0  0  0
  2  3  1  0  0  0  0
  2 27  1  0  0  0  0
  2 28  1  0  0  0  0
  3  4  1  0  0  0  0
  3 29  1  0  0  0  0
  3 30  1  0  0  0  0
  4  5  1  0  0  0  0
  4 31  1  0  0  0  0
  5  6  2  0  0  0  0
  5  7  1  0  0  0  0
  7  8  1  0  0  0  0
  7 32  1  0  0  0  0
  8  9  1  0  0  0  0
  8 23  2  0  0  0  0
  9 10  2  0  0  0  0
  9 33  1  0  0  0  0
 10 11  1  0  0  0  0
 10 34  1  0  0  0  0
 11 12  1  0  0  0  0
 11 22  2  0  0  0  0
 12 13  1  0  0  0  0
 12 21  2  0  0  0  0
 13 14  2  0  0  0  0
 13 35  1  0  0  0  0
 14 15  1  0  0  0  0
 14 36  1  0  0  0  0
 15 16  2  0  0  0  0
 16 17  1  0  0  0  0
 16 21  1  0  0  0  0
 17 18  1  0  0  0  0
 17 37  1  0  0  0  0
 18 19  2  0  0  0  0
 19 20  1  0  0  0  0
 19 21  1  0  0  0  0
 20 38  1  0  0  0  0
 20 39  1  0  0  0  0
 22 23  1  0  0  0  0
 22 40  1  0  0  0  0
 23 41  1  0  0  0  0
M  END
$$$$
