CHEMBL427202
 OpenBabel04072215383D

 46 49  0  0  1  0  0  0  0  0999 V2000
   20.9831   -2.5531  -14.1831 C   0  0  0  0  0  0  0  0  0  0  0  0
   20.1503   -3.2937  -13.2051 C   0  0  0  0  0  0  0  0  0  0  0  0
   19.5282   -2.8752  -12.0468 C   0  0  0  0  0  0  0  0  0  0  0  0
   18.6888   -3.9320  -11.5970 C   0  0  0  0  0  0  0  0  0  0  0  0
   17.7258   -4.0561  -10.5800 C   0  0  0  0  0  0  0  0  0  0  0  0
   17.4669   -3.0247   -9.7610 F   0  0  0  0  0  0  0  0  0  0  0  0
   16.9744   -5.2310  -10.4899 C   0  0  0  0  0  0  0  0  0  0  0  0
   15.8490   -5.1964   -9.6360 O   0  0  0  0  0  0  0  0  0  0  0  0
   15.4266   -6.3244   -8.9616 C   0  0  0  0  0  0  0  0  0  0  0  0
   16.1829   -7.3233   -8.6508 N   0  0  0  0  0  0  0  0  0  0  0  0
   15.5849   -8.3610   -7.9801 C   0  0  0  0  0  0  0  0  0  0  0  0
   14.3352   -8.4547   -7.6472 N   0  0  0  0  0  0  0  0  0  0  0  0
   13.5839   -7.3989   -8.0011 N   0  0  0  0  0  0  0  0  0  0  0  0
   12.2466   -7.2773   -7.7852 C   0  0  0  0  0  0  0  0  0  0  0  0
   11.8282   -6.0639   -8.2913 C   0  0  0  0  0  0  0  0  0  0  0  0
   10.5481   -5.5856   -8.2623 O   0  0  0  0  0  0  0  0  0  0  0  0
    9.6428   -6.4753   -7.5782 C   0  0  0  0  0  0  0  0  0  0  0  0
    8.2035   -5.9544   -7.5017 C   0  0  2  0  0  0  0  0  0  0  0  0
    7.5486   -5.7731   -8.8595 C   0  0  0  0  0  0  0  0  0  0  0  0
    8.1401   -4.7276   -6.7813 O   0  0  0  0  0  0  0  0  0  0  0  0
   12.9796   -5.4208   -8.8560 C   0  0  0  0  0  0  0  0  0  0  0  0
   13.0614   -4.1006   -9.5417 C   0  0  0  0  0  0  0  0  0  0  0  0
   14.0420   -6.2957   -8.6448 C   0  0  0  0  0  0  0  0  0  0  0  0
   17.1995   -6.3005  -11.3571 C   0  0  0  0  0  0  0  0  0  0  0  0
   18.1894   -6.2181  -12.3424 C   0  0  0  0  0  0  0  0  0  0  0  0
   18.8935   -5.0122  -12.4577 C   0  0  0  0  0  0  0  0  0  0  0  0
   19.8337   -4.6184  -13.3833 N   0  0  0  0  0  0  0  0  0  0  0  0
   21.0953   -1.5049  -13.8887 H   0  0  0  0  0  0  0  0  0  0  0  0
   20.5064   -2.5720  -15.1697 H   0  0  0  0  0  0  0  0  0  0  0  0
   21.9783   -2.9976  -14.2703 H   0  0  0  0  0  0  0  0  0  0  0  0
   19.5883   -1.8833  -11.6165 H   0  0  0  0  0  0  0  0  0  0  0  0
   16.2476   -9.2003   -7.7079 H   0  0  0  0  0  0  0  0  0  0  0  0
   11.7239   -8.0804   -7.2887 H   0  0  0  0  0  0  0  0  0  0  0  0
    9.9979   -6.6056   -6.5478 H   0  0  0  0  0  0  0  0  0  0  0  0
    9.6242   -7.4413   -8.0984 H   0  0  0  0  0  0  0  0  0  0  0  0
    7.6172   -6.6851   -6.9321 H   0  0  0  0  0  0  0  0  0  0  0  0
    8.0219   -4.9690   -9.4302 H   0  0  0  0  0  0  0  0  0  0  0  0
    6.4965   -5.4940   -8.7298 H   0  0  0  0  0  0  0  0  0  0  0  0
    7.5854   -6.6983   -9.4429 H   0  0  0  0  0  0  0  0  0  0  0  0
    8.8095   -4.1345   -7.1813 H   0  0  0  0  0  0  0  0  0  0  0  0
   12.0776   -3.6462   -9.6822 H   0  0  0  0  0  0  0  0  0  0  0  0
   13.5216   -4.2107  -10.5310 H   0  0  0  0  0  0  0  0  0  0  0  0
   13.6803   -3.4080   -8.9598 H   0  0  0  0  0  0  0  0  0  0  0  0
   16.5865   -7.1960  -11.3083 H   0  0  0  0  0  0  0  0  0  0  0  0
   18.3555   -7.0405  -13.0315 H   0  0  0  0  0  0  0  0  0  0  0  0
   20.1625   -5.1969  -14.1443 H   0  0  0  0  0  0  0  0  0  0  0  0
  1  2  1  0  0  0  0
  1 28  1  0  0  0  0
  1 29  1  0  0  0  0
  1 30  1  0  0  0  0
  2  3  2  0  0  0  0
  2 27  1  0  0  0  0
  3  4  1  0  0  0  0
  3 31  1  0  0  0  0
  4  5  1  0  0  0  0
  4 26  2  0  0  0  0
  5  6  1  0  0  0  0
  5  7  2  0  0  0  0
  7  8  1  0  0  0  0
  7 24  1  0  0  0  0
  8  9  1  0  0  0  0
  9 10  2  0  0  0  0
  9 23  1  0  0  0  0
 10 11  1  0  0  0  0
 11 12  2  0  0  0  0
 11 32  1  0  0  0  0
 12 13  1  0  0  0  0
 13 14  1  0  0  0  0
 13 23  1  0  0  0  0
 14 15  2  0  0  0  0
 14 33  1  0  0  0  0
 15 16  1  0  0  0  0
 15 21  1  0  0  0  0
 16 17  1  0  0  0  0
 17 34  1  0  0  0  0
 17 35  1  0  0  0  0
 18 20  1  0  0  0  0
 18 19  1  0  0  0  0
 18 17  1  0  0  0  0
 18 36  1  1  0  0  0
 19 37  1  0  0  0  0
 19 38  1  0  0  0  0
 19 39  1  0  0  0  0
 20 40  1  0  0  0  0
 21 22  1  0  0  0  0
 21 23  2  0  0  0  0
 22 41  1  0  0  0  0
 22 42  1  0  0  0  0
 22 43  1  0  0  0  0
 24 25  2  0  0  0  0
 24 44  1  0  0  0  0
 25 26  1  0  0  0  0
 25 45  1  0  0  0  0
 26 27  1  0  0  0  0
 27 46  1  0  0  0  0
M  END
$$$$
