CHEMBL4469407
 OpenBabel04072215383D

 60 63  0  0  0  0  0  0  0  0999 V2000
    1.1648   -0.0440    0.5074 O   0  0  0  0  0  0  0  0  0  0  0  0
    2.2666   -0.0101   -0.0340 C   0  0  0  0  0  0  0  0  0  0  0  0
    3.0096   -1.3035   -0.3347 C   0  0  0  0  0  0  0  0  0  0  0  0
    2.0341   -2.4858   -0.4337 C   0  0  0  0  0  0  0  0  0  0  0  0
    2.9593   -4.0364   -0.7021 S   0  0  0  0  0  0  0  0  0  0  0  0
    1.6550   -5.2357   -0.8326 C   0  0  0  0  0  0  0  0  0  0  0  0
    0.5372   -5.1060   -2.0878 S   0  0  0  0  0  0  0  0  0  0  0  0
    1.7401   -6.3214    0.0565 N   0  0  0  0  0  0  0  0  0  0  0  0
    2.3610   -6.2299    1.4020 C   0  0  0  0  0  0  0  0  0  0  0  0
    3.0525   -7.5348    1.8537 C   0  0  0  0  0  0  0  0  0  0  0  0
    2.1701   -8.6757    1.6410 N   0  0  0  0  0  0  0  0  0  0  0  0
    1.9582   -9.6229    2.6053 C   0  0  0  0  0  0  0  0  0  0  0  0
    2.4174   -9.4004    3.8480 N   0  0  0  0  0  0  0  0  0  0  0  0
    2.1500  -10.3228    4.7928 C   0  0  0  0  0  0  0  0  0  0  0  0
    1.4484  -11.4746    4.5526 C   0  0  0  0  0  0  0  0  0  0  0  0
    1.0266  -11.6302    3.2596 C   0  0  0  0  0  0  0  0  0  0  0  0
    1.2624  -10.7288    2.2878 N   0  0  0  0  0  0  0  0  0  0  0  0
    1.6227   -8.8226    0.2996 C   0  0  0  0  0  0  0  0  0  0  0  0
    0.8838   -7.5273   -0.0916 C   0  0  0  0  0  0  0  0  0  0  0  0
    2.9649    1.1425   -0.3970 N   0  0  0  0  0  0  0  0  0  0  0  0
    2.5426    2.4786   -0.1461 C   0  0  0  0  0  0  0  0  0  0  0  0
    1.5382    2.7633    0.7812 C   0  0  0  0  0  0  0  0  0  0  0  0
    1.0894    4.0645    0.9682 C   0  0  0  0  0  0  0  0  0  0  0  0
    1.6720    5.1093    0.2619 C   0  0  0  0  0  0  0  0  0  0  0  0
    2.7427    4.8841   -0.6059 C   0  0  0  0  0  0  0  0  0  0  0  0
    3.4179    5.9585   -1.2470 N   0  0  0  0  0  0  0  0  0  0  0  0
    3.2945    7.3086   -0.9080 C   0  0  0  0  0  0  0  0  0  0  0  0
    2.5753    7.7726   -0.0307 O   0  0  0  0  0  0  0  0  0  0  0  0
    4.1704    8.2560   -1.6641 C   0  0  0  0  0  0  0  0  0  0  0  0
    4.1355    9.6106   -1.3271 C   0  0  0  0  0  0  0  0  0  0  0  0
    4.9691   10.4911   -2.0070 C   0  0  0  0  0  0  0  0  0  0  0  0
    5.8030    9.9923   -3.0009 C   0  0  0  0  0  0  0  0  0  0  0  0
    5.7655    8.6319   -3.2743 C   0  0  0  0  0  0  0  0  0  0  0  0
    4.9752    7.7385   -2.6310 N   0  0  0  0  0  0  0  0  0  0  0  0
    3.1596    3.5535   -0.8270 C   0  0  0  0  0  0  0  0  0  0  0  0
    3.7185   -1.4638    0.4870 H   0  0  0  0  0  0  0  0  0  0  0  0
    3.5724   -1.1941   -1.2679 H   0  0  0  0  0  0  0  0  0  0  0  0
    1.3413   -2.3077   -1.2627 H   0  0  0  0  0  0  0  0  0  0  0  0
    1.4419   -2.5894    0.4821 H   0  0  0  0  0  0  0  0  0  0  0  0
    1.5411   -5.9977    2.0943 H   0  0  0  0  0  0  0  0  0  0  0  0
    3.0745   -5.4093    1.4796 H   0  0  0  0  0  0  0  0  0  0  0  0
    3.3649   -7.4137    2.8967 H   0  0  0  0  0  0  0  0  0  0  0  0
    3.9658   -7.6824    1.2633 H   0  0  0  0  0  0  0  0  0  0  0  0
    2.5291  -10.0917    5.7835 H   0  0  0  0  0  0  0  0  0  0  0  0
    1.2422  -12.2027    5.3229 H   0  0  0  0  0  0  0  0  0  0  0  0
    0.4636  -12.5060    2.9507 H   0  0  0  0  0  0  0  0  0  0  0  0
    0.9258   -9.6617    0.1969 H   0  0  0  0  0  0  0  0  0  0  0  0
    2.4459   -9.0032   -0.4034 H   0  0  0  0  0  0  0  0  0  0  0  0
    0.0127   -7.3829    0.5603 H   0  0  0  0  0  0  0  0  0  0  0  0
    0.5215   -7.6432   -1.1151 H   0  0  0  0  0  0  0  0  0  0  0  0
    3.7772    1.0302   -0.9901 H   0  0  0  0  0  0  0  0  0  0  0  0
    1.0813    1.9917    1.3912 H   0  0  0  0  0  0  0  0  0  0  0  0
    0.2855    4.2684    1.6697 H   0  0  0  0  0  0  0  0  0  0  0  0
    1.2545    6.0979    0.4180 H   0  0  0  0  0  0  0  0  0  0  0  0
    4.1296    5.7533   -1.9405 H   0  0  0  0  0  0  0  0  0  0  0  0
    3.4779    9.9737   -0.5435 H   0  0  0  0  0  0  0  0  0  0  0  0
    4.9689   11.5465   -1.7625 H   0  0  0  0  0  0  0  0  0  0  0  0
    6.4664   10.6527   -3.5488 H   0  0  0  0  0  0  0  0  0  0  0  0
    6.4021    8.2104   -4.0502 H   0  0  0  0  0  0  0  0  0  0  0  0
    3.9667    3.3579   -1.5270 H   0  0  0  0  0  0  0  0  0  0  0  0
  1  2  2  0  0  0  0
  2  3  1  0  0  0  0
  2 20  1  0  0  0  0
  3  4  1  0  0  0  0
  3 36  1  0  0  0  0
  3 37  1  0  0  0  0
  4  5  1  0  0  0  0
  4 38  1  0  0  0  0
  4 39  1  0  0  0  0
  5  6  1  0  0  0  0
  6  7  2  0  0  0  0
  6  8  1  0  0  0  0
  8  9  1  0  0  0  0
  8 19  1  0  0  0  0
  9 10  1  0  0  0  0
  9 40  1  0  0  0  0
  9 41  1  0  0  0  0
 10 11  1  0  0  0  0
 10 42  1  0  0  0  0
 10 43  1  0  0  0  0
 11 12  1  0  0  0  0
 11 18  1  0  0  0  0
 12 13  1  0  0  0  0
 12 17  2  0  0  0  0
 13 14  2  0  0  0  0
 14 15  1  0  0  0  0
 14 44  1  0  0  0  0
 15 16  2  0  0  0  0
 15 45  1  0  0  0  0
 16 17  1  0  0  0  0
 16 46  1  0  0  0  0
 18 19  1  0  0  0  0
 18 47  1  0  0  0  0
 18 48  1  0  0  0  0
 19 49  1  0  0  0  0
 19 50  1  0  0  0  0
 20 21  1  0  0  0  0
 20 51  1  0  0  0  0
 21 22  1  0  0  0  0
 21 35  2  0  0  0  0
 22 23  2  0  0  0  0
 22 52  1  0  0  0  0
 23 24  1  0  0  0  0
 23 53  1  0  0  0  0
 24 25  2  0  0  0  0
 24 54  1  0  0  0  0
 25 26  1  0  0  0  0
 25 35  1  0  0  0  0
 26 27  1  0  0  0  0
 26 55  1  0  0  0  0
 27 28  2  0  0  0  0
 27 29  1  0  0  0  0
 29 30  1  0  0  0  0
 29 34  2  0  0  0  0
 30 31  2  0  0  0  0
 30 56  1  0  0  0  0
 31 32  1  0  0  0  0
 31 57  1  0  0  0  0
 32 33  2  0  0  0  0
 32 58  1  0  0  0  0
 33 34  1  0  0  0  0
 33 59  1  0  0  0  0
 35 60  1  0  0  0  0
M  END
$$$$
