CHEMBL2086725
 OpenBabel04072215363D

 41 45  0  0  0  0  0  0  0  0999 V2000
   -2.9730    0.8212   -0.2084 O   0  0  0  0  0  0  0  0  0  0  0  0
   -1.8049    0.5210   -0.0531 C   0  0  0  0  0  0  0  0  0  0  0  0
   -0.7581    1.4190    0.0415 N   0  0  0  0  0  0  0  0  0  0  0  0
    0.4694    0.7745    0.0409 C   0  0  0  0  0  0  0  0  0  0  0  0
    1.7054    1.3945    0.0575 C   0  0  0  0  0  0  0  0  0  0  0  0
    2.8330    0.5783    0.0004 C   0  0  0  0  0  0  0  0  0  0  0  0
    2.6959   -0.8166   -0.0778 C   0  0  0  0  0  0  0  0  0  0  0  0
    1.4290   -1.4200   -0.0877 C   0  0  0  0  0  0  0  0  0  0  0  0
    0.3032   -0.6148   -0.0197 C   0  0  0  0  0  0  0  0  0  0  0  0
   -1.1613   -0.8581   -0.0175 C   0  0  0  0  0  0  0  0  0  0  0  0
   -1.8637   -2.0134    0.0447 C   0  0  0  0  0  0  0  0  0  0  0  0
   -1.1794   -3.3230    0.1315 C   0  0  0  0  0  0  0  0  0  0  0  0
   -0.8512   -3.8638    1.3851 C   0  0  0  0  0  0  0  0  0  0  0  0
   -0.2143   -5.1038    1.4767 C   0  0  0  0  0  0  0  0  0  0  0  0
    0.0881   -5.8155    0.3171 C   0  0  0  0  0  0  0  0  0  0  0  0
   -0.2543   -5.2844   -0.9216 C   0  0  0  0  0  0  0  0  0  0  0  0
    0.0319   -5.9729   -2.0354 F   0  0  0  0  0  0  0  0  0  0  0  0
   -0.8847   -4.0490   -1.0282 C   0  0  0  0  0  0  0  0  0  0  0  0
   -3.2896   -1.9764    0.1286 C   0  0  0  0  0  0  0  0  0  0  0  0
   -4.0855   -1.9238    1.1778 N   0  0  0  0  0  0  0  0  0  0  0  0
   -5.3644   -1.9247    0.6708 C   0  0  0  0  0  0  0  0  0  0  0  0
   -6.5960   -1.8356    1.3356 C   0  0  0  0  0  0  0  0  0  0  0  0
   -7.7746   -1.8652    0.5778 C   0  0  0  0  0  0  0  0  0  0  0  0
   -7.7284   -1.9909   -0.8129 C   0  0  0  0  0  0  0  0  0  0  0  0
   -6.5093   -2.0828   -1.4946 C   0  0  0  0  0  0  0  0  0  0  0  0
   -5.3512   -2.0374   -0.7142 C   0  0  0  0  0  0  0  0  0  0  0  0
   -4.0185   -2.0718   -1.0338 N   0  0  0  0  0  0  0  0  0  0  0  0
   -0.9035    2.4169    0.0333 H   0  0  0  0  0  0  0  0  0  0  0  0
    1.8015    2.4727    0.1067 H   0  0  0  0  0  0  0  0  0  0  0  0
    3.8253    1.0228    0.0086 H   0  0  0  0  0  0  0  0  0  0  0  0
    3.5867   -1.4394   -0.1336 H   0  0  0  0  0  0  0  0  0  0  0  0
    1.3691   -2.4990   -0.1554 H   0  0  0  0  0  0  0  0  0  0  0  0
   -1.1015   -3.3212    2.2961 H   0  0  0  0  0  0  0  0  0  0  0  0
    0.0365   -5.5151    2.4517 H   0  0  0  0  0  0  0  0  0  0  0  0
    0.5797   -6.7815    0.3711 H   0  0  0  0  0  0  0  0  0  0  0  0
   -1.1340   -3.6691   -2.0137 H   0  0  0  0  0  0  0  0  0  0  0  0
   -6.6240   -1.7358    2.4145 H   0  0  0  0  0  0  0  0  0  0  0  0
   -8.7352   -1.7857    1.0809 H   0  0  0  0  0  0  0  0  0  0  0  0
   -8.6581   -2.0103   -1.3784 H   0  0  0  0  0  0  0  0  0  0  0  0
   -6.4735   -2.1725   -2.5744 H   0  0  0  0  0  0  0  0  0  0  0  0
   -3.6381   -2.1284   -1.9651 H   0  0  0  0  0  0  0  0  0  0  0  0
  1  2  2  0  0  0  0
  2  3  1  0  0  0  0
  2 10  1  0  0  0  0
  3  4  1  0  0  0  0
  3 28  1  0  0  0  0
  4  5  1  0  0  0  0
  4  9  2  0  0  0  0
  5  6  2  0  0  0  0
  5 29  1  0  0  0  0
  6  7  1  0  0  0  0
  6 30  1  0  0  0  0
  7  8  2  0  0  0  0
  7 31  1  0  0  0  0
  8  9  1  0  0  0  0
  8 32  1  0  0  0  0
  9 10  1  0  0  0  0
 10 11  2  3  0  0  0
 11 12  1  0  0  0  0
 11 19  1  0  0  0  0
 12 13  1  0  0  0  0
 12 18  2  0  0  0  0
 13 14  2  0  0  0  0
 13 33  1  0  0  0  0
 14 15  1  0  0  0  0
 14 34  1  0  0  0  0
 15 16  2  0  0  0  0
 15 35  1  0  0  0  0
 16 17  1  0  0  0  0
 16 18  1  0  0  0  0
 18 36  1  0  0  0  0
 19 20  2  0  0  0  0
 19 27  1  0  0  0  0
 20 21  1  0  0  0  0
 21 22  1  0  0  0  0
 21 26  2  0  0  0  0
 22 23  2  0  0  0  0
 22 37  1  0  0  0  0
 23 24  1  0  0  0  0
 23 38  1  0  0  0  0
 24 25  2  0  0  0  0
 24 39  1  0  0  0  0
 25 26  1  0  0  0  0
 25 40  1  0  0  0  0
 26 27  1  0  0  0  0
 27 41  1  0  0  0  0
M  END
$$$$
