CHEMBL3775879
 OpenBabel04072215373D

 37 39  0  0  0  0  0  0  0  0999 V2000
    3.3864   -1.1895   -0.0447 C   0  0  0  0  0  0  0  0  0  0  0  0
    2.4765   -0.1084    0.1812 O   0  0  0  0  0  0  0  0  0  0  0  0
    3.0115    1.1489    0.0828 C   0  0  0  0  0  0  0  0  0  0  0  0
    4.0905    1.4157   -0.7826 C   0  0  0  0  0  0  0  0  0  0  0  0
    4.7427    2.6389   -0.8109 C   0  0  0  0  0  0  0  0  0  0  0  0
    5.8182    2.7781   -1.5927 N   0  0  0  0  0  0  0  0  0  0  0  0
    6.4446    3.9573   -1.5409 C   0  0  0  0  0  0  0  0  0  0  0  0
    6.0953    4.9937   -0.7785 N   0  0  0  0  0  0  0  0  0  0  0  0
    5.0048    4.8490   -0.0040 C   0  0  0  0  0  0  0  0  0  0  0  0
    4.6181    5.9144    0.8571 N   0  0  0  0  0  0  0  0  0  0  0  0
    5.1441    7.2237    0.8117 C   0  0  0  0  0  0  0  0  0  0  0  0
    5.3802    7.9314    2.0017 C   0  0  0  0  0  0  0  0  0  0  0  0
    5.9376    9.2127    1.9664 C   0  0  0  0  0  0  0  0  0  0  0  0
    6.2495    9.7879    0.7396 C   0  0  0  0  0  0  0  0  0  0  0  0
    6.8179   10.9987    0.6934 F   0  0  0  0  0  0  0  0  0  0  0  0
    5.9772    9.1211   -0.4467 C   0  0  0  0  0  0  0  0  0  0  0  0
    6.2757    9.6682   -1.6614 O   0  0  0  0  0  0  0  0  0  0  0  0
    5.4092    7.8531   -0.4163 C   0  0  0  0  0  0  0  0  0  0  0  0
    4.2604    3.6598    0.0085 C   0  0  0  0  0  0  0  0  0  0  0  0
    3.1010    3.4451    0.7789 C   0  0  0  0  0  0  0  0  0  0  0  0
    2.4795    2.1947    0.8425 C   0  0  0  0  0  0  0  0  0  0  0  0
    1.4315    2.2143    1.7154 O   0  0  0  0  0  0  0  0  0  0  0  0
    0.6910    1.0385    1.9841 C   0  0  0  0  0  0  0  0  0  0  0  0
    3.1164   -2.0076    0.6291 H   0  0  0  0  0  0  0  0  0  0  0  0
    4.4324   -0.9377    0.1695 H   0  0  0  0  0  0  0  0  0  0  0  0
    3.2857   -1.5421   -1.0759 H   0  0  0  0  0  0  0  0  0  0  0  0
    4.4695    0.6446   -1.4487 H   0  0  0  0  0  0  0  0  0  0  0  0
    7.3224    4.0823   -2.1645 H   0  0  0  0  0  0  0  0  0  0  0  0
    4.5458    5.5644    1.8058 H   0  0  0  0  0  0  0  0  0  0  0  0
    5.1494    7.4842    2.9671 H   0  0  0  0  0  0  0  0  0  0  0  0
    6.1469    9.7542    2.8817 H   0  0  0  0  0  0  0  0  0  0  0  0
    6.7570   10.4955   -1.4832 H   0  0  0  0  0  0  0  0  0  0  0  0
    5.1862    7.3491   -1.3539 H   0  0  0  0  0  0  0  0  0  0  0  0
    2.6750    4.2590    1.3627 H   0  0  0  0  0  0  0  0  0  0  0  0
    0.1003    1.2389    2.8852 H   0  0  0  0  0  0  0  0  0  0  0  0
    1.3260    0.1813    2.2163 H   0  0  0  0  0  0  0  0  0  0  0  0
   -0.0081    0.8287    1.1699 H   0  0  0  0  0  0  0  0  0  0  0  0
  1  2  1  0  0  0  0
  1 24  1  0  0  0  0
  1 25  1  0  0  0  0
  1 26  1  0  0  0  0
  2  3  1  0  0  0  0
  3  4  1  0  0  0  0
  3 21  2  0  0  0  0
  4  5  2  0  0  0  0
  4 27  1  0  0  0  0
  5  6  1  0  0  0  0
  5 19  1  0  0  0  0
  6  7  2  0  0  0  0
  7  8  1  0  0  0  0
  7 28  1  0  0  0  0
  8  9  2  0  0  0  0
  9 10  1  0  0  0  0
  9 19  1  0  0  0  0
 10 11  1  0  0  0  0
 10 29  1  0  0  0  0
 11 12  1  0  0  0  0
 11 18  2  0  0  0  0
 12 13  2  0  0  0  0
 12 30  1  0  0  0  0
 13 14  1  0  0  0  0
 13 31  1  0  0  0  0
 14 15  1  0  0  0  0
 14 16  2  0  0  0  0
 16 17  1  0  0  0  0
 16 18  1  0  0  0  0
 17 32  1  0  0  0  0
 18 33  1  0  0  0  0
 19 20  2  0  0  0  0
 20 21  1  0  0  0  0
 20 34  1  0  0  0  0
 21 22  1  0  0  0  0
 22 23  1  0  0  0  0
 23 35  1  0  0  0  0
 23 36  1  0  0  0  0
 23 37  1  0  0  0  0
M  END
$$$$
