CHEMBL1172837
 OpenBabel04072215363D

 52 56  0  0  0  0  0  0  0  0999 V2000
    2.6402   -0.8367    0.6148 O   0  0  0  0  0  0  0  0  0  0  0  0
    2.2091    0.0552   -0.1030 C   0  0  0  0  0  0  0  0  0  0  0  0
    0.8642    0.3463   -0.2486 N   0  0  0  0  0  0  0  0  0  0  0  0
   -0.1939   -0.3538    0.3715 C   0  0  0  0  0  0  0  0  0  0  0  0
   -0.0184   -1.2667    1.4108 C   0  0  0  0  0  0  0  0  0  0  0  0
   -1.1054   -1.9728    1.9389 C   0  0  0  0  0  0  0  0  0  0  0  0
   -2.4089   -1.7700    1.4650 C   0  0  0  0  0  0  0  0  0  0  0  0
   -3.5643   -2.4979    2.0376 C   0  0  0  0  0  0  0  0  0  0  0  0
   -3.6014   -2.8651    3.3959 C   0  0  0  0  0  0  0  0  0  0  0  0
   -4.7129   -3.5079    3.9491 C   0  0  0  0  0  0  0  0  0  0  0  0
   -5.8186   -3.7930    3.1558 C   0  0  0  0  0  0  0  0  0  0  0  0
   -5.8031   -3.4596    1.8060 C   0  0  0  0  0  0  0  0  0  0  0  0
   -4.6837   -2.8302    1.2530 C   0  0  0  0  0  0  0  0  0  0  0  0
   -2.5711   -0.8246    0.4361 C   0  0  0  0  0  0  0  0  0  0  0  0
   -1.4839   -0.1252   -0.1030 C   0  0  0  0  0  0  0  0  0  0  0  0
    2.9976    0.8711   -0.8996 N   0  0  0  0  0  0  0  0  0  0  0  0
    4.3983    0.7650   -1.0622 C   0  0  0  0  0  0  0  0  0  0  0  0
    5.1565   -0.2599   -0.4583 C   0  0  0  0  0  0  0  0  0  0  0  0
    6.5430   -0.3289   -0.5982 C   0  0  0  0  0  0  0  0  0  0  0  0
    7.1634    0.6343   -1.3625 C   0  0  0  0  0  0  0  0  0  0  0  0
    6.4129    1.6233   -1.9993 C   0  0  0  0  0  0  0  0  0  0  0  0
    5.0402    1.7186   -1.8630 C   0  0  0  0  0  0  0  0  0  0  0  0
    7.2486    2.4497   -2.7440 N   0  0  0  0  0  0  0  0  0  0  0  0
    8.5766    2.0640   -2.6269 C   0  0  0  0  0  0  0  0  0  0  0  0
    9.5279    2.5842   -3.1785 O   0  0  0  0  0  0  0  0  0  0  0  0
    8.5724    0.8856   -1.6849 C   0  0  0  0  0  0  0  0  0  0  0  0
    9.5609    0.1698   -1.1283 C   0  0  0  0  0  0  0  0  0  0  0  0
   10.9633    0.3216   -1.2685 C   0  0  0  0  0  0  0  0  0  0  0  0
   12.0020   -0.3565   -0.6536 C   0  0  0  0  0  0  0  0  0  0  0  0
   13.2212    0.1765   -1.1330 C   0  0  0  0  0  0  0  0  0  0  0  0
   12.9011    1.1712   -2.0255 C   0  0  0  0  0  0  0  0  0  0  0  0
   11.5350    1.2557   -2.0964 N   0  0  0  0  0  0  0  0  0  0  0  0
    0.6076    0.9909   -0.9787 H   0  0  0  0  0  0  0  0  0  0  0  0
    0.9536   -1.4640    1.8505 H   0  0  0  0  0  0  0  0  0  0  0  0
   -0.9005   -2.6953    2.7260 H   0  0  0  0  0  0  0  0  0  0  0  0
   -2.7672   -2.6353    4.0551 H   0  0  0  0  0  0  0  0  0  0  0  0
   -4.7139   -3.7732    5.0029 H   0  0  0  0  0  0  0  0  0  0  0  0
   -6.6906   -4.2752    3.5886 H   0  0  0  0  0  0  0  0  0  0  0  0
   -6.6613   -3.6838    1.1786 H   0  0  0  0  0  0  0  0  0  0  0  0
   -4.6994   -2.6038    0.1893 H   0  0  0  0  0  0  0  0  0  0  0  0
   -3.5600   -0.6088    0.0384 H   0  0  0  0  0  0  0  0  0  0  0  0
   -1.6684    0.5814   -0.9067 H   0  0  0  0  0  0  0  0  0  0  0  0
    2.5459    1.6533   -1.3458 H   0  0  0  0  0  0  0  0  0  0  0  0
    4.7049   -1.0342    0.1494 H   0  0  0  0  0  0  0  0  0  0  0  0
    7.0896   -1.1254   -0.1066 H   0  0  0  0  0  0  0  0  0  0  0  0
    4.4920    2.5107   -2.3595 H   0  0  0  0  0  0  0  0  0  0  0  0
    6.9585    3.2271   -3.3160 H   0  0  0  0  0  0  0  0  0  0  0  0
    9.2843   -0.6311   -0.4458 H   0  0  0  0  0  0  0  0  0  0  0  0
   11.8930   -1.1553    0.0689 H   0  0  0  0  0  0  0  0  0  0  0  0
   14.2207   -0.1309   -0.8572 H   0  0  0  0  0  0  0  0  0  0  0  0
   13.5180    1.8314   -2.6186 H   0  0  0  0  0  0  0  0  0  0  0  0
   11.0281    1.9186   -2.6761 H   0  0  0  0  0  0  0  0  0  0  0  0
  1  2  2  0  0  0  0
  2  3  1  0  0  0  0
  2 16  1  0  0  0  0
  3  4  1  0  0  0  0
  3 33  1  0  0  0  0
  4  5  1  0  0  0  0
  4 15  2  0  0  0  0
  5  6  2  0  0  0  0
  5 34  1  0  0  0  0
  6  7  1  0  0  0  0
  6 35  1  0  0  0  0
  7  8  1  0  0  0  0
  7 14  2  0  0  0  0
  8  9  1  0  0  0  0
  8 13  2  0  0  0  0
  9 10  2  0  0  0  0
  9 36  1  0  0  0  0
 10 11  1  0  0  0  0
 10 37  1  0  0  0  0
 11 12  2  0  0  0  0
 11 38  1  0  0  0  0
 12 13  1  0  0  0  0
 12 39  1  0  0  0  0
 13 40  1  0  0  0  0
 14 15  1  0  0  0  0
 14 41  1  0  0  0  0
 15 42  1  0  0  0  0
 16 17  1  0  0  0  0
 16 43  1  0  0  0  0
 17 18  1  0  0  0  0
 17 22  2  0  0  0  0
 18 19  2  0  0  0  0
 18 44  1  0  0  0  0
 19 20  1  0  0  0  0
 19 45  1  0  0  0  0
 20 21  2  0  0  0  0
 20 26  1  0  0  0  0
 21 22  1  0  0  0  0
 21 23  1  0  0  0  0
 22 46  1  0  0  0  0
 23 24  1  0  0  0  0
 23 47  1  0  0  0  0
 24 25  2  0  0  0  0
 24 26  1  0  0  0  0
 26 27  2  0  0  0  0
 27 28  1  0  0  0  0
 27 48  1  0  0  0  0
 28 29  2  0  0  0  0
 28 32  1  0  0  0  0
 29 30  1  0  0  0  0
 29 49  1  0  0  0  0
 30 31  2  0  0  0  0
 30 50  1  0  0  0  0
 31 32  1  0  0  0  0
 31 51  1  0  0  0  0
 32 52  1  0  0  0  0
M  END
$$$$
