CHEMBL434311
 OpenBabel04072215383D

 58 61  0  0  0  0  0  0  0  0999 V2000
    2.5883    1.1420   -0.1895 C   0  0  0  0  0  0  0  0  0  0  0  0
    2.3883   -0.2676   -0.1879 O   0  0  0  0  0  0  0  0  0  0  0  0
    3.2191   -1.0597    0.5551 C   0  0  0  0  0  0  0  0  0  0  0  0
    4.3699   -0.5754    1.1815 C   0  0  0  0  0  0  0  0  0  0  0  0
    5.1511   -1.3968    2.0214 C   0  0  0  0  0  0  0  0  0  0  0  0
    6.3055   -0.9576    2.6985 C   0  0  0  0  0  0  0  0  0  0  0  0
    6.6434    0.4142    2.6482 N   0  0  0  0  0  0  0  0  0  0  0  0
    7.9275    0.9920    2.6836 C   0  0  0  0  0  0  0  0  0  0  0  0
    9.0460    0.3267    2.1698 C   0  0  0  0  0  0  0  0  0  0  0  0
   10.2688    0.9892    2.0340 C   0  0  0  0  0  0  0  0  0  0  0  0
   10.3822    2.3244    2.4177 C   0  0  0  0  0  0  0  0  0  0  0  0
   11.8673    3.1561    2.1714 Cl  0  0  0  0  0  0  0  0  0  0  0  0
    9.2957    2.9961    2.9665 C   0  0  0  0  0  0  0  0  0  0  0  0
    8.0817    2.3273    3.0860 C   0  0  0  0  0  0  0  0  0  0  0  0
    7.0237    2.9892    3.5828 F   0  0  0  0  0  0  0  0  0  0  0  0
    7.0703   -1.7919    3.4236 N   0  0  0  0  0  0  0  0  0  0  0  0
    6.6466   -3.0576    3.5135 C   0  0  0  0  0  0  0  0  0  0  0  0
    5.5456   -3.5683    2.9519 N   0  0  0  0  0  0  0  0  0  0  0  0
    4.8106   -2.7378    2.2052 C   0  0  0  0  0  0  0  0  0  0  0  0
    3.6826   -3.2232    1.5529 C   0  0  0  0  0  0  0  0  0  0  0  0
    2.9039   -2.4236    0.7026 C   0  0  0  0  0  0  0  0  0  0  0  0
    1.8850   -3.1212    0.0853 O   0  0  0  0  0  0  0  0  0  0  0  0
    1.4744   -2.5967   -1.1745 C   0  0  0  0  0  0  0  0  0  0  0  0
    0.8879   -3.6781   -2.0927 C   0  0  0  0  0  0  0  0  0  0  0  0
    0.5448   -2.9914   -3.4177 C   0  0  0  0  0  0  0  0  0  0  0  0
   -0.0645   -3.8761   -4.5097 C   0  0  0  0  0  0  0  0  0  0  0  0
   -0.1785   -3.1041   -5.7596 N   0  0  0  0  0  0  0  0  0  0  0  0
   -1.1579   -1.9960   -5.7212 C   0  0  0  0  0  0  0  0  0  0  0  0
   -2.6190   -2.4281   -5.9112 C   0  0  0  0  0  0  0  0  0  0  0  0
   -2.7828   -3.1598   -7.1298 O   0  0  0  0  0  0  0  0  0  0  0  0
   -1.9413   -4.3188   -7.1274 C   0  0  0  0  0  0  0  0  0  0  0  0
   -0.4608   -3.9465   -6.9394 C   0  0  0  0  0  0  0  0  0  0  0  0
    3.2581    1.4210   -1.0089 H   0  0  0  0  0  0  0  0  0  0  0  0
    2.9548    1.5364    0.7630 H   0  0  0  0  0  0  0  0  0  0  0  0
    1.6169    1.6130   -0.3659 H   0  0  0  0  0  0  0  0  0  0  0  0
    4.7132    0.4373    0.9960 H   0  0  0  0  0  0  0  0  0  0  0  0
    5.9455    0.9740    3.1324 H   0  0  0  0  0  0  0  0  0  0  0  0
    8.9649   -0.7046    1.8343 H   0  0  0  0  0  0  0  0  0  0  0  0
   11.1159    0.4614    1.6042 H   0  0  0  0  0  0  0  0  0  0  0  0
    9.3715    4.0323    3.2773 H   0  0  0  0  0  0  0  0  0  0  0  0
    7.2551   -3.7358    4.1027 H   0  0  0  0  0  0  0  0  0  0  0  0
    3.4117   -4.2692    1.6874 H   0  0  0  0  0  0  0  0  0  0  0  0
    2.3272   -2.1572   -1.7075 H   0  0  0  0  0  0  0  0  0  0  0  0
    0.7071   -1.8350   -0.9976 H   0  0  0  0  0  0  0  0  0  0  0  0
    0.0006   -4.1291   -1.6338 H   0  0  0  0  0  0  0  0  0  0  0  0
    1.6150   -4.4854   -2.2383 H   0  0  0  0  0  0  0  0  0  0  0  0
    1.4614   -2.5334   -3.8145 H   0  0  0  0  0  0  0  0  0  0  0  0
   -0.1422   -2.1730   -3.1800 H   0  0  0  0  0  0  0  0  0  0  0  0
   -1.0257   -4.2928   -4.1903 H   0  0  0  0  0  0  0  0  0  0  0  0
    0.6200   -4.7190   -4.6719 H   0  0  0  0  0  0  0  0  0  0  0  0
   -0.8950   -1.3148   -6.5408 H   0  0  0  0  0  0  0  0  0  0  0  0
   -1.0722   -1.3940   -4.8128 H   0  0  0  0  0  0  0  0  0  0  0  0
   -3.2570   -1.5403   -5.9733 H   0  0  0  0  0  0  0  0  0  0  0  0
   -2.9771   -3.0348   -5.0718 H   0  0  0  0  0  0  0  0  0  0  0  0
   -2.0728   -4.8146   -8.0949 H   0  0  0  0  0  0  0  0  0  0  0  0
   -2.2850   -5.0085   -6.3491 H   0  0  0  0  0  0  0  0  0  0  0  0
   -0.1431   -3.3713   -7.8193 H   0  0  0  0  0  0  0  0  0  0  0  0
    0.1568   -4.8518   -6.9335 H   0  0  0  0  0  0  0  0  0  0  0  0
  1  2  1  0  0  0  0
  1 33  1  0  0  0  0
  1 34  1  0  0  0  0
  1 35  1  0  0  0  0
  2  3  1  0  0  0  0
  3  4  1  0  0  0  0
  3 21  2  0  0  0  0
  4  5  2  0  0  0  0
  4 36  1  0  0  0  0
  5  6  1  0  0  0  0
  5 19  1  0  0  0  0
  6  7  1  0  0  0  0
  6 16  2  0  0  0  0
  7  8  1  0  0  0  0
  7 37  1  0  0  0  0
  8  9  1  0  0  0  0
  8 14  2  0  0  0  0
  9 10  2  0  0  0  0
  9 38  1  0  0  0  0
 10 11  1  0  0  0  0
 10 39  1  0  0  0  0
 11 12  1  0  0  0  0
 11 13  2  0  0  0  0
 13 14  1  0  0  0  0
 13 40  1  0  0  0  0
 14 15  1  0  0  0  0
 16 17  1  0  0  0  0
 17 18  2  0  0  0  0
 17 41  1  0  0  0  0
 18 19  1  0  0  0  0
 19 20  2  0  0  0  0
 20 21  1  0  0  0  0
 20 42  1  0  0  0  0
 21 22  1  0  0  0  0
 22 23  1  0  0  0  0
 23 24  1  0  0  0  0
 23 43  1  0  0  0  0
 23 44  1  0  0  0  0
 24 25  1  0  0  0  0
 24 45  1  0  0  0  0
 24 46  1  0  0  0  0
 25 26  1  0  0  0  0
 25 47  1  0  0  0  0
 25 48  1  0  0  0  0
 26 27  1  0  0  0  0
 26 49  1  0  0  0  0
 26 50  1  0  0  0  0
 27 28  1  0  0  0  0
 27 32  1  0  0  0  0
 28 29  1  0  0  0  0
 28 51  1  0  0  0  0
 28 52  1  0  0  0  0
 29 30  1  0  0  0  0
 29 53  1  0  0  0  0
 29 54  1  0  0  0  0
 30 31  1  0  0  0  0
 31 32  1  0  0  0  0
 31 55  1  0  0  0  0
 31 56  1  0  0  0  0
 32 57  1  0  0  0  0
 32 58  1  0  0  0  0
M  END
$$$$
