CHEMBL3913600
 OpenBabel04072215373D

 49 52  0  0  0  0  0  0  0  0999 V2000
    9.5134    7.7503   -0.8178 C   0  0  0  0  0  0  0  0  0  0  0  0
    9.6377    7.2350    0.3735 C   0  0  0  0  0  0  0  0  0  0  0  0
    9.7826    6.6343    1.7622 C   0  0  0  0  0  0  0  0  0  0  0  0
    8.8356    5.5667    1.9774 N   0  0  0  0  0  0  0  0  0  0  0  0
    8.8210    4.8337    3.1612 C   0  0  0  0  0  0  0  0  0  0  0  0
    9.6083    5.0507    4.0717 O   0  0  0  0  0  0  0  0  0  0  0  0
    7.7477    3.7958    3.2868 C   0  0  0  0  0  0  0  0  0  0  0  0
    7.2462    3.5685    4.5877 C   0  0  0  0  0  0  0  0  0  0  0  0
    6.1452    2.7299    4.7845 C   0  0  0  0  0  0  0  0  0  0  0  0
    5.5478    2.1181    3.7093 C   0  0  0  0  0  0  0  0  0  0  0  0
    6.0846    2.2732    2.4340 C   0  0  0  0  0  0  0  0  0  0  0  0
    7.2103    3.0939    2.2003 C   0  0  0  0  0  0  0  0  0  0  0  0
    7.7602    3.1999    0.8987 N   0  0  0  0  0  0  0  0  0  0  0  0
    7.1191    2.8378   -0.2969 C   0  0  0  0  0  0  0  0  0  0  0  0
    5.7565    3.1573   -0.4899 C   0  0  0  0  0  0  0  0  0  0  0  0
    5.0261    2.7007   -1.5952 C   0  0  0  0  0  0  0  0  0  0  0  0
    5.7295    2.0154   -2.6016 C   0  0  0  0  0  0  0  0  0  0  0  0
    5.5359    1.6399   -3.9747 C   0  0  0  0  0  0  0  0  0  0  0  0
    5.6409    0.3056   -4.5697 C   0  0  0  0  0  0  0  0  0  0  0  0
    6.1135   -0.7935   -3.9458 C   0  0  0  0  0  0  0  0  0  0  0  0
    7.0005   -1.7548   -4.6500 C   0  0  0  0  0  0  0  0  0  0  0  0
    7.5772   -2.8152   -3.9579 C   0  0  0  0  0  0  0  0  0  0  0  0
    8.6004   -3.5516   -4.5685 C   0  0  0  0  0  0  0  0  0  0  0  0
    9.0097   -3.2180   -5.8507 C   0  0  0  0  0  0  0  0  0  0  0  0
    8.3752   -2.1646   -6.4797 C   0  0  0  0  0  0  0  0  0  0  0  0
    7.3861   -1.4348   -5.9095 N   0  0  0  0  0  0  0  0  0  0  0  0
    6.3741    2.5005   -4.6111 N   0  0  0  0  0  0  0  0  0  0  0  0
    7.4760    2.3541   -3.8296 N   0  0  0  0  0  0  0  0  0  0  0  0
    7.1241    2.1071   -2.5162 C   0  0  0  0  0  0  0  0  0  0  0  0
    7.8397    2.2408   -1.3339 C   0  0  0  0  0  0  0  0  0  0  0  0
    9.4098    8.1730   -1.7907 H   0  0  0  0  0  0  0  0  0  0  0  0
    9.6338    7.4025    2.5280 H   0  0  0  0  0  0  0  0  0  0  0  0
   10.7909    6.2222    1.8787 H   0  0  0  0  0  0  0  0  0  0  0  0
    8.1120    5.3949    1.2841 H   0  0  0  0  0  0  0  0  0  0  0  0
    7.6962    4.0660    5.4450 H   0  0  0  0  0  0  0  0  0  0  0  0
    5.7509    2.5717    5.7896 H   0  0  0  0  0  0  0  0  0  0  0  0
    4.6641    1.4852    3.8376 H   0  0  0  0  0  0  0  0  0  0  0  0
    5.6186    1.7164    1.6160 H   0  0  0  0  0  0  0  0  0  0  0  0
    8.7598    3.0277    0.9084 H   0  0  0  0  0  0  0  0  0  0  0  0
    5.2627    3.8045    0.2331 H   0  0  0  0  0  0  0  0  0  0  0  0
    3.9845    2.9887   -1.7166 H   0  0  0  0  0  0  0  0  0  0  0  0
    5.7159    0.3457   -5.6575 H   0  0  0  0  0  0  0  0  0  0  0  0
    6.1138   -0.8654   -2.8642 H   0  0  0  0  0  0  0  0  0  0  0  0
    7.2890   -3.0450   -2.9384 H   0  0  0  0  0  0  0  0  0  0  0  0
    9.0810   -4.3671   -4.0353 H   0  0  0  0  0  0  0  0  0  0  0  0
    9.8150   -3.7555   -6.3440 H   0  0  0  0  0  0  0  0  0  0  0  0
    8.6561   -1.8591   -7.4829 H   0  0  0  0  0  0  0  0  0  0  0  0
    8.3683    2.6525   -4.1893 H   0  0  0  0  0  0  0  0  0  0  0  0
    8.9081    2.0791   -1.2892 H   0  0  0  0  0  0  0  0  0  0  0  0
  1  2  3  0  0  0  0
  1 31  1  0  0  0  0
  2  3  1  0  0  0  0
  3  4  1  0  0  0  0
  3 32  1  0  0  0  0
  3 33  1  0  0  0  0
  4  5  1  0  0  0  0
  4 34  1  0  0  0  0
  5  6  2  0  0  0  0
  5  7  1  0  0  0  0
  7  8  1  0  0  0  0
  7 12  2  0  0  0  0
  8  9  2  0  0  0  0
  8 35  1  0  0  0  0
  9 10  1  0  0  0  0
  9 36  1  0  0  0  0
 10 11  2  0  0  0  0
 10 37  1  0  0  0  0
 11 12  1  0  0  0  0
 11 38  1  0  0  0  0
 12 13  1  0  0  0  0
 13 14  1  0  0  0  0
 13 39  1  0  0  0  0
 14 15  1  0  0  0  0
 14 30  2  0  0  0  0
 15 16  2  0  0  0  0
 15 40  1  0  0  0  0
 16 17  1  0  0  0  0
 16 41  1  0  0  0  0
 17 18  1  0  0  0  0
 17 29  2  0  0  0  0
 18 19  1  0  0  0  0
 18 27  2  0  0  0  0
 19 20  2  0  0  0  0
 19 42  1  0  0  0  0
 20 21  1  0  0  0  0
 20 43  1  0  0  0  0
 21 22  1  0  0  0  0
 21 26  2  0  0  0  0
 22 23  2  0  0  0  0
 22 44  1  0  0  0  0
 23 24  1  0  0  0  0
 23 45  1  0  0  0  0
 24 25  2  0  0  0  0
 24 46  1  0  0  0  0
 25 26  1  0  0  0  0
 25 47  1  0  0  0  0
 27 28  1  0  0  0  0
 28 29  1  0  0  0  0
 28 48  1  0  0  0  0
 29 30  1  0  0  0  0
 30 49  1  0  0  0  0
M  END
$$$$
