CHEMBL3960972
 OpenBabel04072215373D

 45 47  0  0  1  0  0  0  0  0999 V2000
    2.7048    2.4447   -5.0059 C   0  0  0  0  0  0  0  0  0  0  0  0
    4.0369    2.2435   -4.3073 C   0  0  3  0  0  0  0  0  0  0  0  0
    4.9368    3.4388   -4.6375 C   0  0  0  0  0  0  0  0  0  0  0  0
    6.2271    3.3403   -4.2126 N   0  0  0  0  0  0  0  0  0  0  0  0
    4.5986    4.4305   -5.2808 O   0  0  0  0  0  0  0  0  0  0  0  0
    3.7650    1.9936   -2.8171 C   0  0  0  0  0  0  0  0  0  0  0  0
    3.5900    3.1464   -2.0164 C   0  0  0  0  0  0  0  0  0  0  0  0
    3.2511    3.0585   -0.6730 C   0  0  0  0  0  0  0  0  0  0  0  0
    3.0709    1.8145   -0.0942 C   0  0  0  0  0  0  0  0  0  0  0  0
    3.2217    0.6576   -0.8583 C   0  0  0  0  0  0  0  0  0  0  0  0
    3.5453    0.7084   -2.2302 C   0  0  0  0  0  0  0  0  0  0  0  0
    3.7191   -0.6020   -2.9950 C   0  0  0  0  0  0  0  0  0  0  0  0
    3.1179   -1.9155   -2.4208 C   0  0  0  0  0  0  0  0  0  0  0  0
    1.6096   -2.1127   -2.4154 C   0  0  0  0  0  0  0  0  0  0  0  0
    0.8751   -1.4944   -3.3841 N   0  0  0  0  0  0  0  0  0  0  0  0
   -0.4536   -1.7513   -3.4612 C   0  0  0  0  0  0  0  0  0  0  0  0
   -1.2963   -1.0793   -4.3553 N   0  0  0  0  0  0  0  0  0  0  0  0
   -1.0303   -0.0080   -5.1158 C   0  0  0  0  0  0  0  0  0  0  0  0
    0.2108    0.4266   -5.5852 C   0  0  0  0  0  0  0  0  0  0  0  0
    0.1272    1.5627   -6.2842 N   0  0  0  0  0  0  0  0  0  0  0  0
   -1.1700    1.8785   -6.2087 N   0  0  0  0  0  0  0  0  0  0  0  0
   -1.9242    0.9086   -5.6107 C   0  0  0  0  0  0  0  0  0  0  0  0
   -1.0869   -2.6193   -2.6616 N   0  0  0  0  0  0  0  0  0  0  0  0
   -0.3437   -3.2229   -1.7149 C   0  0  0  0  0  0  0  0  0  0  0  0
    1.0093   -3.0000   -1.5397 C   0  0  0  0  0  0  0  0  0  0  0  0
    1.8248   -3.8542   -0.2838 Cl  0  0  0  0  0  0  0  0  0  0  0  0
    2.7487    3.0437   -5.9202 H   0  0  0  0  0  0  0  0  0  0  0  0
    1.9312    2.8749   -4.3587 H   0  0  0  0  0  0  0  0  0  0  0  0
    2.4017    1.4544   -5.3090 H   0  0  0  0  0  0  0  0  0  0  0  0
    4.5414    1.3726   -4.7450 H   0  0  0  0  0  0  0  0  0  0  0  0
    6.4454    2.7564   -3.4187 H   0  0  0  0  0  0  0  0  0  0  0  0
    6.7866    4.1710   -4.3586 H   0  0  0  0  0  0  0  0  0  0  0  0
    3.6828    4.1397   -2.4543 H   0  0  0  0  0  0  0  0  0  0  0  0
    3.1130    3.9635   -0.0871 H   0  0  0  0  0  0  0  0  0  0  0  0
    2.8009    1.7373    0.9547 H   0  0  0  0  0  0  0  0  0  0  0  0
    3.0675   -0.2856   -0.3419 H   0  0  0  0  0  0  0  0  0  0  0  0
    4.8065   -0.7667   -3.0358 H   0  0  0  0  0  0  0  0  0  0  0  0
    3.3773   -0.4883   -4.0277 H   0  0  0  0  0  0  0  0  0  0  0  0
    3.5202   -2.0642   -1.4104 H   0  0  0  0  0  0  0  0  0  0  0  0
    3.5195   -2.7492   -3.0128 H   0  0  0  0  0  0  0  0  0  0  0  0
   -2.2467   -1.3601   -4.1533 H   0  0  0  0  0  0  0  0  0  0  0  0
    1.1655   -0.0520   -5.4294 H   0  0  0  0  0  0  0  0  0  0  0  0
   -1.4650    2.7683   -6.5959 H   0  0  0  0  0  0  0  0  0  0  0  0
   -2.9976    1.0021   -5.5482 H   0  0  0  0  0  0  0  0  0  0  0  0
   -0.8973   -3.9138   -1.0853 H   0  0  0  0  0  0  0  0  0  0  0  0
  1  2  1  0  0  0  0
  1 27  1  0  0  0  0
  1 28  1  0  0  0  0
  1 29  1  0  0  0  0
  2  3  1  0  0  0  0
  2  6  1  0  0  0  0
  2 30  1  0  0  0  0
  3  4  1  0  0  0  0
  3  5  2  0  0  0  0
  4 31  1  0  0  0  0
  4 32  1  0  0  0  0
  6  7  1  0  0  0  0
  6 11  2  0  0  0  0
  7  8  2  0  0  0  0
  7 33  1  0  0  0  0
  8  9  1  0  0  0  0
  8 34  1  0  0  0  0
  9 10  2  0  0  0  0
  9 35  1  0  0  0  0
 10 11  1  0  0  0  0
 10 36  1  0  0  0  0
 11 12  1  0  0  0  0
 12 13  1  0  0  0  0
 12 37  1  0  0  0  0
 12 38  1  0  0  0  0
 13 14  1  0  0  0  0
 13 39  1  0  0  0  0
 13 40  1  0  0  0  0
 14 15  1  0  0  0  0
 14 25  2  0  0  0  0
 15 16  2  0  0  0  0
 16 17  1  0  0  0  0
 16 23  1  0  0  0  0
 17 18  1  0  0  0  0
 17 41  1  0  0  0  0
 18 19  1  0  0  0  0
 18 22  2  0  0  0  0
 19 20  2  0  0  0  0
 19 42  1  0  0  0  0
 20 21  1  0  0  0  0
 21 22  1  0  0  0  0
 21 43  1  0  0  0  0
 22 44  1  0  0  0  0
 23 24  2  0  0  0  0
 24 25  1  0  0  0  0
 24 45  1  0  0  0  0
 25 26  1  0  0  0  0
M  END
$$$$
