CHEMBL1934320
 OpenBabel04072215363D

 70 74  0  0  0  0  0  0  0  0999 V2000
   -0.3837    3.0405   -0.2469 C   0  0  0  0  0  0  0  0  0  0  0  0
    0.6023    2.0688    0.2256 N   0  0  0  0  0  0  0  0  0  0  0  0
    0.2477    0.7257   -0.2574 C   0  0  0  0  0  0  0  0  0  0  0  0
    1.2753   -0.3200    0.1832 C   0  0  0  0  0  0  0  0  0  0  0  0
    2.6835    0.0618   -0.2799 C   0  0  0  0  0  0  0  0  0  0  0  0
    2.7850    0.0202   -1.8045 C   0  0  0  0  0  0  0  0  0  0  0  0
    2.5137   -1.3013   -2.2965 O   0  0  0  0  0  0  0  0  0  0  0  0
    2.5501   -1.4090   -3.6658 C   0  0  0  0  0  0  0  0  0  0  0  0
    2.8095   -0.3366   -4.5061 C   0  0  0  0  0  0  0  0  0  0  0  0
    2.8272   -0.5309   -5.8822 C   0  0  0  0  0  0  0  0  0  0  0  0
    2.6496   -1.8064   -6.4394 C   0  0  0  0  0  0  0  0  0  0  0  0
    2.8146   -2.1056   -7.8001 C   0  0  0  0  0  0  0  0  0  0  0  0
    3.2163   -1.0702   -8.6945 N   0  0  0  0  0  0  0  0  0  0  0  0
    3.8623   -1.2510   -9.9372 C   0  0  0  0  0  0  0  0  0  0  0  0
    3.5820   -0.4005  -11.0105 C   0  0  0  0  0  0  0  0  0  0  0  0
    4.1606   -0.6166  -12.2688 C   0  0  0  0  0  0  0  0  0  0  0  0
    5.1004   -1.6371  -12.4629 C   0  0  0  0  0  0  0  0  0  0  0  0
    5.6366   -1.9465  -13.8412 C   0  0  0  0  0  0  0  0  0  0  0  0
    6.3618   -0.8261  -14.5729 C   0  0  0  0  0  0  0  0  0  0  0  0
    6.3175   -0.7804  -15.8046 O   0  0  0  0  0  0  0  0  0  0  0  0
    7.1388    0.0374  -13.8091 N   0  0  0  0  0  0  0  0  0  0  0  0
    7.9374    1.0133  -14.4488 C   0  0  0  0  0  0  0  0  0  0  0  0
    9.3168    1.0148  -14.2626 C   0  0  0  0  0  0  0  0  0  0  0  0
   10.1060    1.9409  -14.9521 C   0  0  0  0  0  0  0  0  0  0  0  0
    9.5310    2.8654  -15.8301 C   0  0  0  0  0  0  0  0  0  0  0  0
   10.6073    4.0116  -16.5428 Cl  0  0  0  0  0  0  0  0  0  0  0  0
    8.1537    2.8442  -16.0733 C   0  0  0  0  0  0  0  0  0  0  0  0
    7.4920    3.6558  -17.1576 C   0  0  0  0  0  0  0  0  0  0  0  0
    8.3243    4.4006  -17.9333 F   0  0  0  0  0  0  0  0  0  0  0  0
    6.8171    2.8613  -18.0389 F   0  0  0  0  0  0  0  0  0  0  0  0
    6.5658    4.5309  -16.6731 F   0  0  0  0  0  0  0  0  0  0  0  0
    7.3597    1.9440  -15.3245 C   0  0  0  0  0  0  0  0  0  0  0  0
    5.4485   -2.4360  -11.3676 C   0  0  0  0  0  0  0  0  0  0  0  0
    4.8190   -2.2548  -10.1297 C   0  0  0  0  0  0  0  0  0  0  0  0
    2.6196   -3.3420   -8.2837 N   0  0  0  0  0  0  0  0  0  0  0  0
    2.2761   -4.2880   -7.3969 C   0  0  0  0  0  0  0  0  0  0  0  0
    2.1477   -4.1279   -6.0869 N   0  0  0  0  0  0  0  0  0  0  0  0
    2.3616   -2.9020   -5.5919 C   0  0  0  0  0  0  0  0  0  0  0  0
    2.3009   -2.6709   -4.2202 C   0  0  0  0  0  0  0  0  0  0  0  0
    3.0113    1.4650    0.2485 C   0  0  0  0  0  0  0  0  0  0  0  0
    1.9519    2.4886   -0.1740 C   0  0  0  0  0  0  0  0  0  0  0  0
   -1.3898    2.7609    0.0851 H   0  0  0  0  0  0  0  0  0  0  0  0
   -0.3901    3.1162   -1.3409 H   0  0  0  0  0  0  0  0  0  0  0  0
   -0.1750    4.0331    0.1672 H   0  0  0  0  0  0  0  0  0  0  0  0
    0.1471    0.7205   -1.3501 H   0  0  0  0  0  0  0  0  0  0  0  0
   -0.7303    0.4310    0.1402 H   0  0  0  0  0  0  0  0  0  0  0  0
    0.9949   -1.3037   -0.2103 H   0  0  0  0  0  0  0  0  0  0  0  0
    1.2666   -0.4064    1.2770 H   0  0  0  0  0  0  0  0  0  0  0  0
    3.3995   -0.6611    0.1279 H   0  0  0  0  0  0  0  0  0  0  0  0
    3.7971    0.3267   -2.0963 H   0  0  0  0  0  0  0  0  0  0  0  0
    2.0661    0.7189   -2.2492 H   0  0  0  0  0  0  0  0  0  0  0  0
    3.0231    0.6578   -4.1447 H   0  0  0  0  0  0  0  0  0  0  0  0
    3.0092    0.3478   -6.5027 H   0  0  0  0  0  0  0  0  0  0  0  0
    2.5224   -0.3342   -8.7064 H   0  0  0  0  0  0  0  0  0  0  0  0
    2.8621    0.4063  -10.9047 H   0  0  0  0  0  0  0  0  0  0  0  0
    3.8322    0.0008  -13.1020 H   0  0  0  0  0  0  0  0  0  0  0  0
    4.7812   -2.2354  -14.4699 H   0  0  0  0  0  0  0  0  0  0  0  0
    6.2971   -2.8228  -13.8162 H   0  0  0  0  0  0  0  0  0  0  0  0
    7.4307   -0.2974  -12.8978 H   0  0  0  0  0  0  0  0  0  0  0  0
    9.8068    0.2669  -13.6463 H   0  0  0  0  0  0  0  0  0  0  0  0
   11.1879    1.9233  -14.8265 H   0  0  0  0  0  0  0  0  0  0  0  0
    6.2742    1.9589  -15.4381 H   0  0  0  0  0  0  0  0  0  0  0  0
    6.1741   -3.2412  -11.4663 H   0  0  0  0  0  0  0  0  0  0  0  0
    5.0593   -2.9352   -9.3153 H   0  0  0  0  0  0  0  0  0  0  0  0
    2.0952   -5.2816   -7.8065 H   0  0  0  0  0  0  0  0  0  0  0  0
    2.0687   -3.5084   -3.5633 H   0  0  0  0  0  0  0  0  0  0  0  0
    3.9982    1.7881   -0.1055 H   0  0  0  0  0  0  0  0  0  0  0  0
    3.0675    1.4339    1.3445 H   0  0  0  0  0  0  0  0  0  0  0  0
    2.0059    2.6529   -1.2577 H   0  0  0  0  0  0  0  0  0  0  0  0
    2.1962    3.4498    0.2946 H   0  0  0  0  0  0  0  0  0  0  0  0
  1  2  1  0  0  0  0
  1 42  1  0  0  0  0
  1 43  1  0  0  0  0
  1 44  1  0  0  0  0
  2  3  1  0  0  0  0
  2 41  1  0  0  0  0
  3  4  1  0  0  0  0
  3 45  1  0  0  0  0
  3 46  1  0  0  0  0
  4  5  1  0  0  0  0
  4 47  1  0  0  0  0
  4 48  1  0  0  0  0
  5  6  1  0  0  0  0
  5 40  1  0  0  0  0
  5 49  1  0  0  0  0
  6  7  1  0  0  0  0
  6 50  1  0  0  0  0
  6 51  1  0  0  0  0
  7  8  1  0  0  0  0
  8  9  1  0  0  0  0
  8 39  2  0  0  0  0
  9 10  2  0  0  0  0
  9 52  1  0  0  0  0
 10 11  1  0  0  0  0
 10 53  1  0  0  0  0
 11 12  1  0  0  0  0
 11 38  2  0  0  0  0
 12 13  1  0  0  0  0
 12 35  2  0  0  0  0
 13 14  1  0  0  0  0
 13 54  1  0  0  0  0
 14 15  1  0  0  0  0
 14 34  2  0  0  0  0
 15 16  2  0  0  0  0
 15 55  1  0  0  0  0
 16 17  1  0  0  0  0
 16 56  1  0  0  0  0
 17 18  1  0  0  0  0
 17 33  2  0  0  0  0
 18 19  1  0  0  0  0
 18 57  1  0  0  0  0
 18 58  1  0  0  0  0
 19 20  2  0  0  0  0
 19 21  1  0  0  0  0
 21 22  1  0  0  0  0
 21 59  1  0  0  0  0
 22 23  1  0  0  0  0
 22 32  2  0  0  0  0
 23 24  2  0  0  0  0
 23 60  1  0  0  0  0
 24 25  1  0  0  0  0
 24 61  1  0  0  0  0
 25 26  1  0  0  0  0
 25 27  2  0  0  0  0
 27 28  1  0  0  0  0
 27 32  1  0  0  0  0
 28 29  1  0  0  0  0
 28 30  1  0  0  0  0
 28 31  1  0  0  0  0
 32 62  1  0  0  0  0
 33 34  1  0  0  0  0
 33 63  1  0  0  0  0
 34 64  1  0  0  0  0
 35 36  1  0  0  0  0
 36 37  2  0  0  0  0
 36 65  1  0  0  0  0
 37 38  1  0  0  0  0
 38 39  1  0  0  0  0
 39 66  1  0  0  0  0
 40 41  1  0  0  0  0
 40 67  1  0  0  0  0
 40 68  1  0  0  0  0
 41 69  1  0  0  0  0
 41 70  1  0  0  0  0
M  END
$$$$
