CHEMBL498266
 OpenBabel04072215383D

 68 71  0  0  0  0  0  0  0  0999 V2000
    1.6255   -3.0444   -2.7193 C   0  0  0  0  0  0  0  0  0  0  0  0
    2.8977   -2.4794   -2.3884 O   0  0  0  0  0  0  0  0  0  0  0  0
    3.8368   -2.6376   -3.3528 C   0  0  0  0  0  0  0  0  0  0  0  0
    3.6658   -3.1732   -4.4377 O   0  0  0  0  0  0  0  0  0  0  0  0
    5.1551   -2.1033   -2.9088 C   0  0  0  0  0  0  0  0  0  0  0  0
    5.3389   -1.4673   -1.6608 C   0  0  0  0  0  0  0  0  0  0  0  0
    6.6056   -1.0066   -1.2566 C   0  0  0  0  0  0  0  0  0  0  0  0
    7.6840   -1.1947   -2.1045 C   0  0  0  0  0  0  0  0  0  0  0  0
    7.4805   -1.8251   -3.3398 C   0  0  0  0  0  0  0  0  0  0  0  0
    6.2457   -2.2757   -3.7694 C   0  0  0  0  0  0  0  0  0  0  0  0
    8.6772   -1.9423   -4.0383 N   0  0  0  0  0  0  0  0  0  0  0  0
    9.7317   -1.4120   -3.3181 C   0  0  0  0  0  0  0  0  0  0  0  0
   10.9164   -1.4854   -3.5940 O   0  0  0  0  0  0  0  0  0  0  0  0
    9.1134   -0.8296   -2.0689 C   0  0  0  0  0  0  0  0  0  0  0  0
    9.8571   -0.1053   -1.2045 C   0  0  0  0  0  0  0  0  0  0  0  0
   11.1881    0.2966   -1.3977 N   0  0  0  0  0  0  0  0  0  0  0  0
   11.5248    1.4666   -2.1597 C   0  0  0  0  0  0  0  0  0  0  0  0
   10.5974    2.4437   -2.5420 C   0  0  0  0  0  0  0  0  0  0  0  0
   10.9735    3.5123   -3.3674 C   0  0  0  0  0  0  0  0  0  0  0  0
   12.2855    3.6215   -3.8264 C   0  0  0  0  0  0  0  0  0  0  0  0
   12.5974    4.6110   -4.8202 N   0  0  0  0  0  0  0  0  0  0  0  0
   13.1278    4.1567   -6.1370 C   0  0  0  0  0  0  0  0  0  0  0  0
   12.0418    3.3813   -6.9208 C   0  0  0  0  0  0  0  0  0  0  0  0
   12.4246    2.9847   -8.2956 N   0  0  0  0  0  0  0  0  0  0  0  0
   11.3890    2.1055   -8.8543 C   0  0  0  0  0  0  0  0  0  0  0  0
   12.5889    4.1456   -9.1766 C   0  0  0  0  0  0  0  0  0  0  0  0
   12.9164    6.1982   -4.3236 S   0  0  0  0  0  0  0  0  0  0  0  0
   14.6242    6.0894   -3.8280 C   0  0  0  0  0  0  0  0  0  0  0  0
   12.8663    7.0496   -5.4970 O   0  0  0  0  0  0  0  0  0  0  0  0
   12.1279    6.5069   -3.1529 O   0  0  0  0  0  0  0  0  0  0  0  0
   13.2468    2.7270   -3.3545 C   0  0  0  0  0  0  0  0  0  0  0  0
   12.8673    1.6661   -2.5191 C   0  0  0  0  0  0  0  0  0  0  0  0
    9.3585    0.1832    0.1585 C   0  0  0  0  0  0  0  0  0  0  0  0
    9.5778   -0.7699    1.1685 C   0  0  0  0  0  0  0  0  0  0  0  0
    9.1775   -0.5211    2.4815 C   0  0  0  0  0  0  0  0  0  0  0  0
    8.5537    0.6834    2.7992 C   0  0  0  0  0  0  0  0  0  0  0  0
    8.3221    1.6320    1.8030 C   0  0  0  0  0  0  0  0  0  0  0  0
    8.7218    1.3837    0.4880 C   0  0  0  0  0  0  0  0  0  0  0  0
    0.9085   -2.7392   -1.9524 H   0  0  0  0  0  0  0  0  0  0  0  0
    1.6916   -4.1373   -2.7179 H   0  0  0  0  0  0  0  0  0  0  0  0
    1.2690   -2.6804   -3.6882 H   0  0  0  0  0  0  0  0  0  0  0  0
    4.4963   -1.3246   -0.9860 H   0  0  0  0  0  0  0  0  0  0  0  0
    6.7112   -0.5203   -0.2933 H   0  0  0  0  0  0  0  0  0  0  0  0
    6.1258   -2.7520   -4.7378 H   0  0  0  0  0  0  0  0  0  0  0  0
    8.8019   -2.4225   -4.9172 H   0  0  0  0  0  0  0  0  0  0  0  0
   11.6917   -0.4619   -1.8779 H   0  0  0  0  0  0  0  0  0  0  0  0
    9.5560    2.3719   -2.2514 H   0  0  0  0  0  0  0  0  0  0  0  0
   10.2251    4.2360   -3.6820 H   0  0  0  0  0  0  0  0  0  0  0  0
   14.0218    3.5418   -5.9995 H   0  0  0  0  0  0  0  0  0  0  0  0
   13.4340    5.0277   -6.7213 H   0  0  0  0  0  0  0  0  0  0  0  0
   11.1107    3.9636   -6.9369 H   0  0  0  0  0  0  0  0  0  0  0  0
   11.8258    2.4658   -6.3541 H   0  0  0  0  0  0  0  0  0  0  0  0
   11.2893    1.1944   -8.2542 H   0  0  0  0  0  0  0  0  0  0  0  0
   11.6581    1.7842   -9.8670 H   0  0  0  0  0  0  0  0  0  0  0  0
   10.4104    2.5985   -8.9001 H   0  0  0  0  0  0  0  0  0  0  0  0
   13.4284    4.7713   -8.8604 H   0  0  0  0  0  0  0  0  0  0  0  0
   11.6856    4.7646   -9.2198 H   0  0  0  0  0  0  0  0  0  0  0  0
   12.8289    3.8205  -10.1960 H   0  0  0  0  0  0  0  0  0  0  0  0
   15.2237    5.6873   -4.6496 H   0  0  0  0  0  0  0  0  0  0  0  0
   14.7031    5.4603   -2.9406 H   0  0  0  0  0  0  0  0  0  0  0  0
   14.9712    7.0995   -3.5895 H   0  0  0  0  0  0  0  0  0  0  0  0
   14.2855    2.8172   -3.6539 H   0  0  0  0  0  0  0  0  0  0  0  0
   13.6274    0.9667   -2.1778 H   0  0  0  0  0  0  0  0  0  0  0  0
   10.0862   -1.7044    0.9373 H   0  0  0  0  0  0  0  0  0  0  0  0
    9.3712   -1.2569    3.2579 H   0  0  0  0  0  0  0  0  0  0  0  0
    8.2601    0.8887    3.8250 H   0  0  0  0  0  0  0  0  0  0  0  0
    7.8468    2.5766    2.0540 H   0  0  0  0  0  0  0  0  0  0  0  0
    8.5439    2.1417   -0.2675 H   0  0  0  0  0  0  0  0  0  0  0  0
  1  2  1  0  0  0  0
  1 39  1  0  0  0  0
  1 40  1  0  0  0  0
  1 41  1  0  0  0  0
  2  3  1  0  0  0  0
  3  4  2  0  0  0  0
  3  5  1  0  0  0  0
  5  6  1  0  0  0  0
  5 10  2  0  0  0  0
  6  7  2  0  0  0  0
  6 42  1  0  0  0  0
  7  8  1  0  0  0  0
  7 43  1  0  0  0  0
  8  9  2  0  0  0  0
  8 14  1  0  0  0  0
  9 10  1  0  0  0  0
  9 11  1  0  0  0  0
 10 44  1  0  0  0  0
 11 12  1  0  0  0  0
 11 45  1  0  0  0  0
 12 13  2  0  0  0  0
 12 14  1  0  0  0  0
 14 15  2  0  0  0  0
 15 16  1  0  0  0  0
 15 33  1  0  0  0  0
 16 17  1  0  0  0  0
 16 46  1  0  0  0  0
 17 18  1  0  0  0  0
 17 32  2  0  0  0  0
 18 19  2  0  0  0  0
 18 47  1  0  0  0  0
 19 20  1  0  0  0  0
 19 48  1  0  0  0  0
 20 21  1  0  0  0  0
 20 31  2  0  0  0  0
 21 22  1  0  0  0  0
 21 27  1  0  0  0  0
 22 23  1  0  0  0  0
 22 49  1  0  0  0  0
 22 50  1  0  0  0  0
 23 24  1  0  0  0  0
 23 51  1  0  0  0  0
 23 52  1  0  0  0  0
 24 25  1  0  0  0  0
 24 26  1  0  0  0  0
 25 53  1  0  0  0  0
 25 54  1  0  0  0  0
 25 55  1  0  0  0  0
 26 56  1  0  0  0  0
 26 57  1  0  0  0  0
 26 58  1  0  0  0  0
 27 28  1  0  0  0  0
 27 29  2  0  0  0  0
 27 30  2  0  0  0  0
 28 59  1  0  0  0  0
 28 60  1  0  0  0  0
 28 61  1  0  0  0  0
 31 32  1  0  0  0  0
 31 62  1  0  0  0  0
 32 63  1  0  0  0  0
 33 34  1  0  0  0  0
 33 38  2  0  0  0  0
 34 35  2  0  0  0  0
 34 64  1  0  0  0  0
 35 36  1  0  0  0  0
 35 65  1  0  0  0  0
 36 37  2  0  0  0  0
 36 66  1  0  0  0  0
 37 38  1  0  0  0  0
 37 67  1  0  0  0  0
 38 68  1  0  0  0  0
M  END
$$$$
