CHEMBL383616
 OpenBabel04072215373D

 46 50  0  0  0  0  0  0  0  0999 V2000
    4.8878   -2.8122    1.4085 F   0  0  0  0  0  0  0  0  0  0  0  0
    5.7381   -1.9399    0.7899 C   0  0  0  0  0  0  0  0  0  0  0  0
    6.9320   -2.5906    0.7241 F   0  0  0  0  0  0  0  0  0  0  0  0
    5.2795   -1.8418   -0.4881 F   0  0  0  0  0  0  0  0  0  0  0  0
    5.8259   -0.6127    1.4911 C   0  0  0  0  0  0  0  0  0  0  0  0
    5.0733   -0.3833    2.6674 C   0  0  0  0  0  0  0  0  0  0  0  0
    5.1547    0.8273    3.3675 C   0  0  0  0  0  0  0  0  0  0  0  0
    4.3373    1.0529    4.4971 N   0  0  0  0  0  0  0  0  0  0  0  0
    4.6363    1.9493    5.5553 C   0  0  0  0  0  0  0  0  0  0  0  0
    5.9213    2.0862    5.9377 N   0  0  0  0  0  0  0  0  0  0  0  0
    6.2729    3.0010    6.8836 N   0  0  0  0  0  0  0  0  0  0  0  0
    5.3726    3.8772    7.3811 C   0  0  0  0  0  0  0  0  0  0  0  0
    5.9668    4.9380    8.2498 C   0  0  0  0  0  0  0  0  0  0  0  0
    5.2911    5.3221    9.4309 C   0  0  0  0  0  0  0  0  0  0  0  0
    5.6738    6.4334   10.1749 C   0  0  0  0  0  0  0  0  0  0  0  0
    6.8102    7.1401    9.8150 C   0  0  0  0  0  0  0  0  0  0  0  0
    7.5987    6.7121    8.7390 C   0  0  0  0  0  0  0  0  0  0  0  0
    8.7989    7.3674    8.4454 C   0  0  0  0  0  0  0  0  0  0  0  0
    9.6505    7.0210    7.4583 N   0  0  0  0  0  0  0  0  0  0  0  0
    9.2805    5.9731    6.7064 C   0  0  0  0  0  0  0  0  0  0  0  0
    8.0931    5.2757    6.8853 C   0  0  0  0  0  0  0  0  0  0  0  0
    7.2026    5.6125    7.9373 C   0  0  0  0  0  0  0  0  0  0  0  0
    3.9953    3.7490    7.0469 C   0  0  0  0  0  0  0  0  0  0  0  0
    2.9575    4.6108    7.5065 C   0  0  0  0  0  0  0  0  0  0  0  0
    1.6099    4.3744    7.2403 C   0  0  0  0  0  0  0  0  0  0  0  0
    1.2484    3.3016    6.4456 C   0  0  0  0  0  0  0  0  0  0  0  0
    2.2417    2.5006    5.8866 C   0  0  0  0  0  0  0  0  0  0  0  0
    3.6165    2.7024    6.1678 C   0  0  0  0  0  0  0  0  0  0  0  0
    5.9665    1.8361    2.8384 C   0  0  0  0  0  0  0  0  0  0  0  0
    6.7099    1.6330    1.6721 C   0  0  0  0  0  0  0  0  0  0  0  0
    6.6435    0.4122    1.0040 C   0  0  0  0  0  0  0  0  0  0  0  0
    7.5828    0.2368   -0.4337 Cl  0  0  0  0  0  0  0  0  0  0  0  0
    4.4223   -1.1736    3.0413 H   0  0  0  0  0  0  0  0  0  0  0  0
    3.8791    0.2273    4.8636 H   0  0  0  0  0  0  0  0  0  0  0  0
    4.4213    4.7632    9.7752 H   0  0  0  0  0  0  0  0  0  0  0  0
    5.0825    6.7481   11.0315 H   0  0  0  0  0  0  0  0  0  0  0  0
    7.0971    8.0108   10.4005 H   0  0  0  0  0  0  0  0  0  0  0  0
    9.1310    8.2193    9.0341 H   0  0  0  0  0  0  0  0  0  0  0  0
    9.9829    5.6833    5.9293 H   0  0  0  0  0  0  0  0  0  0  0  0
    7.9079    4.4483    6.2100 H   0  0  0  0  0  0  0  0  0  0  0  0
    3.1833    5.5026    8.0860 H   0  0  0  0  0  0  0  0  0  0  0  0
    0.8508    5.0353    7.6544 H   0  0  0  0  0  0  0  0  0  0  0  0
    0.1995    3.1086    6.2358 H   0  0  0  0  0  0  0  0  0  0  0  0
    1.9272    1.6993    5.2169 H   0  0  0  0  0  0  0  0  0  0  0  0
    6.0272    2.8104    3.3227 H   0  0  0  0  0  0  0  0  0  0  0  0
    7.3334    2.4404    1.2913 H   0  0  0  0  0  0  0  0  0  0  0  0
  1  2  1  0  0  0  0
  2  3  1  0  0  0  0
  2  4  1  0  0  0  0
  2  5  1  0  0  0  0
  5  6  1  0  0  0  0
  5 31  2  0  0  0  0
  6  7  2  0  0  0  0
  6 33  1  0  0  0  0
  7  8  1  0  0  0  0
  7 29  1  0  0  0  0
  8  9  1  0  0  0  0
  8 34  1  0  0  0  0
  9 10  1  0  0  0  0
  9 28  2  0  0  0  0
 10 11  2  0  0  0  0
 11 12  1  0  0  0  0
 12 13  1  0  0  0  0
 12 23  2  0  0  0  0
 13 14  1  0  0  0  0
 13 22  2  0  0  0  0
 14 15  2  0  0  0  0
 14 35  1  0  0  0  0
 15 16  1  0  0  0  0
 15 36  1  0  0  0  0
 16 17  2  0  0  0  0
 16 37  1  0  0  0  0
 17 18  1  0  0  0  0
 17 22  1  0  0  0  0
 18 19  2  0  0  0  0
 18 38  1  0  0  0  0
 19 20  1  0  0  0  0
 20 21  2  0  0  0  0
 20 39  1  0  0  0  0
 21 22  1  0  0  0  0
 21 40  1  0  0  0  0
 23 24  1  0  0  0  0
 23 28  1  0  0  0  0
 24 25  2  0  0  0  0
 24 41  1  0  0  0  0
 25 26  1  0  0  0  0
 25 42  1  0  0  0  0
 26 27  2  0  0  0  0
 26 43  1  0  0  0  0
 27 28  1  0  0  0  0
 27 44  1  0  0  0  0
 29 30  2  0  0  0  0
 29 45  1  0  0  0  0
 30 31  1  0  0  0  0
 30 46  1  0  0  0  0
 31 32  1  0  0  0  0
M  END
$$$$
