CHEMBL2023800
 OpenBabel04072215363D

 55 58  0  0  0  0  0  0  0  0999 V2000
    7.6771   -0.6524  -12.7907 C   0  0  0  0  0  0  0  0  0  0  0  0
    8.4344   -0.9695  -11.5137 C   0  0  0  0  0  0  0  0  0  0  0  0
    8.3143    0.0905  -10.5314 N   0  0  0  0  0  0  0  0  0  0  0  0
    7.3371    0.2071   -9.5858 C   0  0  0  0  0  0  0  0  0  0  0  0
    7.6010    1.3620   -8.8943 C   0  0  0  0  0  0  0  0  0  0  0  0
    6.8885    1.9261   -7.8500 N   0  0  0  0  0  0  0  0  0  0  0  0
    5.6918    1.4444   -7.3605 C   0  0  0  0  0  0  0  0  0  0  0  0
    5.1198    0.4223   -7.7163 O   0  0  0  0  0  0  0  0  0  0  0  0
    5.1290    2.2605   -6.1979 C   0  0  0  0  0  0  0  0  0  0  0  0
    5.3205    3.7750   -6.3020 C   0  0  0  0  0  0  0  0  0  0  0  0
    4.2100    4.6025   -6.4610 C   0  0  0  0  0  0  0  0  0  0  0  0
    4.4041    6.0024   -6.4737 C   0  0  0  0  0  0  0  0  0  0  0  0
    5.6848    6.5451   -6.2644 C   0  0  0  0  0  0  0  0  0  0  0  0
    6.0190    7.8898   -6.1665 O   0  0  0  0  0  0  0  0  0  0  0  0
    5.0206    8.8069   -5.8564 C   0  0  0  0  0  0  0  0  0  0  0  0
    4.1167    8.5292   -4.8265 C   0  0  0  0  0  0  0  0  0  0  0  0
    2.9211    9.1944   -4.8353 C   0  0  0  0  0  0  0  0  0  0  0  0
    2.5545   10.0219   -5.8273 N   0  0  0  0  0  0  0  0  0  0  0  0
    3.4784   10.3292   -6.7645 C   0  0  0  0  0  0  0  0  0  0  0  0
    3.0344   10.9267   -7.9223 C   0  0  0  0  0  0  0  0  0  0  0  0
    3.9475   11.0826   -8.9453 C   0  0  0  0  0  0  0  0  0  0  0  0
    3.7123   10.5496  -10.1977 O   0  0  0  0  0  0  0  0  0  0  0  0
    3.1795    9.2109  -10.1460 C   0  0  0  0  0  0  0  0  0  0  0  0
    5.2618   11.3531   -8.6312 C   0  0  0  0  0  0  0  0  0  0  0  0
    6.0919   12.1336   -9.3817 O   0  0  0  0  0  0  0  0  0  0  0  0
    5.4517   13.0688  -10.2756 C   0  0  0  0  0  0  0  0  0  0  0  0
    5.7373   10.6217   -7.5499 C   0  0  0  0  0  0  0  0  0  0  0  0
    4.8053    9.9255   -6.7078 C   0  0  0  0  0  0  0  0  0  0  0  0
    6.7104    5.6219   -6.1546 C   0  0  0  0  0  0  0  0  0  0  0  0
    6.5740    4.2627   -6.1815 N   0  0  0  0  0  0  0  0  0  0  0  0
    8.7764    1.8643   -9.4959 C   0  0  0  0  0  0  0  0  0  0  0  0
    9.2124    1.0937  -10.4985 N   0  0  0  0  0  0  0  0  0  0  0  0
    7.7395   -1.4919  -13.4901 H   0  0  0  0  0  0  0  0  0  0  0  0
    8.0900    0.2341  -13.2827 H   0  0  0  0  0  0  0  0  0  0  0  0
    6.6189   -0.4571  -12.5856 H   0  0  0  0  0  0  0  0  0  0  0  0
    9.5008   -1.1202  -11.7173 H   0  0  0  0  0  0  0  0  0  0  0  0
    8.0471   -1.8858  -11.0553 H   0  0  0  0  0  0  0  0  0  0  0  0
    6.5496   -0.5292   -9.4951 H   0  0  0  0  0  0  0  0  0  0  0  0
    7.2528    2.7903   -7.4517 H   0  0  0  0  0  0  0  0  0  0  0  0
    5.5904    1.8980   -5.2721 H   0  0  0  0  0  0  0  0  0  0  0  0
    4.0548    2.0152   -6.1275 H   0  0  0  0  0  0  0  0  0  0  0  0
    3.2050    4.2041   -6.5786 H   0  0  0  0  0  0  0  0  0  0  0  0
    3.5296    6.6254   -6.6241 H   0  0  0  0  0  0  0  0  0  0  0  0
    4.3075    7.7430   -4.1049 H   0  0  0  0  0  0  0  0  0  0  0  0
    2.1641    9.0070   -4.0842 H   0  0  0  0  0  0  0  0  0  0  0  0
    1.9746   11.0041   -8.1208 H   0  0  0  0  0  0  0  0  0  0  0  0
    3.9516    8.4592  -10.3720 H   0  0  0  0  0  0  0  0  0  0  0  0
    2.4063    9.1537  -10.9104 H   0  0  0  0  0  0  0  0  0  0  0  0
    2.7220    8.9181   -9.1919 H   0  0  0  0  0  0  0  0  0  0  0  0
    6.0923   13.1803  -11.1561 H   0  0  0  0  0  0  0  0  0  0  0  0
    5.3484   14.0587   -9.8118 H   0  0  0  0  0  0  0  0  0  0  0  0
    4.4676   12.7669  -10.6459 H   0  0  0  0  0  0  0  0  0  0  0  0
    6.8040   10.5818   -7.3450 H   0  0  0  0  0  0  0  0  0  0  0  0
    7.7435    5.9525   -6.0510 H   0  0  0  0  0  0  0  0  0  0  0  0
    9.3299    2.7629   -9.2545 H   0  0  0  0  0  0  0  0  0  0  0  0
  1  2  1  0  0  0  0
  1 33  1  0  0  0  0
  1 34  1  0  0  0  0
  1 35  1  0  0  0  0
  2  3  1  0  0  0  0
  2 36  1  0  0  0  0
  2 37  1  0  0  0  0
  3  4  1  0  0  0  0
  3 32  1  0  0  0  0
  4  5  2  0  0  0  0
  4 38  1  0  0  0  0
  5  6  1  0  0  0  0
  5 31  1  0  0  0  0
  6  7  1  0  0  0  0
  6 39  1  0  0  0  0
  7  8  2  0  0  0  0
  7  9  1  0  0  0  0
  9 10  1  0  0  0  0
  9 40  1  0  0  0  0
  9 41  1  0  0  0  0
 10 11  1  0  0  0  0
 10 30  2  0  0  0  0
 11 12  2  0  0  0  0
 11 42  1  0  0  0  0
 12 13  1  0  0  0  0
 12 43  1  0  0  0  0
 13 14  1  0  0  0  0
 13 29  2  0  0  0  0
 14 15  1  0  0  0  0
 15 16  1  0  0  0  0
 15 28  2  0  0  0  0
 16 17  2  0  0  0  0
 16 44  1  0  0  0  0
 17 18  1  0  0  0  0
 17 45  1  0  0  0  0
 18 19  2  0  0  0  0
 19 20  1  0  0  0  0
 19 28  1  0  0  0  0
 20 21  2  0  0  0  0
 20 46  1  0  0  0  0
 21 22  1  0  0  0  0
 21 24  1  0  0  0  0
 22 23  1  0  0  0  0
 23 47  1  0  0  0  0
 23 48  1  0  0  0  0
 23 49  1  0  0  0  0
 24 25  1  0  0  0  0
 24 27  2  0  0  0  0
 25 26  1  0  0  0  0
 26 50  1  0  0  0  0
 26 51  1  0  0  0  0
 26 52  1  0  0  0  0
 27 28  1  0  0  0  0
 27 53  1  0  0  0  0
 29 30  1  0  0  0  0
 29 54  1  0  0  0  0
 31 32  2  0  0  0  0
 31 55  1  0  0  0  0
M  END
$$$$
