CHEMBL191913
 OpenBabel04072215363D

 58 62  0  0  0  0  0  0  0  0999 V2000
   -1.4222   -4.1172   -8.8090 C   0  0  0  0  0  0  0  0  0  0  0  0
   -1.8372   -3.2522   -7.7540 O   0  0  0  0  0  0  0  0  0  0  0  0
   -0.7068   -2.9691   -6.9527 N   0  0  0  0  0  0  0  0  0  0  0  0
   -0.0194   -1.8247   -7.2890 C   0  0  0  0  0  0  0  0  0  0  0  0
   -0.2020   -1.1666   -8.3092 O   0  0  0  0  0  0  0  0  0  0  0  0
    1.0468   -1.4055   -6.3515 C   0  0  0  0  0  0  0  0  0  0  0  0
    2.1416   -0.6968   -6.8718 C   0  0  0  0  0  0  0  0  0  0  0  0
    3.1428   -0.1971   -6.0307 C   0  0  0  0  0  0  0  0  0  0  0  0
    4.2504    0.5309   -6.5156 N   0  0  0  0  0  0  0  0  0  0  0  0
    4.7321    0.5275   -7.8027 C   0  0  0  0  0  0  0  0  0  0  0  0
    4.7260   -0.6077   -8.4573 N   0  0  0  0  0  0  0  0  0  0  0  0
    5.2194   -0.6840   -9.7236 C   0  0  0  0  0  0  0  0  0  0  0  0
    5.7245    0.2882  -10.4084 N   0  0  0  0  0  0  0  0  0  0  0  0
    5.7305    1.4607   -9.7634 N   0  0  0  0  0  0  0  0  0  0  0  0
    6.1884    2.6149  -10.3198 C   0  0  0  0  0  0  0  0  0  0  0  0
    6.0489    3.6230   -9.3934 C   0  0  0  0  0  0  0  0  0  0  0  0
    6.4668    5.0295   -9.6985 C   0  0  0  0  0  0  0  0  0  0  0  0
    6.4209    6.0378   -8.8478 N   0  0  0  0  0  0  0  0  0  0  0  0
    6.8624    7.1618   -9.5130 N   0  0  0  0  0  0  0  0  0  0  0  0
    7.1532    6.7723  -10.7338 C   0  0  0  0  0  0  0  0  0  0  0  0
    7.6610    7.5659  -11.8842 C   0  0  0  0  0  0  0  0  0  0  0  0
    6.5928    8.1823  -12.7494 C   0  0  0  0  0  0  0  0  0  0  0  0
    5.6818    7.3232  -13.5911 C   0  0  0  0  0  0  0  0  0  0  0  0
    6.7201    8.1832  -14.2545 C   0  0  0  0  0  0  0  0  0  0  0  0
    6.9467    5.4324  -10.9278 O   0  0  0  0  0  0  0  0  0  0  0  0
    5.4461    3.0543   -8.2036 C   0  0  0  0  0  0  0  0  0  0  0  0
    5.0615    3.8704   -6.9827 C   0  0  0  0  0  0  0  0  0  0  0  0
    3.5616    3.8670   -6.6895 C   0  0  0  0  0  0  0  0  0  0  0  0
    5.9079    3.5844   -5.7421 C   0  0  0  0  0  0  0  0  0  0  0  0
    5.2792    1.6842   -8.4851 C   0  0  0  0  0  0  0  0  0  0  0  0
    3.0322   -0.4650   -4.6543 C   0  0  0  0  0  0  0  0  0  0  0  0
    3.9722   -0.0031   -3.8162 F   0  0  0  0  0  0  0  0  0  0  0  0
    1.9692   -1.1952   -4.1278 C   0  0  0  0  0  0  0  0  0  0  0  0
    0.9796   -1.6592   -4.9843 C   0  0  0  0  0  0  0  0  0  0  0  0
   -0.0507   -2.3424   -4.4622 F   0  0  0  0  0  0  0  0  0  0  0  0
   -2.2949   -4.3633   -9.4186 H   0  0  0  0  0  0  0  0  0  0  0  0
   -1.0041   -5.0419   -8.3987 H   0  0  0  0  0  0  0  0  0  0  0  0
   -0.6817   -3.6220   -9.4456 H   0  0  0  0  0  0  0  0  0  0  0  0
   -0.7672   -3.2832   -5.9890 H   0  0  0  0  0  0  0  0  0  0  0  0
    2.1838   -0.5117   -7.9442 H   0  0  0  0  0  0  0  0  0  0  0  0
    4.4917    1.3048   -5.9181 H   0  0  0  0  0  0  0  0  0  0  0  0
    5.1868   -1.6822  -10.1913 H   0  0  0  0  0  0  0  0  0  0  0  0
    6.5718    2.6173  -11.3299 H   0  0  0  0  0  0  0  0  0  0  0  0
    8.3280    6.9388  -12.4872 H   0  0  0  0  0  0  0  0  0  0  0  0
    8.2837    8.3794  -11.4908 H   0  0  0  0  0  0  0  0  0  0  0  0
    6.1563    9.0607  -12.2824 H   0  0  0  0  0  0  0  0  0  0  0  0
    4.6430    7.6227  -13.6758 H   0  0  0  0  0  0  0  0  0  0  0  0
    5.8325    6.2493  -13.5985 H   0  0  0  0  0  0  0  0  0  0  0  0
    6.3764    9.0579  -14.7971 H   0  0  0  0  0  0  0  0  0  0  0  0
    7.5584    7.6788  -14.7225 H   0  0  0  0  0  0  0  0  0  0  0  0
    5.2734    4.9197   -7.2035 H   0  0  0  0  0  0  0  0  0  0  0  0
    3.1547    2.8686   -6.5313 H   0  0  0  0  0  0  0  0  0  0  0  0
    3.0095    4.3119   -7.5254 H   0  0  0  0  0  0  0  0  0  0  0  0
    3.3415    4.4614   -5.7958 H   0  0  0  0  0  0  0  0  0  0  0  0
    5.7384    2.5965   -5.3153 H   0  0  0  0  0  0  0  0  0  0  0  0
    5.6816    4.3161   -4.9571 H   0  0  0  0  0  0  0  0  0  0  0  0
    6.9767    3.6652   -5.9681 H   0  0  0  0  0  0  0  0  0  0  0  0
    1.9099   -1.3877   -3.0626 H   0  0  0  0  0  0  0  0  0  0  0  0
  1  2  1  0  0  0  0
  1 36  1  0  0  0  0
  1 37  1  0  0  0  0
  1 38  1  0  0  0  0
  2  3  1  0  0  0  0
  3  4  1  0  0  0  0
  3 39  1  0  0  0  0
  4  5  2  0  0  0  0
  4  6  1  0  0  0  0
  6  7  1  0  0  0  0
  6 34  2  0  0  0  0
  7  8  2  0  0  0  0
  7 40  1  0  0  0  0
  8  9  1  0  0  0  0
  8 31  1  0  0  0  0
  9 10  1  0  0  0  0
  9 41  1  0  0  0  0
 10 11  2  0  0  0  0
 10 30  1  0  0  0  0
 11 12  1  0  0  0  0
 12 13  2  0  0  0  0
 12 42  1  0  0  0  0
 13 14  1  0  0  0  0
 14 15  1  0  0  0  0
 14 30  1  0  0  0  0
 15 16  2  0  0  0  0
 15 43  1  0  0  0  0
 16 17  1  0  0  0  0
 16 26  1  0  0  0  0
 17 18  2  0  0  0  0
 17 25  1  0  0  0  0
 18 19  1  0  0  0  0
 19 20  2  0  0  0  0
 20 21  1  0  0  0  0
 20 25  1  0  0  0  0
 21 22  1  0  0  0  0
 21 44  1  0  0  0  0
 21 45  1  0  0  0  0
 22 23  1  0  0  0  0
 22 24  1  0  0  0  0
 22 46  1  0  0  0  0
 23 24  1  0  0  0  0
 23 47  1  0  0  0  0
 23 48  1  0  0  0  0
 24 49  1  0  0  0  0
 24 50  1  0  0  0  0
 26 27  1  0  0  0  0
 26 30  2  0  0  0  0
 27 28  1  0  0  0  0
 27 29  1  0  0  0  0
 27 51  1  0  0  0  0
 28 52  1  0  0  0  0
 28 53  1  0  0  0  0
 28 54  1  0  0  0  0
 29 55  1  0  0  0  0
 29 56  1  0  0  0  0
 29 57  1  0  0  0  0
 31 32  1  0  0  0  0
 31 33  2  0  0  0  0
 33 34  1  0  0  0  0
 33 58  1  0  0  0  0
 34 35  1  0  0  0  0
M  END
$$$$
