CHEMBL1989267
 OpenBabel04072215363D

 73 77  0  0  0  0  0  0  0  0999 V2000
    2.1400    1.3477   -1.3017 C   0  0  0  0  0  0  0  0  0  0  0  0
    2.9877    0.5959   -0.4294 O   0  0  0  0  0  0  0  0  0  0  0  0
    3.3600   -0.6467   -0.8882 C   0  0  0  0  0  0  0  0  0  0  0  0
    3.2055   -1.0429   -2.2245 C   0  0  0  0  0  0  0  0  0  0  0  0
    3.6881   -2.2680   -2.7018 C   0  0  0  0  0  0  0  0  0  0  0  0
    3.4004   -2.6713   -4.0880 C   0  0  0  0  0  0  0  0  0  0  0  0
    3.3777   -1.7051   -5.0764 C   0  0  0  0  0  0  0  0  0  0  0  0
    2.9765   -2.3068   -6.6012 S   0  0  0  0  0  0  0  0  0  0  0  0
    2.8329   -3.9279   -6.0163 C   0  0  0  0  0  0  0  0  0  0  0  0
    2.5228   -5.0750   -6.7776 C   0  0  0  0  0  0  0  0  0  0  0  0
    2.3643   -4.9914   -8.2341 C   0  0  0  0  0  0  0  0  0  0  0  0
    1.5671   -5.7933   -8.9548 C   0  0  0  0  0  0  0  0  0  0  0  0
    1.5033   -5.6093  -10.4232 C   0  0  0  0  0  0  0  0  0  0  0  0
    2.1040   -4.6983  -11.0008 O   0  0  0  0  0  0  0  0  0  0  0  0
    0.7285   -6.5477  -11.0672 N   0  0  0  0  0  0  0  0  0  0  0  0
    0.5240   -6.4773  -12.4902 C   0  0  0  0  0  0  0  0  0  0  0  0
    0.1834   -7.8537  -13.0958 C   0  0  0  0  0  0  0  0  0  0  0  0
   -1.0376   -8.4959  -12.5546 N   0  0  0  0  0  0  0  0  0  0  0  0
   -2.2363   -7.6957  -12.8263 C   0  0  0  0  0  0  0  0  0  0  0  0
   -1.1994   -9.8204  -13.1717 C   0  0  0  0  0  0  0  0  0  0  0  0
    2.4598   -6.2562   -6.0622 C   0  0  0  0  0  0  0  0  0  0  0  0
    2.6120   -6.3593   -4.7333 N   0  0  0  0  0  0  0  0  0  0  0  0
    2.8881   -5.2643   -3.9989 C   0  0  0  0  0  0  0  0  0  0  0  0
    2.9937   -5.5140   -2.6409 N   0  0  0  0  0  0  0  0  0  0  0  0
    3.0458   -3.9915   -4.6229 C   0  0  0  0  0  0  0  0  0  0  0  0
    4.4152   -3.0609   -1.8190 C   0  0  0  0  0  0  0  0  0  0  0  0
    4.4717   -2.7396   -0.4563 C   0  0  0  0  0  0  0  0  0  0  0  0
    3.8912   -1.5648    0.0341 C   0  0  0  0  0  0  0  0  0  0  0  0
    3.8095   -1.2989    1.4278 N   0  0  0  0  0  0  0  0  0  0  0  0
    3.8027   -2.2627    2.4383 C   0  0  0  0  0  0  0  0  0  0  0  0
    3.7032   -3.4711    2.2291 O   0  0  0  0  0  0  0  0  0  0  0  0
    4.0245   -1.7498    3.7939 C   0  0  0  0  0  0  0  0  0  0  0  0
    4.5834   -0.5178    4.1402 C   0  0  0  0  0  0  0  0  0  0  0  0
    5.9299   -0.9268    4.4246 C   0  0  0  0  0  0  0  0  0  0  0  0
    7.1854   -0.3336    4.2377 C   0  0  0  0  0  0  0  0  0  0  0  0
    8.3194   -1.1479    4.3492 C   0  0  0  0  0  0  0  0  0  0  0  0
    8.2196   -2.4818    4.7692 C   0  0  0  0  0  0  0  0  0  0  0  0
    6.9906   -3.0579    5.0830 C   0  0  0  0  0  0  0  0  0  0  0  0
    5.8718   -2.2660    4.8336 C   0  0  0  0  0  0  0  0  0  0  0  0
    4.5304   -2.5321    4.8275 N   0  0  0  0  0  0  0  0  0  0  0  0
    3.8326   -3.4200    5.7266 C   0  0  0  0  0  0  0  0  0  0  0  0
    1.9849    2.3396   -0.8709 H   0  0  0  0  0  0  0  0  0  0  0  0
    1.1691    0.8475   -1.3816 H   0  0  0  0  0  0  0  0  0  0  0  0
    2.5771    1.5117   -2.2953 H   0  0  0  0  0  0  0  0  0  0  0  0
    2.6755   -0.4092   -2.9244 H   0  0  0  0  0  0  0  0  0  0  0  0
    3.5719   -0.6451   -4.9843 H   0  0  0  0  0  0  0  0  0  0  0  0
    2.9411   -4.2172   -8.7379 H   0  0  0  0  0  0  0  0  0  0  0  0
    0.9649   -6.5750   -8.5151 H   0  0  0  0  0  0  0  0  0  0  0  0
    0.1623   -7.2002  -10.5390 H   0  0  0  0  0  0  0  0  0  0  0  0
    1.4344   -6.0918  -12.9723 H   0  0  0  0  0  0  0  0  0  0  0  0
   -0.2682   -5.7482  -12.6759 H   0  0  0  0  0  0  0  0  0  0  0  0
    1.0352   -8.5149  -12.8889 H   0  0  0  0  0  0  0  0  0  0  0  0
    0.1126   -7.7483  -14.1855 H   0  0  0  0  0  0  0  0  0  0  0  0
   -2.2045   -6.7412  -12.2927 H   0  0  0  0  0  0  0  0  0  0  0  0
   -3.1326   -8.2114  -12.4626 H   0  0  0  0  0  0  0  0  0  0  0  0
   -2.3664   -7.4954  -13.8961 H   0  0  0  0  0  0  0  0  0  0  0  0
   -0.3380  -10.4605  -12.9513 H   0  0  0  0  0  0  0  0  0  0  0  0
   -1.3116   -9.7575  -14.2612 H   0  0  0  0  0  0  0  0  0  0  0  0
   -2.0810  -10.3302  -12.7670 H   0  0  0  0  0  0  0  0  0  0  0  0
    2.2786   -7.2054   -6.5566 H   0  0  0  0  0  0  0  0  0  0  0  0
    2.6608   -6.4448   -2.4197 H   0  0  0  0  0  0  0  0  0  0  0  0
    2.6644   -4.7766   -2.0324 H   0  0  0  0  0  0  0  0  0  0  0  0
    4.8968   -3.9777   -2.1534 H   0  0  0  0  0  0  0  0  0  0  0  0
    4.9852   -3.4292    0.2099 H   0  0  0  0  0  0  0  0  0  0  0  0
    3.5909   -0.3424    1.6759 H   0  0  0  0  0  0  0  0  0  0  0  0
    4.3402    0.4375    3.6975 H   0  0  0  0  0  0  0  0  0  0  0  0
    7.2618    0.6868    3.8773 H   0  0  0  0  0  0  0  0  0  0  0  0
    9.2826   -0.7449    4.0630 H   0  0  0  0  0  0  0  0  0  0  0  0
    9.1199   -3.0917    4.8078 H   0  0  0  0  0  0  0  0  0  0  0  0
    6.9081   -4.1023    5.3680 H   0  0  0  0  0  0  0  0  0  0  0  0
    4.4539   -3.5639    6.6185 H   0  0  0  0  0  0  0  0  0  0  0  0
    3.6502   -4.3782    5.2396 H   0  0  0  0  0  0  0  0  0  0  0  0
    2.8996   -2.9455    6.0407 H   0  0  0  0  0  0  0  0  0  0  0  0
  1  2  1  0  0  0  0
  1 42  1  0  0  0  0
  1 43  1  0  0  0  0
  1 44  1  0  0  0  0
  2  3  1  0  0  0  0
  3  4  1  0  0  0  0
  3 28  2  0  0  0  0
  4  5  2  0  0  0  0
  4 45  1  0  0  0  0
  5  6  1  0  0  0  0
  5 26  1  0  0  0  0
  6  7  2  0  0  0  0
  6 25  1  0  0  0  0
  7  8  1  0  0  0  0
  7 46  1  0  0  0  0
  8  9  1  0  0  0  0
  9 10  1  0  0  0  0
  9 25  2  0  0  0  0
 10 11  1  0  0  0  0
 10 21  2  0  0  0  0
 11 12  2  3  0  0  0
 11 47  1  0  0  0  0
 12 13  1  0  0  0  0
 12 48  1  0  0  0  0
 13 14  2  0  0  0  0
 13 15  1  0  0  0  0
 15 16  1  0  0  0  0
 15 49  1  0  0  0  0
 16 17  1  0  0  0  0
 16 50  1  0  0  0  0
 16 51  1  0  0  0  0
 17 18  1  0  0  0  0
 17 52  1  0  0  0  0
 17 53  1  0  0  0  0
 18 19  1  0  0  0  0
 18 20  1  0  0  0  0
 19 54  1  0  0  0  0
 19 55  1  0  0  0  0
 19 56  1  0  0  0  0
 20 57  1  0  0  0  0
 20 58  1  0  0  0  0
 20 59  1  0  0  0  0
 21 22  1  0  0  0  0
 21 60  1  0  0  0  0
 22 23  2  0  0  0  0
 23 24  1  0  0  0  0
 23 25  1  0  0  0  0
 24 61  1  0  0  0  0
 24 62  1  0  0  0  0
 26 27  2  0  0  0  0
 26 63  1  0  0  0  0
 27 28  1  0  0  0  0
 27 64  1  0  0  0  0
 28 29  1  0  0  0  0
 29 30  1  0  0  0  0
 29 65  1  0  0  0  0
 30 31  2  0  0  0  0
 30 32  1  0  0  0  0
 32 33  2  0  0  0  0
 32 40  1  0  0  0  0
 33 34  1  0  0  0  0
 33 66  1  0  0  0  0
 34 35  1  0  0  0  0
 34 39  2  0  0  0  0
 35 36  2  0  0  0  0
 35 67  1  0  0  0  0
 36 37  1  0  0  0  0
 36 68  1  0  0  0  0
 37 38  2  0  0  0  0
 37 69  1  0  0  0  0
 38 39  1  0  0  0  0
 38 70  1  0  0  0  0
 39 40  1  0  0  0  0
 40 41  1  0  0  0  0
 41 71  1  0  0  0  0
 41 72  1  0  0  0  0
 41 73  1  0  0  0  0
M  END
$$$$
