CHEMBL231139
 OpenBabel04072215363D

 48 51  0  0  1  0  0  0  0  0999 V2000
    3.4884   -1.3751   -1.0537 O   0  0  0  0  0  0  0  0  0  0  0  0
    4.3894   -0.6963   -1.5249 C   0  0  0  0  0  0  0  0  0  0  0  0
    4.8973   -0.9112   -2.7643 O   0  0  0  0  0  0  0  0  0  0  0  0
    5.0437    0.4771   -0.8522 C   0  0  0  0  0  0  0  0  0  0  0  0
    4.5170    0.8155    0.5430 C   0  0  0  0  0  0  0  0  0  0  0  0
    5.2977    1.9594    1.2393 C   0  0  3  0  0  0  0  0  0  0  0  0
    4.7113    2.2007    2.6673 C   0  0  0  0  0  0  0  0  0  0  0  0
    5.2206    3.5032    3.3168 C   0  0  0  0  0  0  0  0  0  0  0  0
    4.8220    4.7399    2.4943 C   0  0  0  0  0  0  0  0  0  0  0  0
    5.1205    4.4918    1.0591 C   0  0  0  0  0  0  0  0  0  0  0  0
    5.2899    5.4755    0.1197 N   0  0  0  0  0  0  0  0  0  0  0  0
    5.6723    4.9039   -1.0688 C   0  0  0  0  0  0  0  0  0  0  0  0
    5.9923    5.7226   -2.1757 C   0  0  0  0  0  0  0  0  0  0  0  0
    7.2583    6.0815   -2.4404 C   0  0  0  0  0  0  0  0  0  0  0  0
    8.4818    5.7081   -1.6275 C   0  0  0  0  0  0  0  0  0  0  0  0
    8.5684    5.0540   -0.6073 O   0  0  0  0  0  0  0  0  0  0  0  0
    9.5399    6.2956   -2.2929 N   0  0  0  0  0  0  0  0  0  0  0  0
    9.1162    7.0065   -3.4048 C   0  0  0  0  0  0  0  0  0  0  0  0
    9.9289    7.7248   -4.2562 C   0  0  0  0  0  0  0  0  0  0  0  0
    9.3106    8.3933   -5.3124 C   0  0  0  0  0  0  0  0  0  0  0  0
    7.9076    8.3310   -5.4935 C   0  0  0  0  0  0  0  0  0  0  0  0
    7.3633    9.0627   -6.6710 C   0  0  0  0  0  0  0  0  0  0  0  0
    8.0262    9.2681   -7.6754 O   0  0  0  0  0  0  0  0  0  0  0  0
    6.1086    9.5249   -6.5165 O   0  0  0  0  0  0  0  0  0  0  0  0
    7.1036    7.5760   -4.6169 C   0  0  0  0  0  0  0  0  0  0  0  0
    7.7277    6.9213   -3.5592 C   0  0  0  0  0  0  0  0  0  0  0  0
    5.7444    3.5427   -0.8641 C   0  0  0  0  0  0  0  0  0  0  0  0
    5.3379    3.2611    0.4669 C   0  0  0  0  0  0  0  0  0  0  0  0
    5.5952   -0.2752   -3.0133 H   0  0  0  0  0  0  0  0  0  0  0  0
    4.8217    1.3054   -1.5275 H   0  0  0  0  0  0  0  0  0  0  0  0
    6.1213    0.2905   -0.8107 H   0  0  0  0  0  0  0  0  0  0  0  0
    4.5727   -0.0838    1.1722 H   0  0  0  0  0  0  0  0  0  0  0  0
    3.4529    1.0741    0.4726 H   0  0  0  0  0  0  0  0  0  0  0  0
    6.3400    1.6350    1.3688 H   0  0  0  0  0  0  0  0  0  0  0  0
    4.9635    1.3518    3.3149 H   0  0  0  0  0  0  0  0  0  0  0  0
    3.6149    2.2466    2.6215 H   0  0  0  0  0  0  0  0  0  0  0  0
    6.3135    3.4547    3.4094 H   0  0  0  0  0  0  0  0  0  0  0  0
    4.8203    3.5997    4.3330 H   0  0  0  0  0  0  0  0  0  0  0  0
    5.3642    5.6183    2.8619 H   0  0  0  0  0  0  0  0  0  0  0  0
    3.7499    4.9347    2.6126 H   0  0  0  0  0  0  0  0  0  0  0  0
    5.2382    6.4688    0.3011 H   0  0  0  0  0  0  0  0  0  0  0  0
    5.1768    6.0085   -2.8317 H   0  0  0  0  0  0  0  0  0  0  0  0
   10.4888    6.2098   -1.9625 H   0  0  0  0  0  0  0  0  0  0  0  0
   11.0017    7.7697   -4.1190 H   0  0  0  0  0  0  0  0  0  0  0  0
    9.9228    8.9636   -6.0086 H   0  0  0  0  0  0  0  0  0  0  0  0
    5.7367    9.4657   -5.6194 H   0  0  0  0  0  0  0  0  0  0  0  0
    6.0357    7.4744   -4.7712 H   0  0  0  0  0  0  0  0  0  0  0  0
    6.1105    2.8537   -1.6094 H   0  0  0  0  0  0  0  0  0  0  0  0
  1  2  2  0  0  0  0
  2  3  1  0  0  0  0
  2  4  1  0  0  0  0
  3 29  1  0  0  0  0
  4  5  1  0  0  0  0
  4 30  1  0  0  0  0
  4 31  1  0  0  0  0
  5  6  1  0  0  0  0
  5 32  1  0  0  0  0
  5 33  1  0  0  0  0
  6  7  1  0  0  0  0
  6 28  1  0  0  0  0
  6 34  1  0  0  0  0
  7  8  1  0  0  0  0
  7 35  1  0  0  0  0
  7 36  1  0  0  0  0
  8  9  1  0  0  0  0
  8 37  1  0  0  0  0
  8 38  1  0  0  0  0
  9 10  1  0  0  0  0
  9 39  1  0  0  0  0
  9 40  1  0  0  0  0
 10 11  1  0  0  0  0
 10 28  2  0  0  0  0
 11 12  1  0  0  0  0
 11 41  1  0  0  0  0
 12 13  1  0  0  0  0
 12 27  2  0  0  0  0
 13 14  2  0  0  0  0
 13 42  1  0  0  0  0
 14 15  1  0  0  0  0
 14 26  1  0  0  0  0
 15 16  2  0  0  0  0
 15 17  1  0  0  0  0
 17 18  1  0  0  0  0
 17 43  1  0  0  0  0
 18 19  1  0  0  0  0
 18 26  2  0  0  0  0
 19 20  2  0  0  0  0
 19 44  1  0  0  0  0
 20 21  1  0  0  0  0
 20 45  1  0  0  0  0
 21 22  1  0  0  0  0
 21 25  2  0  0  0  0
 22 23  2  0  0  0  0
 22 24  1  0  0  0  0
 24 46  1  0  0  0  0
 25 26  1  0  0  0  0
 25 47  1  0  0  0  0
 27 28  1  0  0  0  0
 27 48  1  0  0  0  0
M  END
$$$$
