CHEMBL196363
 OpenBabel04072215363D

 44 47  0  0  0  0  0  0  0  0999 V2000
    2.3525   -0.4325    1.5656 C   0  0  0  0  0  0  0  0  0  0  0  0
    0.8562   -0.3182    1.5341 C   0  0  0  0  0  0  0  0  0  0  0  0
    0.2473    0.8741    1.9516 C   0  0  0  0  0  0  0  0  0  0  0  0
   -1.1304    0.9884    1.9344 C   0  0  0  0  0  0  0  0  0  0  0  0
   -1.9167   -0.0765    1.4904 C   0  0  0  0  0  0  0  0  0  0  0  0
   -1.3404   -1.2706    1.0478 C   0  0  0  0  0  0  0  0  0  0  0  0
   -2.1021   -2.3774    0.5869 N   0  0  0  0  0  0  0  0  0  0  0  0
   -3.4688   -2.3796    0.3799 C   0  0  0  0  0  0  0  0  0  0  0  0
   -4.1970   -1.3965    0.4845 O   0  0  0  0  0  0  0  0  0  0  0  0
   -3.9639   -3.6468    0.0783 N   0  0  0  0  0  0  0  0  0  0  0  0
   -5.3520   -3.8291   -0.1487 C   0  0  0  0  0  0  0  0  0  0  0  0
   -6.0900   -2.9147   -0.9037 C   0  0  0  0  0  0  0  0  0  0  0  0
   -7.4852   -2.9876   -0.9459 C   0  0  0  0  0  0  0  0  0  0  0  0
   -8.1728   -3.9996   -0.2601 C   0  0  0  0  0  0  0  0  0  0  0  0
   -9.6426   -3.9866   -0.1908 C   0  0  0  0  0  0  0  0  0  0  0  0
  -10.3758   -3.5936   -1.3007 C   0  0  0  0  0  0  0  0  0  0  0  0
  -12.0578   -3.5982   -1.0366 S   0  0  0  0  0  0  0  0  0  0  0  0
  -11.8568   -4.1326    0.5637 C   0  0  0  0  0  0  0  0  0  0  0  0
  -12.9444   -4.3356    1.3260 N   0  0  0  0  0  0  0  0  0  0  0  0
  -12.6356   -4.7447    2.5535 C   0  0  0  0  0  0  0  0  0  0  0  0
  -11.4116   -4.9363    3.0590 N   0  0  0  0  0  0  0  0  0  0  0  0
  -10.3417   -4.7062    2.2739 C   0  0  0  0  0  0  0  0  0  0  0  0
   -9.1149   -4.8813    2.9045 N   0  0  0  0  0  0  0  0  0  0  0  0
  -10.5255   -4.2987    0.9330 C   0  0  0  0  0  0  0  0  0  0  0  0
   -7.4129   -4.9899    0.3757 C   0  0  0  0  0  0  0  0  0  0  0  0
   -6.0126   -4.9024    0.4446 C   0  0  0  0  0  0  0  0  0  0  0  0
    0.0562   -1.3830    1.0767 C   0  0  0  0  0  0  0  0  0  0  0  0
    2.8173    0.4780    1.9636 H   0  0  0  0  0  0  0  0  0  0  0  0
    2.7452   -0.5884    0.5553 H   0  0  0  0  0  0  0  0  0  0  0  0
    2.6562   -1.2642    2.2092 H   0  0  0  0  0  0  0  0  0  0  0  0
    0.8468    1.7107    2.3064 H   0  0  0  0  0  0  0  0  0  0  0  0
   -1.6136    1.9059    2.2621 H   0  0  0  0  0  0  0  0  0  0  0  0
   -2.9913    0.0743    1.5080 H   0  0  0  0  0  0  0  0  0  0  0  0
   -1.5911   -3.1793    0.2500 H   0  0  0  0  0  0  0  0  0  0  0  0
   -3.4793   -4.4047    0.5375 H   0  0  0  0  0  0  0  0  0  0  0  0
   -5.5932   -2.1008   -1.4282 H   0  0  0  0  0  0  0  0  0  0  0  0
   -8.0152   -2.2087   -1.4897 H   0  0  0  0  0  0  0  0  0  0  0  0
  -10.0107   -3.2938   -2.2740 H   0  0  0  0  0  0  0  0  0  0  0  0
  -13.4678   -4.9378    3.2231 H   0  0  0  0  0  0  0  0  0  0  0  0
   -9.2634   -4.9689    3.9047 H   0  0  0  0  0  0  0  0  0  0  0  0
   -8.4239   -4.1896    2.6383 H   0  0  0  0  0  0  0  0  0  0  0  0
   -7.9024   -5.8244    0.8740 H   0  0  0  0  0  0  0  0  0  0  0  0
   -5.4723   -5.6366    1.0353 H   0  0  0  0  0  0  0  0  0  0  0  0
    0.5449   -2.2969    0.7489 H   0  0  0  0  0  0  0  0  0  0  0  0
  1  2  1  0  0  0  0
  1 28  1  0  0  0  0
  1 29  1  0  0  0  0
  1 30  1  0  0  0  0
  2  3  1  0  0  0  0
  2 27  2  0  0  0  0
  3  4  2  0  0  0  0
  3 31  1  0  0  0  0
  4  5  1  0  0  0  0
  4 32  1  0  0  0  0
  5  6  2  0  0  0  0
  5 33  1  0  0  0  0
  6  7  1  0  0  0  0
  6 27  1  0  0  0  0
  7  8  1  0  0  0  0
  7 34  1  0  0  0  0
  8  9  2  0  0  0  0
  8 10  1  0  0  0  0
 10 11  1  0  0  0  0
 10 35  1  0  0  0  0
 11 12  1  0  0  0  0
 11 26  2  0  0  0  0
 12 13  2  0  0  0  0
 12 36  1  0  0  0  0
 13 14  1  0  0  0  0
 13 37  1  0  0  0  0
 14 15  1  0  0  0  0
 14 25  2  0  0  0  0
 15 16  2  0  0  0  0
 15 24  1  0  0  0  0
 16 17  1  0  0  0  0
 16 38  1  0  0  0  0
 17 18  1  0  0  0  0
 18 19  1  0  0  0  0
 18 24  2  0  0  0  0
 19 20  2  0  0  0  0
 20 21  1  0  0  0  0
 20 39  1  0  0  0  0
 21 22  2  0  0  0  0
 22 23  1  0  0  0  0
 22 24  1  0  0  0  0
 23 40  1  0  0  0  0
 23 41  1  0  0  0  0
 25 26  1  0  0  0  0
 25 42  1  0  0  0  0
 26 43  1  0  0  0  0
 27 44  1  0  0  0  0
M  END
$$$$
