CHEMBL186369
 OpenBabel04072215363D

 58 60  0  0  0  0  0  0  0  0999 V2000
    9.1627   -4.4092   -7.7979 C   0  0  0  0  0  0  0  0  0  0  0  0
    9.5519   -3.7076   -6.5123 C   0  0  0  0  0  0  0  0  0  0  0  0
    9.2683   -4.4972   -5.3247 N   0  0  0  0  0  0  0  0  0  0  0  0
    9.6423   -3.9576   -4.1101 C   0  0  0  0  0  0  0  0  0  0  0  0
   10.2565   -2.8956   -4.0448 O   0  0  0  0  0  0  0  0  0  0  0  0
    9.3010   -4.7622   -3.0430 N   0  0  0  0  0  0  0  0  0  0  0  0
    9.5247   -4.4296   -1.6850 C   0  0  0  0  0  0  0  0  0  0  0  0
    9.7048   -3.1188   -1.2523 C   0  0  0  0  0  0  0  0  0  0  0  0
   10.0026   -2.8356    0.0856 C   0  0  0  0  0  0  0  0  0  0  0  0
   10.1212   -3.8386    1.0593 C   0  0  0  0  0  0  0  0  0  0  0  0
   10.4447   -3.4852    2.3925 N   0  0  0  0  0  0  0  0  0  0  0  0
   10.0244   -4.3720    3.4749 C   0  0  0  0  0  0  0  0  0  0  0  0
   11.3446   -2.4470    2.7581 C   0  0  0  0  0  0  0  0  0  0  0  0
   11.2631   -1.7844    3.9650 C   0  0  0  0  0  0  0  0  0  0  0  0
   12.1585   -0.7591    4.1779 C   0  0  0  0  0  0  0  0  0  0  0  0
   13.0950   -0.3802    3.2924 N   0  0  0  0  0  0  0  0  0  0  0  0
   13.1209   -1.0557    2.1389 C   0  0  0  0  0  0  0  0  0  0  0  0
   14.0311   -0.6055    1.1679 N   0  0  0  0  0  0  0  0  0  0  0  0
   13.9662   -0.7926   -0.2253 C   0  0  0  0  0  0  0  0  0  0  0  0
   14.4759    0.1787   -1.0968 C   0  0  0  0  0  0  0  0  0  0  0  0
   14.2714    0.0828   -2.4834 C   0  0  0  0  0  0  0  0  0  0  0  0
   13.5439   -0.9855   -3.0254 C   0  0  0  0  0  0  0  0  0  0  0  0
   13.1415   -1.0142   -4.4720 C   0  0  0  0  0  0  0  0  0  0  0  0
   14.2997   -1.9104   -5.4886 S   0  0  0  0  0  0  0  0  0  0  0  0
   14.3716   -3.5562   -4.8159 C   0  0  0  0  0  0  0  0  0  0  0  0
   13.6996   -2.0314   -6.8090 O   0  0  0  0  0  0  0  0  0  0  0  0
   15.6147   -1.3114   -5.3545 O   0  0  0  0  0  0  0  0  0  0  0  0
   13.1238   -2.0003   -2.1663 C   0  0  0  0  0  0  0  0  0  0  0  0
   13.3695   -1.9192   -0.7985 C   0  0  0  0  0  0  0  0  0  0  0  0
   12.2818   -2.0694    1.8727 N   0  0  0  0  0  0  0  0  0  0  0  0
    9.8864   -5.1533    0.6182 C   0  0  0  0  0  0  0  0  0  0  0  0
    9.5813   -5.4454   -0.7298 C   0  0  0  0  0  0  0  0  0  0  0  0
    9.4573   -3.8009   -8.6595 H   0  0  0  0  0  0  0  0  0  0  0  0
    8.0803   -4.5647   -7.8465 H   0  0  0  0  0  0  0  0  0  0  0  0
    9.6514   -5.3849   -7.8820 H   0  0  0  0  0  0  0  0  0  0  0  0
    9.0130   -2.7583   -6.4266 H   0  0  0  0  0  0  0  0  0  0  0  0
   10.6273   -3.4812   -6.5252 H   0  0  0  0  0  0  0  0  0  0  0  0
    8.3966   -5.0071   -5.3112 H   0  0  0  0  0  0  0  0  0  0  0  0
    9.1483   -5.7352   -3.2635 H   0  0  0  0  0  0  0  0  0  0  0  0
    9.6304   -2.2772   -1.9327 H   0  0  0  0  0  0  0  0  0  0  0  0
   10.1575   -1.7930    0.3567 H   0  0  0  0  0  0  0  0  0  0  0  0
    9.3301   -5.1559    3.1561 H   0  0  0  0  0  0  0  0  0  0  0  0
    9.4726   -3.8182    4.2421 H   0  0  0  0  0  0  0  0  0  0  0  0
   10.8882   -4.8583    3.9424 H   0  0  0  0  0  0  0  0  0  0  0  0
   10.5123   -2.0014    4.7093 H   0  0  0  0  0  0  0  0  0  0  0  0
   12.1294   -0.1780    5.0956 H   0  0  0  0  0  0  0  0  0  0  0  0
   14.4260    0.2714    1.4806 H   0  0  0  0  0  0  0  0  0  0  0  0
   14.9966    1.0495   -0.7061 H   0  0  0  0  0  0  0  0  0  0  0  0
   14.6463    0.8769   -3.1274 H   0  0  0  0  0  0  0  0  0  0  0  0
   13.0665    0.0001   -4.8766 H   0  0  0  0  0  0  0  0  0  0  0  0
   12.1626   -1.4817   -4.5964 H   0  0  0  0  0  0  0  0  0  0  0  0
   13.3603   -3.9622   -4.7540 H   0  0  0  0  0  0  0  0  0  0  0  0
   14.8528   -3.5328   -3.8378 H   0  0  0  0  0  0  0  0  0  0  0  0
   14.9696   -4.1672   -5.4968 H   0  0  0  0  0  0  0  0  0  0  0  0
   12.5542   -2.8514   -2.5360 H   0  0  0  0  0  0  0  0  0  0  0  0
   13.0302   -2.7438   -0.1813 H   0  0  0  0  0  0  0  0  0  0  0  0
    9.9812   -5.9939    1.3005 H   0  0  0  0  0  0  0  0  0  0  0  0
    9.4279   -6.4838   -1.0131 H   0  0  0  0  0  0  0  0  0  0  0  0
  1  2  1  0  0  0  0
  1 33  1  0  0  0  0
  1 34  1  0  0  0  0
  1 35  1  0  0  0  0
  2  3  1  0  0  0  0
  2 36  1  0  0  0  0
  2 37  1  0  0  0  0
  3  4  1  0  0  0  0
  3 38  1  0  0  0  0
  4  5  2  0  0  0  0
  4  6  1  0  0  0  0
  6  7  1  0  0  0  0
  6 39  1  0  0  0  0
  7  8  1  0  0  0  0
  7 32  2  0  0  0  0
  8  9  2  0  0  0  0
  8 40  1  0  0  0  0
  9 10  1  0  0  0  0
  9 41  1  0  0  0  0
 10 11  1  0  0  0  0
 10 31  2  0  0  0  0
 11 12  1  0  0  0  0
 11 13  1  0  0  0  0
 12 42  1  0  0  0  0
 12 43  1  0  0  0  0
 12 44  1  0  0  0  0
 13 14  1  0  0  0  0
 13 30  2  0  0  0  0
 14 15  2  0  0  0  0
 14 45  1  0  0  0  0
 15 16  1  0  0  0  0
 15 46  1  0  0  0  0
 16 17  2  0  0  0  0
 17 18  1  0  0  0  0
 17 30  1  0  0  0  0
 18 19  1  0  0  0  0
 18 47  1  0  0  0  0
 19 20  1  0  0  0  0
 19 29  2  0  0  0  0
 20 21  2  0  0  0  0
 20 48  1  0  0  0  0
 21 22  1  0  0  0  0
 21 49  1  0  0  0  0
 22 23  1  0  0  0  0
 22 28  2  0  0  0  0
 23 24  1  0  0  0  0
 23 50  1  0  0  0  0
 23 51  1  0  0  0  0
 24 25  1  0  0  0  0
 24 26  2  0  0  0  0
 24 27  2  0  0  0  0
 25 52  1  0  0  0  0
 25 53  1  0  0  0  0
 25 54  1  0  0  0  0
 28 29  1  0  0  0  0
 28 55  1  0  0  0  0
 29 56  1  0  0  0  0
 31 32  1  0  0  0  0
 31 57  1  0  0  0  0
 32 58  1  0  0  0  0
M  END
$$$$
