CHEMBL3890300
 OpenBabel04072215373D

 66 71  0  0  1  0  0  0  0  0999 V2000
   -3.8828   -3.0998    3.3039 C   0  0  0  0  0  0  0  0  0  0  0  0
   -2.6321   -2.7075    2.7453 O   0  0  0  0  0  0  0  0  0  0  0  0
   -1.5657   -3.5414    2.9694 C   0  0  0  0  0  0  0  0  0  0  0  0
   -1.6598   -4.7452    3.6626 C   0  0  0  0  0  0  0  0  0  0  0  0
   -0.5354   -5.5713    3.8491 C   0  0  0  0  0  0  0  0  0  0  0  0
   -0.5774   -6.8208    4.4919 C   0  0  0  0  0  0  0  0  0  0  0  0
   -1.8314   -7.3010    4.9703 N   0  0  0  0  0  0  0  0  0  0  0  0
   -2.0689   -8.4004    5.8200 C   0  0  0  0  0  0  0  0  0  0  0  0
   -1.1189   -8.8606    6.7304 C   0  0  0  0  0  0  0  0  0  0  0  0
   -1.3721   -9.9651    7.5472 C   0  0  0  0  0  0  0  0  0  0  0  0
   -2.5978  -10.6272    7.5226 C   0  0  0  0  0  0  0  0  0  0  0  0
   -2.8537  -11.7467    8.2926 N   0  0  0  0  0  0  0  0  0  0  0  0
   -2.1455  -12.0230    9.5526 C   0  0  0  0  0  0  0  0  0  0  0  0
   -1.3511  -13.3482    9.4856 C   0  0  0  0  0  0  0  0  0  0  0  0
   -2.1124  -14.5250    9.0126 N   0  0  0  0  0  0  0  0  0  0  0  0
   -3.1394  -14.9206    9.9760 C   0  0  0  0  0  0  0  0  0  0  0  0
   -2.7151  -14.1887    7.7073 C   0  0  3  0  0  0  0  0  0  0  0  0
   -3.4963  -15.2300    7.3078 F   0  0  0  0  0  0  0  0  0  0  0  0
   -3.5627  -12.8911    7.6819 C   0  0  0  0  0  0  0  0  0  0  0  0
   -3.5859  -10.0932    6.6812 C   0  0  0  0  0  0  0  0  0  0  0  0
   -3.3332   -8.9930    5.8512 C   0  0  0  0  0  0  0  0  0  0  0  0
    0.5308   -7.5606    4.6610 N   0  0  0  0  0  0  0  0  0  0  0  0
    1.6744   -7.0596    4.1914 C   0  0  0  0  0  0  0  0  0  0  0  0
    1.8217   -5.8884    3.5557 N   0  0  0  0  0  0  0  0  0  0  0  0
    0.7174   -5.1548    3.3851 C   0  0  0  0  0  0  0  0  0  0  0  0
    0.8076   -3.9425    2.7051 C   0  0  0  0  0  0  0  0  0  0  0  0
   -0.3176   -3.1410    2.4729 C   0  0  0  0  0  0  0  0  0  0  0  0
   -0.3022   -2.0127    1.6951 O   0  0  0  0  0  0  0  0  0  0  0  0
    0.8621   -1.1781    1.7115 C   0  0  1  0  0  0  0  0  0  0  0  0
    1.8466   -1.5430    0.5999 C   0  0  0  0  0  0  0  0  0  0  0  0
    2.0041   -0.4210   -0.2826 O   0  0  0  0  0  0  0  0  0  0  0  0
    1.4483    0.7277    0.3565 C   0  0  2  0  0  0  0  0  0  0  0  0
    2.4428    1.4632    1.2297 C   0  0  1  0  0  0  0  0  0  0  0  0
    3.0081    2.4906    0.5493 F   0  0  0  0  0  0  0  0  0  0  0  0
    1.5800    1.9838    2.3576 C   0  0  0  0  0  0  0  0  0  0  0  0
    0.4400    1.1185    2.4778 O   0  0  0  0  0  0  0  0  0  0  0  0
    0.4165    0.2380    1.3431 C   0  0  2  0  0  0  0  0  0  0  0  0
   -4.6116   -2.3099    3.1054 H   0  0  0  0  0  0  0  0  0  0  0  0
   -3.8157   -3.2192    4.3917 H   0  0  0  0  0  0  0  0  0  0  0  0
   -4.2469   -4.0191    2.8311 H   0  0  0  0  0  0  0  0  0  0  0  0
   -2.6105   -5.0702    4.0700 H   0  0  0  0  0  0  0  0  0  0  0  0
   -2.5129   -7.2690    4.2191 H   0  0  0  0  0  0  0  0  0  0  0  0
   -0.1497   -8.3803    6.8100 H   0  0  0  0  0  0  0  0  0  0  0  0
   -0.5550  -10.3100    8.1723 H   0  0  0  0  0  0  0  0  0  0  0  0
   -2.8925  -12.0815   10.3528 H   0  0  0  0  0  0  0  0  0  0  0  0
   -1.4704  -11.2144    9.8519 H   0  0  0  0  0  0  0  0  0  0  0  0
   -0.9164  -13.5609   10.4706 H   0  0  0  0  0  0  0  0  0  0  0  0
   -0.4946  -13.2106    8.8115 H   0  0  0  0  0  0  0  0  0  0  0  0
   -2.6780  -15.1867   10.9309 H   0  0  0  0  0  0  0  0  0  0  0  0
   -3.6757  -15.8120    9.6315 H   0  0  0  0  0  0  0  0  0  0  0  0
   -3.8826  -14.1411   10.1729 H   0  0  0  0  0  0  0  0  0  0  0  0
   -1.9072  -14.1023    6.9712 H   0  0  0  0  0  0  0  0  0  0  0  0
   -4.5070  -13.0479    8.2150 H   0  0  0  0  0  0  0  0  0  0  0  0
   -3.8371  -12.7092    6.6355 H   0  0  0  0  0  0  0  0  0  0  0  0
   -4.5862  -10.5199    6.6776 H   0  0  0  0  0  0  0  0  0  0  0  0
   -4.1405   -8.6183    5.2274 H   0  0  0  0  0  0  0  0  0  0  0  0
    2.5658   -7.6558    4.3430 H   0  0  0  0  0  0  0  0  0  0  0  0
    1.7851   -3.6602    2.3287 H   0  0  0  0  0  0  0  0  0  0  0  0
    1.3355   -1.1968    2.7016 H   0  0  0  0  0  0  0  0  0  0  0  0
    1.5433   -2.4134    0.0117 H   0  0  0  0  0  0  0  0  0  0  0  0
    2.8354   -1.7456    1.0267 H   0  0  0  0  0  0  0  0  0  0  0  0
    1.0274    1.3965   -0.4022 H   0  0  0  0  0  0  0  0  0  0  0  0
    3.2442    0.8116    1.5920 H   0  0  0  0  0  0  0  0  0  0  0  0
    1.2259    3.0005    2.1580 H   0  0  0  0  0  0  0  0  0  0  0  0
    2.1179    1.9924    3.3099 H   0  0  0  0  0  0  0  0  0  0  0  0
   -0.5919    0.2454    0.9138 H   0  0  0  0  0  0  0  0  0  0  0  0
  1  2  1  0  0  0  0
  1 38  1  0  0  0  0
  1 39  1  0  0  0  0
  1 40  1  0  0  0  0
  2  3  1  0  0  0  0
  3  4  1  0  0  0  0
  3 27  2  0  0  0  0
  4  5  2  0  0  0  0
  4 41  1  0  0  0  0
  5  6  1  0  0  0  0
  5 25  1  0  0  0  0
  6  7  1  0  0  0  0
  6 22  2  0  0  0  0
  7  8  1  0  0  0  0
  7 42  1  0  0  0  0
  8  9  1  0  0  0  0
  8 21  2  0  0  0  0
  9 10  2  0  0  0  0
  9 43  1  0  0  0  0
 10 11  1  0  0  0  0
 10 44  1  0  0  0  0
 11 12  1  0  0  0  0
 11 20  2  0  0  0  0
 12 13  1  0  0  0  0
 12 19  1  0  0  0  0
 13 14  1  0  0  0  0
 13 45  1  0  0  0  0
 13 46  1  0  0  0  0
 14 15  1  0  0  0  0
 14 47  1  0  0  0  0
 14 48  1  0  0  0  0
 15 16  1  0  0  0  0
 15 17  1  0  0  0  0
 16 49  1  0  0  0  0
 16 50  1  0  0  0  0
 16 51  1  0  0  0  0
 17 18  1  0  0  0  0
 17 19  1  0  0  0  0
 17 52  1  0  0  0  0
 19 53  1  0  0  0  0
 19 54  1  0  0  0  0
 20 21  1  0  0  0  0
 20 55  1  0  0  0  0
 21 56  1  0  0  0  0
 22 23  1  0  0  0  0
 23 24  2  0  0  0  0
 23 57  1  0  0  0  0
 24 25  1  0  0  0  0
 25 26  2  0  0  0  0
 26 27  1  0  0  0  0
 26 58  1  0  0  0  0
 27 28  1  0  0  0  0
 29 30  1  0  0  0  0
 29 37  1  0  0  0  0
 29 28  1  0  0  0  0
 29 59  1  1  0  0  0
 30 31  1  0  0  0  0
 30 60  1  0  0  0  0
 30 61  1  0  0  0  0
 31 32  1  0  0  0  0
 32 33  1  0  0  0  0
 32 37  1  0  0  0  0
 32 62  1  6  0  0  0
 33 34  1  0  0  0  0
 33 35  1  0  0  0  0
 33 63  1  1  0  0  0
 35 36  1  0  0  0  0
 35 64  1  0  0  0  0
 35 65  1  0  0  0  0
 36 37  1  0  0  0  0
 37 66  1  6  0  0  0
M  END
$$$$
