CHEMBL1998724
 OpenBabel04072215363D

 39 40  0  0  0  0  0  0  0  0999 V2000
    1.0689   -0.1788    0.1585 C   0  0  0  0  0  0  0  0  0  0  0  0
    2.4582    0.0115   -0.0813 O   0  0  0  0  0  0  0  0  0  0  0  0
    3.1285    0.8799    0.7424 C   0  0  0  0  0  0  0  0  0  0  0  0
    2.7003    1.1545    2.0495 C   0  0  0  0  0  0  0  0  0  0  0  0
    3.4570    1.9538    2.9180 C   0  0  0  0  0  0  0  0  0  0  0  0
    3.0294    2.2351    4.2322 N   0  0  0  0  0  0  0  0  0  0  0  0
    2.3694    1.3381    5.0767 C   0  0  0  0  0  0  0  0  0  0  0  0
    1.4808    1.8504    5.9363 N   0  0  0  0  0  0  0  0  0  0  0  0
    0.8612    0.9757    6.7541 C   0  0  0  0  0  0  0  0  0  0  0  0
    1.0890   -0.3837    6.7467 C   0  0  0  0  0  0  0  0  0  0  0  0
    0.3637   -1.3006    7.6559 C   0  0  0  0  0  0  0  0  0  0  0  0
   -0.5134   -0.6559    8.4809 F   0  0  0  0  0  0  0  0  0  0  0  0
   -0.3899   -2.2136    6.9767 F   0  0  0  0  0  0  0  0  0  0  0  0
    1.1707   -2.0207    8.4797 F   0  0  0  0  0  0  0  0  0  0  0  0
    2.0159   -0.8163    5.8331 C   0  0  0  0  0  0  0  0  0  0  0  0
    2.4295   -2.1378    5.7425 N   0  0  0  0  0  0  0  0  0  0  0  0
    2.6484    0.0269    5.0032 N   0  0  0  0  0  0  0  0  0  0  0  0
    4.6289    2.5389    2.4427 C   0  0  0  0  0  0  0  0  0  0  0  0
    5.0982    2.2486    1.1570 C   0  0  0  0  0  0  0  0  0  0  0  0
    6.2753    2.7641    0.6642 O   0  0  0  0  0  0  0  0  0  0  0  0
    7.3175    2.9223    1.6220 C   0  0  0  0  0  0  0  0  0  0  0  0
    4.3384    1.4366    0.2879 C   0  0  0  0  0  0  0  0  0  0  0  0
    4.9097    1.2048   -0.9425 O   0  0  0  0  0  0  0  0  0  0  0  0
    4.0238    1.0460   -2.0426 C   0  0  0  0  0  0  0  0  0  0  0  0
    0.6829   -0.8320   -0.6300 H   0  0  0  0  0  0  0  0  0  0  0  0
    0.5289    0.7722    0.1030 H   0  0  0  0  0  0  0  0  0  0  0  0
    0.8862   -0.6851    1.1111 H   0  0  0  0  0  0  0  0  0  0  0  0
    1.7849    0.7181    2.4313 H   0  0  0  0  0  0  0  0  0  0  0  0
    2.5884    3.1404    4.3321 H   0  0  0  0  0  0  0  0  0  0  0  0
    0.1484    1.4274    7.4405 H   0  0  0  0  0  0  0  0  0  0  0  0
    1.6867   -2.8193    5.6518 H   0  0  0  0  0  0  0  0  0  0  0  0
    3.1014   -2.2058    4.9774 H   0  0  0  0  0  0  0  0  0  0  0  0
    5.1896    3.1901    3.1064 H   0  0  0  0  0  0  0  0  0  0  0  0
    8.2614    3.0248    1.0776 H   0  0  0  0  0  0  0  0  0  0  0  0
    7.4059    2.0504    2.2801 H   0  0  0  0  0  0  0  0  0  0  0  0
    7.1695    3.8375    2.2040 H   0  0  0  0  0  0  0  0  0  0  0  0
    4.5822    1.2788   -2.9548 H   0  0  0  0  0  0  0  0  0  0  0  0
    3.1713    1.7325   -1.9945 H   0  0  0  0  0  0  0  0  0  0  0  0
    3.6969    0.0055   -2.1278 H   0  0  0  0  0  0  0  0  0  0  0  0
  1  2  1  0  0  0  0
  1 25  1  0  0  0  0
  1 26  1  0  0  0  0
  1 27  1  0  0  0  0
  2  3  1  0  0  0  0
  3  4  1  0  0  0  0
  3 22  2  0  0  0  0
  4  5  2  0  0  0  0
  4 28  1  0  0  0  0
  5  6  1  0  0  0  0
  5 18  1  0  0  0  0
  6  7  1  0  0  0  0
  6 29  1  0  0  0  0
  7  8  1  0  0  0  0
  7 17  2  0  0  0  0
  8  9  2  0  0  0  0
  9 10  1  0  0  0  0
  9 30  1  0  0  0  0
 10 11  1  0  0  0  0
 10 15  2  0  0  0  0
 11 12  1  0  0  0  0
 11 13  1  0  0  0  0
 11 14  1  0  0  0  0
 15 16  1  0  0  0  0
 15 17  1  0  0  0  0
 16 31  1  0  0  0  0
 16 32  1  0  0  0  0
 18 19  2  0  0  0  0
 18 33  1  0  0  0  0
 19 20  1  0  0  0  0
 19 22  1  0  0  0  0
 20 21  1  0  0  0  0
 21 34  1  0  0  0  0
 21 35  1  0  0  0  0
 21 36  1  0  0  0  0
 22 23  1  0  0  0  0
 23 24  1  0  0  0  0
 24 37  1  0  0  0  0
 24 38  1  0  0  0  0
 24 39  1  0  0  0  0
M  END
$$$$
