CHEMBL3741641
 OpenBabel04072215373D

 65 69  0  0  0  0  0  0  0  0999 V2000
    2.1268    1.0500   -0.3616 C   0  0  0  0  0  0  0  0  0  0  0  0
    3.5490    1.0255   -0.4327 O   0  0  0  0  0  0  0  0  0  0  0  0
    4.1139    0.0763   -1.2465 C   0  0  0  0  0  0  0  0  0  0  0  0
    3.4031   -0.5058   -2.3033 C   0  0  0  0  0  0  0  0  0  0  0  0
    3.9996   -1.4048   -3.1935 C   0  0  0  0  0  0  0  0  0  0  0  0
    3.2776   -1.9713   -4.2628 N   0  0  0  0  0  0  0  0  0  0  0  0
    2.2514   -1.3313   -4.9732 C   0  0  0  0  0  0  0  0  0  0  0  0
    1.2712   -2.1171   -5.4387 N   0  0  0  0  0  0  0  0  0  0  0  0
    0.2642   -1.5063   -6.0896 C   0  0  0  0  0  0  0  0  0  0  0  0
    0.1985   -0.1502   -6.2922 C   0  0  0  0  0  0  0  0  0  0  0  0
    1.2739    0.5718   -5.8266 C   0  0  0  0  0  0  0  0  0  0  0  0
    1.3972    1.9434   -5.9590 O   0  0  0  0  0  0  0  0  0  0  0  0
    0.7547    2.5513   -7.0127 C   0  0  0  0  0  0  0  0  0  0  0  0
   -0.0073    3.6830   -6.7317 C   0  0  0  0  0  0  0  0  0  0  0  0
   -0.8515    4.1985   -7.7232 C   0  0  0  0  0  0  0  0  0  0  0  0
   -0.8457    3.6377   -9.0222 C   0  0  0  0  0  0  0  0  0  0  0  0
   -1.6230    4.1070  -10.0918 C   0  0  0  0  0  0  0  0  0  0  0  0
   -2.3291    2.9378  -10.9031 C   0  0  0  0  0  0  0  0  0  0  0  0
   -2.5365    1.8556  -10.3695 O   0  0  0  0  0  0  0  0  0  0  0  0
   -2.6270    3.2409  -12.2500 N   0  0  0  0  0  0  0  0  0  0  0  0
   -3.1158    2.3839  -13.2715 C   0  0  0  0  0  0  0  0  0  0  0  0
   -3.6287    1.1071  -13.0497 C   0  0  0  0  0  0  0  0  0  0  0  0
   -4.0910    0.3229  -14.1162 C   0  0  0  0  0  0  0  0  0  0  0  0
   -4.0447    0.8022  -15.4235 C   0  0  0  0  0  0  0  0  0  0  0  0
   -3.5012    2.0622  -15.6719 C   0  0  0  0  0  0  0  0  0  0  0  0
   -3.0578    2.8567  -14.6005 C   0  0  0  0  0  0  0  0  0  0  0  0
   -0.8443    4.8683  -10.9199 C   0  0  0  0  0  0  0  0  0  0  0  0
    0.3680    4.2684  -11.3332 C   0  0  0  0  0  0  0  0  0  0  0  0
    0.8309    3.1498  -10.6120 C   0  0  0  0  0  0  0  0  0  0  0  0
    0.2864    2.8895   -9.3394 C   0  0  0  0  0  0  0  0  0  0  0  0
    0.9595    2.1784   -8.3386 C   0  0  0  0  0  0  0  0  0  0  0  0
    2.2841   -0.0001   -5.1488 N   0  0  0  0  0  0  0  0  0  0  0  0
    5.3205   -1.7893   -2.9693 C   0  0  0  0  0  0  0  0  0  0  0  0
    6.0706   -1.1870   -1.9507 C   0  0  0  0  0  0  0  0  0  0  0  0
    7.3970   -1.4863   -1.7327 O   0  0  0  0  0  0  0  0  0  0  0  0
    8.1502   -1.8040   -2.8991 C   0  0  0  0  0  0  0  0  0  0  0  0
    5.4676   -0.2619   -1.0687 C   0  0  0  0  0  0  0  0  0  0  0  0
    6.3150    0.2874   -0.1336 O   0  0  0  0  0  0  0  0  0  0  0  0
    5.7511    0.6546    1.1175 C   0  0  0  0  0  0  0  0  0  0  0  0
    1.8409    1.7777    0.4029 H   0  0  0  0  0  0  0  0  0  0  0  0
    1.7349    0.0723   -0.0603 H   0  0  0  0  0  0  0  0  0  0  0  0
    1.6808    1.3825   -1.3048 H   0  0  0  0  0  0  0  0  0  0  0  0
    2.3680   -0.2381   -2.4820 H   0  0  0  0  0  0  0  0  0  0  0  0
    2.9596   -2.9156   -4.0762 H   0  0  0  0  0  0  0  0  0  0  0  0
   -0.5167   -2.1648   -6.4594 H   0  0  0  0  0  0  0  0  0  0  0  0
   -0.6443    0.2959   -6.8013 H   0  0  0  0  0  0  0  0  0  0  0  0
    0.0487    4.1625   -5.7577 H   0  0  0  0  0  0  0  0  0  0  0  0
   -1.4467    5.0793   -7.5126 H   0  0  0  0  0  0  0  0  0  0  0  0
   -2.3585    4.1632  -12.5742 H   0  0  0  0  0  0  0  0  0  0  0  0
   -3.6965    0.7004  -12.0442 H   0  0  0  0  0  0  0  0  0  0  0  0
   -4.5076   -0.6589  -13.9207 H   0  0  0  0  0  0  0  0  0  0  0  0
   -4.3949    0.1817  -16.2498 H   0  0  0  0  0  0  0  0  0  0  0  0
   -3.4505    2.4355  -16.6890 H   0  0  0  0  0  0  0  0  0  0  0  0
   -2.6484    3.8303  -14.8306 H   0  0  0  0  0  0  0  0  0  0  0  0
   -1.1712    5.8347  -11.2775 H   0  0  0  0  0  0  0  0  0  0  0  0
    0.9587    4.7045  -12.1243 H   0  0  0  0  0  0  0  0  0  0  0  0
    1.7654    2.6746  -10.9247 H   0  0  0  0  0  0  0  0  0  0  0  0
    1.7261    1.4505   -8.5838 H   0  0  0  0  0  0  0  0  0  0  0  0
    5.7649   -2.5292   -3.6265 H   0  0  0  0  0  0  0  0  0  0  0  0
    9.2114   -1.6956   -2.6548 H   0  0  0  0  0  0  0  0  0  0  0  0
    7.9296   -1.1232   -3.7293 H   0  0  0  0  0  0  0  0  0  0  0  0
    7.9816   -2.8449   -3.1926 H   0  0  0  0  0  0  0  0  0  0  0  0
    6.5750    0.7795    1.8274 H   0  0  0  0  0  0  0  0  0  0  0  0
    5.0890   -0.1235    1.5122 H   0  0  0  0  0  0  0  0  0  0  0  0
    5.2464    1.6227    1.0559 H   0  0  0  0  0  0  0  0  0  0  0  0
  1  2  1  0  0  0  0
  1 40  1  0  0  0  0
  1 41  1  0  0  0  0
  1 42  1  0  0  0  0
  2  3  1  0  0  0  0
  3  4  1  0  0  0  0
  3 37  2  0  0  0  0
  4  5  2  0  0  0  0
  4 43  1  0  0  0  0
  5  6  1  0  0  0  0
  5 33  1  0  0  0  0
  6  7  1  0  0  0  0
  6 44  1  0  0  0  0
  7  8  1  0  0  0  0
  7 32  2  0  0  0  0
  8  9  2  0  0  0  0
  9 10  1  0  0  0  0
  9 45  1  0  0  0  0
 10 11  2  0  0  0  0
 10 46  1  0  0  0  0
 11 12  1  0  0  0  0
 11 32  1  0  0  0  0
 12 13  1  0  0  0  0
 13 14  1  0  0  0  0
 13 31  2  0  0  0  0
 14 15  2  0  0  0  0
 14 47  1  0  0  0  0
 15 16  1  0  0  0  0
 15 48  1  0  0  0  0
 16 17  1  0  0  0  0
 16 30  2  0  0  0  0
 17 18  1  0  0  0  0
 17 27  2  0  0  0  0
 18 19  2  0  0  0  0
 18 20  1  0  0  0  0
 20 21  1  0  0  0  0
 20 49  1  0  0  0  0
 21 22  1  0  0  0  0
 21 26  2  0  0  0  0
 22 23  2  0  0  0  0
 22 50  1  0  0  0  0
 23 24  1  0  0  0  0
 23 51  1  0  0  0  0
 24 25  2  0  0  0  0
 24 52  1  0  0  0  0
 25 26  1  0  0  0  0
 25 53  1  0  0  0  0
 26 54  1  0  0  0  0
 27 28  1  0  0  0  0
 27 55  1  0  0  0  0
 28 29  2  0  0  0  0
 28 56  1  0  0  0  0
 29 30  1  0  0  0  0
 29 57  1  0  0  0  0
 30 31  1  0  0  0  0
 31 58  1  0  0  0  0
 33 34  2  0  0  0  0
 33 59  1  0  0  0  0
 34 35  1  0  0  0  0
 34 37  1  0  0  0  0
 35 36  1  0  0  0  0
 36 60  1  0  0  0  0
 36 61  1  0  0  0  0
 36 62  1  0  0  0  0
 37 38  1  0  0  0  0
 38 39  1  0  0  0  0
 39 63  1  0  0  0  0
 39 64  1  0  0  0  0
 39 65  1  0  0  0  0
M  END
$$$$
