CHEMBL3961923
 OpenBabel04072215373D

 79 84  0  0  1  0  0  0  0  0999 V2000
    1.3600   -0.0228    0.4874 C   0  0  0  0  0  0  0  0  0  0  0  0
    2.3997    0.4127   -0.3907 O   0  0  0  0  0  0  0  0  0  0  0  0
    3.1255    1.5068    0.0059 C   0  0  0  0  0  0  0  0  0  0  0  0
    2.7709    2.3719    1.0295 C   0  0  0  0  0  0  0  0  0  0  0  0
    3.5795    3.4718    1.3099 C   0  0  0  0  0  0  0  0  0  0  0  0
    3.3202    4.4141    2.2709 O   0  0  0  0  0  0  0  0  0  0  0  0
    2.2396    4.1329    3.1538 C   0  0  0  0  0  0  0  0  0  0  0  0
    4.7681    3.6872    0.5921 C   0  0  0  0  0  0  0  0  0  0  0  0
    5.2179    2.7944   -0.3835 C   0  0  0  0  0  0  0  0  0  0  0  0
    6.4656    2.9902   -1.0336 N   0  0  0  0  0  0  0  0  0  0  0  0
    7.0180    1.8242   -1.8260 C   0  0  0  0  0  0  0  0  0  0  0  0
    8.0470    1.0471   -0.9750 C   0  0  0  0  0  0  0  0  0  0  0  0
    8.6564   -0.1444   -1.5853 N   0  0  0  0  0  0  0  0  0  0  0  0
    9.5485    0.1429   -2.7201 C   0  0  0  0  0  0  0  0  0  0  0  0
   10.8363   -0.6472   -2.4729 C   0  0  0  0  0  0  0  0  0  0  0  0
   10.4793   -1.6495   -1.3778 C   0  0  2  0  0  0  0  0  0  0  0  0
    9.9234   -2.8955   -1.9110 C   0  0  0  0  0  0  0  0  0  0  0  0
    9.5082   -3.9012   -2.3257 N   0  0  0  0  0  0  0  0  0  0  0  0
    9.4627   -0.8542   -0.5742 C   0  0  0  0  0  0  0  0  0  0  0  0
    7.5355    3.9453   -0.7993 C   0  0  0  0  0  0  0  0  0  0  0  0
    8.1516    4.4148   -1.9592 C   0  0  0  0  0  0  0  0  0  0  0  0
    9.4916    4.7556   -1.9259 C   0  0  0  0  0  0  0  0  0  0  0  0
   10.1866    4.8230   -0.7491 C   0  0  0  0  0  0  0  0  0  0  0  0
   11.5138    4.9306   -0.8982 N   0  0  0  0  0  0  0  0  0  0  0  0
   12.2089    5.2851    0.1883 C   0  0  0  0  0  0  0  0  0  0  0  0
   11.5898    5.6504    1.3672 C   0  0  0  0  0  0  0  0  0  0  0  0
   12.3081    6.6932    2.1169 C   0  0  0  0  0  0  0  0  0  0  0  0
   13.0104    6.7259    3.3431 C   0  0  0  0  0  0  0  0  0  0  0  0
   13.6947    7.8692    3.5364 N   0  0  0  0  0  0  0  0  0  0  0  0
   13.4456    8.5961    2.4276 N   0  0  0  0  0  0  0  0  0  0  0  0
   13.6722   10.0379    2.4066 C   0  0  0  0  0  0  0  0  0  0  0  0
   15.0929   10.6072    2.1220 C   0  0  0  0  0  0  0  0  0  0  0  0
   15.0308   12.1574    2.2088 C   0  0  0  0  0  0  0  0  0  0  0  0
   16.1639   12.8854    1.4952 C   0  0  0  0  0  0  0  0  0  0  0  0
   16.3202   12.3806    0.1747 O   0  0  0  0  0  0  0  0  0  0  0  0
   16.7441   11.0223    0.2004 C   0  0  0  0  0  0  0  0  0  0  0  0
   15.6444   10.1307    0.7685 C   0  0  0  0  0  0  0  0  0  0  0  0
   12.7009    7.8881    1.5159 C   0  0  0  0  0  0  0  0  0  0  0  0
   10.2605    5.3329    1.5783 N   0  0  0  0  0  0  0  0  0  0  0  0
    9.5243    4.8229    0.4957 C   0  0  0  0  0  0  0  0  0  0  0  0
    8.1795    4.2596    0.4302 C   0  0  0  0  0  0  0  0  0  0  0  0
    4.3169    1.7449   -0.7048 C   0  0  0  0  0  0  0  0  0  0  0  0
    0.9770   -0.9804    0.1201 H   0  0  0  0  0  0  0  0  0  0  0  0
    0.5245    0.6867    0.4908 H   0  0  0  0  0  0  0  0  0  0  0  0
    1.7374   -0.1879    1.5027 H   0  0  0  0  0  0  0  0  0  0  0  0
    1.8573    2.2042    1.5826 H   0  0  0  0  0  0  0  0  0  0  0  0
    2.2183    4.9173    3.9146 H   0  0  0  0  0  0  0  0  0  0  0  0
    2.3836    3.1748    3.6657 H   0  0  0  0  0  0  0  0  0  0  0  0
    1.2833    4.1555    2.6207 H   0  0  0  0  0  0  0  0  0  0  0  0
    5.3447    4.5784    0.8198 H   0  0  0  0  0  0  0  0  0  0  0  0
    7.4782    2.1710   -2.7602 H   0  0  0  0  0  0  0  0  0  0  0  0
    6.2556    1.1339   -2.1896 H   0  0  0  0  0  0  0  0  0  0  0  0
    7.5295    0.7397   -0.0575 H   0  0  0  0  0  0  0  0  0  0  0  0
    8.8544    1.7205   -0.6676 H   0  0  0  0  0  0  0  0  0  0  0  0
    9.7821    1.2050   -2.8483 H   0  0  0  0  0  0  0  0  0  0  0  0
    9.0708   -0.2075   -3.6421 H   0  0  0  0  0  0  0  0  0  0  0  0
   11.6035    0.0404   -2.0954 H   0  0  0  0  0  0  0  0  0  0  0  0
   11.2222   -1.1200   -3.3797 H   0  0  0  0  0  0  0  0  0  0  0  0
   11.3621   -1.8751   -0.7599 H   0  0  0  0  0  0  0  0  0  0  0  0
    9.9948   -0.1359    0.0653 H   0  0  0  0  0  0  0  0  0  0  0  0
    8.8296   -1.4766    0.0692 H   0  0  0  0  0  0  0  0  0  0  0  0
    7.6501    4.3547   -2.9192 H   0  0  0  0  0  0  0  0  0  0  0  0
   10.0151    4.9460   -2.8600 H   0  0  0  0  0  0  0  0  0  0  0  0
   13.2741    5.4187    0.0323 H   0  0  0  0  0  0  0  0  0  0  0  0
   13.0836    5.9566    4.1008 H   0  0  0  0  0  0  0  0  0  0  0  0
   13.3247   10.4087    3.3791 H   0  0  0  0  0  0  0  0  0  0  0  0
   12.9767   10.4408    1.6577 H   0  0  0  0  0  0  0  0  0  0  0  0
   15.7819   10.2624    2.9046 H   0  0  0  0  0  0  0  0  0  0  0  0
   15.0096   12.4730    3.2594 H   0  0  0  0  0  0  0  0  0  0  0  0
   14.0900   12.5026    1.7612 H   0  0  0  0  0  0  0  0  0  0  0  0
   17.1126   12.8053    2.0379 H   0  0  0  0  0  0  0  0  0  0  0  0
   15.9287   13.9535    1.4157 H   0  0  0  0  0  0  0  0  0  0  0  0
   17.6783   10.9393    0.7681 H   0  0  0  0  0  0  0  0  0  0  0  0
   16.9630   10.7262   -0.8310 H   0  0  0  0  0  0  0  0  0  0  0  0
   16.0289    9.1092    0.8673 H   0  0  0  0  0  0  0  0  0  0  0  0
   14.8259   10.1011    0.0406 H   0  0  0  0  0  0  0  0  0  0  0  0
   12.4886    8.2990    0.5374 H   0  0  0  0  0  0  0  0  0  0  0  0
    7.6930    4.0050    1.3711 H   0  0  0  0  0  0  0  0  0  0  0  0
    4.4879    1.0652   -1.5330 H   0  0  0  0  0  0  0  0  0  0  0  0
  1  2  1  0  0  0  0
  1 43  1  0  0  0  0
  1 44  1  0  0  0  0
  1 45  1  0  0  0  0
  2  3  1  0  0  0  0
  3  4  1  0  0  0  0
  3 42  2  0  0  0  0
  4  5  2  0  0  0  0
  4 46  1  0  0  0  0
  5  6  1  0  0  0  0
  5  8  1  0  0  0  0
  6  7  1  0  0  0  0
  7 47  1  0  0  0  0
  7 48  1  0  0  0  0
  7 49  1  0  0  0  0
  8  9  2  0  0  0  0
  8 50  1  0  0  0  0
  9 10  1  0  0  0  0
  9 42  1  0  0  0  0
 10 11  1  0  0  0  0
 10 20  1  0  0  0  0
 11 12  1  0  0  0  0
 11 51  1  0  0  0  0
 11 52  1  0  0  0  0
 12 13  1  0  0  0  0
 12 53  1  0  0  0  0
 12 54  1  0  0  0  0
 13 14  1  0  0  0  0
 13 19  1  0  0  0  0
 14 15  1  0  0  0  0
 14 55  1  0  0  0  0
 14 56  1  0  0  0  0
 15 16  1  0  0  0  0
 15 57  1  0  0  0  0
 15 58  1  0  0  0  0
 16 17  1  0  0  0  0
 16 19  1  0  0  0  0
 16 59  1  1  0  0  0
 17 18  3  0  0  0  0
 19 60  1  0  0  0  0
 19 61  1  0  0  0  0
 20 21  1  0  0  0  0
 20 41  2  0  0  0  0
 21 22  2  0  0  0  0
 21 62  1  0  0  0  0
 22 23  1  0  0  0  0
 22 63  1  0  0  0  0
 23 24  1  0  0  0  0
 23 40  2  0  0  0  0
 24 25  2  0  0  0  0
 25 26  1  0  0  0  0
 25 64  1  0  0  0  0
 26 27  1  0  0  0  0
 26 39  2  0  0  0  0
 27 28  1  0  0  0  0
 27 38  2  0  0  0  0
 28 29  2  0  0  0  0
 28 65  1  0  0  0  0
 29 30  1  0  0  0  0
 30 31  1  0  0  0  0
 30 38  1  0  0  0  0
 31 32  1  0  0  0  0
 31 66  1  0  0  0  0
 31 67  1  0  0  0  0
 32 33  1  0  0  0  0
 32 37  1  0  0  0  0
 32 68  1  0  0  0  0
 33 34  1  0  0  0  0
 33 69  1  0  0  0  0
 33 70  1  0  0  0  0
 34 35  1  0  0  0  0
 34 71  1  0  0  0  0
 34 72  1  0  0  0  0
 35 36  1  0  0  0  0
 36 37  1  0  0  0  0
 36 73  1  0  0  0  0
 36 74  1  0  0  0  0
 37 75  1  0  0  0  0
 37 76  1  0  0  0  0
 38 77  1  0  0  0  0
 39 40  1  0  0  0  0
 40 41  1  0  0  0  0
 41 78  1  0  0  0  0
 42 79  1  0  0  0  0
M  END
$$$$
