CHEMBL1999112
 OpenBabel04072215363D

 44 47  0  0  1  0  0  0  0  0999 V2000
    2.3860   -0.2756   -0.5651 C   0  0  0  0  0  0  0  0  0  0  0  0
    3.7131   -1.0130   -0.5593 C   0  0  0  0  0  0  0  0  0  0  0  0
    4.0797   -1.4143    0.7702 O   0  0  0  0  0  0  0  0  0  0  0  0
    4.6508   -0.4571    1.5527 C   0  0  0  0  0  0  0  0  0  0  0  0
    4.8494    0.6939    1.2029 O   0  0  0  0  0  0  0  0  0  0  0  0
    4.9997   -1.0360    2.8812 C   0  0  0  0  0  0  0  0  0  0  0  0
    5.9405   -0.5114    3.6970 C   0  0  0  0  0  0  0  0  0  0  0  0
    6.8627    0.9406    3.4180 S   0  0  0  0  0  0  0  0  0  0  0  0
    7.6704    0.8177    4.9485 C   0  0  0  0  0  0  0  0  0  0  0  0
    8.6045    1.6904    5.3613 C   0  0  0  0  0  0  0  0  0  0  0  0
    9.3248    1.5179    6.5720 C   0  0  0  0  0  0  0  0  0  0  0  0
    9.0061    1.9055    7.8698 C   0  0  0  0  0  0  0  0  0  0  0  0
   10.0470    1.4633    8.7206 C   0  0  0  0  0  0  0  0  0  0  0  0
   10.9561    0.8355    7.9079 C   0  0  0  0  0  0  0  0  0  0  0  0
   10.5447    0.8781    6.6174 O   0  0  0  0  0  0  0  0  0  0  0  0
    7.2092   -0.3815    5.6929 C   0  0  0  0  0  0  0  0  0  0  0  0
    7.5477   -0.6735    6.8342 O   0  0  0  0  0  0  0  0  0  0  0  0
    6.2992   -1.0875    4.9066 N   0  0  0  0  0  0  0  0  0  0  0  0
    5.7624   -2.3074    5.3014 C   0  0  0  0  0  0  0  0  0  0  0  0
    6.2351   -2.9231    6.4520 N   0  0  0  0  0  0  0  0  0  0  0  0
    4.7916   -2.8787    4.5550 C   0  0  0  0  0  0  0  0  0  0  0  0
    4.1487   -4.1403    5.1078 C   0  0  0  0  0  0  0  0  0  0  0  0
    3.6154   -5.1869    5.5664 N   0  0  0  0  0  0  0  0  0  0  0  0
    4.2147   -2.2640    3.3064 C   0  0  3  0  0  0  0  0  0  0  0  0
    2.7375   -2.0022    3.4686 C   0  0  0  0  0  0  0  0  0  0  0  0
    1.6123   -2.4685    2.8190 C   0  0  0  0  0  0  0  0  0  0  0  0
    0.5017   -1.9234    3.5077 C   0  0  0  0  0  0  0  0  0  0  0  0
    1.0173   -1.1556    4.5243 C   0  0  0  0  0  0  0  0  0  0  0  0
    2.3732   -1.1873    4.5023 O   0  0  0  0  0  0  0  0  0  0  0  0
    2.1236    0.0373   -1.5804 H   0  0  0  0  0  0  0  0  0  0  0  0
    2.4180    0.6115    0.0747 H   0  0  0  0  0  0  0  0  0  0  0  0
    1.5869   -0.9171   -0.1802 H   0  0  0  0  0  0  0  0  0  0  0  0
    4.5097   -0.4137   -1.0153 H   0  0  0  0  0  0  0  0  0  0  0  0
    3.6207   -1.9287   -1.1538 H   0  0  0  0  0  0  0  0  0  0  0  0
    8.8926    2.5286    4.7375 H   0  0  0  0  0  0  0  0  0  0  0  0
    8.1044    2.4210    8.1649 H   0  0  0  0  0  0  0  0  0  0  0  0
   10.1174    1.5740    9.7939 H   0  0  0  0  0  0  0  0  0  0  0  0
   11.8942    0.3297    8.0827 H   0  0  0  0  0  0  0  0  0  0  0  0
    6.7579   -2.2737    7.0541 H   0  0  0  0  0  0  0  0  0  0  0  0
    5.5661   -3.4681    6.9899 H   0  0  0  0  0  0  0  0  0  0  0  0
    4.3392   -3.0291    2.5259 H   0  0  0  0  0  0  0  0  0  0  0  0
    1.5938   -3.1395    1.9710 H   0  0  0  0  0  0  0  0  0  0  0  0
   -0.5473   -2.0828    3.2997 H   0  0  0  0  0  0  0  0  0  0  0  0
    0.5753   -0.5615    5.3118 H   0  0  0  0  0  0  0  0  0  0  0  0
  1  2  1  0  0  0  0
  1 30  1  0  0  0  0
  1 31  1  0  0  0  0
  1 32  1  0  0  0  0
  2  3  1  0  0  0  0
  2 33  1  0  0  0  0
  2 34  1  0  0  0  0
  3  4  1  0  0  0  0
  4  5  2  0  0  0  0
  4  6  1  0  0  0  0
  6  7  2  0  0  0  0
  6 24  1  0  0  0  0
  7  8  1  0  0  0  0
  7 18  1  0  0  0  0
  8  9  1  0  0  0  0
  9 10  2  3  0  0  0
  9 16  1  0  0  0  0
 10 11  1  0  0  0  0
 10 35  1  0  0  0  0
 11 12  2  0  0  0  0
 11 15  1  0  0  0  0
 12 13  1  0  0  0  0
 12 36  1  0  0  0  0
 13 14  2  0  0  0  0
 13 37  1  0  0  0  0
 14 15  1  0  0  0  0
 14 38  1  0  0  0  0
 16 17  2  0  0  0  0
 16 18  1  0  0  0  0
 18 19  1  0  0  0  0
 19 20  1  0  0  0  0
 19 21  2  0  0  0  0
 20 39  1  0  0  0  0
 20 40  1  0  0  0  0
 21 22  1  0  0  0  0
 21 24  1  0  0  0  0
 22 23  3  0  0  0  0
 24 25  1  0  0  0  0
 24 41  1  0  0  0  0
 25 26  2  0  0  0  0
 25 29  1  0  0  0  0
 26 27  1  0  0  0  0
 26 42  1  0  0  0  0
 27 28  2  0  0  0  0
 27 43  1  0  0  0  0
 28 29  1  0  0  0  0
 28 44  1  0  0  0  0
M  END
$$$$
