CHEMBL205114
 OpenBabel04072215363D

 37 39  0  0  0  0  0  0  0  0999 V2000
    1.2177   -0.4787   -0.2799 O   0  0  0  0  0  0  0  0  0  0  0  0
    2.2687    0.0416    0.0839 C   0  0  0  0  0  0  0  0  0  0  0  0
    2.7925    1.1723   -0.5324 N   0  0  0  0  0  0  0  0  0  0  0  0
    2.1716    1.8931   -1.5765 C   0  0  0  0  0  0  0  0  0  0  0  0
    0.8091    1.7815   -1.8789 C   0  0  0  0  0  0  0  0  0  0  0  0
    0.2546    2.4652   -2.9628 C   0  0  0  0  0  0  0  0  0  0  0  0
    1.0614    3.2780   -3.7479 C   0  0  0  0  0  0  0  0  0  0  0  0
    0.3908    4.0865   -5.1092 Cl  0  0  0  0  0  0  0  0  0  0  0  0
    2.4107    3.4346   -3.4373 C   0  0  0  0  0  0  0  0  0  0  0  0
    2.9624    2.7544   -2.3439 C   0  0  0  0  0  0  0  0  0  0  0  0
    3.0514   -0.5288    1.1705 C   0  0  0  0  0  0  0  0  0  0  0  0
    4.5167    0.1649    1.7383 S   0  0  0  0  0  0  0  0  0  0  0  0
    4.6570   -1.0931    2.8904 C   0  0  0  0  0  0  0  0  0  0  0  0
    3.6997   -1.9915    2.8835 N   0  0  0  0  0  0  0  0  0  0  0  0
    2.7625   -1.6759    1.9074 C   0  0  0  0  0  0  0  0  0  0  0  0
    1.5875   -2.5945    1.7073 C   0  0  0  0  0  0  0  0  0  0  0  0
    1.1035   -3.2940    2.9764 C   0  0  0  0  0  0  0  0  0  0  0  0
   -0.1281   -4.1250    2.6993 C   0  0  0  0  0  0  0  0  0  0  0  0
   -0.0158   -5.4697    2.3389 C   0  0  0  0  0  0  0  0  0  0  0  0
   -1.1734   -6.1866    2.0744 C   0  0  0  0  0  0  0  0  0  0  0  0
   -2.4156   -5.6614    2.1348 N   0  0  0  0  0  0  0  0  0  0  0  0
   -2.5019   -4.3564    2.4690 C   0  0  0  0  0  0  0  0  0  0  0  0
   -1.4044   -3.5569    2.7528 C   0  0  0  0  0  0  0  0  0  0  0  0
    3.7442    1.4175   -0.2931 H   0  0  0  0  0  0  0  0  0  0  0  0
    0.1356    1.1735   -1.2813 H   0  0  0  0  0  0  0  0  0  0  0  0
   -0.8026    2.3451   -3.1857 H   0  0  0  0  0  0  0  0  0  0  0  0
    3.0414    4.0727   -4.0500 H   0  0  0  0  0  0  0  0  0  0  0  0
    4.0208    2.8788   -2.1327 H   0  0  0  0  0  0  0  0  0  0  0  0
    5.4888   -1.1445    3.5819 H   0  0  0  0  0  0  0  0  0  0  0  0
    1.8587   -3.3355    0.9445 H   0  0  0  0  0  0  0  0  0  0  0  0
    0.7395   -2.0291    1.3107 H   0  0  0  0  0  0  0  0  0  0  0  0
    0.8718   -2.5541    3.7536 H   0  0  0  0  0  0  0  0  0  0  0  0
    1.8912   -3.9336    3.3929 H   0  0  0  0  0  0  0  0  0  0  0  0
    0.9515   -5.9545    2.2614 H   0  0  0  0  0  0  0  0  0  0  0  0
   -1.1290   -7.2355    1.7963 H   0  0  0  0  0  0  0  0  0  0  0  0
   -3.5103   -3.9539    2.5021 H   0  0  0  0  0  0  0  0  0  0  0  0
   -1.5486   -2.5111    3.0038 H   0  0  0  0  0  0  0  0  0  0  0  0
  1  2  2  0  0  0  0
  2  3  1  0  0  0  0
  2 11  1  0  0  0  0
  3  4  1  0  0  0  0
  3 24  1  0  0  0  0
  4  5  1  0  0  0  0
  4 10  2  0  0  0  0
  5  6  2  0  0  0  0
  5 25  1  0  0  0  0
  6  7  1  0  0  0  0
  6 26  1  0  0  0  0
  7  8  1  0  0  0  0
  7  9  2  0  0  0  0
  9 10  1  0  0  0  0
  9 27  1  0  0  0  0
 10 28  1  0  0  0  0
 11 12  1  0  0  0  0
 11 15  2  0  0  0  0
 12 13  1  0  0  0  0
 13 14  2  0  0  0  0
 13 29  1  0  0  0  0
 14 15  1  0  0  0  0
 15 16  1  0  0  0  0
 16 17  1  0  0  0  0
 16 30  1  0  0  0  0
 16 31  1  0  0  0  0
 17 18  1  0  0  0  0
 17 32  1  0  0  0  0
 17 33  1  0  0  0  0
 18 19  1  0  0  0  0
 18 23  2  0  0  0  0
 19 20  2  0  0  0  0
 19 34  1  0  0  0  0
 20 21  1  0  0  0  0
 20 35  1  0  0  0  0
 21 22  2  0  0  0  0
 22 23  1  0  0  0  0
 22 36  1  0  0  0  0
 23 37  1  0  0  0  0
M  END
$$$$
