CHEMBL69868
 OpenBabel04072215383D

 53 57  0  0  0  0  0  0  0  0999 V2000
    1.0120   -0.1100   -0.1770 C   0  0  0  0  0  0  0  0  0  0  0  0
    2.4967    0.0757   -0.0782 C   0  0  0  0  0  0  0  0  0  0  0  0
    3.2896    1.2272   -0.0472 C   0  0  0  0  0  0  0  0  0  0  0  0
    2.7436    2.5869   -0.0880 C   0  0  0  0  0  0  0  0  0  0  0  0
    1.5734    2.9099    0.6057 C   0  0  0  0  0  0  0  0  0  0  0  0
    1.0383    4.1965    0.5523 C   0  0  0  0  0  0  0  0  0  0  0  0
    1.7641    5.2327   -0.0355 C   0  0  0  0  0  0  0  0  0  0  0  0
    1.4059    6.5587    0.0224 O   0  0  0  0  0  0  0  0  0  0  0  0
    0.6287    7.0008    1.0703 C   0  0  0  0  0  0  0  0  0  0  0  0
    0.7314    6.5261    2.3829 C   0  0  0  0  0  0  0  0  0  0  0  0
   -0.1762    6.9446    3.3554 C   0  0  0  0  0  0  0  0  0  0  0  0
   -1.1365    7.9027    3.0394 C   0  0  0  0  0  0  0  0  0  0  0  0
   -1.1835    8.4474    1.7556 C   0  0  0  0  0  0  0  0  0  0  0  0
   -0.3052    7.9947    0.7707 C   0  0  0  0  0  0  0  0  0  0  0  0
    2.9204    4.9271   -0.7493 C   0  0  0  0  0  0  0  0  0  0  0  0
    3.3769    3.6050   -0.8141 C   0  0  0  0  0  0  0  0  0  0  0  0
    4.6660    0.7998   -0.0014 C   0  0  0  0  0  0  0  0  0  0  0  0
    5.9466    1.3981    0.0346 C   0  0  0  0  0  0  0  0  0  0  0  0
    6.1983    2.7640    0.0750 N   0  0  0  0  0  0  0  0  0  0  0  0
    7.0449    0.6140    0.0352 N   0  0  0  0  0  0  0  0  0  0  0  0
    6.8778   -0.7129    0.0181 C   0  0  0  0  0  0  0  0  0  0  0  0
    5.7266   -1.3974    0.0080 N   0  0  0  0  0  0  0  0  0  0  0  0
    4.6517   -0.5905   -0.0041 C   0  0  0  0  0  0  0  0  0  0  0  0
    3.3476   -1.0199   -0.0266 N   0  0  0  0  0  0  0  0  0  0  0  0
    2.9147   -2.4025   -0.0910 C   0  0  0  0  0  0  0  0  0  0  0  0
    3.3812   -3.3486    1.0142 C   0  0  0  0  0  0  0  0  0  0  0  0
    3.0604   -4.7379    0.4557 C   0  0  0  0  0  0  0  0  0  0  0  0
    2.9123   -4.5771   -1.0613 C   0  0  0  0  0  0  0  0  0  0  0  0
    3.3066   -3.1383   -1.3691 C   0  0  0  0  0  0  0  0  0  0  0  0
    0.4692    0.8120   -0.3847 H   0  0  0  0  0  0  0  0  0  0  0  0
    0.6257   -0.5263    0.7612 H   0  0  0  0  0  0  0  0  0  0  0  0
    0.7583   -0.7881   -0.9975 H   0  0  0  0  0  0  0  0  0  0  0  0
    1.0483    2.1718    1.2026 H   0  0  0  0  0  0  0  0  0  0  0  0
    0.0764    4.3766    1.0223 H   0  0  0  0  0  0  0  0  0  0  0  0
    1.4885    5.7948    2.6534 H   0  0  0  0  0  0  0  0  0  0  0  0
   -0.1358    6.5165    4.3531 H   0  0  0  0  0  0  0  0  0  0  0  0
   -1.8447    8.2300    3.7962 H   0  0  0  0  0  0  0  0  0  0  0  0
   -1.9146    9.2151    1.5178 H   0  0  0  0  0  0  0  0  0  0  0  0
   -0.3546    8.4067   -0.2337 H   0  0  0  0  0  0  0  0  0  0  0  0
    3.4786    5.7153   -1.2483 H   0  0  0  0  0  0  0  0  0  0  0  0
    4.2558    3.3917   -1.4181 H   0  0  0  0  0  0  0  0  0  0  0  0
    5.5228    3.2899    0.6141 H   0  0  0  0  0  0  0  0  0  0  0  0
    7.1708    2.9312    0.3056 H   0  0  0  0  0  0  0  0  0  0  0  0
    7.7888   -1.3070    0.0139 H   0  0  0  0  0  0  0  0  0  0  0  0
    1.8203   -2.4074   -0.0366 H   0  0  0  0  0  0  0  0  0  0  0  0
    2.8640   -3.1619    1.9618 H   0  0  0  0  0  0  0  0  0  0  0  0
    4.4551   -3.2710    1.2077 H   0  0  0  0  0  0  0  0  0  0  0  0
    2.1239   -5.1168    0.8810 H   0  0  0  0  0  0  0  0  0  0  0  0
    3.8487   -5.4541    0.7093 H   0  0  0  0  0  0  0  0  0  0  0  0
    1.8663   -4.7434   -1.3471 H   0  0  0  0  0  0  0  0  0  0  0  0
    3.5228   -5.2955   -1.6158 H   0  0  0  0  0  0  0  0  0  0  0  0
    2.7893   -2.7471   -2.2506 H   0  0  0  0  0  0  0  0  0  0  0  0
    4.3840   -3.0813   -1.5609 H   0  0  0  0  0  0  0  0  0  0  0  0
  1  2  1  0  0  0  0
  1 30  1  0  0  0  0
  1 31  1  0  0  0  0
  1 32  1  0  0  0  0
  2  3  2  0  0  0  0
  2 24  1  0  0  0  0
  3  4  1  0  0  0  0
  3 17  1  0  0  0  0
  4  5  1  0  0  0  0
  4 16  2  0  0  0  0
  5  6  2  0  0  0  0
  5 33  1  0  0  0  0
  6  7  1  0  0  0  0
  6 34  1  0  0  0  0
  7  8  1  0  0  0  0
  7 15  2  0  0  0  0
  8  9  1  0  0  0  0
  9 10  1  0  0  0  0
  9 14  2  0  0  0  0
 10 11  2  0  0  0  0
 10 35  1  0  0  0  0
 11 12  1  0  0  0  0
 11 36  1  0  0  0  0
 12 13  2  0  0  0  0
 12 37  1  0  0  0  0
 13 14  1  0  0  0  0
 13 38  1  0  0  0  0
 14 39  1  0  0  0  0
 15 16  1  0  0  0  0
 15 40  1  0  0  0  0
 16 41  1  0  0  0  0
 17 18  1  0  0  0  0
 17 23  2  0  0  0  0
 18 19  1  0  0  0  0
 18 20  2  0  0  0  0
 19 42  1  0  0  0  0
 19 43  1  0  0  0  0
 20 21  1  0  0  0  0
 21 22  2  0  0  0  0
 21 44  1  0  0  0  0
 22 23  1  0  0  0  0
 23 24  1  0  0  0  0
 24 25  1  0  0  0  0
 25 26  1  0  0  0  0
 25 29  1  0  0  0  0
 25 45  1  0  0  0  0
 26 27  1  0  0  0  0
 26 46  1  0  0  0  0
 26 47  1  0  0  0  0
 27 28  1  0  0  0  0
 27 48  1  0  0  0  0
 27 49  1  0  0  0  0
 28 29  1  0  0  0  0
 28 50  1  0  0  0  0
 28 51  1  0  0  0  0
 29 52  1  0  0  0  0
 29 53  1  0  0  0  0
M  END
$$$$
