CHEMBL3960877
 OpenBabel04072215373D

 64 67  0  0  0  0  0  0  0  0999 V2000
    0.5206   -1.9349   -3.3903 C   0  0  0  0  0  0  0  0  0  0  0  0
    1.7536   -2.6524   -3.2610 O   0  0  0  0  0  0  0  0  0  0  0  0
    2.7855   -2.0073   -2.6203 C   0  0  0  0  0  0  0  0  0  0  0  0
    2.7192   -0.6902   -2.1668 C   0  0  0  0  0  0  0  0  0  0  0  0
    3.8023   -0.1312   -1.4927 C   0  0  0  0  0  0  0  0  0  0  0  0
    3.8440    1.1382   -0.9794 O   0  0  0  0  0  0  0  0  0  0  0  0
    2.7326    1.9822   -1.2620 C   0  0  0  0  0  0  0  0  0  0  0  0
    4.9549   -0.8959   -1.2676 C   0  0  0  0  0  0  0  0  0  0  0  0
    5.0652   -2.2255   -1.6982 C   0  0  0  0  0  0  0  0  0  0  0  0
    6.1464   -3.0660   -1.3254 N   0  0  0  0  0  0  0  0  0  0  0  0
    6.7216   -2.8474    0.0614 C   0  0  0  0  0  0  0  0  0  0  0  0
    5.7838   -2.7711    1.2862 C   0  0  0  0  0  0  0  0  0  0  0  0
    5.1717   -4.0750    1.8312 C   0  0  0  0  0  0  0  0  0  0  0  0
    4.4714   -3.7546    3.1000 N   0  0  0  0  0  0  0  0  0  0  0  0
    3.7961   -4.9418    3.6836 C   0  0  0  0  0  0  0  0  0  0  0  0
    3.0293   -4.5864    4.9751 C   0  0  0  0  0  0  0  0  0  0  0  0
    3.1857   -3.3145    5.4439 N   0  0  0  0  0  0  0  0  0  0  0  0
    2.3115   -5.3855    5.5634 O   0  0  0  0  0  0  0  0  0  0  0  0
    7.2585   -3.5035   -2.1626 C   0  0  0  0  0  0  0  0  0  0  0  0
    7.7680   -4.7528   -1.8165 C   0  0  0  0  0  0  0  0  0  0  0  0
    9.0672   -5.0943   -2.1386 C   0  0  0  0  0  0  0  0  0  0  0  0
    9.8494   -4.2886   -2.9281 C   0  0  0  0  0  0  0  0  0  0  0  0
   11.1236   -4.6973   -2.9810 N   0  0  0  0  0  0  0  0  0  0  0  0
   11.9233   -4.0582   -3.8404 C   0  0  0  0  0  0  0  0  0  0  0  0
   11.4543   -3.0798   -4.6889 C   0  0  0  0  0  0  0  0  0  0  0  0
   12.3660   -2.6941   -5.7630 C   0  0  0  0  0  0  0  0  0  0  0  0
   12.4544   -3.1578   -7.1034 C   0  0  0  0  0  0  0  0  0  0  0  0
   13.5579   -2.7295   -7.7321 N   0  0  0  0  0  0  0  0  0  0  0  0
   14.1839   -2.0001   -6.7935 N   0  0  0  0  0  0  0  0  0  0  0  0
   15.2178   -1.0591   -7.1565 C   0  0  0  0  0  0  0  0  0  0  0  0
   13.6137   -2.1256   -5.5565 C   0  0  0  0  0  0  0  0  0  0  0  0
   10.1684   -2.5829   -4.5654 N   0  0  0  0  0  0  0  0  0  0  0  0
    9.3270   -3.1646   -3.5988 C   0  0  0  0  0  0  0  0  0  0  0  0
    7.9932   -2.7591   -3.1379 C   0  0  0  0  0  0  0  0  0  0  0  0
    3.9608   -2.7587   -2.4007 C   0  0  0  0  0  0  0  0  0  0  0  0
   -0.2048   -2.5812   -3.8944 H   0  0  0  0  0  0  0  0  0  0  0  0
    0.6456   -1.0402   -4.0102 H   0  0  0  0  0  0  0  0  0  0  0  0
    0.1048   -1.6767   -2.4112 H   0  0  0  0  0  0  0  0  0  0  0  0
    1.8250   -0.1046   -2.3271 H   0  0  0  0  0  0  0  0  0  0  0  0
    2.9458    2.9692   -0.8423 H   0  0  0  0  0  0  0  0  0  0  0  0
    1.8207    1.6071   -0.7845 H   0  0  0  0  0  0  0  0  0  0  0  0
    2.5912    2.1027   -2.3416 H   0  0  0  0  0  0  0  0  0  0  0  0
    5.7642   -0.4324   -0.7118 H   0  0  0  0  0  0  0  0  0  0  0  0
    7.3097   -1.9199    0.0312 H   0  0  0  0  0  0  0  0  0  0  0  0
    7.4452   -3.6336    0.3128 H   0  0  0  0  0  0  0  0  0  0  0  0
    4.9941   -2.0300    1.1427 H   0  0  0  0  0  0  0  0  0  0  0  0
    6.4176   -2.3786    2.0966 H   0  0  0  0  0  0  0  0  0  0  0  0
    5.9603   -4.8106    2.0323 H   0  0  0  0  0  0  0  0  0  0  0  0
    4.4718   -4.5022    1.1060 H   0  0  0  0  0  0  0  0  0  0  0  0
    3.7462   -3.0619    2.8996 H   0  0  0  0  0  0  0  0  0  0  0  0
    4.5320   -5.7081    3.9485 H   0  0  0  0  0  0  0  0  0  0  0  0
    3.0670   -5.3469    2.9750 H   0  0  0  0  0  0  0  0  0  0  0  0
    3.9833   -2.7843    5.1200 H   0  0  0  0  0  0  0  0  0  0  0  0
    2.7887   -3.1070    6.3523 H   0  0  0  0  0  0  0  0  0  0  0  0
    7.2076   -5.4111   -1.1605 H   0  0  0  0  0  0  0  0  0  0  0  0
    9.5024   -5.9899   -1.7131 H   0  0  0  0  0  0  0  0  0  0  0  0
   12.9516   -4.4059   -3.8562 H   0  0  0  0  0  0  0  0  0  0  0  0
   11.7835   -3.8141   -7.6437 H   0  0  0  0  0  0  0  0  0  0  0  0
   15.3799   -1.0785   -8.2374 H   0  0  0  0  0  0  0  0  0  0  0  0
   16.1403   -1.3034   -6.6255 H   0  0  0  0  0  0  0  0  0  0  0  0
   14.8618   -0.0673   -6.8619 H   0  0  0  0  0  0  0  0  0  0  0  0
   14.1146   -1.7593   -4.6715 H   0  0  0  0  0  0  0  0  0  0  0  0
    7.5924   -1.8174   -3.5113 H   0  0  0  0  0  0  0  0  0  0  0  0
    3.9818   -3.7959   -2.7285 H   0  0  0  0  0  0  0  0  0  0  0  0
  1  2  1  0  0  0  0
  1 36  1  0  0  0  0
  1 37  1  0  0  0  0
  1 38  1  0  0  0  0
  2  3  1  0  0  0  0
  3  4  1  0  0  0  0
  3 35  2  0  0  0  0
  4  5  2  0  0  0  0
  4 39  1  0  0  0  0
  5  6  1  0  0  0  0
  5  8  1  0  0  0  0
  6  7  1  0  0  0  0
  7 40  1  0  0  0  0
  7 41  1  0  0  0  0
  7 42  1  0  0  0  0
  8  9  2  0  0  0  0
  8 43  1  0  0  0  0
  9 10  1  0  0  0  0
  9 35  1  0  0  0  0
 10 11  1  0  0  0  0
 10 19  1  0  0  0  0
 11 12  1  0  0  0  0
 11 44  1  0  0  0  0
 11 45  1  0  0  0  0
 12 13  1  0  0  0  0
 12 46  1  0  0  0  0
 12 47  1  0  0  0  0
 13 14  1  0  0  0  0
 13 48  1  0  0  0  0
 13 49  1  0  0  0  0
 14 15  1  0  0  0  0
 14 50  1  0  0  0  0
 15 16  1  0  0  0  0
 15 51  1  0  0  0  0
 15 52  1  0  0  0  0
 16 17  1  0  0  0  0
 16 18  2  0  0  0  0
 17 53  1  0  0  0  0
 17 54  1  0  0  0  0
 19 20  1  0  0  0  0
 19 34  2  0  0  0  0
 20 21  2  0  0  0  0
 20 55  1  0  0  0  0
 21 22  1  0  0  0  0
 21 56  1  0  0  0  0
 22 23  1  0  0  0  0
 22 33  2  0  0  0  0
 23 24  2  0  0  0  0
 24 25  1  0  0  0  0
 24 57  1  0  0  0  0
 25 26  1  0  0  0  0
 25 32  2  0  0  0  0
 26 27  1  0  0  0  0
 26 31  2  0  0  0  0
 27 28  2  0  0  0  0
 27 58  1  0  0  0  0
 28 29  1  0  0  0  0
 29 30  1  0  0  0  0
 29 31  1  0  0  0  0
 30 59  1  0  0  0  0
 30 60  1  0  0  0  0
 30 61  1  0  0  0  0
 31 62  1  0  0  0  0
 32 33  1  0  0  0  0
 33 34  1  0  0  0  0
 34 63  1  0  0  0  0
 35 64  1  0  0  0  0
M  END
$$$$
