CHEMBL2408732
 OpenBabel04072215363D

 41 45  0  0  0  0  0  0  0  0999 V2000
   -2.9604   -0.6976   -1.2733 C   0  0  0  0  0  0  0  0  0  0  0  0
   -1.6371   -0.5175   -0.6178 C   0  0  0  0  0  0  0  0  0  0  0  0
   -0.7198   -1.3999   -0.0603 C   0  0  0  0  0  0  0  0  0  0  0  0
   -0.8207   -2.8461    0.0093 C   0  0  0  0  0  0  0  0  0  0  0  0
   -1.3589   -3.6431   -0.9998 C   0  0  0  0  0  0  0  0  0  0  0  0
   -1.4347   -5.0001   -0.9822 N   0  0  0  0  0  0  0  0  0  0  0  0
   -0.9097   -5.6823    0.0606 C   0  0  0  0  0  0  0  0  0  0  0  0
   -0.9930   -7.0657    0.0426 N   0  0  0  0  0  0  0  0  0  0  0  0
   -0.3347   -4.9394    1.0949 C   0  0  0  0  0  0  0  0  0  0  0  0
    0.2672   -5.4432    2.2165 O   0  0  0  0  0  0  0  0  0  0  0  0
    0.6863   -4.3853    2.9755 C   0  0  0  0  0  0  0  0  0  0  0  0
    1.4392   -4.4833    4.2720 C   0  0  0  0  0  0  0  0  0  0  0  0
    1.7393   -3.3653    5.0218 C   0  0  0  0  0  0  0  0  0  0  0  0
    2.6029   -3.7377    6.4393 S   0  0  0  0  0  0  0  0  0  0  0  0
    2.6188   -5.4165    6.0689 C   0  0  0  0  0  0  0  0  0  0  0  0
    3.2123   -6.4288    6.8262 C   0  0  0  0  0  0  0  0  0  0  0  0
    3.1594   -7.7122    6.4077 N   0  0  0  0  0  0  0  0  0  0  0  0
    2.5257   -7.9897    5.2545 C   0  0  0  0  0  0  0  0  0  0  0  0
    1.9079   -7.0420    4.4538 C   0  0  0  0  0  0  0  0  0  0  0  0
    1.9498   -5.6934    4.8696 C   0  0  0  0  0  0  0  0  0  0  0  0
    0.3190   -3.2106    2.3492 C   0  0  0  0  0  0  0  0  0  0  0  0
   -0.2943   -3.5487    1.1107 C   0  0  0  0  0  0  0  0  0  0  0  0
    0.3263   -0.5611    0.3981 C   0  0  0  0  0  0  0  0  0  0  0  0
    0.0962    0.7303    0.1751 N   0  0  0  0  0  0  0  0  0  0  0  0
   -1.0846    0.7354   -0.4621 N   0  0  0  0  0  0  0  0  0  0  0  0
   -1.6226    1.9951   -0.9242 C   0  0  0  0  0  0  0  0  0  0  0  0
   -3.3246   -1.7247   -1.2072 H   0  0  0  0  0  0  0  0  0  0  0  0
   -2.8969   -0.4275   -2.3329 H   0  0  0  0  0  0  0  0  0  0  0  0
   -3.7162   -0.0635   -0.7993 H   0  0  0  0  0  0  0  0  0  0  0  0
   -1.7508   -3.2019   -1.9124 H   0  0  0  0  0  0  0  0  0  0  0  0
   -1.7093   -7.3776   -0.6022 H   0  0  0  0  0  0  0  0  0  0  0  0
   -0.9800   -7.4944    0.9588 H   0  0  0  0  0  0  0  0  0  0  0  0
    1.4931   -2.3322    4.8214 H   0  0  0  0  0  0  0  0  0  0  0  0
    3.7353   -6.2362    7.7560 H   0  0  0  0  0  0  0  0  0  0  0  0
    2.5277   -9.0387    4.9707 H   0  0  0  0  0  0  0  0  0  0  0  0
    1.4216   -7.3401    3.5318 H   0  0  0  0  0  0  0  0  0  0  0  0
    0.5014   -2.2132    2.7209 H   0  0  0  0  0  0  0  0  0  0  0  0
    1.2523   -0.8379    0.8848 H   0  0  0  0  0  0  0  0  0  0  0  0
   -0.9614    2.8099   -0.6172 H   0  0  0  0  0  0  0  0  0  0  0  0
   -2.6106    2.1358   -0.4804 H   0  0  0  0  0  0  0  0  0  0  0  0
   -1.6850    1.9600   -2.0144 H   0  0  0  0  0  0  0  0  0  0  0  0
  1  2  1  0  0  0  0
  1 27  1  0  0  0  0
  1 28  1  0  0  0  0
  1 29  1  0  0  0  0
  2  3  2  0  0  0  0
  2 25  1  0  0  0  0
  3  4  1  0  0  0  0
  3 23  1  0  0  0  0
  4  5  1  0  0  0  0
  4 22  2  0  0  0  0
  5  6  2  0  0  0  0
  5 30  1  0  0  0  0
  6  7  1  0  0  0  0
  7  8  1  0  0  0  0
  7  9  2  0  0  0  0
  8 31  1  0  0  0  0
  8 32  1  0  0  0  0
  9 10  1  0  0  0  0
  9 22  1  0  0  0  0
 10 11  1  0  0  0  0
 11 12  1  0  0  0  0
 11 21  2  0  0  0  0
 12 13  2  0  0  0  0
 12 20  1  0  0  0  0
 13 14  1  0  0  0  0
 13 33  1  0  0  0  0
 14 15  1  0  0  0  0
 15 16  1  0  0  0  0
 15 20  2  0  0  0  0
 16 17  2  0  0  0  0
 16 34  1  0  0  0  0
 17 18  1  0  0  0  0
 18 19  2  0  0  0  0
 18 35  1  0  0  0  0
 19 20  1  0  0  0  0
 19 36  1  0  0  0  0
 21 22  1  0  0  0  0
 21 37  1  0  0  0  0
 23 24  2  0  0  0  0
 23 38  1  0  0  0  0
 24 25  1  0  0  0  0
 25 26  1  0  0  0  0
 26 39  1  0  0  0  0
 26 40  1  0  0  0  0
 26 41  1  0  0  0  0
M  END
$$$$
