CHEMBL3932022
 OpenBabel04072215373D

 67 70  0  0  0  0  0  0  0  0999 V2000
    0.7922    2.5203    3.4466 C   0  0  0  0  0  0  0  0  0  0  0  0
    2.1739    2.8863    3.4437 O   0  0  0  0  0  0  0  0  0  0  0  0
    3.0386    2.0957    2.7255 C   0  0  0  0  0  0  0  0  0  0  0  0
    2.6602    0.9483    2.0280 C   0  0  0  0  0  0  0  0  0  0  0  0
    3.6026    0.2598    1.2688 C   0  0  0  0  0  0  0  0  0  0  0  0
    3.3500   -0.8527    0.5083 O   0  0  0  0  0  0  0  0  0  0  0  0
    2.0346   -1.3956    0.5664 C   0  0  0  0  0  0  0  0  0  0  0  0
    4.9287    0.7204    1.2163 C   0  0  0  0  0  0  0  0  0  0  0  0
    5.3577    1.8669    1.9073 C   0  0  0  0  0  0  0  0  0  0  0  0
    6.6395    2.4479    1.7137 N   0  0  0  0  0  0  0  0  0  0  0  0
    7.2547    2.2900    0.3291 C   0  0  0  0  0  0  0  0  0  0  0  0
    6.4679    2.8108   -0.9108 C   0  0  0  0  0  0  0  0  0  0  0  0
    6.2536    4.2473   -1.1503 N   0  0  0  0  0  0  0  0  0  0  0  0
    7.4167    5.1161   -1.3638 C   0  0  0  0  0  0  0  0  0  0  0  0
    8.3754    4.6658   -2.4717 C   0  0  0  0  0  0  0  0  0  0  0  0
    6.9005    6.5189   -1.7288 C   0  0  0  0  0  0  0  0  0  0  0  0
    7.7319    2.6032    2.6596 C   0  0  0  0  0  0  0  0  0  0  0  0
    8.5106    3.7242    2.4230 C   0  0  0  0  0  0  0  0  0  0  0  0
    9.8528    3.7014    2.7518 C   0  0  0  0  0  0  0  0  0  0  0  0
   10.4095    2.6908    3.4819 C   0  0  0  0  0  0  0  0  0  0  0  0
   11.7446    2.7434    3.5171 N   0  0  0  0  0  0  0  0  0  0  0  0
   12.3443    1.9426    4.3945 C   0  0  0  0  0  0  0  0  0  0  0  0
   11.6455    1.1445    5.2689 C   0  0  0  0  0  0  0  0  0  0  0  0
   12.4034    0.7502    6.4705 C   0  0  0  0  0  0  0  0  0  0  0  0
   12.4005    1.4033    7.7344 C   0  0  0  0  0  0  0  0  0  0  0  0
   13.3877    1.0023    8.5392 N   0  0  0  0  0  0  0  0  0  0  0  0
   14.0412    0.0821    7.8080 N   0  0  0  0  0  0  0  0  0  0  0  0
   15.0410   -0.7468    8.4516 C   0  0  0  0  0  0  0  0  0  0  0  0
   13.6041    0.0282    6.4980 C   0  0  0  0  0  0  0  0  0  0  0  0
   14.3339   -0.7365    5.4517 C   0  0  0  0  0  0  0  0  0  0  0  0
   15.7272   -0.4845    5.5868 O   0  0  0  0  0  0  0  0  0  0  0  0
   10.2733    0.9746    5.1305 N   0  0  0  0  0  0  0  0  0  0  0  0
    9.6169    1.7259    4.1383 C   0  0  0  0  0  0  0  0  0  0  0  0
    8.2386    1.6653    3.6145 C   0  0  0  0  0  0  0  0  0  0  0  0
    4.3840    2.5294    2.6822 C   0  0  0  0  0  0  0  0  0  0  0  0
    0.2263    3.3189    3.9378 H   0  0  0  0  0  0  0  0  0  0  0  0
    0.6351    1.6002    4.0203 H   0  0  0  0  0  0  0  0  0  0  0  0
    0.3873    2.4206    2.4324 H   0  0  0  0  0  0  0  0  0  0  0  0
    1.6354    0.6038    2.0597 H   0  0  0  0  0  0  0  0  0  0  0  0
    2.0154   -2.2976   -0.0530 H   0  0  0  0  0  0  0  0  0  0  0  0
    1.2971   -0.6967    0.1566 H   0  0  0  0  0  0  0  0  0  0  0  0
    1.7734   -1.6898    1.5886 H   0  0  0  0  0  0  0  0  0  0  0  0
    5.6195    0.1633    0.5906 H   0  0  0  0  0  0  0  0  0  0  0  0
    7.4848    1.2281    0.1786 H   0  0  0  0  0  0  0  0  0  0  0  0
    8.2321    2.7825    0.2599 H   0  0  0  0  0  0  0  0  0  0  0  0
    5.4804    2.3414   -0.9394 H   0  0  0  0  0  0  0  0  0  0  0  0
    6.9820    2.4089   -1.7940 H   0  0  0  0  0  0  0  0  0  0  0  0
    5.6573    4.6266   -0.4149 H   0  0  0  0  0  0  0  0  0  0  0  0
    7.9802    5.2009   -0.4294 H   0  0  0  0  0  0  0  0  0  0  0  0
    7.8663    4.5596   -3.4366 H   0  0  0  0  0  0  0  0  0  0  0  0
    8.8618    3.7178   -2.2281 H   0  0  0  0  0  0  0  0  0  0  0  0
    9.1733    5.4073   -2.6076 H   0  0  0  0  0  0  0  0  0  0  0  0
    6.3713    6.5150   -2.6901 H   0  0  0  0  0  0  0  0  0  0  0  0
    7.7306    7.2310   -1.8154 H   0  0  0  0  0  0  0  0  0  0  0  0
    6.2146    6.9078   -0.9691 H   0  0  0  0  0  0  0  0  0  0  0  0
    8.1365    4.5427    1.8130 H   0  0  0  0  0  0  0  0  0  0  0  0
   10.4926    4.4892    2.3718 H   0  0  0  0  0  0  0  0  0  0  0  0
   13.4294    2.0272    4.4204 H   0  0  0  0  0  0  0  0  0  0  0  0
   11.7524    2.1974    8.0866 H   0  0  0  0  0  0  0  0  0  0  0  0
   15.0333   -0.5617    9.5300 H   0  0  0  0  0  0  0  0  0  0  0  0
   16.0333   -0.5171    8.0571 H   0  0  0  0  0  0  0  0  0  0  0  0
   14.7790   -1.7915    8.2662 H   0  0  0  0  0  0  0  0  0  0  0  0
   14.0364   -0.4522    4.4398 H   0  0  0  0  0  0  0  0  0  0  0  0
   14.1664   -1.8078    5.5797 H   0  0  0  0  0  0  0  0  0  0  0  0
   15.9314    0.3454    5.1228 H   0  0  0  0  0  0  0  0  0  0  0  0
    7.6099    0.8315    3.9322 H   0  0  0  0  0  0  0  0  0  0  0  0
    4.6456    3.4496    3.2012 H   0  0  0  0  0  0  0  0  0  0  0  0
  1  2  1  0  0  0  0
  1 36  1  0  0  0  0
  1 37  1  0  0  0  0
  1 38  1  0  0  0  0
  2  3  1  0  0  0  0
  3  4  1  0  0  0  0
  3 35  2  0  0  0  0
  4  5  2  0  0  0  0
  4 39  1  0  0  0  0
  5  6  1  0  0  0  0
  5  8  1  0  0  0  0
  6  7  1  0  0  0  0
  7 40  1  0  0  0  0
  7 41  1  0  0  0  0
  7 42  1  0  0  0  0
  8  9  2  0  0  0  0
  8 43  1  0  0  0  0
  9 10  1  0  0  0  0
  9 35  1  0  0  0  0
 10 11  1  0  0  0  0
 10 17  1  0  0  0  0
 11 12  1  0  0  0  0
 11 44  1  0  0  0  0
 11 45  1  0  0  0  0
 12 13  1  0  0  0  0
 12 46  1  0  0  0  0
 12 47  1  0  0  0  0
 13 14  1  0  0  0  0
 13 48  1  0  0  0  0
 14 15  1  0  0  0  0
 14 16  1  0  0  0  0
 14 49  1  0  0  0  0
 15 50  1  0  0  0  0
 15 51  1  0  0  0  0
 15 52  1  0  0  0  0
 16 53  1  0  0  0  0
 16 54  1  0  0  0  0
 16 55  1  0  0  0  0
 17 18  1  0  0  0  0
 17 34  2  0  0  0  0
 18 19  2  0  0  0  0
 18 56  1  0  0  0  0
 19 20  1  0  0  0  0
 19 57  1  0  0  0  0
 20 21  1  0  0  0  0
 20 33  2  0  0  0  0
 21 22  2  0  0  0  0
 22 23  1  0  0  0  0
 22 58  1  0  0  0  0
 23 24  1  0  0  0  0
 23 32  2  0  0  0  0
 24 25  1  0  0  0  0
 24 29  2  0  0  0  0
 25 26  2  0  0  0  0
 25 59  1  0  0  0  0
 26 27  1  0  0  0  0
 27 28  1  0  0  0  0
 27 29  1  0  0  0  0
 28 60  1  0  0  0  0
 28 61  1  0  0  0  0
 28 62  1  0  0  0  0
 29 30  1  0  0  0  0
 30 31  1  0  0  0  0
 30 63  1  0  0  0  0
 30 64  1  0  0  0  0
 31 65  1  0  0  0  0
 32 33  1  0  0  0  0
 33 34  1  0  0  0  0
 34 66  1  0  0  0  0
 35 67  1  0  0  0  0
M  END
$$$$
