CHEMBL3694672
 OpenBabel04072215373D

 45 48  0  0  0  0  0  0  0  0999 V2000
    0.9524   -0.1968   -0.0196 C   0  0  0  0  0  0  0  0  0  0  0  0
    2.4346   -0.1248    0.2696 C   0  0  0  0  0  0  0  0  0  0  0  0
    3.0415   -1.4243    0.4946 N   0  0  0  0  0  0  0  0  0  0  0  0
    4.3911   -1.4237    0.7850 C   0  0  0  0  0  0  0  0  0  0  0  0
    5.0424   -0.3864    0.7941 O   0  0  0  0  0  0  0  0  0  0  0  0
    4.8854   -2.6927    1.0098 N   0  0  0  0  0  0  0  0  0  0  0  0
    6.2328   -2.9864    1.3370 C   0  0  0  0  0  0  0  0  0  0  0  0
    7.1306   -2.0245    1.7955 C   0  0  0  0  0  0  0  0  0  0  0  0
    8.4689   -2.3427    2.0215 C   0  0  0  0  0  0  0  0  0  0  0  0
    8.9261   -3.6380    1.7963 C   0  0  0  0  0  0  0  0  0  0  0  0
    8.0428   -4.6398    1.3819 C   0  0  0  0  0  0  0  0  0  0  0  0
    8.5446   -6.0053    1.1822 C   0  0  0  0  0  0  0  0  0  0  0  0
    9.5621   -6.6796    1.8469 C   0  0  0  0  0  0  0  0  0  0  0  0
    9.7293   -7.9573    1.3797 N   0  0  0  0  0  0  0  0  0  0  0  0
    8.8449   -8.0888    0.4200 C   0  0  0  0  0  0  0  0  0  0  0  0
    8.5520   -9.1948   -0.4347 C   0  0  0  0  0  0  0  0  0  0  0  0
    7.5886   -9.1086   -1.3808 C   0  0  0  0  0  0  0  0  0  0  0  0
    7.3004  -10.2643   -2.2702 C   0  0  0  0  0  0  0  0  0  0  0  0
    8.0487  -11.3758   -2.1513 N   0  0  0  0  0  0  0  0  0  0  0  0
    7.7190  -12.3976   -2.9575 C   0  0  0  0  0  0  0  0  0  0  0  0
    6.6848  -12.3515   -3.8628 C   0  0  0  0  0  0  0  0  0  0  0  0
    5.9923  -11.1689   -3.9171 C   0  0  0  0  0  0  0  0  0  0  0  0
    6.2770  -10.1156   -3.1373 N   0  0  0  0  0  0  0  0  0  0  0  0
    6.8415   -7.8554   -1.5289 C   0  0  0  0  0  0  0  0  0  0  0  0
    7.1330   -6.8054   -0.7539 C   0  0  0  0  0  0  0  0  0  0  0  0
    8.1078   -6.9195    0.2350 N   0  0  0  0  0  0  0  0  0  0  0  0
    6.6871   -4.3008    1.1881 C   0  0  0  0  0  0  0  0  0  0  0  0
    0.5719    0.8006   -0.2589 H   0  0  0  0  0  0  0  0  0  0  0  0
    0.4023   -0.5711    0.8501 H   0  0  0  0  0  0  0  0  0  0  0  0
    0.7454   -0.8589   -0.8667 H   0  0  0  0  0  0  0  0  0  0  0  0
    2.6127    0.4992    1.1543 H   0  0  0  0  0  0  0  0  0  0  0  0
    2.9549    0.3426   -0.5734 H   0  0  0  0  0  0  0  0  0  0  0  0
    2.4898   -2.1276    0.9645 H   0  0  0  0  0  0  0  0  0  0  0  0
    4.3101   -3.4514    0.6723 H   0  0  0  0  0  0  0  0  0  0  0  0
    6.8172   -1.0052    1.9961 H   0  0  0  0  0  0  0  0  0  0  0  0
    9.1520   -1.5700    2.3633 H   0  0  0  0  0  0  0  0  0  0  0  0
    9.9826   -3.8487    1.9508 H   0  0  0  0  0  0  0  0  0  0  0  0
   10.1777   -6.3084    2.6546 H   0  0  0  0  0  0  0  0  0  0  0  0
    9.1418  -10.0958   -0.2862 H   0  0  0  0  0  0  0  0  0  0  0  0
    8.3292  -13.2898   -2.8440 H   0  0  0  0  0  0  0  0  0  0  0  0
    6.4326  -13.1923   -4.4912 H   0  0  0  0  0  0  0  0  0  0  0  0
    5.1585  -11.0278   -4.6024 H   0  0  0  0  0  0  0  0  0  0  0  0
    6.0634   -7.7864   -2.2813 H   0  0  0  0  0  0  0  0  0  0  0  0
    6.6208   -5.8661   -0.8869 H   0  0  0  0  0  0  0  0  0  0  0  0
    5.9689   -5.0657    0.9145 H   0  0  0  0  0  0  0  0  0  0  0  0
  1  2  1  0  0  0  0
  1 28  1  0  0  0  0
  1 29  1  0  0  0  0
  1 30  1  0  0  0  0
  2  3  1  0  0  0  0
  2 31  1  0  0  0  0
  2 32  1  0  0  0  0
  3  4  1  0  0  0  0
  3 33  1  0  0  0  0
  4  5  2  0  0  0  0
  4  6  1  0  0  0  0
  6  7  1  0  0  0  0
  6 34  1  0  0  0  0
  7  8  1  0  0  0  0
  7 27  2  0  0  0  0
  8  9  2  0  0  0  0
  8 35  1  0  0  0  0
  9 10  1  0  0  0  0
  9 36  1  0  0  0  0
 10 11  2  0  0  0  0
 10 37  1  0  0  0  0
 11 12  1  0  0  0  0
 11 27  1  0  0  0  0
 12 13  2  0  0  0  0
 12 26  1  0  0  0  0
 13 14  1  0  0  0  0
 13 38  1  0  0  0  0
 14 15  2  0  0  0  0
 15 16  1  0  0  0  0
 15 26  1  0  0  0  0
 16 17  2  0  0  0  0
 16 39  1  0  0  0  0
 17 18  1  0  0  0  0
 17 24  1  0  0  0  0
 18 19  1  0  0  0  0
 18 23  2  0  0  0  0
 19 20  2  0  0  0  0
 20 21  1  0  0  0  0
 20 40  1  0  0  0  0
 21 22  2  0  0  0  0
 21 41  1  0  0  0  0
 22 23  1  0  0  0  0
 22 42  1  0  0  0  0
 24 25  2  0  0  0  0
 24 43  1  0  0  0  0
 25 26  1  0  0  0  0
 25 44  1  0  0  0  0
 27 45  1  0  0  0  0
M  END
$$$$
