CHEMBL3759015
 OpenBabel04072215373D

 69 73  0  0  0  0  0  0  0  0999 V2000
    2.7327   -1.0583   -0.8188 C   0  0  0  0  0  0  0  0  0  0  0  0
    2.5307   -0.0198    0.1347 O   0  0  0  0  0  0  0  0  0  0  0  0
    3.2476    1.1345    0.0124 C   0  0  0  0  0  0  0  0  0  0  0  0
    4.3861    1.2423   -0.7808 C   0  0  0  0  0  0  0  0  0  0  0  0
    5.0320    2.4830   -0.9775 C   0  0  0  0  0  0  0  0  0  0  0  0
    6.1083    2.6762   -1.8540 C   0  0  0  0  0  0  0  0  0  0  0  0
    6.5469    1.5860   -2.6530 N   0  0  0  0  0  0  0  0  0  0  0  0
    7.3237    1.6899   -3.8216 C   0  0  0  0  0  0  0  0  0  0  0  0
    8.2586    0.7005   -4.1201 C   0  0  0  0  0  0  0  0  0  0  0  0
    9.1086    0.8404   -5.2147 C   0  0  0  0  0  0  0  0  0  0  0  0
    9.0363    1.9605   -6.0487 C   0  0  0  0  0  0  0  0  0  0  0  0
    9.9526    2.2283   -7.0927 N   0  0  0  0  0  0  0  0  0  0  0  0
   11.0638    1.4639   -7.4033 C   0  0  0  0  0  0  0  0  0  0  0  0
   11.3439    0.3733   -6.9139 O   0  0  0  0  0  0  0  0  0  0  0  0
   12.0111    1.9994   -8.4238 C   0  0  0  0  0  0  0  0  0  0  0  0
   12.1657    3.3645   -8.7011 C   0  0  0  0  0  0  0  0  0  0  0  0
   13.1468    3.7784   -9.6090 C   0  0  0  0  0  0  0  0  0  0  0  0
   13.9759    2.8399  -10.2290 C   0  0  0  0  0  0  0  0  0  0  0  0
   13.8215    1.4848   -9.9465 C   0  0  0  0  0  0  0  0  0  0  0  0
   14.8586    0.3278  -10.6819 Cl  0  0  0  0  0  0  0  0  0  0  0  0
   12.8459    1.0645   -9.0537 C   0  0  0  0  0  0  0  0  0  0  0  0
    8.0166    2.8902   -5.8224 C   0  0  0  0  0  0  0  0  0  0  0  0
    7.1625    2.7445   -4.7274 C   0  0  0  0  0  0  0  0  0  0  0  0
    6.7022    3.8731   -1.9933 N   0  0  0  0  0  0  0  0  0  0  0  0
    6.2128    4.8802   -1.2698 C   0  0  0  0  0  0  0  0  0  0  0  0
    5.1649    4.8159   -0.4431 N   0  0  0  0  0  0  0  0  0  0  0  0
    4.5757    3.6231   -0.3123 C   0  0  0  0  0  0  0  0  0  0  0  0
    3.4740    3.4951    0.5197 C   0  0  0  0  0  0  0  0  0  0  0  0
    2.8254    2.2666    0.7179 C   0  0  0  0  0  0  0  0  0  0  0  0
    1.7990    2.3279    1.6263 O   0  0  0  0  0  0  0  0  0  0  0  0
    1.6174    1.2124    2.5096 C   0  0  0  0  0  0  0  0  0  0  0  0
    2.8706    0.8287    3.3071 C   0  0  0  0  0  0  0  0  0  0  0  0
    3.3255    1.9722    4.2222 C   0  0  0  0  0  0  0  0  0  0  0  0
    4.5667    1.6809    4.9664 N   0  0  0  0  0  0  0  0  0  0  0  0
    4.9023    2.8074    5.8749 C   0  0  0  0  0  0  0  0  0  0  0  0
    5.4375    4.0641    5.1568 C   0  0  0  0  0  0  0  0  0  0  0  0
    6.5419    3.7642    4.2927 O   0  0  0  0  0  0  0  0  0  0  0  0
    6.1962    2.7355    3.3574 C   0  0  0  0  0  0  0  0  0  0  0  0
    5.7463    1.4663    4.0950 C   0  0  0  0  0  0  0  0  0  0  0  0
    3.3859   -1.8218   -0.3859 H   0  0  0  0  0  0  0  0  0  0  0  0
    3.1283   -0.7218   -1.7818 H   0  0  0  0  0  0  0  0  0  0  0  0
    1.7600   -1.5121   -1.0277 H   0  0  0  0  0  0  0  0  0  0  0  0
    4.7941    0.3661   -1.2712 H   0  0  0  0  0  0  0  0  0  0  0  0
    6.8389    0.8183   -2.0582 H   0  0  0  0  0  0  0  0  0  0  0  0
    8.3700   -0.1733   -3.4840 H   0  0  0  0  0  0  0  0  0  0  0  0
    9.8499    0.0646   -5.3609 H   0  0  0  0  0  0  0  0  0  0  0  0
    9.7893    3.0757   -7.6170 H   0  0  0  0  0  0  0  0  0  0  0  0
   11.5727    4.1225   -8.1968 H   0  0  0  0  0  0  0  0  0  0  0  0
   13.2834    4.8365   -9.8212 H   0  0  0  0  0  0  0  0  0  0  0  0
   14.7501    3.1687  -10.9168 H   0  0  0  0  0  0  0  0  0  0  0  0
   12.7437    0.0053   -8.8239 H   0  0  0  0  0  0  0  0  0  0  0  0
    7.8869    3.7547   -6.4675 H   0  0  0  0  0  0  0  0  0  0  0  0
    6.3876    3.4887   -4.5634 H   0  0  0  0  0  0  0  0  0  0  0  0
    6.7112    5.8384   -1.3659 H   0  0  0  0  0  0  0  0  0  0  0  0
    3.1155    4.3767    1.0479 H   0  0  0  0  0  0  0  0  0  0  0  0
    1.1975    0.3585    1.9708 H   0  0  0  0  0  0  0  0  0  0  0  0
    0.8360    1.5144    3.2171 H   0  0  0  0  0  0  0  0  0  0  0  0
    3.6691    0.5608    2.6125 H   0  0  0  0  0  0  0  0  0  0  0  0
    2.6599   -0.0645    3.9056 H   0  0  0  0  0  0  0  0  0  0  0  0
    2.5225    2.1386    4.9526 H   0  0  0  0  0  0  0  0  0  0  0  0
    3.4110    2.8996    3.6475 H   0  0  0  0  0  0  0  0  0  0  0  0
    5.6771    2.4492    6.5653 H   0  0  0  0  0  0  0  0  0  0  0  0
    4.0394    3.0688    6.4987 H   0  0  0  0  0  0  0  0  0  0  0  0
    5.7957    4.7829    5.9006 H   0  0  0  0  0  0  0  0  0  0  0  0
    4.6533    4.5619    4.5754 H   0  0  0  0  0  0  0  0  0  0  0  0
    7.0836    2.5198    2.7543 H   0  0  0  0  0  0  0  0  0  0  0  0
    5.4260    3.1084    2.6760 H   0  0  0  0  0  0  0  0  0  0  0  0
    6.5713    1.1323    4.7390 H   0  0  0  0  0  0  0  0  0  0  0  0
    5.5850    0.6457    3.3905 H   0  0  0  0  0  0  0  0  0  0  0  0
  1  2  1  0  0  0  0
  1 40  1  0  0  0  0
  1 41  1  0  0  0  0
  1 42  1  0  0  0  0
  2  3  1  0  0  0  0
  3  4  1  0  0  0  0
  3 29  2  0  0  0  0
  4  5  2  0  0  0  0
  4 43  1  0  0  0  0
  5  6  1  0  0  0  0
  5 27  1  0  0  0  0
  6  7  1  0  0  0  0
  6 24  2  0  0  0  0
  7  8  1  0  0  0  0
  7 44  1  0  0  0  0
  8  9  1  0  0  0  0
  8 23  2  0  0  0  0
  9 10  2  0  0  0  0
  9 45  1  0  0  0  0
 10 11  1  0  0  0  0
 10 46  1  0  0  0  0
 11 12  1  0  0  0  0
 11 22  2  0  0  0  0
 12 13  1  0  0  0  0
 12 47  1  0  0  0  0
 13 14  2  0  0  0  0
 13 15  1  0  0  0  0
 15 16  1  0  0  0  0
 15 21  2  0  0  0  0
 16 17  2  0  0  0  0
 16 48  1  0  0  0  0
 17 18  1  0  0  0  0
 17 49  1  0  0  0  0
 18 19  2  0  0  0  0
 18 50  1  0  0  0  0
 19 20  1  0  0  0  0
 19 21  1  0  0  0  0
 21 51  1  0  0  0  0
 22 23  1  0  0  0  0
 22 52  1  0  0  0  0
 23 53  1  0  0  0  0
 24 25  1  0  0  0  0
 25 26  2  0  0  0  0
 25 54  1  0  0  0  0
 26 27  1  0  0  0  0
 27 28  2  0  0  0  0
 28 29  1  0  0  0  0
 28 55  1  0  0  0  0
 29 30  1  0  0  0  0
 30 31  1  0  0  0  0
 31 32  1  0  0  0  0
 31 56  1  0  0  0  0
 31 57  1  0  0  0  0
 32 33  1  0  0  0  0
 32 58  1  0  0  0  0
 32 59  1  0  0  0  0
 33 34  1  0  0  0  0
 33 60  1  0  0  0  0
 33 61  1  0  0  0  0
 34 35  1  0  0  0  0
 34 39  1  0  0  0  0
 35 36  1  0  0  0  0
 35 62  1  0  0  0  0
 35 63  1  0  0  0  0
 36 37  1  0  0  0  0
 36 64  1  0  0  0  0
 36 65  1  0  0  0  0
 37 38  1  0  0  0  0
 38 39  1  0  0  0  0
 38 66  1  0  0  0  0
 38 67  1  0  0  0  0
 39 68  1  0  0  0  0
 39 69  1  0  0  0  0
M  END
$$$$
