CHEMBL3676348
 OpenBabel04072215373D

 49 51  0  0  0  0  0  0  0  0999 V2000
    2.9143   -2.5067   -0.7168 C   0  0  0  0  0  0  0  0  0  0  0  0
    3.2100   -1.2112   -0.5190 C   0  0  0  0  0  0  0  0  0  0  0  0
    4.0359   -0.5002   -1.5203 C   0  0  0  0  0  0  0  0  0  0  0  0
    4.2386   -0.9787   -2.6302 O   0  0  0  0  0  0  0  0  0  0  0  0
    4.4722    0.7296   -1.0779 N   0  0  0  0  0  0  0  0  0  0  0  0
    5.1439    1.6196   -1.9450 C   0  0  0  0  0  0  0  0  0  0  0  0
    6.1852    1.0900   -2.7113 C   0  0  0  0  0  0  0  0  0  0  0  0
    6.7890    1.8160   -3.7523 C   0  0  0  0  0  0  0  0  0  0  0  0
    7.8053    1.3101   -4.5755 C   0  0  0  0  0  0  0  0  0  0  0  0
    8.2525   -0.0182   -4.3778 N   0  0  0  0  0  0  0  0  0  0  0  0
    9.5254   -0.5677   -4.5856 C   0  0  0  0  0  0  0  0  0  0  0  0
    9.7120   -1.9485   -4.4501 C   0  0  0  0  0  0  0  0  0  0  0  0
   10.9986   -2.4898   -4.4470 C   0  0  0  0  0  0  0  0  0  0  0  0
   12.0675   -1.6220   -4.5736 C   0  0  0  0  0  0  0  0  0  0  0  0
   13.6816   -2.1895   -4.4595 Cl  0  0  0  0  0  0  0  0  0  0  0  0
   11.9497   -0.2925   -4.7365 N   0  0  0  0  0  0  0  0  0  0  0  0
   10.6844    0.1976   -4.7336 C   0  0  0  0  0  0  0  0  0  0  0  0
    8.3667    2.0482   -5.5462 N   0  0  0  0  0  0  0  0  0  0  0  0
    7.8784    3.2840   -5.7086 C   0  0  0  0  0  0  0  0  0  0  0  0
    6.9067    3.8583   -4.9852 N   0  0  0  0  0  0  0  0  0  0  0  0
    6.3712    3.1269   -3.9999 C   0  0  0  0  0  0  0  0  0  0  0  0
    5.3850    3.6727   -3.1849 C   0  0  0  0  0  0  0  0  0  0  0  0
    4.7846    2.9630   -2.1306 C   0  0  0  0  0  0  0  0  0  0  0  0
    3.8108    3.6742   -1.4727 O   0  0  0  0  0  0  0  0  0  0  0  0
    3.6729    3.3866   -0.0846 C   0  0  0  0  0  0  0  0  0  0  0  0
    3.3024    4.6216    0.7210 C   0  0  0  0  0  0  0  0  0  0  0  0
    3.1835    4.3280    2.1498 N   0  0  0  0  0  0  0  0  0  0  0  0
    4.2718    3.8982    2.8833 C   0  0  0  0  0  0  0  0  0  0  0  0
    3.9704    3.5739    4.3161 C   0  0  0  0  0  0  0  0  0  0  0  0
    5.3973    3.7462    2.4113 O   0  0  0  0  0  0  0  0  0  0  0  0
    2.3007   -3.0597   -0.0163 H   0  0  0  0  0  0  0  0  0  0  0  0
    3.2801   -3.0394   -1.5953 H   0  0  0  0  0  0  0  0  0  0  0  0
    2.8382   -0.6819    0.3505 H   0  0  0  0  0  0  0  0  0  0  0  0
    4.0957    1.0766   -0.2123 H   0  0  0  0  0  0  0  0  0  0  0  0
    6.5291    0.0792   -2.4939 H   0  0  0  0  0  0  0  0  0  0  0  0
    7.4840   -0.6766   -4.4400 H   0  0  0  0  0  0  0  0  0  0  0  0
    8.8620   -2.6114   -4.3129 H   0  0  0  0  0  0  0  0  0  0  0  0
   11.1553   -3.5539   -4.3138 H   0  0  0  0  0  0  0  0  0  0  0  0
   10.6361    1.2796   -4.8261 H   0  0  0  0  0  0  0  0  0  0  0  0
    8.3086    3.8785   -6.5086 H   0  0  0  0  0  0  0  0  0  0  0  0
    5.0602    4.6942   -3.3853 H   0  0  0  0  0  0  0  0  0  0  0  0
    4.6082    2.9830    0.3152 H   0  0  0  0  0  0  0  0  0  0  0  0
    2.8743    2.6480    0.0357 H   0  0  0  0  0  0  0  0  0  0  0  0
    2.3355    5.0252    0.3885 H   0  0  0  0  0  0  0  0  0  0  0  0
    4.0461    5.4190    0.5884 H   0  0  0  0  0  0  0  0  0  0  0  0
    2.3400    4.5992    2.6316 H   0  0  0  0  0  0  0  0  0  0  0  0
    2.8983    3.6207    4.5328 H   0  0  0  0  0  0  0  0  0  0  0  0
    4.4990    4.2819    4.9658 H   0  0  0  0  0  0  0  0  0  0  0  0
    4.3158    2.5579    4.5284 H   0  0  0  0  0  0  0  0  0  0  0  0
  1  2  2  0  0  0  0
  1 31  1  0  0  0  0
  1 32  1  0  0  0  0
  2  3  1  0  0  0  0
  2 33  1  0  0  0  0
  3  4  2  0  0  0  0
  3  5  1  0  0  0  0
  5  6  1  0  0  0  0
  5 34  1  0  0  0  0
  6  7  1  0  0  0  0
  6 23  2  0  0  0  0
  7  8  2  0  0  0  0
  7 35  1  0  0  0  0
  8  9  1  0  0  0  0
  8 21  1  0  0  0  0
  9 10  1  0  0  0  0
  9 18  2  0  0  0  0
 10 11  1  0  0  0  0
 10 36  1  0  0  0  0
 11 12  1  0  0  0  0
 11 17  2  0  0  0  0
 12 13  2  0  0  0  0
 12 37  1  0  0  0  0
 13 14  1  0  0  0  0
 13 38  1  0  0  0  0
 14 15  1  0  0  0  0
 14 16  2  0  0  0  0
 16 17  1  0  0  0  0
 17 39  1  0  0  0  0
 18 19  1  0  0  0  0
 19 20  2  0  0  0  0
 19 40  1  0  0  0  0
 20 21  1  0  0  0  0
 21 22  2  0  0  0  0
 22 23  1  0  0  0  0
 22 41  1  0  0  0  0
 23 24  1  0  0  0  0
 24 25  1  0  0  0  0
 25 26  1  0  0  0  0
 25 42  1  0  0  0  0
 25 43  1  0  0  0  0
 26 27  1  0  0  0  0
 26 44  1  0  0  0  0
 26 45  1  0  0  0  0
 27 28  1  0  0  0  0
 27 46  1  0  0  0  0
 28 29  1  0  0  0  0
 28 30  2  0  0  0  0
 29 47  1  0  0  0  0
 29 48  1  0  0  0  0
 29 49  1  0  0  0  0
M  END
$$$$
