CHEMBL272670
 OpenBabel04072215363D

 46 49  0  0  0  0  0  0  0  0999 V2000
    7.2410   -1.5964   -0.3575 C   0  0  0  0  0  0  0  0  0  0  0  0
    6.7475   -1.8227   -1.7106 N   0  0  0  0  0  0  0  0  0  0  0  0
    5.4899   -1.2455   -1.9670 C   0  0  0  0  0  0  0  0  0  0  0  0
    4.9194   -1.4030   -3.2191 C   0  0  0  0  0  0  0  0  0  0  0  0
    3.6852   -0.8229   -3.3993 C   0  0  0  0  0  0  0  0  0  0  0  0
    3.1065   -0.8889   -4.6700 O   0  0  0  0  0  0  0  0  0  0  0  0
    2.1792    0.0847   -4.9788 C   0  0  0  0  0  0  0  0  0  0  0  0
    2.3449    1.4222   -4.6368 C   0  0  0  0  0  0  0  0  0  0  0  0
    1.3336    2.3523   -4.8929 C   0  0  0  0  0  0  0  0  0  0  0  0
    0.1565    2.0056   -5.5965 C   0  0  0  0  0  0  0  0  0  0  0  0
   -0.8993    2.9156   -5.9155 C   0  0  0  0  0  0  0  0  0  0  0  0
   -0.8518    4.3725   -5.5404 C   0  0  0  0  0  0  0  0  0  0  0  0
    0.2178    4.9681   -5.5497 O   0  0  0  0  0  0  0  0  0  0  0  0
   -2.0761    4.9263   -5.1801 N   0  0  0  0  0  0  0  0  0  0  0  0
   -2.3080    6.2543   -4.7569 C   0  0  0  0  0  0  0  0  0  0  0  0
   -1.3774    7.2878   -4.8927 C   0  0  0  0  0  0  0  0  0  0  0  0
   -1.6332    8.5523   -4.3499 C   0  0  0  0  0  0  0  0  0  0  0  0
   -2.8277    8.7898   -3.6775 C   0  0  0  0  0  0  0  0  0  0  0  0
   -3.1097   10.3187   -2.9420 Cl  0  0  0  0  0  0  0  0  0  0  0  0
   -3.7900    7.7881   -3.5866 C   0  0  0  0  0  0  0  0  0  0  0  0
   -3.5361    6.5281   -4.1394 C   0  0  0  0  0  0  0  0  0  0  0  0
   -2.0085    2.4715   -6.6550 C   0  0  0  0  0  0  0  0  0  0  0  0
   -2.1150    1.1431   -7.0449 C   0  0  0  0  0  0  0  0  0  0  0  0
   -1.1056    0.2407   -6.7164 C   0  0  0  0  0  0  0  0  0  0  0  0
    0.0313    0.6485   -6.0026 C   0  0  0  0  0  0  0  0  0  0  0  0
    1.0380   -0.2922   -5.6914 C   0  0  0  0  0  0  0  0  0  0  0  0
    3.0180   -0.1867   -2.4157 N   0  0  0  0  0  0  0  0  0  0  0  0
    3.6781   -0.0384   -1.2741 C   0  0  0  0  0  0  0  0  0  0  0  0
    4.8843   -0.5292   -1.0040 N   0  0  0  0  0  0  0  0  0  0  0  0
    8.1332   -2.2006   -0.1886 H   0  0  0  0  0  0  0  0  0  0  0  0
    6.5046   -1.8866    0.4066 H   0  0  0  0  0  0  0  0  0  0  0  0
    7.5155   -0.5478   -0.2157 H   0  0  0  0  0  0  0  0  0  0  0  0
    6.7029   -2.8231   -1.9306 H   0  0  0  0  0  0  0  0  0  0  0  0
    5.4264   -1.9244   -4.0174 H   0  0  0  0  0  0  0  0  0  0  0  0
    3.2410    1.7572   -4.1218 H   0  0  0  0  0  0  0  0  0  0  0  0
    1.4973    3.3637   -4.5275 H   0  0  0  0  0  0  0  0  0  0  0  0
   -2.8529    4.2887   -5.0646 H   0  0  0  0  0  0  0  0  0  0  0  0
   -0.4357    7.1399   -5.4133 H   0  0  0  0  0  0  0  0  0  0  0  0
   -0.8852    9.3353   -4.4431 H   0  0  0  0  0  0  0  0  0  0  0  0
   -4.7278    7.9728   -3.0695 H   0  0  0  0  0  0  0  0  0  0  0  0
   -4.2961    5.7574   -4.0414 H   0  0  0  0  0  0  0  0  0  0  0  0
   -2.7897    3.1654   -6.9651 H   0  0  0  0  0  0  0  0  0  0  0  0
   -2.9774    0.8092   -7.6177 H   0  0  0  0  0  0  0  0  0  0  0  0
   -1.2099   -0.7947   -7.0397 H   0  0  0  0  0  0  0  0  0  0  0  0
    0.9267   -1.3337   -5.9879 H   0  0  0  0  0  0  0  0  0  0  0  0
    3.1942    0.5413   -0.5000 H   0  0  0  0  0  0  0  0  0  0  0  0
  1  2  1  0  0  0  0
  1 30  1  0  0  0  0
  1 31  1  0  0  0  0
  1 32  1  0  0  0  0
  2  3  1  0  0  0  0
  2 33  1  0  0  0  0
  3  4  1  0  0  0  0
  3 29  2  0  0  0  0
  4  5  2  0  0  0  0
  4 34  1  0  0  0  0
  5  6  1  0  0  0  0
  5 27  1  0  0  0  0
  6  7  1  0  0  0  0
  7  8  1  0  0  0  0
  7 26  2  0  0  0  0
  8  9  2  0  0  0  0
  8 35  1  0  0  0  0
  9 10  1  0  0  0  0
  9 36  1  0  0  0  0
 10 11  1  0  0  0  0
 10 25  2  0  0  0  0
 11 12  1  0  0  0  0
 11 22  2  0  0  0  0
 12 13  2  0  0  0  0
 12 14  1  0  0  0  0
 14 15  1  0  0  0  0
 14 37  1  0  0  0  0
 15 16  1  0  0  0  0
 15 21  2  0  0  0  0
 16 17  2  0  0  0  0
 16 38  1  0  0  0  0
 17 18  1  0  0  0  0
 17 39  1  0  0  0  0
 18 19  1  0  0  0  0
 18 20  2  0  0  0  0
 20 21  1  0  0  0  0
 20 40  1  0  0  0  0
 21 41  1  0  0  0  0
 22 23  1  0  0  0  0
 22 42  1  0  0  0  0
 23 24  2  0  0  0  0
 23 43  1  0  0  0  0
 24 25  1  0  0  0  0
 24 44  1  0  0  0  0
 25 26  1  0  0  0  0
 26 45  1  0  0  0  0
 27 28  2  0  0  0  0
 28 29  1  0  0  0  0
 28 46  1  0  0  0  0
M  END
$$$$
