CHEMBL3947293
 OpenBabel04072215373D

 52 55  0  0  0  0  0  0  0  0999 V2000
    4.2021   -2.3292   -1.2097 C   0  0  0  0  0  0  0  0  0  0  0  0
    4.0354   -1.1480   -0.4376 O   0  0  0  0  0  0  0  0  0  0  0  0
    4.6133   -1.2297    0.8821 C   0  0  0  0  0  0  0  0  0  0  0  0
    4.4647    0.1819    1.5158 C   0  0  0  0  0  0  0  0  0  0  0  0
    5.1886    0.4843    2.8133 N   0  0  0  0  0  0  0  0  0  0  0  0
    4.3024    0.6204    3.9242 C   0  0  0  0  0  0  0  0  0  0  0  0
    4.5565    0.0372    5.1735 C   0  0  0  0  0  0  0  0  0  0  0  0
    3.6064    0.0953    6.2126 C   0  0  0  0  0  0  0  0  0  0  0  0
    2.3903    0.7604    6.0419 C   0  0  0  0  0  0  0  0  0  0  0  0
    2.1383    1.3881    4.8310 C   0  0  0  0  0  0  0  0  0  0  0  0
    0.9910    2.0780    4.5373 O   0  0  0  0  0  0  0  0  0  0  0  0
    0.5106    2.8911    5.6034 C   0  0  0  0  0  0  0  0  0  0  0  0
    3.0702    1.2970    3.7917 C   0  0  0  0  0  0  0  0  0  0  0  0
    6.6084    0.6401    2.7461 C   0  0  0  0  0  0  0  0  0  0  0  0
    7.2733    0.1624    1.6285 C   0  0  0  0  0  0  0  0  0  0  0  0
    8.6399   -0.0823    1.6321 C   0  0  0  0  0  0  0  0  0  0  0  0
    9.4365    0.3677    2.6121 C   0  0  0  0  0  0  0  0  0  0  0  0
   10.7012    0.0025    2.4248 N   0  0  0  0  0  0  0  0  0  0  0  0
   11.5976    0.7163    3.0963 C   0  0  0  0  0  0  0  0  0  0  0  0
   11.2302    1.7791    3.8993 C   0  0  0  0  0  0  0  0  0  0  0  0
   12.3198    2.6755    4.2590 C   0  0  0  0  0  0  0  0  0  0  0  0
   12.7472    3.8860    3.6470 C   0  0  0  0  0  0  0  0  0  0  0  0
   13.9406    4.2998    4.0955 N   0  0  0  0  0  0  0  0  0  0  0  0
   14.2832    3.3485    4.9799 N   0  0  0  0  0  0  0  0  0  0  0  0
   15.3168    3.5817    5.9591 C   0  0  0  0  0  0  0  0  0  0  0  0
   13.4460    2.2698    4.9545 C   0  0  0  0  0  0  0  0  0  0  0  0
    9.9071    2.0331    4.2093 N   0  0  0  0  0  0  0  0  0  0  0  0
    8.9347    1.2689    3.5635 C   0  0  0  0  0  0  0  0  0  0  0  0
    7.4745    1.2707    3.6912 C   0  0  0  0  0  0  0  0  0  0  0  0
    3.7457   -2.1623   -2.1914 H   0  0  0  0  0  0  0  0  0  0  0  0
    3.6998   -3.1754   -0.7341 H   0  0  0  0  0  0  0  0  0  0  0  0
    5.2630   -2.5491   -1.3626 H   0  0  0  0  0  0  0  0  0  0  0  0
    5.6397   -1.5842    0.7746 H   0  0  0  0  0  0  0  0  0  0  0  0
    4.0838   -1.9860    1.4685 H   0  0  0  0  0  0  0  0  0  0  0  0
    3.3791    0.2904    1.6081 H   0  0  0  0  0  0  0  0  0  0  0  0
    4.7331    0.9576    0.7854 H   0  0  0  0  0  0  0  0  0  0  0  0
    5.4676   -0.5344    5.3346 H   0  0  0  0  0  0  0  0  0  0  0  0
    3.8045   -0.4078    7.1603 H   0  0  0  0  0  0  0  0  0  0  0  0
    1.6655    0.7790    6.8508 H   0  0  0  0  0  0  0  0  0  0  0  0
   -0.0996    3.6880    5.1663 H   0  0  0  0  0  0  0  0  0  0  0  0
    1.3267    3.3668    6.1589 H   0  0  0  0  0  0  0  0  0  0  0  0
   -0.1255    2.3040    6.2722 H   0  0  0  0  0  0  0  0  0  0  0  0
    2.8131    1.7977    2.8615 H   0  0  0  0  0  0  0  0  0  0  0  0
    6.7739   -0.0658    0.6979 H   0  0  0  0  0  0  0  0  0  0  0  0
    9.0495   -0.6347    0.7968 H   0  0  0  0  0  0  0  0  0  0  0  0
   12.6310    0.4532    2.9052 H   0  0  0  0  0  0  0  0  0  0  0  0
   12.2634    4.4638    2.8682 H   0  0  0  0  0  0  0  0  0  0  0  0
   15.7211    4.5898    5.8417 H   0  0  0  0  0  0  0  0  0  0  0  0
   16.1029    2.8325    5.8450 H   0  0  0  0  0  0  0  0  0  0  0  0
   14.8452    3.4902    6.9420 H   0  0  0  0  0  0  0  0  0  0  0  0
   13.7000    1.3484    5.4606 H   0  0  0  0  0  0  0  0  0  0  0  0
    7.0437    1.8433    4.5119 H   0  0  0  0  0  0  0  0  0  0  0  0
  1  2  1  0  0  0  0
  1 30  1  0  0  0  0
  1 31  1  0  0  0  0
  1 32  1  0  0  0  0
  2  3  1  0  0  0  0
  3  4  1  0  0  0  0
  3 33  1  0  0  0  0
  3 34  1  0  0  0  0
  4  5  1  0  0  0  0
  4 35  1  0  0  0  0
  4 36  1  0  0  0  0
  5  6  1  0  0  0  0
  5 14  1  0  0  0  0
  6  7  1  0  0  0  0
  6 13  2  0  0  0  0
  7  8  2  0  0  0  0
  7 37  1  0  0  0  0
  8  9  1  0  0  0  0
  8 38  1  0  0  0  0
  9 10  2  0  0  0  0
  9 39  1  0  0  0  0
 10 11  1  0  0  0  0
 10 13  1  0  0  0  0
 11 12  1  0  0  0  0
 12 40  1  0  0  0  0
 12 41  1  0  0  0  0
 12 42  1  0  0  0  0
 13 43  1  0  0  0  0
 14 15  1  0  0  0  0
 14 29  2  0  0  0  0
 15 16  2  0  0  0  0
 15 44  1  0  0  0  0
 16 17  1  0  0  0  0
 16 45  1  0  0  0  0
 17 18  1  0  0  0  0
 17 28  2  0  0  0  0
 18 19  2  0  0  0  0
 19 20  1  0  0  0  0
 19 46  1  0  0  0  0
 20 21  1  0  0  0  0
 20 27  2  0  0  0  0
 21 22  1  0  0  0  0
 21 26  2  0  0  0  0
 22 23  2  0  0  0  0
 22 47  1  0  0  0  0
 23 24  1  0  0  0  0
 24 25  1  0  0  0  0
 24 26  1  0  0  0  0
 25 48  1  0  0  0  0
 25 49  1  0  0  0  0
 25 50  1  0  0  0  0
 26 51  1  0  0  0  0
 27 28  1  0  0  0  0
 28 29  1  0  0  0  0
 29 52  1  0  0  0  0
M  END
$$$$
