CHEMBL199725
 OpenBabel04072215363D

 77 81  0  0  1  0  0  0  0  0999 V2000
   -3.1251    1.5942    4.2907 C   0  0  0  0  0  0  0  0  0  0  0  0
   -2.3075    0.4860    4.6667 O   0  0  0  0  0  0  0  0  0  0  0  0
   -1.7522    0.5581    5.9090 C   0  0  0  0  0  0  0  0  0  0  0  0
   -2.4872    1.0340    6.9878 C   0  0  0  0  0  0  0  0  0  0  0  0
   -1.8915    1.1705    8.2546 C   0  0  0  0  0  0  0  0  0  0  0  0
   -2.5556    1.6864    9.3772 C   0  0  0  0  0  0  0  0  0  0  0  0
   -3.9204    2.0584    9.2785 N   0  0  0  0  0  0  0  0  0  0  0  0
   -4.7424    2.2651   10.4115 C   0  0  0  0  0  0  0  0  0  0  0  0
   -4.7139    1.3556   11.4800 C   0  0  0  0  0  0  0  0  0  0  0  0
   -5.4021    1.6277   12.6575 C   0  0  0  0  0  0  0  0  0  0  0  0
   -6.1535    2.7959   12.7612 C   0  0  0  0  0  0  0  0  0  0  0  0
   -6.9202    3.1732   14.2528 Cl  0  0  0  0  0  0  0  0  0  0  0  0
   -6.2659    3.6701   11.6815 C   0  0  0  0  0  0  0  0  0  0  0  0
   -5.5677    3.3904   10.5114 C   0  0  0  0  0  0  0  0  0  0  0  0
   -5.6468    4.2460    9.4793 F   0  0  0  0  0  0  0  0  0  0  0  0
   -1.9309    1.8220   10.5624 N   0  0  0  0  0  0  0  0  0  0  0  0
   -0.6631    1.4112   10.6362 C   0  0  0  0  0  0  0  0  0  0  0  0
    0.0448    0.8681    9.6425 N   0  0  0  0  0  0  0  0  0  0  0  0
   -0.5698    0.7582    8.4610 C   0  0  0  0  0  0  0  0  0  0  0  0
    0.1275    0.2180    7.3895 C   0  0  0  0  0  0  0  0  0  0  0  0
   -0.4390    0.1201    6.1142 C   0  0  0  0  0  0  0  0  0  0  0  0
    0.4206   -0.3013    5.1283 O   0  0  0  0  0  0  0  0  0  0  0  0
   -0.1054   -1.3193    4.2770 C   0  0  0  0  0  0  0  0  0  0  0  0
   -0.4220   -0.7870    2.8738 C   0  0  0  0  0  0  0  0  0  0  0  0
   -1.0726   -1.7579    2.0466 O   0  0  0  0  0  0  0  0  0  0  0  0
   -2.3527   -2.1584    2.5590 C   0  0  0  0  0  0  0  0  0  0  0  0
   -2.9822   -3.1672    1.6111 C   0  0  0  0  0  0  0  0  0  0  0  0
   -3.3470   -2.5550    0.3512 N   0  0  0  0  0  0  0  0  0  0  0  0
   -4.5191   -1.8464    0.2104 C   0  0  0  0  0  0  0  0  0  0  0  0
   -5.3462   -1.7091    1.1086 O   0  0  0  0  0  0  0  0  0  0  0  0
   -4.7131   -1.2765   -1.1699 C   0  0  0  0  0  0  0  0  0  0  0  0
   -4.6761   -2.3681   -2.2448 C   0  0  0  0  0  0  0  0  0  0  0  0
   -5.6953   -3.4936   -2.0333 C   0  0  0  0  0  0  0  0  0  0  0  0
   -7.1440   -3.0013   -2.0967 C   0  0  0  0  0  0  0  0  0  0  0  0
   -8.1757   -4.1179   -1.8801 C   0  0  3  0  0  0  0  0  0  0  0  0
   -8.0833   -5.3990   -3.1707 S   0  0  0  0  0  0  0  0  0  0  0  0
   -9.0885   -4.4475   -4.3312 C   0  0  0  0  0  0  0  0  0  0  0  0
  -10.0597   -3.6134   -3.4898 C   0  0  3  0  0  0  0  0  0  0  0  0
  -11.3724   -4.2221   -3.4178 N   0  0  0  0  0  0  0  0  0  0  0  0
  -11.6030   -4.7969   -2.1882 C   0  0  0  0  0  0  0  0  0  0  0  0
  -12.5398   -5.5166   -1.9024 O   0  0  0  0  0  0  0  0  0  0  0  0
  -10.5844   -4.4193   -1.3437 N   0  0  0  0  0  0  0  0  0  0  0  0
   -9.6056   -3.5822   -2.0107 C   0  0  3  0  0  0  0  0  0  0  0  0
   -2.9463    1.7964    3.2307 H   0  0  0  0  0  0  0  0  0  0  0  0
   -2.8922    2.5123    4.8424 H   0  0  0  0  0  0  0  0  0  0  0  0
   -4.1782    1.3277    4.4187 H   0  0  0  0  0  0  0  0  0  0  0  0
   -3.5265    1.3174    6.8473 H   0  0  0  0  0  0  0  0  0  0  0  0
   -4.0488    2.7925    8.5842 H   0  0  0  0  0  0  0  0  0  0  0  0
   -4.1115    0.4533   11.4067 H   0  0  0  0  0  0  0  0  0  0  0  0
   -5.3181    0.9384   13.4917 H   0  0  0  0  0  0  0  0  0  0  0  0
   -6.8604    4.5753   11.7493 H   0  0  0  0  0  0  0  0  0  0  0  0
   -0.1673    1.5275   11.5934 H   0  0  0  0  0  0  0  0  0  0  0  0
    1.1469   -0.1280    7.5482 H   0  0  0  0  0  0  0  0  0  0  0  0
   -0.9416   -1.8361    4.7567 H   0  0  0  0  0  0  0  0  0  0  0  0
    0.6662   -2.0918    4.1667 H   0  0  0  0  0  0  0  0  0  0  0  0
    0.5176   -0.5088    2.3820 H   0  0  0  0  0  0  0  0  0  0  0  0
   -1.0005    0.1392    2.8724 H   0  0  0  0  0  0  0  0  0  0  0  0
   -2.9958   -1.2821    2.6978 H   0  0  0  0  0  0  0  0  0  0  0  0
   -2.2255   -2.6720    3.5129 H   0  0  0  0  0  0  0  0  0  0  0  0
   -3.8704   -3.6075    2.0640 H   0  0  0  0  0  0  0  0  0  0  0  0
   -2.2679   -3.9657    1.3711 H   0  0  0  0  0  0  0  0  0  0  0  0
   -2.6005   -2.3912   -0.3087 H   0  0  0  0  0  0  0  0  0  0  0  0
   -3.9249   -0.5414   -1.3556 H   0  0  0  0  0  0  0  0  0  0  0  0
   -5.6641   -0.7375   -1.1997 H   0  0  0  0  0  0  0  0  0  0  0  0
   -3.6769   -2.8205   -2.2776 H   0  0  0  0  0  0  0  0  0  0  0  0
   -4.8363   -1.9099   -3.2276 H   0  0  0  0  0  0  0  0  0  0  0  0
   -5.5203   -3.9961   -1.0741 H   0  0  0  0  0  0  0  0  0  0  0  0
   -5.5146   -4.2446   -2.8095 H   0  0  0  0  0  0  0  0  0  0  0  0
   -7.3126   -2.4861   -3.0505 H   0  0  0  0  0  0  0  0  0  0  0  0
   -7.3051   -2.2509   -1.3131 H   0  0  0  0  0  0  0  0  0  0  0  0
   -8.0152   -4.5776   -0.8983 H   0  0  0  0  0  0  0  0  0  0  0  0
   -9.5943   -5.1114   -5.0379 H   0  0  0  0  0  0  0  0  0  0  0  0
   -8.4169   -3.7929   -4.8957 H   0  0  0  0  0  0  0  0  0  0  0  0
  -10.1768   -2.6110   -3.9156 H   0  0  0  0  0  0  0  0  0  0  0  0
  -11.9562   -4.4782   -4.2022 H   0  0  0  0  0  0  0  0  0  0  0  0
  -10.5606   -4.7334   -0.3825 H   0  0  0  0  0  0  0  0  0  0  0  0
   -9.7122   -2.5807   -1.5771 H   0  0  0  0  0  0  0  0  0  0  0  0
  1  2  1  0  0  0  0
  1 44  1  0  0  0  0
  1 45  1  0  0  0  0
  1 46  1  0  0  0  0
  2  3  1  0  0  0  0
  3  4  1  0  0  0  0
  3 21  2  0  0  0  0
  4  5  2  0  0  0  0
  4 47  1  0  0  0  0
  5  6  1  0  0  0  0
  5 19  1  0  0  0  0
  6  7  1  0  0  0  0
  6 16  2  0  0  0  0
  7  8  1  0  0  0  0
  7 48  1  0  0  0  0
  8  9  1  0  0  0  0
  8 14  2  0  0  0  0
  9 10  2  0  0  0  0
  9 49  1  0  0  0  0
 10 11  1  0  0  0  0
 10 50  1  0  0  0  0
 11 12  1  0  0  0  0
 11 13  2  0  0  0  0
 13 14  1  0  0  0  0
 13 51  1  0  0  0  0
 14 15  1  0  0  0  0
 16 17  1  0  0  0  0
 17 18  2  0  0  0  0
 17 52  1  0  0  0  0
 18 19  1  0  0  0  0
 19 20  2  0  0  0  0
 20 21  1  0  0  0  0
 20 53  1  0  0  0  0
 21 22  1  0  0  0  0
 22 23  1  0  0  0  0
 23 24  1  0  0  0  0
 23 54  1  0  0  0  0
 23 55  1  0  0  0  0
 24 25  1  0  0  0  0
 24 56  1  0  0  0  0
 24 57  1  0  0  0  0
 25 26  1  0  0  0  0
 26 27  1  0  0  0  0
 26 58  1  0  0  0  0
 26 59  1  0  0  0  0
 27 28  1  0  0  0  0
 27 60  1  0  0  0  0
 27 61  1  0  0  0  0
 28 29  1  0  0  0  0
 28 62  1  0  0  0  0
 29 30  2  0  0  0  0
 29 31  1  0  0  0  0
 31 32  1  0  0  0  0
 31 63  1  0  0  0  0
 31 64  1  0  0  0  0
 32 33  1  0  0  0  0
 32 65  1  0  0  0  0
 32 66  1  0  0  0  0
 33 34  1  0  0  0  0
 33 67  1  0  0  0  0
 33 68  1  0  0  0  0
 34 35  1  0  0  0  0
 34 69  1  0  0  0  0
 34 70  1  0  0  0  0
 35 36  1  0  0  0  0
 35 43  1  0  0  0  0
 35 71  1  0  0  0  0
 36 37  1  0  0  0  0
 37 38  1  0  0  0  0
 37 72  1  0  0  0  0
 37 73  1  0  0  0  0
 38 39  1  0  0  0  0
 38 43  1  0  0  0  0
 38 74  1  0  0  0  0
 39 40  1  0  0  0  0
 39 75  1  0  0  0  0
 40 41  2  0  0  0  0
 40 42  1  0  0  0  0
 42 43  1  0  0  0  0
 42 76  1  0  0  0  0
 43 77  1  0  0  0  0
M  END
$$$$
