CHEMBL199383
 OpenBabel04072215363D

 43 46  0  0  0  0  0  0  0  0999 V2000
    1.0393   -3.0598   -4.0675 C   0  0  0  0  0  0  0  0  0  0  0  0
    1.3887   -2.0365   -3.1421 O   0  0  0  0  0  0  0  0  0  0  0  0
    2.2658   -1.0842   -3.5853 C   0  0  0  0  0  0  0  0  0  0  0  0
    2.8367   -1.0286   -4.8557 C   0  0  0  0  0  0  0  0  0  0  0  0
    3.7401   -0.0090   -5.1793 C   0  0  0  0  0  0  0  0  0  0  0  0
    4.0990    0.9606   -4.2336 C   0  0  0  0  0  0  0  0  0  0  0  0
    5.1176    2.0147   -4.5805 C   0  0  0  0  0  0  0  0  0  0  0  0
    4.4997    3.1886   -5.1449 N   0  0  0  0  0  0  0  0  0  0  0  0
    4.8415    3.7061   -6.3746 C   0  0  0  0  0  0  0  0  0  0  0  0
    5.6778    3.1670   -7.0951 O   0  0  0  0  0  0  0  0  0  0  0  0
    4.1477    4.9343   -6.7653 C   0  0  0  0  0  0  0  0  0  0  0  0
    4.3236    5.6280   -7.9908 C   0  0  0  0  0  0  0  0  0  0  0  0
    3.4954    6.7744   -8.0838 C   0  0  0  0  0  0  0  0  0  0  0  0
    3.1097    7.8332   -8.8530 C   0  0  0  0  0  0  0  0  0  0  0  0
    3.4440    8.2968  -10.1953 C   0  0  0  0  0  0  0  0  0  0  0  0
    3.8125    7.3845  -11.1935 C   0  0  0  0  0  0  0  0  0  0  0  0
    4.0953    7.8221  -12.4915 C   0  0  0  0  0  0  0  0  0  0  0  0
    4.0160    9.1768  -12.8063 C   0  0  0  0  0  0  0  0  0  0  0  0
    3.6636   10.0960  -11.8228 C   0  0  0  0  0  0  0  0  0  0  0  0
    3.3820    9.6590  -10.5249 C   0  0  0  0  0  0  0  0  0  0  0  0
    2.1598    8.4661   -8.0322 N   0  0  0  0  0  0  0  0  0  0  0  0
    1.9621    7.8614   -6.8182 N   0  0  0  0  0  0  0  0  0  0  0  0
    2.7803    6.8554   -6.9065 C   0  0  0  0  0  0  0  0  0  0  0  0
    2.9690    5.6782   -5.6460 S   0  0  0  0  0  0  0  0  0  0  0  0
    3.4971    0.9181   -2.9696 C   0  0  0  0  0  0  0  0  0  0  0  0
    2.5934   -0.0999   -2.6490 C   0  0  0  0  0  0  0  0  0  0  0  0
    0.3252   -3.7292   -3.5783 H   0  0  0  0  0  0  0  0  0  0  0  0
    1.9155   -3.6547   -4.3473 H   0  0  0  0  0  0  0  0  0  0  0  0
    0.5479   -2.6401   -4.9516 H   0  0  0  0  0  0  0  0  0  0  0  0
    2.6095   -1.7645   -5.6181 H   0  0  0  0  0  0  0  0  0  0  0  0
    4.1777    0.0136   -6.1768 H   0  0  0  0  0  0  0  0  0  0  0  0
    5.8711    1.5998   -5.2588 H   0  0  0  0  0  0  0  0  0  0  0  0
    5.6487    2.3310   -3.6756 H   0  0  0  0  0  0  0  0  0  0  0  0
    3.8161    3.6875   -4.5894 H   0  0  0  0  0  0  0  0  0  0  0  0
    5.0184    5.2907   -8.7516 H   0  0  0  0  0  0  0  0  0  0  0  0
    3.8676    6.3205  -10.9796 H   0  0  0  0  0  0  0  0  0  0  0  0
    4.3721    7.1022  -13.2576 H   0  0  0  0  0  0  0  0  0  0  0  0
    4.2316    9.5151  -13.8168 H   0  0  0  0  0  0  0  0  0  0  0  0
    3.6093   11.1547  -12.0635 H   0  0  0  0  0  0  0  0  0  0  0  0
    3.1297   10.4070   -9.7773 H   0  0  0  0  0  0  0  0  0  0  0  0
    1.6085    9.2878   -8.2550 H   0  0  0  0  0  0  0  0  0  0  0  0
    3.7391    1.6654   -2.2165 H   0  0  0  0  0  0  0  0  0  0  0  0
    2.1472   -0.1328   -1.6578 H   0  0  0  0  0  0  0  0  0  0  0  0
  1  2  1  0  0  0  0
  1 27  1  0  0  0  0
  1 28  1  0  0  0  0
  1 29  1  0  0  0  0
  2  3  1  0  0  0  0
  3  4  1  0  0  0  0
  3 26  2  0  0  0  0
  4  5  2  0  0  0  0
  4 30  1  0  0  0  0
  5  6  1  0  0  0  0
  5 31  1  0  0  0  0
  6  7  1  0  0  0  0
  6 25  2  0  0  0  0
  7  8  1  0  0  0  0
  7 32  1  0  0  0  0
  7 33  1  0  0  0  0
  8  9  1  0  0  0  0
  8 34  1  0  0  0  0
  9 10  2  0  0  0  0
  9 11  1  0  0  0  0
 11 12  2  0  0  0  0
 11 24  1  0  0  0  0
 12 13  1  0  0  0  0
 12 35  1  0  0  0  0
 13 14  2  0  0  0  0
 13 23  1  0  0  0  0
 14 15  1  0  0  0  0
 14 21  1  0  0  0  0
 15 16  1  0  0  0  0
 15 20  2  0  0  0  0
 16 17  2  0  0  0  0
 16 36  1  0  0  0  0
 17 18  1  0  0  0  0
 17 37  1  0  0  0  0
 18 19  2  0  0  0  0
 18 38  1  0  0  0  0
 19 20  1  0  0  0  0
 19 39  1  0  0  0  0
 20 40  1  0  0  0  0
 21 22  1  0  0  0  0
 21 41  1  0  0  0  0
 22 23  2  0  0  0  0
 23 24  1  0  0  0  0
 25 26  1  0  0  0  0
 25 42  1  0  0  0  0
 26 43  1  0  0  0  0
M  END
$$$$
