CHEMBL2000078
 OpenBabel04072215363D

 79 85  0  0  0  0  0  0  0  0999 V2000
    0.8897    1.6114    0.4720 C   0  0  0  0  0  0  0  0  0  0  0  0
    2.4014    1.6885    0.5522 C   0  0  0  0  0  0  0  0  0  0  0  0
    2.9417    0.5038    1.1594 O   0  0  0  0  0  0  0  0  0  0  0  0
    4.2942    0.5709    1.4383 C   0  0  0  0  0  0  0  0  0  0  0  0
    5.1312    1.5736    0.9186 C   0  0  0  0  0  0  0  0  0  0  0  0
    6.4875    1.6159    1.2390 C   0  0  0  0  0  0  0  0  0  0  0  0
    7.0420    0.6505    2.0740 C   0  0  0  0  0  0  0  0  0  0  0  0
    8.4657    0.6707    2.3530 C   0  0  0  0  0  0  0  0  0  0  0  0
    9.1431    1.8804    2.4802 N   0  0  0  0  0  0  0  0  0  0  0  0
   10.3647    1.4965    2.7071 C   0  0  0  0  0  0  0  0  0  0  0  0
   11.8625    2.3409    2.9604 S   0  0  0  0  0  0  0  0  0  0  0  0
   12.6808    0.7794    3.0706 C   0  0  0  0  0  0  0  0  0  0  0  0
   11.8484   -0.2623    2.9163 C   0  0  0  0  0  0  0  0  0  0  0  0
   10.5428    0.1440    2.7167 N   0  0  0  0  0  0  0  0  0  0  0  0
    9.3196   -0.4416    2.4810 C   0  0  0  0  0  0  0  0  0  0  0  0
    9.0986   -1.8790    2.3497 C   0  0  0  0  0  0  0  0  0  0  0  0
    9.7350   -2.8105    3.1415 C   0  0  0  0  0  0  0  0  0  0  0  0
    9.4204   -4.1174    2.8868 C   0  0  0  0  0  0  0  0  0  0  0  0
    8.5000   -4.4859    1.9884 N   0  0  0  0  0  0  0  0  0  0  0  0
    7.8824   -3.5167    1.2946 C   0  0  0  0  0  0  0  0  0  0  0  0
    6.8775   -3.8489    0.3943 N   0  0  0  0  0  0  0  0  0  0  0  0
    6.0707   -4.9940    0.3695 C   0  0  0  0  0  0  0  0  0  0  0  0
    5.7567   -5.7141    1.5244 C   0  0  0  0  0  0  0  0  0  0  0  0
    5.0283   -6.8955    1.4453 C   0  0  0  0  0  0  0  0  0  0  0  0
    4.6203   -7.3777    0.2006 C   0  0  0  0  0  0  0  0  0  0  0  0
    4.9078   -6.6916   -0.9882 C   0  0  0  0  0  0  0  0  0  0  0  0
    4.4997   -7.1660   -2.2156 N   0  0  0  0  0  0  0  0  0  0  0  0
    5.2688   -6.9682   -3.4535 C   0  0  0  0  0  0  0  0  0  0  0  0
    4.3361   -6.4131   -4.5395 C   0  0  0  0  0  0  0  0  0  0  0  0
    3.2042   -7.2776   -4.7486 O   0  0  0  0  0  0  0  0  0  0  0  0
    2.4525   -7.4208   -3.5304 C   0  0  0  0  0  0  0  0  0  0  0  0
    3.3055   -8.0028   -2.3891 C   0  0  0  0  0  0  0  0  0  0  0  0
    5.6264   -5.4894   -0.8659 C   0  0  0  0  0  0  0  0  0  0  0  0
    8.2046   -2.2216    1.3992 N   0  0  0  0  0  0  0  0  0  0  0  0
    6.2006   -0.3229    2.6229 C   0  0  0  0  0  0  0  0  0  0  0  0
    4.8446   -0.4065    2.2957 C   0  0  0  0  0  0  0  0  0  0  0  0
    4.0339   -1.4646    2.7876 N   0  0  0  0  0  0  0  0  0  0  0  0
    4.4005   -2.4064    3.7435 C   0  0  0  0  0  0  0  0  0  0  0  0
    5.4544   -2.4358    4.3791 O   0  0  0  0  0  0  0  0  0  0  0  0
    3.3405   -3.4527    4.0344 C   0  0  0  0  0  0  0  0  0  0  0  0
    2.3325   -2.9691    5.0462 C   0  0  0  0  0  0  0  0  0  0  0  0
    0.9656   -2.9988    4.7497 C   0  0  0  0  0  0  0  0  0  0  0  0
    0.0372   -2.5132    5.6696 C   0  0  0  0  0  0  0  0  0  0  0  0
    0.4618   -2.0034    6.8956 C   0  0  0  0  0  0  0  0  0  0  0  0
    1.8177   -1.9946    7.2125 C   0  0  0  0  0  0  0  0  0  0  0  0
    2.7488   -2.4840    6.2966 C   0  0  0  0  0  0  0  0  0  0  0  0
    0.4911    2.5291    0.0250 H   0  0  0  0  0  0  0  0  0  0  0  0
    0.4525    1.4879    1.4666 H   0  0  0  0  0  0  0  0  0  0  0  0
    0.5747    0.7607   -0.1385 H   0  0  0  0  0  0  0  0  0  0  0  0
    2.6625    2.5720    1.1487 H   0  0  0  0  0  0  0  0  0  0  0  0
    2.7906    1.7942   -0.4678 H   0  0  0  0  0  0  0  0  0  0  0  0
    4.7713    2.3466    0.2486 H   0  0  0  0  0  0  0  0  0  0  0  0
    7.1156    2.4043    0.8260 H   0  0  0  0  0  0  0  0  0  0  0  0
   13.7479    0.7105    3.2354 H   0  0  0  0  0  0  0  0  0  0  0  0
   12.1199   -1.3047    2.9326 H   0  0  0  0  0  0  0  0  0  0  0  0
   10.4306   -2.5555    3.9240 H   0  0  0  0  0  0  0  0  0  0  0  0
    9.8997   -4.9348    3.4168 H   0  0  0  0  0  0  0  0  0  0  0  0
    6.5618   -3.0460   -0.1276 H   0  0  0  0  0  0  0  0  0  0  0  0
    6.0780   -5.3582    2.5004 H   0  0  0  0  0  0  0  0  0  0  0  0
    4.8006   -7.4546    2.3484 H   0  0  0  0  0  0  0  0  0  0  0  0
    4.1033   -8.3328    0.1755 H   0  0  0  0  0  0  0  0  0  0  0  0
    5.6539   -7.9449   -3.7734 H   0  0  0  0  0  0  0  0  0  0  0  0
    6.1365   -6.3128   -3.3353 H   0  0  0  0  0  0  0  0  0  0  0  0
    4.8731   -6.3353   -5.4897 H   0  0  0  0  0  0  0  0  0  0  0  0
    3.9760   -5.4120   -4.2728 H   0  0  0  0  0  0  0  0  0  0  0  0
    1.6070   -8.0840   -3.7364 H   0  0  0  0  0  0  0  0  0  0  0  0
    2.0483   -6.4406   -3.2488 H   0  0  0  0  0  0  0  0  0  0  0  0
    3.6219   -9.0225   -2.6389 H   0  0  0  0  0  0  0  0  0  0  0  0
    2.6822   -8.0475   -1.4902 H   0  0  0  0  0  0  0  0  0  0  0  0
    5.8671   -4.9126   -1.7535 H   0  0  0  0  0  0  0  0  0  0  0  0
    6.6503   -1.0406    3.2963 H   0  0  0  0  0  0  0  0  0  0  0  0
    3.0834   -1.4767    2.4316 H   0  0  0  0  0  0  0  0  0  0  0  0
    3.8414   -4.3479    4.4270 H   0  0  0  0  0  0  0  0  0  0  0  0
    2.8641   -3.7562    3.0955 H   0  0  0  0  0  0  0  0  0  0  0  0
    0.6152   -3.3928    3.7992 H   0  0  0  0  0  0  0  0  0  0  0  0
   -1.0230   -2.5273    5.4272 H   0  0  0  0  0  0  0  0  0  0  0  0
   -0.2634   -1.6139    7.6048 H   0  0  0  0  0  0  0  0  0  0  0  0
    2.1534   -1.6005    8.1683 H   0  0  0  0  0  0  0  0  0  0  0  0
    3.8058   -2.4667    6.5591 H   0  0  0  0  0  0  0  0  0  0  0  0
  1  2  1  0  0  0  0
  1 47  1  0  0  0  0
  1 48  1  0  0  0  0
  1 49  1  0  0  0  0
  2  3  1  0  0  0  0
  2 50  1  0  0  0  0
  2 51  1  0  0  0  0
  3  4  1  0  0  0  0
  4  5  1  0  0  0  0
  4 36  2  0  0  0  0
  5  6  2  0  0  0  0
  5 52  1  0  0  0  0
  6  7  1  0  0  0  0
  6 53  1  0  0  0  0
  7  8  1  0  0  0  0
  7 35  2  0  0  0  0
  8  9  1  0  0  0  0
  8 15  2  0  0  0  0
  9 10  2  0  0  0  0
 10 11  1  0  0  0  0
 10 14  1  0  0  0  0
 11 12  1  0  0  0  0
 12 13  2  0  0  0  0
 12 54  1  0  0  0  0
 13 14  1  0  0  0  0
 13 55  1  0  0  0  0
 14 15  1  0  0  0  0
 15 16  1  0  0  0  0
 16 17  1  0  0  0  0
 16 34  2  0  0  0  0
 17 18  2  0  0  0  0
 17 56  1  0  0  0  0
 18 19  1  0  0  0  0
 18 57  1  0  0  0  0
 19 20  2  0  0  0  0
 20 21  1  0  0  0  0
 20 34  1  0  0  0  0
 21 22  1  0  0  0  0
 21 58  1  0  0  0  0
 22 23  1  0  0  0  0
 22 33  2  0  0  0  0
 23 24  2  0  0  0  0
 23 59  1  0  0  0  0
 24 25  1  0  0  0  0
 24 60  1  0  0  0  0
 25 26  2  0  0  0  0
 25 61  1  0  0  0  0
 26 27  1  0  0  0  0
 26 33  1  0  0  0  0
 27 28  1  0  0  0  0
 27 32  1  0  0  0  0
 28 29  1  0  0  0  0
 28 62  1  0  0  0  0
 28 63  1  0  0  0  0
 29 30  1  0  0  0  0
 29 64  1  0  0  0  0
 29 65  1  0  0  0  0
 30 31  1  0  0  0  0
 31 32  1  0  0  0  0
 31 66  1  0  0  0  0
 31 67  1  0  0  0  0
 32 68  1  0  0  0  0
 32 69  1  0  0  0  0
 33 70  1  0  0  0  0
 35 36  1  0  0  0  0
 35 71  1  0  0  0  0
 36 37  1  0  0  0  0
 37 38  1  0  0  0  0
 37 72  1  0  0  0  0
 38 39  2  0  0  0  0
 38 40  1  0  0  0  0
 40 41  1  0  0  0  0
 40 73  1  0  0  0  0
 40 74  1  0  0  0  0
 41 42  1  0  0  0  0
 41 46  2  0  0  0  0
 42 43  2  0  0  0  0
 42 75  1  0  0  0  0
 43 44  1  0  0  0  0
 43 76  1  0  0  0  0
 44 45  2  0  0  0  0
 44 77  1  0  0  0  0
 45 46  1  0  0  0  0
 45 78  1  0  0  0  0
 46 79  1  0  0  0  0
M  END
$$$$
