CHEMBL2206661
 OpenBabel04072215363D

 41 44  0  0  0  0  0  0  0  0999 V2000
    2.5927   -0.7480   -1.1161 O   0  0  0  0  0  0  0  0  0  0  0  0
    2.2303    0.1892   -0.4133 C   0  0  0  0  0  0  0  0  0  0  0  0
    0.9026    0.4940   -0.1576 N   0  0  0  0  0  0  0  0  0  0  0  0
   -0.2181   -0.1894   -0.6904 C   0  0  0  0  0  0  0  0  0  0  0  0
   -0.1402   -1.4324   -1.3271 C   0  0  0  0  0  0  0  0  0  0  0  0
   -1.2738   -2.0191   -1.8967 C   0  0  0  0  0  0  0  0  0  0  0  0
   -2.5020   -1.3744   -1.8233 C   0  0  0  0  0  0  0  0  0  0  0  0
   -2.6020   -0.1529   -1.1626 C   0  0  0  0  0  0  0  0  0  0  0  0
   -1.4674    0.4331   -0.5897 C   0  0  0  0  0  0  0  0  0  0  0  0
    3.0939    1.0899    0.1976 N   0  0  0  0  0  0  0  0  0  0  0  0
    4.5028    1.1168    0.0602 C   0  0  0  0  0  0  0  0  0  0  0  0
    5.2042    0.2588   -0.7929 C   0  0  0  0  0  0  0  0  0  0  0  0
    6.5963    0.2865   -0.8582 C   0  0  0  0  0  0  0  0  0  0  0  0
    7.3050    1.2108   -0.1013 C   0  0  0  0  0  0  0  0  0  0  0  0
    8.7146    1.2046   -0.0562 O   0  0  0  0  0  0  0  0  0  0  0  0
    9.4459    0.9212   -1.2036 C   0  0  0  0  0  0  0  0  0  0  0  0
   10.7853    0.4420   -0.7921 C   0  0  0  0  0  0  0  0  0  0  0  0
   11.6178    0.0788   -1.7784 C   0  0  0  0  0  0  0  0  0  0  0  0
   11.1873    0.1867   -3.1215 C   0  0  0  0  0  0  0  0  0  0  0  0
   11.7919   -0.1020   -4.2549 N   0  0  0  0  0  0  0  0  0  0  0  0
   10.8752    0.1922   -5.2347 C   0  0  0  0  0  0  0  0  0  0  0  0
    9.7041    0.6644   -4.6909 C   0  0  0  0  0  0  0  0  0  0  0  0
    9.9057    0.6693   -3.3391 N   0  0  0  0  0  0  0  0  0  0  0  0
    8.9945    1.0564   -2.4078 N   0  0  0  0  0  0  0  0  0  0  0  0
    6.6311    2.0916    0.7425 C   0  0  0  0  0  0  0  0  0  0  0  0
    5.2303    2.0447    0.8194 C   0  0  0  0  0  0  0  0  0  0  0  0
    0.7147    1.3775    0.2885 H   0  0  0  0  0  0  0  0  0  0  0  0
    0.7931   -1.9816   -1.4034 H   0  0  0  0  0  0  0  0  0  0  0  0
   -1.1837   -2.9762   -2.4037 H   0  0  0  0  0  0  0  0  0  0  0  0
   -3.3790   -1.8241   -2.2826 H   0  0  0  0  0  0  0  0  0  0  0  0
   -3.5630    0.3521   -1.1037 H   0  0  0  0  0  0  0  0  0  0  0  0
   -1.5747    1.3930   -0.0934 H   0  0  0  0  0  0  0  0  0  0  0  0
    2.6936    1.7291    0.8663 H   0  0  0  0  0  0  0  0  0  0  0  0
    4.7065   -0.4663   -1.4250 H   0  0  0  0  0  0  0  0  0  0  0  0
    7.0974   -0.4289   -1.5029 H   0  0  0  0  0  0  0  0  0  0  0  0
   11.0363    0.3721    0.2566 H   0  0  0  0  0  0  0  0  0  0  0  0
   12.6113   -0.3042   -1.5784 H   0  0  0  0  0  0  0  0  0  0  0  0
   11.1058    0.0445   -6.2820 H   0  0  0  0  0  0  0  0  0  0  0  0
    8.7693    0.9857   -5.1242 H   0  0  0  0  0  0  0  0  0  0  0  0
    7.1871    2.8013    1.3480 H   0  0  0  0  0  0  0  0  0  0  0  0
    4.7240    2.7351    1.4887 H   0  0  0  0  0  0  0  0  0  0  0  0
  1  2  2  0  0  0  0
  2  3  1  0  0  0  0
  2 10  1  0  0  0  0
  3  4  1  0  0  0  0
  3 27  1  0  0  0  0
  4  5  1  0  0  0  0
  4  9  2  0  0  0  0
  5  6  2  0  0  0  0
  5 28  1  0  0  0  0
  6  7  1  0  0  0  0
  6 29  1  0  0  0  0
  7  8  2  0  0  0  0
  7 30  1  0  0  0  0
  8  9  1  0  0  0  0
  8 31  1  0  0  0  0
  9 32  1  0  0  0  0
 10 11  1  0  0  0  0
 10 33  1  0  0  0  0
 11 12  1  0  0  0  0
 11 26  2  0  0  0  0
 12 13  2  0  0  0  0
 12 34  1  0  0  0  0
 13 14  1  0  0  0  0
 13 35  1  0  0  0  0
 14 15  1  0  0  0  0
 14 25  2  0  0  0  0
 15 16  1  0  0  0  0
 16 17  1  0  0  0  0
 16 24  2  0  0  0  0
 17 18  2  0  0  0  0
 17 36  1  0  0  0  0
 18 19  1  0  0  0  0
 18 37  1  0  0  0  0
 19 20  2  0  0  0  0
 19 23  1  0  0  0  0
 20 21  1  0  0  0  0
 21 22  2  0  0  0  0
 21 38  1  0  0  0  0
 22 23  1  0  0  0  0
 22 39  1  0  0  0  0
 23 24  1  0  0  0  0
 25 26  1  0  0  0  0
 25 40  1  0  0  0  0
 26 41  1  0  0  0  0
M  END
$$$$
