CHEMBL3696080
 OpenBabel04072215373D

 72 75  0  0  0  0  0  0  0  0999 V2000
    3.4083    5.7765    1.6677 C   0  0  0  0  0  0  0  0  0  0  0  0
    2.1211    5.0908    2.0255 C   0  0  0  0  0  0  0  0  0  0  0  0
    2.1561    3.9675    2.8629 C   0  0  0  0  0  0  0  0  0  0  0  0
    0.9663    3.3520    3.2388 C   0  0  0  0  0  0  0  0  0  0  0  0
   -0.2511    3.8314    2.7784 C   0  0  0  0  0  0  0  0  0  0  0  0
   -1.3383    3.2528    3.3031 F   0  0  0  0  0  0  0  0  0  0  0  0
   -0.3247    4.9091    1.8880 C   0  0  0  0  0  0  0  0  0  0  0  0
   -1.5366    5.3994    1.3057 N   0  0  0  0  0  0  0  0  0  0  0  0
   -2.7514    4.7236    1.2585 C   0  0  0  0  0  0  0  0  0  0  0  0
   -2.9760    3.6054    1.6903 O   0  0  0  0  0  0  0  0  0  0  0  0
   -3.7051    5.4467    0.5527 N   0  0  0  0  0  0  0  0  0  0  0  0
   -5.0183    4.9377    0.4054 C   0  0  0  0  0  0  0  0  0  0  0  0
   -5.5752    4.8782   -0.8669 C   0  0  0  0  0  0  0  0  0  0  0  0
   -6.8949    4.4492   -1.0358 C   0  0  0  0  0  0  0  0  0  0  0  0
   -7.7051    4.0840    0.0582 C   0  0  0  0  0  0  0  0  0  0  0  0
   -9.1458    3.8150   -0.1819 C   0  0  0  0  0  0  0  0  0  0  0  0
  -10.0081    4.2828    0.7307 N   0  0  0  0  0  0  0  0  0  0  0  0
  -11.5533    3.9564    0.2942 S   0  0  0  0  0  0  0  0  0  0  0  0
  -11.1615    3.3116   -1.2233 C   0  0  0  0  0  0  0  0  0  0  0  0
  -12.1973    3.0527   -2.1087 N   0  0  0  0  0  0  0  0  0  0  0  0
  -13.1610    2.1453   -1.7154 C   0  0  0  0  0  0  0  0  0  0  0  0
  -13.0834    1.4323   -0.7202 O   0  0  0  0  0  0  0  0  0  0  0  0
  -14.2501    2.1330   -2.5549 N   0  0  0  0  0  0  0  0  0  0  0  0
  -15.3436    1.2049   -2.3324 C   0  0  0  0  0  0  0  0  0  0  0  0
  -16.0947    1.4617   -1.0234 C   0  0  0  0  0  0  0  0  0  0  0  0
  -17.1658    0.3925   -0.7886 C   0  0  0  0  0  0  0  0  0  0  0  0
  -17.8873    0.5558    0.4870 N   0  0  0  0  0  0  0  0  0  0  0  0
  -17.0154    0.4303    1.6814 C   0  0  0  0  0  0  0  0  0  0  0  0
  -16.4959   -0.9969    1.9183 C   0  0  0  0  0  0  0  0  0  0  0  0
  -17.5824   -1.9248    2.0488 O   0  0  0  0  0  0  0  0  0  0  0  0
  -18.4328   -1.8850    0.8955 C   0  0  0  0  0  0  0  0  0  0  0  0
  -18.9571   -0.4623    0.6217 C   0  0  0  0  0  0  0  0  0  0  0  0
   -9.7853    3.2107   -1.3580 C   0  0  0  0  0  0  0  0  0  0  0  0
   -9.1797    2.5940   -2.5266 C   0  0  0  0  0  0  0  0  0  0  0  0
   -8.0312    1.9021   -2.3421 N   0  0  0  0  0  0  0  0  0  0  0  0
   -9.7059    2.6535   -3.6358 O   0  0  0  0  0  0  0  0  0  0  0  0
   -7.1299    4.1141    1.3551 C   0  0  0  0  0  0  0  0  0  0  0  0
   -7.8820    3.8207    2.6315 C   0  0  0  0  0  0  0  0  0  0  0  0
   -5.7881    4.5411    1.5042 C   0  0  0  0  0  0  0  0  0  0  0  0
    0.8791    5.5536    1.5456 C   0  0  0  0  0  0  0  0  0  0  0  0
    4.2676    5.2786    2.1323 H   0  0  0  0  0  0  0  0  0  0  0  0
    3.3989    6.8113    2.0258 H   0  0  0  0  0  0  0  0  0  0  0  0
    3.5644    5.7619    0.5860 H   0  0  0  0  0  0  0  0  0  0  0  0
    3.0960    3.5823    3.2417 H   0  0  0  0  0  0  0  0  0  0  0  0
    0.9774    2.5024    3.9188 H   0  0  0  0  0  0  0  0  0  0  0  0
   -1.4746    6.2718    0.8020 H   0  0  0  0  0  0  0  0  0  0  0  0
   -3.3420    5.9466   -0.2430 H   0  0  0  0  0  0  0  0  0  0  0  0
   -4.9888    5.1382   -1.7425 H   0  0  0  0  0  0  0  0  0  0  0  0
   -7.2846    4.4465   -2.0493 H   0  0  0  0  0  0  0  0  0  0  0  0
  -11.9359    2.9878   -3.0860 H   0  0  0  0  0  0  0  0  0  0  0  0
  -14.1646    2.5770   -3.4572 H   0  0  0  0  0  0  0  0  0  0  0  0
  -14.9169    0.1953   -2.3338 H   0  0  0  0  0  0  0  0  0  0  0  0
  -16.0260    1.2893   -3.1844 H   0  0  0  0  0  0  0  0  0  0  0  0
  -16.5443    2.4616   -1.0319 H   0  0  0  0  0  0  0  0  0  0  0  0
  -15.3807    1.4509   -0.1975 H   0  0  0  0  0  0  0  0  0  0  0  0
  -16.7070   -0.5991   -0.8703 H   0  0  0  0  0  0  0  0  0  0  0  0
  -17.8915    0.4677   -1.6091 H   0  0  0  0  0  0  0  0  0  0  0  0
  -17.6143    0.7288    2.5523 H   0  0  0  0  0  0  0  0  0  0  0  0
  -16.1835    1.1393    1.6559 H   0  0  0  0  0  0  0  0  0  0  0  0
  -15.9225   -1.0294    2.8502 H   0  0  0  0  0  0  0  0  0  0  0  0
  -15.8294   -1.3290    1.1143 H   0  0  0  0  0  0  0  0  0  0  0  0
  -19.2765   -2.5552    1.0884 H   0  0  0  0  0  0  0  0  0  0  0  0
  -17.8882   -2.2895    0.0353 H   0  0  0  0  0  0  0  0  0  0  0  0
  -19.5929   -0.1597    1.4643 H   0  0  0  0  0  0  0  0  0  0  0  0
  -19.6041   -0.4598   -0.2631 H   0  0  0  0  0  0  0  0  0  0  0  0
   -7.6269    1.7127   -1.4331 H   0  0  0  0  0  0  0  0  0  0  0  0
   -7.6010    1.4605   -3.1489 H   0  0  0  0  0  0  0  0  0  0  0  0
   -8.7840    3.2232    2.4863 H   0  0  0  0  0  0  0  0  0  0  0  0
   -8.1556    4.7630    3.1193 H   0  0  0  0  0  0  0  0  0  0  0  0
   -7.2587    3.2387    3.3190 H   0  0  0  0  0  0  0  0  0  0  0  0
   -5.3624    4.6061    2.5042 H   0  0  0  0  0  0  0  0  0  0  0  0
    0.8695    6.4186    0.8808 H   0  0  0  0  0  0  0  0  0  0  0  0
  1  2  1  0  0  0  0
  1 41  1  0  0  0  0
  1 42  1  0  0  0  0
  1 43  1  0  0  0  0
  2  3  1  0  0  0  0
  2 40  2  0  0  0  0
  3  4  2  0  0  0  0
  3 44  1  0  0  0  0
  4  5  1  0  0  0  0
  4 45  1  0  0  0  0
  5  6  1  0  0  0  0
  5  7  2  0  0  0  0
  7  8  1  0  0  0  0
  7 40  1  0  0  0  0
  8  9  1  0  0  0  0
  8 46  1  0  0  0  0
  9 10  2  0  0  0  0
  9 11  1  0  0  0  0
 11 12  1  0  0  0  0
 11 47  1  0  0  0  0
 12 13  1  0  0  0  0
 12 39  2  0  0  0  0
 13 14  2  0  0  0  0
 13 48  1  0  0  0  0
 14 15  1  0  0  0  0
 14 49  1  0  0  0  0
 15 16  1  0  0  0  0
 15 37  2  0  0  0  0
 16 17  2  0  0  0  0
 16 33  1  0  0  0  0
 17 18  1  0  0  0  0
 18 19  1  0  0  0  0
 19 20  1  0  0  0  0
 19 33  2  0  0  0  0
 20 21  1  0  0  0  0
 20 50  1  0  0  0  0
 21 22  2  0  0  0  0
 21 23  1  0  0  0  0
 23 24  1  0  0  0  0
 23 51  1  0  0  0  0
 24 25  1  0  0  0  0
 24 52  1  0  0  0  0
 24 53  1  0  0  0  0
 25 26  1  0  0  0  0
 25 54  1  0  0  0  0
 25 55  1  0  0  0  0
 26 27  1  0  0  0  0
 26 56  1  0  0  0  0
 26 57  1  0  0  0  0
 27 28  1  0  0  0  0
 27 32  1  0  0  0  0
 28 29  1  0  0  0  0
 28 58  1  0  0  0  0
 28 59  1  0  0  0  0
 29 30  1  0  0  0  0
 29 60  1  0  0  0  0
 29 61  1  0  0  0  0
 30 31  1  0  0  0  0
 31 32  1  0  0  0  0
 31 62  1  0  0  0  0
 31 63  1  0  0  0  0
 32 64  1  0  0  0  0
 32 65  1  0  0  0  0
 33 34  1  0  0  0  0
 34 35  1  0  0  0  0
 34 36  2  0  0  0  0
 35 66  1  0  0  0  0
 35 67  1  0  0  0  0
 37 38  1  0  0  0  0
 37 39  1  0  0  0  0
 38 68  1  0  0  0  0
 38 69  1  0  0  0  0
 38 70  1  0  0  0  0
 39 71  1  0  0  0  0
 40 72  1  0  0  0  0
M  END
$$$$
