CHEMBL2036871
 OpenBabel04072215363D

 39 42  0  0  0  0  0  0  0  0999 V2000
   -2.9500    1.2378   -0.0019 C   0  0  0  0  0  0  0  0  0  0  0  0
   -1.6412    0.6080   -0.0121 N   0  0  0  0  0  0  0  0  0  0  0  0
   -0.5177    1.4167    0.0005 C   0  0  0  0  0  0  0  0  0  0  0  0
   -0.5450    2.6464    0.0127 O   0  0  0  0  0  0  0  0  0  0  0  0
    0.7800    0.7403   -0.0088 C   0  0  0  0  0  0  0  0  0  0  0  0
    1.9735    1.4681    0.0483 C   0  0  0  0  0  0  0  0  0  0  0  0
    3.1833    0.7866    0.0416 C   0  0  0  0  0  0  0  0  0  0  0  0
    3.1582   -0.5948   -0.0627 C   0  0  0  0  0  0  0  0  0  0  0  0
    4.3976   -1.3729   -0.0846 C   0  0  0  0  0  0  0  0  0  0  0  0
    5.5177   -1.0264    0.5314 N   0  0  0  0  0  0  0  0  0  0  0  0
    6.4300   -2.0064    0.2433 C   0  0  0  0  0  0  0  0  0  0  0  0
    7.7619   -2.1337    0.6643 C   0  0  0  0  0  0  0  0  0  0  0  0
    8.5163   -3.2166    0.1983 C   0  0  0  0  0  0  0  0  0  0  0  0
    7.9562   -4.1530   -0.6711 C   0  0  0  0  0  0  0  0  0  0  0  0
    6.6249   -4.0499   -1.0888 C   0  0  0  0  0  0  0  0  0  0  0  0
    5.8835   -2.9655   -0.6028 C   0  0  0  0  0  0  0  0  0  0  0  0
    4.5824   -2.5556   -0.7769 N   0  0  0  0  0  0  0  0  0  0  0  0
    3.5950   -3.2163   -1.5971 C   0  0  0  0  0  0  0  0  0  0  0  0
    2.0046   -1.3058   -0.1243 N   0  0  0  0  0  0  0  0  0  0  0  0
    0.8300   -0.6396   -0.0674 C   0  0  0  0  0  0  0  0  0  0  0  0
   -0.3673   -1.3800   -0.0440 N   0  0  0  0  0  0  0  0  0  0  0  0
   -0.3104   -2.8304    0.0214 C   0  0  0  0  0  0  0  0  0  0  0  0
   -1.6141   -0.7818   -0.0052 C   0  0  0  0  0  0  0  0  0  0  0  0
   -2.6493   -1.4500    0.0331 O   0  0  0  0  0  0  0  0  0  0  0  0
   -2.8902    2.3290   -0.0118 H   0  0  0  0  0  0  0  0  0  0  0  0
   -3.4930    0.9195    0.8942 H   0  0  0  0  0  0  0  0  0  0  0  0
   -3.5110    0.9052   -0.8818 H   0  0  0  0  0  0  0  0  0  0  0  0
    1.9585    2.5532    0.1109 H   0  0  0  0  0  0  0  0  0  0  0  0
    4.1276    1.3199    0.1100 H   0  0  0  0  0  0  0  0  0  0  0  0
    8.1912   -1.3994    1.3365 H   0  0  0  0  0  0  0  0  0  0  0  0
    9.5509   -3.3241    0.5147 H   0  0  0  0  0  0  0  0  0  0  0  0
    8.5640   -4.9814   -1.0293 H   0  0  0  0  0  0  0  0  0  0  0  0
    6.1995   -4.7850   -1.7629 H   0  0  0  0  0  0  0  0  0  0  0  0
    4.0372   -4.0766   -2.1021 H   0  0  0  0  0  0  0  0  0  0  0  0
    3.2306   -2.5107   -2.3476 H   0  0  0  0  0  0  0  0  0  0  0  0
    2.7839   -3.5673   -0.9566 H   0  0  0  0  0  0  0  0  0  0  0  0
    0.7025   -3.2339   -0.0158 H   0  0  0  0  0  0  0  0  0  0  0  0
   -0.8823   -3.2466   -0.8141 H   0  0  0  0  0  0  0  0  0  0  0  0
   -0.7773   -3.1579    0.9565 H   0  0  0  0  0  0  0  0  0  0  0  0
  1  2  1  0  0  0  0
  1 25  1  0  0  0  0
  1 26  1  0  0  0  0
  1 27  1  0  0  0  0
  2  3  1  0  0  0  0
  2 23  1  0  0  0  0
  3  4  2  0  0  0  0
  3  5  1  0  0  0  0
  5  6  1  0  0  0  0
  5 20  2  0  0  0  0
  6  7  2  0  0  0  0
  6 28  1  0  0  0  0
  7  8  1  0  0  0  0
  7 29  1  0  0  0  0
  8  9  1  0  0  0  0
  8 19  2  0  0  0  0
  9 10  2  0  0  0  0
  9 17  1  0  0  0  0
 10 11  1  0  0  0  0
 11 12  1  0  0  0  0
 11 16  2  0  0  0  0
 12 13  2  0  0  0  0
 12 30  1  0  0  0  0
 13 14  1  0  0  0  0
 13 31  1  0  0  0  0
 14 15  2  0  0  0  0
 14 32  1  0  0  0  0
 15 16  1  0  0  0  0
 15 33  1  0  0  0  0
 16 17  1  0  0  0  0
 17 18  1  0  0  0  0
 18 34  1  0  0  0  0
 18 35  1  0  0  0  0
 18 36  1  0  0  0  0
 19 20  1  0  0  0  0
 20 21  1  0  0  0  0
 21 22  1  0  0  0  0
 21 23  1  0  0  0  0
 22 37  1  0  0  0  0
 22 38  1  0  0  0  0
 22 39  1  0  0  0  0
 23 24  2  0  0  0  0
M  END
$$$$
