CHEMBL3939860
 OpenBabel04072215373D

 62 67  0  0  0  0  0  0  0  0999 V2000
    2.8516   -0.9186    0.7735 C   0  0  0  0  0  0  0  0  0  0  0  0
    2.1706   -0.2469   -0.2731 O   0  0  0  0  0  0  0  0  0  0  0  0
    2.8321   -0.0710   -1.4439 C   0  0  0  0  0  0  0  0  0  0  0  0
    2.5975    0.9816   -2.2533 C   0  0  0  0  0  0  0  0  0  0  0  0
    3.4531    1.1973   -3.3258 C   0  0  0  0  0  0  0  0  0  0  0  0
    3.2481    2.1927   -4.2379 O   0  0  0  0  0  0  0  0  0  0  0  0
    2.0845    2.9679   -3.9724 C   0  0  0  0  0  0  0  0  0  0  0  0
    4.6053    0.4116   -3.5168 C   0  0  0  0  0  0  0  0  0  0  0  0
    4.9502   -0.6113   -2.6456 C   0  0  0  0  0  0  0  0  0  0  0  0
    6.2059   -1.3357   -2.7530 N   0  0  0  0  0  0  0  0  0  0  0  0
    6.7913   -1.8823   -1.4437 C   0  0  0  0  0  0  0  0  0  0  0  0
    7.1684   -0.9649   -0.2668 C   0  0  0  0  0  0  0  0  0  0  0  0
    7.7028   -1.3235    0.9645 C   0  0  0  0  0  0  0  0  0  0  0  0
    7.5261   -0.2420    1.8674 C   0  0  0  0  0  0  0  0  0  0  0  0
    7.7849   -0.1942    3.1959 N   0  0  0  0  0  0  0  0  0  0  0  0
    7.4366    0.9626    3.8025 C   0  0  0  0  0  0  0  0  0  0  0  0
    6.7711    2.0242    3.2127 C   0  0  0  0  0  0  0  0  0  0  0  0
    6.4870    1.9548    1.8522 C   0  0  0  0  0  0  0  0  0  0  0  0
    6.9350    0.8080    1.1720 C   0  0  0  0  0  0  0  0  0  0  0  0
    6.7966    0.3856   -0.1512 N   0  0  0  0  0  0  0  0  0  0  0  0
    7.2644   -0.9459   -3.7121 C   0  0  0  0  0  0  0  0  0  0  0  0
    8.0229   -1.9797   -4.1557 C   0  0  0  0  0  0  0  0  0  0  0  0
    9.0929   -1.6925   -4.8954 C   0  0  0  0  0  0  0  0  0  0  0  0
    9.5530   -0.4287   -5.1169 C   0  0  0  0  0  0  0  0  0  0  0  0
   10.8007   -0.5922   -4.9176 N   0  0  0  0  0  0  0  0  0  0  0  0
   11.3591   -0.7425   -6.0551 C   0  0  0  0  0  0  0  0  0  0  0  0
   11.6340    0.3234   -6.7319 C   0  0  0  0  0  0  0  0  0  0  0  0
   13.1926   -0.3132   -7.3342 C   0  0  0  0  0  0  0  0  0  0  0  0
   13.8708   -1.6104   -7.6941 C   0  0  0  0  0  0  0  0  0  0  0  0
   14.9018   -1.5792   -8.6007 N   0  0  0  0  0  0  0  0  0  0  0  0
   14.9824   -0.3124   -9.0264 N   0  0  0  0  0  0  0  0  0  0  0  0
   15.9407    0.0743  -10.1115 C   0  0  0  0  0  0  0  0  0  0  0  0
   14.0198    0.4552   -8.2995 C   0  0  0  0  0  0  0  0  0  0  0  0
   10.5299    1.3262   -6.1584 N   0  0  0  0  0  0  0  0  0  0  0  0
    9.1314    0.8524   -5.1696 C   0  0  0  0  0  0  0  0  0  0  0  0
    7.7409    0.4285   -4.1966 C   0  0  0  0  0  0  0  0  0  0  0  0
    3.8954   -0.9096   -1.7747 C   0  0  0  0  0  0  0  0  0  0  0  0
    2.1725   -1.0165    1.6305 H   0  0  0  0  0  0  0  0  0  0  0  0
    3.7033   -0.3121    1.0820 H   0  0  0  0  0  0  0  0  0  0  0  0
    3.1461   -1.9311    0.4935 H   0  0  0  0  0  0  0  0  0  0  0  0
    1.7219    1.5758   -2.0560 H   0  0  0  0  0  0  0  0  0  0  0  0
    2.0182    3.7327   -4.7396 H   0  0  0  0  0  0  0  0  0  0  0  0
    2.1551    3.4671   -2.9955 H   0  0  0  0  0  0  0  0  0  0  0  0
    1.1812    2.3452   -4.0229 H   0  0  0  0  0  0  0  0  0  0  0  0
    5.2157    0.5849   -4.3939 H   0  0  0  0  0  0  0  0  0  0  0  0
    7.6598   -2.5476   -1.5912 H   0  0  0  0  0  0  0  0  0  0  0  0
    5.9832   -2.5223   -1.0695 H   0  0  0  0  0  0  0  0  0  0  0  0
    8.0346   -2.3177    1.2284 H   0  0  0  0  0  0  0  0  0  0  0  0
    7.7337    1.0240    4.8461 H   0  0  0  0  0  0  0  0  0  0  0  0
    6.4768    2.8867    3.8044 H   0  0  0  0  0  0  0  0  0  0  0  0
    5.8648    2.7105    1.3771 H   0  0  0  0  0  0  0  0  0  0  0  0
    6.1266    0.8258   -0.7719 H   0  0  0  0  0  0  0  0  0  0  0  0
    8.0037   -3.0092   -3.8361 H   0  0  0  0  0  0  0  0  0  0  0  0
    9.8209   -2.4661   -5.1197 H   0  0  0  0  0  0  0  0  0  0  0  0
   11.8244   -1.7087   -6.1790 H   0  0  0  0  0  0  0  0  0  0  0  0
   13.7179   -2.6346   -7.3659 H   0  0  0  0  0  0  0  0  0  0  0  0
   16.6325   -0.7404  -10.4108 H   0  0  0  0  0  0  0  0  0  0  0  0
   16.5806    0.9175   -9.8111 H   0  0  0  0  0  0  0  0  0  0  0  0
   15.4043    0.3596  -11.0286 H   0  0  0  0  0  0  0  0  0  0  0  0
   13.9956    1.4866   -8.6072 H   0  0  0  0  0  0  0  0  0  0  0  0
    7.0917    1.2076   -3.7167 H   0  0  0  0  0  0  0  0  0  0  0  0
    3.8175   -1.8840   -1.3353 H   0  0  0  0  0  0  0  0  0  0  0  0
  1  2  1  0  0  0  0
  1 38  1  0  0  0  0
  1 39  1  0  0  0  0
  1 40  1  0  0  0  0
  2  3  1  0  0  0  0
  3  4  1  0  0  0  0
  3 37  2  0  0  0  0
  4  5  2  0  0  0  0
  4 41  1  0  0  0  0
  5  6  1  0  0  0  0
  5  8  1  0  0  0  0
  6  7  1  0  0  0  0
  7 42  1  0  0  0  0
  7 43  1  0  0  0  0
  7 44  1  0  0  0  0
  8  9  2  0  0  0  0
  8 45  1  0  0  0  0
  9 10  1  0  0  0  0
  9 37  1  0  0  0  0
 10 11  1  0  0  0  0
 10 21  1  0  0  0  0
 11 12  1  0  0  0  0
 11 46  1  0  0  0  0
 11 47  1  0  0  0  0
 12 13  2  0  0  0  0
 12 20  1  0  0  0  0
 13 14  1  0  0  0  0
 13 48  1  0  0  0  0
 14 15  1  0  0  0  0
 14 19  2  0  0  0  0
 15 16  2  0  0  0  0
 16 17  1  0  0  0  0
 16 49  1  0  0  0  0
 17 18  2  0  0  0  0
 17 50  1  0  0  0  0
 18 19  1  0  0  0  0
 18 51  1  0  0  0  0
 19 20  1  0  0  0  0
 20 52  1  0  0  0  0
 21 22  1  0  0  0  0
 21 36  2  0  0  0  0
 22 23  2  0  0  0  0
 22 53  1  0  0  0  0
 23 24  1  0  0  0  0
 23 54  1  0  0  0  0
 24 25  1  0  0  0  0
 24 35  2  0  0  0  0
 25 26  2  0  0  0  0
 26 27  1  0  0  0  0
 26 55  1  0  0  0  0
 27 28  1  0  0  0  0
 27 34  2  0  0  0  0
 28 29  1  0  0  0  0
 28 33  2  0  0  0  0
 29 30  2  0  0  0  0
 29 56  1  0  0  0  0
 30 31  1  0  0  0  0
 31 32  1  0  0  0  0
 31 33  1  0  0  0  0
 32 57  1  0  0  0  0
 32 58  1  0  0  0  0
 32 59  1  0  0  0  0
 33 60  1  0  0  0  0
 34 35  1  0  0  0  0
 35 36  1  0  0  0  0
 36 61  1  0  0  0  0
 37 62  1  0  0  0  0
M  END
$$$$
