CHEMBL3676362
 OpenBabel04072215373D

 53 55  0  0  0  0  0  0  0  0999 V2000
    2.6921    2.4074    0.0257 C   0  0  0  0  0  0  0  0  0  0  0  0
    3.2935    1.2134    0.1077 C   0  0  0  0  0  0  0  0  0  0  0  0
    4.1262    0.8841    1.2928 C   0  0  0  0  0  0  0  0  0  0  0  0
    4.3154    1.6954    2.1914 O   0  0  0  0  0  0  0  0  0  0  0  0
    4.6036   -0.4145    1.2650 N   0  0  0  0  0  0  0  0  0  0  0  0
    5.3307   -0.9456    2.3437 C   0  0  0  0  0  0  0  0  0  0  0  0
    6.4733   -0.2344    2.7064 C   0  0  0  0  0  0  0  0  0  0  0  0
    7.2102   -0.5706    3.8543 C   0  0  0  0  0  0  0  0  0  0  0  0
    8.3038    0.1659    4.2970 C   0  0  0  0  0  0  0  0  0  0  0  0
    8.6822    1.3657    3.6402 N   0  0  0  0  0  0  0  0  0  0  0  0
    9.4579    2.3814    4.2415 C   0  0  0  0  0  0  0  0  0  0  0  0
    9.2055    2.7689    5.5629 C   0  0  0  0  0  0  0  0  0  0  0  0
   10.0630    3.6401    6.2300 C   0  0  0  0  0  0  0  0  0  0  0  0
   11.1776    4.1606    5.5680 C   0  0  0  0  0  0  0  0  0  0  0  0
   12.3630    5.2314    6.5951 Br  0  0  0  0  0  0  0  0  0  0  0  0
   11.3984    3.8567    4.2191 C   0  0  0  0  0  0  0  0  0  0  0  0
   12.7354    4.5056    3.3357 Cl  0  0  0  0  0  0  0  0  0  0  0  0
   10.5285    2.9775    3.5653 C   0  0  0  0  0  0  0  0  0  0  0  0
   10.7359    2.6502    2.2771 F   0  0  0  0  0  0  0  0  0  0  0  0
    8.9763   -0.1885    5.4176 N   0  0  0  0  0  0  0  0  0  0  0  0
    8.5273   -1.2535    6.0778 C   0  0  0  0  0  0  0  0  0  0  0  0
    7.4702   -2.0037    5.7462 N   0  0  0  0  0  0  0  0  0  0  0  0
    6.8111   -1.6571    4.6360 C   0  0  0  0  0  0  0  0  0  0  0  0
    5.6804   -2.3754    4.2529 C   0  0  0  0  0  0  0  0  0  0  0  0
    4.9473   -2.0686    3.0917 C   0  0  0  0  0  0  0  0  0  0  0  0
    3.8286   -2.8447    2.9242 O   0  0  0  0  0  0  0  0  0  0  0  0
    3.5036   -3.1836    1.5800 C   0  0  0  0  0  0  0  0  0  0  0  0
    2.3675   -4.2163    1.5123 C   0  0  0  0  0  0  0  0  0  0  0  0
    1.1103   -3.6678    2.0409 N   0  0  0  0  0  0  0  0  0  0  0  0
   -0.0089   -4.5867    1.8126 C   0  0  0  0  0  0  0  0  0  0  0  0
   -1.2952   -3.9631    2.3381 C   0  0  0  0  0  0  0  0  0  0  0  0
   -1.4026   -3.6948    3.8172 C   0  0  0  0  0  0  0  0  0  0  0  0
   -2.2413   -3.7242    1.5836 O   0  0  0  0  0  0  0  0  0  0  0  0
    2.0731    2.6667   -0.8256 H   0  0  0  0  0  0  0  0  0  0  0  0
    2.7995    3.1534    0.8108 H   0  0  0  0  0  0  0  0  0  0  0  0
    3.1743    0.4778   -0.6756 H   0  0  0  0  0  0  0  0  0  0  0  0
    4.3675   -1.0188    0.4964 H   0  0  0  0  0  0  0  0  0  0  0  0
    6.7711    0.6162    2.0990 H   0  0  0  0  0  0  0  0  0  0  0  0
    8.9112    1.2107    2.6635 H   0  0  0  0  0  0  0  0  0  0  0  0
    8.3486    2.3569    6.0941 H   0  0  0  0  0  0  0  0  0  0  0  0
    9.8651    3.8735    7.2725 H   0  0  0  0  0  0  0  0  0  0  0  0
    9.0639   -1.5256    6.9803 H   0  0  0  0  0  0  0  0  0  0  0  0
    5.3435   -3.1861    4.9002 H   0  0  0  0  0  0  0  0  0  0  0  0
    4.3891   -3.5851    1.0766 H   0  0  0  0  0  0  0  0  0  0  0  0
    3.1339   -2.3050    1.0497 H   0  0  0  0  0  0  0  0  0  0  0  0
    2.6460   -5.1164    2.0688 H   0  0  0  0  0  0  0  0  0  0  0  0
    2.2338   -4.4824    0.4559 H   0  0  0  0  0  0  0  0  0  0  0  0
    0.9067   -2.7706    1.5978 H   0  0  0  0  0  0  0  0  0  0  0  0
    0.1438   -5.5459    2.3173 H   0  0  0  0  0  0  0  0  0  0  0  0
   -0.1384   -4.7710    0.7398 H   0  0  0  0  0  0  0  0  0  0  0  0
   -0.4249   -3.7535    4.3014 H   0  0  0  0  0  0  0  0  0  0  0  0
   -2.0682   -4.4332    4.2701 H   0  0  0  0  0  0  0  0  0  0  0  0
   -1.8001   -2.6872    3.9678 H   0  0  0  0  0  0  0  0  0  0  0  0
  1  2  2  0  0  0  0
  1 34  1  0  0  0  0
  1 35  1  0  0  0  0
  2  3  1  0  0  0  0
  2 36  1  0  0  0  0
  3  4  2  0  0  0  0
  3  5  1  0  0  0  0
  5  6  1  0  0  0  0
  5 37  1  0  0  0  0
  6  7  1  0  0  0  0
  6 25  2  0  0  0  0
  7  8  2  0  0  0  0
  7 38  1  0  0  0  0
  8  9  1  0  0  0  0
  8 23  1  0  0  0  0
  9 10  1  0  0  0  0
  9 20  2  0  0  0  0
 10 11  1  0  0  0  0
 10 39  1  0  0  0  0
 11 12  1  0  0  0  0
 11 18  2  0  0  0  0
 12 13  2  0  0  0  0
 12 40  1  0  0  0  0
 13 14  1  0  0  0  0
 13 41  1  0  0  0  0
 14 15  1  0  0  0  0
 14 16  2  0  0  0  0
 16 17  1  0  0  0  0
 16 18  1  0  0  0  0
 18 19  1  0  0  0  0
 20 21  1  0  0  0  0
 21 22  2  0  0  0  0
 21 42  1  0  0  0  0
 22 23  1  0  0  0  0
 23 24  2  0  0  0  0
 24 25  1  0  0  0  0
 24 43  1  0  0  0  0
 25 26  1  0  0  0  0
 26 27  1  0  0  0  0
 27 28  1  0  0  0  0
 27 44  1  0  0  0  0
 27 45  1  0  0  0  0
 28 29  1  0  0  0  0
 28 46  1  0  0  0  0
 28 47  1  0  0  0  0
 29 30  1  0  0  0  0
 29 48  1  0  0  0  0
 30 31  1  0  0  0  0
 30 49  1  0  0  0  0
 30 50  1  0  0  0  0
 31 32  1  0  0  0  0
 31 33  2  0  0  0  0
 32 51  1  0  0  0  0
 32 52  1  0  0  0  0
 32 53  1  0  0  0  0
M  END
$$$$
