CHEMBL2003271
 OpenBabel04072215363D

 33 35  0  0  0  0  0  0  0  0999 V2000
    1.0212   -0.0614    0.5386 N   0  0  0  0  0  0  0  0  0  0  0  0
    2.3356   -0.1215    0.1474 C   0  0  0  0  0  0  0  0  0  0  0  0
    2.8536   -1.2176   -0.0320 O   0  0  0  0  0  0  0  0  0  0  0  0
    3.0261    1.1550    0.0234 C   0  0  0  0  0  0  0  0  0  0  0  0
    2.5180    2.4646    0.9970 S   0  0  0  0  0  0  0  0  0  0  0  0
    3.8160    3.4630    0.5044 C   0  0  0  0  0  0  0  0  0  0  0  0
    4.0494    4.7769    0.9626 C   0  0  0  0  0  0  0  0  0  0  0  0
    5.1237    5.4988    0.4497 C   0  0  0  0  0  0  0  0  0  0  0  0
    5.9556    4.9293   -0.5024 C   0  0  0  0  0  0  0  0  0  0  0  0
    7.2474    5.8963   -1.1222 Cl  0  0  0  0  0  0  0  0  0  0  0  0
    5.7252    3.6151   -0.9375 C   0  0  0  0  0  0  0  0  0  0  0  0
    6.7139    2.8649   -2.1321 Cl  0  0  0  0  0  0  0  0  0  0  0  0
    4.6433    2.8313   -0.4332 C   0  0  0  0  0  0  0  0  0  0  0  0
    4.1473    1.4857   -0.7238 C   0  0  0  0  0  0  0  0  0  0  0  0
    4.7677    0.6281   -1.6479 N   0  0  0  0  0  0  0  0  0  0  0  0
    4.0408    0.0316   -2.6693 C   0  0  0  0  0  0  0  0  0  0  0  0
    2.8342    0.1796   -2.8533 O   0  0  0  0  0  0  0  0  0  0  0  0
    4.8411   -0.7248   -3.6784 C   0  0  0  0  0  0  0  0  0  0  0  0
    5.9942   -1.4433   -3.3297 C   0  0  0  0  0  0  0  0  0  0  0  0
    6.7033   -2.1519   -4.3090 C   0  0  0  0  0  0  0  0  0  0  0  0
    6.2661   -2.1372   -5.6342 C   0  0  0  0  0  0  0  0  0  0  0  0
    7.1356   -3.0142   -6.8313 Cl  0  0  0  0  0  0  0  0  0  0  0  0
    5.1241   -1.4232   -5.9907 C   0  0  0  0  0  0  0  0  0  0  0  0
    4.4123   -0.7211   -5.0135 C   0  0  0  0  0  0  0  0  0  0  0  0
    0.5038   -0.9278    0.5898 H   0  0  0  0  0  0  0  0  0  0  0  0
    0.5287    0.8154    0.6099 H   0  0  0  0  0  0  0  0  0  0  0  0
    3.3898    5.2295    1.7000 H   0  0  0  0  0  0  0  0  0  0  0  0
    5.2954    6.5150    0.7974 H   0  0  0  0  0  0  0  0  0  0  0  0
    5.7301    0.8519   -1.8798 H   0  0  0  0  0  0  0  0  0  0  0  0
    6.3274   -1.4924   -2.2934 H   0  0  0  0  0  0  0  0  0  0  0  0
    7.5848   -2.7234   -4.0311 H   0  0  0  0  0  0  0  0  0  0  0  0
    4.7787   -1.4154   -7.0227 H   0  0  0  0  0  0  0  0  0  0  0  0
    3.5154   -0.1722   -5.2966 H   0  0  0  0  0  0  0  0  0  0  0  0
  1  2  1  0  0  0  0
  1 25  1  0  0  0  0
  1 26  1  0  0  0  0
  2  3  2  0  0  0  0
  2  4  1  0  0  0  0
  4  5  1  0  0  0  0
  4 14  2  0  0  0  0
  5  6  1  0  0  0  0
  6  7  1  0  0  0  0
  6 13  2  0  0  0  0
  7  8  2  0  0  0  0
  7 27  1  0  0  0  0
  8  9  1  0  0  0  0
  8 28  1  0  0  0  0
  9 10  1  0  0  0  0
  9 11  2  0  0  0  0
 11 12  1  0  0  0  0
 11 13  1  0  0  0  0
 13 14  1  0  0  0  0
 14 15  1  0  0  0  0
 15 16  1  0  0  0  0
 15 29  1  0  0  0  0
 16 17  2  0  0  0  0
 16 18  1  0  0  0  0
 18 19  1  0  0  0  0
 18 24  2  0  0  0  0
 19 20  2  0  0  0  0
 19 30  1  0  0  0  0
 20 21  1  0  0  0  0
 20 31  1  0  0  0  0
 21 22  1  0  0  0  0
 21 23  2  0  0  0  0
 23 24  1  0  0  0  0
 23 32  1  0  0  0  0
 24 33  1  0  0  0  0
M  END
$$$$
