CHEMBL200231
 OpenBabel04072215363D

 64 67  0  0  0  0  0  0  0  0999 V2000
    1.3928   -0.3527    2.4077 C   0  0  0  0  0  0  0  0  0  0  0  0
    1.9333    0.3899    3.4962 O   0  0  0  0  0  0  0  0  0  0  0  0
    3.2637    0.1001    3.7418 C   0  0  0  0  0  0  0  0  0  0  0  0
    3.8621    0.8223    4.7583 C   0  0  0  0  0  0  0  0  0  0  0  0
    5.2044    0.5822    5.0284 C   0  0  0  0  0  0  0  0  0  0  0  0
    5.8869   -0.3835    4.2925 C   0  0  0  0  0  0  0  0  0  0  0  0
    7.5891   -0.5381    4.5652 Cl  0  0  0  0  0  0  0  0  0  0  0  0
    5.1930   -1.1011    3.3045 C   0  0  0  0  0  0  0  0  0  0  0  0
    5.7882   -2.0954    2.5195 N   0  0  0  0  0  0  0  0  0  0  0  0
    6.4326   -3.2592    3.0063 C   0  0  0  0  0  0  0  0  0  0  0  0
    6.3865   -3.5014    4.3342 N   0  0  0  0  0  0  0  0  0  0  0  0
    7.0249   -4.5849    4.7742 C   0  0  0  0  0  0  0  0  0  0  0  0
    7.6791   -5.4630    4.0196 N   0  0  0  0  0  0  0  0  0  0  0  0
    7.7102   -5.2189    2.7082 C   0  0  0  0  0  0  0  0  0  0  0  0
    8.3830   -6.1410    1.9325 C   0  0  0  0  0  0  0  0  0  0  0  0
    8.5020   -6.0014    0.5536 C   0  0  0  0  0  0  0  0  0  0  0  0
    9.1285   -6.8962   -0.2708 O   0  0  0  0  0  0  0  0  0  0  0  0
    9.4840   -8.1504    0.3244 C   0  0  0  0  0  0  0  0  0  0  0  0
    9.9804   -9.0793   -0.7726 C   0  0  0  0  0  0  0  0  0  0  0  0
   10.3994  -10.4443   -0.2124 C   0  0  0  0  0  0  0  0  0  0  0  0
   10.9800  -11.3070   -1.2518 N   0  0  0  0  0  0  0  0  0  0  0  0
   10.0156  -11.7122   -2.2981 C   0  0  0  0  0  0  0  0  0  0  0  0
    9.0041  -12.7707   -1.8330 C   0  0  0  0  0  0  0  0  0  0  0  0
    9.6753  -13.9458   -1.3658 O   0  0  0  0  0  0  0  0  0  0  0  0
   10.5673  -13.6269   -0.2909 C   0  0  0  0  0  0  0  0  0  0  0  0
   11.5813  -12.5365   -0.6861 C   0  0  0  0  0  0  0  0  0  0  0  0
    7.9444   -4.8897   -0.0690 C   0  0  0  0  0  0  0  0  0  0  0  0
    7.2036   -3.9686    0.6776 C   0  0  0  0  0  0  0  0  0  0  0  0
    6.5400   -2.9056    0.1174 O   0  0  0  0  0  0  0  0  0  0  0  0
    6.1498   -2.9491   -1.2613 C   0  0  0  0  0  0  0  0  0  0  0  0
    5.1123   -4.0436   -1.5082 C   0  0  0  0  0  0  0  0  0  0  0  0
    5.5222   -1.5900   -1.5802 C   0  0  0  0  0  0  0  0  0  0  0  0
    7.1009   -4.1148    2.0977 C   0  0  0  0  0  0  0  0  0  0  0  0
    3.8951   -0.8399    3.0082 N   0  0  0  0  0  0  0  0  0  0  0  0
    0.3384   -0.0775    2.3076 H   0  0  0  0  0  0  0  0  0  0  0  0
    1.4372   -1.4310    2.5967 H   0  0  0  0  0  0  0  0  0  0  0  0
    1.8955   -0.0964    1.4686 H   0  0  0  0  0  0  0  0  0  0  0  0
    3.3041    1.5675    5.3116 H   0  0  0  0  0  0  0  0  0  0  0  0
    5.7161    1.1548    5.7959 H   0  0  0  0  0  0  0  0  0  0  0  0
    5.1238   -2.3716    1.8057 H   0  0  0  0  0  0  0  0  0  0  0  0
    7.0101   -4.7657    5.8435 H   0  0  0  0  0  0  0  0  0  0  0  0
    8.8213   -6.9877    2.4537 H   0  0  0  0  0  0  0  0  0  0  0  0
    8.6052   -8.6041    0.8009 H   0  0  0  0  0  0  0  0  0  0  0  0
   10.2782   -7.9952    1.0635 H   0  0  0  0  0  0  0  0  0  0  0  0
   10.8207   -8.6057   -1.2958 H   0  0  0  0  0  0  0  0  0  0  0  0
    9.1776   -9.1794   -1.5113 H   0  0  0  0  0  0  0  0  0  0  0  0
    9.5511  -10.9219    0.2914 H   0  0  0  0  0  0  0  0  0  0  0  0
   11.1610  -10.2647    0.5581 H   0  0  0  0  0  0  0  0  0  0  0  0
   10.5991  -12.1340   -3.1273 H   0  0  0  0  0  0  0  0  0  0  0  0
    9.4901  -10.8527   -2.7231 H   0  0  0  0  0  0  0  0  0  0  0  0
    8.3687  -13.0653   -2.6741 H   0  0  0  0  0  0  0  0  0  0  0  0
    8.3459  -12.3901   -1.0434 H   0  0  0  0  0  0  0  0  0  0  0  0
   11.1038  -14.5465   -0.0340 H   0  0  0  0  0  0  0  0  0  0  0  0
    9.9799  -13.3316    0.5853 H   0  0  0  0  0  0  0  0  0  0  0  0
   12.2434  -12.9521   -1.4572 H   0  0  0  0  0  0  0  0  0  0  0  0
   12.2275  -12.2983    0.1670 H   0  0  0  0  0  0  0  0  0  0  0  0
    8.0854   -4.7751   -1.1386 H   0  0  0  0  0  0  0  0  0  0  0  0
    7.0270   -3.0692   -1.9059 H   0  0  0  0  0  0  0  0  0  0  0  0
    4.2402   -3.9046   -0.8595 H   0  0  0  0  0  0  0  0  0  0  0  0
    5.5083   -5.0381   -1.2843 H   0  0  0  0  0  0  0  0  0  0  0  0
    4.7805   -4.0424   -2.5506 H   0  0  0  0  0  0  0  0  0  0  0  0
    4.6300   -1.4161   -0.9669 H   0  0  0  0  0  0  0  0  0  0  0  0
    5.2354   -1.5239   -2.6346 H   0  0  0  0  0  0  0  0  0  0  0  0
    6.2195   -0.7760   -1.3553 H   0  0  0  0  0  0  0  0  0  0  0  0
  1  2  1  0  0  0  0
  1 35  1  0  0  0  0
  1 36  1  0  0  0  0
  1 37  1  0  0  0  0
  2  3  1  0  0  0  0
  3  4  1  0  0  0  0
  3 34  2  0  0  0  0
  4  5  2  0  0  0  0
  4 38  1  0  0  0  0
  5  6  1  0  0  0  0
  5 39  1  0  0  0  0
  6  7  1  0  0  0  0
  6  8  2  0  0  0  0
  8  9  1  0  0  0  0
  8 34  1  0  0  0  0
  9 10  1  0  0  0  0
  9 40  1  0  0  0  0
 10 11  1  0  0  0  0
 10 33  2  0  0  0  0
 11 12  2  0  0  0  0
 12 13  1  0  0  0  0
 12 41  1  0  0  0  0
 13 14  2  0  0  0  0
 14 15  1  0  0  0  0
 14 33  1  0  0  0  0
 15 16  2  0  0  0  0
 15 42  1  0  0  0  0
 16 17  1  0  0  0  0
 16 27  1  0  0  0  0
 17 18  1  0  0  0  0
 18 19  1  0  0  0  0
 18 43  1  0  0  0  0
 18 44  1  0  0  0  0
 19 20  1  0  0  0  0
 19 45  1  0  0  0  0
 19 46  1  0  0  0  0
 20 21  1  0  0  0  0
 20 47  1  0  0  0  0
 20 48  1  0  0  0  0
 21 22  1  0  0  0  0
 21 26  1  0  0  0  0
 22 23  1  0  0  0  0
 22 49  1  0  0  0  0
 22 50  1  0  0  0  0
 23 24  1  0  0  0  0
 23 51  1  0  0  0  0
 23 52  1  0  0  0  0
 24 25  1  0  0  0  0
 25 26  1  0  0  0  0
 25 53  1  0  0  0  0
 25 54  1  0  0  0  0
 26 55  1  0  0  0  0
 26 56  1  0  0  0  0
 27 28  2  0  0  0  0
 27 57  1  0  0  0  0
 28 29  1  0  0  0  0
 28 33  1  0  0  0  0
 29 30  1  0  0  0  0
 30 31  1  0  0  0  0
 30 32  1  0  0  0  0
 30 58  1  0  0  0  0
 31 59  1  0  0  0  0
 31 60  1  0  0  0  0
 31 61  1  0  0  0  0
 32 62  1  0  0  0  0
 32 63  1  0  0  0  0
 32 64  1  0  0  0  0
M  END
$$$$
