CHEMBL382797
 OpenBabel04072215373D

 50 54  0  0  0  0  0  0  0  0999 V2000
   -4.5762   -4.5948   -2.8559 F   0  0  0  0  0  0  0  0  0  0  0  0
   -3.2853   -5.0309   -2.8307 C   0  0  0  0  0  0  0  0  0  0  0  0
   -3.2964   -6.2544   -3.4293 F   0  0  0  0  0  0  0  0  0  0  0  0
   -2.5976   -4.2099   -3.6710 F   0  0  0  0  0  0  0  0  0  0  0  0
   -2.6902   -5.0786   -1.4443 C   0  0  0  0  0  0  0  0  0  0  0  0
   -3.4247   -4.6479   -0.3334 C   0  0  0  0  0  0  0  0  0  0  0  0
   -2.8811   -4.7471    0.9444 C   0  0  0  0  0  0  0  0  0  0  0  0
   -1.6032   -5.2768    1.1276 C   0  0  0  0  0  0  0  0  0  0  0  0
   -0.8235   -5.6917    0.0391 C   0  0  0  0  0  0  0  0  0  0  0  0
    0.4494   -6.2771    0.1645 N   0  0  0  0  0  0  0  0  0  0  0  0
    1.1468   -6.6053    1.2671 C   0  0  0  0  0  0  0  0  0  0  0  0
    2.4533   -6.7325    1.3852 N   0  0  0  0  0  0  0  0  0  0  0  0
    2.7008   -7.1250    2.6832 N   0  0  0  0  0  0  0  0  0  0  0  0
    1.5348   -7.2620    3.2731 C   0  0  0  0  0  0  0  0  0  0  0  0
    1.1794   -7.7239    4.6177 C   0  0  0  0  0  0  0  0  0  0  0  0
   -0.1831   -7.8424    4.9649 C   0  0  0  0  0  0  0  0  0  0  0  0
   -0.5720   -8.3145    6.2152 C   0  0  0  0  0  0  0  0  0  0  0  0
    0.4172   -8.6531    7.1097 C   0  0  0  0  0  0  0  0  0  0  0  0
    1.7297   -8.5366    6.8351 N   0  0  0  0  0  0  0  0  0  0  0  0
    2.1173   -8.0933    5.6017 C   0  0  0  0  0  0  0  0  0  0  0  0
    3.6219   -7.9609    5.4434 C   0  0  0  0  0  0  0  0  0  0  0  0
    4.4126   -8.9837    6.2855 C   0  0  0  0  0  0  0  0  0  0  0  0
    5.9096   -8.8292    6.1277 C   0  0  0  0  0  0  0  0  0  0  0  0
    6.6256   -7.9949    6.9995 C   0  0  0  0  0  0  0  0  0  0  0  0
    7.9916   -7.7442    6.8217 C   0  0  0  0  0  0  0  0  0  0  0  0
    8.6203   -8.3927    5.7565 C   0  0  0  0  0  0  0  0  0  0  0  0
    9.8966   -8.3177    5.2643 N   0  0  0  0  0  0  0  0  0  0  0  0
   10.1619   -9.2038    4.2869 N   0  0  0  0  0  0  0  0  0  0  0  0
    8.9826   -9.7999    4.0872 C   0  0  0  0  0  0  0  0  0  0  0  0
    7.9657   -9.2957    4.9283 C   0  0  0  0  0  0  0  0  0  0  0  0
    6.5844   -9.5019    5.0923 C   0  0  0  0  0  0  0  0  0  0  0  0
    0.4960   -6.9419    2.4253 O   0  0  0  0  0  0  0  0  0  0  0  0
   -1.3937   -5.5845   -1.2444 C   0  0  0  0  0  0  0  0  0  0  0  0
   -4.4295   -4.2461   -0.4554 H   0  0  0  0  0  0  0  0  0  0  0  0
   -3.4572   -4.4181    1.8074 H   0  0  0  0  0  0  0  0  0  0  0  0
   -1.2231   -5.3335    2.1446 H   0  0  0  0  0  0  0  0  0  0  0  0
    1.0180   -6.1815   -0.6716 H   0  0  0  0  0  0  0  0  0  0  0  0
   -0.9641   -7.5757    4.2556 H   0  0  0  0  0  0  0  0  0  0  0  0
   -1.6182   -8.4197    6.4781 H   0  0  0  0  0  0  0  0  0  0  0  0
    0.1806   -9.0377    8.0976 H   0  0  0  0  0  0  0  0  0  0  0  0
    3.9037   -6.9388    5.7299 H   0  0  0  0  0  0  0  0  0  0  0  0
    3.9204   -8.1040    4.4032 H   0  0  0  0  0  0  0  0  0  0  0  0
    4.1232  -10.0034    5.9976 H   0  0  0  0  0  0  0  0  0  0  0  0
    4.1654   -8.8929    7.3513 H   0  0  0  0  0  0  0  0  0  0  0  0
    6.1120   -7.5158    7.8321 H   0  0  0  0  0  0  0  0  0  0  0  0
    8.5301   -7.0772    7.4864 H   0  0  0  0  0  0  0  0  0  0  0  0
   10.6297   -7.6769    5.5446 H   0  0  0  0  0  0  0  0  0  0  0  0
    8.9084  -10.5774    3.3384 H   0  0  0  0  0  0  0  0  0  0  0  0
    6.0490  -10.1642    4.4180 H   0  0  0  0  0  0  0  0  0  0  0  0
   -0.8235   -5.9145   -2.1149 H   0  0  0  0  0  0  0  0  0  0  0  0
  1  2  1  0  0  0  0
  2  3  1  0  0  0  0
  2  4  1  0  0  0  0
  2  5  1  0  0  0  0
  5  6  1  0  0  0  0
  5 33  2  0  0  0  0
  6  7  2  0  0  0  0
  6 34  1  0  0  0  0
  7  8  1  0  0  0  0
  7 35  1  0  0  0  0
  8  9  2  0  0  0  0
  8 36  1  0  0  0  0
  9 10  1  0  0  0  0
  9 33  1  0  0  0  0
 10 11  1  0  0  0  0
 10 37  1  0  0  0  0
 11 12  2  0  0  0  0
 11 32  1  0  0  0  0
 12 13  1  0  0  0  0
 13 14  2  0  0  0  0
 14 15  1  0  0  0  0
 14 32  1  0  0  0  0
 15 16  1  0  0  0  0
 15 20  2  0  0  0  0
 16 17  2  0  0  0  0
 16 38  1  0  0  0  0
 17 18  1  0  0  0  0
 17 39  1  0  0  0  0
 18 19  2  0  0  0  0
 18 40  1  0  0  0  0
 19 20  1  0  0  0  0
 20 21  1  0  0  0  0
 21 22  1  0  0  0  0
 21 41  1  0  0  0  0
 21 42  1  0  0  0  0
 22 23  1  0  0  0  0
 22 43  1  0  0  0  0
 22 44  1  0  0  0  0
 23 24  1  0  0  0  0
 23 31  2  0  0  0  0
 24 25  2  0  0  0  0
 24 45  1  0  0  0  0
 25 26  1  0  0  0  0
 25 46  1  0  0  0  0
 26 27  1  0  0  0  0
 26 30  2  0  0  0  0
 27 28  1  0  0  0  0
 27 47  1  0  0  0  0
 28 29  2  0  0  0  0
 29 30  1  0  0  0  0
 29 48  1  0  0  0  0
 30 31  1  0  0  0  0
 31 49  1  0  0  0  0
 33 50  1  0  0  0  0
M  END
$$$$
