CHEMBL4240969
 OpenBabel04072215383D

 47 50  0  0  0  0  0  0  0  0999 V2000
    1.4356   -0.5445    1.2173 C   0  0  0  0  0  0  0  0  0  0  0  0
    2.7188   -0.3272    0.4602 C   0  0  0  0  0  0  0  0  0  0  0  0
    3.2782    0.9746    0.4193 C   0  0  0  0  0  0  0  0  0  0  0  0
    4.5136    1.2817   -0.2042 C   0  0  0  0  0  0  0  0  0  0  0  0
    5.1079    2.6221   -0.1485 C   0  0  0  0  0  0  0  0  0  0  0  0
    4.9998    3.3691    1.0334 C   0  0  0  0  0  0  0  0  0  0  0  0
    5.5550    4.6421    1.1519 C   0  0  0  0  0  0  0  0  0  0  0  0
    6.2879    5.1994    0.1065 C   0  0  0  0  0  0  0  0  0  0  0  0
    6.9288    6.4528    0.2296 N   0  0  0  0  0  0  0  0  0  0  0  0
    7.2772    7.0232    1.4440 C   0  0  0  0  0  0  0  0  0  0  0  0
    7.2172    6.4537    2.5285 O   0  0  0  0  0  0  0  0  0  0  0  0
    7.6748    8.3435    1.2910 N   0  0  0  0  0  0  0  0  0  0  0  0
    8.1269    9.0998    2.3941 C   0  0  0  0  0  0  0  0  0  0  0  0
    8.9804    8.5405    3.3531 C   0  0  0  0  0  0  0  0  0  0  0  0
    9.3830    9.2869    4.4607 C   0  0  0  0  0  0  0  0  0  0  0  0
    8.9207   10.5902    4.6223 C   0  0  0  0  0  0  0  0  0  0  0  0
    8.0637   11.1644    3.6701 C   0  0  0  0  0  0  0  0  0  0  0  0
    7.4909   12.5442    3.8748 C   0  0  0  0  0  0  0  0  0  0  0  0
    7.9616   13.1762    4.9854 F   0  0  0  0  0  0  0  0  0  0  0  0
    7.7568   13.3755    2.8303 F   0  0  0  0  0  0  0  0  0  0  0  0
    6.1343   12.5285    4.0018 F   0  0  0  0  0  0  0  0  0  0  0  0
    7.6939   10.4172    2.5396 C   0  0  0  0  0  0  0  0  0  0  0  0
    6.3646    4.5018   -1.0985 C   0  0  0  0  0  0  0  0  0  0  0  0
    5.7600    3.2382   -1.2285 C   0  0  0  0  0  0  0  0  0  0  0  0
    5.0453    0.1090   -0.7691 C   0  0  0  0  0  0  0  0  0  0  0  0
    6.2414   -0.1078   -1.4143 C   0  0  0  0  0  0  0  0  0  0  0  0
    7.3254    0.6325   -1.7204 N   0  0  0  0  0  0  0  0  0  0  0  0
    6.3045   -1.4151   -1.8031 O   0  0  0  0  0  0  0  0  0  0  0  0
    5.1836   -2.1015   -1.3742 N   0  0  0  0  0  0  0  0  0  0  0  0
    4.4365   -1.1951   -0.7407 C   0  0  0  0  0  0  0  0  0  0  0  0
    3.2536   -1.4362   -0.1165 N   0  0  0  0  0  0  0  0  0  0  0  0
    1.0895    0.3720    1.7063 H   0  0  0  0  0  0  0  0  0  0  0  0
    1.5888   -1.3002    1.9946 H   0  0  0  0  0  0  0  0  0  0  0  0
    0.6534   -0.8858    0.5337 H   0  0  0  0  0  0  0  0  0  0  0  0
    2.7259    1.7768    0.9096 H   0  0  0  0  0  0  0  0  0  0  0  0
    4.4830    2.9694    1.9037 H   0  0  0  0  0  0  0  0  0  0  0  0
    5.3984    5.1724    2.0873 H   0  0  0  0  0  0  0  0  0  0  0  0
    7.4218    6.8072   -0.5770 H   0  0  0  0  0  0  0  0  0  0  0  0
    7.1759    8.8425    0.5683 H   0  0  0  0  0  0  0  0  0  0  0  0
    9.3347    7.5178    3.2574 H   0  0  0  0  0  0  0  0  0  0  0  0
   10.0377    8.8394    5.2055 H   0  0  0  0  0  0  0  0  0  0  0  0
    9.2175   11.1506    5.5066 H   0  0  0  0  0  0  0  0  0  0  0  0
    7.0196   10.8583    1.8064 H   0  0  0  0  0  0  0  0  0  0  0  0
    6.9081    4.9096   -1.9466 H   0  0  0  0  0  0  0  0  0  0  0  0
    5.8225    2.7336   -2.1919 H   0  0  0  0  0  0  0  0  0  0  0  0
    7.5626    1.4188   -1.1217 H   0  0  0  0  0  0  0  0  0  0  0  0
    8.1478    0.1301   -2.0451 H   0  0  0  0  0  0  0  0  0  0  0  0
  1  2  1  0  0  0  0
  1 32  1  0  0  0  0
  1 33  1  0  0  0  0
  1 34  1  0  0  0  0
  2  3  1  0  0  0  0
  2 31  2  0  0  0  0
  3  4  2  0  0  0  0
  3 35  1  0  0  0  0
  4  5  1  0  0  0  0
  4 25  1  0  0  0  0
  5  6  1  0  0  0  0
  5 24  2  0  0  0  0
  6  7  2  0  0  0  0
  6 36  1  0  0  0  0
  7  8  1  0  0  0  0
  7 37  1  0  0  0  0
  8  9  1  0  0  0  0
  8 23  2  0  0  0  0
  9 10  1  0  0  0  0
  9 38  1  0  0  0  0
 10 11  2  0  0  0  0
 10 12  1  0  0  0  0
 12 13  1  0  0  0  0
 12 39  1  0  0  0  0
 13 14  1  0  0  0  0
 13 22  2  0  0  0  0
 14 15  2  0  0  0  0
 14 40  1  0  0  0  0
 15 16  1  0  0  0  0
 15 41  1  0  0  0  0
 16 17  2  0  0  0  0
 16 42  1  0  0  0  0
 17 18  1  0  0  0  0
 17 22  1  0  0  0  0
 18 19  1  0  0  0  0
 18 20  1  0  0  0  0
 18 21  1  0  0  0  0
 22 43  1  0  0  0  0
 23 24  1  0  0  0  0
 23 44  1  0  0  0  0
 24 45  1  0  0  0  0
 25 26  2  0  0  0  0
 25 30  1  0  0  0  0
 26 27  1  0  0  0  0
 26 28  1  0  0  0  0
 27 46  1  0  0  0  0
 27 47  1  0  0  0  0
 28 29  1  0  0  0  0
 29 30  2  0  0  0  0
 30 31  1  0  0  0  0
M  END
$$$$
