CHEMBL600795
 OpenBabel04072215383D

 34 36  0  0  1  0  0  0  0  0999 V2000
    0.8453    0.0324   -0.1366 C   0  0  0  0  0  0  0  0  0  0  0  0
    2.3754   -0.1061   -0.1471 C   0  0  1  0  0  0  0  0  0  0  0  0
    2.7824   -1.3826   -0.6705 O   0  0  0  0  0  0  0  0  0  0  0  0
    2.4080   -2.4934    0.0363 C   0  0  0  0  0  0  0  0  0  0  0  0
    2.1031   -3.6303   -0.7131 C   0  0  0  0  0  0  0  0  0  0  0  0
    1.6907   -4.8065   -0.0765 C   0  0  0  0  0  0  0  0  0  0  0  0
    1.5910   -4.8910    1.3080 C   0  0  0  0  0  0  0  0  0  0  0  0
    1.1835   -6.0380    1.8868 N   0  0  0  0  0  0  0  0  0  0  0  0
    1.1210   -6.0788    3.2359 C   0  0  0  0  0  0  0  0  0  0  0  0
    1.4488   -5.0162    4.0590 C   0  0  0  0  0  0  0  0  0  0  0  0
    1.8622   -3.8343    3.4574 C   0  0  0  0  0  0  0  0  0  0  0  0
    1.9351   -3.7515    2.0631 C   0  0  0  0  0  0  0  0  0  0  0  0
    2.3468   -2.5687    1.4266 C   0  0  0  0  0  0  0  0  0  0  0  0
    2.9563    1.0762   -0.9304 C   0  0  0  0  0  0  0  0  0  0  0  0
    3.2541    2.2809   -0.2407 C   0  0  0  0  0  0  0  0  0  0  0  0
    3.1531    2.4205    1.4859 Cl  0  0  0  0  0  0  0  0  0  0  0  0
    3.6188    3.4509   -0.9201 C   0  0  0  0  0  0  0  0  0  0  0  0
    3.7146    3.4503   -2.3043 C   0  0  0  0  0  0  0  0  0  0  0  0
    3.4660    2.2742   -2.9990 C   0  0  0  0  0  0  0  0  0  0  0  0
    3.5726    2.3032   -4.3365 F   0  0  0  0  0  0  0  0  0  0  0  0
    3.0849    1.0959   -2.3364 C   0  0  0  0  0  0  0  0  0  0  0  0
    2.7435   -0.2732   -3.3386 Cl  0  0  0  0  0  0  0  0  0  0  0  0
    0.4004   -0.6023    0.6366 H   0  0  0  0  0  0  0  0  0  0  0  0
    0.4135   -0.2849   -1.0918 H   0  0  0  0  0  0  0  0  0  0  0  0
    0.5254    1.0600    0.0632 H   0  0  0  0  0  0  0  0  0  0  0  0
    2.7666   -0.0406    0.8694 H   0  0  0  0  0  0  0  0  0  0  0  0
    2.1698   -3.5993   -1.7982 H   0  0  0  0  0  0  0  0  0  0  0  0
    1.4375   -5.6805   -0.6752 H   0  0  0  0  0  0  0  0  0  0  0  0
    0.7864   -7.0223    3.6551 H   0  0  0  0  0  0  0  0  0  0  0  0
    1.3850   -5.1045    5.1366 H   0  0  0  0  0  0  0  0  0  0  0  0
    2.1233   -2.9847    4.0792 H   0  0  0  0  0  0  0  0  0  0  0  0
    2.6200   -1.7208    2.0423 H   0  0  0  0  0  0  0  0  0  0  0  0
    3.8113    4.3707   -0.3711 H   0  0  0  0  0  0  0  0  0  0  0  0
    3.9736    4.3547   -2.8462 H   0  0  0  0  0  0  0  0  0  0  0  0
  1  2  1  0  0  0  0
  1 23  1  0  0  0  0
  1 24  1  0  0  0  0
  1 25  1  0  0  0  0
  2  3  1  0  0  0  0
  2 14  1  0  0  0  0
  2 26  1  1  0  0  0
  3  4  1  0  0  0  0
  4  5  1  0  0  0  0
  4 13  2  0  0  0  0
  5  6  2  0  0  0  0
  5 27  1  0  0  0  0
  6  7  1  0  0  0  0
  6 28  1  0  0  0  0
  7  8  1  0  0  0  0
  7 12  2  0  0  0  0
  8  9  2  0  0  0  0
  9 10  1  0  0  0  0
  9 29  1  0  0  0  0
 10 11  2  0  0  0  0
 10 30  1  0  0  0  0
 11 12  1  0  0  0  0
 11 31  1  0  0  0  0
 12 13  1  0  0  0  0
 13 32  1  0  0  0  0
 14 15  1  0  0  0  0
 14 21  2  0  0  0  0
 15 16  1  0  0  0  0
 15 17  2  0  0  0  0
 17 18  1  0  0  0  0
 17 33  1  0  0  0  0
 18 19  2  0  0  0  0
 18 34  1  0  0  0  0
 19 20  1  0  0  0  0
 19 21  1  0  0  0  0
 21 22  1  0  0  0  0
M  END
$$$$
