CHEMBL3974963
 OpenBabel04072215373D

 66 68  0  0  0  0  0  0  0  0999 V2000
   18.6080    4.1278    3.2713 C   0  0  0  0  0  0  0  0  0  0  0  0
   17.9159    2.8946    3.4827 O   0  0  0  0  0  0  0  0  0  0  0  0
   16.5823    2.9591    3.2008 C   0  0  0  0  0  0  0  0  0  0  0  0
   16.0025    3.9609    2.8069 O   0  0  0  0  0  0  0  0  0  0  0  0
   15.9248    1.6158    3.4445 C   0  0  0  0  0  0  0  0  0  0  0  0
   14.4224    1.6657    3.1323 C   0  0  0  0  0  0  0  0  0  0  0  0
   13.7239    0.3196    3.3686 C   0  0  0  0  0  0  0  0  0  0  0  0
   12.2204    0.3898    3.0713 C   0  0  0  0  0  0  0  0  0  0  0  0
   11.3894   -1.1881    3.3240 S   0  0  3  0  0  0  0  0  0  0  0  0
    9.6976   -0.8173    2.8794 C   0  0  0  0  0  0  0  0  0  0  0  0
   11.9084   -2.0931    2.3160 O   0  0  0  0  0  0  0  0  0  0  0  0
   11.4064   -1.4980    4.8379 N   0  0  0  0  0  0  0  0  0  0  0  0
   10.9293   -2.7415    5.3091 C   0  0  0  0  0  0  0  0  0  0  0  0
   10.0425   -3.3690    4.7340 O   0  0  0  0  0  0  0  0  0  0  0  0
   11.4095   -3.3010    6.6049 C   0  0  0  0  0  0  0  0  0  0  0  0
   10.8839   -4.4915    7.0878 C   0  0  0  0  0  0  0  0  0  0  0  0
   11.2367   -5.0521    8.2754 N   0  0  0  0  0  0  0  0  0  0  0  0
   12.1366   -4.3913    9.0364 C   0  0  0  0  0  0  0  0  0  0  0  0
   12.3236   -4.9033   10.3177 N   0  0  0  0  0  0  0  0  0  0  0  0
   12.7298   -3.1876    8.6271 C   0  0  0  0  0  0  0  0  0  0  0  0
   13.6897   -2.5101    9.4550 C   0  0  0  0  0  0  0  0  0  0  0  0
   14.5075   -1.9822   10.1732 C   0  0  0  0  0  0  0  0  0  0  0  0
   15.4993   -1.3584   11.0024 C   0  0  0  0  0  0  0  0  0  0  0  0
   15.4720    0.0265   11.1905 C   0  0  0  0  0  0  0  0  0  0  0  0
   16.4590    0.6397   11.9585 C   0  0  0  0  0  0  0  0  0  0  0  0
   17.4860   -0.1221   12.5130 C   0  0  0  0  0  0  0  0  0  0  0  0
   17.5365   -1.5079   12.3512 C   0  0  0  0  0  0  0  0  0  0  0  0
   18.6008   -2.2784   12.8892 N   0  0  0  0  0  0  0  0  0  0  0  0
   19.5039   -1.8542   13.8747 C   0  0  0  0  0  0  0  0  0  0  0  0
   19.4516   -0.7678   14.4432 O   0  0  0  0  0  0  0  0  0  0  0  0
   20.5060   -2.8407   14.2459 C   0  0  0  0  0  0  0  0  0  0  0  0
   20.5332   -4.0278   13.5699 O   0  0  0  0  0  0  0  0  0  0  0  0
   21.4851   -4.8010   14.1489 C   0  0  0  0  0  0  0  0  0  0  0  0
   22.1030   -4.1181   15.1720 C   0  0  0  0  0  0  0  0  0  0  0  0
   21.4798   -2.8478   15.2472 C   0  0  0  0  0  0  0  0  0  0  0  0
   21.7780   -1.7876   16.2509 C   0  0  0  0  0  0  0  0  0  0  0  0
   16.5210   -2.1245   11.5994 C   0  0  0  0  0  0  0  0  0  0  0  0
   12.3758   -2.6548    7.3826 C   0  0  0  0  0  0  0  0  0  0  0  0
   19.6655    3.9761    3.5056 H   0  0  0  0  0  0  0  0  0  0  0  0
   18.2166    4.9072    3.9342 H   0  0  0  0  0  0  0  0  0  0  0  0
   18.5291    4.4386    2.2240 H   0  0  0  0  0  0  0  0  0  0  0  0
   16.0805    1.3436    4.4940 H   0  0  0  0  0  0  0  0  0  0  0  0
   16.4159    0.8746    2.8046 H   0  0  0  0  0  0  0  0  0  0  0  0
   14.2817    1.9739    2.0896 H   0  0  0  0  0  0  0  0  0  0  0  0
   13.9507    2.4378    3.7538 H   0  0  0  0  0  0  0  0  0  0  0  0
   13.8759    0.0107    4.4085 H   0  0  0  0  0  0  0  0  0  0  0  0
   14.1936   -0.4448    2.7379 H   0  0  0  0  0  0  0  0  0  0  0  0
   12.0522    0.6731    2.0256 H   0  0  0  0  0  0  0  0  0  0  0  0
   11.7289    1.1262    3.7141 H   0  0  0  0  0  0  0  0  0  0  0  0
    9.6580   -0.5215    1.8292 H   0  0  0  0  0  0  0  0  0  0  0  0
    9.3256   -0.0132    3.5177 H   0  0  0  0  0  0  0  0  0  0  0  0
    9.0903   -1.7144    3.0202 H   0  0  0  0  0  0  0  0  0  0  0  0
   10.1291   -5.0482    6.5349 H   0  0  0  0  0  0  0  0  0  0  0  0
   11.9271   -5.8355   10.3747 H   0  0  0  0  0  0  0  0  0  0  0  0
   13.2662   -4.8198   10.6736 H   0  0  0  0  0  0  0  0  0  0  0  0
   14.6966    0.6399   10.7427 H   0  0  0  0  0  0  0  0  0  0  0  0
   16.4555    1.7150   12.1137 H   0  0  0  0  0  0  0  0  0  0  0  0
   18.2614    0.4143   13.0481 H   0  0  0  0  0  0  0  0  0  0  0  0
   18.6972   -3.2435   12.5904 H   0  0  0  0  0  0  0  0  0  0  0  0
   21.5979   -5.7857   13.7342 H   0  0  0  0  0  0  0  0  0  0  0  0
   22.8885   -4.5134   15.8051 H   0  0  0  0  0  0  0  0  0  0  0  0
   22.5591   -2.1148   16.9486 H   0  0  0  0  0  0  0  0  0  0  0  0
   20.8857   -1.5621   16.8440 H   0  0  0  0  0  0  0  0  0  0  0  0
   22.1265   -0.8656   15.7739 H   0  0  0  0  0  0  0  0  0  0  0  0
   16.4893   -3.2061   11.4840 H   0  0  0  0  0  0  0  0  0  0  0  0
   12.8276   -1.7308    7.0314 H   0  0  0  0  0  0  0  0  0  0  0  0
  1  2  1  0  0  0  0
  1 39  1  0  0  0  0
  1 40  1  0  0  0  0
  1 41  1  0  0  0  0
  2  3  1  0  0  0  0
  3  4  2  0  0  0  0
  3  5  1  0  0  0  0
  5  6  1  0  0  0  0
  5 42  1  0  0  0  0
  5 43  1  0  0  0  0
  6  7  1  0  0  0  0
  6 44  1  0  0  0  0
  6 45  1  0  0  0  0
  7  8  1  0  0  0  0
  7 46  1  0  0  0  0
  7 47  1  0  0  0  0
  8  9  1  0  0  0  0
  8 48  1  0  0  0  0
  8 49  1  0  0  0  0
  9 10  1  0  0  0  0
  9 11  2  0  0  0  0
  9 12  2  0  0  0  0
 10 50  1  0  0  0  0
 10 51  1  0  0  0  0
 10 52  1  0  0  0  0
 12 13  1  0  0  0  0
 13 14  2  0  0  0  0
 13 15  1  0  0  0  0
 15 16  1  0  0  0  0
 15 38  2  0  0  0  0
 16 17  2  0  0  0  0
 16 53  1  0  0  0  0
 17 18  1  0  0  0  0
 18 19  1  0  0  0  0
 18 20  2  0  0  0  0
 19 54  1  0  0  0  0
 19 55  1  0  0  0  0
 20 21  1  0  0  0  0
 20 38  1  0  0  0  0
 21 22  3  0  0  0  0
 22 23  1  0  0  0  0
 23 24  1  0  0  0  0
 23 37  2  0  0  0  0
 24 25  2  0  0  0  0
 24 56  1  0  0  0  0
 25 26  1  0  0  0  0
 25 57  1  0  0  0  0
 26 27  2  0  0  0  0
 26 58  1  0  0  0  0
 27 28  1  0  0  0  0
 27 37  1  0  0  0  0
 28 29  1  0  0  0  0
 28 59  1  0  0  0  0
 29 30  2  0  0  0  0
 29 31  1  0  0  0  0
 31 32  1  0  0  0  0
 31 35  2  0  0  0  0
 32 33  1  0  0  0  0
 33 34  2  0  0  0  0
 33 60  1  0  0  0  0
 34 35  1  0  0  0  0
 34 61  1  0  0  0  0
 35 36  1  0  0  0  0
 36 62  1  0  0  0  0
 36 63  1  0  0  0  0
 36 64  1  0  0  0  0
 37 65  1  0  0  0  0
 38 66  1  0  0  0  0
M  END
$$$$
