CHEMBL4787977
 OpenBabel04072215383D

 50 53  0  0  0  0  0  0  0  0999 V2000
    5.2461   -0.0604   -7.0003 C   0  0  0  0  0  0  0  0  0  0  0  0
    5.8309    1.2432   -7.0950 O   0  0  0  0  0  0  0  0  0  0  0  0
    5.8591    1.9596   -5.9274 C   0  0  0  0  0  0  0  0  0  0  0  0
    6.0217    1.3158   -4.6875 C   0  0  0  0  0  0  0  0  0  0  0  0
    5.8992    1.9837   -3.4788 C   0  0  0  0  0  0  0  0  0  0  0  0
    5.9516    1.2732   -2.3493 N   0  0  0  0  0  0  0  0  0  0  0  0
    5.7269    1.9404   -1.2137 C   0  0  0  0  0  0  0  0  0  0  0  0
    5.4538    3.2411   -1.1086 N   0  0  0  0  0  0  0  0  0  0  0  0
    5.4251    3.9527   -2.2513 C   0  0  0  0  0  0  0  0  0  0  0  0
    5.0688    5.3261   -2.1947 N   0  0  0  0  0  0  0  0  0  0  0  0
    4.4032    5.9489   -1.1207 C   0  0  0  0  0  0  0  0  0  0  0  0
    4.7178    7.2586   -0.7660 C   0  0  0  0  0  0  0  0  0  0  0  0
    4.1276    7.8537    0.3547 C   0  0  0  0  0  0  0  0  0  0  0  0
    3.1951    7.1624    1.1322 C   0  0  0  0  0  0  0  0  0  0  0  0
    2.6570    7.6596    2.3454 N   0  0  0  0  0  0  0  0  0  0  0  0
    3.0071    8.8523    2.9527 C   0  0  0  0  0  0  0  0  0  0  0  0
    3.7582    9.7043    2.4803 O   0  0  0  0  0  0  0  0  0  0  0  0
    2.4307    9.1478    4.2954 C   0  0  0  0  0  0  0  0  0  0  0  0
    2.0104    8.1674    5.2019 C   0  0  0  0  0  0  0  0  0  0  0  0
    1.5739    8.5440    6.4792 C   0  0  0  0  0  0  0  0  0  0  0  0
    1.5643    9.8886    6.8600 C   0  0  0  0  0  0  0  0  0  0  0  0
    1.9847   10.8617    5.9583 C   0  0  0  0  0  0  0  0  0  0  0  0
    2.0211   12.8617    6.5160 I   0  0  0  0  0  0  0  0  0  0  0  0
    2.4103   10.4972    4.6844 C   0  0  0  0  0  0  0  0  0  0  0  0
    2.7955    5.8921    0.7125 C   0  0  0  0  0  0  0  0  0  0  0  0
    3.3883    5.2998   -0.4085 C   0  0  0  0  0  0  0  0  0  0  0  0
    5.6740    3.3607   -3.4992 C   0  0  0  0  0  0  0  0  0  0  0  0
    5.6525    4.0378   -4.7381 C   0  0  0  0  0  0  0  0  0  0  0  0
    5.7301    3.3511   -5.9544 C   0  0  0  0  0  0  0  0  0  0  0  0
    5.6219    4.2048   -7.0139 O   0  0  0  0  0  0  0  0  0  0  0  0
    5.5031    3.6939   -8.3294 C   0  0  0  0  0  0  0  0  0  0  0  0
    4.6664   -0.2416   -7.9100 H   0  0  0  0  0  0  0  0  0  0  0  0
    4.5534   -0.1769   -6.1572 H   0  0  0  0  0  0  0  0  0  0  0  0
    6.0405   -0.8108   -6.9401 H   0  0  0  0  0  0  0  0  0  0  0  0
    6.2078    0.2452   -4.6410 H   0  0  0  0  0  0  0  0  0  0  0  0
    5.7484    1.3707   -0.2920 H   0  0  0  0  0  0  0  0  0  0  0  0
    5.8160    5.8915   -2.5829 H   0  0  0  0  0  0  0  0  0  0  0  0
    5.4542    7.8269   -1.3276 H   0  0  0  0  0  0  0  0  0  0  0  0
    4.4498    8.8605    0.5961 H   0  0  0  0  0  0  0  0  0  0  0  0
    1.9864    7.0612    2.8071 H   0  0  0  0  0  0  0  0  0  0  0  0
    2.0567    7.1098    4.9628 H   0  0  0  0  0  0  0  0  0  0  0  0
    1.2656    7.7849    7.1954 H   0  0  0  0  0  0  0  0  0  0  0  0
    1.2455   10.1600    7.8637 H   0  0  0  0  0  0  0  0  0  0  0  0
    2.7550   11.2587    3.9860 H   0  0  0  0  0  0  0  0  0  0  0  0
    2.0439    5.3266    1.2539 H   0  0  0  0  0  0  0  0  0  0  0  0
    3.0690    4.3050   -0.7083 H   0  0  0  0  0  0  0  0  0  0  0  0
    5.5162    5.1171   -4.7688 H   0  0  0  0  0  0  0  0  0  0  0  0
    5.2005    4.5316   -8.9677 H   0  0  0  0  0  0  0  0  0  0  0  0
    4.7189    2.9374   -8.4126 H   0  0  0  0  0  0  0  0  0  0  0  0
    6.4687    3.3327   -8.6943 H   0  0  0  0  0  0  0  0  0  0  0  0
  1  2  1  0  0  0  0
  1 32  1  0  0  0  0
  1 33  1  0  0  0  0
  1 34  1  0  0  0  0
  2  3  1  0  0  0  0
  3  4  1  0  0  0  0
  3 29  2  0  0  0  0
  4  5  2  0  0  0  0
  4 35  1  0  0  0  0
  5  6  1  0  0  0  0
  5 27  1  0  0  0  0
  6  7  2  0  0  0  0
  7  8  1  0  0  0  0
  7 36  1  0  0  0  0
  8  9  2  0  0  0  0
  9 10  1  0  0  0  0
  9 27  1  0  0  0  0
 10 11  1  0  0  0  0
 10 37  1  0  0  0  0
 11 12  1  0  0  0  0
 11 26  2  0  0  0  0
 12 13  2  0  0  0  0
 12 38  1  0  0  0  0
 13 14  1  0  0  0  0
 13 39  1  0  0  0  0
 14 15  1  0  0  0  0
 14 25  2  0  0  0  0
 15 16  1  0  0  0  0
 15 40  1  0  0  0  0
 16 17  2  0  0  0  0
 16 18  1  0  0  0  0
 18 19  1  0  0  0  0
 18 24  2  0  0  0  0
 19 20  2  0  0  0  0
 19 41  1  0  0  0  0
 20 21  1  0  0  0  0
 20 42  1  0  0  0  0
 21 22  2  0  0  0  0
 21 43  1  0  0  0  0
 22 23  1  0  0  0  0
 22 24  1  0  0  0  0
 24 44  1  0  0  0  0
 25 26  1  0  0  0  0
 25 45  1  0  0  0  0
 26 46  1  0  0  0  0
 27 28  2  0  0  0  0
 28 29  1  0  0  0  0
 28 47  1  0  0  0  0
 29 30  1  0  0  0  0
 30 31  1  0  0  0  0
 31 48  1  0  0  0  0
 31 49  1  0  0  0  0
 31 50  1  0  0  0  0
M  END
$$$$
