CHEMBL3918956
 OpenBabel04072215373D

 65 69  0  0  0  0  0  0  0  0999 V2000
    0.4227    3.4468   -3.6471 C   0  0  0  0  0  0  0  0  0  0  0  0
    1.8370    3.6600   -3.6589 O   0  0  0  0  0  0  0  0  0  0  0  0
    2.5798    2.7704   -2.9193 C   0  0  0  0  0  0  0  0  0  0  0  0
    2.0501    2.0400   -1.8523 C   0  0  0  0  0  0  0  0  0  0  0  0
    2.8518    1.1278   -1.1928 C   0  0  0  0  0  0  0  0  0  0  0  0
    2.4423    0.3521   -0.1404 O   0  0  0  0  0  0  0  0  0  0  0  0
    1.5829    1.0205    0.7808 C   0  0  0  0  0  0  0  0  0  0  0  0
    4.1609    0.9232   -1.6313 C   0  0  0  0  0  0  0  0  0  0  0  0
    4.7684    1.6823   -2.6632 C   0  0  0  0  0  0  0  0  0  0  0  0
    6.1109    1.4348   -3.0634 N   0  0  0  0  0  0  0  0  0  0  0  0
    6.6235    0.0467   -2.7868 C   0  0  0  0  0  0  0  0  0  0  0  0
    7.1695   -0.1296   -1.3711 C   0  0  0  0  0  0  0  0  0  0  0  0
    7.0992   -1.3652   -0.8360 N   0  0  0  0  0  0  0  0  0  0  0  0
    7.3662   -1.4399    0.4825 C   0  0  0  0  0  0  0  0  0  0  0  0
    7.3008   -2.6547    1.1396 O   0  0  0  0  0  0  0  0  0  0  0  0
    7.3007   -3.7725    0.2573 C   0  0  0  0  0  0  0  0  0  0  0  0
    7.6678   -0.3570    1.2678 C   0  0  0  0  0  0  0  0  0  0  0  0
    7.7960    0.8262    0.5982 C   0  0  0  0  0  0  0  0  0  0  0  0
    8.1587    1.9302    1.3396 O   0  0  0  0  0  0  0  0  0  0  0  0
    8.8093    2.9161    0.5408 C   0  0  0  0  0  0  0  0  0  0  0  0
    7.5641    0.9658   -0.7124 N   0  0  0  0  0  0  0  0  0  0  0  0
    7.1132    2.2182   -3.7304 C   0  0  0  0  0  0  0  0  0  0  0  0
    7.6181    1.6841   -4.9119 C   0  0  0  0  0  0  0  0  0  0  0  0
    8.9361    1.9196   -5.2559 C   0  0  0  0  0  0  0  0  0  0  0  0
    9.7374    2.7709   -4.5332 C   0  0  0  0  0  0  0  0  0  0  0  0
   11.0327    2.7032   -4.8792 N   0  0  0  0  0  0  0  0  0  0  0  0
   11.8580    3.5928   -4.3123 C   0  0  0  0  0  0  0  0  0  0  0  0
   11.4082    4.5944   -3.4793 C   0  0  0  0  0  0  0  0  0  0  0  0
   12.3787    5.6688   -3.2290 C   0  0  0  0  0  0  0  0  0  0  0  0
   12.5818    6.8850   -3.9437 C   0  0  0  0  0  0  0  0  0  0  0  0
   13.7570    7.4702   -3.6721 N   0  0  0  0  0  0  0  0  0  0  0  0
   14.3354    6.6246   -2.8037 N   0  0  0  0  0  0  0  0  0  0  0  0
   15.5639    6.9858   -2.1323 C   0  0  0  0  0  0  0  0  0  0  0  0
   13.6137    5.4744   -2.6224 C   0  0  0  0  0  0  0  0  0  0  0  0
   10.1008    4.6036   -3.0330 N   0  0  0  0  0  0  0  0  0  0  0  0
    9.2281    3.6109   -3.5245 C   0  0  0  0  0  0  0  0  0  0  0  0
    7.8782    3.2659   -3.1168 C   0  0  0  0  0  0  0  0  0  0  0  0
    3.9404    2.6265   -3.2871 C   0  0  0  0  0  0  0  0  0  0  0  0
   -0.0280    4.1134   -4.3880 H   0  0  0  0  0  0  0  0  0  0  0  0
   -0.0158    3.7006   -2.6750 H   0  0  0  0  0  0  0  0  0  0  0  0
    0.1714    2.4170   -3.9292 H   0  0  0  0  0  0  0  0  0  0  0  0
    1.0216    2.1629   -1.5400 H   0  0  0  0  0  0  0  0  0  0  0  0
    1.5581    0.4359    1.7059 H   0  0  0  0  0  0  0  0  0  0  0  0
    0.5617    1.0699    0.3909 H   0  0  0  0  0  0  0  0  0  0  0  0
    1.9555    2.0212    1.0284 H   0  0  0  0  0  0  0  0  0  0  0  0
    4.6999    0.1495   -1.0965 H   0  0  0  0  0  0  0  0  0  0  0  0
    7.4213   -0.2724   -3.4687 H   0  0  0  0  0  0  0  0  0  0  0  0
    5.8242   -0.6871   -2.9651 H   0  0  0  0  0  0  0  0  0  0  0  0
    7.2953   -4.6763    0.8745 H   0  0  0  0  0  0  0  0  0  0  0  0
    8.2106   -3.7951   -0.3548 H   0  0  0  0  0  0  0  0  0  0  0  0
    6.4005   -3.7886   -0.3692 H   0  0  0  0  0  0  0  0  0  0  0  0
    7.8266   -0.4343    2.3320 H   0  0  0  0  0  0  0  0  0  0  0  0
    9.3005    3.6196    1.2183 H   0  0  0  0  0  0  0  0  0  0  0  0
    8.0843    3.4762   -0.0560 H   0  0  0  0  0  0  0  0  0  0  0  0
    9.5856    2.4729   -0.0947 H   0  0  0  0  0  0  0  0  0  0  0  0
    7.0636    0.9324   -5.4668 H   0  0  0  0  0  0  0  0  0  0  0  0
    9.3735    1.3599   -6.0779 H   0  0  0  0  0  0  0  0  0  0  0  0
   12.9011    3.4988   -4.5943 H   0  0  0  0  0  0  0  0  0  0  0  0
   11.9507    7.3469   -4.6937 H   0  0  0  0  0  0  0  0  0  0  0  0
   15.9379    7.9407   -2.5132 H   0  0  0  0  0  0  0  0  0  0  0  0
   16.3110    6.2034   -2.2897 H   0  0  0  0  0  0  0  0  0  0  0  0
   15.3351    7.0815   -1.0675 H   0  0  0  0  0  0  0  0  0  0  0  0
   14.0392    4.6334   -2.0946 H   0  0  0  0  0  0  0  0  0  0  0  0
    7.4635    3.7532   -2.2337 H   0  0  0  0  0  0  0  0  0  0  0  0
    4.3182    3.2169   -4.1171 H   0  0  0  0  0  0  0  0  0  0  0  0
  1  2  1  0  0  0  0
  1 39  1  0  0  0  0
  1 40  1  0  0  0  0
  1 41  1  0  0  0  0
  2  3  1  0  0  0  0
  3  4  1  0  0  0  0
  3 38  2  0  0  0  0
  4  5  2  0  0  0  0
  4 42  1  0  0  0  0
  5  6  1  0  0  0  0
  5  8  1  0  0  0  0
  6  7  1  0  0  0  0
  7 43  1  0  0  0  0
  7 44  1  0  0  0  0
  7 45  1  0  0  0  0
  8  9  2  0  0  0  0
  8 46  1  0  0  0  0
  9 10  1  0  0  0  0
  9 38  1  0  0  0  0
 10 11  1  0  0  0  0
 10 22  1  0  0  0  0
 11 12  1  0  0  0  0
 11 47  1  0  0  0  0
 11 48  1  0  0  0  0
 12 13  1  0  0  0  0
 12 21  2  0  0  0  0
 13 14  2  0  0  0  0
 14 15  1  0  0  0  0
 14 17  1  0  0  0  0
 15 16  1  0  0  0  0
 16 49  1  0  0  0  0
 16 50  1  0  0  0  0
 16 51  1  0  0  0  0
 17 18  2  0  0  0  0
 17 52  1  0  0  0  0
 18 19  1  0  0  0  0
 18 21  1  0  0  0  0
 19 20  1  0  0  0  0
 20 53  1  0  0  0  0
 20 54  1  0  0  0  0
 20 55  1  0  0  0  0
 22 23  1  0  0  0  0
 22 37  2  0  0  0  0
 23 24  2  0  0  0  0
 23 56  1  0  0  0  0
 24 25  1  0  0  0  0
 24 57  1  0  0  0  0
 25 26  1  0  0  0  0
 25 36  2  0  0  0  0
 26 27  2  0  0  0  0
 27 28  1  0  0  0  0
 27 58  1  0  0  0  0
 28 29  1  0  0  0  0
 28 35  2  0  0  0  0
 29 30  1  0  0  0  0
 29 34  2  0  0  0  0
 30 31  2  0  0  0  0
 30 59  1  0  0  0  0
 31 32  1  0  0  0  0
 32 33  1  0  0  0  0
 32 34  1  0  0  0  0
 33 60  1  0  0  0  0
 33 61  1  0  0  0  0
 33 62  1  0  0  0  0
 34 63  1  0  0  0  0
 35 36  1  0  0  0  0
 36 37  1  0  0  0  0
 37 64  1  0  0  0  0
 38 65  1  0  0  0  0
M  END
$$$$
