CHEMBL3897523
 OpenBabel04072215373D

 60 64  0  0  0  0  0  0  0  0999 V2000
    0.6567    4.5272    0.0768 C   0  0  0  0  0  0  0  0  0  0  0  0
    1.9819    4.6248   -0.4467 O   0  0  0  0  0  0  0  0  0  0  0  0
    2.7872    3.5460   -0.2287 C   0  0  0  0  0  0  0  0  0  0  0  0
    2.4348    2.4259    0.4471 C   0  0  0  0  0  0  0  0  0  0  0  0
    3.3040    1.3442    0.5160 C   0  0  0  0  0  0  0  0  0  0  0  0
    2.9823    0.1783    1.1487 O   0  0  0  0  0  0  0  0  0  0  0  0
    1.6785    0.1727    1.7225 C   0  0  0  0  0  0  0  0  0  0  0  0
    4.5555    1.3778   -0.1182 C   0  0  0  0  0  0  0  0  0  0  0  0
    4.9539    2.4665   -0.8614 C   0  0  0  0  0  0  0  0  0  0  0  0
    6.1987    2.5224   -1.5540 N   0  0  0  0  0  0  0  0  0  0  0  0
    6.7223    1.1534   -2.1271 C   0  0  0  0  0  0  0  0  0  0  0  0
    7.6814    0.3126   -1.2672 C   0  0  0  0  0  0  0  0  0  0  0  0
    8.4095   -0.2302   -0.4570 C   0  0  0  0  0  0  0  0  0  0  0  0
    9.2519   -0.7334    0.6471 C   0  0  0  0  0  0  0  0  0  0  0  0
   10.3553   -1.5082    0.3274 C   0  0  0  0  0  0  0  0  0  0  0  0
   10.9997   -2.2250    1.3274 C   0  0  0  0  0  0  0  0  0  0  0  0
   10.8042   -2.0297    2.6451 N   0  0  0  0  0  0  0  0  0  0  0  0
    9.8833   -1.1009    2.9644 C   0  0  0  0  0  0  0  0  0  0  0  0
    9.0284   -0.5084    2.0209 C   0  0  0  0  0  0  0  0  0  0  0  0
    7.2105    3.5366   -1.3811 C   0  0  0  0  0  0  0  0  0  0  0  0
    7.9497    3.8503   -2.4729 C   0  0  0  0  0  0  0  0  0  0  0  0
    8.9939    4.6802   -2.2675 C   0  0  0  0  0  0  0  0  0  0  0  0
    9.4473    5.1871   -1.0908 C   0  0  0  0  0  0  0  0  0  0  0  0
   10.7122    5.1274   -1.2094 N   0  0  0  0  0  0  0  0  0  0  0  0
   11.1360    6.1982   -1.7826 C   0  0  0  0  0  0  0  0  0  0  0  0
   11.2855    7.1599   -0.9423 C   0  0  0  0  0  0  0  0  0  0  0  0
   12.7974    7.9195   -1.6353 C   0  0  0  0  0  0  0  0  0  0  0  0
   13.6026    7.9638   -3.0587 C   0  0  0  0  0  0  0  0  0  0  0  0
   14.5839    8.9169   -3.1812 N   0  0  0  0  0  0  0  0  0  0  0  0
   14.5291    9.6275   -2.0434 N   0  0  0  0  0  0  0  0  0  0  0  0
   15.4219   10.8251   -1.8335 C   0  0  0  0  0  0  0  0  0  0  0  0
   13.4766    9.0684   -1.2065 C   0  0  0  0  0  0  0  0  0  0  0  0
   10.2394    6.7277    0.2680 N   0  0  0  0  0  0  0  0  0  0  0  0
    8.9515    5.5174    0.1075 C   0  0  0  0  0  0  0  0  0  0  0  0
    7.6664    4.2856   -0.0997 C   0  0  0  0  0  0  0  0  0  0  0  0
    4.0768    3.5654   -0.7511 C   0  0  0  0  0  0  0  0  0  0  0  0
    0.0938    5.4065   -0.2359 H   0  0  0  0  0  0  0  0  0  0  0  0
    0.6947    4.5122    1.1699 H   0  0  0  0  0  0  0  0  0  0  0  0
    0.1211    3.6459   -0.3021 H   0  0  0  0  0  0  0  0  0  0  0  0
    1.4804    2.4290    0.9359 H   0  0  0  0  0  0  0  0  0  0  0  0
    1.5187   -0.8032    2.1736 H   0  0  0  0  0  0  0  0  0  0  0  0
    0.8988    0.3281    0.9632 H   0  0  0  0  0  0  0  0  0  0  0  0
    1.6035    0.9320    2.5108 H   0  0  0  0  0  0  0  0  0  0  0  0
    5.2428    0.5576    0.0241 H   0  0  0  0  0  0  0  0  0  0  0  0
    7.1968    1.2892   -3.1165 H   0  0  0  0  0  0  0  0  0  0  0  0
    5.8154    0.5627   -2.2962 H   0  0  0  0  0  0  0  0  0  0  0  0
   10.6841   -1.5774   -0.6975 H   0  0  0  0  0  0  0  0  0  0  0  0
   11.7053   -3.0067    1.0654 H   0  0  0  0  0  0  0  0  0  0  0  0
    9.8677   -0.8282    4.0207 H   0  0  0  0  0  0  0  0  0  0  0  0
    8.2481    0.1436    2.3938 H   0  0  0  0  0  0  0  0  0  0  0  0
    7.9577    3.3725   -3.4445 H   0  0  0  0  0  0  0  0  0  0  0  0
    9.6656    4.8779   -3.0756 H   0  0  0  0  0  0  0  0  0  0  0  0
   11.5481    6.0635   -2.7369 H   0  0  0  0  0  0  0  0  0  0  0  0
   13.5356    7.4403   -4.0208 H   0  0  0  0  0  0  0  0  0  0  0  0
   16.2196   10.9478   -2.6008 H   0  0  0  0  0  0  0  0  0  0  0  0
   15.9456   10.7604   -0.8682 H   0  0  0  0  0  0  0  0  0  0  0  0
   14.8487   11.7659   -1.8487 H   0  0  0  0  0  0  0  0  0  0  0  0
   13.3112    9.6777   -0.3552 H   0  0  0  0  0  0  0  0  0  0  0  0
    7.0217    3.8547    0.7304 H   0  0  0  0  0  0  0  0  0  0  0  0
    4.4400    4.5531   -0.9109 H   0  0  0  0  0  0  0  0  0  0  0  0
  1  2  1  0  0  0  0
  1 37  1  0  0  0  0
  1 38  1  0  0  0  0
  1 39  1  0  0  0  0
  2  3  1  0  0  0  0
  3  4  1  0  0  0  0
  3 36  2  0  0  0  0
  4  5  2  0  0  0  0
  4 40  1  0  0  0  0
  5  6  1  0  0  0  0
  5  8  1  0  0  0  0
  6  7  1  0  0  0  0
  7 41  1  0  0  0  0
  7 42  1  0  0  0  0
  7 43  1  0  0  0  0
  8  9  2  0  0  0  0
  8 44  1  0  0  0  0
  9 10  1  0  0  0  0
  9 36  1  0  0  0  0
 10 11  1  0  0  0  0
 10 20  1  0  0  0  0
 11 12  1  0  0  0  0
 11 45  1  0  0  0  0
 11 46  1  0  0  0  0
 12 13  3  0  0  0  0
 13 14  1  0  0  0  0
 14 15  1  0  0  0  0
 14 19  2  0  0  0  0
 15 16  2  0  0  0  0
 15 47  1  0  0  0  0
 16 17  1  0  0  0  0
 16 48  1  0  0  0  0
 17 18  2  0  0  0  0
 18 19  1  0  0  0  0
 18 49  1  0  0  0  0
 19 50  1  0  0  0  0
 20 21  1  0  0  0  0
 20 35  2  0  0  0  0
 21 22  2  0  0  0  0
 21 51  1  0  0  0  0
 22 23  1  0  0  0  0
 22 52  1  0  0  0  0
 23 24  1  0  0  0  0
 23 34  2  0  0  0  0
 24 25  2  0  0  0  0
 25 26  1  0  0  0  0
 25 53  1  0  0  0  0
 26 27  1  0  0  0  0
 26 33  2  0  0  0  0
 27 28  1  0  0  0  0
 27 32  2  0  0  0  0
 28 29  2  0  0  0  0
 28 54  1  0  0  0  0
 29 30  1  0  0  0  0
 30 31  1  0  0  0  0
 30 32  1  0  0  0  0
 31 55  1  0  0  0  0
 31 56  1  0  0  0  0
 31 57  1  0  0  0  0
 32 58  1  0  0  0  0
 33 34  1  0  0  0  0
 34 35  1  0  0  0  0
 35 59  1  0  0  0  0
 36 60  1  0  0  0  0
M  END
$$$$
