CHEMBL3676366
 OpenBabel04072215373D

 54 56  0  0  0  0  0  0  0  0999 V2000
    3.3938    0.5393   -4.1129 C   0  0  0  0  0  0  0  0  0  0  0  0
    3.4433    1.2685   -2.9918 C   0  0  0  0  0  0  0  0  0  0  0  0
    3.6601    0.5822   -1.6891 C   0  0  0  0  0  0  0  0  0  0  0  0
    3.2201   -0.5400   -1.4639 O   0  0  0  0  0  0  0  0  0  0  0  0
    4.4305    1.2375   -0.7553 N   0  0  0  0  0  0  0  0  0  0  0  0
    5.2210    2.3587   -1.0638 C   0  0  0  0  0  0  0  0  0  0  0  0
    6.3023    2.1808   -1.9279 C   0  0  0  0  0  0  0  0  0  0  0  0
    6.9220    3.2949   -2.5405 C   0  0  0  0  0  0  0  0  0  0  0  0
    7.9671    3.2123   -3.4743 C   0  0  0  0  0  0  0  0  0  0  0  0
    8.4104    1.9426   -3.9144 N   0  0  0  0  0  0  0  0  0  0  0  0
    9.7111    1.5554   -4.2962 C   0  0  0  0  0  0  0  0  0  0  0  0
   10.8452    2.1810   -3.7692 C   0  0  0  0  0  0  0  0  0  0  0  0
   12.1162    1.6326   -3.9556 C   0  0  0  0  0  0  0  0  0  0  0  0
   12.2745    0.4523   -4.6873 C   0  0  0  0  0  0  0  0  0  0  0  0
   14.0181   -0.2977   -4.7549 Br  0  0  0  0  0  0  0  0  0  0  0  0
   11.1652   -0.1503   -5.2872 C   0  0  0  0  0  0  0  0  0  0  0  0
   11.2962   -1.5837   -6.2449 Cl  0  0  0  0  0  0  0  0  0  0  0  0
    9.8976    0.4034   -5.0802 C   0  0  0  0  0  0  0  0  0  0  0  0
    8.8111   -0.1844   -5.6138 F   0  0  0  0  0  0  0  0  0  0  0  0
    8.5380    4.3066   -4.0112 N   0  0  0  0  0  0  0  0  0  0  0  0
    8.0281    5.4811   -3.6393 C   0  0  0  0  0  0  0  0  0  0  0  0
    7.0210    5.6752   -2.7777 N   0  0  0  0  0  0  0  0  0  0  0  0
    6.4810    4.5844   -2.2239 C   0  0  0  0  0  0  0  0  0  0  0  0
    5.4431    4.7376   -1.3034 C   0  0  0  0  0  0  0  0  0  0  0  0
    4.8228    3.6446   -0.6881 C   0  0  0  0  0  0  0  0  0  0  0  0
    3.8263    3.9663    0.2040 O   0  0  0  0  0  0  0  0  0  0  0  0
    3.6524    3.0460    1.2925 C   0  0  0  0  0  0  0  0  0  0  0  0
    3.2026    3.7735    2.5658 C   0  0  0  0  0  0  0  0  0  0  0  0
    3.1449    2.8731    3.7130 N   0  0  0  0  0  0  0  0  0  0  0  0
    4.2984    2.4984    4.3823 C   0  0  0  0  0  0  0  0  0  0  0  0
    5.3916    3.0065    4.1736 O   0  0  0  0  0  0  0  0  0  0  0  0
    4.0878    1.3878    5.4146 C   0  0  0  0  0  0  0  0  0  0  0  0
    3.6567    0.1936    4.7677 O   0  0  0  0  0  0  0  0  0  0  0  0
    3.5944   -0.9003    5.6755 C   0  0  0  0  0  0  0  0  0  0  0  0
    3.3062    1.0146   -5.0835 H   0  0  0  0  0  0  0  0  0  0  0  0
    3.4552   -0.5454   -4.0829 H   0  0  0  0  0  0  0  0  0  0  0  0
    3.3992    2.3507   -3.0207 H   0  0  0  0  0  0  0  0  0  0  0  0
    4.8123    0.5718   -0.0908 H   0  0  0  0  0  0  0  0  0  0  0  0
    6.6352    1.1733   -2.1691 H   0  0  0  0  0  0  0  0  0  0  0  0
    7.6802    1.4554   -4.4309 H   0  0  0  0  0  0  0  0  0  0  0  0
   10.7446    3.0777   -3.1626 H   0  0  0  0  0  0  0  0  0  0  0  0
   12.9702    2.1196   -3.4904 H   0  0  0  0  0  0  0  0  0  0  0  0
    8.4663    6.3688   -4.0880 H   0  0  0  0  0  0  0  0  0  0  0  0
    5.1039    5.7423   -1.0665 H   0  0  0  0  0  0  0  0  0  0  0  0
    4.5826    2.5120    1.5177 H   0  0  0  0  0  0  0  0  0  0  0  0
    2.8767    2.3215    1.0163 H   0  0  0  0  0  0  0  0  0  0  0  0
    2.2066    4.2084    2.4300 H   0  0  0  0  0  0  0  0  0  0  0  0
    3.8893    4.5981    2.7889 H   0  0  0  0  0  0  0  0  0  0  0  0
    2.3324    2.2759    3.8216 H   0  0  0  0  0  0  0  0  0  0  0  0
    3.3317    1.7136    6.1374 H   0  0  0  0  0  0  0  0  0  0  0  0
    5.0376    1.2220    5.9354 H   0  0  0  0  0  0  0  0  0  0  0  0
    3.3320   -1.8009    5.1135 H   0  0  0  0  0  0  0  0  0  0  0  0
    2.8221   -0.7209    6.4292 H   0  0  0  0  0  0  0  0  0  0  0  0
    4.5624   -1.0655    6.1602 H   0  0  0  0  0  0  0  0  0  0  0  0
  1  2  2  0  0  0  0
  1 35  1  0  0  0  0
  1 36  1  0  0  0  0
  2  3  1  0  0  0  0
  2 37  1  0  0  0  0
  3  4  2  0  0  0  0
  3  5  1  0  0  0  0
  5  6  1  0  0  0  0
  5 38  1  0  0  0  0
  6  7  1  0  0  0  0
  6 25  2  0  0  0  0
  7  8  2  0  0  0  0
  7 39  1  0  0  0  0
  8  9  1  0  0  0  0
  8 23  1  0  0  0  0
  9 10  1  0  0  0  0
  9 20  2  0  0  0  0
 10 11  1  0  0  0  0
 10 40  1  0  0  0  0
 11 12  1  0  0  0  0
 11 18  2  0  0  0  0
 12 13  2  0  0  0  0
 12 41  1  0  0  0  0
 13 14  1  0  0  0  0
 13 42  1  0  0  0  0
 14 15  1  0  0  0  0
 14 16  2  0  0  0  0
 16 17  1  0  0  0  0
 16 18  1  0  0  0  0
 18 19  1  0  0  0  0
 20 21  1  0  0  0  0
 21 22  2  0  0  0  0
 21 43  1  0  0  0  0
 22 23  1  0  0  0  0
 23 24  2  0  0  0  0
 24 25  1  0  0  0  0
 24 44  1  0  0  0  0
 25 26  1  0  0  0  0
 26 27  1  0  0  0  0
 27 28  1  0  0  0  0
 27 45  1  0  0  0  0
 27 46  1  0  0  0  0
 28 29  1  0  0  0  0
 28 47  1  0  0  0  0
 28 48  1  0  0  0  0
 29 30  1  0  0  0  0
 29 49  1  0  0  0  0
 30 31  2  0  0  0  0
 30 32  1  0  0  0  0
 32 33  1  0  0  0  0
 32 50  1  0  0  0  0
 32 51  1  0  0  0  0
 33 34  1  0  0  0  0
 34 52  1  0  0  0  0
 34 53  1  0  0  0  0
 34 54  1  0  0  0  0
M  END
$$$$
