CHEMBL1974457
 OpenBabel04072215363D

 27 29  0  0  0  0  0  0  0  0999 V2000
    2.4951   -0.1855   -1.1967 O   0  0  0  0  0  0  0  0  0  0  0  0
    2.2144   -0.0462   -0.0140 C   0  0  0  0  0  0  0  0  0  0  0  0
    1.1845   -0.7227    0.5580 O   0  0  0  0  0  0  0  0  0  0  0  0
    2.9018    0.8428    0.9051 C   0  0  0  0  0  0  0  0  0  0  0  0
    3.9481    1.6932    0.6043 C   0  0  0  0  0  0  0  0  0  0  0  0
    4.3668    2.5378    1.7018 C   0  0  0  0  0  0  0  0  0  0  0  0
    5.3238    3.5915    1.8003 C   0  0  0  0  0  0  0  0  0  0  0  0
    6.0979    4.1075    0.6489 C   0  0  0  0  0  0  0  0  0  0  0  0
    7.4362    4.5379    0.8075 C   0  0  0  0  0  0  0  0  0  0  0  0
    8.1645    5.1012   -0.2473 C   0  0  0  0  0  0  0  0  0  0  0  0
    7.5825    5.2207   -1.5027 C   0  0  0  0  0  0  0  0  0  0  0  0
    6.2774    4.7906   -1.6844 C   0  0  0  0  0  0  0  0  0  0  0  0
    5.7109    4.8999   -2.8928 F   0  0  0  0  0  0  0  0  0  0  0  0
    5.5349    4.2603   -0.6288 C   0  0  0  0  0  0  0  0  0  0  0  0
    5.4700    4.1465    3.0800 C   0  0  0  0  0  0  0  0  0  0  0  0
    4.8046    3.7712    4.1890 N   0  0  0  0  0  0  0  0  0  0  0  0
    3.8877    2.7938    4.0869 C   0  0  0  0  0  0  0  0  0  0  0  0
    3.6524    2.1822    2.8551 C   0  0  0  0  0  0  0  0  0  0  0  0
    2.4866    0.9537    2.5504 S   0  0  0  0  0  0  0  0  0  0  0  0
    1.0763   -0.4936    1.5015 H   0  0  0  0  0  0  0  0  0  0  0  0
    4.3743    1.7308   -0.3919 H   0  0  0  0  0  0  0  0  0  0  0  0
    7.9332    4.4517    1.7735 H   0  0  0  0  0  0  0  0  0  0  0  0
    9.1812    5.4480   -0.0820 H   0  0  0  0  0  0  0  0  0  0  0  0
    8.1311    5.6497   -2.3351 H   0  0  0  0  0  0  0  0  0  0  0  0
    4.5028    3.9950   -0.8316 H   0  0  0  0  0  0  0  0  0  0  0  0
    6.1621    4.9675    3.2547 H   0  0  0  0  0  0  0  0  0  0  0  0
    3.3521    2.5268    4.9911 H   0  0  0  0  0  0  0  0  0  0  0  0
  1  2  2  0  0  0  0
  2  3  1  0  0  0  0
  2  4  1  0  0  0  0
  3 20  1  0  0  0  0
  4  5  2  0  0  0  0
  4 19  1  0  0  0  0
  5  6  1  0  0  0  0
  5 21  1  0  0  0  0
  6  7  1  0  0  0  0
  6 18  2  0  0  0  0
  7  8  1  0  0  0  0
  7 15  2  0  0  0  0
  8  9  1  0  0  0  0
  8 14  2  0  0  0  0
  9 10  2  0  0  0  0
  9 22  1  0  0  0  0
 10 11  1  0  0  0  0
 10 23  1  0  0  0  0
 11 12  2  0  0  0  0
 11 24  1  0  0  0  0
 12 13  1  0  0  0  0
 12 14  1  0  0  0  0
 14 25  1  0  0  0  0
 15 16  1  0  0  0  0
 15 26  1  0  0  0  0
 16 17  2  0  0  0  0
 17 18  1  0  0  0  0
 17 27  1  0  0  0  0
 18 19  1  0  0  0  0
M  END
$$$$
