CHEMBL4561280
 OpenBabel04072215383D

 46 49  0  0  0  0  0  0  0  0999 V2000
    6.9002   -2.4467    0.1100 C   0  0  0  0  0  0  0  0  0  0  0  0
    6.3961   -1.9096    1.3781 N   0  0  0  0  0  0  0  0  0  0  0  0
    5.7657   -2.9880    2.1474 C   0  0  0  0  0  0  0  0  0  0  0  0
    7.4770   -1.2910    2.1675 C   0  0  0  0  0  0  0  0  0  0  0  0
    8.0948   -0.0447    1.5158 C   0  0  0  0  0  0  0  0  0  0  0  0
    7.0872    1.0717    1.2228 C   0  0  0  0  0  0  0  0  0  0  0  0
    6.4511    1.5532    2.4417 N   0  0  0  0  0  0  0  0  0  0  0  0
    7.1834    2.1496    3.4457 C   0  0  0  0  0  0  0  0  0  0  0  0
    6.6757    1.9928    4.8531 C   0  0  0  0  0  0  0  0  0  0  0  0
    7.4565    2.4719    5.8272 C   0  0  0  0  0  0  0  0  0  0  0  0
    8.6406    3.1224    5.5193 N   0  0  0  0  0  0  0  0  0  0  0  0
    9.5290    3.6442    6.3956 N   0  0  0  0  0  0  0  0  0  0  0  0
   10.4595    4.1950    5.6200 C   0  0  0  0  0  0  0  0  0  0  0  0
   10.2104    4.0373    4.2371 C   0  0  0  0  0  0  0  0  0  0  0  0
   10.9936    4.5385    3.1130 C   0  0  0  0  0  0  0  0  0  0  0  0
   10.3930    4.8652    1.8758 C   0  0  0  0  0  0  0  0  0  0  0  0
   11.1362    5.4442    0.8367 C   0  0  0  0  0  0  0  0  0  0  0  0
   12.4749    5.6796    1.0563 C   0  0  0  0  0  0  0  0  0  0  0  0
   13.0750    5.3495    2.2468 C   0  0  0  0  0  0  0  0  0  0  0  0
   12.3685    4.7801    3.2854 C   0  0  0  0  0  0  0  0  0  0  0  0
   14.3981    5.6654    2.2682 O   0  0  0  0  0  0  0  0  0  0  0  0
   14.5688    6.2005    0.9398 C   0  0  0  0  0  0  0  0  0  0  0  0
   13.3435    6.2487    0.1788 O   0  0  0  0  0  0  0  0  0  0  0  0
    9.0323    3.3066    4.1889 C   0  0  0  0  0  0  0  0  0  0  0  0
    8.2899    2.7924    3.1562 N   0  0  0  0  0  0  0  0  0  0  0  0
    6.0878   -2.9197   -0.4543 H   0  0  0  0  0  0  0  0  0  0  0  0
    7.6920   -3.1890    0.2611 H   0  0  0  0  0  0  0  0  0  0  0  0
    7.2859   -1.6511   -0.5335 H   0  0  0  0  0  0  0  0  0  0  0  0
    4.9666   -3.4602    1.5646 H   0  0  0  0  0  0  0  0  0  0  0  0
    5.2962   -2.5897    3.0534 H   0  0  0  0  0  0  0  0  0  0  0  0
    6.4825   -3.7643    2.4396 H   0  0  0  0  0  0  0  0  0  0  0  0
    8.2748   -2.0188    2.3683 H   0  0  0  0  0  0  0  0  0  0  0  0
    7.0807   -1.0010    3.1485 H   0  0  0  0  0  0  0  0  0  0  0  0
    8.6050   -0.3162    0.5857 H   0  0  0  0  0  0  0  0  0  0  0  0
    8.8831    0.3281    2.1808 H   0  0  0  0  0  0  0  0  0  0  0  0
    6.3096    0.7161    0.5375 H   0  0  0  0  0  0  0  0  0  0  0  0
    7.5895    1.9017    0.7131 H   0  0  0  0  0  0  0  0  0  0  0  0
    5.6933    0.9431    2.7368 H   0  0  0  0  0  0  0  0  0  0  0  0
    5.7432    1.4818    5.0346 H   0  0  0  0  0  0  0  0  0  0  0  0
    7.2179    2.3929    6.8782 H   0  0  0  0  0  0  0  0  0  0  0  0
   11.2865    4.7065    6.0954 H   0  0  0  0  0  0  0  0  0  0  0  0
    9.3299    4.6920    1.7182 H   0  0  0  0  0  0  0  0  0  0  0  0
   10.6688    5.7107   -0.1042 H   0  0  0  0  0  0  0  0  0  0  0  0
   12.8852    4.5390    4.2077 H   0  0  0  0  0  0  0  0  0  0  0  0
   15.2890    5.5731    0.4021 H   0  0  0  0  0  0  0  0  0  0  0  0
   14.9776    7.2147    1.0191 H   0  0  0  0  0  0  0  0  0  0  0  0
  1  2  1  0  0  0  0
  1 26  1  0  0  0  0
  1 27  1  0  0  0  0
  1 28  1  0  0  0  0
  2  3  1  0  0  0  0
  2  4  1  0  0  0  0
  3 29  1  0  0  0  0
  3 30  1  0  0  0  0
  3 31  1  0  0  0  0
  4  5  1  0  0  0  0
  4 32  1  0  0  0  0
  4 33  1  0  0  0  0
  5  6  1  0  0  0  0
  5 34  1  0  0  0  0
  5 35  1  0  0  0  0
  6  7  1  0  0  0  0
  6 36  1  0  0  0  0
  6 37  1  0  0  0  0
  7  8  1  0  0  0  0
  7 38  1  0  0  0  0
  8  9  1  0  0  0  0
  8 25  2  0  0  0  0
  9 10  2  0  0  0  0
  9 39  1  0  0  0  0
 10 11  1  0  0  0  0
 10 40  1  0  0  0  0
 11 12  1  0  0  0  0
 11 24  1  0  0  0  0
 12 13  2  0  0  0  0
 13 14  1  0  0  0  0
 13 41  1  0  0  0  0
 14 15  1  0  0  0  0
 14 24  2  0  0  0  0
 15 16  1  0  0  0  0
 15 20  2  0  0  0  0
 16 17  2  0  0  0  0
 16 42  1  0  0  0  0
 17 18  1  0  0  0  0
 17 43  1  0  0  0  0
 18 19  2  0  0  0  0
 18 23  1  0  0  0  0
 19 20  1  0  0  0  0
 19 21  1  0  0  0  0
 20 44  1  0  0  0  0
 21 22  1  0  0  0  0
 22 23  1  0  0  0  0
 22 45  1  0  0  0  0
 22 46  1  0  0  0  0
 24 25  1  0  0  0  0
M  END
$$$$
