CHEMBL3690381
 OpenBabel04072215373D

 46 49  0  0  0  0  0  0  0  0999 V2000
    2.4643   -0.8485    1.3624 O   0  0  0  0  0  0  0  0  0  0  0  0
    2.1724   -0.7313    0.1798 C   0  0  0  0  0  0  0  0  0  0  0  0
    0.8651   -0.5148   -0.2042 N   0  0  0  0  0  0  0  0  0  0  0  0
   -0.1893   -0.5884    0.8186 C   0  0  0  0  0  0  0  0  0  0  0  0
   -0.6807   -2.0047    1.1550 C   0  0  0  0  0  0  0  0  0  0  0  0
   -0.0792   -2.9451    0.3898 F   0  0  0  0  0  0  0  0  0  0  0  0
   -0.4826   -2.3255    2.4498 F   0  0  0  0  0  0  0  0  0  0  0  0
   -2.0126   -2.1007    0.9136 F   0  0  0  0  0  0  0  0  0  0  0  0
    3.0281   -0.7719   -0.9029 N   0  0  0  0  0  0  0  0  0  0  0  0
    4.4334   -0.9441   -0.8665 C   0  0  0  0  0  0  0  0  0  0  0  0
    5.1490   -1.0449    0.3267 C   0  0  0  0  0  0  0  0  0  0  0  0
    6.5376   -1.1240    0.3160 C   0  0  0  0  0  0  0  0  0  0  0  0
    7.2246   -1.1519   -0.8925 C   0  0  0  0  0  0  0  0  0  0  0  0
    6.5373   -1.1914   -2.1113 C   0  0  0  0  0  0  0  0  0  0  0  0
    7.2629   -1.4373   -3.3727 C   0  0  0  0  0  0  0  0  0  0  0  0
    7.0309   -0.9404   -4.6470 C   0  0  0  0  0  0  0  0  0  0  0  0
    7.9259   -1.4242   -5.5666 N   0  0  0  0  0  0  0  0  0  0  0  0
    8.7177   -2.2292   -4.8923 C   0  0  0  0  0  0  0  0  0  0  0  0
    9.8276   -3.0176   -5.3229 C   0  0  0  0  0  0  0  0  0  0  0  0
   10.5008   -3.7945   -4.4463 C   0  0  0  0  0  0  0  0  0  0  0  0
   11.6028   -4.6047   -4.8627 C   0  0  0  0  0  0  0  0  0  0  0  0
   12.5178   -5.3094   -5.1871 C   0  0  0  0  0  0  0  0  0  0  0  0
   13.5966   -6.1766   -5.5606 C   0  0  0  0  0  0  0  0  0  0  0  0
   14.5932   -5.8795   -6.5362 C   0  0  0  0  0  0  0  0  0  0  0  0
   15.4928   -6.9104   -6.6923 C   0  0  0  0  0  0  0  0  0  0  0  0
   15.1437   -8.2313   -5.6612 S   0  0  0  0  0  0  0  0  0  0  0  0
   13.7835   -7.4231   -5.0028 C   0  0  0  0  0  0  0  0  0  0  0  0
   10.0847   -3.8480   -3.0506 C   0  0  0  0  0  0  0  0  0  0  0  0
    9.0233   -3.1316   -2.6451 C   0  0  0  0  0  0  0  0  0  0  0  0
    8.3488   -2.2995   -3.5475 N   0  0  0  0  0  0  0  0  0  0  0  0
    5.1374   -1.0222   -2.0856 C   0  0  0  0  0  0  0  0  0  0  0  0
    0.6132   -0.8279   -1.1303 H   0  0  0  0  0  0  0  0  0  0  0  0
   -1.0243    0.0108    0.4428 H   0  0  0  0  0  0  0  0  0  0  0  0
    0.1677   -0.1036    1.7349 H   0  0  0  0  0  0  0  0  0  0  0  0
    2.6166   -0.6177   -1.8102 H   0  0  0  0  0  0  0  0  0  0  0  0
    4.6609   -1.0411    1.2954 H   0  0  0  0  0  0  0  0  0  0  0  0
    7.0816   -1.1691    1.2556 H   0  0  0  0  0  0  0  0  0  0  0  0
    8.3102   -1.1623   -0.8593 H   0  0  0  0  0  0  0  0  0  0  0  0
    6.2600   -0.2424   -4.9519 H   0  0  0  0  0  0  0  0  0  0  0  0
   10.1003   -2.9762   -6.3736 H   0  0  0  0  0  0  0  0  0  0  0  0
   14.6496   -4.9581   -7.1025 H   0  0  0  0  0  0  0  0  0  0  0  0
   16.3412   -6.9588   -7.3644 H   0  0  0  0  0  0  0  0  0  0  0  0
   13.1895   -7.9104   -4.2427 H   0  0  0  0  0  0  0  0  0  0  0  0
   10.6309   -4.4794   -2.3570 H   0  0  0  0  0  0  0  0  0  0  0  0
    8.6710   -3.1830   -1.6260 H   0  0  0  0  0  0  0  0  0  0  0  0
    4.5886   -0.9820   -3.0234 H   0  0  0  0  0  0  0  0  0  0  0  0
  1  2  2  0  0  0  0
  2  3  1  0  0  0  0
  2  9  1  0  0  0  0
  3  4  1  0  0  0  0
  3 32  1  0  0  0  0
  4  5  1  0  0  0  0
  4 33  1  0  0  0  0
  4 34  1  0  0  0  0
  5  6  1  0  0  0  0
  5  7  1  0  0  0  0
  5  8  1  0  0  0  0
  9 10  1  0  0  0  0
  9 35  1  0  0  0  0
 10 11  1  0  0  0  0
 10 31  2  0  0  0  0
 11 12  2  0  0  0  0
 11 36  1  0  0  0  0
 12 13  1  0  0  0  0
 12 37  1  0  0  0  0
 13 14  2  0  0  0  0
 13 38  1  0  0  0  0
 14 15  1  0  0  0  0
 14 31  1  0  0  0  0
 15 16  2  0  0  0  0
 15 30  1  0  0  0  0
 16 17  1  0  0  0  0
 16 39  1  0  0  0  0
 17 18  2  0  0  0  0
 18 19  1  0  0  0  0
 18 30  1  0  0  0  0
 19 20  2  0  0  0  0
 19 40  1  0  0  0  0
 20 21  1  0  0  0  0
 20 28  1  0  0  0  0
 21 22  3  0  0  0  0
 22 23  1  0  0  0  0
 23 24  1  0  0  0  0
 23 27  2  0  0  0  0
 24 25  2  0  0  0  0
 24 41  1  0  0  0  0
 25 26  1  0  0  0  0
 25 42  1  0  0  0  0
 26 27  1  0  0  0  0
 27 43  1  0  0  0  0
 28 29  2  0  0  0  0
 28 44  1  0  0  0  0
 29 30  1  0  0  0  0
 29 45  1  0  0  0  0
 31 46  1  0  0  0  0
M  END
$$$$
