CHEMBL1979883
 OpenBabel04072215363D

 58 61  0  0  0  0  0  0  0  0999 V2000
    2.3599   -0.4079    1.6003 C   0  0  0  0  0  0  0  0  0  0  0  0
    0.8636   -0.3138    1.5554 C   0  0  0  0  0  0  0  0  0  0  0  0
    0.2391    0.8664    1.9759 C   0  0  0  0  0  0  0  0  0  0  0  0
   -1.1375    0.9760    1.9455 C   0  0  0  0  0  0  0  0  0  0  0  0
   -1.9160   -0.0928    1.4915 C   0  0  0  0  0  0  0  0  0  0  0  0
   -1.3386   -1.2849    1.0518 C   0  0  0  0  0  0  0  0  0  0  0  0
   -2.0936   -2.3930    0.5809 N   0  0  0  0  0  0  0  0  0  0  0  0
   -3.4697   -2.4093    0.4202 C   0  0  0  0  0  0  0  0  0  0  0  0
   -4.2145   -1.4486    0.6121 O   0  0  0  0  0  0  0  0  0  0  0  0
   -3.9602   -3.6577    0.0439 N   0  0  0  0  0  0  0  0  0  0  0  0
   -5.3587   -3.8188   -0.1405 C   0  0  0  0  0  0  0  0  0  0  0  0
   -6.0902   -2.9216   -0.9227 C   0  0  0  0  0  0  0  0  0  0  0  0
   -7.4880   -2.9901   -0.9676 C   0  0  0  0  0  0  0  0  0  0  0  0
   -8.1908   -3.9783   -0.2589 C   0  0  0  0  0  0  0  0  0  0  0  0
   -9.6708   -3.9769   -0.2359 C   0  0  0  0  0  0  0  0  0  0  0  0
  -10.3515   -3.5968   -1.3785 C   0  0  0  0  0  0  0  0  0  0  0  0
  -12.0351   -3.6005   -1.2072 S   0  0  0  0  0  0  0  0  0  0  0  0
  -11.9502   -4.1238    0.4332 C   0  0  0  0  0  0  0  0  0  0  0  0
  -13.0346   -4.3649    1.2971 C   0  0  0  0  0  0  0  0  0  0  0  0
  -14.3909   -4.1978    0.8732 C   0  0  0  0  0  0  0  0  0  0  0  0
  -15.6298   -4.0636    0.4898 C   0  0  0  0  0  0  0  0  0  0  0  0
  -17.0742   -3.9072    0.0428 C   0  0  0  0  0  0  0  0  0  0  0  0
  -17.1420   -3.6229   -1.3997 N   0  0  0  0  0  0  0  0  0  0  0  0
  -16.5567   -4.7008   -2.2049 C   0  0  0  0  0  0  0  0  0  0  0  0
  -18.5313   -3.4076   -1.8024 C   0  0  0  0  0  0  0  0  0  0  0  0
  -12.7230   -4.7766    2.5723 C   0  0  0  0  0  0  0  0  0  0  0  0
  -11.4691   -4.9458    3.0230 N   0  0  0  0  0  0  0  0  0  0  0  0
  -10.4166   -4.7049    2.2106 C   0  0  0  0  0  0  0  0  0  0  0  0
   -9.1868   -4.8787    2.8325 N   0  0  0  0  0  0  0  0  0  0  0  0
  -10.6125   -4.2916    0.8577 C   0  0  0  0  0  0  0  0  0  0  0  0
   -7.4331   -4.9409    0.4219 C   0  0  0  0  0  0  0  0  0  0  0  0
   -6.0323   -4.8498    0.5074 C   0  0  0  0  0  0  0  0  0  0  0  0
    0.0673   -1.3891    1.0936 C   0  0  0  0  0  0  0  0  0  0  0  0
    2.8028    0.5118    2.0010 H   0  0  0  0  0  0  0  0  0  0  0  0
    2.7623   -0.5555    0.5944 H   0  0  0  0  0  0  0  0  0  0  0  0
    2.6710   -1.2311    2.2498 H   0  0  0  0  0  0  0  0  0  0  0  0
    0.8319    1.7110    2.3275 H   0  0  0  0  0  0  0  0  0  0  0  0
   -1.6290    1.8929    2.2662 H   0  0  0  0  0  0  0  0  0  0  0  0
   -2.9835    0.0635    1.4982 H   0  0  0  0  0  0  0  0  0  0  0  0
   -1.5816   -3.1926    0.2429 H   0  0  0  0  0  0  0  0  0  0  0  0
   -3.4712   -4.4379    0.4575 H   0  0  0  0  0  0  0  0  0  0  0  0
   -5.5837   -2.1342   -1.4770 H   0  0  0  0  0  0  0  0  0  0  0  0
   -8.0091   -2.2315   -1.5473 H   0  0  0  0  0  0  0  0  0  0  0  0
   -9.9403   -3.3040   -2.3350 H   0  0  0  0  0  0  0  0  0  0  0  0
  -17.5085   -3.0754    0.6101 H   0  0  0  0  0  0  0  0  0  0  0  0
  -17.6285   -4.8184    0.2995 H   0  0  0  0  0  0  0  0  0  0  0  0
  -15.4868   -4.8211   -2.0031 H   0  0  0  0  0  0  0  0  0  0  0  0
  -16.6299   -4.4631   -3.2715 H   0  0  0  0  0  0  0  0  0  0  0  0
  -17.0525   -5.6626   -2.0320 H   0  0  0  0  0  0  0  0  0  0  0  0
  -18.9710   -2.5744   -1.2445 H   0  0  0  0  0  0  0  0  0  0  0  0
  -19.1494   -4.2980   -1.6420 H   0  0  0  0  0  0  0  0  0  0  0  0
  -18.5863   -3.1366   -2.8625 H   0  0  0  0  0  0  0  0  0  0  0  0
  -13.5016   -4.9860    3.3007 H   0  0  0  0  0  0  0  0  0  0  0  0
   -9.3312   -4.9717    3.8322 H   0  0  0  0  0  0  0  0  0  0  0  0
   -8.5006   -4.1843    2.5648 H   0  0  0  0  0  0  0  0  0  0  0  0
   -7.9223   -5.7627    0.9398 H   0  0  0  0  0  0  0  0  0  0  0  0
   -5.5017   -5.5471    1.1494 H   0  0  0  0  0  0  0  0  0  0  0  0
    0.5649   -2.2985    0.7679 H   0  0  0  0  0  0  0  0  0  0  0  0
  1  2  1  0  0  0  0
  1 34  1  0  0  0  0
  1 35  1  0  0  0  0
  1 36  1  0  0  0  0
  2  3  1  0  0  0  0
  2 33  2  0  0  0  0
  3  4  2  0  0  0  0
  3 37  1  0  0  0  0
  4  5  1  0  0  0  0
  4 38  1  0  0  0  0
  5  6  2  0  0  0  0
  5 39  1  0  0  0  0
  6  7  1  0  0  0  0
  6 33  1  0  0  0  0
  7  8  1  0  0  0  0
  7 40  1  0  0  0  0
  8  9  2  0  0  0  0
  8 10  1  0  0  0  0
 10 11  1  0  0  0  0
 10 41  1  0  0  0  0
 11 12  1  0  0  0  0
 11 32  2  0  0  0  0
 12 13  2  0  0  0  0
 12 42  1  0  0  0  0
 13 14  1  0  0  0  0
 13 43  1  0  0  0  0
 14 15  1  0  0  0  0
 14 31  2  0  0  0  0
 15 16  2  0  0  0  0
 15 30  1  0  0  0  0
 16 17  1  0  0  0  0
 16 44  1  0  0  0  0
 17 18  1  0  0  0  0
 18 19  1  0  0  0  0
 18 30  2  0  0  0  0
 19 20  1  0  0  0  0
 19 26  2  0  0  0  0
 20 21  3  0  0  0  0
 21 22  1  0  0  0  0
 22 23  1  0  0  0  0
 22 45  1  0  0  0  0
 22 46  1  0  0  0  0
 23 24  1  0  0  0  0
 23 25  1  0  0  0  0
 24 47  1  0  0  0  0
 24 48  1  0  0  0  0
 24 49  1  0  0  0  0
 25 50  1  0  0  0  0
 25 51  1  0  0  0  0
 25 52  1  0  0  0  0
 26 27  1  0  0  0  0
 26 53  1  0  0  0  0
 27 28  2  0  0  0  0
 28 29  1  0  0  0  0
 28 30  1  0  0  0  0
 29 54  1  0  0  0  0
 29 55  1  0  0  0  0
 31 32  1  0  0  0  0
 31 56  1  0  0  0  0
 32 57  1  0  0  0  0
 33 58  1  0  0  0  0
M  END
$$$$
