CHEMBL3690472
 OpenBabel04072215373D

 61 65  0  0  0  0  0  0  0  0999 V2000
    2.7243    1.3026    0.3396 O   0  0  0  0  0  0  0  0  0  0  0  0
    2.6532    0.4653   -0.5498 C   0  0  0  0  0  0  0  0  0  0  0  0
    1.6347    0.5074   -1.4790 N   0  0  0  0  0  0  0  0  0  0  0  0
    0.5543    1.4848   -1.2914 C   0  0  0  0  0  0  0  0  0  0  0  0
   -0.5708    1.0391   -0.3457 C   0  0  0  0  0  0  0  0  0  0  0  0
   -0.3706   -0.2141    0.1241 F   0  0  0  0  0  0  0  0  0  0  0  0
   -0.7162    1.8662    0.7092 F   0  0  0  0  0  0  0  0  0  0  0  0
   -1.7531    1.0198   -1.0120 F   0  0  0  0  0  0  0  0  0  0  0  0
    3.5194   -0.5818   -0.7873 N   0  0  0  0  0  0  0  0  0  0  0  0
    4.6831   -0.9015   -0.0495 C   0  0  0  0  0  0  0  0  0  0  0  0
    5.1140   -0.1479    1.0426 C   0  0  0  0  0  0  0  0  0  0  0  0
    6.3098   -0.4474    1.6827 C   0  0  0  0  0  0  0  0  0  0  0  0
    7.0736   -1.5256    1.2529 C   0  0  0  0  0  0  0  0  0  0  0  0
    6.6130   -2.3847    0.2463 C   0  0  0  0  0  0  0  0  0  0  0  0
    7.3343   -3.6337   -0.0596 C   0  0  0  0  0  0  0  0  0  0  0  0
    7.4927   -4.3150   -1.2574 C   0  0  0  0  0  0  0  0  0  0  0  0
    8.2387   -5.4572   -1.1114 N   0  0  0  0  0  0  0  0  0  0  0  0
    8.5313   -5.5195    0.1691 C   0  0  0  0  0  0  0  0  0  0  0  0
    9.2551   -6.5042    0.9108 C   0  0  0  0  0  0  0  0  0  0  0  0
    9.4167   -6.3919    2.2563 C   0  0  0  0  0  0  0  0  0  0  0  0
   10.0911   -7.4631    3.0302 C   0  0  0  0  0  0  0  0  0  0  0  0
   10.1793   -7.2832    4.3615 N   0  0  0  0  0  0  0  0  0  0  0  0
   10.6860   -8.3032    5.0586 C   0  0  0  0  0  0  0  0  0  0  0  0
   11.0898   -9.4806    4.4797 C   0  0  0  0  0  0  0  0  0  0  0  0
   10.9916   -9.5909    3.1047 C   0  0  0  0  0  0  0  0  0  0  0  0
   11.3949  -10.7277    2.4364 N   0  0  0  0  0  0  0  0  0  0  0  0
   11.3532  -12.0536    3.0378 C   0  0  0  0  0  0  0  0  0  0  0  0
   10.4635  -12.9739    2.2067 C   0  0  0  0  0  0  0  0  0  0  0  0
   10.8428  -12.9616    0.7294 C   0  0  0  0  0  0  0  0  0  0  0  0
   12.0769  -13.6504    0.5283 O   0  0  0  0  0  0  0  0  0  0  0  0
   10.9119  -11.5421    0.1704 C   0  0  0  0  0  0  0  0  0  0  0  0
   11.7792  -10.6291    1.0301 C   0  0  0  0  0  0  0  0  0  0  0  0
   10.5004   -8.5696    2.3826 N   0  0  0  0  0  0  0  0  0  0  0  0
    8.8408   -5.2254    2.9374 C   0  0  0  0  0  0  0  0  0  0  0  0
    8.1290   -4.3239    2.2532 C   0  0  0  0  0  0  0  0  0  0  0  0
    7.9858   -4.4450    0.8699 N   0  0  0  0  0  0  0  0  0  0  0  0
    5.4346   -2.0293   -0.4348 C   0  0  0  0  0  0  0  0  0  0  0  0
    1.3672   -0.3801   -1.8798 H   0  0  0  0  0  0  0  0  0  0  0  0
    0.1425    1.6810   -2.2864 H   0  0  0  0  0  0  0  0  0  0  0  0
    0.9803    2.4270   -0.9280 H   0  0  0  0  0  0  0  0  0  0  0  0
    3.3417   -1.1356   -1.6108 H   0  0  0  0  0  0  0  0  0  0  0  0
    4.5554    0.7041    1.4142 H   0  0  0  0  0  0  0  0  0  0  0  0
    6.6461    0.1610    2.5177 H   0  0  0  0  0  0  0  0  0  0  0  0
    8.0311   -1.6881    1.7383 H   0  0  0  0  0  0  0  0  0  0  0  0
    7.1177   -4.0290   -2.2302 H   0  0  0  0  0  0  0  0  0  0  0  0
    9.6414   -7.3531    0.3585 H   0  0  0  0  0  0  0  0  0  0  0  0
   10.7612   -8.1472    6.1314 H   0  0  0  0  0  0  0  0  0  0  0  0
   11.5099  -10.2656    5.1031 H   0  0  0  0  0  0  0  0  0  0  0  0
   10.9559  -12.0515    4.0580 H   0  0  0  0  0  0  0  0  0  0  0  0
   12.3727  -12.4501    3.0973 H   0  0  0  0  0  0  0  0  0  0  0  0
    9.4199  -12.6488    2.3094 H   0  0  0  0  0  0  0  0  0  0  0  0
   10.5351  -13.9907    2.6088 H   0  0  0  0  0  0  0  0  0  0  0  0
   10.0899  -13.5253    0.1673 H   0  0  0  0  0  0  0  0  0  0  0  0
   12.7893  -13.1673    0.9784 H   0  0  0  0  0  0  0  0  0  0  0  0
    9.8978  -11.1272    0.1189 H   0  0  0  0  0  0  0  0  0  0  0  0
   11.3169  -11.5586   -0.8483 H   0  0  0  0  0  0  0  0  0  0  0  0
   11.7300   -9.6089    0.6304 H   0  0  0  0  0  0  0  0  0  0  0  0
   12.8317  -10.9248    0.9425 H   0  0  0  0  0  0  0  0  0  0  0  0
    8.9796   -5.1232    4.0105 H   0  0  0  0  0  0  0  0  0  0  0  0
    7.6575   -3.4973    2.7640 H   0  0  0  0  0  0  0  0  0  0  0  0
    5.0869   -2.6508   -1.2573 H   0  0  0  0  0  0  0  0  0  0  0  0
  1  2  2  0  0  0  0
  2  3  1  0  0  0  0
  2  9  1  0  0  0  0
  3  4  1  0  0  0  0
  3 38  1  0  0  0  0
  4  5  1  0  0  0  0
  4 39  1  0  0  0  0
  4 40  1  0  0  0  0
  5  6  1  0  0  0  0
  5  7  1  0  0  0  0
  5  8  1  0  0  0  0
  9 10  1  0  0  0  0
  9 41  1  0  0  0  0
 10 11  1  0  0  0  0
 10 37  2  0  0  0  0
 11 12  2  0  0  0  0
 11 42  1  0  0  0  0
 12 13  1  0  0  0  0
 12 43  1  0  0  0  0
 13 14  2  0  0  0  0
 13 44  1  0  0  0  0
 14 15  1  0  0  0  0
 14 37  1  0  0  0  0
 15 16  2  0  0  0  0
 15 36  1  0  0  0  0
 16 17  1  0  0  0  0
 16 45  1  0  0  0  0
 17 18  2  0  0  0  0
 18 19  1  0  0  0  0
 18 36  1  0  0  0  0
 19 20  2  0  0  0  0
 19 46  1  0  0  0  0
 20 21  1  0  0  0  0
 20 34  1  0  0  0  0
 21 22  1  0  0  0  0
 21 33  2  0  0  0  0
 22 23  2  0  0  0  0
 23 24  1  0  0  0  0
 23 47  1  0  0  0  0
 24 25  2  0  0  0  0
 24 48  1  0  0  0  0
 25 26  1  0  0  0  0
 25 33  1  0  0  0  0
 26 27  1  0  0  0  0
 26 32  1  0  0  0  0
 27 28  1  0  0  0  0
 27 49  1  0  0  0  0
 27 50  1  0  0  0  0
 28 29  1  0  0  0  0
 28 51  1  0  0  0  0
 28 52  1  0  0  0  0
 29 30  1  0  0  0  0
 29 31  1  0  0  0  0
 29 53  1  0  0  0  0
 30 54  1  0  0  0  0
 31 32  1  0  0  0  0
 31 55  1  0  0  0  0
 31 56  1  0  0  0  0
 32 57  1  0  0  0  0
 32 58  1  0  0  0  0
 34 35  2  0  0  0  0
 34 59  1  0  0  0  0
 35 36  1  0  0  0  0
 35 60  1  0  0  0  0
 37 61  1  0  0  0  0
M  END
$$$$
