CHEMBL190351
 OpenBabel04072215363D

 56 58  0  0  0  0  0  0  0  0999 V2000
    3.1399    0.6298   -0.5372 C   0  0  0  0  0  0  0  0  0  0  0  0
    4.6133    0.2549   -0.4213 C   0  0  0  0  0  0  0  0  0  0  0  0
    5.3935    0.4010   -1.6623 N   0  0  0  0  0  0  0  0  0  0  0  0
    5.2946    1.7339   -2.2817 C   0  0  0  0  0  0  0  0  0  0  0  0
    5.9272    2.8864   -1.5057 C   0  0  0  0  0  0  0  0  0  0  0  0
    6.7999    0.0054   -1.4650 C   0  0  0  0  0  0  0  0  0  0  0  0
    6.9934   -1.4657   -1.0714 C   0  0  0  0  0  0  0  0  0  0  0  0
    6.4280   -2.4656   -2.0860 C   0  0  0  0  0  0  0  0  0  0  0  0
    7.1057   -2.4125   -3.4591 C   0  0  0  0  0  0  0  0  0  0  0  0
    8.5103   -2.7293   -3.2772 N   0  0  0  0  0  0  0  0  0  0  0  0
    9.1597   -3.3050   -4.3716 C   0  0  0  0  0  0  0  0  0  0  0  0
   10.2580   -4.1060   -4.0956 C   0  0  0  0  0  0  0  0  0  0  0  0
   10.8477   -4.8357   -5.1056 C   0  0  0  0  0  0  0  0  0  0  0  0
   11.8195   -5.6966   -4.7910 N   0  0  0  0  0  0  0  0  0  0  0  0
   12.3557   -6.4574   -5.7649 C   0  0  0  0  0  0  0  0  0  0  0  0
   13.3083   -7.3537   -5.2832 N   0  0  0  0  0  0  0  0  0  0  0  0
   11.9767   -6.3894   -7.1193 C   0  0  0  0  0  0  0  0  0  0  0  0
   12.6069   -7.2090   -8.1874 C   0  0  0  0  0  0  0  0  0  0  0  0
   12.9917   -8.5453   -7.9675 C   0  0  0  0  0  0  0  0  0  0  0  0
   13.7204   -9.2670   -8.9167 C   0  0  0  0  0  0  0  0  0  0  0  0
   14.0291   -8.6874  -10.1410 C   0  0  0  0  0  0  0  0  0  0  0  0
   13.5928   -7.3964  -10.4206 C   0  0  0  0  0  0  0  0  0  0  0  0
   12.8947   -6.6649   -9.4529 C   0  0  0  0  0  0  0  0  0  0  0  0
   10.9677   -5.4582   -7.4231 C   0  0  0  0  0  0  0  0  0  0  0  0
   10.3799   -4.6754   -6.4109 C   0  0  0  0  0  0  0  0  0  0  0  0
    9.3403   -3.7721   -6.6162 C   0  0  0  0  0  0  0  0  0  0  0  0
    8.7143   -3.1101   -5.6207 N   0  0  0  0  0  0  0  0  0  0  0  0
    2.6008    0.2751    0.3481 H   0  0  0  0  0  0  0  0  0  0  0  0
    2.6786    0.1656   -1.4149 H   0  0  0  0  0  0  0  0  0  0  0  0
    3.0019    1.7132   -0.5935 H   0  0  0  0  0  0  0  0  0  0  0  0
    4.6193   -0.7982   -0.1210 H   0  0  0  0  0  0  0  0  0  0  0  0
    5.0671    0.8203    0.4011 H   0  0  0  0  0  0  0  0  0  0  0  0
    4.2445    1.9717   -2.4851 H   0  0  0  0  0  0  0  0  0  0  0  0
    5.7574    1.6933   -3.2768 H   0  0  0  0  0  0  0  0  0  0  0  0
    5.6456    2.8800   -0.4492 H   0  0  0  0  0  0  0  0  0  0  0  0
    5.6000    3.8425   -1.9273 H   0  0  0  0  0  0  0  0  0  0  0  0
    7.0196    2.8537   -1.5728 H   0  0  0  0  0  0  0  0  0  0  0  0
    7.2700    0.6279   -0.6934 H   0  0  0  0  0  0  0  0  0  0  0  0
    7.3623    0.1869   -2.3893 H   0  0  0  0  0  0  0  0  0  0  0  0
    6.5440   -1.6633   -0.0918 H   0  0  0  0  0  0  0  0  0  0  0  0
    8.0648   -1.6472   -0.9247 H   0  0  0  0  0  0  0  0  0  0  0  0
    5.3494   -2.3165   -2.2094 H   0  0  0  0  0  0  0  0  0  0  0  0
    6.5525   -3.4746   -1.6696 H   0  0  0  0  0  0  0  0  0  0  0  0
    6.9793   -1.4392   -3.9417 H   0  0  0  0  0  0  0  0  0  0  0  0
    6.6144   -3.1652   -4.0888 H   0  0  0  0  0  0  0  0  0  0  0  0
    9.0708   -1.9606   -2.9188 H   0  0  0  0  0  0  0  0  0  0  0  0
   10.5920   -4.2417   -3.0730 H   0  0  0  0  0  0  0  0  0  0  0  0
   13.4317   -7.1537   -4.2948 H   0  0  0  0  0  0  0  0  0  0  0  0
   14.1721   -7.2995   -5.8091 H   0  0  0  0  0  0  0  0  0  0  0  0
   12.7474   -9.0423   -7.0287 H   0  0  0  0  0  0  0  0  0  0  0  0
   14.0501  -10.2773   -8.6888 H   0  0  0  0  0  0  0  0  0  0  0  0
   14.6064   -9.2417  -10.8756 H   0  0  0  0  0  0  0  0  0  0  0  0
   13.8135   -6.9465  -11.3853 H   0  0  0  0  0  0  0  0  0  0  0  0
   12.6053   -5.6454   -9.6976 H   0  0  0  0  0  0  0  0  0  0  0  0
   10.6044   -5.3558   -8.4432 H   0  0  0  0  0  0  0  0  0  0  0  0
    8.9478   -3.5716   -7.6085 H   0  0  0  0  0  0  0  0  0  0  0  0
  1  2  1  0  0  0  0
  1 28  1  0  0  0  0
  1 29  1  0  0  0  0
  1 30  1  0  0  0  0
  2  3  1  0  0  0  0
  2 31  1  0  0  0  0
  2 32  1  0  0  0  0
  3  4  1  0  0  0  0
  3  6  1  0  0  0  0
  4  5  1  0  0  0  0
  4 33  1  0  0  0  0
  4 34  1  0  0  0  0
  5 35  1  0  0  0  0
  5 36  1  0  0  0  0
  5 37  1  0  0  0  0
  6  7  1  0  0  0  0
  6 38  1  0  0  0  0
  6 39  1  0  0  0  0
  7  8  1  0  0  0  0
  7 40  1  0  0  0  0
  7 41  1  0  0  0  0
  8  9  1  0  0  0  0
  8 42  1  0  0  0  0
  8 43  1  0  0  0  0
  9 10  1  0  0  0  0
  9 44  1  0  0  0  0
  9 45  1  0  0  0  0
 10 11  1  0  0  0  0
 10 46  1  0  0  0  0
 11 12  1  0  0  0  0
 11 27  2  0  0  0  0
 12 13  2  0  0  0  0
 12 47  1  0  0  0  0
 13 14  1  0  0  0  0
 13 25  1  0  0  0  0
 14 15  2  0  0  0  0
 15 16  1  0  0  0  0
 15 17  1  0  0  0  0
 16 48  1  0  0  0  0
 16 49  1  0  0  0  0
 17 18  1  0  0  0  0
 17 24  2  0  0  0  0
 18 19  1  0  0  0  0
 18 23  2  0  0  0  0
 19 20  2  0  0  0  0
 19 50  1  0  0  0  0
 20 21  1  0  0  0  0
 20 51  1  0  0  0  0
 21 22  2  0  0  0  0
 21 52  1  0  0  0  0
 22 23  1  0  0  0  0
 22 53  1  0  0  0  0
 23 54  1  0  0  0  0
 24 25  1  0  0  0  0
 24 55  1  0  0  0  0
 25 26  2  0  0  0  0
 26 27  1  0  0  0  0
 26 56  1  0  0  0  0
M  END
$$$$
