CHEMBL3671475
 OpenBabel04072215373D

 60 63  0  0  0  0  0  0  0  0999 V2000
    2.0639   -1.0473    1.8122 C   0  0  0  0  0  0  0  0  0  0  0  0
    3.1145   -0.5828    1.1256 C   0  0  0  0  0  0  0  0  0  0  0  0
    4.0107   -1.5418    0.4436 C   0  0  0  0  0  0  0  0  0  0  0  0
    4.1449   -2.6926    0.8442 O   0  0  0  0  0  0  0  0  0  0  0  0
    4.5642   -1.0171   -0.7165 N   0  0  0  0  0  0  0  0  0  0  0  0
    5.2009   -1.8835   -1.6318 C   0  0  0  0  0  0  0  0  0  0  0  0
    6.2682   -2.6075   -1.1015 C   0  0  0  0  0  0  0  0  0  0  0  0
    6.9141   -3.6176   -1.8280 C   0  0  0  0  0  0  0  0  0  0  0  0
    7.9518   -4.3954   -1.2974 C   0  0  0  0  0  0  0  0  0  0  0  0
    8.3322   -4.1852    0.0451 N   0  0  0  0  0  0  0  0  0  0  0  0
    9.5961   -4.2706    0.6481 C   0  0  0  0  0  0  0  0  0  0  0  0
   10.7782   -4.1131   -0.0814 C   0  0  0  0  0  0  0  0  0  0  0  0
   12.0111   -4.0260    0.5712 C   0  0  0  0  0  0  0  0  0  0  0  0
   12.0696   -4.1116    1.9618 C   0  0  0  0  0  0  0  0  0  0  0  0
   13.7259   -3.8864    2.8430 Br  0  0  0  0  0  0  0  0  0  0  0  0
   10.9141   -4.3234    2.7056 C   0  0  0  0  0  0  0  0  0  0  0  0
    9.6931   -4.3923    2.0427 C   0  0  0  0  0  0  0  0  0  0  0  0
    8.5741   -4.5562    2.7672 F   0  0  0  0  0  0  0  0  0  0  0  0
    8.5820   -5.3277   -2.0267 N   0  0  0  0  0  0  0  0  0  0  0  0
    8.1232   -5.5139   -3.2700 C   0  0  0  0  0  0  0  0  0  0  0  0
    7.1315   -4.8311   -3.8676 N   0  0  0  0  0  0  0  0  0  0  0  0
    6.5342   -3.8808   -3.1393 C   0  0  0  0  0  0  0  0  0  0  0  0
    5.5045   -3.1088   -3.6886 C   0  0  0  0  0  0  0  0  0  0  0  0
    4.8290   -2.1019   -2.9676 C   0  0  0  0  0  0  0  0  0  0  0  0
    3.8157   -1.5294   -3.7055 O   0  0  0  0  0  0  0  0  0  0  0  0
    3.0486   -0.5176   -3.0780 C   0  0  0  0  0  0  0  0  0  0  0  0
    1.9400    0.0621   -3.9671 C   0  0  0  0  0  0  0  0  0  0  0  0
    1.2692    1.2381   -3.2183 C   0  0  0  0  0  0  0  0  0  0  0  0
    0.4078    0.7449   -2.0527 C   0  0  0  0  0  0  0  0  0  0  0  0
   -0.5870   -0.1946   -2.5523 N   0  0  0  0  0  0  0  0  0  0  0  0
   -1.9530    0.0195   -2.6287 C   0  0  0  0  0  0  0  0  0  0  0  0
   -2.5421    1.3067   -2.1013 C   0  0  0  0  0  0  0  0  0  0  0  0
   -2.7200   -0.8160   -3.1131 O   0  0  0  0  0  0  0  0  0  0  0  0
   -0.0229   -1.3837   -3.2005 C   0  0  0  0  0  0  0  0  0  0  0  0
    0.8801   -0.9781   -4.3700 C   0  0  0  0  0  0  0  0  0  0  0  0
    1.3955   -0.3775    2.3391 H   0  0  0  0  0  0  0  0  0  0  0  0
    1.8494   -2.1142    1.8702 H   0  0  0  0  0  0  0  0  0  0  0  0
    3.3347    0.4734    1.0649 H   0  0  0  0  0  0  0  0  0  0  0  0
    4.1865   -0.1434   -1.0442 H   0  0  0  0  0  0  0  0  0  0  0  0
    6.6038   -2.3722   -0.0924 H   0  0  0  0  0  0  0  0  0  0  0  0
    7.5558   -4.2917    0.6927 H   0  0  0  0  0  0  0  0  0  0  0  0
   10.7461   -4.0132   -1.1637 H   0  0  0  0  0  0  0  0  0  0  0  0
   12.9116   -3.8659   -0.0162 H   0  0  0  0  0  0  0  0  0  0  0  0
   10.9394   -4.4090    3.7865 H   0  0  0  0  0  0  0  0  0  0  0  0
    8.5980   -6.2981   -3.8494 H   0  0  0  0  0  0  0  0  0  0  0  0
    5.1978   -3.3239   -4.7122 H   0  0  0  0  0  0  0  0  0  0  0  0
    3.7195    0.3145   -2.8381 H   0  0  0  0  0  0  0  0  0  0  0  0
    2.5926   -0.9356   -2.1784 H   0  0  0  0  0  0  0  0  0  0  0  0
    2.4080    0.4403   -4.8856 H   0  0  0  0  0  0  0  0  0  0  0  0
    0.6379    1.7953   -3.9211 H   0  0  0  0  0  0  0  0  0  0  0  0
    2.0266    1.9374   -2.8457 H   0  0  0  0  0  0  0  0  0  0  0  0
   -0.0266    1.5902   -1.5240 H   0  0  0  0  0  0  0  0  0  0  0  0
    1.0110    0.2175   -1.3034 H   0  0  0  0  0  0  0  0  0  0  0  0
   -1.8245    2.0819   -1.8491 H   0  0  0  0  0  0  0  0  0  0  0  0
   -3.1402    1.0826   -1.2145 H   0  0  0  0  0  0  0  0  0  0  0  0
   -3.1914    1.7263   -2.8771 H   0  0  0  0  0  0  0  0  0  0  0  0
   -0.8097   -2.0538   -3.5631 H   0  0  0  0  0  0  0  0  0  0  0  0
    0.5417   -1.9413   -2.4445 H   0  0  0  0  0  0  0  0  0  0  0  0
    0.2511   -0.5364   -5.1542 H   0  0  0  0  0  0  0  0  0  0  0  0
    1.3523   -1.8650   -4.8058 H   0  0  0  0  0  0  0  0  0  0  0  0
  1  2  2  0  0  0  0
  1 36  1  0  0  0  0
  1 37  1  0  0  0  0
  2  3  1  0  0  0  0
  2 38  1  0  0  0  0
  3  4  2  0  0  0  0
  3  5  1  0  0  0  0
  5  6  1  0  0  0  0
  5 39  1  0  0  0  0
  6  7  1  0  0  0  0
  6 24  2  0  0  0  0
  7  8  2  0  0  0  0
  7 40  1  0  0  0  0
  8  9  1  0  0  0  0
  8 22  1  0  0  0  0
  9 10  1  0  0  0  0
  9 19  2  0  0  0  0
 10 11  1  0  0  0  0
 10 41  1  0  0  0  0
 11 12  1  0  0  0  0
 11 17  2  0  0  0  0
 12 13  2  0  0  0  0
 12 42  1  0  0  0  0
 13 14  1  0  0  0  0
 13 43  1  0  0  0  0
 14 15  1  0  0  0  0
 14 16  2  0  0  0  0
 16 17  1  0  0  0  0
 16 44  1  0  0  0  0
 17 18  1  0  0  0  0
 19 20  1  0  0  0  0
 20 21  2  0  0  0  0
 20 45  1  0  0  0  0
 21 22  1  0  0  0  0
 22 23  2  0  0  0  0
 23 24  1  0  0  0  0
 23 46  1  0  0  0  0
 24 25  1  0  0  0  0
 25 26  1  0  0  0  0
 26 27  1  0  0  0  0
 26 47  1  0  0  0  0
 26 48  1  0  0  0  0
 27 28  1  0  0  0  0
 27 35  1  0  0  0  0
 27 49  1  0  0  0  0
 28 29  1  0  0  0  0
 28 50  1  0  0  0  0
 28 51  1  0  0  0  0
 29 30  1  0  0  0  0
 29 52  1  0  0  0  0
 29 53  1  0  0  0  0
 30 31  1  0  0  0  0
 30 34  1  0  0  0  0
 31 32  1  0  0  0  0
 31 33  2  0  0  0  0
 32 54  1  0  0  0  0
 32 55  1  0  0  0  0
 32 56  1  0  0  0  0
 34 35  1  0  0  0  0
 34 57  1  0  0  0  0
 34 58  1  0  0  0  0
 35 59  1  0  0  0  0
 35 60  1  0  0  0  0
M  END
$$$$
