CHEMBL1082440
 OpenBabel04072215353D

 43 45  0  0  1  0  0  0  0  0999 V2000
    1.1135   -0.4921    0.0083 C   0  0  0  0  0  0  0  0  0  0  0  0
    2.5910   -0.2307    0.0909 C   0  0  0  0  0  0  0  0  0  0  0  0
    3.3979   -1.3763    0.1565 C   0  0  0  0  0  0  0  0  0  0  0  0
    4.7388   -1.3795    0.1806 N   0  0  0  0  0  0  0  0  0  0  0  0
    5.3244   -0.1732    0.0966 C   0  0  0  0  0  0  0  0  0  0  0  0
    4.6487    1.0385   -0.0234 C   0  0  0  0  0  0  0  0  0  0  0  0
    5.4171    2.1998   -0.1895 C   0  0  0  0  0  0  0  0  0  0  0  0
    4.8087    3.4206   -0.4258 C   0  0  0  0  0  0  0  0  0  0  0  0
    3.4232    3.5117   -0.3897 C   0  0  0  0  0  0  0  0  0  0  0  0
    2.6315    2.3869   -0.0865 C   0  0  0  0  0  0  0  0  0  0  0  0
    0.9116    2.6877    0.3597 S   0  0  0  0  0  0  0  0  0  0  0  0
    0.1070    2.1224   -0.7113 O   0  0  0  0  0  0  0  0  0  0  0  0
    0.7644    2.2721    1.7428 O   0  0  0  0  0  0  0  0  0  0  0  0
    0.6889    4.3811    0.3007 N   0  0  0  0  0  0  0  0  0  0  0  0
    0.9001    5.1335    1.5613 C   0  0  0  0  0  0  0  0  0  0  0  0
    1.6248    6.4489    1.3159 C   0  0  0  0  0  0  0  0  0  0  0  0
    0.6496    7.5894    1.0393 C   0  0  0  0  0  0  0  0  0  0  0  0
   -0.3965    7.3194    0.0605 N   0  0  0  0  0  0  0  0  0  0  0  0
    0.0174    6.4485   -1.0403 C   0  0  0  0  0  0  0  0  0  0  0  0
   -0.2156    4.9412   -0.7647 C   0  0  3  0  0  0  0  0  0  0  0  0
   -1.7046    4.6726   -0.5011 C   0  0  0  0  0  0  0  0  0  0  0  0
    3.2197    1.0644    0.0059 C   0  0  0  0  0  0  0  0  0  0  0  0
    0.8877   -1.5643    0.0491 H   0  0  0  0  0  0  0  0  0  0  0  0
    0.7240   -0.1463   -0.9518 H   0  0  0  0  0  0  0  0  0  0  0  0
    0.5797   -0.0489    0.8493 H   0  0  0  0  0  0  0  0  0  0  0  0
    2.9583   -2.3720    0.1688 H   0  0  0  0  0  0  0  0  0  0  0  0
    6.4121   -0.2138    0.0981 H   0  0  0  0  0  0  0  0  0  0  0  0
    6.5031    2.1524   -0.1740 H   0  0  0  0  0  0  0  0  0  0  0  0
    5.4135    4.2996   -0.6229 H   0  0  0  0  0  0  0  0  0  0  0  0
    2.9738    4.4835   -0.5756 H   0  0  0  0  0  0  0  0  0  0  0  0
    1.5404    4.5474    2.2288 H   0  0  0  0  0  0  0  0  0  0  0  0
   -0.0465    5.2949    2.0870 H   0  0  0  0  0  0  0  0  0  0  0  0
    2.3614    6.3584    0.5077 H   0  0  0  0  0  0  0  0  0  0  0  0
    2.1987    6.7118    2.2141 H   0  0  0  0  0  0  0  0  0  0  0  0
    1.2182    8.4721    0.7294 H   0  0  0  0  0  0  0  0  0  0  0  0
    0.1533    7.8526    1.9812 H   0  0  0  0  0  0  0  0  0  0  0  0
   -0.7573    8.2031   -0.2986 H   0  0  0  0  0  0  0  0  0  0  0  0
    1.0568    6.6367   -1.3384 H   0  0  0  0  0  0  0  0  0  0  0  0
   -0.5882    6.7210   -1.9144 H   0  0  0  0  0  0  0  0  0  0  0  0
    0.0456    4.4366   -1.7051 H   0  0  0  0  0  0  0  0  0  0  0  0
   -2.0424    5.0965    0.4492 H   0  0  0  0  0  0  0  0  0  0  0  0
   -1.9346    3.6036   -0.4881 H   0  0  0  0  0  0  0  0  0  0  0  0
   -2.3171    5.1132   -1.2979 H   0  0  0  0  0  0  0  0  0  0  0  0
  1  2  1  0  0  0  0
  1 23  1  0  0  0  0
  1 24  1  0  0  0  0
  1 25  1  0  0  0  0
  2  3  1  0  0  0  0
  2 22  2  0  0  0  0
  3  4  2  0  0  0  0
  3 26  1  0  0  0  0
  4  5  1  0  0  0  0
  5  6  2  0  0  0  0
  5 27  1  0  0  0  0
  6  7  1  0  0  0  0
  6 22  1  0  0  0  0
  7  8  2  0  0  0  0
  7 28  1  0  0  0  0
  8  9  1  0  0  0  0
  8 29  1  0  0  0  0
  9 10  2  0  0  0  0
  9 30  1  0  0  0  0
 10 11  1  0  0  0  0
 10 22  1  0  0  0  0
 11 12  2  0  0  0  0
 11 13  2  0  0  0  0
 11 14  1  0  0  0  0
 14 15  1  0  0  0  0
 14 20  1  0  0  0  0
 15 16  1  0  0  0  0
 15 31  1  0  0  0  0
 15 32  1  0  0  0  0
 16 17  1  0  0  0  0
 16 33  1  0  0  0  0
 16 34  1  0  0  0  0
 17 18  1  0  0  0  0
 17 35  1  0  0  0  0
 17 36  1  0  0  0  0
 18 19  1  0  0  0  0
 18 37  1  0  0  0  0
 19 20  1  0  0  0  0
 19 38  1  0  0  0  0
 19 39  1  0  0  0  0
 20 21  1  0  0  0  0
 20 40  1  0  0  0  0
 21 41  1  0  0  0  0
 21 42  1  0  0  0  0
 21 43  1  0  0  0  0
M  END
$$$$
