CHEMBL3671491
 OpenBabel04072215373D

 50 52  0  0  0  0  0  0  0  0999 V2000
    3.7696    4.0581   -0.4828 C   0  0  0  0  0  0  0  0  0  0  0  0
    3.6733    3.1663    0.5085 C   0  0  0  0  0  0  0  0  0  0  0  0
    3.7456    1.7201    0.1772 C   0  0  0  0  0  0  0  0  0  0  0  0
    3.2913    1.2654   -0.8684 O   0  0  0  0  0  0  0  0  0  0  0  0
    4.3986    0.8972    1.0646 N   0  0  0  0  0  0  0  0  0  0  0  0
    5.1931    1.3679    2.1197 C   0  0  0  0  0  0  0  0  0  0  0  0
    6.3985    1.9944    1.7965 C   0  0  0  0  0  0  0  0  0  0  0  0
    7.1101    2.7169    2.7758 C   0  0  0  0  0  0  0  0  0  0  0  0
    8.2362    3.5151    2.5142 C   0  0  0  0  0  0  0  0  0  0  0  0
    8.6783    3.7045    1.1770 N   0  0  0  0  0  0  0  0  0  0  0  0
    9.5151    4.7699    0.7640 C   0  0  0  0  0  0  0  0  0  0  0  0
    9.2946    6.0791    1.2155 C   0  0  0  0  0  0  0  0  0  0  0  0
   10.1790    7.1088    0.8888 C   0  0  0  0  0  0  0  0  0  0  0  0
   11.2841    6.8382    0.0848 C   0  0  0  0  0  0  0  0  0  0  0  0
   12.5245    8.2153   -0.2847 Br  0  0  0  0  0  0  0  0  0  0  0  0
   11.4887    5.5609   -0.4302 C   0  0  0  0  0  0  0  0  0  0  0  0
   10.5976    4.5436   -0.0953 C   0  0  0  0  0  0  0  0  0  0  0  0
   10.8070    3.3090   -0.5796 F   0  0  0  0  0  0  0  0  0  0  0  0
    8.8725    4.1800    3.4951 N   0  0  0  0  0  0  0  0  0  0  0  0
    8.3723    4.0747    4.7270 C   0  0  0  0  0  0  0  0  0  0  0  0
    7.2746    3.3944    5.0727 N   0  0  0  0  0  0  0  0  0  0  0  0
    6.6438    2.7336    4.0990 C   0  0  0  0  0  0  0  0  0  0  0  0
    5.4588    2.0661    4.4036 C   0  0  0  0  0  0  0  0  0  0  0  0
    4.7238    1.3702    3.4386 C   0  0  0  0  0  0  0  0  0  0  0  0
    3.5434    0.8139    3.8785 O   0  0  0  0  0  0  0  0  0  0  0  0
    3.2523   -0.4754    3.3235 C   0  0  0  0  0  0  0  0  0  0  0  0
    2.0995   -1.1597    4.0637 C   0  0  0  0  0  0  0  0  0  0  0  0
    1.7524   -2.4301    3.4377 N   0  0  0  0  0  0  0  0  0  0  0  0
    2.4736   -3.5749    3.6899 C   0  0  0  0  0  0  0  0  0  0  0  0
    2.0884   -4.7572    2.8395 C   0  0  0  0  0  0  0  0  0  0  0  0
    3.3598   -3.6417    4.5347 O   0  0  0  0  0  0  0  0  0  0  0  0
    3.7952    5.1217   -0.2757 H   0  0  0  0  0  0  0  0  0  0  0  0
    3.8507    3.7419   -1.5204 H   0  0  0  0  0  0  0  0  0  0  0  0
    3.6188    3.4730    1.5470 H   0  0  0  0  0  0  0  0  0  0  0  0
    4.7236    0.0675    0.5821 H   0  0  0  0  0  0  0  0  0  0  0  0
    6.7374    1.9948    0.7629 H   0  0  0  0  0  0  0  0  0  0  0  0
    8.9521    2.8217    0.7537 H   0  0  0  0  0  0  0  0  0  0  0  0
    8.4413    6.2976    1.8538 H   0  0  0  0  0  0  0  0  0  0  0  0
   10.0042    8.1052    1.2862 H   0  0  0  0  0  0  0  0  0  0  0  0
   12.3384    5.3384   -1.0666 H   0  0  0  0  0  0  0  0  0  0  0  0
    8.8994    4.6022    5.5141 H   0  0  0  0  0  0  0  0  0  0  0  0
    5.0834    2.1156    5.4239 H   0  0  0  0  0  0  0  0  0  0  0  0
    4.1450   -1.1120    3.3532 H   0  0  0  0  0  0  0  0  0  0  0  0
    2.9144   -0.3682    2.2903 H   0  0  0  0  0  0  0  0  0  0  0  0
    1.2046   -0.5281    4.0379 H   0  0  0  0  0  0  0  0  0  0  0  0
    2.3568   -1.3218    5.1156 H   0  0  0  0  0  0  0  0  0  0  0  0
    1.1084   -2.4168    2.6565 H   0  0  0  0  0  0  0  0  0  0  0  0
    1.5228   -4.4517    1.9549 H   0  0  0  0  0  0  0  0  0  0  0  0
    1.4849   -5.4503    3.4307 H   0  0  0  0  0  0  0  0  0  0  0  0
    2.9983   -5.2614    2.4994 H   0  0  0  0  0  0  0  0  0  0  0  0
  1  2  2  0  0  0  0
  1 32  1  0  0  0  0
  1 33  1  0  0  0  0
  2  3  1  0  0  0  0
  2 34  1  0  0  0  0
  3  4  2  0  0  0  0
  3  5  1  0  0  0  0
  5  6  1  0  0  0  0
  5 35  1  0  0  0  0
  6  7  1  0  0  0  0
  6 24  2  0  0  0  0
  7  8  2  0  0  0  0
  7 36  1  0  0  0  0
  8  9  1  0  0  0  0
  8 22  1  0  0  0  0
  9 10  1  0  0  0  0
  9 19  2  0  0  0  0
 10 11  1  0  0  0  0
 10 37  1  0  0  0  0
 11 12  1  0  0  0  0
 11 17  2  0  0  0  0
 12 13  2  0  0  0  0
 12 38  1  0  0  0  0
 13 14  1  0  0  0  0
 13 39  1  0  0  0  0
 14 15  1  0  0  0  0
 14 16  2  0  0  0  0
 16 17  1  0  0  0  0
 16 40  1  0  0  0  0
 17 18  1  0  0  0  0
 19 20  1  0  0  0  0
 20 21  2  0  0  0  0
 20 41  1  0  0  0  0
 21 22  1  0  0  0  0
 22 23  2  0  0  0  0
 23 24  1  0  0  0  0
 23 42  1  0  0  0  0
 24 25  1  0  0  0  0
 25 26  1  0  0  0  0
 26 27  1  0  0  0  0
 26 43  1  0  0  0  0
 26 44  1  0  0  0  0
 27 28  1  0  0  0  0
 27 45  1  0  0  0  0
 27 46  1  0  0  0  0
 28 29  1  0  0  0  0
 28 47  1  0  0  0  0
 29 30  1  0  0  0  0
 29 31  2  0  0  0  0
 30 48  1  0  0  0  0
 30 49  1  0  0  0  0
 30 50  1  0  0  0  0
M  END
$$$$
