CHEMBL1934328
 OpenBabel04072215363D

 66 70  0  0  0  0  0  0  0  0999 V2000
    7.4319   -3.8502   -1.1363 C   0  0  0  0  0  0  0  0  0  0  0  0
    6.3487   -3.1853   -0.4083 N   0  0  0  0  0  0  0  0  0  0  0  0
    5.9535   -1.9547   -1.1073 C   0  0  0  0  0  0  0  0  0  0  0  0
    4.8005   -1.2449   -0.3949 C   0  0  0  0  0  0  0  0  0  0  0  0
    3.5852   -2.1641   -0.2138 C   0  0  0  0  0  0  0  0  0  0  0  0
    2.9113   -2.5144   -1.5467 C   0  0  0  0  0  0  0  0  0  0  0  0
    2.5266   -1.3277   -2.2519 O   0  0  0  0  0  0  0  0  0  0  0  0
    2.4709   -1.4863   -3.6137 C   0  0  0  0  0  0  0  0  0  0  0  0
    2.6507   -0.3400   -4.3769 C   0  0  0  0  0  0  0  0  0  0  0  0
    2.6987   -0.4396   -5.7679 C   0  0  0  0  0  0  0  0  0  0  0  0
    2.5894   -1.7028   -6.4047 C   0  0  0  0  0  0  0  0  0  0  0  0
    2.6875   -1.9452   -7.7867 C   0  0  0  0  0  0  0  0  0  0  0  0
    2.8129   -0.8528   -8.6935 N   0  0  0  0  0  0  0  0  0  0  0  0
    2.7320   -0.9149  -10.1043 C   0  0  0  0  0  0  0  0  0  0  0  0
    1.9938   -1.9052  -10.7505 C   0  0  0  0  0  0  0  0  0  0  0  0
    1.9409   -1.9910  -12.1376 C   0  0  0  0  0  0  0  0  0  0  0  0
    2.5793   -1.0536  -12.9437 C   0  0  0  0  0  0  0  0  0  0  0  0
    2.5914   -1.1424  -14.3560 N   0  0  0  0  0  0  0  0  0  0  0  0
    1.9355   -2.1098  -15.0975 C   0  0  0  0  0  0  0  0  0  0  0  0
    1.1602   -2.9478  -14.6520 O   0  0  0  0  0  0  0  0  0  0  0  0
    2.2976   -2.0772  -16.4406 N   0  0  0  0  0  0  0  0  0  0  0  0
    1.7437   -3.0324  -17.3297 C   0  0  0  0  0  0  0  0  0  0  0  0
    0.3700   -3.3184  -17.3280 C   0  0  0  0  0  0  0  0  0  0  0  0
   -0.1490   -4.3385  -18.1259 C   0  0  0  0  0  0  0  0  0  0  0  0
    0.7145   -5.0738  -18.9263 C   0  0  0  0  0  0  0  0  0  0  0  0
    0.2284   -6.0786  -19.6673 F   0  0  0  0  0  0  0  0  0  0  0  0
    2.0733   -4.7769  -18.9510 C   0  0  0  0  0  0  0  0  0  0  0  0
    2.9058   -5.5089  -19.7045 F   0  0  0  0  0  0  0  0  0  0  0  0
    2.5947   -3.7425  -18.1764 C   0  0  0  0  0  0  0  0  0  0  0  0
    3.2526    0.0016  -12.3135 C   0  0  0  0  0  0  0  0  0  0  0  0
    3.3220    0.0701  -10.9080 C   0  0  0  0  0  0  0  0  0  0  0  0
    2.6173   -3.2006   -8.2785 N   0  0  0  0  0  0  0  0  0  0  0  0
    2.3940   -4.1991   -7.4292 C   0  0  0  0  0  0  0  0  0  0  0  0
    2.2539   -4.0767   -6.1137 N   0  0  0  0  0  0  0  0  0  0  0  0
    2.3655   -2.8453   -5.6188 C   0  0  0  0  0  0  0  0  0  0  0  0
    2.2716   -2.7125   -4.2484 C   0  0  0  0  0  0  0  0  0  0  0  0
    4.0420   -3.4429    0.5028 C   0  0  0  0  0  0  0  0  0  0  0  0
    5.2290   -4.1131   -0.2032 C   0  0  0  0  0  0  0  0  0  0  0  0
    8.2949   -3.1832   -1.2403 H   0  0  0  0  0  0  0  0  0  0  0  0
    7.1202   -4.1669   -2.1390 H   0  0  0  0  0  0  0  0  0  0  0  0
    7.7796   -4.7332   -0.5893 H   0  0  0  0  0  0  0  0  0  0  0  0
    5.6799   -2.1625   -2.1494 H   0  0  0  0  0  0  0  0  0  0  0  0
    6.8064   -1.2654   -1.1369 H   0  0  0  0  0  0  0  0  0  0  0  0
    4.5256   -0.3398   -0.9482 H   0  0  0  0  0  0  0  0  0  0  0  0
    5.1426   -0.9096    0.5933 H   0  0  0  0  0  0  0  0  0  0  0  0
    2.8509   -1.6371    0.4082 H   0  0  0  0  0  0  0  0  0  0  0  0
    2.0122   -3.1138   -1.3590 H   0  0  0  0  0  0  0  0  0  0  0  0
    3.6063   -3.1102   -2.1481 H   0  0  0  0  0  0  0  0  0  0  0  0
    2.7758    0.6258   -3.8934 H   0  0  0  0  0  0  0  0  0  0  0  0
    2.8402    0.4671   -6.3499 H   0  0  0  0  0  0  0  0  0  0  0  0
    3.5125   -0.1952   -8.3730 H   0  0  0  0  0  0  0  0  0  0  0  0
    1.4479   -2.6578  -10.1930 H   0  0  0  0  0  0  0  0  0  0  0  0
    1.3854   -2.8341  -12.5365 H   0  0  0  0  0  0  0  0  0  0  0  0
    3.0466   -0.3992  -14.8640 H   0  0  0  0  0  0  0  0  0  0  0  0
    3.2613   -1.8201  -16.5992 H   0  0  0  0  0  0  0  0  0  0  0  0
   -0.3098   -2.7653  -16.6770 H   0  0  0  0  0  0  0  0  0  0  0  0
   -1.2079   -4.5754  -18.1058 H   0  0  0  0  0  0  0  0  0  0  0  0
    3.6640   -3.5658  -18.1910 H   0  0  0  0  0  0  0  0  0  0  0  0
    3.7401    0.7776  -12.8972 H   0  0  0  0  0  0  0  0  0  0  0  0
    3.8592    0.8980  -10.4525 H   0  0  0  0  0  0  0  0  0  0  0  0
    2.3118   -5.1953   -7.8483 H   0  0  0  0  0  0  0  0  0  0  0  0
    2.0665   -3.6149   -3.6776 H   0  0  0  0  0  0  0  0  0  0  0  0
    3.2102   -4.1551    0.5761 H   0  0  0  0  0  0  0  0  0  0  0  0
    4.3327   -3.1922    1.5304 H   0  0  0  0  0  0  0  0  0  0  0  0
    4.9015   -4.5479   -1.1558 H   0  0  0  0  0  0  0  0  0  0  0  0
    5.5623   -4.9515    0.4209 H   0  0  0  0  0  0  0  0  0  0  0  0
  1  2  1  0  0  0  0
  1 39  1  0  0  0  0
  1 40  1  0  0  0  0
  1 41  1  0  0  0  0
  2  3  1  0  0  0  0
  2 38  1  0  0  0  0
  3  4  1  0  0  0  0
  3 42  1  0  0  0  0
  3 43  1  0  0  0  0
  4  5  1  0  0  0  0
  4 44  1  0  0  0  0
  4 45  1  0  0  0  0
  5  6  1  0  0  0  0
  5 37  1  0  0  0  0
  5 46  1  0  0  0  0
  6  7  1  0  0  0  0
  6 47  1  0  0  0  0
  6 48  1  0  0  0  0
  7  8  1  0  0  0  0
  8  9  1  0  0  0  0
  8 36  2  0  0  0  0
  9 10  2  0  0  0  0
  9 49  1  0  0  0  0
 10 11  1  0  0  0  0
 10 50  1  0  0  0  0
 11 12  1  0  0  0  0
 11 35  2  0  0  0  0
 12 13  1  0  0  0  0
 12 32  2  0  0  0  0
 13 14  1  0  0  0  0
 13 51  1  0  0  0  0
 14 15  1  0  0  0  0
 14 31  2  0  0  0  0
 15 16  2  0  0  0  0
 15 52  1  0  0  0  0
 16 17  1  0  0  0  0
 16 53  1  0  0  0  0
 17 18  1  0  0  0  0
 17 30  2  0  0  0  0
 18 19  1  0  0  0  0
 18 54  1  0  0  0  0
 19 20  2  0  0  0  0
 19 21  1  0  0  0  0
 21 22  1  0  0  0  0
 21 55  1  0  0  0  0
 22 23  1  0  0  0  0
 22 29  2  0  0  0  0
 23 24  2  0  0  0  0
 23 56  1  0  0  0  0
 24 25  1  0  0  0  0
 24 57  1  0  0  0  0
 25 26  1  0  0  0  0
 25 27  2  0  0  0  0
 27 28  1  0  0  0  0
 27 29  1  0  0  0  0
 29 58  1  0  0  0  0
 30 31  1  0  0  0  0
 30 59  1  0  0  0  0
 31 60  1  0  0  0  0
 32 33  1  0  0  0  0
 33 34  2  0  0  0  0
 33 61  1  0  0  0  0
 34 35  1  0  0  0  0
 35 36  1  0  0  0  0
 36 62  1  0  0  0  0
 37 38  1  0  0  0  0
 37 63  1  0  0  0  0
 37 64  1  0  0  0  0
 38 65  1  0  0  0  0
 38 66  1  0  0  0  0
M  END
$$$$
