CHEMBL3945845
 OpenBabel04072215373D

 61 65  0  0  0  0  0  0  0  0999 V2000
    2.0246   -0.8027   -0.7057 C   0  0  0  0  0  0  0  0  0  0  0  0
    1.8595    0.5585   -0.3354 O   0  0  0  0  0  0  0  0  0  0  0  0
    2.7950    1.4818   -0.7035 C   0  0  0  0  0  0  0  0  0  0  0  0
    2.5063    2.7643   -0.2553 C   0  0  0  0  0  0  0  0  0  0  0  0
    3.3426    3.8297   -0.5760 C   0  0  0  0  0  0  0  0  0  0  0  0
    3.1253    5.1269   -0.1956 O   0  0  0  0  0  0  0  0  0  0  0  0
    1.7974    5.4446    0.2111 C   0  0  0  0  0  0  0  0  0  0  0  0
    4.5277    3.6014   -1.2913 C   0  0  0  0  0  0  0  0  0  0  0  0
    4.9140    2.3150   -1.6838 C   0  0  0  0  0  0  0  0  0  0  0  0
    6.1718    2.0880   -2.3140 N   0  0  0  0  0  0  0  0  0  0  0  0
    6.5510    0.6560   -2.5485 C   0  0  0  0  0  0  0  0  0  0  0  0
    7.0712    0.0303   -1.3257 C   0  0  0  0  0  0  0  0  0  0  0  0
    7.5493   -0.4410   -0.3343 C   0  0  0  0  0  0  0  0  0  0  0  0
    8.1567   -0.8963    0.8666 C   0  0  0  0  0  0  0  0  0  0  0  0
    8.5025   -2.1446    1.0964 N   0  0  0  0  0  0  0  0  0  0  0  0
    9.0555   -2.1456    2.3551 C   0  0  0  0  0  0  0  0  0  0  0  0
    9.0253   -0.8844    2.9036 C   0  0  0  0  0  0  0  0  0  0  0  0
    8.4700   -0.0967    1.9346 N   0  0  0  0  0  0  0  0  0  0  0  0
    8.2907    1.3330    1.9900 C   0  0  0  0  0  0  0  0  0  0  0  0
    7.2812    2.9560   -2.6229 C   0  0  0  0  0  0  0  0  0  0  0  0
    7.7992    2.8195   -3.9068 C   0  0  0  0  0  0  0  0  0  0  0  0
    9.1306    3.0764   -4.1483 C   0  0  0  0  0  0  0  0  0  0  0  0
    9.9345    3.6586   -3.2115 C   0  0  0  0  0  0  0  0  0  0  0  0
   11.2255    3.6326   -3.5113 N   0  0  0  0  0  0  0  0  0  0  0  0
   12.0332    4.4019   -2.7714 C   0  0  0  0  0  0  0  0  0  0  0  0
   11.5316    5.2865   -1.8414 C   0  0  0  0  0  0  0  0  0  0  0  0
   12.3308    6.5123   -1.6947 C   0  0  0  0  0  0  0  0  0  0  0  0
   13.1212    7.0602   -0.6602 C   0  0  0  0  0  0  0  0  0  0  0  0
   13.8435    8.1188   -1.0452 N   0  0  0  0  0  0  0  0  0  0  0  0
   13.5161    8.2770   -2.3404 N   0  0  0  0  0  0  0  0  0  0  0  0
   13.9571    9.4387   -3.0836 C   0  0  0  0  0  0  0  0  0  0  0  0
   12.7094    7.2763   -2.8018 C   0  0  0  0  0  0  0  0  0  0  0  0
   10.2255    5.1735   -1.3913 N   0  0  0  0  0  0  0  0  0  0  0  0
    9.3827    4.2554   -2.0506 C   0  0  0  0  0  0  0  0  0  0  0  0
    8.0299    3.7875   -1.7368 C   0  0  0  0  0  0  0  0  0  0  0  0
    3.9651    1.2747   -1.4435 C   0  0  0  0  0  0  0  0  0  0  0  0
    1.3626   -1.3989   -0.0659 H   0  0  0  0  0  0  0  0  0  0  0  0
    3.0420   -1.1671   -0.5431 H   0  0  0  0  0  0  0  0  0  0  0  0
    1.7066   -0.9524   -1.7415 H   0  0  0  0  0  0  0  0  0  0  0  0
    1.6178    2.8872    0.3534 H   0  0  0  0  0  0  0  0  0  0  0  0
    1.7823    6.4962    0.5090 H   0  0  0  0  0  0  0  0  0  0  0  0
    1.4817    4.8626    1.0833 H   0  0  0  0  0  0  0  0  0  0  0  0
    1.0986    5.3145   -0.6225 H   0  0  0  0  0  0  0  0  0  0  0  0
    5.1489    4.4560   -1.5403 H   0  0  0  0  0  0  0  0  0  0  0  0
    7.3253    0.5421   -3.3175 H   0  0  0  0  0  0  0  0  0  0  0  0
    5.7228    0.0791   -2.9747 H   0  0  0  0  0  0  0  0  0  0  0  0
    9.4444   -3.0525    2.7993 H   0  0  0  0  0  0  0  0  0  0  0  0
    9.3539   -0.4983    3.8589 H   0  0  0  0  0  0  0  0  0  0  0  0
    8.6063    1.7034    2.9679 H   0  0  0  0  0  0  0  0  0  0  0  0
    7.2342    1.5632    1.8285 H   0  0  0  0  0  0  0  0  0  0  0  0
    8.9071    1.7839    1.2070 H   0  0  0  0  0  0  0  0  0  0  0  0
    7.2144    2.3465   -4.6930 H   0  0  0  0  0  0  0  0  0  0  0  0
    9.5659    2.8052   -5.0982 H   0  0  0  0  0  0  0  0  0  0  0  0
   13.0813    4.3944   -3.0555 H   0  0  0  0  0  0  0  0  0  0  0  0
   13.2395    6.7102    0.3597 H   0  0  0  0  0  0  0  0  0  0  0  0
   14.3194   10.2032   -2.3903 H   0  0  0  0  0  0  0  0  0  0  0  0
   13.1010    9.8346   -3.6383 H   0  0  0  0  0  0  0  0  0  0  0  0
   14.7524    9.1515   -3.7769 H   0  0  0  0  0  0  0  0  0  0  0  0
   12.4725    7.1932   -3.8522 H   0  0  0  0  0  0  0  0  0  0  0  0
    7.6115    4.0432   -0.7635 H   0  0  0  0  0  0  0  0  0  0  0  0
    4.1262    0.2739   -1.8227 H   0  0  0  0  0  0  0  0  0  0  0  0
  1  2  1  0  0  0  0
  1 37  1  0  0  0  0
  1 38  1  0  0  0  0
  1 39  1  0  0  0  0
  2  3  1  0  0  0  0
  3  4  1  0  0  0  0
  3 36  2  0  0  0  0
  4  5  2  0  0  0  0
  4 40  1  0  0  0  0
  5  6  1  0  0  0  0
  5  8  1  0  0  0  0
  6  7  1  0  0  0  0
  7 41  1  0  0  0  0
  7 42  1  0  0  0  0
  7 43  1  0  0  0  0
  8  9  2  0  0  0  0
  8 44  1  0  0  0  0
  9 10  1  0  0  0  0
  9 36  1  0  0  0  0
 10 11  1  0  0  0  0
 10 20  1  0  0  0  0
 11 12  1  0  0  0  0
 11 45  1  0  0  0  0
 11 46  1  0  0  0  0
 12 13  3  0  0  0  0
 13 14  1  0  0  0  0
 14 15  2  0  0  0  0
 14 18  1  0  0  0  0
 15 16  1  0  0  0  0
 16 17  2  0  0  0  0
 16 47  1  0  0  0  0
 17 18  1  0  0  0  0
 17 48  1  0  0  0  0
 18 19  1  0  0  0  0
 19 49  1  0  0  0  0
 19 50  1  0  0  0  0
 19 51  1  0  0  0  0
 20 21  1  0  0  0  0
 20 35  2  0  0  0  0
 21 22  2  0  0  0  0
 21 52  1  0  0  0  0
 22 23  1  0  0  0  0
 22 53  1  0  0  0  0
 23 24  1  0  0  0  0
 23 34  2  0  0  0  0
 24 25  2  0  0  0  0
 25 26  1  0  0  0  0
 25 54  1  0  0  0  0
 26 27  1  0  0  0  0
 26 33  2  0  0  0  0
 27 28  1  0  0  0  0
 27 32  2  0  0  0  0
 28 29  2  0  0  0  0
 28 55  1  0  0  0  0
 29 30  1  0  0  0  0
 30 31  1  0  0  0  0
 30 32  1  0  0  0  0
 31 56  1  0  0  0  0
 31 57  1  0  0  0  0
 31 58  1  0  0  0  0
 32 59  1  0  0  0  0
 33 34  1  0  0  0  0
 34 35  1  0  0  0  0
 35 60  1  0  0  0  0
 36 61  1  0  0  0  0
M  END
$$$$
