CHEMBL3915607
 OpenBabel04072215373D

 60 64  0  0  0  0  0  0  0  0999 V2000
    7.4848    2.1094    0.3553 C   0  0  0  0  0  0  0  0  0  0  0  0
    6.8636    1.0707    1.2927 C   0  0  0  0  0  0  0  0  0  0  0  0
    5.4817    0.7152    1.0180 N   0  0  0  0  0  0  0  0  0  0  0  0
    4.7713    1.5920    0.2732 N   0  0  0  0  0  0  0  0  0  0  0  0
    3.6114    0.9876    0.0329 C   0  0  0  0  0  0  0  0  0  0  0  0
    2.6030    1.6265   -0.8522 C   0  0  0  0  0  0  0  0  0  0  0  0
    3.5505   -0.2432    0.7112 C   0  0  0  0  0  0  0  0  0  0  0  0
    4.7611   -0.4075    1.3934 C   0  0  0  0  0  0  0  0  0  0  0  0
    5.0622   -1.5754    2.2452 C   0  0  0  0  0  0  0  0  0  0  0  0
    4.2290   -2.4763    2.3365 O   0  0  0  0  0  0  0  0  0  0  0  0
    6.2811   -1.6345    2.9194 N   0  0  0  0  0  0  0  0  0  0  0  0
    6.7786   -2.6869    3.7533 C   0  0  0  0  0  0  0  0  0  0  0  0
    6.0453   -3.7983    4.1704 C   0  0  0  0  0  0  0  0  0  0  0  0
    6.6234   -4.7705    5.0107 C   0  0  0  0  0  0  0  0  0  0  0  0
    7.9558   -4.6705    5.4316 C   0  0  0  0  0  0  0  0  0  0  0  0
    8.7209   -3.5849    5.0107 C   0  0  0  0  0  0  0  0  0  0  0  0
   10.1210   -3.3330    5.4657 C   0  0  0  0  0  0  0  0  0  0  0  0
   10.4618   -2.1526    5.5665 O   0  0  0  0  0  0  0  0  0  0  0  0
   11.1489   -4.3691    5.8229 C   0  0  0  0  0  0  0  0  0  0  0  0
   11.1927   -5.6511    5.2726 C   0  0  0  0  0  0  0  0  0  0  0  0
   12.2515   -6.5421    5.5817 C   0  0  0  0  0  0  0  0  0  0  0  0
   13.2804   -6.1608    6.4768 C   0  0  0  0  0  0  0  0  0  0  0  0
   14.4516   -6.7377    7.0878 C   0  0  0  0  0  0  0  0  0  0  0  0
   14.9676   -8.0797    7.0287 C   0  0  0  0  0  0  0  0  0  0  0  0
   14.4449   -9.1447    6.4005 C   0  0  0  0  0  0  0  0  0  0  0  0
   14.9853  -10.5109    6.3966 C   0  0  0  0  0  0  0  0  0  0  0  0
   15.6969  -11.0675    7.4573 C   0  0  0  0  0  0  0  0  0  0  0  0
   16.0992  -12.4013    7.3743 C   0  0  0  0  0  0  0  0  0  0  0  0
   15.7779  -13.1401    6.2439 C   0  0  0  0  0  0  0  0  0  0  0  0
   15.0588  -12.5151    5.2401 C   0  0  0  0  0  0  0  0  0  0  0  0
   14.6490  -11.2288    5.2962 N   0  0  0  0  0  0  0  0  0  0  0  0
   15.0875   -5.8319    7.8494 N   0  0  0  0  0  0  0  0  0  0  0  0
   14.3432   -4.7245    7.7509 N   0  0  0  0  0  0  0  0  0  0  0  0
   13.2254   -4.8634    6.9771 C   0  0  0  0  0  0  0  0  0  0  0  0
   12.1964   -3.9566    6.6723 C   0  0  0  0  0  0  0  0  0  0  0  0
    8.1106   -2.5918    4.1994 C   0  0  0  0  0  0  0  0  0  0  0  0
    8.5404    2.2551    0.6060 H   0  0  0  0  0  0  0  0  0  0  0  0
    6.9883    3.0830    0.4364 H   0  0  0  0  0  0  0  0  0  0  0  0
    7.4275    1.7889   -0.6911 H   0  0  0  0  0  0  0  0  0  0  0  0
    6.8903    1.4404    2.3226 H   0  0  0  0  0  0  0  0  0  0  0  0
    7.4541    0.1566    1.2054 H   0  0  0  0  0  0  0  0  0  0  0  0
    2.9994    2.5364   -1.3188 H   0  0  0  0  0  0  0  0  0  0  0  0
    1.7059    1.9043   -0.2900 H   0  0  0  0  0  0  0  0  0  0  0  0
    2.3100    0.9462   -1.6583 H   0  0  0  0  0  0  0  0  0  0  0  0
    2.7266   -0.9459    0.7146 H   0  0  0  0  0  0  0  0  0  0  0  0
    6.9122   -0.8613    2.8134 H   0  0  0  0  0  0  0  0  0  0  0  0
    5.0035   -3.9333    3.8902 H   0  0  0  0  0  0  0  0  0  0  0  0
    6.0114   -5.6047    5.3524 H   0  0  0  0  0  0  0  0  0  0  0  0
    8.3530   -5.4170    6.1146 H   0  0  0  0  0  0  0  0  0  0  0  0
   10.4368   -5.9834    4.5658 H   0  0  0  0  0  0  0  0  0  0  0  0
   12.2715   -7.5151    5.1003 H   0  0  0  0  0  0  0  0  0  0  0  0
   15.8913   -8.2185    7.5906 H   0  0  0  0  0  0  0  0  0  0  0  0
   13.5457   -9.0588    5.8079 H   0  0  0  0  0  0  0  0  0  0  0  0
   15.9257  -10.4974    8.3513 H   0  0  0  0  0  0  0  0  0  0  0  0
   16.6485  -12.8645    8.1895 H   0  0  0  0  0  0  0  0  0  0  0  0
   16.0674  -14.1804    6.1473 H   0  0  0  0  0  0  0  0  0  0  0  0
   14.7765  -13.0497    4.3396 H   0  0  0  0  0  0  0  0  0  0  0  0
   14.6471   -3.8978    8.2537 H   0  0  0  0  0  0  0  0  0  0  0  0
   12.2176   -2.9469    7.0764 H   0  0  0  0  0  0  0  0  0  0  0  0
    8.7075   -1.7240    3.9229 H   0  0  0  0  0  0  0  0  0  0  0  0
  1  2  1  0  0  0  0
  1 37  1  0  0  0  0
  1 38  1  0  0  0  0
  1 39  1  0  0  0  0
  2  3  1  0  0  0  0
  2 40  1  0  0  0  0
  2 41  1  0  0  0  0
  3  4  1  0  0  0  0
  3  8  1  0  0  0  0
  4  5  2  0  0  0  0
  5  6  1  0  0  0  0
  5  7  1  0  0  0  0
  6 42  1  0  0  0  0
  6 43  1  0  0  0  0
  6 44  1  0  0  0  0
  7  8  2  0  0  0  0
  7 45  1  0  0  0  0
  8  9  1  0  0  0  0
  9 10  2  0  0  0  0
  9 11  1  0  0  0  0
 11 12  1  0  0  0  0
 11 46  1  0  0  0  0
 12 13  1  0  0  0  0
 12 36  2  0  0  0  0
 13 14  2  0  0  0  0
 13 47  1  0  0  0  0
 14 15  1  0  0  0  0
 14 48  1  0  0  0  0
 15 16  2  0  0  0  0
 15 49  1  0  0  0  0
 16 17  1  0  0  0  0
 16 36  1  0  0  0  0
 17 18  2  0  0  0  0
 17 19  1  0  0  0  0
 19 20  1  0  0  0  0
 19 35  2  0  0  0  0
 20 21  2  0  0  0  0
 20 50  1  0  0  0  0
 21 22  1  0  0  0  0
 21 51  1  0  0  0  0
 22 23  1  0  0  0  0
 22 34  2  0  0  0  0
 23 24  1  0  0  0  0
 23 32  2  0  0  0  0
 24 25  2  0  0  0  0
 24 52  1  0  0  0  0
 25 26  1  0  0  0  0
 25 53  1  0  0  0  0
 26 27  1  0  0  0  0
 26 31  2  0  0  0  0
 27 28  2  0  0  0  0
 27 54  1  0  0  0  0
 28 29  1  0  0  0  0
 28 55  1  0  0  0  0
 29 30  2  0  0  0  0
 29 56  1  0  0  0  0
 30 31  1  0  0  0  0
 30 57  1  0  0  0  0
 32 33  1  0  0  0  0
 33 34  1  0  0  0  0
 33 58  1  0  0  0  0
 34 35  1  0  0  0  0
 35 59  1  0  0  0  0
 36 60  1  0  0  0  0
M  END
$$$$
