CHEMBL3828009
 OpenBabel04072215373D

 49 52  0  0  1  0  0  0  0  0999 V2000
    1.6426    3.0383    0.4342 C   0  0  0  0  0  0  0  0  0  0  0  0
    2.1060    1.5732    0.3979 C   0  0  1  0  0  0  0  0  0  0  0  0
    3.0501    1.3052   -0.6521 O   0  0  0  0  0  0  0  0  0  0  0  0
    2.6807    1.5490   -1.9468 C   0  0  0  0  0  0  0  0  0  0  0  0
    1.3830    1.4082   -2.4376 C   0  0  0  0  0  0  0  0  0  0  0  0
    1.0881    1.6977   -3.7714 C   0  0  0  0  0  0  0  0  0  0  0  0
    2.1436    2.1235   -4.5825 C   0  0  0  0  0  0  0  0  0  0  0  0
    2.1639    2.4807   -5.8976 N   0  0  0  0  0  0  0  0  0  0  0  0
    3.3589    2.8587   -6.3464 N   0  0  0  0  0  0  0  0  0  0  0  0
    4.1775    2.7498   -5.2860 C   0  0  0  0  0  0  0  0  0  0  0  0
    5.5754    3.1283   -5.3702 C   0  0  0  0  0  0  0  0  0  0  0  0
    6.0863    3.6435   -6.5013 C   0  0  0  0  0  0  0  0  0  0  0  0
    7.3898    4.1095   -6.8321 C   0  0  0  0  0  0  0  0  0  0  0  0
    8.6170    4.2062   -6.1459 C   0  0  0  0  0  0  0  0  0  0  0  0
    9.5979    4.7192   -6.9118 N   0  0  0  0  0  0  0  0  0  0  0  0
    8.9820    4.9740   -8.0863 N   0  0  0  0  0  0  0  0  0  0  0  0
    9.6657    5.5216   -9.2453 C   0  0  0  0  0  0  0  0  0  0  0  0
   11.1345    5.8817   -9.0700 C   0  0  0  0  0  0  0  0  0  0  0  0
   11.9303    4.7292   -8.8128 O   0  0  0  0  0  0  0  0  0  0  0  0
    7.6655    4.6156   -8.0823 C   0  0  0  0  0  0  0  0  0  0  0  0
    3.4580    2.2635   -4.1420 C   0  0  0  0  0  0  0  0  0  0  0  0
    3.7326    1.9433   -2.7962 C   0  0  0  0  0  0  0  0  0  0  0  0
    2.7754    1.1817    1.7120 C   0  0  0  0  0  0  0  0  0  0  0  0
    2.1873    0.2410    2.5815 C   0  0  0  0  0  0  0  0  0  0  0  0
    0.6946   -0.5631    2.2506 Cl  0  0  0  0  0  0  0  0  0  0  0  0
    2.8216   -0.0734    3.7839 C   0  0  0  0  0  0  0  0  0  0  0  0
    3.9854    0.4722    4.1960 N   0  0  0  0  0  0  0  0  0  0  0  0
    4.5477    1.3641    3.3525 C   0  0  0  0  0  0  0  0  0  0  0  0
    4.0023    1.7413    2.1262 C   0  0  0  0  0  0  0  0  0  0  0  0
    4.9077    2.8839    1.1989 Cl  0  0  0  0  0  0  0  0  0  0  0  0
    0.9206    3.2375   -0.3647 H   0  0  0  0  0  0  0  0  0  0  0  0
    2.4651    3.7393    0.2680 H   0  0  0  0  0  0  0  0  0  0  0  0
    1.1546    3.2860    1.3826 H   0  0  0  0  0  0  0  0  0  0  0  0
    1.2275    0.9444    0.2361 H   0  0  0  0  0  0  0  0  0  0  0  0
    0.5683    1.0674   -1.8059 H   0  0  0  0  0  0  0  0  0  0  0  0
    0.0773    1.6001   -4.1556 H   0  0  0  0  0  0  0  0  0  0  0  0
    1.3819    2.4964   -6.5440 H   0  0  0  0  0  0  0  0  0  0  0  0
    6.1943    3.0002   -4.4856 H   0  0  0  0  0  0  0  0  0  0  0  0
    5.3834    3.7343   -7.3310 H   0  0  0  0  0  0  0  0  0  0  0  0
    8.8518    3.9254   -5.1270 H   0  0  0  0  0  0  0  0  0  0  0  0
    9.1044    6.4175   -9.5353 H   0  0  0  0  0  0  0  0  0  0  0  0
    9.5586    4.7700  -10.0364 H   0  0  0  0  0  0  0  0  0  0  0  0
   11.2906    6.6107   -8.2694 H   0  0  0  0  0  0  0  0  0  0  0  0
   11.5049    6.3235  -10.0020 H   0  0  0  0  0  0  0  0  0  0  0  0
   11.5998    4.3750   -7.9594 H   0  0  0  0  0  0  0  0  0  0  0  0
    7.0457    4.7433   -8.9586 H   0  0  0  0  0  0  0  0  0  0  0  0
    4.7409    2.0204   -2.4002 H   0  0  0  0  0  0  0  0  0  0  0  0
    2.3945   -0.7974    4.4741 H   0  0  0  0  0  0  0  0  0  0  0  0
    5.4876    1.7865    3.7001 H   0  0  0  0  0  0  0  0  0  0  0  0
  1  2  1  0  0  0  0
  1 31  1  0  0  0  0
  1 32  1  0  0  0  0
  1 33  1  0  0  0  0
  2  3  1  0  0  0  0
  2 23  1  0  0  0  0
  2 34  1  6  0  0  0
  3  4  1  0  0  0  0
  4  5  1  0  0  0  0
  4 22  2  0  0  0  0
  5  6  2  0  0  0  0
  5 35  1  0  0  0  0
  6  7  1  0  0  0  0
  6 36  1  0  0  0  0
  7  8  1  0  0  0  0
  7 21  2  0  0  0  0
  8  9  1  0  0  0  0
  8 37  1  0  0  0  0
  9 10  2  0  0  0  0
 10 11  1  0  0  0  0
 10 21  1  0  0  0  0
 11 12  2  0  0  0  0
 11 38  1  0  0  0  0
 12 13  1  0  0  0  0
 12 39  1  0  0  0  0
 13 14  1  0  0  0  0
 13 20  2  0  0  0  0
 14 15  2  0  0  0  0
 14 40  1  0  0  0  0
 15 16  1  0  0  0  0
 16 17  1  0  0  0  0
 16 20  1  0  0  0  0
 17 18  1  0  0  0  0
 17 41  1  0  0  0  0
 17 42  1  0  0  0  0
 18 19  1  0  0  0  0
 18 43  1  0  0  0  0
 18 44  1  0  0  0  0
 19 45  1  0  0  0  0
 20 46  1  0  0  0  0
 21 22  1  0  0  0  0
 22 47  1  0  0  0  0
 23 24  1  0  0  0  0
 23 29  2  0  0  0  0
 24 25  1  0  0  0  0
 24 26  2  0  0  0  0
 26 27  1  0  0  0  0
 26 48  1  0  0  0  0
 27 28  2  0  0  0  0
 28 29  1  0  0  0  0
 28 49  1  0  0  0  0
 29 30  1  0  0  0  0
M  END
$$$$
