CHEMBL401153
 OpenBabel04072215373D

 39 41  0  0  0  0  0  0  0  0999 V2000
    1.6938   -0.7061   -1.2510 O   0  0  0  0  0  0  0  0  0  0  0  0
    2.2295   -0.1357   -0.3054 C   0  0  0  0  0  0  0  0  0  0  0  0
    2.0310    1.1796    0.0682 N   0  0  0  0  0  0  0  0  0  0  0  0
    1.1310    2.0993   -0.5157 C   0  0  0  0  0  0  0  0  0  0  0  0
    0.2921    1.7902   -1.5895 C   0  0  0  0  0  0  0  0  0  0  0  0
   -0.5827    2.7446   -2.1201 C   0  0  0  0  0  0  0  0  0  0  0  0
   -0.6268    4.0233   -1.5768 C   0  0  0  0  0  0  0  0  0  0  0  0
    0.2013    4.3384   -0.5030 C   0  0  0  0  0  0  0  0  0  0  0  0
    0.1492    5.9205    0.1735 Cl  0  0  0  0  0  0  0  0  0  0  0  0
    1.0742    3.3865    0.0307 C   0  0  0  0  0  0  0  0  0  0  0  0
    3.1415   -0.9424    0.5505 C   0  0  0  0  0  0  0  0  0  0  0  0
    2.8980   -2.3271    0.5828 C   0  0  0  0  0  0  0  0  0  0  0  0
    3.6876   -3.1600    1.3610 C   0  0  0  0  0  0  0  0  0  0  0  0
    4.7010   -2.5768    2.0885 C   0  0  0  0  0  0  0  0  0  0  0  0
    4.9447   -1.2466    2.1024 N   0  0  0  0  0  0  0  0  0  0  0  0
    4.1722   -0.4256    1.3474 C   0  0  0  0  0  0  0  0  0  0  0  0
    4.4873    0.9625    1.3419 N   0  0  0  0  0  0  0  0  0  0  0  0
    5.3025    1.3288    2.5071 C   0  0  0  0  0  0  0  0  0  0  0  0
    5.7137    2.7838    2.5331 C   0  0  0  0  0  0  0  0  0  0  0  0
    5.0884    3.7912    1.7953 C   0  0  0  0  0  0  0  0  0  0  0  0
    5.5079    5.1020    1.9691 C   0  0  0  0  0  0  0  0  0  0  0  0
    6.4920    5.4784    2.8181 N   0  0  0  0  0  0  0  0  0  0  0  0
    7.0833    4.4972    3.5266 C   0  0  0  0  0  0  0  0  0  0  0  0
    6.7349    3.1605    3.4189 C   0  0  0  0  0  0  0  0  0  0  0  0
    2.5967    1.5077    0.8496 H   0  0  0  0  0  0  0  0  0  0  0  0
    0.2844    0.8038   -2.0456 H   0  0  0  0  0  0  0  0  0  0  0  0
   -1.2253    2.4783   -2.9552 H   0  0  0  0  0  0  0  0  0  0  0  0
   -1.3064    4.7626   -1.9920 H   0  0  0  0  0  0  0  0  0  0  0  0
    1.6991    3.6568    0.8766 H   0  0  0  0  0  0  0  0  0  0  0  0
    2.0793   -2.7534    0.0051 H   0  0  0  0  0  0  0  0  0  0  0  0
    3.5125   -4.2292    1.3951 H   0  0  0  0  0  0  0  0  0  0  0  0
    5.3683   -3.1778    2.7004 H   0  0  0  0  0  0  0  0  0  0  0  0
    5.0100    1.1293    0.4804 H   0  0  0  0  0  0  0  0  0  0  0  0
    6.2236    0.7317    2.5411 H   0  0  0  0  0  0  0  0  0  0  0  0
    4.7196    1.1466    3.4192 H   0  0  0  0  0  0  0  0  0  0  0  0
    4.2843    3.5771    1.1004 H   0  0  0  0  0  0  0  0  0  0  0  0
    5.0418    5.9170    1.4222 H   0  0  0  0  0  0  0  0  0  0  0  0
    7.8628    4.8213    4.2102 H   0  0  0  0  0  0  0  0  0  0  0  0
    7.2485    2.4240    4.0299 H   0  0  0  0  0  0  0  0  0  0  0  0
  1  2  2  0  0  0  0
  2  3  1  0  0  0  0
  2 11  1  0  0  0  0
  3  4  1  0  0  0  0
  3 25  1  0  0  0  0
  4  5  1  0  0  0  0
  4 10  2  0  0  0  0
  5  6  2  0  0  0  0
  5 26  1  0  0  0  0
  6  7  1  0  0  0  0
  6 27  1  0  0  0  0
  7  8  2  0  0  0  0
  7 28  1  0  0  0  0
  8  9  1  0  0  0  0
  8 10  1  0  0  0  0
 10 29  1  0  0  0  0
 11 12  1  0  0  0  0
 11 16  2  0  0  0  0
 12 13  2  0  0  0  0
 12 30  1  0  0  0  0
 13 14  1  0  0  0  0
 13 31  1  0  0  0  0
 14 15  2  0  0  0  0
 14 32  1  0  0  0  0
 15 16  1  0  0  0  0
 16 17  1  0  0  0  0
 17 18  1  0  0  0  0
 17 33  1  0  0  0  0
 18 19  1  0  0  0  0
 18 34  1  0  0  0  0
 18 35  1  0  0  0  0
 19 20  1  0  0  0  0
 19 24  2  0  0  0  0
 20 21  2  0  0  0  0
 20 36  1  0  0  0  0
 21 22  1  0  0  0  0
 21 37  1  0  0  0  0
 22 23  2  0  0  0  0
 23 24  1  0  0  0  0
 23 38  1  0  0  0  0
 24 39  1  0  0  0  0
M  END
$$$$
