CHEMBL1270795
 OpenBabel04072215363D

 36 39  0  0  0  0  0  0  0  0999 V2000
    1.3677   -0.5830    0.6144 C   0  0  0  0  0  0  0  0  0  0  0  0
    2.9084    0.0261   -0.1130 S   0  0  0  0  0  0  0  0  0  0  0  0
    3.2885   -1.3034   -1.1876 C   0  0  0  0  0  0  0  0  0  0  0  0
    3.9715   -1.0093   -2.3057 C   0  0  0  0  0  0  0  0  0  0  0  0
    4.2792   -2.0297   -3.1873 N   0  0  0  0  0  0  0  0  0  0  0  0
    4.8872   -2.0520   -4.4183 C   0  0  0  0  0  0  0  0  0  0  0  0
    5.4856   -0.9180   -5.1499 C   0  0  0  0  0  0  0  0  0  0  0  0
    6.0437    0.2782   -4.6578 C   0  0  0  0  0  0  0  0  0  0  0  0
    6.4491    1.0879   -5.6393 N   0  0  0  0  0  0  0  0  0  0  0  0
    6.1548    0.4032   -6.7569 N   0  0  0  0  0  0  0  0  0  0  0  0
    5.5903   -0.8163   -6.5153 C   0  0  0  0  0  0  0  0  0  0  0  0
    4.7844   -3.3651   -4.8401 C   0  0  0  0  0  0  0  0  0  0  0  0
    4.1789   -4.1557   -3.8880 N   0  0  0  0  0  0  0  0  0  0  0  0
    3.8843   -3.3136   -2.9226 C   0  0  0  0  0  0  0  0  0  0  0  0
    3.2206   -3.6017   -1.6653 C   0  0  0  0  0  0  0  0  0  0  0  0
    2.9165   -4.9016   -1.2981 N   0  0  0  0  0  0  0  0  0  0  0  0
    2.7534   -5.3545   -0.0274 C   0  0  0  0  0  0  0  0  0  0  0  0
    2.9081   -4.6711    1.1649 C   0  0  0  0  0  0  0  0  0  0  0  0
    2.6891   -5.5072    2.2942 C   0  0  0  0  0  0  0  0  0  0  0  0
    2.7982   -5.0542    3.7056 C   0  0  0  0  0  0  0  0  0  0  0  0
    2.3782   -6.7733    2.0222 N   0  0  0  0  0  0  0  0  0  0  0  0
    2.3570   -6.9745    0.3723 S   0  0  0  0  0  0  0  0  0  0  0  0
    2.9269   -2.5963   -0.8735 N   0  0  0  0  0  0  0  0  0  0  0  0
    1.0033    0.1461    1.3425 H   0  0  0  0  0  0  0  0  0  0  0  0
    1.5188   -1.5340    1.1326 H   0  0  0  0  0  0  0  0  0  0  0  0
    0.6071   -0.7084   -0.1615 H   0  0  0  0  0  0  0  0  0  0  0  0
    4.2670   -0.0031   -2.5646 H   0  0  0  0  0  0  0  0  0  0  0  0
    6.1981    0.5975   -3.6366 H   0  0  0  0  0  0  0  0  0  0  0  0
    6.3563    0.8356   -7.6525 H   0  0  0  0  0  0  0  0  0  0  0  0
    5.2740   -1.4581   -7.3244 H   0  0  0  0  0  0  0  0  0  0  0  0
    5.1471   -3.7933   -5.7674 H   0  0  0  0  0  0  0  0  0  0  0  0
    3.0314   -5.5827   -2.0442 H   0  0  0  0  0  0  0  0  0  0  0  0
    3.1845   -3.6292    1.2437 H   0  0  0  0  0  0  0  0  0  0  0  0
    3.0216   -3.9822    3.7562 H   0  0  0  0  0  0  0  0  0  0  0  0
    3.6042   -5.5864    4.2196 H   0  0  0  0  0  0  0  0  0  0  0  0
    1.8587   -5.2232    4.2389 H   0  0  0  0  0  0  0  0  0  0  0  0
  1  2  1  0  0  0  0
  1 24  1  0  0  0  0
  1 25  1  0  0  0  0
  1 26  1  0  0  0  0
  2  3  1  0  0  0  0
  3  4  2  0  0  0  0
  3 23  1  0  0  0  0
  4  5  1  0  0  0  0
  4 27  1  0  0  0  0
  5  6  1  0  0  0  0
  5 14  1  0  0  0  0
  6  7  1  0  0  0  0
  6 12  2  0  0  0  0
  7  8  1  0  0  0  0
  7 11  2  0  0  0  0
  8  9  2  0  0  0  0
  8 28  1  0  0  0  0
  9 10  1  0  0  0  0
 10 11  1  0  0  0  0
 10 29  1  0  0  0  0
 11 30  1  0  0  0  0
 12 13  1  0  0  0  0
 12 31  1  0  0  0  0
 13 14  2  0  0  0  0
 14 15  1  0  0  0  0
 15 16  1  0  0  0  0
 15 23  2  0  0  0  0
 16 17  1  0  0  0  0
 16 32  1  0  0  0  0
 17 18  2  0  0  0  0
 17 22  1  0  0  0  0
 18 19  1  0  0  0  0
 18 33  1  0  0  0  0
 19 20  1  0  0  0  0
 19 21  2  0  0  0  0
 20 34  1  0  0  0  0
 20 35  1  0  0  0  0
 20 36  1  0  0  0  0
 21 22  1  0  0  0  0
M  END
$$$$
