CHEMBL3321903
 OpenBabel04072215363D

 41 45  0  0  0  0  0  0  0  0999 V2000
   -1.8029    0.1695   -1.2164 Cl  0  0  0  0  0  0  0  0  0  0  0  0
   -0.2294    0.0963   -0.5241 C   0  0  0  0  0  0  0  0  0  0  0  0
    0.3369    1.2455    0.0250 C   0  0  0  0  0  0  0  0  0  0  0  0
    1.6130    1.1897    0.5834 C   0  0  0  0  0  0  0  0  0  0  0  0
    2.3161   -0.0182    0.5985 C   0  0  0  0  0  0  0  0  0  0  0  0
    1.7497   -1.1783    0.0535 C   0  0  0  0  0  0  0  0  0  0  0  0
    2.4682   -2.4490    0.0383 C   0  0  0  0  0  0  0  0  0  0  0  0
    2.3154   -3.4028   -0.8625 N   0  0  0  0  0  0  0  0  0  0  0  0
    3.1880   -4.3962   -0.5097 C   0  0  0  0  0  0  0  0  0  0  0  0
    3.4526   -5.6085   -1.1502 C   0  0  0  0  0  0  0  0  0  0  0  0
    4.4017   -6.4589   -0.5767 C   0  0  0  0  0  0  0  0  0  0  0  0
    5.0577   -6.1576    0.6323 C   0  0  0  0  0  0  0  0  0  0  0  0
    6.0379   -7.0387    1.1561 N   0  0  0  0  0  0  0  0  0  0  0  0
    6.0267   -8.4451    0.9683 C   0  0  0  0  0  0  0  0  0  0  0  0
    4.8281   -9.0514    0.8669 N   0  0  0  0  0  0  0  0  0  0  0  0
    4.8277  -10.3508    0.5831 C   0  0  0  0  0  0  0  0  0  0  0  0
    5.9080  -11.1088    0.3859 N   0  0  0  0  0  0  0  0  0  0  0  0
    7.0940  -10.5074    0.5164 C   0  0  0  0  0  0  0  0  0  0  0  0
    8.2361  -11.2586    0.2778 C   0  0  0  0  0  0  0  0  0  0  0  0
    9.5165  -10.7139    0.3937 C   0  0  0  0  0  0  0  0  0  0  0  0
    9.6683   -9.3845    0.7655 C   0  0  0  0  0  0  0  0  0  0  0  0
    8.5367   -8.6007    0.9880 C   0  0  0  0  0  0  0  0  0  0  0  0
    7.2359   -9.1527    0.8536 C   0  0  0  0  0  0  0  0  0  0  0  0
    4.8246   -4.9152    1.2482 C   0  0  0  0  0  0  0  0  0  0  0  0
    3.8764   -4.0734    0.6510 C   0  0  0  0  0  0  0  0  0  0  0  0
    3.3953   -2.8323    0.9804 N   0  0  0  0  0  0  0  0  0  0  0  0
    0.4711   -1.1083   -0.5169 C   0  0  0  0  0  0  0  0  0  0  0  0
   -0.2084    2.1876    0.0138 H   0  0  0  0  0  0  0  0  0  0  0  0
    2.0650    2.0891    0.9963 H   0  0  0  0  0  0  0  0  0  0  0  0
    3.3211   -0.0266    1.0137 H   0  0  0  0  0  0  0  0  0  0  0  0
    2.9400   -5.8738   -2.0669 H   0  0  0  0  0  0  0  0  0  0  0  0
    4.6179   -7.3910   -1.0981 H   0  0  0  0  0  0  0  0  0  0  0  0
    6.3106   -6.8241    2.1095 H   0  0  0  0  0  0  0  0  0  0  0  0
    3.8608  -10.8314    0.4923 H   0  0  0  0  0  0  0  0  0  0  0  0
    8.1246  -12.2992   -0.0223 H   0  0  0  0  0  0  0  0  0  0  0  0
   10.3869  -11.3317    0.1878 H   0  0  0  0  0  0  0  0  0  0  0  0
   10.6622   -8.9557    0.8632 H   0  0  0  0  0  0  0  0  0  0  0  0
    8.6648   -7.5539    1.2499 H   0  0  0  0  0  0  0  0  0  0  0  0
    5.3440   -4.6226    2.1524 H   0  0  0  0  0  0  0  0  0  0  0  0
    3.6587   -2.2949    1.7912 H   0  0  0  0  0  0  0  0  0  0  0  0
    0.0259   -1.9993   -0.9565 H   0  0  0  0  0  0  0  0  0  0  0  0
  1  2  1  0  0  0  0
  2  3  1  0  0  0  0
  2 27  2  0  0  0  0
  3  4  2  0  0  0  0
  3 28  1  0  0  0  0
  4  5  1  0  0  0  0
  4 29  1  0  0  0  0
  5  6  2  0  0  0  0
  5 30  1  0  0  0  0
  6  7  1  0  0  0  0
  6 27  1  0  0  0  0
  7  8  2  0  0  0  0
  7 26  1  0  0  0  0
  8  9  1  0  0  0  0
  9 10  1  0  0  0  0
  9 25  2  0  0  0  0
 10 11  2  0  0  0  0
 10 31  1  0  0  0  0
 11 12  1  0  0  0  0
 11 32  1  0  0  0  0
 12 13  1  0  0  0  0
 12 24  2  0  0  0  0
 13 14  1  0  0  0  0
 13 33  1  0  0  0  0
 14 15  1  0  0  0  0
 14 23  2  0  0  0  0
 15 16  2  0  0  0  0
 16 17  1  0  0  0  0
 16 34  1  0  0  0  0
 17 18  2  0  0  0  0
 18 19  1  0  0  0  0
 18 23  1  0  0  0  0
 19 20  2  0  0  0  0
 19 35  1  0  0  0  0
 20 21  1  0  0  0  0
 20 36  1  0  0  0  0
 21 22  2  0  0  0  0
 21 37  1  0  0  0  0
 22 23  1  0  0  0  0
 22 38  1  0  0  0  0
 24 25  1  0  0  0  0
 24 39  1  0  0  0  0
 25 26  1  0  0  0  0
 26 40  1  0  0  0  0
 27 41  1  0  0  0  0
M  END
$$$$
