CHEMBL424943
 OpenBabel04072215383D

 46 49  0  0  0  0  0  0  0  0999 V2000
   -1.0726    2.1159   -3.2065 N   0  0  0  0  0  0  0  0  0  0  0  0
   -1.3580    1.0102   -2.5050 C   0  0  0  0  0  0  0  0  0  0  0  0
   -1.7494   -0.0871   -3.1450 N   0  0  0  0  0  0  0  0  0  0  0  0
   -1.9468   -0.9730   -2.1686 N   0  0  0  0  0  0  0  0  0  0  0  0
   -1.6877   -0.4998   -0.9120 C   0  0  0  0  0  0  0  0  0  0  0  0
   -1.7803   -1.1472    0.3220 C   0  0  0  0  0  0  0  0  0  0  0  0
   -1.4286   -0.4185    1.4515 C   0  0  0  0  0  0  0  0  0  0  0  0
   -1.0059    0.9046    1.3408 C   0  0  0  0  0  0  0  0  0  0  0  0
   -0.9199    1.5758    0.0926 C   0  0  0  0  0  0  0  0  0  0  0  0
   -0.4563    2.9781    0.0342 C   0  0  0  0  0  0  0  0  0  0  0  0
    0.4431    3.3951   -0.9475 C   0  0  0  0  0  0  0  0  0  0  0  0
    0.8031    4.7367   -1.0930 C   0  0  0  0  0  0  0  0  0  0  0  0
    0.3652    5.7088   -0.1892 C   0  0  0  0  0  0  0  0  0  0  0  0
    0.7475    7.0662   -0.2905 N   0  0  0  0  0  0  0  0  0  0  0  0
    1.3949    7.6293   -1.3741 C   0  0  0  0  0  0  0  0  0  0  0  0
    1.5897    7.0756   -2.4525 O   0  0  0  0  0  0  0  0  0  0  0  0
    1.8615    8.9137   -1.1002 N   0  0  0  0  0  0  0  0  0  0  0  0
    2.5958    9.6252   -2.0798 C   0  0  0  0  0  0  0  0  0  0  0  0
    3.7857   10.2465   -1.7061 C   0  0  0  0  0  0  0  0  0  0  0  0
    4.5785   10.8731   -2.6713 C   0  0  0  0  0  0  0  0  0  0  0  0
    4.1597   10.9196   -4.0030 C   0  0  0  0  0  0  0  0  0  0  0  0
    2.9498   10.3283   -4.3902 C   0  0  0  0  0  0  0  0  0  0  0  0
    2.4786   10.3666   -5.8226 C   0  0  0  0  0  0  0  0  0  0  0  0
    3.3255   11.0404   -6.6534 F   0  0  0  0  0  0  0  0  0  0  0  0
    2.3355    9.1284   -6.3678 F   0  0  0  0  0  0  0  0  0  0  0  0
    1.2684   10.9784   -5.9577 F   0  0  0  0  0  0  0  0  0  0  0  0
    2.1750    9.6806   -3.4140 C   0  0  0  0  0  0  0  0  0  0  0  0
   -0.4462    5.2943    0.8675 C   0  0  0  0  0  0  0  0  0  0  0  0
   -0.8653    3.9520    0.9651 C   0  0  0  0  0  0  0  0  0  0  0  0
   -1.2790    0.8287   -1.0772 C   0  0  0  0  0  0  0  0  0  0  0  0
   -1.2648    2.0940   -4.2011 H   0  0  0  0  0  0  0  0  0  0  0  0
   -1.1090    3.0405   -2.7972 H   0  0  0  0  0  0  0  0  0  0  0  0
   -2.2590   -1.9015   -2.4250 H   0  0  0  0  0  0  0  0  0  0  0  0
   -2.1031   -2.1808    0.4009 H   0  0  0  0  0  0  0  0  0  0  0  0
   -1.4743   -0.8888    2.4311 H   0  0  0  0  0  0  0  0  0  0  0  0
   -0.7146    1.4231    2.2516 H   0  0  0  0  0  0  0  0  0  0  0  0
    0.8654    2.6818   -1.6519 H   0  0  0  0  0  0  0  0  0  0  0  0
    1.4406    4.9725   -1.9372 H   0  0  0  0  0  0  0  0  0  0  0  0
    0.3822    7.7027    0.4106 H   0  0  0  0  0  0  0  0  0  0  0  0
    2.1440    9.0481   -0.1412 H   0  0  0  0  0  0  0  0  0  0  0  0
    4.1509   10.1868   -0.6848 H   0  0  0  0  0  0  0  0  0  0  0  0
    5.5374   11.3051   -2.3890 H   0  0  0  0  0  0  0  0  0  0  0  0
    4.7950   11.4038   -4.7431 H   0  0  0  0  0  0  0  0  0  0  0  0
    1.2410    9.2026   -3.7151 H   0  0  0  0  0  0  0  0  0  0  0  0
   -0.7821    6.0001    1.6226 H   0  0  0  0  0  0  0  0  0  0  0  0
   -1.5256    3.6785    1.7868 H   0  0  0  0  0  0  0  0  0  0  0  0
  1  2  1  0  0  0  0
  1 31  1  0  0  0  0
  1 32  1  0  0  0  0
  2  3  2  0  0  0  0
  2 30  1  0  0  0  0
  3  4  1  0  0  0  0
  4  5  1  0  0  0  0
  4 33  1  0  0  0  0
  5  6  1  0  0  0  0
  5 30  2  0  0  0  0
  6  7  2  0  0  0  0
  6 34  1  0  0  0  0
  7  8  1  0  0  0  0
  7 35  1  0  0  0  0
  8  9  2  0  0  0  0
  8 36  1  0  0  0  0
  9 10  1  0  0  0  0
  9 30  1  0  0  0  0
 10 11  1  0  0  0  0
 10 29  2  0  0  0  0
 11 12  2  0  0  0  0
 11 37  1  0  0  0  0
 12 13  1  0  0  0  0
 12 38  1  0  0  0  0
 13 14  1  0  0  0  0
 13 28  2  0  0  0  0
 14 15  1  0  0  0  0
 14 39  1  0  0  0  0
 15 16  2  0  0  0  0
 15 17  1  0  0  0  0
 17 18  1  0  0  0  0
 17 40  1  0  0  0  0
 18 19  1  0  0  0  0
 18 27  2  0  0  0  0
 19 20  2  0  0  0  0
 19 41  1  0  0  0  0
 20 21  1  0  0  0  0
 20 42  1  0  0  0  0
 21 22  2  0  0  0  0
 21 43  1  0  0  0  0
 22 23  1  0  0  0  0
 22 27  1  0  0  0  0
 23 24  1  0  0  0  0
 23 25  1  0  0  0  0
 23 26  1  0  0  0  0
 27 44  1  0  0  0  0
 28 29  1  0  0  0  0
 28 45  1  0  0  0  0
 29 46  1  0  0  0  0
M  END
$$$$
