CHEMBL3694689
 OpenBabel04072215373D

 48 51  0  0  0  0  0  0  0  0999 V2000
    3.1189    1.5444    0.8999 O   0  0  0  0  0  0  0  0  0  0  0  0
    2.6990    0.9979   -0.1102 C   0  0  0  0  0  0  0  0  0  0  0  0
    1.5275    1.3998   -0.7173 N   0  0  0  0  0  0  0  0  0  0  0  0
    0.6960    2.4012   -0.0376 C   0  0  0  0  0  0  0  0  0  0  0  0
   -0.2412    1.8397    1.0403 C   0  0  0  0  0  0  0  0  0  0  0  0
   -0.1634    0.4902    1.1200 F   0  0  0  0  0  0  0  0  0  0  0  0
    0.0137    2.3488    2.2619 F   0  0  0  0  0  0  0  0  0  0  0  0
   -1.5286    2.1372    0.7343 F   0  0  0  0  0  0  0  0  0  0  0  0
    3.3022   -0.0211   -0.8126 N   0  0  0  0  0  0  0  0  0  0  0  0
    4.5138   -0.6613   -0.4691 C   0  0  0  0  0  0  0  0  0  0  0  0
    5.0912   -0.5740    0.7969 C   0  0  0  0  0  0  0  0  0  0  0  0
    6.3177   -1.1826    1.0443 C   0  0  0  0  0  0  0  0  0  0  0  0
    7.0175   -1.0884    2.6149 Cl  0  0  0  0  0  0  0  0  0  0  0  0
    6.9860   -1.8714    0.0347 C   0  0  0  0  0  0  0  0  0  0  0  0
    6.4140   -1.9970   -1.2389 C   0  0  0  0  0  0  0  0  0  0  0  0
    7.1163   -2.7708   -2.2695 C   0  0  0  0  0  0  0  0  0  0  0  0
    7.9212   -3.8911   -2.1056 C   0  0  0  0  0  0  0  0  0  0  0  0
    8.3910   -4.3739   -3.2916 N   0  0  0  0  0  0  0  0  0  0  0  0
    7.9071   -3.5621   -4.2020 C   0  0  0  0  0  0  0  0  0  0  0  0
    8.0800   -3.5745   -5.6118 C   0  0  0  0  0  0  0  0  0  0  0  0
    7.5760   -2.5921   -6.3945 C   0  0  0  0  0  0  0  0  0  0  0  0
    7.8428   -2.6140   -7.8604 C   0  0  0  0  0  0  0  0  0  0  0  0
    9.0219   -3.1146   -8.3762 C   0  0  0  0  0  0  0  0  0  0  0  0
    9.1693   -3.0659   -9.7388 C   0  0  0  0  0  0  0  0  0  0  0  0
    8.2414   -2.5503  -10.5599 N   0  0  0  0  0  0  0  0  0  0  0  0
    7.1173   -2.0564   -9.9924 C   0  0  0  0  0  0  0  0  0  0  0  0
    6.0494   -1.4412  -10.9090 C   0  0  0  0  0  0  0  0  0  0  0  0
    6.3862   -1.4471  -12.2351 F   0  0  0  0  0  0  0  0  0  0  0  0
    4.8458   -2.0862  -10.8407 F   0  0  0  0  0  0  0  0  0  0  0  0
    5.7818   -0.1325  -10.6133 F   0  0  0  0  0  0  0  0  0  0  0  0
    6.8907   -2.0709   -8.6511 N   0  0  0  0  0  0  0  0  0  0  0  0
    6.7795   -1.5287   -5.7592 C   0  0  0  0  0  0  0  0  0  0  0  0
    6.6075   -1.5134   -4.4264 C   0  0  0  0  0  0  0  0  0  0  0  0
    7.1532   -2.5331   -3.6420 N   0  0  0  0  0  0  0  0  0  0  0  0
    5.1559   -1.4155   -1.4625 C   0  0  0  0  0  0  0  0  0  0  0  0
    1.0270    0.6732   -1.2090 H   0  0  0  0  0  0  0  0  0  0  0  0
    0.1077    2.8907   -0.8204 H   0  0  0  0  0  0  0  0  0  0  0  0
    1.3458    3.1656    0.4046 H   0  0  0  0  0  0  0  0  0  0  0  0
    2.9601   -0.1612   -1.7515 H   0  0  0  0  0  0  0  0  0  0  0  0
    4.5977   -0.0500    1.6097 H   0  0  0  0  0  0  0  0  0  0  0  0
    7.9546   -2.3153    0.2546 H   0  0  0  0  0  0  0  0  0  0  0  0
    8.1729   -4.3870   -1.1759 H   0  0  0  0  0  0  0  0  0  0  0  0
    8.6516   -4.4089   -6.0046 H   0  0  0  0  0  0  0  0  0  0  0  0
    9.8141   -3.5185   -7.7589 H   0  0  0  0  0  0  0  0  0  0  0  0
   10.0648   -3.4439  -10.2211 H   0  0  0  0  0  0  0  0  0  0  0  0
    6.3506   -0.7558   -6.3909 H   0  0  0  0  0  0  0  0  0  0  0  0
    6.0608   -0.7211   -3.9368 H   0  0  0  0  0  0  0  0  0  0  0  0
    4.6642   -1.5477   -2.4221 H   0  0  0  0  0  0  0  0  0  0  0  0
  1  2  2  0  0  0  0
  2  3  1  0  0  0  0
  2  9  1  0  0  0  0
  3  4  1  0  0  0  0
  3 36  1  0  0  0  0
  4  5  1  0  0  0  0
  4 37  1  0  0  0  0
  4 38  1  0  0  0  0
  5  6  1  0  0  0  0
  5  7  1  0  0  0  0
  5  8  1  0  0  0  0
  9 10  1  0  0  0  0
  9 39  1  0  0  0  0
 10 11  1  0  0  0  0
 10 35  2  0  0  0  0
 11 12  2  0  0  0  0
 11 40  1  0  0  0  0
 12 13  1  0  0  0  0
 12 14  1  0  0  0  0
 14 15  2  0  0  0  0
 14 41  1  0  0  0  0
 15 16  1  0  0  0  0
 15 35  1  0  0  0  0
 16 17  2  0  0  0  0
 16 34  1  0  0  0  0
 17 18  1  0  0  0  0
 17 42  1  0  0  0  0
 18 19  2  0  0  0  0
 19 20  1  0  0  0  0
 19 34  1  0  0  0  0
 20 21  2  0  0  0  0
 20 43  1  0  0  0  0
 21 22  1  0  0  0  0
 21 32  1  0  0  0  0
 22 23  1  0  0  0  0
 22 31  2  0  0  0  0
 23 24  2  0  0  0  0
 23 44  1  0  0  0  0
 24 25  1  0  0  0  0
 24 45  1  0  0  0  0
 25 26  2  0  0  0  0
 26 27  1  0  0  0  0
 26 31  1  0  0  0  0
 27 28  1  0  0  0  0
 27 29  1  0  0  0  0
 27 30  1  0  0  0  0
 32 33  2  0  0  0  0
 32 46  1  0  0  0  0
 33 34  1  0  0  0  0
 33 47  1  0  0  0  0
 35 48  1  0  0  0  0
M  END
$$$$
