CHEMBL3690481
 OpenBabel04072215373D

 31 33  0  0  0  0  0  0  0  0999 V2000
    1.1804    0.2977    0.0590 N   0  0  0  0  0  0  0  0  0  0  0  0
    2.4896    0.0112   -0.1940 C   0  0  0  0  0  0  0  0  0  0  0  0
    2.8183   -1.1483   -0.4035 O   0  0  0  0  0  0  0  0  0  0  0  0
    3.2805    1.1310   -0.1419 N   0  0  0  0  0  0  0  0  0  0  0  0
    4.6733    1.1801   -0.3634 C   0  0  0  0  0  0  0  0  0  0  0  0
    5.3780    0.1305   -0.9521 C   0  0  0  0  0  0  0  0  0  0  0  0
    6.7647    0.1816   -1.0487 C   0  0  0  0  0  0  0  0  0  0  0  0
    7.4549    1.2945   -0.5760 C   0  0  0  0  0  0  0  0  0  0  0  0
    6.7712    2.4147   -0.0857 C   0  0  0  0  0  0  0  0  0  0  0  0
    7.4932    3.6279    0.3274 C   0  0  0  0  0  0  0  0  0  0  0  0
    7.2197    4.5114    1.3620 C   0  0  0  0  0  0  0  0  0  0  0  0
    8.1541    5.5094    1.4562 N   0  0  0  0  0  0  0  0  0  0  0  0
    9.0101    5.2721    0.4912 C   0  0  0  0  0  0  0  0  0  0  0  0
   10.1975    5.9664    0.1140 C   0  0  0  0  0  0  0  0  0  0  0  0
   10.9211    5.5384   -0.9369 C   0  0  0  0  0  0  0  0  0  0  0  0
   12.3653    6.3510   -1.4102 Cl  0  0  0  0  0  0  0  0  0  0  0  0
   10.5021    4.3916   -1.7229 C   0  0  0  0  0  0  0  0  0  0  0  0
    9.3736    3.7452   -1.3848 C   0  0  0  0  0  0  0  0  0  0  0  0
    8.6415    4.1555   -0.2645 N   0  0  0  0  0  0  0  0  0  0  0  0
    5.3716    2.3333    0.0341 C   0  0  0  0  0  0  0  0  0  0  0  0
    0.5893   -0.5181   -0.0532 H   0  0  0  0  0  0  0  0  0  0  0  0
    0.8082    1.1341   -0.3648 H   0  0  0  0  0  0  0  0  0  0  0  0
    2.8583    1.9286    0.3100 H   0  0  0  0  0  0  0  0  0  0  0  0
    4.8740   -0.7534   -1.3308 H   0  0  0  0  0  0  0  0  0  0  0  0
    7.3073   -0.6567   -1.4772 H   0  0  0  0  0  0  0  0  0  0  0  0
    8.5404    1.2605   -0.5954 H   0  0  0  0  0  0  0  0  0  0  0  0
    6.3981    4.4649    2.0661 H   0  0  0  0  0  0  0  0  0  0  0  0
   10.4908    6.8317    0.6980 H   0  0  0  0  0  0  0  0  0  0  0  0
   11.0970    4.0789   -2.5747 H   0  0  0  0  0  0  0  0  0  0  0  0
    9.0099    2.9081   -1.9619 H   0  0  0  0  0  0  0  0  0  0  0  0
    4.8220    3.1717    0.4559 H   0  0  0  0  0  0  0  0  0  0  0  0
  1  2  1  0  0  0  0
  1 21  1  0  0  0  0
  1 22  1  0  0  0  0
  2  3  2  0  0  0  0
  2  4  1  0  0  0  0
  4  5  1  0  0  0  0
  4 23  1  0  0  0  0
  5  6  1  0  0  0  0
  5 20  2  0  0  0  0
  6  7  2  0  0  0  0
  6 24  1  0  0  0  0
  7  8  1  0  0  0  0
  7 25  1  0  0  0  0
  8  9  2  0  0  0  0
  8 26  1  0  0  0  0
  9 10  1  0  0  0  0
  9 20  1  0  0  0  0
 10 11  2  0  0  0  0
 10 19  1  0  0  0  0
 11 12  1  0  0  0  0
 11 27  1  0  0  0  0
 12 13  2  0  0  0  0
 13 14  1  0  0  0  0
 13 19  1  0  0  0  0
 14 15  2  0  0  0  0
 14 28  1  0  0  0  0
 15 16  1  0  0  0  0
 15 17  1  0  0  0  0
 17 18  2  0  0  0  0
 17 29  1  0  0  0  0
 18 19  1  0  0  0  0
 18 30  1  0  0  0  0
 20 31  1  0  0  0  0
M  END
$$$$
