CHEMBL494903
 OpenBabel04072215383D

 63 67  0  0  0  0  0  0  0  0999 V2000
    9.9447   -2.2892    9.9474 C   0  0  0  0  0  0  0  0  0  0  0  0
    8.5155   -2.2271    9.9854 O   0  0  0  0  0  0  0  0  0  0  0  0
    7.8727   -2.8344    8.9409 C   0  0  0  0  0  0  0  0  0  0  0  0
    8.4127   -3.9819    8.3264 C   0  0  0  0  0  0  0  0  0  0  0  0
    7.8736   -4.5412    7.1754 C   0  0  0  0  0  0  0  0  0  0  0  0
    8.5221   -5.5747    6.6165 N   0  0  0  0  0  0  0  0  0  0  0  0
    8.0607   -6.0538    5.4425 C   0  0  0  0  0  0  0  0  0  0  0  0
    6.9650   -5.5370    4.7824 C   0  0  0  0  0  0  0  0  0  0  0  0
    6.2671   -4.4696    5.3623 C   0  0  0  0  0  0  0  0  0  0  0  0
    5.2038   -3.7795    4.5312 C   0  0  0  0  0  0  0  0  0  0  0  0
    4.1234   -4.6554    4.0837 N   0  0  0  0  0  0  0  0  0  0  0  0
    2.9327   -4.7306    4.9122 C   0  0  0  0  0  0  0  0  0  0  0  0
    2.0648   -5.9483    4.5976 C   0  0  0  0  0  0  0  0  0  0  0  0
    1.8024   -6.0795    3.1148 C   0  0  0  0  0  0  0  0  0  0  0  0
    0.6736   -6.7362    2.5626 C   0  0  0  0  0  0  0  0  0  0  0  0
   -0.3689   -7.4032    3.4095 C   0  0  0  0  0  0  0  0  0  0  0  0
   -0.6490   -6.9091    4.4931 O   0  0  0  0  0  0  0  0  0  0  0  0
   -0.9241   -8.5711    2.8914 N   0  0  0  0  0  0  0  0  0  0  0  0
   -1.9662   -9.3275    3.4812 C   0  0  0  0  0  0  0  0  0  0  0  0
   -2.7173   -8.8764    4.5642 C   0  0  0  0  0  0  0  0  0  0  0  0
   -3.7207   -9.6728    5.1202 C   0  0  0  0  0  0  0  0  0  0  0  0
   -3.9972  -10.9401    4.6047 C   0  0  0  0  0  0  0  0  0  0  0  0
   -5.2550  -11.8234    5.3861 Cl  0  0  0  0  0  0  0  0  0  0  0  0
   -3.2691  -11.4257    3.5159 C   0  0  0  0  0  0  0  0  0  0  0  0
   -3.4809  -12.7792    2.8934 C   0  0  0  0  0  0  0  0  0  0  0  0
   -4.3846  -13.5969    3.4921 F   0  0  0  0  0  0  0  0  0  0  0  0
   -3.8814  -12.6857    1.5924 F   0  0  0  0  0  0  0  0  0  0  0  0
   -2.3198  -13.4983    2.8590 F   0  0  0  0  0  0  0  0  0  0  0  0
   -2.2660  -10.5898    2.9493 C   0  0  0  0  0  0  0  0  0  0  0  0
    0.4789   -6.7321    1.1674 C   0  0  0  0  0  0  0  0  0  0  0  0
    1.4187   -6.1563    0.3151 C   0  0  0  0  0  0  0  0  0  0  0  0
    2.5757   -5.5986    0.8449 C   0  0  0  0  0  0  0  0  0  0  0  0
    2.7747   -5.5629    2.2318 C   0  0  0  0  0  0  0  0  0  0  0  0
    4.0492   -4.9696    2.7318 C   0  0  0  0  0  0  0  0  0  0  0  0
    4.9730   -4.7805    1.9454 O   0  0  0  0  0  0  0  0  0  0  0  0
    6.7182   -3.9667    6.6164 C   0  0  0  0  0  0  0  0  0  0  0  0
    6.1008   -2.9103    7.3250 C   0  0  0  0  0  0  0  0  0  0  0  0
    6.6637   -2.3289    8.4683 C   0  0  0  0  0  0  0  0  0  0  0  0
    5.9066   -1.2868    8.9106 O   0  0  0  0  0  0  0  0  0  0  0  0
    6.3008   -0.5264   10.0371 C   0  0  0  0  0  0  0  0  0  0  0  0
   10.3408   -1.3524   10.3527 H   0  0  0  0  0  0  0  0  0  0  0  0
   10.3552   -2.3929    8.9350 H   0  0  0  0  0  0  0  0  0  0  0  0
   10.2920   -3.1112   10.5817 H   0  0  0  0  0  0  0  0  0  0  0  0
    9.3081   -4.4527    8.7244 H   0  0  0  0  0  0  0  0  0  0  0  0
    8.6385   -6.8680    5.0147 H   0  0  0  0  0  0  0  0  0  0  0  0
    6.6885   -5.9259    3.8065 H   0  0  0  0  0  0  0  0  0  0  0  0
    5.7116   -3.3324    3.6671 H   0  0  0  0  0  0  0  0  0  0  0  0
    4.7367   -2.9338    5.0417 H   0  0  0  0  0  0  0  0  0  0  0  0
    2.3642   -3.8068    4.7416 H   0  0  0  0  0  0  0  0  0  0  0  0
    3.2309   -4.7547    5.9665 H   0  0  0  0  0  0  0  0  0  0  0  0
    1.1445   -5.7983    5.1638 H   0  0  0  0  0  0  0  0  0  0  0  0
    2.5471   -6.8650    4.9536 H   0  0  0  0  0  0  0  0  0  0  0  0
   -0.4943   -8.9658    2.0638 H   0  0  0  0  0  0  0  0  0  0  0  0
   -2.5601   -7.8968    5.0043 H   0  0  0  0  0  0  0  0  0  0  0  0
   -4.2817   -9.2864    5.9692 H   0  0  0  0  0  0  0  0  0  0  0  0
   -1.7036  -10.9658    2.0939 H   0  0  0  0  0  0  0  0  0  0  0  0
   -0.4245   -7.1487    0.7271 H   0  0  0  0  0  0  0  0  0  0  0  0
    1.2544   -6.1437   -0.7598 H   0  0  0  0  0  0  0  0  0  0  0  0
    3.3212   -5.1718    0.1751 H   0  0  0  0  0  0  0  0  0  0  0  0
    5.1553   -2.4984    6.9870 H   0  0  0  0  0  0  0  0  0  0  0  0
    5.6759    0.3736   10.0416 H   0  0  0  0  0  0  0  0  0  0  0  0
    7.3356   -0.1819    9.9752 H   0  0  0  0  0  0  0  0  0  0  0  0
    6.0998   -1.0707   10.9645 H   0  0  0  0  0  0  0  0  0  0  0  0
  1  2  1  0  0  0  0
  1 41  1  0  0  0  0
  1 42  1  0  0  0  0
  1 43  1  0  0  0  0
  2  3  1  0  0  0  0
  3  4  1  0  0  0  0
  3 38  2  0  0  0  0
  4  5  2  0  0  0  0
  4 44  1  0  0  0  0
  5  6  1  0  0  0  0
  5 36  1  0  0  0  0
  6  7  2  0  0  0  0
  7  8  1  0  0  0  0
  7 45  1  0  0  0  0
  8  9  2  0  0  0  0
  8 46  1  0  0  0  0
  9 10  1  0  0  0  0
  9 36  1  0  0  0  0
 10 11  1  0  0  0  0
 10 47  1  0  0  0  0
 10 48  1  0  0  0  0
 11 12  1  0  0  0  0
 11 34  1  0  0  0  0
 12 13  1  0  0  0  0
 12 49  1  0  0  0  0
 12 50  1  0  0  0  0
 13 14  1  0  0  0  0
 13 51  1  0  0  0  0
 13 52  1  0  0  0  0
 14 15  1  0  0  0  0
 14 33  2  0  0  0  0
 15 16  1  0  0  0  0
 15 30  2  0  0  0  0
 16 17  2  0  0  0  0
 16 18  1  0  0  0  0
 18 19  1  0  0  0  0
 18 53  1  0  0  0  0
 19 20  1  0  0  0  0
 19 29  2  0  0  0  0
 20 21  2  0  0  0  0
 20 54  1  0  0  0  0
 21 22  1  0  0  0  0
 21 55  1  0  0  0  0
 22 23  1  0  0  0  0
 22 24  2  0  0  0  0
 24 25  1  0  0  0  0
 24 29  1  0  0  0  0
 25 26  1  0  0  0  0
 25 27  1  0  0  0  0
 25 28  1  0  0  0  0
 29 56  1  0  0  0  0
 30 31  1  0  0  0  0
 30 57  1  0  0  0  0
 31 32  2  0  0  0  0
 31 58  1  0  0  0  0
 32 33  1  0  0  0  0
 32 59  1  0  0  0  0
 33 34  1  0  0  0  0
 34 35  2  0  0  0  0
 36 37  2  0  0  0  0
 37 38  1  0  0  0  0
 37 60  1  0  0  0  0
 38 39  1  0  0  0  0
 39 40  1  0  0  0  0
 40 61  1  0  0  0  0
 40 62  1  0  0  0  0
 40 63  1  0  0  0  0
M  END
$$$$
