CHEMBL499891
 OpenBabel04072215383D

 46 49  0  0  0  0  0  0  0  0999 V2000
    0.7930   -1.6418   -1.5397 N   0  0  0  0  0  0  0  0  0  0  0  0
    1.7707   -1.4113   -0.5936 C   0  0  0  0  0  0  0  0  0  0  0  0
    2.1620   -2.4468    0.1529 N   0  0  0  0  0  0  0  0  0  0  0  0
    3.1003   -2.1926    1.0806 C   0  0  0  0  0  0  0  0  0  0  0  0
    3.6410   -0.9481    1.2914 C   0  0  0  0  0  0  0  0  0  0  0  0
    3.1590    0.0557    0.4801 C   0  0  0  0  0  0  0  0  0  0  0  0
    3.6832    1.4236    0.6043 C   0  0  0  0  0  0  0  0  0  0  0  0
    3.2860    2.4375   -0.1804 C   0  0  0  0  0  0  0  0  0  0  0  0
    3.8666    3.7189   -0.0397 C   0  0  0  0  0  0  0  0  0  0  0  0
    3.6086    4.8426    0.7330 C   0  0  0  0  0  0  0  0  0  0  0  0
    2.5395    5.0277    1.7036 C   0  0  0  0  0  0  0  0  0  0  0  0
    2.7561    5.8473    2.8210 C   0  0  0  0  0  0  0  0  0  0  0  0
    1.7294    6.0923    3.7367 C   0  0  0  0  0  0  0  0  0  0  0  0
    0.4717    5.5239    3.5433 C   0  0  0  0  0  0  0  0  0  0  0  0
    0.2443    4.7047    2.4393 C   0  0  0  0  0  0  0  0  0  0  0  0
    1.2710    4.4591    1.5251 C   0  0  0  0  0  0  0  0  0  0  0  0
    4.5299    5.8352    0.4683 N   0  0  0  0  0  0  0  0  0  0  0  0
    5.2945    5.3579   -0.4837 C   0  0  0  0  0  0  0  0  0  0  0  0
    4.9395    4.0817   -0.8285 N   0  0  0  0  0  0  0  0  0  0  0  0
    5.6595    3.2686   -1.7992 C   0  0  0  0  0  0  0  0  0  0  0  0
    5.0170    3.2899   -3.1633 C   0  0  0  0  0  0  0  0  0  0  0  0
    4.9467    4.4758   -3.9101 C   0  0  0  0  0  0  0  0  0  0  0  0
    4.3714    4.4823   -5.1818 C   0  0  0  0  0  0  0  0  0  0  0  0
    3.8669    3.3021   -5.7262 C   0  0  0  0  0  0  0  0  0  0  0  0
    3.9354    2.1167   -4.9985 C   0  0  0  0  0  0  0  0  0  0  0  0
    4.5058    2.1092   -3.7234 C   0  0  0  0  0  0  0  0  0  0  0  0
    2.2207   -0.1636   -0.4636 N   0  0  0  0  0  0  0  0  0  0  0  0
    0.2568   -2.4558   -1.2740 H   0  0  0  0  0  0  0  0  0  0  0  0
    0.2810   -0.7874   -1.7075 H   0  0  0  0  0  0  0  0  0  0  0  0
    3.4161   -3.0504    1.6674 H   0  0  0  0  0  0  0  0  0  0  0  0
    4.3981   -0.7831    2.0453 H   0  0  0  0  0  0  0  0  0  0  0  0
    4.4416    1.5853    1.3653 H   0  0  0  0  0  0  0  0  0  0  0  0
    2.5273    2.3010   -0.9482 H   0  0  0  0  0  0  0  0  0  0  0  0
    3.7293    6.3104    2.9726 H   0  0  0  0  0  0  0  0  0  0  0  0
    1.9097    6.7379    4.5922 H   0  0  0  0  0  0  0  0  0  0  0  0
   -0.3326    5.7283    4.2439 H   0  0  0  0  0  0  0  0  0  0  0  0
   -0.7389    4.2690    2.2770 H   0  0  0  0  0  0  0  0  0  0  0  0
    1.0566    3.8436    0.6555 H   0  0  0  0  0  0  0  0  0  0  0  0
    6.1099    5.8888   -0.9575 H   0  0  0  0  0  0  0  0  0  0  0  0
    5.7302    2.2505   -1.4000 H   0  0  0  0  0  0  0  0  0  0  0  0
    6.6867    3.6465   -1.8659 H   0  0  0  0  0  0  0  0  0  0  0  0
    5.3344    5.4099   -3.5096 H   0  0  0  0  0  0  0  0  0  0  0  0
    4.3134    5.4089   -5.7473 H   0  0  0  0  0  0  0  0  0  0  0  0
    3.4184    3.3086   -6.7155 H   0  0  0  0  0  0  0  0  0  0  0  0
    3.5435    1.1957   -5.4228 H   0  0  0  0  0  0  0  0  0  0  0  0
    4.5446    1.1707   -3.1729 H   0  0  0  0  0  0  0  0  0  0  0  0
  1  2  1  0  0  0  0
  1 28  1  0  0  0  0
  1 29  1  0  0  0  0
  2  3  1  0  0  0  0
  2 27  2  0  0  0  0
  3  4  2  0  0  0  0
  4  5  1  0  0  0  0
  4 30  1  0  0  0  0
  5  6  2  0  0  0  0
  5 31  1  0  0  0  0
  6  7  1  0  0  0  0
  6 27  1  0  0  0  0
  7  8  2  0  0  0  0
  7 32  1  0  0  0  0
  8  9  1  0  0  0  0
  8 33  1  0  0  0  0
  9 10  2  0  0  0  0
  9 19  1  0  0  0  0
 10 11  1  0  0  0  0
 10 17  1  0  0  0  0
 11 12  1  0  0  0  0
 11 16  2  0  0  0  0
 12 13  2  0  0  0  0
 12 34  1  0  0  0  0
 13 14  1  0  0  0  0
 13 35  1  0  0  0  0
 14 15  2  0  0  0  0
 14 36  1  0  0  0  0
 15 16  1  0  0  0  0
 15 37  1  0  0  0  0
 16 38  1  0  0  0  0
 17 18  2  0  0  0  0
 18 19  1  0  0  0  0
 18 39  1  0  0  0  0
 19 20  1  0  0  0  0
 20 21  1  0  0  0  0
 20 40  1  0  0  0  0
 20 41  1  0  0  0  0
 21 22  1  0  0  0  0
 21 26  2  0  0  0  0
 22 23  2  0  0  0  0
 22 42  1  0  0  0  0
 23 24  1  0  0  0  0
 23 43  1  0  0  0  0
 24 25  2  0  0  0  0
 24 44  1  0  0  0  0
 25 26  1  0  0  0  0
 25 45  1  0  0  0  0
 26 46  1  0  0  0  0
M  END
$$$$
