CHEMBL69709
 OpenBabel04072215383D

 45 48  0  0  0  0  0  0  0  0999 V2000
    2.6491    0.7286    0.1168 C   0  0  0  0  0  0  0  0  0  0  0  0
    1.2129    0.3705    0.0468 C   0  0  0  0  0  0  0  0  0  0  0  0
    0.0748    1.1286   -0.0283 C   0  0  0  0  0  0  0  0  0  0  0  0
   -1.0396    0.2492   -0.0749 C   0  0  0  0  0  0  0  0  0  0  0  0
   -2.4785    0.6286   -0.1540 C   0  0  0  0  0  0  0  0  0  0  0  0
   -0.5279   -1.0436   -0.0358 C   0  0  0  0  0  0  0  0  0  0  0  0
   -1.2180   -2.2793   -0.0568 C   0  0  0  0  0  0  0  0  0  0  0  0
   -0.7684   -3.5396   -0.0132 C   0  0  0  0  0  0  0  0  0  0  0  0
    0.6362   -4.0750   -0.0015 C   0  0  0  0  0  0  0  0  0  0  0  0
    1.6719   -3.4296   -0.0226 O   0  0  0  0  0  0  0  0  0  0  0  0
    0.5020   -5.4509    0.0295 N   0  0  0  0  0  0  0  0  0  0  0  0
    1.5982   -6.3823   -0.0026 C   0  0  0  0  0  0  0  0  0  0  0  0
   -0.8459   -5.8349    0.0523 C   0  0  0  0  0  0  0  0  0  0  0  0
   -1.2769   -7.0963    0.0846 N   0  0  0  0  0  0  0  0  0  0  0  0
   -2.6130   -7.2068    0.0957 C   0  0  0  0  0  0  0  0  0  0  0  0
   -3.5033   -6.1910    0.0619 N   0  0  0  0  0  0  0  0  0  0  0  0
   -3.0233   -4.9307   -0.0060 C   0  0  0  0  0  0  0  0  0  0  0  0
   -3.9428   -3.8555   -0.0906 N   0  0  0  0  0  0  0  0  0  0  0  0
   -5.1599   -3.8613   -0.8114 C   0  0  0  0  0  0  0  0  0  0  0  0
   -6.2238   -3.0283   -0.4088 C   0  0  0  0  0  0  0  0  0  0  0  0
   -7.3999   -2.9819   -1.1648 C   0  0  0  0  0  0  0  0  0  0  0  0
   -7.5087   -3.7414   -2.3213 C   0  0  0  0  0  0  0  0  0  0  0  0
   -8.6477   -3.7006   -3.0242 F   0  0  0  0  0  0  0  0  0  0  0  0
   -6.4401   -4.5319   -2.7536 C   0  0  0  0  0  0  0  0  0  0  0  0
   -6.5462   -5.4486   -4.2033 Cl  0  0  0  0  0  0  0  0  0  0  0  0
   -5.2718   -4.5722   -2.0047 C   0  0  0  0  0  0  0  0  0  0  0  0
   -1.6619   -4.7093    0.0302 C   0  0  0  0  0  0  0  0  0  0  0  0
    0.8336   -0.9487    0.0497 N   0  0  0  0  0  0  0  0  0  0  0  0
    2.7883    1.8136    0.0922 H   0  0  0  0  0  0  0  0  0  0  0  0
    3.1895    0.2920   -0.7290 H   0  0  0  0  0  0  0  0  0  0  0  0
    3.0895    0.3440    1.0423 H   0  0  0  0  0  0  0  0  0  0  0  0
    0.0343    2.2146   -0.0490 H   0  0  0  0  0  0  0  0  0  0  0  0
   -2.6087    1.7153   -0.1782 H   0  0  0  0  0  0  0  0  0  0  0  0
   -3.0241    0.2419    0.7136 H   0  0  0  0  0  0  0  0  0  0  0  0
   -2.9367    0.2118   -1.0572 H   0  0  0  0  0  0  0  0  0  0  0  0
   -2.2903   -2.1241   -0.1163 H   0  0  0  0  0  0  0  0  0  0  0  0
    2.5502   -5.8432   -0.0252 H   0  0  0  0  0  0  0  0  0  0  0  0
    1.5283   -6.9992   -0.9031 H   0  0  0  0  0  0  0  0  0  0  0  0
    1.5734   -7.0134    0.8900 H   0  0  0  0  0  0  0  0  0  0  0  0
   -3.0257   -8.2109    0.1192 H   0  0  0  0  0  0  0  0  0  0  0  0
   -4.0939   -3.4572    0.8286 H   0  0  0  0  0  0  0  0  0  0  0  0
   -6.1500   -2.4148    0.4908 H   0  0  0  0  0  0  0  0  0  0  0  0
   -8.2314   -2.3481   -0.8638 H   0  0  0  0  0  0  0  0  0  0  0  0
   -4.4231   -5.1594   -2.3545 H   0  0  0  0  0  0  0  0  0  0  0  0
    1.4779   -1.7322    0.0950 H   0  0  0  0  0  0  0  0  0  0  0  0
  1  2  1  0  0  0  0
  1 29  1  0  0  0  0
  1 30  1  0  0  0  0
  1 31  1  0  0  0  0
  2  3  2  0  0  0  0
  2 28  1  0  0  0  0
  3  4  1  0  0  0  0
  3 32  1  0  0  0  0
  4  5  1  0  0  0  0
  4  6  2  0  0  0  0
  5 33  1  0  0  0  0
  5 34  1  0  0  0  0
  5 35  1  0  0  0  0
  6  7  1  0  0  0  0
  6 28  1  0  0  0  0
  7  8  2  0  0  0  0
  7 36  1  0  0  0  0
  8  9  1  0  0  0  0
  8 27  1  0  0  0  0
  9 10  2  0  0  0  0
  9 11  1  0  0  0  0
 11 12  1  0  0  0  0
 11 13  1  0  0  0  0
 12 37  1  0  0  0  0
 12 38  1  0  0  0  0
 12 39  1  0  0  0  0
 13 14  1  0  0  0  0
 13 27  2  0  0  0  0
 14 15  2  0  0  0  0
 15 16  1  0  0  0  0
 15 40  1  0  0  0  0
 16 17  2  0  0  0  0
 17 18  1  0  0  0  0
 17 27  1  0  0  0  0
 18 19  1  0  0  0  0
 18 41  1  0  0  0  0
 19 20  1  0  0  0  0
 19 26  2  0  0  0  0
 20 21  2  0  0  0  0
 20 42  1  0  0  0  0
 21 22  1  0  0  0  0
 21 43  1  0  0  0  0
 22 23  1  0  0  0  0
 22 24  2  0  0  0  0
 24 25  1  0  0  0  0
 24 26  1  0  0  0  0
 26 44  1  0  0  0  0
 28 45  1  0  0  0  0
M  END
$$$$
