CHEMBL1241300
 OpenBabel04072215363D

 30 32  0  0  0  0  0  0  0  0999 V2000
    0.9336   -0.0962    0.0340 C   0  0  0  0  0  0  0  0  0  0  0  0
    2.3513   -0.1308   -0.0332 O   0  0  0  0  0  0  0  0  0  0  0  0
    3.0061    1.0710   -0.0372 C   0  0  0  0  0  0  0  0  0  0  0  0
    2.3902    2.3246   -0.0524 C   0  0  0  0  0  0  0  0  0  0  0  0
    3.1616    3.4950   -0.0696 C   0  0  0  0  0  0  0  0  0  0  0  0
    4.5615    3.4321   -0.0486 C   0  0  0  0  0  0  0  0  0  0  0  0
    5.3622    4.6606   -0.0720 C   0  0  0  0  0  0  0  0  0  0  0  0
    4.9135    5.7719    0.5445 N   0  0  0  0  0  0  0  0  0  0  0  0
    5.8992    6.6687    0.3683 N   0  0  0  0  0  0  0  0  0  0  0  0
    6.9472    6.1986   -0.3603 C   0  0  0  0  0  0  0  0  0  0  0  0
    8.0546    6.8818   -0.6864 N   0  0  0  0  0  0  0  0  0  0  0  0
    8.8924    6.1246   -1.4148 C   0  0  0  0  0  0  0  0  0  0  0  0
    8.7128    4.8501   -1.8201 N   0  0  0  0  0  0  0  0  0  0  0  0
    7.5812    4.2096   -1.4717 C   0  0  0  0  0  0  0  0  0  0  0  0
    7.4481    2.9097   -1.9417 N   0  0  0  0  0  0  0  0  0  0  0  0
    6.6353    4.8923   -0.6880 C   0  0  0  0  0  0  0  0  0  0  0  0
    5.1719    2.1759    0.0127 C   0  0  0  0  0  0  0  0  0  0  0  0
    4.4042    1.0125   -0.0183 C   0  0  0  0  0  0  0  0  0  0  0  0
    5.0308   -0.2066   -0.0301 O   0  0  0  0  0  0  0  0  0  0  0  0
    0.5737   -1.1291    0.0375 H   0  0  0  0  0  0  0  0  0  0  0  0
    0.5109    0.4005   -0.8450 H   0  0  0  0  0  0  0  0  0  0  0  0
    0.5937    0.3794    0.9602 H   0  0  0  0  0  0  0  0  0  0  0  0
    1.3106    2.4321   -0.0527 H   0  0  0  0  0  0  0  0  0  0  0  0
    2.6579    4.4604   -0.0891 H   0  0  0  0  0  0  0  0  0  0  0  0
    5.8045    7.5931    0.7686 H   0  0  0  0  0  0  0  0  0  0  0  0
    9.8205    6.5934   -1.7180 H   0  0  0  0  0  0  0  0  0  0  0  0
    8.1297    2.7315   -2.6715 H   0  0  0  0  0  0  0  0  0  0  0  0
    6.4989    2.6335   -2.1674 H   0  0  0  0  0  0  0  0  0  0  0  0
    6.2508    2.0966    0.0959 H   0  0  0  0  0  0  0  0  0  0  0  0
    5.9925   -0.0738   -0.0388 H   0  0  0  0  0  0  0  0  0  0  0  0
  1  2  1  0  0  0  0
  1 20  1  0  0  0  0
  1 21  1  0  0  0  0
  1 22  1  0  0  0  0
  2  3  1  0  0  0  0
  3  4  1  0  0  0  0
  3 18  2  0  0  0  0
  4  5  2  0  0  0  0
  4 23  1  0  0  0  0
  5  6  1  0  0  0  0
  5 24  1  0  0  0  0
  6  7  1  0  0  0  0
  6 17  2  0  0  0  0
  7  8  2  0  0  0  0
  7 16  1  0  0  0  0
  8  9  1  0  0  0  0
  9 10  1  0  0  0  0
  9 25  1  0  0  0  0
 10 11  1  0  0  0  0
 10 16  2  0  0  0  0
 11 12  2  0  0  0  0
 12 13  1  0  0  0  0
 12 26  1  0  0  0  0
 13 14  2  0  0  0  0
 14 15  1  0  0  0  0
 14 16  1  0  0  0  0
 15 27  1  0  0  0  0
 15 28  1  0  0  0  0
 17 18  1  0  0  0  0
 17 29  1  0  0  0  0
 18 19  1  0  0  0  0
 19 30  1  0  0  0  0
M  END
$$$$
