CHEMBL3288516
 OpenBabel04072215363D

 47 51  0  0  0  0  0  0  0  0999 V2000
   -3.4926    3.0135    1.5002 N   0  0  0  0  0  0  0  0  0  0  0  0
   -3.2478    1.7027    1.3490 C   0  0  0  0  0  0  0  0  0  0  0  0
   -4.1399    0.8175    1.7796 N   0  0  0  0  0  0  0  0  0  0  0  0
   -3.6142   -0.3592    1.4336 N   0  0  0  0  0  0  0  0  0  0  0  0
   -2.4073   -0.2699    0.7925 C   0  0  0  0  0  0  0  0  0  0  0  0
   -1.6017   -1.2863    0.2752 C   0  0  0  0  0  0  0  0  0  0  0  0
   -0.4056   -0.9080   -0.3155 C   0  0  0  0  0  0  0  0  0  0  0  0
   -0.0323    0.4320   -0.3623 C   0  0  0  0  0  0  0  0  0  0  0  0
   -0.8427    1.4779    0.1567 C   0  0  0  0  0  0  0  0  0  0  0  0
   -0.3708    2.8815    0.0855 C   0  0  0  0  0  0  0  0  0  0  0  0
    0.4210    3.3402   -0.9768 C   0  0  0  0  0  0  0  0  0  0  0  0
    0.8857    4.6621   -1.0361 C   0  0  0  0  0  0  0  0  0  0  0  0
    0.4749    5.6395   -0.1004 C   0  0  0  0  0  0  0  0  0  0  0  0
    0.7904    7.0304   -0.1379 C   0  0  0  0  0  0  0  0  0  0  0  0
    1.6443    7.6914   -1.1730 C   0  0  0  0  0  0  0  0  0  0  0  0
    2.4259    8.5543   -0.7808 O   0  0  0  0  0  0  0  0  0  0  0  0
    1.4532    7.3060   -2.4863 N   0  0  0  0  0  0  0  0  0  0  0  0
    2.1325    7.8024   -3.6230 C   0  0  0  0  0  0  0  0  0  0  0  0
    3.0027    8.8967   -3.5920 C   0  0  0  0  0  0  0  0  0  0  0  0
    3.5961    9.3758   -4.7641 C   0  0  0  0  0  0  0  0  0  0  0  0
    3.3415    8.7501   -5.9811 C   0  0  0  0  0  0  0  0  0  0  0  0
    2.5017    7.6404   -6.0152 C   0  0  0  0  0  0  0  0  0  0  0  0
    2.2009    6.8485   -7.5141 Cl  0  0  0  0  0  0  0  0  0  0  0  0
    1.8953    7.1673   -4.8482 C   0  0  0  0  0  0  0  0  0  0  0  0
    0.3227    7.8928    0.8727 C   0  0  0  0  0  0  0  0  0  0  0  0
   -0.4538    7.4132    1.9186 C   0  0  0  0  0  0  0  0  0  0  0  0
   -0.7557    6.0588    1.9762 C   0  0  0  0  0  0  0  0  0  0  0  0
   -0.3022    5.1734    0.9875 C   0  0  0  0  0  0  0  0  0  0  0  0
   -0.6351    3.8120    1.0959 C   0  0  0  0  0  0  0  0  0  0  0  0
   -2.0938    1.0929    0.7411 C   0  0  0  0  0  0  0  0  0  0  0  0
   -4.4234    3.2404    1.8321 H   0  0  0  0  0  0  0  0  0  0  0  0
   -3.1505    3.6653    0.8045 H   0  0  0  0  0  0  0  0  0  0  0  0
   -4.1295   -1.1986    1.6593 H   0  0  0  0  0  0  0  0  0  0  0  0
   -1.8935   -2.3292    0.3306 H   0  0  0  0  0  0  0  0  0  0  0  0
    0.2534   -1.6649   -0.7334 H   0  0  0  0  0  0  0  0  0  0  0  0
    0.9362    0.6610   -0.8052 H   0  0  0  0  0  0  0  0  0  0  0  0
    0.7110    2.6691   -1.7836 H   0  0  0  0  0  0  0  0  0  0  0  0
    1.5773    4.8994   -1.8400 H   0  0  0  0  0  0  0  0  0  0  0  0
    0.7345    6.6177   -2.6672 H   0  0  0  0  0  0  0  0  0  0  0  0
    3.2251    9.4238   -2.6692 H   0  0  0  0  0  0  0  0  0  0  0  0
    4.2499   10.2430   -4.7199 H   0  0  0  0  0  0  0  0  0  0  0  0
    3.7979    9.1310   -6.8904 H   0  0  0  0  0  0  0  0  0  0  0  0
    1.2490    6.2965   -4.9060 H   0  0  0  0  0  0  0  0  0  0  0  0
    0.5731    8.9534    0.8444 H   0  0  0  0  0  0  0  0  0  0  0  0
   -0.8140    8.0883    2.6906 H   0  0  0  0  0  0  0  0  0  0  0  0
   -1.3654    5.6955    2.8030 H   0  0  0  0  0  0  0  0  0  0  0  0
   -1.1343    3.4740    2.0033 H   0  0  0  0  0  0  0  0  0  0  0  0
  1  2  1  0  0  0  0
  1 31  1  0  0  0  0
  1 32  1  0  0  0  0
  2  3  2  0  0  0  0
  2 30  1  0  0  0  0
  3  4  1  0  0  0  0
  4  5  1  0  0  0  0
  4 33  1  0  0  0  0
  5  6  1  0  0  0  0
  5 30  2  0  0  0  0
  6  7  2  0  0  0  0
  6 34  1  0  0  0  0
  7  8  1  0  0  0  0
  7 35  1  0  0  0  0
  8  9  2  0  0  0  0
  8 36  1  0  0  0  0
  9 10  1  0  0  0  0
  9 30  1  0  0  0  0
 10 11  1  0  0  0  0
 10 29  2  0  0  0  0
 11 12  2  0  0  0  0
 11 37  1  0  0  0  0
 12 13  1  0  0  0  0
 12 38  1  0  0  0  0
 13 14  1  0  0  0  0
 13 28  2  0  0  0  0
 14 15  1  0  0  0  0
 14 25  2  0  0  0  0
 15 16  2  0  0  0  0
 15 17  1  0  0  0  0
 17 18  1  0  0  0  0
 17 39  1  0  0  0  0
 18 19  1  0  0  0  0
 18 24  2  0  0  0  0
 19 20  2  0  0  0  0
 19 40  1  0  0  0  0
 20 21  1  0  0  0  0
 20 41  1  0  0  0  0
 21 22  2  0  0  0  0
 21 42  1  0  0  0  0
 22 23  1  0  0  0  0
 22 24  1  0  0  0  0
 24 43  1  0  0  0  0
 25 26  1  0  0  0  0
 25 44  1  0  0  0  0
 26 27  2  0  0  0  0
 26 45  1  0  0  0  0
 27 28  1  0  0  0  0
 27 46  1  0  0  0  0
 28 29  1  0  0  0  0
 29 47  1  0  0  0  0
M  END
$$$$
