CHEMBL472504
 OpenBabel04072215383D

 64 68  0  0  0  0  0  0  0  0999 V2000
    2.1169   -6.5701   -3.9273 C   0  0  0  0  0  0  0  0  0  0  0  0
    0.6196   -6.6284   -3.8324 C   0  0  0  0  0  0  0  0  0  0  0  0
   -0.0755   -7.5114   -4.6650 C   0  0  0  0  0  0  0  0  0  0  0  0
   -1.4576   -7.5834   -4.6020 C   0  0  0  0  0  0  0  0  0  0  0  0
   -2.1537   -6.7745   -3.7072 C   0  0  0  0  0  0  0  0  0  0  0  0
   -1.4985   -5.8853   -2.8485 C   0  0  0  0  0  0  0  0  0  0  0  0
   -2.2000   -5.0550   -1.9251 N   0  0  0  0  0  0  0  0  0  0  0  0
   -3.5676   -5.1044   -1.6858 C   0  0  0  0  0  0  0  0  0  0  0  0
   -4.3410   -5.9166   -2.1836 O   0  0  0  0  0  0  0  0  0  0  0  0
   -4.0136   -4.0887   -0.8397 N   0  0  0  0  0  0  0  0  0  0  0  0
   -5.4014   -4.0086   -0.5354 C   0  0  0  0  0  0  0  0  0  0  0  0
   -6.1212   -5.1466   -0.1485 C   0  0  0  0  0  0  0  0  0  0  0  0
   -7.5073   -5.0956    0.0212 C   0  0  0  0  0  0  0  0  0  0  0  0
   -8.1977   -3.9028   -0.2020 C   0  0  0  0  0  0  0  0  0  0  0  0
   -9.6630   -3.8905   -0.1270 C   0  0  0  0  0  0  0  0  0  0  0  0
  -10.4651   -4.1621   -1.3594 C   0  0  0  0  0  0  0  0  0  0  0  0
  -11.7620   -4.1855   -1.4556 N   0  0  0  0  0  0  0  0  0  0  0  0
  -12.4568   -3.9259   -0.3067 C   0  0  0  0  0  0  0  0  0  0  0  0
  -13.8120   -3.8136   -0.0539 C   0  0  0  0  0  0  0  0  0  0  0  0
  -14.9280   -3.9868   -0.9662 C   0  0  0  0  0  0  0  0  0  0  0  0
  -15.9619   -4.5295   -0.5790 O   0  0  0  0  0  0  0  0  0  0  0  0
  -14.8000   -3.5030   -2.2735 N   0  0  0  0  0  0  0  0  0  0  0  0
  -15.8802   -3.8078   -3.2110 C   0  0  0  0  0  0  0  0  0  0  0  0
  -15.4570   -3.6219   -4.6832 C   0  0  0  0  0  0  0  0  0  0  0  0
  -14.7909   -2.3367   -4.9883 N   0  0  0  0  0  0  0  0  0  0  0  0
  -15.7311   -1.2182   -4.9554 C   0  0  0  0  0  0  0  0  0  0  0  0
  -13.6774   -2.1383   -4.0380 C   0  0  0  0  0  0  0  0  0  0  0  0
  -14.0774   -2.2587   -2.5582 C   0  0  0  0  0  0  0  0  0  0  0  0
  -13.8857   -3.5645    1.3336 C   0  0  0  0  0  0  0  0  0  0  0  0
  -12.6904   -3.4543    1.9173 N   0  0  0  0  0  0  0  0  0  0  0  0
  -11.8016   -3.7079    0.9112 N   0  0  0  0  0  0  0  0  0  0  0  0
  -10.3803   -3.7066    1.0027 C   0  0  0  0  0  0  0  0  0  0  0  0
   -9.8299   -3.5017    2.2697 N   0  0  0  0  0  0  0  0  0  0  0  0
   -7.4743   -2.7502   -0.5460 C   0  0  0  0  0  0  0  0  0  0  0  0
   -6.0779   -2.7973   -0.6904 C   0  0  0  0  0  0  0  0  0  0  0  0
   -0.0968   -5.8170   -2.9227 C   0  0  0  0  0  0  0  0  0  0  0  0
    2.4907   -7.2589   -4.6952 H   0  0  0  0  0  0  0  0  0  0  0  0
    2.5725   -6.8616   -2.9769 H   0  0  0  0  0  0  0  0  0  0  0  0
    2.4446   -5.5643   -4.2048 H   0  0  0  0  0  0  0  0  0  0  0  0
    0.4516   -8.1479   -5.3711 H   0  0  0  0  0  0  0  0  0  0  0  0
   -2.0038   -8.2682   -5.2428 H   0  0  0  0  0  0  0  0  0  0  0  0
   -3.2317   -6.8817   -3.7171 H   0  0  0  0  0  0  0  0  0  0  0  0
   -1.6445   -4.4746   -1.3144 H   0  0  0  0  0  0  0  0  0  0  0  0
   -3.5230   -3.2126   -0.9428 H   0  0  0  0  0  0  0  0  0  0  0  0
   -5.6146   -6.0990   -0.0080 H   0  0  0  0  0  0  0  0  0  0  0  0
   -8.0421   -6.0032    0.2930 H   0  0  0  0  0  0  0  0  0  0  0  0
   -9.8799   -4.3615   -2.2711 H   0  0  0  0  0  0  0  0  0  0  0  0
  -16.7260   -3.1541   -2.9674 H   0  0  0  0  0  0  0  0  0  0  0  0
  -16.2133   -4.8413   -3.0578 H   0  0  0  0  0  0  0  0  0  0  0  0
  -16.3245   -3.7613   -5.3398 H   0  0  0  0  0  0  0  0  0  0  0  0
  -14.7566   -4.4262   -4.9463 H   0  0  0  0  0  0  0  0  0  0  0  0
  -16.5240   -1.3646   -5.6965 H   0  0  0  0  0  0  0  0  0  0  0  0
  -15.2204   -0.2863   -5.2224 H   0  0  0  0  0  0  0  0  0  0  0  0
  -16.2049   -1.0748   -3.9791 H   0  0  0  0  0  0  0  0  0  0  0  0
  -13.2027   -1.1650   -4.2114 H   0  0  0  0  0  0  0  0  0  0  0  0
  -12.9062   -2.8889   -4.2575 H   0  0  0  0  0  0  0  0  0  0  0  0
  -14.7433   -1.4372   -2.2683 H   0  0  0  0  0  0  0  0  0  0  0  0
  -13.1898   -2.1398   -1.9389 H   0  0  0  0  0  0  0  0  0  0  0  0
  -14.7789   -3.4349    1.9340 H   0  0  0  0  0  0  0  0  0  0  0  0
  -10.4924   -3.0569    2.9131 H   0  0  0  0  0  0  0  0  0  0  0  0
   -8.8891   -3.1226    2.2819 H   0  0  0  0  0  0  0  0  0  0  0  0
   -7.9947   -1.8149   -0.7433 H   0  0  0  0  0  0  0  0  0  0  0  0
   -5.5512   -1.9023   -1.0087 H   0  0  0  0  0  0  0  0  0  0  0  0
    0.4561   -5.1364   -2.2820 H   0  0  0  0  0  0  0  0  0  0  0  0
  1  2  1  0  0  0  0
  1 37  1  0  0  0  0
  1 38  1  0  0  0  0
  1 39  1  0  0  0  0
  2  3  1  0  0  0  0
  2 36  2  0  0  0  0
  3  4  2  0  0  0  0
  3 40  1  0  0  0  0
  4  5  1  0  0  0  0
  4 41  1  0  0  0  0
  5  6  2  0  0  0  0
  5 42  1  0  0  0  0
  6  7  1  0  0  0  0
  6 36  1  0  0  0  0
  7  8  1  0  0  0  0
  7 43  1  0  0  0  0
  8  9  2  0  0  0  0
  8 10  1  0  0  0  0
 10 11  1  0  0  0  0
 10 44  1  0  0  0  0
 11 12  1  0  0  0  0
 11 35  2  0  0  0  0
 12 13  2  0  0  0  0
 12 45  1  0  0  0  0
 13 14  1  0  0  0  0
 13 46  1  0  0  0  0
 14 15  1  0  0  0  0
 14 34  2  0  0  0  0
 15 16  1  0  0  0  0
 15 32  2  0  0  0  0
 16 17  2  0  0  0  0
 16 47  1  0  0  0  0
 17 18  1  0  0  0  0
 18 19  2  0  0  0  0
 18 31  1  0  0  0  0
 19 20  1  0  0  0  0
 19 29  1  0  0  0  0
 20 21  2  0  0  0  0
 20 22  1  0  0  0  0
 22 23  1  0  0  0  0
 22 28  1  0  0  0  0
 23 24  1  0  0  0  0
 23 48  1  0  0  0  0
 23 49  1  0  0  0  0
 24 25  1  0  0  0  0
 24 50  1  0  0  0  0
 24 51  1  0  0  0  0
 25 26  1  0  0  0  0
 25 27  1  0  0  0  0
 26 52  1  0  0  0  0
 26 53  1  0  0  0  0
 26 54  1  0  0  0  0
 27 28  1  0  0  0  0
 27 55  1  0  0  0  0
 27 56  1  0  0  0  0
 28 57  1  0  0  0  0
 28 58  1  0  0  0  0
 29 30  2  0  0  0  0
 29 59  1  0  0  0  0
 30 31  1  0  0  0  0
 31 32  1  0  0  0  0
 32 33  1  0  0  0  0
 33 60  1  0  0  0  0
 33 61  1  0  0  0  0
 34 35  1  0  0  0  0
 34 62  1  0  0  0  0
 35 63  1  0  0  0  0
 36 64  1  0  0  0  0
M  END
$$$$
