CHEMBL233205
 OpenBabel04072215363D

 50 52  0  0  0  0  0  0  0  0999 V2000
    2.3288    0.6911    1.3481 C   0  0  0  0  0  0  0  0  0  0  0  0
    2.6537   -0.0691    0.0485 C   0  0  0  0  0  0  0  0  0  0  0  0
    3.7975   -1.0723    0.2966 C   0  0  0  0  0  0  0  0  0  0  0  0
    1.4556   -0.8498   -0.3057 N   0  0  0  0  0  0  0  0  0  0  0  0
    3.0527    0.9231   -1.0471 C   0  0  0  0  0  0  0  0  0  0  0  0
    4.1972    1.7179   -0.8851 C   0  0  0  0  0  0  0  0  0  0  0  0
    4.5865    2.6434   -1.8569 C   0  0  0  0  0  0  0  0  0  0  0  0
    3.8239    2.8639   -3.0125 C   0  0  0  0  0  0  0  0  0  0  0  0
    4.1779    3.8940   -4.0180 C   0  0  0  0  0  0  0  0  0  0  0  0
    3.9000    3.5246   -5.3048 N   0  0  0  0  0  0  0  0  0  0  0  0
    4.2433    4.3588   -6.2922 C   0  0  0  0  0  0  0  0  0  0  0  0
    3.9727    3.9820   -7.6046 N   0  0  0  0  0  0  0  0  0  0  0  0
    4.6381    4.4454   -8.7464 C   0  0  0  0  0  0  0  0  0  0  0  0
    6.0066    4.7526   -8.7033 C   0  0  0  0  0  0  0  0  0  0  0  0
    6.6440    5.3849   -9.7679 C   0  0  0  0  0  0  0  0  0  0  0  0
    5.9173    5.7319  -10.9075 C   0  0  0  0  0  0  0  0  0  0  0  0
    6.5756    6.5287  -12.0066 C   0  0  0  0  0  0  0  0  0  0  0  0
    7.3006    5.6615  -13.0299 C   0  0  0  0  0  0  0  0  0  0  0  0
    6.3908    4.8317  -13.7435 O   0  0  0  0  0  0  0  0  0  0  0  0
    4.5662    5.3635  -10.9897 C   0  0  0  0  0  0  0  0  0  0  0  0
    3.9343    4.7149   -9.9212 C   0  0  0  0  0  0  0  0  0  0  0  0
    4.8231    5.5508   -6.0755 N   0  0  0  0  0  0  0  0  0  0  0  0
    5.0481    5.9153   -4.8059 C   0  0  0  0  0  0  0  0  0  0  0  0
    4.7393    5.1330   -3.7226 C   0  0  0  0  0  0  0  0  0  0  0  0
    5.0200    5.7905   -2.1580 Cl  0  0  0  0  0  0  0  0  0  0  0  0
    2.7009    2.0384   -3.1918 C   0  0  0  0  0  0  0  0  0  0  0  0
    2.3206    1.0902   -2.2308 C   0  0  0  0  0  0  0  0  0  0  0  0
    2.0188    0.0084    2.1482 H   0  0  0  0  0  0  0  0  0  0  0  0
    1.5202    1.4165    1.1955 H   0  0  0  0  0  0  0  0  0  0  0  0
    3.1954    1.2475    1.7244 H   0  0  0  0  0  0  0  0  0  0  0  0
    3.5279   -1.8026    1.0680 H   0  0  0  0  0  0  0  0  0  0  0  0
    4.7155   -0.5770    0.6344 H   0  0  0  0  0  0  0  0  0  0  0  0
    4.0453   -1.6260   -0.6176 H   0  0  0  0  0  0  0  0  0  0  0  0
    1.2186   -1.4741    0.4636 H   0  0  0  0  0  0  0  0  0  0  0  0
    1.6794   -1.4542   -1.0952 H   0  0  0  0  0  0  0  0  0  0  0  0
    4.8080    1.6356    0.0113 H   0  0  0  0  0  0  0  0  0  0  0  0
    5.5090    3.1892   -1.6778 H   0  0  0  0  0  0  0  0  0  0  0  0
    3.4225    3.1409   -7.6798 H   0  0  0  0  0  0  0  0  0  0  0  0
    6.5846    4.5284   -7.8091 H   0  0  0  0  0  0  0  0  0  0  0  0
    7.6969    5.6366   -9.6746 H   0  0  0  0  0  0  0  0  0  0  0  0
    7.2897    7.2288  -11.5535 H   0  0  0  0  0  0  0  0  0  0  0  0
    5.8148    7.1436  -12.5020 H   0  0  0  0  0  0  0  0  0  0  0  0
    8.0636    5.0285  -12.5650 H   0  0  0  0  0  0  0  0  0  0  0  0
    7.7972    6.3065  -13.7617 H   0  0  0  0  0  0  0  0  0  0  0  0
    6.0266    4.1993  -13.0977 H   0  0  0  0  0  0  0  0  0  0  0  0
    3.9822    5.6225  -11.8718 H   0  0  0  0  0  0  0  0  0  0  0  0
    2.8702    4.5006   -9.9863 H   0  0  0  0  0  0  0  0  0  0  0  0
    5.4978    6.8974   -4.6921 H   0  0  0  0  0  0  0  0  0  0  0  0
    2.0949    2.1324   -4.0921 H   0  0  0  0  0  0  0  0  0  0  0  0
    1.4281    0.4987   -2.4223 H   0  0  0  0  0  0  0  0  0  0  0  0
  1  2  1  0  0  0  0
  1 28  1  0  0  0  0
  1 29  1  0  0  0  0
  1 30  1  0  0  0  0
  2  3  1  0  0  0  0
  2  4  1  0  0  0  0
  2  5  1  0  0  0  0
  3 31  1  0  0  0  0
  3 32  1  0  0  0  0
  3 33  1  0  0  0  0
  4 34  1  0  0  0  0
  4 35  1  0  0  0  0
  5  6  1  0  0  0  0
  5 27  2  0  0  0  0
  6  7  2  0  0  0  0
  6 36  1  0  0  0  0
  7  8  1  0  0  0  0
  7 37  1  0  0  0  0
  8  9  1  0  0  0  0
  8 26  2  0  0  0  0
  9 10  1  0  0  0  0
  9 24  2  0  0  0  0
 10 11  2  0  0  0  0
 11 12  1  0  0  0  0
 11 22  1  0  0  0  0
 12 13  1  0  0  0  0
 12 38  1  0  0  0  0
 13 14  1  0  0  0  0
 13 21  2  0  0  0  0
 14 15  2  0  0  0  0
 14 39  1  0  0  0  0
 15 16  1  0  0  0  0
 15 40  1  0  0  0  0
 16 17  1  0  0  0  0
 16 20  2  0  0  0  0
 17 18  1  0  0  0  0
 17 41  1  0  0  0  0
 17 42  1  0  0  0  0
 18 19  1  0  0  0  0
 18 43  1  0  0  0  0
 18 44  1  0  0  0  0
 19 45  1  0  0  0  0
 20 21  1  0  0  0  0
 20 46  1  0  0  0  0
 21 47  1  0  0  0  0
 22 23  2  0  0  0  0
 23 24  1  0  0  0  0
 23 48  1  0  0  0  0
 24 25  1  0  0  0  0
 26 27  1  0  0  0  0
 26 49  1  0  0  0  0
 27 50  1  0  0  0  0
M  END
$$$$
