CHEMBL1682349
 OpenBabel04072215363D

 34 37  0  0  0  0  0  0  0  0999 V2000
   -1.6211   -0.1943   -2.3772 Cl  0  0  0  0  0  0  0  0  0  0  0  0
   -0.0345   -0.0296   -1.7346 C   0  0  0  0  0  0  0  0  0  0  0  0
    0.9764    0.5194   -2.5176 C   0  0  0  0  0  0  0  0  0  0  0  0
    2.2626    0.6569   -1.9922 C   0  0  0  0  0  0  0  0  0  0  0  0
    2.5469    0.2539   -0.6774 C   0  0  0  0  0  0  0  0  0  0  0  0
    3.9367    0.4201   -0.1077 C   0  0  0  0  0  0  0  0  0  0  0  0
    4.3088    1.8195   -0.0131 N   0  0  0  0  0  0  0  0  0  0  0  0
    4.0861    2.6757    1.0253 C   0  0  0  0  0  0  0  0  0  0  0  0
    4.6133    3.8695    0.5850 C   0  0  0  0  0  0  0  0  0  0  0  0
    4.6137    5.1291    1.3026 C   0  0  0  0  0  0  0  0  0  0  0  0
    4.6366    5.1569    2.7054 C   0  0  0  0  0  0  0  0  0  0  0  0
    4.6373    6.3612    3.4205 C   0  0  0  0  0  0  0  0  0  0  0  0
    4.5941    7.5393    2.6731 C   0  0  0  0  0  0  0  0  0  0  0  0
    4.5650    8.8564    3.0500 N   0  0  0  0  0  0  0  0  0  0  0  0
    4.5169    9.7219    2.0222 N   0  0  0  0  0  0  0  0  0  0  0  0
    4.5237    8.9267    0.9485 C   0  0  0  0  0  0  0  0  0  0  0  0
    4.5720    7.5550    1.2838 C   0  0  0  0  0  0  0  0  0  0  0  0
    4.5955    6.3365    0.5812 C   0  0  0  0  0  0  0  0  0  0  0  0
    5.1345    3.6961   -0.6717 N   0  0  0  0  0  0  0  0  0  0  0  0
    4.9685    2.4259   -1.0173 N   0  0  0  0  0  0  0  0  0  0  0  0
    1.5185   -0.3050    0.0970 C   0  0  0  0  0  0  0  0  0  0  0  0
    0.2320   -0.4450   -0.4326 C   0  0  0  0  0  0  0  0  0  0  0  0
    0.7719    0.8502   -3.5327 H   0  0  0  0  0  0  0  0  0  0  0  0
    3.0416    1.0954   -2.6162 H   0  0  0  0  0  0  0  0  0  0  0  0
    4.6748   -0.0964   -0.7313 H   0  0  0  0  0  0  0  0  0  0  0  0
    4.0056   -0.0014    0.9027 H   0  0  0  0  0  0  0  0  0  0  0  0
    3.5716    2.3802    1.9268 H   0  0  0  0  0  0  0  0  0  0  0  0
    4.6690    4.2279    3.2717 H   0  0  0  0  0  0  0  0  0  0  0  0
    4.6682    6.3690    4.5050 H   0  0  0  0  0  0  0  0  0  0  0  0
    4.5680    9.2294    3.9921 H   0  0  0  0  0  0  0  0  0  0  0  0
    4.4886    9.3754   -0.0359 H   0  0  0  0  0  0  0  0  0  0  0  0
    4.5842    6.3335   -0.5063 H   0  0  0  0  0  0  0  0  0  0  0  0
    1.7046   -0.6348    1.1175 H   0  0  0  0  0  0  0  0  0  0  0  0
   -0.5578   -0.8772    0.1775 H   0  0  0  0  0  0  0  0  0  0  0  0
  1  2  1  0  0  0  0
  2  3  1  0  0  0  0
  2 22  2  0  0  0  0
  3  4  2  0  0  0  0
  3 23  1  0  0  0  0
  4  5  1  0  0  0  0
  4 24  1  0  0  0  0
  5  6  1  0  0  0  0
  5 21  2  0  0  0  0
  6  7  1  0  0  0  0
  6 25  1  0  0  0  0
  6 26  1  0  0  0  0
  7  8  1  0  0  0  0
  7 20  1  0  0  0  0
  8  9  2  0  0  0  0
  8 27  1  0  0  0  0
  9 10  1  0  0  0  0
  9 19  1  0  0  0  0
 10 11  1  0  0  0  0
 10 18  2  0  0  0  0
 11 12  2  0  0  0  0
 11 28  1  0  0  0  0
 12 13  1  0  0  0  0
 12 29  1  0  0  0  0
 13 14  1  0  0  0  0
 13 17  2  0  0  0  0
 14 15  1  0  0  0  0
 14 30  1  0  0  0  0
 15 16  2  0  0  0  0
 16 17  1  0  0  0  0
 16 31  1  0  0  0  0
 17 18  1  0  0  0  0
 18 32  1  0  0  0  0
 19 20  2  0  0  0  0
 21 22  1  0  0  0  0
 21 33  1  0  0  0  0
 22 34  1  0  0  0  0
M  END
$$$$
