CHEMBL3958678
 OpenBabel04072215373D

 59 63  0  0  0  0  0  0  0  0999 V2000
    1.0256    0.1953   -0.5093 C   0  0  0  0  0  0  0  0  0  0  0  0
    2.4276    0.0577   -0.3236 O   0  0  0  0  0  0  0  0  0  0  0  0
    2.9868   -1.1825   -0.4432 C   0  0  0  0  0  0  0  0  0  0  0  0
    4.0879   -1.3710    0.4004 C   0  0  0  0  0  0  0  0  0  0  0  0
    4.8143   -2.5851    0.4050 C   0  0  0  0  0  0  0  0  0  0  0  0
    5.9035   -2.8937    1.2343 C   0  0  0  0  0  0  0  0  0  0  0  0
    6.3356   -1.9522    2.2078 N   0  0  0  0  0  0  0  0  0  0  0  0
    7.5912   -2.0263    2.8459 C   0  0  0  0  0  0  0  0  0  0  0  0
    8.7567   -2.2219    2.0905 C   0  0  0  0  0  0  0  0  0  0  0  0
    9.9983   -2.3766    2.7061 C   0  0  0  0  0  0  0  0  0  0  0  0
   10.0913   -2.3268    4.0970 C   0  0  0  0  0  0  0  0  0  0  0  0
   11.6493   -2.5698    4.8011 Cl  0  0  0  0  0  0  0  0  0  0  0  0
    8.9420   -2.1006    4.8623 C   0  0  0  0  0  0  0  0  0  0  0  0
    8.9861   -2.0271    6.5891 Cl  0  0  0  0  0  0  0  0  0  0  0  0
    7.6971   -1.9417    4.2372 C   0  0  0  0  0  0  0  0  0  0  0  0
    6.5660   -4.0658    1.1445 N   0  0  0  0  0  0  0  0  0  0  0  0
    6.1391   -4.9404    0.2351 C   0  0  0  0  0  0  0  0  0  0  0  0
    5.1104   -4.7591   -0.5944 N   0  0  0  0  0  0  0  0  0  0  0  0
    4.4708   -3.5918   -0.4978 C   0  0  0  0  0  0  0  0  0  0  0  0
    3.4063   -3.3795   -1.3480 C   0  0  0  0  0  0  0  0  0  0  0  0
    2.6245   -2.2112   -1.3164 C   0  0  0  0  0  0  0  0  0  0  0  0
    1.5406   -2.0546   -2.1452 O   0  0  0  0  0  0  0  0  0  0  0  0
    0.9412   -3.2966   -2.5491 C   0  0  0  0  0  0  0  0  0  0  0  0
   -0.4708   -3.1472   -2.9850 C   0  0  0  0  0  0  0  0  0  0  0  0
   -0.9980   -2.1772   -3.8045 C   0  0  0  0  0  0  0  0  0  0  0  0
   -2.6353   -2.5293   -4.1360 S   0  0  0  0  0  0  0  0  0  0  0  0
   -2.5333   -3.9607   -3.1621 C   0  0  0  0  0  0  0  0  0  0  0  0
   -3.5655   -4.8195   -2.9949 N   0  0  0  0  0  0  0  0  0  0  0  0
   -3.7125   -5.5669   -1.7428 C   0  0  0  0  0  0  0  0  0  0  0  0
   -3.8947   -7.0811   -1.9899 C   0  0  0  0  0  0  0  0  0  0  0  0
   -4.9516   -7.3613   -2.9857 N   0  0  0  0  0  0  0  0  0  0  0  0
   -5.1280   -8.7971   -3.1784 C   0  0  0  0  0  0  0  0  0  0  0  0
   -4.5804   -6.6971   -4.2527 C   0  0  0  0  0  0  0  0  0  0  0  0
   -4.4729   -5.1636   -4.0860 C   0  0  0  0  0  0  0  0  0  0  0  0
   -1.3650   -4.1261   -2.5890 N   0  0  0  0  0  0  0  0  0  0  0  0
    0.6487    0.8062    0.3182 H   0  0  0  0  0  0  0  0  0  0  0  0
    0.4665   -0.7432   -0.4879 H   0  0  0  0  0  0  0  0  0  0  0  0
    0.8369    0.7411   -1.4384 H   0  0  0  0  0  0  0  0  0  0  0  0
    4.3835   -0.5583    1.0606 H   0  0  0  0  0  0  0  0  0  0  0  0
    5.5688   -1.7474    2.8401 H   0  0  0  0  0  0  0  0  0  0  0  0
    8.6940   -2.2785    1.0054 H   0  0  0  0  0  0  0  0  0  0  0  0
   10.8768   -2.5504    2.0922 H   0  0  0  0  0  0  0  0  0  0  0  0
    6.8099   -1.7889    4.8446 H   0  0  0  0  0  0  0  0  0  0  0  0
    6.6704   -5.8836    0.1658 H   0  0  0  0  0  0  0  0  0  0  0  0
    3.2020   -4.1789   -2.0556 H   0  0  0  0  0  0  0  0  0  0  0  0
    0.9444   -4.0139   -1.7158 H   0  0  0  0  0  0  0  0  0  0  0  0
    1.5137   -3.7125   -3.3873 H   0  0  0  0  0  0  0  0  0  0  0  0
   -0.4998   -1.3158   -4.2307 H   0  0  0  0  0  0  0  0  0  0  0  0
   -4.5944   -5.1828   -1.2147 H   0  0  0  0  0  0  0  0  0  0  0  0
   -2.8602   -5.4226   -1.0666 H   0  0  0  0  0  0  0  0  0  0  0  0
   -4.1512   -7.5555   -1.0345 H   0  0  0  0  0  0  0  0  0  0  0  0
   -2.9362   -7.5088   -2.3169 H   0  0  0  0  0  0  0  0  0  0  0  0
   -5.4542   -9.2663   -2.2440 H   0  0  0  0  0  0  0  0  0  0  0  0
   -4.2124   -9.2917   -3.5174 H   0  0  0  0  0  0  0  0  0  0  0  0
   -5.9176   -8.9854   -3.9145 H   0  0  0  0  0  0  0  0  0  0  0  0
   -5.3317   -6.9053   -5.0213 H   0  0  0  0  0  0  0  0  0  0  0  0
   -3.6211   -7.0880   -4.6193 H   0  0  0  0  0  0  0  0  0  0  0  0
   -5.4621   -4.7378   -3.8823 H   0  0  0  0  0  0  0  0  0  0  0  0
   -4.1319   -4.7579   -5.0462 H   0  0  0  0  0  0  0  0  0  0  0  0
  1  2  1  0  0  0  0
  1 36  1  0  0  0  0
  1 37  1  0  0  0  0
  1 38  1  0  0  0  0
  2  3  1  0  0  0  0
  3  4  1  0  0  0  0
  3 21  2  0  0  0  0
  4  5  2  0  0  0  0
  4 39  1  0  0  0  0
  5  6  1  0  0  0  0
  5 19  1  0  0  0  0
  6  7  1  0  0  0  0
  6 16  2  0  0  0  0
  7  8  1  0  0  0  0
  7 40  1  0  0  0  0
  8  9  1  0  0  0  0
  8 15  2  0  0  0  0
  9 10  2  0  0  0  0
  9 41  1  0  0  0  0
 10 11  1  0  0  0  0
 10 42  1  0  0  0  0
 11 12  1  0  0  0  0
 11 13  2  0  0  0  0
 13 14  1  0  0  0  0
 13 15  1  0  0  0  0
 15 43  1  0  0  0  0
 16 17  1  0  0  0  0
 17 18  2  0  0  0  0
 17 44  1  0  0  0  0
 18 19  1  0  0  0  0
 19 20  2  0  0  0  0
 20 21  1  0  0  0  0
 20 45  1  0  0  0  0
 21 22  1  0  0  0  0
 22 23  1  0  0  0  0
 23 24  1  0  0  0  0
 23 46  1  0  0  0  0
 23 47  1  0  0  0  0
 24 25  2  0  0  0  0
 24 35  1  0  0  0  0
 25 26  1  0  0  0  0
 25 48  1  0  0  0  0
 26 27  1  0  0  0  0
 27 28  1  0  0  0  0
 27 35  2  0  0  0  0
 28 29  1  0  0  0  0
 28 34  1  0  0  0  0
 29 30  1  0  0  0  0
 29 49  1  0  0  0  0
 29 50  1  0  0  0  0
 30 31  1  0  0  0  0
 30 51  1  0  0  0  0
 30 52  1  0  0  0  0
 31 32  1  0  0  0  0
 31 33  1  0  0  0  0
 32 53  1  0  0  0  0
 32 54  1  0  0  0  0
 32 55  1  0  0  0  0
 33 34  1  0  0  0  0
 33 56  1  0  0  0  0
 33 57  1  0  0  0  0
 34 58  1  0  0  0  0
 34 59  1  0  0  0  0
M  END
$$$$
