CHEMBL395392
 OpenBabel04072215373D

 45 49  0  0  0  0  0  0  0  0999 V2000
    1.8200    0.0385    2.5120 C   0  0  0  0  0  0  0  0  0  0  0  0
    2.9374    0.8748    2.7910 O   0  0  0  0  0  0  0  0  0  0  0  0
    3.4699    1.5611    1.7291 C   0  0  0  0  0  0  0  0  0  0  0  0
    3.0371    1.4514    0.4032 C   0  0  0  0  0  0  0  0  0  0  0  0
    3.6404    2.1991   -0.6168 C   0  0  0  0  0  0  0  0  0  0  0  0
    4.6947    3.0581   -0.2886 C   0  0  0  0  0  0  0  0  0  0  0  0
    5.4275    3.8802   -1.1007 N   0  0  0  0  0  0  0  0  0  0  0  0
    6.3124    4.4547   -0.3132 C   0  0  0  0  0  0  0  0  0  0  0  0
    7.3638    5.4219   -0.7509 C   0  0  0  0  0  0  0  0  0  0  0  0
    8.2801    5.8817    0.1179 N   0  0  0  0  0  0  0  0  0  0  0  0
    9.0527    6.6851   -0.6332 N   0  0  0  0  0  0  0  0  0  0  0  0
    8.6598    6.7679   -1.9369 C   0  0  0  0  0  0  0  0  0  0  0  0
    7.5453    5.9671   -2.0539 C   0  0  0  0  0  0  0  0  0  0  0  0
    6.7387    5.7834   -3.2203 C   0  0  0  0  0  0  0  0  0  0  0  0
    6.9354    6.3496   -4.4217 C   0  0  0  0  0  0  0  0  0  0  0  0
    5.9562    6.2007   -5.5072 C   0  0  0  0  0  0  0  0  0  0  0  0
    4.9199    7.1337   -5.5781 C   0  0  0  0  0  0  0  0  0  0  0  0
    3.9616    7.1488   -6.5290 N   0  0  0  0  0  0  0  0  0  0  0  0
    4.0369    6.1754   -7.4620 C   0  0  0  0  0  0  0  0  0  0  0  0
    5.0152    5.1790   -7.4978 C   0  0  0  0  0  0  0  0  0  0  0  0
    5.0286    4.1992   -8.5064 C   0  0  0  0  0  0  0  0  0  0  0  0
    6.0083    3.2087   -8.5200 C   0  0  0  0  0  0  0  0  0  0  0  0
    6.9787    3.1836   -7.5244 C   0  0  0  0  0  0  0  0  0  0  0  0
    6.9779    4.1560   -6.5195 C   0  0  0  0  0  0  0  0  0  0  0  0
    6.0029    5.1796   -6.4858 C   0  0  0  0  0  0  0  0  0  0  0  0
    6.1584    4.0402    0.9862 N   0  0  0  0  0  0  0  0  0  0  0  0
    5.1212    3.1451    1.0317 C   0  0  0  0  0  0  0  0  0  0  0  0
    4.5312    2.4169    2.0682 C   0  0  0  0  0  0  0  0  0  0  0  0
    1.5001   -0.4218    3.4513 H   0  0  0  0  0  0  0  0  0  0  0  0
    2.0934   -0.7682    1.8233 H   0  0  0  0  0  0  0  0  0  0  0  0
    0.9783    0.6219    2.1231 H   0  0  0  0  0  0  0  0  0  0  0  0
    2.2273    0.7883    0.1176 H   0  0  0  0  0  0  0  0  0  0  0  0
    3.3076    2.1177   -1.6454 H   0  0  0  0  0  0  0  0  0  0  0  0
    9.8332    7.1564   -0.1875 H   0  0  0  0  0  0  0  0  0  0  0  0
    9.1923    7.3913   -2.6402 H   0  0  0  0  0  0  0  0  0  0  0  0
    5.8581    5.1515   -3.1034 H   0  0  0  0  0  0  0  0  0  0  0  0
    7.7767    7.0011   -4.6315 H   0  0  0  0  0  0  0  0  0  0  0  0
    4.8325    7.9282   -4.8404 H   0  0  0  0  0  0  0  0  0  0  0  0
    3.2520    6.2188   -8.2133 H   0  0  0  0  0  0  0  0  0  0  0  0
    4.2734    4.2040   -9.2894 H   0  0  0  0  0  0  0  0  0  0  0  0
    6.0110    2.4564   -9.3045 H   0  0  0  0  0  0  0  0  0  0  0  0
    7.7379    2.4057   -7.5249 H   0  0  0  0  0  0  0  0  0  0  0  0
    7.7470    4.1033   -5.7511 H   0  0  0  0  0  0  0  0  0  0  0  0
    6.7321    4.3611    1.7536 H   0  0  0  0  0  0  0  0  0  0  0  0
    4.8729    2.5020    3.0942 H   0  0  0  0  0  0  0  0  0  0  0  0
  1  2  1  0  0  0  0
  1 29  1  0  0  0  0
  1 30  1  0  0  0  0
  1 31  1  0  0  0  0
  2  3  1  0  0  0  0
  3  4  1  0  0  0  0
  3 28  2  0  0  0  0
  4  5  2  0  0  0  0
  4 32  1  0  0  0  0
  5  6  1  0  0  0  0
  5 33  1  0  0  0  0
  6  7  1  0  0  0  0
  6 27  2  0  0  0  0
  7  8  2  0  0  0  0
  8  9  1  0  0  0  0
  8 26  1  0  0  0  0
  9 10  2  0  0  0  0
  9 13  1  0  0  0  0
 10 11  1  0  0  0  0
 11 12  1  0  0  0  0
 11 34  1  0  0  0  0
 12 13  2  0  0  0  0
 12 35  1  0  0  0  0
 13 14  1  0  0  0  0
 14 15  2  0  0  0  0
 14 36  1  0  0  0  0
 15 16  1  0  0  0  0
 15 37  1  0  0  0  0
 16 17  1  0  0  0  0
 16 25  2  0  0  0  0
 17 18  2  0  0  0  0
 17 38  1  0  0  0  0
 18 19  1  0  0  0  0
 19 20  2  0  0  0  0
 19 39  1  0  0  0  0
 20 21  1  0  0  0  0
 20 25  1  0  0  0  0
 21 22  2  0  0  0  0
 21 40  1  0  0  0  0
 22 23  1  0  0  0  0
 22 41  1  0  0  0  0
 23 24  2  0  0  0  0
 23 42  1  0  0  0  0
 24 25  1  0  0  0  0
 24 43  1  0  0  0  0
 26 27  1  0  0  0  0
 26 44  1  0  0  0  0
 27 28  1  0  0  0  0
 28 45  1  0  0  0  0
M  END
$$$$
