CHEMBL202408
 OpenBabel04072215363D

 50 53  0  0  0  0  0  0  0  0999 V2000
    0.9656   -0.2512    0.2220 O   0  0  0  0  0  0  0  0  0  0  0  0
    2.1788   -0.0349    0.1549 C   0  0  0  0  0  0  0  0  0  0  0  0
    2.8712    0.6798    1.1164 N   0  0  0  0  0  0  0  0  0  0  0  0
    2.2995    1.2421    2.2752 C   0  0  0  0  0  0  0  0  0  0  0  0
    1.0644    0.8337    2.7835 C   0  0  0  0  0  0  0  0  0  0  0  0
    0.5325    1.4138    3.9385 C   0  0  0  0  0  0  0  0  0  0  0  0
    1.1901    2.4500    4.6034 C   0  0  0  0  0  0  0  0  0  0  0  0
    0.6641    3.0566    5.7200 N   0  0  0  0  0  0  0  0  0  0  0  0
   -0.2059    2.3675    6.6828 C   0  0  0  0  0  0  0  0  0  0  0  0
   -1.5509    3.0952    6.8228 C   0  0  0  0  0  0  0  0  0  0  0  0
   -1.3750    4.4949    7.1023 O   0  0  0  0  0  0  0  0  0  0  0  0
   -0.6291    5.1209    6.0451 C   0  0  0  0  0  0  0  0  0  0  0  0
    0.7742    4.5086    5.9083 C   0  0  0  0  0  0  0  0  0  0  0  0
    2.4249    2.8566    4.0750 C   0  0  0  0  0  0  0  0  0  0  0  0
    2.9878    2.2515    2.9448 C   0  0  0  0  0  0  0  0  0  0  0  0
    2.9502   -0.5124   -0.9788 C   0  0  0  0  0  0  0  0  0  0  0  0
    4.6395   -0.2392   -1.1220 S   0  0  0  0  0  0  0  0  0  0  0  0
    4.6611   -1.2174   -2.5250 C   0  0  0  0  0  0  0  0  0  0  0  0
    3.4962   -1.6528   -2.9457 N   0  0  0  0  0  0  0  0  0  0  0  0
    2.4998   -1.2553   -2.0645 C   0  0  0  0  0  0  0  0  0  0  0  0
    1.0737   -1.6513   -2.3393 C   0  0  0  0  0  0  0  0  0  0  0  0
    0.9080   -2.9840   -3.0748 C   0  0  0  0  0  0  0  0  0  0  0  0
   -0.5467   -3.3237   -3.3062 C   0  0  0  0  0  0  0  0  0  0  0  0
   -1.2031   -2.8979   -4.4651 C   0  0  0  0  0  0  0  0  0  0  0  0
   -2.5430   -3.2168   -4.6300 C   0  0  0  0  0  0  0  0  0  0  0  0
   -3.2638   -3.9224   -3.7335 N   0  0  0  0  0  0  0  0  0  0  0  0
   -2.6128   -4.3237   -2.6206 C   0  0  0  0  0  0  0  0  0  0  0  0
   -1.2766   -4.0509   -2.3624 C   0  0  0  0  0  0  0  0  0  0  0  0
    3.8282    0.9299    0.8939 H   0  0  0  0  0  0  0  0  0  0  0  0
    0.4892    0.0460    2.3119 H   0  0  0  0  0  0  0  0  0  0  0  0
   -0.4329    1.0592    4.2864 H   0  0  0  0  0  0  0  0  0  0  0  0
    0.3044    2.3830    7.6539 H   0  0  0  0  0  0  0  0  0  0  0  0
   -0.3697    1.3154    6.4330 H   0  0  0  0  0  0  0  0  0  0  0  0
   -2.1168    2.6643    7.6549 H   0  0  0  0  0  0  0  0  0  0  0  0
   -2.1572    2.9871    5.9158 H   0  0  0  0  0  0  0  0  0  0  0  0
   -0.5472    6.1859    6.2818 H   0  0  0  0  0  0  0  0  0  0  0  0
   -1.1941    5.0288    5.1094 H   0  0  0  0  0  0  0  0  0  0  0  0
    1.3482    4.6944    6.8234 H   0  0  0  0  0  0  0  0  0  0  0  0
    1.2929    5.0009    5.0802 H   0  0  0  0  0  0  0  0  0  0  0  0
    2.9782    3.6509    4.5693 H   0  0  0  0  0  0  0  0  0  0  0  0
    3.9507    2.6074    2.5897 H   0  0  0  0  0  0  0  0  0  0  0  0
    5.5857   -1.4553   -3.0303 H   0  0  0  0  0  0  0  0  0  0  0  0
    0.6054   -0.8446   -2.9170 H   0  0  0  0  0  0  0  0  0  0  0  0
    0.5252   -1.7219   -1.3968 H   0  0  0  0  0  0  0  0  0  0  0  0
    1.3868   -3.7908   -2.5052 H   0  0  0  0  0  0  0  0  0  0  0  0
    1.4180   -2.9557   -4.0437 H   0  0  0  0  0  0  0  0  0  0  0  0
   -0.6858   -2.3297   -5.2310 H   0  0  0  0  0  0  0  0  0  0  0  0
   -3.0875   -2.9015   -5.5156 H   0  0  0  0  0  0  0  0  0  0  0  0
   -3.2131   -4.8907   -1.9150 H   0  0  0  0  0  0  0  0  0  0  0  0
   -0.8212   -4.4034   -1.4433 H   0  0  0  0  0  0  0  0  0  0  0  0
  1  2  2  0  0  0  0
  2  3  1  0  0  0  0
  2 16  1  0  0  0  0
  3  4  1  0  0  0  0
  3 29  1  0  0  0  0
  4  5  1  0  0  0  0
  4 15  2  0  0  0  0
  5  6  2  0  0  0  0
  5 30  1  0  0  0  0
  6  7  1  0  0  0  0
  6 31  1  0  0  0  0
  7  8  1  0  0  0  0
  7 14  2  0  0  0  0
  8  9  1  0  0  0  0
  8 13  1  0  0  0  0
  9 10  1  0  0  0  0
  9 32  1  0  0  0  0
  9 33  1  0  0  0  0
 10 11  1  0  0  0  0
 10 34  1  0  0  0  0
 10 35  1  0  0  0  0
 11 12  1  0  0  0  0
 12 13  1  0  0  0  0
 12 36  1  0  0  0  0
 12 37  1  0  0  0  0
 13 38  1  0  0  0  0
 13 39  1  0  0  0  0
 14 15  1  0  0  0  0
 14 40  1  0  0  0  0
 15 41  1  0  0  0  0
 16 17  1  0  0  0  0
 16 20  2  0  0  0  0
 17 18  1  0  0  0  0
 18 19  2  0  0  0  0
 18 42  1  0  0  0  0
 19 20  1  0  0  0  0
 20 21  1  0  0  0  0
 21 22  1  0  0  0  0
 21 43  1  0  0  0  0
 21 44  1  0  0  0  0
 22 23  1  0  0  0  0
 22 45  1  0  0  0  0
 22 46  1  0  0  0  0
 23 24  1  0  0  0  0
 23 28  2  0  0  0  0
 24 25  2  0  0  0  0
 24 47  1  0  0  0  0
 25 26  1  0  0  0  0
 25 48  1  0  0  0  0
 26 27  2  0  0  0  0
 27 28  1  0  0  0  0
 27 49  1  0  0  0  0
 28 50  1  0  0  0  0
M  END
$$$$
