CHEMBL3906938
 OpenBabel04072215373D

 62 66  0  0  0  0  0  0  0  0999 V2000
    1.1238    0.0575   -0.3489 C   0  0  0  0  0  0  0  0  0  0  0  0
    2.1447   -0.8206    0.1268 O   0  0  0  0  0  0  0  0  0  0  0  0
    3.0051   -1.3380   -0.8088 C   0  0  0  0  0  0  0  0  0  0  0  0
    2.8236   -1.2687   -2.1811 C   0  0  0  0  0  0  0  0  0  0  0  0
    3.7584   -1.8651   -3.0333 C   0  0  0  0  0  0  0  0  0  0  0  0
    3.6796   -1.8984   -4.4015 O   0  0  0  0  0  0  0  0  0  0  0  0
    2.6103   -1.1591   -4.9707 C   0  0  0  0  0  0  0  0  0  0  0  0
    4.9085   -2.4889   -2.5249 C   0  0  0  0  0  0  0  0  0  0  0  0
    5.1842   -2.4935   -1.1684 C   0  0  0  0  0  0  0  0  0  0  0  0
    6.4262   -2.9919   -0.6894 N   0  0  0  0  0  0  0  0  0  0  0  0
    6.7937   -2.4895    0.6788 C   0  0  0  0  0  0  0  0  0  0  0  0
    7.7921   -1.4435    0.5548 C   0  0  0  0  0  0  0  0  0  0  0  0
    8.6350   -0.5888    0.4576 C   0  0  0  0  0  0  0  0  0  0  0  0
    9.6850    0.3744    0.3514 C   0  0  0  0  0  0  0  0  0  0  0  0
    9.2515    1.6353    0.1008 N   0  0  0  0  0  0  0  0  0  0  0  0
   10.1996    2.5878    0.0512 C   0  0  0  0  0  0  0  0  0  0  0  0
   11.5425    2.3473    0.2944 C   0  0  0  0  0  0  0  0  0  0  0  0
   11.9500    1.0365    0.5424 C   0  0  0  0  0  0  0  0  0  0  0  0
   11.0280   -0.0034    0.4984 C   0  0  0  0  0  0  0  0  0  0  0  0
   11.4390   -1.3130    0.8155 N   0  0  0  0  0  0  0  0  0  0  0  0
    7.4404   -3.8610   -1.2420 C   0  0  0  0  0  0  0  0  0  0  0  0
    7.7644   -4.8900   -0.3802 C   0  0  0  0  0  0  0  0  0  0  0  0
    9.0344   -5.3795   -0.4007 C   0  0  0  0  0  0  0  0  0  0  0  0
    9.9272   -5.0526   -1.3622 C   0  0  0  0  0  0  0  0  0  0  0  0
   11.1090   -5.3290   -0.8879 N   0  0  0  0  0  0  0  0  0  0  0  0
   12.0101   -5.7324   -1.7638 C   0  0  0  0  0  0  0  0  0  0  0  0
   11.8078   -5.8553   -3.1323 C   0  0  0  0  0  0  0  0  0  0  0  0
   12.7692   -6.9382   -3.6426 C   0  0  0  0  0  0  0  0  0  0  0  0
   13.3740   -7.9134   -2.7427 C   0  0  0  0  0  0  0  0  0  0  0  0
   14.3575   -8.6361   -3.2484 N   0  0  0  0  0  0  0  0  0  0  0  0
   14.3902   -8.2572   -4.5247 N   0  0  0  0  0  0  0  0  0  0  0  0
   15.3209   -8.9994   -5.3540 C   0  0  0  0  0  0  0  0  0  0  0  0
   13.4954   -7.2126   -4.8059 C   0  0  0  0  0  0  0  0  0  0  0  0
   10.6459   -5.2193   -3.6246 N   0  0  0  0  0  0  0  0  0  0  0  0
    9.5865   -4.6693   -2.6414 C   0  0  0  0  0  0  0  0  0  0  0  0
    8.2715   -3.8293   -2.4477 C   0  0  0  0  0  0  0  0  0  0  0  0
    4.1489   -1.9825   -0.3249 C   0  0  0  0  0  0  0  0  0  0  0  0
    0.6063    0.4963    0.5117 H   0  0  0  0  0  0  0  0  0  0  0  0
    0.3790   -0.4920   -0.9344 H   0  0  0  0  0  0  0  0  0  0  0  0
    1.5474    0.8843   -0.9302 H   0  0  0  0  0  0  0  0  0  0  0  0
    1.9520   -0.7695   -2.5834 H   0  0  0  0  0  0  0  0  0  0  0  0
    2.7193   -1.2143   -6.0551 H   0  0  0  0  0  0  0  0  0  0  0  0
    2.6576   -0.1036   -4.6796 H   0  0  0  0  0  0  0  0  0  0  0  0
    1.6460   -1.6023   -4.7006 H   0  0  0  0  0  0  0  0  0  0  0  0
    5.6022   -2.9402   -3.2177 H   0  0  0  0  0  0  0  0  0  0  0  0
    7.1620   -3.2783    1.3469 H   0  0  0  0  0  0  0  0  0  0  0  0
    5.9732   -2.0765    1.2710 H   0  0  0  0  0  0  0  0  0  0  0  0
    9.8423    3.5858   -0.1886 H   0  0  0  0  0  0  0  0  0  0  0  0
   12.2581    3.1615    0.2938 H   0  0  0  0  0  0  0  0  0  0  0  0
   12.9932    0.8332    0.7649 H   0  0  0  0  0  0  0  0  0  0  0  0
   12.3948   -1.5106    0.5387 H   0  0  0  0  0  0  0  0  0  0  0  0
   10.8018   -2.0234    0.4532 H   0  0  0  0  0  0  0  0  0  0  0  0
    7.1330   -5.1737    0.4543 H   0  0  0  0  0  0  0  0  0  0  0  0
    9.3686   -6.0209    0.4060 H   0  0  0  0  0  0  0  0  0  0  0  0
   12.8585   -6.1361   -1.2365 H   0  0  0  0  0  0  0  0  0  0  0  0
   13.1808   -8.0892   -1.6917 H   0  0  0  0  0  0  0  0  0  0  0  0
   15.8755   -9.7143   -4.7205 H   0  0  0  0  0  0  0  0  0  0  0  0
   16.0461   -8.3273   -5.8120 H   0  0  0  0  0  0  0  0  0  0  0  0
   14.7599   -9.5793   -6.0874 H   0  0  0  0  0  0  0  0  0  0  0  0
   13.5142   -6.7755   -5.7934 H   0  0  0  0  0  0  0  0  0  0  0  0
    7.9920   -3.1407   -3.2499 H   0  0  0  0  0  0  0  0  0  0  0  0
    4.1764   -2.0756    0.7584 H   0  0  0  0  0  0  0  0  0  0  0  0
  1  2  1  0  0  0  0
  1 38  1  0  0  0  0
  1 39  1  0  0  0  0
  1 40  1  0  0  0  0
  2  3  1  0  0  0  0
  3  4  1  0  0  0  0
  3 37  2  0  0  0  0
  4  5  2  0  0  0  0
  4 41  1  0  0  0  0
  5  6  1  0  0  0  0
  5  8  1  0  0  0  0
  6  7  1  0  0  0  0
  7 42  1  0  0  0  0
  7 43  1  0  0  0  0
  7 44  1  0  0  0  0
  8  9  2  0  0  0  0
  8 45  1  0  0  0  0
  9 10  1  0  0  0  0
  9 37  1  0  0  0  0
 10 11  1  0  0  0  0
 10 21  1  0  0  0  0
 11 12  1  0  0  0  0
 11 46  1  0  0  0  0
 11 47  1  0  0  0  0
 12 13  3  0  0  0  0
 13 14  1  0  0  0  0
 14 15  1  0  0  0  0
 14 19  2  0  0  0  0
 15 16  2  0  0  0  0
 16 17  1  0  0  0  0
 16 48  1  0  0  0  0
 17 18  2  0  0  0  0
 17 49  1  0  0  0  0
 18 19  1  0  0  0  0
 18 50  1  0  0  0  0
 19 20  1  0  0  0  0
 20 51  1  0  0  0  0
 20 52  1  0  0  0  0
 21 22  1  0  0  0  0
 21 36  2  0  0  0  0
 22 23  2  0  0  0  0
 22 53  1  0  0  0  0
 23 24  1  0  0  0  0
 23 54  1  0  0  0  0
 24 25  1  0  0  0  0
 24 35  2  0  0  0  0
 25 26  2  0  0  0  0
 26 27  1  0  0  0  0
 26 55  1  0  0  0  0
 27 28  1  0  0  0  0
 27 34  2  0  0  0  0
 28 29  1  0  0  0  0
 28 33  2  0  0  0  0
 29 30  2  0  0  0  0
 29 56  1  0  0  0  0
 30 31  1  0  0  0  0
 31 32  1  0  0  0  0
 31 33  1  0  0  0  0
 32 57  1  0  0  0  0
 32 58  1  0  0  0  0
 32 59  1  0  0  0  0
 33 60  1  0  0  0  0
 34 35  1  0  0  0  0
 35 36  1  0  0  0  0
 36 61  1  0  0  0  0
 37 62  1  0  0  0  0
M  END
$$$$
