CHEMBL3919107
 OpenBabel04072215373D

 42 45  0  0  0  0  0  0  0  0999 V2000
    2.2829   -0.7550   -1.8803 N   0  0  0  0  0  0  0  0  0  0  0  0
    1.0123   -0.5049   -1.3450 C   0  0  0  0  0  0  0  0  0  0  0  0
    0.4209    0.7515   -1.5112 C   0  0  0  0  0  0  0  0  0  0  0  0
   -0.8837    0.9884   -1.0784 C   0  0  0  0  0  0  0  0  0  0  0  0
   -1.6279   -0.0465   -0.5170 C   0  0  0  0  0  0  0  0  0  0  0  0
   -1.0852   -1.3361   -0.4402 C   0  0  0  0  0  0  0  0  0  0  0  0
   -1.8688   -2.4908    0.0822 C   0  0  0  0  0  0  0  0  0  0  0  0
   -1.2877   -3.4090    0.6553 O   0  0  0  0  0  0  0  0  0  0  0  0
   -3.3496   -2.5435   -0.0565 C   0  0  0  0  0  0  0  0  0  0  0  0
   -3.9884   -1.9906   -1.1714 C   0  0  0  0  0  0  0  0  0  0  0  0
   -5.3849   -1.9391   -1.2455 C   0  0  0  0  0  0  0  0  0  0  0  0
   -6.1542   -2.5040   -0.2092 C   0  0  0  0  0  0  0  0  0  0  0  0
   -7.5431   -2.6334    0.1055 C   0  0  0  0  0  0  0  0  0  0  0  0
   -8.6592   -2.1406   -0.6451 C   0  0  0  0  0  0  0  0  0  0  0  0
   -8.7231   -1.9825   -1.9775 C   0  0  0  0  0  0  0  0  0  0  0  0
   -9.8744   -1.4413   -2.7021 C   0  0  0  0  0  0  0  0  0  0  0  0
  -11.1918   -1.6762   -2.3197 C   0  0  0  0  0  0  0  0  0  0  0  0
  -12.2193   -1.1334   -3.0865 C   0  0  0  0  0  0  0  0  0  0  0  0
  -11.9056   -0.3832   -4.2127 C   0  0  0  0  0  0  0  0  0  0  0  0
  -10.5695   -0.2139   -4.5315 C   0  0  0  0  0  0  0  0  0  0  0  0
   -9.5518   -0.7311   -3.8084 N   0  0  0  0  0  0  0  0  0  0  0  0
   -7.7195   -3.2540    1.2808 N   0  0  0  0  0  0  0  0  0  0  0  0
   -6.4768   -3.5543    1.6871 N   0  0  0  0  0  0  0  0  0  0  0  0
   -5.4885   -3.1002    0.8586 C   0  0  0  0  0  0  0  0  0  0  0  0
   -4.0930   -3.1497    0.9670 C   0  0  0  0  0  0  0  0  0  0  0  0
    0.2345   -1.5565   -0.8564 C   0  0  0  0  0  0  0  0  0  0  0  0
    2.8832    0.0632   -1.9064 H   0  0  0  0  0  0  0  0  0  0  0  0
    2.7483   -1.5553   -1.4607 H   0  0  0  0  0  0  0  0  0  0  0  0
    0.9788    1.5622   -1.9725 H   0  0  0  0  0  0  0  0  0  0  0  0
   -1.3226    1.9774   -1.1897 H   0  0  0  0  0  0  0  0  0  0  0  0
   -2.6330    0.1673   -0.1646 H   0  0  0  0  0  0  0  0  0  0  0  0
   -3.4150   -1.5717   -1.9954 H   0  0  0  0  0  0  0  0  0  0  0  0
   -5.8530   -1.4489   -2.0938 H   0  0  0  0  0  0  0  0  0  0  0  0
   -9.5255   -1.8884   -0.0385 H   0  0  0  0  0  0  0  0  0  0  0  0
   -7.8864   -2.2340   -2.6198 H   0  0  0  0  0  0  0  0  0  0  0  0
  -11.4275   -2.2786   -1.4492 H   0  0  0  0  0  0  0  0  0  0  0  0
  -13.2558   -1.2996   -2.8071 H   0  0  0  0  0  0  0  0  0  0  0  0
  -12.6825    0.0537   -4.8298 H   0  0  0  0  0  0  0  0  0  0  0  0
  -10.2712    0.3595   -5.4046 H   0  0  0  0  0  0  0  0  0  0  0  0
   -6.3668   -4.0549    2.5612 H   0  0  0  0  0  0  0  0  0  0  0  0
   -3.6030   -3.6102    1.8205 H   0  0  0  0  0  0  0  0  0  0  0  0
    0.6508   -2.5604   -0.7976 H   0  0  0  0  0  0  0  0  0  0  0  0
  1  2  1  0  0  0  0
  1 27  1  0  0  0  0
  1 28  1  0  0  0  0
  2  3  1  0  0  0  0
  2 26  2  0  0  0  0
  3  4  2  0  0  0  0
  3 29  1  0  0  0  0
  4  5  1  0  0  0  0
  4 30  1  0  0  0  0
  5  6  2  0  0  0  0
  5 31  1  0  0  0  0
  6  7  1  0  0  0  0
  6 26  1  0  0  0  0
  7  8  2  0  0  0  0
  7  9  1  0  0  0  0
  9 10  1  0  0  0  0
  9 25  2  0  0  0  0
 10 11  2  0  0  0  0
 10 32  1  0  0  0  0
 11 12  1  0  0  0  0
 11 33  1  0  0  0  0
 12 13  1  0  0  0  0
 12 24  2  0  0  0  0
 13 14  1  0  0  0  0
 13 22  2  0  0  0  0
 14 15  2  0  0  0  0
 14 34  1  0  0  0  0
 15 16  1  0  0  0  0
 15 35  1  0  0  0  0
 16 17  1  0  0  0  0
 16 21  2  0  0  0  0
 17 18  2  0  0  0  0
 17 36  1  0  0  0  0
 18 19  1  0  0  0  0
 18 37  1  0  0  0  0
 19 20  2  0  0  0  0
 19 38  1  0  0  0  0
 20 21  1  0  0  0  0
 20 39  1  0  0  0  0
 22 23  1  0  0  0  0
 23 24  1  0  0  0  0
 23 40  1  0  0  0  0
 24 25  1  0  0  0  0
 25 41  1  0  0  0  0
 26 42  1  0  0  0  0
M  END
$$$$
