CHEMBL3986861
 OpenBabel04072215373D

 68 71  0  0  0  0  0  0  0  0999 V2000
    2.7401   -6.9077   -0.5638 C   0  0  0  0  0  0  0  0  0  0  0  0
    2.5278   -5.6126   -0.1801 O   0  0  0  0  0  0  0  0  0  0  0  0
    3.2751   -4.4864   -0.0018 C   0  0  0  0  0  0  0  0  0  0  0  0
    2.5300   -3.3879   -0.3002 C   0  0  0  0  0  0  0  0  0  0  0  0
    3.0180   -2.1002   -0.2169 C   0  0  0  0  0  0  0  0  0  0  0  0
    2.2329   -1.0761   -0.6738 O   0  0  0  0  0  0  0  0  0  0  0  0
    1.1226   -1.2921   -1.5031 C   0  0  0  0  0  0  0  0  0  0  0  0
    4.3240   -1.8973    0.3054 C   0  0  0  0  0  0  0  0  0  0  0  0
    5.1902   -2.9965    0.6471 C   0  0  0  0  0  0  0  0  0  0  0  0
    6.5323   -2.7678    1.2516 N   0  0  0  0  0  0  0  0  0  0  0  0
    6.9199   -1.4227    1.9428 C   0  0  0  0  0  0  0  0  0  0  0  0
    7.1729   -0.4507    0.8019 C   0  0  0  0  0  0  0  0  0  0  0  0
    7.3900    0.3830   -0.1767 C   0  0  0  0  0  0  0  0  0  0  0  0
    7.6430    1.3550   -1.3176 C   0  0  0  0  0  0  0  0  0  0  0  0
    7.5347    0.3417   -2.4972 C   0  0  0  0  0  0  0  0  0  0  0  0
    8.7084   -0.6855   -2.4243 C   0  0  0  0  0  0  0  0  0  0  0  0
    9.9942    0.0028   -2.5763 N   0  0  0  0  0  0  0  0  0  0  0  0
   10.1856    1.0598   -1.5624 C   0  0  0  0  0  0  0  0  0  0  0  0
    9.0057    2.0521   -1.4987 C   0  0  0  0  0  0  0  0  0  0  0  0
    7.6268   -3.7463    1.2907 C   0  0  0  0  0  0  0  0  0  0  0  0
    8.2289   -3.7672    2.5349 C   0  0  0  0  0  0  0  0  0  0  0  0
    9.4647   -4.2288    2.7141 C   0  0  0  0  0  0  0  0  0  0  0  0
   10.1409   -4.8168    1.7101 C   0  0  0  0  0  0  0  0  0  0  0  0
   11.4193   -5.0300    1.9751 N   0  0  0  0  0  0  0  0  0  0  0  0
   12.2157   -5.6786    1.1554 C   0  0  0  0  0  0  0  0  0  0  0  0
   11.6935   -6.3322    0.0413 C   0  0  0  0  0  0  0  0  0  0  0  0
   12.6050   -7.5147   -0.3667 C   0  0  0  0  0  0  0  0  0  0  0  0
   13.7198   -7.8958    0.4234 C   0  0  0  0  0  0  0  0  0  0  0  0
   14.2263   -9.0462    0.0141 N   0  0  0  0  0  0  0  0  0  0  0  0
   13.5220   -9.4811   -1.0111 N   0  0  0  0  0  0  0  0  0  0  0  0
   13.7891  -10.7756   -1.5630 C   0  0  0  0  0  0  0  0  0  0  0  0
   12.5349   -8.5466   -1.3128 C   0  0  0  0  0  0  0  0  0  0  0  0
   10.3797   -5.9819   -0.3610 N   0  0  0  0  0  0  0  0  0  0  0  0
    9.5848   -5.1441    0.4616 C   0  0  0  0  0  0  0  0  0  0  0  0
    8.2553   -4.5402    0.2053 C   0  0  0  0  0  0  0  0  0  0  0  0
    4.6308   -4.3256    0.4336 C   0  0  0  0  0  0  0  0  0  0  0  0
   -1.0504    1.6487   -1.3473 Cl  0  0  0  0  0  0  0  0  0  0  0  0
    2.2896   -7.5825    0.1946 H   0  0  0  0  0  0  0  0  0  0  0  0
    3.7984   -7.1259   -0.7688 H   0  0  0  0  0  0  0  0  0  0  0  0
    2.1395   -7.0647   -1.4939 H   0  0  0  0  0  0  0  0  0  0  0  0
    1.5158   -3.5773   -0.6383 H   0  0  0  0  0  0  0  0  0  0  0  0
    0.7127   -0.3561   -1.8963 H   0  0  0  0  0  0  0  0  0  0  0  0
    0.2966   -1.8271   -0.9789 H   0  0  0  0  0  0  0  0  0  0  0  0
    1.4285   -1.8898   -2.3935 H   0  0  0  0  0  0  0  0  0  0  0  0
    4.6500   -0.8743    0.4076 H   0  0  0  0  0  0  0  0  0  0  0  0
    7.8899   -1.4024    2.4736 H   0  0  0  0  0  0  0  0  0  0  0  0
    6.1174   -1.0873    2.6320 H   0  0  0  0  0  0  0  0  0  0  0  0
    6.8185    2.0979   -1.3622 H   0  0  0  0  0  0  0  0  0  0  0  0
    7.5638    0.8544   -3.4797 H   0  0  0  0  0  0  0  0  0  0  0  0
    6.5661   -0.2132   -2.4506 H   0  0  0  0  0  0  0  0  0  0  0  0
    8.6001   -1.4556   -3.2155 H   0  0  0  0  0  0  0  0  0  0  0  0
    8.7185   -1.2605   -1.4676 H   0  0  0  0  0  0  0  0  0  0  0  0
   10.0422    0.4077   -3.5386 H   0  0  0  0  0  0  0  0  0  0  0  0
   11.1093    1.6269   -1.8166 H   0  0  0  0  0  0  0  0  0  0  0  0
   10.3304    0.6026   -0.5631 H   0  0  0  0  0  0  0  0  0  0  0  0
    8.9644    2.5825   -2.4819 H   0  0  0  0  0  0  0  0  0  0  0  0
    9.1787    2.8215   -0.7216 H   0  0  0  0  0  0  0  0  0  0  0  0
    7.7813   -3.2856    3.3849 H   0  0  0  0  0  0  0  0  0  0  0  0
    9.9333   -4.0897    3.6702 H   0  0  0  0  0  0  0  0  0  0  0  0
   13.2085   -5.7557    1.5222 H   0  0  0  0  0  0  0  0  0  0  0  0
   14.1454   -7.4578    1.3069 H   0  0  0  0  0  0  0  0  0  0  0  0
   14.5628  -11.2950   -0.9306 H   0  0  0  0  0  0  0  0  0  0  0  0
   14.1843  -10.7049   -2.5895 H   0  0  0  0  0  0  0  0  0  0  0  0
   12.8763  -11.3944   -1.5023 H   0  0  0  0  0  0  0  0  0  0  0  0
   11.8128   -8.7009   -2.0932 H   0  0  0  0  0  0  0  0  0  0  0  0
    7.8056   -4.6081   -0.7870 H   0  0  0  0  0  0  0  0  0  0  0  0
    5.2204   -5.2045    0.6716 H   0  0  0  0  0  0  0  0  0  0  0  0
    0.3192    1.7268   -1.4738 H   0  0  0  0  0  0  0  0  0  0  0  0
  1  2  1  0  0  0  0
  1 38  1  0  0  0  0
  1 39  1  0  0  0  0
  1 40  1  0  0  0  0
  2  3  1  0  0  0  0
  3  4  1  0  0  0  0
  3 36  2  0  0  0  0
  4  5  2  0  0  0  0
  4 41  1  0  0  0  0
  5  6  1  0  0  0  0
  5  8  1  0  0  0  0
  6  7  1  0  0  0  0
  7 42  1  0  0  0  0
  7 43  1  0  0  0  0
  7 44  1  0  0  0  0
  8  9  2  0  0  0  0
  8 45  1  0  0  0  0
  9 10  1  0  0  0  0
  9 36  1  0  0  0  0
 10 11  1  0  0  0  0
 10 20  1  0  0  0  0
 11 12  1  0  0  0  0
 11 46  1  0  0  0  0
 11 47  1  0  0  0  0
 12 13  3  0  0  0  0
 13 14  1  0  0  0  0
 14 15  1  0  0  0  0
 14 19  1  0  0  0  0
 14 48  1  0  0  0  0
 15 16  1  0  0  0  0
 15 49  1  0  0  0  0
 15 50  1  0  0  0  0
 16 17  1  0  0  0  0
 16 51  1  0  0  0  0
 16 52  1  0  0  0  0
 17 18  1  0  0  0  0
 17 53  1  0  0  0  0
 18 19  1  0  0  0  0
 18 54  1  0  0  0  0
 18 55  1  0  0  0  0
 19 56  1  0  0  0  0
 19 57  1  0  0  0  0
 20 21  1  0  0  0  0
 20 35  2  0  0  0  0
 21 22  2  0  0  0  0
 21 58  1  0  0  0  0
 22 23  1  0  0  0  0
 22 59  1  0  0  0  0
 23 24  1  0  0  0  0
 23 34  2  0  0  0  0
 24 25  2  0  0  0  0
 25 26  1  0  0  0  0
 25 60  1  0  0  0  0
 26 27  1  0  0  0  0
 26 33  2  0  0  0  0
 27 28  1  0  0  0  0
 27 32  2  0  0  0  0
 28 29  2  0  0  0  0
 28 61  1  0  0  0  0
 29 30  1  0  0  0  0
 30 31  1  0  0  0  0
 30 32  1  0  0  0  0
 31 62  1  0  0  0  0
 31 63  1  0  0  0  0
 31 64  1  0  0  0  0
 32 65  1  0  0  0  0
 33 34  1  0  0  0  0
 34 35  1  0  0  0  0
 35 66  1  0  0  0  0
 36 67  1  0  0  0  0
 37 68  1  0  0  0  0
M  END
$$$$
