CHEMBL250625
 OpenBabel04072215363D

 59 63  0  0  0  0  0  0  0  0999 V2000
    0.8374    0.2697   -0.5512 C   0  0  0  0  0  0  0  0  0  0  0  0
    2.3243    0.2131   -0.3264 C   0  0  0  0  0  0  0  0  0  0  0  0
    2.9838   -1.0326   -0.3682 C   0  0  0  0  0  0  0  0  0  0  0  0
    4.3771   -1.1514   -0.2265 C   0  0  0  0  0  0  0  0  0  0  0  0
    5.0387   -2.4891   -0.1991 C   0  0  0  0  0  0  0  0  0  0  0  0
    4.5246   -3.5203   -1.0222 C   0  0  0  0  0  0  0  0  0  0  0  0
    5.0214   -4.8227   -0.9615 C   0  0  0  0  0  0  0  0  0  0  0  0
    4.4813   -5.8251   -1.7103 O   0  0  0  0  0  0  0  0  0  0  0  0
    6.0734   -5.1442   -0.1230 C   0  0  0  0  0  0  0  0  0  0  0  0
    6.6342   -4.1500    0.6697 C   0  0  0  0  0  0  0  0  0  0  0  0
    6.1186   -2.8433    0.6498 C   0  0  0  0  0  0  0  0  0  0  0  0
    6.8495   -1.7593    1.7894 Cl  0  0  0  0  0  0  0  0  0  0  0  0
    5.0789    0.0503   -0.0992 C   0  0  0  0  0  0  0  0  0  0  0  0
    4.4351    1.2758    0.0354 C   0  0  0  0  0  0  0  0  0  0  0  0
    5.1581    2.3622    0.2889 N   0  0  0  0  0  0  0  0  0  0  0  0
    4.5234    3.5414    0.4954 N   0  0  0  0  0  0  0  0  0  0  0  0
    3.1800    3.6293    0.3913 C   0  0  0  0  0  0  0  0  0  0  0  0
    2.5539    4.8627    0.6111 N   0  0  0  0  0  0  0  0  0  0  0  0
    3.1632    6.1185    0.4490 C   0  0  0  0  0  0  0  0  0  0  0  0
    4.1328    6.3280   -0.5432 C   0  0  0  0  0  0  0  0  0  0  0  0
    4.8444    7.5232   -0.6204 C   0  0  0  0  0  0  0  0  0  0  0  0
    4.5610    8.5546    0.2708 C   0  0  0  0  0  0  0  0  0  0  0  0
    5.6595    9.9479    0.3400 S   0  0  0  0  0  0  0  0  0  0  0  0
    5.5917   10.4479    1.7025 O   0  0  0  0  0  0  0  0  0  0  0  0
    6.9421    9.4928   -0.1726 O   0  0  0  0  0  0  0  0  0  0  0  0
    5.1087   11.2687   -0.7163 C   0  0  0  0  0  0  0  0  0  0  0  0
    3.7206   11.8140   -0.4025 C   0  0  0  0  0  0  0  0  0  0  0  0
    2.6033   11.0288   -1.0771 C   0  0  0  0  0  0  0  0  0  0  0  0
    2.8161   10.8377   -2.5064 N   0  0  0  0  0  0  0  0  0  0  0  0
    4.1199   10.2805   -2.8471 C   0  0  0  0  0  0  0  0  0  0  0  0
    5.2830   11.0327   -2.2146 C   0  0  0  0  0  0  0  0  0  0  0  0
    3.5674    8.3802    1.2443 C   0  0  0  0  0  0  0  0  0  0  0  0
    2.8542    7.1727    1.3091 C   0  0  0  0  0  0  0  0  0  0  0  0
    2.4114    2.5707    0.0961 N   0  0  0  0  0  0  0  0  0  0  0  0
    3.0403    1.3840   -0.0656 C   0  0  0  0  0  0  0  0  0  0  0  0
    0.4198   -0.7278   -0.7256 H   0  0  0  0  0  0  0  0  0  0  0  0
    0.6156    0.8753   -1.4367 H   0  0  0  0  0  0  0  0  0  0  0  0
    0.3316    0.6958    0.3200 H   0  0  0  0  0  0  0  0  0  0  0  0
    2.3743   -1.9270   -0.4933 H   0  0  0  0  0  0  0  0  0  0  0  0
    3.7112   -3.3060   -1.7106 H   0  0  0  0  0  0  0  0  0  0  0  0
    3.7474   -5.4706   -2.2385 H   0  0  0  0  0  0  0  0  0  0  0  0
    6.4493   -6.1622   -0.0775 H   0  0  0  0  0  0  0  0  0  0  0  0
    7.4616   -4.4039    1.3291 H   0  0  0  0  0  0  0  0  0  0  0  0
    6.1659    0.0605   -0.0570 H   0  0  0  0  0  0  0  0  0  0  0  0
    1.5666    4.8115    0.4084 H   0  0  0  0  0  0  0  0  0  0  0  0
    4.3869    5.5296   -1.2378 H   0  0  0  0  0  0  0  0  0  0  0  0
    5.6498    7.6054   -1.3454 H   0  0  0  0  0  0  0  0  0  0  0  0
    5.8225   12.0631   -0.4510 H   0  0  0  0  0  0  0  0  0  0  0  0
    3.6769   12.8485   -0.7709 H   0  0  0  0  0  0  0  0  0  0  0  0
    3.5465   11.8673    0.6776 H   0  0  0  0  0  0  0  0  0  0  0  0
    1.6625   11.5747   -0.9397 H   0  0  0  0  0  0  0  0  0  0  0  0
    2.4525   10.0626   -0.5938 H   0  0  0  0  0  0  0  0  0  0  0  0
    2.6711   11.7167   -3.0022 H   0  0  0  0  0  0  0  0  0  0  0  0
    4.2321   10.3201   -3.9374 H   0  0  0  0  0  0  0  0  0  0  0  0
    4.1534    9.2209   -2.5887 H   0  0  0  0  0  0  0  0  0  0  0  0
    5.3523   12.0155   -2.7035 H   0  0  0  0  0  0  0  0  0  0  0  0
    6.2253   10.5204   -2.4377 H   0  0  0  0  0  0  0  0  0  0  0  0
    3.3802    9.1507    1.9909 H   0  0  0  0  0  0  0  0  0  0  0  0
    2.1170    7.0358    2.1004 H   0  0  0  0  0  0  0  0  0  0  0  0
  1  2  1  0  0  0  0
  1 36  1  0  0  0  0
  1 37  1  0  0  0  0
  1 38  1  0  0  0  0
  2  3  1  0  0  0  0
  2 35  2  0  0  0  0
  3  4  2  0  0  0  0
  3 39  1  0  0  0  0
  4  5  1  0  0  0  0
  4 13  1  0  0  0  0
  5  6  1  0  0  0  0
  5 11  2  0  0  0  0
  6  7  2  0  0  0  0
  6 40  1  0  0  0  0
  7  8  1  0  0  0  0
  7  9  1  0  0  0  0
  8 41  1  0  0  0  0
  9 10  2  0  0  0  0
  9 42  1  0  0  0  0
 10 11  1  0  0  0  0
 10 43  1  0  0  0  0
 11 12  1  0  0  0  0
 13 14  2  0  0  0  0
 13 44  1  0  0  0  0
 14 15  1  0  0  0  0
 14 35  1  0  0  0  0
 15 16  2  0  0  0  0
 16 17  1  0  0  0  0
 17 18  1  0  0  0  0
 17 34  2  0  0  0  0
 18 19  1  0  0  0  0
 18 45  1  0  0  0  0
 19 20  1  0  0  0  0
 19 33  2  0  0  0  0
 20 21  2  0  0  0  0
 20 46  1  0  0  0  0
 21 22  1  0  0  0  0
 21 47  1  0  0  0  0
 22 23  1  0  0  0  0
 22 32  2  0  0  0  0
 23 24  2  0  0  0  0
 23 25  2  0  0  0  0
 23 26  1  0  0  0  0
 26 27  1  0  0  0  0
 26 31  1  0  0  0  0
 26 48  1  0  0  0  0
 27 28  1  0  0  0  0
 27 49  1  0  0  0  0
 27 50  1  0  0  0  0
 28 29  1  0  0  0  0
 28 51  1  0  0  0  0
 28 52  1  0  0  0  0
 29 30  1  0  0  0  0
 29 53  1  0  0  0  0
 30 31  1  0  0  0  0
 30 54  1  0  0  0  0
 30 55  1  0  0  0  0
 31 56  1  0  0  0  0
 31 57  1  0  0  0  0
 32 33  1  0  0  0  0
 32 58  1  0  0  0  0
 33 59  1  0  0  0  0
 34 35  1  0  0  0  0
M  END
$$$$
