CHEMBL306380
 OpenBabel04072215363D

 40 42  0  0  0  0  0  0  0  0999 V2000
    2.5080    0.2254   -0.0561 C   0  0  0  0  0  0  0  0  0  0  0  0
    1.0129    0.1420   -0.1325 C   0  0  0  0  0  0  0  0  0  0  0  0
    0.2511    1.1811   -0.6765 C   0  0  0  0  0  0  0  0  0  0  0  0
   -1.1470    1.1083   -0.6802 C   0  0  0  0  0  0  0  0  0  0  0  0
   -1.8081   -0.0080   -0.1484 C   0  0  0  0  0  0  0  0  0  0  0  0
   -3.2726   -0.0322   -0.0534 C   0  0  0  0  0  0  0  0  0  0  0  0
   -4.0211    0.5629   -0.9997 N   0  0  0  0  0  0  0  0  0  0  0  0
   -5.3038    0.3407   -0.6275 N   0  0  0  0  0  0  0  0  0  0  0  0
   -6.4157    0.8000   -1.4842 C   0  0  0  0  0  0  0  0  0  0  0  0
   -5.8981    1.5534   -2.7346 C   0  0  0  0  0  0  0  0  0  0  0  0
   -7.2362   -0.4074   -1.9785 C   0  0  0  0  0  0  0  0  0  0  0  0
   -7.3376    1.7704   -0.7184 C   0  0  0  0  0  0  0  0  0  0  0  0
   -5.3961   -0.3509    0.5566 C   0  0  0  0  0  0  0  0  0  0  0  0
   -6.5208   -0.7232    1.1883 N   0  0  0  0  0  0  0  0  0  0  0  0
   -6.2601   -1.3887    2.3239 C   0  0  0  0  0  0  0  0  0  0  0  0
   -5.0580   -1.6715    2.8539 N   0  0  0  0  0  0  0  0  0  0  0  0
   -3.9513   -1.2768    2.1931 C   0  0  0  0  0  0  0  0  0  0  0  0
   -2.7467   -1.5735    2.8152 N   0  0  0  0  0  0  0  0  0  0  0  0
   -4.0957   -0.5969    0.9717 C   0  0  0  0  0  0  0  0  0  0  0  0
   -1.0340   -1.0803    0.3090 C   0  0  0  0  0  0  0  0  0  0  0  0
    0.3591   -0.9934    0.3525 C   0  0  0  0  0  0  0  0  0  0  0  0
    2.8865    1.1339   -0.5346 H   0  0  0  0  0  0  0  0  0  0  0  0
    2.9599   -0.6347   -0.5605 H   0  0  0  0  0  0  0  0  0  0  0  0
    2.8292    0.2355    0.9911 H   0  0  0  0  0  0  0  0  0  0  0  0
    0.7355    2.0618   -1.0918 H   0  0  0  0  0  0  0  0  0  0  0  0
   -1.7204    1.9366   -1.0931 H   0  0  0  0  0  0  0  0  0  0  0  0
   -5.2632    0.9109   -3.3577 H   0  0  0  0  0  0  0  0  0  0  0  0
   -5.3098    2.4356   -2.4557 H   0  0  0  0  0  0  0  0  0  0  0  0
   -6.7280    1.8984   -3.3622 H   0  0  0  0  0  0  0  0  0  0  0  0
   -6.6057   -1.1111   -2.5346 H   0  0  0  0  0  0  0  0  0  0  0  0
   -8.0481   -0.0880   -2.6424 H   0  0  0  0  0  0  0  0  0  0  0  0
   -7.6961   -0.9604   -1.1533 H   0  0  0  0  0  0  0  0  0  0  0  0
   -6.7820    2.6406   -0.3512 H   0  0  0  0  0  0  0  0  0  0  0  0
   -7.8178    1.2966    0.1435 H   0  0  0  0  0  0  0  0  0  0  0  0
   -8.1424    2.1396   -1.3667 H   0  0  0  0  0  0  0  0  0  0  0  0
   -7.1207   -1.7368    2.8881 H   0  0  0  0  0  0  0  0  0  0  0  0
   -2.9084   -1.8689    3.7719 H   0  0  0  0  0  0  0  0  0  0  0  0
   -2.0276   -0.8697    2.6957 H   0  0  0  0  0  0  0  0  0  0  0  0
   -1.5037   -1.9988    0.6527 H   0  0  0  0  0  0  0  0  0  0  0  0
    0.9288   -1.8204    0.7708 H   0  0  0  0  0  0  0  0  0  0  0  0
  1  2  1  0  0  0  0
  1 22  1  0  0  0  0
  1 23  1  0  0  0  0
  1 24  1  0  0  0  0
  2  3  1  0  0  0  0
  2 21  2  0  0  0  0
  3  4  2  0  0  0  0
  3 25  1  0  0  0  0
  4  5  1  0  0  0  0
  4 26  1  0  0  0  0
  5  6  1  0  0  0  0
  5 20  2  0  0  0  0
  6  7  2  0  0  0  0
  6 19  1  0  0  0  0
  7  8  1  0  0  0  0
  8  9  1  0  0  0  0
  8 13  1  0  0  0  0
  9 10  1  0  0  0  0
  9 11  1  0  0  0  0
  9 12  1  0  0  0  0
 10 27  1  0  0  0  0
 10 28  1  0  0  0  0
 10 29  1  0  0  0  0
 11 30  1  0  0  0  0
 11 31  1  0  0  0  0
 11 32  1  0  0  0  0
 12 33  1  0  0  0  0
 12 34  1  0  0  0  0
 12 35  1  0  0  0  0
 13 14  1  0  0  0  0
 13 19  2  0  0  0  0
 14 15  2  0  0  0  0
 15 16  1  0  0  0  0
 15 36  1  0  0  0  0
 16 17  2  0  0  0  0
 17 18  1  0  0  0  0
 17 19  1  0  0  0  0
 18 37  1  0  0  0  0
 18 38  1  0  0  0  0
 20 21  1  0  0  0  0
 20 39  1  0  0  0  0
 21 40  1  0  0  0  0
M  END
$$$$
