CHEMBL3893846
 OpenBabel04072215373D

 57 60  0  0  1  0  0  0  0  0999 V2000
    2.8044    0.0499   -1.0696 C   0  0  0  0  0  0  0  0  0  0  0  0
    2.5548   -0.2698    0.2994 O   0  0  0  0  0  0  0  0  0  0  0  0
    3.2886    0.4168    1.2368 C   0  0  0  0  0  0  0  0  0  0  0  0
    4.4491    1.1283    0.9158 C   0  0  0  0  0  0  0  0  0  0  0  0
    5.1413    1.8927    1.8867 C   0  0  0  0  0  0  0  0  0  0  0  0
    6.2970    2.6316    1.6474 C   0  0  0  0  0  0  0  0  0  0  0  0
    6.7793    2.7444    0.3128 N   0  0  0  0  0  0  0  0  0  0  0  0
    8.0825    3.1785    0.0014 C   0  0  0  0  0  0  0  0  0  0  0  0
    9.1830    2.6063    0.6524 C   0  0  0  0  0  0  0  0  0  0  0  0
   10.4717    3.0869    0.4369 C   0  0  0  0  0  0  0  0  0  0  0  0
   10.6733    4.1460   -0.4494 C   0  0  0  0  0  0  0  0  0  0  0  0
   12.2837    4.7423   -0.6230 Cl  0  0  0  0  0  0  0  0  0  0  0  0
    9.5869    4.6931   -1.1428 C   0  0  0  0  0  0  0  0  0  0  0  0
    9.7685    5.9962   -2.2639 Cl  0  0  0  0  0  0  0  0  0  0  0  0
    8.2946    4.2019   -0.9261 C   0  0  0  0  0  0  0  0  0  0  0  0
    6.9701    3.2585    2.6365 N   0  0  0  0  0  0  0  0  0  0  0  0
    6.4468    3.1842    3.8615 C   0  0  0  0  0  0  0  0  0  0  0  0
    5.3102    2.5687    4.1842 N   0  0  0  0  0  0  0  0  0  0  0  0
    4.6828    1.9262    3.1983 C   0  0  0  0  0  0  0  0  0  0  0  0
    3.5469    1.2119    3.5116 C   0  0  0  0  0  0  0  0  0  0  0  0
    2.8742    0.3960    2.5785 C   0  0  0  0  0  0  0  0  0  0  0  0
    1.8557   -0.4684    2.9678 O   0  0  0  0  0  0  0  0  0  0  0  0
    1.8808   -0.7238    4.3822 C   0  0  0  0  0  0  0  0  0  0  0  0
    1.1026   -1.9488    4.8724 C   0  0  3  0  0  0  0  0  0  0  0  0
   -0.4159   -1.8426    4.7591 C   0  0  0  0  0  0  0  0  0  0  0  0
   -0.9529   -0.8113    5.6625 N   0  0  0  0  0  0  0  0  0  0  0  0
   -2.3978   -0.6882    5.4721 C   0  0  0  0  0  0  0  0  0  0  0  0
   -0.5236   -1.0210    7.0815 C   0  0  0  0  0  0  0  0  0  0  0  0
   -0.8521    0.2491    7.8992 C   0  0  0  0  0  0  0  0  0  0  0  0
   -1.1573   -2.2349    7.7873 C   0  0  0  0  0  0  0  0  0  0  0  0
    1.0095   -1.2594    7.1577 C   0  0  0  0  0  0  0  0  0  0  0  0
    1.7404   -0.8045    8.0314 O   0  0  0  0  0  0  0  0  0  0  0  0
    1.4858   -2.1685    6.2534 O   0  0  0  0  0  0  0  0  0  0  0  0
    3.5351   -0.6514   -1.4886 H   0  0  0  0  0  0  0  0  0  0  0  0
    3.1391    1.0817   -1.2411 H   0  0  0  0  0  0  0  0  0  0  0  0
    1.8682   -0.0544   -1.6270 H   0  0  0  0  0  0  0  0  0  0  0  0
    4.8803    1.0654   -0.0782 H   0  0  0  0  0  0  0  0  0  0  0  0
    6.0646    3.1933   -0.2509 H   0  0  0  0  0  0  0  0  0  0  0  0
    9.0271    1.7948    1.3609 H   0  0  0  0  0  0  0  0  0  0  0  0
   11.2987    2.6453    0.9806 H   0  0  0  0  0  0  0  0  0  0  0  0
    7.4552    4.6506   -1.4505 H   0  0  0  0  0  0  0  0  0  0  0  0
    6.9961    3.6610    4.6649 H   0  0  0  0  0  0  0  0  0  0  0  0
    3.2373    1.2887    4.5507 H   0  0  0  0  0  0  0  0  0  0  0  0
    1.5032    0.1637    4.9037 H   0  0  0  0  0  0  0  0  0  0  0  0
    2.9184   -0.9031    4.7002 H   0  0  0  0  0  0  0  0  0  0  0  0
    1.4309   -2.8293    4.3086 H   0  0  0  0  0  0  0  0  0  0  0  0
   -0.8595   -2.8160    5.0041 H   0  0  0  0  0  0  0  0  0  0  0  0
   -0.6796   -1.6162    3.7197 H   0  0  0  0  0  0  0  0  0  0  0  0
   -2.6231   -0.4839    4.4189 H   0  0  0  0  0  0  0  0  0  0  0  0
   -2.8093    0.1576    6.0300 H   0  0  0  0  0  0  0  0  0  0  0  0
   -2.9392   -1.5960    5.7569 H   0  0  0  0  0  0  0  0  0  0  0  0
   -1.9315    0.3952    8.0174 H   0  0  0  0  0  0  0  0  0  0  0  0
   -0.4367    1.1482    7.4280 H   0  0  0  0  0  0  0  0  0  0  0  0
   -0.4351    0.1969    8.9122 H   0  0  0  0  0  0  0  0  0  0  0  0
   -2.2441   -2.1463    7.8702 H   0  0  0  0  0  0  0  0  0  0  0  0
   -0.7610   -2.3350    8.8065 H   0  0  0  0  0  0  0  0  0  0  0  0
   -0.9239   -3.1734    7.2736 H   0  0  0  0  0  0  0  0  0  0  0  0
  1  2  1  0  0  0  0
  1 34  1  0  0  0  0
  1 35  1  0  0  0  0
  1 36  1  0  0  0  0
  2  3  1  0  0  0  0
  3  4  1  0  0  0  0
  3 21  2  0  0  0  0
  4  5  2  0  0  0  0
  4 37  1  0  0  0  0
  5  6  1  0  0  0  0
  5 19  1  0  0  0  0
  6  7  1  0  0  0  0
  6 16  2  0  0  0  0
  7  8  1  0  0  0  0
  7 38  1  0  0  0  0
  8  9  1  0  0  0  0
  8 15  2  0  0  0  0
  9 10  2  0  0  0  0
  9 39  1  0  0  0  0
 10 11  1  0  0  0  0
 10 40  1  0  0  0  0
 11 12  1  0  0  0  0
 11 13  2  0  0  0  0
 13 14  1  0  0  0  0
 13 15  1  0  0  0  0
 15 41  1  0  0  0  0
 16 17  1  0  0  0  0
 17 18  2  0  0  0  0
 17 42  1  0  0  0  0
 18 19  1  0  0  0  0
 19 20  2  0  0  0  0
 20 21  1  0  0  0  0
 20 43  1  0  0  0  0
 21 22  1  0  0  0  0
 22 23  1  0  0  0  0
 23 24  1  0  0  0  0
 23 44  1  0  0  0  0
 23 45  1  0  0  0  0
 24 25  1  0  0  0  0
 24 33  1  0  0  0  0
 24 46  1  0  0  0  0
 25 26  1  0  0  0  0
 25 47  1  0  0  0  0
 25 48  1  0  0  0  0
 26 27  1  0  0  0  0
 26 28  1  0  0  0  0
 27 49  1  0  0  0  0
 27 50  1  0  0  0  0
 27 51  1  0  0  0  0
 28 29  1  0  0  0  0
 28 30  1  0  0  0  0
 28 31  1  0  0  0  0
 29 52  1  0  0  0  0
 29 53  1  0  0  0  0
 29 54  1  0  0  0  0
 30 55  1  0  0  0  0
 30 56  1  0  0  0  0
 30 57  1  0  0  0  0
 31 32  2  0  0  0  0
 31 33  1  0  0  0  0
M  END
$$$$
