CHEMBL507927
 OpenBabel04072215383D

 34 37  0  0  0  0  0  0  0  0999 V2000
    1.0476    0.4307    0.0315 C   0  0  0  0  0  0  0  0  0  0  0  0
    2.4199    0.0512   -0.0018 O   0  0  0  0  0  0  0  0  0  0  0  0
    2.9983    0.0543   -1.2454 C   0  0  0  0  0  0  0  0  0  0  0  0
    2.6154    0.9051   -2.2889 C   0  0  0  0  0  0  0  0  0  0  0  0
    3.2696    0.8828   -3.5244 C   0  0  0  0  0  0  0  0  0  0  0  0
    4.3138   -0.0280   -3.6547 C   0  0  0  0  0  0  0  0  0  0  0  0
    5.1747   -0.2797   -4.6838 N   0  0  0  0  0  0  0  0  0  0  0  0
    6.0676   -1.2515   -4.2993 C   0  0  0  0  0  0  0  0  0  0  0  0
    7.1660   -1.7251   -5.1427 C   0  0  0  0  0  0  0  0  0  0  0  0
    7.6387   -3.0402   -4.9823 C   0  0  0  0  0  0  0  0  0  0  0  0
    8.7169   -3.5356   -5.7426 C   0  0  0  0  0  0  0  0  0  0  0  0
    9.3767   -2.7200   -6.6625 C   0  0  0  0  0  0  0  0  0  0  0  0
    8.9260   -1.4214   -6.8203 C   0  0  0  0  0  0  0  0  0  0  0  0
    7.8234   -0.9482   -6.0917 C   0  0  0  0  0  0  0  0  0  0  0  0
    7.5886    0.4383   -6.5486 C   0  0  0  0  0  0  0  0  0  0  0  0
    6.6569    1.1588   -6.2576 O   0  0  0  0  0  0  0  0  0  0  0  0
    8.5881    0.7510   -7.4383 N   0  0  0  0  0  0  0  0  0  0  0  0
    9.4745   -0.3494   -7.7013 C   0  0  0  0  0  0  0  0  0  0  0  0
    5.7777   -1.6670   -3.0764 N   0  0  0  0  0  0  0  0  0  0  0  0
    4.7242   -0.8873   -2.6485 C   0  0  0  0  0  0  0  0  0  0  0  0
    4.0685   -0.8398   -1.4097 C   0  0  0  0  0  0  0  0  0  0  0  0
    0.6850    0.2866    1.0533 H   0  0  0  0  0  0  0  0  0  0  0  0
    0.4514   -0.2052   -0.6322 H   0  0  0  0  0  0  0  0  0  0  0  0
    0.9132    1.4890   -0.2129 H   0  0  0  0  0  0  0  0  0  0  0  0
    1.8177    1.6298   -2.1626 H   0  0  0  0  0  0  0  0  0  0  0  0
    2.9894    1.5539   -4.3284 H   0  0  0  0  0  0  0  0  0  0  0  0
    5.2304    0.2509   -5.5444 H   0  0  0  0  0  0  0  0  0  0  0  0
    7.1614   -3.6979   -4.2554 H   0  0  0  0  0  0  0  0  0  0  0  0
    9.0436   -4.5635   -5.5979 H   0  0  0  0  0  0  0  0  0  0  0  0
   10.2198   -3.0990   -7.2318 H   0  0  0  0  0  0  0  0  0  0  0  0
    8.6091    1.6487   -7.9044 H   0  0  0  0  0  0  0  0  0  0  0  0
   10.4899   -0.0588   -7.4190 H   0  0  0  0  0  0  0  0  0  0  0  0
    9.4119   -0.6075   -8.7609 H   0  0  0  0  0  0  0  0  0  0  0  0
    4.3879   -1.4829   -0.5978 H   0  0  0  0  0  0  0  0  0  0  0  0
  1  2  1  0  0  0  0
  1 22  1  0  0  0  0
  1 23  1  0  0  0  0
  1 24  1  0  0  0  0
  2  3  1  0  0  0  0
  3  4  1  0  0  0  0
  3 21  2  0  0  0  0
  4  5  2  0  0  0  0
  4 25  1  0  0  0  0
  5  6  1  0  0  0  0
  5 26  1  0  0  0  0
  6  7  1  0  0  0  0
  6 20  2  0  0  0  0
  7  8  1  0  0  0  0
  7 27  1  0  0  0  0
  8  9  1  0  0  0  0
  8 19  2  0  0  0  0
  9 10  1  0  0  0  0
  9 14  2  0  0  0  0
 10 11  2  0  0  0  0
 10 28  1  0  0  0  0
 11 12  1  0  0  0  0
 11 29  1  0  0  0  0
 12 13  2  0  0  0  0
 12 30  1  0  0  0  0
 13 14  1  0  0  0  0
 13 18  1  0  0  0  0
 14 15  1  0  0  0  0
 15 16  2  0  0  0  0
 15 17  1  0  0  0  0
 17 18  1  0  0  0  0
 17 31  1  0  0  0  0
 18 32  1  0  0  0  0
 18 33  1  0  0  0  0
 19 20  1  0  0  0  0
 20 21  1  0  0  0  0
 21 34  1  0  0  0  0
M  END
$$$$
