CHEMBL231411
 OpenBabel04072215363D

 48 52  0  0  0  0  0  0  0  0999 V2000
    1.0828   -0.3644   -1.7641 N   0  0  0  0  0  0  0  0  0  0  0  0
    2.4405   -0.3638   -1.4617 C   0  0  0  0  0  0  0  0  0  0  0  0
    3.0950    0.7384   -1.8900 N   0  0  0  0  0  0  0  0  0  0  0  0
    4.4017    0.8980   -1.6196 C   0  0  0  0  0  0  0  0  0  0  0  0
    5.1558   -0.0062   -0.9210 C   0  0  0  0  0  0  0  0  0  0  0  0
    4.4891   -1.1647   -0.4912 C   0  0  0  0  0  0  0  0  0  0  0  0
    5.2148   -2.4380    0.3967 S   0  0  0  0  0  0  0  0  0  0  0  0
    3.7636   -3.3093    0.4538 C   0  0  0  0  0  0  0  0  0  0  0  0
    2.7038   -2.6629   -0.1635 C   0  0  0  0  0  0  0  0  0  0  0  0
    1.3719   -3.2891   -0.0999 C   0  0  0  0  0  0  0  0  0  0  0  0
    0.9617   -3.9167    1.0857 C   0  0  0  0  0  0  0  0  0  0  0  0
   -0.3054   -4.4838    1.2021 C   0  0  0  0  0  0  0  0  0  0  0  0
   -1.2328   -4.3893    0.1679 C   0  0  0  0  0  0  0  0  0  0  0  0
   -2.5529   -4.8734    0.2967 N   0  0  0  0  0  0  0  0  0  0  0  0
   -3.1885   -5.0876    1.5114 C   0  0  0  0  0  0  0  0  0  0  0  0
   -2.7517   -4.7328    2.6003 O   0  0  0  0  0  0  0  0  0  0  0  0
   -4.3604   -5.8052    1.3591 N   0  0  0  0  0  0  0  0  0  0  0  0
   -5.2301   -6.0479    2.4452 C   0  0  0  0  0  0  0  0  0  0  0  0
   -5.5385   -5.0458    3.3664 C   0  0  0  0  0  0  0  0  0  0  0  0
   -6.4967   -5.2694    4.3561 C   0  0  0  0  0  0  0  0  0  0  0  0
   -7.1332   -6.5126    4.4650 C   0  0  0  0  0  0  0  0  0  0  0  0
   -8.1506   -6.7318    5.4051 C   0  0  0  0  0  0  0  0  0  0  0  0
   -8.7407   -7.9887    5.5359 C   0  0  0  0  0  0  0  0  0  0  0  0
   -8.2887   -9.0514    4.7583 C   0  0  0  0  0  0  0  0  0  0  0  0
   -7.2990   -8.8409    3.7968 C   0  0  0  0  0  0  0  0  0  0  0  0
   -6.7444   -7.5651    3.6037 C   0  0  0  0  0  0  0  0  0  0  0  0
   -5.8232   -7.3066    2.5726 C   0  0  0  0  0  0  0  0  0  0  0  0
   -0.8207   -3.8130   -1.0411 C   0  0  0  0  0  0  0  0  0  0  0  0
    0.4773   -3.2931   -1.1778 C   0  0  0  0  0  0  0  0  0  0  0  0
    3.1286   -1.3868   -0.7445 C   0  0  0  0  0  0  0  0  0  0  0  0
    0.8327    0.5660   -2.0805 H   0  0  0  0  0  0  0  0  0  0  0  0
    0.5131   -0.7207   -1.0079 H   0  0  0  0  0  0  0  0  0  0  0  0
    4.8397    1.8184   -1.9955 H   0  0  0  0  0  0  0  0  0  0  0  0
    6.2040    0.1644   -0.7081 H   0  0  0  0  0  0  0  0  0  0  0  0
    3.7570   -4.2628    0.9669 H   0  0  0  0  0  0  0  0  0  0  0  0
    1.6159   -3.9689    1.9517 H   0  0  0  0  0  0  0  0  0  0  0  0
   -0.5444   -4.9895    2.1351 H   0  0  0  0  0  0  0  0  0  0  0  0
   -3.1650   -4.7841   -0.5011 H   0  0  0  0  0  0  0  0  0  0  0  0
   -4.3355   -6.4981    0.6261 H   0  0  0  0  0  0  0  0  0  0  0  0
   -5.0667   -4.0676    3.3066 H   0  0  0  0  0  0  0  0  0  0  0  0
   -6.7403   -4.4611    5.0426 H   0  0  0  0  0  0  0  0  0  0  0  0
   -8.5033   -5.9159    6.0330 H   0  0  0  0  0  0  0  0  0  0  0  0
   -9.5448   -8.1393    6.2510 H   0  0  0  0  0  0  0  0  0  0  0  0
   -8.7159  -10.0417    4.8914 H   0  0  0  0  0  0  0  0  0  0  0  0
   -6.9614   -9.6840    3.1979 H   0  0  0  0  0  0  0  0  0  0  0  0
   -5.5531   -8.1046    1.8858 H   0  0  0  0  0  0  0  0  0  0  0  0
   -1.5061   -3.7336   -1.8811 H   0  0  0  0  0  0  0  0  0  0  0  0
    0.7697   -2.8687   -2.1369 H   0  0  0  0  0  0  0  0  0  0  0  0
  1  2  1  0  0  0  0
  1 31  1  0  0  0  0
  1 32  1  0  0  0  0
  2  3  1  0  0  0  0
  2 30  2  0  0  0  0
  3  4  2  0  0  0  0
  4  5  1  0  0  0  0
  4 33  1  0  0  0  0
  5  6  2  0  0  0  0
  5 34  1  0  0  0  0
  6  7  1  0  0  0  0
  6 30  1  0  0  0  0
  7  8  1  0  0  0  0
  8  9  2  0  0  0  0
  8 35  1  0  0  0  0
  9 10  1  0  0  0  0
  9 30  1  0  0  0  0
 10 11  1  0  0  0  0
 10 29  2  0  0  0  0
 11 12  2  0  0  0  0
 11 36  1  0  0  0  0
 12 13  1  0  0  0  0
 12 37  1  0  0  0  0
 13 14  1  0  0  0  0
 13 28  2  0  0  0  0
 14 15  1  0  0  0  0
 14 38  1  0  0  0  0
 15 16  2  0  0  0  0
 15 17  1  0  0  0  0
 17 18  1  0  0  0  0
 17 39  1  0  0  0  0
 18 19  1  0  0  0  0
 18 27  2  0  0  0  0
 19 20  2  0  0  0  0
 19 40  1  0  0  0  0
 20 21  1  0  0  0  0
 20 41  1  0  0  0  0
 21 22  1  0  0  0  0
 21 26  2  0  0  0  0
 22 23  2  0  0  0  0
 22 42  1  0  0  0  0
 23 24  1  0  0  0  0
 23 43  1  0  0  0  0
 24 25  2  0  0  0  0
 24 44  1  0  0  0  0
 25 26  1  0  0  0  0
 25 45  1  0  0  0  0
 26 27  1  0  0  0  0
 27 46  1  0  0  0  0
 28 29  1  0  0  0  0
 28 47  1  0  0  0  0
 29 48  1  0  0  0  0
M  END
$$$$
