CHEMBL3690411
 OpenBabel04072215373D

 55 59  0  0  1  0  0  0  0  0999 V2000
    2.6102   -0.2246   -1.4420 O   0  0  0  0  0  0  0  0  0  0  0  0
    2.5358   -0.8090   -0.3712 C   0  0  0  0  0  0  0  0  0  0  0  0
    1.5232   -1.7117   -0.1193 N   0  0  0  0  0  0  0  0  0  0  0  0
    0.4415   -1.8424   -1.1025 C   0  0  0  0  0  0  0  0  0  0  0  0
   -0.6684   -0.7888   -0.9855 C   0  0  0  0  0  0  0  0  0  0  0  0
   -0.4769    0.0296    0.0756 F   0  0  0  0  0  0  0  0  0  0  0  0
   -0.7746   -0.0255   -2.0922 F   0  0  0  0  0  0  0  0  0  0  0  0
   -1.8650   -1.3983   -0.7951 F   0  0  0  0  0  0  0  0  0  0  0  0
    3.3932   -0.7065    0.7012 N   0  0  0  0  0  0  0  0  0  0  0  0
    4.5588    0.0839    0.7847 C   0  0  0  0  0  0  0  0  0  0  0  0
    5.0134    0.8888   -0.2597 C   0  0  0  0  0  0  0  0  0  0  0  0
    6.2208    1.5720   -0.1514 C   0  0  0  0  0  0  0  0  0  0  0  0
    6.9662    1.4797    1.0184 C   0  0  0  0  0  0  0  0  0  0  0  0
    6.4805    0.7820    2.1267 C   0  0  0  0  0  0  0  0  0  0  0  0
    7.1756    0.8317    3.4190 C   0  0  0  0  0  0  0  0  0  0  0  0
    7.3282   -0.1435    4.3934 C   0  0  0  0  0  0  0  0  0  0  0  0
    8.0397    0.3078    5.4723 N   0  0  0  0  0  0  0  0  0  0  0  0
    8.3247    1.5600    5.1949 C   0  0  0  0  0  0  0  0  0  0  0  0
    9.0416    2.5351    5.9468 C   0  0  0  0  0  0  0  0  0  0  0  0
    9.2119    3.7986    5.4866 C   0  0  0  0  0  0  0  0  0  0  0  0
    9.9224    4.7885    6.2379 C   0  0  0  0  0  0  0  0  0  0  0  0
    9.7719    6.1919    6.2506 C   0  0  0  0  0  0  0  0  0  0  0  0
   10.6100    6.7880    7.1039 N   0  0  0  0  0  0  0  0  0  0  0  0
   11.2908    5.7615    7.6534 N   0  0  0  0  0  0  0  0  0  0  0  0
   12.2718    6.0428    8.6912 C   0  0  3  0  0  0  0  0  0  0  0  0
   13.6502    6.2869    8.1200 C   0  0  0  0  0  0  0  0  0  0  0  0
   14.2409    4.8925    8.0518 C   0  0  0  0  0  0  0  0  0  0  0  0
   13.6136    4.1133    9.0805 O   0  0  0  0  0  0  0  0  0  0  0  0
   12.5236    4.8750    9.6312 C   0  0  0  0  0  0  0  0  0  0  0  0
   10.9391    4.5502    7.1334 C   0  0  0  0  0  0  0  0  0  0  0  0
    8.6315    4.1596    4.1889 C   0  0  0  0  0  0  0  0  0  0  0  0
    7.9350    3.2539    3.4867 C   0  0  0  0  0  0  0  0  0  0  0  0
    7.7998    1.9508    3.9675 N   0  0  0  0  0  0  0  0  0  0  0  0
    5.2913    0.0479    1.9836 C   0  0  0  0  0  0  0  0  0  0  0  0
    1.2534   -1.8074    0.8494 H   0  0  0  0  0  0  0  0  0  0  0  0
    0.0195   -2.8416   -0.9591 H   0  0  0  0  0  0  0  0  0  0  0  0
    0.8693   -1.8125   -2.1110 H   0  0  0  0  0  0  0  0  0  0  0  0
    3.2109   -1.3204    1.4804 H   0  0  0  0  0  0  0  0  0  0  0  0
    4.4630    0.9923   -1.1885 H   0  0  0  0  0  0  0  0  0  0  0  0
    6.5769    2.1758   -0.9819 H   0  0  0  0  0  0  0  0  0  0  0  0
    7.9312    1.9821    1.0472 H   0  0  0  0  0  0  0  0  0  0  0  0
    6.9632   -1.1623    4.3677 H   0  0  0  0  0  0  0  0  0  0  0  0
    9.4283    2.2158    6.9087 H   0  0  0  0  0  0  0  0  0  0  0  0
    9.0847    6.8084    5.6849 H   0  0  0  0  0  0  0  0  0  0  0  0
   11.8897    6.9087    9.2454 H   0  0  0  0  0  0  0  0  0  0  0  0
   14.2329    6.8895    8.8250 H   0  0  0  0  0  0  0  0  0  0  0  0
   13.6675    6.7946    7.1489 H   0  0  0  0  0  0  0  0  0  0  0  0
   15.3240    4.8944    8.2085 H   0  0  0  0  0  0  0  0  0  0  0  0
   14.0349    4.4145    7.0887 H   0  0  0  0  0  0  0  0  0  0  0  0
   12.8510    5.2327   10.6124 H   0  0  0  0  0  0  0  0  0  0  0  0
   11.6601    4.2187    9.7848 H   0  0  0  0  0  0  0  0  0  0  0  0
   11.4201    3.6331    7.4446 H   0  0  0  0  0  0  0  0  0  0  0  0
    8.7728    5.1617    3.7969 H   0  0  0  0  0  0  0  0  0  0  0  0
    7.4747    3.5139    2.5449 H   0  0  0  0  0  0  0  0  0  0  0  0
    4.9219   -0.5393    2.8214 H   0  0  0  0  0  0  0  0  0  0  0  0
  1  2  2  0  0  0  0
  2  3  1  0  0  0  0
  2  9  1  0  0  0  0
  3  4  1  0  0  0  0
  3 35  1  0  0  0  0
  4  5  1  0  0  0  0
  4 36  1  0  0  0  0
  4 37  1  0  0  0  0
  5  6  1  0  0  0  0
  5  7  1  0  0  0  0
  5  8  1  0  0  0  0
  9 10  1  0  0  0  0
  9 38  1  0  0  0  0
 10 11  1  0  0  0  0
 10 34  2  0  0  0  0
 11 12  2  0  0  0  0
 11 39  1  0  0  0  0
 12 13  1  0  0  0  0
 12 40  1  0  0  0  0
 13 14  2  0  0  0  0
 13 41  1  0  0  0  0
 14 15  1  0  0  0  0
 14 34  1  0  0  0  0
 15 16  2  0  0  0  0
 15 33  1  0  0  0  0
 16 17  1  0  0  0  0
 16 42  1  0  0  0  0
 17 18  2  0  0  0  0
 18 19  1  0  0  0  0
 18 33  1  0  0  0  0
 19 20  2  0  0  0  0
 19 43  1  0  0  0  0
 20 21  1  0  0  0  0
 20 31  1  0  0  0  0
 21 22  1  0  0  0  0
 21 30  2  0  0  0  0
 22 23  2  0  0  0  0
 22 44  1  0  0  0  0
 23 24  1  0  0  0  0
 24 25  1  0  0  0  0
 24 30  1  0  0  0  0
 25 26  1  0  0  0  0
 25 29  1  0  0  0  0
 25 45  1  0  0  0  0
 26 27  1  0  0  0  0
 26 46  1  0  0  0  0
 26 47  1  0  0  0  0
 27 28  1  0  0  0  0
 27 48  1  0  0  0  0
 27 49  1  0  0  0  0
 28 29  1  0  0  0  0
 29 50  1  0  0  0  0
 29 51  1  0  0  0  0
 30 52  1  0  0  0  0
 31 32  2  0  0  0  0
 31 53  1  0  0  0  0
 32 33  1  0  0  0  0
 32 54  1  0  0  0  0
 34 55  1  0  0  0  0
M  END
$$$$
