CHEMBL204710
 OpenBabel04072215363D

 45 49  0  0  0  0  0  0  0  0999 V2000
    0.7052    1.2083    0.0317 C   0  0  0  0  0  0  0  0  0  0  0  0
   -0.6583    1.0511    0.1107 C   0  0  0  0  0  0  0  0  0  0  0  0
   -1.2728   -0.1511    0.1906 N   0  0  0  0  0  0  0  0  0  0  0  0
   -0.5252   -1.2850    0.1507 C   0  0  0  0  0  0  0  0  0  0  0  0
   -1.2253   -2.5099    0.1659 N   0  0  0  0  0  0  0  0  0  0  0  0
   -2.4692   -2.4383    0.9330 C   0  0  0  0  0  0  0  0  0  0  0  0
   -3.1724   -3.7773    0.9423 C   0  0  0  0  0  0  0  0  0  0  0  0
   -3.4740   -4.4389    2.1389 C   0  0  0  0  0  0  0  0  0  0  0  0
   -4.2052   -5.6168    2.0834 C   0  0  0  0  0  0  0  0  0  0  0  0
   -4.6448   -6.1756    0.9363 N   0  0  0  0  0  0  0  0  0  0  0  0
   -4.3430   -5.5249   -0.2073 C   0  0  0  0  0  0  0  0  0  0  0  0
   -3.6168   -4.3447   -0.2551 C   0  0  0  0  0  0  0  0  0  0  0  0
    0.8708   -1.2188    0.0039 C   0  0  0  0  0  0  0  0  0  0  0  0
    1.7612   -2.3597   -0.1351 C   0  0  0  0  0  0  0  0  0  0  0  0
    3.0783   -2.3714   -0.1262 N   0  0  0  0  0  0  0  0  0  0  0  0
    3.4515   -3.6491   -0.4548 N   0  0  0  0  0  0  0  0  0  0  0  0
    2.3504   -4.3376   -0.6503 C   0  0  0  0  0  0  0  0  0  0  0  0
    2.1339   -5.5860   -1.1058 N   0  0  0  0  0  0  0  0  0  0  0  0
    3.0553   -6.3309   -1.8790 C   0  0  0  0  0  0  0  0  0  0  0  0
    2.5644   -7.3797   -2.6934 C   0  0  0  0  0  0  0  0  0  0  0  0
    3.4191   -8.1239   -3.5211 C   0  0  0  0  0  0  0  0  0  0  0  0
    4.7591   -7.8155   -3.5019 C   0  0  0  0  0  0  0  0  0  0  0  0
    5.2513   -6.8159   -2.7023 C   0  0  0  0  0  0  0  0  0  0  0  0
    4.4321   -6.0672   -1.8846 C   0  0  0  0  0  0  0  0  0  0  0  0
    6.5969   -6.6653   -2.8189 O   0  0  0  0  0  0  0  0  0  0  0  0
    6.9055   -7.7321   -3.7370 C   0  0  0  0  0  0  0  0  0  0  0  0
    5.7350   -8.4220   -4.2267 O   0  0  0  0  0  0  0  0  0  0  0  0
    1.2244   -3.5898   -0.4086 O   0  0  0  0  0  0  0  0  0  0  0  0
    1.4746    0.0568   -0.0124 C   0  0  0  0  0  0  0  0  0  0  0  0
    1.1590    2.1904   -0.0133 H   0  0  0  0  0  0  0  0  0  0  0  0
   -1.3219    1.9116    0.1076 H   0  0  0  0  0  0  0  0  0  0  0  0
   -0.6327   -3.2653    0.5014 H   0  0  0  0  0  0  0  0  0  0  0  0
   -3.1696   -1.7083    0.5069 H   0  0  0  0  0  0  0  0  0  0  0  0
   -2.2499   -2.1335    1.9652 H   0  0  0  0  0  0  0  0  0  0  0  0
   -3.1721   -4.0412    3.1023 H   0  0  0  0  0  0  0  0  0  0  0  0
   -4.4770   -6.1533    2.9892 H   0  0  0  0  0  0  0  0  0  0  0  0
   -4.7229   -5.9822   -1.1151 H   0  0  0  0  0  0  0  0  0  0  0  0
   -3.4202   -3.8597   -1.2064 H   0  0  0  0  0  0  0  0  0  0  0  0
    1.1675   -5.8593   -1.2226 H   0  0  0  0  0  0  0  0  0  0  0  0
    1.5024   -7.6140   -2.7058 H   0  0  0  0  0  0  0  0  0  0  0  0
    3.0365   -8.9121   -4.1596 H   0  0  0  0  0  0  0  0  0  0  0  0
    4.8863   -5.2970   -1.2727 H   0  0  0  0  0  0  0  0  0  0  0  0
    7.5477   -8.4552   -3.2215 H   0  0  0  0  0  0  0  0  0  0  0  0
    7.4548   -7.3154   -4.5884 H   0  0  0  0  0  0  0  0  0  0  0  0
    2.5584    0.1514   -0.0863 H   0  0  0  0  0  0  0  0  0  0  0  0
  1  2  1  0  0  0  0
  1 29  2  0  0  0  0
  1 30  1  0  0  0  0
  2  3  2  0  0  0  0
  2 31  1  0  0  0  0
  3  4  1  0  0  0  0
  4  5  1  0  0  0  0
  4 13  2  0  0  0  0
  5  6  1  0  0  0  0
  5 32  1  0  0  0  0
  6  7  1  0  0  0  0
  6 33  1  0  0  0  0
  6 34  1  0  0  0  0
  7  8  1  0  0  0  0
  7 12  2  0  0  0  0
  8  9  2  0  0  0  0
  8 35  1  0  0  0  0
  9 10  1  0  0  0  0
  9 36  1  0  0  0  0
 10 11  2  0  0  0  0
 11 12  1  0  0  0  0
 11 37  1  0  0  0  0
 12 38  1  0  0  0  0
 13 14  1  0  0  0  0
 13 29  1  0  0  0  0
 14 15  2  0  0  0  0
 14 28  1  0  0  0  0
 15 16  1  0  0  0  0
 16 17  2  0  0  0  0
 17 18  1  0  0  0  0
 17 28  1  0  0  0  0
 18 19  1  0  0  0  0
 18 39  1  0  0  0  0
 19 20  1  0  0  0  0
 19 24  2  0  0  0  0
 20 21  2  0  0  0  0
 20 40  1  0  0  0  0
 21 22  1  0  0  0  0
 21 41  1  0  0  0  0
 22 23  2  0  0  0  0
 22 27  1  0  0  0  0
 23 24  1  0  0  0  0
 23 25  1  0  0  0  0
 24 42  1  0  0  0  0
 25 26  1  0  0  0  0
 26 27  1  0  0  0  0
 26 43  1  0  0  0  0
 26 44  1  0  0  0  0
 29 45  1  0  0  0  0
M  END
$$$$
