CHEMBL482621
 OpenBabel04072215383D

 31 34  0  0  0  0  0  0  0  0999 V2000
   -2.3923    1.1951    0.1664 O   0  0  0  0  0  0  0  0  0  0  0  0
   -1.5876    0.2899    0.0556 C   0  0  0  0  0  0  0  0  0  0  0  0
   -1.9102   -1.0476    0.0003 N   0  0  0  0  0  0  0  0  0  0  0  0
   -0.7583   -1.9051    0.0146 C   0  0  0  0  0  0  0  0  0  0  0  0
    0.3689   -0.9294    0.0458 C   0  0  0  0  0  0  0  0  0  0  0  0
    1.7277   -1.1952    0.0662 C   0  0  0  0  0  0  0  0  0  0  0  0
    2.6050   -0.1123    0.0608 C   0  0  0  0  0  0  0  0  0  0  0  0
    2.1173    1.2072    0.0086 C   0  0  0  0  0  0  0  0  0  0  0  0
    0.7382    1.4915   -0.0235 C   0  0  0  0  0  0  0  0  0  0  0  0
    0.2982    2.8823   -0.1788 C   0  0  0  0  0  0  0  0  0  0  0  0
    0.9060    3.9421   -0.8354 C   0  0  0  0  0  0  0  0  0  0  0  0
    0.0373    5.0658   -0.7949 C   0  0  0  0  0  0  0  0  0  0  0  0
    0.0882    6.3659   -1.3312 C   0  0  0  0  0  0  0  0  0  0  0  0
   -0.9871    7.2357   -1.1132 C   0  0  0  0  0  0  0  0  0  0  0  0
   -2.0922    6.8291   -0.3678 C   0  0  0  0  0  0  0  0  0  0  0  0
   -2.1636    5.5414    0.1710 C   0  0  0  0  0  0  0  0  0  0  0  0
   -1.0850    4.6838   -0.0688 C   0  0  0  0  0  0  0  0  0  0  0  0
   -0.9021    3.3696    0.2925 N   0  0  0  0  0  0  0  0  0  0  0  0
   -0.1133    0.3898    0.0287 C   0  0  0  0  0  0  0  0  0  0  0  0
   -2.8740   -1.3528    0.0329 H   0  0  0  0  0  0  0  0  0  0  0  0
   -0.7570   -2.5105   -0.8953 H   0  0  0  0  0  0  0  0  0  0  0  0
   -0.7919   -2.5299    0.9103 H   0  0  0  0  0  0  0  0  0  0  0  0
    2.1058   -2.2121    0.0833 H   0  0  0  0  0  0  0  0  0  0  0  0
    3.6790   -0.2843    0.0812 H   0  0  0  0  0  0  0  0  0  0  0  0
    2.8420    2.0204   -0.0083 H   0  0  0  0  0  0  0  0  0  0  0  0
    1.8577    3.9012   -1.3481 H   0  0  0  0  0  0  0  0  0  0  0  0
    0.9406    6.6843   -1.9223 H   0  0  0  0  0  0  0  0  0  0  0  0
   -0.9595    8.2365   -1.5360 H   0  0  0  0  0  0  0  0  0  0  0  0
   -2.9173    7.5191   -0.2102 H   0  0  0  0  0  0  0  0  0  0  0  0
   -3.0291    5.2179    0.7398 H   0  0  0  0  0  0  0  0  0  0  0  0
   -1.6123    2.8035    0.7435 H   0  0  0  0  0  0  0  0  0  0  0  0
  1  2  2  0  0  0  0
  2  3  1  0  0  0  0
  2 19  1  0  0  0  0
  3  4  1  0  0  0  0
  3 20  1  0  0  0  0
  4  5  1  0  0  0  0
  4 21  1  0  0  0  0
  4 22  1  0  0  0  0
  5  6  1  0  0  0  0
  5 19  2  0  0  0  0
  6  7  2  0  0  0  0
  6 23  1  0  0  0  0
  7  8  1  0  0  0  0
  7 24  1  0  0  0  0
  8  9  2  0  0  0  0
  8 25  1  0  0  0  0
  9 10  1  0  0  0  0
  9 19  1  0  0  0  0
 10 11  2  0  0  0  0
 10 18  1  0  0  0  0
 11 12  1  0  0  0  0
 11 26  1  0  0  0  0
 12 13  1  0  0  0  0
 12 17  2  0  0  0  0
 13 14  2  0  0  0  0
 13 27  1  0  0  0  0
 14 15  1  0  0  0  0
 14 28  1  0  0  0  0
 15 16  2  0  0  0  0
 15 29  1  0  0  0  0
 16 17  1  0  0  0  0
 16 30  1  0  0  0  0
 17 18  1  0  0  0  0
 18 31  1  0  0  0  0
M  END
$$$$
