CHEMBL1988163
 OpenBabel04072215363D

 41 44  0  0  0  0  0  0  0  0999 V2000
    6.6863    0.2719   -3.3207 N   0  0  0  0  0  0  0  0  0  0  0  0
    6.9965   -0.6083   -1.9246 S   0  0  0  0  0  0  0  0  0  0  0  0
    5.7198   -1.0873   -1.4564 O   0  0  0  0  0  0  0  0  0  0  0  0
    8.0807   -1.4979   -2.2726 O   0  0  0  0  0  0  0  0  0  0  0  0
    7.5817    0.6317   -0.8102 C   0  0  0  0  0  0  0  0  0  0  0  0
    8.8804    0.5423   -0.3077 C   0  0  0  0  0  0  0  0  0  0  0  0
    9.3476    1.5301    0.5513 C   0  0  0  0  0  0  0  0  0  0  0  0
    8.5250    2.6094    0.8828 C   0  0  0  0  0  0  0  0  0  0  0  0
    7.2239    2.7208    0.3670 C   0  0  0  0  0  0  0  0  0  0  0  0
    6.3937    3.8164    0.6656 N   0  0  0  0  0  0  0  0  0  0  0  0
    6.8058    5.1246    0.9431 C   0  0  0  0  0  0  0  0  0  0  0  0
    6.0264    5.8370    1.7777 N   0  0  0  0  0  0  0  0  0  0  0  0
    6.3732    7.1137    2.0698 C   0  0  0  0  0  0  0  0  0  0  0  0
    7.5049    7.6765    1.4893 C   0  0  0  0  0  0  0  0  0  0  0  0
    8.1756    8.9190    1.5491 C   0  0  0  0  0  0  0  0  0  0  0  0
    9.2812    8.8286    0.7302 C   0  0  0  0  0  0  0  0  0  0  0  0
    9.3058    7.5772    0.1296 N   0  0  0  0  0  0  0  0  0  0  0  0
   10.2837    7.1279   -0.8117 C   0  0  0  0  0  0  0  0  0  0  0  0
   11.5560    7.7177   -0.8458 C   0  0  0  0  0  0  0  0  0  0  0  0
   12.5186    7.2636   -1.7534 C   0  0  0  0  0  0  0  0  0  0  0  0
   12.2146    6.2383   -2.6463 C   0  0  0  0  0  0  0  0  0  0  0  0
   10.9488    5.6596   -2.6306 C   0  0  0  0  0  0  0  0  0  0  0  0
    9.9888    6.0958   -1.7140 C   0  0  0  0  0  0  0  0  0  0  0  0
    8.2144    6.8644    0.6185 C   0  0  0  0  0  0  0  0  0  0  0  0
    7.9079    5.5868    0.3416 N   0  0  0  0  0  0  0  0  0  0  0  0
    6.7422    1.6972   -0.4569 C   0  0  0  0  0  0  0  0  0  0  0  0
    5.7105    0.1476   -3.5948 H   0  0  0  0  0  0  0  0  0  0  0  0
    7.3522    0.0104   -4.0511 H   0  0  0  0  0  0  0  0  0  0  0  0
    9.5320   -0.2837   -0.5826 H   0  0  0  0  0  0  0  0  0  0  0  0
   10.3548    1.4734    0.9561 H   0  0  0  0  0  0  0  0  0  0  0  0
    8.9179    3.3731    1.5516 H   0  0  0  0  0  0  0  0  0  0  0  0
    5.5823    3.5989    1.2279 H   0  0  0  0  0  0  0  0  0  0  0  0
    5.7338    7.6445    2.7654 H   0  0  0  0  0  0  0  0  0  0  0  0
    7.8891    9.7903    2.1238 H   0  0  0  0  0  0  0  0  0  0  0  0
   10.0212    9.5785    0.4872 H   0  0  0  0  0  0  0  0  0  0  0  0
   11.8453    8.4983   -0.1482 H   0  0  0  0  0  0  0  0  0  0  0  0
   13.5118    7.7056   -1.7569 H   0  0  0  0  0  0  0  0  0  0  0  0
   12.9630    5.8883   -3.3521 H   0  0  0  0  0  0  0  0  0  0  0  0
   10.7019    4.8665   -3.3322 H   0  0  0  0  0  0  0  0  0  0  0  0
    9.0075    5.6299   -1.7537 H   0  0  0  0  0  0  0  0  0  0  0  0
    5.7353    1.7568   -0.8640 H   0  0  0  0  0  0  0  0  0  0  0  0
  1  2  1  0  0  0  0
  1 27  1  0  0  0  0
  1 28  1  0  0  0  0
  2  3  2  0  0  0  0
  2  4  2  0  0  0  0
  2  5  1  0  0  0  0
  5  6  1  0  0  0  0
  5 26  2  0  0  0  0
  6  7  2  0  0  0  0
  6 29  1  0  0  0  0
  7  8  1  0  0  0  0
  7 30  1  0  0  0  0
  8  9  2  0  0  0  0
  8 31  1  0  0  0  0
  9 10  1  0  0  0  0
  9 26  1  0  0  0  0
 10 11  1  0  0  0  0
 10 32  1  0  0  0  0
 11 12  1  0  0  0  0
 11 25  2  0  0  0  0
 12 13  2  0  0  0  0
 13 14  1  0  0  0  0
 13 33  1  0  0  0  0
 14 15  1  0  0  0  0
 14 24  2  0  0  0  0
 15 16  2  0  0  0  0
 15 34  1  0  0  0  0
 16 17  1  0  0  0  0
 16 35  1  0  0  0  0
 17 18  1  0  0  0  0
 17 24  1  0  0  0  0
 18 19  1  0  0  0  0
 18 23  2  0  0  0  0
 19 20  2  0  0  0  0
 19 36  1  0  0  0  0
 20 21  1  0  0  0  0
 20 37  1  0  0  0  0
 21 22  2  0  0  0  0
 21 38  1  0  0  0  0
 22 23  1  0  0  0  0
 22 39  1  0  0  0  0
 23 40  1  0  0  0  0
 24 25  1  0  0  0  0
 26 41  1  0  0  0  0
M  END
$$$$
