CHEMBL196499
 OpenBabel04072215363D

 44 47  0  0  0  0  0  0  0  0999 V2000
    5.4347    1.6654   -1.6271 C   0  0  0  0  0  0  0  0  0  0  0  0
    4.4534    0.8499   -0.8406 C   0  0  0  0  0  0  0  0  0  0  0  0
    4.7741   -0.8281   -0.7284 S   0  0  0  0  0  0  0  0  0  0  0  0
    3.4369   -1.0989    0.2739 C   0  0  0  0  0  0  0  0  0  0  0  0
    3.2152   -2.3397    0.7297 N   0  0  0  0  0  0  0  0  0  0  0  0
    2.1348   -2.4107    1.5063 C   0  0  0  0  0  0  0  0  0  0  0  0
    1.2979   -1.4242    1.8083 N   0  0  0  0  0  0  0  0  0  0  0  0
    1.5334   -0.1906    1.3146 C   0  0  0  0  0  0  0  0  0  0  0  0
    0.5752    0.7457    1.6626 N   0  0  0  0  0  0  0  0  0  0  0  0
    2.6802    0.0394    0.5099 C   0  0  0  0  0  0  0  0  0  0  0  0
    3.2973    1.2130   -0.1459 C   0  0  0  0  0  0  0  0  0  0  0  0
    2.8506    2.6206   -0.0649 C   0  0  0  0  0  0  0  0  0  0  0  0
    2.3158    3.1067    1.1264 C   0  0  0  0  0  0  0  0  0  0  0  0
    1.7699    4.3887    1.2085 C   0  0  0  0  0  0  0  0  0  0  0  0
    1.8538    5.2836    0.1411 C   0  0  0  0  0  0  0  0  0  0  0  0
    1.3351    6.5993    0.1926 N   0  0  0  0  0  0  0  0  0  0  0  0
    0.6957    7.1681    1.2643 C   0  0  0  0  0  0  0  0  0  0  0  0
    0.5592    6.6286    2.3617 O   0  0  0  0  0  0  0  0  0  0  0  0
    0.1702    8.4209    0.9812 N   0  0  0  0  0  0  0  0  0  0  0  0
   -0.5703    9.0830    1.9877 C   0  0  0  0  0  0  0  0  0  0  0  0
   -0.0879    9.1688    3.3029 C   0  0  0  0  0  0  0  0  0  0  0  0
   -0.9034    9.6427    4.3231 C   0  0  0  0  0  0  0  0  0  0  0  0
   -2.1965   10.0471    4.0208 C   0  0  0  0  0  0  0  0  0  0  0  0
   -3.0099   10.4430    5.0093 F   0  0  0  0  0  0  0  0  0  0  0  0
   -2.6732   10.0119    2.7148 C   0  0  0  0  0  0  0  0  0  0  0  0
   -1.8484    9.5562    1.6831 C   0  0  0  0  0  0  0  0  0  0  0  0
    2.4679    4.8441   -1.0297 C   0  0  0  0  0  0  0  0  0  0  0  0
    2.9209    3.5168   -1.1422 C   0  0  0  0  0  0  0  0  0  0  0  0
    6.3504    1.1090   -1.8556 H   0  0  0  0  0  0  0  0  0  0  0  0
    5.7321    2.5608   -1.0728 H   0  0  0  0  0  0  0  0  0  0  0  0
    5.0027    1.9605   -2.5882 H   0  0  0  0  0  0  0  0  0  0  0  0
    1.9088   -3.3872    1.9278 H   0  0  0  0  0  0  0  0  0  0  0  0
   -0.2287    0.2880    2.0814 H   0  0  0  0  0  0  0  0  0  0  0  0
    0.3675    1.4398    0.9565 H   0  0  0  0  0  0  0  0  0  0  0  0
    2.2800    2.4934    2.0238 H   0  0  0  0  0  0  0  0  0  0  0  0
    1.2868    4.6397    2.1471 H   0  0  0  0  0  0  0  0  0  0  0  0
    1.5249    7.1999   -0.6039 H   0  0  0  0  0  0  0  0  0  0  0  0
   -0.1747    8.5135    0.0339 H   0  0  0  0  0  0  0  0  0  0  0  0
    0.9128    8.8121    3.5450 H   0  0  0  0  0  0  0  0  0  0  0  0
   -0.5497    9.6684    5.3464 H   0  0  0  0  0  0  0  0  0  0  0  0
   -3.6969   10.3141    2.5127 H   0  0  0  0  0  0  0  0  0  0  0  0
   -2.2485    9.4900    0.6754 H   0  0  0  0  0  0  0  0  0  0  0  0
    2.5833    5.5092   -1.8815 H   0  0  0  0  0  0  0  0  0  0  0  0
    3.3214    3.2106   -2.1025 H   0  0  0  0  0  0  0  0  0  0  0  0
  1  2  1  0  0  0  0
  1 29  1  0  0  0  0
  1 30  1  0  0  0  0
  1 31  1  0  0  0  0
  2  3  1  0  0  0  0
  2 11  2  0  0  0  0
  3  4  1  0  0  0  0
  4  5  1  0  0  0  0
  4 10  2  0  0  0  0
  5  6  2  0  0  0  0
  6  7  1  0  0  0  0
  6 32  1  0  0  0  0
  7  8  2  0  0  0  0
  8  9  1  0  0  0  0
  8 10  1  0  0  0  0
  9 33  1  0  0  0  0
  9 34  1  0  0  0  0
 10 11  1  0  0  0  0
 11 12  1  0  0  0  0
 12 13  1  0  0  0  0
 12 28  2  0  0  0  0
 13 14  2  0  0  0  0
 13 35  1  0  0  0  0
 14 15  1  0  0  0  0
 14 36  1  0  0  0  0
 15 16  1  0  0  0  0
 15 27  2  0  0  0  0
 16 17  1  0  0  0  0
 16 37  1  0  0  0  0
 17 18  2  0  0  0  0
 17 19  1  0  0  0  0
 19 20  1  0  0  0  0
 19 38  1  0  0  0  0
 20 21  1  0  0  0  0
 20 26  2  0  0  0  0
 21 22  2  0  0  0  0
 21 39  1  0  0  0  0
 22 23  1  0  0  0  0
 22 40  1  0  0  0  0
 23 24  1  0  0  0  0
 23 25  2  0  0  0  0
 25 26  1  0  0  0  0
 25 41  1  0  0  0  0
 26 42  1  0  0  0  0
 27 28  1  0  0  0  0
 27 43  1  0  0  0  0
 28 44  1  0  0  0  0
M  END
$$$$
