CHEMBL3752370
 OpenBabel04072215373D

 39 41  0  0  0  0  0  0  0  0999 V2000
    1.0175    0.1703    0.1514 O   0  0  0  0  0  0  0  0  0  0  0  0
    2.2178   -0.0628    0.0975 C   0  0  0  0  0  0  0  0  0  0  0  0
    2.8480   -0.8948   -0.8027 N   0  0  0  0  0  0  0  0  0  0  0  0
    2.2254   -1.6685   -1.8123 C   0  0  0  0  0  0  0  0  0  0  0  0
    0.9137   -1.4548   -2.2349 C   0  0  0  0  0  0  0  0  0  0  0  0
    0.3891   -2.3004   -3.2003 C   0  0  0  0  0  0  0  0  0  0  0  0
    1.0699   -3.3150   -3.7664 N   0  0  0  0  0  0  0  0  0  0  0  0
    2.3414   -3.4943   -3.3522 C   0  0  0  0  0  0  0  0  0  0  0  0
    2.9547   -2.7006   -2.3918 C   0  0  0  0  0  0  0  0  0  0  0  0
    3.0162    0.4514    1.0973 N   0  0  0  0  0  0  0  0  0  0  0  0
    4.4113    0.4105    1.2003 C   0  0  0  0  0  0  0  0  0  0  0  0
    5.1692    0.9535    0.1445 C   0  0  0  0  0  0  0  0  0  0  0  0
    6.5641    1.1164    0.2312 C   0  0  0  0  0  0  0  0  0  0  0  0
    7.3285    1.7629   -0.8525 C   0  0  0  0  0  0  0  0  0  0  0  0
    6.8222    2.7876   -1.6412 C   0  0  0  0  0  0  0  0  0  0  0  0
    7.4867    3.3927   -2.6507 N   0  0  0  0  0  0  0  0  0  0  0  0
    8.7319    2.9517   -2.8713 C   0  0  0  0  0  0  0  0  0  0  0  0
    9.3504    1.9844   -2.1824 N   0  0  0  0  0  0  0  0  0  0  0  0
    8.6284    1.4160   -1.1903 C   0  0  0  0  0  0  0  0  0  0  0  0
    7.1841    0.6720    1.4084 C   0  0  0  0  0  0  0  0  0  0  0  0
    6.4399    0.1087    2.4532 C   0  0  0  0  0  0  0  0  0  0  0  0
    5.0521   -0.0300    2.3611 C   0  0  0  0  0  0  0  0  0  0  0  0
    4.4784   -0.5567    3.4797 O   0  0  0  0  0  0  0  0  0  0  0  0
    3.4055   -1.4857    3.3701 C   0  0  0  0  0  0  0  0  0  0  0  0
    3.1309   -1.8725    2.1096 F   0  0  0  0  0  0  0  0  0  0  0  0
    3.7256   -2.5971    4.0712 F   0  0  0  0  0  0  0  0  0  0  0  0
    2.3051   -0.9358    3.9243 F   0  0  0  0  0  0  0  0  0  0  0  0
    3.7881   -1.1700   -0.5607 H   0  0  0  0  0  0  0  0  0  0  0  0
    0.2924   -0.6635   -1.8411 H   0  0  0  0  0  0  0  0  0  0  0  0
   -0.6330   -2.1658   -3.5501 H   0  0  0  0  0  0  0  0  0  0  0  0
    2.8617   -4.3249   -3.8136 H   0  0  0  0  0  0  0  0  0  0  0  0
    3.9788   -2.9198   -2.1045 H   0  0  0  0  0  0  0  0  0  0  0  0
    2.4725    0.7064    1.9147 H   0  0  0  0  0  0  0  0  0  0  0  0
    4.6398    1.3188   -0.7345 H   0  0  0  0  0  0  0  0  0  0  0  0
    5.8235    3.1879   -1.4814 H   0  0  0  0  0  0  0  0  0  0  0  0
    9.2849    3.4184   -3.6782 H   0  0  0  0  0  0  0  0  0  0  0  0
    9.1596    0.6275   -0.6636 H   0  0  0  0  0  0  0  0  0  0  0  0
    8.2575    0.7853    1.5535 H   0  0  0  0  0  0  0  0  0  0  0  0
    6.9571   -0.2156    3.3553 H   0  0  0  0  0  0  0  0  0  0  0  0
  1  2  2  0  0  0  0
  2  3  1  0  0  0  0
  2 10  1  0  0  0  0
  3  4  1  0  0  0  0
  3 28  1  0  0  0  0
  4  5  1  0  0  0  0
  4  9  2  0  0  0  0
  5  6  2  0  0  0  0
  5 29  1  0  0  0  0
  6  7  1  0  0  0  0
  6 30  1  0  0  0  0
  7  8  2  0  0  0  0
  8  9  1  0  0  0  0
  8 31  1  0  0  0  0
  9 32  1  0  0  0  0
 10 11  1  0  0  0  0
 10 33  1  0  0  0  0
 11 12  1  0  0  0  0
 11 22  2  0  0  0  0
 12 13  2  0  0  0  0
 12 34  1  0  0  0  0
 13 14  1  0  0  0  0
 13 20  1  0  0  0  0
 14 15  1  0  0  0  0
 14 19  2  0  0  0  0
 15 16  2  0  0  0  0
 15 35  1  0  0  0  0
 16 17  1  0  0  0  0
 17 18  2  0  0  0  0
 17 36  1  0  0  0  0
 18 19  1  0  0  0  0
 19 37  1  0  0  0  0
 20 21  2  0  0  0  0
 20 38  1  0  0  0  0
 21 22  1  0  0  0  0
 21 39  1  0  0  0  0
 22 23  1  0  0  0  0
 23 24  1  0  0  0  0
 24 25  1  0  0  0  0
 24 26  1  0  0  0  0
 24 27  1  0  0  0  0
M  END
$$$$
