CHEMBL1094196
 OpenBabel04072215363D

 71 74  0  0  0  0  0  0  0  0999 V2000
    2.4935    0.2478    2.0645 C   0  0  0  0  0  0  0  0  0  0  0  0
    3.6018    1.0319    2.3143 O   0  0  0  0  0  0  0  0  0  0  0  0
    4.0919    1.9682    1.4599 C   0  0  0  0  0  0  0  0  0  0  0  0
    3.4745    2.2405    0.2286 C   0  0  0  0  0  0  0  0  0  0  0  0
    3.9825    3.2227   -0.6091 C   0  0  0  0  0  0  0  0  0  0  0  0
    5.1315    3.9530   -0.2542 C   0  0  0  0  0  0  0  0  0  0  0  0
    5.6500    4.9987   -1.1761 C   0  0  0  0  0  0  0  0  0  0  0  0
    4.7742    5.6676   -2.0585 C   0  0  0  0  0  0  0  0  0  0  0  0
    5.2534    6.6029   -2.9702 C   0  0  0  0  0  0  0  0  0  0  0  0
    6.6190    6.8800   -3.0277 C   0  0  0  0  0  0  0  0  0  0  0  0
    7.1859    7.7396   -4.1068 C   0  0  0  0  0  0  0  0  0  0  0  0
    6.7357    9.1304   -4.1913 N   0  0  0  0  0  0  0  0  0  0  0  0
    5.6165    9.5578   -4.8207 C   0  0  0  0  0  0  0  0  0  0  0  0
    5.7137   10.9271   -5.0790 C   0  0  0  0  0  0  0  0  0  0  0  0
    4.8024   11.7568   -5.9432 C   0  0  0  0  0  0  0  0  0  0  0  0
    4.1573   10.9089   -7.0449 C   0  0  0  0  0  0  0  0  0  0  0  0
    3.4435   11.7606   -7.9866 N   0  0  0  0  0  0  0  0  0  0  0  0
    6.9374   11.3175   -4.5781 C   0  0  0  0  0  0  0  0  0  0  0  0
    7.6320   12.5271   -4.6807 C   0  0  0  0  0  0  0  0  0  0  0  0
    8.9386   12.5938   -4.1593 C   0  0  0  0  0  0  0  0  0  0  0  0
    9.6717   13.7178   -4.3724 O   0  0  0  0  0  0  0  0  0  0  0  0
   10.9889   13.8559   -3.9837 C   0  0  0  0  0  0  0  0  0  0  0  0
   11.6338   15.0827   -4.6273 C   0  0  0  0  0  0  0  0  0  0  0  0
   13.0262   15.2724   -4.0668 C   0  0  0  0  0  0  0  0  0  0  0  0
   14.0140   14.2796   -4.2184 C   0  0  0  0  0  0  0  0  0  0  0  0
   15.2780   14.4537   -3.6517 C   0  0  0  0  0  0  0  0  0  0  0  0
   15.5747   15.6184   -2.9349 C   0  0  0  0  0  0  0  0  0  0  0  0
   16.7877   15.7950   -2.3700 O   0  0  0  0  0  0  0  0  0  0  0  0
   14.6033   16.6147   -2.7926 C   0  0  0  0  0  0  0  0  0  0  0  0
   13.3353   16.4404   -3.3551 C   0  0  0  0  0  0  0  0  0  0  0  0
    9.4797   11.4644   -3.4780 C   0  0  0  0  0  0  0  0  0  0  0  0
    8.7697   10.2642   -3.4087 C   0  0  0  0  0  0  0  0  0  0  0  0
    7.5112   10.2140   -4.0012 C   0  0  0  0  0  0  0  0  0  0  0  0
    7.4980    6.2434   -2.1378 C   0  0  0  0  0  0  0  0  0  0  0  0
    7.0195    5.3180   -1.2139 C   0  0  0  0  0  0  0  0  0  0  0  0
    5.7683    3.6556    0.9671 C   0  0  0  0  0  0  0  0  0  0  0  0
    5.2429    2.6784    1.8195 C   0  0  0  0  0  0  0  0  0  0  0  0
    1.6947   -2.4170   -1.0667 Cl  0  0  0  0  0  0  0  0  0  0  0  0
    2.3031   -0.4133    2.9317 H   0  0  0  0  0  0  0  0  0  0  0  0
    2.6750   -0.3795    1.1678 H   0  0  0  0  0  0  0  0  0  0  0  0
    1.5975    0.8862    1.8986 H   0  0  0  0  0  0  0  0  0  0  0  0
    2.5922    1.7087   -0.0958 H   0  0  0  0  0  0  0  0  0  0  0  0
    3.4760    3.3833   -1.5493 H   0  0  0  0  0  0  0  0  0  0  0  0
    3.7116    5.4722   -2.0575 H   0  0  0  0  0  0  0  0  0  0  0  0
    4.5615    7.0731   -3.6544 H   0  0  0  0  0  0  0  0  0  0  0  0
    6.9432    7.2557   -5.0767 H   0  0  0  0  0  0  0  0  0  0  0  0
    8.2930    7.7182   -4.0611 H   0  0  0  0  0  0  0  0  0  0  0  0
    4.8341    8.9034   -5.1778 H   0  0  0  0  0  0  0  0  0  0  0  0
    5.4194   12.5337   -6.4427 H   0  0  0  0  0  0  0  0  0  0  0  0
    4.0318   12.2651   -5.3272 H   0  0  0  0  0  0  0  0  0  0  0  0
    3.4556   10.1712   -6.5954 H   0  0  0  0  0  0  0  0  0  0  0  0
    4.9514   10.3573   -7.5968 H   0  0  0  0  0  0  0  0  0  0  0  0
    2.6790   12.2663   -7.4852 H   0  0  0  0  0  0  0  0  0  0  0  0
    3.0103   11.1493   -8.7160 H   0  0  0  0  0  0  0  0  0  0  0  0
    7.2074   13.3737   -5.2020 H   0  0  0  0  0  0  0  0  0  0  0  0
   11.5710   12.9695   -4.3159 H   0  0  0  0  0  0  0  0  0  0  0  0
   11.0267   13.9351   -2.8758 H   0  0  0  0  0  0  0  0  0  0  0  0
   11.0030   15.9714   -4.4113 H   0  0  0  0  0  0  0  0  0  0  0  0
   11.6815   14.9544   -5.7319 H   0  0  0  0  0  0  0  0  0  0  0  0
   13.8037   13.3703   -4.7649 H   0  0  0  0  0  0  0  0  0  0  0  0
   16.0245   13.6768   -3.7652 H   0  0  0  0  0  0  0  0  0  0  0  0
   17.4850   15.1271   -2.4334 H   0  0  0  0  0  0  0  0  0  0  0  0
   14.8237   17.5175   -2.2392 H   0  0  0  0  0  0  0  0  0  0  0  0
   12.5906   17.2194   -3.2242 H   0  0  0  0  0  0  0  0  0  0  0  0
   10.4690   11.4831   -3.0395 H   0  0  0  0  0  0  0  0  0  0  0  0
    9.2109    9.4031   -2.9251 H   0  0  0  0  0  0  0  0  0  0  0  0
    8.5653    6.4290   -2.1876 H   0  0  0  0  0  0  0  0  0  0  0  0
    7.7369    4.8173   -0.5770 H   0  0  0  0  0  0  0  0  0  0  0  0
    6.6533    4.1915    1.2834 H   0  0  0  0  0  0  0  0  0  0  0  0
    5.7298    2.4802    2.7662 H   0  0  0  0  0  0  0  0  0  0  0  0
    2.8945   -1.8356   -0.7303 H   0  0  0  0  0  0  0  0  0  0  0  0
  1  2  1  0  0  0  0
  1 39  1  0  0  0  0
  1 40  1  0  0  0  0
  1 41  1  0  0  0  0
  2  3  1  0  0  0  0
  3  4  1  0  0  0  0
  3 37  2  0  0  0  0
  4  5  2  0  0  0  0
  4 42  1  0  0  0  0
  5  6  1  0  0  0  0
  5 43  1  0  0  0  0
  6  7  1  0  0  0  0
  6 36  2  0  0  0  0
  7  8  1  0  0  0  0
  7 35  2  0  0  0  0
  8  9  2  0  0  0  0
  8 44  1  0  0  0  0
  9 10  1  0  0  0  0
  9 45  1  0  0  0  0
 10 11  1  0  0  0  0
 10 34  2  0  0  0  0
 11 12  1  0  0  0  0
 11 46  1  0  0  0  0
 11 47  1  0  0  0  0
 12 13  1  0  0  0  0
 12 33  1  0  0  0  0
 13 14  2  0  0  0  0
 13 48  1  0  0  0  0
 14 15  1  0  0  0  0
 14 18  1  0  0  0  0
 15 16  1  0  0  0  0
 15 49  1  0  0  0  0
 15 50  1  0  0  0  0
 16 17  1  0  0  0  0
 16 51  1  0  0  0  0
 16 52  1  0  0  0  0
 17 53  1  0  0  0  0
 17 54  1  0  0  0  0
 18 19  1  0  0  0  0
 18 33  2  0  0  0  0
 19 20  2  0  0  0  0
 19 55  1  0  0  0  0
 20 21  1  0  0  0  0
 20 31  1  0  0  0  0
 21 22  1  0  0  0  0
 22 23  1  0  0  0  0
 22 56  1  0  0  0  0
 22 57  1  0  0  0  0
 23 24  1  0  0  0  0
 23 58  1  0  0  0  0
 23 59  1  0  0  0  0
 24 25  1  0  0  0  0
 24 30  2  0  0  0  0
 25 26  2  0  0  0  0
 25 60  1  0  0  0  0
 26 27  1  0  0  0  0
 26 61  1  0  0  0  0
 27 28  1  0  0  0  0
 27 29  2  0  0  0  0
 28 62  1  0  0  0  0
 29 30  1  0  0  0  0
 29 63  1  0  0  0  0
 30 64  1  0  0  0  0
 31 32  2  0  0  0  0
 31 65  1  0  0  0  0
 32 33  1  0  0  0  0
 32 66  1  0  0  0  0
 34 35  1  0  0  0  0
 34 67  1  0  0  0  0
 35 68  1  0  0  0  0
 36 37  1  0  0  0  0
 36 69  1  0  0  0  0
 37 70  1  0  0  0  0
 38 71  1  0  0  0  0
M  END
$$$$
