CHEMBL255956
 OpenBabel04072215363D

 45 48  0  0  0  0  0  0  0  0999 V2000
    2.0210   -0.2841    2.4901 C   0  0  0  0  0  0  0  0  0  0  0  0
    0.6156   -0.1402    1.9848 C   0  0  0  0  0  0  0  0  0  0  0  0
    0.0136    1.1166    1.9562 C   0  0  0  0  0  0  0  0  0  0  0  0
   -1.2949    1.2586    1.4865 C   0  0  0  0  0  0  0  0  0  0  0  0
   -2.0278    0.1612    1.0221 C   0  0  0  0  0  0  0  0  0  0  0  0
   -3.3550    0.2683    0.5301 N   0  0  0  0  0  0  0  0  0  0  0  0
   -4.0311    1.4524    0.3104 C   0  0  0  0  0  0  0  0  0  0  0  0
   -3.5485    2.5713    0.4456 O   0  0  0  0  0  0  0  0  0  0  0  0
   -5.3611    1.2451   -0.0463 N   0  0  0  0  0  0  0  0  0  0  0  0
   -6.1986    2.3633   -0.2866 C   0  0  0  0  0  0  0  0  0  0  0  0
   -5.7478    3.4623   -1.0185 C   0  0  0  0  0  0  0  0  0  0  0  0
   -6.4945    4.6429   -1.0603 C   0  0  0  0  0  0  0  0  0  0  0  0
   -7.7307    4.7522   -0.4006 C   0  0  0  0  0  0  0  0  0  0  0  0
   -8.4406    6.0484   -0.3448 C   0  0  0  0  0  0  0  0  0  0  0  0
   -8.4435    6.9290   -1.4487 C   0  0  0  0  0  0  0  0  0  0  0  0
   -9.0827    8.1604   -1.3790 C   0  0  0  0  0  0  0  0  0  0  0  0
   -9.7556    8.6234   -0.3053 N   0  0  0  0  0  0  0  0  0  0  0  0
   -9.7316    7.7663    0.7293 C   0  0  0  0  0  0  0  0  0  0  0  0
  -10.3303    7.9882    1.9311 N   0  0  0  0  0  0  0  0  0  0  0  0
  -10.1436    7.0071    2.8262 N   0  0  0  0  0  0  0  0  0  0  0  0
   -9.3891    6.1282    2.1677 C   0  0  0  0  0  0  0  0  0  0  0  0
   -8.9517    5.0175    2.7846 N   0  0  0  0  0  0  0  0  0  0  0  0
   -9.1156    6.5198    0.8154 C   0  0  0  0  0  0  0  0  0  0  0  0
   -8.2297    3.5828    0.1984 C   0  0  0  0  0  0  0  0  0  0  0  0
   -7.4698    2.4045    0.2757 C   0  0  0  0  0  0  0  0  0  0  0  0
   -1.4250   -1.0999    1.0623 C   0  0  0  0  0  0  0  0  0  0  0  0
   -0.1111   -1.2486    1.5397 C   0  0  0  0  0  0  0  0  0  0  0  0
    2.4314    0.6826    2.8034 H   0  0  0  0  0  0  0  0  0  0  0  0
    2.6677   -0.6799    1.7020 H   0  0  0  0  0  0  0  0  0  0  0  0
    2.0460   -0.9514    3.3565 H   0  0  0  0  0  0  0  0  0  0  0  0
    0.5433    1.9993    2.2987 H   0  0  0  0  0  0  0  0  0  0  0  0
   -1.7045    2.2628    1.5047 H   0  0  0  0  0  0  0  0  0  0  0  0
   -3.7824   -0.5761    0.1795 H   0  0  0  0  0  0  0  0  0  0  0  0
   -5.7938    0.4458    0.3931 H   0  0  0  0  0  0  0  0  0  0  0  0
   -4.7823    3.4363   -1.5197 H   0  0  0  0  0  0  0  0  0  0  0  0
   -6.0593    5.4927   -1.5820 H   0  0  0  0  0  0  0  0  0  0  0  0
   -7.9445    6.6650   -2.3775 H   0  0  0  0  0  0  0  0  0  0  0  0
   -9.0624    8.8391   -2.2250 H   0  0  0  0  0  0  0  0  0  0  0  0
  -10.8741    8.8009    2.1915 H   0  0  0  0  0  0  0  0  0  0  0  0
   -9.1129    4.9955    3.7866 H   0  0  0  0  0  0  0  0  0  0  0  0
   -8.0425    4.6448    2.5312 H   0  0  0  0  0  0  0  0  0  0  0  0
   -9.2112    3.5884    0.6700 H   0  0  0  0  0  0  0  0  0  0  0  0
   -7.8573    1.5686    0.8505 H   0  0  0  0  0  0  0  0  0  0  0  0
   -1.9567   -1.9843    0.7206 H   0  0  0  0  0  0  0  0  0  0  0  0
    0.3378   -2.2367    1.5590 H   0  0  0  0  0  0  0  0  0  0  0  0
  1  2  1  0  0  0  0
  1 28  1  0  0  0  0
  1 29  1  0  0  0  0
  1 30  1  0  0  0  0
  2  3  1  0  0  0  0
  2 27  2  0  0  0  0
  3  4  2  0  0  0  0
  3 31  1  0  0  0  0
  4  5  1  0  0  0  0
  4 32  1  0  0  0  0
  5  6  1  0  0  0  0
  5 26  2  0  0  0  0
  6  7  1  0  0  0  0
  6 33  1  0  0  0  0
  7  8  2  0  0  0  0
  7  9  1  0  0  0  0
  9 10  1  0  0  0  0
  9 34  1  0  0  0  0
 10 11  1  0  0  0  0
 10 25  2  0  0  0  0
 11 12  2  0  0  0  0
 11 35  1  0  0  0  0
 12 13  1  0  0  0  0
 12 36  1  0  0  0  0
 13 14  1  0  0  0  0
 13 24  2  0  0  0  0
 14 15  1  0  0  0  0
 14 23  2  0  0  0  0
 15 16  2  0  0  0  0
 15 37  1  0  0  0  0
 16 17  1  0  0  0  0
 16 38  1  0  0  0  0
 17 18  2  0  0  0  0
 18 19  1  0  0  0  0
 18 23  1  0  0  0  0
 19 20  1  0  0  0  0
 19 39  1  0  0  0  0
 20 21  2  0  0  0  0
 21 22  1  0  0  0  0
 21 23  1  0  0  0  0
 22 40  1  0  0  0  0
 22 41  1  0  0  0  0
 24 25  1  0  0  0  0
 24 42  1  0  0  0  0
 25 43  1  0  0  0  0
 26 27  1  0  0  0  0
 26 44  1  0  0  0  0
 27 45  1  0  0  0  0
M  END
$$$$
