CHEMBL271861
 OpenBabel04072215363D

 65 71  0  0  0  0  0  0  0  0999 V2000
    2.4883    0.2589    2.1618 C   0  0  0  0  0  0  0  0  0  0  0  0
    1.1483    0.3215    1.5172 C   0  0  0  0  0  0  0  0  0  0  0  0
    0.2930   -0.7476    1.3317 C   0  0  0  0  0  0  0  0  0  0  0  0
   -1.0954   -0.3187    0.4243 S   0  0  0  0  0  0  0  0  0  0  0  0
   -0.6799    1.3433    0.4136 C   0  0  0  0  0  0  0  0  0  0  0  0
   -1.4589    2.3588   -0.2063 C   0  0  0  0  0  0  0  0  0  0  0  0
   -0.9956    3.3857   -0.7174 O   0  0  0  0  0  0  0  0  0  0  0  0
   -2.9616    2.2862   -0.2240 C   0  0  0  0  0  0  0  0  0  0  0  0
   -3.5532    1.7027    0.9082 C   0  0  0  0  0  0  0  0  0  0  0  0
   -4.9240    1.6284    0.9608 C   0  0  0  0  0  0  0  0  0  0  0  0
   -5.6583    2.2820   -0.0253 C   0  0  0  0  0  0  0  0  0  0  0  0
   -5.1197    2.8819   -1.1754 C   0  0  0  0  0  0  0  0  0  0  0  0
   -3.7137    2.8502   -1.2821 C   0  0  0  0  0  0  0  0  0  0  0  0
   -6.2673    3.2994   -1.8788 C   0  0  0  0  0  0  0  0  0  0  0  0
   -6.4256    3.8034   -3.1864 C   0  0  0  0  0  0  0  0  0  0  0  0
   -7.8309    3.9918   -3.7578 C   0  0  0  0  0  0  0  0  0  0  0  0
   -9.1238    3.7965   -2.9842 C   0  0  0  0  0  0  0  0  0  0  0  0
   -8.6968    3.6406   -1.5927 C   0  0  0  0  0  0  0  0  0  0  0  0
   -7.3809    3.2730   -1.1305 C   0  0  0  0  0  0  0  0  0  0  0  0
   -7.0158    2.4599   -0.0422 N   0  0  0  0  0  0  0  0  0  0  0  0
   -7.9143    1.6308    0.7394 C   0  0  0  0  0  0  0  0  0  0  0  0
   -7.9419    1.4696    2.2487 C   0  0  0  0  0  0  0  0  0  0  0  0
   -7.7769    2.8468    2.8766 C   0  0  0  0  0  0  0  0  0  0  0  0
   -9.3224    0.8819    2.6339 C   0  0  0  0  0  0  0  0  0  0  0  0
   -9.7597    3.0350   -0.7327 C   0  0  0  0  0  0  0  0  0  0  0  0
  -10.4869    1.6975   -0.8863 C   0  0  0  0  0  0  0  0  0  0  0  0
  -10.7173    1.5587   -2.4015 C   0  0  0  0  0  0  0  0  0  0  0  0
  -11.8121    0.8593   -2.6992 N   0  0  0  0  0  0  0  0  0  0  0  0
  -12.7009    1.8210   -2.3996 N   0  0  0  0  0  0  0  0  0  0  0  0
  -13.7438    1.3921   -1.4383 C   0  0  0  0  0  0  0  0  0  0  0  0
  -12.0126    3.1009   -2.7606 C   0  0  0  0  0  0  0  0  0  0  0  0
  -10.5983    2.8179   -3.2055 C   0  0  0  0  0  0  0  0  0  0  0  0
   -7.5158    4.8326   -4.9481 C   0  0  0  0  0  0  0  0  0  0  0  0
   -8.1966    5.3941   -5.8003 O   0  0  0  0  0  0  0  0  0  0  0  0
   -6.1112    5.0481   -4.9587 N   0  0  0  0  0  0  0  0  0  0  0  0
   -5.3283    4.3721   -3.9620 C   0  0  0  0  0  0  0  0  0  0  0  0
    0.5804    1.5211    1.0122 C   0  0  0  0  0  0  0  0  0  0  0  0
    2.7239   -0.7363    2.5412 H   0  0  0  0  0  0  0  0  0  0  0  0
    2.4725    0.9479    3.0804 H   0  0  0  0  0  0  0  0  0  0  0  0
    3.2763    0.6028    1.5218 H   0  0  0  0  0  0  0  0  0  0  0  0
    0.4404   -1.7630    1.6545 H   0  0  0  0  0  0  0  0  0  0  0  0
   -3.0070    1.3329    1.7584 H   0  0  0  0  0  0  0  0  0  0  0  0
   -5.3829    1.1384    1.8070 H   0  0  0  0  0  0  0  0  0  0  0  0
   -3.1862    3.3072   -2.1102 H   0  0  0  0  0  0  0  0  0  0  0  0
   -8.0045    0.6711    0.2160 H   0  0  0  0  0  0  0  0  0  0  0  0
   -8.8352    2.1635    0.7164 H   0  0  0  0  0  0  0  0  0  0  0  0
   -7.1804    0.7644    2.5744 H   0  0  0  0  0  0  0  0  0  0  0  0
   -8.6645    3.4662    2.6922 H   0  0  0  0  0  0  0  0  0  0  0  0
   -6.9233    3.3800    2.4483 H   0  0  0  0  0  0  0  0  0  0  0  0
   -7.6284    2.7617    3.9521 H   0  0  0  0  0  0  0  0  0  0  0  0
  -10.1409    1.5842    2.4185 H   0  0  0  0  0  0  0  0  0  0  0  0
   -9.3579    0.6521    3.7004 H   0  0  0  0  0  0  0  0  0  0  0  0
   -9.5426   -0.0376    2.0759 H   0  0  0  0  0  0  0  0  0  0  0  0
   -9.1470    2.2998   -1.2562 H   0  0  0  0  0  0  0  0  0  0  0  0
  -10.5133    3.8084   -0.8991 H   0  0  0  0  0  0  0  0  0  0  0  0
  -11.3284    1.7333   -0.1901 H   0  0  0  0  0  0  0  0  0  0  0  0
   -9.9060    0.8137   -0.5813 H   0  0  0  0  0  0  0  0  0  0  0  0
  -13.5263    0.3479   -1.1176 H   0  0  0  0  0  0  0  0  0  0  0  0
  -14.7274    1.3451   -1.9096 H   0  0  0  0  0  0  0  0  0  0  0  0
  -13.7582    1.9655   -0.5033 H   0  0  0  0  0  0  0  0  0  0  0  0
  -12.5483    3.9937   -2.4559 H   0  0  0  0  0  0  0  0  0  0  0  0
   -5.6776    5.7214   -5.5816 H   0  0  0  0  0  0  0  0  0  0  0  0
   -4.7486    5.0925   -3.3646 H   0  0  0  0  0  0  0  0  0  0  0  0
   -4.6601    3.6428   -4.4205 H   0  0  0  0  0  0  0  0  0  0  0  0
    1.0114    2.5179    1.0726 H   0  0  0  0  0  0  0  0  0  0  0  0
  1  2  1  0  0  0  0
  1 38  1  0  0  0  0
  1 39  1  0  0  0  0
  1 40  1  0  0  0  0
  2  3  2  0  0  0  0
  2 37  1  0  0  0  0
  3  4  1  0  0  0  0
  3 41  1  0  0  0  0
  4  5  1  0  0  0  0
  5  6  1  0  0  0  0
  5 37  2  0  0  0  0
  6  7  2  0  0  0  0
  6  8  1  0  0  0  0
  8  9  1  0  0  0  0
  8 13  2  0  0  0  0
  9 10  2  0  0  0  0
  9 42  1  0  0  0  0
 10 11  1  0  0  0  0
 10 43  1  0  0  0  0
 11 12  2  0  0  0  0
 11 20  1  0  0  0  0
 12 13  1  0  0  0  0
 12 14  1  0  0  0  0
 13 44  1  0  0  0  0
 14 15  1  0  0  0  0
 14 19  2  0  0  0  0
 15 16  2  0  0  0  0
 15 36  1  0  0  0  0
 16 17  1  0  0  0  0
 16 33  1  0  0  0  0
 17 18  2  0  0  0  0
 17 32  1  0  0  0  0
 18 19  1  0  0  0  0
 18 25  1  0  0  0  0
 19 20  1  0  0  0  0
 20 21  1  0  0  0  0
 21 22  1  0  0  0  0
 21 45  1  0  0  0  0
 21 46  1  0  0  0  0
 22 23  1  0  0  0  0
 22 24  1  0  0  0  0
 22 47  1  0  0  0  0
 23 48  1  0  0  0  0
 23 49  1  0  0  0  0
 23 50  1  0  0  0  0
 24 51  1  0  0  0  0
 24 52  1  0  0  0  0
 24 53  1  0  0  0  0
 25 26  1  0  0  0  0
 25 54  1  0  0  0  0
 25 55  1  0  0  0  0
 26 27  1  0  0  0  0
 26 56  1  0  0  0  0
 26 57  1  0  0  0  0
 27 28  2  0  0  0  0
 27 32  1  0  0  0  0
 28 29  1  0  0  0  0
 29 30  1  0  0  0  0
 29 31  1  0  0  0  0
 30 58  1  0  0  0  0
 30 59  1  0  0  0  0
 30 60  1  0  0  0  0
 31 32  2  0  0  0  0
 31 61  1  0  0  0  0
 33 34  2  0  0  0  0
 33 35  1  0  0  0  0
 35 36  1  0  0  0  0
 35 62  1  0  0  0  0
 36 63  1  0  0  0  0
 36 64  1  0  0  0  0
 37 65  1  0  0  0  0
M  END
$$$$
