CHEMBL1242658
 OpenBabel04072215363D

 38 41  0  0  1  0  0  0  0  0999 V2000
    1.0302    0.2424   -0.0527 N   0  0  0  0  0  0  0  0  0  0  0  0
    2.4077    0.0817   -0.1152 C   0  0  0  0  0  0  0  0  0  0  0  0
    3.1305    1.2213   -0.1573 N   0  0  0  0  0  0  0  0  0  0  0  0
    4.4732    1.1372   -0.2021 C   0  0  0  0  0  0  0  0  0  0  0  0
    5.2305    0.0301   -0.1736 N   0  0  0  0  0  0  0  0  0  0  0  0
    4.4720   -1.0795   -0.1477 C   0  0  0  0  0  0  0  0  0  0  0  0
    3.0868   -1.1473   -0.1427 C   0  0  0  0  0  0  0  0  0  0  0  0
    2.7952   -2.5494   -0.1896 C   0  0  0  0  0  0  0  0  0  0  0  0
    1.5036   -3.2388   -0.2969 C   0  0  0  0  0  0  0  0  0  0  0  0
    0.4382   -2.6779   -1.0186 C   0  0  0  0  0  0  0  0  0  0  0  0
   -0.7941   -3.3322   -1.1069 C   0  0  0  0  0  0  0  0  0  0  0  0
   -0.9399   -4.5811   -0.5220 C   0  0  0  0  0  0  0  0  0  0  0  0
   -2.1093   -5.2300   -0.6197 F   0  0  0  0  0  0  0  0  0  0  0  0
    0.1200   -5.1767    0.1506 C   0  0  0  0  0  0  0  0  0  0  0  0
   -0.0038   -6.4278    0.6856 O   0  0  0  0  0  0  0  0  0  0  0  0
    1.3364   -4.5109    0.2820 C   0  0  0  0  0  0  0  0  0  0  0  0
    3.9260   -3.2784   -0.1418 N   0  0  0  0  0  0  0  0  0  0  0  0
    4.9185   -2.3719   -0.1117 N   0  0  0  0  0  0  0  0  0  0  0  0
    6.3142   -2.7839   -0.0310 C   0  0  2  0  0  0  0  0  0  0  0  0
    6.6076   -4.1966   -0.5313 C   0  0  0  0  0  0  0  0  0  0  0  0
    6.5429   -5.0376    0.7285 C   0  0  0  0  0  0  0  0  0  0  0  0
    7.1576   -4.1994    1.7659 N   0  0  0  0  0  0  0  0  0  0  0  0
    6.8114   -2.8068    1.4192 C   0  0  0  0  0  0  0  0  0  0  0  0
    0.7848    1.2008    0.1706 H   0  0  0  0  0  0  0  0  0  0  0  0
    0.5254   -0.4709    0.4573 H   0  0  0  0  0  0  0  0  0  0  0  0
    5.0052    2.0813   -0.2716 H   0  0  0  0  0  0  0  0  0  0  0  0
    0.5565   -1.7317   -1.5436 H   0  0  0  0  0  0  0  0  0  0  0  0
   -1.6237   -2.8791   -1.6366 H   0  0  0  0  0  0  0  0  0  0  0  0
   -0.8854   -6.7585    0.4305 H   0  0  0  0  0  0  0  0  0  0  0  0
    2.1535   -4.9926    0.8104 H   0  0  0  0  0  0  0  0  0  0  0  0
    6.8832   -2.0655   -0.6325 H   0  0  0  0  0  0  0  0  0  0  0  0
    7.6260   -4.2314   -0.9409 H   0  0  0  0  0  0  0  0  0  0  0  0
    5.9261   -4.5501   -1.3110 H   0  0  0  0  0  0  0  0  0  0  0  0
    7.0813   -5.9841    0.6153 H   0  0  0  0  0  0  0  0  0  0  0  0
    5.5080   -5.2718    1.0035 H   0  0  0  0  0  0  0  0  0  0  0  0
    8.1691   -4.3159    1.7318 H   0  0  0  0  0  0  0  0  0  0  0  0
    7.7137   -2.1914    1.5164 H   0  0  0  0  0  0  0  0  0  0  0  0
    6.0766   -2.4180    2.1328 H   0  0  0  0  0  0  0  0  0  0  0  0
  1  2  1  0  0  0  0
  1 24  1  0  0  0  0
  1 25  1  0  0  0  0
  2  3  1  0  0  0  0
  2  7  2  0  0  0  0
  3  4  2  0  0  0  0
  4  5  1  0  0  0  0
  4 26  1  0  0  0  0
  5  6  2  0  0  0  0
  6  7  1  0  0  0  0
  6 18  1  0  0  0  0
  7  8  1  0  0  0  0
  8  9  1  0  0  0  0
  8 17  2  0  0  0  0
  9 10  1  0  0  0  0
  9 16  2  0  0  0  0
 10 11  2  0  0  0  0
 10 27  1  0  0  0  0
 11 12  1  0  0  0  0
 11 28  1  0  0  0  0
 12 13  1  0  0  0  0
 12 14  2  0  0  0  0
 14 15  1  0  0  0  0
 14 16  1  0  0  0  0
 15 29  1  0  0  0  0
 16 30  1  0  0  0  0
 17 18  1  0  0  0  0
 18 19  1  0  0  0  0
 19 20  1  0  0  0  0
 19 23  1  0  0  0  0
 19 31  1  6  0  0  0
 20 21  1  0  0  0  0
 20 32  1  0  0  0  0
 20 33  1  0  0  0  0
 21 22  1  0  0  0  0
 21 34  1  0  0  0  0
 21 35  1  0  0  0  0
 22 23  1  0  0  0  0
 22 36  1  0  0  0  0
 23 37  1  0  0  0  0
 23 38  1  0  0  0  0
M  END
$$$$
