CHEMBL203056
 OpenBabel04072215363D

 43 46  0  0  0  0  0  0  0  0999 V2000
    2.1110    0.0369   -0.0131 C   0  0  0  0  0  0  0  0  0  0  0  0
    0.6716   -0.0794    0.0143 N   0  0  0  0  0  0  0  0  0  0  0  0
   -0.1993    0.9708    0.1059 C   0  0  0  0  0  0  0  0  0  0  0  0
   -1.4451    0.5612    0.1927 N   0  0  0  0  0  0  0  0  0  0  0  0
   -1.3768   -0.7941    0.0895 C   0  0  0  0  0  0  0  0  0  0  0  0
   -2.4682   -1.5648    0.1160 N   0  0  0  0  0  0  0  0  0  0  0  0
   -3.7038   -1.1373    0.7324 C   0  0  0  0  0  0  0  0  0  0  0  0
   -4.4143   -2.3490    1.2950 C   0  0  0  0  0  0  0  0  0  0  0  0
   -3.7915   -3.1632    2.2510 C   0  0  0  0  0  0  0  0  0  0  0  0
   -4.4784   -4.2595    2.7492 C   0  0  0  0  0  0  0  0  0  0  0  0
   -5.7271   -4.5970    2.3668 N   0  0  0  0  0  0  0  0  0  0  0  0
   -6.3159   -3.7972    1.4513 C   0  0  0  0  0  0  0  0  0  0  0  0
   -5.7099   -2.6812    0.8943 C   0  0  0  0  0  0  0  0  0  0  0  0
   -0.0744   -1.2373   -0.0153 C   0  0  0  0  0  0  0  0  0  0  0  0
    0.4455   -2.5592   -0.0499 C   0  0  0  0  0  0  0  0  0  0  0  0
    1.7303   -2.8495    0.0120 N   0  0  0  0  0  0  0  0  0  0  0  0
    1.8301   -4.2173   -0.0011 N   0  0  0  0  0  0  0  0  0  0  0  0
    0.6037   -4.6881   -0.0718 C   0  0  0  0  0  0  0  0  0  0  0  0
    0.1316   -5.9465   -0.1406 N   0  0  0  0  0  0  0  0  0  0  0  0
    0.9121   -7.1129   -0.1156 C   0  0  0  0  0  0  0  0  0  0  0  0
    2.1644   -7.1697    0.5151 C   0  0  0  0  0  0  0  0  0  0  0  0
    2.9673   -8.3098    0.4332 C   0  0  0  0  0  0  0  0  0  0  0  0
    2.5295   -9.4093   -0.2945 C   0  0  0  0  0  0  0  0  0  0  0  0
    3.5311  -10.8000   -0.4287 Cl  0  0  0  0  0  0  0  0  0  0  0  0
    1.2881   -9.3813   -0.9250 C   0  0  0  0  0  0  0  0  0  0  0  0
    0.4836   -8.2399   -0.8318 C   0  0  0  0  0  0  0  0  0  0  0  0
   -0.3301   -3.6944   -0.1156 O   0  0  0  0  0  0  0  0  0  0  0  0
    2.3940    1.0922   -0.0044 H   0  0  0  0  0  0  0  0  0  0  0  0
    2.4856   -0.4332   -0.9263 H   0  0  0  0  0  0  0  0  0  0  0  0
    2.5173   -0.4532    0.8761 H   0  0  0  0  0  0  0  0  0  0  0  0
    0.1262    2.0044    0.1171 H   0  0  0  0  0  0  0  0  0  0  0  0
   -2.5149   -2.4307   -0.4151 H   0  0  0  0  0  0  0  0  0  0  0  0
   -4.3264   -0.6300   -0.0125 H   0  0  0  0  0  0  0  0  0  0  0  0
   -3.5290   -0.4347    1.5579 H   0  0  0  0  0  0  0  0  0  0  0  0
   -2.7857   -2.9472    2.5993 H   0  0  0  0  0  0  0  0  0  0  0  0
   -4.0291   -4.9126    3.4921 H   0  0  0  0  0  0  0  0  0  0  0  0
   -7.3249   -4.0849    1.1694 H   0  0  0  0  0  0  0  0  0  0  0  0
   -6.2458   -2.0849    0.1607 H   0  0  0  0  0  0  0  0  0  0  0  0
   -0.8515   -6.0710   -0.3435 H   0  0  0  0  0  0  0  0  0  0  0  0
    2.5357   -6.3245    1.0911 H   0  0  0  0  0  0  0  0  0  0  0  0
    3.9340   -8.3199    0.9303 H   0  0  0  0  0  0  0  0  0  0  0  0
    0.9481  -10.2349   -1.5049 H   0  0  0  0  0  0  0  0  0  0  0  0
   -0.4694   -8.2299   -1.3559 H   0  0  0  0  0  0  0  0  0  0  0  0
  1  2  1  0  0  0  0
  1 28  1  0  0  0  0
  1 29  1  0  0  0  0
  1 30  1  0  0  0  0
  2  3  1  0  0  0  0
  2 14  1  0  0  0  0
  3  4  2  0  0  0  0
  3 31  1  0  0  0  0
  4  5  1  0  0  0  0
  5  6  1  0  0  0  0
  5 14  2  0  0  0  0
  6  7  1  0  0  0  0
  6 32  1  0  0  0  0
  7  8  1  0  0  0  0
  7 33  1  0  0  0  0
  7 34  1  0  0  0  0
  8  9  1  0  0  0  0
  8 13  2  0  0  0  0
  9 10  2  0  0  0  0
  9 35  1  0  0  0  0
 10 11  1  0  0  0  0
 10 36  1  0  0  0  0
 11 12  2  0  0  0  0
 12 13  1  0  0  0  0
 12 37  1  0  0  0  0
 13 38  1  0  0  0  0
 14 15  1  0  0  0  0
 15 16  2  0  0  0  0
 15 27  1  0  0  0  0
 16 17  1  0  0  0  0
 17 18  2  0  0  0  0
 18 19  1  0  0  0  0
 18 27  1  0  0  0  0
 19 20  1  0  0  0  0
 19 39  1  0  0  0  0
 20 21  1  0  0  0  0
 20 26  2  0  0  0  0
 21 22  2  0  0  0  0
 21 40  1  0  0  0  0
 22 23  1  0  0  0  0
 22 41  1  0  0  0  0
 23 24  1  0  0  0  0
 23 25  2  0  0  0  0
 25 26  1  0  0  0  0
 25 42  1  0  0  0  0
 26 43  1  0  0  0  0
M  END
$$$$
