CHEMBL3397947
 OpenBabel04072215363D

 57 59  0  0  0  0  0  0  0  0999 V2000
    1.1046   -0.0512   -0.0441 C   0  0  0  0  0  0  0  0  0  0  0  0
    2.4987   -0.0128    0.2156 O   0  0  0  0  0  0  0  0  0  0  0  0
    3.1437    1.1946    0.1311 C   0  0  0  0  0  0  0  0  0  0  0  0
    2.5246    2.4091   -0.1370 C   0  0  0  0  0  0  0  0  0  0  0  0
    3.2911    3.5700   -0.2486 C   0  0  0  0  0  0  0  0  0  0  0  0
    4.6945    3.5361   -0.1029 C   0  0  0  0  0  0  0  0  0  0  0  0
    5.4076    4.7947   -0.4604 C   0  0  0  0  0  0  0  0  0  0  0  0
    6.3842    4.7299   -1.2090 O   0  0  0  0  0  0  0  0  0  0  0  0
    4.9300    5.9732    0.1137 N   0  0  0  0  0  0  0  0  0  0  0  0
    5.6001    7.2112   -0.0364 C   0  0  0  0  0  0  0  0  0  0  0  0
    6.1599    7.6012   -1.2581 C   0  0  0  0  0  0  0  0  0  0  0  0
    6.9141    8.7777   -1.3532 C   0  0  0  0  0  0  0  0  0  0  0  0
    7.1390    9.5659   -0.2240 C   0  0  0  0  0  0  0  0  0  0  0  0
    7.9219   10.6918   -0.1803 O   0  0  0  0  0  0  0  0  0  0  0  0
    8.5000   11.0917   -1.4297 C   0  0  0  0  0  0  0  0  0  0  0  0
    9.3444   12.3646   -1.2451 C   0  0  0  0  0  0  0  0  0  0  0  0
    9.9969   12.8311   -2.4880 N   0  0  0  0  0  0  0  0  0  0  0  0
    9.0265   13.1844   -3.5264 C   0  0  0  0  0  0  0  0  0  0  0  0
   10.8560   13.9840   -2.2062 C   0  0  0  0  0  0  0  0  0  0  0  0
    6.5394    9.1973    0.9829 C   0  0  0  0  0  0  0  0  0  0  0  0
    5.7433    8.0440    1.0675 C   0  0  0  0  0  0  0  0  0  0  0  0
    5.3690    2.3171    0.2221 C   0  0  0  0  0  0  0  0  0  0  0  0
    6.8543    2.2319    0.4231 C   0  0  0  0  0  0  0  0  0  0  0  0
    7.5785    3.2278    1.1077 C   0  0  0  0  0  0  0  0  0  0  0  0
    8.9709    3.1590    1.2594 C   0  0  0  0  0  0  0  0  0  0  0  0
    9.6728    2.0463    0.8088 C   0  0  0  0  0  0  0  0  0  0  0  0
    8.9755    1.0301    0.1748 C   0  0  0  0  0  0  0  0  0  0  0  0
    9.5997   -0.1100   -0.2387 O   0  0  0  0  0  0  0  0  0  0  0  0
    7.6046    1.1387   -0.0587 C   0  0  0  0  0  0  0  0  0  0  0  0
    4.5396    1.1654    0.3438 C   0  0  0  0  0  0  0  0  0  0  0  0
    5.0389   -0.0767    0.6863 O   0  0  0  0  0  0  0  0  0  0  0  0
    0.7891   -1.0995   -0.0150 H   0  0  0  0  0  0  0  0  0  0  0  0
    0.8655    0.3369   -1.0391 H   0  0  0  0  0  0  0  0  0  0  0  0
    0.5538    0.4848    0.7349 H   0  0  0  0  0  0  0  0  0  0  0  0
    1.4546    2.4827   -0.2926 H   0  0  0  0  0  0  0  0  0  0  0  0
    2.7888    4.4968   -0.5151 H   0  0  0  0  0  0  0  0  0  0  0  0
    4.2990    5.8868    0.9034 H   0  0  0  0  0  0  0  0  0  0  0  0
    6.0203    6.9984   -2.1533 H   0  0  0  0  0  0  0  0  0  0  0  0
    7.3302    9.0250   -2.3241 H   0  0  0  0  0  0  0  0  0  0  0  0
    7.6848   11.2942   -2.1321 H   0  0  0  0  0  0  0  0  0  0  0  0
    9.1476   10.2946   -1.8158 H   0  0  0  0  0  0  0  0  0  0  0  0
   10.1159   12.1397   -0.4967 H   0  0  0  0  0  0  0  0  0  0  0  0
    8.7215   13.1545   -0.8045 H   0  0  0  0  0  0  0  0  0  0  0  0
    8.4770   12.3027   -3.8706 H   0  0  0  0  0  0  0  0  0  0  0  0
    9.5347   13.5775   -4.4145 H   0  0  0  0  0  0  0  0  0  0  0  0
    8.3067   13.9347   -3.1809 H   0  0  0  0  0  0  0  0  0  0  0  0
   11.6337   13.7208   -1.4813 H   0  0  0  0  0  0  0  0  0  0  0  0
   10.2882   14.8362   -1.8146 H   0  0  0  0  0  0  0  0  0  0  0  0
   11.3754   14.3076   -3.1158 H   0  0  0  0  0  0  0  0  0  0  0  0
    6.7152    9.7987    1.8740 H   0  0  0  0  0  0  0  0  0  0  0  0
    5.3183    7.7722    2.0299 H   0  0  0  0  0  0  0  0  0  0  0  0
    7.0774    4.1064    1.5068 H   0  0  0  0  0  0  0  0  0  0  0  0
    9.5029    3.9865    1.7228 H   0  0  0  0  0  0  0  0  0  0  0  0
   10.7476    1.9975    0.9476 H   0  0  0  0  0  0  0  0  0  0  0  0
   10.5409   -0.0511   -0.0063 H   0  0  0  0  0  0  0  0  0  0  0  0
    7.1273    0.3417   -0.6270 H   0  0  0  0  0  0  0  0  0  0  0  0
    5.8868    0.0241    1.1459 H   0  0  0  0  0  0  0  0  0  0  0  0
  1  2  1  0  0  0  0
  1 32  1  0  0  0  0
  1 33  1  0  0  0  0
  1 34  1  0  0  0  0
  2  3  1  0  0  0  0
  3  4  1  0  0  0  0
  3 30  2  0  0  0  0
  4  5  2  0  0  0  0
  4 35  1  0  0  0  0
  5  6  1  0  0  0  0
  5 36  1  0  0  0  0
  6  7  1  0  0  0  0
  6 22  2  0  0  0  0
  7  8  2  0  0  0  0
  7  9  1  0  0  0  0
  9 10  1  0  0  0  0
  9 37  1  0  0  0  0
 10 11  1  0  0  0  0
 10 21  2  0  0  0  0
 11 12  2  0  0  0  0
 11 38  1  0  0  0  0
 12 13  1  0  0  0  0
 12 39  1  0  0  0  0
 13 14  1  0  0  0  0
 13 20  2  0  0  0  0
 14 15  1  0  0  0  0
 15 16  1  0  0  0  0
 15 40  1  0  0  0  0
 15 41  1  0  0  0  0
 16 17  1  0  0  0  0
 16 42  1  0  0  0  0
 16 43  1  0  0  0  0
 17 18  1  0  0  0  0
 17 19  1  0  0  0  0
 18 44  1  0  0  0  0
 18 45  1  0  0  0  0
 18 46  1  0  0  0  0
 19 47  1  0  0  0  0
 19 48  1  0  0  0  0
 19 49  1  0  0  0  0
 20 21  1  0  0  0  0
 20 50  1  0  0  0  0
 21 51  1  0  0  0  0
 22 23  1  0  0  0  0
 22 30  1  0  0  0  0
 23 24  1  0  0  0  0
 23 29  2  0  0  0  0
 24 25  2  0  0  0  0
 24 52  1  0  0  0  0
 25 26  1  0  0  0  0
 25 53  1  0  0  0  0
 26 27  2  0  0  0  0
 26 54  1  0  0  0  0
 27 28  1  0  0  0  0
 27 29  1  0  0  0  0
 28 55  1  0  0  0  0
 29 56  1  0  0  0  0
 30 31  1  0  0  0  0
 31 57  1  0  0  0  0
M  END
$$$$
