CHEMBL223237
 OpenBabel04072215363D

 65 69  0  0  0  0  0  0  0  0999 V2000
    2.4750   -0.2162    0.1060 C   0  0  0  0  0  0  0  0  0  0  0  0
    0.9827   -0.0887    0.0161 C   0  0  0  0  0  0  0  0  0  0  0  0
    0.3997    1.1757   -0.1125 C   0  0  0  0  0  0  0  0  0  0  0  0
   -0.9814    1.3009   -0.1871 C   0  0  0  0  0  0  0  0  0  0  0  0
   -1.7856    0.1648   -0.1379 C   0  0  0  0  0  0  0  0  0  0  0  0
   -1.2286   -1.1138   -0.0279 C   0  0  0  0  0  0  0  0  0  0  0  0
   -2.0134   -2.2967    0.0255 N   0  0  0  0  0  0  0  0  0  0  0  0
   -3.3754   -2.3510   -0.2074 C   0  0  0  0  0  0  0  0  0  0  0  0
   -4.0493   -1.4057   -0.6022 O   0  0  0  0  0  0  0  0  0  0  0  0
   -3.9240   -3.5926    0.1006 N   0  0  0  0  0  0  0  0  0  0  0  0
   -5.3271   -3.7634   -0.0219 C   0  0  0  0  0  0  0  0  0  0  0  0
   -6.0104   -3.2641   -1.1337 C   0  0  0  0  0  0  0  0  0  0  0  0
   -7.4039   -3.2305   -1.1564 C   0  0  0  0  0  0  0  0  0  0  0  0
   -8.1705   -3.7560   -0.1009 C   0  0  0  0  0  0  0  0  0  0  0  0
   -9.6499   -3.8111   -0.2106 C   0  0  0  0  0  0  0  0  0  0  0  0
  -10.2683   -3.9919   -1.4834 C   0  0  0  0  0  0  0  0  0  0  0  0
  -11.6356   -4.1672   -1.6271 C   0  0  0  0  0  0  0  0  0  0  0  0
  -12.4568   -4.2669   -0.5104 C   0  0  0  0  0  0  0  0  0  0  0  0
  -11.8670   -4.1263    0.7476 C   0  0  0  0  0  0  0  0  0  0  0  0
  -10.5135   -3.7964    0.9183 C   0  0  0  0  0  0  0  0  0  0  0  0
  -10.4850   -3.3886    2.2898 C   0  0  0  0  0  0  0  0  0  0  0  0
   -9.6459   -2.4793    2.8309 N   0  0  0  0  0  0  0  0  0  0  0  0
  -11.5452   -3.7881    2.9708 N   0  0  0  0  0  0  0  0  0  0  0  0
  -12.3806   -4.2335    2.0175 N   0  0  0  0  0  0  0  0  0  0  0  0
  -13.7581   -4.4594    2.3975 C   0  0  0  0  0  0  0  0  0  0  0  0
  -14.4155   -5.7658    1.9235 C   0  0  0  0  0  0  0  0  0  0  0  0
  -15.8541   -5.7613    2.2604 N   0  0  0  0  0  0  0  0  0  0  0  0
  -16.1199   -5.8046    3.7158 C   0  0  0  0  0  0  0  0  0  0  0  0
  -15.8664   -7.1826    4.3386 C   0  0  0  0  0  0  0  0  0  0  0  0
  -16.6933   -8.1715    3.7165 O   0  0  0  0  0  0  0  0  0  0  0  0
  -16.4360   -8.2373    2.3084 C   0  0  0  0  0  0  0  0  0  0  0  0
  -16.5999   -6.8683    1.6226 C   0  0  0  0  0  0  0  0  0  0  0  0
   -7.4565   -4.3266    0.9724 C   0  0  0  0  0  0  0  0  0  0  0  0
   -6.0531   -4.3390    1.0160 C   0  0  0  0  0  0  0  0  0  0  0  0
    0.1617   -1.2319    0.0557 C   0  0  0  0  0  0  0  0  0  0  0  0
    2.9584    0.7671    0.0917 H   0  0  0  0  0  0  0  0  0  0  0  0
    2.8580   -0.7897   -0.7432 H   0  0  0  0  0  0  0  0  0  0  0  0
    2.7566   -0.7103    1.0407 H   0  0  0  0  0  0  0  0  0  0  0  0
    1.0137    2.0726   -0.1517 H   0  0  0  0  0  0  0  0  0  0  0  0
   -1.4417    2.2802   -0.2837 H   0  0  0  0  0  0  0  0  0  0  0  0
   -2.8564    0.3306   -0.1848 H   0  0  0  0  0  0  0  0  0  0  0  0
   -1.5260   -3.1790    0.0824 H   0  0  0  0  0  0  0  0  0  0  0  0
   -3.4794   -4.0770    0.8661 H   0  0  0  0  0  0  0  0  0  0  0  0
   -5.4633   -2.8483   -1.9775 H   0  0  0  0  0  0  0  0  0  0  0  0
   -7.8738   -2.7830   -2.0281 H   0  0  0  0  0  0  0  0  0  0  0  0
   -9.6644   -4.0128   -2.3849 H   0  0  0  0  0  0  0  0  0  0  0  0
  -12.0693   -4.2513   -2.6224 H   0  0  0  0  0  0  0  0  0  0  0  0
  -13.5250   -4.4179   -0.6287 H   0  0  0  0  0  0  0  0  0  0  0  0
  -10.2280   -1.7246    3.2063 H   0  0  0  0  0  0  0  0  0  0  0  0
   -9.2146   -2.8141    3.6873 H   0  0  0  0  0  0  0  0  0  0  0  0
  -14.3187   -3.5891    2.0371 H   0  0  0  0  0  0  0  0  0  0  0  0
  -13.7668   -4.4298    3.4929 H   0  0  0  0  0  0  0  0  0  0  0  0
  -13.8902   -6.6384    2.3298 H   0  0  0  0  0  0  0  0  0  0  0  0
  -14.3224   -5.8416    0.8356 H   0  0  0  0  0  0  0  0  0  0  0  0
  -17.1757   -5.5417    3.8597 H   0  0  0  0  0  0  0  0  0  0  0  0
  -15.5590   -5.0386    4.2576 H   0  0  0  0  0  0  0  0  0  0  0  0
  -16.1190   -7.1558    5.4029 H   0  0  0  0  0  0  0  0  0  0  0  0
  -14.8150   -7.4835    4.2594 H   0  0  0  0  0  0  0  0  0  0  0  0
  -17.1582   -8.9427    1.8829 H   0  0  0  0  0  0  0  0  0  0  0  0
  -15.4338   -8.6466    2.1463 H   0  0  0  0  0  0  0  0  0  0  0  0
  -17.6625   -6.5932    1.6601 H   0  0  0  0  0  0  0  0  0  0  0  0
  -16.3496   -6.9464    0.5580 H   0  0  0  0  0  0  0  0  0  0  0  0
   -7.9979   -4.7583    1.8106 H   0  0  0  0  0  0  0  0  0  0  0  0
   -5.5581   -4.7465    1.8903 H   0  0  0  0  0  0  0  0  0  0  0  0
    0.6261   -2.2102    0.1511 H   0  0  0  0  0  0  0  0  0  0  0  0
  1  2  1  0  0  0  0
  1 36  1  0  0  0  0
  1 37  1  0  0  0  0
  1 38  1  0  0  0  0
  2  3  1  0  0  0  0
  2 35  2  0  0  0  0
  3  4  2  0  0  0  0
  3 39  1  0  0  0  0
  4  5  1  0  0  0  0
  4 40  1  0  0  0  0
  5  6  2  0  0  0  0
  5 41  1  0  0  0  0
  6  7  1  0  0  0  0
  6 35  1  0  0  0  0
  7  8  1  0  0  0  0
  7 42  1  0  0  0  0
  8  9  2  0  0  0  0
  8 10  1  0  0  0  0
 10 11  1  0  0  0  0
 10 43  1  0  0  0  0
 11 12  1  0  0  0  0
 11 34  2  0  0  0  0
 12 13  2  0  0  0  0
 12 44  1  0  0  0  0
 13 14  1  0  0  0  0
 13 45  1  0  0  0  0
 14 15  1  0  0  0  0
 14 33  2  0  0  0  0
 15 16  1  0  0  0  0
 15 20  2  0  0  0  0
 16 17  2  0  0  0  0
 16 46  1  0  0  0  0
 17 18  1  0  0  0  0
 17 47  1  0  0  0  0
 18 19  2  0  0  0  0
 18 48  1  0  0  0  0
 19 20  1  0  0  0  0
 19 24  1  0  0  0  0
 20 21  1  0  0  0  0
 21 22  1  0  0  0  0
 21 23  2  0  0  0  0
 22 49  1  0  0  0  0
 22 50  1  0  0  0  0
 23 24  1  0  0  0  0
 24 25  1  0  0  0  0
 25 26  1  0  0  0  0
 25 51  1  0  0  0  0
 25 52  1  0  0  0  0
 26 27  1  0  0  0  0
 26 53  1  0  0  0  0
 26 54  1  0  0  0  0
 27 28  1  0  0  0  0
 27 32  1  0  0  0  0
 28 29  1  0  0  0  0
 28 55  1  0  0  0  0
 28 56  1  0  0  0  0
 29 30  1  0  0  0  0
 29 57  1  0  0  0  0
 29 58  1  0  0  0  0
 30 31  1  0  0  0  0
 31 32  1  0  0  0  0
 31 59  1  0  0  0  0
 31 60  1  0  0  0  0
 32 61  1  0  0  0  0
 32 62  1  0  0  0  0
 33 34  1  0  0  0  0
 33 63  1  0  0  0  0
 34 64  1  0  0  0  0
 35 65  1  0  0  0  0
M  END
$$$$
