CHEMBL1241772
 OpenBabel04072215363D

 34 36  0  0  0  0  0  0  0  0999 V2000
    3.3878    0.7699    0.9811 C   0  0  0  0  0  0  0  0  0  0  0  0
    2.5584    0.0747   -0.0972 C   0  0  0  0  0  0  0  0  0  0  0  0
    1.0667    0.3431    0.1082 C   0  0  0  0  0  0  0  0  0  0  0  0
    2.9961    0.4443   -1.4423 N   0  0  0  0  0  0  0  0  0  0  0  0
    2.9525    1.7371   -1.8398 N   0  0  0  0  0  0  0  0  0  0  0  0
    3.3500    1.7083   -3.1244 C   0  0  0  0  0  0  0  0  0  0  0  0
    3.3532    2.9464   -3.9048 C   0  0  0  0  0  0  0  0  0  0  0  0
    3.0634    2.9623   -5.2724 C   0  0  0  0  0  0  0  0  0  0  0  0
    3.0898    4.1608   -5.9832 C   0  0  0  0  0  0  0  0  0  0  0  0
    3.3550    5.3308   -5.2921 C   0  0  0  0  0  0  0  0  0  0  0  0
    3.3138    6.5999   -5.9711 C   0  0  0  0  0  0  0  0  0  0  0  0
    3.2551    7.5965   -6.5659 N   0  0  0  0  0  0  0  0  0  0  0  0
    3.6216    5.3664   -3.9626 N   0  0  0  0  0  0  0  0  0  0  0  0
    3.6103    4.1759   -3.3047 C   0  0  0  0  0  0  0  0  0  0  0  0
    3.7132    0.3830   -3.5268 C   0  0  0  0  0  0  0  0  0  0  0  0
    4.2071   -0.2869   -4.6592 C   0  0  0  0  0  0  0  0  0  0  0  0
    4.5577    0.3035   -5.8633 N   0  0  0  0  0  0  0  0  0  0  0  0
    4.3730   -1.6267   -4.5989 N   0  0  0  0  0  0  0  0  0  0  0  0
    4.0710   -2.2668   -3.4541 C   0  0  0  0  0  0  0  0  0  0  0  0
    3.6136   -1.7345   -2.3108 N   0  0  0  0  0  0  0  0  0  0  0  0
    3.4522   -0.4035   -2.4117 C   0  0  0  0  0  0  0  0  0  0  0  0
    3.0601    0.4610    1.9797 H   0  0  0  0  0  0  0  0  0  0  0  0
    3.2971    1.8601    0.9227 H   0  0  0  0  0  0  0  0  0  0  0  0
    4.4493    0.5177    0.8821 H   0  0  0  0  0  0  0  0  0  0  0  0
    2.7196   -1.0062    0.0005 H   0  0  0  0  0  0  0  0  0  0  0  0
    0.8432    1.4149    0.0819 H   0  0  0  0  0  0  0  0  0  0  0  0
    0.7382   -0.0450    1.0774 H   0  0  0  0  0  0  0  0  0  0  0  0
    0.4671   -0.1429   -0.6705 H   0  0  0  0  0  0  0  0  0  0  0  0
    2.7864    2.0535   -5.7997 H   0  0  0  0  0  0  0  0  0  0  0  0
    2.8780    4.1693   -7.0486 H   0  0  0  0  0  0  0  0  0  0  0  0
    3.8162    4.2492   -2.2368 H   0  0  0  0  0  0  0  0  0  0  0  0
    5.0114    1.2046   -5.7742 H   0  0  0  0  0  0  0  0  0  0  0  0
    5.0561   -0.3665   -6.4435 H   0  0  0  0  0  0  0  0  0  0  0  0
    4.2193   -3.3419   -3.4577 H   0  0  0  0  0  0  0  0  0  0  0  0
  1  2  1  0  0  0  0
  1 22  1  0  0  0  0
  1 23  1  0  0  0  0
  1 24  1  0  0  0  0
  2  3  1  0  0  0  0
  2  4  1  0  0  0  0
  2 25  1  0  0  0  0
  3 26  1  0  0  0  0
  3 27  1  0  0  0  0
  3 28  1  0  0  0  0
  4  5  1  0  0  0  0
  4 21  1  0  0  0  0
  5  6  2  0  0  0  0
  6  7  1  0  0  0  0
  6 15  1  0  0  0  0
  7  8  1  0  0  0  0
  7 14  2  0  0  0  0
  8  9  2  0  0  0  0
  8 29  1  0  0  0  0
  9 10  1  0  0  0  0
  9 30  1  0  0  0  0
 10 11  1  0  0  0  0
 10 13  2  0  0  0  0
 11 12  3  0  0  0  0
 13 14  1  0  0  0  0
 14 31  1  0  0  0  0
 15 16  1  0  0  0  0
 15 21  2  0  0  0  0
 16 17  1  0  0  0  0
 16 18  2  0  0  0  0
 17 32  1  0  0  0  0
 17 33  1  0  0  0  0
 18 19  1  0  0  0  0
 19 20  2  0  0  0  0
 19 34  1  0  0  0  0
 20 21  1  0  0  0  0
M  END
$$$$
