CHEMBL3593287
 OpenBabel04072215363D

 63 67  0  0  0  0  0  0  0  0999 V2000
    1.3918   -2.2779    0.5104 C   0  0  0  0  0  0  0  0  0  0  0  0
    1.0594   -0.9065    1.0087 C   0  0  0  0  0  0  0  0  0  0  0  0
    1.5217    0.1436    0.2929 N   0  0  0  0  0  0  0  0  0  0  0  0
    1.2002    1.3656    0.7379 C   0  0  0  0  0  0  0  0  0  0  0  0
    1.6037    2.4629   -0.0397 N   0  0  0  0  0  0  0  0  0  0  0  0
    0.9959    3.6730   -0.0350 C   0  0  0  0  0  0  0  0  0  0  0  0
    0.1889    4.1028    0.9077 N   0  0  0  0  0  0  0  0  0  0  0  0
   -0.3644    5.3027    0.5831 C   0  0  0  0  0  0  0  0  0  0  0  0
    0.0687    5.8550   -0.6021 C   0  0  0  0  0  0  0  0  0  0  0  0
   -0.3176    7.1487   -1.1470 C   0  0  0  0  0  0  0  0  0  0  0  0
   -0.6067    8.1799   -0.2435 C   0  0  0  0  0  0  0  0  0  0  0  0
   -1.0575    9.4176   -0.6741 C   0  0  0  0  0  0  0  0  0  0  0  0
   -1.2253    9.6475   -2.0335 C   0  0  0  0  0  0  0  0  0  0  0  0
   -1.6803   10.8661   -2.5319 N   0  0  0  0  0  0  0  0  0  0  0  0
   -2.0284   12.0110   -1.8598 C   0  0  0  0  0  0  0  0  0  0  0  0
   -2.0062   12.1850   -0.6446 O   0  0  0  0  0  0  0  0  0  0  0  0
   -2.3806   13.0700   -2.6580 N   0  0  0  0  0  0  0  0  0  0  0  0
   -2.5972   13.0366   -4.0186 C   0  0  0  0  0  0  0  0  0  0  0  0
   -2.7968   14.1556   -4.8494 C   0  0  0  0  0  0  0  0  0  0  0  0
   -2.9674   13.6177   -6.1017 C   0  0  0  0  0  0  0  0  0  0  0  0
   -3.2068   14.1538   -7.4484 C   0  0  0  0  0  0  0  0  0  0  0  0
   -2.8882   12.2686   -6.0285 O   0  0  0  0  0  0  0  0  0  0  0  0
   -2.6452   11.9028   -4.7329 N   0  0  0  0  0  0  0  0  0  0  0  0
   -0.9331    8.6319   -2.9540 C   0  0  0  0  0  0  0  0  0  0  0  0
   -0.4808    7.3842   -2.5167 C   0  0  0  0  0  0  0  0  0  0  0  0
    1.1989    4.7931   -1.3358 S   0  0  0  0  0  0  0  0  0  0  0  0
    0.4915    1.5105    1.9086 C   0  0  0  0  0  0  0  0  0  0  0  0
    0.0664    0.3941    2.5948 C   0  0  0  0  0  0  0  0  0  0  0  0
   -0.6506    0.6307    3.7663 N   0  0  0  0  0  0  0  0  0  0  0  0
   -1.6112   -0.3755    4.2163 C   0  0  0  0  0  0  0  0  0  0  0  0
   -2.5233    0.2892    5.2866 C   0  0  0  0  0  0  0  0  0  0  0  0
   -1.7633    0.8642    6.4291 N   0  0  0  0  0  0  0  0  0  0  0  0
   -2.6629    1.5754    7.3387 C   0  0  0  0  0  0  0  0  0  0  0  0
   -0.7239    1.7913    5.9242 C   0  0  0  0  0  0  0  0  0  0  0  0
    0.1881    1.1351    4.8675 C   0  0  0  0  0  0  0  0  0  0  0  0
    0.3206   -0.8328    2.1354 N   0  0  0  0  0  0  0  0  0  0  0  0
    2.0256   -2.2304   -0.3803 H   0  0  0  0  0  0  0  0  0  0  0  0
    0.4725   -2.8130    0.2562 H   0  0  0  0  0  0  0  0  0  0  0  0
    1.9257   -2.8344    1.2862 H   0  0  0  0  0  0  0  0  0  0  0  0
    2.1033    2.1591   -0.8635 H   0  0  0  0  0  0  0  0  0  0  0  0
   -1.0858    5.7448    1.2584 H   0  0  0  0  0  0  0  0  0  0  0  0
   -0.4903    8.0368    0.8287 H   0  0  0  0  0  0  0  0  0  0  0  0
   -1.2799   10.1709    0.0679 H   0  0  0  0  0  0  0  0  0  0  0  0
   -1.7935   10.9126   -3.5399 H   0  0  0  0  0  0  0  0  0  0  0  0
   -2.5063   13.9446   -2.1655 H   0  0  0  0  0  0  0  0  0  0  0  0
   -2.7904   15.2019   -4.5836 H   0  0  0  0  0  0  0  0  0  0  0  0
   -3.0955   15.2404   -7.4635 H   0  0  0  0  0  0  0  0  0  0  0  0
   -4.2191   13.8971   -7.7726 H   0  0  0  0  0  0  0  0  0  0  0  0
   -2.4969   13.7213   -8.1585 H   0  0  0  0  0  0  0  0  0  0  0  0
   -1.0645    8.7958   -4.0229 H   0  0  0  0  0  0  0  0  0  0  0  0
   -0.2869    6.6039   -3.2483 H   0  0  0  0  0  0  0  0  0  0  0  0
    0.2217    2.4734    2.3143 H   0  0  0  0  0  0  0  0  0  0  0  0
   -1.0992   -1.2473    4.6410 H   0  0  0  0  0  0  0  0  0  0  0  0
   -2.2398   -0.7126    3.3832 H   0  0  0  0  0  0  0  0  0  0  0  0
   -3.2308   -0.4600    5.6586 H   0  0  0  0  0  0  0  0  0  0  0  0
   -3.1093    1.0813    4.7978 H   0  0  0  0  0  0  0  0  0  0  0  0
   -3.4118    0.8859    7.7486 H   0  0  0  0  0  0  0  0  0  0  0  0
   -3.1824    2.4008    6.8502 H   0  0  0  0  0  0  0  0  0  0  0  0
   -2.1003    1.9752    8.1920 H   0  0  0  0  0  0  0  0  0  0  0  0
   -0.0985    2.1332    6.7560 H   0  0  0  0  0  0  0  0  0  0  0  0
   -1.1916    2.6799    5.4769 H   0  0  0  0  0  0  0  0  0  0  0  0
    0.7564    0.3094    5.3163 H   0  0  0  0  0  0  0  0  0  0  0  0
    0.9137    1.8846    4.5277 H   0  0  0  0  0  0  0  0  0  0  0  0
  1  2  1  0  0  0  0
  1 37  1  0  0  0  0
  1 38  1  0  0  0  0
  1 39  1  0  0  0  0
  2  3  1  0  0  0  0
  2 36  2  0  0  0  0
  3  4  2  0  0  0  0
  4  5  1  0  0  0  0
  4 27  1  0  0  0  0
  5  6  1  0  0  0  0
  5 40  1  0  0  0  0
  6  7  2  0  0  0  0
  6 26  1  0  0  0  0
  7  8  1  0  0  0  0
  8  9  2  0  0  0  0
  8 41  1  0  0  0  0
  9 10  1  0  0  0  0
  9 26  1  0  0  0  0
 10 11  1  0  0  0  0
 10 25  2  0  0  0  0
 11 12  2  0  0  0  0
 11 42  1  0  0  0  0
 12 13  1  0  0  0  0
 12 43  1  0  0  0  0
 13 14  1  0  0  0  0
 13 24  2  0  0  0  0
 14 15  1  0  0  0  0
 14 44  1  0  0  0  0
 15 16  2  0  0  0  0
 15 17  1  0  0  0  0
 17 18  1  0  0  0  0
 17 45  1  0  0  0  0
 18 19  1  0  0  0  0
 18 23  2  0  0  0  0
 19 20  2  0  0  0  0
 19 46  1  0  0  0  0
 20 21  1  0  0  0  0
 20 22  1  0  0  0  0
 21 47  1  0  0  0  0
 21 48  1  0  0  0  0
 21 49  1  0  0  0  0
 22 23  1  0  0  0  0
 24 25  1  0  0  0  0
 24 50  1  0  0  0  0
 25 51  1  0  0  0  0
 27 28  2  0  0  0  0
 27 52  1  0  0  0  0
 28 29  1  0  0  0  0
 28 36  1  0  0  0  0
 29 30  1  0  0  0  0
 29 35  1  0  0  0  0
 30 31  1  0  0  0  0
 30 53  1  0  0  0  0
 30 54  1  0  0  0  0
 31 32  1  0  0  0  0
 31 55  1  0  0  0  0
 31 56  1  0  0  0  0
 32 33  1  0  0  0  0
 32 34  1  0  0  0  0
 33 57  1  0  0  0  0
 33 58  1  0  0  0  0
 33 59  1  0  0  0  0
 34 35  1  0  0  0  0
 34 60  1  0  0  0  0
 34 61  1  0  0  0  0
 35 62  1  0  0  0  0
 35 63  1  0  0  0  0
M  END
$$$$
