CHEMBL1956885
 OpenBabel04072215363D

 41 44  0  0  0  0  0  0  0  0999 V2000
    1.2010    0.2649   -0.2283 N   0  0  0  0  0  0  0  0  0  0  0  0
    2.5806    0.2257   -0.1559 C   0  0  0  0  0  0  0  0  0  0  0  0
    3.1241   -0.9955   -0.0682 N   0  0  0  0  0  0  0  0  0  0  0  0
    4.4744   -1.1402   -0.0697 C   0  0  0  0  0  0  0  0  0  0  0  0
    5.0530   -2.4149   -0.0720 N   0  0  0  0  0  0  0  0  0  0  0  0
    4.5331   -3.6084    0.4491 C   0  0  0  0  0  0  0  0  0  0  0  0
    4.9383   -4.8336   -0.0965 C   0  0  0  0  0  0  0  0  0  0  0  0
    4.3918   -6.0350    0.3628 C   0  0  0  0  0  0  0  0  0  0  0  0
    3.4346   -6.0245    1.3767 C   0  0  0  0  0  0  0  0  0  0  0  0
    3.0243   -4.8104    1.9195 C   0  0  0  0  0  0  0  0  0  0  0  0
    1.7309   -4.7788    3.2976 Br  0  0  0  0  0  0  0  0  0  0  0  0
    3.5592   -3.6133    1.4538 C   0  0  0  0  0  0  0  0  0  0  0  0
    5.2504    0.0206   -0.1528 C   0  0  0  0  0  0  0  0  0  0  0  0
    6.6348    0.3307   -0.2299 C   0  0  0  0  0  0  0  0  0  0  0  0
    6.7461    1.6934   -0.4425 C   0  0  0  0  0  0  0  0  0  0  0  0
    7.9287    2.5107   -0.8441 C   0  0  0  0  0  0  0  0  0  0  0  0
    8.7384    3.0208    0.3195 C   0  0  0  0  0  0  0  0  0  0  0  0
    9.7859    2.2518    0.8495 C   0  0  0  0  0  0  0  0  0  0  0  0
   10.5237    2.7169    1.9398 C   0  0  0  0  0  0  0  0  0  0  0  0
   10.2160    3.9519    2.5058 C   0  0  0  0  0  0  0  0  0  0  0  0
   11.1060    4.5141    3.8663 Cl  0  0  0  0  0  0  0  0  0  0  0  0
    9.1877    4.7323    1.9817 C   0  0  0  0  0  0  0  0  0  0  0  0
    8.4496    4.2676    0.8918 C   0  0  0  0  0  0  0  0  0  0  0  0
    5.4851    2.2289   -0.2966 N   0  0  0  0  0  0  0  0  0  0  0  0
    4.5677    1.2211   -0.1939 C   0  0  0  0  0  0  0  0  0  0  0  0
    3.2348    1.3903   -0.1795 N   0  0  0  0  0  0  0  0  0  0  0  0
    0.8212   -0.6075    0.1087 H   0  0  0  0  0  0  0  0  0  0  0  0
    0.8442    1.1227    0.1640 H   0  0  0  0  0  0  0  0  0  0  0  0
    6.0314   -2.4419   -0.3202 H   0  0  0  0  0  0  0  0  0  0  0  0
    5.6622   -4.8592   -0.9071 H   0  0  0  0  0  0  0  0  0  0  0  0
    4.7032   -6.9780   -0.0802 H   0  0  0  0  0  0  0  0  0  0  0  0
    3.0108   -6.9597    1.7293 H   0  0  0  0  0  0  0  0  0  0  0  0
    3.2316   -2.6742    1.8923 H   0  0  0  0  0  0  0  0  0  0  0  0
    7.4551   -0.3745   -0.2319 H   0  0  0  0  0  0  0  0  0  0  0  0
    7.6060    3.3521   -1.4702 H   0  0  0  0  0  0  0  0  0  0  0  0
    8.5737    1.9021   -1.4924 H   0  0  0  0  0  0  0  0  0  0  0  0
   10.0326    1.2849    0.4156 H   0  0  0  0  0  0  0  0  0  0  0  0
   11.3300    2.1111    2.3441 H   0  0  0  0  0  0  0  0  0  0  0  0
    8.9531    5.6991    2.4185 H   0  0  0  0  0  0  0  0  0  0  0  0
    7.6493    4.8853    0.4910 H   0  0  0  0  0  0  0  0  0  0  0  0
    5.2347    3.2051   -0.3557 H   0  0  0  0  0  0  0  0  0  0  0  0
  1  2  1  0  0  0  0
  1 27  1  0  0  0  0
  1 28  1  0  0  0  0
  2  3  1  0  0  0  0
  2 26  2  0  0  0  0
  3  4  2  0  0  0  0
  4  5  1  0  0  0  0
  4 13  1  0  0  0  0
  5  6  1  0  0  0  0
  5 29  1  0  0  0  0
  6  7  1  0  0  0  0
  6 12  2  0  0  0  0
  7  8  2  0  0  0  0
  7 30  1  0  0  0  0
  8  9  1  0  0  0  0
  8 31  1  0  0  0  0
  9 10  2  0  0  0  0
  9 32  1  0  0  0  0
 10 11  1  0  0  0  0
 10 12  1  0  0  0  0
 12 33  1  0  0  0  0
 13 14  1  0  0  0  0
 13 25  2  0  0  0  0
 14 15  2  0  0  0  0
 14 34  1  0  0  0  0
 15 16  1  0  0  0  0
 15 24  1  0  0  0  0
 16 17  1  0  0  0  0
 16 35  1  0  0  0  0
 16 36  1  0  0  0  0
 17 18  1  0  0  0  0
 17 23  2  0  0  0  0
 18 19  2  0  0  0  0
 18 37  1  0  0  0  0
 19 20  1  0  0  0  0
 19 38  1  0  0  0  0
 20 21  1  0  0  0  0
 20 22  2  0  0  0  0
 22 23  1  0  0  0  0
 22 39  1  0  0  0  0
 23 40  1  0  0  0  0
 24 25  1  0  0  0  0
 24 41  1  0  0  0  0
 25 26  1  0  0  0  0
M  END
$$$$
