CHEMBL1971649
 OpenBabel04072215363D

 47 50  0  0  0  0  0  0  0  0999 V2000
    2.9437    0.7302   -1.8720 C   0  0  0  0  0  0  0  0  0  0  0  0
    1.5038    0.4717   -1.5252 C   0  0  0  0  0  0  0  0  0  0  0  0
    1.0001   -0.8300   -1.6029 C   0  0  0  0  0  0  0  0  0  0  0  0
   -0.3195   -1.0825   -1.2496 C   0  0  0  0  0  0  0  0  0  0  0  0
   -1.1463   -0.0377   -0.8386 C   0  0  0  0  0  0  0  0  0  0  0  0
   -2.3525   -0.3951   -0.3824 F   0  0  0  0  0  0  0  0  0  0  0  0
   -0.6955    1.2933   -0.8193 C   0  0  0  0  0  0  0  0  0  0  0  0
   -1.5070    2.4246   -0.5029 N   0  0  0  0  0  0  0  0  0  0  0  0
   -2.8903    2.4470   -0.5598 C   0  0  0  0  0  0  0  0  0  0  0  0
   -3.5879    1.5108   -0.9274 O   0  0  0  0  0  0  0  0  0  0  0  0
   -3.4320    3.6893   -0.2292 N   0  0  0  0  0  0  0  0  0  0  0  0
   -4.8433    3.8034   -0.1210 C   0  0  0  0  0  0  0  0  0  0  0  0
   -5.5537    2.8725    0.6301 C   0  0  0  0  0  0  0  0  0  0  0  0
   -6.9450    2.9223    0.6757 C   0  0  0  0  0  0  0  0  0  0  0  0
   -7.6898    3.9323    0.0288 C   0  0  0  0  0  0  0  0  0  0  0  0
   -9.1580    4.0050    0.2915 C   0  0  0  0  0  0  0  0  0  0  0  0
   -9.5582    3.7446    1.6180 C   0  0  0  0  0  0  0  0  0  0  0  0
  -10.8878    3.6856    2.0040 C   0  0  0  0  0  0  0  0  0  0  0  0
  -11.8889    3.9707    1.1128 C   0  0  0  0  0  0  0  0  0  0  0  0
  -13.1450    3.9209    1.5873 N   0  0  0  0  0  0  0  0  0  0  0  0
  -14.1202    4.2638    0.7320 C   0  0  0  0  0  0  0  0  0  0  0  0
  -13.8423    4.6324   -0.5664 C   0  0  0  0  0  0  0  0  0  0  0  0
  -12.5849    4.6452   -1.0727 N   0  0  0  0  0  0  0  0  0  0  0  0
  -11.5664    4.3135   -0.2262 C   0  0  0  0  0  0  0  0  0  0  0  0
  -10.1944    4.2670   -0.6433 C   0  0  0  0  0  0  0  0  0  0  0  0
   -9.8913    4.6571   -1.9847 N   0  0  0  0  0  0  0  0  0  0  0  0
   -6.9567    4.8636   -0.7253 C   0  0  0  0  0  0  0  0  0  0  0  0
   -5.5444    4.8104   -0.7877 C   0  0  0  0  0  0  0  0  0  0  0  0
    0.6511    1.5239   -1.1358 C   0  0  0  0  0  0  0  0  0  0  0  0
    3.4579   -0.1984   -2.1461 H   0  0  0  0  0  0  0  0  0  0  0  0
    3.4692    1.1566   -1.0124 H   0  0  0  0  0  0  0  0  0  0  0  0
    3.0150    1.4125   -2.7245 H   0  0  0  0  0  0  0  0  0  0  0  0
    1.6322   -1.6566   -1.9187 H   0  0  0  0  0  0  0  0  0  0  0  0
   -0.7187   -2.0917   -1.2749 H   0  0  0  0  0  0  0  0  0  0  0  0
   -1.0366    3.3074   -0.3686 H   0  0  0  0  0  0  0  0  0  0  0  0
   -2.9446    4.4838   -0.6161 H   0  0  0  0  0  0  0  0  0  0  0  0
   -5.0380    2.0929    1.1867 H   0  0  0  0  0  0  0  0  0  0  0  0
   -7.4476    2.1507    1.2566 H   0  0  0  0  0  0  0  0  0  0  0  0
   -8.8127    3.5745    2.3935 H   0  0  0  0  0  0  0  0  0  0  0  0
  -11.1389    3.4328    3.0296 H   0  0  0  0  0  0  0  0  0  0  0  0
  -15.1279    4.2384    1.1297 H   0  0  0  0  0  0  0  0  0  0  0  0
  -14.6389    4.9386   -1.2369 H   0  0  0  0  0  0  0  0  0  0  0  0
  -10.7278    4.5698   -2.5682 H   0  0  0  0  0  0  0  0  0  0  0  0
   -9.0911    4.1625   -2.3674 H   0  0  0  0  0  0  0  0  0  0  0  0
   -7.4691    5.6591   -1.2632 H   0  0  0  0  0  0  0  0  0  0  0  0
   -5.0158    5.5353   -1.3996 H   0  0  0  0  0  0  0  0  0  0  0  0
    1.0559    2.5350   -1.0975 H   0  0  0  0  0  0  0  0  0  0  0  0
  1  2  1  0  0  0  0
  1 30  1  0  0  0  0
  1 31  1  0  0  0  0
  1 32  1  0  0  0  0
  2  3  1  0  0  0  0
  2 29  2  0  0  0  0
  3  4  2  0  0  0  0
  3 33  1  0  0  0  0
  4  5  1  0  0  0  0
  4 34  1  0  0  0  0
  5  6  1  0  0  0  0
  5  7  2  0  0  0  0
  7  8  1  0  0  0  0
  7 29  1  0  0  0  0
  8  9  1  0  0  0  0
  8 35  1  0  0  0  0
  9 10  2  0  0  0  0
  9 11  1  0  0  0  0
 11 12  1  0  0  0  0
 11 36  1  0  0  0  0
 12 13  1  0  0  0  0
 12 28  2  0  0  0  0
 13 14  2  0  0  0  0
 13 37  1  0  0  0  0
 14 15  1  0  0  0  0
 14 38  1  0  0  0  0
 15 16  1  0  0  0  0
 15 27  2  0  0  0  0
 16 17  1  0  0  0  0
 16 25  2  0  0  0  0
 17 18  2  0  0  0  0
 17 39  1  0  0  0  0
 18 19  1  0  0  0  0
 18 40  1  0  0  0  0
 19 20  1  0  0  0  0
 19 24  2  0  0  0  0
 20 21  2  0  0  0  0
 21 22  1  0  0  0  0
 21 41  1  0  0  0  0
 22 23  2  0  0  0  0
 22 42  1  0  0  0  0
 23 24  1  0  0  0  0
 24 25  1  0  0  0  0
 25 26  1  0  0  0  0
 26 43  1  0  0  0  0
 26 44  1  0  0  0  0
 27 28  1  0  0  0  0
 27 45  1  0  0  0  0
 28 46  1  0  0  0  0
 29 47  1  0  0  0  0
M  END
$$$$
