CHEMBL1171837
 OpenBabel04072215363D

 66 70  0  0  0  0  0  0  0  0999 V2000
    0.9972    0.0116    0.4417 C   0  0  0  0  0  0  0  0  0  0  0  0
    2.5001   -0.0498    0.3842 C   0  0  0  0  0  0  0  0  0  0  0  0
    3.2162    1.1309    0.1567 C   0  0  0  0  0  0  0  0  0  0  0  0
    4.6022    1.0998    0.0361 C   0  0  0  0  0  0  0  0  0  0  0  0
    5.3054   -0.1080    0.1495 C   0  0  0  0  0  0  0  0  0  0  0  0
    6.7822   -0.0247   -0.0102 C   0  0  0  0  0  0  0  0  0  0  0  0
    7.3118    1.0296    0.3348 O   0  0  0  0  0  0  0  0  0  0  0  0
    7.4274   -1.0873   -0.6356 N   0  0  0  0  0  0  0  0  0  0  0  0
    8.8103   -1.0847   -0.9684 C   0  0  0  0  0  0  0  0  0  0  0  0
    9.7223   -0.2199   -0.3648 C   0  0  0  0  0  0  0  0  0  0  0  0
   11.0424   -0.1434   -0.8043 C   0  0  0  0  0  0  0  0  0  0  0  0
   11.4957   -0.9313   -1.8723 C   0  0  0  0  0  0  0  0  0  0  0  0
   12.9157   -0.7173   -2.3556 C   0  0  0  0  0  0  0  0  0  0  0  0
   12.9827   -0.2659   -3.7438 N   0  0  0  0  0  0  0  0  0  0  0  0
   12.2893    0.9983   -4.0176 C   0  0  0  0  0  0  0  0  0  0  0  0
   12.3627    1.3510   -5.5223 C   0  0  0  0  0  0  0  0  0  0  0  0
   13.7314    1.4261   -6.0726 N   0  0  0  0  0  0  0  0  0  0  0  0
   14.4238    2.6230   -5.6035 C   0  0  0  0  0  0  0  0  0  0  0  0
   14.4651    0.1953   -5.7095 C   0  0  0  0  0  0  0  0  0  0  0  0
   14.3756   -0.2033   -4.2170 C   0  0  0  0  0  0  0  0  0  0  0  0
   10.6093   -1.8549   -2.4682 C   0  0  0  0  0  0  0  0  0  0  0  0
   10.9857   -2.7275   -3.6566 C   0  0  0  0  0  0  0  0  0  0  0  0
   12.2554   -2.6363   -4.1291 F   0  0  0  0  0  0  0  0  0  0  0  0
   10.8357   -4.0535   -3.3663 F   0  0  0  0  0  0  0  0  0  0  0  0
   10.1740   -2.4978   -4.7299 F   0  0  0  0  0  0  0  0  0  0  0  0
    9.2769   -1.9418   -1.9750 C   0  0  0  0  0  0  0  0  0  0  0  0
    4.6076   -1.2904    0.4225 C   0  0  0  0  0  0  0  0  0  0  0  0
    3.2019   -1.2652    0.5229 C   0  0  0  0  0  0  0  0  0  0  0  0
    2.4835   -2.4953    0.7237 C   0  0  0  0  0  0  0  0  0  0  0  0
    1.8631   -3.5176    0.8563 C   0  0  0  0  0  0  0  0  0  0  0  0
    1.1886   -4.7588    0.9999 C   0  0  0  0  0  0  0  0  0  0  0  0
    1.7524   -5.9832    1.2804 C   0  0  0  0  0  0  0  0  0  0  0  0
    0.8121   -6.9792    1.3401 N   0  0  0  0  0  0  0  0  0  0  0  0
   -0.3391   -6.3731    1.0941 C   0  0  0  0  0  0  0  0  0  0  0  0
   -1.6474   -6.8919    1.0257 C   0  0  0  0  0  0  0  0  0  0  0  0
   -2.6598   -6.0633    0.7561 C   0  0  0  0  0  0  0  0  0  0  0  0
   -2.3322   -4.6290    0.5435 C   0  0  0  0  0  0  0  0  0  0  0  0
   -1.1516   -4.0985    0.5973 N   0  0  0  0  0  0  0  0  0  0  0  0
   -0.1651   -5.0091    0.8807 N   0  0  0  0  0  0  0  0  0  0  0  0
    0.6354    1.0406    0.3373 H   0  0  0  0  0  0  0  0  0  0  0  0
    0.6286   -0.3700    1.3989 H   0  0  0  0  0  0  0  0  0  0  0  0
    0.5685   -0.5710   -0.3800 H   0  0  0  0  0  0  0  0  0  0  0  0
    2.7027    2.0846    0.0541 H   0  0  0  0  0  0  0  0  0  0  0  0
    5.1385    2.0281   -0.1585 H   0  0  0  0  0  0  0  0  0  0  0  0
    6.8483   -1.7810   -1.0911 H   0  0  0  0  0  0  0  0  0  0  0  0
    9.4339    0.4329    0.4538 H   0  0  0  0  0  0  0  0  0  0  0  0
   11.7041    0.5746   -0.3223 H   0  0  0  0  0  0  0  0  0  0  0  0
   13.4284   -1.6821   -2.2430 H   0  0  0  0  0  0  0  0  0  0  0  0
   13.4461   -0.0160   -1.6991 H   0  0  0  0  0  0  0  0  0  0  0  0
   12.7130    1.8086   -3.4130 H   0  0  0  0  0  0  0  0  0  0  0  0
   11.2273    0.9209   -3.7596 H   0  0  0  0  0  0  0  0  0  0  0  0
   11.8289    2.2915   -5.7042 H   0  0  0  0  0  0  0  0  0  0  0  0
   11.8109    0.5877   -6.0893 H   0  0  0  0  0  0  0  0  0  0  0  0
   13.8641    3.5206   -5.8888 H   0  0  0  0  0  0  0  0  0  0  0  0
   15.4070    2.7030   -6.0784 H   0  0  0  0  0  0  0  0  0  0  0  0
   14.5678    2.6451   -4.5186 H   0  0  0  0  0  0  0  0  0  0  0  0
   15.5187    0.2824   -6.0029 H   0  0  0  0  0  0  0  0  0  0  0  0
   14.0601   -0.6288   -6.3127 H   0  0  0  0  0  0  0  0  0  0  0  0
   14.9500    0.5076   -3.6097 H   0  0  0  0  0  0  0  0  0  0  0  0
   14.8521   -1.1848   -4.0998 H   0  0  0  0  0  0  0  0  0  0  0  0
    8.5959   -2.6560   -2.4368 H   0  0  0  0  0  0  0  0  0  0  0  0
    5.1421   -2.2243    0.5743 H   0  0  0  0  0  0  0  0  0  0  0  0
    2.8001   -6.1990    1.4414 H   0  0  0  0  0  0  0  0  0  0  0  0
   -1.7989   -7.9537    1.1891 H   0  0  0  0  0  0  0  0  0  0  0  0
   -3.6935   -6.3832    0.6810 H   0  0  0  0  0  0  0  0  0  0  0  0
   -3.1977   -3.9846    0.3236 H   0  0  0  0  0  0  0  0  0  0  0  0
  1  2  1  0  0  0  0
  1 40  1  0  0  0  0
  1 41  1  0  0  0  0
  1 42  1  0  0  0  0
  2  3  1  0  0  0  0
  2 28  2  0  0  0  0
  3  4  2  0  0  0  0
  3 43  1  0  0  0  0
  4  5  1  0  0  0  0
  4 44  1  0  0  0  0
  5  6  1  0  0  0  0
  5 27  2  0  0  0  0
  6  7  2  0  0  0  0
  6  8  1  0  0  0  0
  8  9  1  0  0  0  0
  8 45  1  0  0  0  0
  9 10  1  0  0  0  0
  9 26  2  0  0  0  0
 10 11  2  0  0  0  0
 10 46  1  0  0  0  0
 11 12  1  0  0  0  0
 11 47  1  0  0  0  0
 12 13  1  0  0  0  0
 12 21  2  0  0  0  0
 13 14  1  0  0  0  0
 13 48  1  0  0  0  0
 13 49  1  0  0  0  0
 14 15  1  0  0  0  0
 14 20  1  0  0  0  0
 15 16  1  0  0  0  0
 15 50  1  0  0  0  0
 15 51  1  0  0  0  0
 16 17  1  0  0  0  0
 16 52  1  0  0  0  0
 16 53  1  0  0  0  0
 17 18  1  0  0  0  0
 17 19  1  0  0  0  0
 18 54  1  0  0  0  0
 18 55  1  0  0  0  0
 18 56  1  0  0  0  0
 19 20  1  0  0  0  0
 19 57  1  0  0  0  0
 19 58  1  0  0  0  0
 20 59  1  0  0  0  0
 20 60  1  0  0  0  0
 21 22  1  0  0  0  0
 21 26  1  0  0  0  0
 22 23  1  0  0  0  0
 22 24  1  0  0  0  0
 22 25  1  0  0  0  0
 26 61  1  0  0  0  0
 27 28  1  0  0  0  0
 27 62  1  0  0  0  0
 28 29  1  0  0  0  0
 29 30  3  0  0  0  0
 30 31  1  0  0  0  0
 31 32  2  0  0  0  0
 31 39  1  0  0  0  0
 32 33  1  0  0  0  0
 32 63  1  0  0  0  0
 33 34  2  0  0  0  0
 34 35  1  0  0  0  0
 34 39  1  0  0  0  0
 35 36  2  0  0  0  0
 35 64  1  0  0  0  0
 36 37  1  0  0  0  0
 36 65  1  0  0  0  0
 37 38  2  0  0  0  0
 37 66  1  0  0  0  0
 38 39  1  0  0  0  0
M  END
$$$$
