CHEMBL3949508
 OpenBabel04072215373D

 62 65  0  0  0  0  0  0  0  0999 V2000
    1.2035   -0.0308   -1.7008 C   0  0  0  0  0  0  0  0  0  0  0  0
    2.5810   -0.0605   -1.2643 N   0  0  0  0  0  0  0  0  0  0  0  0
    3.3666    1.0708   -1.3665 C   0  0  0  0  0  0  0  0  0  0  0  0
    2.9304    2.1434   -1.7721 O   0  0  0  0  0  0  0  0  0  0  0  0
    4.8098    0.9438   -0.9992 C   0  0  0  0  0  0  0  0  0  0  0  0
    5.4764   -0.2778   -1.0490 C   0  0  0  0  0  0  0  0  0  0  0  0
    6.8487   -0.3219   -0.8055 C   0  0  0  0  0  0  0  0  0  0  0  0
    7.6022   -1.4682   -0.8013 O   0  0  0  0  0  0  0  0  0  0  0  0
    6.9445   -2.6709   -1.1937 C   0  0  0  0  0  0  0  0  0  0  0  0
    7.5625    0.8706   -0.5656 C   0  0  0  0  0  0  0  0  0  0  0  0
    6.9389    2.1297   -0.5627 C   0  0  0  0  0  0  0  0  0  0  0  0
    7.6914    3.3239   -0.3654 N   0  0  0  0  0  0  0  0  0  0  0  0
    6.9149    4.6257   -0.2428 C   0  0  0  0  0  0  0  0  0  0  0  0
    6.3581    5.0555    1.1718 C   0  0  0  0  0  0  0  0  0  0  0  0
    7.4336    5.4509    2.1971 C   0  0  0  0  0  0  0  0  0  0  0  0
    5.4548    6.2903    0.9448 C   0  0  0  0  0  0  0  0  0  0  0  0
    5.5028    4.0624    1.7489 O   0  0  0  0  0  0  0  0  0  0  0  0
    9.0298    3.6287   -0.8114 C   0  0  0  0  0  0  0  0  0  0  0  0
    9.7805    4.3927    0.0856 C   0  0  0  0  0  0  0  0  0  0  0  0
   10.7237    5.2807   -0.3868 C   0  0  0  0  0  0  0  0  0  0  0  0
   11.1061    5.2718   -1.6905 C   0  0  0  0  0  0  0  0  0  0  0  0
   11.8821    6.3143   -2.0123 N   0  0  0  0  0  0  0  0  0  0  0  0
   12.5019    6.2570   -3.1918 C   0  0  0  0  0  0  0  0  0  0  0  0
   12.4239    5.1439   -4.0010 C   0  0  0  0  0  0  0  0  0  0  0  0
   13.4830    5.0466   -5.0055 C   0  0  0  0  0  0  0  0  0  0  0  0
   14.7460    4.3955   -4.9265 C   0  0  0  0  0  0  0  0  0  0  0  0
   15.5778    4.7431   -5.9181 N   0  0  0  0  0  0  0  0  0  0  0  0
   14.8589    5.6278   -6.6285 N   0  0  0  0  0  0  0  0  0  0  0  0
   15.2668    6.0092   -7.9604 C   0  0  0  0  0  0  0  0  0  0  0  0
   13.6888    5.9782   -6.0122 C   0  0  0  0  0  0  0  0  0  0  0  0
   11.5086    4.1392   -3.7484 N   0  0  0  0  0  0  0  0  0  0  0  0
   10.7488    4.2312   -2.5728 C   0  0  0  0  0  0  0  0  0  0  0  0
    9.6069    3.4524   -2.1109 C   0  0  0  0  0  0  0  0  0  0  0  0
    5.5347    2.1168   -0.7195 C   0  0  0  0  0  0  0  0  0  0  0  0
    0.7786   -1.0309   -1.5908 H   0  0  0  0  0  0  0  0  0  0  0  0
    1.1654    0.2745   -2.7506 H   0  0  0  0  0  0  0  0  0  0  0  0
    0.6434    0.6852   -1.0946 H   0  0  0  0  0  0  0  0  0  0  0  0
    2.8981   -0.8501   -0.7272 H   0  0  0  0  0  0  0  0  0  0  0  0
    4.9274   -1.1730   -1.3100 H   0  0  0  0  0  0  0  0  0  0  0  0
    7.6887   -3.4719   -1.2250 H   0  0  0  0  0  0  0  0  0  0  0  0
    6.5155   -2.5807   -2.1982 H   0  0  0  0  0  0  0  0  0  0  0  0
    6.1774   -2.9564   -0.4649 H   0  0  0  0  0  0  0  0  0  0  0  0
    8.6288    0.8019   -0.3657 H   0  0  0  0  0  0  0  0  0  0  0  0
    6.0963    4.6267   -0.9708 H   0  0  0  0  0  0  0  0  0  0  0  0
    7.5344    5.4651   -0.5911 H   0  0  0  0  0  0  0  0  0  0  0  0
    8.2021    6.0949    1.7600 H   0  0  0  0  0  0  0  0  0  0  0  0
    7.9000    4.5713    2.6535 H   0  0  0  0  0  0  0  0  0  0  0  0
    6.9975    6.0108    3.0358 H   0  0  0  0  0  0  0  0  0  0  0  0
    5.9097    7.0046    0.2502 H   0  0  0  0  0  0  0  0  0  0  0  0
    5.2527    6.8263    1.8807 H   0  0  0  0  0  0  0  0  0  0  0  0
    4.4770    5.9915    0.5507 H   0  0  0  0  0  0  0  0  0  0  0  0
    5.8855    3.7607    2.5903 H   0  0  0  0  0  0  0  0  0  0  0  0
    9.5145    4.4103    1.1320 H   0  0  0  0  0  0  0  0  0  0  0  0
   11.1311    6.0108    0.2863 H   0  0  0  0  0  0  0  0  0  0  0  0
   13.1291    7.1105   -3.4254 H   0  0  0  0  0  0  0  0  0  0  0  0
   15.1157    3.7172   -4.1671 H   0  0  0  0  0  0  0  0  0  0  0  0
   16.1617    5.4521   -8.2506 H   0  0  0  0  0  0  0  0  0  0  0  0
   15.4584    7.0841   -7.9936 H   0  0  0  0  0  0  0  0  0  0  0  0
   14.4449    5.7484   -8.6333 H   0  0  0  0  0  0  0  0  0  0  0  0
   13.1078    6.8217   -6.3575 H   0  0  0  0  0  0  0  0  0  0  0  0
    9.1378    2.7530   -2.8041 H   0  0  0  0  0  0  0  0  0  0  0  0
    4.9481    3.0288   -0.6493 H   0  0  0  0  0  0  0  0  0  0  0  0
  1  2  1  0  0  0  0
  1 35  1  0  0  0  0
  1 36  1  0  0  0  0
  1 37  1  0  0  0  0
  2  3  1  0  0  0  0
  2 38  1  0  0  0  0
  3  4  2  0  0  0  0
  3  5  1  0  0  0  0
  5  6  1  0  0  0  0
  5 34  2  0  0  0  0
  6  7  2  0  0  0  0
  6 39  1  0  0  0  0
  7  8  1  0  0  0  0
  7 10  1  0  0  0  0
  8  9  1  0  0  0  0
  9 40  1  0  0  0  0
  9 41  1  0  0  0  0
  9 42  1  0  0  0  0
 10 11  2  0  0  0  0
 10 43  1  0  0  0  0
 11 12  1  0  0  0  0
 11 34  1  0  0  0  0
 12 13  1  0  0  0  0
 12 18  1  0  0  0  0
 13 14  1  0  0  0  0
 13 44  1  0  0  0  0
 13 45  1  0  0  0  0
 14 15  1  0  0  0  0
 14 16  1  0  0  0  0
 14 17  1  0  0  0  0
 15 46  1  0  0  0  0
 15 47  1  0  0  0  0
 15 48  1  0  0  0  0
 16 49  1  0  0  0  0
 16 50  1  0  0  0  0
 16 51  1  0  0  0  0
 17 52  1  0  0  0  0
 18 19  1  0  0  0  0
 18 33  2  0  0  0  0
 19 20  2  0  0  0  0
 19 53  1  0  0  0  0
 20 21  1  0  0  0  0
 20 54  1  0  0  0  0
 21 22  1  0  0  0  0
 21 32  2  0  0  0  0
 22 23  2  0  0  0  0
 23 24  1  0  0  0  0
 23 55  1  0  0  0  0
 24 25  1  0  0  0  0
 24 31  2  0  0  0  0
 25 26  1  0  0  0  0
 25 30  2  0  0  0  0
 26 27  2  0  0  0  0
 26 56  1  0  0  0  0
 27 28  1  0  0  0  0
 28 29  1  0  0  0  0
 28 30  1  0  0  0  0
 29 57  1  0  0  0  0
 29 58  1  0  0  0  0
 29 59  1  0  0  0  0
 30 60  1  0  0  0  0
 31 32  1  0  0  0  0
 32 33  1  0  0  0  0
 33 61  1  0  0  0  0
 34 62  1  0  0  0  0
M  END
$$$$
