CHEMBL3671489
 OpenBabel04072215373D

 58 60  0  0  0  0  0  0  0  0999 V2000
    2.2474    2.0543    0.5106 C   0  0  0  0  0  0  0  0  0  0  0  0
    2.8192    0.8495    0.3988 C   0  0  0  0  0  0  0  0  0  0  0  0
    3.4912    0.2046    1.5574 C   0  0  0  0  0  0  0  0  0  0  0  0
    3.2730    0.5423    2.7139 O   0  0  0  0  0  0  0  0  0  0  0  0
    4.3949   -0.7594    1.1409 N   0  0  0  0  0  0  0  0  0  0  0  0
    5.1792   -1.4215    2.1047 C   0  0  0  0  0  0  0  0  0  0  0  0
    6.3733   -0.8178    2.4956 C   0  0  0  0  0  0  0  0  0  0  0  0
    7.1608   -1.3872    3.5213 C   0  0  0  0  0  0  0  0  0  0  0  0
    8.3011   -0.7903    4.0742 C   0  0  0  0  0  0  0  0  0  0  0  0
    8.6908    0.5066    3.6521 N   0  0  0  0  0  0  0  0  0  0  0  0
    9.5012    1.3701    4.4230 C   0  0  0  0  0  0  0  0  0  0  0  0
    9.2998    1.5002    5.8029 C   0  0  0  0  0  0  0  0  0  0  0  0
   10.1647    2.2717    6.5790 C   0  0  0  0  0  0  0  0  0  0  0  0
   11.2257    2.9394    5.9727 C   0  0  0  0  0  0  0  0  0  0  0  0
   12.4507    3.9023    7.0415 Br  0  0  0  0  0  0  0  0  0  0  0  0
   11.4027    2.8840    4.5928 C   0  0  0  0  0  0  0  0  0  0  0  0
   10.5319    2.1100    3.8305 C   0  0  0  0  0  0  0  0  0  0  0  0
   10.7106    2.0416    2.5014 F   0  0  0  0  0  0  0  0  0  0  0  0
    9.0185   -1.3880    5.0452 N   0  0  0  0  0  0  0  0  0  0  0  0
    8.5773   -2.5656    5.4893 C   0  0  0  0  0  0  0  0  0  0  0  0
    7.4822   -3.2009    5.0677 N   0  0  0  0  0  0  0  0  0  0  0  0
    6.7731   -2.5996    4.1092 C   0  0  0  0  0  0  0  0  0  0  0  0
    5.5970   -3.1954    3.6846 C   0  0  0  0  0  0  0  0  0  0  0  0
    4.7958   -2.6355    2.6822 C   0  0  0  0  0  0  0  0  0  0  0  0
    3.7032   -3.3997    2.3734 O   0  0  0  0  0  0  0  0  0  0  0  0
    3.3005   -3.4812    1.0065 C   0  0  0  0  0  0  0  0  0  0  0  0
    4.3960   -3.9742    0.0593 C   0  0  0  0  0  0  0  0  0  0  0  0
    4.8097   -5.4115    0.3765 C   0  0  0  0  0  0  0  0  0  0  0  0
    5.8462   -5.9129   -0.5105 N   0  0  0  0  0  0  0  0  0  0  0  0
    5.5972   -6.0844   -1.8504 C   0  0  0  0  0  0  0  0  0  0  0  0
    4.5620   -5.7590   -2.4103 O   0  0  0  0  0  0  0  0  0  0  0  0
    6.6710   -6.6492   -2.4884 N   0  0  0  0  0  0  0  0  0  0  0  0
    6.6795   -6.8017   -3.9280 C   0  0  0  0  0  0  0  0  0  0  0  0
    7.1824   -5.5488   -4.6243 C   0  0  0  0  0  0  0  0  0  0  0  0
    1.7220    2.4985   -0.3282 H   0  0  0  0  0  0  0  0  0  0  0  0
    2.2818    2.6164    1.4396 H   0  0  0  0  0  0  0  0  0  0  0  0
    2.7635    0.2891   -0.5266 H   0  0  0  0  0  0  0  0  0  0  0  0
    4.8802   -0.4881    0.2939 H   0  0  0  0  0  0  0  0  0  0  0  0
    6.6585    0.1345    2.0561 H   0  0  0  0  0  0  0  0  0  0  0  0
    8.9436    0.5134    2.6682 H   0  0  0  0  0  0  0  0  0  0  0  0
    8.4800    0.9736    6.2883 H   0  0  0  0  0  0  0  0  0  0  0  0
   10.0107    2.3199    7.6540 H   0  0  0  0  0  0  0  0  0  0  0  0
   12.2126    3.4114    4.1044 H   0  0  0  0  0  0  0  0  0  0  0  0
    9.1609   -3.0445    6.2675 H   0  0  0  0  0  0  0  0  0  0  0  0
    5.2904   -4.1303    4.1483 H   0  0  0  0  0  0  0  0  0  0  0  0
    2.8651   -2.5373    0.6691 H   0  0  0  0  0  0  0  0  0  0  0  0
    2.4693   -4.1957    0.9763 H   0  0  0  0  0  0  0  0  0  0  0  0
    5.2859   -3.3369    0.0987 H   0  0  0  0  0  0  0  0  0  0  0  0
    4.0133   -3.8966   -0.9627 H   0  0  0  0  0  0  0  0  0  0  0  0
    3.9492   -6.0860    0.3038 H   0  0  0  0  0  0  0  0  0  0  0  0
    5.2106   -5.4803    1.3935 H   0  0  0  0  0  0  0  0  0  0  0  0
    6.4560   -6.6146   -0.1177 H   0  0  0  0  0  0  0  0  0  0  0  0
    7.5588   -6.5994   -2.0129 H   0  0  0  0  0  0  0  0  0  0  0  0
    5.6681   -7.0397   -4.2750 H   0  0  0  0  0  0  0  0  0  0  0  0
    7.3301   -7.6494   -4.1601 H   0  0  0  0  0  0  0  0  0  0  0  0
    6.5663   -4.6786   -4.3759 H   0  0  0  0  0  0  0  0  0  0  0  0
    7.1641   -5.6837   -5.7102 H   0  0  0  0  0  0  0  0  0  0  0  0
    8.2118   -5.3240   -4.3250 H   0  0  0  0  0  0  0  0  0  0  0  0
  1  2  2  0  0  0  0
  1 35  1  0  0  0  0
  1 36  1  0  0  0  0
  2  3  1  0  0  0  0
  2 37  1  0  0  0  0
  3  4  2  0  0  0  0
  3  5  1  0  0  0  0
  5  6  1  0  0  0  0
  5 38  1  0  0  0  0
  6  7  1  0  0  0  0
  6 24  2  0  0  0  0
  7  8  2  0  0  0  0
  7 39  1  0  0  0  0
  8  9  1  0  0  0  0
  8 22  1  0  0  0  0
  9 10  1  0  0  0  0
  9 19  2  0  0  0  0
 10 11  1  0  0  0  0
 10 40  1  0  0  0  0
 11 12  1  0  0  0  0
 11 17  2  0  0  0  0
 12 13  2  0  0  0  0
 12 41  1  0  0  0  0
 13 14  1  0  0  0  0
 13 42  1  0  0  0  0
 14 15  1  0  0  0  0
 14 16  2  0  0  0  0
 16 17  1  0  0  0  0
 16 43  1  0  0  0  0
 17 18  1  0  0  0  0
 19 20  1  0  0  0  0
 20 21  2  0  0  0  0
 20 44  1  0  0  0  0
 21 22  1  0  0  0  0
 22 23  2  0  0  0  0
 23 24  1  0  0  0  0
 23 45  1  0  0  0  0
 24 25  1  0  0  0  0
 25 26  1  0  0  0  0
 26 27  1  0  0  0  0
 26 46  1  0  0  0  0
 26 47  1  0  0  0  0
 27 28  1  0  0  0  0
 27 48  1  0  0  0  0
 27 49  1  0  0  0  0
 28 29  1  0  0  0  0
 28 50  1  0  0  0  0
 28 51  1  0  0  0  0
 29 30  1  0  0  0  0
 29 52  1  0  0  0  0
 30 31  2  0  0  0  0
 30 32  1  0  0  0  0
 32 33  1  0  0  0  0
 32 53  1  0  0  0  0
 33 34  1  0  0  0  0
 33 54  1  0  0  0  0
 33 55  1  0  0  0  0
 34 56  1  0  0  0  0
 34 57  1  0  0  0  0
 34 58  1  0  0  0  0
M  END
$$$$
