CHEMBL3890205
 OpenBabel04072215373D

 62 66  0  0  0  0  0  0  0  0999 V2000
    0.5466    3.0236    2.8907 C   0  0  0  0  0  0  0  0  0  0  0  0
    1.9285    3.3962    2.9044 O   0  0  0  0  0  0  0  0  0  0  0  0
    2.8307    2.4985    2.3832 C   0  0  0  0  0  0  0  0  0  0  0  0
    2.4847    1.2372    1.8981 C   0  0  0  0  0  0  0  0  0  0  0  0
    3.4627    0.4347    1.3136 C   0  0  0  0  0  0  0  0  0  0  0  0
    3.2571   -0.8009    0.7651 O   0  0  0  0  0  0  0  0  0  0  0  0
    1.9508   -1.3566    0.8699 C   0  0  0  0  0  0  0  0  0  0  0  0
    4.7883    0.8910    1.2256 C   0  0  0  0  0  0  0  0  0  0  0  0
    5.1880    2.1432    1.7161 C   0  0  0  0  0  0  0  0  0  0  0  0
    6.4834    2.6782    1.4711 N   0  0  0  0  0  0  0  0  0  0  0  0
    7.1310    2.2652    0.1569 C   0  0  0  0  0  0  0  0  0  0  0  0
    6.3972    2.6782   -1.1307 C   0  0  0  0  0  0  0  0  0  0  0  0
    7.0924    2.1673   -2.3160 N   0  0  0  0  0  0  0  0  0  0  0  0
    6.7722    0.9959   -2.9527 C   0  0  0  0  0  0  0  0  0  0  0  0
    7.6665    0.8826   -3.9871 C   0  0  0  0  0  0  0  0  0  0  0  0
    8.5225    1.9452   -3.9988 N   0  0  0  0  0  0  0  0  0  0  0  0
    8.1610    2.7188   -2.9930 C   0  0  0  0  0  0  0  0  0  0  0  0
    8.8359    3.9928   -2.6450 C   0  0  0  0  0  0  0  0  0  0  0  0
    7.5541    2.9483    2.4099 C   0  0  0  0  0  0  0  0  0  0  0  0
    8.3733    4.0192    2.0526 C   0  0  0  0  0  0  0  0  0  0  0  0
    9.7008    4.0317    2.4343 C   0  0  0  0  0  0  0  0  0  0  0  0
   10.2032    3.1130    3.3179 C   0  0  0  0  0  0  0  0  0  0  0  0
   11.5368    3.1275    3.4329 N   0  0  0  0  0  0  0  0  0  0  0  0
   12.0536    2.4639    4.4716 C   0  0  0  0  0  0  0  0  0  0  0  0
   11.2483    1.8965    5.4381 C   0  0  0  0  0  0  0  0  0  0  0  0
   11.8134    1.9231    6.7887 C   0  0  0  0  0  0  0  0  0  0  0  0
   12.2683    0.9398    7.6943 C   0  0  0  0  0  0  0  0  0  0  0  0
   12.8538    1.4635    8.7843 N   0  0  0  0  0  0  0  0  0  0  0  0
   12.7667    2.7910    8.5877 N   0  0  0  0  0  0  0  0  0  0  0  0
   13.0930    3.7257    9.6413 C   0  0  0  0  0  0  0  0  0  0  0  0
   12.2744    3.1065    7.3558 C   0  0  0  0  0  0  0  0  0  0  0  0
    9.8977    1.7068    5.2111 N   0  0  0  0  0  0  0  0  0  0  0  0
    9.3405    2.2798    4.0628 C   0  0  0  0  0  0  0  0  0  0  0  0
    8.0008    2.1483    3.4999 C   0  0  0  0  0  0  0  0  0  0  0  0
    4.1782    2.9301    2.3134 C   0  0  0  0  0  0  0  0  0  0  0  0
   -0.0480    3.8868    3.2077 H   0  0  0  0  0  0  0  0  0  0  0  0
    0.3545    2.2106    3.6000 H   0  0  0  0  0  0  0  0  0  0  0  0
    0.2006    2.7509    1.8860 H   0  0  0  0  0  0  0  0  0  0  0  0
    1.4607    0.8913    1.9423 H   0  0  0  0  0  0  0  0  0  0  0  0
    1.9745   -2.3654    0.4420 H   0  0  0  0  0  0  0  0  0  0  0  0
    1.2397   -0.7684    0.3013 H   0  0  0  0  0  0  0  0  0  0  0  0
    1.6466   -1.4389    1.9167 H   0  0  0  0  0  0  0  0  0  0  0  0
    5.5068    0.2336    0.7452 H   0  0  0  0  0  0  0  0  0  0  0  0
    7.3412    1.1897    0.1684 H   0  0  0  0  0  0  0  0  0  0  0  0
    8.1224    2.7244    0.0560 H   0  0  0  0  0  0  0  0  0  0  0  0
    6.3286    3.7663   -1.2395 H   0  0  0  0  0  0  0  0  0  0  0  0
    5.3775    2.2819   -1.1757 H   0  0  0  0  0  0  0  0  0  0  0  0
    5.9654    0.3537   -2.6323 H   0  0  0  0  0  0  0  0  0  0  0  0
    7.7411    0.0903   -4.7195 H   0  0  0  0  0  0  0  0  0  0  0  0
    9.6178    4.2152   -3.3806 H   0  0  0  0  0  0  0  0  0  0  0  0
    9.3171    3.9241   -1.6669 H   0  0  0  0  0  0  0  0  0  0  0  0
    8.1322    4.8286   -2.6467 H   0  0  0  0  0  0  0  0  0  0  0  0
    8.0297    4.7530    1.3295 H   0  0  0  0  0  0  0  0  0  0  0  0
   10.3739    4.7648    2.0008 H   0  0  0  0  0  0  0  0  0  0  0  0
   13.1306    2.5367    4.5812 H   0  0  0  0  0  0  0  0  0  0  0  0
   12.2312   -0.1379    7.6097 H   0  0  0  0  0  0  0  0  0  0  0  0
   13.0959    3.2065   10.6030 H   0  0  0  0  0  0  0  0  0  0  0  0
   12.3238    4.5045    9.6567 H   0  0  0  0  0  0  0  0  0  0  0  0
   14.0719    4.1703    9.4445 H   0  0  0  0  0  0  0  0  0  0  0  0
   12.2630    4.1294    7.0021 H   0  0  0  0  0  0  0  0  0  0  0  0
    7.3522    1.3703    3.9013 H   0  0  0  0  0  0  0  0  0  0  0  0
    4.4161    3.9317    2.6660 H   0  0  0  0  0  0  0  0  0  0  0  0
  1  2  1  0  0  0  0
  1 36  1  0  0  0  0
  1 37  1  0  0  0  0
  1 38  1  0  0  0  0
  2  3  1  0  0  0  0
  3  4  1  0  0  0  0
  3 35  2  0  0  0  0
  4  5  2  0  0  0  0
  4 39  1  0  0  0  0
  5  6  1  0  0  0  0
  5  8  1  0  0  0  0
  6  7  1  0  0  0  0
  7 40  1  0  0  0  0
  7 41  1  0  0  0  0
  7 42  1  0  0  0  0
  8  9  2  0  0  0  0
  8 43  1  0  0  0  0
  9 10  1  0  0  0  0
  9 35  1  0  0  0  0
 10 11  1  0  0  0  0
 10 19  1  0  0  0  0
 11 12  1  0  0  0  0
 11 44  1  0  0  0  0
 11 45  1  0  0  0  0
 12 13  1  0  0  0  0
 12 46  1  0  0  0  0
 12 47  1  0  0  0  0
 13 14  1  0  0  0  0
 13 17  1  0  0  0  0
 14 15  2  0  0  0  0
 14 48  1  0  0  0  0
 15 16  1  0  0  0  0
 15 49  1  0  0  0  0
 16 17  2  0  0  0  0
 17 18  1  0  0  0  0
 18 50  1  0  0  0  0
 18 51  1  0  0  0  0
 18 52  1  0  0  0  0
 19 20  1  0  0  0  0
 19 34  2  0  0  0  0
 20 21  2  0  0  0  0
 20 53  1  0  0  0  0
 21 22  1  0  0  0  0
 21 54  1  0  0  0  0
 22 23  1  0  0  0  0
 22 33  2  0  0  0  0
 23 24  2  0  0  0  0
 24 25  1  0  0  0  0
 24 55  1  0  0  0  0
 25 26  1  0  0  0  0
 25 32  2  0  0  0  0
 26 27  1  0  0  0  0
 26 31  2  0  0  0  0
 27 28  2  0  0  0  0
 27 56  1  0  0  0  0
 28 29  1  0  0  0  0
 29 30  1  0  0  0  0
 29 31  1  0  0  0  0
 30 57  1  0  0  0  0
 30 58  1  0  0  0  0
 30 59  1  0  0  0  0
 31 60  1  0  0  0  0
 32 33  1  0  0  0  0
 33 34  1  0  0  0  0
 34 61  1  0  0  0  0
 35 62  1  0  0  0  0
M  END
$$$$
