CHEMBL3962814
 OpenBabel04072215373D

 73 77  0  0  0  0  0  0  0  0999 V2000
    1.9407    1.5301   -0.2491 C   0  0  0  0  0  0  0  0  0  0  0  0
    2.8210    0.4571   -0.0153 O   0  0  0  0  0  0  0  0  0  0  0  0
    3.6411   -0.1256   -0.9419 C   0  0  0  0  0  0  0  0  0  0  0  0
    3.7269    0.4179   -2.2337 C   0  0  0  0  0  0  0  0  0  0  0  0
    4.5082   -0.1803   -3.2010 C   0  0  0  0  0  0  0  0  0  0  0  0
    4.6287    0.4353   -4.4109 O   0  0  0  0  0  0  0  0  0  0  0  0
    5.6240    0.1751   -5.3398 C   0  0  0  0  0  0  0  0  0  0  0  0
    5.1957   -1.3582   -2.8930 C   0  0  0  0  0  0  0  0  0  0  0  0
    5.2729   -1.9238   -1.5813 C   0  0  0  0  0  0  0  0  0  0  0  0
    6.2436   -3.0416   -1.3299 N   0  0  0  0  0  0  0  0  0  0  0  0
    6.4604   -3.5349    0.0469 C   0  0  0  0  0  0  0  0  0  0  0  0
    7.3384   -2.5831    0.9385 C   0  0  0  0  0  0  0  0  0  0  0  0
    8.8201   -2.4514    0.6634 C   0  0  0  0  0  0  0  0  0  0  0  0
    8.3479   -3.3610    1.7972 C   0  0  0  0  0  0  0  0  0  0  0  0
    7.3637   -3.1610   -2.3050 C   0  0  0  0  0  0  0  0  0  0  0  0
    7.8692   -1.9122   -2.6449 C   0  0  0  0  0  0  0  0  0  0  0  0
    8.5785   -1.6880   -3.7462 C   0  0  0  0  0  0  0  0  0  0  0  0
    8.9746   -2.6957   -4.5507 C   0  0  0  0  0  0  0  0  0  0  0  0
    9.5455   -2.2868   -5.6816 N   0  0  0  0  0  0  0  0  0  0  0  0
   10.0981   -3.1198   -6.5368 C   0  0  0  0  0  0  0  0  0  0  0  0
   10.2117   -4.4734   -6.2472 C   0  0  0  0  0  0  0  0  0  0  0  0
   11.2786   -5.1207   -7.1973 C   0  0  0  0  0  0  0  0  0  0  0  0
   11.6492   -6.4251   -7.5301 C   0  0  0  0  0  0  0  0  0  0  0  0
   12.7553   -6.4006   -8.3412 N   0  0  0  0  0  0  0  0  0  0  0  0
   13.1153   -5.1400   -8.5632 N   0  0  0  0  0  0  0  0  0  0  0  0
   14.3692   -4.6799   -9.2612 C   0  0  0  0  0  0  0  0  0  0  0  0
   14.6039   -5.2485  -10.6946 C   0  0  0  0  0  0  0  0  0  0  0  0
   16.0141   -5.0959  -11.2147 N   0  0  0  0  0  0  0  0  0  0  0  0
   16.4599   -3.7168  -11.4857 C   0  0  0  0  0  0  0  0  0  0  0  0
   15.9982   -3.4126  -12.8987 C   0  0  0  0  0  0  0  0  0  0  0  0
   16.4190   -4.6805  -13.5981 C   0  0  0  0  0  0  0  0  0  0  0  0
   16.1502   -5.7639  -12.5414 C   0  0  0  0  0  0  0  0  0  0  0  0
   12.2502   -4.3456   -7.9070 C   0  0  0  0  0  0  0  0  0  0  0  0
    9.4785   -4.9667   -5.1253 N   0  0  0  0  0  0  0  0  0  0  0  0
    8.8014   -4.0627   -4.2530 C   0  0  0  0  0  0  0  0  0  0  0  0
    7.9088   -4.3216   -3.0747 C   0  0  0  0  0  0  0  0  0  0  0  0
    4.4359   -1.2791   -0.6036 C   0  0  0  0  0  0  0  0  0  0  0  0
    1.3778   -1.6132    1.8456 Cl  0  0  0  0  0  0  0  0  0  0  0  0
    1.3358    1.7260    0.6536 H   0  0  0  0  0  0  0  0  0  0  0  0
    1.2369    1.2786   -1.0767 H   0  0  0  0  0  0  0  0  0  0  0  0
    2.4945    2.4546   -0.5128 H   0  0  0  0  0  0  0  0  0  0  0  0
    3.1950    1.3250   -2.5046 H   0  0  0  0  0  0  0  0  0  0  0  0
    5.5476    0.8919   -6.1820 H   0  0  0  0  0  0  0  0  0  0  0  0
    5.5299   -0.8547   -5.7385 H   0  0  0  0  0  0  0  0  0  0  0  0
    6.6283    0.3097   -4.8755 H   0  0  0  0  0  0  0  0  0  0  0  0
    5.7420   -1.8008   -3.7018 H   0  0  0  0  0  0  0  0  0  0  0  0
    6.8913   -4.5537    0.0016 H   0  0  0  0  0  0  0  0  0  0  0  0
    5.4882   -3.6539    0.5794 H   0  0  0  0  0  0  0  0  0  0  0  0
    6.8609   -1.7989    1.5743 H   0  0  0  0  0  0  0  0  0  0  0  0
    9.1281   -1.4158    0.9412 H   0  0  0  0  0  0  0  0  0  0  0  0
    9.0643   -2.8979   -0.3156 H   0  0  0  0  0  0  0  0  0  0  0  0
    8.9679   -2.9659    2.6357 H   0  0  0  0  0  0  0  0  0  0  0  0
    8.5656   -4.4030    1.4865 H   0  0  0  0  0  0  0  0  0  0  0  0
    7.5677   -1.0280   -2.0841 H   0  0  0  0  0  0  0  0  0  0  0  0
    8.7922   -0.6682   -4.0172 H   0  0  0  0  0  0  0  0  0  0  0  0
   10.5047   -2.6506   -7.4057 H   0  0  0  0  0  0  0  0  0  0  0  0
   11.1804   -7.3428   -7.2052 H   0  0  0  0  0  0  0  0  0  0  0  0
   15.2253   -5.0113   -8.6422 H   0  0  0  0  0  0  0  0  0  0  0  0
   14.4068   -3.5642   -9.2994 H   0  0  0  0  0  0  0  0  0  0  0  0
   13.8629   -4.8282  -11.4107 H   0  0  0  0  0  0  0  0  0  0  0  0
   14.4188   -6.3388  -10.6122 H   0  0  0  0  0  0  0  0  0  0  0  0
   17.5809   -3.7144  -11.4882 H   0  0  0  0  0  0  0  0  0  0  0  0
   16.1436   -2.9720  -10.7316 H   0  0  0  0  0  0  0  0  0  0  0  0
   16.4383   -2.4950  -13.3509 H   0  0  0  0  0  0  0  0  0  0  0  0
   14.8928   -3.3281  -12.8960 H   0  0  0  0  0  0  0  0  0  0  0  0
   17.5194   -4.6133  -13.7637 H   0  0  0  0  0  0  0  0  0  0  0  0
   15.9329   -4.8551  -14.5844 H   0  0  0  0  0  0  0  0  0  0  0  0
   17.0012   -6.4826  -12.5425 H   0  0  0  0  0  0  0  0  0  0  0  0
   15.2362   -6.3326  -12.8148 H   0  0  0  0  0  0  0  0  0  0  0  0
   12.3841   -3.2724   -7.8956 H   0  0  0  0  0  0  0  0  0  0  0  0
    7.6072   -5.3408   -2.8151 H   0  0  0  0  0  0  0  0  0  0  0  0
    4.3917   -1.6297    0.4177 H   0  0  0  0  0  0  0  0  0  0  0  0
    1.7275   -1.9065    0.5474 H   0  0  0  0  0  0  0  0  0  0  0  0
  1  2  1  0  0  0  0
  1 39  1  0  0  0  0
  1 40  1  0  0  0  0
  1 41  1  0  0  0  0
  2  3  1  0  0  0  0
  3  4  1  0  0  0  0
  3 37  2  0  0  0  0
  4  5  2  0  0  0  0
  4 42  1  0  0  0  0
  5  6  1  0  0  0  0
  5  8  1  0  0  0  0
  6  7  1  0  0  0  0
  7 43  1  0  0  0  0
  7 44  1  0  0  0  0
  7 45  1  0  0  0  0
  8  9  2  0  0  0  0
  8 46  1  0  0  0  0
  9 10  1  0  0  0  0
  9 37  1  0  0  0  0
 10 11  1  0  0  0  0
 10 15  1  0  0  0  0
 11 12  1  0  0  0  0
 11 47  1  0  0  0  0
 11 48  1  0  0  0  0
 12 13  1  0  0  0  0
 12 14  1  0  0  0  0
 12 49  1  0  0  0  0
 13 14  1  0  0  0  0
 13 50  1  0  0  0  0
 13 51  1  0  0  0  0
 14 52  1  0  0  0  0
 14 53  1  0  0  0  0
 15 16  1  0  0  0  0
 15 36  2  0  0  0  0
 16 17  2  0  0  0  0
 16 54  1  0  0  0  0
 17 18  1  0  0  0  0
 17 55  1  0  0  0  0
 18 19  1  0  0  0  0
 18 35  2  0  0  0  0
 19 20  2  0  0  0  0
 20 21  1  0  0  0  0
 20 56  1  0  0  0  0
 21 22  1  0  0  0  0
 21 34  2  0  0  0  0
 22 23  1  0  0  0  0
 22 33  2  0  0  0  0
 23 24  2  0  0  0  0
 23 57  1  0  0  0  0
 24 25  1  0  0  0  0
 25 26  1  0  0  0  0
 25 33  1  0  0  0  0
 26 27  1  0  0  0  0
 26 58  1  0  0  0  0
 26 59  1  0  0  0  0
 27 28  1  0  0  0  0
 27 60  1  0  0  0  0
 27 61  1  0  0  0  0
 28 29  1  0  0  0  0
 28 32  1  0  0  0  0
 29 30  1  0  0  0  0
 29 62  1  0  0  0  0
 29 63  1  0  0  0  0
 30 31  1  0  0  0  0
 30 64  1  0  0  0  0
 30 65  1  0  0  0  0
 31 32  1  0  0  0  0
 31 66  1  0  0  0  0
 31 67  1  0  0  0  0
 32 68  1  0  0  0  0
 32 69  1  0  0  0  0
 33 70  1  0  0  0  0
 34 35  1  0  0  0  0
 35 36  1  0  0  0  0
 36 71  1  0  0  0  0
 37 72  1  0  0  0  0
 38 73  1  0  0  0  0
M  END
$$$$
