CHEMBL3971864
 OpenBabel04072215373D

 50 53  0  0  0  0  0  0  0  0999 V2000
    3.3290   -0.8991   -0.8221 C   0  0  0  0  0  0  0  0  0  0  0  0
    2.5367   -0.5463    0.3164 O   0  0  0  0  0  0  0  0  0  0  0  0
    3.2064    0.0880    1.3292 C   0  0  0  0  0  0  0  0  0  0  0  0
    4.3037    0.9224    1.0924 C   0  0  0  0  0  0  0  0  0  0  0  0
    5.0516    1.4639    2.1645 C   0  0  0  0  0  0  0  0  0  0  0  0
    6.1947    2.2642    2.0369 C   0  0  0  0  0  0  0  0  0  0  0  0
    6.6459    2.6383    0.7418 N   0  0  0  0  0  0  0  0  0  0  0  0
    7.9460    3.1245    0.4932 C   0  0  0  0  0  0  0  0  0  0  0  0
    9.0616    2.4463    1.0043 C   0  0  0  0  0  0  0  0  0  0  0  0
   10.3474    2.9606    0.8488 C   0  0  0  0  0  0  0  0  0  0  0  0
   10.5363    4.1622    0.1664 C   0  0  0  0  0  0  0  0  0  0  0  0
   12.1459    4.7780    0.0603 Cl  0  0  0  0  0  0  0  0  0  0  0  0
    9.4350    4.8259   -0.3871 C   0  0  0  0  0  0  0  0  0  0  0  0
    9.5945    6.3149   -1.2510 Cl  0  0  0  0  0  0  0  0  0  0  0  0
    8.1454    4.3025   -0.2319 C   0  0  0  0  0  0  0  0  0  0  0  0
    6.8954    2.6889    3.1066 N   0  0  0  0  0  0  0  0  0  0  0  0
    6.4508    2.3283    4.3092 C   0  0  0  0  0  0  0  0  0  0  0  0
    5.3654    1.5915    4.5444 N   0  0  0  0  0  0  0  0  0  0  0  0
    4.6888    1.1673    3.4778 C   0  0  0  0  0  0  0  0  0  0  0  0
    3.5587    0.4040    3.6946 C   0  0  0  0  0  0  0  0  0  0  0  0
    2.7680   -0.0960    2.6481 C   0  0  0  0  0  0  0  0  0  0  0  0
    1.5776   -0.7635    2.8738 O   0  0  0  0  0  0  0  0  0  0  0  0
    1.0373   -0.5352    4.1917 C   0  0  0  0  0  0  0  0  0  0  0  0
   -0.3698   -0.9796    4.4088 C   0  0  0  0  0  0  0  0  0  0  0  0
   -1.2540   -1.5267    3.5091 C   0  0  0  0  0  0  0  0  0  0  0  0
   -2.7458   -1.8424    4.2833 S   0  0  0  0  0  0  0  0  0  0  0  0
   -2.1209   -1.2546    5.7945 C   0  0  0  0  0  0  0  0  0  0  0  0
   -2.8103   -1.2846    6.9736 N   0  0  0  0  0  0  0  0  0  0  0  0
   -4.2604   -1.3046    7.0389 C   0  0  0  0  0  0  0  0  0  0  0  0
   -2.1283   -0.9049    8.2037 C   0  0  0  0  0  0  0  0  0  0  0  0
   -0.8790   -0.8298    5.6959 N   0  0  0  0  0  0  0  0  0  0  0  0
    3.0075   -1.8832   -1.1759 H   0  0  0  0  0  0  0  0  0  0  0  0
    4.4031   -0.9782   -0.6119 H   0  0  0  0  0  0  0  0  0  0  0  0
    3.1605   -0.1722   -1.6232 H   0  0  0  0  0  0  0  0  0  0  0  0
    4.6084    1.1472    0.0739 H   0  0  0  0  0  0  0  0  0  0  0  0
    5.9197    3.1781    0.2813 H   0  0  0  0  0  0  0  0  0  0  0  0
    8.9246    1.5179    1.5565 H   0  0  0  0  0  0  0  0  0  0  0  0
   11.1882    2.4261    1.2832 H   0  0  0  0  0  0  0  0  0  0  0  0
    7.2964    4.8392   -0.6463 H   0  0  0  0  0  0  0  0  0  0  0  0
    7.0159    2.6623    5.1700 H   0  0  0  0  0  0  0  0  0  0  0  0
    3.3198    0.2076    4.7359 H   0  0  0  0  0  0  0  0  0  0  0  0
    1.0560    0.5404    4.4173 H   0  0  0  0  0  0  0  0  0  0  0  0
    1.6504   -1.0821    4.9192 H   0  0  0  0  0  0  0  0  0  0  0  0
   -1.0947   -1.7487    2.4639 H   0  0  0  0  0  0  0  0  0  0  0  0
   -4.7537   -1.5288    6.0898 H   0  0  0  0  0  0  0  0  0  0  0  0
   -4.6383   -0.3338    7.3802 H   0  0  0  0  0  0  0  0  0  0  0  0
   -4.5858   -2.0638    7.7585 H   0  0  0  0  0  0  0  0  0  0  0  0
   -1.0359   -0.9154    8.1230 H   0  0  0  0  0  0  0  0  0  0  0  0
   -2.3904   -1.6106    9.0007 H   0  0  0  0  0  0  0  0  0  0  0  0
   -2.4359    0.0965    8.5255 H   0  0  0  0  0  0  0  0  0  0  0  0
  1  2  1  0  0  0  0
  1 32  1  0  0  0  0
  1 33  1  0  0  0  0
  1 34  1  0  0  0  0
  2  3  1  0  0  0  0
  3  4  1  0  0  0  0
  3 21  2  0  0  0  0
  4  5  2  0  0  0  0
  4 35  1  0  0  0  0
  5  6  1  0  0  0  0
  5 19  1  0  0  0  0
  6  7  1  0  0  0  0
  6 16  2  0  0  0  0
  7  8  1  0  0  0  0
  7 36  1  0  0  0  0
  8  9  1  0  0  0  0
  8 15  2  0  0  0  0
  9 10  2  0  0  0  0
  9 37  1  0  0  0  0
 10 11  1  0  0  0  0
 10 38  1  0  0  0  0
 11 12  1  0  0  0  0
 11 13  2  0  0  0  0
 13 14  1  0  0  0  0
 13 15  1  0  0  0  0
 15 39  1  0  0  0  0
 16 17  1  0  0  0  0
 17 18  2  0  0  0  0
 17 40  1  0  0  0  0
 18 19  1  0  0  0  0
 19 20  2  0  0  0  0
 20 21  1  0  0  0  0
 20 41  1  0  0  0  0
 21 22  1  0  0  0  0
 22 23  1  0  0  0  0
 23 24  1  0  0  0  0
 23 42  1  0  0  0  0
 23 43  1  0  0  0  0
 24 25  2  0  0  0  0
 24 31  1  0  0  0  0
 25 26  1  0  0  0  0
 25 44  1  0  0  0  0
 26 27  1  0  0  0  0
 27 28  1  0  0  0  0
 27 31  2  0  0  0  0
 28 29  1  0  0  0  0
 28 30  1  0  0  0  0
 29 45  1  0  0  0  0
 29 46  1  0  0  0  0
 29 47  1  0  0  0  0
 30 48  1  0  0  0  0
 30 49  1  0  0  0  0
 30 50  1  0  0  0  0
M  END
$$$$
