CHEMBL516243
 OpenBabel04072215383D

 40 42  0  0  0  0  0  0  0  0999 V2000
    1.2135   -0.4573    0.9351 O   0  0  0  0  0  0  0  0  0  0  0  0
    2.1900   -0.1305    0.2637 C   0  0  0  0  0  0  0  0  0  0  0  0
    2.6286   -0.7735   -0.8815 N   0  0  0  0  0  0  0  0  0  0  0  0
    1.9631   -1.8618   -1.4809 C   0  0  0  0  0  0  0  0  0  0  0  0
    0.6244   -2.1595   -1.2008 C   0  0  0  0  0  0  0  0  0  0  0  0
    0.0009   -3.2871   -1.7317 C   0  0  0  0  0  0  0  0  0  0  0  0
    0.6856   -4.1036   -2.6193 C   0  0  0  0  0  0  0  0  0  0  0  0
    0.1850   -5.2115   -3.2295 O   0  0  0  0  0  0  0  0  0  0  0  0
   -1.2214   -5.3399   -3.4052 C   0  0  0  0  0  0  0  0  0  0  0  0
   -1.9053   -4.1832   -3.2776 F   0  0  0  0  0  0  0  0  0  0  0  0
   -1.4479   -5.8053   -4.6549 F   0  0  0  0  0  0  0  0  0  0  0  0
   -1.7119   -6.2397   -2.5263 F   0  0  0  0  0  0  0  0  0  0  0  0
    2.0194   -3.8041   -2.9202 C   0  0  0  0  0  0  0  0  0  0  0  0
    2.6551   -2.6809   -2.3715 C   0  0  0  0  0  0  0  0  0  0  0  0
    3.0103    1.0272    0.6827 C   0  0  0  0  0  0  0  0  0  0  0  0
    4.0483    1.4412   -0.0543 N   0  0  0  0  0  0  0  0  0  0  0  0
    4.7065    2.7852    0.6649 S   0  0  0  0  0  0  0  0  0  0  0  0
    3.6204    2.8465    1.9846 C   0  0  0  0  0  0  0  0  0  0  0  0
    2.7371    1.7996    1.8783 C   0  0  0  0  0  0  0  0  0  0  0  0
    1.7602    1.4793    2.7748 N   0  0  0  0  0  0  0  0  0  0  0  0
    1.0287    2.4378    3.5809 C   0  0  0  0  0  0  0  0  0  0  0  0
    1.1748    2.0904    5.0394 C   0  0  0  0  0  0  0  0  0  0  0  0
    2.4365    2.0959    5.6472 C   0  0  0  0  0  0  0  0  0  0  0  0
    2.5319    1.7918    6.9932 C   0  0  0  0  0  0  0  0  0  0  0  0
    1.4709    1.4921    7.7735 N   0  0  0  0  0  0  0  0  0  0  0  0
    0.2639    1.4843    7.1703 C   0  0  0  0  0  0  0  0  0  0  0  0
    0.0622    1.7746    5.8300 C   0  0  0  0  0  0  0  0  0  0  0  0
    3.5404   -0.4979   -1.2222 H   0  0  0  0  0  0  0  0  0  0  0  0
    0.0168   -1.5173   -0.5681 H   0  0  0  0  0  0  0  0  0  0  0  0
   -1.0199   -3.4814   -1.4169 H   0  0  0  0  0  0  0  0  0  0  0  0
    2.5769   -4.4562   -3.5914 H   0  0  0  0  0  0  0  0  0  0  0  0
    3.6916   -2.4857   -2.6230 H   0  0  0  0  0  0  0  0  0  0  0  0
    3.7066    3.6025    2.7505 H   0  0  0  0  0  0  0  0  0  0  0  0
    1.1991    0.6424    2.5720 H   0  0  0  0  0  0  0  0  0  0  0  0
   -0.0268    2.3964    3.2873 H   0  0  0  0  0  0  0  0  0  0  0  0
    1.3538    3.4720    3.4171 H   0  0  0  0  0  0  0  0  0  0  0  0
    3.3315    2.3187    5.0784 H   0  0  0  0  0  0  0  0  0  0  0  0
    3.4953    1.7818    7.4956 H   0  0  0  0  0  0  0  0  0  0  0  0
   -0.5710    1.2318    7.8180 H   0  0  0  0  0  0  0  0  0  0  0  0
   -0.9382    1.7442    5.4145 H   0  0  0  0  0  0  0  0  0  0  0  0
  1  2  2  0  0  0  0
  2  3  1  0  0  0  0
  2 15  1  0  0  0  0
  3  4  1  0  0  0  0
  3 28  1  0  0  0  0
  4  5  1  0  0  0  0
  4 14  2  0  0  0  0
  5  6  2  0  0  0  0
  5 29  1  0  0  0  0
  6  7  1  0  0  0  0
  6 30  1  0  0  0  0
  7  8  1  0  0  0  0
  7 13  2  0  0  0  0
  8  9  1  0  0  0  0
  9 10  1  0  0  0  0
  9 11  1  0  0  0  0
  9 12  1  0  0  0  0
 13 14  1  0  0  0  0
 13 31  1  0  0  0  0
 14 32  1  0  0  0  0
 15 16  2  0  0  0  0
 15 19  1  0  0  0  0
 16 17  1  0  0  0  0
 17 18  1  0  0  0  0
 18 19  2  0  0  0  0
 18 33  1  0  0  0  0
 19 20  1  0  0  0  0
 20 21  1  0  0  0  0
 20 34  1  0  0  0  0
 21 22  1  0  0  0  0
 21 35  1  0  0  0  0
 21 36  1  0  0  0  0
 22 23  1  0  0  0  0
 22 27  2  0  0  0  0
 23 24  2  0  0  0  0
 23 37  1  0  0  0  0
 24 25  1  0  0  0  0
 24 38  1  0  0  0  0
 25 26  2  0  0  0  0
 26 27  1  0  0  0  0
 26 39  1  0  0  0  0
 27 40  1  0  0  0  0
M  END
$$$$
