CHEMBL449593
 OpenBabel04072215383D

 55 59  0  0  0  0  0  0  0  0999 V2000
    1.2984    0.5342   -0.8180 C   0  0  0  0  0  0  0  0  0  0  0  0
    2.5906    0.0941   -0.3197 N   0  0  0  0  0  0  0  0  0  0  0  0
    3.2919   -0.8889   -1.0225 C   0  0  0  0  0  0  0  0  0  0  0  0
    3.2262   -1.0659   -2.4077 C   0  0  0  0  0  0  0  0  0  0  0  0
    4.0095   -2.0370   -3.0661 C   0  0  0  0  0  0  0  0  0  0  0  0
    4.9136   -2.8499   -2.3657 C   0  0  0  0  0  0  0  0  0  0  0  0
    5.7457   -3.9310   -2.9943 C   0  0  0  0  0  0  0  0  0  0  0  0
    5.6128   -4.0933   -4.3737 N   0  0  0  0  0  0  0  0  0  0  0  0
    6.5144   -4.7147   -2.1938 C   0  0  0  0  0  0  0  0  0  0  0  0
    7.2258   -5.8614   -2.6942 C   0  0  0  0  0  0  0  0  0  0  0  0
    7.7288   -6.1963   -3.8773 N   0  0  0  0  0  0  0  0  0  0  0  0
    8.1519   -7.5172   -3.7480 C   0  0  0  0  0  0  0  0  0  0  0  0
    8.7402   -8.4077   -4.6634 C   0  0  0  0  0  0  0  0  0  0  0  0
    8.9580   -9.7639   -4.3009 C   0  0  0  0  0  0  0  0  0  0  0  0
    9.4633  -10.6458   -5.2656 N   0  0  0  0  0  0  0  0  0  0  0  0
   10.1520  -11.8758   -4.8353 C   0  0  0  0  0  0  0  0  0  0  0  0
   10.9077  -12.4810   -6.0483 C   0  0  0  0  0  0  0  0  0  0  0  0
   10.0247  -12.7564   -7.2092 N   0  0  0  0  0  0  0  0  0  0  0  0
   10.8206  -13.1745   -8.3634 C   0  0  0  0  0  0  0  0  0  0  0  0
    9.2458  -11.5409   -7.5492 C   0  0  0  0  0  0  0  0  0  0  0  0
    8.4929  -10.9383   -6.3445 C   0  0  0  0  0  0  0  0  0  0  0  0
    8.6375  -10.1760   -3.0003 C   0  0  0  0  0  0  0  0  0  0  0  0
    8.1211   -9.2940   -2.0489 C   0  0  0  0  0  0  0  0  0  0  0  0
    7.8940   -7.9879   -2.4731 C   0  0  0  0  0  0  0  0  0  0  0  0
    7.4028   -6.9059   -1.8129 N   0  0  0  0  0  0  0  0  0  0  0  0
    6.5629   -4.4533   -0.7103 C   0  0  0  0  0  0  0  0  0  0  0  0
    7.2073   -5.1593    0.0682 O   0  0  0  0  0  0  0  0  0  0  0  0
    5.8294   -3.4280   -0.2120 N   0  0  0  0  0  0  0  0  0  0  0  0
    4.9922   -2.6368   -0.9867 C   0  0  0  0  0  0  0  0  0  0  0  0
    4.2228   -1.6663   -0.3302 C   0  0  0  0  0  0  0  0  0  0  0  0
    0.8669    1.2439   -0.1050 H   0  0  0  0  0  0  0  0  0  0  0  0
    0.6047   -0.3077   -0.9104 H   0  0  0  0  0  0  0  0  0  0  0  0
    1.3884    1.0518   -1.7770 H   0  0  0  0  0  0  0  0  0  0  0  0
    2.5602   -0.1018    0.6771 H   0  0  0  0  0  0  0  0  0  0  0  0
    2.5548   -0.4605   -3.0131 H   0  0  0  0  0  0  0  0  0  0  0  0
    3.8725   -2.1528   -4.1398 H   0  0  0  0  0  0  0  0  0  0  0  0
    5.6251   -3.2118   -4.8794 H   0  0  0  0  0  0  0  0  0  0  0  0
    6.3349   -4.7238   -4.7449 H   0  0  0  0  0  0  0  0  0  0  0  0
    9.0154   -8.0558   -5.6517 H   0  0  0  0  0  0  0  0  0  0  0  0
    9.4344  -12.6167   -4.4527 H   0  0  0  0  0  0  0  0  0  0  0  0
   10.8796  -11.6656   -4.0426 H   0  0  0  0  0  0  0  0  0  0  0  0
   11.3869  -13.4155   -5.7308 H   0  0  0  0  0  0  0  0  0  0  0  0
   11.7049  -11.7834   -6.3381 H   0  0  0  0  0  0  0  0  0  0  0  0
   11.3778  -14.0895   -8.1373 H   0  0  0  0  0  0  0  0  0  0  0  0
   11.5364  -12.4036   -8.6737 H   0  0  0  0  0  0  0  0  0  0  0  0
   10.1703  -13.3991   -9.2159 H   0  0  0  0  0  0  0  0  0  0  0  0
    8.5107  -11.7882   -8.3239 H   0  0  0  0  0  0  0  0  0  0  0  0
    9.9114  -10.7682   -7.9564 H   0  0  0  0  0  0  0  0  0  0  0  0
    7.7352  -11.6481   -5.9808 H   0  0  0  0  0  0  0  0  0  0  0  0
    7.9651  -10.0378   -6.6771 H   0  0  0  0  0  0  0  0  0  0  0  0
    8.7554  -11.2147   -2.7046 H   0  0  0  0  0  0  0  0  0  0  0  0
    7.8700   -9.6241   -1.0468 H   0  0  0  0  0  0  0  0  0  0  0  0
    7.1812   -6.8672   -0.8265 H   0  0  0  0  0  0  0  0  0  0  0  0
    5.8684   -3.3064    0.7907 H   0  0  0  0  0  0  0  0  0  0  0  0
    4.3345   -1.5326    0.7425 H   0  0  0  0  0  0  0  0  0  0  0  0
  1  2  1  0  0  0  0
  1 31  1  0  0  0  0
  1 32  1  0  0  0  0
  1 33  1  0  0  0  0
  2  3  1  0  0  0  0
  2 34  1  0  0  0  0
  3  4  1  0  0  0  0
  3 30  2  0  0  0  0
  4  5  2  0  0  0  0
  4 35  1  0  0  0  0
  5  6  1  0  0  0  0
  5 36  1  0  0  0  0
  6  7  1  0  0  0  0
  6 29  2  0  0  0  0
  7  8  1  0  0  0  0
  7  9  2  0  0  0  0
  8 37  1  0  0  0  0
  8 38  1  0  0  0  0
  9 10  1  0  0  0  0
  9 26  1  0  0  0  0
 10 11  2  0  0  0  0
 10 25  1  0  0  0  0
 11 12  1  0  0  0  0
 12 13  1  0  0  0  0
 12 24  2  0  0  0  0
 13 14  2  0  0  0  0
 13 39  1  0  0  0  0
 14 15  1  0  0  0  0
 14 22  1  0  0  0  0
 15 16  1  0  0  0  0
 15 21  1  0  0  0  0
 16 17  1  0  0  0  0
 16 40  1  0  0  0  0
 16 41  1  0  0  0  0
 17 18  1  0  0  0  0
 17 42  1  0  0  0  0
 17 43  1  0  0  0  0
 18 19  1  0  0  0  0
 18 20  1  0  0  0  0
 19 44  1  0  0  0  0
 19 45  1  0  0  0  0
 19 46  1  0  0  0  0
 20 21  1  0  0  0  0
 20 47  1  0  0  0  0
 20 48  1  0  0  0  0
 21 49  1  0  0  0  0
 21 50  1  0  0  0  0
 22 23  2  0  0  0  0
 22 51  1  0  0  0  0
 23 24  1  0  0  0  0
 23 52  1  0  0  0  0
 24 25  1  0  0  0  0
 25 53  1  0  0  0  0
 26 27  2  0  0  0  0
 26 28  1  0  0  0  0
 28 29  1  0  0  0  0
 28 54  1  0  0  0  0
 29 30  1  0  0  0  0
 30 55  1  0  0  0  0
M  END
$$$$
