CHEMBL3671554
 OpenBabel04072215373D

 56 58  0  0  0  0  0  0  0  0999 V2000
    3.6850    2.1065    3.4315 C   0  0  0  0  0  0  0  0  0  0  0  0
    3.7008    0.8250    3.0452 C   0  0  0  0  0  0  0  0  0  0  0  0
    3.8232    0.5130    1.5977 C   0  0  0  0  0  0  0  0  0  0  0  0
    3.3861    1.2607    0.7273 O   0  0  0  0  0  0  0  0  0  0  0  0
    4.4981   -0.6335    1.2482 N   0  0  0  0  0  0  0  0  0  0  0  0
    5.3460   -1.3262    2.1264 C   0  0  0  0  0  0  0  0  0  0  0  0
    6.5315   -0.7013    2.5122 C   0  0  0  0  0  0  0  0  0  0  0  0
    7.3026   -1.2294    3.5670 C   0  0  0  0  0  0  0  0  0  0  0  0
    8.4155   -0.5870    4.1257 C   0  0  0  0  0  0  0  0  0  0  0  0
    8.7911    0.7054    3.6752 N   0  0  0  0  0  0  0  0  0  0  0  0
    9.5900    1.6033    4.4201 C   0  0  0  0  0  0  0  0  0  0  0  0
    9.3856    1.7803    5.7960 C   0  0  0  0  0  0  0  0  0  0  0  0
   10.2430    2.5847    6.5475 C   0  0  0  0  0  0  0  0  0  0  0  0
   11.2978    3.2420    5.9184 C   0  0  0  0  0  0  0  0  0  0  0  0
   12.5124    4.2523    6.9546 Br  0  0  0  0  0  0  0  0  0  0  0  0
   11.4760    3.1406    4.5407 C   0  0  0  0  0  0  0  0  0  0  0  0
   10.6148    2.3322    3.8045 C   0  0  0  0  0  0  0  0  0  0  0  0
   10.7975    2.2201    2.4791 F   0  0  0  0  0  0  0  0  0  0  0  0
    9.1068   -1.1375    5.1395 N   0  0  0  0  0  0  0  0  0  0  0  0
    8.6799   -2.3041    5.6128 C   0  0  0  0  0  0  0  0  0  0  0  0
    7.6019   -2.9742    5.1863 N   0  0  0  0  0  0  0  0  0  0  0  0
    6.9153   -2.4273    4.1814 C   0  0  0  0  0  0  0  0  0  0  0  0
    5.7460   -3.0520    3.7541 C   0  0  0  0  0  0  0  0  0  0  0  0
    4.9570   -2.5307    2.7232 C   0  0  0  0  0  0  0  0  0  0  0  0
    3.8103   -3.2375    2.4495 O   0  0  0  0  0  0  0  0  0  0  0  0
    3.4704   -3.3172    1.0627 C   0  0  0  0  0  0  0  0  0  0  0  0
    2.3919   -4.3692    0.8181 C   0  0  0  0  0  0  0  0  0  0  0  0
    2.8284   -5.7763    1.2136 C   0  0  0  0  0  0  0  0  0  0  0  0
    1.7738   -6.7232    0.8339 N   0  0  0  0  0  0  0  0  0  0  0  0
    2.1304   -8.0877    1.2415 C   0  0  0  0  0  0  0  0  0  0  0  0
    1.0343   -9.0520    0.8095 C   0  0  0  0  0  0  0  0  0  0  0  0
   -0.3284   -8.8976    1.4345 C   0  0  0  0  0  0  0  0  0  0  0  0
    1.2539   -9.9463   -0.0110 O   0  0  0  0  0  0  0  0  0  0  0  0
    3.6577    2.3735    4.4818 H   0  0  0  0  0  0  0  0  0  0  0  0
    3.7202    2.9142    2.7050 H   0  0  0  0  0  0  0  0  0  0  0  0
    3.6834    0.0163    3.7653 H   0  0  0  0  0  0  0  0  0  0  0  0
    4.8095   -0.5500    0.2863 H   0  0  0  0  0  0  0  0  0  0  0  0
    6.8107    0.2431    2.0494 H   0  0  0  0  0  0  0  0  0  0  0  0
    9.0525    0.6878    2.6931 H   0  0  0  0  0  0  0  0  0  0  0  0
    8.5694    1.2634    6.2958 H   0  0  0  0  0  0  0  0  0  0  0  0
   10.0863    2.6717    7.6195 H   0  0  0  0  0  0  0  0  0  0  0  0
   12.2838    3.6582    4.0351 H   0  0  0  0  0  0  0  0  0  0  0  0
    9.2484   -2.7435    6.4235 H   0  0  0  0  0  0  0  0  0  0  0  0
    5.4271   -3.9612    4.2607 H   0  0  0  0  0  0  0  0  0  0  0  0
    4.3594   -3.5533    0.4649 H   0  0  0  0  0  0  0  0  0  0  0  0
    3.0380   -2.3715    0.7267 H   0  0  0  0  0  0  0  0  0  0  0  0
    2.1315   -4.3447   -0.2476 H   0  0  0  0  0  0  0  0  0  0  0  0
    1.4899   -4.0993    1.3823 H   0  0  0  0  0  0  0  0  0  0  0  0
    3.0024   -5.8187    2.2947 H   0  0  0  0  0  0  0  0  0  0  0  0
    3.7644   -6.0326    0.7037 H   0  0  0  0  0  0  0  0  0  0  0  0
    1.6560   -6.7041   -0.1817 H   0  0  0  0  0  0  0  0  0  0  0  0
    2.2452   -8.1663    2.3277 H   0  0  0  0  0  0  0  0  0  0  0  0
    3.0674   -8.4000    0.7667 H   0  0  0  0  0  0  0  0  0  0  0  0
   -0.3560   -8.0378    2.1084 H   0  0  0  0  0  0  0  0  0  0  0  0
   -0.5651   -9.7973    2.0077 H   0  0  0  0  0  0  0  0  0  0  0  0
   -1.0692   -8.7468    0.6448 H   0  0  0  0  0  0  0  0  0  0  0  0
  1  2  2  0  0  0  0
  1 34  1  0  0  0  0
  1 35  1  0  0  0  0
  2  3  1  0  0  0  0
  2 36  1  0  0  0  0
  3  4  2  0  0  0  0
  3  5  1  0  0  0  0
  5  6  1  0  0  0  0
  5 37  1  0  0  0  0
  6  7  1  0  0  0  0
  6 24  2  0  0  0  0
  7  8  2  0  0  0  0
  7 38  1  0  0  0  0
  8  9  1  0  0  0  0
  8 22  1  0  0  0  0
  9 10  1  0  0  0  0
  9 19  2  0  0  0  0
 10 11  1  0  0  0  0
 10 39  1  0  0  0  0
 11 12  1  0  0  0  0
 11 17  2  0  0  0  0
 12 13  2  0  0  0  0
 12 40  1  0  0  0  0
 13 14  1  0  0  0  0
 13 41  1  0  0  0  0
 14 15  1  0  0  0  0
 14 16  2  0  0  0  0
 16 17  1  0  0  0  0
 16 42  1  0  0  0  0
 17 18  1  0  0  0  0
 19 20  1  0  0  0  0
 20 21  2  0  0  0  0
 20 43  1  0  0  0  0
 21 22  1  0  0  0  0
 22 23  2  0  0  0  0
 23 24  1  0  0  0  0
 23 44  1  0  0  0  0
 24 25  1  0  0  0  0
 25 26  1  0  0  0  0
 26 27  1  0  0  0  0
 26 45  1  0  0  0  0
 26 46  1  0  0  0  0
 27 28  1  0  0  0  0
 27 47  1  0  0  0  0
 27 48  1  0  0  0  0
 28 29  1  0  0  0  0
 28 49  1  0  0  0  0
 28 50  1  0  0  0  0
 29 30  1  0  0  0  0
 29 51  1  0  0  0  0
 30 31  1  0  0  0  0
 30 52  1  0  0  0  0
 30 53  1  0  0  0  0
 31 32  1  0  0  0  0
 31 33  2  0  0  0  0
 32 54  1  0  0  0  0
 32 55  1  0  0  0  0
 32 56  1  0  0  0  0
M  END
$$$$
