CHEMBL3660278
 OpenBabel04072215373D

 55 58  0  0  0  0  0  0  0  0999 V2000
    0.2528    2.9820    7.3524 C   0  0  0  0  0  0  0  0  0  0  0  0
    1.6329    3.2901    7.5522 O   0  0  0  0  0  0  0  0  0  0  0  0
    2.4693    2.2981    7.1284 C   0  0  0  0  0  0  0  0  0  0  0  0
    2.0840    1.2352    6.6484 O   0  0  0  0  0  0  0  0  0  0  0  0
    3.8795    2.6277    7.2672 C   0  0  0  0  0  0  0  0  0  0  0  0
    4.4584    3.7478    7.8426 C   0  0  0  0  0  0  0  0  0  0  0  0
    5.8251    3.6330    7.7336 N   0  0  0  0  0  0  0  0  0  0  0  0
    6.1541    2.4845    7.0499 C   0  0  0  0  0  0  0  0  0  0  0  0
    7.5241    2.1130    6.7114 C   0  0  0  0  0  0  0  0  0  0  0  0
    7.7860    0.9743    5.9638 C   0  0  0  0  0  0  0  0  0  0  0  0
    9.1075    0.5816    5.7671 C   0  0  0  0  0  0  0  0  0  0  0  0
    9.4550   -0.6006    5.1380 O   0  0  0  0  0  0  0  0  0  0  0  0
    8.6707   -1.7162    5.3724 C   0  0  0  0  0  0  0  0  0  0  0  0
    8.0413   -1.9534    6.5935 C   0  0  0  0  0  0  0  0  0  0  0  0
    7.1515   -3.0187    6.7311 C   0  0  0  0  0  0  0  0  0  0  0  0
    6.9154   -3.9068    5.6772 C   0  0  0  0  0  0  0  0  0  0  0  0
    5.9637   -4.9507    5.7911 N   0  0  0  0  0  0  0  0  0  0  0  0
    4.8627   -4.8920    6.6344 C   0  0  0  0  0  0  0  0  0  0  0  0
    4.5170   -3.8885    7.2560 O   0  0  0  0  0  0  0  0  0  0  0  0
    4.2014   -6.1045    6.7186 N   0  0  0  0  0  0  0  0  0  0  0  0
    3.0655   -6.2440    7.5619 C   0  0  0  0  0  0  0  0  0  0  0  0
    2.0113   -5.3202    7.5563 C   0  0  0  0  0  0  0  0  0  0  0  0
    0.9193   -5.4777    8.4268 C   0  0  0  0  0  0  0  0  0  0  0  0
   -0.2252   -4.5045    8.4168 C   0  0  0  0  0  0  0  0  0  0  0  0
    0.9084   -6.5528    9.3258 C   0  0  0  0  0  0  0  0  0  0  0  0
    1.9558   -7.4747    9.3352 C   0  0  0  0  0  0  0  0  0  0  0  0
    3.0107   -7.3270    8.4402 C   0  0  0  0  0  0  0  0  0  0  0  0
    4.0232   -8.2078    8.4708 F   0  0  0  0  0  0  0  0  0  0  0  0
    7.6525   -3.7559    4.4996 C   0  0  0  0  0  0  0  0  0  0  0  0
    8.5105   -2.6553    4.3503 C   0  0  0  0  0  0  0  0  0  0  0  0
    9.1602   -2.5017    3.1870 F   0  0  0  0  0  0  0  0  0  0  0  0
   10.1279    1.4104    6.2124 C   0  0  0  0  0  0  0  0  0  0  0  0
    9.7742    2.5587    6.9086 C   0  0  0  0  0  0  0  0  0  0  0  0
    8.4981    2.9214    7.1898 N   0  0  0  0  0  0  0  0  0  0  0  0
    4.9614    1.8283    6.8043 C   0  0  0  0  0  0  0  0  0  0  0  0
   -0.3279    3.8885    7.5393 H   0  0  0  0  0  0  0  0  0  0  0  0
   -0.0650    2.2098    8.0596 H   0  0  0  0  0  0  0  0  0  0  0  0
    0.0599    2.6623    6.3221 H   0  0  0  0  0  0  0  0  0  0  0  0
    4.0145    4.6164    8.3247 H   0  0  0  0  0  0  0  0  0  0  0  0
    6.5116    4.2951    8.0782 H   0  0  0  0  0  0  0  0  0  0  0  0
    6.9700    0.3734    5.5805 H   0  0  0  0  0  0  0  0  0  0  0  0
    8.1852   -1.2917    7.4434 H   0  0  0  0  0  0  0  0  0  0  0  0
    6.6428   -3.1244    7.6861 H   0  0  0  0  0  0  0  0  0  0  0  0
    5.8925   -5.6107    5.0275 H   0  0  0  0  0  0  0  0  0  0  0  0
    4.8188   -6.9077    6.7089 H   0  0  0  0  0  0  0  0  0  0  0  0
    2.0356   -4.4731    6.8732 H   0  0  0  0  0  0  0  0  0  0  0  0
   -0.1083   -3.7497    7.6324 H   0  0  0  0  0  0  0  0  0  0  0  0
   -0.2919   -3.9868    9.3791 H   0  0  0  0  0  0  0  0  0  0  0  0
   -1.1653   -5.0343    8.2299 H   0  0  0  0  0  0  0  0  0  0  0  0
    0.0834   -6.6719   10.0255 H   0  0  0  0  0  0  0  0  0  0  0  0
    1.9611   -8.2966   10.0433 H   0  0  0  0  0  0  0  0  0  0  0  0
    7.5428   -4.4432    3.6672 H   0  0  0  0  0  0  0  0  0  0  0  0
   11.1687    1.1637    6.0380 H   0  0  0  0  0  0  0  0  0  0  0  0
   10.5377    3.2361    7.2833 H   0  0  0  0  0  0  0  0  0  0  0  0
    4.8490    0.8701    6.3061 H   0  0  0  0  0  0  0  0  0  0  0  0
  1  2  1  0  0  0  0
  1 36  1  0  0  0  0
  1 37  1  0  0  0  0
  1 38  1  0  0  0  0
  2  3  1  0  0  0  0
  3  4  2  0  0  0  0
  3  5  1  0  0  0  0
  5  6  2  0  0  0  0
  5 35  1  0  0  0  0
  6  7  1  0  0  0  0
  6 39  1  0  0  0  0
  7  8  1  0  0  0  0
  7 40  1  0  0  0  0
  8  9  1  0  0  0  0
  8 35  2  0  0  0  0
  9 10  1  0  0  0  0
  9 34  2  0  0  0  0
 10 11  2  0  0  0  0
 10 41  1  0  0  0  0
 11 12  1  0  0  0  0
 11 32  1  0  0  0  0
 12 13  1  0  0  0  0
 13 14  1  0  0  0  0
 13 30  2  0  0  0  0
 14 15  2  0  0  0  0
 14 42  1  0  0  0  0
 15 16  1  0  0  0  0
 15 43  1  0  0  0  0
 16 17  1  0  0  0  0
 16 29  2  0  0  0  0
 17 18  1  0  0  0  0
 17 44  1  0  0  0  0
 18 19  2  0  0  0  0
 18 20  1  0  0  0  0
 20 21  1  0  0  0  0
 20 45  1  0  0  0  0
 21 22  1  0  0  0  0
 21 27  2  0  0  0  0
 22 23  2  0  0  0  0
 22 46  1  0  0  0  0
 23 24  1  0  0  0  0
 23 25  1  0  0  0  0
 24 47  1  0  0  0  0
 24 48  1  0  0  0  0
 24 49  1  0  0  0  0
 25 26  2  0  0  0  0
 25 50  1  0  0  0  0
 26 27  1  0  0  0  0
 26 51  1  0  0  0  0
 27 28  1  0  0  0  0
 29 30  1  0  0  0  0
 29 52  1  0  0  0  0
 30 31  1  0  0  0  0
 32 33  2  0  0  0  0
 32 53  1  0  0  0  0
 33 34  1  0  0  0  0
 33 54  1  0  0  0  0
 35 55  1  0  0  0  0
M  END
$$$$
