CHEMBL219677
 OpenBabel04072215363D

 53 56  0  0  0  0  0  0  0  0999 V2000
    4.2033   -0.6449    4.3377 C   0  0  0  0  0  0  0  0  0  0  0  0
    5.2407   -0.6118    3.2773 C   0  0  0  0  0  0  0  0  0  0  0  0
    5.8366   -1.6328    2.5646 C   0  0  0  0  0  0  0  0  0  0  0  0
    6.5493   -1.0485    1.4784 C   0  0  0  0  0  0  0  0  0  0  0  0
    7.2222   -1.5561    0.3472 C   0  0  0  0  0  0  0  0  0  0  0  0
    7.3037   -2.8837    0.1614 F   0  0  0  0  0  0  0  0  0  0  0  0
    7.7596   -0.6827   -0.6086 C   0  0  0  0  0  0  0  0  0  0  0  0
    8.3110   -1.2567   -1.7458 O   0  0  0  0  0  0  0  0  0  0  0  0
    9.4244   -0.6592   -2.3317 C   0  0  0  0  0  0  0  0  0  0  0  0
   10.1901    0.1404   -1.5593 N   0  0  0  0  0  0  0  0  0  0  0  0
   11.2203    0.7332   -2.1648 C   0  0  0  0  0  0  0  0  0  0  0  0
   11.5681    0.5813   -3.4450 N   0  0  0  0  0  0  0  0  0  0  0  0
   10.8111   -0.2453   -4.1865 C   0  0  0  0  0  0  0  0  0  0  0  0
   11.1826   -0.2967   -5.5219 N   0  0  0  0  0  0  0  0  0  0  0  0
    9.7033   -0.9053   -3.6676 C   0  0  0  0  0  0  0  0  0  0  0  0
    8.8902   -1.8342   -4.4710 C   0  0  0  0  0  0  0  0  0  0  0  0
    8.8180   -1.7062   -5.7589 N   0  0  0  0  0  0  0  0  0  0  0  0
    7.9675   -2.6860   -6.2814 O   0  0  0  0  0  0  0  0  0  0  0  0
    7.3857   -2.1692   -7.4804 C   0  0  0  0  0  0  0  0  0  0  0  0
    6.4705   -3.2345   -8.0828 C   0  0  0  0  0  0  0  0  0  0  0  0
    7.2591   -4.4988   -8.4583 C   0  0  0  0  0  0  0  0  0  0  0  0
    6.3424   -5.5561   -9.0658 C   0  0  0  0  0  0  0  0  0  0  0  0
    5.5814   -5.0105  -10.2705 C   0  0  0  0  0  0  0  0  0  0  0  0
    4.8114   -3.7399   -9.9204 C   0  0  0  0  0  0  0  0  0  0  0  0
    5.7221   -2.6824   -9.3023 C   0  0  0  0  0  0  0  0  0  0  0  0
    7.6225    0.6962   -0.4305 C   0  0  0  0  0  0  0  0  0  0  0  0
    7.0032    1.2330    0.7123 C   0  0  0  0  0  0  0  0  0  0  0  0
    6.4594    0.3356    1.6358 C   0  0  0  0  0  0  0  0  0  0  0  0
    5.7499    0.5692    2.7935 N   0  0  0  0  0  0  0  0  0  0  0  0
    3.8924   -1.6737    4.5461 H   0  0  0  0  0  0  0  0  0  0  0  0
    3.3153   -0.0959    4.0034 H   0  0  0  0  0  0  0  0  0  0  0  0
    4.5599   -0.1936    5.2674 H   0  0  0  0  0  0  0  0  0  0  0  0
    5.6857   -2.6919    2.7312 H   0  0  0  0  0  0  0  0  0  0  0  0
   11.8259    1.4060   -1.5689 H   0  0  0  0  0  0  0  0  0  0  0  0
   12.0770    0.1631   -5.6663 H   0  0  0  0  0  0  0  0  0  0  0  0
   11.0843   -1.2069   -5.9555 H   0  0  0  0  0  0  0  0  0  0  0  0
    8.3419   -2.6257   -3.9520 H   0  0  0  0  0  0  0  0  0  0  0  0
    8.1725   -1.8787   -8.1871 H   0  0  0  0  0  0  0  0  0  0  0  0
    6.8022   -1.2769   -7.2210 H   0  0  0  0  0  0  0  0  0  0  0  0
    5.7362   -3.5189   -7.3167 H   0  0  0  0  0  0  0  0  0  0  0  0
    7.7534   -4.9193   -7.5750 H   0  0  0  0  0  0  0  0  0  0  0  0
    8.0510   -4.2453   -9.1753 H   0  0  0  0  0  0  0  0  0  0  0  0
    5.6283   -5.8959   -8.3054 H   0  0  0  0  0  0  0  0  0  0  0  0
    6.9326   -6.4297   -9.3637 H   0  0  0  0  0  0  0  0  0  0  0  0
    4.8880   -5.7715  -10.6436 H   0  0  0  0  0  0  0  0  0  0  0  0
    6.2893   -4.7953  -11.0801 H   0  0  0  0  0  0  0  0  0  0  0  0
    4.0064   -3.9833   -9.2162 H   0  0  0  0  0  0  0  0  0  0  0  0
    4.3363   -3.3361  -10.8217 H   0  0  0  0  0  0  0  0  0  0  0  0
    5.1221   -1.8114   -9.0128 H   0  0  0  0  0  0  0  0  0  0  0  0
    6.4408   -2.3374  -10.0568 H   0  0  0  0  0  0  0  0  0  0  0  0
    7.9975    1.3942   -1.1741 H   0  0  0  0  0  0  0  0  0  0  0  0
    6.9199    2.3074    0.8444 H   0  0  0  0  0  0  0  0  0  0  0  0
    5.5414    1.4876    3.1612 H   0  0  0  0  0  0  0  0  0  0  0  0
  1  2  1  0  0  0  0
  1 30  1  0  0  0  0
  1 31  1  0  0  0  0
  1 32  1  0  0  0  0
  2  3  2  0  0  0  0
  2 29  1  0  0  0  0
  3  4  1  0  0  0  0
  3 33  1  0  0  0  0
  4  5  1  0  0  0  0
  4 28  2  0  0  0  0
  5  6  1  0  0  0  0
  5  7  2  0  0  0  0
  7  8  1  0  0  0  0
  7 26  1  0  0  0  0
  8  9  1  0  0  0  0
  9 10  1  0  0  0  0
  9 15  2  0  0  0  0
 10 11  2  0  0  0  0
 11 12  1  0  0  0  0
 11 34  1  0  0  0  0
 12 13  2  0  0  0  0
 13 14  1  0  0  0  0
 13 15  1  0  0  0  0
 14 35  1  0  0  0  0
 14 36  1  0  0  0  0
 15 16  1  0  0  0  0
 16 17  2  0  0  0  0
 16 37  1  0  0  0  0
 17 18  1  0  0  0  0
 18 19  1  0  0  0  0
 19 20  1  0  0  0  0
 19 38  1  0  0  0  0
 19 39  1  0  0  0  0
 20 21  1  0  0  0  0
 20 25  1  0  0  0  0
 20 40  1  0  0  0  0
 21 22  1  0  0  0  0
 21 41  1  0  0  0  0
 21 42  1  0  0  0  0
 22 23  1  0  0  0  0
 22 43  1  0  0  0  0
 22 44  1  0  0  0  0
 23 24  1  0  0  0  0
 23 45  1  0  0  0  0
 23 46  1  0  0  0  0
 24 25  1  0  0  0  0
 24 47  1  0  0  0  0
 24 48  1  0  0  0  0
 25 49  1  0  0  0  0
 25 50  1  0  0  0  0
 26 27  2  0  0  0  0
 26 51  1  0  0  0  0
 27 28  1  0  0  0  0
 27 52  1  0  0  0  0
 28 29  1  0  0  0  0
 29 53  1  0  0  0  0
M  END
$$$$
