CHEMBL3787112
 OpenBabel04072215373D

 49 53  0  0  1  0  0  0  0  0999 V2000
    5.7987   -8.7484   -2.1825 N   0  0  0  0  0  0  0  0  0  0  0  0
    6.1756   -7.4233   -2.2170 C   0  0  0  0  0  0  0  0  0  0  0  0
    6.8150   -7.0211   -3.3306 N   0  0  0  0  0  0  0  0  0  0  0  0
    7.1772   -5.7235   -3.4399 C   0  0  0  0  0  0  0  0  0  0  0  0
    6.9760   -4.7386   -2.5524 N   0  0  0  0  0  0  0  0  0  0  0  0
    6.3742   -5.1785   -1.4341 C   0  0  0  0  0  0  0  0  0  0  0  0
    5.9552   -6.4973   -1.1841 C   0  0  0  0  0  0  0  0  0  0  0  0
    5.3949   -6.5047    0.1430 C   0  0  0  0  0  0  0  0  0  0  0  0
    4.8800   -7.5785    0.9911 C   0  0  0  0  0  0  0  0  0  0  0  0
    5.4528   -8.8547    0.9532 C   0  0  0  0  0  0  0  0  0  0  0  0
    4.9631   -9.8862    1.7596 C   0  0  0  0  0  0  0  0  0  0  0  0
    3.9469   -9.6317    2.6760 C   0  0  0  0  0  0  0  0  0  0  0  0
    3.4180   -8.3519    2.7664 C   0  0  0  0  0  0  0  0  0  0  0  0
    2.4692   -8.0379    3.6948 O   0  0  0  0  0  0  0  0  0  0  0  0
    3.8539   -7.3371    1.9195 C   0  0  0  0  0  0  0  0  0  0  0  0
    5.4175   -5.1992    0.5932 C   0  0  0  0  0  0  0  0  0  0  0  0
    6.0741   -4.4252   -0.3238 N   0  0  0  0  0  0  0  0  0  0  0  0
    6.2264   -2.9915   -0.1880 C   0  0  1  0  0  0  0  0  0  0  0  0
    6.3708   -2.4631    1.2627 C   0  0  0  0  0  0  0  0  0  0  0  0
    7.9086   -2.3927    1.0475 C   0  0  1  0  0  0  0  0  0  0  0  0
    8.7242   -3.5725    1.5961 C   0  0  0  0  0  0  0  0  0  0  0  0
   10.1561   -3.3884    1.3230 N   0  0  0  0  0  0  0  0  0  0  0  0
   10.9272   -4.5412    1.8639 C   0  0  0  0  0  0  0  0  0  0  0  0
   11.9717   -3.5285    2.3637 C   0  0  0  0  0  0  0  0  0  0  0  0
   10.8011   -2.5277    2.3522 C   0  0  0  0  0  0  0  0  0  0  0  0
    7.6237   -2.4013   -0.4812 C   0  0  0  0  0  0  0  0  0  0  0  0
    6.0118   -9.2911   -3.0069 H   0  0  0  0  0  0  0  0  0  0  0  0
    5.0878   -9.0636   -1.5413 H   0  0  0  0  0  0  0  0  0  0  0  0
    7.6982   -5.4599   -4.3493 H   0  0  0  0  0  0  0  0  0  0  0  0
    6.3042   -9.0631    0.3094 H   0  0  0  0  0  0  0  0  0  0  0  0
    5.3940  -10.8810    1.6820 H   0  0  0  0  0  0  0  0  0  0  0  0
    3.5935  -10.4342    3.3165 H   0  0  0  0  0  0  0  0  0  0  0  0
    2.3395   -8.8060    4.2755 H   0  0  0  0  0  0  0  0  0  0  0  0
    3.3956   -6.3564    2.0121 H   0  0  0  0  0  0  0  0  0  0  0  0
    5.0377   -4.7755    1.5111 H   0  0  0  0  0  0  0  0  0  0  0  0
    5.4496   -2.4868   -0.7782 H   0  0  0  0  0  0  0  0  0  0  0  0
    6.0575   -3.0797    2.1081 H   0  0  0  0  0  0  0  0  0  0  0  0
    5.9055   -1.4782    1.3996 H   0  0  0  0  0  0  0  0  0  0  0  0
    8.3121   -1.4403    1.4162 H   0  0  0  0  0  0  0  0  0  0  0  0
    8.4030   -4.5027    1.1139 H   0  0  0  0  0  0  0  0  0  0  0  0
    8.5217   -3.6940    2.6682 H   0  0  0  0  0  0  0  0  0  0  0  0
   11.2864   -5.2456    1.1081 H   0  0  0  0  0  0  0  0  0  0  0  0
   10.4440   -5.1046    2.6726 H   0  0  0  0  0  0  0  0  0  0  0  0
   12.7636   -3.3052    1.6394 H   0  0  0  0  0  0  0  0  0  0  0  0
   12.4197   -3.7399    3.3377 H   0  0  0  0  0  0  0  0  0  0  0  0
   11.0602   -1.5211    2.0113 H   0  0  0  0  0  0  0  0  0  0  0  0
   10.2819   -2.4524    3.3160 H   0  0  0  0  0  0  0  0  0  0  0  0
    8.3177   -2.9727   -1.0997 H   0  0  0  0  0  0  0  0  0  0  0  0
    7.5661   -1.3849   -0.8954 H   0  0  0  0  0  0  0  0  0  0  0  0
  1  2  1  0  0  0  0
  1 27  1  0  0  0  0
  1 28  1  0  0  0  0
  2  3  1  0  0  0  0
  2  7  2  0  0  0  0
  3  4  2  0  0  0  0
  4  5  1  0  0  0  0
  4 29  1  0  0  0  0
  5  6  2  0  0  0  0
  6  7  1  0  0  0  0
  6 17  1  0  0  0  0
  7  8  1  0  0  0  0
  8  9  1  0  0  0  0
  8 16  2  0  0  0  0
  9 10  1  0  0  0  0
  9 15  2  0  0  0  0
 10 11  2  0  0  0  0
 10 30  1  0  0  0  0
 11 12  1  0  0  0  0
 11 31  1  0  0  0  0
 12 13  2  0  0  0  0
 12 32  1  0  0  0  0
 13 14  1  0  0  0  0
 13 15  1  0  0  0  0
 14 33  1  0  0  0  0
 15 34  1  0  0  0  0
 16 17  1  0  0  0  0
 16 35  1  0  0  0  0
 18 19  1  0  0  0  0
 18 26  1  0  0  0  0
 18 17  1  0  0  0  0
 18 36  1  6  0  0  0
 19 20  1  0  0  0  0
 19 37  1  0  0  0  0
 19 38  1  0  0  0  0
 20 21  1  0  0  0  0
 20 26  1  0  0  0  0
 20 39  1  1  0  0  0
 21 22  1  0  0  0  0
 21 40  1  0  0  0  0
 21 41  1  0  0  0  0
 22 23  1  0  0  0  0
 22 25  1  0  0  0  0
 23 24  1  0  0  0  0
 23 42  1  0  0  0  0
 23 43  1  0  0  0  0
 24 25  1  0  0  0  0
 24 44  1  0  0  0  0
 24 45  1  0  0  0  0
 25 46  1  0  0  0  0
 25 47  1  0  0  0  0
 26 48  1  0  0  0  0
 26 49  1  0  0  0  0
M  END
$$$$
