CHEMBL274064
 OpenBabel04072215363D

 44 47  0  0  0  0  0  0  0  0999 V2000
    1.7919   -2.2989   -0.7928 N   0  0  0  0  0  0  0  0  0  0  0  0
    1.1483   -1.2138   -0.2437 C   0  0  0  0  0  0  0  0  0  0  0  0
   -0.0665   -1.4153    0.2677 N   0  0  0  0  0  0  0  0  0  0  0  0
   -0.7201   -0.3232    0.6856 C   0  0  0  0  0  0  0  0  0  0  0  0
   -0.2013    0.9456    0.6043 C   0  0  0  0  0  0  0  0  0  0  0  0
    1.0863    1.0468    0.1285 C   0  0  0  0  0  0  0  0  0  0  0  0
    1.8031    2.3205   -0.0491 C   0  0  0  0  0  0  0  0  0  0  0  0
    2.6667    2.7320   -1.0731 C   0  0  0  0  0  0  0  0  0  0  0  0
    3.0329    2.0236   -2.2921 C   0  0  0  0  0  0  0  0  0  0  0  0
    2.1079    1.2457   -3.0031 C   0  0  0  0  0  0  0  0  0  0  0  0
    2.4924    0.5519   -4.1514 C   0  0  0  0  0  0  0  0  0  0  0  0
    3.7984    0.6681   -4.6140 C   0  0  0  0  0  0  0  0  0  0  0  0
    4.1666    0.0015   -5.7142 F   0  0  0  0  0  0  0  0  0  0  0  0
    4.7200    1.4739   -3.9583 C   0  0  0  0  0  0  0  0  0  0  0  0
    4.3370    2.1520   -2.7985 C   0  0  0  0  0  0  0  0  0  0  0  0
    3.1928    3.9731   -0.8163 N   0  0  0  0  0  0  0  0  0  0  0  0
    2.6559    4.3499    0.3127 C   0  0  0  0  0  0  0  0  0  0  0  0
    1.8127    3.4059    0.8314 N   0  0  0  0  0  0  0  0  0  0  0  0
    1.0687    3.5385    2.0854 C   0  0  0  0  0  0  0  0  0  0  0  0
   -0.2893    4.2300    1.8822 C   0  0  0  0  0  0  0  0  0  0  0  0
   -0.1817    5.7474    1.8811 C   0  0  0  0  0  0  0  0  0  0  0  0
    0.4514    6.2386    3.1009 N   0  0  0  0  0  0  0  0  0  0  0  0
    1.7914    5.6976    3.2933 C   0  0  0  0  0  0  0  0  0  0  0  0
    1.8279    4.1706    3.2668 C   0  0  0  0  0  0  0  0  0  0  0  0
    1.7741   -0.0363   -0.2778 N   0  0  0  0  0  0  0  0  0  0  0  0
    1.4601   -3.1589   -0.3842 H   0  0  0  0  0  0  0  0  0  0  0  0
    2.7872   -2.1370   -0.8424 H   0  0  0  0  0  0  0  0  0  0  0  0
   -1.7155   -0.4981    1.0832 H   0  0  0  0  0  0  0  0  0  0  0  0
   -0.8055    1.7863    0.8933 H   0  0  0  0  0  0  0  0  0  0  0  0
    1.0800    1.1595   -2.6638 H   0  0  0  0  0  0  0  0  0  0  0  0
    1.7854   -0.0797   -4.6739 H   0  0  0  0  0  0  0  0  0  0  0  0
    5.7284    1.5679   -4.3482 H   0  0  0  0  0  0  0  0  0  0  0  0
    5.0605    2.7846   -2.2858 H   0  0  0  0  0  0  0  0  0  0  0  0
    2.8582    5.3034    0.7722 H   0  0  0  0  0  0  0  0  0  0  0  0
    0.8823    2.5068    2.4048 H   0  0  0  0  0  0  0  0  0  0  0  0
   -0.9608    3.9228    2.6961 H   0  0  0  0  0  0  0  0  0  0  0  0
   -0.7666    3.9172    0.9477 H   0  0  0  0  0  0  0  0  0  0  0  0
   -1.1889    6.1742    1.8149 H   0  0  0  0  0  0  0  0  0  0  0  0
    0.3583    6.0996    0.9946 H   0  0  0  0  0  0  0  0  0  0  0  0
   -0.1318    6.0197    3.9073 H   0  0  0  0  0  0  0  0  0  0  0  0
    2.1689    6.0427    4.2640 H   0  0  0  0  0  0  0  0  0  0  0  0
    2.4716    6.1316    2.5584 H   0  0  0  0  0  0  0  0  0  0  0  0
    1.3486    3.8171    4.1914 H   0  0  0  0  0  0  0  0  0  0  0  0
    2.8635    3.8137    3.3018 H   0  0  0  0  0  0  0  0  0  0  0  0
  1  2  1  0  0  0  0
  1 26  1  0  0  0  0
  1 27  1  0  0  0  0
  2  3  1  0  0  0  0
  2 25  2  0  0  0  0
  3  4  2  0  0  0  0
  4  5  1  0  0  0  0
  4 28  1  0  0  0  0
  5  6  2  0  0  0  0
  5 29  1  0  0  0  0
  6  7  1  0  0  0  0
  6 25  1  0  0  0  0
  7  8  2  0  0  0  0
  7 18  1  0  0  0  0
  8  9  1  0  0  0  0
  8 16  1  0  0  0  0
  9 10  1  0  0  0  0
  9 15  2  0  0  0  0
 10 11  2  0  0  0  0
 10 30  1  0  0  0  0
 11 12  1  0  0  0  0
 11 31  1  0  0  0  0
 12 13  1  0  0  0  0
 12 14  2  0  0  0  0
 14 15  1  0  0  0  0
 14 32  1  0  0  0  0
 15 33  1  0  0  0  0
 16 17  2  0  0  0  0
 17 18  1  0  0  0  0
 17 34  1  0  0  0  0
 18 19  1  0  0  0  0
 19 20  1  0  0  0  0
 19 24  1  0  0  0  0
 19 35  1  0  0  0  0
 20 21  1  0  0  0  0
 20 36  1  0  0  0  0
 20 37  1  0  0  0  0
 21 22  1  0  0  0  0
 21 38  1  0  0  0  0
 21 39  1  0  0  0  0
 22 23  1  0  0  0  0
 22 40  1  0  0  0  0
 23 24  1  0  0  0  0
 23 41  1  0  0  0  0
 23 42  1  0  0  0  0
 24 43  1  0  0  0  0
 24 44  1  0  0  0  0
M  END
$$$$
