CHEMBL241919
 OpenBabel04072215363D

 71 74  0  0  0  0  0  0  0  0999 V2000
    1.1245    0.1330    1.2656 C   0  0  0  0  0  0  0  0  0  0  0  0
    2.2651    0.0617    0.2668 C   0  0  0  0  0  0  0  0  0  0  0  0
    2.8130    1.3648    0.0420 O   0  0  0  0  0  0  0  0  0  0  0  0
    4.1733    1.4439   -0.1406 C   0  0  0  0  0  0  0  0  0  0  0  0
    4.7650    2.5821    0.4367 C   0  0  0  0  0  0  0  0  0  0  0  0
    6.1329    2.8214    0.3893 C   0  0  0  0  0  0  0  0  0  0  0  0
    6.6349    3.9274    0.9527 N   0  0  0  0  0  0  0  0  0  0  0  0
    7.9641    4.0943    0.8805 C   0  0  0  0  0  0  0  0  0  0  0  0
    8.8275    3.2704    0.2739 N   0  0  0  0  0  0  0  0  0  0  0  0
    8.3151    2.1708   -0.3079 C   0  0  0  0  0  0  0  0  0  0  0  0
    9.1972    1.2864   -0.9836 N   0  0  0  0  0  0  0  0  0  0  0  0
   10.5776    1.3373   -0.8389 C   0  0  0  0  0  0  0  0  0  0  0  0
   11.2206    1.5224    0.3180 C   0  0  0  0  0  0  0  0  0  0  0  0
   12.6754    1.6584    0.3982 C   0  0  0  0  0  0  0  0  0  0  0  0
   13.1899    2.1319    1.4056 O   0  0  0  0  0  0  0  0  0  0  0  0
   13.4790    1.2128   -0.7760 C   0  0  0  0  0  0  0  0  0  0  0  0
   14.8193    1.0708   -0.5119 O   0  0  0  0  0  0  0  0  0  0  0  0
   15.7642    0.9579   -1.5660 C   0  0  0  0  0  0  0  0  0  0  0  0
   16.1677    2.2962   -2.1366 C   0  0  0  0  0  0  0  0  0  0  0  0
   16.7161    2.3545   -3.4234 C   0  0  0  0  0  0  0  0  0  0  0  0
   17.2723    3.5407   -3.8993 C   0  0  0  0  0  0  0  0  0  0  0  0
   17.2587    4.6892   -3.1082 C   0  0  0  0  0  0  0  0  0  0  0  0
   16.6571    4.6717   -1.8465 C   0  0  0  0  0  0  0  0  0  0  0  0
   16.5486    5.9233   -1.0264 C   0  0  0  0  0  0  0  0  0  0  0  0
   16.1272    3.4684   -1.3622 C   0  0  0  0  0  0  0  0  0  0  0  0
   12.8575    1.0145   -1.9484 C   0  0  0  0  0  0  0  0  0  0  0  0
   11.3893    1.1483   -2.0819 C   0  0  0  0  0  0  0  0  0  0  0  0
   10.8505    1.0660   -3.1834 O   0  0  0  0  0  0  0  0  0  0  0  0
    6.9441    1.8859   -0.2608 C   0  0  0  0  0  0  0  0  0  0  0  0
    6.3617    0.7356   -0.8290 C   0  0  0  0  0  0  0  0  0  0  0  0
    4.9799    0.5276   -0.8287 C   0  0  0  0  0  0  0  0  0  0  0  0
    4.4203   -0.5215   -1.5936 N   0  0  0  0  0  0  0  0  0  0  0  0
    5.0867   -1.6512   -2.0144 C   0  0  0  0  0  0  0  0  0  0  0  0
    6.2324   -1.9681   -1.7195 O   0  0  0  0  0  0  0  0  0  0  0  0
    4.2510   -2.5383   -2.8626 C   0  0  0  0  0  0  0  0  0  0  0  0
    4.7842   -3.7065   -3.2516 C   0  0  0  0  0  0  0  0  0  0  0  0
    4.1669   -4.7620   -4.1129 C   0  0  0  0  0  0  0  0  0  0  0  0
    3.0702   -4.3316   -4.9898 N   0  0  0  0  0  0  0  0  0  0  0  0
    3.5535   -3.4353   -6.0488 C   0  0  0  0  0  0  0  0  0  0  0  0
    2.4809   -5.5242   -5.6144 C   0  0  0  0  0  0  0  0  0  0  0  0
    0.5745   -0.8142    1.2740 H   0  0  0  0  0  0  0  0  0  0  0  0
    0.4310    0.9435    1.0233 H   0  0  0  0  0  0  0  0  0  0  0  0
    1.5076    0.3155    2.2741 H   0  0  0  0  0  0  0  0  0  0  0  0
    1.8491   -0.2959   -0.6801 H   0  0  0  0  0  0  0  0  0  0  0  0
    3.0095   -0.6503    0.6411 H   0  0  0  0  0  0  0  0  0  0  0  0
    4.1343    3.3052    0.9511 H   0  0  0  0  0  0  0  0  0  0  0  0
    8.3810    4.9771    1.3431 H   0  0  0  0  0  0  0  0  0  0  0  0
    8.9271    1.1845   -1.9646 H   0  0  0  0  0  0  0  0  0  0  0  0
   10.6882    1.6449    1.2530 H   0  0  0  0  0  0  0  0  0  0  0  0
   15.4303    0.2527   -2.3348 H   0  0  0  0  0  0  0  0  0  0  0  0
   16.6664    0.5215   -1.1203 H   0  0  0  0  0  0  0  0  0  0  0  0
   16.7406    1.4682   -4.0532 H   0  0  0  0  0  0  0  0  0  0  0  0
   17.7305    3.5675   -4.8843 H   0  0  0  0  0  0  0  0  0  0  0  0
   17.7209    5.5986   -3.4842 H   0  0  0  0  0  0  0  0  0  0  0  0
   17.1243    6.7431   -1.4688 H   0  0  0  0  0  0  0  0  0  0  0  0
   16.9281    5.7572   -0.0133 H   0  0  0  0  0  0  0  0  0  0  0  0
   15.5013    6.2384   -0.9711 H   0  0  0  0  0  0  0  0  0  0  0  0
   15.6935    3.4451   -0.3617 H   0  0  0  0  0  0  0  0  0  0  0  0
   13.3670    0.7309   -2.8596 H   0  0  0  0  0  0  0  0  0  0  0  0
    7.0237    0.0280   -1.3164 H   0  0  0  0  0  0  0  0  0  0  0  0
    3.4462   -0.4246   -1.8375 H   0  0  0  0  0  0  0  0  0  0  0  0
    3.2529   -2.2350   -3.1534 H   0  0  0  0  0  0  0  0  0  0  0  0
    5.7899   -3.9604   -2.9149 H   0  0  0  0  0  0  0  0  0  0  0  0
    3.8003   -5.5309   -3.4193 H   0  0  0  0  0  0  0  0  0  0  0  0
    4.9639   -5.2316   -4.7044 H   0  0  0  0  0  0  0  0  0  0  0  0
    3.9151   -2.4871   -5.6388 H   0  0  0  0  0  0  0  0  0  0  0  0
    2.7355   -3.1753   -6.7304 H   0  0  0  0  0  0  0  0  0  0  0  0
    4.3615   -3.8841   -6.6380 H   0  0  0  0  0  0  0  0  0  0  0  0
    2.0873   -6.2057   -4.8520 H   0  0  0  0  0  0  0  0  0  0  0  0
    3.2121   -6.0739   -6.2204 H   0  0  0  0  0  0  0  0  0  0  0  0
    1.6382   -5.2490   -6.2569 H   0  0  0  0  0  0  0  0  0  0  0  0
  1  2  1  0  0  0  0
  1 41  1  0  0  0  0
  1 42  1  0  0  0  0
  1 43  1  0  0  0  0
  2  3  1  0  0  0  0
  2 44  1  0  0  0  0
  2 45  1  0  0  0  0
  3  4  1  0  0  0  0
  4  5  1  0  0  0  0
  4 31  2  0  0  0  0
  5  6  2  0  0  0  0
  5 46  1  0  0  0  0
  6  7  1  0  0  0  0
  6 29  1  0  0  0  0
  7  8  2  0  0  0  0
  8  9  1  0  0  0  0
  8 47  1  0  0  0  0
  9 10  2  0  0  0  0
 10 11  1  0  0  0  0
 10 29  1  0  0  0  0
 11 12  1  0  0  0  0
 11 48  1  0  0  0  0
 12 13  2  0  0  0  0
 12 27  1  0  0  0  0
 13 14  1  0  0  0  0
 13 49  1  0  0  0  0
 14 15  2  0  0  0  0
 14 16  1  0  0  0  0
 16 17  1  0  0  0  0
 16 26  2  0  0  0  0
 17 18  1  0  0  0  0
 18 19  1  0  0  0  0
 18 50  1  0  0  0  0
 18 51  1  0  0  0  0
 19 20  1  0  0  0  0
 19 25  2  0  0  0  0
 20 21  2  0  0  0  0
 20 52  1  0  0  0  0
 21 22  1  0  0  0  0
 21 53  1  0  0  0  0
 22 23  2  0  0  0  0
 22 54  1  0  0  0  0
 23 24  1  0  0  0  0
 23 25  1  0  0  0  0
 24 55  1  0  0  0  0
 24 56  1  0  0  0  0
 24 57  1  0  0  0  0
 25 58  1  0  0  0  0
 26 27  1  0  0  0  0
 26 59  1  0  0  0  0
 27 28  2  0  0  0  0
 29 30  2  0  0  0  0
 30 31  1  0  0  0  0
 30 60  1  0  0  0  0
 31 32  1  0  0  0  0
 32 33  1  0  0  0  0
 32 61  1  0  0  0  0
 33 34  2  0  0  0  0
 33 35  1  0  0  0  0
 35 36  2  0  0  0  0
 35 62  1  0  0  0  0
 36 37  1  0  0  0  0
 36 63  1  0  0  0  0
 37 38  1  0  0  0  0
 37 64  1  0  0  0  0
 37 65  1  0  0  0  0
 38 39  1  0  0  0  0
 38 40  1  0  0  0  0
 39 66  1  0  0  0  0
 39 67  1  0  0  0  0
 39 68  1  0  0  0  0
 40 69  1  0  0  0  0
 40 70  1  0  0  0  0
 40 71  1  0  0  0  0
M  END
$$$$
