CHEMBL3912757
 OpenBabel04072215373D

 67 71  0  0  0  0  0  0  0  0999 V2000
    0.6784    1.6456    3.7842 C   0  0  0  0  0  0  0  0  0  0  0  0
    2.0233    2.0888    3.8396 O   0  0  0  0  0  0  0  0  0  0  0  0
    2.8866    1.4548    2.9947 C   0  0  0  0  0  0  0  0  0  0  0  0
    2.5699    0.4616    2.1322 C   0  0  0  0  0  0  0  0  0  0  0  0
    3.5184    0.0223    1.2105 C   0  0  0  0  0  0  0  0  0  0  0  0
    3.2605   -0.9612    0.2963 O   0  0  0  0  0  0  0  0  0  0  0  0
    1.8975   -1.0239   -0.1084 C   0  0  0  0  0  0  0  0  0  0  0  0
    4.8200    0.5556    1.1845 C   0  0  0  0  0  0  0  0  0  0  0  0
    5.1939    1.6114    2.0121 C   0  0  0  0  0  0  0  0  0  0  0  0
    6.5079    2.2315    1.8630 N   0  0  0  0  0  0  0  0  0  0  0  0
    7.1324    2.2367    0.4785 C   0  0  0  0  0  0  0  0  0  0  0  0
    6.3294    2.9497   -0.5930 C   0  0  0  0  0  0  0  0  0  0  0  0
    6.0048    4.4002   -0.4560 C   0  0  0  0  0  0  0  0  0  0  0  0
    5.1983    4.8592   -1.6555 C   0  0  0  0  0  0  0  0  0  0  0  0
    3.8574    4.7611   -1.5651 N   0  0  0  0  0  0  0  0  0  0  0  0
    3.1625    5.1243   -2.6527 C   0  0  0  0  0  0  0  0  0  0  0  0
    3.7475    5.5738   -3.8093 C   0  0  0  0  0  0  0  0  0  0  0  0
    5.1214    5.6582   -3.8113 C   0  0  0  0  0  0  0  0  0  0  0  0
    5.8430    6.0636   -4.9102 O   0  0  0  0  0  0  0  0  0  0  0  0
    7.2635    6.0976   -4.7448 C   0  0  0  0  0  0  0  0  0  0  0  0
    5.8615    5.3224   -2.7370 N   0  0  0  0  0  0  0  0  0  0  0  0
    7.5519    2.1897    2.9055 C   0  0  0  0  0  0  0  0  0  0  0  0
    8.4005    3.2561    2.9347 C   0  0  0  0  0  0  0  0  0  0  0  0
    9.4394    3.1980    3.7981 C   0  0  0  0  0  0  0  0  0  0  0  0
    9.7699    2.1051    4.5715 C   0  0  0  0  0  0  0  0  0  0  0  0
   11.0220    2.0435    4.3774 N   0  0  0  0  0  0  0  0  0  0  0  0
   11.6973    2.6757    5.2706 C   0  0  0  0  0  0  0  0  0  0  0  0
   11.8162    2.0211    6.3716 C   0  0  0  0  0  0  0  0  0  0  0  0
   13.3405    2.7525    6.9798 C   0  0  0  0  0  0  0  0  0  0  0  0
   14.0665    4.1165    6.8567 C   0  0  0  0  0  0  0  0  0  0  0  0
   14.8861    4.5168    7.8801 N   0  0  0  0  0  0  0  0  0  0  0  0
   14.7213    3.6135    8.8553 N   0  0  0  0  0  0  0  0  0  0  0  0
   15.4255    3.7782   10.1728 C   0  0  0  0  0  0  0  0  0  0  0  0
   13.7689    2.6355    8.3923 C   0  0  0  0  0  0  0  0  0  0  0  0
   10.5041    1.0758    6.3900 N   0  0  0  0  0  0  0  0  0  0  0  0
    9.2094    1.1140    5.1643 C   0  0  0  0  0  0  0  0  0  0  0  0
    7.9073    1.1168    3.9539 C   0  0  0  0  0  0  0  0  0  0  0  0
    4.1929    1.9076    2.9761 C   0  0  0  0  0  0  0  0  0  0  0  0
    0.0723    2.3281    4.3850 H   0  0  0  0  0  0  0  0  0  0  0  0
    0.6209    0.6447    4.2167 H   0  0  0  0  0  0  0  0  0  0  0  0
    0.2663    1.6613    2.7735 H   0  0  0  0  0  0  0  0  0  0  0  0
    1.5820    0.0410    2.1512 H   0  0  0  0  0  0  0  0  0  0  0  0
    1.8004   -1.7982   -0.8653 H   0  0  0  0  0  0  0  0  0  0  0  0
    1.5647   -0.0743   -0.5514 H   0  0  0  0  0  0  0  0  0  0  0  0
    1.2623   -1.2950    0.7436 H   0  0  0  0  0  0  0  0  0  0  0  0
    5.5509    0.1348    0.4953 H   0  0  0  0  0  0  0  0  0  0  0  0
    7.3538    1.2308    0.0874 H   0  0  0  0  0  0  0  0  0  0  0  0
    8.0629    2.7903    0.5842 H   0  0  0  0  0  0  0  0  0  0  0  0
    5.3425    2.4697   -0.5669 H   0  0  0  0  0  0  0  0  0  0  0  0
    6.8937    2.8798   -1.5411 H   0  0  0  0  0  0  0  0  0  0  0  0
    6.9436    4.9503   -0.3980 H   0  0  0  0  0  0  0  0  0  0  0  0
    5.4175    4.5105    0.4534 H   0  0  0  0  0  0  0  0  0  0  0  0
    2.0831    5.0301   -2.5870 H   0  0  0  0  0  0  0  0  0  0  0  0
    3.1311    5.8320   -4.6535 H   0  0  0  0  0  0  0  0  0  0  0  0
    7.7219    6.4401   -5.6775 H   0  0  0  0  0  0  0  0  0  0  0  0
    7.6610    5.0977   -4.5337 H   0  0  0  0  0  0  0  0  0  0  0  0
    7.5591    6.8026   -3.9579 H   0  0  0  0  0  0  0  0  0  0  0  0
    8.4470    4.0580    2.2086 H   0  0  0  0  0  0  0  0  0  0  0  0
   10.2234    3.9706    3.6870 H   0  0  0  0  0  0  0  0  0  0  0  0
   12.1635    3.5796    5.0033 H   0  0  0  0  0  0  0  0  0  0  0  0
   14.0575    4.8931    6.0929 H   0  0  0  0  0  0  0  0  0  0  0  0
   16.2041    4.5723   10.1707 H   0  0  0  0  0  0  0  0  0  0  0  0
   15.9485    2.8544   10.4593 H   0  0  0  0  0  0  0  0  0  0  0  0
   14.7334    4.0489   10.9864 H   0  0  0  0  0  0  0  0  0  0  0  0
   13.4516    1.9843    9.1881 H   0  0  0  0  0  0  0  0  0  0  0  0
    7.1985    0.2584    3.7864 H   0  0  0  0  0  0  0  0  0  0  0  0
    4.2737    2.4776    3.8778 H   0  0  0  0  0  0  0  0  0  0  0  0
  1  2  1  0  0  0  0
  1 39  1  0  0  0  0
  1 40  1  0  0  0  0
  1 41  1  0  0  0  0
  2  3  1  0  0  0  0
  3  4  1  0  0  0  0
  3 38  2  0  0  0  0
  4  5  2  0  0  0  0
  4 42  1  0  0  0  0
  5  6  1  0  0  0  0
  5  8  1  0  0  0  0
  6  7  1  0  0  0  0
  7 43  1  0  0  0  0
  7 44  1  0  0  0  0
  7 45  1  0  0  0  0
  8  9  2  0  0  0  0
  8 46  1  0  0  0  0
  9 10  1  0  0  0  0
  9 38  1  0  0  0  0
 10 11  1  0  0  0  0
 10 22  1  0  0  0  0
 11 12  1  0  0  0  0
 11 47  1  0  0  0  0
 11 48  1  0  0  0  0
 12 13  1  0  0  0  0
 12 49  1  0  0  0  0
 12 50  1  0  0  0  0
 13 14  1  0  0  0  0
 13 51  1  0  0  0  0
 13 52  1  0  0  0  0
 14 15  1  0  0  0  0
 14 21  2  0  0  0  0
 15 16  2  0  0  0  0
 16 17  1  0  0  0  0
 16 53  1  0  0  0  0
 17 18  2  0  0  0  0
 17 54  1  0  0  0  0
 18 19  1  0  0  0  0
 18 21  1  0  0  0  0
 19 20  1  0  0  0  0
 20 55  1  0  0  0  0
 20 56  1  0  0  0  0
 20 57  1  0  0  0  0
 22 23  1  0  0  0  0
 22 37  2  0  0  0  0
 23 24  2  0  0  0  0
 23 58  1  0  0  0  0
 24 25  1  0  0  0  0
 24 59  1  0  0  0  0
 25 26  1  0  0  0  0
 25 36  2  0  0  0  0
 26 27  2  0  0  0  0
 27 28  1  0  0  0  0
 27 60  1  0  0  0  0
 28 29  1  0  0  0  0
 28 35  2  0  0  0  0
 29 30  1  0  0  0  0
 29 34  2  0  0  0  0
 30 31  2  0  0  0  0
 30 61  1  0  0  0  0
 31 32  1  0  0  0  0
 32 33  1  0  0  0  0
 32 34  1  0  0  0  0
 33 62  1  0  0  0  0
 33 63  1  0  0  0  0
 33 64  1  0  0  0  0
 34 65  1  0  0  0  0
 35 36  1  0  0  0  0
 36 37  1  0  0  0  0
 37 66  1  0  0  0  0
 38 67  1  0  0  0  0
M  END
$$$$
