CHEMBL1979093
 OpenBabel04072215363D

 49 52  0  0  0  0  0  0  0  0999 V2000
    2.4206    1.1653   -0.5986 C   0  0  0  0  0  0  0  0  0  0  0  0
    2.3675   -0.1655   -0.0919 O   0  0  0  0  0  0  0  0  0  0  0  0
    3.1422   -1.0797   -0.7841 C   0  0  0  0  0  0  0  0  0  0  0  0
    2.6775   -2.3921   -0.7924 C   0  0  0  0  0  0  0  0  0  0  0  0
    3.3828   -3.4023   -1.4468 C   0  0  0  0  0  0  0  0  0  0  0  0
    4.6182   -3.1692   -2.1036 C   0  0  0  0  0  0  0  0  0  0  0  0
    5.2984   -4.2652   -2.8310 C   0  0  0  0  0  0  0  0  0  0  0  0
    5.8977   -4.0353   -4.0706 C   0  0  0  0  0  0  0  0  0  0  0  0
    6.6134   -5.0287   -4.7418 C   0  0  0  0  0  0  0  0  0  0  0  0
    6.6736   -6.3307   -4.2571 C   0  0  0  0  0  0  0  0  0  0  0  0
    7.3467   -7.3744   -4.9463 N   0  0  0  0  0  0  0  0  0  0  0  0
    8.1749   -7.1903   -6.0370 C   0  0  0  0  0  0  0  0  0  0  0  0
    8.5764   -6.1046   -6.4460 O   0  0  0  0  0  0  0  0  0  0  0  0
    8.4810   -8.3898   -6.6763 N   0  0  0  0  0  0  0  0  0  0  0  0
    9.2543   -8.3888   -7.8658 C   0  0  0  0  0  0  0  0  0  0  0  0
    8.8169   -9.1490   -8.9527 C   0  0  0  0  0  0  0  0  0  0  0  0
    9.4975   -9.0730  -10.1704 C   0  0  0  0  0  0  0  0  0  0  0  0
   10.6332   -8.2740  -10.2868 C   0  0  0  0  0  0  0  0  0  0  0  0
   11.2579   -8.2141  -11.4715 F   0  0  0  0  0  0  0  0  0  0  0  0
   11.1107   -7.5362   -9.2055 C   0  0  0  0  0  0  0  0  0  0  0  0
   12.3275   -6.6705   -9.3269 C   0  0  0  0  0  0  0  0  0  0  0  0
   10.4118   -7.6044   -7.9912 C   0  0  0  0  0  0  0  0  0  0  0  0
    6.0006   -6.6169   -3.0674 C   0  0  0  0  0  0  0  0  0  0  0  0
    5.3399   -5.5917   -2.3572 C   0  0  0  0  0  0  0  0  0  0  0  0
    5.1334   -1.8339   -2.0513 C   0  0  0  0  0  0  0  0  0  0  0  0
    6.2790   -1.0829   -2.4850 C   0  0  0  0  0  0  0  0  0  0  0  0
    7.3479   -1.5587   -3.1563 N   0  0  0  0  0  0  0  0  0  0  0  0
    6.1939    0.2019   -2.1566 N   0  0  0  0  0  0  0  0  0  0  0  0
    5.0149    0.3377   -1.4665 O   0  0  0  0  0  0  0  0  0  0  0  0
    4.3724   -0.8555   -1.4042 C   0  0  0  0  0  0  0  0  0  0  0  0
    1.6325    1.7407   -0.1031 H   0  0  0  0  0  0  0  0  0  0  0  0
    2.2264    1.1893   -1.6765 H   0  0  0  0  0  0  0  0  0  0  0  0
    3.3702    1.6485   -0.3536 H   0  0  0  0  0  0  0  0  0  0  0  0
    1.7340   -2.6261   -0.3039 H   0  0  0  0  0  0  0  0  0  0  0  0
    2.9373   -4.3964   -1.4642 H   0  0  0  0  0  0  0  0  0  0  0  0
    5.8381   -3.0580   -4.5448 H   0  0  0  0  0  0  0  0  0  0  0  0
    7.0995   -4.7268   -5.6632 H   0  0  0  0  0  0  0  0  0  0  0  0
    7.3299   -8.2938   -4.5318 H   0  0  0  0  0  0  0  0  0  0  0  0
    7.7524   -9.0863   -6.6188 H   0  0  0  0  0  0  0  0  0  0  0  0
    7.9103   -9.7433   -8.8926 H   0  0  0  0  0  0  0  0  0  0  0  0
    9.1367   -9.6109  -11.0413 H   0  0  0  0  0  0  0  0  0  0  0  0
   12.7237   -6.6655  -10.3475 H   0  0  0  0  0  0  0  0  0  0  0  0
   13.1176   -7.0337   -8.6619 H   0  0  0  0  0  0  0  0  0  0  0  0
   12.0840   -5.6360   -9.0625 H   0  0  0  0  0  0  0  0  0  0  0  0
   10.7683   -7.0210   -7.1437 H   0  0  0  0  0  0  0  0  0  0  0  0
    5.9819   -7.6253   -2.6632 H   0  0  0  0  0  0  0  0  0  0  0  0
    4.8495   -5.8548   -1.4207 H   0  0  0  0  0  0  0  0  0  0  0  0
    7.6176   -2.5346   -3.1170 H   0  0  0  0  0  0  0  0  0  0  0  0
    8.1250   -0.9252   -3.3119 H   0  0  0  0  0  0  0  0  0  0  0  0
  1  2  1  0  0  0  0
  1 31  1  0  0  0  0
  1 32  1  0  0  0  0
  1 33  1  0  0  0  0
  2  3  1  0  0  0  0
  3  4  1  0  0  0  0
  3 30  2  0  0  0  0
  4  5  2  0  0  0  0
  4 34  1  0  0  0  0
  5  6  1  0  0  0  0
  5 35  1  0  0  0  0
  6  7  1  0  0  0  0
  6 25  2  0  0  0  0
  7  8  1  0  0  0  0
  7 24  2  0  0  0  0
  8  9  2  0  0  0  0
  8 36  1  0  0  0  0
  9 10  1  0  0  0  0
  9 37  1  0  0  0  0
 10 11  1  0  0  0  0
 10 23  2  0  0  0  0
 11 12  1  0  0  0  0
 11 38  1  0  0  0  0
 12 13  2  0  0  0  0
 12 14  1  0  0  0  0
 14 15  1  0  0  0  0
 14 39  1  0  0  0  0
 15 16  1  0  0  0  0
 15 22  2  0  0  0  0
 16 17  2  0  0  0  0
 16 40  1  0  0  0  0
 17 18  1  0  0  0  0
 17 41  1  0  0  0  0
 18 19  1  0  0  0  0
 18 20  2  0  0  0  0
 20 21  1  0  0  0  0
 20 22  1  0  0  0  0
 21 42  1  0  0  0  0
 21 43  1  0  0  0  0
 21 44  1  0  0  0  0
 22 45  1  0  0  0  0
 23 24  1  0  0  0  0
 23 46  1  0  0  0  0
 24 47  1  0  0  0  0
 25 26  1  0  0  0  0
 25 30  1  0  0  0  0
 26 27  1  0  0  0  0
 26 28  2  0  0  0  0
 27 48  1  0  0  0  0
 27 49  1  0  0  0  0
 28 29  1  0  0  0  0
 29 30  1  0  0  0  0
M  END
$$$$
