CHEMBL3403513
 OpenBabel04072215363D

 39 42  0  0  0  0  0  0  0  0999 V2000
    1.6082    0.2621   -1.4320 C   0  0  0  0  0  0  0  0  0  0  0  0
    2.9455    0.1772   -0.7594 C   0  0  0  0  0  0  0  0  0  0  0  0
    3.5368   -1.0318   -0.7303 N   0  0  0  0  0  0  0  0  0  0  0  0
    4.7610   -1.2128   -0.1490 C   0  0  0  0  0  0  0  0  0  0  0  0
    5.3162   -2.5076   -0.1815 N   0  0  0  0  0  0  0  0  0  0  0  0
    6.7697   -2.6468   -0.1904 C   0  0  0  0  0  0  0  0  0  0  0  0
    4.5813   -3.7103   -0.0152 C   0  0  0  0  0  0  0  0  0  0  0  0
    4.9961   -4.9316   -0.5982 C   0  0  0  0  0  0  0  0  0  0  0  0
    4.3016   -6.1283   -0.3838 C   0  0  0  0  0  0  0  0  0  0  0  0
    3.1837   -6.0937    0.4176 C   0  0  0  0  0  0  0  0  0  0  0  0
    2.7371   -4.9184    0.9824 C   0  0  0  0  0  0  0  0  0  0  0  0
    3.4117   -3.7256    0.7713 C   0  0  0  0  0  0  0  0  0  0  0  0
    1.5382   -5.1778    1.8034 C   0  0  0  0  0  0  0  0  0  0  0  0
    1.3526   -6.6759    1.5460 C   0  0  0  0  0  0  0  0  0  0  0  0
    2.4325   -7.1899    0.7325 O   0  0  0  0  0  0  0  0  0  0  0  0
    5.3364   -0.0730    0.4478 C   0  0  0  0  0  0  0  0  0  0  0  0
    6.4973    0.2470    1.2102 C   0  0  0  0  0  0  0  0  0  0  0  0
    6.4354    1.5938    1.4869 C   0  0  0  0  0  0  0  0  0  0  0  0
    7.3238    2.5217    2.2139 C   0  0  0  0  0  0  0  0  0  0  0  0
    5.2971    2.1242    0.9656 O   0  0  0  0  0  0  0  0  0  0  0  0
    4.6199    1.1142    0.3481 C   0  0  0  0  0  0  0  0  0  0  0  0
    3.4351    1.3070   -0.2421 N   0  0  0  0  0  0  0  0  0  0  0  0
    1.2987   -0.7145   -1.8179 H   0  0  0  0  0  0  0  0  0  0  0  0
    1.6545    0.9649   -2.2692 H   0  0  0  0  0  0  0  0  0  0  0  0
    0.8521    0.6064   -0.7201 H   0  0  0  0  0  0  0  0  0  0  0  0
    7.2962   -1.7084   -0.3850 H   0  0  0  0  0  0  0  0  0  0  0  0
    7.1113   -3.3124   -0.9891 H   0  0  0  0  0  0  0  0  0  0  0  0
    7.1202   -3.0453    0.7693 H   0  0  0  0  0  0  0  0  0  0  0  0
    5.8574   -4.9696   -1.2579 H   0  0  0  0  0  0  0  0  0  0  0  0
    4.6325   -7.0561   -0.8362 H   0  0  0  0  0  0  0  0  0  0  0  0
    3.0476   -2.8176    1.2425 H   0  0  0  0  0  0  0  0  0  0  0  0
    0.6687   -4.6045    1.4694 H   0  0  0  0  0  0  0  0  0  0  0  0
    1.7246   -4.9786    2.8631 H   0  0  0  0  0  0  0  0  0  0  0  0
    0.4097   -6.8708    1.0226 H   0  0  0  0  0  0  0  0  0  0  0  0
    1.3324   -7.2359    2.4877 H   0  0  0  0  0  0  0  0  0  0  0  0
    7.2846   -0.4190    1.5306 H   0  0  0  0  0  0  0  0  0  0  0  0
    8.2138    2.0000    2.5802 H   0  0  0  0  0  0  0  0  0  0  0  0
    6.8064    2.9564    3.0742 H   0  0  0  0  0  0  0  0  0  0  0  0
    7.6528    3.3332    1.5576 H   0  0  0  0  0  0  0  0  0  0  0  0
  1  2  1  0  0  0  0
  1 23  1  0  0  0  0
  1 24  1  0  0  0  0
  1 25  1  0  0  0  0
  2  3  1  0  0  0  0
  2 22  2  0  0  0  0
  3  4  2  0  0  0  0
  4  5  1  0  0  0  0
  4 16  1  0  0  0  0
  5  6  1  0  0  0  0
  5  7  1  0  0  0  0
  6 26  1  0  0  0  0
  6 27  1  0  0  0  0
  6 28  1  0  0  0  0
  7  8  1  0  0  0  0
  7 12  2  0  0  0  0
  8  9  2  0  0  0  0
  8 29  1  0  0  0  0
  9 10  1  0  0  0  0
  9 30  1  0  0  0  0
 10 11  2  0  0  0  0
 10 15  1  0  0  0  0
 11 12  1  0  0  0  0
 11 13  1  0  0  0  0
 12 31  1  0  0  0  0
 13 14  1  0  0  0  0
 13 32  1  0  0  0  0
 13 33  1  0  0  0  0
 14 15  1  0  0  0  0
 14 34  1  0  0  0  0
 14 35  1  0  0  0  0
 16 17  1  0  0  0  0
 16 21  2  0  0  0  0
 17 18  2  0  0  0  0
 17 36  1  0  0  0  0
 18 19  1  0  0  0  0
 18 20  1  0  0  0  0
 19 37  1  0  0  0  0
 19 38  1  0  0  0  0
 19 39  1  0  0  0  0
 20 21  1  0  0  0  0
 21 22  1  0  0  0  0
M  END
$$$$
