CHEMBL2086754
 OpenBabel04072215363D

 67 72  0  0  0  0  0  0  0  0999 V2000
    1.5829    2.9184    3.9956 C   0  0  0  0  0  0  0  0  0  0  0  0
    2.8937    3.5851    3.5949 C   0  0  0  0  0  0  0  0  0  0  0  0
    2.7872    4.4578    2.4100 N   0  0  0  0  0  0  0  0  0  0  0  0
    4.1046    5.0740    2.1599 C   0  0  0  0  0  0  0  0  0  0  0  0
    4.0798    5.9940    0.9425 C   0  0  0  0  0  0  0  0  0  0  0  0
    3.6424    5.2383   -0.3163 C   0  0  0  0  0  0  0  0  0  0  0  0
    4.6081    4.1885   -0.7019 N   0  0  0  0  0  0  0  0  0  0  0  0
    5.9354    4.5237   -1.0017 C   0  0  0  0  0  0  0  0  0  0  0  0
    6.3009    5.7553   -1.5772 C   0  0  0  0  0  0  0  0  0  0  0  0
    7.6325    6.0539   -1.8575 C   0  0  0  0  0  0  0  0  0  0  0  0
    8.5719    5.0858   -1.5747 C   0  0  0  0  0  0  0  0  0  0  0  0
    8.2537    3.8286   -1.0509 C   0  0  0  0  0  0  0  0  0  0  0  0
    6.9233    3.5400   -0.7846 C   0  0  0  0  0  0  0  0  0  0  0  0
    9.5417    3.1091   -0.8881 C   0  0  0  0  0  0  0  0  0  0  0  0
    9.8072    1.8409   -0.4938 C   0  0  0  0  0  0  0  0  0  0  0  0
    8.7223    0.8964   -0.1435 C   0  0  0  0  0  0  0  0  0  0  0  0
    8.1557    0.0860   -1.1351 C   0  0  0  0  0  0  0  0  0  0  0  0
    7.1479   -0.8261   -0.8125 C   0  0  0  0  0  0  0  0  0  0  0  0
    6.6976   -0.9471    0.5069 C   0  0  0  0  0  0  0  0  0  0  0  0
    5.6110   -1.9184    0.8637 C   0  0  0  0  0  0  0  0  0  0  0  0
    7.2845   -0.1562    1.5028 C   0  0  0  0  0  0  0  0  0  0  0  0
    8.2897    0.7607    1.1816 C   0  0  0  0  0  0  0  0  0  0  0  0
   11.1518    1.3602   -0.5113 C   0  0  0  0  0  0  0  0  0  0  0  0
   11.8313    0.7552   -1.4656 N   0  0  0  0  0  0  0  0  0  0  0  0
   13.0713    0.5001   -0.9299 C   0  0  0  0  0  0  0  0  0  0  0  0
   14.1990   -0.0902   -1.5183 C   0  0  0  0  0  0  0  0  0  0  0  0
   15.3577   -0.2461   -0.7461 C   0  0  0  0  0  0  0  0  0  0  0  0
   15.3906    0.1706    0.5873 C   0  0  0  0  0  0  0  0  0  0  0  0
   14.2748    0.7610    1.1930 C   0  0  0  0  0  0  0  0  0  0  0  0
   13.1375    0.9122    0.3961 C   0  0  0  0  0  0  0  0  0  0  0  0
   11.9013    1.4540    0.6380 N   0  0  0  0  0  0  0  0  0  0  0  0
   10.6208    4.1058   -1.2909 C   0  0  0  0  0  0  0  0  0  0  0  0
   11.8288    4.0179   -1.1921 O   0  0  0  0  0  0  0  0  0  0  0  0
    9.9426    5.2265   -1.7295 N   0  0  0  0  0  0  0  0  0  0  0  0
    2.2843    4.5918   -0.0316 C   0  0  0  0  0  0  0  0  0  0  0  0
    2.3229    3.7181    1.2249 C   0  0  0  0  0  0  0  0  0  0  0  0
    1.7013    2.4168    4.9614 H   0  0  0  0  0  0  0  0  0  0  0  0
    1.2794    2.1568    3.2705 H   0  0  0  0  0  0  0  0  0  0  0  0
    0.7773    3.6530    4.0916 H   0  0  0  0  0  0  0  0  0  0  0  0
    3.6556    2.8094    3.4421 H   0  0  0  0  0  0  0  0  0  0  0  0
    3.2225    4.1929    4.4475 H   0  0  0  0  0  0  0  0  0  0  0  0
    4.8784    4.3057    2.0299 H   0  0  0  0  0  0  0  0  0  0  0  0
    4.3971    5.6755    3.0295 H   0  0  0  0  0  0  0  0  0  0  0  0
    5.0646    6.4561    0.8182 H   0  0  0  0  0  0  0  0  0  0  0  0
    3.3791    6.8193    1.1284 H   0  0  0  0  0  0  0  0  0  0  0  0
    3.5113    5.9387   -1.1495 H   0  0  0  0  0  0  0  0  0  0  0  0
    4.2419    3.5941   -1.4463 H   0  0  0  0  0  0  0  0  0  0  0  0
    5.5507    6.5084   -1.7989 H   0  0  0  0  0  0  0  0  0  0  0  0
    7.9082    7.0175   -2.2688 H   0  0  0  0  0  0  0  0  0  0  0  0
    6.6228    2.5851   -0.3682 H   0  0  0  0  0  0  0  0  0  0  0  0
    8.5073    0.1540   -2.1631 H   0  0  0  0  0  0  0  0  0  0  0  0
    6.7244   -1.4450   -1.6003 H   0  0  0  0  0  0  0  0  0  0  0  0
    5.2041   -2.4105   -0.0260 H   0  0  0  0  0  0  0  0  0  0  0  0
    4.7868   -1.3945    1.3587 H   0  0  0  0  0  0  0  0  0  0  0  0
    5.9989   -2.6934    1.5323 H   0  0  0  0  0  0  0  0  0  0  0  0
    6.9615   -0.2534    2.5372 H   0  0  0  0  0  0  0  0  0  0  0  0
    8.7294    1.3619    1.9727 H   0  0  0  0  0  0  0  0  0  0  0  0
   14.1652   -0.4082   -2.5537 H   0  0  0  0  0  0  0  0  0  0  0  0
   16.2413   -0.6937   -1.1944 H   0  0  0  0  0  0  0  0  0  0  0  0
   16.3034    0.0389    1.1647 H   0  0  0  0  0  0  0  0  0  0  0  0
   14.3032    1.0899    2.2256 H   0  0  0  0  0  0  0  0  0  0  0  0
   11.6002    1.8735    1.5035 H   0  0  0  0  0  0  0  0  0  0  0  0
   10.4217    6.0557   -2.0447 H   0  0  0  0  0  0  0  0  0  0  0  0
    1.9569    3.9897   -0.8873 H   0  0  0  0  0  0  0  0  0  0  0  0
    1.5325    5.3816    0.1037 H   0  0  0  0  0  0  0  0  0  0  0  0
    2.9501    2.8358    1.0441 H   0  0  0  0  0  0  0  0  0  0  0  0
    1.2999    3.3616    1.3878 H   0  0  0  0  0  0  0  0  0  0  0  0
  1  2  1  0  0  0  0
  1 37  1  0  0  0  0
  1 38  1  0  0  0  0
  1 39  1  0  0  0  0
  2  3  1  0  0  0  0
  2 40  1  0  0  0  0
  2 41  1  0  0  0  0
  3  4  1  0  0  0  0
  3 36  1  0  0  0  0
  4  5  1  0  0  0  0
  4 42  1  0  0  0  0
  4 43  1  0  0  0  0
  5  6  1  0  0  0  0
  5 44  1  0  0  0  0
  5 45  1  0  0  0  0
  6  7  1  0  0  0  0
  6 35  1  0  0  0  0
  6 46  1  0  0  0  0
  7  8  1  0  0  0  0
  7 47  1  0  0  0  0
  8  9  1  0  0  0  0
  8 13  2  0  0  0  0
  9 10  2  0  0  0  0
  9 48  1  0  0  0  0
 10 11  1  0  0  0  0
 10 49  1  0  0  0  0
 11 12  2  0  0  0  0
 11 34  1  0  0  0  0
 12 13  1  0  0  0  0
 12 14  1  0  0  0  0
 13 50  1  0  0  0  0
 14 15  2  3  0  0  0
 14 32  1  0  0  0  0
 15 16  1  0  0  0  0
 15 23  1  0  0  0  0
 16 17  1  0  0  0  0
 16 22  2  0  0  0  0
 17 18  2  0  0  0  0
 17 51  1  0  0  0  0
 18 19  1  0  0  0  0
 18 52  1  0  0  0  0
 19 20  1  0  0  0  0
 19 21  2  0  0  0  0
 20 53  1  0  0  0  0
 20 54  1  0  0  0  0
 20 55  1  0  0  0  0
 21 22  1  0  0  0  0
 21 56  1  0  0  0  0
 22 57  1  0  0  0  0
 23 24  2  0  0  0  0
 23 31  1  0  0  0  0
 24 25  1  0  0  0  0
 25 26  1  0  0  0  0
 25 30  2  0  0  0  0
 26 27  2  0  0  0  0
 26 58  1  0  0  0  0
 27 28  1  0  0  0  0
 27 59  1  0  0  0  0
 28 29  2  0  0  0  0
 28 60  1  0  0  0  0
 29 30  1  0  0  0  0
 29 61  1  0  0  0  0
 30 31  1  0  0  0  0
 31 62  1  0  0  0  0
 32 33  2  0  0  0  0
 32 34  1  0  0  0  0
 34 63  1  0  0  0  0
 35 36  1  0  0  0  0
 35 64  1  0  0  0  0
 35 65  1  0  0  0  0
 36 66  1  0  0  0  0
 36 67  1  0  0  0  0
M  END
$$$$
