CHEMBL3099471
 OpenBabel04072215363D

 79 81  0  0  0  0  0  0  0  0999 V2000
    0.0188   -3.3300   -0.6839 C   0  0  0  0  0  0  0  0  0  0  0  0
    1.5433   -3.2221   -0.7028 C   0  0  0  0  0  0  0  0  0  0  0  0
    2.1185   -2.7363   -1.9716 N   0  0  0  0  0  0  0  0  0  0  0  0
    1.5416   -1.4619   -2.4310 C   0  0  0  0  0  0  0  0  0  0  0  0
    1.8469   -0.2332   -1.5801 C   0  0  0  0  0  0  0  0  0  0  0  0
    3.6029   -2.7543   -1.8890 C   0  0  0  0  0  0  0  0  0  0  0  0
    4.3285   -2.3407   -3.1827 C   0  0  0  0  0  0  0  0  0  0  0  0
    5.7637   -2.4520   -3.0599 O   0  0  0  0  0  0  0  0  0  0  0  0
    6.4588   -2.0363   -4.1782 C   0  0  0  0  0  0  0  0  0  0  0  0
    5.9504   -1.1337   -5.1030 C   0  0  0  0  0  0  0  0  0  0  0  0
    6.6874   -0.7961   -6.2259 C   0  0  0  0  0  0  0  0  0  0  0  0
    7.9667   -1.3334   -6.4675 C   0  0  0  0  0  0  0  0  0  0  0  0
    8.6081   -0.8290   -7.7311 C   0  0  0  0  0  0  0  0  0  0  0  0
    8.5148   -2.2506   -5.5408 C   0  0  0  0  0  0  0  0  0  0  0  0
    9.7861   -2.9022   -5.6471 N   0  0  0  0  0  0  0  0  0  0  0  0
   10.5199   -3.1328   -6.7952 C   0  0  0  0  0  0  0  0  0  0  0  0
   10.1499   -2.9036   -7.9358 O   0  0  0  0  0  0  0  0  0  0  0  0
   11.7572   -3.7372   -6.5562 N   0  0  0  0  0  0  0  0  0  0  0  0
   12.6432   -3.8737   -7.6688 C   0  0  0  0  0  0  0  0  0  0  0  0
   13.0101   -2.7556   -8.4225 C   0  0  0  0  0  0  0  0  0  0  0  0
   13.7410   -2.8855   -9.6127 C   0  0  0  0  0  0  0  0  0  0  0  0
   14.1263   -1.8089  -10.3681 O   0  0  0  0  0  0  0  0  0  0  0  0
   13.8750   -0.5009   -9.8754 C   0  0  0  0  0  0  0  0  0  0  0  0
   14.0717   -4.1781  -10.0721 C   0  0  0  0  0  0  0  0  0  0  0  0
   14.6315   -4.4690  -11.3006 O   0  0  0  0  0  0  0  0  0  0  0  0
   15.1270   -3.4500  -12.1531 C   0  0  0  0  0  0  0  0  0  0  0  0
   13.7896   -5.3239   -9.2680 C   0  0  0  0  0  0  0  0  0  0  0  0
   14.1947   -6.7028   -9.6663 C   0  0  0  0  0  0  0  0  0  0  0  0
   13.3912   -7.8160   -9.4241 C   0  0  0  0  0  0  0  0  0  0  0  0
   13.8151   -9.1014   -9.7855 C   0  0  0  0  0  0  0  0  0  0  0  0
   15.0324   -9.3346  -10.4672 C   0  0  0  0  0  0  0  0  0  0  0  0
   15.3245  -10.7669  -10.8038 C   0  0  0  0  0  0  0  0  0  0  0  0
   14.1700  -11.7281  -11.0115 C   0  0  0  0  0  0  0  0  0  0  0  0
   16.4719  -11.2007  -10.8399 O   0  0  0  0  0  0  0  0  0  0  0  0
   15.8593   -8.2329  -10.7224 C   0  0  0  0  0  0  0  0  0  0  0  0
   17.0579   -8.0758  -11.3502 O   0  0  0  0  0  0  0  0  0  0  0  0
   17.7867   -9.1213  -11.9511 C   0  0  0  0  0  0  0  0  0  0  0  0
   15.4277   -6.9585  -10.2873 C   0  0  0  0  0  0  0  0  0  0  0  0
   13.0902   -5.1341   -8.0521 C   0  0  0  0  0  0  0  0  0  0  0  0
    7.7526   -2.5533   -4.3794 C   0  0  0  0  0  0  0  0  0  0  0  0
   -0.3034   -3.8945    0.1977 H   0  0  0  0  0  0  0  0  0  0  0  0
   -0.3590   -3.8505   -1.5700 H   0  0  0  0  0  0  0  0  0  0  0  0
   -0.4565   -2.3451   -0.6271 H   0  0  0  0  0  0  0  0  0  0  0  0
    1.9335   -4.2296   -0.5131 H   0  0  0  0  0  0  0  0  0  0  0  0
    1.8627   -2.5961    0.1389 H   0  0  0  0  0  0  0  0  0  0  0  0
    0.4536   -1.5618   -2.5242 H   0  0  0  0  0  0  0  0  0  0  0  0
    1.8612   -1.2659   -3.4618 H   0  0  0  0  0  0  0  0  0  0  0  0
    1.6314   -0.3998   -0.5212 H   0  0  0  0  0  0  0  0  0  0  0  0
    1.2272    0.6079   -1.9101 H   0  0  0  0  0  0  0  0  0  0  0  0
    2.8935    0.0700   -1.6782 H   0  0  0  0  0  0  0  0  0  0  0  0
    3.9326   -3.7710   -1.6391 H   0  0  0  0  0  0  0  0  0  0  0  0
    3.9524   -2.1165   -1.0671 H   0  0  0  0  0  0  0  0  0  0  0  0
    4.0615   -1.2988   -3.3706 H   0  0  0  0  0  0  0  0  0  0  0  0
    3.9928   -2.9771   -4.0113 H   0  0  0  0  0  0  0  0  0  0  0  0
    4.9856   -0.6547   -4.9956 H   0  0  0  0  0  0  0  0  0  0  0  0
    6.2515   -0.0894   -6.9296 H   0  0  0  0  0  0  0  0  0  0  0  0
    8.1294    0.0932   -8.0827 H   0  0  0  0  0  0  0  0  0  0  0  0
    8.4692   -1.5551   -8.5374 H   0  0  0  0  0  0  0  0  0  0  0  0
    9.6591   -0.5722   -7.5751 H   0  0  0  0  0  0  0  0  0  0  0  0
   10.1090   -3.3769   -4.8170 H   0  0  0  0  0  0  0  0  0  0  0  0
   11.6839   -4.5477   -5.9577 H   0  0  0  0  0  0  0  0  0  0  0  0
   12.6837   -1.7810   -8.0748 H   0  0  0  0  0  0  0  0  0  0  0  0
   14.3436    0.2083  -10.5654 H   0  0  0  0  0  0  0  0  0  0  0  0
   14.3279   -0.3484   -8.8903 H   0  0  0  0  0  0  0  0  0  0  0  0
   12.8010   -0.2929   -9.8609 H   0  0  0  0  0  0  0  0  0  0  0  0
   15.5795   -3.9440  -13.0199 H   0  0  0  0  0  0  0  0  0  0  0  0
   15.9185   -2.8725  -11.6671 H   0  0  0  0  0  0  0  0  0  0  0  0
   14.3212   -2.8176  -12.5359 H   0  0  0  0  0  0  0  0  0  0  0  0
   12.4179   -7.7082   -8.9504 H   0  0  0  0  0  0  0  0  0  0  0  0
   13.1592   -9.9215   -9.5020 H   0  0  0  0  0  0  0  0  0  0  0  0
   13.2211  -11.2245  -11.2078 H   0  0  0  0  0  0  0  0  0  0  0  0
   14.0695  -12.3578  -10.1218 H   0  0  0  0  0  0  0  0  0  0  0  0
   14.3782  -12.3562  -11.8817 H   0  0  0  0  0  0  0  0  0  0  0  0
   18.6162   -8.6529  -12.4946 H   0  0  0  0  0  0  0  0  0  0  0  0
   17.1938   -9.6698  -12.6863 H   0  0  0  0  0  0  0  0  0  0  0  0
   18.2445   -9.7589  -11.1926 H   0  0  0  0  0  0  0  0  0  0  0  0
   16.1065   -6.1236  -10.4696 H   0  0  0  0  0  0  0  0  0  0  0  0
   12.8339   -5.9949   -7.4408 H   0  0  0  0  0  0  0  0  0  0  0  0
    8.1441   -3.2412   -3.6329 H   0  0  0  0  0  0  0  0  0  0  0  0
  1  2  1  0  0  0  0
  1 41  1  0  0  0  0
  1 42  1  0  0  0  0
  1 43  1  0  0  0  0
  2  3  1  0  0  0  0
  2 44  1  0  0  0  0
  2 45  1  0  0  0  0
  3  4  1  0  0  0  0
  3  6  1  0  0  0  0
  4  5  1  0  0  0  0
  4 46  1  0  0  0  0
  4 47  1  0  0  0  0
  5 48  1  0  0  0  0
  5 49  1  0  0  0  0
  5 50  1  0  0  0  0
  6  7  1  0  0  0  0
  6 51  1  0  0  0  0
  6 52  1  0  0  0  0
  7  8  1  0  0  0  0
  7 53  1  0  0  0  0
  7 54  1  0  0  0  0
  8  9  1  0  0  0  0
  9 10  1  0  0  0  0
  9 40  2  0  0  0  0
 10 11  2  0  0  0  0
 10 55  1  0  0  0  0
 11 12  1  0  0  0  0
 11 56  1  0  0  0  0
 12 13  1  0  0  0  0
 12 14  2  0  0  0  0
 13 57  1  0  0  0  0
 13 58  1  0  0  0  0
 13 59  1  0  0  0  0
 14 15  1  0  0  0  0
 14 40  1  0  0  0  0
 15 16  1  0  0  0  0
 15 60  1  0  0  0  0
 16 17  2  0  0  0  0
 16 18  1  0  0  0  0
 18 19  1  0  0  0  0
 18 61  1  0  0  0  0
 19 20  1  0  0  0  0
 19 39  2  0  0  0  0
 20 21  2  0  0  0  0
 20 62  1  0  0  0  0
 21 22  1  0  0  0  0
 21 24  1  0  0  0  0
 22 23  1  0  0  0  0
 23 63  1  0  0  0  0
 23 64  1  0  0  0  0
 23 65  1  0  0  0  0
 24 25  1  0  0  0  0
 24 27  2  0  0  0  0
 25 26  1  0  0  0  0
 26 66  1  0  0  0  0
 26 67  1  0  0  0  0
 26 68  1  0  0  0  0
 27 28  1  0  0  0  0
 27 39  1  0  0  0  0
 28 29  1  0  0  0  0
 28 38  2  0  0  0  0
 29 30  2  0  0  0  0
 29 69  1  0  0  0  0
 30 31  1  0  0  0  0
 30 70  1  0  0  0  0
 31 32  1  0  0  0  0
 31 35  2  0  0  0  0
 32 33  1  0  0  0  0
 32 34  2  0  0  0  0
 33 71  1  0  0  0  0
 33 72  1  0  0  0  0
 33 73  1  0  0  0  0
 35 36  1  0  0  0  0
 35 38  1  0  0  0  0
 36 37  1  0  0  0  0
 37 74  1  0  0  0  0
 37 75  1  0  0  0  0
 37 76  1  0  0  0  0
 38 77  1  0  0  0  0
 39 78  1  0  0  0  0
 40 79  1  0  0  0  0
M  END
$$$$
