CHEMBL3633762
 OpenBabel04072215373D

 44 46  0  0  0  0  0  0  0  0999 V2000
    2.8936   -0.0610    1.5990 C   0  0  0  0  0  0  0  0  0  0  0  0
    2.5501   -0.0336    0.2157 O   0  0  0  0  0  0  0  0  0  0  0  0
    3.1914   -0.8691   -0.6534 C   0  0  0  0  0  0  0  0  0  0  0  0
    4.3939   -1.5211   -0.3502 C   0  0  0  0  0  0  0  0  0  0  0  0
    5.0127   -2.3961   -1.2318 C   0  0  0  0  0  0  0  0  0  0  0  0
    6.1457   -2.9850   -0.8443 N   0  0  0  0  0  0  0  0  0  0  0  0
    6.7199   -3.8124   -1.7206 C   0  0  0  0  0  0  0  0  0  0  0  0
    6.2811   -4.0745   -2.9516 N   0  0  0  0  0  0  0  0  0  0  0  0
    5.1490   -3.4619   -3.3436 C   0  0  0  0  0  0  0  0  0  0  0  0
    4.6981   -3.6504   -4.6814 N   0  0  0  0  0  0  0  0  0  0  0  0
    5.2540   -4.6132   -5.5535 C   0  0  0  0  0  0  0  0  0  0  0  0
    5.3855   -5.9468   -5.1436 C   0  0  0  0  0  0  0  0  0  0  0  0
    6.0179   -6.8908   -5.9509 C   0  0  0  0  0  0  0  0  0  0  0  0
    6.5157   -6.5089   -7.1944 C   0  0  0  0  0  0  0  0  0  0  0  0
    6.3570   -5.1949   -7.6279 C   0  0  0  0  0  0  0  0  0  0  0  0
    7.0440   -4.6794   -9.3141 Br  0  0  0  0  0  0  0  0  0  0  0  0
    5.7198   -4.2466   -6.8235 C   0  0  0  0  0  0  0  0  0  0  0  0
    4.4340   -2.6145   -2.4842 C   0  0  0  0  0  0  0  0  0  0  0  0
    3.2190   -1.9759   -2.8030 C   0  0  0  0  0  0  0  0  0  0  0  0
    2.6231   -1.0754   -1.9176 C   0  0  0  0  0  0  0  0  0  0  0  0
    1.4981   -0.5046   -2.4427 O   0  0  0  0  0  0  0  0  0  0  0  0
    1.1966    0.8539   -2.1223 C   0  0  0  0  0  0  0  0  0  0  0  0
    2.2970    1.8420   -2.5097 C   0  0  0  0  0  0  0  0  0  0  0  0
    1.8687    3.2409   -2.1577 C   0  0  0  0  0  0  0  0  0  0  0  0
    0.7436    3.5405   -1.7614 O   0  0  0  0  0  0  0  0  0  0  0  0
    2.8419    4.1949   -2.3245 N   0  0  0  0  0  0  0  0  0  0  0  0
    2.4053    5.5273   -2.0965 O   0  0  0  0  0  0  0  0  0  0  0  0
    3.4692    0.8369    1.8437 H   0  0  0  0  0  0  0  0  0  0  0  0
    3.4351   -0.9520    1.9275 H   0  0  0  0  0  0  0  0  0  0  0  0
    1.9628   -0.0381    2.1734 H   0  0  0  0  0  0  0  0  0  0  0  0
    4.9070   -1.3534    0.5918 H   0  0  0  0  0  0  0  0  0  0  0  0
    7.6307   -4.3090   -1.4089 H   0  0  0  0  0  0  0  0  0  0  0  0
    4.6037   -2.7432   -5.1259 H   0  0  0  0  0  0  0  0  0  0  0  0
    5.0142   -6.2468   -4.1651 H   0  0  0  0  0  0  0  0  0  0  0  0
    6.1362   -7.9091   -5.5970 H   0  0  0  0  0  0  0  0  0  0  0  0
    7.0328   -7.2403   -7.8093 H   0  0  0  0  0  0  0  0  0  0  0  0
    5.6241   -3.2221   -7.1697 H   0  0  0  0  0  0  0  0  0  0  0  0
    2.7270   -2.1709   -3.7541 H   0  0  0  0  0  0  0  0  0  0  0  0
    0.8755    0.9509   -1.0823 H   0  0  0  0  0  0  0  0  0  0  0  0
    0.3056    1.0955   -2.7187 H   0  0  0  0  0  0  0  0  0  0  0  0
    2.4977    1.7816   -3.5864 H   0  0  0  0  0  0  0  0  0  0  0  0
    3.2373    1.6223   -1.9944 H   0  0  0  0  0  0  0  0  0  0  0  0
    3.6355    4.0821   -2.9411 H   0  0  0  0  0  0  0  0  0  0  0  0
    1.4728    5.3972   -1.8103 H   0  0  0  0  0  0  0  0  0  0  0  0
  1  2  1  0  0  0  0
  1 28  1  0  0  0  0
  1 29  1  0  0  0  0
  1 30  1  0  0  0  0
  2  3  1  0  0  0  0
  3  4  1  0  0  0  0
  3 20  2  0  0  0  0
  4  5  2  0  0  0  0
  4 31  1  0  0  0  0
  5  6  1  0  0  0  0
  5 18  1  0  0  0  0
  6  7  2  0  0  0  0
  7  8  1  0  0  0  0
  7 32  1  0  0  0  0
  8  9  2  0  0  0  0
  9 10  1  0  0  0  0
  9 18  1  0  0  0  0
 10 11  1  0  0  0  0
 10 33  1  0  0  0  0
 11 12  1  0  0  0  0
 11 17  2  0  0  0  0
 12 13  2  0  0  0  0
 12 34  1  0  0  0  0
 13 14  1  0  0  0  0
 13 35  1  0  0  0  0
 14 15  2  0  0  0  0
 14 36  1  0  0  0  0
 15 16  1  0  0  0  0
 15 17  1  0  0  0  0
 17 37  1  0  0  0  0
 18 19  2  0  0  0  0
 19 20  1  0  0  0  0
 19 38  1  0  0  0  0
 20 21  1  0  0  0  0
 21 22  1  0  0  0  0
 22 23  1  0  0  0  0
 22 39  1  0  0  0  0
 22 40  1  0  0  0  0
 23 24  1  0  0  0  0
 23 41  1  0  0  0  0
 23 42  1  0  0  0  0
 24 25  2  0  0  0  0
 24 26  1  0  0  0  0
 26 27  1  0  0  0  0
 26 43  1  0  0  0  0
 27 44  1  0  0  0  0
M  END
$$$$
