CHEMBL3948661
 OpenBabel04072215373D

 54 58  0  0  0  0  0  0  0  0999 V2000
    1.1688   -0.3757   -0.1972 C   0  0  0  0  0  0  0  0  0  0  0  0
    2.5706   -0.2159   -0.0400 O   0  0  0  0  0  0  0  0  0  0  0  0
    3.1482   -0.5131    1.1596 C   0  0  0  0  0  0  0  0  0  0  0  0
    4.2832    0.2674    1.4197 C   0  0  0  0  0  0  0  0  0  0  0  0
    5.0472    0.0993    2.6024 C   0  0  0  0  0  0  0  0  0  0  0  0
    6.1600    0.8581    2.9868 C   0  0  0  0  0  0  0  0  0  0  0  0
    6.5773    1.9532    2.1843 N   0  0  0  0  0  0  0  0  0  0  0  0
    7.8549    2.5393    2.3042 C   0  0  0  0  0  0  0  0  0  0  0  0
    8.9977    1.7263    2.3191 C   0  0  0  0  0  0  0  0  0  0  0  0
   10.2608    2.2677    2.5413 C   0  0  0  0  0  0  0  0  0  0  0  0
   10.4018    3.6394    2.7408 C   0  0  0  0  0  0  0  0  0  0  0  0
   11.9875    4.2402    3.0681 Cl  0  0  0  0  0  0  0  0  0  0  0  0
    9.2749    4.4685    2.6871 C   0  0  0  0  0  0  0  0  0  0  0  0
    9.3778    6.1784    2.9198 Cl  0  0  0  0  0  0  0  0  0  0  0  0
    8.0060    3.9194    2.4607 C   0  0  0  0  0  0  0  0  0  0  0  0
    6.8557    0.5940    4.1137 N   0  0  0  0  0  0  0  0  0  0  0  0
    6.4384   -0.4229    4.8654 C   0  0  0  0  0  0  0  0  0  0  0  0
    5.3877   -1.1973    4.6034 N   0  0  0  0  0  0  0  0  0  0  0  0
    4.7160   -0.9240    3.4847 C   0  0  0  0  0  0  0  0  0  0  0  0
    3.6203   -1.7067    3.2013 C   0  0  0  0  0  0  0  0  0  0  0  0
    2.7870   -1.4933    2.0871 C   0  0  0  0  0  0  0  0  0  0  0  0
    1.6478   -2.2453    1.9071 O   0  0  0  0  0  0  0  0  0  0  0  0
    1.1481   -2.8034    3.1330 C   0  0  0  0  0  0  0  0  0  0  0  0
   -0.2802   -3.2525    3.0369 C   0  0  0  0  0  0  0  0  0  0  0  0
   -1.1255   -3.0726    4.1335 C   0  0  0  0  0  0  0  0  0  0  0  0
   -2.4348   -3.5496    4.0943 C   0  0  0  0  0  0  0  0  0  0  0  0
   -2.9215   -4.2107    2.9833 C   0  0  0  0  0  0  0  0  0  0  0  0
   -4.1973   -4.6162    3.0201 N   0  0  0  0  0  0  0  0  0  0  0  0
   -4.7207   -5.2643    1.9471 C   0  0  0  0  0  0  0  0  0  0  0  0
   -6.1847   -5.6711    1.9745 C   0  0  0  0  0  0  0  0  0  0  0  0
   -6.8367   -5.3362    3.1227 F   0  0  0  0  0  0  0  0  0  0  0  0
   -6.8949   -5.0964    0.9611 F   0  0  0  0  0  0  0  0  0  0  0  0
   -6.3534   -7.0159    1.8257 F   0  0  0  0  0  0  0  0  0  0  0  0
   -3.9616   -5.5460    0.8198 C   0  0  0  0  0  0  0  0  0  0  0  0
   -2.6357   -5.1277    0.7909 C   0  0  0  0  0  0  0  0  0  0  0  0
   -1.7221   -5.4986   -0.6328 Cl  0  0  0  0  0  0  0  0  0  0  0  0
   -2.0783   -4.4292    1.8778 C   0  0  0  0  0  0  0  0  0  0  0  0
   -0.7510   -3.9444    1.9202 C   0  0  0  0  0  0  0  0  0  0  0  0
    0.8000    0.5222   -0.7058 H   0  0  0  0  0  0  0  0  0  0  0  0
    0.6122   -0.4587    0.7383 H   0  0  0  0  0  0  0  0  0  0  0  0
    0.9704   -1.2304   -0.8506 H   0  0  0  0  0  0  0  0  0  0  0  0
    4.5752    1.0173    0.6866 H   0  0  0  0  0  0  0  0  0  0  0  0
    5.8239    2.6304    2.1224 H   0  0  0  0  0  0  0  0  0  0  0  0
    8.8961    0.6504    2.1869 H   0  0  0  0  0  0  0  0  0  0  0  0
   11.1215    1.6058    2.5765 H   0  0  0  0  0  0  0  0  0  0  0  0
    7.1359    4.5702    2.4490 H   0  0  0  0  0  0  0  0  0  0  0  0
    6.9975   -0.6384    5.7682 H   0  0  0  0  0  0  0  0  0  0  0  0
    3.4294   -2.5069    3.9104 H   0  0  0  0  0  0  0  0  0  0  0  0
    1.1970   -2.0470    3.9291 H   0  0  0  0  0  0  0  0  0  0  0  0
    1.7420   -3.6847    3.4079 H   0  0  0  0  0  0  0  0  0  0  0  0
   -0.7766   -2.5697    5.0331 H   0  0  0  0  0  0  0  0  0  0  0  0
   -3.0796   -3.4039    4.9565 H   0  0  0  0  0  0  0  0  0  0  0  0
   -4.3971   -6.0722   -0.0239 H   0  0  0  0  0  0  0  0  0  0  0  0
   -0.0721   -4.1098    1.0853 H   0  0  0  0  0  0  0  0  0  0  0  0
  1  2  1  0  0  0  0
  1 39  1  0  0  0  0
  1 40  1  0  0  0  0
  1 41  1  0  0  0  0
  2  3  1  0  0  0  0
  3  4  1  0  0  0  0
  3 21  2  0  0  0  0
  4  5  2  0  0  0  0
  4 42  1  0  0  0  0
  5  6  1  0  0  0  0
  5 19  1  0  0  0  0
  6  7  1  0  0  0  0
  6 16  2  0  0  0  0
  7  8  1  0  0  0  0
  7 43  1  0  0  0  0
  8  9  1  0  0  0  0
  8 15  2  0  0  0  0
  9 10  2  0  0  0  0
  9 44  1  0  0  0  0
 10 11  1  0  0  0  0
 10 45  1  0  0  0  0
 11 12  1  0  0  0  0
 11 13  2  0  0  0  0
 13 14  1  0  0  0  0
 13 15  1  0  0  0  0
 15 46  1  0  0  0  0
 16 17  1  0  0  0  0
 17 18  2  0  0  0  0
 17 47  1  0  0  0  0
 18 19  1  0  0  0  0
 19 20  2  0  0  0  0
 20 21  1  0  0  0  0
 20 48  1  0  0  0  0
 21 22  1  0  0  0  0
 22 23  1  0  0  0  0
 23 24  1  0  0  0  0
 23 49  1  0  0  0  0
 23 50  1  0  0  0  0
 24 25  1  0  0  0  0
 24 38  2  0  0  0  0
 25 26  2  0  0  0  0
 25 51  1  0  0  0  0
 26 27  1  0  0  0  0
 26 52  1  0  0  0  0
 27 28  1  0  0  0  0
 27 37  2  0  0  0  0
 28 29  2  0  0  0  0
 29 30  1  0  0  0  0
 29 34  1  0  0  0  0
 30 31  1  0  0  0  0
 30 32  1  0  0  0  0
 30 33  1  0  0  0  0
 34 35  2  0  0  0  0
 34 53  1  0  0  0  0
 35 36  1  0  0  0  0
 35 37  1  0  0  0  0
 37 38  1  0  0  0  0
 38 54  1  0  0  0  0
M  END
$$$$
