CHEMBL3690445
 OpenBabel04072215373D

 54 58  0  0  0  0  0  0  0  0999 V2000
    2.6701   -0.4001   -1.2416 O   0  0  0  0  0  0  0  0  0  0  0  0
    2.5686   -0.5877   -0.0374 C   0  0  0  0  0  0  0  0  0  0  0  0
    1.5034   -1.2913    0.4864 N   0  0  0  0  0  0  0  0  0  0  0  0
    0.4076   -1.6798   -0.4104 C   0  0  0  0  0  0  0  0  0  0  0  0
   -0.6407   -0.5873   -0.6651 C   0  0  0  0  0  0  0  0  0  0  0  0
   -0.3965    0.5254    0.0668 F   0  0  0  0  0  0  0  0  0  0  0  0
   -0.7110   -0.2305   -1.9631 F   0  0  0  0  0  0  0  0  0  0  0  0
   -1.8690   -1.0312   -0.2981 F   0  0  0  0  0  0  0  0  0  0  0  0
    3.4399   -0.1825    0.9507 N   0  0  0  0  0  0  0  0  0  0  0  0
    4.6491    0.5283    0.7806 C   0  0  0  0  0  0  0  0  0  0  0  0
    5.1451    0.8995   -0.4689 C   0  0  0  0  0  0  0  0  0  0  0  0
    6.3863    1.5193   -0.5787 C   0  0  0  0  0  0  0  0  0  0  0  0
    7.1291    1.8054    0.5613 C   0  0  0  0  0  0  0  0  0  0  0  0
    6.6078    1.5595    1.8385 C   0  0  0  0  0  0  0  0  0  0  0  0
    7.3129    2.0219    3.0410 C   0  0  0  0  0  0  0  0  0  0  0  0
    7.4207    1.4377    4.2941 C   0  0  0  0  0  0  0  0  0  0  0  0
    8.1512    2.2043    5.1648 N   0  0  0  0  0  0  0  0  0  0  0  0
    8.4939    3.2704    4.4774 C   0  0  0  0  0  0  0  0  0  0  0  0
    9.2364    4.4234    4.8740 C   0  0  0  0  0  0  0  0  0  0  0  0
    9.4242    5.4649    4.0255 C   0  0  0  0  0  0  0  0  0  0  0  0
   10.1175    6.6962    4.4858 C   0  0  0  0  0  0  0  0  0  0  0  0
    9.9944    7.1900    5.7754 C   0  0  0  0  0  0  0  0  0  0  0  0
   10.5573    8.4266    6.0880 C   0  0  0  0  0  0  0  0  0  0  0  0
   11.2270    9.1553    5.1135 C   0  0  0  0  0  0  0  0  0  0  0  0
   11.7301   10.4359    5.4434 N   0  0  0  0  0  0  0  0  0  0  0  0
   12.3841   11.3200    4.5217 C   0  0  0  0  0  0  0  0  0  0  0  0
   11.4497   12.4384    4.9656 C   0  0  0  0  0  0  0  0  0  0  0  0
   10.9046   11.4709    6.0062 C   0  0  0  0  0  0  0  0  0  0  0  0
   11.3648    8.6308    3.8795 N   0  0  0  0  0  0  0  0  0  0  0  0
   10.7950    7.4052    3.5572 N   0  0  0  0  0  0  0  0  0  0  0  0
    8.8908    5.3650    2.6607 C   0  0  0  0  0  0  0  0  0  0  0  0
    8.1776    4.2939    2.2890 C   0  0  0  0  0  0  0  0  0  0  0  0
    7.9855    3.2365    3.1809 N   0  0  0  0  0  0  0  0  0  0  0  0
    5.3834    0.8712    1.9310 C   0  0  0  0  0  0  0  0  0  0  0  0
    1.2363   -1.0450    1.4284 H   0  0  0  0  0  0  0  0  0  0  0  0
   -0.0710   -2.5489    0.0514 H   0  0  0  0  0  0  0  0  0  0  0  0
    0.8274   -2.0120   -1.3674 H   0  0  0  0  0  0  0  0  0  0  0  0
    3.2268   -0.4874    1.8881 H   0  0  0  0  0  0  0  0  0  0  0  0
    4.6023    0.7015   -1.3868 H   0  0  0  0  0  0  0  0  0  0  0  0
    6.7740    1.7796   -1.5609 H   0  0  0  0  0  0  0  0  0  0  0  0
    8.1131    2.2445    0.4332 H   0  0  0  0  0  0  0  0  0  0  0  0
    7.0086    0.4904    4.6160 H   0  0  0  0  0  0  0  0  0  0  0  0
    9.6107    4.4227    5.8919 H   0  0  0  0  0  0  0  0  0  0  0  0
    9.4366    6.6577    6.5376 H   0  0  0  0  0  0  0  0  0  0  0  0
   10.4569    8.8239    7.0924 H   0  0  0  0  0  0  0  0  0  0  0  0
   12.3047   11.0415    3.4685 H   0  0  0  0  0  0  0  0  0  0  0  0
   13.4341   11.4666    4.7941 H   0  0  0  0  0  0  0  0  0  0  0  0
   10.7201   12.7389    4.2061 H   0  0  0  0  0  0  0  0  0  0  0  0
   11.9394   13.3287    5.3703 H   0  0  0  0  0  0  0  0  0  0  0  0
    9.8290   11.2830    5.9315 H   0  0  0  0  0  0  0  0  0  0  0  0
   11.1809   11.6885    7.0415 H   0  0  0  0  0  0  0  0  0  0  0  0
    9.0715    6.1830    1.9672 H   0  0  0  0  0  0  0  0  0  0  0  0
    7.7414    4.2290    1.3019 H   0  0  0  0  0  0  0  0  0  0  0  0
    4.9869    0.6233    2.9135 H   0  0  0  0  0  0  0  0  0  0  0  0
  1  2  2  0  0  0  0
  2  3  1  0  0  0  0
  2  9  1  0  0  0  0
  3  4  1  0  0  0  0
  3 35  1  0  0  0  0
  4  5  1  0  0  0  0
  4 36  1  0  0  0  0
  4 37  1  0  0  0  0
  5  6  1  0  0  0  0
  5  7  1  0  0  0  0
  5  8  1  0  0  0  0
  9 10  1  0  0  0  0
  9 38  1  0  0  0  0
 10 11  1  0  0  0  0
 10 34  2  0  0  0  0
 11 12  2  0  0  0  0
 11 39  1  0  0  0  0
 12 13  1  0  0  0  0
 12 40  1  0  0  0  0
 13 14  2  0  0  0  0
 13 41  1  0  0  0  0
 14 15  1  0  0  0  0
 14 34  1  0  0  0  0
 15 16  2  0  0  0  0
 15 33  1  0  0  0  0
 16 17  1  0  0  0  0
 16 42  1  0  0  0  0
 17 18  2  0  0  0  0
 18 19  1  0  0  0  0
 18 33  1  0  0  0  0
 19 20  2  0  0  0  0
 19 43  1  0  0  0  0
 20 21  1  0  0  0  0
 20 31  1  0  0  0  0
 21 22  1  0  0  0  0
 21 30  2  0  0  0  0
 22 23  2  0  0  0  0
 22 44  1  0  0  0  0
 23 24  1  0  0  0  0
 23 45  1  0  0  0  0
 24 25  1  0  0  0  0
 24 29  2  0  0  0  0
 25 26  1  0  0  0  0
 25 28  1  0  0  0  0
 26 27  1  0  0  0  0
 26 46  1  0  0  0  0
 26 47  1  0  0  0  0
 27 28  1  0  0  0  0
 27 48  1  0  0  0  0
 27 49  1  0  0  0  0
 28 50  1  0  0  0  0
 28 51  1  0  0  0  0
 29 30  1  0  0  0  0
 31 32  2  0  0  0  0
 31 52  1  0  0  0  0
 32 33  1  0  0  0  0
 32 53  1  0  0  0  0
 34 54  1  0  0  0  0
M  END
$$$$
