CHEMBL3690546
 OpenBabel04072215373D

 50 53  0  0  0  0  0  0  0  0999 V2000
    2.7735   -2.6492    1.7995 C   0  0  0  0  0  0  0  0  0  0  0  0
    2.3683   -3.0640    0.4669 N   0  0  0  0  0  0  0  0  0  0  0  0
    3.0185   -2.3835   -0.5789 C   0  0  0  0  0  0  0  0  0  0  0  0
    2.6854   -2.7266   -1.8742 C   0  0  0  0  0  0  0  0  0  0  0  0
    3.3365   -2.0637   -2.8999 C   0  0  0  0  0  0  0  0  0  0  0  0
    3.0256   -2.3187   -4.3327 C   0  0  0  0  0  0  0  0  0  0  0  0
    3.1576   -1.2641   -5.3498 C   0  0  0  0  0  0  0  0  0  0  0  0
    2.8344   -1.5084   -6.6308 C   0  0  0  0  0  0  0  0  0  0  0  0
    2.3541   -2.7671   -6.9950 N   0  0  0  0  0  0  0  0  0  0  0  0
    1.8949   -3.2655   -8.2099 C   0  0  0  0  0  0  0  0  0  0  0  0
    1.7886   -2.5665   -9.4986 C   0  0  0  0  0  0  0  0  0  0  0  0
    2.0334   -3.2963  -10.6714 C   0  0  0  0  0  0  0  0  0  0  0  0
    1.9211   -2.6992  -11.9219 C   0  0  0  0  0  0  0  0  0  0  0  0
    1.5631   -1.3580  -12.0228 C   0  0  0  0  0  0  0  0  0  0  0  0
    1.2891   -0.6030  -10.8812 C   0  0  0  0  0  0  0  0  0  0  0  0
    0.9073    0.7601  -10.9340 N   0  0  0  0  0  0  0  0  0  0  0  0
    0.6853    1.5027  -12.0723 C   0  0  0  0  0  0  0  0  0  0  0  0
    0.7423    1.1172  -13.2339 O   0  0  0  0  0  0  0  0  0  0  0  0
    0.4078    2.8230  -11.7943 N   0  0  0  0  0  0  0  0  0  0  0  0
    0.1066    3.7138  -12.9246 C   0  0  0  0  0  0  0  0  0  0  0  0
   -1.3081    3.5950  -13.5117 C   0  0  0  0  0  0  0  0  0  0  0  0
   -2.1119    2.8217  -12.7454 F   0  0  0  0  0  0  0  0  0  0  0  0
   -1.8860    4.8218  -13.5648 F   0  0  0  0  0  0  0  0  0  0  0  0
   -1.3110    3.0982  -14.7649 F   0  0  0  0  0  0  0  0  0  0  0  0
    1.3981   -1.2198   -9.6213 C   0  0  0  0  0  0  0  0  0  0  0  0
    1.6012   -4.5950   -7.9305 C   0  0  0  0  0  0  0  0  0  0  0  0
    1.8300   -4.9202   -6.6258 N   0  0  0  0  0  0  0  0  0  0  0  0
    2.2713   -3.8131   -6.0771 C   0  0  0  0  0  0  0  0  0  0  0  0
    2.6430   -3.5557   -4.7284 C   0  0  0  0  0  0  0  0  0  0  0  0
    4.2463   -1.0993   -2.6604 N   0  0  0  0  0  0  0  0  0  0  0  0
    4.5133   -0.8541   -1.3729 C   0  0  0  0  0  0  0  0  0  0  0  0
    3.9498   -1.4562   -0.3179 N   0  0  0  0  0  0  0  0  0  0  0  0
    2.1520   -3.1660    2.5375 H   0  0  0  0  0  0  0  0  0  0  0  0
    2.6391   -1.5727    1.9516 H   0  0  0  0  0  0  0  0  0  0  0  0
    3.8155   -2.9236    1.9957 H   0  0  0  0  0  0  0  0  0  0  0  0
    1.3623   -3.0007    0.3377 H   0  0  0  0  0  0  0  0  0  0  0  0
    1.9369   -3.4856   -2.0588 H   0  0  0  0  0  0  0  0  0  0  0  0
    3.5331   -0.2929   -5.0400 H   0  0  0  0  0  0  0  0  0  0  0  0
    2.9440   -0.7565   -7.3982 H   0  0  0  0  0  0  0  0  0  0  0  0
    2.3158   -4.3460  -10.6284 H   0  0  0  0  0  0  0  0  0  0  0  0
    2.1116   -3.2758  -12.8232 H   0  0  0  0  0  0  0  0  0  0  0  0
    1.5100   -0.9365  -13.0208 H   0  0  0  0  0  0  0  0  0  0  0  0
    0.8017    1.2387  -10.0525 H   0  0  0  0  0  0  0  0  0  0  0  0
   -0.0796    3.0075  -10.9296 H   0  0  0  0  0  0  0  0  0  0  0  0
    0.8393    3.5299  -13.7200 H   0  0  0  0  0  0  0  0  0  0  0  0
    0.2734    4.7331  -12.5639 H   0  0  0  0  0  0  0  0  0  0  0  0
    1.1437   -0.6505   -8.7325 H   0  0  0  0  0  0  0  0  0  0  0  0
    1.2239   -5.3399   -8.6205 H   0  0  0  0  0  0  0  0  0  0  0  0
    2.5833   -4.4011   -4.0520 H   0  0  0  0  0  0  0  0  0  0  0  0
    5.2518   -0.0889   -1.1614 H   0  0  0  0  0  0  0  0  0  0  0  0
  1  2  1  0  0  0  0
  1 33  1  0  0  0  0
  1 34  1  0  0  0  0
  1 35  1  0  0  0  0
  2  3  1  0  0  0  0
  2 36  1  0  0  0  0
  3  4  1  0  0  0  0
  3 32  2  0  0  0  0
  4  5  2  0  0  0  0
  4 37  1  0  0  0  0
  5  6  1  0  0  0  0
  5 30  1  0  0  0  0
  6  7  1  0  0  0  0
  6 29  2  0  0  0  0
  7  8  2  0  0  0  0
  7 38  1  0  0  0  0
  8  9  1  0  0  0  0
  8 39  1  0  0  0  0
  9 10  1  0  0  0  0
  9 28  1  0  0  0  0
 10 11  1  0  0  0  0
 10 26  2  0  0  0  0
 11 12  1  0  0  0  0
 11 25  2  0  0  0  0
 12 13  2  0  0  0  0
 12 40  1  0  0  0  0
 13 14  1  0  0  0  0
 13 41  1  0  0  0  0
 14 15  2  0  0  0  0
 14 42  1  0  0  0  0
 15 16  1  0  0  0  0
 15 25  1  0  0  0  0
 16 17  1  0  0  0  0
 16 43  1  0  0  0  0
 17 18  2  0  0  0  0
 17 19  1  0  0  0  0
 19 20  1  0  0  0  0
 19 44  1  0  0  0  0
 20 21  1  0  0  0  0
 20 45  1  0  0  0  0
 20 46  1  0  0  0  0
 21 22  1  0  0  0  0
 21 23  1  0  0  0  0
 21 24  1  0  0  0  0
 25 47  1  0  0  0  0
 26 27  1  0  0  0  0
 26 48  1  0  0  0  0
 27 28  2  0  0  0  0
 28 29  1  0  0  0  0
 29 49  1  0  0  0  0
 30 31  2  0  0  0  0
 31 32  1  0  0  0  0
 31 50  1  0  0  0  0
M  END
$$$$
