CHEMBL2086721
 OpenBabel04072215363D

 44 48  0  0  0  0  0  0  0  0999 V2000
    0.0146   -1.1319   -2.6364 C   0  0  0  0  0  0  0  0  0  0  0  0
   -0.2598   -0.6345   -1.2461 C   0  0  0  0  0  0  0  0  0  0  0  0
   -0.8530    0.6413   -1.1268 C   0  0  0  0  0  0  0  0  0  0  0  0
   -1.0916    1.2135    0.1194 C   0  0  0  0  0  0  0  0  0  0  0  0
   -0.7443    0.5159    1.2687 C   0  0  0  0  0  0  0  0  0  0  0  0
   -0.1466   -0.7465    1.1710 C   0  0  0  0  0  0  0  0  0  0  0  0
    0.1159   -1.3413   -0.0792 C   0  0  0  0  0  0  0  0  0  0  0  0
    0.9835   -2.5678   -0.0800 C   0  0  0  0  0  0  0  0  0  0  0  0
    0.5519   -3.8550    0.0108 C   0  0  0  0  0  0  0  0  0  0  0  0
   -0.8949   -4.2819   -0.0522 C   0  0  0  0  0  0  0  0  0  0  0  0
   -1.8929   -3.5946   -0.0848 O   0  0  0  0  0  0  0  0  0  0  0  0
   -0.8677   -5.6737   -0.1169 N   0  0  0  0  0  0  0  0  0  0  0  0
    0.4289   -6.1706   -0.0501 C   0  0  0  0  0  0  0  0  0  0  0  0
    0.8063   -7.5045   -0.0755 C   0  0  0  0  0  0  0  0  0  0  0  0
    2.1636   -7.8026    0.0566 C   0  0  0  0  0  0  0  0  0  0  0  0
    3.0951   -6.7742    0.2472 C   0  0  0  0  0  0  0  0  0  0  0  0
    2.6795   -5.4341    0.2759 C   0  0  0  0  0  0  0  0  0  0  0  0
    1.3413   -5.1223    0.0759 C   0  0  0  0  0  0  0  0  0  0  0  0
    2.3939   -2.3666   -0.1447 C   0  0  0  0  0  0  0  0  0  0  0  0
    3.2971   -2.1994    0.8014 N   0  0  0  0  0  0  0  0  0  0  0  0
    4.5093   -2.1892    0.1540 C   0  0  0  0  0  0  0  0  0  0  0  0
    5.8049   -2.1041    0.6784 C   0  0  0  0  0  0  0  0  0  0  0  0
    6.8874   -2.1362   -0.2100 C   0  0  0  0  0  0  0  0  0  0  0  0
    6.6840   -2.2662   -1.5870 C   0  0  0  0  0  0  0  0  0  0  0  0
    5.3986   -2.3759   -2.1259 C   0  0  0  0  0  0  0  0  0  0  0  0
    4.3420   -2.3289   -1.2186 C   0  0  0  0  0  0  0  0  0  0  0  0
    2.9876   -2.4184   -1.3834 N   0  0  0  0  0  0  0  0  0  0  0  0
   -0.5616   -0.5661   -3.3785 H   0  0  0  0  0  0  0  0  0  0  0  0
   -0.2711   -2.1813   -2.7428 H   0  0  0  0  0  0  0  0  0  0  0  0
    1.0710   -0.9991   -2.8836 H   0  0  0  0  0  0  0  0  0  0  0  0
   -1.1128    1.2131   -2.0165 H   0  0  0  0  0  0  0  0  0  0  0  0
   -1.5317    2.2055    0.1890 H   0  0  0  0  0  0  0  0  0  0  0  0
   -0.9073    0.9677    2.2437 H   0  0  0  0  0  0  0  0  0  0  0  0
    0.1678   -1.2417    2.0877 H   0  0  0  0  0  0  0  0  0  0  0  0
   -1.7032   -6.2380   -0.1692 H   0  0  0  0  0  0  0  0  0  0  0  0
    0.0833   -8.3031   -0.1873 H   0  0  0  0  0  0  0  0  0  0  0  0
    2.5097   -8.8334    0.0326 H   0  0  0  0  0  0  0  0  0  0  0  0
    4.1473   -7.0065    0.3835 H   0  0  0  0  0  0  0  0  0  0  0  0
    3.4290   -4.6816    0.4809 H   0  0  0  0  0  0  0  0  0  0  0  0
    5.9545   -2.0231    1.7490 H   0  0  0  0  0  0  0  0  0  0  0  0
    7.8991   -2.0588    0.1802 H   0  0  0  0  0  0  0  0  0  0  0  0
    7.5425   -2.2849   -2.2550 H   0  0  0  0  0  0  0  0  0  0  0  0
    5.2377   -2.4911   -3.1919 H   0  0  0  0  0  0  0  0  0  0  0  0
    2.5054   -2.5670   -2.2562 H   0  0  0  0  0  0  0  0  0  0  0  0
  1  2  1  0  0  0  0
  1 28  1  0  0  0  0
  1 29  1  0  0  0  0
  1 30  1  0  0  0  0
  2  3  1  0  0  0  0
  2  7  2  0  0  0  0
  3  4  2  0  0  0  0
  3 31  1  0  0  0  0
  4  5  1  0  0  0  0
  4 32  1  0  0  0  0
  5  6  2  0  0  0  0
  5 33  1  0  0  0  0
  6  7  1  0  0  0  0
  6 34  1  0  0  0  0
  7  8  1  0  0  0  0
  8  9  2  3  0  0  0
  8 19  1  0  0  0  0
  9 10  1  0  0  0  0
  9 18  1  0  0  0  0
 10 11  2  0  0  0  0
 10 12  1  0  0  0  0
 12 13  1  0  0  0  0
 12 35  1  0  0  0  0
 13 14  1  0  0  0  0
 13 18  2  0  0  0  0
 14 15  2  0  0  0  0
 14 36  1  0  0  0  0
 15 16  1  0  0  0  0
 15 37  1  0  0  0  0
 16 17  2  0  0  0  0
 16 38  1  0  0  0  0
 17 18  1  0  0  0  0
 17 39  1  0  0  0  0
 19 20  2  0  0  0  0
 19 27  1  0  0  0  0
 20 21  1  0  0  0  0
 21 22  1  0  0  0  0
 21 26  2  0  0  0  0
 22 23  2  0  0  0  0
 22 40  1  0  0  0  0
 23 24  1  0  0  0  0
 23 41  1  0  0  0  0
 24 25  2  0  0  0  0
 24 42  1  0  0  0  0
 25 26  1  0  0  0  0
 25 43  1  0  0  0  0
 26 27  1  0  0  0  0
 27 44  1  0  0  0  0
M  END
$$$$
