CHEMBL517559
 OpenBabel04072215383D

 54 57  0  0  0  0  0  0  0  0999 V2000
   -0.7812   -9.8785    1.6006 C   0  0  0  0  0  0  0  0  0  0  0  0
    0.6028  -10.2072    1.3716 N   0  0  0  0  0  0  0  0  0  0  0  0
    1.3859   -9.2827    0.7106 C   0  0  0  0  0  0  0  0  0  0  0  0
    2.5564   -9.7247    0.2441 N   0  0  0  0  0  0  0  0  0  0  0  0
    3.3724   -8.8098   -0.3112 C   0  0  0  0  0  0  0  0  0  0  0  0
    3.0551   -7.4788   -0.4450 C   0  0  0  0  0  0  0  0  0  0  0  0
    1.8215   -7.1059    0.0388 C   0  0  0  0  0  0  0  0  0  0  0  0
    1.2813   -5.7360    0.0080 C   0  0  0  0  0  0  0  0  0  0  0  0
   -0.0980   -5.5526   -0.2435 C   0  0  0  0  0  0  0  0  0  0  0  0
   -0.6859   -4.2912   -0.2168 C   0  0  0  0  0  0  0  0  0  0  0  0
    0.1152   -3.2196    0.1042 C   0  0  0  0  0  0  0  0  0  0  0  0
    1.4320   -3.3335    0.3580 N   0  0  0  0  0  0  0  0  0  0  0  0
    2.0100   -4.5661    0.2533 C   0  0  0  0  0  0  0  0  0  0  0  0
    3.4071   -4.6216    0.3661 O   0  0  0  0  0  0  0  0  0  0  0  0
    4.1030   -3.5150   -0.1024 C   0  0  0  0  0  0  0  0  0  0  0  0
    3.6730   -2.8326   -1.2403 C   0  0  0  0  0  0  0  0  0  0  0  0
    4.2521   -1.6251   -1.6085 C   0  0  0  0  0  0  0  0  0  0  0  0
    5.3252   -1.0933   -0.8993 C   0  0  0  0  0  0  0  0  0  0  0  0
    5.8806    0.1765   -1.1991 N   0  0  0  0  0  0  0  0  0  0  0  0
    5.4809    0.9907   -2.2495 C   0  0  0  0  0  0  0  0  0  0  0  0
    4.6673    0.6807   -3.1127 O   0  0  0  0  0  0  0  0  0  0  0  0
    6.1367    2.2159   -2.2602 N   0  0  0  0  0  0  0  0  0  0  0  0
    5.8413    3.1493   -3.2880 C   0  0  0  0  0  0  0  0  0  0  0  0
    4.5258    3.4529   -3.6502 C   0  0  0  0  0  0  0  0  0  0  0  0
    4.2634    4.2880   -4.7387 C   0  0  0  0  0  0  0  0  0  0  0  0
    5.3175    4.8130   -5.4777 C   0  0  0  0  0  0  0  0  0  0  0  0
    6.6334    4.5362   -5.1046 C   0  0  0  0  0  0  0  0  0  0  0  0
    6.8990    3.7292   -3.9932 C   0  0  0  0  0  0  0  0  0  0  0  0
    5.8508   -1.8441    0.1641 C   0  0  0  0  0  0  0  0  0  0  0  0
    5.2556   -3.0669    0.5655 C   0  0  0  0  0  0  0  0  0  0  0  0
    5.8959   -3.8817    1.6526 C   0  0  0  0  0  0  0  0  0  0  0  0
    0.9839   -8.0122    0.6018 N   0  0  0  0  0  0  0  0  0  0  0  0
   -1.2627  -10.7009    2.1398 H   0  0  0  0  0  0  0  0  0  0  0  0
   -1.3291   -9.7254    0.6647 H   0  0  0  0  0  0  0  0  0  0  0  0
   -0.8804   -8.9846    2.2270 H   0  0  0  0  0  0  0  0  0  0  0  0
    0.8313  -11.1375    1.0484 H   0  0  0  0  0  0  0  0  0  0  0  0
    4.3318   -9.1929   -0.6467 H   0  0  0  0  0  0  0  0  0  0  0  0
    3.7454   -6.7876   -0.9075 H   0  0  0  0  0  0  0  0  0  0  0  0
   -0.7282   -6.4143   -0.4629 H   0  0  0  0  0  0  0  0  0  0  0  0
   -1.7416   -4.1571   -0.4233 H   0  0  0  0  0  0  0  0  0  0  0  0
   -0.2815   -2.2098    0.1533 H   0  0  0  0  0  0  0  0  0  0  0  0
    2.8227   -3.1795   -1.8180 H   0  0  0  0  0  0  0  0  0  0  0  0
    3.7789   -1.1100   -2.4355 H   0  0  0  0  0  0  0  0  0  0  0  0
    6.5652    0.5445   -0.5570 H   0  0  0  0  0  0  0  0  0  0  0  0
    7.0935    2.1877   -1.9444 H   0  0  0  0  0  0  0  0  0  0  0  0
    3.6891    3.0274   -3.0998 H   0  0  0  0  0  0  0  0  0  0  0  0
    3.2330    4.4962   -5.0243 H   0  0  0  0  0  0  0  0  0  0  0  0
    5.1143    5.4281   -6.3502 H   0  0  0  0  0  0  0  0  0  0  0  0
    7.4554    4.9247   -5.7008 H   0  0  0  0  0  0  0  0  0  0  0  0
    7.9293    3.4886   -3.7521 H   0  0  0  0  0  0  0  0  0  0  0  0
    6.7271   -1.4840    0.6969 H   0  0  0  0  0  0  0  0  0  0  0  0
    6.6407   -3.2968    2.2036 H   0  0  0  0  0  0  0  0  0  0  0  0
    6.4105   -4.7425    1.2109 H   0  0  0  0  0  0  0  0  0  0  0  0
    5.1564   -4.2362    2.3757 H   0  0  0  0  0  0  0  0  0  0  0  0
  1  2  1  0  0  0  0
  1 33  1  0  0  0  0
  1 34  1  0  0  0  0
  1 35  1  0  0  0  0
  2  3  1  0  0  0  0
  2 36  1  0  0  0  0
  3  4  1  0  0  0  0
  3 32  2  0  0  0  0
  4  5  2  0  0  0  0
  5  6  1  0  0  0  0
  5 37  1  0  0  0  0
  6  7  2  0  0  0  0
  6 38  1  0  0  0  0
  7  8  1  0  0  0  0
  7 32  1  0  0  0  0
  8  9  1  0  0  0  0
  8 13  2  0  0  0  0
  9 10  2  0  0  0  0
  9 39  1  0  0  0  0
 10 11  1  0  0  0  0
 10 40  1  0  0  0  0
 11 12  2  0  0  0  0
 11 41  1  0  0  0  0
 12 13  1  0  0  0  0
 13 14  1  0  0  0  0
 14 15  1  0  0  0  0
 15 16  1  0  0  0  0
 15 30  2  0  0  0  0
 16 17  2  0  0  0  0
 16 42  1  0  0  0  0
 17 18  1  0  0  0  0
 17 43  1  0  0  0  0
 18 19  1  0  0  0  0
 18 29  2  0  0  0  0
 19 20  1  0  0  0  0
 19 44  1  0  0  0  0
 20 21  2  0  0  0  0
 20 22  1  0  0  0  0
 22 23  1  0  0  0  0
 22 45  1  0  0  0  0
 23 24  1  0  0  0  0
 23 28  2  0  0  0  0
 24 25  2  0  0  0  0
 24 46  1  0  0  0  0
 25 26  1  0  0  0  0
 25 47  1  0  0  0  0
 26 27  2  0  0  0  0
 26 48  1  0  0  0  0
 27 28  1  0  0  0  0
 27 49  1  0  0  0  0
 28 50  1  0  0  0  0
 29 30  1  0  0  0  0
 29 51  1  0  0  0  0
 30 31  1  0  0  0  0
 31 52  1  0  0  0  0
 31 53  1  0  0  0  0
 31 54  1  0  0  0  0
M  END
$$$$
