CHEMBL363551
 OpenBabel04072215373D

 77 79  0  0  0  0  0  0  0  0999 V2000
    6.8710   -0.2152   -2.7750 C   0  0  0  0  0  0  0  0  0  0  0  0
    5.9291   -1.0550   -1.9148 C   0  0  0  0  0  0  0  0  0  0  0  0
    5.5308   -0.4262   -0.6433 N   0  0  0  0  0  0  0  0  0  0  0  0
    4.9524    0.9214   -0.7978 C   0  0  0  0  0  0  0  0  0  0  0  0
    3.6154    1.0087   -1.5316 C   0  0  0  0  0  0  0  0  0  0  0  0
    4.6527   -1.2963    0.1615 C   0  0  0  0  0  0  0  0  0  0  0  0
    5.2188   -2.6732    0.5329 C   0  0  0  0  0  0  0  0  0  0  0  0
    6.5156   -2.6230    1.3431 C   0  0  0  0  0  0  0  0  0  0  0  0
    6.9764   -4.0026    1.5076 N   0  0  0  0  0  0  0  0  0  0  0  0
    8.3523   -4.1593    1.6955 C   0  0  0  0  0  0  0  0  0  0  0  0
    8.9255   -5.3683    1.3108 C   0  0  0  0  0  0  0  0  0  0  0  0
   10.3022   -5.5160    1.3014 C   0  0  0  0  0  0  0  0  0  0  0  0
   10.8678   -6.6343    0.8033 N   0  0  0  0  0  0  0  0  0  0  0  0
   12.2194   -6.7185    0.7542 C   0  0  0  0  0  0  0  0  0  0  0  0
   12.7073   -7.8586    0.1082 N   0  0  0  0  0  0  0  0  0  0  0  0
   13.0734   -9.0417    0.6944 C   0  0  0  0  0  0  0  0  0  0  0  0
   13.4360   -9.9640   -0.0297 O   0  0  0  0  0  0  0  0  0  0  0  0
   12.9798   -9.1211    2.0501 N   0  0  0  0  0  0  0  0  0  0  0  0
   13.2896  -10.3297    2.8377 C   0  0  0  0  0  0  0  0  0  0  0  0
   14.7879  -10.6579    2.7444 C   0  0  0  0  0  0  0  0  0  0  0  0
   12.9445  -10.0460    4.3132 C   0  0  0  0  0  0  0  0  0  0  0  0
   12.4630  -11.5513    2.3906 C   0  0  0  0  0  0  0  0  0  0  0  0
   13.0925   -5.6983    1.1704 C   0  0  0  0  0  0  0  0  0  0  0  0
   14.5686   -5.6912    1.0031 C   0  0  0  0  0  0  0  0  0  0  0  0
   15.2027   -6.2167   -0.1360 C   0  0  0  0  0  0  0  0  0  0  0  0
   16.5965   -6.2289   -0.2511 C   0  0  0  0  0  0  0  0  0  0  0  0
   17.2800   -6.7874   -1.2997 O   0  0  0  0  0  0  0  0  0  0  0  0
   16.6394   -7.9090   -1.9062 C   0  0  0  0  0  0  0  0  0  0  0  0
   17.3849   -5.6175    0.7229 C   0  0  0  0  0  0  0  0  0  0  0  0
   16.7860   -5.0402    1.8371 C   0  0  0  0  0  0  0  0  0  0  0  0
   17.4221   -4.3887    2.8570 O   0  0  0  0  0  0  0  0  0  0  0  0
   18.8432   -4.4038    2.8399 C   0  0  0  0  0  0  0  0  0  0  0  0
   15.3961   -5.0987    1.9745 C   0  0  0  0  0  0  0  0  0  0  0  0
   12.4666   -4.5558    1.7088 C   0  0  0  0  0  0  0  0  0  0  0  0
   11.0722   -4.4556    1.7740 C   0  0  0  0  0  0  0  0  0  0  0  0
   10.4197   -3.3180    2.2409 C   0  0  0  0  0  0  0  0  0  0  0  0
    9.0834   -3.1513    2.1966 N   0  0  0  0  0  0  0  0  0  0  0  0
    7.3000   -0.8369   -3.5685 H   0  0  0  0  0  0  0  0  0  0  0  0
    7.7007    0.1859   -2.1835 H   0  0  0  0  0  0  0  0  0  0  0  0
    6.3474    0.6156   -3.2577 H   0  0  0  0  0  0  0  0  0  0  0  0
    6.4779   -1.9774   -1.6986 H   0  0  0  0  0  0  0  0  0  0  0  0
    5.0535   -1.3393   -2.5099 H   0  0  0  0  0  0  0  0  0  0  0  0
    5.6749    1.5773   -1.2966 H   0  0  0  0  0  0  0  0  0  0  0  0
    4.8282    1.3677    0.1975 H   0  0  0  0  0  0  0  0  0  0  0  0
    3.6112    0.4340   -2.4620 H   0  0  0  0  0  0  0  0  0  0  0  0
    3.4018    2.0512   -1.7913 H   0  0  0  0  0  0  0  0  0  0  0  0
    2.7942    0.6527   -0.9012 H   0  0  0  0  0  0  0  0  0  0  0  0
    3.7063   -1.4654   -0.3676 H   0  0  0  0  0  0  0  0  0  0  0  0
    4.4041   -0.7817    1.0987 H   0  0  0  0  0  0  0  0  0  0  0  0
    5.3705   -3.2740   -0.3727 H   0  0  0  0  0  0  0  0  0  0  0  0
    4.4598   -3.2157    1.1117 H   0  0  0  0  0  0  0  0  0  0  0  0
    6.3466   -2.1557    2.3200 H   0  0  0  0  0  0  0  0  0  0  0  0
    7.2562   -2.0261    0.7974 H   0  0  0  0  0  0  0  0  0  0  0  0
    6.4686   -4.5223    2.2168 H   0  0  0  0  0  0  0  0  0  0  0  0
    8.3006   -6.1630    0.9189 H   0  0  0  0  0  0  0  0  0  0  0  0
   12.2350   -8.0683   -0.7636 H   0  0  0  0  0  0  0  0  0  0  0  0
   12.3437   -8.4595    2.4779 H   0  0  0  0  0  0  0  0  0  0  0  0
   15.3954   -9.7827    2.9991 H   0  0  0  0  0  0  0  0  0  0  0  0
   15.0720  -10.9724    1.7355 H   0  0  0  0  0  0  0  0  0  0  0  0
   15.0607  -11.4686    3.4301 H   0  0  0  0  0  0  0  0  0  0  0  0
   13.5290   -9.2040    4.7011 H   0  0  0  0  0  0  0  0  0  0  0  0
   13.1439  -10.9175    4.9473 H   0  0  0  0  0  0  0  0  0  0  0  0
   11.8846   -9.7882    4.4261 H   0  0  0  0  0  0  0  0  0  0  0  0
   12.6906  -11.8548    1.3642 H   0  0  0  0  0  0  0  0  0  0  0  0
   11.3883  -11.3476    2.4434 H   0  0  0  0  0  0  0  0  0  0  0  0
   12.6706  -12.4205    3.0289 H   0  0  0  0  0  0  0  0  0  0  0  0
   14.6047   -6.6088   -0.9518 H   0  0  0  0  0  0  0  0  0  0  0  0
   17.4063   -8.4906   -2.4266 H   0  0  0  0  0  0  0  0  0  0  0  0
   15.9087   -7.5726   -2.6484 H   0  0  0  0  0  0  0  0  0  0  0  0
   16.1699   -8.5689   -1.1672 H   0  0  0  0  0  0  0  0  0  0  0  0
   18.4607   -5.6169    0.5847 H   0  0  0  0  0  0  0  0  0  0  0  0
   19.1901   -3.8531    3.7194 H   0  0  0  0  0  0  0  0  0  0  0  0
   19.2367   -3.8963    1.9535 H   0  0  0  0  0  0  0  0  0  0  0  0
   19.2221   -5.4280    2.9140 H   0  0  0  0  0  0  0  0  0  0  0  0
   14.9648   -4.6580    2.8714 H   0  0  0  0  0  0  0  0  0  0  0  0
   13.0633   -3.7004    2.0213 H   0  0  0  0  0  0  0  0  0  0  0  0
   10.9678   -2.4716    2.6435 H   0  0  0  0  0  0  0  0  0  0  0  0
  1  2  1  0  0  0  0
  1 38  1  0  0  0  0
  1 39  1  0  0  0  0
  1 40  1  0  0  0  0
  2  3  1  0  0  0  0
  2 41  1  0  0  0  0
  2 42  1  0  0  0  0
  3  4  1  0  0  0  0
  3  6  1  0  0  0  0
  4  5  1  0  0  0  0
  4 43  1  0  0  0  0
  4 44  1  0  0  0  0
  5 45  1  0  0  0  0
  5 46  1  0  0  0  0
  5 47  1  0  0  0  0
  6  7  1  0  0  0  0
  6 48  1  0  0  0  0
  6 49  1  0  0  0  0
  7  8  1  0  0  0  0
  7 50  1  0  0  0  0
  7 51  1  0  0  0  0
  8  9  1  0  0  0  0
  8 52  1  0  0  0  0
  8 53  1  0  0  0  0
  9 10  1  0  0  0  0
  9 54  1  0  0  0  0
 10 11  1  0  0  0  0
 10 37  2  0  0  0  0
 11 12  2  0  0  0  0
 11 55  1  0  0  0  0
 12 13  1  0  0  0  0
 12 35  1  0  0  0  0
 13 14  2  0  0  0  0
 14 15  1  0  0  0  0
 14 23  1  0  0  0  0
 15 16  1  0  0  0  0
 15 56  1  0  0  0  0
 16 17  2  0  0  0  0
 16 18  1  0  0  0  0
 18 19  1  0  0  0  0
 18 57  1  0  0  0  0
 19 20  1  0  0  0  0
 19 21  1  0  0  0  0
 19 22  1  0  0  0  0
 20 58  1  0  0  0  0
 20 59  1  0  0  0  0
 20 60  1  0  0  0  0
 21 61  1  0  0  0  0
 21 62  1  0  0  0  0
 21 63  1  0  0  0  0
 22 64  1  0  0  0  0
 22 65  1  0  0  0  0
 22 66  1  0  0  0  0
 23 24  1  0  0  0  0
 23 34  2  0  0  0  0
 24 25  1  0  0  0  0
 24 33  2  0  0  0  0
 25 26  2  0  0  0  0
 25 67  1  0  0  0  0
 26 27  1  0  0  0  0
 26 29  1  0  0  0  0
 27 28  1  0  0  0  0
 28 68  1  0  0  0  0
 28 69  1  0  0  0  0
 28 70  1  0  0  0  0
 29 30  2  0  0  0  0
 29 71  1  0  0  0  0
 30 31  1  0  0  0  0
 30 33  1  0  0  0  0
 31 32  1  0  0  0  0
 32 72  1  0  0  0  0
 32 73  1  0  0  0  0
 32 74  1  0  0  0  0
 33 75  1  0  0  0  0
 34 35  1  0  0  0  0
 34 76  1  0  0  0  0
 35 36  2  0  0  0  0
 36 37  1  0  0  0  0
 36 77  1  0  0  0  0
M  END
$$$$
