CHEMBL409442
 OpenBabel04072215383D

 51 55  0  0  0  0  0  0  0  0999 V2000
    2.2006    2.2498    0.4176 C   0  0  0  0  0  0  0  0  0  0  0  0
    2.9928    2.0059    1.6031 N   0  0  0  0  0  0  0  0  0  0  0  0
    3.3047    0.7246    1.8673 C   0  0  0  0  0  0  0  0  0  0  0  0
    3.4108   -0.3118    1.0700 N   0  0  0  0  0  0  0  0  0  0  0  0
    3.6918   -1.3896    1.8755 N   0  0  0  0  0  0  0  0  0  0  0  0
    3.7182   -0.9493    3.1185 C   0  0  0  0  0  0  0  0  0  0  0  0
    3.9298   -1.8146    4.3223 C   0  0  0  0  0  0  0  0  0  0  0  0
    3.9101   -1.3118    5.5975 C   0  0  0  0  0  0  0  0  0  0  0  0
    4.1213   -2.3390    6.4566 N   0  0  0  0  0  0  0  0  0  0  0  0
    4.1348   -2.1910    7.7904 N   0  0  0  0  0  0  0  0  0  0  0  0
    4.4026   -3.2757    8.4357 C   0  0  0  0  0  0  0  0  0  0  0  0
    4.6839   -4.4894    7.8867 N   0  0  0  0  0  0  0  0  0  0  0  0
    4.6519   -4.6613    6.5936 C   0  0  0  0  0  0  0  0  0  0  0  0
    4.9094   -5.9243    6.0949 N   0  0  0  0  0  0  0  0  0  0  0  0
    5.6449   -6.9045    6.8074 C   0  0  0  0  0  0  0  0  0  0  0  0
    6.7879   -6.5906    7.5577 C   0  0  0  0  0  0  0  0  0  0  0  0
    7.5576   -7.4523    8.2716 N   0  0  0  0  0  0  0  0  0  0  0  0
    7.1001   -8.7149    8.2140 C   0  0  0  0  0  0  0  0  0  0  0  0
    7.6525   -9.7675    8.8893 N   0  0  0  0  0  0  0  0  0  0  0  0
    6.9051  -10.9047    8.6778 C   0  0  0  0  0  0  0  0  0  0  0  0
    7.2002  -12.1833    9.3689 C   0  0  0  0  0  0  0  0  0  0  0  0
    5.9064  -10.5774    7.7802 C   0  0  0  0  0  0  0  0  0  0  0  0
    6.0031   -9.1872    7.5048 C   0  0  0  0  0  0  0  0  0  0  0  0
    5.2697   -8.2538    6.7477 C   0  0  0  0  0  0  0  0  0  0  0  0
    4.3253   -3.5148    5.7722 C   0  0  0  0  0  0  0  0  0  0  0  0
    4.1905   -3.2392    4.3998 C   0  0  0  0  0  0  0  0  0  0  0  0
    4.3459   -4.0955    3.1509 C   0  0  0  0  0  0  0  0  0  0  0  0
    5.7787   -4.0385    2.6155 C   0  0  0  0  0  0  0  0  0  0  0  0
    3.8405   -5.5289    3.1968 C   0  0  0  0  0  0  0  0  0  0  0  0
    3.4958    0.4085    3.1788 O   0  0  0  0  0  0  0  0  0  0  0  0
    2.0191    3.3232    0.3096 H   0  0  0  0  0  0  0  0  0  0  0  0
    1.2284    1.7490    0.4891 H   0  0  0  0  0  0  0  0  0  0  0  0
    2.7130    1.9032   -0.4866 H   0  0  0  0  0  0  0  0  0  0  0  0
    2.7489    2.5697    2.4086 H   0  0  0  0  0  0  0  0  0  0  0  0
    3.7695   -0.3056    5.9730 H   0  0  0  0  0  0  0  0  0  0  0  0
    4.4121   -3.2367    9.5389 H   0  0  0  0  0  0  0  0  0  0  0  0
    4.0973   -6.3217    5.6407 H   0  0  0  0  0  0  0  0  0  0  0  0
    7.1409   -5.5617    7.6049 H   0  0  0  0  0  0  0  0  0  0  0  0
    8.4618   -9.6802    9.4850 H   0  0  0  0  0  0  0  0  0  0  0  0
    8.1004  -12.1133    9.9879 H   0  0  0  0  0  0  0  0  0  0  0  0
    7.3448  -12.9897    8.6439 H   0  0  0  0  0  0  0  0  0  0  0  0
    6.3636  -12.4540   10.0219 H   0  0  0  0  0  0  0  0  0  0  0  0
    5.1539  -11.2561    7.4022 H   0  0  0  0  0  0  0  0  0  0  0  0
    4.4087   -8.5812    6.1759 H   0  0  0  0  0  0  0  0  0  0  0  0
    3.7045   -3.6467    2.3844 H   0  0  0  0  0  0  0  0  0  0  0  0
    6.4952   -4.4194    3.3501 H   0  0  0  0  0  0  0  0  0  0  0  0
    6.0672   -3.0093    2.3728 H   0  0  0  0  0  0  0  0  0  0  0  0
    5.8774   -4.6297    1.6986 H   0  0  0  0  0  0  0  0  0  0  0  0
    4.5435   -6.1999    3.6891 H   0  0  0  0  0  0  0  0  0  0  0  0
    3.7404   -5.9162    2.1745 H   0  0  0  0  0  0  0  0  0  0  0  0
    2.8572   -5.5992    3.6717 H   0  0  0  0  0  0  0  0  0  0  0  0
  1  2  1  0  0  0  0
  1 31  1  0  0  0  0
  1 32  1  0  0  0  0
  1 33  1  0  0  0  0
  2  3  1  0  0  0  0
  2 34  1  0  0  0  0
  3  4  2  0  0  0  0
  3 30  1  0  0  0  0
  4  5  1  0  0  0  0
  5  6  2  0  0  0  0
  6  7  1  0  0  0  0
  6 30  1  0  0  0  0
  7  8  2  0  0  0  0
  7 26  1  0  0  0  0
  8  9  1  0  0  0  0
  8 35  1  0  0  0  0
  9 10  1  0  0  0  0
  9 25  1  0  0  0  0
 10 11  2  0  0  0  0
 11 12  1  0  0  0  0
 11 36  1  0  0  0  0
 12 13  2  0  0  0  0
 13 14  1  0  0  0  0
 13 25  1  0  0  0  0
 14 15  1  0  0  0  0
 14 37  1  0  0  0  0
 15 16  1  0  0  0  0
 15 24  2  0  0  0  0
 16 17  2  0  0  0  0
 16 38  1  0  0  0  0
 17 18  1  0  0  0  0
 18 19  1  0  0  0  0
 18 23  2  0  0  0  0
 19 20  1  0  0  0  0
 19 39  1  0  0  0  0
 20 21  1  0  0  0  0
 20 22  2  0  0  0  0
 21 40  1  0  0  0  0
 21 41  1  0  0  0  0
 21 42  1  0  0  0  0
 22 23  1  0  0  0  0
 22 43  1  0  0  0  0
 23 24  1  0  0  0  0
 24 44  1  0  0  0  0
 25 26  2  0  0  0  0
 26 27  1  0  0  0  0
 27 28  1  0  0  0  0
 27 29  1  0  0  0  0
 27 45  1  0  0  0  0
 28 46  1  0  0  0  0
 28 47  1  0  0  0  0
 28 48  1  0  0  0  0
 29 49  1  0  0  0  0
 29 50  1  0  0  0  0
 29 51  1  0  0  0  0
M  END
$$$$
