CHEMBL3644550
 OpenBabel04072215373D

 52 55  0  0  0  0  0  0  0  0999 V2000
    2.4747   -0.4314   -0.7565 C   0  0  0  0  0  0  0  0  0  0  0  0
    0.9896   -0.3379   -0.9418 C   0  0  0  0  0  0  0  0  0  0  0  0
    0.4480    0.8323   -1.4858 C   0  0  0  0  0  0  0  0  0  0  0  0
   -0.9190    0.9421   -1.6668 C   0  0  0  0  0  0  0  0  0  0  0  0
   -1.7552   -0.1120   -1.3014 C   0  0  0  0  0  0  0  0  0  0  0  0
   -1.2575   -1.2964   -0.7414 C   0  0  0  0  0  0  0  0  0  0  0  0
   -2.0980   -2.3819   -0.3478 N   0  0  0  0  0  0  0  0  0  0  0  0
   -3.4851   -2.3471   -0.3787 C   0  0  0  0  0  0  0  0  0  0  0  0
   -4.1352   -1.3562   -0.7023 O   0  0  0  0  0  0  0  0  0  0  0  0
   -4.0955   -3.5354    0.0087 N   0  0  0  0  0  0  0  0  0  0  0  0
   -5.5098   -3.7072   -0.0586 C   0  0  0  0  0  0  0  0  0  0  0  0
   -6.3047   -2.9855   -0.9428 C   0  0  0  0  0  0  0  0  0  0  0  0
   -7.7002   -3.0579   -0.8971 C   0  0  0  0  0  0  0  0  0  0  0  0
   -8.3913   -3.8816    0.0050 C   0  0  0  0  0  0  0  0  0  0  0  0
   -9.7806   -3.8530    0.0173 N   0  0  0  0  0  0  0  0  0  0  0  0
  -10.5414   -2.6425   -0.3352 C   0  0  0  0  0  0  0  0  0  0  0  0
  -11.2511   -2.8071   -1.6863 C   0  0  0  0  0  0  0  0  0  0  0  0
  -11.9971   -4.1140   -1.7788 C   0  0  0  0  0  0  0  0  0  0  0  0
  -13.0016   -4.3072   -2.7280 C   0  0  0  0  0  0  0  0  0  0  0  0
  -13.6319   -5.5431   -2.7834 C   0  0  0  0  0  0  0  0  0  0  0  0
  -13.3330   -6.5799   -1.9740 N   0  0  0  0  0  0  0  0  0  0  0  0
  -12.3457   -6.3757   -1.0771 C   0  0  0  0  0  0  0  0  0  0  0  0
  -11.6417   -5.1813   -0.9426 C   0  0  0  0  0  0  0  0  0  0  0  0
  -10.5672   -5.0843    0.1065 C   0  0  0  0  0  0  0  0  0  0  0  0
   -7.5830   -4.6815    0.8546 C   0  0  0  0  0  0  0  0  0  0  0  0
   -8.1083   -5.5946    1.9354 C   0  0  0  0  0  0  0  0  0  0  0  0
   -6.1565   -4.5968    0.7962 C   0  0  0  0  0  0  0  0  0  0  0  0
    0.1303   -1.4049   -0.5753 C   0  0  0  0  0  0  0  0  0  0  0  0
    2.9712    0.4939   -1.0761 H   0  0  0  0  0  0  0  0  0  0  0  0
    2.8819   -1.2479   -1.3582 H   0  0  0  0  0  0  0  0  0  0  0  0
    2.7183   -0.5860    0.2980 H   0  0  0  0  0  0  0  0  0  0  0  0
    1.0856    1.6653   -1.7745 H   0  0  0  0  0  0  0  0  0  0  0  0
   -1.3538    1.8435   -2.0909 H   0  0  0  0  0  0  0  0  0  0  0  0
   -2.8099    0.0477   -1.4886 H   0  0  0  0  0  0  0  0  0  0  0  0
   -1.6442   -3.2204   -0.0209 H   0  0  0  0  0  0  0  0  0  0  0  0
   -3.5919   -4.1217    0.6548 H   0  0  0  0  0  0  0  0  0  0  0  0
   -5.8713   -2.3264   -1.6892 H   0  0  0  0  0  0  0  0  0  0  0  0
   -8.2369   -2.4374   -1.6090 H   0  0  0  0  0  0  0  0  0  0  0  0
   -9.9266   -1.7341   -0.3395 H   0  0  0  0  0  0  0  0  0  0  0  0
  -11.2934   -2.4758    0.4480 H   0  0  0  0  0  0  0  0  0  0  0  0
  -10.5221   -2.7695   -2.5045 H   0  0  0  0  0  0  0  0  0  0  0  0
  -11.9489   -1.9720   -1.8220 H   0  0  0  0  0  0  0  0  0  0  0  0
  -13.2937   -3.5187   -3.4122 H   0  0  0  0  0  0  0  0  0  0  0  0
  -14.4185   -5.7376   -3.5065 H   0  0  0  0  0  0  0  0  0  0  0  0
  -12.1221   -7.2312   -0.4442 H   0  0  0  0  0  0  0  0  0  0  0  0
   -9.9323   -5.9673   -0.0048 H   0  0  0  0  0  0  0  0  0  0  0  0
  -11.0603   -5.1059    1.0867 H   0  0  0  0  0  0  0  0  0  0  0  0
   -9.1908   -5.6112    2.0336 H   0  0  0  0  0  0  0  0  0  0  0  0
   -7.7291   -5.2713    2.9098 H   0  0  0  0  0  0  0  0  0  0  0  0
   -7.7771   -6.6215    1.7443 H   0  0  0  0  0  0  0  0  0  0  0  0
   -5.5728   -5.2033    1.4849 H   0  0  0  0  0  0  0  0  0  0  0  0
    0.5700   -2.3006   -0.1501 H   0  0  0  0  0  0  0  0  0  0  0  0
  1  2  1  0  0  0  0
  1 29  1  0  0  0  0
  1 30  1  0  0  0  0
  1 31  1  0  0  0  0
  2  3  1  0  0  0  0
  2 28  2  0  0  0  0
  3  4  2  0  0  0  0
  3 32  1  0  0  0  0
  4  5  1  0  0  0  0
  4 33  1  0  0  0  0
  5  6  2  0  0  0  0
  5 34  1  0  0  0  0
  6  7  1  0  0  0  0
  6 28  1  0  0  0  0
  7  8  1  0  0  0  0
  7 35  1  0  0  0  0
  8  9  2  0  0  0  0
  8 10  1  0  0  0  0
 10 11  1  0  0  0  0
 10 36  1  0  0  0  0
 11 12  1  0  0  0  0
 11 27  2  0  0  0  0
 12 13  2  0  0  0  0
 12 37  1  0  0  0  0
 13 14  1  0  0  0  0
 13 38  1  0  0  0  0
 14 15  1  0  0  0  0
 14 25  2  0  0  0  0
 15 16  1  0  0  0  0
 15 24  1  0  0  0  0
 16 17  1  0  0  0  0
 16 39  1  0  0  0  0
 16 40  1  0  0  0  0
 17 18  1  0  0  0  0
 17 41  1  0  0  0  0
 17 42  1  0  0  0  0
 18 19  1  0  0  0  0
 18 23  2  0  0  0  0
 19 20  2  0  0  0  0
 19 43  1  0  0  0  0
 20 21  1  0  0  0  0
 20 44  1  0  0  0  0
 21 22  2  0  0  0  0
 22 23  1  0  0  0  0
 22 45  1  0  0  0  0
 23 24  1  0  0  0  0
 24 46  1  0  0  0  0
 24 47  1  0  0  0  0
 25 26  1  0  0  0  0
 25 27  1  0  0  0  0
 26 48  1  0  0  0  0
 26 49  1  0  0  0  0
 26 50  1  0  0  0  0
 27 51  1  0  0  0  0
 28 52  1  0  0  0  0
M  END
$$$$
