CHEMBL393460
 OpenBabel04072215373D

 54 56  0  0  0  0  0  0  0  0999 V2000
    8.2522   -6.7568  -10.9251 C   0  0  0  0  0  0  0  0  0  0  0  0
    6.9927   -6.1156  -10.5701 N   0  0  0  0  0  0  0  0  0  0  0  0
    7.2379   -4.8645   -9.8464 C   0  0  0  0  0  0  0  0  0  0  0  0
    5.9150   -4.1704   -9.4911 C   0  0  0  0  0  0  0  0  0  0  0  0
    6.1381   -2.8685   -8.7594 C   0  0  0  0  0  0  0  0  0  0  0  0
    6.8224   -1.8209   -9.3859 C   0  0  0  0  0  0  0  0  0  0  0  0
    7.0179   -0.6094   -8.7272 C   0  0  0  0  0  0  0  0  0  0  0  0
    6.5106   -0.4033   -7.4410 C   0  0  0  0  0  0  0  0  0  0  0  0
    6.6960    0.8085   -6.7557 N   0  0  0  0  0  0  0  0  0  0  0  0
    6.7540    2.0742   -7.3397 C   0  0  0  0  0  0  0  0  0  0  0  0
    7.4881    2.9931   -6.7034 N   0  0  0  0  0  0  0  0  0  0  0  0
    7.4693    4.2363   -7.2246 C   0  0  0  0  0  0  0  0  0  0  0  0
    6.7583    4.6027   -8.3481 C   0  0  0  0  0  0  0  0  0  0  0  0
    6.7400    6.2655   -8.7866 Cl  0  0  0  0  0  0  0  0  0  0  0  0
    6.0695    3.5804   -8.9857 C   0  0  0  0  0  0  0  0  0  0  0  0
    5.2768    3.7127  -10.2356 C   0  0  0  0  0  0  0  0  0  0  0  0
    5.6574    4.5647  -11.2802 C   0  0  0  0  0  0  0  0  0  0  0  0
    4.8570    4.7565  -12.4143 C   0  0  0  0  0  0  0  0  0  0  0  0
    3.6485    4.0656  -12.5832 C   0  0  0  0  0  0  0  0  0  0  0  0
    2.7246    4.3036  -13.7856 C   0  0  0  0  0  0  0  0  0  0  0  0
    2.5928    3.0295  -14.6345 C   0  0  0  0  0  0  0  0  0  0  0  0
    1.3366    4.7692  -13.3089 C   0  0  0  0  0  0  0  0  0  0  0  0
    3.2118    5.3572  -14.6933 N   0  0  0  0  0  0  0  0  0  0  0  0
    3.3104    3.1323  -11.5882 C   0  0  0  0  0  0  0  0  0  0  0  0
    4.1057    2.9616  -10.4419 C   0  0  0  0  0  0  0  0  0  0  0  0
    6.0636    2.3263   -8.4654 N   0  0  0  0  0  0  0  0  0  0  0  0
    5.8582   -1.4609   -6.8002 C   0  0  0  0  0  0  0  0  0  0  0  0
    5.6566   -2.6786   -7.4587 C   0  0  0  0  0  0  0  0  0  0  0  0
    8.0490   -7.6869  -11.4640 H   0  0  0  0  0  0  0  0  0  0  0  0
    8.8416   -7.0020  -10.0356 H   0  0  0  0  0  0  0  0  0  0  0  0
    8.8490   -6.1178  -11.5841 H   0  0  0  0  0  0  0  0  0  0  0  0
    6.4467   -6.7457   -9.9833 H   0  0  0  0  0  0  0  0  0  0  0  0
    7.8484   -4.2025  -10.4723 H   0  0  0  0  0  0  0  0  0  0  0  0
    7.8037   -5.0623   -8.9272 H   0  0  0  0  0  0  0  0  0  0  0  0
    5.3000   -4.8414   -8.8780 H   0  0  0  0  0  0  0  0  0  0  0  0
    5.3351   -3.9604  -10.3994 H   0  0  0  0  0  0  0  0  0  0  0  0
    7.2047   -1.9333  -10.3977 H   0  0  0  0  0  0  0  0  0  0  0  0
    7.5638    0.1792   -9.2386 H   0  0  0  0  0  0  0  0  0  0  0  0
    7.4022    0.7626   -6.0316 H   0  0  0  0  0  0  0  0  0  0  0  0
    8.0608    4.9646   -6.6764 H   0  0  0  0  0  0  0  0  0  0  0  0
    6.5956    5.1115  -11.2396 H   0  0  0  0  0  0  0  0  0  0  0  0
    5.2088    5.4741  -13.1478 H   0  0  0  0  0  0  0  0  0  0  0  0
    2.1263    2.2126  -14.0738 H   0  0  0  0  0  0  0  0  0  0  0  0
    3.5721    2.6755  -14.9792 H   0  0  0  0  0  0  0  0  0  0  0  0
    1.9717    3.2052  -15.5221 H   0  0  0  0  0  0  0  0  0  0  0  0
    0.8299    4.0008  -12.7154 H   0  0  0  0  0  0  0  0  0  0  0  0
    0.6797    5.0031  -14.1559 H   0  0  0  0  0  0  0  0  0  0  0  0
    1.4081    5.6698  -12.6858 H   0  0  0  0  0  0  0  0  0  0  0  0
    4.1287    5.0989  -15.0530 H   0  0  0  0  0  0  0  0  0  0  0  0
    3.3157    6.2262  -14.1757 H   0  0  0  0  0  0  0  0  0  0  0  0
    2.4110    2.5261  -11.6829 H   0  0  0  0  0  0  0  0  0  0  0  0
    3.7900    2.2299   -9.6979 H   0  0  0  0  0  0  0  0  0  0  0  0
    5.4614   -1.3253   -5.7970 H   0  0  0  0  0  0  0  0  0  0  0  0
    5.1080   -3.4680   -6.9506 H   0  0  0  0  0  0  0  0  0  0  0  0
  1  2  1  0  0  0  0
  1 29  1  0  0  0  0
  1 30  1  0  0  0  0
  1 31  1  0  0  0  0
  2  3  1  0  0  0  0
  2 32  1  0  0  0  0
  3  4  1  0  0  0  0
  3 33  1  0  0  0  0
  3 34  1  0  0  0  0
  4  5  1  0  0  0  0
  4 35  1  0  0  0  0
  4 36  1  0  0  0  0
  5  6  1  0  0  0  0
  5 28  2  0  0  0  0
  6  7  2  0  0  0  0
  6 37  1  0  0  0  0
  7  8  1  0  0  0  0
  7 38  1  0  0  0  0
  8  9  1  0  0  0  0
  8 27  2  0  0  0  0
  9 10  1  0  0  0  0
  9 39  1  0  0  0  0
 10 11  1  0  0  0  0
 10 26  2  0  0  0  0
 11 12  2  0  0  0  0
 12 13  1  0  0  0  0
 12 40  1  0  0  0  0
 13 14  1  0  0  0  0
 13 15  2  0  0  0  0
 15 16  1  0  0  0  0
 15 26  1  0  0  0  0
 16 17  1  0  0  0  0
 16 25  2  0  0  0  0
 17 18  2  0  0  0  0
 17 41  1  0  0  0  0
 18 19  1  0  0  0  0
 18 42  1  0  0  0  0
 19 20  1  0  0  0  0
 19 24  2  0  0  0  0
 20 21  1  0  0  0  0
 20 22  1  0  0  0  0
 20 23  1  0  0  0  0
 21 43  1  0  0  0  0
 21 44  1  0  0  0  0
 21 45  1  0  0  0  0
 22 46  1  0  0  0  0
 22 47  1  0  0  0  0
 22 48  1  0  0  0  0
 23 49  1  0  0  0  0
 23 50  1  0  0  0  0
 24 25  1  0  0  0  0
 24 51  1  0  0  0  0
 25 52  1  0  0  0  0
 27 28  1  0  0  0  0
 27 53  1  0  0  0  0
 28 54  1  0  0  0  0
M  END
$$$$
