CHEMBL3589814
 OpenBabel04072215363D

 43 46  0  0  0  0  0  0  0  0999 V2000
    2.3207    0.6689    0.8372 O   0  0  0  0  0  0  0  0  0  0  0  0
    1.8890    0.2662   -0.2384 C   0  0  0  0  0  0  0  0  0  0  0  0
    0.5486    0.0173   -0.4626 N   0  0  0  0  0  0  0  0  0  0  0  0
   -0.4676    0.1066    0.5187 C   0  0  0  0  0  0  0  0  0  0  0  0
   -0.2835    0.6845    1.7848 C   0  0  0  0  0  0  0  0  0  0  0  0
   -1.2945    0.6474    2.7482 C   0  0  0  0  0  0  0  0  0  0  0  0
   -2.5082    0.0482    2.4425 C   0  0  0  0  0  0  0  0  0  0  0  0
   -3.7410   -0.0463    3.6360 Cl  0  0  0  0  0  0  0  0  0  0  0  0
   -2.7251   -0.4901    1.1791 C   0  0  0  0  0  0  0  0  0  0  0  0
   -1.7051   -0.4528    0.2119 C   0  0  0  0  0  0  0  0  0  0  0  0
    2.6817   -0.0250   -1.3405 N   0  0  0  0  0  0  0  0  0  0  0  0
    4.0920   -0.0873   -1.2691 C   0  0  0  0  0  0  0  0  0  0  0  0
    4.7166   -0.2091   -0.0405 C   0  0  0  0  0  0  0  0  0  0  0  0
    6.0897   -0.1683    0.0517 C   0  0  0  0  0  0  0  0  0  0  0  0
    6.9058   -0.2499   -1.0749 C   0  0  0  0  0  0  0  0  0  0  0  0
    8.2921   -0.4476   -0.8676 N   0  0  0  0  0  0  0  0  0  0  0  0
    8.5637   -1.3810   -0.0073 C   0  0  0  0  0  0  0  0  0  0  0  0
    7.8177   -2.7414    0.1308 C   0  0  0  0  0  0  0  0  0  0  0  0
    7.4526   -3.4551   -0.7720 O   0  0  0  0  0  0  0  0  0  0  0  0
    7.6016   -2.9113    1.4889 N   0  0  0  0  0  0  0  0  0  0  0  0
    8.1354   -1.8420    2.2045 C   0  0  0  0  0  0  0  0  0  0  0  0
    7.7451   -1.4443    3.4660 C   0  0  0  0  0  0  0  0  0  0  0  0
    8.1759   -0.1877    3.9074 C   0  0  0  0  0  0  0  0  0  0  0  0
    9.0201    0.6158    3.1041 C   0  0  0  0  0  0  0  0  0  0  0  0
    9.4951    2.1670    3.6689 Cl  0  0  0  0  0  0  0  0  0  0  0  0
    9.3958    0.2053    1.8228 C   0  0  0  0  0  0  0  0  0  0  0  0
    8.9223   -1.0190    1.3938 C   0  0  0  0  0  0  0  0  0  0  0  0
    6.3047   -0.1311   -2.3200 C   0  0  0  0  0  0  0  0  0  0  0  0
    4.8946   -0.0302   -2.4219 C   0  0  0  0  0  0  0  0  0  0  0  0
    0.3232   -0.4643   -1.3224 H   0  0  0  0  0  0  0  0  0  0  0  0
    0.6418    1.1726    2.0755 H   0  0  0  0  0  0  0  0  0  0  0  0
   -1.1116    1.0718    3.7305 H   0  0  0  0  0  0  0  0  0  0  0  0
   -3.6788   -0.9465    0.9298 H   0  0  0  0  0  0  0  0  0  0  0  0
   -1.8959   -0.8953   -0.7628 H   0  0  0  0  0  0  0  0  0  0  0  0
    2.2646    0.0269   -2.2564 H   0  0  0  0  0  0  0  0  0  0  0  0
    4.1836   -0.3323    0.8933 H   0  0  0  0  0  0  0  0  0  0  0  0
    6.4920   -0.1218    1.0531 H   0  0  0  0  0  0  0  0  0  0  0  0
    6.9702   -3.6143    1.8494 H   0  0  0  0  0  0  0  0  0  0  0  0
    7.0193   -2.0061    4.0518 H   0  0  0  0  0  0  0  0  0  0  0  0
    7.8052    0.2109    4.8516 H   0  0  0  0  0  0  0  0  0  0  0  0
    9.9202    0.8763    1.1454 H   0  0  0  0  0  0  0  0  0  0  0  0
    6.9165   -0.1053   -3.2173 H   0  0  0  0  0  0  0  0  0  0  0  0
    4.4470    0.0924   -3.4039 H   0  0  0  0  0  0  0  0  0  0  0  0
  1  2  2  0  0  0  0
  2  3  1  0  0  0  0
  2 11  1  0  0  0  0
  3  4  1  0  0  0  0
  3 30  1  0  0  0  0
  4  5  1  0  0  0  0
  4 10  2  0  0  0  0
  5  6  2  0  0  0  0
  5 31  1  0  0  0  0
  6  7  1  0  0  0  0
  6 32  1  0  0  0  0
  7  8  1  0  0  0  0
  7  9  2  0  0  0  0
  9 10  1  0  0  0  0
  9 33  1  0  0  0  0
 10 34  1  0  0  0  0
 11 12  1  0  0  0  0
 11 35  1  0  0  0  0
 12 13  1  0  0  0  0
 12 29  2  0  0  0  0
 13 14  2  0  0  0  0
 13 36  1  0  0  0  0
 14 15  1  0  0  0  0
 14 37  1  0  0  0  0
 15 16  1  0  0  0  0
 15 28  2  0  0  0  0
 16 17  2  0  0  0  0
 17 18  1  0  0  0  0
 17 27  1  0  0  0  0
 18 19  2  0  0  0  0
 18 20  1  0  0  0  0
 20 21  1  0  0  0  0
 20 38  1  0  0  0  0
 21 22  1  0  0  0  0
 21 27  2  0  0  0  0
 22 23  2  0  0  0  0
 22 39  1  0  0  0  0
 23 24  1  0  0  0  0
 23 40  1  0  0  0  0
 24 25  1  0  0  0  0
 24 26  2  0  0  0  0
 26 27  1  0  0  0  0
 26 41  1  0  0  0  0
 28 29  1  0  0  0  0
 28 42  1  0  0  0  0
 29 43  1  0  0  0  0
M  END
$$$$
