CHEMBL3958722
 OpenBabel04072215373D

 57 60  0  0  0  0  0  0  0  0999 V2000
   12.8679   -7.6532    0.0495 C   0  0  0  0  0  0  0  0  0  0  0  0
   11.8038   -8.5985   -1.0050 S   0  0  0  0  0  0  0  0  0  0  0  0
   12.1132   -8.2783   -2.3849 O   0  0  0  0  0  0  0  0  0  0  0  0
   11.8337   -9.9751   -0.5333 O   0  0  0  0  0  0  0  0  0  0  0  0
   10.1659   -7.9806   -0.7048 C   0  0  0  0  0  0  0  0  0  0  0  0
    9.9266   -6.6245   -0.9232 C   0  0  0  0  0  0  0  0  0  0  0  0
    8.6467   -6.0867   -0.7892 C   0  0  0  0  0  0  0  0  0  0  0  0
    8.3826   -4.7064   -0.9798 N   0  0  0  0  0  0  0  0  0  0  0  0
    9.3499   -3.7170   -1.0632 C   0  0  0  0  0  0  0  0  0  0  0  0
   10.5587   -3.9008   -0.9536 O   0  0  0  0  0  0  0  0  0  0  0  0
    8.8125   -2.4476   -1.2294 N   0  0  0  0  0  0  0  0  0  0  0  0
    9.6904   -1.3437   -1.3872 C   0  0  0  0  0  0  0  0  0  0  0  0
    9.5467   -0.2098   -0.5923 C   0  0  0  0  0  0  0  0  0  0  0  0
   10.4795    0.8302   -0.7046 C   0  0  0  0  0  0  0  0  0  0  0  0
   11.4999    0.7170   -1.6424 C   0  0  0  0  0  0  0  0  0  0  0  0
   12.4247    1.7582   -1.7276 O   0  0  0  0  0  0  0  0  0  0  0  0
   13.7107    1.4453   -2.1339 C   0  0  0  0  0  0  0  0  0  0  0  0
   14.3468    0.2649   -1.7664 C   0  0  0  0  0  0  0  0  0  0  0  0
   15.6274    0.0519   -2.2230 C   0  0  0  0  0  0  0  0  0  0  0  0
   16.3091    0.9476   -2.9586 N   0  0  0  0  0  0  0  0  0  0  0  0
   15.7217    2.1163   -3.2778 C   0  0  0  0  0  0  0  0  0  0  0  0
   16.4456    3.0572   -4.0355 N   0  0  0  0  0  0  0  0  0  0  0  0
   17.7627    2.8787   -4.4250 C   0  0  0  0  0  0  0  0  0  0  0  0
   18.4971    1.9392   -4.1556 O   0  0  0  0  0  0  0  0  0  0  0  0
   18.3758    3.9615   -5.2568 C   0  0  0  0  0  0  0  0  0  0  0  0
   18.6026    5.3286   -4.6535 C   0  0  0  0  0  0  0  0  0  0  0  0
   17.6890    5.1687   -5.8355 C   0  0  0  0  0  0  0  0  0  0  0  0
   14.4169    2.4031   -2.8807 C   0  0  0  0  0  0  0  0  0  0  0  0
   11.6175   -0.3396   -2.4756 N   0  0  0  0  0  0  0  0  0  0  0  0
   10.7387   -1.3560   -2.3067 C   0  0  0  0  0  0  0  0  0  0  0  0
    7.5868   -6.9531   -0.4782 C   0  0  0  0  0  0  0  0  0  0  0  0
    7.8143   -8.3324   -0.2656 C   0  0  0  0  0  0  0  0  0  0  0  0
    6.6760   -9.2863    0.0210 C   0  0  0  0  0  0  0  0  0  0  0  0
    5.4545   -8.6838    0.0310 F   0  0  0  0  0  0  0  0  0  0  0  0
    6.5922  -10.2829   -0.9024 F   0  0  0  0  0  0  0  0  0  0  0  0
    6.8002   -9.9008    1.2287 F   0  0  0  0  0  0  0  0  0  0  0  0
    9.1227   -8.8375   -0.3589 C   0  0  0  0  0  0  0  0  0  0  0  0
   13.8945   -7.9772   -0.1360 H   0  0  0  0  0  0  0  0  0  0  0  0
   12.6022   -7.8423    1.0918 H   0  0  0  0  0  0  0  0  0  0  0  0
   12.7796   -6.5908   -0.1869 H   0  0  0  0  0  0  0  0  0  0  0  0
   10.7582   -6.0160   -1.2614 H   0  0  0  0  0  0  0  0  0  0  0  0
    7.4157   -4.4229   -1.0485 H   0  0  0  0  0  0  0  0  0  0  0  0
    7.9607   -2.2777   -0.7153 H   0  0  0  0  0  0  0  0  0  0  0  0
    8.7707   -0.1532    0.1649 H   0  0  0  0  0  0  0  0  0  0  0  0
   10.4247    1.6927   -0.0494 H   0  0  0  0  0  0  0  0  0  0  0  0
   13.8608   -0.4957   -1.1668 H   0  0  0  0  0  0  0  0  0  0  0  0
   16.1580   -0.8696   -2.0095 H   0  0  0  0  0  0  0  0  0  0  0  0
   15.9786    3.9068   -4.2848 H   0  0  0  0  0  0  0  0  0  0  0  0
   19.1985    3.5717   -5.8564 H   0  0  0  0  0  0  0  0  0  0  0  0
   19.5768    5.7811   -4.8071 H   0  0  0  0  0  0  0  0  0  0  0  0
   18.1634    5.5500   -3.6881 H   0  0  0  0  0  0  0  0  0  0  0  0
   18.0503    5.5233   -6.7973 H   0  0  0  0  0  0  0  0  0  0  0  0
   16.6304    5.3250   -5.6943 H   0  0  0  0  0  0  0  0  0  0  0  0
   13.9388    3.3379   -3.1459 H   0  0  0  0  0  0  0  0  0  0  0  0
   10.9066   -2.2047   -2.9648 H   0  0  0  0  0  0  0  0  0  0  0  0
    6.5711   -6.5687   -0.3956 H   0  0  0  0  0  0  0  0  0  0  0  0
    9.3112   -9.9004   -0.2079 H   0  0  0  0  0  0  0  0  0  0  0  0
  1  2  1  0  0  0  0
  1 38  1  0  0  0  0
  1 39  1  0  0  0  0
  1 40  1  0  0  0  0
  2  3  2  0  0  0  0
  2  4  2  0  0  0  0
  2  5  1  0  0  0  0
  5  6  1  0  0  0  0
  5 37  2  0  0  0  0
  6  7  2  0  0  0  0
  6 41  1  0  0  0  0
  7  8  1  0  0  0  0
  7 31  1  0  0  0  0
  8  9  1  0  0  0  0
  8 42  1  0  0  0  0
  9 10  2  0  0  0  0
  9 11  1  0  0  0  0
 11 12  1  0  0  0  0
 11 43  1  0  0  0  0
 12 13  1  0  0  0  0
 12 30  2  0  0  0  0
 13 14  2  0  0  0  0
 13 44  1  0  0  0  0
 14 15  1  0  0  0  0
 14 45  1  0  0  0  0
 15 16  1  0  0  0  0
 15 29  2  0  0  0  0
 16 17  1  0  0  0  0
 17 18  1  0  0  0  0
 17 28  2  0  0  0  0
 18 19  2  0  0  0  0
 18 46  1  0  0  0  0
 19 20  1  0  0  0  0
 19 47  1  0  0  0  0
 20 21  2  0  0  0  0
 21 22  1  0  0  0  0
 21 28  1  0  0  0  0
 22 23  1  0  0  0  0
 22 48  1  0  0  0  0
 23 24  2  0  0  0  0
 23 25  1  0  0  0  0
 25 26  1  0  0  0  0
 25 27  1  0  0  0  0
 25 49  1  0  0  0  0
 26 27  1  0  0  0  0
 26 50  1  0  0  0  0
 26 51  1  0  0  0  0
 27 52  1  0  0  0  0
 27 53  1  0  0  0  0
 28 54  1  0  0  0  0
 29 30  1  0  0  0  0
 30 55  1  0  0  0  0
 31 32  2  0  0  0  0
 31 56  1  0  0  0  0
 32 33  1  0  0  0  0
 32 37  1  0  0  0  0
 33 34  1  0  0  0  0
 33 35  1  0  0  0  0
 33 36  1  0  0  0  0
 37 57  1  0  0  0  0
M  END
$$$$
