CHEMBL3676393
 OpenBabel04072215373D

 61 63  0  0  1  0  0  0  0  0999 V2000
    3.4876   -3.2446   -2.3662 C   0  0  0  0  0  0  0  0  0  0  0  0
    3.5148   -1.9084   -2.4518 C   0  0  0  0  0  0  0  0  0  0  0  0
    3.6608   -1.1103   -1.2063 C   0  0  0  0  0  0  0  0  0  0  0  0
    3.1886   -1.4804   -0.1343 O   0  0  0  0  0  0  0  0  0  0  0  0
    4.4099    0.0409   -1.2703 N   0  0  0  0  0  0  0  0  0  0  0  0
    5.2274    0.3694   -2.3617 C   0  0  0  0  0  0  0  0  0  0  0  0
    6.3610   -0.4150   -2.5721 C   0  0  0  0  0  0  0  0  0  0  0  0
    7.0381   -0.3704   -3.8066 C   0  0  0  0  0  0  0  0  0  0  0  0
    8.0611   -1.2551   -4.1834 C   0  0  0  0  0  0  0  0  0  0  0  0
    8.4056   -2.3375   -3.3273 N   0  0  0  0  0  0  0  0  0  0  0  0
    9.1281   -3.4779   -3.7557 C   0  0  0  0  0  0  0  0  0  0  0  0
    8.8073   -4.1208   -4.9598 C   0  0  0  0  0  0  0  0  0  0  0  0
    9.6042   -5.1547   -5.4536 C   0  0  0  0  0  0  0  0  0  0  0  0
   10.7189   -5.5697   -4.7292 C   0  0  0  0  0  0  0  0  0  0  0  0
   11.8560   -6.8945   -5.4526 Br  0  0  0  0  0  0  0  0  0  0  0  0
   11.0147   -4.9982   -3.4936 C   0  0  0  0  0  0  0  0  0  0  0  0
   10.2111   -3.9661   -3.0149 C   0  0  0  0  0  0  0  0  0  0  0  0
   10.5121   -3.3993   -1.8356 F   0  0  0  0  0  0  0  0  0  0  0  0
    8.6603   -1.1695   -5.3747 N   0  0  0  0  0  0  0  0  0  0  0  0
    8.2275   -0.2247   -6.2121 C   0  0  0  0  0  0  0  0  0  0  0  0
    7.2252    0.6243   -5.9804 N   0  0  0  0  0  0  0  0  0  0  0  0
    6.6242    0.5453   -4.7878 C   0  0  0  0  0  0  0  0  0  0  0  0
    5.5244    1.3585   -4.5309 C   0  0  0  0  0  0  0  0  0  0  0  0
    4.8172    1.2976   -3.3242 C   0  0  0  0  0  0  0  0  0  0  0  0
    3.7083    2.1091   -3.2443 O   0  0  0  0  0  0  0  0  0  0  0  0
    3.4952    2.7159   -1.9590 C   0  0  0  0  0  0  0  0  0  0  0  0
    2.3906    3.7963   -2.0082 C   0  0  3  0  0  0  0  0  0  0  0  0
    1.0610    3.1941   -2.4592 C   0  0  0  0  0  0  0  0  0  0  0  0
    2.2130    4.4211   -0.6949 N   0  0  0  0  0  0  0  0  0  0  0  0
    3.0853    5.3711   -0.2046 C   0  0  0  0  0  0  0  0  0  0  0  0
    3.9485    5.9108   -0.8899 O   0  0  0  0  0  0  0  0  0  0  0  0
    2.8647    5.7289    1.2742 C   0  0  0  0  0  0  0  0  0  0  0  0
    2.4724    4.5412    2.0825 N   0  0  0  0  0  0  0  0  0  0  0  0
    3.5642    3.5584    2.1440 C   0  0  0  0  0  0  0  0  0  0  0  0
    2.1576    4.9743    3.4512 C   0  0  0  0  0  0  0  0  0  0  0  0
    3.4600   -3.8589   -3.2590 H   0  0  0  0  0  0  0  0  0  0  0  0
    3.5186   -3.7503   -1.4050 H   0  0  0  0  0  0  0  0  0  0  0  0
    3.5073   -1.4055   -3.4102 H   0  0  0  0  0  0  0  0  0  0  0  0
    4.7721    0.2560   -0.3480 H   0  0  0  0  0  0  0  0  0  0  0  0
    6.6517   -1.1391   -1.8143 H   0  0  0  0  0  0  0  0  0  0  0  0
    8.7215   -2.0081   -2.4185 H   0  0  0  0  0  0  0  0  0  0  0  0
    7.9495   -3.7888   -5.5405 H   0  0  0  0  0  0  0  0  0  0  0  0
    9.3582   -5.6020   -6.4130 H   0  0  0  0  0  0  0  0  0  0  0  0
   11.8717   -5.3209   -2.9132 H   0  0  0  0  0  0  0  0  0  0  0  0
    8.7281   -0.1554   -7.1738 H   0  0  0  0  0  0  0  0  0  0  0  0
    5.1815    2.0309   -5.3157 H   0  0  0  0  0  0  0  0  0  0  0  0
    4.4325    3.1549   -1.5970 H   0  0  0  0  0  0  0  0  0  0  0  0
    3.1512    1.9685   -1.2410 H   0  0  0  0  0  0  0  0  0  0  0  0
    2.6838    4.5733   -2.7242 H   0  0  0  0  0  0  0  0  0  0  0  0
    0.7538    2.3788   -1.7935 H   0  0  0  0  0  0  0  0  0  0  0  0
    1.1283    2.7964   -3.4762 H   0  0  0  0  0  0  0  0  0  0  0  0
    0.2665    3.9479   -2.4397 H   0  0  0  0  0  0  0  0  0  0  0  0
    1.6839    3.9314    0.0244 H   0  0  0  0  0  0  0  0  0  0  0  0
    2.0628    6.4781    1.2965 H   0  0  0  0  0  0  0  0  0  0  0  0
    3.7800    6.1882    1.6662 H   0  0  0  0  0  0  0  0  0  0  0  0
    3.8296    3.1904    1.1481 H   0  0  0  0  0  0  0  0  0  0  0  0
    3.2441    2.6793    2.7149 H   0  0  0  0  0  0  0  0  0  0  0  0
    4.4664    3.9670    2.6090 H   0  0  0  0  0  0  0  0  0  0  0  0
    1.3525    5.7161    3.4563 H   0  0  0  0  0  0  0  0  0  0  0  0
    3.0291    5.4121    3.9579 H   0  0  0  0  0  0  0  0  0  0  0  0
    1.8087    4.1257    4.0514 H   0  0  0  0  0  0  0  0  0  0  0  0
  1  2  2  0  0  0  0
  1 36  1  0  0  0  0
  1 37  1  0  0  0  0
  2  3  1  0  0  0  0
  2 38  1  0  0  0  0
  3  4  2  0  0  0  0
  3  5  1  0  0  0  0
  5  6  1  0  0  0  0
  5 39  1  0  0  0  0
  6  7  1  0  0  0  0
  6 24  2  0  0  0  0
  7  8  2  0  0  0  0
  7 40  1  0  0  0  0
  8  9  1  0  0  0  0
  8 22  1  0  0  0  0
  9 10  1  0  0  0  0
  9 19  2  0  0  0  0
 10 11  1  0  0  0  0
 10 41  1  0  0  0  0
 11 12  1  0  0  0  0
 11 17  2  0  0  0  0
 12 13  2  0  0  0  0
 12 42  1  0  0  0  0
 13 14  1  0  0  0  0
 13 43  1  0  0  0  0
 14 15  1  0  0  0  0
 14 16  2  0  0  0  0
 16 17  1  0  0  0  0
 16 44  1  0  0  0  0
 17 18  1  0  0  0  0
 19 20  1  0  0  0  0
 20 21  2  0  0  0  0
 20 45  1  0  0  0  0
 21 22  1  0  0  0  0
 22 23  2  0  0  0  0
 23 24  1  0  0  0  0
 23 46  1  0  0  0  0
 24 25  1  0  0  0  0
 25 26  1  0  0  0  0
 26 27  1  0  0  0  0
 26 47  1  0  0  0  0
 26 48  1  0  0  0  0
 27 28  1  0  0  0  0
 27 29  1  0  0  0  0
 27 49  1  0  0  0  0
 28 50  1  0  0  0  0
 28 51  1  0  0  0  0
 28 52  1  0  0  0  0
 29 30  1  0  0  0  0
 29 53  1  0  0  0  0
 30 31  2  0  0  0  0
 30 32  1  0  0  0  0
 32 33  1  0  0  0  0
 32 54  1  0  0  0  0
 32 55  1  0  0  0  0
 33 34  1  0  0  0  0
 33 35  1  0  0  0  0
 34 56  1  0  0  0  0
 34 57  1  0  0  0  0
 34 58  1  0  0  0  0
 35 59  1  0  0  0  0
 35 60  1  0  0  0  0
 35 61  1  0  0  0  0
M  END
$$$$
