CHEMBL3676374
 OpenBabel04072215373D

 70 72  0  0  1  0  0  0  0  0999 V2000
    4.7380   -2.2755    0.0509 C   0  0  0  0  0  0  0  0  0  0  0  0
    4.2745   -1.0199   -0.0283 C   0  0  0  0  0  0  0  0  0  0  0  0
    5.1913    0.1133    0.2588 C   0  0  0  0  0  0  0  0  0  0  0  0
    6.3789   -0.0757    0.5041 O   0  0  0  0  0  0  0  0  0  0  0  0
    4.5794    1.3508    0.2152 N   0  0  0  0  0  0  0  0  0  0  0  0
    5.3167    2.5533    0.1108 C   0  0  0  0  0  0  0  0  0  0  0  0
    6.4624    2.5861   -0.6884 C   0  0  0  0  0  0  0  0  0  0  0  0
    7.1756    3.7878   -0.8926 C   0  0  0  0  0  0  0  0  0  0  0  0
    8.2193    3.9678   -1.8106 C   0  0  0  0  0  0  0  0  0  0  0  0
    8.5593    2.9297   -2.7180 N   0  0  0  0  0  0  0  0  0  0  0  0
    9.2852    3.1472   -3.9132 C   0  0  0  0  0  0  0  0  0  0  0  0
    8.9685    4.2197   -4.7615 C   0  0  0  0  0  0  0  0  0  0  0  0
    9.7615    4.5164   -5.8699 C   0  0  0  0  0  0  0  0  0  0  0  0
   10.8717    3.7231   -6.1516 C   0  0  0  0  0  0  0  0  0  0  0  0
   11.9993    4.1819   -7.5971 Br  0  0  0  0  0  0  0  0  0  0  0  0
   11.1681    2.6133   -5.3636 C   0  0  0  0  0  0  0  0  0  0  0  0
   10.3678    2.3311   -4.2589 C   0  0  0  0  0  0  0  0  0  0  0  0
   10.6722    1.2759   -3.4873 F   0  0  0  0  0  0  0  0  0  0  0  0
    8.8586    5.1477   -1.9338 N   0  0  0  0  0  0  0  0  0  0  0  0
    8.4422    6.1496   -1.1606 C   0  0  0  0  0  0  0  0  0  0  0  0
    7.4276    6.1014   -0.2971 N   0  0  0  0  0  0  0  0  0  0  0  0
    6.7904    4.9326   -0.1927 C   0  0  0  0  0  0  0  0  0  0  0  0
    5.6628    4.8813    0.6060 C   0  0  0  0  0  0  0  0  0  0  0  0
    4.8679    3.7288    0.7226 C   0  0  0  0  0  0  0  0  0  0  0  0
    3.6933    3.6790    1.4326 O   0  0  0  0  0  0  0  0  0  0  0  0
    3.1456    4.9643    1.7678 C   0  0  0  0  0  0  0  0  0  0  0  0
    1.7174    4.8329    2.3165 C   0  0  3  0  0  0  0  0  0  0  0  0
    1.7158    4.2012    3.7059 C   0  0  0  0  0  0  0  0  0  0  0  0
    1.0781    6.1379    2.3967 N   0  0  0  0  0  0  0  0  0  0  0  0
    0.5473    6.7962    1.3172 C   0  0  0  0  0  0  0  0  0  0  0  0
    0.4922    6.3040    0.1934 O   0  0  0  0  0  0  0  0  0  0  0  0
    0.1085    8.2269    1.5853 C   0  0  0  0  0  0  0  0  0  0  0  0
   -0.2619    8.5345    3.0437 C   0  0  0  0  0  0  0  0  0  0  0  0
    0.8357    8.3732    4.0368 N   0  0  0  0  0  0  0  0  0  0  0  0
    2.0187    9.2058    3.7509 C   0  0  0  0  0  0  0  0  0  0  0  0
    1.8378   10.7125    3.8858 C   0  0  0  0  0  0  0  0  0  0  0  0
    0.2919    8.5558    5.3974 C   0  0  0  0  0  0  0  0  0  0  0  0
    1.2921    8.3020    6.5208 C   0  0  0  0  0  0  0  0  0  0  0  0
    4.1242   -3.1244   -0.2273 H   0  0  0  0  0  0  0  0  0  0  0  0
    5.7554   -2.4846    0.3767 H   0  0  0  0  0  0  0  0  0  0  0  0
    3.2750   -0.8106   -0.3850 H   0  0  0  0  0  0  0  0  0  0  0  0
    3.5953    1.4338    0.4362 H   0  0  0  0  0  0  0  0  0  0  0  0
    6.7748    1.6876   -1.2203 H   0  0  0  0  0  0  0  0  0  0  0  0
    8.8568    2.0917   -2.2242 H   0  0  0  0  0  0  0  0  0  0  0  0
    8.1142    4.8550   -4.5363 H   0  0  0  0  0  0  0  0  0  0  0  0
    9.5170    5.3795   -6.4833 H   0  0  0  0  0  0  0  0  0  0  0  0
   12.0230    1.9810   -5.5763 H   0  0  0  0  0  0  0  0  0  0  0  0
    8.9628    7.0946   -1.2604 H   0  0  0  0  0  0  0  0  0  0  0  0
    5.4009    5.8015    1.1208 H   0  0  0  0  0  0  0  0  0  0  0  0
    3.1215    5.5986    0.8720 H   0  0  0  0  0  0  0  0  0  0  0  0
    3.7744    5.4468    2.5290 H   0  0  0  0  0  0  0  0  0  0  0  0
    1.1314    4.2028    1.6376 H   0  0  0  0  0  0  0  0  0  0  0  0
    2.2713    4.8214    4.4203 H   0  0  0  0  0  0  0  0  0  0  0  0
    2.1651    3.2048    3.6946 H   0  0  0  0  0  0  0  0  0  0  0  0
    0.6914    4.1146    4.0849 H   0  0  0  0  0  0  0  0  0  0  0  0
    1.2274    6.6977    3.2394 H   0  0  0  0  0  0  0  0  0  0  0  0
   -0.7830    8.4038    0.9702 H   0  0  0  0  0  0  0  0  0  0  0  0
    0.8852    8.9027    1.2135 H   0  0  0  0  0  0  0  0  0  0  0  0
   -1.0720    7.8446    3.3175 H   0  0  0  0  0  0  0  0  0  0  0  0
   -0.6852    9.5441    3.0985 H   0  0  0  0  0  0  0  0  0  0  0  0
    2.3887    8.9811    2.7446 H   0  0  0  0  0  0  0  0  0  0  0  0
    2.8470    8.8895    4.3970 H   0  0  0  0  0  0  0  0  0  0  0  0
    0.9074   11.0642    3.4328 H   0  0  0  0  0  0  0  0  0  0  0  0
    2.6610   11.2293    3.3815 H   0  0  0  0  0  0  0  0  0  0  0  0
    1.8470   11.0168    4.9368 H   0  0  0  0  0  0  0  0  0  0  0  0
   -0.5270    7.8387    5.5407 H   0  0  0  0  0  0  0  0  0  0  0  0
   -0.1402    9.5566    5.5160 H   0  0  0  0  0  0  0  0  0  0  0  0
    1.7367    7.3049    6.4398 H   0  0  0  0  0  0  0  0  0  0  0  0
    0.7830    8.3651    7.4888 H   0  0  0  0  0  0  0  0  0  0  0  0
    2.0959    9.0438    6.5308 H   0  0  0  0  0  0  0  0  0  0  0  0
  1  2  2  0  0  0  0
  1 39  1  0  0  0  0
  1 40  1  0  0  0  0
  2  3  1  0  0  0  0
  2 41  1  0  0  0  0
  3  4  2  0  0  0  0
  3  5  1  0  0  0  0
  5  6  1  0  0  0  0
  5 42  1  0  0  0  0
  6  7  1  0  0  0  0
  6 24  2  0  0  0  0
  7  8  2  0  0  0  0
  7 43  1  0  0  0  0
  8  9  1  0  0  0  0
  8 22  1  0  0  0  0
  9 10  1  0  0  0  0
  9 19  2  0  0  0  0
 10 11  1  0  0  0  0
 10 44  1  0  0  0  0
 11 12  1  0  0  0  0
 11 17  2  0  0  0  0
 12 13  2  0  0  0  0
 12 45  1  0  0  0  0
 13 14  1  0  0  0  0
 13 46  1  0  0  0  0
 14 15  1  0  0  0  0
 14 16  2  0  0  0  0
 16 17  1  0  0  0  0
 16 47  1  0  0  0  0
 17 18  1  0  0  0  0
 19 20  1  0  0  0  0
 20 21  2  0  0  0  0
 20 48  1  0  0  0  0
 21 22  1  0  0  0  0
 22 23  2  0  0  0  0
 23 24  1  0  0  0  0
 23 49  1  0  0  0  0
 24 25  1  0  0  0  0
 25 26  1  0  0  0  0
 26 27  1  0  0  0  0
 26 50  1  0  0  0  0
 26 51  1  0  0  0  0
 27 28  1  0  0  0  0
 27 29  1  0  0  0  0
 27 52  1  0  0  0  0
 28 53  1  0  0  0  0
 28 54  1  0  0  0  0
 28 55  1  0  0  0  0
 29 30  1  0  0  0  0
 29 56  1  0  0  0  0
 30 31  2  0  0  0  0
 30 32  1  0  0  0  0
 32 33  1  0  0  0  0
 32 57  1  0  0  0  0
 32 58  1  0  0  0  0
 33 34  1  0  0  0  0
 33 59  1  0  0  0  0
 33 60  1  0  0  0  0
 34 35  1  0  0  0  0
 34 37  1  0  0  0  0
 35 36  1  0  0  0  0
 35 61  1  0  0  0  0
 35 62  1  0  0  0  0
 36 63  1  0  0  0  0
 36 64  1  0  0  0  0
 36 65  1  0  0  0  0
 37 38  1  0  0  0  0
 37 66  1  0  0  0  0
 37 67  1  0  0  0  0
 38 68  1  0  0  0  0
 38 69  1  0  0  0  0
 38 70  1  0  0  0  0
M  END
$$$$
