CHEMBL4553351
 OpenBabel04072215383D

 62 68  0  0  1  0  0  0  0  0999 V2000
    4.9414    0.0905    0.0907 C   0  0  0  0  0  0  0  0  0  0  0  0
    5.9867   -0.0588    1.0427 O   0  0  0  0  0  0  0  0  0  0  0  0
    5.9009    0.6989    2.1816 C   0  0  0  0  0  0  0  0  0  0  0  0
    7.1387    1.0298    2.7594 C   0  0  0  0  0  0  0  0  0  0  0  0
    7.2102    1.7713    3.9411 C   0  0  0  0  0  0  0  0  0  0  0  0
    6.0158    2.1287    4.5302 C   0  0  0  0  0  0  0  0  0  0  0  0
    4.7625    1.7794    4.0101 C   0  0  0  0  0  0  0  0  0  0  0  0
    4.7056    1.0822    2.8055 C   0  0  0  0  0  0  0  0  0  0  0  0
    3.7069    2.3014    4.9639 C   0  0  1  0  0  0  0  0  0  0  0  0
    2.3248    2.6262    4.4941 C   0  0  0  0  0  0  0  0  0  0  0  0
    2.4970    1.4973    5.4804 C   0  0  1  0  0  0  0  0  0  0  0  0
    2.5285    0.0267    5.1516 C   0  0  0  0  0  0  0  0  0  0  0  0
    1.8431   -0.5255    4.0614 C   0  0  0  0  0  0  0  0  0  0  0  0
    2.2312   -1.7549    3.5096 C   0  0  0  0  0  0  0  0  0  0  0  0
    3.3228   -2.4401    4.0791 C   0  0  0  0  0  0  0  0  0  0  0  0
    4.1989   -3.5097    3.7132 C   0  0  0  0  0  0  0  0  0  0  0  0
    4.3482   -4.1757    2.4174 C   0  0  0  0  0  0  0  0  0  0  0  0
    4.0801   -3.5096    1.2157 C   0  0  0  0  0  0  0  0  0  0  0  0
    4.3365   -4.1224   -0.0217 C   0  0  0  0  0  0  0  0  0  0  0  0
    4.8646   -5.4144   -0.0985 C   0  0  0  0  0  0  0  0  0  0  0  0
    5.1580   -6.0333   -1.2971 N   0  0  0  0  0  0  0  0  0  0  0  0
    5.5626   -5.2948   -2.4993 C   0  0  0  0  0  0  0  0  0  0  0  0
    4.5303   -5.4650   -3.6342 C   0  0  0  0  0  0  0  0  0  0  0  0
    4.2024   -6.8780   -3.9263 N   0  0  0  0  0  0  0  0  0  0  0  0
    3.7265   -7.5131   -2.6776 C   0  0  0  0  0  0  0  0  0  0  0  0
    4.7379   -7.4260   -1.5114 C   0  0  0  0  0  0  0  0  0  0  0  0
    5.1255   -6.0684    1.1151 C   0  0  0  0  0  0  0  0  0  0  0  0
    4.8792   -5.4634    2.3512 C   0  0  0  0  0  0  0  0  0  0  0  0
    5.0316   -3.8142    4.7268 N   0  0  0  0  0  0  0  0  0  0  0  0
    4.7800   -2.8834    5.6532 N   0  0  0  0  0  0  0  0  0  0  0  0
    3.8243   -1.9814    5.2897 C   0  0  0  0  0  0  0  0  0  0  0  0
    3.4248   -0.7833    5.8742 C   0  0  0  0  0  0  0  0  0  0  0  0
    4.5011    3.0602    5.9971 C   0  0  0  0  0  0  0  0  0  0  0  0
    4.0283    3.6747    6.9380 O   0  0  0  0  0  0  0  0  0  0  0  0
    5.8402    2.8791    5.6960 N   0  0  0  0  0  0  0  0  0  0  0  0
    5.1147   -0.6409   -0.7058 H   0  0  0  0  0  0  0  0  0  0  0  0
    4.9716    1.0889   -0.3564 H   0  0  0  0  0  0  0  0  0  0  0  0
    3.9529   -0.1213    0.5059 H   0  0  0  0  0  0  0  0  0  0  0  0
    8.0556    0.7080    2.2707 H   0  0  0  0  0  0  0  0  0  0  0  0
    8.1670    2.0389    4.3710 H   0  0  0  0  0  0  0  0  0  0  0  0
    3.7419    0.8122    2.3978 H   0  0  0  0  0  0  0  0  0  0  0  0
    2.0481    2.3909    3.4743 H   0  0  0  0  0  0  0  0  0  0  0  0
    1.8849    3.5507    4.8537 H   0  0  0  0  0  0  0  0  0  0  0  0
    2.1385    1.7295    6.4837 H   0  0  0  0  0  0  0  0  0  0  0  0
    1.0747    0.0559    3.5563 H   0  0  0  0  0  0  0  0  0  0  0  0
    1.7550   -2.1172    2.6039 H   0  0  0  0  0  0  0  0  0  0  0  0
    3.7137   -2.4884    1.2168 H   0  0  0  0  0  0  0  0  0  0  0  0
    4.1015   -3.5667   -0.9247 H   0  0  0  0  0  0  0  0  0  0  0  0
    6.5260   -5.7014   -2.8324 H   0  0  0  0  0  0  0  0  0  0  0  0
    5.7379   -4.2304   -2.3077 H   0  0  0  0  0  0  0  0  0  0  0  0
    4.9245   -5.0062   -4.5478 H   0  0  0  0  0  0  0  0  0  0  0  0
    3.6076   -4.9278   -3.3834 H   0  0  0  0  0  0  0  0  0  0  0  0
    5.0661   -7.3475   -4.2007 H   0  0  0  0  0  0  0  0  0  0  0  0
    3.5077   -8.5666   -2.8829 H   0  0  0  0  0  0  0  0  0  0  0  0
    2.7789   -7.0462   -2.3806 H   0  0  0  0  0  0  0  0  0  0  0  0
    5.6259   -8.0261   -1.7444 H   0  0  0  0  0  0  0  0  0  0  0  0
    4.2712   -7.8692   -0.6241 H   0  0  0  0  0  0  0  0  0  0  0  0
    5.5845   -7.0534    1.1140 H   0  0  0  0  0  0  0  0  0  0  0  0
    5.1436   -5.9930    3.2639 H   0  0  0  0  0  0  0  0  0  0  0  0
    5.3453   -2.8776    6.4940 H   0  0  0  0  0  0  0  0  0  0  0  0
    3.9197   -0.4029    6.7635 H   0  0  0  0  0  0  0  0  0  0  0  0
    6.5852    3.2640    6.2569 H   0  0  0  0  0  0  0  0  0  0  0  0
  1  2  1  0  0  0  0
  1 36  1  0  0  0  0
  1 37  1  0  0  0  0
  1 38  1  0  0  0  0
  2  3  1  0  0  0  0
  3  4  1  0  0  0  0
  3  8  2  0  0  0  0
  4  5  2  0  0  0  0
  4 39  1  0  0  0  0
  5  6  1  0  0  0  0
  5 40  1  0  0  0  0
  6  7  2  0  0  0  0
  6 35  1  0  0  0  0
  7  8  1  0  0  0  0
  8 41  1  0  0  0  0
  9  7  1  6  0  0  0
  9 10  1  0  0  0  0
  9 11  1  0  0  0  0
  9 33  1  0  0  0  0
 10 11  1  0  0  0  0
 10 42  1  0  0  0  0
 10 43  1  0  0  0  0
 11 12  1  0  0  0  0
 11 44  1  1  0  0  0
 12 13  1  0  0  0  0
 12 32  2  0  0  0  0
 13 14  2  0  0  0  0
 13 45  1  0  0  0  0
 14 15  1  0  0  0  0
 14 46  1  0  0  0  0
 15 16  1  0  0  0  0
 15 31  2  0  0  0  0
 16 17  1  0  0  0  0
 16 29  2  0  0  0  0
 17 18  1  0  0  0  0
 17 28  2  0  0  0  0
 18 19  2  0  0  0  0
 18 47  1  0  0  0  0
 19 20  1  0  0  0  0
 19 48  1  0  0  0  0
 20 21  1  0  0  0  0
 20 27  2  0  0  0  0
 21 22  1  0  0  0  0
 21 26  1  0  0  0  0
 22 23  1  0  0  0  0
 22 49  1  0  0  0  0
 22 50  1  0  0  0  0
 23 24  1  0  0  0  0
 23 51  1  0  0  0  0
 23 52  1  0  0  0  0
 24 25  1  0  0  0  0
 24 53  1  0  0  0  0
 25 26  1  0  0  0  0
 25 54  1  0  0  0  0
 25 55  1  0  0  0  0
 26 56  1  0  0  0  0
 26 57  1  0  0  0  0
 27 28  1  0  0  0  0
 27 58  1  0  0  0  0
 28 59  1  0  0  0  0
 29 30  1  0  0  0  0
 30 31  1  0  0  0  0
 30 60  1  0  0  0  0
 31 32  1  0  0  0  0
 32 61  1  0  0  0  0
 33 34  2  0  0  0  0
 33 35  1  0  0  0  0
 35 62  1  0  0  0  0
M  END
$$$$
