CHEMBL2180882
 OpenBabel04072215363D

 45 48  0  0  0  0  0  0  0  0999 V2000
    1.0574   -0.3610   -0.1006 C   0  0  0  0  0  0  0  0  0  0  0  0
    2.4188   -0.0059    0.1004 O   0  0  0  0  0  0  0  0  0  0  0  0
    3.1361   -0.7019    1.0388 C   0  0  0  0  0  0  0  0  0  0  0  0
    2.7676   -1.9830    1.4681 C   0  0  0  0  0  0  0  0  0  0  0  0
    3.6016   -2.7257    2.3100 C   0  0  0  0  0  0  0  0  0  0  0  0
    3.2859   -4.1184    2.5971 C   0  0  0  0  0  0  0  0  0  0  0  0
    3.6991   -5.1728    1.8799 C   0  0  0  0  0  0  0  0  0  0  0  0
    4.5174   -5.1693    0.7224 C   0  0  0  0  0  0  0  0  0  0  0  0
    5.8915   -5.2604    0.7444 C   0  0  0  0  0  0  0  0  0  0  0  0
    6.3394   -5.1169   -0.5452 N   0  0  0  0  0  0  0  0  0  0  0  0
    5.2762   -4.9284   -1.3978 C   0  0  0  0  0  0  0  0  0  0  0  0
    5.2509   -4.7168   -2.7706 C   0  0  0  0  0  0  0  0  0  0  0  0
    4.0611   -4.5483   -3.3894 N   0  0  0  0  0  0  0  0  0  0  0  0
    2.9291   -4.5894   -2.6542 C   0  0  0  0  0  0  0  0  0  0  0  0
    2.8814   -4.7920   -1.2824 C   0  0  0  0  0  0  0  0  0  0  0  0
    4.1110   -4.9693   -0.6299 C   0  0  0  0  0  0  0  0  0  0  0  0
    3.1333   -6.3805    2.5113 C   0  0  0  0  0  0  0  0  0  0  0  0
    3.2652   -7.5304    2.1425 O   0  0  0  0  0  0  0  0  0  0  0  0
    2.4257   -5.9660    3.5901 N   0  0  0  0  0  0  0  0  0  0  0  0
    2.4698   -4.6203    3.7126 C   0  0  0  0  0  0  0  0  0  0  0  0
    1.9351   -3.9507    4.5732 O   0  0  0  0  0  0  0  0  0  0  0  0
    4.8175   -2.1862    2.7304 C   0  0  0  0  0  0  0  0  0  0  0  0
    5.2109   -0.9161    2.3003 C   0  0  0  0  0  0  0  0  0  0  0  0
    6.4195   -0.3640    2.6569 O   0  0  0  0  0  0  0  0  0  0  0  0
    7.4948   -1.2948    2.7741 C   0  0  0  0  0  0  0  0  0  0  0  0
    4.3496   -0.1456    1.4896 C   0  0  0  0  0  0  0  0  0  0  0  0
    4.8271    1.0987    1.1376 O   0  0  0  0  0  0  0  0  0  0  0  0
    3.8545    2.1256    0.9692 C   0  0  0  0  0  0  0  0  0  0  0  0
    0.6503    0.3078   -0.8652 H   0  0  0  0  0  0  0  0  0  0  0  0
    0.4834   -0.2139    0.8197 H   0  0  0  0  0  0  0  0  0  0  0  0
    0.9499   -1.3813   -0.4796 H   0  0  0  0  0  0  0  0  0  0  0  0
    1.8562   -2.4521    1.1117 H   0  0  0  0  0  0  0  0  0  0  0  0
    6.5939   -5.3919    1.5563 H   0  0  0  0  0  0  0  0  0  0  0  0
    7.3097   -5.1255   -0.8302 H   0  0  0  0  0  0  0  0  0  0  0  0
    6.1388   -4.6728   -3.3896 H   0  0  0  0  0  0  0  0  0  0  0  0
    2.0138   -4.4455   -3.2222 H   0  0  0  0  0  0  0  0  0  0  0  0
    1.9369   -4.8135   -0.7544 H   0  0  0  0  0  0  0  0  0  0  0  0
    1.9319   -6.5783    4.2138 H   0  0  0  0  0  0  0  0  0  0  0  0
    5.4591   -2.7757    3.3777 H   0  0  0  0  0  0  0  0  0  0  0  0
    8.4321   -0.7300    2.7876 H   0  0  0  0  0  0  0  0  0  0  0  0
    7.5313   -1.9827    1.9223 H   0  0  0  0  0  0  0  0  0  0  0  0
    7.4308   -1.8464    3.7171 H   0  0  0  0  0  0  0  0  0  0  0  0
    4.3582    3.0888    1.0962 H   0  0  0  0  0  0  0  0  0  0  0  0
    3.0536    2.0716    1.7156 H   0  0  0  0  0  0  0  0  0  0  0  0
    3.4530    2.1131   -0.0483 H   0  0  0  0  0  0  0  0  0  0  0  0
  1  2  1  0  0  0  0
  1 29  1  0  0  0  0
  1 30  1  0  0  0  0
  1 31  1  0  0  0  0
  2  3  1  0  0  0  0
  3  4  1  0  0  0  0
  3 26  2  0  0  0  0
  4  5  2  0  0  0  0
  4 32  1  0  0  0  0
  5  6  1  0  0  0  0
  5 22  1  0  0  0  0
  6  7  2  0  0  0  0
  6 20  1  0  0  0  0
  7  8  1  0  0  0  0
  7 17  1  0  0  0  0
  8  9  2  0  0  0  0
  8 16  1  0  0  0  0
  9 10  1  0  0  0  0
  9 33  1  0  0  0  0
 10 11  1  0  0  0  0
 10 34  1  0  0  0  0
 11 12  1  0  0  0  0
 11 16  2  0  0  0  0
 12 13  2  0  0  0  0
 12 35  1  0  0  0  0
 13 14  1  0  0  0  0
 14 15  2  0  0  0  0
 14 36  1  0  0  0  0
 15 16  1  0  0  0  0
 15 37  1  0  0  0  0
 17 18  2  0  0  0  0
 17 19  1  0  0  0  0
 19 20  1  0  0  0  0
 19 38  1  0  0  0  0
 20 21  2  0  0  0  0
 22 23  2  0  0  0  0
 22 39  1  0  0  0  0
 23 24  1  0  0  0  0
 23 26  1  0  0  0  0
 24 25  1  0  0  0  0
 25 40  1  0  0  0  0
 25 41  1  0  0  0  0
 25 42  1  0  0  0  0
 26 27  1  0  0  0  0
 27 28  1  0  0  0  0
 28 43  1  0  0  0  0
 28 44  1  0  0  0  0
 28 45  1  0  0  0  0
M  END
$$$$
