CHEMBL3963728
 OpenBabel04072215373D

 47 50  0  0  0  0  0  0  0  0999 V2000
    1.9281    0.5260    2.7057 Cl  0  0  0  0  0  0  0  0  0  0  0  0
    1.2386   -0.7610   -0.2642 C   0  0  0  0  0  0  0  0  0  0  0  0
    0.2855   -1.6724    0.1910 C   0  0  0  0  0  0  0  0  0  0  0  0
   -1.0841   -1.3532    0.1743 C   0  0  0  0  0  0  0  0  0  0  0  0
   -1.5328   -0.1008   -0.2816 C   0  0  0  0  0  0  0  0  0  0  0  0
   -2.9455    0.2604   -0.3616 N   0  0  0  0  0  0  0  0  0  0  0  0
   -3.2519    1.7483   -0.4768 C   0  0  0  0  0  0  0  0  0  0  0  0
   -3.3512    2.3376   -1.9499 C   0  0  0  0  0  0  0  0  0  0  0  0
   -3.6297    3.8464   -2.1322 C   0  0  0  0  0  0  0  0  0  0  0  0
   -4.7398    2.8660   -2.3885 C   0  0  0  0  0  0  0  0  0  0  0  0
   -4.0853   -0.6869   -0.5177 C   0  0  0  0  0  0  0  0  0  0  0  0
   -4.9638   -0.2178   -1.4602 C   0  0  0  0  0  0  0  0  0  0  0  0
   -6.1547   -0.6968   -1.7351 C   0  0  0  0  0  0  0  0  0  0  0  0
   -6.5902   -1.7927   -1.1341 C   0  0  0  0  0  0  0  0  0  0  0  0
   -7.8358   -2.0754   -1.4483 N   0  0  0  0  0  0  0  0  0  0  0  0
   -8.4259   -3.1609   -1.0468 C   0  0  0  0  0  0  0  0  0  0  0  0
   -7.7344   -4.1421   -0.3321 C   0  0  0  0  0  0  0  0  0  0  0  0
   -8.5791   -5.4247   -0.2808 C   0  0  0  0  0  0  0  0  0  0  0  0
   -9.7049   -5.6266   -1.1291 C   0  0  0  0  0  0  0  0  0  0  0  0
  -10.2651   -6.8133   -0.9205 N   0  0  0  0  0  0  0  0  0  0  0  0
   -9.5682   -7.4143    0.0150 N   0  0  0  0  0  0  0  0  0  0  0  0
   -8.5433   -6.6286    0.4218 C   0  0  0  0  0  0  0  0  0  0  0  0
   -6.4263   -3.8093    0.1215 N   0  0  0  0  0  0  0  0  0  0  0  0
   -5.8180   -2.5770   -0.2661 C   0  0  0  0  0  0  0  0  0  0  0  0
   -4.4875   -1.9938    0.0979 C   0  0  0  0  0  0  0  0  0  0  0  0
   -0.5235    0.8226   -0.7154 C   0  0  0  0  0  0  0  0  0  0  0  0
    0.8344    0.4884   -0.7146 C   0  0  0  0  0  0  0  0  0  0  0  0
    2.7527    0.7692    1.6299 H   0  0  0  0  0  0  0  0  0  0  0  0
    2.2921   -1.0184   -0.2624 H   0  0  0  0  0  0  0  0  0  0  0  0
    0.6125   -2.6363    0.5546 H   0  0  0  0  0  0  0  0  0  0  0  0
   -1.7701   -2.0893    0.5330 H   0  0  0  0  0  0  0  0  0  0  0  0
   -2.5120    2.3473    0.0946 H   0  0  0  0  0  0  0  0  0  0  0  0
   -4.1852    1.9585    0.0882 H   0  0  0  0  0  0  0  0  0  0  0  0
   -2.5341    2.1294   -2.6723 H   0  0  0  0  0  0  0  0  0  0  0  0
   -3.4715    4.2651   -3.1549 H   0  0  0  0  0  0  0  0  0  0  0  0
   -4.1243    4.5172   -1.4013 H   0  0  0  0  0  0  0  0  0  0  0  0
   -4.9562    2.5229   -3.4266 H   0  0  0  0  0  0  0  0  0  0  0  0
   -5.4972    2.7553   -1.5767 H   0  0  0  0  0  0  0  0  0  0  0  0
   -4.7702    0.5774   -2.0575 H   0  0  0  0  0  0  0  0  0  0  0  0
   -6.7734   -0.1820   -2.4559 H   0  0  0  0  0  0  0  0  0  0  0  0
   -9.4347   -3.2128   -1.3656 H   0  0  0  0  0  0  0  0  0  0  0  0
  -10.1177   -4.9873   -1.8969 H   0  0  0  0  0  0  0  0  0  0  0  0
   -9.8131   -8.3653    0.3556 H   0  0  0  0  0  0  0  0  0  0  0  0
   -7.8260   -6.9416    1.1834 H   0  0  0  0  0  0  0  0  0  0  0  0
   -3.8600   -2.5005    0.8278 H   0  0  0  0  0  0  0  0  0  0  0  0
   -0.7572    1.8067   -1.0952 H   0  0  0  0  0  0  0  0  0  0  0  0
    1.5758    1.1994   -1.0689 H   0  0  0  0  0  0  0  0  0  0  0  0
  1 28  1  0  0  0  0
  2  3  1  0  0  0  0
  2 27  2  0  0  0  0
  2 29  1  0  0  0  0
  3  4  2  0  0  0  0
  3 30  1  0  0  0  0
  4  5  1  0  0  0  0
  4 31  1  0  0  0  0
  5  6  1  0  0  0  0
  5 26  2  0  0  0  0
  6  7  1  0  0  0  0
  6 11  1  0  0  0  0
  7  8  1  0  0  0  0
  7 32  1  0  0  0  0
  7 33  1  0  0  0  0
  8  9  1  0  0  0  0
  8 10  1  0  0  0  0
  8 34  1  0  0  0  0
  9 10  1  0  0  0  0
  9 35  1  0  0  0  0
  9 36  1  0  0  0  0
 10 37  1  0  0  0  0
 10 38  1  0  0  0  0
 11 12  1  0  0  0  0
 11 25  2  0  0  0  0
 12 13  2  0  0  0  0
 12 39  1  0  0  0  0
 13 14  1  0  0  0  0
 13 40  1  0  0  0  0
 14 15  1  0  0  0  0
 14 24  2  0  0  0  0
 15 16  2  0  0  0  0
 16 17  1  0  0  0  0
 16 41  1  0  0  0  0
 17 18  1  0  0  0  0
 17 23  2  0  0  0  0
 18 19  1  0  0  0  0
 18 22  2  0  0  0  0
 19 20  2  0  0  0  0
 19 42  1  0  0  0  0
 20 21  1  0  0  0  0
 21 22  1  0  0  0  0
 21 43  1  0  0  0  0
 22 44  1  0  0  0  0
 23 24  1  0  0  0  0
 24 25  1  0  0  0  0
 25 45  1  0  0  0  0
 26 27  1  0  0  0  0
 26 46  1  0  0  0  0
 27 47  1  0  0  0  0
M  END
$$$$
