CHEMBL3660286
 OpenBabel04072215373D

 75 79  0  0  0  0  0  0  0  0999 V2000
    1.6108   -1.5970   -6.5085 C   0  0  0  0  0  0  0  0  0  0  0  0
    2.1801   -1.3672   -5.2190 O   0  0  0  0  0  0  0  0  0  0  0  0
    3.3106   -2.0814   -4.9751 C   0  0  0  0  0  0  0  0  0  0  0  0
    3.8180   -2.8950   -5.7346 O   0  0  0  0  0  0  0  0  0  0  0  0
    3.8702   -1.7351   -3.6176 C   0  0  0  0  0  0  0  0  0  0  0  0
    3.3104   -2.6049   -2.4819 C   0  0  0  0  0  0  0  0  0  0  0  0
    3.9318   -2.1957   -1.1303 C   0  0  0  0  0  0  0  0  0  0  0  0
    5.4014   -2.6187   -1.0055 C   0  0  0  0  0  0  0  0  0  0  0  0
    5.5648   -4.0365   -1.2992 N   0  0  0  0  0  0  0  0  0  0  0  0
    6.0587   -4.8730   -0.2849 C   0  0  0  0  0  0  0  0  0  0  0  0
    6.3145   -4.4314    0.8345 O   0  0  0  0  0  0  0  0  0  0  0  0
    6.2153   -6.3077   -0.5359 C   0  0  0  0  0  0  0  0  0  0  0  0
    6.5306   -6.9993   -1.6943 C   0  0  0  0  0  0  0  0  0  0  0  0
    6.5001   -8.3451   -1.4388 N   0  0  0  0  0  0  0  0  0  0  0  0
    6.2260   -8.5624   -0.1120 C   0  0  0  0  0  0  0  0  0  0  0  0
    6.1051   -9.8899    0.4656 C   0  0  0  0  0  0  0  0  0  0  0  0
    5.7957  -10.0459    1.8074 C   0  0  0  0  0  0  0  0  0  0  0  0
    5.7653  -11.3258    2.3449 C   0  0  0  0  0  0  0  0  0  0  0  0
    5.5223  -11.5745    3.6807 O   0  0  0  0  0  0  0  0  0  0  0  0
    6.0384  -10.7011    4.6186 C   0  0  0  0  0  0  0  0  0  0  0  0
    5.3308  -10.5331    5.7991 C   0  0  0  0  0  0  0  0  0  0  0  0
    5.7793   -9.6149    6.7613 C   0  0  0  0  0  0  0  0  0  0  0  0
    6.9414   -8.8519    6.5666 C   0  0  0  0  0  0  0  0  0  0  0  0
    7.4036   -7.8691    7.4829 N   0  0  0  0  0  0  0  0  0  0  0  0
    6.8094   -7.5620    8.6959 C   0  0  0  0  0  0  0  0  0  0  0  0
    5.8140   -8.1306    9.1535 O   0  0  0  0  0  0  0  0  0  0  0  0
    7.4395   -6.5282    9.3711 N   0  0  0  0  0  0  0  0  0  0  0  0
    6.8909   -6.1214   10.6236 C   0  0  0  0  0  0  0  0  0  0  0  0
    6.7107   -7.0423   11.6655 C   0  0  0  0  0  0  0  0  0  0  0  0
    6.1020   -6.6570   12.8707 C   0  0  0  0  0  0  0  0  0  0  0  0
    5.9258   -7.6425   13.9903 C   0  0  0  0  0  0  0  0  0  0  0  0
    5.6524   -5.3377   13.0168 C   0  0  0  0  0  0  0  0  0  0  0  0
    5.8319   -4.4146   11.9831 C   0  0  0  0  0  0  0  0  0  0  0  0
    6.4659   -4.8058   10.8051 C   0  0  0  0  0  0  0  0  0  0  0  0
    6.6000   -3.9180    9.8081 F   0  0  0  0  0  0  0  0  0  0  0  0
    7.6766   -9.0739    5.3988 C   0  0  0  0  0  0  0  0  0  0  0  0
    7.2441  -10.0111    4.4500 C   0  0  0  0  0  0  0  0  0  0  0  0
    5.9633  -12.4136    1.5063 C   0  0  0  0  0  0  0  0  0  0  0  0
    6.2384  -12.1654    0.1686 C   0  0  0  0  0  0  0  0  0  0  0  0
    6.3243  -10.9276   -0.3735 N   0  0  0  0  0  0  0  0  0  0  0  0
    6.1091   -7.3114    0.4715 C   0  0  0  0  0  0  0  0  0  0  0  0
    5.0119   -4.4738   -2.5778 C   0  0  0  0  0  0  0  0  0  0  0  0
    3.5402   -4.1055   -2.6860 C   0  0  0  0  0  0  0  0  0  0  0  0
    0.6522   -1.0732   -6.5505 H   0  0  0  0  0  0  0  0  0  0  0  0
    1.4295   -2.6637   -6.6731 H   0  0  0  0  0  0  0  0  0  0  0  0
    2.2638   -1.1896   -7.2870 H   0  0  0  0  0  0  0  0  0  0  0  0
    3.6507   -0.6800   -3.4172 H   0  0  0  0  0  0  0  0  0  0  0  0
    4.9607   -1.7958   -3.6945 H   0  0  0  0  0  0  0  0  0  0  0  0
    2.2263   -2.4424   -2.4321 H   0  0  0  0  0  0  0  0  0  0  0  0
    3.3606   -2.6758   -0.3247 H   0  0  0  0  0  0  0  0  0  0  0  0
    3.8414   -1.1138   -0.9825 H   0  0  0  0  0  0  0  0  0  0  0  0
    5.7660   -2.3625   -0.0053 H   0  0  0  0  0  0  0  0  0  0  0  0
    6.0283   -2.0688   -1.7148 H   0  0  0  0  0  0  0  0  0  0  0  0
    6.7464   -6.6588   -2.6968 H   0  0  0  0  0  0  0  0  0  0  0  0
    6.6516   -9.0875   -2.1111 H   0  0  0  0  0  0  0  0  0  0  0  0
    5.6268   -9.1778    2.4317 H   0  0  0  0  0  0  0  0  0  0  0  0
    4.4178  -11.0923    5.9931 H   0  0  0  0  0  0  0  0  0  0  0  0
    5.1749   -9.5202    7.6562 H   0  0  0  0  0  0  0  0  0  0  0  0
    8.2652   -7.3913    7.2580 H   0  0  0  0  0  0  0  0  0  0  0  0
    7.7375   -5.7636    8.7730 H   0  0  0  0  0  0  0  0  0  0  0  0
    7.0367   -8.0724   11.5332 H   0  0  0  0  0  0  0  0  0  0  0  0
    6.3158   -8.6296   13.7203 H   0  0  0  0  0  0  0  0  0  0  0  0
    4.8655   -7.7576   14.2377 H   0  0  0  0  0  0  0  0  0  0  0  0
    6.4677   -7.3021   14.8787 H   0  0  0  0  0  0  0  0  0  0  0  0
    5.1549   -5.0268   13.9335 H   0  0  0  0  0  0  0  0  0  0  0  0
    5.4645   -3.3990   12.0846 H   0  0  0  0  0  0  0  0  0  0  0  0
    8.5907   -8.5249    5.1905 H   0  0  0  0  0  0  0  0  0  0  0  0
    7.8432  -10.1618    3.5569 H   0  0  0  0  0  0  0  0  0  0  0  0
    5.9247  -13.4274    1.8870 H   0  0  0  0  0  0  0  0  0  0  0  0
    6.4146  -12.9844   -0.5233 H   0  0  0  0  0  0  0  0  0  0  0  0
    5.9179   -7.1151    1.5207 H   0  0  0  0  0  0  0  0  0  0  0  0
    5.0446   -5.5452   -2.7232 H   0  0  0  0  0  0  0  0  0  0  0  0
    5.6126   -4.0119   -3.3680 H   0  0  0  0  0  0  0  0  0  0  0  0
    2.9892   -4.6564   -1.9110 H   0  0  0  0  0  0  0  0  0  0  0  0
    3.1431   -4.4506   -3.6459 H   0  0  0  0  0  0  0  0  0  0  0  0
  1  2  1  0  0  0  0
  1 44  1  0  0  0  0
  1 45  1  0  0  0  0
  1 46  1  0  0  0  0
  2  3  1  0  0  0  0
  3  4  2  0  0  0  0
  3  5  1  0  0  0  0
  5  6  1  0  0  0  0
  5 47  1  0  0  0  0
  5 48  1  0  0  0  0
  6  7  1  0  0  0  0
  6 43  1  0  0  0  0
  6 49  1  0  0  0  0
  7  8  1  0  0  0  0
  7 50  1  0  0  0  0
  7 51  1  0  0  0  0
  8  9  1  0  0  0  0
  8 52  1  0  0  0  0
  8 53  1  0  0  0  0
  9 10  1  0  0  0  0
  9 42  1  0  0  0  0
 10 11  2  0  0  0  0
 10 12  1  0  0  0  0
 12 13  2  0  0  0  0
 12 41  1  0  0  0  0
 13 14  1  0  0  0  0
 13 54  1  0  0  0  0
 14 15  1  0  0  0  0
 14 55  1  0  0  0  0
 15 16  1  0  0  0  0
 15 41  2  0  0  0  0
 16 17  1  0  0  0  0
 16 40  2  0  0  0  0
 17 18  2  0  0  0  0
 17 56  1  0  0  0  0
 18 19  1  0  0  0  0
 18 38  1  0  0  0  0
 19 20  1  0  0  0  0
 20 21  1  0  0  0  0
 20 37  2  0  0  0  0
 21 22  2  0  0  0  0
 21 57  1  0  0  0  0
 22 23  1  0  0  0  0
 22 58  1  0  0  0  0
 23 24  1  0  0  0  0
 23 36  2  0  0  0  0
 24 25  1  0  0  0  0
 24 59  1  0  0  0  0
 25 26  2  0  0  0  0
 25 27  1  0  0  0  0
 27 28  1  0  0  0  0
 27 60  1  0  0  0  0
 28 29  1  0  0  0  0
 28 34  2  0  0  0  0
 29 30  2  0  0  0  0
 29 61  1  0  0  0  0
 30 31  1  0  0  0  0
 30 32  1  0  0  0  0
 31 62  1  0  0  0  0
 31 63  1  0  0  0  0
 31 64  1  0  0  0  0
 32 33  2  0  0  0  0
 32 65  1  0  0  0  0
 33 34  1  0  0  0  0
 33 66  1  0  0  0  0
 34 35  1  0  0  0  0
 36 37  1  0  0  0  0
 36 67  1  0  0  0  0
 37 68  1  0  0  0  0
 38 39  2  0  0  0  0
 38 69  1  0  0  0  0
 39 40  1  0  0  0  0
 39 70  1  0  0  0  0
 41 71  1  0  0  0  0
 42 43  1  0  0  0  0
 42 72  1  0  0  0  0
 42 73  1  0  0  0  0
 43 74  1  0  0  0  0
 43 75  1  0  0  0  0
M  END
$$$$
