CHEMBL3109337
 OpenBabel04072215363D

 57 61  0  0  1  0  0  0  0  0999 V2000
    0.4039   -4.5967    2.8228 C   0  0  0  0  0  0  0  0  0  0  0  0
    1.7119   -4.6960    2.2828 O   0  0  0  0  0  0  0  0  0  0  0  0
    2.6257   -3.8309    2.9570 C   0  0  0  0  0  0  0  0  0  0  0  0
    3.9959   -4.0135    2.3313 C   0  0  0  0  0  0  0  0  0  0  0  0
    4.9494   -3.1578    2.9654 O   0  0  0  0  0  0  0  0  0  0  0  0
    6.2435   -3.3062    2.5200 C   0  0  0  0  0  0  0  0  0  0  0  0
    7.1901   -2.4049    3.1637 C   0  0  0  0  0  0  0  0  0  0  0  0
    8.4877   -2.4427    2.8138 C   0  0  0  0  0  0  0  0  0  0  0  0
    8.9171   -3.3594    1.8466 N   0  0  0  0  0  0  0  0  0  0  0  0
   10.1602   -3.5983    1.2824 C   0  0  0  0  0  0  0  0  0  0  0  0
   11.3923   -2.8784    1.5445 C   0  0  0  0  0  0  0  0  0  0  0  0
   12.3386   -2.7308    0.5407 C   0  0  0  0  0  0  0  0  0  0  0  0
   13.5153   -2.0757    0.8402 C   0  0  0  0  0  0  0  0  0  0  0  0
   13.7170   -1.5817    2.1304 C   0  0  0  0  0  0  0  0  0  0  0  0
   14.9126   -0.9167    2.4255 C   0  0  0  0  0  0  0  0  0  0  0  0
   15.1278   -0.4119    3.6965 C   0  0  0  0  0  0  0  0  0  0  0  0
   14.1576   -0.5741    4.6843 C   0  0  0  0  0  0  0  0  0  0  0  0
   12.9583   -1.2522    4.4118 C   0  0  0  0  0  0  0  0  0  0  0  0
   11.9547   -1.4361    5.3496 O   0  0  0  0  0  0  0  0  0  0  0  0
   12.2570   -1.3078    6.7509 C   0  0  2  0  0  0  0  0  0  0  0  0
   12.9759   -2.5479    7.2917 C   0  0  0  0  0  0  0  0  0  0  0  0
   12.0647   -3.7763    7.3260 C   0  0  0  0  0  0  0  0  0  0  0  0
   10.8251   -3.5683    8.0765 N   0  0  0  0  0  0  0  0  0  0  0  0
   10.1058   -2.3656    7.6306 C   0  0  0  0  0  0  0  0  0  0  0  0
   10.9689   -1.1026    7.5587 C   0  0  1  0  0  0  0  0  0  0  0  0
   11.3214   -0.7535    8.8367 F   0  0  0  0  0  0  0  0  0  0  0  0
   12.7110   -1.7615    3.1143 C   0  0  0  0  0  0  0  0  0  0  0  0
   11.5624   -2.4113    2.8015 N   0  0  0  0  0  0  0  0  0  0  0  0
    9.9407   -4.6377    0.3904 C   0  0  0  0  0  0  0  0  0  0  0  0
    8.6353   -5.0179    0.3483 N   0  0  0  0  0  0  0  0  0  0  0  0
    8.0370   -4.2405    1.2209 C   0  0  0  0  0  0  0  0  0  0  0  0
    6.6697   -4.1797    1.5809 C   0  0  0  0  0  0  0  0  0  0  0  0
   -0.2488   -5.2746    2.2669 H   0  0  0  0  0  0  0  0  0  0  0  0
    0.0257   -3.5762    2.7149 H   0  0  0  0  0  0  0  0  0  0  0  0
    0.4043   -4.8932    3.8757 H   0  0  0  0  0  0  0  0  0  0  0  0
    2.6679   -4.0810    4.0234 H   0  0  0  0  0  0  0  0  0  0  0  0
    2.3029   -2.7881    2.8613 H   0  0  0  0  0  0  0  0  0  0  0  0
    3.9356   -3.7816    1.2594 H   0  0  0  0  0  0  0  0  0  0  0  0
    4.2856   -5.0665    2.4456 H   0  0  0  0  0  0  0  0  0  0  0  0
    6.8256   -1.7109    3.9171 H   0  0  0  0  0  0  0  0  0  0  0  0
    9.2308   -1.7905    3.2580 H   0  0  0  0  0  0  0  0  0  0  0  0
   12.1699   -3.1133   -0.4620 H   0  0  0  0  0  0  0  0  0  0  0  0
   14.2666   -1.9564    0.0638 H   0  0  0  0  0  0  0  0  0  0  0  0
   15.6761   -0.7871    1.6612 H   0  0  0  0  0  0  0  0  0  0  0  0
   16.0533    0.1132    3.9162 H   0  0  0  0  0  0  0  0  0  0  0  0
   14.3745   -0.1442    5.6548 H   0  0  0  0  0  0  0  0  0  0  0  0
   12.8628   -0.4157    6.9360 H   0  0  0  0  0  0  0  0  0  0  0  0
   13.3356   -2.3383    8.3074 H   0  0  0  0  0  0  0  0  0  0  0  0
   13.8553   -2.7812    6.6820 H   0  0  0  0  0  0  0  0  0  0  0  0
   12.6100   -4.5998    7.8022 H   0  0  0  0  0  0  0  0  0  0  0  0
   11.8321   -4.1076    6.3079 H   0  0  0  0  0  0  0  0  0  0  0  0
   11.0381   -3.4773    9.0704 H   0  0  0  0  0  0  0  0  0  0  0  0
    9.2969   -2.1909    8.3509 H   0  0  0  0  0  0  0  0  0  0  0  0
    9.6332   -2.5567    6.6612 H   0  0  0  0  0  0  0  0  0  0  0  0
   10.3783   -0.2759    7.1513 H   0  0  0  0  0  0  0  0  0  0  0  0
   10.6731   -5.1248   -0.2393 H   0  0  0  0  0  0  0  0  0  0  0  0
    6.0157   -4.8659    1.0633 H   0  0  0  0  0  0  0  0  0  0  0  0
  1  2  1  0  0  0  0
  1 33  1  0  0  0  0
  1 34  1  0  0  0  0
  1 35  1  0  0  0  0
  2  3  1  0  0  0  0
  3  4  1  0  0  0  0
  3 36  1  0  0  0  0
  3 37  1  0  0  0  0
  4  5  1  0  0  0  0
  4 38  1  0  0  0  0
  4 39  1  0  0  0  0
  5  6  1  0  0  0  0
  6  7  1  0  0  0  0
  6 32  2  0  0  0  0
  7  8  2  0  0  0  0
  7 40  1  0  0  0  0
  8  9  1  0  0  0  0
  8 41  1  0  0  0  0
  9 10  1  0  0  0  0
  9 31  1  0  0  0  0
 10 11  1  0  0  0  0
 10 29  2  0  0  0  0
 11 12  1  0  0  0  0
 11 28  2  0  0  0  0
 12 13  2  0  0  0  0
 12 42  1  0  0  0  0
 13 14  1  0  0  0  0
 13 43  1  0  0  0  0
 14 15  1  0  0  0  0
 14 27  2  0  0  0  0
 15 16  2  0  0  0  0
 15 44  1  0  0  0  0
 16 17  1  0  0  0  0
 16 45  1  0  0  0  0
 17 18  2  0  0  0  0
 17 46  1  0  0  0  0
 18 19  1  0  0  0  0
 18 27  1  0  0  0  0
 19 20  1  0  0  0  0
 20 21  1  0  0  0  0
 20 25  1  0  0  0  0
 20 47  1  1  0  0  0
 21 22  1  0  0  0  0
 21 48  1  0  0  0  0
 21 49  1  0  0  0  0
 22 23  1  0  0  0  0
 22 50  1  0  0  0  0
 22 51  1  0  0  0  0
 23 24  1  0  0  0  0
 23 52  1  0  0  0  0
 24 25  1  0  0  0  0
 24 53  1  0  0  0  0
 24 54  1  0  0  0  0
 25 26  1  0  0  0  0
 25 55  1  6  0  0  0
 27 28  1  0  0  0  0
 29 30  1  0  0  0  0
 29 56  1  0  0  0  0
 30 31  2  0  0  0  0
 31 32  1  0  0  0  0
 32 57  1  0  0  0  0
M  END
$$$$
