CHEMBL3939532
 OpenBabel04072215373D

 54 57  0  0  0  0  0  0  0  0999 V2000
    0.1774   -4.2548    3.5847 C   0  0  0  0  0  0  0  0  0  0  0  0
    1.5442   -4.1673    2.9248 C   0  0  0  0  0  0  0  0  0  0  0  0
    2.4043   -4.9441    3.6445 F   0  0  0  0  0  0  0  0  0  0  0  0
    1.4499   -4.7716    1.7041 F   0  0  0  0  0  0  0  0  0  0  0  0
    2.0255   -2.7484    2.8132 C   0  0  0  0  0  0  0  0  0  0  0  0
    1.6714   -1.9940    1.7015 C   0  0  0  0  0  0  0  0  0  0  0  0
    2.0699   -0.7265    1.5017 N   0  0  0  0  0  0  0  0  0  0  0  0
    2.8504   -0.1746    2.4643 C   0  0  0  0  0  0  0  0  0  0  0  0
    3.2436   -0.8221    3.6380 C   0  0  0  0  0  0  0  0  0  0  0  0
    4.0283   -0.2120    4.6537 N   0  0  0  0  0  0  0  0  0  0  0  0
    4.1723    1.1598    4.7627 C   0  0  0  0  0  0  0  0  0  0  0  0
    3.5554    1.9466    4.0504 O   0  0  0  0  0  0  0  0  0  0  0  0
    5.0760    1.5460    5.7393 N   0  0  0  0  0  0  0  0  0  0  0  0
    5.4124    2.9068    5.9819 C   0  0  0  0  0  0  0  0  0  0  0  0
    4.5865    3.9673    5.5829 C   0  0  0  0  0  0  0  0  0  0  0  0
    5.0146    5.2917    5.6595 C   0  0  0  0  0  0  0  0  0  0  0  0
    6.2651    5.5863    6.1868 C   0  0  0  0  0  0  0  0  0  0  0  0
    6.6369    6.9068    6.1003 O   0  0  0  0  0  0  0  0  0  0  0  0
    7.3502    7.4908    7.1162 C   0  0  0  0  0  0  0  0  0  0  0  0
    7.2323    7.1330    8.4521 C   0  0  0  0  0  0  0  0  0  0  0  0
    8.0301    7.7950    9.3570 C   0  0  0  0  0  0  0  0  0  0  0  0
    8.8643    8.7949    9.0193 N   0  0  0  0  0  0  0  0  0  0  0  0
    8.9321    9.1750    7.7332 C   0  0  0  0  0  0  0  0  0  0  0  0
    9.7902   10.2181    7.3574 N   0  0  0  0  0  0  0  0  0  0  0  0
   10.5819   10.9175    8.2458 C   0  0  0  0  0  0  0  0  0  0  0  0
   10.6435   10.7991    9.4602 O   0  0  0  0  0  0  0  0  0  0  0  0
   11.4835   11.9058    7.5722 C   0  0  0  0  0  0  0  0  0  0  0  0
   12.9792   11.6944    7.6590 C   0  0  0  0  0  0  0  0  0  0  0  0
   12.3472   12.8357    8.3993 C   0  0  0  0  0  0  0  0  0  0  0  0
    8.1843    8.5471    6.7478 C   0  0  0  0  0  0  0  0  0  0  0  0
    7.0648    4.5385    6.6532 C   0  0  0  0  0  0  0  0  0  0  0  0
    8.2858    4.7754    7.1544 F   0  0  0  0  0  0  0  0  0  0  0  0
    6.6364    3.2080    6.5801 C   0  0  0  0  0  0  0  0  0  0  0  0
    2.8303   -2.1450    3.7950 C   0  0  0  0  0  0  0  0  0  0  0  0
   -0.1460   -5.3007    3.6250 H   0  0  0  0  0  0  0  0  0  0  0  0
   -0.5801   -3.6989    3.0220 H   0  0  0  0  0  0  0  0  0  0  0  0
    0.2040   -3.8759    4.6112 H   0  0  0  0  0  0  0  0  0  0  0  0
    1.0454   -2.3992    0.9098 H   0  0  0  0  0  0  0  0  0  0  0  0
    3.1624    0.8330    2.2168 H   0  0  0  0  0  0  0  0  0  0  0  0
    4.2943   -0.7751    5.4493 H   0  0  0  0  0  0  0  0  0  0  0  0
    5.7457    0.8508    6.0370 H   0  0  0  0  0  0  0  0  0  0  0  0
    3.5962    3.7987    5.1698 H   0  0  0  0  0  0  0  0  0  0  0  0
    4.3738    6.0815    5.2757 H   0  0  0  0  0  0  0  0  0  0  0  0
    6.5656    6.3502    8.7907 H   0  0  0  0  0  0  0  0  0  0  0  0
    8.0277    7.5330   10.4094 H   0  0  0  0  0  0  0  0  0  0  0  0
    9.8480   10.4417    6.3763 H   0  0  0  0  0  0  0  0  0  0  0  0
   11.0994   12.3304    6.6495 H   0  0  0  0  0  0  0  0  0  0  0  0
   13.5809   11.9218    6.7886 H   0  0  0  0  0  0  0  0  0  0  0  0
   13.3429   10.8584    8.2490 H   0  0  0  0  0  0  0  0  0  0  0  0
   12.5172   13.8403    8.0326 H   0  0  0  0  0  0  0  0  0  0  0  0
   12.2859   12.7675    9.4814 H   0  0  0  0  0  0  0  0  0  0  0  0
    8.2371    8.8543    5.7094 H   0  0  0  0  0  0  0  0  0  0  0  0
    7.3035    2.4336    6.9442 H   0  0  0  0  0  0  0  0  0  0  0  0
    3.1127   -2.7160    4.6766 H   0  0  0  0  0  0  0  0  0  0  0  0
  1  2  1  0  0  0  0
  1 35  1  0  0  0  0
  1 36  1  0  0  0  0
  1 37  1  0  0  0  0
  2  3  1  0  0  0  0
  2  4  1  0  0  0  0
  2  5  1  0  0  0  0
  5  6  1  0  0  0  0
  5 34  2  0  0  0  0
  6  7  2  0  0  0  0
  6 38  1  0  0  0  0
  7  8  1  0  0  0  0
  8  9  2  0  0  0  0
  8 39  1  0  0  0  0
  9 10  1  0  0  0  0
  9 34  1  0  0  0  0
 10 11  1  0  0  0  0
 10 40  1  0  0  0  0
 11 12  2  0  0  0  0
 11 13  1  0  0  0  0
 13 14  1  0  0  0  0
 13 41  1  0  0  0  0
 14 15  1  0  0  0  0
 14 33  2  0  0  0  0
 15 16  2  0  0  0  0
 15 42  1  0  0  0  0
 16 17  1  0  0  0  0
 16 43  1  0  0  0  0
 17 18  1  0  0  0  0
 17 31  2  0  0  0  0
 18 19  1  0  0  0  0
 19 20  1  0  0  0  0
 19 30  2  0  0  0  0
 20 21  2  0  0  0  0
 20 44  1  0  0  0  0
 21 22  1  0  0  0  0
 21 45  1  0  0  0  0
 22 23  2  0  0  0  0
 23 24  1  0  0  0  0
 23 30  1  0  0  0  0
 24 25  1  0  0  0  0
 24 46  1  0  0  0  0
 25 26  2  0  0  0  0
 25 27  1  0  0  0  0
 27 28  1  0  0  0  0
 27 29  1  0  0  0  0
 27 47  1  0  0  0  0
 28 29  1  0  0  0  0
 28 48  1  0  0  0  0
 28 49  1  0  0  0  0
 29 50  1  0  0  0  0
 29 51  1  0  0  0  0
 30 52  1  0  0  0  0
 31 32  1  0  0  0  0
 31 33  1  0  0  0  0
 33 53  1  0  0  0  0
 34 54  1  0  0  0  0
M  END
$$$$
