CHEMBL3128238
 OpenBabel04072215363D

 62 66  0  0  0  0  0  0  0  0999 V2000
    4.3998   -2.3561   -0.6164 O   0  0  0  0  0  0  0  0  0  0  0  0
    5.0113   -2.4151    0.4460 C   0  0  0  0  0  0  0  0  0  0  0  0
    5.0496   -3.5470    1.2484 N   0  0  0  0  0  0  0  0  0  0  0  0
    4.3784   -4.7660    0.9789 C   0  0  0  0  0  0  0  0  0  0  0  0
    3.8473   -5.0937   -0.2752 C   0  0  0  0  0  0  0  0  0  0  0  0
    3.1157   -6.2694   -0.4675 C   0  0  0  0  0  0  0  0  0  0  0  0
    2.9242   -7.1409    0.6055 C   0  0  0  0  0  0  0  0  0  0  0  0
    2.1206   -8.3529    0.4170 N   0  3  0  0  0  0  0  0  0  0  0  0
    1.6286   -8.5571   -0.7005 O   0  0  0  0  0  0  0  0  0  0  0  0
    1.9771   -9.1045    1.3948 O   0  5  0  0  0  0  0  0  0  0  0  0
    3.4869   -6.8553    1.8563 C   0  0  0  0  0  0  0  0  0  0  0  0
    4.2195   -5.6731    2.0340 C   0  0  0  0  0  0  0  0  0  0  0  0
    5.7105   -1.3565    1.0058 N   0  0  0  0  0  0  0  0  0  0  0  0
    5.7870   -0.0366    0.4929 C   0  0  0  0  0  0  0  0  0  0  0  0
    5.1218    0.3800   -0.6648 C   0  0  0  0  0  0  0  0  0  0  0  0
    5.2516    1.6862   -1.1405 C   0  0  0  0  0  0  0  0  0  0  0  0
    6.0220    2.6098   -0.4443 C   0  0  0  0  0  0  0  0  0  0  0  0
    6.6570    2.2388    0.7496 C   0  0  0  0  0  0  0  0  0  0  0  0
    7.4478    3.2605    1.5356 C   0  0  0  0  0  0  0  0  0  0  0  0
    8.8192    3.2643    1.0641 N   0  0  0  0  0  0  0  0  0  0  0  0
    9.6809    4.1482    1.7120 C   0  0  0  0  0  0  0  0  0  0  0  0
    9.4562    4.5067    3.0004 N   0  0  0  0  0  0  0  0  0  0  0  0
   10.3330    5.3287    3.6118 C   0  0  0  0  0  0  0  0  0  0  0  0
   11.4458    5.8775    3.1010 N   0  0  0  0  0  0  0  0  0  0  0  0
   11.6464    5.5016    1.8267 C   0  0  0  0  0  0  0  0  0  0  0  0
   10.8243    4.6688    1.0869 C   0  0  0  0  0  0  0  0  0  0  0  0
   11.4466    4.5970   -0.1744 C   0  0  0  0  0  0  0  0  0  0  0  0
   12.5748    5.3106   -0.2432 N   0  0  0  0  0  0  0  0  0  0  0  0
   12.6961    5.8355    1.0033 N   0  0  0  0  0  0  0  0  0  0  0  0
   13.8452    6.6816    1.2929 C   0  0  0  0  0  0  0  0  0  0  0  0
   14.3477    6.6064    2.7332 C   0  0  0  0  0  0  0  0  0  0  0  0
   15.5687    7.4504    3.0055 C   0  0  0  0  0  0  0  0  0  0  0  0
   15.4243    8.7898    3.3957 C   0  0  0  0  0  0  0  0  0  0  0  0
   16.5396    9.5448    3.7601 C   0  0  0  0  0  0  0  0  0  0  0  0
   17.8093    8.9727    3.7255 C   0  0  0  0  0  0  0  0  0  0  0  0
   17.9668    7.6528    3.3055 C   0  0  0  0  0  0  0  0  0  0  0  0
   16.8524    6.8950    2.9403 C   0  0  0  0  0  0  0  0  0  0  0  0
    6.5552    0.9041    1.1922 C   0  0  0  0  0  0  0  0  0  0  0  0
    5.4136   -3.4296    2.1806 H   0  0  0  0  0  0  0  0  0  0  0  0
    3.9807   -4.4492   -1.1398 H   0  0  0  0  0  0  0  0  0  0  0  0
    2.6991   -6.4738   -1.4517 H   0  0  0  0  0  0  0  0  0  0  0  0
    3.3513   -7.5278    2.7009 H   0  0  0  0  0  0  0  0  0  0  0  0
    4.6322   -5.4619    3.0182 H   0  0  0  0  0  0  0  0  0  0  0  0
    6.2595   -1.5466    1.8295 H   0  0  0  0  0  0  0  0  0  0  0  0
    4.4869   -0.2855   -1.2386 H   0  0  0  0  0  0  0  0  0  0  0  0
    4.7379    1.9736   -2.0549 H   0  0  0  0  0  0  0  0  0  0  0  0
    6.1114    3.6220   -0.8302 H   0  0  0  0  0  0  0  0  0  0  0  0
    7.3808    3.0165    2.6033 H   0  0  0  0  0  0  0  0  0  0  0  0
    6.9896    4.2495    1.3998 H   0  0  0  0  0  0  0  0  0  0  0  0
    8.9064    3.2921    0.0558 H   0  0  0  0  0  0  0  0  0  0  0  0
   10.1146    5.5730    4.6475 H   0  0  0  0  0  0  0  0  0  0  0  0
   11.1181    4.0544   -1.0510 H   0  0  0  0  0  0  0  0  0  0  0  0
   13.5573    7.7027    1.0181 H   0  0  0  0  0  0  0  0  0  0  0  0
   14.6466    6.3692    0.6101 H   0  0  0  0  0  0  0  0  0  0  0  0
   14.5583    5.5637    3.0037 H   0  0  0  0  0  0  0  0  0  0  0  0
   13.5732    6.9425    3.4299 H   0  0  0  0  0  0  0  0  0  0  0  0
   14.4371    9.2439    3.4513 H   0  0  0  0  0  0  0  0  0  0  0  0
   16.4153   10.5732    4.0895 H   0  0  0  0  0  0  0  0  0  0  0  0
   18.6753    9.5533    4.0323 H   0  0  0  0  0  0  0  0  0  0  0  0
   18.9579    7.2073    3.2802 H   0  0  0  0  0  0  0  0  0  0  0  0
   16.9921    5.8603    2.6354 H   0  0  0  0  0  0  0  0  0  0  0  0
    7.0805    0.6183    2.1013 H   0  0  0  0  0  0  0  0  0  0  0  0
  1  2  2  0  0  0  0
  2  3  1  0  0  0  0
  2 13  1  0  0  0  0
  3  4  1  0  0  0  0
  3 39  1  0  0  0  0
  4  5  1  0  0  0  0
  4 12  2  0  0  0  0
  5  6  2  0  0  0  0
  5 40  1  0  0  0  0
  6  7  1  0  0  0  0
  6 41  1  0  0  0  0
  7  8  1  0  0  0  0
  7 11  2  0  0  0  0
  8  9  2  0  0  0  0
  8 10  1  0  0  0  0
 11 12  1  0  0  0  0
 11 42  1  0  0  0  0
 12 43  1  0  0  0  0
 13 14  1  0  0  0  0
 13 44  1  0  0  0  0
 14 15  1  0  0  0  0
 14 38  2  0  0  0  0
 15 16  2  0  0  0  0
 15 45  1  0  0  0  0
 16 17  1  0  0  0  0
 16 46  1  0  0  0  0
 17 18  2  0  0  0  0
 17 47  1  0  0  0  0
 18 19  1  0  0  0  0
 18 38  1  0  0  0  0
 19 20  1  0  0  0  0
 19 48  1  0  0  0  0
 19 49  1  0  0  0  0
 20 21  1  0  0  0  0
 20 50  1  0  0  0  0
 21 22  1  0  0  0  0
 21 26  2  0  0  0  0
 22 23  2  0  0  0  0
 23 24  1  0  0  0  0
 23 51  1  0  0  0  0
 24 25  2  0  0  0  0
 25 26  1  0  0  0  0
 25 29  1  0  0  0  0
 26 27  1  0  0  0  0
 27 28  2  0  0  0  0
 27 52  1  0  0  0  0
 28 29  1  0  0  0  0
 29 30  1  0  0  0  0
 30 31  1  0  0  0  0
 30 53  1  0  0  0  0
 30 54  1  0  0  0  0
 31 32  1  0  0  0  0
 31 55  1  0  0  0  0
 31 56  1  0  0  0  0
 32 33  1  0  0  0  0
 32 37  2  0  0  0  0
 33 34  2  0  0  0  0
 33 57  1  0  0  0  0
 34 35  1  0  0  0  0
 34 58  1  0  0  0  0
 35 36  2  0  0  0  0
 35 59  1  0  0  0  0
 36 37  1  0  0  0  0
 36 60  1  0  0  0  0
 37 61  1  0  0  0  0
 38 62  1  0  0  0  0
M  CHG  2   8   1  10  -1
M  END
$$$$
