CHEMBL3741966
 OpenBabel04072215373D

 59 63  0  0  0  0  0  0  0  0999 V2000
    7.7112   -1.1952   -2.6384 C   0  0  0  0  0  0  0  0  0  0  0  0
    6.8033   -2.1223   -1.4690 S   0  0  0  0  0  0  0  0  0  0  0  0
    5.3961   -2.0920   -1.8236 O   0  0  0  0  0  0  0  0  0  0  0  0
    7.4638   -3.4067   -1.3148 O   0  0  0  0  0  0  0  0  0  0  0  0
    7.0367   -1.2350    0.0817 C   0  0  0  0  0  0  0  0  0  0  0  0
    6.5448    0.1786    0.0162 C   0  0  0  0  0  0  0  0  0  0  0  0
    5.1967    0.4927   -0.1889 C   0  0  0  0  0  0  0  0  0  0  0  0
    4.7636    1.8187   -0.1590 C   0  0  0  0  0  0  0  0  0  0  0  0
    5.6684    2.8458    0.1116 C   0  0  0  0  0  0  0  0  0  0  0  0
    7.0221    2.5649    0.3159 C   0  0  0  0  0  0  0  0  0  0  0  0
    7.9020    3.6086    0.6634 N   0  0  0  0  0  0  0  0  0  0  0  0
    9.2785    3.6355    0.4180 C   0  0  0  0  0  0  0  0  0  0  0  0
   10.0540    4.2980    1.2829 N   0  0  0  0  0  0  0  0  0  0  0  0
   11.3655    4.3840    0.9751 C   0  0  0  0  0  0  0  0  0  0  0  0
   11.9196    3.8888   -0.1830 C   0  0  0  0  0  0  0  0  0  0  0  0
   11.0364    3.2637   -1.0224 C   0  0  0  0  0  0  0  0  0  0  0  0
   11.4942    2.8673   -2.2851 O   0  0  0  0  0  0  0  0  0  0  0  0
   10.5542    2.7053   -3.2881 C   0  0  0  0  0  0  0  0  0  0  0  0
    9.3629    3.4337   -3.3389 C   0  0  0  0  0  0  0  0  0  0  0  0
    8.3326    3.0410   -4.1887 C   0  0  0  0  0  0  0  0  0  0  0  0
    8.5636    2.0478   -5.1477 C   0  0  0  0  0  0  0  0  0  0  0  0
    7.6032    1.6561   -6.0872 C   0  0  0  0  0  0  0  0  0  0  0  0
    7.4513    0.1119   -6.2104 C   0  0  0  0  0  0  0  0  0  0  0  0
    8.0400   -0.6574   -5.4595 O   0  0  0  0  0  0  0  0  0  0  0  0
    6.6721   -0.3558   -7.2718 N   0  0  0  0  0  0  0  0  0  0  0  0
    6.5741   -1.7371   -7.6240 C   0  0  0  0  0  0  0  0  0  0  0  0
    7.6015   -2.4207   -8.4905 C   0  0  0  0  0  0  0  0  0  0  0  0
    6.2334   -2.1501   -9.0360 C   0  0  0  0  0  0  0  0  0  0  0  0
    7.9337    2.1438   -7.3344 C   0  0  0  0  0  0  0  0  0  0  0  0
    9.2601    1.9588   -7.7288 C   0  0  0  0  0  0  0  0  0  0  0  0
   10.2219    1.5797   -6.7699 C   0  0  0  0  0  0  0  0  0  0  0  0
    9.9061    1.7383   -5.4066 C   0  0  0  0  0  0  0  0  0  0  0  0
   10.8549    1.8752   -4.3718 C   0  0  0  0  0  0  0  0  0  0  0  0
    9.7484    3.0664   -0.6953 N   0  0  0  0  0  0  0  0  0  0  0  0
    7.4433    1.2274    0.2672 C   0  0  0  0  0  0  0  0  0  0  0  0
    7.6104   -1.7532   -3.5703 H   0  0  0  0  0  0  0  0  0  0  0  0
    8.7639   -1.1620   -2.3496 H   0  0  0  0  0  0  0  0  0  0  0  0
    7.3015   -0.1913   -2.7439 H   0  0  0  0  0  0  0  0  0  0  0  0
    8.1086   -1.2893    0.2895 H   0  0  0  0  0  0  0  0  0  0  0  0
    6.4997   -1.7860    0.8568 H   0  0  0  0  0  0  0  0  0  0  0  0
    4.4633   -0.2909   -0.3691 H   0  0  0  0  0  0  0  0  0  0  0  0
    3.7153    2.0454   -0.3352 H   0  0  0  0  0  0  0  0  0  0  0  0
    5.3114    3.8722    0.1436 H   0  0  0  0  0  0  0  0  0  0  0  0
    7.7475    3.9664    1.5979 H   0  0  0  0  0  0  0  0  0  0  0  0
   11.9715    4.9082    1.7089 H   0  0  0  0  0  0  0  0  0  0  0  0
   12.9650    4.0121   -0.4220 H   0  0  0  0  0  0  0  0  0  0  0  0
    9.1968    4.2810   -2.6783 H   0  0  0  0  0  0  0  0  0  0  0  0
    7.3825    3.5632   -4.1395 H   0  0  0  0  0  0  0  0  0  0  0  0
    6.2007    0.3208   -7.8565 H   0  0  0  0  0  0  0  0  0  0  0  0
    6.1464   -2.3393   -6.8246 H   0  0  0  0  0  0  0  0  0  0  0  0
    7.8573   -3.4501   -8.2579 H   0  0  0  0  0  0  0  0  0  0  0  0
    8.4297   -1.8443   -8.8838 H   0  0  0  0  0  0  0  0  0  0  0  0
    5.5727   -2.9994   -9.1764 H   0  0  0  0  0  0  0  0  0  0  0  0
    6.1546   -1.4003   -9.8141 H   0  0  0  0  0  0  0  0  0  0  0  0
    7.1666    2.5359   -7.9858 H   0  0  0  0  0  0  0  0  0  0  0  0
    9.5401    2.1429   -8.7595 H   0  0  0  0  0  0  0  0  0  0  0  0
   11.2427    1.3980   -7.0839 H   0  0  0  0  0  0  0  0  0  0  0  0
   11.8459    1.4425   -4.4709 H   0  0  0  0  0  0  0  0  0  0  0  0
    8.4916    0.9982    0.4543 H   0  0  0  0  0  0  0  0  0  0  0  0
  1  2  1  0  0  0  0
  1 36  1  0  0  0  0
  1 37  1  0  0  0  0
  1 38  1  0  0  0  0
  2  3  2  0  0  0  0
  2  4  2  0  0  0  0
  2  5  1  0  0  0  0
  5  6  1  0  0  0  0
  5 39  1  0  0  0  0
  5 40  1  0  0  0  0
  6  7  1  0  0  0  0
  6 35  2  0  0  0  0
  7  8  2  0  0  0  0
  7 41  1  0  0  0  0
  8  9  1  0  0  0  0
  8 42  1  0  0  0  0
  9 10  2  0  0  0  0
  9 43  1  0  0  0  0
 10 11  1  0  0  0  0
 10 35  1  0  0  0  0
 11 12  1  0  0  0  0
 11 44  1  0  0  0  0
 12 13  1  0  0  0  0
 12 34  2  0  0  0  0
 13 14  2  0  0  0  0
 14 15  1  0  0  0  0
 14 45  1  0  0  0  0
 15 16  2  0  0  0  0
 15 46  1  0  0  0  0
 16 17  1  0  0  0  0
 16 34  1  0  0  0  0
 17 18  1  0  0  0  0
 18 19  1  0  0  0  0
 18 33  2  0  0  0  0
 19 20  2  0  0  0  0
 19 47  1  0  0  0  0
 20 21  1  0  0  0  0
 20 48  1  0  0  0  0
 21 22  1  0  0  0  0
 21 32  2  0  0  0  0
 22 23  1  0  0  0  0
 22 29  2  0  0  0  0
 23 24  2  0  0  0  0
 23 25  1  0  0  0  0
 25 26  1  0  0  0  0
 25 49  1  0  0  0  0
 26 27  1  0  0  0  0
 26 28  1  0  0  0  0
 26 50  1  0  0  0  0
 27 28  1  0  0  0  0
 27 51  1  0  0  0  0
 27 52  1  0  0  0  0
 28 53  1  0  0  0  0
 28 54  1  0  0  0  0
 29 30  1  0  0  0  0
 29 55  1  0  0  0  0
 30 31  2  0  0  0  0
 30 56  1  0  0  0  0
 31 32  1  0  0  0  0
 31 57  1  0  0  0  0
 32 33  1  0  0  0  0
 33 58  1  0  0  0  0
 35 59  1  0  0  0  0
M  END
$$$$
