CHEMBL196396
 OpenBabel04072215363D

 43 45  0  0  0  0  0  0  0  0999 V2000
    2.6535   -1.6358    1.3205 C   0  0  0  0  0  0  0  0  0  0  0  0
    2.3492   -1.8042   -0.1697 C   0  0  0  0  0  0  0  0  0  0  0  0
    0.8633   -1.5579   -0.4327 C   0  0  0  0  0  0  0  0  0  0  0  0
    3.2047   -0.8519   -1.0208 C   0  0  0  0  0  0  0  0  0  0  0  0
    4.6196   -1.1544   -0.9225 N   0  0  0  0  0  0  0  0  0  0  0  0
    5.1691   -2.1369   -1.7188 C   0  0  0  0  0  0  0  0  0  0  0  0
    4.4967   -2.7804   -2.5127 O   0  0  0  0  0  0  0  0  0  0  0  0
    6.5154   -2.2993   -1.4608 N   0  0  0  0  0  0  0  0  0  0  0  0
    7.3680   -3.2037   -2.1296 C   0  0  0  0  0  0  0  0  0  0  0  0
    7.0454   -3.7918   -3.3490 C   0  0  0  0  0  0  0  0  0  0  0  0
    7.8630   -4.7848   -3.9035 C   0  0  0  0  0  0  0  0  0  0  0  0
    9.0483   -5.1791   -3.2717 C   0  0  0  0  0  0  0  0  0  0  0  0
    9.8358   -6.3048   -3.7974 C   0  0  0  0  0  0  0  0  0  0  0  0
    9.9335   -6.4924   -5.1676 C   0  0  0  0  0  0  0  0  0  0  0  0
   10.8476   -7.8626   -5.5982 S   0  0  0  0  0  0  0  0  0  0  0  0
   11.1507   -8.2352   -3.9684 C   0  0  0  0  0  0  0  0  0  0  0  0
   11.9009   -9.3091   -3.6722 N   0  0  0  0  0  0  0  0  0  0  0  0
   12.0454   -9.4818   -2.3610 C   0  0  0  0  0  0  0  0  0  0  0  0
   11.5169   -8.7379   -1.3823 N   0  0  0  0  0  0  0  0  0  0  0  0
   10.7530   -7.6801   -1.7128 C   0  0  0  0  0  0  0  0  0  0  0  0
   10.2022   -7.0053   -0.6288 N   0  0  0  0  0  0  0  0  0  0  0  0
   10.5496   -7.3555   -3.0735 C   0  0  0  0  0  0  0  0  0  0  0  0
    9.4336   -4.4862   -2.1201 C   0  0  0  0  0  0  0  0  0  0  0  0
    8.5893   -3.5270   -1.5354 C   0  0  0  0  0  0  0  0  0  0  0  0
    2.0314   -2.3060    1.9223 H   0  0  0  0  0  0  0  0  0  0  0  0
    2.4631   -0.6087    1.6492 H   0  0  0  0  0  0  0  0  0  0  0  0
    3.7000   -1.8734    1.5387 H   0  0  0  0  0  0  0  0  0  0  0  0
    2.5744   -2.8420   -0.4456 H   0  0  0  0  0  0  0  0  0  0  0  0
    0.5829   -0.5269   -0.1941 H   0  0  0  0  0  0  0  0  0  0  0  0
    0.2443   -2.2272    0.1747 H   0  0  0  0  0  0  0  0  0  0  0  0
    0.6193   -1.7423   -1.4842 H   0  0  0  0  0  0  0  0  0  0  0  0
    3.0681    0.1871   -0.7017 H   0  0  0  0  0  0  0  0  0  0  0  0
    2.9061   -0.9146   -2.0746 H   0  0  0  0  0  0  0  0  0  0  0  0
    5.2385   -0.4201   -0.6107 H   0  0  0  0  0  0  0  0  0  0  0  0
    6.8316   -1.9414   -0.5747 H   0  0  0  0  0  0  0  0  0  0  0  0
    6.1466   -3.5164   -3.8933 H   0  0  0  0  0  0  0  0  0  0  0  0
    7.5281   -5.2508   -4.8273 H   0  0  0  0  0  0  0  0  0  0  0  0
    9.5077   -5.8906   -5.9596 H   0  0  0  0  0  0  0  0  0  0  0  0
   12.6536  -10.3244   -2.0484 H   0  0  0  0  0  0  0  0  0  0  0  0
   10.3295   -7.5591    0.2120 H   0  0  0  0  0  0  0  0  0  0  0  0
    9.2538   -6.6878   -0.7895 H   0  0  0  0  0  0  0  0  0  0  0  0
   10.3838   -4.7027   -1.6341 H   0  0  0  0  0  0  0  0  0  0  0  0
    8.8923   -3.0805   -0.5927 H   0  0  0  0  0  0  0  0  0  0  0  0
  1  2  1  0  0  0  0
  1 25  1  0  0  0  0
  1 26  1  0  0  0  0
  1 27  1  0  0  0  0
  2  3  1  0  0  0  0
  2  4  1  0  0  0  0
  2 28  1  0  0  0  0
  3 29  1  0  0  0  0
  3 30  1  0  0  0  0
  3 31  1  0  0  0  0
  4  5  1  0  0  0  0
  4 32  1  0  0  0  0
  4 33  1  0  0  0  0
  5  6  1  0  0  0  0
  5 34  1  0  0  0  0
  6  7  2  0  0  0  0
  6  8  1  0  0  0  0
  8  9  1  0  0  0  0
  8 35  1  0  0  0  0
  9 10  1  0  0  0  0
  9 24  2  0  0  0  0
 10 11  2  0  0  0  0
 10 36  1  0  0  0  0
 11 12  1  0  0  0  0
 11 37  1  0  0  0  0
 12 13  1  0  0  0  0
 12 23  2  0  0  0  0
 13 14  2  0  0  0  0
 13 22  1  0  0  0  0
 14 15  1  0  0  0  0
 14 38  1  0  0  0  0
 15 16  1  0  0  0  0
 16 17  1  0  0  0  0
 16 22  2  0  0  0  0
 17 18  2  0  0  0  0
 18 19  1  0  0  0  0
 18 39  1  0  0  0  0
 19 20  2  0  0  0  0
 20 21  1  0  0  0  0
 20 22  1  0  0  0  0
 21 40  1  0  0  0  0
 21 41  1  0  0  0  0
 23 24  1  0  0  0  0
 23 42  1  0  0  0  0
 24 43  1  0  0  0  0
M  END
$$$$
