CHEMBL3925826
 OpenBabel04072215373D

 60 64  0  0  0  0  0  0  0  0999 V2000
    1.5243   -0.1005    0.4182 C   0  0  0  0  0  0  0  0  0  0  0  0
    2.3998    0.1380   -0.8285 C   0  0  0  0  0  0  0  0  0  0  0  0
    3.8164   -0.1716   -0.6548 N   0  0  0  0  0  0  0  0  0  0  0  0
    4.1357   -0.9916    0.3726 N   0  0  0  0  0  0  0  0  0  0  0  0
    5.4627   -1.0066    0.4092 C   0  0  0  0  0  0  0  0  0  0  0  0
    6.1794   -1.7489    1.4737 C   0  0  0  0  0  0  0  0  0  0  0  0
    6.0038   -0.2663   -0.6591 C   0  0  0  0  0  0  0  0  0  0  0  0
    4.9291    0.2122   -1.4036 C   0  0  0  0  0  0  0  0  0  0  0  0
    4.9696    0.9935   -2.6555 C   0  0  0  0  0  0  0  0  0  0  0  0
    4.0110    1.6627   -3.0210 O   0  0  0  0  0  0  0  0  0  0  0  0
    6.1799    0.8724   -3.3668 N   0  0  0  0  0  0  0  0  0  0  0  0
    6.6168    1.5377   -4.5589 C   0  0  0  0  0  0  0  0  0  0  0  0
    5.8748    2.5258   -5.2009 C   0  0  0  0  0  0  0  0  0  0  0  0
    6.3736    3.1644   -6.3488 C   0  0  0  0  0  0  0  0  0  0  0  0
    7.6229    2.8374   -6.8829 C   0  0  0  0  0  0  0  0  0  0  0  0
    8.3838    1.8313   -6.2977 C   0  0  0  0  0  0  0  0  0  0  0  0
    9.6473    1.4704   -6.7383 O   0  0  0  0  0  0  0  0  0  0  0  0
   10.0784    1.7143   -8.0424 C   0  0  0  0  0  0  0  0  0  0  0  0
    9.2856    1.4827   -9.1717 C   0  0  0  0  0  0  0  0  0  0  0  0
    9.7973    1.6621  -10.4791 C   0  0  0  0  0  0  0  0  0  0  0  0
   11.1602    1.9732  -10.6647 C   0  0  0  0  0  0  0  0  0  0  0  0
   12.0720    2.0772  -11.7722 C   0  0  0  0  0  0  0  0  0  0  0  0
   11.7601    1.7838  -13.1527 C   0  0  0  0  0  0  0  0  0  0  0  0
   12.6493    1.7803  -14.1670 C   0  0  0  0  0  0  0  0  0  0  0  0
   12.3644    1.4613  -15.5835 C   0  0  0  0  0  0  0  0  0  0  0  0
   11.1072    1.6710  -16.1646 C   0  0  0  0  0  0  0  0  0  0  0  0
   10.8900    1.4172  -17.5249 C   0  0  0  0  0  0  0  0  0  0  0  0
   11.9306    0.9570  -18.3275 C   0  0  0  0  0  0  0  0  0  0  0  0
   13.1884    0.7447  -17.7675 C   0  0  0  0  0  0  0  0  0  0  0  0
   13.4039    0.9986  -16.4077 C   0  0  0  0  0  0  0  0  0  0  0  0
   13.2940    2.4321  -11.3482 N   0  0  0  0  0  0  0  0  0  0  0  0
   13.1764    2.5045  -10.0110 N   0  0  0  0  0  0  0  0  0  0  0  0
   11.9324    2.2016   -9.5282 C   0  0  0  0  0  0  0  0  0  0  0  0
   11.4260    2.0885   -8.2109 C   0  0  0  0  0  0  0  0  0  0  0  0
    7.8783    1.2036   -5.1253 C   0  0  0  0  0  0  0  0  0  0  0  0
    0.4874    0.1986    0.2301 H   0  0  0  0  0  0  0  0  0  0  0  0
    1.8833    0.4680    1.2848 H   0  0  0  0  0  0  0  0  0  0  0  0
    1.5034   -1.1594    0.7092 H   0  0  0  0  0  0  0  0  0  0  0  0
    2.3190    1.1889   -1.1149 H   0  0  0  0  0  0  0  0  0  0  0  0
    2.0392   -0.4978   -1.6420 H   0  0  0  0  0  0  0  0  0  0  0  0
    5.4862   -2.1568    2.2184 H   0  0  0  0  0  0  0  0  0  0  0  0
    6.8887   -1.0927    1.9904 H   0  0  0  0  0  0  0  0  0  0  0  0
    6.7385   -2.5813    1.0396 H   0  0  0  0  0  0  0  0  0  0  0  0
    7.0543   -0.1057   -0.8523 H   0  0  0  0  0  0  0  0  0  0  0  0
    6.8322    0.1921   -3.0061 H   0  0  0  0  0  0  0  0  0  0  0  0
    4.9052    2.8382   -4.8268 H   0  0  0  0  0  0  0  0  0  0  0  0
    5.7811    3.9412   -6.8283 H   0  0  0  0  0  0  0  0  0  0  0  0
    7.9793    3.3844   -7.7516 H   0  0  0  0  0  0  0  0  0  0  0  0
    8.2639    1.1446   -9.0638 H   0  0  0  0  0  0  0  0  0  0  0  0
    9.1464    1.5172  -11.3362 H   0  0  0  0  0  0  0  0  0  0  0  0
   10.7303    1.5093  -13.3574 H   0  0  0  0  0  0  0  0  0  0  0  0
   13.6920    2.0147  -13.9519 H   0  0  0  0  0  0  0  0  0  0  0  0
   10.2791    2.0559  -15.5764 H   0  0  0  0  0  0  0  0  0  0  0  0
    9.9095    1.5948  -17.9591 H   0  0  0  0  0  0  0  0  0  0  0  0
   11.7640    0.7738  -19.3859 H   0  0  0  0  0  0  0  0  0  0  0  0
   14.0049    0.3914  -18.3939 H   0  0  0  0  0  0  0  0  0  0  0  0
   14.3982    0.8278  -15.9999 H   0  0  0  0  0  0  0  0  0  0  0  0
   14.0053    2.7468   -9.4797 H   0  0  0  0  0  0  0  0  0  0  0  0
   12.0710    2.2500   -7.3540 H   0  0  0  0  0  0  0  0  0  0  0  0
    8.5050    0.4491   -4.6462 H   0  0  0  0  0  0  0  0  0  0  0  0
  1  2  1  0  0  0  0
  1 36  1  0  0  0  0
  1 37  1  0  0  0  0
  1 38  1  0  0  0  0
  2  3  1  0  0  0  0
  2 39  1  0  0  0  0
  2 40  1  0  0  0  0
  3  4  1  0  0  0  0
  3  8  1  0  0  0  0
  4  5  2  0  0  0  0
  5  6  1  0  0  0  0
  5  7  1  0  0  0  0
  6 41  1  0  0  0  0
  6 42  1  0  0  0  0
  6 43  1  0  0  0  0
  7  8  2  0  0  0  0
  7 44  1  0  0  0  0
  8  9  1  0  0  0  0
  9 10  2  0  0  0  0
  9 11  1  0  0  0  0
 11 12  1  0  0  0  0
 11 45  1  0  0  0  0
 12 13  1  0  0  0  0
 12 35  2  0  0  0  0
 13 14  2  0  0  0  0
 13 46  1  0  0  0  0
 14 15  1  0  0  0  0
 14 47  1  0  0  0  0
 15 16  2  0  0  0  0
 15 48  1  0  0  0  0
 16 17  1  0  0  0  0
 16 35  1  0  0  0  0
 17 18  1  0  0  0  0
 18 19  1  0  0  0  0
 18 34  2  0  0  0  0
 19 20  2  0  0  0  0
 19 49  1  0  0  0  0
 20 21  1  0  0  0  0
 20 50  1  0  0  0  0
 21 22  1  0  0  0  0
 21 33  2  0  0  0  0
 22 23  1  0  0  0  0
 22 31  2  0  0  0  0
 23 24  2  0  0  0  0
 23 51  1  0  0  0  0
 24 25  1  0  0  0  0
 24 52  1  0  0  0  0
 25 26  1  0  0  0  0
 25 30  2  0  0  0  0
 26 27  2  0  0  0  0
 26 53  1  0  0  0  0
 27 28  1  0  0  0  0
 27 54  1  0  0  0  0
 28 29  2  0  0  0  0
 28 55  1  0  0  0  0
 29 30  1  0  0  0  0
 29 56  1  0  0  0  0
 30 57  1  0  0  0  0
 31 32  1  0  0  0  0
 32 33  1  0  0  0  0
 32 58  1  0  0  0  0
 33 34  1  0  0  0  0
 34 59  1  0  0  0  0
 35 60  1  0  0  0  0
M  END
$$$$
