CHEMBL3690576
 OpenBabel04072215373D

 48 51  0  0  0  0  0  0  0  0999 V2000
    2.6968    0.4301   -1.3096 O   0  0  0  0  0  0  0  0  0  0  0  0
    2.6061   -0.4795   -0.4958 C   0  0  0  0  0  0  0  0  0  0  0  0
    1.5602   -1.3804   -0.5585 N   0  0  0  0  0  0  0  0  0  0  0  0
    0.4810   -1.1374   -1.5245 C   0  0  0  0  0  0  0  0  0  0  0  0
   -0.5901   -0.1389   -1.0641 C   0  0  0  0  0  0  0  0  0  0  0  0
   -0.3783    0.2775    0.2066 F   0  0  0  0  0  0  0  0  0  0  0  0
   -0.6578    0.9485   -1.8578 F   0  0  0  0  0  0  0  0  0  0  0  0
   -1.8105   -0.7312   -1.0802 F   0  0  0  0  0  0  0  0  0  0  0  0
    3.4682   -0.7721    0.5332 N   0  0  0  0  0  0  0  0  0  0  0  0
    4.6656   -0.0981    0.8540 C   0  0  0  0  0  0  0  0  0  0  0  0
    5.1525    0.9842    0.1193 C   0  0  0  0  0  0  0  0  0  0  0  0
    6.3889    1.5455    0.4207 C   0  0  0  0  0  0  0  0  0  0  0  0
    7.1346    1.0502    1.4842 C   0  0  0  0  0  0  0  0  0  0  0  0
    6.6242    0.0478    2.3185 C   0  0  0  0  0  0  0  0  0  0  0  0
    7.3263   -0.3406    3.5496 C   0  0  0  0  0  0  0  0  0  0  0  0
    7.4521   -1.5772    4.1628 C   0  0  0  0  0  0  0  0  0  0  0  0
    8.1773   -1.5122    5.3245 N   0  0  0  0  0  0  0  0  0  0  0  0
    8.4936   -0.2430    5.4652 C   0  0  0  0  0  0  0  0  0  0  0  0
    9.2185    0.4305    6.4960 C   0  0  0  0  0  0  0  0  0  0  0  0
    9.4274    1.7705    6.4482 C   0  0  0  0  0  0  0  0  0  0  0  0
   10.1416    2.4402    7.5692 C   0  0  0  0  0  0  0  0  0  0  0  0
   10.9068    3.5727    7.3499 C   0  0  0  0  0  0  0  0  0  0  0  0
   11.4584    4.1939    8.4594 C   0  0  0  0  0  0  0  0  0  0  0  0
   12.2720    5.4658    8.2803 C   0  0  0  0  0  0  0  0  0  0  0  0
   12.3371    5.8793    6.9778 F   0  0  0  0  0  0  0  0  0  0  0  0
   11.7638    6.5273    8.9686 F   0  0  0  0  0  0  0  0  0  0  0  0
   13.5665    5.3329    8.6822 F   0  0  0  0  0  0  0  0  0  0  0  0
   11.2718    3.7012    9.7108 N   0  0  0  0  0  0  0  0  0  0  0  0
   10.5329    2.5888    9.8157 C   0  0  0  0  0  0  0  0  0  0  0  0
    9.9573    1.9316    8.8019 N   0  0  0  0  0  0  0  0  0  0  0  0
    8.8647    2.5329    5.3269 C   0  0  0  0  0  0  0  0  0  0  0  0
    8.1558    1.9101    4.3767 C   0  0  0  0  0  0  0  0  0  0  0  0
    7.9865    0.5259    4.4205 N   0  0  0  0  0  0  0  0  0  0  0  0
    5.4014   -0.5529    1.9627 C   0  0  0  0  0  0  0  0  0  0  0  0
    1.2821   -1.7872    0.3230 H   0  0  0  0  0  0  0  0  0  0  0  0
    0.0202   -2.1114   -1.7172 H   0  0  0  0  0  0  0  0  0  0  0  0
    0.9176   -0.7936   -2.4696 H   0  0  0  0  0  0  0  0  0  0  0  0
    3.2606   -1.6000    1.0694 H   0  0  0  0  0  0  0  0  0  0  0  0
    4.6052    1.4049   -0.7176 H   0  0  0  0  0  0  0  0  0  0  0  0
    6.7675    2.3707   -0.1762 H   0  0  0  0  0  0  0  0  0  0  0  0
    8.1184    1.4774    1.6584 H   0  0  0  0  0  0  0  0  0  0  0  0
    7.0562   -2.5253    3.8196 H   0  0  0  0  0  0  0  0  0  0  0  0
    9.5795   -0.1763    7.3214 H   0  0  0  0  0  0  0  0  0  0  0  0
   11.0684    3.9700    6.3542 H   0  0  0  0  0  0  0  0  0  0  0  0
   10.3800    2.1876   10.8122 H   0  0  0  0  0  0  0  0  0  0  0  0
    8.9864    3.6099    5.2900 H   0  0  0  0  0  0  0  0  0  0  0  0
    7.6957    2.4651    3.5719 H   0  0  0  0  0  0  0  0  0  0  0  0
    5.0112   -1.3645    2.5724 H   0  0  0  0  0  0  0  0  0  0  0  0
  1  2  2  0  0  0  0
  2  3  1  0  0  0  0
  2  9  1  0  0  0  0
  3  4  1  0  0  0  0
  3 35  1  0  0  0  0
  4  5  1  0  0  0  0
  4 36  1  0  0  0  0
  4 37  1  0  0  0  0
  5  6  1  0  0  0  0
  5  7  1  0  0  0  0
  5  8  1  0  0  0  0
  9 10  1  0  0  0  0
  9 38  1  0  0  0  0
 10 11  1  0  0  0  0
 10 34  2  0  0  0  0
 11 12  2  0  0  0  0
 11 39  1  0  0  0  0
 12 13  1  0  0  0  0
 12 40  1  0  0  0  0
 13 14  2  0  0  0  0
 13 41  1  0  0  0  0
 14 15  1  0  0  0  0
 14 34  1  0  0  0  0
 15 16  2  0  0  0  0
 15 33  1  0  0  0  0
 16 17  1  0  0  0  0
 16 42  1  0  0  0  0
 17 18  2  0  0  0  0
 18 19  1  0  0  0  0
 18 33  1  0  0  0  0
 19 20  2  0  0  0  0
 19 43  1  0  0  0  0
 20 21  1  0  0  0  0
 20 31  1  0  0  0  0
 21 22  1  0  0  0  0
 21 30  2  0  0  0  0
 22 23  2  0  0  0  0
 22 44  1  0  0  0  0
 23 24  1  0  0  0  0
 23 28  1  0  0  0  0
 24 25  1  0  0  0  0
 24 26  1  0  0  0  0
 24 27  1  0  0  0  0
 28 29  2  0  0  0  0
 29 30  1  0  0  0  0
 29 45  1  0  0  0  0
 31 32  2  0  0  0  0
 31 46  1  0  0  0  0
 32 33  1  0  0  0  0
 32 47  1  0  0  0  0
 34 48  1  0  0  0  0
M  END
$$$$
