CHEMBL379975
 OpenBabel04072215373D

 37 41  0  0  0  0  0  0  0  0999 V2000
    4.6781    0.3160    0.2928 O   0  0  0  0  0  0  0  0  0  0  0  0
    3.4621    0.3763    0.1543 C   0  0  0  0  0  0  0  0  0  0  0  0
    2.8214    1.5784    0.0496 N   0  0  0  0  0  0  0  0  0  0  0  0
    1.4581    1.5399    0.0135 C   0  0  0  0  0  0  0  0  0  0  0  0
    0.7817    2.5594   -0.0105 O   0  0  0  0  0  0  0  0  0  0  0  0
    1.1782    0.1481    0.0133 C   0  0  0  0  0  0  0  0  0  0  0  0
    2.4012   -0.6069    0.0629 C   0  0  0  0  0  0  0  0  0  0  0  0
    2.4887   -2.0218    0.0301 C   0  0  0  0  0  0  0  0  0  0  0  0
    3.7834   -2.7542    0.0888 C   0  0  0  0  0  0  0  0  0  0  0  0
    4.8800   -2.3300   -0.6908 C   0  0  0  0  0  0  0  0  0  0  0  0
    6.1442   -2.9276   -0.6032 C   0  0  0  0  0  0  0  0  0  0  0  0
    6.3348   -4.0414    0.1994 C   0  0  0  0  0  0  0  0  0  0  0  0
    5.2592   -4.5514    0.9153 C   0  0  0  0  0  0  0  0  0  0  0  0
    4.0081   -3.9096    0.8825 C   0  0  0  0  0  0  0  0  0  0  0  0
    2.8020   -4.6211    1.9101 Cl  0  0  0  0  0  0  0  0  0  0  0  0
    1.2527   -2.6997   -0.0705 C   0  0  0  0  0  0  0  0  0  0  0  0
    0.0633   -1.9744   -0.0351 C   0  0  0  0  0  0  0  0  0  0  0  0
   -1.2533   -2.3732   -0.0142 N   0  0  0  0  0  0  0  0  0  0  0  0
   -2.1033   -1.2779   -0.0033 C   0  0  0  0  0  0  0  0  0  0  0  0
   -3.5048   -1.2525    0.0070 C   0  0  0  0  0  0  0  0  0  0  0  0
   -4.1378   -0.0086   -0.0022 C   0  0  0  0  0  0  0  0  0  0  0  0
   -3.3839    1.1567   -0.0089 C   0  0  0  0  0  0  0  0  0  0  0  0
   -3.9876    2.3825   -0.0241 O   0  0  0  0  0  0  0  0  0  0  0  0
   -1.9863    1.1289   -0.0041 C   0  0  0  0  0  0  0  0  0  0  0  0
   -1.3176   -0.1116   -0.0045 C   0  0  0  0  0  0  0  0  0  0  0  0
   -0.0122   -0.6130   -0.0053 C   0  0  0  0  0  0  0  0  0  0  0  0
    3.3226    2.4502    0.0811 H   0  0  0  0  0  0  0  0  0  0  0  0
    4.7819   -1.4844   -1.3687 H   0  0  0  0  0  0  0  0  0  0  0  0
    6.9784   -2.5065   -1.1595 H   0  0  0  0  0  0  0  0  0  0  0  0
    7.3133   -4.5087    0.2696 H   0  0  0  0  0  0  0  0  0  0  0  0
    5.4037   -5.4430    1.5216 H   0  0  0  0  0  0  0  0  0  0  0  0
    1.2147   -3.7828   -0.1458 H   0  0  0  0  0  0  0  0  0  0  0  0
   -1.5635   -3.3338    0.0049 H   0  0  0  0  0  0  0  0  0  0  0  0
   -4.0873   -2.1688    0.0142 H   0  0  0  0  0  0  0  0  0  0  0  0
   -5.2231    0.0280   -0.0067 H   0  0  0  0  0  0  0  0  0  0  0  0
   -4.9500    2.2565   -0.0223 H   0  0  0  0  0  0  0  0  0  0  0  0
   -1.4526    2.0717   -0.0068 H   0  0  0  0  0  0  0  0  0  0  0  0
  1  2  2  0  0  0  0
  2  3  1  0  0  0  0
  2  7  1  0  0  0  0
  3  4  1  0  0  0  0
  3 27  1  0  0  0  0
  4  5  2  0  0  0  0
  4  6  1  0  0  0  0
  6  7  1  0  0  0  0
  6 26  2  0  0  0  0
  7  8  2  0  0  0  0
  8  9  1  0  0  0  0
  8 16  1  0  0  0  0
  9 10  1  0  0  0  0
  9 14  2  0  0  0  0
 10 11  2  0  0  0  0
 10 28  1  0  0  0  0
 11 12  1  0  0  0  0
 11 29  1  0  0  0  0
 12 13  2  0  0  0  0
 12 30  1  0  0  0  0
 13 14  1  0  0  0  0
 13 31  1  0  0  0  0
 14 15  1  0  0  0  0
 16 17  2  0  0  0  0
 16 32  1  0  0  0  0
 17 18  1  0  0  0  0
 17 26  1  0  0  0  0
 18 19  1  0  0  0  0
 18 33  1  0  0  0  0
 19 20  1  0  0  0  0
 19 25  2  0  0  0  0
 20 21  2  0  0  0  0
 20 34  1  0  0  0  0
 21 22  1  0  0  0  0
 21 35  1  0  0  0  0
 22 23  1  0  0  0  0
 22 24  2  0  0  0  0
 23 36  1  0  0  0  0
 24 25  1  0  0  0  0
 24 37  1  0  0  0  0
 25 26  1  0  0  0  0
M  END
$$$$
