CHEMBL3694656
 OpenBabel04072215373D

 49 52  0  0  0  0  0  0  0  0999 V2000
    2.5173   -0.6284   -0.8944 O   0  0  0  0  0  0  0  0  0  0  0  0
    2.4195   -0.3522    0.2909 C   0  0  0  0  0  0  0  0  0  0  0  0
    1.3113   -0.7376    1.0194 N   0  0  0  0  0  0  0  0  0  0  0  0
    0.1797   -1.3424    0.3042 C   0  0  0  0  0  0  0  0  0  0  0  0
   -0.7729   -0.3439   -0.3700 C   0  0  0  0  0  0  0  0  0  0  0  0
   -0.4248    0.9392   -0.1139 F   0  0  0  0  0  0  0  0  0  0  0  0
   -0.8281   -0.5062   -1.7071 F   0  0  0  0  0  0  0  0  0  0  0  0
   -2.0309   -0.5086    0.1118 F   0  0  0  0  0  0  0  0  0  0  0  0
    3.3263    0.3293    1.0753 N   0  0  0  0  0  0  0  0  0  0  0  0
    4.5822    0.8330    0.6688 C   0  0  0  0  0  0  0  0  0  0  0  0
    5.1020    0.6435   -0.6130 C   0  0  0  0  0  0  0  0  0  0  0  0
    6.3826    1.0841   -0.9309 C   0  0  0  0  0  0  0  0  0  0  0  0
    7.1397    1.7604    0.0213 C   0  0  0  0  0  0  0  0  0  0  0  0
    6.5967    2.0868    1.2696 C   0  0  0  0  0  0  0  0  0  0  0  0
    7.2934    3.0109    2.1706 C   0  0  0  0  0  0  0  0  0  0  0  0
    7.4075    3.0263    3.5527 C   0  0  0  0  0  0  0  0  0  0  0  0
    8.1167    4.1121    4.0010 N   0  0  0  0  0  0  0  0  0  0  0  0
    8.4409    4.7908    2.9246 C   0  0  0  0  0  0  0  0  0  0  0  0
    9.1560    6.0192    2.7722 C   0  0  0  0  0  0  0  0  0  0  0  0
    9.3523    6.5706    1.5446 C   0  0  0  0  0  0  0  0  0  0  0  0
   10.0465    7.8281    1.4781 C   0  0  0  0  0  0  0  0  0  0  0  0
   10.9333    8.3056    2.3390 N   0  0  0  0  0  0  0  0  0  0  0  0
   11.4417    9.5342    1.9737 N   0  0  0  0  0  0  0  0  0  0  0  0
   10.9112    9.9853    0.8582 C   0  0  0  0  0  0  0  0  0  0  0  0
   11.2633   11.2698    0.1778 C   0  0  0  0  0  0  0  0  0  0  0  0
   12.3143   12.0630    0.9456 C   0  0  0  0  0  0  0  0  0  0  0  0
   13.5594   11.3699    0.9784 O   0  0  0  0  0  0  0  0  0  0  0  0
    9.7470    8.9377    0.1721 S   0  0  0  0  0  0  0  0  0  0  0  0
    8.8309    5.8663    0.3674 C   0  0  0  0  0  0  0  0  0  0  0  0
    8.1341    4.7327    0.5105 C   0  0  0  0  0  0  0  0  0  0  0  0
    7.9504    4.1766    1.7759 N   0  0  0  0  0  0  0  0  0  0  0  0
    5.3363    1.5633    1.6054 C   0  0  0  0  0  0  0  0  0  0  0  0
    1.0773   -0.1599    1.8145 H   0  0  0  0  0  0  0  0  0  0  0  0
   -0.3689   -1.9326    1.0450 H   0  0  0  0  0  0  0  0  0  0  0  0
    0.5643   -2.0413   -0.4460 H   0  0  0  0  0  0  0  0  0  0  0  0
    3.0927    0.4358    2.0480 H   0  0  0  0  0  0  0  0  0  0  0  0
    4.5449    0.1313   -1.3914 H   0  0  0  0  0  0  0  0  0  0  0  0
    6.7849    0.9059   -1.9252 H   0  0  0  0  0  0  0  0  0  0  0  0
    8.1499    2.0581   -0.2475 H   0  0  0  0  0  0  0  0  0  0  0  0
    7.0119    2.3012    4.2501 H   0  0  0  0  0  0  0  0  0  0  0  0
    9.5123    6.4965    3.6802 H   0  0  0  0  0  0  0  0  0  0  0  0
   10.3611   11.8827    0.0725 H   0  0  0  0  0  0  0  0  0  0  0  0
   11.6421   11.0451   -0.8270 H   0  0  0  0  0  0  0  0  0  0  0  0
   12.0012   12.2750    1.9739 H   0  0  0  0  0  0  0  0  0  0  0  0
   12.4899   13.0201    0.4438 H   0  0  0  0  0  0  0  0  0  0  0  0
   13.4248   10.5861    1.5495 H   0  0  0  0  0  0  0  0  0  0  0  0
    9.0111    6.2676   -0.6238 H   0  0  0  0  0  0  0  0  0  0  0  0
    7.7156    4.2269   -0.3510 H   0  0  0  0  0  0  0  0  0  0  0  0
    4.9237    1.7613    2.5907 H   0  0  0  0  0  0  0  0  0  0  0  0
  1  2  2  0  0  0  0
  2  3  1  0  0  0  0
  2  9  1  0  0  0  0
  3  4  1  0  0  0  0
  3 33  1  0  0  0  0
  4  5  1  0  0  0  0
  4 34  1  0  0  0  0
  4 35  1  0  0  0  0
  5  6  1  0  0  0  0
  5  7  1  0  0  0  0
  5  8  1  0  0  0  0
  9 10  1  0  0  0  0
  9 36  1  0  0  0  0
 10 11  1  0  0  0  0
 10 32  2  0  0  0  0
 11 12  2  0  0  0  0
 11 37  1  0  0  0  0
 12 13  1  0  0  0  0
 12 38  1  0  0  0  0
 13 14  2  0  0  0  0
 13 39  1  0  0  0  0
 14 15  1  0  0  0  0
 14 32  1  0  0  0  0
 15 16  2  0  0  0  0
 15 31  1  0  0  0  0
 16 17  1  0  0  0  0
 16 40  1  0  0  0  0
 17 18  2  0  0  0  0
 18 19  1  0  0  0  0
 18 31  1  0  0  0  0
 19 20  2  0  0  0  0
 19 41  1  0  0  0  0
 20 21  1  0  0  0  0
 20 29  1  0  0  0  0
 21 22  2  0  0  0  0
 21 28  1  0  0  0  0
 22 23  1  0  0  0  0
 23 24  2  0  0  0  0
 24 25  1  0  0  0  0
 24 28  1  0  0  0  0
 25 26  1  0  0  0  0
 25 42  1  0  0  0  0
 25 43  1  0  0  0  0
 26 27  1  0  0  0  0
 26 44  1  0  0  0  0
 26 45  1  0  0  0  0
 27 46  1  0  0  0  0
 29 30  2  0  0  0  0
 29 47  1  0  0  0  0
 30 31  1  0  0  0  0
 30 48  1  0  0  0  0
 32 49  1  0  0  0  0
M  END
$$$$
