CHEMBL215969
 OpenBabel04072215363D

 54 57  0  0  0  0  0  0  0  0999 V2000
    0.9648   -0.0306    0.8676 C   0  0  0  0  0  0  0  0  0  0  0  0
    2.0894    0.0968   -0.0282 N   0  0  0  0  0  0  0  0  0  0  0  0
    2.7469    1.3153    0.0415 C   0  0  0  0  0  0  0  0  0  0  0  0
    3.3220    1.7224   -1.0949 N   0  0  0  0  0  0  0  0  0  0  0  0
    4.0088    2.8768   -1.0381 C   0  0  0  0  0  0  0  0  0  0  0  0
    4.1256    3.6488    0.1046 C   0  0  0  0  0  0  0  0  0  0  0  0
    4.8619    4.8504    0.1650 C   0  0  0  0  0  0  0  0  0  0  0  0
    4.8590    5.6665    1.3057 C   0  0  0  0  0  0  0  0  0  0  0  0
    5.5620    6.9824    1.3496 C   0  0  0  0  0  0  0  0  0  0  0  0
    6.1931    7.3886    2.5582 C   0  0  0  0  0  0  0  0  0  0  0  0
    6.8310    8.6317    2.6772 C   0  0  0  0  0  0  0  0  0  0  0  0
    7.3793    9.1593    3.9588 C   0  0  0  0  0  0  0  0  0  0  0  0
    7.3349   10.3780    4.1155 O   0  0  0  0  0  0  0  0  0  0  0  0
    7.9437    8.2426    4.8313 N   0  0  0  0  0  0  0  0  0  0  0  0
    8.5596    8.5582    6.0769 C   0  0  0  0  0  0  0  0  0  0  0  0
    8.3394    9.7957    6.7030 C   0  0  0  0  0  0  0  0  0  0  0  0
    8.9716   10.1336    7.8938 C   0  0  0  0  0  0  0  0  0  0  0  0
    9.8378    9.2311    8.4932 C   0  0  0  0  0  0  0  0  0  0  0  0
   10.0741    7.9699    7.9186 C   0  0  0  0  0  0  0  0  0  0  0  0
   11.0438    7.0426    8.6207 C   0  0  0  0  0  0  0  0  0  0  0  0
   11.5914    7.5758    9.7510 F   0  0  0  0  0  0  0  0  0  0  0  0
   10.4637    5.8745    9.0141 F   0  0  0  0  0  0  0  0  0  0  0  0
   12.1022    6.6956    7.8355 F   0  0  0  0  0  0  0  0  0  0  0  0
    9.4154    7.6195    6.7024 C   0  0  0  0  0  0  0  0  0  0  0  0
    9.6519    6.2685    6.0669 C   0  0  0  0  0  0  0  0  0  0  0  0
    6.8897    9.4800    1.5721 C   0  0  0  0  0  0  0  0  0  0  0  0
    6.2948    9.1099    0.3742 C   0  0  0  0  0  0  0  0  0  0  0  0
    5.6030    7.8910    0.2519 C   0  0  0  0  0  0  0  0  0  0  0  0
    4.9082    7.6650   -1.0698 C   0  0  0  0  0  0  0  0  0  0  0  0
    4.1544    5.1654    2.4149 C   0  0  0  0  0  0  0  0  0  0  0  0
    3.4872    3.9292    2.3699 C   0  0  0  0  0  0  0  0  0  0  0  0
    3.4479    3.1629    1.2156 C   0  0  0  0  0  0  0  0  0  0  0  0
    2.7758    2.0058    1.1916 N   0  0  0  0  0  0  0  0  0  0  0  0
    0.4863   -1.0016    0.7082 H   0  0  0  0  0  0  0  0  0  0  0  0
    0.2150    0.7470    0.6845 H   0  0  0  0  0  0  0  0  0  0  0  0
    1.2785    0.0075    1.9168 H   0  0  0  0  0  0  0  0  0  0  0  0
    1.9006   -0.0702   -1.0100 H   0  0  0  0  0  0  0  0  0  0  0  0
    4.4642    3.1801   -1.9768 H   0  0  0  0  0  0  0  0  0  0  0  0
    5.4435    5.1275   -0.7076 H   0  0  0  0  0  0  0  0  0  0  0  0
    6.1431    6.7430    3.4311 H   0  0  0  0  0  0  0  0  0  0  0  0
    8.0743    7.3054    4.4822 H   0  0  0  0  0  0  0  0  0  0  0  0
    7.6574   10.5304    6.2867 H   0  0  0  0  0  0  0  0  0  0  0  0
    8.7894   11.1042    8.3448 H   0  0  0  0  0  0  0  0  0  0  0  0
   10.3340    9.5206    9.4203 H   0  0  0  0  0  0  0  0  0  0  0  0
   10.3462    5.6382    6.6241 H   0  0  0  0  0  0  0  0  0  0  0  0
   10.0738    6.3941    5.0640 H   0  0  0  0  0  0  0  0  0  0  0  0
    8.7073    5.7171    6.0014 H   0  0  0  0  0  0  0  0  0  0  0  0
    7.3755   10.4509    1.6484 H   0  0  0  0  0  0  0  0  0  0  0  0
    6.3403    9.8070   -0.4611 H   0  0  0  0  0  0  0  0  0  0  0  0
    4.8818    8.5825   -1.6699 H   0  0  0  0  0  0  0  0  0  0  0  0
    3.8678    7.3629   -0.9181 H   0  0  0  0  0  0  0  0  0  0  0  0
    5.4427    6.9285   -1.6744 H   0  0  0  0  0  0  0  0  0  0  0  0
    4.0993    5.7294    3.3442 H   0  0  0  0  0  0  0  0  0  0  0  0
    2.9703    3.5675    3.2564 H   0  0  0  0  0  0  0  0  0  0  0  0
  1  2  1  0  0  0  0
  1 34  1  0  0  0  0
  1 35  1  0  0  0  0
  1 36  1  0  0  0  0
  2  3  1  0  0  0  0
  2 37  1  0  0  0  0
  3  4  1  0  0  0  0
  3 33  2  0  0  0  0
  4  5  2  0  0  0  0
  5  6  1  0  0  0  0
  5 38  1  0  0  0  0
  6  7  1  0  0  0  0
  6 32  2  0  0  0  0
  7  8  2  0  0  0  0
  7 39  1  0  0  0  0
  8  9  1  0  0  0  0
  8 30  1  0  0  0  0
  9 10  1  0  0  0  0
  9 28  2  0  0  0  0
 10 11  2  0  0  0  0
 10 40  1  0  0  0  0
 11 12  1  0  0  0  0
 11 26  1  0  0  0  0
 12 13  2  0  0  0  0
 12 14  1  0  0  0  0
 14 15  1  0  0  0  0
 14 41  1  0  0  0  0
 15 16  1  0  0  0  0
 15 24  2  0  0  0  0
 16 17  2  0  0  0  0
 16 42  1  0  0  0  0
 17 18  1  0  0  0  0
 17 43  1  0  0  0  0
 18 19  2  0  0  0  0
 18 44  1  0  0  0  0
 19 20  1  0  0  0  0
 19 24  1  0  0  0  0
 20 21  1  0  0  0  0
 20 22  1  0  0  0  0
 20 23  1  0  0  0  0
 24 25  1  0  0  0  0
 25 45  1  0  0  0  0
 25 46  1  0  0  0  0
 25 47  1  0  0  0  0
 26 27  2  0  0  0  0
 26 48  1  0  0  0  0
 27 28  1  0  0  0  0
 27 49  1  0  0  0  0
 28 29  1  0  0  0  0
 29 50  1  0  0  0  0
 29 51  1  0  0  0  0
 29 52  1  0  0  0  0
 30 31  2  0  0  0  0
 30 53  1  0  0  0  0
 31 32  1  0  0  0  0
 31 54  1  0  0  0  0
 32 33  1  0  0  0  0
M  END
$$$$
