CHEMBL4446681
 OpenBabel04072215383D

 67 71  0  0  0  0  0  0  0  0999 V2000
    1.1566   -0.7674   -0.2470 C   0  0  0  0  0  0  0  0  0  0  0  0
    2.4706   -0.1174   -0.2287 N   0  0  0  0  0  0  0  0  0  0  0  0
    3.4380   -0.9347    0.5334 C   0  0  0  0  0  0  0  0  0  0  0  0
    3.1120   -0.9923    2.0398 C   0  0  0  0  0  0  0  0  0  0  0  0
    4.2085   -1.6738    2.8156 C   0  0  0  0  0  0  0  0  0  0  0  0
    5.2290   -0.9494    3.4364 C   0  0  0  0  0  0  0  0  0  0  0  0
    6.2494   -1.6128    4.1360 C   0  0  0  0  0  0  0  0  0  0  0  0
    6.2721   -3.0146    4.2471 C   0  0  0  0  0  0  0  0  0  0  0  0
    7.3192   -3.7413    5.0061 C   0  0  0  0  0  0  0  0  0  0  0  0
    7.9314   -3.1922    6.1470 C   0  0  0  0  0  0  0  0  0  0  0  0
    8.8677   -3.9148    6.8867 C   0  0  0  0  0  0  0  0  0  0  0  0
    9.2118   -5.2152    6.5244 C   0  0  0  0  0  0  0  0  0  0  0  0
    8.6326   -5.7745    5.3887 C   0  0  0  0  0  0  0  0  0  0  0  0
    7.7104   -5.0477    4.6374 C   0  0  0  0  0  0  0  0  0  0  0  0
    5.2308   -3.7180    3.6133 C   0  0  0  0  0  0  0  0  0  0  0  0
    4.2257   -3.0655    2.8986 C   0  0  0  0  0  0  0  0  0  0  0  0
    2.9378    0.1623   -1.6169 C   0  0  0  0  0  0  0  0  0  0  0  0
    3.8705    1.3508   -1.6374 C   0  0  0  0  0  0  0  0  0  0  0  0
    4.5693    1.8680   -0.5586 C   0  0  0  0  0  0  0  0  0  0  0  0
    4.5246    3.2187   -0.7209 N   0  0  0  0  0  0  0  0  0  0  0  0
    4.4794    4.1394    0.3899 C   0  0  0  0  0  0  0  0  0  0  0  0
    4.3074    3.5261   -2.0364 C   0  0  0  0  0  0  0  0  0  0  0  0
    4.2202    4.7630   -2.6801 C   0  0  0  0  0  0  0  0  0  0  0  0
    4.0278    4.7742   -4.0614 C   0  0  0  0  0  0  0  0  0  0  0  0
    3.9592    3.5834   -4.7893 C   0  0  0  0  0  0  0  0  0  0  0  0
    3.8509    3.6232   -6.2856 C   0  0  0  0  0  0  0  0  0  0  0  0
    3.3441    2.6648   -6.8571 O   0  0  0  0  0  0  0  0  0  0  0  0
    4.3912    4.7523   -6.8999 N   0  0  0  0  0  0  0  0  0  0  0  0
    4.3193    5.0887   -8.2726 C   0  0  0  0  0  0  0  0  0  0  0  0
    3.4913    4.4271   -9.1853 C   0  0  0  0  0  0  0  0  0  0  0  0
    3.4705    4.8034  -10.5283 C   0  0  0  0  0  0  0  0  0  0  0  0
    4.2736    5.8462  -10.9642 C   0  0  0  0  0  0  0  0  0  0  0  0
    4.2624    6.1977  -12.2562 F   0  0  0  0  0  0  0  0  0  0  0  0
    5.0874    6.5329  -10.0749 C   0  0  0  0  0  0  0  0  0  0  0  0
    5.1060    6.1607   -8.7259 C   0  0  0  0  0  0  0  0  0  0  0  0
    3.9165    2.3439   -4.1082 C   0  0  0  0  0  0  0  0  0  0  0  0
    4.0645    2.3129   -2.6965 C   0  0  0  0  0  0  0  0  0  0  0  0
    0.7412   -0.8566    0.7614 H   0  0  0  0  0  0  0  0  0  0  0  0
    1.2061   -1.7683   -0.6889 H   0  0  0  0  0  0  0  0  0  0  0  0
    0.4261   -0.1719   -0.8006 H   0  0  0  0  0  0  0  0  0  0  0  0
    4.4506   -0.5339    0.4388 H   0  0  0  0  0  0  0  0  0  0  0  0
    3.4978   -1.9456    0.1152 H   0  0  0  0  0  0  0  0  0  0  0  0
    2.1835   -1.5495    2.2145 H   0  0  0  0  0  0  0  0  0  0  0  0
    2.9441    0.0128    2.4483 H   0  0  0  0  0  0  0  0  0  0  0  0
    5.2395    0.1393    3.3848 H   0  0  0  0  0  0  0  0  0  0  0  0
    7.0317   -1.0078    4.5896 H   0  0  0  0  0  0  0  0  0  0  0  0
    7.6778   -2.1905    6.4808 H   0  0  0  0  0  0  0  0  0  0  0  0
    9.3227   -3.4650    7.7682 H   0  0  0  0  0  0  0  0  0  0  0  0
    9.9198   -5.7836    7.1101 H   0  0  0  0  0  0  0  0  0  0  0  0
    8.8835   -6.7905    5.0937 H   0  0  0  0  0  0  0  0  0  0  0  0
    7.2948   -5.5205    3.7500 H   0  0  0  0  0  0  0  0  0  0  0  0
    5.1741   -4.8005    3.6814 H   0  0  0  0  0  0  0  0  0  0  0  0
    3.4537   -3.6577    2.4138 H   0  0  0  0  0  0  0  0  0  0  0  0
    2.0622    0.4957   -2.1947 H   0  0  0  0  0  0  0  0  0  0  0  0
    3.3404   -0.7219   -2.1177 H   0  0  0  0  0  0  0  0  0  0  0  0
    4.7861    1.4635    0.4180 H   0  0  0  0  0  0  0  0  0  0  0  0
    4.6082    3.5813    1.3232 H   0  0  0  0  0  0  0  0  0  0  0  0
    3.4874    4.6011    0.3894 H   0  0  0  0  0  0  0  0  0  0  0  0
    5.2755    4.8866    0.2745 H   0  0  0  0  0  0  0  0  0  0  0  0
    4.2728    5.6922   -2.1210 H   0  0  0  0  0  0  0  0  0  0  0  0
    3.9052    5.7376   -4.5474 H   0  0  0  0  0  0  0  0  0  0  0  0
    4.9849    5.3504   -6.3406 H   0  0  0  0  0  0  0  0  0  0  0  0
    2.8388    3.6201   -8.8692 H   0  0  0  0  0  0  0  0  0  0  0  0
    2.8287    4.2851  -11.2329 H   0  0  0  0  0  0  0  0  0  0  0  0
    5.7076    7.3474  -10.4357 H   0  0  0  0  0  0  0  0  0  0  0  0
    5.7536    6.7092   -8.0456 H   0  0  0  0  0  0  0  0  0  0  0  0
    3.7948    1.4177   -4.6668 H   0  0  0  0  0  0  0  0  0  0  0  0
  1  2  1  0  0  0  0
  1 38  1  0  0  0  0
  1 39  1  0  0  0  0
  1 40  1  0  0  0  0
  2  3  1  0  0  0  0
  2 17  1  0  0  0  0
  3  4  1  0  0  0  0
  3 41  1  0  0  0  0
  3 42  1  0  0  0  0
  4  5  1  0  0  0  0
  4 43  1  0  0  0  0
  4 44  1  0  0  0  0
  5  6  1  0  0  0  0
  5 16  2  0  0  0  0
  6  7  2  0  0  0  0
  6 45  1  0  0  0  0
  7  8  1  0  0  0  0
  7 46  1  0  0  0  0
  8  9  1  0  0  0  0
  8 15  2  0  0  0  0
  9 10  1  0  0  0  0
  9 14  2  0  0  0  0
 10 11  2  0  0  0  0
 10 47  1  0  0  0  0
 11 12  1  0  0  0  0
 11 48  1  0  0  0  0
 12 13  2  0  0  0  0
 12 49  1  0  0  0  0
 13 14  1  0  0  0  0
 13 50  1  0  0  0  0
 14 51  1  0  0  0  0
 15 16  1  0  0  0  0
 15 52  1  0  0  0  0
 16 53  1  0  0  0  0
 17 18  1  0  0  0  0
 17 54  1  0  0  0  0
 17 55  1  0  0  0  0
 18 19  2  0  0  0  0
 18 37  1  0  0  0  0
 19 20  1  0  0  0  0
 19 56  1  0  0  0  0
 20 21  1  0  0  0  0
 20 22  1  0  0  0  0
 21 57  1  0  0  0  0
 21 58  1  0  0  0  0
 21 59  1  0  0  0  0
 22 23  1  0  0  0  0
 22 37  2  0  0  0  0
 23 24  2  0  0  0  0
 23 60  1  0  0  0  0
 24 25  1  0  0  0  0
 24 61  1  0  0  0  0
 25 26  1  0  0  0  0
 25 36  2  0  0  0  0
 26 27  2  0  0  0  0
 26 28  1  0  0  0  0
 28 29  1  0  0  0  0
 28 62  1  0  0  0  0
 29 30  1  0  0  0  0
 29 35  2  0  0  0  0
 30 31  2  0  0  0  0
 30 63  1  0  0  0  0
 31 32  1  0  0  0  0
 31 64  1  0  0  0  0
 32 33  1  0  0  0  0
 32 34  2  0  0  0  0
 34 35  1  0  0  0  0
 34 65  1  0  0  0  0
 35 66  1  0  0  0  0
 36 37  1  0  0  0  0
 36 67  1  0  0  0  0
M  END
$$$$
