CHEMBL379674
 OpenBabel04072215373D

 41 43  0  0  0  0  0  0  0  0999 V2000
    1.4189    0.5434    0.7028 O   0  0  0  0  0  0  0  0  0  0  0  0
    2.3269    0.0166    0.0664 C   0  0  0  0  0  0  0  0  0  0  0  0
    2.7502   -1.2874    0.3006 N   0  0  0  0  0  0  0  0  0  0  0  0
    2.1244   -2.1863    1.1934 C   0  0  0  0  0  0  0  0  0  0  0  0
    0.8168   -2.0005    1.6545 C   0  0  0  0  0  0  0  0  0  0  0  0
    0.2398   -2.8732    2.5787 C   0  0  0  0  0  0  0  0  0  0  0  0
    0.9582   -3.9638    3.0518 C   0  0  0  0  0  0  0  0  0  0  0  0
    0.5243   -4.8446    3.9999 O   0  0  0  0  0  0  0  0  0  0  0  0
   -0.8828   -5.0538    4.0986 C   0  0  0  0  0  0  0  0  0  0  0  0
   -1.5087   -3.9179    4.4939 F   0  0  0  0  0  0  0  0  0  0  0  0
   -1.3765   -5.4107    2.8869 F   0  0  0  0  0  0  0  0  0  0  0  0
   -1.2071   -6.3305    5.2764 Cl  0  0  0  0  0  0  0  0  0  0  0  0
    2.2561   -4.1748    2.5751 C   0  0  0  0  0  0  0  0  0  0  0  0
    2.8299   -3.3060    1.6345 C   0  0  0  0  0  0  0  0  0  0  0  0
    3.0338    0.7645   -0.9628 C   0  0  0  0  0  0  0  0  0  0  0  0
    4.3342    0.1376   -1.8773 S   0  0  0  0  0  0  0  0  0  0  0  0
    4.4255    1.6174   -2.7380 C   0  0  0  0  0  0  0  0  0  0  0  0
    3.5643    2.5458   -2.3879 N   0  0  0  0  0  0  0  0  0  0  0  0
    2.7562    2.0684   -1.3655 C   0  0  0  0  0  0  0  0  0  0  0  0
    1.6706    2.9389   -0.7888 C   0  0  0  0  0  0  0  0  0  0  0  0
    1.5149    4.3156   -1.4287 C   0  0  0  0  0  0  0  0  0  0  0  0
    0.4003    5.0955   -0.7702 C   0  0  0  0  0  0  0  0  0  0  0  0
    0.6508    5.8938    0.3491 C   0  0  0  0  0  0  0  0  0  0  0  0
   -0.4082    6.5732    0.9339 C   0  0  0  0  0  0  0  0  0  0  0  0
   -1.6818    6.5078    0.4910 N   0  0  0  0  0  0  0  0  0  0  0  0
   -1.9058    5.7206   -0.5824 C   0  0  0  0  0  0  0  0  0  0  0  0
   -0.9145    5.0030   -1.2358 C   0  0  0  0  0  0  0  0  0  0  0  0
    3.6302   -1.5683   -0.1127 H   0  0  0  0  0  0  0  0  0  0  0  0
    0.1971   -1.1780    1.3087 H   0  0  0  0  0  0  0  0  0  0  0  0
   -0.7641   -2.6351    2.9161 H   0  0  0  0  0  0  0  0  0  0  0  0
    2.8330   -5.0212    2.9416 H   0  0  0  0  0  0  0  0  0  0  0  0
    3.8428   -3.5008    1.2924 H   0  0  0  0  0  0  0  0  0  0  0  0
    5.1512    1.7747   -3.5268 H   0  0  0  0  0  0  0  0  0  0  0  0
    1.8707    3.0640    0.2835 H   0  0  0  0  0  0  0  0  0  0  0  0
    0.7169    2.4014   -0.8779 H   0  0  0  0  0  0  0  0  0  0  0  0
    1.3067    4.2179   -2.5022 H   0  0  0  0  0  0  0  0  0  0  0  0
    2.4510    4.8830   -1.3516 H   0  0  0  0  0  0  0  0  0  0  0  0
    1.6483    5.9863    0.7652 H   0  0  0  0  0  0  0  0  0  0  0  0
   -0.2535    7.2065    1.8028 H   0  0  0  0  0  0  0  0  0  0  0  0
   -2.9387    5.6774   -0.9160 H   0  0  0  0  0  0  0  0  0  0  0  0
   -1.1698    4.3810   -2.0876 H   0  0  0  0  0  0  0  0  0  0  0  0
  1  2  2  0  0  0  0
  2  3  1  0  0  0  0
  2 15  1  0  0  0  0
  3  4  1  0  0  0  0
  3 28  1  0  0  0  0
  4  5  1  0  0  0  0
  4 14  2  0  0  0  0
  5  6  2  0  0  0  0
  5 29  1  0  0  0  0
  6  7  1  0  0  0  0
  6 30  1  0  0  0  0
  7  8  1  0  0  0  0
  7 13  2  0  0  0  0
  8  9  1  0  0  0  0
  9 10  1  0  0  0  0
  9 11  1  0  0  0  0
  9 12  1  0  0  0  0
 13 14  1  0  0  0  0
 13 31  1  0  0  0  0
 14 32  1  0  0  0  0
 15 16  1  0  0  0  0
 15 19  2  0  0  0  0
 16 17  1  0  0  0  0
 17 18  2  0  0  0  0
 17 33  1  0  0  0  0
 18 19  1  0  0  0  0
 19 20  1  0  0  0  0
 20 21  1  0  0  0  0
 20 34  1  0  0  0  0
 20 35  1  0  0  0  0
 21 22  1  0  0  0  0
 21 36  1  0  0  0  0
 21 37  1  0  0  0  0
 22 23  1  0  0  0  0
 22 27  2  0  0  0  0
 23 24  2  0  0  0  0
 23 38  1  0  0  0  0
 24 25  1  0  0  0  0
 24 39  1  0  0  0  0
 25 26  2  0  0  0  0
 26 27  1  0  0  0  0
 26 40  1  0  0  0  0
 27 41  1  0  0  0  0
M  END
$$$$
