CHEMBL514016
 OpenBabel04072215383D

 40 44  0  0  0  0  0  0  0  0999 V2000
    1.5688    2.0034    3.1613 Cl  0  0  0  0  0  0  0  0  0  0  0  0
    3.1622    2.0513    2.5154 C   0  0  0  0  0  0  0  0  0  0  0  0
    3.7296    0.9016    1.9827 C   0  0  0  0  0  0  0  0  0  0  0  0
    5.0326    0.9539    1.4831 C   0  0  0  0  0  0  0  0  0  0  0  0
    5.7781    2.1625    1.5212 C   0  0  0  0  0  0  0  0  0  0  0  0
    7.1146    2.3241    1.0968 C   0  0  0  0  0  0  0  0  0  0  0  0
    7.8131    1.2320    0.5162 N   0  0  0  0  0  0  0  0  0  0  0  0
    9.2205    1.0840    0.4670 C   0  0  0  0  0  0  0  0  0  0  0  0
    9.8141    0.4874   -0.6380 C   0  0  0  0  0  0  0  0  0  0  0  0
   11.1902    0.2477   -0.6678 C   0  0  0  0  0  0  0  0  0  0  0  0
   12.0343    0.5325    0.4295 C   0  0  0  0  0  0  0  0  0  0  0  0
   13.4639    0.1207    0.3599 C   0  0  0  0  0  0  0  0  0  0  0  0
   14.5201    0.7325    0.8645 N   0  0  0  0  0  0  0  0  0  0  0  0
   15.7002    0.0897    0.4769 C   0  0  0  0  0  0  0  0  0  0  0  0
   17.0267    0.4621    0.7948 C   0  0  0  0  0  0  0  0  0  0  0  0
   18.1076   -0.2569    0.2553 C   0  0  0  0  0  0  0  0  0  0  0  0
   17.8884   -1.3386   -0.5909 C   0  0  0  0  0  0  0  0  0  0  0  0
   16.5904   -1.7488   -0.8895 C   0  0  0  0  0  0  0  0  0  0  0  0
   15.5211   -1.0298   -0.3338 C   0  0  0  0  0  0  0  0  0  0  0  0
   13.8501   -1.3424   -0.4935 S   0  0  0  0  0  0  0  0  0  0  0  0
   11.4389    1.1527    1.5328 C   0  0  0  0  0  0  0  0  0  0  0  0
   12.3173    1.5781    2.9625 Cl  0  0  0  0  0  0  0  0  0  0  0  0
   10.0513    1.4233    1.5450 C   0  0  0  0  0  0  0  0  0  0  0  0
    7.7595    3.5003    1.1929 N   0  0  0  0  0  0  0  0  0  0  0  0
    7.0755    4.5231    1.7065 C   0  0  0  0  0  0  0  0  0  0  0  0
    5.8126    4.4861    2.1415 N   0  0  0  0  0  0  0  0  0  0  0  0
    5.1807    3.3138    2.0589 C   0  0  0  0  0  0  0  0  0  0  0  0
    3.8821    3.2428    2.5416 C   0  0  0  0  0  0  0  0  0  0  0  0
    3.1744   -0.0324    1.9718 H   0  0  0  0  0  0  0  0  0  0  0  0
    5.4779    0.0421    1.0886 H   0  0  0  0  0  0  0  0  0  0  0  0
    7.3602    0.9944   -0.3626 H   0  0  0  0  0  0  0  0  0  0  0  0
    9.2207    0.2014   -1.5043 H   0  0  0  0  0  0  0  0  0  0  0  0
   11.5963   -0.1950   -1.5769 H   0  0  0  0  0  0  0  0  0  0  0  0
   17.2098    1.3106    1.4469 H   0  0  0  0  0  0  0  0  0  0  0  0
   19.1278    0.0378    0.4927 H   0  0  0  0  0  0  0  0  0  0  0  0
   18.7303   -1.8778   -1.0205 H   0  0  0  0  0  0  0  0  0  0  0  0
   16.4091   -2.5983   -1.5413 H   0  0  0  0  0  0  0  0  0  0  0  0
    9.6076    1.8795    2.4279 H   0  0  0  0  0  0  0  0  0  0  0  0
    7.5923    5.4737    1.7753 H   0  0  0  0  0  0  0  0  0  0  0  0
    3.4299    4.1388    2.9617 H   0  0  0  0  0  0  0  0  0  0  0  0
  1  2  1  0  0  0  0
  2  3  1  0  0  0  0
  2 28  2  0  0  0  0
  3  4  2  0  0  0  0
  3 29  1  0  0  0  0
  4  5  1  0  0  0  0
  4 30  1  0  0  0  0
  5  6  1  0  0  0  0
  5 27  2  0  0  0  0
  6  7  1  0  0  0  0
  6 24  2  0  0  0  0
  7  8  1  0  0  0  0
  7 31  1  0  0  0  0
  8  9  1  0  0  0  0
  8 23  2  0  0  0  0
  9 10  2  0  0  0  0
  9 32  1  0  0  0  0
 10 11  1  0  0  0  0
 10 33  1  0  0  0  0
 11 12  1  0  0  0  0
 11 21  2  0  0  0  0
 12 13  2  0  0  0  0
 12 20  1  0  0  0  0
 13 14  1  0  0  0  0
 14 15  1  0  0  0  0
 14 19  2  0  0  0  0
 15 16  2  0  0  0  0
 15 34  1  0  0  0  0
 16 17  1  0  0  0  0
 16 35  1  0  0  0  0
 17 18  2  0  0  0  0
 17 36  1  0  0  0  0
 18 19  1  0  0  0  0
 18 37  1  0  0  0  0
 19 20  1  0  0  0  0
 21 22  1  0  0  0  0
 21 23  1  0  0  0  0
 23 38  1  0  0  0  0
 24 25  1  0  0  0  0
 25 26  2  0  0  0  0
 25 39  1  0  0  0  0
 26 27  1  0  0  0  0
 27 28  1  0  0  0  0
 28 40  1  0  0  0  0
M  END
$$$$
