CHEMBL4539395
 OpenBabel04072215383D

 52 56  0  0  0  0  0  0  0  0999 V2000
   14.5809   -2.3455    3.3373 C   0  0  0  0  0  0  0  0  0  0  0  0
   13.4913   -2.0973    2.4252 N   0  0  0  0  0  0  0  0  0  0  0  0
   12.3559   -2.8473    2.2727 C   0  0  0  0  0  0  0  0  0  0  0  0
   11.5863   -2.1883    1.3385 C   0  0  0  0  0  0  0  0  0  0  0  0
   10.2673   -2.5911    0.8860 C   0  0  0  0  0  0  0  0  0  0  0  0
    9.3620   -1.6171    0.4456 C   0  0  0  0  0  0  0  0  0  0  0  0
    8.0897   -1.9733   -0.0083 C   0  0  0  0  0  0  0  0  0  0  0  0
    7.6991   -3.3173   -0.0414 C   0  0  0  0  0  0  0  0  0  0  0  0
    6.3137   -3.6982   -0.4944 C   0  0  0  0  0  0  0  0  0  0  0  0
    6.3278   -4.5502   -1.6697 N   0  0  0  0  0  0  0  0  0  0  0  0
    6.3296   -4.1700   -2.9827 C   0  0  0  0  0  0  0  0  0  0  0  0
    6.1199   -5.3447   -3.6672 C   0  0  0  0  0  0  0  0  0  0  0  0
    5.9123   -5.5063   -5.0950 C   0  0  0  0  0  0  0  0  0  0  0  0
    5.0788   -6.5470   -5.5246 C   0  0  0  0  0  0  0  0  0  0  0  0
    4.8485   -6.7518   -6.8787 C   0  0  0  0  0  0  0  0  0  0  0  0
    5.4275   -5.9041   -7.8189 C   0  0  0  0  0  0  0  0  0  0  0  0
    6.2279   -4.8273   -7.4269 C   0  0  0  0  0  0  0  0  0  0  0  0
    6.7606   -3.8967   -8.3571 N   0  0  0  0  0  0  0  0  0  0  0  0
    6.5508   -3.9009   -9.7285 C   0  0  0  0  0  0  0  0  0  0  0  0
    5.8989   -4.7101  -10.3718 O   0  0  0  0  0  0  0  0  0  0  0  0
    7.2342   -2.7915  -10.4657 C   0  0  0  0  0  0  0  0  0  0  0  0
    6.9191   -2.5492  -11.9305 C   0  0  0  0  0  0  0  0  0  0  0  0
    8.2393   -3.1429  -11.5408 C   0  0  0  0  0  0  0  0  0  0  0  0
    6.4911   -4.6509   -6.0547 C   0  0  0  0  0  0  0  0  0  0  0  0
    6.0270   -6.3775   -2.7654 N   0  0  0  0  0  0  0  0  0  0  0  0
    6.1573   -5.8794   -1.5441 N   0  0  0  0  0  0  0  0  0  0  0  0
    8.6026   -4.2934    0.4040 C   0  0  0  0  0  0  0  0  0  0  0  0
    9.8724   -3.9331    0.8676 C   0  0  0  0  0  0  0  0  0  0  0  0
   12.3664   -1.0594    0.9863 C   0  0  0  0  0  0  0  0  0  0  0  0
   13.5228   -1.0043    1.6441 N   0  0  0  0  0  0  0  0  0  0  0  0
   14.4101   -3.2888    3.8603 H   0  0  0  0  0  0  0  0  0  0  0  0
   14.6158   -1.5203    4.0527 H   0  0  0  0  0  0  0  0  0  0  0  0
   15.5075   -2.3966    2.7616 H   0  0  0  0  0  0  0  0  0  0  0  0
   12.1947   -3.7466    2.8460 H   0  0  0  0  0  0  0  0  0  0  0  0
    9.6297   -0.5625    0.4684 H   0  0  0  0  0  0  0  0  0  0  0  0
    7.4103   -1.1842   -0.3229 H   0  0  0  0  0  0  0  0  0  0  0  0
    5.7209   -2.8124   -0.7531 H   0  0  0  0  0  0  0  0  0  0  0  0
    5.7843   -4.2223    0.3095 H   0  0  0  0  0  0  0  0  0  0  0  0
    6.4157   -3.1383   -3.2887 H   0  0  0  0  0  0  0  0  0  0  0  0
    4.5950   -7.2041   -4.8035 H   0  0  0  0  0  0  0  0  0  0  0  0
    4.2088   -7.5663   -7.2114 H   0  0  0  0  0  0  0  0  0  0  0  0
    5.2207   -6.1184   -8.8612 H   0  0  0  0  0  0  0  0  0  0  0  0
    7.3147   -3.1403   -7.9764 H   0  0  0  0  0  0  0  0  0  0  0  0
    7.4372   -1.8999   -9.8810 H   0  0  0  0  0  0  0  0  0  0  0  0
    6.9055   -1.5300  -12.2971 H   0  0  0  0  0  0  0  0  0  0  0  0
    6.2060   -3.2004  -12.4296 H   0  0  0  0  0  0  0  0  0  0  0  0
    9.1229   -2.5251  -11.6383 H   0  0  0  0  0  0  0  0  0  0  0  0
    8.3988   -4.1910  -11.7758 H   0  0  0  0  0  0  0  0  0  0  0  0
    7.1531   -3.8544   -5.7258 H   0  0  0  0  0  0  0  0  0  0  0  0
    8.3248   -5.3472    0.3934 H   0  0  0  0  0  0  0  0  0  0  0  0
   10.5463   -4.7189    1.2008 H   0  0  0  0  0  0  0  0  0  0  0  0
   12.1303   -0.2746    0.2781 H   0  0  0  0  0  0  0  0  0  0  0  0
  1  2  1  0  0  0  0
  1 31  1  0  0  0  0
  1 32  1  0  0  0  0
  1 33  1  0  0  0  0
  2  3  1  0  0  0  0
  2 30  1  0  0  0  0
  3  4  2  0  0  0  0
  3 34  1  0  0  0  0
  4  5  1  0  0  0  0
  4 29  1  0  0  0  0
  5  6  1  0  0  0  0
  5 28  2  0  0  0  0
  6  7  2  0  0  0  0
  6 35  1  0  0  0  0
  7  8  1  0  0  0  0
  7 36  1  0  0  0  0
  8  9  1  0  0  0  0
  8 27  2  0  0  0  0
  9 10  1  0  0  0  0
  9 37  1  0  0  0  0
  9 38  1  0  0  0  0
 10 11  1  0  0  0  0
 10 26  1  0  0  0  0
 11 12  2  0  0  0  0
 11 39  1  0  0  0  0
 12 13  1  0  0  0  0
 12 25  1  0  0  0  0
 13 14  1  0  0  0  0
 13 24  2  0  0  0  0
 14 15  2  0  0  0  0
 14 40  1  0  0  0  0
 15 16  1  0  0  0  0
 15 41  1  0  0  0  0
 16 17  2  0  0  0  0
 16 42  1  0  0  0  0
 17 18  1  0  0  0  0
 17 24  1  0  0  0  0
 18 19  1  0  0  0  0
 18 43  1  0  0  0  0
 19 20  2  0  0  0  0
 19 21  1  0  0  0  0
 21 22  1  0  0  0  0
 21 23  1  0  0  0  0
 21 44  1  0  0  0  0
 22 23  1  0  0  0  0
 22 45  1  0  0  0  0
 22 46  1  0  0  0  0
 23 47  1  0  0  0  0
 23 48  1  0  0  0  0
 24 49  1  0  0  0  0
 25 26  2  0  0  0  0
 27 28  1  0  0  0  0
 27 50  1  0  0  0  0
 28 51  1  0  0  0  0
 29 30  2  0  0  0  0
 29 52  1  0  0  0  0
M  END
$$$$
