CHEMBL369322
 OpenBabel04072215373D

 64 67  0  0  0  0  0  0  0  0999 V2000
    0.4841    2.0855   -5.3262 C   0  0  0  0  0  0  0  0  0  0  0  0
    1.1776    1.8943   -4.0087 C   0  0  0  0  0  0  0  0  0  0  0  0
    2.5472    2.1373   -3.8931 C   0  0  0  0  0  0  0  0  0  0  0  0
    3.1897    1.9877   -2.6605 C   0  0  0  0  0  0  0  0  0  0  0  0
    2.4845    1.6220   -1.5024 C   0  0  0  0  0  0  0  0  0  0  0  0
    3.1429    1.4557   -0.2653 N   0  0  0  0  0  0  0  0  0  0  0  0
    4.4132    0.9341   -0.1141 C   0  0  0  0  0  0  0  0  0  0  0  0
    4.8733    0.1565   -1.0562 N   0  0  0  0  0  0  0  0  0  0  0  0
    6.0902   -0.4310   -0.9552 C   0  0  0  0  0  0  0  0  0  0  0  0
    6.9097   -0.3116    0.0316 N   0  0  0  0  0  0  0  0  0  0  0  0
    6.4568    0.4863    1.0069 N   0  0  0  0  0  0  0  0  0  0  0  0
    7.1711    0.7385    2.1241 C   0  0  0  0  0  0  0  0  0  0  0  0
    6.4519    1.5775    2.9281 C   0  0  0  0  0  0  0  0  0  0  0  0
    6.8805    2.0180    4.1500 O   0  0  0  0  0  0  0  0  0  0  0  0
    8.1638    1.4548    4.5027 C   0  0  0  0  0  0  0  0  0  0  0  0
    8.6656    1.9067    5.8671 C   0  0  0  0  0  0  0  0  0  0  0  0
   10.0432    1.2801    6.1797 C   0  0  0  0  0  0  0  0  0  0  0  0
   11.1137    1.5975    5.2101 N   0  0  0  0  0  0  0  0  0  0  0  0
   11.4132    3.0373    5.1706 C   0  0  0  0  0  0  0  0  0  0  0  0
   12.4947    3.3639    4.1390 C   0  0  0  0  0  0  0  0  0  0  0  0
   13.7687    2.5762    4.4068 C   0  0  0  0  0  0  0  0  0  0  0  0
   13.4498    1.0899    4.4973 C   0  0  0  0  0  0  0  0  0  0  0  0
   12.3320    0.8172    5.5086 C   0  0  0  0  0  0  0  0  0  0  0  0
    5.2199    1.9009    2.2386 C   0  0  0  0  0  0  0  0  0  0  0  0
    4.1215    2.8506    2.6977 C   0  0  0  0  0  0  0  0  0  0  0  0
    3.0362    2.1370    3.5076 C   0  0  0  0  0  0  0  0  0  0  0  0
    4.5982    4.0647    3.5075 C   0  0  0  0  0  0  0  0  0  0  0  0
    5.2603    1.1439    1.0459 C   0  0  0  0  0  0  0  0  0  0  0  0
    1.1194    1.3380   -1.6303 C   0  0  0  0  0  0  0  0  0  0  0  0
    0.4819    1.4713   -2.8719 C   0  0  0  0  0  0  0  0  0  0  0  0
   -0.8496    1.1833   -3.0021 O   0  0  0  0  0  0  0  0  0  0  0  0
    1.1764    2.4468   -6.0949 H   0  0  0  0  0  0  0  0  0  0  0  0
   -0.3125    2.8303   -5.2278 H   0  0  0  0  0  0  0  0  0  0  0  0
    0.0584    1.1410   -5.6786 H   0  0  0  0  0  0  0  0  0  0  0  0
    3.1305    2.4466   -4.7574 H   0  0  0  0  0  0  0  0  0  0  0  0
    4.2587    2.1824   -2.6110 H   0  0  0  0  0  0  0  0  0  0  0  0
    2.6199    1.7160    0.5573 H   0  0  0  0  0  0  0  0  0  0  0  0
    6.3941   -1.0754   -1.7973 H   0  0  0  0  0  0  0  0  0  0  0  0
    8.1423    0.2741    2.2272 H   0  0  0  0  0  0  0  0  0  0  0  0
    8.9013    1.7555    3.7482 H   0  0  0  0  0  0  0  0  0  0  0  0
    8.0790    0.3597    4.5298 H   0  0  0  0  0  0  0  0  0  0  0  0
    7.9459    1.5945    6.6329 H   0  0  0  0  0  0  0  0  0  0  0  0
    8.6964    2.9986    5.9184 H   0  0  0  0  0  0  0  0  0  0  0  0
    9.9060    0.1894    6.1934 H   0  0  0  0  0  0  0  0  0  0  0  0
   10.3461    1.5685    7.1939 H   0  0  0  0  0  0  0  0  0  0  0  0
   11.7268    3.3947    6.1598 H   0  0  0  0  0  0  0  0  0  0  0  0
   10.5216    3.6035    4.8834 H   0  0  0  0  0  0  0  0  0  0  0  0
   12.7119    4.4376    4.1593 H   0  0  0  0  0  0  0  0  0  0  0  0
   12.1249    3.1320    3.1315 H   0  0  0  0  0  0  0  0  0  0  0  0
   14.2197    2.9154    5.3474 H   0  0  0  0  0  0  0  0  0  0  0  0
   14.5007    2.7603    3.6130 H   0  0  0  0  0  0  0  0  0  0  0  0
   14.3538    0.5379    4.7836 H   0  0  0  0  0  0  0  0  0  0  0  0
   13.1513    0.7192    3.5086 H   0  0  0  0  0  0  0  0  0  0  0  0
   12.6959    1.0385    6.5203 H   0  0  0  0  0  0  0  0  0  0  0  0
   12.1036   -0.2546    5.4727 H   0  0  0  0  0  0  0  0  0  0  0  0
    3.6515    3.2624    1.7956 H   0  0  0  0  0  0  0  0  0  0  0  0
    3.4247    1.7888    4.4720 H   0  0  0  0  0  0  0  0  0  0  0  0
    2.6333    1.2717    2.9735 H   0  0  0  0  0  0  0  0  0  0  0  0
    2.2017    2.8188    3.7169 H   0  0  0  0  0  0  0  0  0  0  0  0
    4.9058    3.7841    4.5214 H   0  0  0  0  0  0  0  0  0  0  0  0
    3.7778    4.7876    3.6185 H   0  0  0  0  0  0  0  0  0  0  0  0
    5.4317    4.5834    3.0254 H   0  0  0  0  0  0  0  0  0  0  0  0
    0.5609    0.9894   -0.7675 H   0  0  0  0  0  0  0  0  0  0  0  0
   -1.1774    0.8216   -2.1636 H   0  0  0  0  0  0  0  0  0  0  0  0
  1  2  1  0  0  0  0
  1 32  1  0  0  0  0
  1 33  1  0  0  0  0
  1 34  1  0  0  0  0
  2  3  1  0  0  0  0
  2 30  2  0  0  0  0
  3  4  2  0  0  0  0
  3 35  1  0  0  0  0
  4  5  1  0  0  0  0
  4 36  1  0  0  0  0
  5  6  1  0  0  0  0
  5 29  2  0  0  0  0
  6  7  1  0  0  0  0
  6 37  1  0  0  0  0
  7  8  2  0  0  0  0
  7 28  1  0  0  0  0
  8  9  1  0  0  0  0
  9 10  2  0  0  0  0
  9 38  1  0  0  0  0
 10 11  1  0  0  0  0
 11 12  1  0  0  0  0
 11 28  1  0  0  0  0
 12 13  2  0  0  0  0
 12 39  1  0  0  0  0
 13 14  1  0  0  0  0
 13 24  1  0  0  0  0
 14 15  1  0  0  0  0
 15 16  1  0  0  0  0
 15 40  1  0  0  0  0
 15 41  1  0  0  0  0
 16 17  1  0  0  0  0
 16 42  1  0  0  0  0
 16 43  1  0  0  0  0
 17 18  1  0  0  0  0
 17 44  1  0  0  0  0
 17 45  1  0  0  0  0
 18 19  1  0  0  0  0
 18 23  1  0  0  0  0
 19 20  1  0  0  0  0
 19 46  1  0  0  0  0
 19 47  1  0  0  0  0
 20 21  1  0  0  0  0
 20 48  1  0  0  0  0
 20 49  1  0  0  0  0
 21 22  1  0  0  0  0
 21 50  1  0  0  0  0
 21 51  1  0  0  0  0
 22 23  1  0  0  0  0
 22 52  1  0  0  0  0
 22 53  1  0  0  0  0
 23 54  1  0  0  0  0
 23 55  1  0  0  0  0
 24 25  1  0  0  0  0
 24 28  2  0  0  0  0
 25 26  1  0  0  0  0
 25 27  1  0  0  0  0
 25 56  1  0  0  0  0
 26 57  1  0  0  0  0
 26 58  1  0  0  0  0
 26 59  1  0  0  0  0
 27 60  1  0  0  0  0
 27 61  1  0  0  0  0
 27 62  1  0  0  0  0
 29 30  1  0  0  0  0
 29 63  1  0  0  0  0
 30 31  1  0  0  0  0
 31 64  1  0  0  0  0
M  END
$$$$
