CHEMBL4438911
 OpenBabel04072215383D

 49 52  0  0  0  0  0  0  0  0999 V2000
    3.3608   -0.8563    1.1068 C   0  0  0  0  0  0  0  0  0  0  0  0
    2.7715    0.4388    1.0910 O   0  0  0  0  0  0  0  0  0  0  0  0
    3.3168    1.3484    0.2276 C   0  0  0  0  0  0  0  0  0  0  0  0
    4.3898    1.1119   -0.6305 C   0  0  0  0  0  0  0  0  0  0  0  0
    4.8488    2.1305   -1.4683 C   0  0  0  0  0  0  0  0  0  0  0  0
    4.2470    3.3951   -1.4457 C   0  0  0  0  0  0  0  0  0  0  0  0
    4.7616    4.4255   -2.3809 C   0  0  0  0  0  0  0  0  0  0  0  0
    5.2674    4.0364   -3.4289 O   0  0  0  0  0  0  0  0  0  0  0  0
    4.6790    5.7402   -1.9455 N   0  0  0  0  0  0  0  0  0  0  0  0
    5.0785    6.8645   -2.6975 C   0  0  0  0  0  0  0  0  0  0  0  0
    5.2740    6.8064   -4.0767 C   0  0  0  0  0  0  0  0  0  0  0  0
    5.7497    7.9105   -4.7810 C   0  0  0  0  0  0  0  0  0  0  0  0
    6.0705    9.0986   -4.1141 C   0  0  0  0  0  0  0  0  0  0  0  0
    6.7904   10.2251   -4.7847 C   0  0  0  0  0  0  0  0  0  0  0  0
    6.9084   11.3156   -4.2087 O   0  0  0  0  0  0  0  0  0  0  0  0
    7.3957    9.9010   -5.9948 N   0  0  0  0  0  0  0  0  0  0  0  0
    8.6407   10.4105   -6.2539 N   0  0  0  0  0  0  0  0  0  0  0  0
    9.2900    9.7920   -7.2046 C   0  0  0  0  0  0  0  0  0  0  0  0
    8.7787    8.8744   -8.3125 C   0  0  0  0  0  0  0  0  0  0  0  0
    7.6502    8.8404   -8.7455 O   0  0  0  0  0  0  0  0  0  0  0  0
    9.8438    8.0425   -8.6010 N   0  0  0  0  0  0  0  0  0  0  0  0
   10.8648    8.2644   -7.6932 C   0  0  0  0  0  0  0  0  0  0  0  0
   11.7874    7.3434   -7.2355 C   0  0  0  0  0  0  0  0  0  0  0  0
   12.5505    7.7047   -6.1181 C   0  0  0  0  0  0  0  0  0  0  0  0
   12.4635    8.9937   -5.5409 C   0  0  0  0  0  0  0  0  0  0  0  0
   11.5200    9.8996   -6.0011 C   0  0  0  0  0  0  0  0  0  0  0  0
   10.7033    9.4852   -7.0333 C   0  0  0  0  0  0  0  0  0  0  0  0
    5.7994    9.1854   -2.7394 C   0  0  0  0  0  0  0  0  0  0  0  0
    5.2918    8.0812   -2.0397 C   0  0  0  0  0  0  0  0  0  0  0  0
    3.1619    3.6312   -0.5991 C   0  0  0  0  0  0  0  0  0  0  0  0
    2.7042    2.6072    0.2367 C   0  0  0  0  0  0  0  0  0  0  0  0
    2.8273   -1.4590    1.8468 H   0  0  0  0  0  0  0  0  0  0  0  0
    4.4120   -0.8077    1.4116 H   0  0  0  0  0  0  0  0  0  0  0  0
    3.2545   -1.3497    0.1344 H   0  0  0  0  0  0  0  0  0  0  0  0
    4.8866    0.1498   -0.6819 H   0  0  0  0  0  0  0  0  0  0  0  0
    5.6772    1.9317   -2.1464 H   0  0  0  0  0  0  0  0  0  0  0  0
    4.4703    5.8994   -0.9684 H   0  0  0  0  0  0  0  0  0  0  0  0
    5.0691    5.9016   -4.6422 H   0  0  0  0  0  0  0  0  0  0  0  0
    5.8658    7.7831   -5.8525 H   0  0  0  0  0  0  0  0  0  0  0  0
    7.2813    8.9496   -6.3225 H   0  0  0  0  0  0  0  0  0  0  0  0
    9.7966    7.3106   -9.2971 H   0  0  0  0  0  0  0  0  0  0  0  0
   11.8003    6.3220   -7.6034 H   0  0  0  0  0  0  0  0  0  0  0  0
   13.1830    6.9616   -5.6325 H   0  0  0  0  0  0  0  0  0  0  0  0
   13.0512    9.2393   -4.6659 H   0  0  0  0  0  0  0  0  0  0  0  0
   11.3305   10.8507   -5.4926 H   0  0  0  0  0  0  0  0  0  0  0  0
    6.0252   10.1043   -2.2004 H   0  0  0  0  0  0  0  0  0  0  0  0
    5.1199    8.1763   -0.9691 H   0  0  0  0  0  0  0  0  0  0  0  0
    2.6384    4.5832   -0.6010 H   0  0  0  0  0  0  0  0  0  0  0  0
    1.8564    2.7844    0.8899 H   0  0  0  0  0  0  0  0  0  0  0  0
  1  2  1  0  0  0  0
  1 32  1  0  0  0  0
  1 33  1  0  0  0  0
  1 34  1  0  0  0  0
  2  3  1  0  0  0  0
  3  4  1  0  0  0  0
  3 31  2  0  0  0  0
  4  5  2  0  0  0  0
  4 35  1  0  0  0  0
  5  6  1  0  0  0  0
  5 36  1  0  0  0  0
  6  7  1  0  0  0  0
  6 30  2  0  0  0  0
  7  8  2  0  0  0  0
  7  9  1  0  0  0  0
  9 10  1  0  0  0  0
  9 37  1  0  0  0  0
 10 11  1  0  0  0  0
 10 29  2  0  0  0  0
 11 12  2  0  0  0  0
 11 38  1  0  0  0  0
 12 13  1  0  0  0  0
 12 39  1  0  0  0  0
 13 14  1  0  0  0  0
 13 28  2  0  0  0  0
 14 15  2  0  0  0  0
 14 16  1  0  0  0  0
 16 17  1  0  0  0  0
 16 40  1  0  0  0  0
 17 18  2  0  0  0  0
 18 19  1  0  0  0  0
 18 27  1  0  0  0  0
 19 20  2  0  0  0  0
 19 21  1  0  0  0  0
 21 22  1  0  0  0  0
 21 41  1  0  0  0  0
 22 23  1  0  0  0  0
 22 27  2  0  0  0  0
 23 24  2  0  0  0  0
 23 42  1  0  0  0  0
 24 25  1  0  0  0  0
 24 43  1  0  0  0  0
 25 26  2  0  0  0  0
 25 44  1  0  0  0  0
 26 27  1  0  0  0  0
 26 45  1  0  0  0  0
 28 29  1  0  0  0  0
 28 46  1  0  0  0  0
 29 47  1  0  0  0  0
 30 31  1  0  0  0  0
 30 48  1  0  0  0  0
 31 49  1  0  0  0  0
M  END
$$$$
