CHEMBL3690378
 OpenBabel04072215373D

 49 52  0  0  0  0  0  0  0  0999 V2000
    1.0312    0.0131   -0.0985 C   0  0  0  0  0  0  0  0  0  0  0  0
    2.4722   -0.0369   -0.0941 N   0  0  0  0  0  0  0  0  0  0  0  0
    3.3086    1.0419   -0.0872 C   0  0  0  0  0  0  0  0  0  0  0  0
    4.5701    0.6730   -0.0807 N   0  0  0  0  0  0  0  0  0  0  0  0
    4.5425   -0.6996   -0.0857 C   0  0  0  0  0  0  0  0  0  0  0  0
    3.2468   -1.1659   -0.0957 C   0  0  0  0  0  0  0  0  0  0  0  0
    2.7909   -2.5090   -0.1052 C   0  0  0  0  0  0  0  0  0  0  0  0
    2.3770   -3.7453   -0.1148 C   0  0  0  0  0  0  0  0  0  0  0  0
    1.8945   -5.1867   -0.1260 C   0  0  0  0  0  0  0  0  0  0  0  0
    2.8841   -6.2457   -0.0844 C   0  0  0  0  0  0  0  0  0  0  0  0
    2.4647   -7.5203   -0.0371 C   0  0  0  0  0  0  0  0  0  0  0  0
    1.0934   -7.8089   -0.0746 N   0  0  0  0  0  0  0  0  0  0  0  0
    0.4050   -9.0220   -0.0953 C   0  0  0  0  0  0  0  0  0  0  0  0
    0.9807  -10.3762   -0.1356 C   0  0  0  0  0  0  0  0  0  0  0  0
    2.1676  -10.6369   -0.8298 C   0  0  0  0  0  0  0  0  0  0  0  0
    2.7085  -11.9172   -0.8660 C   0  0  0  0  0  0  0  0  0  0  0  0
    2.0378  -12.9712   -0.2598 C   0  0  0  0  0  0  0  0  0  0  0  0
    0.8285  -12.7604    0.4138 C   0  0  0  0  0  0  0  0  0  0  0  0
    0.0952  -13.8284    0.9873 N   0  0  0  0  0  0  0  0  0  0  0  0
    0.5936  -15.0838    1.2434 C   0  0  0  0  0  0  0  0  0  0  0  0
    1.7700  -15.4226    1.1660 O   0  0  0  0  0  0  0  0  0  0  0  0
   -0.3685  -15.9978    1.5892 N   0  0  0  0  0  0  0  0  0  0  0  0
    0.0676  -17.3620    1.9237 C   0  0  0  0  0  0  0  0  0  0  0  0
    0.6596  -17.5657    3.3275 C   0  0  0  0  0  0  0  0  0  0  0  0
    0.5689  -16.4541    4.0924 F   0  0  0  0  0  0  0  0  0  0  0  0
   -0.0260  -18.5420    3.9758 F   0  0  0  0  0  0  0  0  0  0  0  0
    1.9536  -17.9481    3.2902 F   0  0  0  0  0  0  0  0  0  0  0  0
    0.3125  -11.4604    0.4762 C   0  0  0  0  0  0  0  0  0  0  0  0
   -0.9299   -8.6447   -0.0983 C   0  0  0  0  0  0  0  0  0  0  0  0
   -1.0933   -7.2888   -0.1047 N   0  0  0  0  0  0  0  0  0  0  0  0
    0.1251   -6.8001   -0.1089 C   0  0  0  0  0  0  0  0  0  0  0  0
    0.5731   -5.4507   -0.1298 C   0  0  0  0  0  0  0  0  0  0  0  0
    0.7012    1.0554   -0.0997 H   0  0  0  0  0  0  0  0  0  0  0  0
    0.6629   -0.4890    0.7995 H   0  0  0  0  0  0  0  0  0  0  0  0
    0.6676   -0.4897   -0.9980 H   0  0  0  0  0  0  0  0  0  0  0  0
    2.9544    2.0648   -0.0865 H   0  0  0  0  0  0  0  0  0  0  0  0
    5.4578   -1.2774   -0.0822 H   0  0  0  0  0  0  0  0  0  0  0  0
    3.9387   -5.9905   -0.0782 H   0  0  0  0  0  0  0  0  0  0  0  0
    3.1671   -8.3368    0.0320 H   0  0  0  0  0  0  0  0  0  0  0  0
    2.6878   -9.8621   -1.3830 H   0  0  0  0  0  0  0  0  0  0  0  0
    3.6419  -12.1042   -1.3905 H   0  0  0  0  0  0  0  0  0  0  0  0
    2.4671  -13.9609   -0.3676 H   0  0  0  0  0  0  0  0  0  0  0  0
   -0.8392  -13.6191    1.3145 H   0  0  0  0  0  0  0  0  0  0  0  0
   -1.2408  -15.6659    1.9717 H   0  0  0  0  0  0  0  0  0  0  0  0
    0.8145  -17.6744    1.1821 H   0  0  0  0  0  0  0  0  0  0  0  0
   -0.8034  -18.0093    1.7883 H   0  0  0  0  0  0  0  0  0  0  0  0
   -0.6128  -11.2747    1.0188 H   0  0  0  0  0  0  0  0  0  0  0  0
   -1.7936   -9.2990   -0.1184 H   0  0  0  0  0  0  0  0  0  0  0  0
   -0.1710   -4.6621   -0.1408 H   0  0  0  0  0  0  0  0  0  0  0  0
  1  2  1  0  0  0  0
  1 33  1  0  0  0  0
  1 34  1  0  0  0  0
  1 35  1  0  0  0  0
  2  3  1  0  0  0  0
  2  6  1  0  0  0  0
  3  4  2  0  0  0  0
  3 36  1  0  0  0  0
  4  5  1  0  0  0  0
  5  6  2  0  0  0  0
  5 37  1  0  0  0  0
  6  7  1  0  0  0  0
  7  8  3  0  0  0  0
  8  9  1  0  0  0  0
  9 10  1  0  0  0  0
  9 32  2  0  0  0  0
 10 11  2  0  0  0  0
 10 38  1  0  0  0  0
 11 12  1  0  0  0  0
 11 39  1  0  0  0  0
 12 13  1  0  0  0  0
 12 31  1  0  0  0  0
 13 14  1  0  0  0  0
 13 29  2  0  0  0  0
 14 15  1  0  0  0  0
 14 28  2  0  0  0  0
 15 16  2  0  0  0  0
 15 40  1  0  0  0  0
 16 17  1  0  0  0  0
 16 41  1  0  0  0  0
 17 18  2  0  0  0  0
 17 42  1  0  0  0  0
 18 19  1  0  0  0  0
 18 28  1  0  0  0  0
 19 20  1  0  0  0  0
 19 43  1  0  0  0  0
 20 21  2  0  0  0  0
 20 22  1  0  0  0  0
 22 23  1  0  0  0  0
 22 44  1  0  0  0  0
 23 24  1  0  0  0  0
 23 45  1  0  0  0  0
 23 46  1  0  0  0  0
 24 25  1  0  0  0  0
 24 26  1  0  0  0  0
 24 27  1  0  0  0  0
 28 47  1  0  0  0  0
 29 30  1  0  0  0  0
 29 48  1  0  0  0  0
 30 31  2  0  0  0  0
 31 32  1  0  0  0  0
 32 49  1  0  0  0  0
M  END
$$$$
