CHEMBL380944
 OpenBabel04072215373D

 33 35  0  0  0  0  0  0  0  0999 V2000
    2.7576    3.1179   -1.4021 N   0  0  0  0  0  0  0  0  0  0  0  0
    3.4639    2.2052   -1.3176 C   0  0  0  0  0  0  0  0  0  0  0  0
    4.3071    1.0651   -1.2337 C   0  0  0  0  0  0  0  0  0  0  0  0
    4.2145   -0.0440   -2.0369 C   0  0  0  0  0  0  0  0  0  0  0  0
    5.1245   -1.0302   -1.7567 N   0  0  0  0  0  0  0  0  0  0  0  0
    5.8796   -0.7146   -0.7241 C   0  0  0  0  0  0  0  0  0  0  0  0
    6.7897   -1.5274   -0.1308 N   0  0  0  0  0  0  0  0  0  0  0  0
    6.7120   -2.9304   -0.1730 C   0  0  0  0  0  0  0  0  0  0  0  0
    6.1441   -3.5991   -1.2404 C   0  0  0  0  0  0  0  0  0  0  0  0
    5.8865   -4.9477   -1.1445 C   0  0  0  0  0  0  0  0  0  0  0  0
    5.1843   -5.5923   -2.1448 N   0  0  0  0  0  0  0  0  0  0  0  0
    4.1473   -4.9126   -2.9385 C   0  0  0  0  0  0  0  0  0  0  0  0
    2.7803   -5.6209   -2.8023 C   0  0  0  0  0  0  0  0  0  0  0  0
    2.8372   -7.0710   -3.0684 N   0  0  0  0  0  0  0  0  0  0  0  0
    3.8305   -7.6730   -2.1507 C   0  0  0  0  0  0  0  0  0  0  0  0
    5.2379   -7.0490   -2.2551 C   0  0  0  0  0  0  0  0  0  0  0  0
    6.3314   -5.6275   -0.0780 N   0  0  0  0  0  0  0  0  0  0  0  0
    6.9675   -4.9240    0.8738 C   0  0  0  0  0  0  0  0  0  0  0  0
    7.1696   -3.5973    0.8933 N   0  0  0  0  0  0  0  0  0  0  0  0
    5.5808    0.8709   -0.1101 S   0  0  0  0  0  0  0  0  0  0  0  0
    3.5003   -0.2029   -2.8373 H   0  0  0  0  0  0  0  0  0  0  0  0
    7.1906   -1.2409    0.7539 H   0  0  0  0  0  0  0  0  0  0  0  0
    5.8896   -3.0739   -2.1473 H   0  0  0  0  0  0  0  0  0  0  0  0
    4.4594   -4.9172   -3.9897 H   0  0  0  0  0  0  0  0  0  0  0  0
    3.9944   -3.8656   -2.6542 H   0  0  0  0  0  0  0  0  0  0  0  0
    2.0703   -5.1646   -3.5022 H   0  0  0  0  0  0  0  0  0  0  0  0
    2.3748   -5.4549   -1.7962 H   0  0  0  0  0  0  0  0  0  0  0  0
    3.1724   -7.2021   -4.0230 H   0  0  0  0  0  0  0  0  0  0  0  0
    3.9014   -8.7422   -2.3769 H   0  0  0  0  0  0  0  0  0  0  0  0
    3.4620   -7.5893   -1.1212 H   0  0  0  0  0  0  0  0  0  0  0  0
    5.6638   -7.2880   -3.2375 H   0  0  0  0  0  0  0  0  0  0  0  0
    5.8960   -7.5160   -1.5146 H   0  0  0  0  0  0  0  0  0  0  0  0
    7.3446   -5.4872    1.7209 H   0  0  0  0  0  0  0  0  0  0  0  0
  1  2  3  0  0  0  0
  2  3  1  0  0  0  0
  3  4  2  0  0  0  0
  3 20  1  0  0  0  0
  4  5  1  0  0  0  0
  4 21  1  0  0  0  0
  5  6  2  0  0  0  0
  6  7  1  0  0  0  0
  6 20  1  0  0  0  0
  7  8  1  0  0  0  0
  7 22  1  0  0  0  0
  8  9  1  0  0  0  0
  8 19  2  0  0  0  0
  9 10  2  0  0  0  0
  9 23  1  0  0  0  0
 10 11  1  0  0  0  0
 10 17  1  0  0  0  0
 11 12  1  0  0  0  0
 11 16  1  0  0  0  0
 12 13  1  0  0  0  0
 12 24  1  0  0  0  0
 12 25  1  0  0  0  0
 13 14  1  0  0  0  0
 13 26  1  0  0  0  0
 13 27  1  0  0  0  0
 14 15  1  0  0  0  0
 14 28  1  0  0  0  0
 15 16  1  0  0  0  0
 15 29  1  0  0  0  0
 15 30  1  0  0  0  0
 16 31  1  0  0  0  0
 16 32  1  0  0  0  0
 17 18  2  0  0  0  0
 18 19  1  0  0  0  0
 18 33  1  0  0  0  0
M  END
$$$$
