CHEMBL348218
 OpenBabel04072215363D

 51 56  0  0  0  0  0  0  0  0999 V2000
    0.4215   -0.0476    0.2014 C   0  0  0  0  0  0  0  0  0  0  0  0
    1.9137   -0.0622    0.0781 C   0  0  0  0  0  0  0  0  0  0  0  0
    2.5906   -1.2549   -0.1800 C   0  0  0  0  0  0  0  0  0  0  0  0
    3.9402   -1.2915   -0.4465 C   0  0  0  0  0  0  0  0  0  0  0  0
    4.6535   -0.0679   -0.4423 C   0  0  0  0  0  0  0  0  0  0  0  0
    4.0003    1.1450   -0.1231 C   0  0  0  0  0  0  0  0  0  0  0  0
    2.6247    1.1468    0.1643 C   0  0  0  0  0  0  0  0  0  0  0  0
    5.0294    2.0461   -0.1447 C   0  0  0  0  0  0  0  0  0  0  0  0
    5.1690    3.2341    0.6200 C   0  0  0  0  0  0  0  0  0  0  0  0
    6.5445    3.6066    0.9718 C   0  0  0  0  0  0  0  0  0  0  0  0
    7.5928    2.7714    0.5363 C   0  0  0  0  0  0  0  0  0  0  0  0
    7.2291    2.3868   -0.7541 C   0  0  0  0  0  0  0  0  0  0  0  0
    6.1453    1.5906   -0.7809 C   0  0  0  0  0  0  0  0  0  0  0  0
    6.0188    0.2045   -0.5919 N   0  0  0  0  0  0  0  0  0  0  0  0
    7.1128   -0.6018   -0.0311 C   0  0  0  0  0  0  0  0  0  0  0  0
    7.0886   -2.1213   -0.1693 C   0  0  0  0  0  0  0  0  0  0  0  0
    8.2950   -2.8060    0.4721 C   0  0  0  0  0  0  0  0  0  0  0  0
    8.2307   -4.2074    0.2202 O   0  0  0  0  0  0  0  0  0  0  0  0
    8.2681    2.7728   -1.7163 C   0  0  0  0  0  0  0  0  0  0  0  0
    9.4137    2.2899   -0.8802 C   0  0  0  0  0  0  0  0  0  0  0  0
   10.2339    1.2948   -1.4251 C   0  0  0  0  0  0  0  0  0  0  0  0
   10.6881    0.3016   -0.5808 C   0  0  0  0  0  0  0  0  0  0  0  0
   10.3936    0.3769    0.7902 C   0  0  0  0  0  0  0  0  0  0  0  0
    9.5946    1.4270    1.3403 C   0  0  0  0  0  0  0  0  0  0  0  0
    9.0340    2.4153    0.5083 C   0  0  0  0  0  0  0  0  0  0  0  0
    6.4998    5.0146    1.2935 C   0  0  0  0  0  0  0  0  0  0  0  0
    7.3699    5.8549    1.4773 O   0  0  0  0  0  0  0  0  0  0  0  0
    5.1367    5.3709    1.1697 N   0  0  0  0  0  0  0  0  0  0  0  0
    4.2079    4.3124    0.7870 C   0  0  0  0  0  0  0  0  0  0  0  0
    0.0221   -1.0675    0.2278 H   0  0  0  0  0  0  0  0  0  0  0  0
   -0.0010    0.4470   -0.6809 H   0  0  0  0  0  0  0  0  0  0  0  0
    0.1090    0.4705    1.1068 H   0  0  0  0  0  0  0  0  0  0  0  0
    2.0459   -2.1935   -0.2130 H   0  0  0  0  0  0  0  0  0  0  0  0
    4.4376   -2.2244   -0.6589 H   0  0  0  0  0  0  0  0  0  0  0  0
    2.1095    2.0766    0.3776 H   0  0  0  0  0  0  0  0  0  0  0  0
    7.1646   -0.3345    1.0363 H   0  0  0  0  0  0  0  0  0  0  0  0
    8.0169   -0.2510   -0.5220 H   0  0  0  0  0  0  0  0  0  0  0  0
    7.0298   -2.3930   -1.2287 H   0  0  0  0  0  0  0  0  0  0  0  0
    6.2081   -2.5396    0.3209 H   0  0  0  0  0  0  0  0  0  0  0  0
    8.3149   -2.6600    1.5577 H   0  0  0  0  0  0  0  0  0  0  0  0
    9.2402   -2.4436    0.0604 H   0  0  0  0  0  0  0  0  0  0  0  0
    7.4375   -4.5552    0.6629 H   0  0  0  0  0  0  0  0  0  0  0  0
    8.3415    3.8774   -1.7683 H   0  0  0  0  0  0  0  0  0  0  0  0
    8.1494    2.3648   -2.7123 H   0  0  0  0  0  0  0  0  0  0  0  0
   10.2736    1.1604   -2.5057 H   0  0  0  0  0  0  0  0  0  0  0  0
   11.1438   -0.5904   -1.0123 H   0  0  0  0  0  0  0  0  0  0  0  0
   10.6775   -0.4753    1.4094 H   0  0  0  0  0  0  0  0  0  0  0  0
    9.2394    1.2877    2.3609 H   0  0  0  0  0  0  0  0  0  0  0  0
    4.9226    6.3414    0.9823 H   0  0  0  0  0  0  0  0  0  0  0  0
    3.7383    4.5593   -0.1716 H   0  0  0  0  0  0  0  0  0  0  0  0
    3.4646    4.1564    1.5687 H   0  0  0  0  0  0  0  0  0  0  0  0
  1  2  1  0  0  0  0
  1 30  1  0  0  0  0
  1 31  1  0  0  0  0
  1 32  1  0  0  0  0
  2  3  1  0  0  0  0
  2  7  2  0  0  0  0
  3  4  2  0  0  0  0
  3 33  1  0  0  0  0
  4  5  1  0  0  0  0
  4 34  1  0  0  0  0
  5  6  2  0  0  0  0
  5 14  1  0  0  0  0
  6  7  1  0  0  0  0
  6  8  1  0  0  0  0
  7 35  1  0  0  0  0
  8  9  1  0  0  0  0
  8 13  2  0  0  0  0
  9 10  2  0  0  0  0
  9 29  1  0  0  0  0
 10 11  1  0  0  0  0
 10 26  1  0  0  0  0
 11 12  2  0  0  0  0
 11 25  1  0  0  0  0
 12 13  1  0  0  0  0
 12 19  1  0  0  0  0
 13 14  1  0  0  0  0
 14 15  1  0  0  0  0
 15 16  1  0  0  0  0
 15 36  1  0  0  0  0
 15 37  1  0  0  0  0
 16 17  1  0  0  0  0
 16 38  1  0  0  0  0
 16 39  1  0  0  0  0
 17 18  1  0  0  0  0
 17 40  1  0  0  0  0
 17 41  1  0  0  0  0
 18 42  1  0  0  0  0
 19 20  1  0  0  0  0
 19 43  1  0  0  0  0
 19 44  1  0  0  0  0
 20 21  1  0  0  0  0
 20 25  2  0  0  0  0
 21 22  2  0  0  0  0
 21 45  1  0  0  0  0
 22 23  1  0  0  0  0
 22 46  1  0  0  0  0
 23 24  2  0  0  0  0
 23 47  1  0  0  0  0
 24 25  1  0  0  0  0
 24 48  1  0  0  0  0
 26 27  2  0  0  0  0
 26 28  1  0  0  0  0
 28 29  1  0  0  0  0
 28 49  1  0  0  0  0
 29 50  1  0  0  0  0
 29 51  1  0  0  0  0
M  END
$$$$
