CHEMBL3219512
 OpenBabel04072215363D

 54 56  0  0  0  0  0  0  0  0999 V2000
    0.5716    2.8991   -3.4068 C   0  0  0  0  0  0  0  0  0  0  0  0
    1.9731    2.8598   -3.5102 O   0  0  0  0  0  0  0  0  0  0  0  0
    2.5049    1.6825   -2.9239 C   0  0  0  0  0  0  0  0  0  0  0  0
    4.0109    1.7539   -3.1599 C   0  0  0  0  0  0  0  0  0  0  0  0
    4.7860    0.6900   -2.6828 O   0  0  0  0  0  0  0  0  0  0  0  0
    6.1547    0.6766   -2.8563 C   0  0  0  0  0  0  0  0  0  0  0  0
    6.7797    1.7435   -3.5529 C   0  0  0  0  0  0  0  0  0  0  0  0
    8.1477    1.7877   -3.7656 C   0  0  0  0  0  0  0  0  0  0  0  0
    8.6652    2.8197   -4.4793 N   0  0  0  0  0  0  0  0  0  0  0  0
    9.9893    2.8872   -4.7407 C   0  0  0  0  0  0  0  0  0  0  0  0
   10.8097    1.9142   -4.2847 N   0  0  0  0  0  0  0  0  0  0  0  0
   10.3584    0.8539   -3.5574 C   0  0  0  0  0  0  0  0  0  0  0  0
   11.3087   -0.1159   -3.1046 N   0  0  0  0  0  0  0  0  0  0  0  0
   12.5659   -0.2968   -3.7606 C   0  0  0  0  0  0  0  0  0  0  0  0
   13.6802   -0.7680   -3.0528 C   0  0  0  0  0  0  0  0  0  0  0  0
   14.9152   -0.9170   -3.6886 C   0  0  0  0  0  0  0  0  0  0  0  0
   15.0518   -0.6106   -5.0575 C   0  0  0  0  0  0  0  0  0  0  0  0
   16.4393   -0.7455   -5.7999 B   0  0  0  0  0  0  0  0  0  0  0  0
   17.6183   -1.2400   -5.0901 O   0  0  0  0  0  0  0  0  0  0  0  0
   16.5626   -0.3113   -7.1941 O   0  0  0  0  0  0  0  0  0  0  0  0
   13.9314   -0.1773   -5.7728 C   0  0  0  0  0  0  0  0  0  0  0  0
   12.7056   -0.0265   -5.1364 C   0  0  0  0  0  0  0  0  0  0  0  0
    8.9766    0.7708   -3.2662 C   0  0  0  0  0  0  0  0  0  0  0  0
    8.3946   -0.2856   -2.5579 C   0  0  0  0  0  0  0  0  0  0  0  0
    7.0064   -0.3648   -2.3574 C   0  0  0  0  0  0  0  0  0  0  0  0
    6.6119   -1.4730   -1.6796 O   0  0  0  0  0  0  0  0  0  0  0  0
    5.3986   -2.1139   -1.6107 C   0  0  0  0  0  0  0  0  0  0  0  0
    5.0397   -2.8051   -2.9268 C   0  0  0  0  0  0  0  0  0  0  0  0
    3.8494   -3.5297   -2.6924 O   0  0  0  0  0  0  0  0  0  0  0  0
    3.4299   -4.1783   -3.8673 C   0  0  0  0  0  0  0  0  0  0  0  0
    0.2294    3.8702   -3.8282 H   0  0  0  0  0  0  0  0  0  0  0  0
    0.2402    2.8792   -2.3470 H   0  0  0  0  0  0  0  0  0  0  0  0
    0.0993    2.1009   -4.0183 H   0  0  0  0  0  0  0  0  0  0  0  0
    2.0998    0.7732   -3.4212 H   0  0  0  0  0  0  0  0  0  0  0  0
    2.3033    1.6654   -1.8294 H   0  0  0  0  0  0  0  0  0  0  0  0
    4.3602    2.6957   -2.6768 H   0  0  0  0  0  0  0  0  0  0  0  0
    4.1462    1.8269   -4.2625 H   0  0  0  0  0  0  0  0  0  0  0  0
    6.2174    2.5674   -3.9661 H   0  0  0  0  0  0  0  0  0  0  0  0
   10.3870    3.7075   -5.3200 H   0  0  0  0  0  0  0  0  0  0  0  0
   11.1289   -0.6385   -2.2358 H   0  0  0  0  0  0  0  0  0  0  0  0
   13.5990   -0.9899   -1.9910 H   0  0  0  0  0  0  0  0  0  0  0  0
   15.7662   -1.2545   -3.1115 H   0  0  0  0  0  0  0  0  0  0  0  0
   17.7316   -0.6331   -4.3148 H   0  0  0  0  0  0  0  0  0  0  0  0
   16.0281   -0.9631   -7.7154 H   0  0  0  0  0  0  0  0  0  0  0  0
   13.9909    0.0451   -6.8315 H   0  0  0  0  0  0  0  0  0  0  0  0
   11.8645    0.2886   -5.7377 H   0  0  0  0  0  0  0  0  0  0  0  0
    9.0052   -1.0894   -2.1702 H   0  0  0  0  0  0  0  0  0  0  0  0
    4.6010   -1.4240   -1.2741 H   0  0  0  0  0  0  0  0  0  0  0  0
    5.5081   -2.9175   -0.8481 H   0  0  0  0  0  0  0  0  0  0  0  0
    5.8703   -3.5009   -3.2047 H   0  0  0  0  0  0  0  0  0  0  0  0
    4.9015   -2.0373   -3.7143 H   0  0  0  0  0  0  0  0  0  0  0  0
    2.4616   -4.6733   -3.6471 H   0  0  0  0  0  0  0  0  0  0  0  0
    4.1441   -4.9756   -4.1709 H   0  0  0  0  0  0  0  0  0  0  0  0
    3.2410   -3.4504   -4.6856 H   0  0  0  0  0  0  0  0  0  0  0  0
  1  2  1  0  0  0  0
  1 31  1  0  0  0  0
  1 32  1  0  0  0  0
  1 33  1  0  0  0  0
  2  3  1  0  0  0  0
  3  4  1  0  0  0  0
  3 34  1  0  0  0  0
  3 35  1  0  0  0  0
  4  5  1  0  0  0  0
  4 36  1  0  0  0  0
  4 37  1  0  0  0  0
  5  6  1  0  0  0  0
  6  7  1  0  0  0  0
  6 25  2  0  0  0  0
  7  8  2  0  0  0  0
  7 38  1  0  0  0  0
  8  9  1  0  0  0  0
  8 23  1  0  0  0  0
  9 10  2  0  0  0  0
 10 11  1  0  0  0  0
 10 39  1  0  0  0  0
 11 12  2  0  0  0  0
 12 13  1  0  0  0  0
 12 23  1  0  0  0  0
 13 14  1  0  0  0  0
 13 40  1  0  0  0  0
 14 15  1  0  0  0  0
 14 22  2  0  0  0  0
 15 16  2  0  0  0  0
 15 41  1  0  0  0  0
 16 17  1  0  0  0  0
 16 42  1  0  0  0  0
 17 18  1  0  0  0  0
 17 21  2  0  0  0  0
 18 19  1  0  0  0  0
 18 20  1  0  0  0  0
 19 43  1  0  0  0  0
 20 44  1  0  0  0  0
 21 22  1  0  0  0  0
 21 45  1  0  0  0  0
 22 46  1  0  0  0  0
 23 24  2  0  0  0  0
 24 25  1  0  0  0  0
 24 47  1  0  0  0  0
 25 26  1  0  0  0  0
 26 27  1  0  0  0  0
 27 28  1  0  0  0  0
 27 48  1  0  0  0  0
 27 49  1  0  0  0  0
 28 29  1  0  0  0  0
 28 50  1  0  0  0  0
 28 51  1  0  0  0  0
 29 30  1  0  0  0  0
 30 52  1  0  0  0  0
 30 53  1  0  0  0  0
 30 54  1  0  0  0  0
M  END
$$$$
