CHEMBL185853
 OpenBabel04072215363D

 30 32  0  0  0  0  0  0  0  0999 V2000
   -1.7860   -1.5498    0.0037 C   0  0  0  0  0  0  0  0  0  0  0  0
   -0.5093   -0.7629   -0.0269 C   0  0  0  0  0  0  0  0  0  0  0  0
    0.7176   -1.4237   -0.0633 C   0  0  0  0  0  0  0  0  0  0  0  0
    1.9119   -0.6986   -0.0725 C   0  0  0  0  0  0  0  0  0  0  0  0
    1.9282    0.7021   -0.0260 C   0  0  0  0  0  0  0  0  0  0  0  0
    3.1203    1.4502    0.0800 N   0  0  0  0  0  0  0  0  0  0  0  0
    4.3500    1.0107    0.5458 C   0  0  0  0  0  0  0  0  0  0  0  0
    4.4996   -0.1570    1.0973 N   0  0  0  0  0  0  0  0  0  0  0  0
    5.7176   -0.5648    1.5630 C   0  0  0  0  0  0  0  0  0  0  0  0
    6.8216    0.1108    1.5380 N   0  0  0  0  0  0  0  0  0  0  0  0
    6.6903    1.3202    0.9801 N   0  0  0  0  0  0  0  0  0  0  0  0
    7.6956    2.2340    0.8286 C   0  0  0  0  0  0  0  0  0  0  0  0
    7.1785    3.3413    0.1943 C   0  0  0  0  0  0  0  0  0  0  0  0
    5.8026    3.0838   -0.0434 C   0  0  0  0  0  0  0  0  0  0  0  0
    5.5293    1.8290    0.4672 C   0  0  0  0  0  0  0  0  0  0  0  0
    0.6901    1.3622   -0.0165 C   0  0  0  0  0  0  0  0  0  0  0  0
   -0.5075    0.6336   -0.0199 C   0  0  0  0  0  0  0  0  0  0  0  0
   -1.7121    1.2799   -0.0044 O   0  0  0  0  0  0  0  0  0  0  0  0
   -1.5898   -2.6277    0.0277 H   0  0  0  0  0  0  0  0  0  0  0  0
   -2.3834   -1.3401   -0.8886 H   0  0  0  0  0  0  0  0  0  0  0  0
   -2.3647   -1.3024    0.8994 H   0  0  0  0  0  0  0  0  0  0  0  0
    0.7636   -2.5104   -0.0766 H   0  0  0  0  0  0  0  0  0  0  0  0
    2.8364   -1.2669   -0.1205 H   0  0  0  0  0  0  0  0  0  0  0  0
    3.0314    2.4370   -0.1105 H   0  0  0  0  0  0  0  0  0  0  0  0
    5.7393   -1.5761    2.0006 H   0  0  0  0  0  0  0  0  0  0  0  0
    8.6911    2.0062    1.1836 H   0  0  0  0  0  0  0  0  0  0  0  0
    7.7366    4.2315   -0.0697 H   0  0  0  0  0  0  0  0  0  0  0  0
    5.1064    3.7488   -0.5357 H   0  0  0  0  0  0  0  0  0  0  0  0
    0.6588    2.4466    0.0147 H   0  0  0  0  0  0  0  0  0  0  0  0
   -1.5592    2.2382   -0.0111 H   0  0  0  0  0  0  0  0  0  0  0  0
  1  2  1  0  0  0  0
  1 19  1  0  0  0  0
  1 20  1  0  0  0  0
  1 21  1  0  0  0  0
  2  3  1  0  0  0  0
  2 17  2  0  0  0  0
  3  4  2  0  0  0  0
  3 22  1  0  0  0  0
  4  5  1  0  0  0  0
  4 23  1  0  0  0  0
  5  6  1  0  0  0  0
  5 16  2  0  0  0  0
  6  7  1  0  0  0  0
  6 24  1  0  0  0  0
  7  8  2  0  0  0  0
  7 15  1  0  0  0  0
  8  9  1  0  0  0  0
  9 10  2  0  0  0  0
  9 25  1  0  0  0  0
 10 11  1  0  0  0  0
 11 12  1  0  0  0  0
 11 15  1  0  0  0  0
 12 13  2  0  0  0  0
 12 26  1  0  0  0  0
 13 14  1  0  0  0  0
 13 27  1  0  0  0  0
 14 15  2  0  0  0  0
 14 28  1  0  0  0  0
 16 17  1  0  0  0  0
 16 29  1  0  0  0  0
 17 18  1  0  0  0  0
 18 30  1  0  0  0  0
M  END
$$$$
