CHEMBL3297895
 OpenBabel04072215363D

 31 33  0  0  0  0  0  0  0  0999 V2000
    1.1695    0.2422    0.0159 C   0  0  0  0  0  0  0  0  0  0  0  0
    2.6673    0.1866    0.0005 C   0  0  0  0  0  0  0  0  0  0  0  0
    3.2209   -1.0427   -0.0053 N   0  0  0  0  0  0  0  0  0  0  0  0
    4.5693   -1.1898   -0.0237 C   0  0  0  0  0  0  0  0  0  0  0  0
    5.1369   -2.4704   -0.0406 N   0  0  0  0  0  0  0  0  0  0  0  0
    4.6195   -3.6415    0.5400 C   0  0  0  0  0  0  0  0  0  0  0  0
    5.0079   -4.8882    0.0358 C   0  0  0  0  0  0  0  0  0  0  0  0
    4.4669   -6.0681    0.5587 C   0  0  0  0  0  0  0  0  0  0  0  0
    3.5403   -6.0068    1.5973 C   0  0  0  0  0  0  0  0  0  0  0  0
    2.8698   -7.4543    2.2380 Cl  0  0  0  0  0  0  0  0  0  0  0  0
    3.1481   -4.7780    2.1146 C   0  0  0  0  0  0  0  0  0  0  0  0
    3.6782   -3.6029    1.5784 C   0  0  0  0  0  0  0  0  0  0  0  0
    5.3432   -0.0270   -0.0387 C   0  0  0  0  0  0  0  0  0  0  0  0
    6.7252    0.2987   -0.0397 C   0  0  0  0  0  0  0  0  0  0  0  0
    6.7960    1.6740   -0.0108 C   0  0  0  0  0  0  0  0  0  0  0  0
    7.9220    2.6278    0.0162 C   0  0  0  0  0  0  0  0  0  0  0  0
    5.5436    2.2115    0.0003 O   0  0  0  0  0  0  0  0  0  0  0  0
    4.6557    1.1756   -0.0149 C   0  0  0  0  0  0  0  0  0  0  0  0
    3.3273    1.3524    0.0026 N   0  0  0  0  0  0  0  0  0  0  0  0
    0.7396   -0.7649    0.0152 H   0  0  0  0  0  0  0  0  0  0  0  0
    0.8042    0.7720   -0.8688 H   0  0  0  0  0  0  0  0  0  0  0  0
    0.8234    0.7623    0.9140 H   0  0  0  0  0  0  0  0  0  0  0  0
    6.1351   -2.4941   -0.1939 H   0  0  0  0  0  0  0  0  0  0  0  0
    5.7087   -4.9504   -0.7919 H   0  0  0  0  0  0  0  0  0  0  0  0
    4.7626   -7.0273    0.1427 H   0  0  0  0  0  0  0  0  0  0  0  0
    2.4280   -4.7170    2.9261 H   0  0  0  0  0  0  0  0  0  0  0  0
    3.3584   -2.6537    1.9961 H   0  0  0  0  0  0  0  0  0  0  0  0
    7.5654   -0.3799   -0.0421 H   0  0  0  0  0  0  0  0  0  0  0  0
    8.8796    2.0968    0.0204 H   0  0  0  0  0  0  0  0  0  0  0  0
    7.8764    3.2523    0.9134 H   0  0  0  0  0  0  0  0  0  0  0  0
    7.8960    3.2764   -0.8638 H   0  0  0  0  0  0  0  0  0  0  0  0
  1  2  1  0  0  0  0
  1 20  1  0  0  0  0
  1 21  1  0  0  0  0
  1 22  1  0  0  0  0
  2  3  1  0  0  0  0
  2 19  2  0  0  0  0
  3  4  2  0  0  0  0
  4  5  1  0  0  0  0
  4 13  1  0  0  0  0
  5  6  1  0  0  0  0
  5 23  1  0  0  0  0
  6  7  1  0  0  0  0
  6 12  2  0  0  0  0
  7  8  2  0  0  0  0
  7 24  1  0  0  0  0
  8  9  1  0  0  0  0
  8 25  1  0  0  0  0
  9 10  1  0  0  0  0
  9 11  2  0  0  0  0
 11 12  1  0  0  0  0
 11 26  1  0  0  0  0
 12 27  1  0  0  0  0
 13 14  1  0  0  0  0
 13 18  2  0  0  0  0
 14 15  2  0  0  0  0
 14 28  1  0  0  0  0
 15 16  1  0  0  0  0
 15 17  1  0  0  0  0
 16 29  1  0  0  0  0
 16 30  1  0  0  0  0
 16 31  1  0  0  0  0
 17 18  1  0  0  0  0
 18 19  1  0  0  0  0
M  END
$$$$
