CHEMBL2018765
 OpenBabel04072215363D

 53 55  0  0  0  0  0  0  0  0999 V2000
    0.4793    2.0160   -0.2535 C   0  0  0  0  0  0  0  0  0  0  0  0
    1.9931    2.1544   -0.3677 C   0  0  0  0  0  0  0  0  0  0  0  0
    2.7376    1.7597    0.8348 N   0  0  0  0  0  0  0  0  0  0  0  0
    2.4059    0.4224    1.3502 C   0  0  0  0  0  0  0  0  0  0  0  0
    2.8664   -0.7590    0.5056 C   0  0  0  0  0  0  0  0  0  0  0  0
    4.1827    1.9961    0.6191 C   0  0  0  0  0  0  0  0  0  0  0  0
    4.9925    1.8081    1.8987 C   0  0  0  0  0  0  0  0  0  0  0  0
    6.3788    2.0630    1.7013 O   0  0  0  0  0  0  0  0  0  0  0  0
    6.9781    2.9141    2.5913 C   0  0  0  0  0  0  0  0  0  0  0  0
    7.9987    3.6765    1.9825 C   0  0  0  0  0  0  0  0  0  0  0  0
    8.6823    4.6933    2.6453 C   0  0  0  0  0  0  0  0  0  0  0  0
    9.6114    5.4048    1.9910 N   0  0  0  0  0  0  0  0  0  0  0  0
   10.1947    6.4005    2.6706 C   0  0  0  0  0  0  0  0  0  0  0  0
    9.9454    6.7423    3.9366 N   0  0  0  0  0  0  0  0  0  0  0  0
    9.0290    6.0085    4.5935 C   0  0  0  0  0  0  0  0  0  0  0  0
    8.7548    6.2999    5.9584 N   0  0  0  0  0  0  0  0  0  0  0  0
    9.1743    7.4667    6.6299 C   0  0  0  0  0  0  0  0  0  0  0  0
    8.9869    8.7335    6.0565 C   0  0  0  0  0  0  0  0  0  0  0  0
    9.4655    9.8807    6.6875 C   0  0  0  0  0  0  0  0  0  0  0  0
   10.1270    9.7648    7.9035 C   0  0  0  0  0  0  0  0  0  0  0  0
   10.6159   10.8730    8.4787 F   0  0  0  0  0  0  0  0  0  0  0  0
   10.2822    8.5199    8.5088 C   0  0  0  0  0  0  0  0  0  0  0  0
   11.0948    8.3731   10.0201 Cl  0  0  0  0  0  0  0  0  0  0  0  0
    9.7930    7.3723    7.8827 C   0  0  0  0  0  0  0  0  0  0  0  0
    8.3427    4.9530    3.9718 C   0  0  0  0  0  0  0  0  0  0  0  0
    7.3413    4.1747    4.5967 C   0  0  0  0  0  0  0  0  0  0  0  0
    6.6818    3.1299    3.9389 C   0  0  0  0  0  0  0  0  0  0  0  0
    5.7621    2.5394    4.7563 O   0  0  0  0  0  0  0  0  0  0  0  0
    5.5398    1.1391    4.6902 C   0  0  0  0  0  0  0  0  0  0  0  0
   -0.0031    2.5464   -1.0804 H   0  0  0  0  0  0  0  0  0  0  0  0
    0.1054    2.4434    0.6829 H   0  0  0  0  0  0  0  0  0  0  0  0
    0.1684    0.9680   -0.3102 H   0  0  0  0  0  0  0  0  0  0  0  0
    2.2005    3.2146   -0.5598 H   0  0  0  0  0  0  0  0  0  0  0  0
    2.3409    1.5970   -1.2448 H   0  0  0  0  0  0  0  0  0  0  0  0
    1.3256    0.3433    1.5164 H   0  0  0  0  0  0  0  0  0  0  0  0
    2.8147    0.3090    2.3622 H   0  0  0  0  0  0  0  0  0  0  0  0
    2.5960   -0.6388   -0.5462 H   0  0  0  0  0  0  0  0  0  0  0  0
    2.3926   -1.6783    0.8664 H   0  0  0  0  0  0  0  0  0  0  0  0
    3.9497   -0.8989    0.5742 H   0  0  0  0  0  0  0  0  0  0  0  0
    4.3378    3.0336    0.2936 H   0  0  0  0  0  0  0  0  0  0  0  0
    4.5856    1.3666   -0.1835 H   0  0  0  0  0  0  0  0  0  0  0  0
    4.9279    0.7609    2.2015 H   0  0  0  0  0  0  0  0  0  0  0  0
    4.5443    2.4621    2.6510 H   0  0  0  0  0  0  0  0  0  0  0  0
    8.2410    3.4937    0.9365 H   0  0  0  0  0  0  0  0  0  0  0  0
   10.9435    6.9829    2.1445 H   0  0  0  0  0  0  0  0  0  0  0  0
    8.9108    5.4594    6.5059 H   0  0  0  0  0  0  0  0  0  0  0  0
    8.4752    8.8249    5.1004 H   0  0  0  0  0  0  0  0  0  0  0  0
    9.3384   10.8555    6.2286 H   0  0  0  0  0  0  0  0  0  0  0  0
    9.9273    6.4046    8.3579 H   0  0  0  0  0  0  0  0  0  0  0  0
    7.0420    4.3993    5.6185 H   0  0  0  0  0  0  0  0  0  0  0  0
    5.5977    0.7259    5.7008 H   0  0  0  0  0  0  0  0  0  0  0  0
    6.2458    0.5991    4.0539 H   0  0  0  0  0  0  0  0  0  0  0  0
    4.5083    0.9771    4.3590 H   0  0  0  0  0  0  0  0  0  0  0  0
  1  2  1  0  0  0  0
  1 30  1  0  0  0  0
  1 31  1  0  0  0  0
  1 32  1  0  0  0  0
  2  3  1  0  0  0  0
  2 33  1  0  0  0  0
  2 34  1  0  0  0  0
  3  4  1  0  0  0  0
  3  6  1  0  0  0  0
  4  5  1  0  0  0  0
  4 35  1  0  0  0  0
  4 36  1  0  0  0  0
  5 37  1  0  0  0  0
  5 38  1  0  0  0  0
  5 39  1  0  0  0  0
  6  7  1  0  0  0  0
  6 40  1  0  0  0  0
  6 41  1  0  0  0  0
  7  8  1  0  0  0  0
  7 42  1  0  0  0  0
  7 43  1  0  0  0  0
  8  9  1  0  0  0  0
  9 10  1  0  0  0  0
  9 27  2  0  0  0  0
 10 11  2  0  0  0  0
 10 44  1  0  0  0  0
 11 12  1  0  0  0  0
 11 25  1  0  0  0  0
 12 13  2  0  0  0  0
 13 14  1  0  0  0  0
 13 45  1  0  0  0  0
 14 15  2  0  0  0  0
 15 16  1  0  0  0  0
 15 25  1  0  0  0  0
 16 17  1  0  0  0  0
 16 46  1  0  0  0  0
 17 18  1  0  0  0  0
 17 24  2  0  0  0  0
 18 19  2  0  0  0  0
 18 47  1  0  0  0  0
 19 20  1  0  0  0  0
 19 48  1  0  0  0  0
 20 21  1  0  0  0  0
 20 22  2  0  0  0  0
 22 23  1  0  0  0  0
 22 24  1  0  0  0  0
 24 49  1  0  0  0  0
 25 26  2  0  0  0  0
 26 27  1  0  0  0  0
 26 50  1  0  0  0  0
 27 28  1  0  0  0  0
 28 29  1  0  0  0  0
 29 51  1  0  0  0  0
 29 52  1  0  0  0  0
 29 53  1  0  0  0  0
M  END
$$$$
