CHEMBL2088094
 OpenBabel04072215363D

 42 44  0  0  0  0  0  0  0  0999 V2000
    5.6155    5.9920    1.6244 C   0  0  0  0  0  0  0  0  0  0  0  0
    6.0252    4.9965    0.5459 C   0  0  0  0  0  0  0  0  0  0  0  0
    5.3509    3.6420    0.7589 C   0  0  0  0  0  0  0  0  0  0  0  0
    5.7552    2.6316   -0.2577 C   0  0  0  0  0  0  0  0  0  0  0  0
    6.9718    2.0693   -0.5883 C   0  0  0  0  0  0  0  0  0  0  0  0
    6.7050    1.1810   -1.6593 C   0  0  0  0  0  0  0  0  0  0  0  0
    7.6819    0.4863   -2.2911 N   0  0  0  0  0  0  0  0  0  0  0  0
    7.6208   -0.0703   -3.5876 C   0  0  0  0  0  0  0  0  0  0  0  0
    8.1905   -1.2996   -3.7111 N   0  0  0  0  0  0  0  0  0  0  0  0
    8.1562   -1.8994   -4.9124 C   0  0  0  0  0  0  0  0  0  0  0  0
    8.6993   -3.1663   -4.9936 N   0  0  0  0  0  0  0  0  0  0  0  0
    9.2823   -3.5648   -6.2663 C   0  0  0  0  0  0  0  0  0  0  0  0
   10.7292   -3.2634   -6.4473 C   0  0  0  0  0  0  0  0  0  0  0  0
   11.5851   -2.2806   -6.0074 C   0  0  0  0  0  0  0  0  0  0  0  0
   12.8330   -2.6183   -6.5790 C   0  0  0  0  0  0  0  0  0  0  0  0
   14.1300   -1.9180   -6.4496 C   0  0  0  0  0  0  0  0  0  0  0  0
   12.7415   -3.7292   -7.3233 N   0  0  0  0  0  0  0  0  0  0  0  0
   11.4202   -4.1280   -7.2411 O   0  0  0  0  0  0  0  0  0  0  0  0
    7.6208   -1.3448   -6.0025 N   0  0  0  0  0  0  0  0  0  0  0  0
    7.0990   -0.1140   -5.8660 C   0  0  0  0  0  0  0  0  0  0  0  0
    7.0843    0.5898   -4.6859 C   0  0  0  0  0  0  0  0  0  0  0  0
    6.4998    2.3889   -4.7507 Br  0  0  0  0  0  0  0  0  0  0  0  0
    5.3977    1.1399   -1.9268 N   0  0  0  0  0  0  0  0  0  0  0  0
    4.8537    2.0406   -1.0983 N   0  0  0  0  0  0  0  0  0  0  0  0
    6.1087    6.9557    1.4628 H   0  0  0  0  0  0  0  0  0  0  0  0
    5.8979    5.6301    2.6184 H   0  0  0  0  0  0  0  0  0  0  0  0
    4.5335    6.1588    1.6153 H   0  0  0  0  0  0  0  0  0  0  0  0
    7.1163    4.8877    0.5616 H   0  0  0  0  0  0  0  0  0  0  0  0
    5.7596    5.4024   -0.4376 H   0  0  0  0  0  0  0  0  0  0  0  0
    4.2614    3.7765    0.7405 H   0  0  0  0  0  0  0  0  0  0  0  0
    5.6012    3.2558    1.7558 H   0  0  0  0  0  0  0  0  0  0  0  0
    7.9312    2.3068   -0.1522 H   0  0  0  0  0  0  0  0  0  0  0  0
    8.1831   -0.1794   -1.7109 H   0  0  0  0  0  0  0  0  0  0  0  0
    9.2534   -3.3574   -4.1703 H   0  0  0  0  0  0  0  0  0  0  0  0
    8.7285   -3.1680   -7.1266 H   0  0  0  0  0  0  0  0  0  0  0  0
    9.1589   -4.6535   -6.3358 H   0  0  0  0  0  0  0  0  0  0  0  0
   11.3437   -1.4434   -5.3691 H   0  0  0  0  0  0  0  0  0  0  0  0
   14.0445   -1.0525   -5.7849 H   0  0  0  0  0  0  0  0  0  0  0  0
   14.4760   -1.5634   -7.4258 H   0  0  0  0  0  0  0  0  0  0  0  0
   14.8900   -2.5889   -6.0365 H   0  0  0  0  0  0  0  0  0  0  0  0
    6.6976    0.3099   -6.7817 H   0  0  0  0  0  0  0  0  0  0  0  0
    3.8540    2.2035   -1.1610 H   0  0  0  0  0  0  0  0  0  0  0  0
  1  2  1  0  0  0  0
  1 25  1  0  0  0  0
  1 26  1  0  0  0  0
  1 27  1  0  0  0  0
  2  3  1  0  0  0  0
  2 28  1  0  0  0  0
  2 29  1  0  0  0  0
  3  4  1  0  0  0  0
  3 30  1  0  0  0  0
  3 31  1  0  0  0  0
  4  5  2  0  0  0  0
  4 24  1  0  0  0  0
  5  6  1  0  0  0  0
  5 32  1  0  0  0  0
  6  7  1  0  0  0  0
  6 23  2  0  0  0  0
  7  8  1  0  0  0  0
  7 33  1  0  0  0  0
  8  9  1  0  0  0  0
  8 21  2  0  0  0  0
  9 10  2  0  0  0  0
 10 11  1  0  0  0  0
 10 19  1  0  0  0  0
 11 12  1  0  0  0  0
 11 34  1  0  0  0  0
 12 13  1  0  0  0  0
 12 35  1  0  0  0  0
 12 36  1  0  0  0  0
 13 14  2  0  0  0  0
 13 18  1  0  0  0  0
 14 15  1  0  0  0  0
 14 37  1  0  0  0  0
 15 16  1  0  0  0  0
 15 17  2  0  0  0  0
 16 38  1  0  0  0  0
 16 39  1  0  0  0  0
 16 40  1  0  0  0  0
 17 18  1  0  0  0  0
 19 20  2  0  0  0  0
 20 21  1  0  0  0  0
 20 41  1  0  0  0  0
 21 22  1  0  0  0  0
 23 24  1  0  0  0  0
 24 42  1  0  0  0  0
M  END
$$$$
