CHEMBL383215
 OpenBabel04072215373D

 37 39  0  0  0  0  0  0  0  0999 V2000
    1.4174    0.6385    0.5132 O   0  0  0  0  0  0  0  0  0  0  0  0
    2.3487   -0.0446    0.0908 C   0  0  0  0  0  0  0  0  0  0  0  0
    2.7959   -1.1771    0.7597 N   0  0  0  0  0  0  0  0  0  0  0  0
    2.1803   -1.7273    1.9089 C   0  0  0  0  0  0  0  0  0  0  0  0
    0.8582   -1.4460    2.2696 C   0  0  0  0  0  0  0  0  0  0  0  0
    0.3065   -1.9583    3.4453 C   0  0  0  0  0  0  0  0  0  0  0  0
    1.0708   -2.7754    4.2735 C   0  0  0  0  0  0  0  0  0  0  0  0
    0.3398   -3.3484    5.7282 Cl  0  0  0  0  0  0  0  0  0  0  0  0
    2.3822   -3.0962    3.9046 C   0  0  0  0  0  0  0  0  0  0  0  0
    3.3909   -4.1009    4.8846 Cl  0  0  0  0  0  0  0  0  0  0  0  0
    2.9291   -2.5864    2.7167 C   0  0  0  0  0  0  0  0  0  0  0  0
    3.0580    0.3312   -1.1225 C   0  0  0  0  0  0  0  0  0  0  0  0
    4.3966   -0.5446   -1.7431 S   0  0  0  0  0  0  0  0  0  0  0  0
    4.5123    0.5677   -3.0403 C   0  0  0  0  0  0  0  0  0  0  0  0
    3.6317    1.5418   -3.0454 N   0  0  0  0  0  0  0  0  0  0  0  0
    2.7817    1.4146   -1.9546 C   0  0  0  0  0  0  0  0  0  0  0  0
    1.7056    2.4462   -1.7459 C   0  0  0  0  0  0  0  0  0  0  0  0
    1.1355    3.0459   -3.0297 C   0  0  0  0  0  0  0  0  0  0  0  0
    0.0216    4.0191   -2.7174 C   0  0  0  0  0  0  0  0  0  0  0  0
    0.3008    5.3675   -2.4832 C   0  0  0  0  0  0  0  0  0  0  0  0
   -0.7480    6.2201   -2.1725 C   0  0  0  0  0  0  0  0  0  0  0  0
   -2.0352    5.8260   -2.0727 N   0  0  0  0  0  0  0  0  0  0  0  0
   -2.2825    4.5166   -2.2881 C   0  0  0  0  0  0  0  0  0  0  0  0
   -1.3030    3.5864   -2.6051 C   0  0  0  0  0  0  0  0  0  0  0  0
    3.6929   -1.5471    0.4752 H   0  0  0  0  0  0  0  0  0  0  0  0
    0.2116   -0.8303    1.6491 H   0  0  0  0  0  0  0  0  0  0  0  0
   -0.7182   -1.7022    3.7036 H   0  0  0  0  0  0  0  0  0  0  0  0
    3.9553   -2.8352    2.4564 H   0  0  0  0  0  0  0  0  0  0  0  0
    5.2695    0.4728   -3.8089 H   0  0  0  0  0  0  0  0  0  0  0  0
    2.1120    3.2366   -1.1022 H   0  0  0  0  0  0  0  0  0  0  0  0
    0.8649    2.0006   -1.2061 H   0  0  0  0  0  0  0  0  0  0  0  0
    0.7510    2.2507   -3.6815 H   0  0  0  0  0  0  0  0  0  0  0  0
    1.9176    3.5574   -3.6036 H   0  0  0  0  0  0  0  0  0  0  0  0
    1.3141    5.7511   -2.5359 H   0  0  0  0  0  0  0  0  0  0  0  0
   -0.5724    7.2758   -1.9871 H   0  0  0  0  0  0  0  0  0  0  0  0
   -3.3240    4.2223   -2.1937 H   0  0  0  0  0  0  0  0  0  0  0  0
   -1.5743    2.5466   -2.7533 H   0  0  0  0  0  0  0  0  0  0  0  0
  1  2  2  0  0  0  0
  2  3  1  0  0  0  0
  2 12  1  0  0  0  0
  3  4  1  0  0  0  0
  3 25  1  0  0  0  0
  4  5  1  0  0  0  0
  4 11  2  0  0  0  0
  5  6  2  0  0  0  0
  5 26  1  0  0  0  0
  6  7  1  0  0  0  0
  6 27  1  0  0  0  0
  7  8  1  0  0  0  0
  7  9  2  0  0  0  0
  9 10  1  0  0  0  0
  9 11  1  0  0  0  0
 11 28  1  0  0  0  0
 12 13  1  0  0  0  0
 12 16  2  0  0  0  0
 13 14  1  0  0  0  0
 14 15  2  0  0  0  0
 14 29  1  0  0  0  0
 15 16  1  0  0  0  0
 16 17  1  0  0  0  0
 17 18  1  0  0  0  0
 17 30  1  0  0  0  0
 17 31  1  0  0  0  0
 18 19  1  0  0  0  0
 18 32  1  0  0  0  0
 18 33  1  0  0  0  0
 19 20  1  0  0  0  0
 19 24  2  0  0  0  0
 20 21  2  0  0  0  0
 20 34  1  0  0  0  0
 21 22  1  0  0  0  0
 21 35  1  0  0  0  0
 22 23  2  0  0  0  0
 23 24  1  0  0  0  0
 23 36  1  0  0  0  0
 24 37  1  0  0  0  0
M  END
$$$$
