CHEMBL3759754
 OpenBabel04072215373D

 69 73  0  0  0  0  0  0  0  0999 V2000
    2.7481   -0.4594   -1.1234 C   0  0  0  0  0  0  0  0  0  0  0  0
    2.4414   -0.1967    0.2410 O   0  0  0  0  0  0  0  0  0  0  0  0
    3.1542    0.7447    0.9222 C   0  0  0  0  0  0  0  0  0  0  0  0
    4.3538    1.2802    0.4598 C   0  0  0  0  0  0  0  0  0  0  0  0
    5.0119    2.3214    1.1544 C   0  0  0  0  0  0  0  0  0  0  0  0
    6.1523    2.9822    0.6830 C   0  0  0  0  0  0  0  0  0  0  0  0
    6.6533    2.6707   -0.6109 N   0  0  0  0  0  0  0  0  0  0  0  0
    7.5217    3.5021   -1.3463 C   0  0  0  0  0  0  0  0  0  0  0  0
    8.5168    2.9448   -2.1463 C   0  0  0  0  0  0  0  0  0  0  0  0
    9.4789    3.7652   -2.7431 C   0  0  0  0  0  0  0  0  0  0  0  0
    9.4418    5.1540   -2.5786 C   0  0  0  0  0  0  0  0  0  0  0  0
   10.4670    6.0286   -3.0035 N   0  0  0  0  0  0  0  0  0  0  0  0
   11.6648    5.6498   -3.5788 C   0  0  0  0  0  0  0  0  0  0  0  0
   11.9675    4.5157   -3.9406 O   0  0  0  0  0  0  0  0  0  0  0  0
   12.6775    6.7216   -3.7951 C   0  0  0  0  0  0  0  0  0  0  0  0
   12.7726    7.8756   -3.0044 C   0  0  0  0  0  0  0  0  0  0  0  0
   13.8030    8.7962   -3.2375 C   0  0  0  0  0  0  0  0  0  0  0  0
   14.7386    8.5602   -4.2478 C   0  0  0  0  0  0  0  0  0  0  0  0
   16.0147    9.6824   -4.5149 Cl  0  0  0  0  0  0  0  0  0  0  0  0
   14.6536    7.4123   -5.0324 C   0  0  0  0  0  0  0  0  0  0  0  0
   13.6303    6.4991   -4.8041 C   0  0  0  0  0  0  0  0  0  0  0  0
    8.3583    5.7182   -1.9051 C   0  0  0  0  0  0  0  0  0  0  0  0
    7.3979    4.8958   -1.3133 C   0  0  0  0  0  0  0  0  0  0  0  0
    6.7609    3.9416    1.4048 N   0  0  0  0  0  0  0  0  0  0  0  0
    6.2102    4.2700    2.5720 C   0  0  0  0  0  0  0  0  0  0  0  0
    5.0928    3.7483    3.0829 N   0  0  0  0  0  0  0  0  0  0  0  0
    4.4982    2.7895    2.3661 C   0  0  0  0  0  0  0  0  0  0  0  0
    3.3229    2.2274    2.8359 C   0  0  0  0  0  0  0  0  0  0  0  0
    2.6585    1.1992    2.1506 C   0  0  0  0  0  0  0  0  0  0  0  0
    1.5374    0.7523    2.8027 O   0  0  0  0  0  0  0  0  0  0  0  0
    1.2213   -0.6433    2.7353 C   0  0  0  0  0  0  0  0  0  0  0  0
    2.3512   -1.5631    3.2118 C   0  0  0  0  0  0  0  0  0  0  0  0
    2.7138   -1.2911    4.6769 C   0  0  0  0  0  0  0  0  0  0  0  0
    3.8214   -2.1267    5.1774 N   0  0  0  0  0  0  0  0  0  0  0  0
    4.0472   -1.8738    6.6232 C   0  0  0  0  0  0  0  0  0  0  0  0
    4.7206   -0.5206    6.9291 C   0  0  0  0  0  0  0  0  0  0  0  0
    5.9477   -0.3613    6.2058 O   0  0  0  0  0  0  0  0  0  0  0  0
    5.7320   -0.5144    4.7976 C   0  0  0  0  0  0  0  0  0  0  0  0
    5.1099   -1.8845    4.4864 C   0  0  0  0  0  0  0  0  0  0  0  0
    3.3281   -1.3848   -1.1903 H   0  0  0  0  0  0  0  0  0  0  0  0
    3.2671    0.3509   -1.6423 H   0  0  0  0  0  0  0  0  0  0  0  0
    1.8018   -0.6060   -1.6512 H   0  0  0  0  0  0  0  0  0  0  0  0
    4.8075    0.9095   -0.4519 H   0  0  0  0  0  0  0  0  0  0  0  0
    6.9321    1.6961   -0.6434 H   0  0  0  0  0  0  0  0  0  0  0  0
    8.6012    1.8714   -2.2746 H   0  0  0  0  0  0  0  0  0  0  0  0
   10.2641    3.2776   -3.3105 H   0  0  0  0  0  0  0  0  0  0  0  0
   10.3177    7.0077   -2.8050 H   0  0  0  0  0  0  0  0  0  0  0  0
   12.0924    8.0587   -2.1779 H   0  0  0  0  0  0  0  0  0  0  0  0
   13.8850    9.6856   -2.6165 H   0  0  0  0  0  0  0  0  0  0  0  0
   15.3896    7.2161   -5.8090 H   0  0  0  0  0  0  0  0  0  0  0  0
   13.5832    5.5909   -5.4042 H   0  0  0  0  0  0  0  0  0  0  0  0
    8.2569    6.7915   -1.7839 H   0  0  0  0  0  0  0  0  0  0  0  0
    6.5745    5.3546   -0.7712 H   0  0  0  0  0  0  0  0  0  0  0  0
    6.7150    5.0347    3.1526 H   0  0  0  0  0  0  0  0  0  0  0  0
    2.9105    2.5934    3.7744 H   0  0  0  0  0  0  0  0  0  0  0  0
    0.8618   -0.9124    1.7383 H   0  0  0  0  0  0  0  0  0  0  0  0
    0.3576   -0.7872    3.3957 H   0  0  0  0  0  0  0  0  0  0  0  0
    3.2254   -1.4165    2.5742 H   0  0  0  0  0  0  0  0  0  0  0  0
    2.0426   -2.6076    3.0914 H   0  0  0  0  0  0  0  0  0  0  0  0
    1.8205   -1.5154    5.2751 H   0  0  0  0  0  0  0  0  0  0  0  0
    2.9201   -0.2261    4.8203 H   0  0  0  0  0  0  0  0  0  0  0  0
    4.6976   -2.6754    6.9969 H   0  0  0  0  0  0  0  0  0  0  0  0
    3.1072   -1.9616    7.1806 H   0  0  0  0  0  0  0  0  0  0  0  0
    4.9615   -0.4660    7.9956 H   0  0  0  0  0  0  0  0  0  0  0  0
    4.0590    0.3230    6.7023 H   0  0  0  0  0  0  0  0  0  0  0  0
    6.7050   -0.4308    4.3031 H   0  0  0  0  0  0  0  0  0  0  0  0
    5.1108    0.3100    4.4329 H   0  0  0  0  0  0  0  0  0  0  0  0
    5.8083   -2.6627    4.8229 H   0  0  0  0  0  0  0  0  0  0  0  0
    5.0234   -2.0277    3.4057 H   0  0  0  0  0  0  0  0  0  0  0  0
  1  2  1  0  0  0  0
  1 40  1  0  0  0  0
  1 41  1  0  0  0  0
  1 42  1  0  0  0  0
  2  3  1  0  0  0  0
  3  4  1  0  0  0  0
  3 29  2  0  0  0  0
  4  5  2  0  0  0  0
  4 43  1  0  0  0  0
  5  6  1  0  0  0  0
  5 27  1  0  0  0  0
  6  7  1  0  0  0  0
  6 24  2  0  0  0  0
  7  8  1  0  0  0  0
  7 44  1  0  0  0  0
  8  9  1  0  0  0  0
  8 23  2  0  0  0  0
  9 10  2  0  0  0  0
  9 45  1  0  0  0  0
 10 11  1  0  0  0  0
 10 46  1  0  0  0  0
 11 12  1  0  0  0  0
 11 22  2  0  0  0  0
 12 13  1  0  0  0  0
 12 47  1  0  0  0  0
 13 14  2  0  0  0  0
 13 15  1  0  0  0  0
 15 16  1  0  0  0  0
 15 21  2  0  0  0  0
 16 17  2  0  0  0  0
 16 48  1  0  0  0  0
 17 18  1  0  0  0  0
 17 49  1  0  0  0  0
 18 19  1  0  0  0  0
 18 20  2  0  0  0  0
 20 21  1  0  0  0  0
 20 50  1  0  0  0  0
 21 51  1  0  0  0  0
 22 23  1  0  0  0  0
 22 52  1  0  0  0  0
 23 53  1  0  0  0  0
 24 25  1  0  0  0  0
 25 26  2  0  0  0  0
 25 54  1  0  0  0  0
 26 27  1  0  0  0  0
 27 28  2  0  0  0  0
 28 29  1  0  0  0  0
 28 55  1  0  0  0  0
 29 30  1  0  0  0  0
 30 31  1  0  0  0  0
 31 32  1  0  0  0  0
 31 56  1  0  0  0  0
 31 57  1  0  0  0  0
 32 33  1  0  0  0  0
 32 58  1  0  0  0  0
 32 59  1  0  0  0  0
 33 34  1  0  0  0  0
 33 60  1  0  0  0  0
 33 61  1  0  0  0  0
 34 35  1  0  0  0  0
 34 39  1  0  0  0  0
 35 36  1  0  0  0  0
 35 62  1  0  0  0  0
 35 63  1  0  0  0  0
 36 37  1  0  0  0  0
 36 64  1  0  0  0  0
 36 65  1  0  0  0  0
 37 38  1  0  0  0  0
 38 39  1  0  0  0  0
 38 66  1  0  0  0  0
 38 67  1  0  0  0  0
 39 68  1  0  0  0  0
 39 69  1  0  0  0  0
M  END
$$$$
