CHEMBL3740856
 OpenBabel04072215373D

 61 65  0  0  0  0  0  0  0  0999 V2000
    4.7455   -0.2403   -1.1041 C   0  0  0  0  0  0  0  0  0  0  0  0
    6.0476   -0.4020   -1.6642 O   0  0  0  0  0  0  0  0  0  0  0  0
    6.5891   -1.6529   -1.6089 C   0  0  0  0  0  0  0  0  0  0  0  0
    5.8099   -2.8081   -1.5110 C   0  0  0  0  0  0  0  0  0  0  0  0
    6.4001   -4.0728   -1.5251 C   0  0  0  0  0  0  0  0  0  0  0  0
    7.7812   -4.2376   -1.6257 C   0  0  0  0  0  0  0  0  0  0  0  0
    8.4057   -5.4943   -1.6280 N   0  0  0  0  0  0  0  0  0  0  0  0
    7.9404   -6.7382   -1.1913 C   0  0  0  0  0  0  0  0  0  0  0  0
    8.8900   -7.6308   -0.8746 N   0  0  0  0  0  0  0  0  0  0  0  0
    8.4797   -8.7959   -0.3380 C   0  0  0  0  0  0  0  0  0  0  0  0
    7.1631   -9.1125   -0.1205 C   0  0  0  0  0  0  0  0  0  0  0  0
    6.2555   -8.1703   -0.5413 C   0  0  0  0  0  0  0  0  0  0  0  0
    4.8867   -8.2996   -0.4107 O   0  0  0  0  0  0  0  0  0  0  0  0
    4.3622   -9.5672   -0.3764 C   0  0  0  0  0  0  0  0  0  0  0  0
    3.4996   -9.8809    0.6774 C   0  0  0  0  0  0  0  0  0  0  0  0
    3.0809  -11.2055    0.8449 C   0  0  0  0  0  0  0  0  0  0  0  0
    3.4389  -12.1827   -0.1030 C   0  0  0  0  0  0  0  0  0  0  0  0
    3.0399  -13.5342   -0.0453 C   0  0  0  0  0  0  0  0  0  0  0  0
    4.2548  -14.5375   -0.1733 C   0  0  0  0  0  0  0  0  0  0  0  0
    5.4001  -14.1672    0.0830 O   0  0  0  0  0  0  0  0  0  0  0  0
    3.9135  -15.8203   -0.6222 N   0  0  0  0  0  0  0  0  0  0  0  0
    4.7459  -16.8839   -1.0563 C   0  0  0  0  0  0  0  0  0  0  0  0
    6.1399  -16.8224   -1.1358 C   0  0  0  0  0  0  0  0  0  0  0  0
    6.8841  -17.9369   -1.5876 C   0  0  0  0  0  0  0  0  0  0  0  0
    6.2371  -19.1116   -1.9605 C   0  0  0  0  0  0  0  0  0  0  0  0
    4.8537  -19.1760   -1.9031 C   0  0  0  0  0  0  0  0  0  0  0  0
    4.1175  -18.0696   -1.4581 C   0  0  0  0  0  0  0  0  0  0  0  0
    2.1180  -13.8031   -1.0169 C   0  0  0  0  0  0  0  0  0  0  0  0
    2.4118  -13.3364   -2.3073 C   0  0  0  0  0  0  0  0  0  0  0  0
    3.4495  -12.4136   -2.4752 C   0  0  0  0  0  0  0  0  0  0  0  0
    3.8996  -11.7179   -1.3394 C   0  0  0  0  0  0  0  0  0  0  0  0
    4.5341  -10.4725   -1.4188 C   0  0  0  0  0  0  0  0  0  0  0  0
    6.6315   -6.9876   -1.0552 N   0  0  0  0  0  0  0  0  0  0  0  0
    8.5546   -3.0766   -1.7681 C   0  0  0  0  0  0  0  0  0  0  0  0
    7.9809   -1.7940   -1.7367 C   0  0  0  0  0  0  0  0  0  0  0  0
    8.8963   -0.7781   -1.8715 O   0  0  0  0  0  0  0  0  0  0  0  0
    8.6016    0.4274   -1.1741 C   0  0  0  0  0  0  0  0  0  0  0  0
    4.4860    0.8209   -1.1582 H   0  0  0  0  0  0  0  0  0  0  0  0
    4.7394   -0.5368   -0.0496 H   0  0  0  0  0  0  0  0  0  0  0  0
    3.9865   -0.7860   -1.6737 H   0  0  0  0  0  0  0  0  0  0  0  0
    4.7296   -2.7730   -1.4474 H   0  0  0  0  0  0  0  0  0  0  0  0
    5.7341   -4.9273   -1.4696 H   0  0  0  0  0  0  0  0  0  0  0  0
    9.4144   -5.4928   -1.5654 H   0  0  0  0  0  0  0  0  0  0  0  0
    9.2732   -9.4863   -0.0681 H   0  0  0  0  0  0  0  0  0  0  0  0
    6.8822  -10.0448    0.3470 H   0  0  0  0  0  0  0  0  0  0  0  0
    3.1590   -9.1024    1.3561 H   0  0  0  0  0  0  0  0  0  0  0  0
    2.4197  -11.4508    1.6714 H   0  0  0  0  0  0  0  0  0  0  0  0
    2.9282  -16.0140   -0.7042 H   0  0  0  0  0  0  0  0  0  0  0  0
    6.6841  -15.9247   -0.8762 H   0  0  0  0  0  0  0  0  0  0  0  0
    7.9649  -17.8767   -1.6449 H   0  0  0  0  0  0  0  0  0  0  0  0
    6.8133  -19.9595   -2.3025 H   0  0  0  0  0  0  0  0  0  0  0  0
    4.3307  -20.0853   -2.2050 H   0  0  0  0  0  0  0  0  0  0  0  0
    3.0348  -18.1574   -1.4332 H   0  0  0  0  0  0  0  0  0  0  0  0
    1.2315  -14.3922   -0.8039 H   0  0  0  0  0  0  0  0  0  0  0  0
    1.8116  -13.6573   -3.1564 H   0  0  0  0  0  0  0  0  0  0  0  0
    3.7143  -12.0702   -3.4697 H   0  0  0  0  0  0  0  0  0  0  0  0
    5.0444  -10.1645   -2.3271 H   0  0  0  0  0  0  0  0  0  0  0  0
    9.6338   -3.1530   -1.8848 H   0  0  0  0  0  0  0  0  0  0  0  0
    9.5395    0.9803   -1.0552 H   0  0  0  0  0  0  0  0  0  0  0  0
    8.2037    0.2372   -0.1711 H   0  0  0  0  0  0  0  0  0  0  0  0
    7.9300    1.0617   -1.7589 H   0  0  0  0  0  0  0  0  0  0  0  0
  1  2  1  0  0  0  0
  1 38  1  0  0  0  0
  1 39  1  0  0  0  0
  1 40  1  0  0  0  0
  2  3  1  0  0  0  0
  3  4  1  0  0  0  0
  3 35  2  0  0  0  0
  4  5  2  0  0  0  0
  4 41  1  0  0  0  0
  5  6  1  0  0  0  0
  5 42  1  0  0  0  0
  6  7  1  0  0  0  0
  6 34  2  0  0  0  0
  7  8  1  0  0  0  0
  7 43  1  0  0  0  0
  8  9  1  0  0  0  0
  8 33  2  0  0  0  0
  9 10  2  0  0  0  0
 10 11  1  0  0  0  0
 10 44  1  0  0  0  0
 11 12  2  0  0  0  0
 11 45  1  0  0  0  0
 12 13  1  0  0  0  0
 12 33  1  0  0  0  0
 13 14  1  0  0  0  0
 14 15  1  0  0  0  0
 14 32  2  0  0  0  0
 15 16  2  0  0  0  0
 15 46  1  0  0  0  0
 16 17  1  0  0  0  0
 16 47  1  0  0  0  0
 17 18  1  0  0  0  0
 17 31  2  0  0  0  0
 18 19  1  0  0  0  0
 18 28  2  0  0  0  0
 19 20  2  0  0  0  0
 19 21  1  0  0  0  0
 21 22  1  0  0  0  0
 21 48  1  0  0  0  0
 22 23  1  0  0  0  0
 22 27  2  0  0  0  0
 23 24  2  0  0  0  0
 23 49  1  0  0  0  0
 24 25  1  0  0  0  0
 24 50  1  0  0  0  0
 25 26  2  0  0  0  0
 25 51  1  0  0  0  0
 26 27  1  0  0  0  0
 26 52  1  0  0  0  0
 27 53  1  0  0  0  0
 28 29  1  0  0  0  0
 28 54  1  0  0  0  0
 29 30  2  0  0  0  0
 29 55  1  0  0  0  0
 30 31  1  0  0  0  0
 30 56  1  0  0  0  0
 31 32  1  0  0  0  0
 32 57  1  0  0  0  0
 34 35  1  0  0  0  0
 34 58  1  0  0  0  0
 35 36  1  0  0  0  0
 36 37  1  0  0  0  0
 37 59  1  0  0  0  0
 37 60  1  0  0  0  0
 37 61  1  0  0  0  0
M  END
$$$$
