CHEMBL373272
 OpenBabel04072215373D

 48 51  0  0  0  0  0  0  0  0999 V2000
    1.2683   -5.3673    3.2076 C   0  0  0  0  0  0  0  0  0  0  0  0
   -0.0015   -4.5695    3.1975 C   0  0  0  0  0  0  0  0  0  0  0  0
   -0.7366   -4.3663    4.3673 C   0  0  0  0  0  0  0  0  0  0  0  0
   -1.8892   -3.5810    4.3444 C   0  0  0  0  0  0  0  0  0  0  0  0
   -2.3226   -2.9987    3.1512 C   0  0  0  0  0  0  0  0  0  0  0  0
   -1.6190   -3.2147    1.9596 C   0  0  0  0  0  0  0  0  0  0  0  0
   -1.9986   -2.5659    0.6487 C   0  0  0  0  0  0  0  0  0  0  0  0
   -3.4607   -2.2237    0.4664 C   0  0  0  0  0  0  0  0  0  0  0  0
   -3.8432   -1.0587    0.5724 O   0  0  0  0  0  0  0  0  0  0  0  0
   -4.2779   -3.3184    0.2080 N   0  0  0  0  0  0  0  0  0  0  0  0
   -5.6590   -3.1872   -0.0440 C   0  0  0  0  0  0  0  0  0  0  0  0
   -6.1742   -2.0803   -0.7166 C   0  0  0  0  0  0  0  0  0  0  0  0
   -7.5534   -1.8720   -0.7884 C   0  0  0  0  0  0  0  0  0  0  0  0
   -8.4530   -2.8014   -0.2517 C   0  0  0  0  0  0  0  0  0  0  0  0
   -9.9009   -2.5205   -0.2226 C   0  0  0  0  0  0  0  0  0  0  0  0
  -10.5695   -1.9944   -1.3309 C   0  0  0  0  0  0  0  0  0  0  0  0
  -10.1070   -1.6368   -2.7115 C   0  0  0  0  0  0  0  0  0  0  0  0
  -12.2274   -1.7083   -1.0057 S   0  0  0  0  0  0  0  0  0  0  0  0
  -12.1028   -2.3096    0.5686 C   0  0  0  0  0  0  0  0  0  0  0  0
  -13.2026   -2.3452    1.3381 N   0  0  0  0  0  0  0  0  0  0  0  0
  -12.9611   -2.8341    2.5495 C   0  0  0  0  0  0  0  0  0  0  0  0
  -11.7860   -3.2441    3.0351 N   0  0  0  0  0  0  0  0  0  0  0  0
  -10.6963   -3.1789    2.2467 C   0  0  0  0  0  0  0  0  0  0  0  0
   -9.5150   -3.5761    2.8608 N   0  0  0  0  0  0  0  0  0  0  0  0
  -10.8190   -2.7076    0.9123 C   0  0  0  0  0  0  0  0  0  0  0  0
   -7.9238   -3.9752    0.3050 C   0  0  0  0  0  0  0  0  0  0  0  0
   -6.5367   -4.1640    0.4215 C   0  0  0  0  0  0  0  0  0  0  0  0
   -0.4475   -3.9889    2.0031 C   0  0  0  0  0  0  0  0  0  0  0  0
    1.4632   -5.8018    4.1932 H   0  0  0  0  0  0  0  0  0  0  0  0
    2.1164   -4.7254    2.9473 H   0  0  0  0  0  0  0  0  0  0  0  0
    1.2036   -6.1878    2.4857 H   0  0  0  0  0  0  0  0  0  0  0  0
   -0.4091   -4.8012    5.3098 H   0  0  0  0  0  0  0  0  0  0  0  0
   -2.4438   -3.4085    5.2641 H   0  0  0  0  0  0  0  0  0  0  0  0
   -3.2047   -2.3607    3.1756 H   0  0  0  0  0  0  0  0  0  0  0  0
   -1.7091   -3.2122   -0.1884 H   0  0  0  0  0  0  0  0  0  0  0  0
   -1.4270   -1.6342    0.5466 H   0  0  0  0  0  0  0  0  0  0  0  0
   -3.9411   -4.2193    0.5293 H   0  0  0  0  0  0  0  0  0  0  0  0
   -5.5127   -1.3471   -1.1722 H   0  0  0  0  0  0  0  0  0  0  0  0
   -7.8990   -0.9506   -1.2505 H   0  0  0  0  0  0  0  0  0  0  0  0
   -9.1082   -2.0123   -2.9399 H   0  0  0  0  0  0  0  0  0  0  0  0
  -10.0994   -0.5469   -2.8351 H   0  0  0  0  0  0  0  0  0  0  0  0
  -10.7787   -2.0596   -3.4669 H   0  0  0  0  0  0  0  0  0  0  0  0
  -13.8091   -2.9007    3.2218 H   0  0  0  0  0  0  0  0  0  0  0  0
   -9.6793   -3.6718    3.8572 H   0  0  0  0  0  0  0  0  0  0  0  0
   -8.7123   -3.0133    2.5999 H   0  0  0  0  0  0  0  0  0  0  0  0
   -8.5844   -4.7366    0.7161 H   0  0  0  0  0  0  0  0  0  0  0  0
   -6.1701   -5.0410    0.9483 H   0  0  0  0  0  0  0  0  0  0  0  0
    0.1408   -4.1261    1.0965 H   0  0  0  0  0  0  0  0  0  0  0  0
  1  2  1  0  0  0  0
  1 29  1  0  0  0  0
  1 30  1  0  0  0  0
  1 31  1  0  0  0  0
  2  3  1  0  0  0  0
  2 28  2  0  0  0  0
  3  4  2  0  0  0  0
  3 32  1  0  0  0  0
  4  5  1  0  0  0  0
  4 33  1  0  0  0  0
  5  6  2  0  0  0  0
  5 34  1  0  0  0  0
  6  7  1  0  0  0  0
  6 28  1  0  0  0  0
  7  8  1  0  0  0  0
  7 35  1  0  0  0  0
  7 36  1  0  0  0  0
  8  9  2  0  0  0  0
  8 10  1  0  0  0  0
 10 11  1  0  0  0  0
 10 37  1  0  0  0  0
 11 12  1  0  0  0  0
 11 27  2  0  0  0  0
 12 13  2  0  0  0  0
 12 38  1  0  0  0  0
 13 14  1  0  0  0  0
 13 39  1  0  0  0  0
 14 15  1  0  0  0  0
 14 26  2  0  0  0  0
 15 16  2  0  0  0  0
 15 25  1  0  0  0  0
 16 17  1  0  0  0  0
 16 18  1  0  0  0  0
 17 40  1  0  0  0  0
 17 41  1  0  0  0  0
 17 42  1  0  0  0  0
 18 19  1  0  0  0  0
 19 20  1  0  0  0  0
 19 25  2  0  0  0  0
 20 21  2  0  0  0  0
 21 22  1  0  0  0  0
 21 43  1  0  0  0  0
 22 23  2  0  0  0  0
 23 24  1  0  0  0  0
 23 25  1  0  0  0  0
 24 44  1  0  0  0  0
 24 45  1  0  0  0  0
 26 27  1  0  0  0  0
 26 46  1  0  0  0  0
 27 47  1  0  0  0  0
 28 48  1  0  0  0  0
M  END
$$$$
