CHEMBL4291146
 OpenBabel04072215383D

 41 44  0  0  0  0  0  0  0  0999 V2000
    2.1661   -0.0201   -1.1487 C   0  0  0  0  0  0  0  0  0  0  0  0
    2.0515    0.0565    0.2669 O   0  0  0  0  0  0  0  0  0  0  0  0
    2.9015   -0.7238    1.0002 C   0  0  0  0  0  0  0  0  0  0  0  0
    3.8476   -1.6117    0.4885 C   0  0  0  0  0  0  0  0  0  0  0  0
    4.6804   -2.3348    1.3534 C   0  0  0  0  0  0  0  0  0  0  0  0
    4.5579   -2.1922    2.7422 C   0  0  0  0  0  0  0  0  0  0  0  0
    5.4927   -2.8950    3.6964 C   0  0  0  0  0  0  0  0  0  0  0  0
    5.7502   -2.2495    4.7968 N   0  0  0  0  0  0  0  0  0  0  0  0
    6.7314   -2.7248    5.6628 C   0  0  0  0  0  0  0  0  0  0  0  0
    7.9599   -3.3597    5.3653 C   0  0  0  0  0  0  0  0  0  0  0  0
    8.7083   -3.5027    6.4607 N   0  0  0  0  0  0  0  0  0  0  0  0
    7.9384   -2.9962    7.4420 N   0  0  0  0  0  0  0  0  0  0  0  0
    6.7273   -2.5256    7.0174 C   0  0  0  0  0  0  0  0  0  0  0  0
    5.7219   -1.9399    7.9279 C   0  0  0  0  0  0  0  0  0  0  0  0
    8.2894   -3.8506    4.1505 N   0  0  0  0  0  0  0  0  0  0  0  0
    7.3536   -4.6080    3.4296 C   0  0  0  0  0  0  0  0  0  0  0  0
    7.8149   -5.7856    2.9595 N   0  0  0  0  0  0  0  0  0  0  0  0
    6.9254   -6.6363    2.4275 C   0  0  0  0  0  0  0  0  0  0  0  0
    7.5653   -8.2079    1.9070 S   0  0  0  0  0  0  0  0  0  0  0  0
    6.0420   -9.0209    1.3719 C   0  0  0  0  0  0  0  0  0  0  0  0
    5.6139   -6.3831    2.3045 N   0  0  0  0  0  0  0  0  0  0  0  0
    5.1959   -5.1781    2.7433 C   0  0  0  0  0  0  0  0  0  0  0  0
    6.0297   -4.2256    3.2935 C   0  0  0  0  0  0  0  0  0  0  0  0
    3.6078   -1.2990    3.2509 C   0  0  0  0  0  0  0  0  0  0  0  0
    2.7858   -0.5738    2.3835 C   0  0  0  0  0  0  0  0  0  0  0  0
    1.4528    0.6879   -1.5815 H   0  0  0  0  0  0  0  0  0  0  0  0
    1.9042   -1.0206   -1.5081 H   0  0  0  0  0  0  0  0  0  0  0  0
    3.1673    0.2713   -1.4836 H   0  0  0  0  0  0  0  0  0  0  0  0
    3.9795   -1.7510   -0.5796 H   0  0  0  0  0  0  0  0  0  0  0  0
    5.4403   -2.9759    0.9139 H   0  0  0  0  0  0  0  0  0  0  0  0
    8.3062   -3.0071    8.3876 H   0  0  0  0  0  0  0  0  0  0  0  0
    6.0306   -2.0215    8.9749 H   0  0  0  0  0  0  0  0  0  0  0  0
    4.7657   -2.4647    7.8215 H   0  0  0  0  0  0  0  0  0  0  0  0
    5.5618   -0.8841    7.6976 H   0  0  0  0  0  0  0  0  0  0  0  0
    9.1649   -4.3664    4.1443 H   0  0  0  0  0  0  0  0  0  0  0  0
    6.2775  -10.0404    1.0545 H   0  0  0  0  0  0  0  0  0  0  0  0
    5.6022   -8.4907    0.5228 H   0  0  0  0  0  0  0  0  0  0  0  0
    5.3171   -9.0776    2.1889 H   0  0  0  0  0  0  0  0  0  0  0  0
    4.1267   -5.0098    2.6403 H   0  0  0  0  0  0  0  0  0  0  0  0
    3.5144   -1.1425    4.3236 H   0  0  0  0  0  0  0  0  0  0  0  0
    2.0622    0.1283    2.7912 H   0  0  0  0  0  0  0  0  0  0  0  0
  1  2  1  0  0  0  0
  1 26  1  0  0  0  0
  1 27  1  0  0  0  0
  1 28  1  0  0  0  0
  2  3  1  0  0  0  0
  3  4  1  0  0  0  0
  3 25  2  0  0  0  0
  4  5  2  0  0  0  0
  4 29  1  0  0  0  0
  5  6  1  0  0  0  0
  5 30  1  0  0  0  0
  6  7  1  0  0  0  0
  6 24  2  0  0  0  0
  7  8  2  0  0  0  0
  7 23  1  0  0  0  0
  8  9  1  0  0  0  0
  9 10  1  0  0  0  0
  9 13  2  0  0  0  0
 10 11  2  0  0  0  0
 10 15  1  0  0  0  0
 11 12  1  0  0  0  0
 12 13  1  0  0  0  0
 12 31  1  0  0  0  0
 13 14  1  0  0  0  0
 14 32  1  0  0  0  0
 14 33  1  0  0  0  0
 14 34  1  0  0  0  0
 15 16  1  0  0  0  0
 15 35  1  0  0  0  0
 16 17  1  0  0  0  0
 16 23  2  0  0  0  0
 17 18  2  0  0  0  0
 18 19  1  0  0  0  0
 18 21  1  0  0  0  0
 19 20  1  0  0  0  0
 20 36  1  0  0  0  0
 20 37  1  0  0  0  0
 20 38  1  0  0  0  0
 21 22  2  0  0  0  0
 22 23  1  0  0  0  0
 22 39  1  0  0  0  0
 24 25  1  0  0  0  0
 24 40  1  0  0  0  0
 25 41  1  0  0  0  0
M  END
$$$$
