CHEMBL306512
 OpenBabel04072215363D

 43 46  0  0  0  0  0  0  0  0999 V2000
    0.8945    0.0103   -0.1213 C   0  0  0  0  0  0  0  0  0  0  0  0
    2.3934    0.0463   -0.0681 C   0  0  0  0  0  0  0  0  0  0  0  0
    3.0746    1.2592   -0.0746 C   0  0  0  0  0  0  0  0  0  0  0  0
    4.4676    1.2830    0.0026 C   0  0  0  0  0  0  0  0  0  0  0  0
    5.2306    0.0951    0.0858 C   0  0  0  0  0  0  0  0  0  0  0  0
    6.6354    0.0770    0.1719 C   0  0  0  0  0  0  0  0  0  0  0  0
    7.4975    1.3156    0.2169 C   0  0  0  0  0  0  0  0  0  0  0  0
    7.6876    1.8841    1.6049 C   0  0  0  0  0  0  0  0  0  0  0  0
    8.3522    1.1483    2.5932 C   0  0  0  0  0  0  0  0  0  0  0  0
    8.5065    1.7060    3.8525 C   0  0  0  0  0  0  0  0  0  0  0  0
    8.0575    2.9333    4.1894 N   0  0  0  0  0  0  0  0  0  0  0  0
    7.4279    3.6321    3.2221 C   0  0  0  0  0  0  0  0  0  0  0  0
    7.2236    3.1605    1.9335 C   0  0  0  0  0  0  0  0  0  0  0  0
    7.3261   -1.0797    0.2597 N   0  0  0  0  0  0  0  0  0  0  0  0
    6.6681   -2.2662    0.2842 N   0  0  0  0  0  0  0  0  0  0  0  0
    5.3199   -2.3219    0.2129 C   0  0  0  0  0  0  0  0  0  0  0  0
    4.6897   -3.5990    0.2457 N   0  0  0  0  0  0  0  0  0  0  0  0
    5.2917   -4.7530    0.8002 C   0  0  0  0  0  0  0  0  0  0  0  0
    6.0389   -4.6696    1.9872 C   0  0  0  0  0  0  0  0  0  0  0  0
    6.6558   -5.7949    2.5374 C   0  0  0  0  0  0  0  0  0  0  0  0
    6.5083   -7.0276    1.9122 C   0  0  0  0  0  0  0  0  0  0  0  0
    7.2940   -8.4125    2.5626 Cl  0  0  0  0  0  0  0  0  0  0  0  0
    5.7231   -7.1454    0.7665 C   0  0  0  0  0  0  0  0  0  0  0  0
    5.1049   -6.0128    0.2188 C   0  0  0  0  0  0  0  0  0  0  0  0
    4.5495   -1.1457    0.0947 C   0  0  0  0  0  0  0  0  0  0  0  0
    3.1311   -1.1422    0.0258 C   0  0  0  0  0  0  0  0  0  0  0  0
    0.4785    1.0037   -0.3233 H   0  0  0  0  0  0  0  0  0  0  0  0
    0.4909   -0.3382    0.8343 H   0  0  0  0  0  0  0  0  0  0  0  0
    0.5587   -0.6558   -0.9222 H   0  0  0  0  0  0  0  0  0  0  0  0
    2.5304    2.1998   -0.1316 H   0  0  0  0  0  0  0  0  0  0  0  0
    4.9465    2.2581    0.0050 H   0  0  0  0  0  0  0  0  0  0  0  0
    7.1087    2.0757   -0.4707 H   0  0  0  0  0  0  0  0  0  0  0  0
    8.4918    1.0720   -0.1840 H   0  0  0  0  0  0  0  0  0  0  0  0
    8.7424    0.1543    2.3924 H   0  0  0  0  0  0  0  0  0  0  0  0
    9.0117    1.1623    4.6456 H   0  0  0  0  0  0  0  0  0  0  0  0
    7.0801    4.6175    3.5185 H   0  0  0  0  0  0  0  0  0  0  0  0
    6.7143    3.7862    1.2089 H   0  0  0  0  0  0  0  0  0  0  0  0
    4.2576   -3.7706   -0.6560 H   0  0  0  0  0  0  0  0  0  0  0  0
    6.1590   -3.7130    2.4906 H   0  0  0  0  0  0  0  0  0  0  0  0
    7.2515   -5.6929    3.4388 H   0  0  0  0  0  0  0  0  0  0  0  0
    5.5964   -8.1131    0.2880 H   0  0  0  0  0  0  0  0  0  0  0  0
    4.5036   -6.1281   -0.6790 H   0  0  0  0  0  0  0  0  0  0  0  0
    2.5867   -2.0851    0.0686 H   0  0  0  0  0  0  0  0  0  0  0  0
  1  2  1  0  0  0  0
  1 27  1  0  0  0  0
  1 28  1  0  0  0  0
  1 29  1  0  0  0  0
  2  3  1  0  0  0  0
  2 26  2  0  0  0  0
  3  4  2  0  0  0  0
  3 30  1  0  0  0  0
  4  5  1  0  0  0  0
  4 31  1  0  0  0  0
  5  6  1  0  0  0  0
  5 25  2  0  0  0  0
  6  7  1  0  0  0  0
  6 14  2  0  0  0  0
  7  8  1  0  0  0  0
  7 32  1  0  0  0  0
  7 33  1  0  0  0  0
  8  9  1  0  0  0  0
  8 13  2  0  0  0  0
  9 10  2  0  0  0  0
  9 34  1  0  0  0  0
 10 11  1  0  0  0  0
 10 35  1  0  0  0  0
 11 12  2  0  0  0  0
 12 13  1  0  0  0  0
 12 36  1  0  0  0  0
 13 37  1  0  0  0  0
 14 15  1  0  0  0  0
 15 16  2  0  0  0  0
 16 17  1  0  0  0  0
 16 25  1  0  0  0  0
 17 18  1  0  0  0  0
 17 38  1  0  0  0  0
 18 19  1  0  0  0  0
 18 24  2  0  0  0  0
 19 20  2  0  0  0  0
 19 39  1  0  0  0  0
 20 21  1  0  0  0  0
 20 40  1  0  0  0  0
 21 22  1  0  0  0  0
 21 23  2  0  0  0  0
 23 24  1  0  0  0  0
 23 41  1  0  0  0  0
 24 42  1  0  0  0  0
 25 26  1  0  0  0  0
 26 43  1  0  0  0  0
M  END
$$$$
