CHEMBL4798001
 OpenBabel04072215383D

 68 73  0  0  0  0  0  0  0  0999 V2000
    3.2355   -2.2375    1.3150 C   0  0  0  0  0  0  0  0  0  0  0  0
    4.1248   -1.2833    0.7345 O   0  0  0  0  0  0  0  0  0  0  0  0
    4.4030   -0.1803    1.4932 C   0  0  0  0  0  0  0  0  0  0  0  0
    3.9143    0.0481    2.7695 C   0  0  0  0  0  0  0  0  0  0  0  0
    4.2596    1.2129    3.4560 C   0  0  0  0  0  0  0  0  0  0  0  0
    5.0971    2.1882    2.8949 C   0  0  0  0  0  0  0  0  0  0  0  0
    5.4395    3.3928    3.5830 N   0  0  0  0  0  0  0  0  0  0  0  0
    5.1171    3.6632    4.9026 C   0  0  0  0  0  0  0  0  0  0  0  0
    4.6080    2.8091    5.6426 O   0  0  0  0  0  0  0  0  0  0  0  0
    5.3684    4.9459    5.3068 N   0  0  0  0  0  0  0  0  0  0  0  0
    5.0121    5.3977    6.5841 C   0  0  0  0  0  0  0  0  0  0  0  0
    5.1234    6.7155    6.8082 N   0  0  0  0  0  0  0  0  0  0  0  0
    4.6894    7.1259    8.0143 C   0  0  0  0  0  0  0  0  0  0  0  0
    4.9075    8.8415    8.4878 S   0  0  0  0  0  0  0  0  0  0  0  0
    6.2818    8.6098    9.5521 C   0  0  0  0  0  0  0  0  0  0  0  0
    7.5827    8.5635    9.1081 C   0  0  0  0  0  0  0  0  0  0  0  0
    8.3593    8.3933   10.2175 N   0  0  0  0  0  0  0  0  0  0  0  0
    7.5879    7.8338   11.2099 C   0  0  0  0  0  0  0  0  0  0  0  0
    7.9409    7.0602   12.3193 C   0  0  0  0  0  0  0  0  0  0  0  0
    6.9196    6.7219   13.2102 C   0  0  0  0  0  0  0  0  0  0  0  0
    5.6353    7.2420   13.0551 C   0  0  0  0  0  0  0  0  0  0  0  0
    5.2974    7.9999   11.9238 C   0  0  0  0  0  0  0  0  0  0  0  0
    6.2720    8.2062   10.9244 C   0  0  0  0  0  0  0  0  0  0  0  0
    4.1526    6.2903    8.9645 C   0  0  0  0  0  0  0  0  0  0  0  0
    4.1387    4.9534    8.6819 C   0  0  0  0  0  0  0  0  0  0  0  0
    3.6126    4.0690    9.5943 N   0  0  0  0  0  0  0  0  0  0  0  0
    3.1720    2.7409    9.1489 C   0  0  0  0  0  0  0  0  0  0  0  0
    1.9822    2.3168   10.0520 C   0  0  0  0  0  0  0  0  0  0  0  0
    2.3185    2.4414   11.4831 N   0  0  0  0  0  0  0  0  0  0  0  0
    2.0891    1.4513   12.4059 C   0  0  0  0  0  0  0  0  0  0  0  0
    1.0604    0.5241   12.2522 C   0  0  0  0  0  0  0  0  0  0  0  0
    0.8669   -0.4751   13.2044 C   0  0  0  0  0  0  0  0  0  0  0  0
    1.7124   -0.5374   14.2973 C   0  0  0  0  0  0  0  0  0  0  0  0
    2.7053    0.4139   14.3959 C   0  0  0  0  0  0  0  0  0  0  0  0
    2.8957    1.3968   13.4873 N   0  0  0  0  0  0  0  0  0  0  0  0
    2.9840    3.6827   11.9152 C   0  0  0  0  0  0  0  0  0  0  0  0
    4.1381    4.0524   10.9672 C   0  0  0  0  0  0  0  0  0  0  0  0
    4.5585    4.5270    7.4963 N   0  0  0  0  0  0  0  0  0  0  0  0
    5.5909    1.9546    1.6144 C   0  0  0  0  0  0  0  0  0  0  0  0
    5.2450    0.7780    0.9202 C   0  0  0  0  0  0  0  0  0  0  0  0
    3.1423   -3.0810    0.6254 H   0  0  0  0  0  0  0  0  0  0  0  0
    2.2364   -1.8086    1.4556 H   0  0  0  0  0  0  0  0  0  0  0  0
    3.6285   -2.6302    2.2600 H   0  0  0  0  0  0  0  0  0  0  0  0
    3.2609   -0.6505    3.2809 H   0  0  0  0  0  0  0  0  0  0  0  0
    3.8221    1.3092    4.4429 H   0  0  0  0  0  0  0  0  0  0  0  0
    6.0403    4.0511    3.1039 H   0  0  0  0  0  0  0  0  0  0  0  0
    5.6445    5.6703    4.6669 H   0  0  0  0  0  0  0  0  0  0  0  0
    8.0106    8.6623    8.1193 H   0  0  0  0  0  0  0  0  0  0  0  0
    9.3517    8.5735   10.2781 H   0  0  0  0  0  0  0  0  0  0  0  0
    8.9497    6.6821   12.4521 H   0  0  0  0  0  0  0  0  0  0  0  0
    7.1366    6.0570   14.0439 H   0  0  0  0  0  0  0  0  0  0  0  0
    4.8754    7.0206   13.8016 H   0  0  0  0  0  0  0  0  0  0  0  0
    4.2831    8.3667   11.7992 H   0  0  0  0  0  0  0  0  0  0  0  0
    3.7629    6.6600    9.8979 H   0  0  0  0  0  0  0  0  0  0  0  0
    3.9909    2.0140    9.2416 H   0  0  0  0  0  0  0  0  0  0  0  0
    2.8335    2.7373    8.1062 H   0  0  0  0  0  0  0  0  0  0  0  0
    1.6982    1.2961    9.7757 H   0  0  0  0  0  0  0  0  0  0  0  0
    1.1250    2.9689    9.8408 H   0  0  0  0  0  0  0  0  0  0  0  0
    0.3775    0.5870   11.4125 H   0  0  0  0  0  0  0  0  0  0  0  0
    0.0603   -1.1912   13.0866 H   0  0  0  0  0  0  0  0  0  0  0  0
    1.5970   -1.3021   15.0576 H   0  0  0  0  0  0  0  0  0  0  0  0
    3.4030    0.4166   15.2274 H   0  0  0  0  0  0  0  0  0  0  0  0
    3.3679    3.6475   12.9408 H   0  0  0  0  0  0  0  0  0  0  0  0
    2.2375    4.4876   11.8949 H   0  0  0  0  0  0  0  0  0  0  0  0
    4.9445    3.3107   11.0486 H   0  0  0  0  0  0  0  0  0  0  0  0
    4.5593    5.0142   11.2718 H   0  0  0  0  0  0  0  0  0  0  0  0
    6.2474    2.6696    1.1264 H   0  0  0  0  0  0  0  0  0  0  0  0
    5.6356    0.6087   -0.0808 H   0  0  0  0  0  0  0  0  0  0  0  0
  1  2  1  0  0  0  0
  1 41  1  0  0  0  0
  1 42  1  0  0  0  0
  1 43  1  0  0  0  0
  2  3  1  0  0  0  0
  3  4  1  0  0  0  0
  3 40  2  0  0  0  0
  4  5  2  0  0  0  0
  4 44  1  0  0  0  0
  5  6  1  0  0  0  0
  5 45  1  0  0  0  0
  6  7  1  0  0  0  0
  6 39  2  0  0  0  0
  7  8  1  0  0  0  0
  7 46  1  0  0  0  0
  8  9  2  0  0  0  0
  8 10  1  0  0  0  0
 10 11  1  0  0  0  0
 10 47  1  0  0  0  0
 11 12  1  0  0  0  0
 11 38  2  0  0  0  0
 12 13  2  0  0  0  0
 13 14  1  0  0  0  0
 13 24  1  0  0  0  0
 14 15  1  0  0  0  0
 15 16  2  0  0  0  0
 15 23  1  0  0  0  0
 16 17  1  0  0  0  0
 16 48  1  0  0  0  0
 17 18  1  0  0  0  0
 17 49  1  0  0  0  0
 18 19  1  0  0  0  0
 18 23  2  0  0  0  0
 19 20  2  0  0  0  0
 19 50  1  0  0  0  0
 20 21  1  0  0  0  0
 20 51  1  0  0  0  0
 21 22  2  0  0  0  0
 21 52  1  0  0  0  0
 22 23  1  0  0  0  0
 22 53  1  0  0  0  0
 24 25  2  0  0  0  0
 24 54  1  0  0  0  0
 25 26  1  0  0  0  0
 25 38  1  0  0  0  0
 26 27  1  0  0  0  0
 26 37  1  0  0  0  0
 27 28  1  0  0  0  0
 27 55  1  0  0  0  0
 27 56  1  0  0  0  0
 28 29  1  0  0  0  0
 28 57  1  0  0  0  0
 28 58  1  0  0  0  0
 29 30  1  0  0  0  0
 29 36  1  0  0  0  0
 30 31  1  0  0  0  0
 30 35  2  0  0  0  0
 31 32  2  0  0  0  0
 31 59  1  0  0  0  0
 32 33  1  0  0  0  0
 32 60  1  0  0  0  0
 33 34  2  0  0  0  0
 33 61  1  0  0  0  0
 34 35  1  0  0  0  0
 34 62  1  0  0  0  0
 36 37  1  0  0  0  0
 36 63  1  0  0  0  0
 36 64  1  0  0  0  0
 37 65  1  0  0  0  0
 37 66  1  0  0  0  0
 39 40  1  0  0  0  0
 39 67  1  0  0  0  0
 40 68  1  0  0  0  0
M  END
$$$$
