CHEMBL249622
 OpenBabel04072215363D

 36 39  0  0  0  0  0  0  0  0999 V2000
   -2.2376   -0.3549   -1.1994 C   0  0  0  0  0  0  0  0  0  0  0  0
   -0.9657   -0.2263   -0.4422 C   0  0  0  0  0  0  0  0  0  0  0  0
   -0.4373    1.0492   -0.2715 N   0  0  0  0  0  0  0  0  0  0  0  0
    0.7085    1.0256    0.3835 N   0  0  0  0  0  0  0  0  0  0  0  0
    1.1851   -0.5174    0.7906 S   0  0  0  0  0  0  0  0  0  0  0  0
   -0.2196   -1.2462    0.1342 C   0  0  0  0  0  0  0  0  0  0  0  0
   -0.4281   -2.6635    0.1161 C   0  0  0  0  0  0  0  0  0  0  0  0
   -1.0628   -3.2381   -0.8815 N   0  0  0  0  0  0  0  0  0  0  0  0
   -1.0078   -4.5927   -0.6535 N   0  0  0  0  0  0  0  0  0  0  0  0
   -0.3040   -4.9732    0.4760 C   0  0  0  0  0  0  0  0  0  0  0  0
   -0.0367   -6.1027    0.8282 O   0  0  0  0  0  0  0  0  0  0  0  0
    0.0274   -3.6718    1.1068 C   0  0  0  0  0  0  0  0  0  0  0  0
    0.5290   -3.4829    2.3349 C   0  0  0  0  0  0  0  0  0  0  0  0
    0.9255   -4.5229    3.2183 C   0  0  0  0  0  0  0  0  0  0  0  0
    2.2014   -5.0330    3.2675 C   0  0  0  0  0  0  0  0  0  0  0  0
    2.1875   -6.0812    4.1500 N   0  0  0  0  0  0  0  0  0  0  0  0
    3.3199   -6.9391    4.4176 C   0  0  0  0  0  0  0  0  0  0  0  0
    0.9350   -6.2231    4.7123 C   0  0  0  0  0  0  0  0  0  0  0  0
    0.4436   -7.1504    5.6449 C   0  0  0  0  0  0  0  0  0  0  0  0
   -0.8985   -7.0536    6.0238 C   0  0  0  0  0  0  0  0  0  0  0  0
   -1.7223   -6.0633    5.4973 C   0  0  0  0  0  0  0  0  0  0  0  0
   -1.2268   -5.1484    4.5621 C   0  0  0  0  0  0  0  0  0  0  0  0
    0.1217   -5.2309    4.1544 C   0  0  0  0  0  0  0  0  0  0  0  0
   -2.6278    0.6294   -1.4772 H   0  0  0  0  0  0  0  0  0  0  0  0
   -2.9965   -0.8604   -0.5944 H   0  0  0  0  0  0  0  0  0  0  0  0
   -2.0822   -0.9248   -2.1204 H   0  0  0  0  0  0  0  0  0  0  0  0
   -1.3758   -5.2542   -1.3275 H   0  0  0  0  0  0  0  0  0  0  0  0
    0.6419   -2.4829    2.7376 H   0  0  0  0  0  0  0  0  0  0  0  0
    3.0966   -4.7728    2.7179 H   0  0  0  0  0  0  0  0  0  0  0  0
    4.1769   -6.6100    3.8243 H   0  0  0  0  0  0  0  0  0  0  0  0
    3.0505   -7.9611    4.1397 H   0  0  0  0  0  0  0  0  0  0  0  0
    3.5595   -6.8746    5.4817 H   0  0  0  0  0  0  0  0  0  0  0  0
    1.0758   -7.9311    6.0545 H   0  0  0  0  0  0  0  0  0  0  0  0
   -1.3047   -7.7679    6.7362 H   0  0  0  0  0  0  0  0  0  0  0  0
   -2.7631   -6.0060    5.8056 H   0  0  0  0  0  0  0  0  0  0  0  0
   -1.8824   -4.3887    4.1483 H   0  0  0  0  0  0  0  0  0  0  0  0
  1  2  1  0  0  0  0
  1 24  1  0  0  0  0
  1 25  1  0  0  0  0
  1 26  1  0  0  0  0
  2  3  1  0  0  0  0
  2  6  2  0  0  0  0
  3  4  2  0  0  0  0
  4  5  1  0  0  0  0
  5  6  1  0  0  0  0
  6  7  1  0  0  0  0
  7  8  2  0  0  0  0
  7 12  1  0  0  0  0
  8  9  1  0  0  0  0
  9 10  1  0  0  0  0
  9 27  1  0  0  0  0
 10 11  2  0  0  0  0
 10 12  1  0  0  0  0
 12 13  2  0  0  0  0
 13 14  1  0  0  0  0
 13 28  1  0  0  0  0
 14 15  2  0  0  0  0
 14 23  1  0  0  0  0
 15 16  1  0  0  0  0
 15 29  1  0  0  0  0
 16 17  1  0  0  0  0
 16 18  1  0  0  0  0
 17 30  1  0  0  0  0
 17 31  1  0  0  0  0
 17 32  1  0  0  0  0
 18 19  1  0  0  0  0
 18 23  2  0  0  0  0
 19 20  2  0  0  0  0
 19 33  1  0  0  0  0
 20 21  1  0  0  0  0
 20 34  1  0  0  0  0
 21 22  2  0  0  0  0
 21 35  1  0  0  0  0
 22 23  1  0  0  0  0
 22 36  1  0  0  0  0
M  END
$$$$
