CHEMBL468183
 OpenBabel04072215383D

 51 55  0  0  0  0  0  0  0  0999 V2000
    3.2514   -0.3885    1.3991 C   0  0  0  0  0  0  0  0  0  0  0  0
    1.8045   -0.1773    1.7369 C   0  0  0  0  0  0  0  0  0  0  0  0
    1.4125    0.7152    2.7334 C   0  0  0  0  0  0  0  0  0  0  0  0
    0.0646    0.8808    3.0757 C   0  0  0  0  0  0  0  0  0  0  0  0
   -0.8796    0.0814    2.4217 C   0  0  0  0  0  0  0  0  0  0  0  0
   -2.2436    0.0195    2.5687 N   0  0  0  0  0  0  0  0  0  0  0  0
   -2.7595   -0.9644    1.7725 C   0  0  0  0  0  0  0  0  0  0  0  0
   -1.7179   -1.5698    1.0873 C   0  0  0  0  0  0  0  0  0  0  0  0
   -1.8948   -2.7311    0.2126 C   0  0  0  0  0  0  0  0  0  0  0  0
   -2.9301   -2.8939   -0.4341 O   0  0  0  0  0  0  0  0  0  0  0  0
   -0.8295   -3.7857    0.1485 C   0  0  0  0  0  0  0  0  0  0  0  0
   -0.0237   -4.0214    1.2820 C   0  0  0  0  0  0  0  0  0  0  0  0
    0.9987   -4.9645    1.2501 C   0  0  0  0  0  0  0  0  0  0  0  0
    1.1835   -5.7316    0.1100 C   0  0  0  0  0  0  0  0  0  0  0  0
    0.3575   -5.5436   -1.0035 C   0  0  0  0  0  0  0  0  0  0  0  0
   -0.6721   -4.5840   -1.0133 C   0  0  0  0  0  0  0  0  0  0  0  0
   -1.3907   -4.3125   -2.1959 N   0  0  0  0  0  0  0  0  0  0  0  0
   -1.7767   -5.4123   -3.0775 C   0  0  0  0  0  0  0  0  0  0  0  0
   -1.3480   -5.1820   -4.5130 C   0  0  0  0  0  0  0  0  0  0  0  0
   -2.0580   -5.8239   -5.5351 C   0  0  0  0  0  0  0  0  0  0  0  0
   -1.6445   -5.7253   -6.8675 C   0  0  0  0  0  0  0  0  0  0  0  0
   -0.5346   -4.9838   -7.2340 C   0  0  0  0  0  0  0  0  0  0  0  0
   -0.1819   -4.9395   -8.5312 N   0  0  0  0  0  0  0  0  0  0  0  0
    0.8813   -4.1812   -8.8716 C   0  0  0  0  0  0  0  0  0  0  0  0
    1.6202   -3.4442   -7.9668 C   0  0  0  0  0  0  0  0  0  0  0  0
    1.2654   -3.5129   -6.6228 C   0  0  0  0  0  0  0  0  0  0  0  0
    0.1743   -4.3017   -6.2241 C   0  0  0  0  0  0  0  0  0  0  0  0
   -0.2227   -4.4239   -4.8725 C   0  0  0  0  0  0  0  0  0  0  0  0
   -0.5291   -0.8479    1.4399 C   0  0  0  0  0  0  0  0  0  0  0  0
    0.8267   -0.9347    1.0633 C   0  0  0  0  0  0  0  0  0  0  0  0
    3.8976    0.2915    1.9600 H   0  0  0  0  0  0  0  0  0  0  0  0
    3.4231   -0.2206    0.3318 H   0  0  0  0  0  0  0  0  0  0  0  0
    3.5419   -1.4148    1.6516 H   0  0  0  0  0  0  0  0  0  0  0  0
    2.1606    1.3000    3.2637 H   0  0  0  0  0  0  0  0  0  0  0  0
   -0.2263    1.5866    3.8471 H   0  0  0  0  0  0  0  0  0  0  0  0
   -2.7775    0.5958    3.2052 H   0  0  0  0  0  0  0  0  0  0  0  0
   -3.8190   -1.1860    1.7814 H   0  0  0  0  0  0  0  0  0  0  0  0
   -0.1626   -3.4535    2.1996 H   0  0  0  0  0  0  0  0  0  0  0  0
    1.6522   -5.0888    2.1098 H   0  0  0  0  0  0  0  0  0  0  0  0
    1.9785   -6.4713    0.0752 H   0  0  0  0  0  0  0  0  0  0  0  0
    0.5599   -6.1492   -1.8830 H   0  0  0  0  0  0  0  0  0  0  0  0
   -2.2152   -3.7355   -1.9796 H   0  0  0  0  0  0  0  0  0  0  0  0
   -2.8717   -5.4858   -3.0474 H   0  0  0  0  0  0  0  0  0  0  0  0
   -1.4002   -6.3897   -2.7557 H   0  0  0  0  0  0  0  0  0  0  0  0
   -2.9405   -6.4171   -5.3054 H   0  0  0  0  0  0  0  0  0  0  0  0
   -2.2064   -6.2412   -7.6423 H   0  0  0  0  0  0  0  0  0  0  0  0
    1.1252   -4.1811   -9.9303 H   0  0  0  0  0  0  0  0  0  0  0  0
    2.4496   -2.8315   -8.3010 H   0  0  0  0  0  0  0  0  0  0  0  0
    1.8323   -2.9412   -5.8925 H   0  0  0  0  0  0  0  0  0  0  0  0
    0.3514   -3.9205   -4.0954 H   0  0  0  0  0  0  0  0  0  0  0  0
    1.1362   -1.6226    0.2778 H   0  0  0  0  0  0  0  0  0  0  0  0
  1  2  1  0  0  0  0
  1 31  1  0  0  0  0
  1 32  1  0  0  0  0
  1 33  1  0  0  0  0
  2  3  1  0  0  0  0
  2 30  2  0  0  0  0
  3  4  2  0  0  0  0
  3 34  1  0  0  0  0
  4  5  1  0  0  0  0
  4 35  1  0  0  0  0
  5  6  1  0  0  0  0
  5 29  2  0  0  0  0
  6  7  1  0  0  0  0
  6 36  1  0  0  0  0
  7  8  2  0  0  0  0
  7 37  1  0  0  0  0
  8  9  1  0  0  0  0
  8 29  1  0  0  0  0
  9 10  2  0  0  0  0
  9 11  1  0  0  0  0
 11 12  1  0  0  0  0
 11 16  2  0  0  0  0
 12 13  2  0  0  0  0
 12 38  1  0  0  0  0
 13 14  1  0  0  0  0
 13 39  1  0  0  0  0
 14 15  2  0  0  0  0
 14 40  1  0  0  0  0
 15 16  1  0  0  0  0
 15 41  1  0  0  0  0
 16 17  1  0  0  0  0
 17 18  1  0  0  0  0
 17 42  1  0  0  0  0
 18 19  1  0  0  0  0
 18 43  1  0  0  0  0
 18 44  1  0  0  0  0
 19 20  1  0  0  0  0
 19 28  2  0  0  0  0
 20 21  2  0  0  0  0
 20 45  1  0  0  0  0
 21 22  1  0  0  0  0
 21 46  1  0  0  0  0
 22 23  1  0  0  0  0
 22 27  2  0  0  0  0
 23 24  2  0  0  0  0
 24 25  1  0  0  0  0
 24 47  1  0  0  0  0
 25 26  2  0  0  0  0
 25 48  1  0  0  0  0
 26 27  1  0  0  0  0
 26 49  1  0  0  0  0
 27 28  1  0  0  0  0
 28 50  1  0  0  0  0
 29 30  1  0  0  0  0
 30 51  1  0  0  0  0
M  END
$$$$
