CHEMBL219887
 OpenBabel04072215363D

 49 52  0  0  0  0  0  0  0  0999 V2000
    2.5143   -0.3843   -0.0264 C   0  0  0  0  0  0  0  0  0  0  0  0
    1.0439   -0.2564   -0.3123 C   0  0  0  0  0  0  0  0  0  0  0  0
    0.5347    0.9484   -0.7947 C   0  0  0  0  0  0  0  0  0  0  0  0
   -0.8183    1.0767   -1.0645 C   0  0  0  0  0  0  0  0  0  0  0  0
   -1.6737   -0.0100   -0.8469 C   0  0  0  0  0  0  0  0  0  0  0  0
   -1.2006   -1.2322   -0.3541 C   0  0  0  0  0  0  0  0  0  0  0  0
   -2.0509   -2.3486   -0.1084 N   0  0  0  0  0  0  0  0  0  0  0  0
   -3.4385   -2.3221   -0.1843 C   0  0  0  0  0  0  0  0  0  0  0  0
   -4.0841   -1.3029   -0.3798 O   0  0  0  0  0  0  0  0  0  0  0  0
   -4.0181   -3.5722   -0.0273 N   0  0  0  0  0  0  0  0  0  0  0  0
   -5.4075   -3.7884   -0.2450 C   0  0  0  0  0  0  0  0  0  0  0  0
   -6.1697   -2.9400   -1.0494 C   0  0  0  0  0  0  0  0  0  0  0  0
   -7.5621   -3.0329   -1.0865 C   0  0  0  0  0  0  0  0  0  0  0  0
   -8.2515   -4.0332   -0.3902 C   0  0  0  0  0  0  0  0  0  0  0  0
   -9.7348   -4.0313   -0.3491 C   0  0  0  0  0  0  0  0  0  0  0  0
  -10.4895   -3.5742   -1.4608 C   0  0  0  0  0  0  0  0  0  0  0  0
  -11.8829   -3.4990   -1.4541 C   0  0  0  0  0  0  0  0  0  0  0  0
  -12.6263   -3.9208   -0.3501 C   0  0  0  0  0  0  0  0  0  0  0  0
  -14.1239   -3.8346   -0.3532 C   0  0  0  0  0  0  0  0  0  0  0  0
  -11.8806   -4.3974    0.7408 C   0  0  0  0  0  0  0  0  0  0  0  0
  -12.3069   -4.9164    1.9352 N   0  0  0  0  0  0  0  0  0  0  0  0
  -11.3336   -5.1795    2.8085 N   0  0  0  0  0  0  0  0  0  0  0  0
  -10.2264   -4.8512    2.1500 C   0  0  0  0  0  0  0  0  0  0  0  0
   -9.0315   -4.9120    2.7597 N   0  0  0  0  0  0  0  0  0  0  0  0
  -10.4817   -4.4260    0.8020 C   0  0  0  0  0  0  0  0  0  0  0  0
   -7.4534   -4.9998    0.2476 C   0  0  0  0  0  0  0  0  0  0  0  0
   -6.0555   -4.8616    0.3615 C   0  0  0  0  0  0  0  0  0  0  0  0
    0.1751   -1.3469   -0.0944 C   0  0  0  0  0  0  0  0  0  0  0  0
    3.0337    0.5633   -0.2172 H   0  0  0  0  0  0  0  0  0  0  0  0
    2.9603   -1.1439   -0.6720 H   0  0  0  0  0  0  0  0  0  0  0  0
    2.6756   -0.6439    1.0222 H   0  0  0  0  0  0  0  0  0  0  0  0
    1.1864    1.8035   -0.9667 H   0  0  0  0  0  0  0  0  0  0  0  0
   -1.2217    2.0117   -1.4473 H   0  0  0  0  0  0  0  0  0  0  0  0
   -2.7168    0.1550   -1.0980 H   0  0  0  0  0  0  0  0  0  0  0  0
   -1.6036   -3.2069    0.1702 H   0  0  0  0  0  0  0  0  0  0  0  0
   -3.5379   -4.2375    0.5565 H   0  0  0  0  0  0  0  0  0  0  0  0
   -5.7091   -2.1524   -1.6384 H   0  0  0  0  0  0  0  0  0  0  0  0
   -8.0916   -2.2700   -1.6521 H   0  0  0  0  0  0  0  0  0  0  0  0
   -9.9812   -3.2541   -2.3689 H   0  0  0  0  0  0  0  0  0  0  0  0
  -12.3892   -3.1056   -2.3344 H   0  0  0  0  0  0  0  0  0  0  0  0
  -14.5037   -3.4104   -1.2885 H   0  0  0  0  0  0  0  0  0  0  0  0
  -14.4636   -3.1934    0.4666 H   0  0  0  0  0  0  0  0  0  0  0  0
  -14.5590   -4.8312   -0.2310 H   0  0  0  0  0  0  0  0  0  0  0  0
  -13.2623   -5.1001    2.2157 H   0  0  0  0  0  0  0  0  0  0  0  0
   -9.0613   -5.0794    3.7589 H   0  0  0  0  0  0  0  0  0  0  0  0
   -8.3233   -4.2336    2.4973 H   0  0  0  0  0  0  0  0  0  0  0  0
   -7.9220   -5.8609    0.7210 H   0  0  0  0  0  0  0  0  0  0  0  0
   -5.5119   -5.5815    0.9667 H   0  0  0  0  0  0  0  0  0  0  0  0
    0.5818   -2.2797    0.2807 H   0  0  0  0  0  0  0  0  0  0  0  0
  1  2  1  0  0  0  0
  1 29  1  0  0  0  0
  1 30  1  0  0  0  0
  1 31  1  0  0  0  0
  2  3  1  0  0  0  0
  2 28  2  0  0  0  0
  3  4  2  0  0  0  0
  3 32  1  0  0  0  0
  4  5  1  0  0  0  0
  4 33  1  0  0  0  0
  5  6  2  0  0  0  0
  5 34  1  0  0  0  0
  6  7  1  0  0  0  0
  6 28  1  0  0  0  0
  7  8  1  0  0  0  0
  7 35  1  0  0  0  0
  8  9  2  0  0  0  0
  8 10  1  0  0  0  0
 10 11  1  0  0  0  0
 10 36  1  0  0  0  0
 11 12  1  0  0  0  0
 11 27  2  0  0  0  0
 12 13  2  0  0  0  0
 12 37  1  0  0  0  0
 13 14  1  0  0  0  0
 13 38  1  0  0  0  0
 14 15  1  0  0  0  0
 14 26  2  0  0  0  0
 15 16  1  0  0  0  0
 15 25  2  0  0  0  0
 16 17  2  0  0  0  0
 16 39  1  0  0  0  0
 17 18  1  0  0  0  0
 17 40  1  0  0  0  0
 18 19  1  0  0  0  0
 18 20  2  0  0  0  0
 19 41  1  0  0  0  0
 19 42  1  0  0  0  0
 19 43  1  0  0  0  0
 20 21  1  0  0  0  0
 20 25  1  0  0  0  0
 21 22  1  0  0  0  0
 21 44  1  0  0  0  0
 22 23  2  0  0  0  0
 23 24  1  0  0  0  0
 23 25  1  0  0  0  0
 24 45  1  0  0  0  0
 24 46  1  0  0  0  0
 26 27  1  0  0  0  0
 26 47  1  0  0  0  0
 27 48  1  0  0  0  0
 28 49  1  0  0  0  0
M  END
$$$$
