CHEMBL2403376
 OpenBabel04072215363D

 43 46  0  0  0  0  0  0  0  0999 V2000
    1.3510    0.7339    0.0265 C   0  0  0  0  0  0  0  0  0  0  0  0
    2.5608   -0.1667   -0.0332 C   0  0  0  0  0  0  0  0  0  0  0  0
    2.9149   -0.7939    0.9645 O   0  0  0  0  0  0  0  0  0  0  0  0
    3.2299   -0.2475   -1.2554 N   0  0  0  0  0  0  0  0  0  0  0  0
    2.8373    0.5823   -2.4137 C   0  0  0  0  0  0  0  0  0  0  0  0
    3.6266    0.5129   -3.7372 C   0  0  0  0  0  0  0  0  0  0  0  0
    4.7394   -0.4483   -3.6735 C   0  0  0  0  0  0  0  0  0  0  0  0
    5.6150   -0.7268   -4.6905 N   0  0  0  0  0  0  0  0  0  0  0  0
    6.5391   -1.6475   -4.2511 C   0  0  0  0  0  0  0  0  0  0  0  0
    7.5761   -2.0726   -5.1167 C   0  0  0  0  0  0  0  0  0  0  0  0
    8.7661   -1.4534   -5.1810 C   0  0  0  0  0  0  0  0  0  0  0  0
    9.1779   -0.2072   -4.4283 C   0  0  0  0  0  0  0  0  0  0  0  0
    8.5101    0.5235   -3.7230 O   0  0  0  0  0  0  0  0  0  0  0  0
   10.5103   -0.0198   -4.7458 N   0  0  0  0  0  0  0  0  0  0  0  0
   10.9589   -0.9750   -5.6463 C   0  0  0  0  0  0  0  0  0  0  0  0
   12.2276   -1.0420   -6.1871 C   0  0  0  0  0  0  0  0  0  0  0  0
   12.4775   -2.0572   -7.1050 C   0  0  0  0  0  0  0  0  0  0  0  0
   11.4702   -2.9888   -7.4644 C   0  0  0  0  0  0  0  0  0  0  0  0
   11.7828   -4.0635   -8.4846 C   0  0  0  0  0  0  0  0  0  0  0  0
   13.0551   -3.9923   -8.9701 F   0  0  0  0  0  0  0  0  0  0  0  0
   11.6469   -5.3196   -7.9816 F   0  0  0  0  0  0  0  0  0  0  0  0
   10.9678   -4.0006   -9.5733 F   0  0  0  0  0  0  0  0  0  0  0  0
   10.1842   -2.8977   -6.8775 C   0  0  0  0  0  0  0  0  0  0  0  0
    9.9404   -1.8785   -5.9684 C   0  0  0  0  0  0  0  0  0  0  0  0
    6.2214   -1.9607   -2.9429 C   0  0  0  0  0  0  0  0  0  0  0  0
    5.1038   -1.1710   -2.5647 C   0  0  0  0  0  0  0  0  0  0  0  0
    4.4515   -1.0626   -1.2391 C   0  0  0  0  0  0  0  0  0  0  0  0
    0.9682    0.7603    1.0517 H   0  0  0  0  0  0  0  0  0  0  0  0
    0.5655    0.3468   -0.6268 H   0  0  0  0  0  0  0  0  0  0  0  0
    1.6142    1.7563   -0.2522 H   0  0  0  0  0  0  0  0  0  0  0  0
    2.8317    1.6265   -2.0788 H   0  0  0  0  0  0  0  0  0  0  0  0
    1.7888    0.3372   -2.6290 H   0  0  0  0  0  0  0  0  0  0  0  0
    4.0104    1.5134   -3.9732 H   0  0  0  0  0  0  0  0  0  0  0  0
    2.9414    0.2452   -4.5509 H   0  0  0  0  0  0  0  0  0  0  0  0
    5.6132   -0.2877   -5.6020 H   0  0  0  0  0  0  0  0  0  0  0  0
    7.4006   -2.9855   -5.6776 H   0  0  0  0  0  0  0  0  0  0  0  0
   11.0477    0.7503   -4.3806 H   0  0  0  0  0  0  0  0  0  0  0  0
   13.0000   -0.3308   -5.9203 H   0  0  0  0  0  0  0  0  0  0  0  0
   13.4679   -2.1288   -7.5562 H   0  0  0  0  0  0  0  0  0  0  0  0
    9.4076   -3.6092   -7.1447 H   0  0  0  0  0  0  0  0  0  0  0  0
    6.7692   -2.6458   -2.3088 H   0  0  0  0  0  0  0  0  0  0  0  0
    5.1461   -0.6060   -0.5225 H   0  0  0  0  0  0  0  0  0  0  0  0
    4.1928   -2.0601   -0.8640 H   0  0  0  0  0  0  0  0  0  0  0  0
  1  2  1  0  0  0  0
  1 28  1  0  0  0  0
  1 29  1  0  0  0  0
  1 30  1  0  0  0  0
  2  3  2  0  0  0  0
  2  4  1  0  0  0  0
  4  5  1  0  0  0  0
  4 27  1  0  0  0  0
  5  6  1  0  0  0  0
  5 31  1  0  0  0  0
  5 32  1  0  0  0  0
  6  7  1  0  0  0  0
  6 33  1  0  0  0  0
  6 34  1  0  0  0  0
  7  8  1  0  0  0  0
  7 26  2  0  0  0  0
  8  9  1  0  0  0  0
  8 35  1  0  0  0  0
  9 10  1  0  0  0  0
  9 25  2  0  0  0  0
 10 11  2  0  0  0  0
 10 36  1  0  0  0  0
 11 12  1  0  0  0  0
 11 24  1  0  0  0  0
 12 13  2  0  0  0  0
 12 14  1  0  0  0  0
 14 15  1  0  0  0  0
 14 37  1  0  0  0  0
 15 16  1  0  0  0  0
 15 24  2  0  0  0  0
 16 17  2  0  0  0  0
 16 38  1  0  0  0  0
 17 18  1  0  0  0  0
 17 39  1  0  0  0  0
 18 19  1  0  0  0  0
 18 23  2  0  0  0  0
 19 20  1  0  0  0  0
 19 21  1  0  0  0  0
 19 22  1  0  0  0  0
 23 24  1  0  0  0  0
 23 40  1  0  0  0  0
 25 26  1  0  0  0  0
 25 41  1  0  0  0  0
 26 27  1  0  0  0  0
 27 42  1  0  0  0  0
 27 43  1  0  0  0  0
M  END
$$$$
