CHEMBL4463108
 OpenBabel04072215383D

 41 44  0  0  0  0  0  0  0  0999 V2000
    0.9144   -0.2192   -0.3670 C   0  0  0  0  0  0  0  0  0  0  0  0
    2.2985    0.0110   -0.1168 O   0  0  0  0  0  0  0  0  0  0  0  0
    2.9962   -1.0389    0.4187 C   0  0  0  0  0  0  0  0  0  0  0  0
    2.5931   -2.3593    0.2227 C   0  0  0  0  0  0  0  0  0  0  0  0
    3.3513   -3.4158    0.7147 C   0  0  0  0  0  0  0  0  0  0  0  0
    4.5389   -3.2101    1.4092 C   0  0  0  0  0  0  0  0  0  0  0  0
    5.3242   -4.2873    1.8568 N   0  0  0  0  0  0  0  0  0  0  0  0
    5.1311   -5.6579    1.6414 C   0  0  0  0  0  0  0  0  0  0  0  0
    5.5789   -6.4760    2.5959 N   0  0  0  0  0  0  0  0  0  0  0  0
    5.3676   -7.7897    2.4011 C   0  0  0  0  0  0  0  0  0  0  0  0
    4.7437   -8.3371    1.2919 C   0  0  0  0  0  0  0  0  0  0  0  0
    4.3186   -7.4314    0.3497 C   0  0  0  0  0  0  0  0  0  0  0  0
    4.5199   -6.1047    0.5289 N   0  0  0  0  0  0  0  0  0  0  0  0
    3.6400   -7.8221   -0.9003 C   0  0  0  0  0  0  0  0  0  0  0  0
    3.1906   -6.8642   -1.8358 C   0  0  0  0  0  0  0  0  0  0  0  0
    2.5758   -7.2454   -3.0289 C   0  0  0  0  0  0  0  0  0  0  0  0
    2.4066   -8.5905   -3.2659 C   0  0  0  0  0  0  0  0  0  0  0  0
    2.8081   -9.5419   -2.4050 N   0  0  0  0  0  0  0  0  0  0  0  0
    3.4187   -9.1551   -1.2502 C   0  0  0  0  0  0  0  0  0  0  0  0
    3.9343  -10.5507   -0.2868 S   0  0  0  0  0  0  0  0  0  0  0  0
    4.5806   -9.8115    1.2147 C   0  0  0  0  0  0  0  0  0  0  0  0
    4.9631   -1.8847    1.5769 C   0  0  0  0  0  0  0  0  0  0  0  0
    4.1909   -0.7980    1.1197 C   0  0  0  0  0  0  0  0  0  0  0  0
    4.7361    0.4330    1.4011 O   0  0  0  0  0  0  0  0  0  0  0  0
    3.8163    1.4970    1.6102 C   0  0  0  0  0  0  0  0  0  0  0  0
    0.4748    0.7213   -0.7100 H   0  0  0  0  0  0  0  0  0  0  0  0
    0.4020   -0.5206    0.5529 H   0  0  0  0  0  0  0  0  0  0  0  0
    0.7587   -0.9530   -1.1643 H   0  0  0  0  0  0  0  0  0  0  0  0
    1.7033   -2.6221   -0.3335 H   0  0  0  0  0  0  0  0  0  0  0  0
    2.9646   -4.4133    0.5383 H   0  0  0  0  0  0  0  0  0  0  0  0
    5.7955   -4.1439    2.7357 H   0  0  0  0  0  0  0  0  0  0  0  0
    5.7374   -8.4252    3.2032 H   0  0  0  0  0  0  0  0  0  0  0  0
    3.3355   -5.8012   -1.6495 H   0  0  0  0  0  0  0  0  0  0  0  0
    2.2490   -6.5106   -3.7565 H   0  0  0  0  0  0  0  0  0  0  0  0
    1.9408   -8.9559   -4.1772 H   0  0  0  0  0  0  0  0  0  0  0  0
    5.5645  -10.2687    1.3693 H   0  0  0  0  0  0  0  0  0  0  0  0
    3.9364  -10.1394    2.0380 H   0  0  0  0  0  0  0  0  0  0  0  0
    5.9119   -1.6747    2.0706 H   0  0  0  0  0  0  0  0  0  0  0  0
    4.3422    2.3036    2.1266 H   0  0  0  0  0  0  0  0  0  0  0  0
    2.9720    1.1967    2.2477 H   0  0  0  0  0  0  0  0  0  0  0  0
    3.4651    1.9101    0.6585 H   0  0  0  0  0  0  0  0  0  0  0  0
  1  2  1  0  0  0  0
  1 26  1  0  0  0  0
  1 27  1  0  0  0  0
  1 28  1  0  0  0  0
  2  3  1  0  0  0  0
  3  4  1  0  0  0  0
  3 23  2  0  0  0  0
  4  5  2  0  0  0  0
  4 29  1  0  0  0  0
  5  6  1  0  0  0  0
  5 30  1  0  0  0  0
  6  7  1  0  0  0  0
  6 22  2  0  0  0  0
  7  8  1  0  0  0  0
  7 31  1  0  0  0  0
  8  9  1  0  0  0  0
  8 13  2  0  0  0  0
  9 10  2  0  0  0  0
 10 11  1  0  0  0  0
 10 32  1  0  0  0  0
 11 12  2  0  0  0  0
 11 21  1  0  0  0  0
 12 13  1  0  0  0  0
 12 14  1  0  0  0  0
 14 15  1  0  0  0  0
 14 19  2  0  0  0  0
 15 16  2  0  0  0  0
 15 33  1  0  0  0  0
 16 17  1  0  0  0  0
 16 34  1  0  0  0  0
 17 18  2  0  0  0  0
 17 35  1  0  0  0  0
 18 19  1  0  0  0  0
 19 20  1  0  0  0  0
 20 21  1  0  0  0  0
 21 36  1  0  0  0  0
 21 37  1  0  0  0  0
 22 23  1  0  0  0  0
 22 38  1  0  0  0  0
 23 24  1  0  0  0  0
 24 25  1  0  0  0  0
 25 39  1  0  0  0  0
 25 40  1  0  0  0  0
 25 41  1  0  0  0  0
M  END
$$$$
