CHEMBL3109338
 OpenBabel04072215363D

 57 61  0  0  1  0  0  0  0  0999 V2000
   15.2615   -5.3575   16.4278 C   0  0  0  0  0  0  0  0  0  0  0  0
   14.4195   -4.8267   15.4153 O   0  0  0  0  0  0  0  0  0  0  0  0
   13.1164   -5.4101   15.4511 C   0  0  0  0  0  0  0  0  0  0  0  0
   12.2848   -4.7884   14.3389 C   0  0  0  0  0  0  0  0  0  0  0  0
   10.9669   -5.3305   14.3543 O   0  0  0  0  0  0  0  0  0  0  0  0
   10.0937   -4.9394   13.3554 C   0  0  0  0  0  0  0  0  0  0  0  0
   10.4590   -3.8902   12.4034 C   0  0  0  0  0  0  0  0  0  0  0  0
    9.5878   -3.5292   11.4498 C   0  0  0  0  0  0  0  0  0  0  0  0
    8.3436   -4.1541   11.3689 N   0  0  0  0  0  0  0  0  0  0  0  0
    7.2729   -3.9440   10.5129 C   0  0  0  0  0  0  0  0  0  0  0  0
    7.2005   -2.9586    9.4405 C   0  0  0  0  0  0  0  0  0  0  0  0
    5.9895   -2.3958    9.0700 C   0  0  0  0  0  0  0  0  0  0  0  0
    5.9705   -1.5107    8.0012 C   0  0  0  0  0  0  0  0  0  0  0  0
    7.1544   -1.2226    7.3163 C   0  0  0  0  0  0  0  0  0  0  0  0
    7.1311   -0.3622    6.2088 C   0  0  0  0  0  0  0  0  0  0  0  0
    8.2936   -0.1104    5.4931 C   0  0  0  0  0  0  0  0  0  0  0  0
    9.4931   -0.6784    5.9086 C   0  0  0  0  0  0  0  0  0  0  0  0
    9.5388   -1.4736    7.0660 C   0  0  0  0  0  0  0  0  0  0  0  0
   10.7223   -1.9559    7.5909 O   0  0  0  0  0  0  0  0  0  0  0  0
   11.9281   -1.2109    7.3312 C   0  0  1  0  0  0  0  0  0  0  0  0
   11.8571    0.1950    7.9499 C   0  0  0  0  0  0  0  0  0  0  0  0
   13.1681    0.9450    7.7568 C   0  0  0  0  0  0  0  0  0  0  0  0
   14.2868    0.2360    8.3743 N   0  0  0  0  0  0  0  0  0  0  0  0
   14.3979   -1.1308    7.8492 C   0  0  0  0  0  0  0  0  0  0  0  0
   13.1119   -1.9597    7.9628 C   0  0  2  0  0  0  0  0  0  0  0  0
   13.3092   -3.1339    7.2964 F   0  0  0  0  0  0  0  0  0  0  0  0
    8.3585   -1.8125    7.7612 C   0  0  0  0  0  0  0  0  0  0  0  0
    8.3626   -2.6623    8.8187 N   0  0  0  0  0  0  0  0  0  0  0  0
    6.3213   -4.8601   10.9351 C   0  0  0  0  0  0  0  0  0  0  0  0
    6.7435   -5.5919   12.0097 N   0  0  0  0  0  0  0  0  0  0  0  0
    7.9581   -5.1561   12.2604 C   0  0  0  0  0  0  0  0  0  0  0  0
    8.8869   -5.5344   13.2718 C   0  0  0  0  0  0  0  0  0  0  0  0
   16.2401   -4.8770   16.3454 H   0  0  0  0  0  0  0  0  0  0  0  0
   15.3879   -6.4356   16.2930 H   0  0  0  0  0  0  0  0  0  0  0  0
   14.8486   -5.1439   17.4179 H   0  0  0  0  0  0  0  0  0  0  0  0
   12.6449   -5.2237   16.4233 H   0  0  0  0  0  0  0  0  0  0  0  0
   13.1831   -6.4953   15.3088 H   0  0  0  0  0  0  0  0  0  0  0  0
   12.7740   -4.9935   13.3783 H   0  0  0  0  0  0  0  0  0  0  0  0
   12.2491   -3.7030   14.4940 H   0  0  0  0  0  0  0  0  0  0  0  0
   11.4190   -3.3939   12.4459 H   0  0  0  0  0  0  0  0  0  0  0  0
    9.8190   -2.7587   10.7258 H   0  0  0  0  0  0  0  0  0  0  0  0
    5.0689   -2.6304    9.5941 H   0  0  0  0  0  0  0  0  0  0  0  0
    5.0270   -1.0632    7.7016 H   0  0  0  0  0  0  0  0  0  0  0  0
    6.2012    0.1000    5.8847 H   0  0  0  0  0  0  0  0  0  0  0  0
    8.2674    0.5311    4.6157 H   0  0  0  0  0  0  0  0  0  0  0  0
   10.3783   -0.4735    5.3195 H   0  0  0  0  0  0  0  0  0  0  0  0
   12.1122   -1.1754    6.2509 H   0  0  0  0  0  0  0  0  0  0  0  0
   11.6131    0.1155    9.0179 H   0  0  0  0  0  0  0  0  0  0  0  0
   11.0477    0.7854    7.5095 H   0  0  0  0  0  0  0  0  0  0  0  0
   13.0880    1.9425    8.2027 H   0  0  0  0  0  0  0  0  0  0  0  0
   13.3648    1.0959    6.6881 H   0  0  0  0  0  0  0  0  0  0  0  0
   14.1510    0.2029    9.3857 H   0  0  0  0  0  0  0  0  0  0  0  0
   15.2082   -1.6480    8.3757 H   0  0  0  0  0  0  0  0  0  0  0  0
   14.7151   -1.0909    6.7992 H   0  0  0  0  0  0  0  0  0  0  0  0
   12.8995   -2.2115    9.0084 H   0  0  0  0  0  0  0  0  0  0  0  0
    5.3401   -5.0290   10.5097 H   0  0  0  0  0  0  0  0  0  0  0  0
    8.5937   -6.3092   13.9702 H   0  0  0  0  0  0  0  0  0  0  0  0
  1  2  1  0  0  0  0
  1 33  1  0  0  0  0
  1 34  1  0  0  0  0
  1 35  1  0  0  0  0
  2  3  1  0  0  0  0
  3  4  1  0  0  0  0
  3 36  1  0  0  0  0
  3 37  1  0  0  0  0
  4  5  1  0  0  0  0
  4 38  1  0  0  0  0
  4 39  1  0  0  0  0
  5  6  1  0  0  0  0
  6  7  1  0  0  0  0
  6 32  2  0  0  0  0
  7  8  2  0  0  0  0
  7 40  1  0  0  0  0
  8  9  1  0  0  0  0
  8 41  1  0  0  0  0
  9 10  1  0  0  0  0
  9 31  1  0  0  0  0
 10 11  1  0  0  0  0
 10 29  2  0  0  0  0
 11 12  1  0  0  0  0
 11 28  2  0  0  0  0
 12 13  2  0  0  0  0
 12 42  1  0  0  0  0
 13 14  1  0  0  0  0
 13 43  1  0  0  0  0
 14 15  1  0  0  0  0
 14 27  2  0  0  0  0
 15 16  2  0  0  0  0
 15 44  1  0  0  0  0
 16 17  1  0  0  0  0
 16 45  1  0  0  0  0
 17 18  2  0  0  0  0
 17 46  1  0  0  0  0
 18 19  1  0  0  0  0
 18 27  1  0  0  0  0
 20 21  1  0  0  0  0
 20 25  1  0  0  0  0
 20 19  1  0  0  0  0
 20 47  1  6  0  0  0
 21 22  1  0  0  0  0
 21 48  1  0  0  0  0
 21 49  1  0  0  0  0
 22 23  1  0  0  0  0
 22 50  1  0  0  0  0
 22 51  1  0  0  0  0
 23 24  1  0  0  0  0
 23 52  1  0  0  0  0
 24 25  1  0  0  0  0
 24 53  1  0  0  0  0
 24 54  1  0  0  0  0
 25 26  1  0  0  0  0
 25 55  1  1  0  0  0
 27 28  1  0  0  0  0
 29 30  1  0  0  0  0
 29 56  1  0  0  0  0
 30 31  2  0  0  0  0
 31 32  1  0  0  0  0
 32 57  1  0  0  0  0
M  END
$$$$
