CHEMBL3925254
 OpenBabel04072215373D

 66 70  0  0  0  0  0  0  0  0999 V2000
    4.3393    5.5016   -0.4441 C   0  0  0  0  0  0  0  0  0  0  0  0
    4.5193    4.1239   -0.1823 O   0  0  0  0  0  0  0  0  0  0  0  0
    5.5218    3.8427    0.6950 C   0  0  0  0  0  0  0  0  0  0  0  0
    6.3370    4.7191    1.3235 C   0  0  0  0  0  0  0  0  0  0  0  0
    7.2202    4.3242    2.3273 C   0  0  0  0  0  0  0  0  0  0  0  0
    7.9938    5.2139    3.0195 O   0  0  0  0  0  0  0  0  0  0  0  0
    7.8231    6.5765    2.6281 C   0  0  0  0  0  0  0  0  0  0  0  0
    7.3026    2.9859    2.7007 C   0  0  0  0  0  0  0  0  0  0  0  0
    6.4191    2.0437    2.1693 C   0  0  0  0  0  0  0  0  0  0  0  0
    6.4149    0.6911    2.7220 N   0  0  0  0  0  0  0  0  0  0  0  0
    5.1427   -0.1309    2.7183 C   0  0  0  0  0  0  0  0  0  0  0  0
    4.3563    0.0702    3.9361 C   0  0  0  0  0  0  0  0  0  0  0  0
    3.7578    1.3949    4.4579 C   0  0  0  0  0  0  0  0  0  0  0  0
    4.6446    0.5273    5.3371 C   0  0  0  0  0  0  0  0  0  0  0  0
    7.4074    0.1671    3.6622 C   0  0  0  0  0  0  0  0  0  0  0  0
    7.6231   -1.1825    3.5586 C   0  0  0  0  0  0  0  0  0  0  0  0
    8.5454   -1.7486    4.3328 C   0  0  0  0  0  0  0  0  0  0  0  0
    9.2093   -1.0189    5.2690 C   0  0  0  0  0  0  0  0  0  0  0  0
    9.3748   -1.9222    6.2056 N   0  0  0  0  0  0  0  0  0  0  0  0
   10.3280   -2.7699    6.0798 C   0  0  0  0  0  0  0  0  0  0  0  0
   11.1860   -2.2278    6.8481 C   0  0  0  0  0  0  0  0  0  0  0  0
   11.8807   -3.8400    7.4562 C   0  0  0  0  0  0  0  0  0  0  0  0
   13.1127   -3.9393    8.5569 C   0  0  0  0  0  0  0  0  0  0  0  0
   13.8844   -5.0503    8.7587 N   0  0  0  0  0  0  0  0  0  0  0  0
   13.5126   -5.8831    7.7640 N   0  0  0  0  0  0  0  0  0  0  0  0
   14.1162   -7.3055    7.6268 C   0  0  0  0  0  0  0  0  0  0  0  0
   14.8450   -7.5141    6.2861 C   0  0  0  0  0  0  0  0  0  0  0  0
   14.2451   -7.9388    5.3010 O   0  0  0  0  0  0  0  0  0  0  0  0
   16.1901   -7.2438    6.1023 N   0  0  0  0  0  0  0  0  0  0  0  0
   17.0687   -6.7393    7.1315 C   0  0  0  0  0  0  0  0  0  0  0  0
   16.7610   -7.4901    4.7634 C   0  0  0  0  0  0  0  0  0  0  0  0
   12.4788   -5.1165    6.9100 C   0  0  0  0  0  0  0  0  0  0  0  0
   10.8092   -0.5632    6.7678 N   0  0  0  0  0  0  0  0  0  0  0  0
    9.5120    0.1590    5.7658 C   0  0  0  0  0  0  0  0  0  0  0  0
    8.2333    0.8341    4.7703 C   0  0  0  0  0  0  0  0  0  0  0  0
    5.6446    2.5404    1.0701 C   0  0  0  0  0  0  0  0  0  0  0  0
    3.4656    5.6084   -1.0915 H   0  0  0  0  0  0  0  0  0  0  0  0
    5.2139    5.8903   -0.9712 H   0  0  0  0  0  0  0  0  0  0  0  0
    4.1487    6.0729    0.4656 H   0  0  0  0  0  0  0  0  0  0  0  0
    6.2742    5.7328    1.0047 H   0  0  0  0  0  0  0  0  0  0  0  0
    8.4788    7.1908    3.2433 H   0  0  0  0  0  0  0  0  0  0  0  0
    6.7914    6.9215    2.7860 H   0  0  0  0  0  0  0  0  0  0  0  0
    8.1128    6.7181    1.5793 H   0  0  0  0  0  0  0  0  0  0  0  0
    8.0549    2.6788    3.4217 H   0  0  0  0  0  0  0  0  0  0  0  0
    5.2940   -1.1988    2.5651 H   0  0  0  0  0  0  0  0  0  0  0  0
    4.5352    0.3277    1.9368 H   0  0  0  0  0  0  0  0  0  0  0  0
    4.0291   -0.9478    3.9969 H   0  0  0  0  0  0  0  0  0  0  0  0
    2.7145    1.5271    4.7690 H   0  0  0  0  0  0  0  0  0  0  0  0
    4.0370    2.3538    4.0254 H   0  0  0  0  0  0  0  0  0  0  0  0
    4.1431    0.0285    6.1750 H   0  0  0  0  0  0  0  0  0  0  0  0
    5.6713    0.6605    5.6237 H   0  0  0  0  0  0  0  0  0  0  0  0
    7.0917   -1.9005    2.9667 H   0  0  0  0  0  0  0  0  0  0  0  0
    8.7709   -2.8079    4.3367 H   0  0  0  0  0  0  0  0  0  0  0  0
   10.0526   -3.7389    5.7922 H   0  0  0  0  0  0  0  0  0  0  0  0
   13.3708   -3.1473    9.2449 H   0  0  0  0  0  0  0  0  0  0  0  0
   13.3096   -8.0687    7.7158 H   0  0  0  0  0  0  0  0  0  0  0  0
   14.8239   -7.5306    8.4579 H   0  0  0  0  0  0  0  0  0  0  0  0
   16.5222   -6.6040    8.0622 H   0  0  0  0  0  0  0  0  0  0  0  0
   17.4795   -5.7758    6.8207 H   0  0  0  0  0  0  0  0  0  0  0  0
   17.8804   -7.4511    7.2997 H   0  0  0  0  0  0  0  0  0  0  0  0
   16.0129   -7.8714    4.0565 H   0  0  0  0  0  0  0  0  0  0  0  0
   17.5611   -8.2332    4.8249 H   0  0  0  0  0  0  0  0  0  0  0  0
   17.1609   -6.5614    4.3468 H   0  0  0  0  0  0  0  0  0  0  0  0
   12.2908   -5.7093    6.0571 H   0  0  0  0  0  0  0  0  0  0  0  0
    7.7538    1.8885    4.8202 H   0  0  0  0  0  0  0  0  0  0  0  0
    5.0702    2.0164    0.3199 H   0  0  0  0  0  0  0  0  0  0  0  0
  1  2  1  0  0  0  0
  1 37  1  0  0  0  0
  1 38  1  0  0  0  0
  1 39  1  0  0  0  0
  2  3  1  0  0  0  0
  3  4  1  0  0  0  0
  3 36  2  0  0  0  0
  4  5  2  0  0  0  0
  4 40  1  0  0  0  0
  5  6  1  0  0  0  0
  5  8  1  0  0  0  0
  6  7  1  0  0  0  0
  7 41  1  0  0  0  0
  7 42  1  0  0  0  0
  7 43  1  0  0  0  0
  8  9  2  0  0  0  0
  8 44  1  0  0  0  0
  9 10  1  0  0  0  0
  9 36  1  0  0  0  0
 10 11  1  0  0  0  0
 10 15  1  0  0  0  0
 11 12  1  0  0  0  0
 11 45  1  0  0  0  0
 11 46  1  0  0  0  0
 12 13  1  0  0  0  0
 12 14  1  0  0  0  0
 12 47  1  0  0  0  0
 13 14  1  0  0  0  0
 13 48  1  0  0  0  0
 13 49  1  0  0  0  0
 14 50  1  0  0  0  0
 14 51  1  0  0  0  0
 15 16  1  0  0  0  0
 15 35  2  0  0  0  0
 16 17  2  0  0  0  0
 16 52  1  0  0  0  0
 17 18  1  0  0  0  0
 17 53  1  0  0  0  0
 18 19  1  0  0  0  0
 18 34  2  0  0  0  0
 19 20  2  0  0  0  0
 20 21  1  0  0  0  0
 20 54  1  0  0  0  0
 21 22  1  0  0  0  0
 21 33  2  0  0  0  0
 22 23  1  0  0  0  0
 22 32  2  0  0  0  0
 23 24  2  0  0  0  0
 23 55  1  0  0  0  0
 24 25  1  0  0  0  0
 25 26  1  0  0  0  0
 25 32  1  0  0  0  0
 26 27  1  0  0  0  0
 26 56  1  0  0  0  0
 26 57  1  0  0  0  0
 27 28  2  0  0  0  0
 27 29  1  0  0  0  0
 29 30  1  0  0  0  0
 29 31  1  0  0  0  0
 30 58  1  0  0  0  0
 30 59  1  0  0  0  0
 30 60  1  0  0  0  0
 31 61  1  0  0  0  0
 31 62  1  0  0  0  0
 31 63  1  0  0  0  0
 32 64  1  0  0  0  0
 33 34  1  0  0  0  0
 34 35  1  0  0  0  0
 35 65  1  0  0  0  0
 36 66  1  0  0  0  0
M  END
$$$$
