CHEMBL468173
 OpenBabel04072215383D

 42 45  0  0  0  0  0  0  0  0999 V2000
    3.2690   -0.8397   -0.5348 O   0  0  0  0  0  0  0  0  0  0  0  0
    2.5549   -0.1274    0.1673 C   0  0  0  0  0  0  0  0  0  0  0  0
    2.9951    1.2351    0.5940 C   0  0  0  0  0  0  0  0  0  0  0  0
    2.5378    1.7530    1.8207 C   0  0  0  0  0  0  0  0  0  0  0  0
    3.2029    2.8139    2.4276 C   0  0  0  0  0  0  0  0  0  0  0  0
    4.3175    3.3735    1.8164 C   0  0  0  0  0  0  0  0  0  0  0  0
    4.7158    2.9386    0.5471 C   0  0  0  0  0  0  0  0  0  0  0  0
    4.0450    1.9035   -0.1176 C   0  0  0  0  0  0  0  0  0  0  0  0
    4.3629    1.5288   -1.4159 N   0  0  0  0  0  0  0  0  0  0  0  0
    5.6893    1.7127   -1.9801 C   0  0  0  0  0  0  0  0  0  0  0  0
    5.8997    0.8280   -3.2000 C   0  0  0  0  0  0  0  0  0  0  0  0
    6.8316    1.2003   -4.1754 C   0  0  0  0  0  0  0  0  0  0  0  0
    7.0601    0.3394   -5.2451 C   0  0  0  0  0  0  0  0  0  0  0  0
    6.4377   -0.8420   -5.4068 N   0  0  0  0  0  0  0  0  0  0  0  0
    5.5523   -1.1916   -4.4493 C   0  0  0  0  0  0  0  0  0  0  0  0
    5.2620   -0.4062   -3.3459 C   0  0  0  0  0  0  0  0  0  0  0  0
    1.3365   -0.6909    0.7249 C   0  0  0  0  0  0  0  0  0  0  0  0
    1.3049   -1.8550    1.4716 C   0  0  0  0  0  0  0  0  0  0  0  0
   -0.0089   -2.1537    1.7007 N   0  0  0  0  0  0  0  0  0  0  0  0
   -0.7665   -1.4732    0.7751 C   0  0  0  0  0  0  0  0  0  0  0  0
   -2.0089   -1.7597    0.2083 C   0  0  0  0  0  0  0  0  0  0  0  0
   -2.5274   -0.8161   -0.6815 C   0  0  0  0  0  0  0  0  0  0  0  0
   -1.8897    0.4081   -0.8837 C   0  0  0  0  0  0  0  0  0  0  0  0
   -0.6315    0.6570   -0.3312 C   0  0  0  0  0  0  0  0  0  0  0  0
   -0.0145   -0.3608    0.4009 C   0  0  0  0  0  0  0  0  0  0  0  0
    1.7078    1.2945    2.3501 H   0  0  0  0  0  0  0  0  0  0  0  0
    2.8803    3.1700    3.4032 H   0  0  0  0  0  0  0  0  0  0  0  0
    4.8855    4.1463    2.3181 H   0  0  0  0  0  0  0  0  0  0  0  0
    5.5708    3.4219    0.0809 H   0  0  0  0  0  0  0  0  0  0  0  0
    3.6125    1.7093   -2.0790 H   0  0  0  0  0  0  0  0  0  0  0  0
    6.4649    1.4576   -1.2530 H   0  0  0  0  0  0  0  0  0  0  0  0
    5.8142    2.7623   -2.2718 H   0  0  0  0  0  0  0  0  0  0  0  0
    7.3872    2.1296   -4.1069 H   0  0  0  0  0  0  0  0  0  0  0  0
    7.7855    0.5880   -6.0144 H   0  0  0  0  0  0  0  0  0  0  0  0
    5.0680   -2.1549   -4.5888 H   0  0  0  0  0  0  0  0  0  0  0  0
    4.5513   -0.7655   -2.6084 H   0  0  0  0  0  0  0  0  0  0  0  0
    2.1023   -2.4952    1.8262 H   0  0  0  0  0  0  0  0  0  0  0  0
   -0.3516   -2.8744    2.3198 H   0  0  0  0  0  0  0  0  0  0  0  0
   -2.4969   -2.7154    0.3640 H   0  0  0  0  0  0  0  0  0  0  0  0
   -3.4370   -1.0416   -1.2361 H   0  0  0  0  0  0  0  0  0  0  0  0
   -2.3493    1.1597   -1.5166 H   0  0  0  0  0  0  0  0  0  0  0  0
   -0.1172    1.5941   -0.5366 H   0  0  0  0  0  0  0  0  0  0  0  0
  1  2  2  0  0  0  0
  2  3  1  0  0  0  0
  2 17  1  0  0  0  0
  3  4  1  0  0  0  0
  3  8  2  0  0  0  0
  4  5  2  0  0  0  0
  4 26  1  0  0  0  0
  5  6  1  0  0  0  0
  5 27  1  0  0  0  0
  6  7  2  0  0  0  0
  6 28  1  0  0  0  0
  7  8  1  0  0  0  0
  7 29  1  0  0  0  0
  8  9  1  0  0  0  0
  9 10  1  0  0  0  0
  9 30  1  0  0  0  0
 10 11  1  0  0  0  0
 10 31  1  0  0  0  0
 10 32  1  0  0  0  0
 11 12  1  0  0  0  0
 11 16  2  0  0  0  0
 12 13  2  0  0  0  0
 12 33  1  0  0  0  0
 13 14  1  0  0  0  0
 13 34  1  0  0  0  0
 14 15  2  0  0  0  0
 15 16  1  0  0  0  0
 15 35  1  0  0  0  0
 16 36  1  0  0  0  0
 17 18  2  0  0  0  0
 17 25  1  0  0  0  0
 18 19  1  0  0  0  0
 18 37  1  0  0  0  0
 19 20  1  0  0  0  0
 19 38  1  0  0  0  0
 20 21  1  0  0  0  0
 20 25  2  0  0  0  0
 21 22  2  0  0  0  0
 21 39  1  0  0  0  0
 22 23  1  0  0  0  0
 22 40  1  0  0  0  0
 23 24  2  0  0  0  0
 23 41  1  0  0  0  0
 24 25  1  0  0  0  0
 24 42  1  0  0  0  0
M  END
$$$$
