CHEMBL191265
 OpenBabel04072215363D

 64 67  0  0  0  0  0  0  0  0999 V2000
    1.8002   -4.2088    3.0001 C   0  0  0  0  0  0  0  0  0  0  0  0
    3.1528   -3.7860    2.9028 O   0  0  0  0  0  0  0  0  0  0  0  0
    3.3652   -2.4575    2.6570 C   0  0  0  0  0  0  0  0  0  0  0  0
    2.3865   -1.5069    2.3717 C   0  0  0  0  0  0  0  0  0  0  0  0
    2.7513   -0.1776    2.1533 C   0  0  0  0  0  0  0  0  0  0  0  0
    1.8896    0.8584    1.9048 O   0  0  0  0  0  0  0  0  0  0  0  0
    0.5046    0.5599    1.9612 C   0  0  0  0  0  0  0  0  0  0  0  0
    4.0931    0.1812    2.1956 C   0  0  0  0  0  0  0  0  0  0  0  0
    5.1003   -0.7458    2.5139 C   0  0  0  0  0  0  0  0  0  0  0  0
    6.5135   -0.3199    2.6562 C   0  0  0  0  0  0  0  0  0  0  0  0
    6.7996    0.9341    3.2189 C   0  0  0  0  0  0  0  0  0  0  0  0
    8.1225    1.3788    3.3353 C   0  0  0  0  0  0  0  0  0  0  0  0
    8.4708    2.6248    3.8484 C   0  0  0  0  0  0  0  0  0  0  0  0
    9.7393    3.0670    3.9253 N   0  0  0  0  0  0  0  0  0  0  0  0
   10.7208    2.2536    3.5011 C   0  0  0  0  0  0  0  0  0  0  0  0
   12.0424    2.7048    3.5171 N   0  0  0  0  0  0  0  0  0  0  0  0
   12.3867    3.6692    4.5593 C   0  0  0  0  0  0  0  0  0  0  0  0
   12.2094    3.0958    5.9738 C   0  0  0  0  0  0  0  0  0  0  0  0
   12.5797    4.1134    7.0631 C   0  0  0  0  0  0  0  0  0  0  0  0
   11.8165    5.3633    6.9863 N   0  0  0  0  0  0  0  0  0  0  0  0
   10.3615    5.1621    7.1309 C   0  0  0  0  0  0  0  0  0  0  0  0
    9.5934    6.4950    6.9949 C   0  0  0  0  0  0  0  0  0  0  0  0
   10.0084    7.5418    7.9522 N   0  0  0  0  0  0  0  0  0  0  0  0
    9.5429    7.2401    9.2998 C   0  0  0  0  0  0  0  0  0  0  0  0
   11.4800    7.6794    7.8982 C   0  0  0  0  0  0  0  0  0  0  0  0
   12.2767    6.3509    7.9813 C   0  0  0  0  0  0  0  0  0  0  0  0
   10.4495    0.9910    2.9905 C   0  0  0  0  0  0  0  0  0  0  0  0
    9.1445    0.5360    2.9010 C   0  0  0  0  0  0  0  0  0  0  0  0
    8.8987   -0.6807    2.3918 N   0  0  0  0  0  0  0  0  0  0  0  0
    7.6196   -1.0888    2.2633 C   0  0  0  0  0  0  0  0  0  0  0  0
    7.4909   -2.3789    1.7438 N   0  0  0  0  0  0  0  0  0  0  0  0
    4.7018   -2.0698    2.7341 C   0  0  0  0  0  0  0  0  0  0  0  0
    1.7988   -5.2474    3.3414 H   0  0  0  0  0  0  0  0  0  0  0  0
    1.3153   -4.1716    2.0198 H   0  0  0  0  0  0  0  0  0  0  0  0
    1.2494   -3.6172    3.7387 H   0  0  0  0  0  0  0  0  0  0  0  0
    1.3488   -1.7994    2.3294 H   0  0  0  0  0  0  0  0  0  0  0  0
   -0.0455    1.4994    1.8655 H   0  0  0  0  0  0  0  0  0  0  0  0
    0.2271    0.1106    2.9214 H   0  0  0  0  0  0  0  0  0  0  0  0
    0.2224   -0.0872    1.1249 H   0  0  0  0  0  0  0  0  0  0  0  0
    4.3488    1.2225    1.9874 H   0  0  0  0  0  0  0  0  0  0  0  0
    5.9970    1.5765    3.5749 H   0  0  0  0  0  0  0  0  0  0  0  0
    7.7193    3.3257    4.2024 H   0  0  0  0  0  0  0  0  0  0  0  0
   12.7423    1.9936    3.3400 H   0  0  0  0  0  0  0  0  0  0  0  0
   11.8132    4.5920    4.4172 H   0  0  0  0  0  0  0  0  0  0  0  0
   13.4411    3.9367    4.4212 H   0  0  0  0  0  0  0  0  0  0  0  0
   12.8327    2.2007    6.0915 H   0  0  0  0  0  0  0  0  0  0  0  0
   11.1828    2.7490    6.1361 H   0  0  0  0  0  0  0  0  0  0  0  0
   13.6477    4.3411    6.9519 H   0  0  0  0  0  0  0  0  0  0  0  0
   12.4564    3.6452    8.0479 H   0  0  0  0  0  0  0  0  0  0  0  0
   10.1333    4.6872    8.0923 H   0  0  0  0  0  0  0  0  0  0  0  0
    9.9775    4.5022    6.3490 H   0  0  0  0  0  0  0  0  0  0  0  0
    8.5156    6.3081    7.0807 H   0  0  0  0  0  0  0  0  0  0  0  0
    9.7429    6.8813    5.9773 H   0  0  0  0  0  0  0  0  0  0  0  0
    8.4512    7.1366    9.3118 H   0  0  0  0  0  0  0  0  0  0  0  0
    9.7848    8.0703    9.9788 H   0  0  0  0  0  0  0  0  0  0  0  0
    9.9733    6.3252    9.7179 H   0  0  0  0  0  0  0  0  0  0  0  0
   11.8241    8.3628    8.6887 H   0  0  0  0  0  0  0  0  0  0  0  0
   11.7350    8.1731    6.9510 H   0  0  0  0  0  0  0  0  0  0  0  0
   12.1980    5.9374    8.9955 H   0  0  0  0  0  0  0  0  0  0  0  0
   13.3348    6.5781    7.8066 H   0  0  0  0  0  0  0  0  0  0  0  0
   11.2484    0.3361    2.6634 H   0  0  0  0  0  0  0  0  0  0  0  0
    8.4055   -2.7008    1.4531 H   0  0  0  0  0  0  0  0  0  0  0  0
    6.7899   -2.4341    1.0157 H   0  0  0  0  0  0  0  0  0  0  0  0
    5.4321   -2.8334    2.9957 H   0  0  0  0  0  0  0  0  0  0  0  0
  1  2  1  0  0  0  0
  1 33  1  0  0  0  0
  1 34  1  0  0  0  0
  1 35  1  0  0  0  0
  2  3  1  0  0  0  0
  3  4  1  0  0  0  0
  3 32  2  0  0  0  0
  4  5  2  0  0  0  0
  4 36  1  0  0  0  0
  5  6  1  0  0  0  0
  5  8  1  0  0  0  0
  6  7  1  0  0  0  0
  7 37  1  0  0  0  0
  7 38  1  0  0  0  0
  7 39  1  0  0  0  0
  8  9  2  0  0  0  0
  8 40  1  0  0  0  0
  9 10  1  0  0  0  0
  9 32  1  0  0  0  0
 10 11  1  0  0  0  0
 10 30  2  0  0  0  0
 11 12  2  0  0  0  0
 11 41  1  0  0  0  0
 12 13  1  0  0  0  0
 12 28  1  0  0  0  0
 13 14  2  0  0  0  0
 13 42  1  0  0  0  0
 14 15  1  0  0  0  0
 15 16  1  0  0  0  0
 15 27  2  0  0  0  0
 16 17  1  0  0  0  0
 16 43  1  0  0  0  0
 17 18  1  0  0  0  0
 17 44  1  0  0  0  0
 17 45  1  0  0  0  0
 18 19  1  0  0  0  0
 18 46  1  0  0  0  0
 18 47  1  0  0  0  0
 19 20  1  0  0  0  0
 19 48  1  0  0  0  0
 19 49  1  0  0  0  0
 20 21  1  0  0  0  0
 20 26  1  0  0  0  0
 21 22  1  0  0  0  0
 21 50  1  0  0  0  0
 21 51  1  0  0  0  0
 22 23  1  0  0  0  0
 22 52  1  0  0  0  0
 22 53  1  0  0  0  0
 23 24  1  0  0  0  0
 23 25  1  0  0  0  0
 24 54  1  0  0  0  0
 24 55  1  0  0  0  0
 24 56  1  0  0  0  0
 25 26  1  0  0  0  0
 25 57  1  0  0  0  0
 25 58  1  0  0  0  0
 26 59  1  0  0  0  0
 26 60  1  0  0  0  0
 27 28  1  0  0  0  0
 27 61  1  0  0  0  0
 28 29  2  0  0  0  0
 29 30  1  0  0  0  0
 30 31  1  0  0  0  0
 31 62  1  0  0  0  0
 31 63  1  0  0  0  0
 32 64  1  0  0  0  0
M  END
$$$$
