CHEMBL319065
 OpenBabel04072215363D

 32 34  0  0  0  0  0  0  0  0999 V2000
    1.4235   -1.1369   -3.5913 C   0  0  0  0  0  0  0  0  0  0  0  0
    0.8601   -0.4185   -2.4050 C   0  0  0  0  0  0  0  0  0  0  0  0
   -0.3373   -0.7706   -1.8039 C   0  0  0  0  0  0  0  0  0  0  0  0
   -0.7356   -0.0604   -0.6809 C   0  0  0  0  0  0  0  0  0  0  0  0
   -0.0156    0.9347   -0.1073 N   0  0  0  0  0  0  0  0  0  0  0  0
    1.1653    1.2597   -0.6771 C   0  0  0  0  0  0  0  0  0  0  0  0
    1.9323    2.2201   -0.0058 N   0  0  0  0  0  0  0  0  0  0  0  0
    3.2776    2.3325   -0.0790 C   0  0  0  0  0  0  0  0  0  0  0  0
    4.0338    1.8439   -1.0378 N   0  0  0  0  0  0  0  0  0  0  0  0
    5.3631    2.0272   -0.7721 C   0  0  0  0  0  0  0  0  0  0  0  0
    5.6536    2.7048    0.3921 C   0  0  0  0  0  0  0  0  0  0  0  0
    6.9722    3.0454    0.9307 C   0  0  0  0  0  0  0  0  0  0  0  0
    8.0379    3.2834    0.0450 C   0  0  0  0  0  0  0  0  0  0  0  0
    9.3203    3.5601    0.5200 C   0  0  0  0  0  0  0  0  0  0  0  0
    9.5560    3.6038    1.8898 C   0  0  0  0  0  0  0  0  0  0  0  0
    8.5124    3.3680    2.7829 C   0  0  0  0  0  0  0  0  0  0  0  0
    7.2280    3.0874    2.3071 C   0  0  0  0  0  0  0  0  0  0  0  0
    4.1745    3.1374    1.1586 S   0  0  0  0  0  0  0  0  0  0  0  0
    1.5892    0.6318   -1.8474 C   0  0  0  0  0  0  0  0  0  0  0  0
    0.7582   -1.9315   -3.9385 H   0  0  0  0  0  0  0  0  0  0  0  0
    2.3850   -1.5917   -3.3254 H   0  0  0  0  0  0  0  0  0  0  0  0
    1.5836   -0.4349   -4.4161 H   0  0  0  0  0  0  0  0  0  0  0  0
   -0.9485   -1.5790   -2.1866 H   0  0  0  0  0  0  0  0  0  0  0  0
   -1.6745   -0.2914   -0.1845 H   0  0  0  0  0  0  0  0  0  0  0  0
    1.4581    2.5029    0.8410 H   0  0  0  0  0  0  0  0  0  0  0  0
    6.0885    1.6255   -1.4670 H   0  0  0  0  0  0  0  0  0  0  0  0
    7.8822    3.2568   -1.0316 H   0  0  0  0  0  0  0  0  0  0  0  0
   10.1315    3.7369   -0.1817 H   0  0  0  0  0  0  0  0  0  0  0  0
   10.5543    3.8174    2.2621 H   0  0  0  0  0  0  0  0  0  0  0  0
    8.6978    3.3929    3.8530 H   0  0  0  0  0  0  0  0  0  0  0  0
    6.4407    2.8819    3.0284 H   0  0  0  0  0  0  0  0  0  0  0  0
    2.5090    0.9255   -2.3385 H   0  0  0  0  0  0  0  0  0  0  0  0
  1  2  1  0  0  0  0
  1 20  1  0  0  0  0
  1 21  1  0  0  0  0
  1 22  1  0  0  0  0
  2  3  1  0  0  0  0
  2 19  2  0  0  0  0
  3  4  2  0  0  0  0
  3 23  1  0  0  0  0
  4  5  1  0  0  0  0
  4 24  1  0  0  0  0
  5  6  2  0  0  0  0
  6  7  1  0  0  0  0
  6 19  1  0  0  0  0
  7  8  1  0  0  0  0
  7 25  1  0  0  0  0
  8  9  2  0  0  0  0
  8 18  1  0  0  0  0
  9 10  1  0  0  0  0
 10 11  2  0  0  0  0
 10 26  1  0  0  0  0
 11 12  1  0  0  0  0
 11 18  1  0  0  0  0
 12 13  1  0  0  0  0
 12 17  2  0  0  0  0
 13 14  2  0  0  0  0
 13 27  1  0  0  0  0
 14 15  1  0  0  0  0
 14 28  1  0  0  0  0
 15 16  2  0  0  0  0
 15 29  1  0  0  0  0
 16 17  1  0  0  0  0
 16 30  1  0  0  0  0
 17 31  1  0  0  0  0
 19 32  1  0  0  0  0
M  END
$$$$
