CHEMBL3397946
 OpenBabel04072215363D

 60 62  0  0  0  0  0  0  0  0999 V2000
    1.0552   -0.1823   -0.2876 C   0  0  0  0  0  0  0  0  0  0  0  0
    2.3973   -0.1015    0.1647 O   0  0  0  0  0  0  0  0  0  0  0  0
    3.0391    1.1091    0.0763 C   0  0  0  0  0  0  0  0  0  0  0  0
    2.4522    2.2944   -0.3641 C   0  0  0  0  0  0  0  0  0  0  0  0
    3.2139    3.4525   -0.4568 C   0  0  0  0  0  0  0  0  0  0  0  0
    4.5854    3.4510   -0.1243 C   0  0  0  0  0  0  0  0  0  0  0  0
    5.3320    4.6946   -0.4658 C   0  0  0  0  0  0  0  0  0  0  0  0
    6.3599    4.5941   -1.1332 O   0  0  0  0  0  0  0  0  0  0  0  0
    4.8138    5.8844    0.0385 N   0  0  0  0  0  0  0  0  0  0  0  0
    5.4723    7.1286   -0.1112 C   0  0  0  0  0  0  0  0  0  0  0  0
    6.1677    7.4644   -1.2754 C   0  0  0  0  0  0  0  0  0  0  0  0
    6.8905    8.6637   -1.3572 C   0  0  0  0  0  0  0  0  0  0  0  0
    6.9361    9.5260   -0.2646 C   0  0  0  0  0  0  0  0  0  0  0  0
    7.6900   10.6672   -0.1991 O   0  0  0  0  0  0  0  0  0  0  0  0
    7.8634   11.3624   -1.4395 C   0  0  0  0  0  0  0  0  0  0  0  0
    8.6799   12.6228   -1.1685 C   0  0  0  0  0  0  0  0  0  0  0  0
    8.8615   13.4887   -2.4205 C   0  0  0  0  0  0  0  0  0  0  0  0
    7.6009   13.9445   -3.0312 N   0  0  0  0  0  0  0  0  0  0  0  0
    6.8278   14.8012   -2.1290 C   0  0  0  0  0  0  0  0  0  0  0  0
    7.8742   14.6629   -4.2791 C   0  0  0  0  0  0  0  0  0  0  0  0
    6.2267    9.2001    0.8920 C   0  0  0  0  0  0  0  0  0  0  0  0
    5.4625    8.0264    0.9569 C   0  0  0  0  0  0  0  0  0  0  0  0
    5.2249    2.2725    0.3680 C   0  0  0  0  0  0  0  0  0  0  0  0
    6.6719    2.2292    0.7556 C   0  0  0  0  0  0  0  0  0  0  0  0
    7.2871    3.2696    1.4779 C   0  0  0  0  0  0  0  0  0  0  0  0
    8.6464    3.2333    1.8138 C   0  0  0  0  0  0  0  0  0  0  0  0
    9.4162    2.1148    1.5100 C   0  0  0  0  0  0  0  0  0  0  0  0
    8.8221    1.0571    0.8400 C   0  0  0  0  0  0  0  0  0  0  0  0
    9.5100   -0.0890    0.5684 O   0  0  0  0  0  0  0  0  0  0  0  0
    7.4911    1.1280    0.4268 C   0  0  0  0  0  0  0  0  0  0  0  0
    4.3962    1.1189    0.4694 C   0  0  0  0  0  0  0  0  0  0  0  0
    4.8611   -0.0801    0.9722 O   0  0  0  0  0  0  0  0  0  0  0  0
    0.7438   -1.2294   -0.2209 H   0  0  0  0  0  0  0  0  0  0  0  0
    0.9595    0.1239   -1.3346 H   0  0  0  0  0  0  0  0  0  0  0  0
    0.3956    0.4043    0.3595 H   0  0  0  0  0  0  0  0  0  0  0  0
    1.4063    2.3321   -0.6605 H   0  0  0  0  0  0  0  0  0  0  0  0
    2.7492    4.3518   -0.8558 H   0  0  0  0  0  0  0  0  0  0  0  0
    4.1175    5.8182    0.7697 H   0  0  0  0  0  0  0  0  0  0  0  0
    6.1619    6.8050   -2.1382 H   0  0  0  0  0  0  0  0  0  0  0  0
    7.4337    8.8600   -2.2744 H   0  0  0  0  0  0  0  0  0  0  0  0
    6.8765   11.6175   -1.8440 H   0  0  0  0  0  0  0  0  0  0  0  0
    8.4128   10.7475   -2.1598 H   0  0  0  0  0  0  0  0  0  0  0  0
    9.6698   12.3282   -0.7951 H   0  0  0  0  0  0  0  0  0  0  0  0
    8.2321   13.1978   -0.3488 H   0  0  0  0  0  0  0  0  0  0  0  0
    9.4141   12.8892   -3.1569 H   0  0  0  0  0  0  0  0  0  0  0  0
    9.5013   14.3459   -2.1726 H   0  0  0  0  0  0  0  0  0  0  0  0
    6.4913   14.2459   -1.2473 H   0  0  0  0  0  0  0  0  0  0  0  0
    5.9157   15.1554   -2.6218 H   0  0  0  0  0  0  0  0  0  0  0  0
    7.4008   15.6732   -1.7952 H   0  0  0  0  0  0  0  0  0  0  0  0
    8.4026   14.0177   -4.9898 H   0  0  0  0  0  0  0  0  0  0  0  0
    8.4767   15.5635   -4.1139 H   0  0  0  0  0  0  0  0  0  0  0  0
    6.9375   14.9590   -4.7648 H   0  0  0  0  0  0  0  0  0  0  0  0
    6.2826    9.8566    1.7571 H   0  0  0  0  0  0  0  0  0  0  0  0
    4.9369    7.7949    1.8778 H   0  0  0  0  0  0  0  0  0  0  0  0
    6.7227    4.1537    1.7684 H   0  0  0  0  0  0  0  0  0  0  0  0
    9.1037    4.0877    2.3088 H   0  0  0  0  0  0  0  0  0  0  0  0
   10.4649    2.0918    1.7900 H   0  0  0  0  0  0  0  0  0  0  0  0
   10.4014   -0.0134    0.9470 H   0  0  0  0  0  0  0  0  0  0  0  0
    7.0967    0.2942   -0.1514 H   0  0  0  0  0  0  0  0  0  0  0  0
    5.6410    0.0759    1.5269 H   0  0  0  0  0  0  0  0  0  0  0  0
  1  2  1  0  0  0  0
  1 33  1  0  0  0  0
  1 34  1  0  0  0  0
  1 35  1  0  0  0  0
  2  3  1  0  0  0  0
  3  4  1  0  0  0  0
  3 31  2  0  0  0  0
  4  5  2  0  0  0  0
  4 36  1  0  0  0  0
  5  6  1  0  0  0  0
  5 37  1  0  0  0  0
  6  7  1  0  0  0  0
  6 23  2  0  0  0  0
  7  8  2  0  0  0  0
  7  9  1  0  0  0  0
  9 10  1  0  0  0  0
  9 38  1  0  0  0  0
 10 11  1  0  0  0  0
 10 22  2  0  0  0  0
 11 12  2  0  0  0  0
 11 39  1  0  0  0  0
 12 13  1  0  0  0  0
 12 40  1  0  0  0  0
 13 14  1  0  0  0  0
 13 21  2  0  0  0  0
 14 15  1  0  0  0  0
 15 16  1  0  0  0  0
 15 41  1  0  0  0  0
 15 42  1  0  0  0  0
 16 17  1  0  0  0  0
 16 43  1  0  0  0  0
 16 44  1  0  0  0  0
 17 18  1  0  0  0  0
 17 45  1  0  0  0  0
 17 46  1  0  0  0  0
 18 19  1  0  0  0  0
 18 20  1  0  0  0  0
 19 47  1  0  0  0  0
 19 48  1  0  0  0  0
 19 49  1  0  0  0  0
 20 50  1  0  0  0  0
 20 51  1  0  0  0  0
 20 52  1  0  0  0  0
 21 22  1  0  0  0  0
 21 53  1  0  0  0  0
 22 54  1  0  0  0  0
 23 24  1  0  0  0  0
 23 31  1  0  0  0  0
 24 25  1  0  0  0  0
 24 30  2  0  0  0  0
 25 26  2  0  0  0  0
 25 55  1  0  0  0  0
 26 27  1  0  0  0  0
 26 56  1  0  0  0  0
 27 28  2  0  0  0  0
 27 57  1  0  0  0  0
 28 29  1  0  0  0  0
 28 30  1  0  0  0  0
 29 58  1  0  0  0  0
 30 59  1  0  0  0  0
 31 32  1  0  0  0  0
 32 60  1  0  0  0  0
M  END
$$$$
