CHEMBL3694695
 OpenBabel04072215373D

 49 52  0  0  0  0  0  0  0  0999 V2000
    2.8615   -0.2403   -1.6478 O   0  0  0  0  0  0  0  0  0  0  0  0
    2.6036   -0.4336   -0.4673 C   0  0  0  0  0  0  0  0  0  0  0  0
    1.4396   -1.0612   -0.0799 N   0  0  0  0  0  0  0  0  0  0  0  0
    0.4290   -1.3510   -1.1007 C   0  0  0  0  0  0  0  0  0  0  0  0
   -0.4860   -0.1721   -1.4615 C   0  0  0  0  0  0  0  0  0  0  0  0
   -0.2446    0.9050   -0.6777 F   0  0  0  0  0  0  0  0  0  0  0  0
   -0.3559    0.2061   -2.7484 F   0  0  0  0  0  0  0  0  0  0  0  0
   -1.7837   -0.5137   -1.2647 F   0  0  0  0  0  0  0  0  0  0  0  0
    3.3827   -0.1056    0.6199 N   0  0  0  0  0  0  0  0  0  0  0  0
    4.6553    0.5048    0.6036 C   0  0  0  0  0  0  0  0  0  0  0  0
    5.3149    0.8797   -0.5665 C   0  0  0  0  0  0  0  0  0  0  0  0
    6.5930    1.4213   -0.4953 C   0  0  0  0  0  0  0  0  0  0  0  0
    7.2618    1.8036   -1.6207 O   0  0  0  0  0  0  0  0  0  0  0  0
    7.2352    1.5836    0.7264 C   0  0  0  0  0  0  0  0  0  0  0  0
    6.5929    1.2280    1.9201 C   0  0  0  0  0  0  0  0  0  0  0  0
    7.2900    1.4318    3.1966 C   0  0  0  0  0  0  0  0  0  0  0  0
    8.1980    2.4280    3.5328 C   0  0  0  0  0  0  0  0  0  0  0  0
    8.6721    2.2953    4.8055 N   0  0  0  0  0  0  0  0  0  0  0  0
    8.0873    1.2157    5.2715 C   0  0  0  0  0  0  0  0  0  0  0  0
    8.2329    0.5816    6.5374 C   0  0  0  0  0  0  0  0  0  0  0  0
    7.5971   -0.5834    6.8172 C   0  0  0  0  0  0  0  0  0  0  0  0
    7.8369   -1.2468    8.1261 C   0  0  0  0  0  0  0  0  0  0  0  0
    9.0711   -1.2074    8.7479 C   0  0  0  0  0  0  0  0  0  0  0  0
    9.1788   -1.8751    9.9413 C   0  0  0  0  0  0  0  0  0  0  0  0
    8.1666   -2.5539   10.4999 N   0  0  0  0  0  0  0  0  0  0  0  0
    6.9874   -2.5722    9.8304 C   0  0  0  0  0  0  0  0  0  0  0  0
    5.8161   -3.3597   10.4354 C   0  0  0  0  0  0  0  0  0  0  0  0
    6.1118   -3.9692   11.6230 F   0  0  0  0  0  0  0  0  0  0  0  0
    4.7224   -2.5800   10.6924 F   0  0  0  0  0  0  0  0  0  0  0  0
    5.3683   -4.3613    9.6182 F   0  0  0  0  0  0  0  0  0  0  0  0
    6.7946   -1.9355    8.6452 N   0  0  0  0  0  0  0  0  0  0  0  0
    6.6938   -1.1511    5.8071 C   0  0  0  0  0  0  0  0  0  0  0  0
    6.5583   -0.5592    4.6067 C   0  0  0  0  0  0  0  0  0  0  0  0
    7.2430    0.6281    4.3328 N   0  0  0  0  0  0  0  0  0  0  0  0
    5.2861    0.7200    1.8415 C   0  0  0  0  0  0  0  0  0  0  0  0
    1.0830   -0.8016    0.8296 H   0  0  0  0  0  0  0  0  0  0  0  0
   -0.1745   -2.1801   -0.7091 H   0  0  0  0  0  0  0  0  0  0  0  0
    0.9278   -1.7168   -2.0065 H   0  0  0  0  0  0  0  0  0  0  0  0
    3.0429   -0.4162    1.5178 H   0  0  0  0  0  0  0  0  0  0  0  0
    4.8544    0.7529   -1.5391 H   0  0  0  0  0  0  0  0  0  0  0  0
    6.6854    1.6503   -2.3888 H   0  0  0  0  0  0  0  0  0  0  0  0
    8.2436    1.9907    0.7295 H   0  0  0  0  0  0  0  0  0  0  0  0
    8.5333    3.2449    2.9060 H   0  0  0  0  0  0  0  0  0  0  0  0
    8.8927    1.0775    7.2382 H   0  0  0  0  0  0  0  0  0  0  0  0
    9.9287   -0.6956    8.3268 H   0  0  0  0  0  0  0  0  0  0  0  0
   10.1137   -1.8858   10.4950 H   0  0  0  0  0  0  0  0  0  0  0  0
    6.1554   -2.0630    6.0463 H   0  0  0  0  0  0  0  0  0  0  0  0
    5.9327   -0.9847    3.8360 H   0  0  0  0  0  0  0  0  0  0  0  0
    4.7379    0.5054    2.7526 H   0  0  0  0  0  0  0  0  0  0  0  0
  1  2  2  0  0  0  0
  2  3  1  0  0  0  0
  2  9  1  0  0  0  0
  3  4  1  0  0  0  0
  3 36  1  0  0  0  0
  4  5  1  0  0  0  0
  4 37  1  0  0  0  0
  4 38  1  0  0  0  0
  5  6  1  0  0  0  0
  5  7  1  0  0  0  0
  5  8  1  0  0  0  0
  9 10  1  0  0  0  0
  9 39  1  0  0  0  0
 10 11  1  0  0  0  0
 10 35  2  0  0  0  0
 11 12  2  0  0  0  0
 11 40  1  0  0  0  0
 12 13  1  0  0  0  0
 12 14  1  0  0  0  0
 13 41  1  0  0  0  0
 14 15  2  0  0  0  0
 14 42  1  0  0  0  0
 15 16  1  0  0  0  0
 15 35  1  0  0  0  0
 16 17  2  0  0  0  0
 16 34  1  0  0  0  0
 17 18  1  0  0  0  0
 17 43  1  0  0  0  0
 18 19  2  0  0  0  0
 19 20  1  0  0  0  0
 19 34  1  0  0  0  0
 20 21  2  0  0  0  0
 20 44  1  0  0  0  0
 21 22  1  0  0  0  0
 21 32  1  0  0  0  0
 22 23  1  0  0  0  0
 22 31  2  0  0  0  0
 23 24  2  0  0  0  0
 23 45  1  0  0  0  0
 24 25  1  0  0  0  0
 24 46  1  0  0  0  0
 25 26  2  0  0  0  0
 26 27  1  0  0  0  0
 26 31  1  0  0  0  0
 27 28  1  0  0  0  0
 27 29  1  0  0  0  0
 27 30  1  0  0  0  0
 32 33  2  0  0  0  0
 32 47  1  0  0  0  0
 33 34  1  0  0  0  0
 33 48  1  0  0  0  0
 35 49  1  0  0  0  0
M  END
$$$$
