CHEMBL4787904
 OpenBabel04072215383D

 82 87  0  0  0  0  0  0  0  0999 V2000
    6.4314    2.9619   -0.2209 C   0  0  0  0  0  0  0  0  0  0  0  0
    5.5668    1.9361   -0.9540 C   0  0  0  0  0  0  0  0  0  0  0  0
    5.2854    0.7233   -0.1663 N   0  0  0  0  0  0  0  0  0  0  0  0
    4.6805    1.0134    1.1513 C   0  0  0  0  0  0  0  0  0  0  0  0
    3.3044    1.6823    1.1612 C   0  0  0  0  0  0  0  0  0  0  0  0
    4.5020   -0.2765   -0.9187 C   0  0  0  0  0  0  0  0  0  0  0  0
    5.1148   -0.8053   -2.2350 C   0  0  0  0  0  0  0  0  0  0  0  0
    6.4674   -1.5164   -2.0905 C   0  0  0  0  0  0  0  0  0  0  0  0
    6.9159   -1.9243   -3.4022 O   0  0  0  0  0  0  0  0  0  0  0  0
    8.2703   -2.0815   -3.5918 C   0  0  0  0  0  0  0  0  0  0  0  0
    8.7182   -1.8284   -4.9069 C   0  0  0  0  0  0  0  0  0  0  0  0
   10.1119   -1.8451   -5.2356 C   0  0  0  0  0  0  0  0  0  0  0  0
   10.7406   -1.5411   -6.4552 C   0  0  0  0  0  0  0  0  0  0  0  0
    9.9719   -1.3345   -7.5977 O   0  0  0  0  0  0  0  0  0  0  0  0
   10.5481   -1.7647   -8.7841 C   0  0  0  0  0  0  0  0  0  0  0  0
   11.2526   -2.9737   -8.8768 C   0  0  0  0  0  0  0  0  0  0  0  0
   11.8362   -3.3707  -10.0800 C   0  0  0  0  0  0  0  0  0  0  0  0
   11.6614   -2.6142  -11.2410 C   0  0  0  0  0  0  0  0  0  0  0  0
   12.1427   -3.1327  -12.4602 N   0  0  0  0  0  0  0  0  0  0  0  0
   11.4931   -3.0880  -13.7140 C   0  0  0  0  0  0  0  0  0  0  0  0
   10.3405   -2.3789  -13.8153 N   0  0  0  0  0  0  0  0  0  0  0  0
    9.7768   -2.2011  -15.0230 C   0  0  0  0  0  0  0  0  0  0  0  0
   10.3472   -2.6422  -16.1947 C   0  0  0  0  0  0  0  0  0  0  0  0
   11.5294   -3.3757  -16.1071 C   0  0  0  0  0  0  0  0  0  0  0  0
   12.1547   -3.8341  -17.2622 N   0  0  0  0  0  0  0  0  0  0  0  0
   13.1214   -4.7969  -17.1902 C   0  0  0  0  0  0  0  0  0  0  0  0
   13.6163   -5.3469  -16.0676 C   0  0  0  0  0  0  0  0  0  0  0  0
   14.4790   -6.5606  -16.1537 C   0  0  0  0  0  0  0  0  0  0  0  0
   15.3959   -6.9157  -15.1521 C   0  0  0  0  0  0  0  0  0  0  0  0
   16.1425   -8.1007  -15.2386 C   0  0  0  0  0  0  0  0  0  0  0  0
   15.9917   -8.9402  -16.3339 C   0  0  0  0  0  0  0  0  0  0  0  0
   16.7042  -10.0709  -16.4133 F   0  0  0  0  0  0  0  0  0  0  0  0
   15.0995   -8.6249  -17.3431 C   0  0  0  0  0  0  0  0  0  0  0  0
   14.3421   -7.4548  -17.2441 C   0  0  0  0  0  0  0  0  0  0  0  0
   13.1605   -4.6968  -14.7759 C   0  0  0  0  0  0  0  0  0  0  0  0
   13.6014   -5.0352  -13.6777 O   0  0  0  0  0  0  0  0  0  0  0  0
   12.0654   -3.6722  -14.8470 C   0  0  0  0  0  0  0  0  0  0  0  0
   10.9655   -1.3986  -11.1412 C   0  0  0  0  0  0  0  0  0  0  0  0
   10.4104   -0.9843   -9.9263 C   0  0  0  0  0  0  0  0  0  0  0  0
    9.7436    0.1795   -9.8800 F   0  0  0  0  0  0  0  0  0  0  0  0
   12.0841   -1.4867   -6.6255 N   0  0  0  0  0  0  0  0  0  0  0  0
   12.8238   -1.8783   -5.5977 C   0  0  0  0  0  0  0  0  0  0  0  0
   12.3490   -2.2630   -4.4162 N   0  0  0  0  0  0  0  0  0  0  0  0
   11.0249   -2.2086   -4.2457 C   0  0  0  0  0  0  0  0  0  0  0  0
   10.5612   -2.5458   -2.9921 C   0  0  0  0  0  0  0  0  0  0  0  0
    9.2112   -2.4630   -2.6259 C   0  0  0  0  0  0  0  0  0  0  0  0
    8.7944   -2.7879   -1.3592 O   0  0  0  0  0  0  0  0  0  0  0  0
    9.7925   -2.7167   -0.3393 C   0  0  0  0  0  0  0  0  0  0  0  0
    6.8111    3.7069   -0.9277 H   0  0  0  0  0  0  0  0  0  0  0  0
    7.2945    2.4856    0.2566 H   0  0  0  0  0  0  0  0  0  0  0  0
    5.8618    3.4994    0.5444 H   0  0  0  0  0  0  0  0  0  0  0  0
    6.1249    1.6576   -1.8534 H   0  0  0  0  0  0  0  0  0  0  0  0
    4.6433    2.4197   -1.2936 H   0  0  0  0  0  0  0  0  0  0  0  0
    5.3714    1.6336    1.7347 H   0  0  0  0  0  0  0  0  0  0  0  0
    4.6150    0.0823    1.7290 H   0  0  0  0  0  0  0  0  0  0  0  0
    3.1691    2.4020    0.3498 H   0  0  0  0  0  0  0  0  0  0  0  0
    3.1654    2.2315    2.0998 H   0  0  0  0  0  0  0  0  0  0  0  0
    2.5065    0.9362    1.0923 H   0  0  0  0  0  0  0  0  0  0  0  0
    3.5113    0.1343   -1.1544 H   0  0  0  0  0  0  0  0  0  0  0  0
    4.3309   -1.1454   -0.2698 H   0  0  0  0  0  0  0  0  0  0  0  0
    5.2012    0.0008   -2.9725 H   0  0  0  0  0  0  0  0  0  0  0  0
    4.4009   -1.5113   -2.6811 H   0  0  0  0  0  0  0  0  0  0  0  0
    6.3348   -2.4096   -1.4689 H   0  0  0  0  0  0  0  0  0  0  0  0
    7.1875   -0.8328   -1.6292 H   0  0  0  0  0  0  0  0  0  0  0  0
    7.9887   -1.5693   -5.6728 H   0  0  0  0  0  0  0  0  0  0  0  0
   11.3835   -3.6093   -8.0065 H   0  0  0  0  0  0  0  0  0  0  0  0
   12.4045   -4.2968  -10.1060 H   0  0  0  0  0  0  0  0  0  0  0  0
   12.6863   -3.9943  -12.3686 H   0  0  0  0  0  0  0  0  0  0  0  0
    8.8324   -1.6631  -15.0128 H   0  0  0  0  0  0  0  0  0  0  0  0
    9.8579   -2.4504  -17.1398 H   0  0  0  0  0  0  0  0  0  0  0  0
   11.7689   -3.5983  -18.1740 H   0  0  0  0  0  0  0  0  0  0  0  0
   13.4188   -5.1253  -18.1826 H   0  0  0  0  0  0  0  0  0  0  0  0
   15.5421   -6.2854  -14.2778 H   0  0  0  0  0  0  0  0  0  0  0  0
   16.8351   -8.3760  -14.4489 H   0  0  0  0  0  0  0  0  0  0  0  0
   14.9821   -9.2916  -18.1914 H   0  0  0  0  0  0  0  0  0  0  0  0
   13.6212   -7.2715  -18.0376 H   0  0  0  0  0  0  0  0  0  0  0  0
   10.8367   -0.7601  -12.0104 H   0  0  0  0  0  0  0  0  0  0  0  0
   13.8976   -1.9095   -5.7398 H   0  0  0  0  0  0  0  0  0  0  0  0
   11.3159   -2.8759   -2.2850 H   0  0  0  0  0  0  0  0  0  0  0  0
    9.3004   -2.8096    0.6318 H   0  0  0  0  0  0  0  0  0  0  0  0
   10.3145   -1.7523   -0.3605 H   0  0  0  0  0  0  0  0  0  0  0  0
   10.5022   -3.5471   -0.4262 H   0  0  0  0  0  0  0  0  0  0  0  0
  1  2  1  0  0  0  0
  1 49  1  0  0  0  0
  1 50  1  0  0  0  0
  1 51  1  0  0  0  0
  2  3  1  0  0  0  0
  2 52  1  0  0  0  0
  2 53  1  0  0  0  0
  3  4  1  0  0  0  0
  3  6  1  0  0  0  0
  4  5  1  0  0  0  0
  4 54  1  0  0  0  0
  4 55  1  0  0  0  0
  5 56  1  0  0  0  0
  5 57  1  0  0  0  0
  5 58  1  0  0  0  0
  6  7  1  0  0  0  0
  6 59  1  0  0  0  0
  6 60  1  0  0  0  0
  7  8  1  0  0  0  0
  7 61  1  0  0  0  0
  7 62  1  0  0  0  0
  8  9  1  0  0  0  0
  8 63  1  0  0  0  0
  8 64  1  0  0  0  0
  9 10  1  0  0  0  0
 10 11  1  0  0  0  0
 10 46  2  0  0  0  0
 11 12  2  0  0  0  0
 11 65  1  0  0  0  0
 12 13  1  0  0  0  0
 12 44  1  0  0  0  0
 13 14  1  0  0  0  0
 13 41  2  0  0  0  0
 14 15  1  0  0  0  0
 15 16  1  0  0  0  0
 15 39  2  0  0  0  0
 16 17  2  0  0  0  0
 16 66  1  0  0  0  0
 17 18  1  0  0  0  0
 17 67  1  0  0  0  0
 18 19  1  0  0  0  0
 18 38  2  0  0  0  0
 19 20  1  0  0  0  0
 19 68  1  0  0  0  0
 20 21  1  0  0  0  0
 20 37  2  0  0  0  0
 21 22  2  0  0  0  0
 22 23  1  0  0  0  0
 22 69  1  0  0  0  0
 23 24  2  0  0  0  0
 23 70  1  0  0  0  0
 24 25  1  0  0  0  0
 24 37  1  0  0  0  0
 25 26  1  0  0  0  0
 25 71  1  0  0  0  0
 26 27  2  0  0  0  0
 26 72  1  0  0  0  0
 27 28  1  0  0  0  0
 27 35  1  0  0  0  0
 28 29  1  0  0  0  0
 28 34  2  0  0  0  0
 29 30  2  0  0  0  0
 29 73  1  0  0  0  0
 30 31  1  0  0  0  0
 30 74  1  0  0  0  0
 31 32  1  0  0  0  0
 31 33  2  0  0  0  0
 33 34  1  0  0  0  0
 33 75  1  0  0  0  0
 34 76  1  0  0  0  0
 35 36  2  0  0  0  0
 35 37  1  0  0  0  0
 38 39  1  0  0  0  0
 38 77  1  0  0  0  0
 39 40  1  0  0  0  0
 41 42  1  0  0  0  0
 42 43  2  0  0  0  0
 42 78  1  0  0  0  0
 43 44  1  0  0  0  0
 44 45  2  0  0  0  0
 45 46  1  0  0  0  0
 45 79  1  0  0  0  0
 46 47  1  0  0  0  0
 47 48  1  0  0  0  0
 48 80  1  0  0  0  0
 48 81  1  0  0  0  0
 48 82  1  0  0  0  0
M  END
$$$$
