CHEMBL3986945
 OpenBabel04072215373D

 53 56  0  0  0  0  0  0  0  0999 V2000
    2.2173   -0.5077    0.9279 C   0  0  0  0  0  0  0  0  0  0  0  0
    0.8935   -0.1755    0.3351 C   0  0  0  0  0  0  0  0  0  0  0  0
    0.4641    1.1078   -0.1017 C   0  0  0  0  0  0  0  0  0  0  0  0
   -0.8137    0.9518   -0.5808 C   0  0  0  0  0  0  0  0  0  0  0  0
   -1.2086   -0.3418   -0.4773 O   0  0  0  0  0  0  0  0  0  0  0  0
   -0.1707   -1.0374    0.0856 C   0  0  0  0  0  0  0  0  0  0  0  0
   -0.3153   -2.4654    0.3217 C   0  0  0  0  0  0  0  0  0  0  0  0
    0.5749   -3.1061    0.8680 O   0  0  0  0  0  0  0  0  0  0  0  0
   -1.5062   -3.0093   -0.1597 N   0  0  0  0  0  0  0  0  0  0  0  0
   -1.8786   -4.3711   -0.0758 C   0  0  0  0  0  0  0  0  0  0  0  0
   -1.2553   -5.2516    0.8148 C   0  0  0  0  0  0  0  0  0  0  0  0
   -1.5413   -6.6143    0.8025 C   0  0  0  0  0  0  0  0  0  0  0  0
   -2.4812   -7.1121   -0.0894 C   0  0  0  0  0  0  0  0  0  0  0  0
   -3.1675   -6.2415   -0.9408 C   0  0  0  0  0  0  0  0  0  0  0  0
   -4.1344   -6.8045   -1.8374 C   0  0  0  0  0  0  0  0  0  0  0  0
   -4.9073   -7.3977   -2.5382 C   0  0  0  0  0  0  0  0  0  0  0  0
   -5.8046   -8.1906   -3.3189 C   0  0  0  0  0  0  0  0  0  0  0  0
   -6.5189   -9.2340   -2.7363 C   0  0  0  0  0  0  0  0  0  0  0  0
   -7.3947  -10.0207   -3.4072 N   0  0  0  0  0  0  0  0  0  0  0  0
   -7.5648   -9.7472   -4.7229 C   0  0  0  0  0  0  0  0  0  0  0  0
   -6.8891   -8.7346   -5.3929 C   0  0  0  0  0  0  0  0  0  0  0  0
   -7.1572   -8.5216   -6.8321 C   0  0  0  0  0  0  0  0  0  0  0  0
   -8.2543   -8.8902   -7.2434 O   0  0  0  0  0  0  0  0  0  0  0  0
   -6.2468   -7.8303   -7.6491 N   0  0  0  0  0  0  0  0  0  0  0  0
   -6.1307   -8.1939   -9.1404 S   0  0  0  0  0  0  0  0  0  0  0  0
   -5.6061   -9.4464   -9.6534 O   0  0  0  0  0  0  0  0  0  0  0  0
   -5.2703   -6.8795   -9.9772 C   0  0  0  0  0  0  0  0  0  0  0  0
   -6.1324   -6.4471  -11.1656 C   0  0  0  0  0  0  0  0  0  0  0  0
   -7.3213   -7.3948  -11.3225 C   0  0  0  0  0  0  0  0  0  0  0  0
   -7.6896   -7.8968   -9.9403 C   0  0  0  0  0  0  0  0  0  0  0  0
   -5.9854   -7.9448   -4.6773 C   0  0  0  0  0  0  0  0  0  0  0  0
   -2.8819   -4.8668   -0.9239 C   0  0  0  0  0  0  0  0  0  0  0  0
    2.8687    0.3732    0.9447 H   0  0  0  0  0  0  0  0  0  0  0  0
    2.7242   -1.2818    0.3430 H   0  0  0  0  0  0  0  0  0  0  0  0
    2.1094   -0.8607    1.9586 H   0  0  0  0  0  0  0  0  0  0  0  0
    1.0261    2.0311   -0.0694 H   0  0  0  0  0  0  0  0  0  0  0  0
   -1.5367    1.6311   -1.0095 H   0  0  0  0  0  0  0  0  0  0  0  0
   -2.0705   -2.3883   -0.7296 H   0  0  0  0  0  0  0  0  0  0  0  0
   -0.5313   -4.9038    1.5448 H   0  0  0  0  0  0  0  0  0  0  0  0
   -1.0140   -7.2796    1.4803 H   0  0  0  0  0  0  0  0  0  0  0  0
   -2.6730   -8.1823   -0.1154 H   0  0  0  0  0  0  0  0  0  0  0  0
   -6.4049   -9.4799   -1.6835 H   0  0  0  0  0  0  0  0  0  0  0  0
   -8.2741  -10.3936   -5.2358 H   0  0  0  0  0  0  0  0  0  0  0  0
   -4.2839   -7.2344  -10.2853 H   0  0  0  0  0  0  0  0  0  0  0  0
   -5.1480   -6.0443   -9.2802 H   0  0  0  0  0  0  0  0  0  0  0  0
   -5.5375   -6.4286  -12.0857 H   0  0  0  0  0  0  0  0  0  0  0  0
   -6.4893   -5.4235  -11.0043 H   0  0  0  0  0  0  0  0  0  0  0  0
   -7.0356   -8.2405  -11.9587 H   0  0  0  0  0  0  0  0  0  0  0  0
   -8.1709   -6.8959  -11.7995 H   0  0  0  0  0  0  0  0  0  0  0  0
   -8.2723   -8.8199   -9.9696 H   0  0  0  0  0  0  0  0  0  0  0  0
   -8.2234   -7.1279   -9.3737 H   0  0  0  0  0  0  0  0  0  0  0  0
   -5.4427   -7.1434   -5.1722 H   0  0  0  0  0  0  0  0  0  0  0  0
   -3.4135   -4.2050   -1.6024 H   0  0  0  0  0  0  0  0  0  0  0  0
  1  2  1  0  0  0  0
  1 33  1  0  0  0  0
  1 34  1  0  0  0  0
  1 35  1  0  0  0  0
  2  3  1  0  0  0  0
  2  6  2  0  0  0  0
  3  4  2  0  0  0  0
  3 36  1  0  0  0  0
  4  5  1  0  0  0  0
  4 37  1  0  0  0  0
  5  6  1  0  0  0  0
  6  7  1  0  0  0  0
  7  8  2  0  0  0  0
  7  9  1  0  0  0  0
  9 10  1  0  0  0  0
  9 38  1  0  0  0  0
 10 11  1  0  0  0  0
 10 32  2  0  0  0  0
 11 12  2  0  0  0  0
 11 39  1  0  0  0  0
 12 13  1  0  0  0  0
 12 40  1  0  0  0  0
 13 14  2  0  0  0  0
 13 41  1  0  0  0  0
 14 15  1  0  0  0  0
 14 32  1  0  0  0  0
 15 16  3  0  0  0  0
 16 17  1  0  0  0  0
 17 18  1  0  0  0  0
 17 31  2  0  0  0  0
 18 19  2  0  0  0  0
 18 42  1  0  0  0  0
 19 20  1  0  0  0  0
 20 21  2  0  0  0  0
 20 43  1  0  0  0  0
 21 22  1  0  0  0  0
 21 31  1  0  0  0  0
 22 23  2  0  0  0  0
 22 24  1  0  0  0  0
 24 25  2  0  0  0  0
 25 26  2  0  0  0  0
 25 27  1  0  0  0  0
 25 30  1  0  0  0  0
 27 28  1  0  0  0  0
 27 44  1  0  0  0  0
 27 45  1  0  0  0  0
 28 29  1  0  0  0  0
 28 46  1  0  0  0  0
 28 47  1  0  0  0  0
 29 30  1  0  0  0  0
 29 48  1  0  0  0  0
 29 49  1  0  0  0  0
 30 50  1  0  0  0  0
 30 51  1  0  0  0  0
 31 52  1  0  0  0  0
 32 53  1  0  0  0  0
M  END
$$$$
