CHEMBL202682
 OpenBabel04072215363D

 45 48  0  0  0  0  0  0  0  0999 V2000
    1.1278    0.1112    0.4712 O   0  0  0  0  0  0  0  0  0  0  0  0
    2.3231   -0.0989    0.2883 C   0  0  0  0  0  0  0  0  0  0  0  0
    2.9563   -1.3315    0.3697 N   0  0  0  0  0  0  0  0  0  0  0  0
    2.3233   -2.5677    0.6490 C   0  0  0  0  0  0  0  0  0  0  0  0
    0.9328   -2.7238    0.6901 C   0  0  0  0  0  0  0  0  0  0  0  0
    0.3465   -3.9584    0.9896 C   0  0  0  0  0  0  0  0  0  0  0  0
    1.1513   -5.0595    1.2473 C   0  0  0  0  0  0  0  0  0  0  0  0
    0.4273   -6.5760    1.6160 Cl  0  0  0  0  0  0  0  0  0  0  0  0
    2.5377   -4.9335    1.2059 C   0  0  0  0  0  0  0  0  0  0  0  0
    3.1214   -3.6926    0.9015 C   0  0  0  0  0  0  0  0  0  0  0  0
    3.1719    1.1010    0.0436 C   0  0  0  0  0  0  0  0  0  0  0  0
    2.8718    2.2137    0.8535 C   0  0  0  0  0  0  0  0  0  0  0  0
    3.5656    3.4131    0.7165 C   0  0  0  0  0  0  0  0  0  0  0  0
    4.5948    3.5059   -0.2112 C   0  0  0  0  0  0  0  0  0  0  0  0
    4.8813    2.4235   -1.0479 C   0  0  0  0  0  0  0  0  0  0  0  0
    4.1391    1.2245   -0.9737 C   0  0  0  0  0  0  0  0  0  0  0  0
    4.3251    0.1991   -2.0674 C   0  0  0  0  0  0  0  0  0  0  0  0
    5.3992   -0.7612   -1.8337 N   0  0  0  0  0  0  0  0  0  0  0  0
    6.1092   -1.4180   -2.8105 C   0  0  0  0  0  0  0  0  0  0  0  0
    6.8250   -2.4091   -2.1727 C   0  0  0  0  0  0  0  0  0  0  0  0
    7.6317   -3.4428   -2.7980 C   0  0  0  0  0  0  0  0  0  0  0  0
    8.7087   -3.9960   -2.1003 C   0  0  0  0  0  0  0  0  0  0  0  0
    9.3725   -5.0802   -2.6499 C   0  0  0  0  0  0  0  0  0  0  0  0
    9.0432   -5.6379   -3.8318 N   0  0  0  0  0  0  0  0  0  0  0  0
    8.0150   -5.0758   -4.5016 C   0  0  0  0  0  0  0  0  0  0  0  0
    7.2944   -3.9838   -4.0400 C   0  0  0  0  0  0  0  0  0  0  0  0
    6.5117   -2.2283   -0.8047 C   0  0  0  0  0  0  0  0  0  0  0  0
    5.6304   -1.2498   -0.5945 N   0  0  0  0  0  0  0  0  0  0  0  0
    3.9793   -1.3389    0.3037 H   0  0  0  0  0  0  0  0  0  0  0  0
    0.2587   -1.8984    0.4881 H   0  0  0  0  0  0  0  0  0  0  0  0
   -0.7364   -4.0389    1.0196 H   0  0  0  0  0  0  0  0  0  0  0  0
    3.1678   -5.7943    1.4130 H   0  0  0  0  0  0  0  0  0  0  0  0
    4.2056   -3.6193    0.8843 H   0  0  0  0  0  0  0  0  0  0  0  0
    2.0660    2.1503    1.5845 H   0  0  0  0  0  0  0  0  0  0  0  0
    3.2968    4.2681    1.3315 H   0  0  0  0  0  0  0  0  0  0  0  0
    5.1533    4.4342   -0.3062 H   0  0  0  0  0  0  0  0  0  0  0  0
    5.6659    2.5419   -1.7934 H   0  0  0  0  0  0  0  0  0  0  0  0
    4.5513    0.7124   -3.0114 H   0  0  0  0  0  0  0  0  0  0  0  0
    3.4106   -0.3783   -2.2384 H   0  0  0  0  0  0  0  0  0  0  0  0
    6.0123   -1.1460   -3.8531 H   0  0  0  0  0  0  0  0  0  0  0  0
    9.0272   -3.6089   -1.1388 H   0  0  0  0  0  0  0  0  0  0  0  0
   10.2023   -5.5501   -2.1292 H   0  0  0  0  0  0  0  0  0  0  0  0
    7.7638   -5.5560   -5.4434 H   0  0  0  0  0  0  0  0  0  0  0  0
    6.4653   -3.6060   -4.6277 H   0  0  0  0  0  0  0  0  0  0  0  0
    6.8583   -2.8070    0.0413 H   0  0  0  0  0  0  0  0  0  0  0  0
  1  2  2  0  0  0  0
  2  3  1  0  0  0  0
  2 11  1  0  0  0  0
  3  4  1  0  0  0  0
  3 29  1  0  0  0  0
  4  5  1  0  0  0  0
  4 10  2  0  0  0  0
  5  6  2  0  0  0  0
  5 30  1  0  0  0  0
  6  7  1  0  0  0  0
  6 31  1  0  0  0  0
  7  8  1  0  0  0  0
  7  9  2  0  0  0  0
  9 10  1  0  0  0  0
  9 32  1  0  0  0  0
 10 33  1  0  0  0  0
 11 12  1  0  0  0  0
 11 16  2  0  0  0  0
 12 13  2  0  0  0  0
 12 34  1  0  0  0  0
 13 14  1  0  0  0  0
 13 35  1  0  0  0  0
 14 15  2  0  0  0  0
 14 36  1  0  0  0  0
 15 16  1  0  0  0  0
 15 37  1  0  0  0  0
 16 17  1  0  0  0  0
 17 18  1  0  0  0  0
 17 38  1  0  0  0  0
 17 39  1  0  0  0  0
 18 19  1  0  0  0  0
 18 28  1  0  0  0  0
 19 20  2  0  0  0  0
 19 40  1  0  0  0  0
 20 21  1  0  0  0  0
 20 27  1  0  0  0  0
 21 22  1  0  0  0  0
 21 26  2  0  0  0  0
 22 23  2  0  0  0  0
 22 41  1  0  0  0  0
 23 24  1  0  0  0  0
 23 42  1  0  0  0  0
 24 25  2  0  0  0  0
 25 26  1  0  0  0  0
 25 43  1  0  0  0  0
 26 44  1  0  0  0  0
 27 28  2  0  0  0  0
 27 45  1  0  0  0  0
M  END
$$$$
