CHEMBL3944438
 OpenBabel04072215373D

 52 55  0  0  0  0  0  0  0  0999 V2000
    1.1372    1.1517    1.9989 C   0  0  0  0  0  0  0  0  0  0  0  0
    2.4550    0.8470    1.4982 N   0  0  0  0  0  0  0  0  0  0  0  0
    3.3996    0.2261    2.2976 C   0  0  0  0  0  0  0  0  0  0  0  0
    3.1815   -0.1167    3.4527 O   0  0  0  0  0  0  0  0  0  0  0  0
    4.7234   -0.0420    1.6681 C   0  0  0  0  0  0  0  0  0  0  0  0
    5.2216    0.7768    0.6572 C   0  0  0  0  0  0  0  0  0  0  0  0
    6.4459    0.4631    0.0906 C   0  0  0  0  0  0  0  0  0  0  0  0
    6.9139    1.2398   -0.8971 F   0  0  0  0  0  0  0  0  0  0  0  0
    7.1904   -0.6510    0.4987 C   0  0  0  0  0  0  0  0  0  0  0  0
    6.7270   -1.4971    1.5179 C   0  0  0  0  0  0  0  0  0  0  0  0
    7.4033   -2.6880    1.9109 N   0  0  0  0  0  0  0  0  0  0  0  0
    8.8947   -2.6903    1.9536 C   0  0  0  0  0  0  0  0  0  0  0  0
    9.5281   -3.8932    1.2153 C   0  0  0  0  0  0  0  0  0  0  0  0
    9.2827   -3.8551   -0.1876 O   0  0  0  0  0  0  0  0  0  0  0  0
    6.7695   -3.8438    2.4394 C   0  0  0  0  0  0  0  0  0  0  0  0
    5.5576   -4.2774    1.8903 C   0  0  0  0  0  0  0  0  0  0  0  0
    4.9127   -5.4133    2.3730 C   0  0  0  0  0  0  0  0  0  0  0  0
    5.4633   -6.1599    3.3983 C   0  0  0  0  0  0  0  0  0  0  0  0
    4.8103   -7.2536    3.8313 N   0  0  0  0  0  0  0  0  0  0  0  0
    5.4095   -7.9476    4.8190 C   0  0  0  0  0  0  0  0  0  0  0  0
    6.6353   -7.5937    5.3690 C   0  0  0  0  0  0  0  0  0  0  0  0
    7.2520   -8.4048    6.4028 C   0  0  0  0  0  0  0  0  0  0  0  0
    6.8304   -9.6252    6.9806 C   0  0  0  0  0  0  0  0  0  0  0  0
    7.6729  -10.0812    7.9091 N   0  0  0  0  0  0  0  0  0  0  0  0
    8.6438   -9.1521    7.9346 N   0  0  0  0  0  0  0  0  0  0  0  0
    9.7545   -9.3084    8.8416 C   0  0  0  0  0  0  0  0  0  0  0  0
    8.4437   -8.1317    7.0488 C   0  0  0  0  0  0  0  0  0  0  0  0
    7.2922   -6.4873    4.9429 N   0  0  0  0  0  0  0  0  0  0  0  0
    6.6958   -5.7682    3.9634 C   0  0  0  0  0  0  0  0  0  0  0  0
    7.3124   -4.6137    3.4835 C   0  0  0  0  0  0  0  0  0  0  0  0
    5.4878   -1.1410    2.1066 C   0  0  0  0  0  0  0  0  0  0  0  0
    0.5464    1.5869    1.1888 H   0  0  0  0  0  0  0  0  0  0  0  0
    1.2231    1.8678    2.8205 H   0  0  0  0  0  0  0  0  0  0  0  0
    0.6589    0.2373    2.3596 H   0  0  0  0  0  0  0  0  0  0  0  0
    2.6188    0.9505    0.5065 H   0  0  0  0  0  0  0  0  0  0  0  0
    4.6908    1.6575    0.3165 H   0  0  0  0  0  0  0  0  0  0  0  0
    8.1149   -0.8573   -0.0364 H   0  0  0  0  0  0  0  0  0  0  0  0
    9.2277   -2.7023    2.9996 H   0  0  0  0  0  0  0  0  0  0  0  0
    9.3171   -1.7724    1.5345 H   0  0  0  0  0  0  0  0  0  0  0  0
    9.1920   -4.8628    1.5956 H   0  0  0  0  0  0  0  0  0  0  0  0
   10.6141   -3.8679    1.3539 H   0  0  0  0  0  0  0  0  0  0  0  0
    8.4780   -4.3834   -0.3399 H   0  0  0  0  0  0  0  0  0  0  0  0
    5.1028   -3.7384    1.0608 H   0  0  0  0  0  0  0  0  0  0  0  0
    3.9682   -5.7248    1.9355 H   0  0  0  0  0  0  0  0  0  0  0  0
    4.8544   -8.8151    5.1540 H   0  0  0  0  0  0  0  0  0  0  0  0
    5.9449  -10.2085    6.7653 H   0  0  0  0  0  0  0  0  0  0  0  0
    9.5707  -10.1644    9.4974 H   0  0  0  0  0  0  0  0  0  0  0  0
    9.8456   -8.3986    9.4392 H   0  0  0  0  0  0  0  0  0  0  0  0
   10.6581   -9.4787    8.2519 H   0  0  0  0  0  0  0  0  0  0  0  0
    9.1450   -7.3142    6.9520 H   0  0  0  0  0  0  0  0  0  0  0  0
    8.2438   -4.3295    3.9639 H   0  0  0  0  0  0  0  0  0  0  0  0
    5.0880   -1.7395    2.9271 H   0  0  0  0  0  0  0  0  0  0  0  0
  1  2  1  0  0  0  0
  1 32  1  0  0  0  0
  1 33  1  0  0  0  0
  1 34  1  0  0  0  0
  2  3  1  0  0  0  0
  2 35  1  0  0  0  0
  3  4  2  0  0  0  0
  3  5  1  0  0  0  0
  5  6  1  0  0  0  0
  5 31  2  0  0  0  0
  6  7  2  0  0  0  0
  6 36  1  0  0  0  0
  7  8  1  0  0  0  0
  7  9  1  0  0  0  0
  9 10  2  0  0  0  0
  9 37  1  0  0  0  0
 10 11  1  0  0  0  0
 10 31  1  0  0  0  0
 11 12  1  0  0  0  0
 11 15  1  0  0  0  0
 12 13  1  0  0  0  0
 12 38  1  0  0  0  0
 12 39  1  0  0  0  0
 13 14  1  0  0  0  0
 13 40  1  0  0  0  0
 13 41  1  0  0  0  0
 14 42  1  0  0  0  0
 15 16  1  0  0  0  0
 15 30  2  0  0  0  0
 16 17  2  0  0  0  0
 16 43  1  0  0  0  0
 17 18  1  0  0  0  0
 17 44  1  0  0  0  0
 18 19  1  0  0  0  0
 18 29  2  0  0  0  0
 19 20  2  0  0  0  0
 20 21  1  0  0  0  0
 20 45  1  0  0  0  0
 21 22  1  0  0  0  0
 21 28  2  0  0  0  0
 22 23  1  0  0  0  0
 22 27  2  0  0  0  0
 23 24  2  0  0  0  0
 23 46  1  0  0  0  0
 24 25  1  0  0  0  0
 25 26  1  0  0  0  0
 25 27  1  0  0  0  0
 26 47  1  0  0  0  0
 26 48  1  0  0  0  0
 26 49  1  0  0  0  0
 27 50  1  0  0  0  0
 28 29  1  0  0  0  0
 29 30  1  0  0  0  0
 30 51  1  0  0  0  0
 31 52  1  0  0  0  0
M  END
$$$$
