CHEMBL247272
 OpenBabel04072215363D

 55 59  0  0  0  0  0  0  0  0999 V2000
    1.3599    0.1315    0.8097 C   0  0  0  0  0  0  0  0  0  0  0  0
    0.9974   -0.0483   -0.5223 C   0  0  0  0  0  0  0  0  0  0  0  0
   -0.3510   -0.0599   -0.8810 C   0  0  0  0  0  0  0  0  0  0  0  0
   -1.3472    0.1769    0.0771 C   0  0  0  0  0  0  0  0  0  0  0  0
   -2.7161    0.4897   -0.3340 C   0  0  0  0  0  0  0  0  0  0  0  0
   -3.6922    0.0157    0.4944 O   0  0  0  0  0  0  0  0  0  0  0  0
   -4.8872    0.4524    0.0191 C   0  0  0  0  0  0  0  0  0  0  0  0
   -6.0473    0.1716    0.6286 N   0  0  0  0  0  0  0  0  0  0  0  0
   -7.0792    0.7056   -0.0185 C   0  0  0  0  0  0  0  0  0  0  0  0
   -7.0546    1.4354   -1.1483 N   0  0  0  0  0  0  0  0  0  0  0  0
   -5.8618    1.7198   -1.7189 C   0  0  0  0  0  0  0  0  0  0  0  0
   -5.8499    2.3493   -2.9671 N   0  0  0  0  0  0  0  0  0  0  0  0
   -6.7135    3.5298   -3.0713 C   0  0  0  0  0  0  0  0  0  0  0  0
   -6.8150    3.9266   -4.5646 C   0  0  0  0  0  0  0  0  0  0  0  0
   -7.8017    4.9795   -4.8653 N   0  0  0  0  0  0  0  0  0  0  0  0
   -7.9259    5.1750   -6.3271 C   0  0  0  0  0  0  0  0  0  0  0  0
   -6.7218    5.8902   -6.9830 C   0  0  0  0  0  0  0  0  0  0  0  0
   -6.3949    7.1812   -6.3544 N   0  0  0  0  0  0  0  0  0  0  0  0
   -6.2815    7.0252   -4.8932 C   0  0  0  0  0  0  0  0  0  0  0  0
   -7.4675    6.2758   -4.2439 C   0  0  0  0  0  0  0  0  0  0  0  0
   -4.6996    1.2067   -1.1297 C   0  0  0  0  0  0  0  0  0  0  0  0
   -3.2789    1.2452   -1.3611 C   0  0  0  0  0  0  0  0  0  0  0  0
   -2.5185    2.0010   -2.3644 C   0  0  0  0  0  0  0  0  0  0  0  0
   -1.3378    2.6845   -2.0355 C   0  0  0  0  0  0  0  0  0  0  0  0
   -0.6270    3.4066   -2.9984 C   0  0  0  0  0  0  0  0  0  0  0  0
   -1.1374    3.5386   -4.2852 C   0  0  0  0  0  0  0  0  0  0  0  0
   -2.3184    2.8901   -4.6256 C   0  0  0  0  0  0  0  0  0  0  0  0
   -2.9682    2.0846   -3.6868 C   0  0  0  0  0  0  0  0  0  0  0  0
   -0.9733    0.2771    1.4246 C   0  0  0  0  0  0  0  0  0  0  0  0
    0.3753    0.2560    1.7875 C   0  0  0  0  0  0  0  0  0  0  0  0
    2.4102    0.1820    1.0839 H   0  0  0  0  0  0  0  0  0  0  0  0
    1.7595   -0.1369   -1.2914 H   0  0  0  0  0  0  0  0  0  0  0  0
   -0.6130   -0.1791   -1.9303 H   0  0  0  0  0  0  0  0  0  0  0  0
   -8.0652    0.5301    0.4038 H   0  0  0  0  0  0  0  0  0  0  0  0
   -6.2223    1.6420   -3.5991 H   0  0  0  0  0  0  0  0  0  0  0  0
   -6.2703    4.3461   -2.4899 H   0  0  0  0  0  0  0  0  0  0  0  0
   -7.7199    3.3293   -2.6856 H   0  0  0  0  0  0  0  0  0  0  0  0
   -7.1178    3.0224   -5.1123 H   0  0  0  0  0  0  0  0  0  0  0  0
   -5.8135    4.1788   -4.9347 H   0  0  0  0  0  0  0  0  0  0  0  0
   -8.8292    5.7721   -6.5100 H   0  0  0  0  0  0  0  0  0  0  0  0
   -8.1047    4.2151   -6.8276 H   0  0  0  0  0  0  0  0  0  0  0  0
   -6.9461    6.0693   -8.0409 H   0  0  0  0  0  0  0  0  0  0  0  0
   -5.8370    5.2437   -6.9639 H   0  0  0  0  0  0  0  0  0  0  0  0
   -7.1640    7.8240   -6.5416 H   0  0  0  0  0  0  0  0  0  0  0  0
   -6.2162    8.0256   -4.4490 H   0  0  0  0  0  0  0  0  0  0  0  0
   -5.3388    6.5190   -4.6544 H   0  0  0  0  0  0  0  0  0  0  0  0
   -8.3598    6.9117   -4.3149 H   0  0  0  0  0  0  0  0  0  0  0  0
   -7.2892    6.1643   -3.1694 H   0  0  0  0  0  0  0  0  0  0  0  0
   -0.9361    2.6572   -1.0251 H   0  0  0  0  0  0  0  0  0  0  0  0
    0.3146    3.8790   -2.7328 H   0  0  0  0  0  0  0  0  0  0  0  0
   -0.6177    4.1467   -5.0197 H   0  0  0  0  0  0  0  0  0  0  0  0
   -2.7407    3.0075   -5.6198 H   0  0  0  0  0  0  0  0  0  0  0  0
   -3.8483    1.5388   -4.0081 H   0  0  0  0  0  0  0  0  0  0  0  0
   -1.7277    0.4298    2.1938 H   0  0  0  0  0  0  0  0  0  0  0  0
    0.6563    0.3781    2.8305 H   0  0  0  0  0  0  0  0  0  0  0  0
  1  2  1  0  0  0  0
  1 30  2  0  0  0  0
  1 31  1  0  0  0  0
  2  3  2  0  0  0  0
  2 32  1  0  0  0  0
  3  4  1  0  0  0  0
  3 33  1  0  0  0  0
  4  5  1  0  0  0  0
  4 29  2  0  0  0  0
  5  6  1  0  0  0  0
  5 22  2  0  0  0  0
  6  7  1  0  0  0  0
  7  8  1  0  0  0  0
  7 21  2  0  0  0  0
  8  9  2  0  0  0  0
  9 10  1  0  0  0  0
  9 34  1  0  0  0  0
 10 11  2  0  0  0  0
 11 12  1  0  0  0  0
 11 21  1  0  0  0  0
 12 13  1  0  0  0  0
 12 35  1  0  0  0  0
 13 14  1  0  0  0  0
 13 36  1  0  0  0  0
 13 37  1  0  0  0  0
 14 15  1  0  0  0  0
 14 38  1  0  0  0  0
 14 39  1  0  0  0  0
 15 16  1  0  0  0  0
 15 20  1  0  0  0  0
 16 17  1  0  0  0  0
 16 40  1  0  0  0  0
 16 41  1  0  0  0  0
 17 18  1  0  0  0  0
 17 42  1  0  0  0  0
 17 43  1  0  0  0  0
 18 19  1  0  0  0  0
 18 44  1  0  0  0  0
 19 20  1  0  0  0  0
 19 45  1  0  0  0  0
 19 46  1  0  0  0  0
 20 47  1  0  0  0  0
 20 48  1  0  0  0  0
 21 22  1  0  0  0  0
 22 23  1  0  0  0  0
 23 24  1  0  0  0  0
 23 28  2  0  0  0  0
 24 25  2  0  0  0  0
 24 49  1  0  0  0  0
 25 26  1  0  0  0  0
 25 50  1  0  0  0  0
 26 27  2  0  0  0  0
 26 51  1  0  0  0  0
 27 28  1  0  0  0  0
 27 52  1  0  0  0  0
 28 53  1  0  0  0  0
 29 30  1  0  0  0  0
 29 54  1  0  0  0  0
 30 55  1  0  0  0  0
M  END
$$$$
