CHEMBL3977904
 OpenBabel04072215373D

 63 67  0  0  0  0  0  0  0  0999 V2000
    0.8880    0.1949    0.0494 C   0  0  0  0  0  0  0  0  0  0  0  0
    2.0841    0.8751   -0.3850 O   0  0  0  0  0  0  0  0  0  0  0  0
    2.8829    1.3980    0.5981 C   0  0  0  0  0  0  0  0  0  0  0  0
    2.5332    1.4608    1.9380 C   0  0  0  0  0  0  0  0  0  0  0  0
    3.4427    1.9898    2.8601 C   0  0  0  0  0  0  0  0  0  0  0  0
    3.2213    2.0600    4.2121 O   0  0  0  0  0  0  0  0  0  0  0  0
    2.0611    1.3839    4.6850 C   0  0  0  0  0  0  0  0  0  0  0  0
    4.6891    2.5051    2.4556 C   0  0  0  0  0  0  0  0  0  0  0  0
    5.1086    2.3967    1.1172 C   0  0  0  0  0  0  0  0  0  0  0  0
    6.4246    2.7870    0.7336 N   0  0  0  0  0  0  0  0  0  0  0  0
    6.8851    2.1057   -0.5974 C   0  0  0  0  0  0  0  0  0  0  0  0
    6.6534    2.6506   -2.0299 C   0  0  0  0  0  0  0  0  0  0  0  0
    7.3854    3.5333   -2.6903 N   0  0  0  0  0  0  0  0  0  0  0  0
    7.1123    3.3776   -4.0377 N   0  0  0  0  0  0  0  0  0  0  0  0
    6.2162    2.4249   -4.1429 C   0  0  0  0  0  0  0  0  0  0  0  0
    5.7007    1.8313   -5.2395 N   0  0  0  0  0  0  0  0  0  0  0  0
    6.3700    1.9077   -6.5418 C   0  0  0  0  0  0  0  0  0  0  0  0
    7.6547    1.0633   -6.5662 C   0  0  0  0  0  0  0  0  0  0  0  0
    7.3593   -0.2958   -6.2417 O   0  0  0  0  0  0  0  0  0  0  0  0
    5.8533    1.9210   -2.9086 O   0  0  0  0  0  0  0  0  0  0  0  0
    7.4425    3.6397    1.3341 C   0  0  0  0  0  0  0  0  0  0  0  0
    7.9627    4.4785    0.3954 C   0  0  0  0  0  0  0  0  0  0  0  0
    9.1933    5.0308    0.5787 C   0  0  0  0  0  0  0  0  0  0  0  0
    9.8866    5.0464    1.7256 C   0  0  0  0  0  0  0  0  0  0  0  0
   10.9960    5.5970    1.3290 N   0  0  0  0  0  0  0  0  0  0  0  0
   11.7268    6.1898    2.2189 C   0  0  0  0  0  0  0  0  0  0  0  0
   11.5476    6.0983    3.5694 C   0  0  0  0  0  0  0  0  0  0  0  0
   12.7549    6.7910    4.2125 C   0  0  0  0  0  0  0  0  0  0  0  0
   12.9576    8.1419    4.6885 C   0  0  0  0  0  0  0  0  0  0  0  0
   14.2008    8.6379    4.4902 N   0  0  0  0  0  0  0  0  0  0  0  0
   14.8255    7.6806    3.7964 N   0  0  0  0  0  0  0  0  0  0  0  0
   16.1518    7.8865    3.2355 C   0  0  0  0  0  0  0  0  0  0  0  0
   14.0251    6.5784    3.6228 C   0  0  0  0  0  0  0  0  0  0  0  0
   10.4361    5.3137    4.0106 N   0  0  0  0  0  0  0  0  0  0  0  0
    9.4278    4.7010    2.9883 C   0  0  0  0  0  0  0  0  0  0  0  0
    8.0708    3.8284    2.6657 C   0  0  0  0  0  0  0  0  0  0  0  0
    4.1442    1.8836    0.2054 C   0  0  0  0  0  0  0  0  0  0  0  0
    0.4402   -0.3206   -0.8071 H   0  0  0  0  0  0  0  0  0  0  0  0
    0.1478    0.9081    0.4302 H   0  0  0  0  0  0  0  0  0  0  0  0
    1.1120   -0.5709    0.8019 H   0  0  0  0  0  0  0  0  0  0  0  0
    1.5713    1.1063    2.2619 H   0  0  0  0  0  0  0  0  0  0  0  0
    2.0802    1.4120    5.7759 H   0  0  0  0  0  0  0  0  0  0  0  0
    2.0539    0.3306    4.3786 H   0  0  0  0  0  0  0  0  0  0  0  0
    1.1550    1.8974    4.3464 H   0  0  0  0  0  0  0  0  0  0  0  0
    5.3508    2.8961    3.1973 H   0  0  0  0  0  0  0  0  0  0  0  0
    6.5255    1.0669   -0.5969 H   0  0  0  0  0  0  0  0  0  0  0  0
    7.9757    1.9846   -0.5316 H   0  0  0  0  0  0  0  0  0  0  0  0
    4.8695    1.2553   -5.1846 H   0  0  0  0  0  0  0  0  0  0  0  0
    6.5883    2.9429   -6.8275 H   0  0  0  0  0  0  0  0  0  0  0  0
    5.6864    1.5023   -7.3008 H   0  0  0  0  0  0  0  0  0  0  0  0
    8.3935    1.4339   -5.8493 H   0  0  0  0  0  0  0  0  0  0  0  0
    8.1119    1.0769   -7.5616 H   0  0  0  0  0  0  0  0  0  0  0  0
    6.9026   -0.2647   -5.3818 H   0  0  0  0  0  0  0  0  0  0  0  0
    7.5141    4.6460   -0.5688 H   0  0  0  0  0  0  0  0  0  0  0  0
    9.5883    5.5837   -0.2645 H   0  0  0  0  0  0  0  0  0  0  0  0
   12.5203    6.7610    1.7564 H   0  0  0  0  0  0  0  0  0  0  0  0
   12.2423    8.8424    5.1034 H   0  0  0  0  0  0  0  0  0  0  0  0
   16.5333    8.8838    3.4795 H   0  0  0  0  0  0  0  0  0  0  0  0
   16.1217    7.7763    2.1445 H   0  0  0  0  0  0  0  0  0  0  0  0
   16.8190    7.1299    3.6566 H   0  0  0  0  0  0  0  0  0  0  0  0
   14.3494    5.8212    2.9228 H   0  0  0  0  0  0  0  0  0  0  0  0
    7.6125    3.3340    3.5301 H   0  0  0  0  0  0  0  0  0  0  0  0
    4.3248    1.8599   -0.8720 H   0  0  0  0  0  0  0  0  0  0  0  0
  1  2  1  0  0  0  0
  1 38  1  0  0  0  0
  1 39  1  0  0  0  0
  1 40  1  0  0  0  0
  2  3  1  0  0  0  0
  3  4  1  0  0  0  0
  3 37  2  0  0  0  0
  4  5  2  0  0  0  0
  4 41  1  0  0  0  0
  5  6  1  0  0  0  0
  5  8  1  0  0  0  0
  6  7  1  0  0  0  0
  7 42  1  0  0  0  0
  7 43  1  0  0  0  0
  7 44  1  0  0  0  0
  8  9  2  0  0  0  0
  8 45  1  0  0  0  0
  9 10  1  0  0  0  0
  9 37  1  0  0  0  0
 10 11  1  0  0  0  0
 10 21  1  0  0  0  0
 11 12  1  0  0  0  0
 11 46  1  0  0  0  0
 11 47  1  0  0  0  0
 12 13  2  0  0  0  0
 12 20  1  0  0  0  0
 13 14  1  0  0  0  0
 14 15  2  0  0  0  0
 15 16  1  0  0  0  0
 15 20  1  0  0  0  0
 16 17  1  0  0  0  0
 16 48  1  0  0  0  0
 17 18  1  0  0  0  0
 17 49  1  0  0  0  0
 17 50  1  0  0  0  0
 18 19  1  0  0  0  0
 18 51  1  0  0  0  0
 18 52  1  0  0  0  0
 19 53  1  0  0  0  0
 21 22  1  0  0  0  0
 21 36  2  0  0  0  0
 22 23  2  0  0  0  0
 22 54  1  0  0  0  0
 23 24  1  0  0  0  0
 23 55  1  0  0  0  0
 24 25  1  0  0  0  0
 24 35  2  0  0  0  0
 25 26  2  0  0  0  0
 26 27  1  0  0  0  0
 26 56  1  0  0  0  0
 27 28  1  0  0  0  0
 27 34  2  0  0  0  0
 28 29  1  0  0  0  0
 28 33  2  0  0  0  0
 29 30  2  0  0  0  0
 29 57  1  0  0  0  0
 30 31  1  0  0  0  0
 31 32  1  0  0  0  0
 31 33  1  0  0  0  0
 32 58  1  0  0  0  0
 32 59  1  0  0  0  0
 32 60  1  0  0  0  0
 33 61  1  0  0  0  0
 34 35  1  0  0  0  0
 35 36  1  0  0  0  0
 36 62  1  0  0  0  0
 37 63  1  0  0  0  0
M  END
$$$$
