CHEMBL3321911
 OpenBabel04072215363D

 41 45  0  0  0  0  0  0  0  0999 V2000
   -2.5064    0.8309   -1.0764 Cl  0  0  0  0  0  0  0  0  0  0  0  0
   -1.1299   -0.0257   -0.4995 C   0  0  0  0  0  0  0  0  0  0  0  0
   -0.0338    0.6787   -0.0102 C   0  0  0  0  0  0  0  0  0  0  0  0
    1.0664   -0.0247    0.4696 C   0  0  0  0  0  0  0  0  0  0  0  0
    2.4285    0.8324    1.0769 Cl  0  0  0  0  0  0  0  0  0  0  0  0
    1.0740   -1.4188    0.4614 C   0  0  0  0  0  0  0  0  0  0  0  0
   -0.0228   -2.1306   -0.0448 C   0  0  0  0  0  0  0  0  0  0  0  0
    0.0071   -3.5903   -0.0288 C   0  0  0  0  0  0  0  0  0  0  0  0
    0.6435   -4.3323    0.8562 N   0  0  0  0  0  0  0  0  0  0  0  0
    0.4024   -5.6339    0.5029 C   0  0  0  0  0  0  0  0  0  0  0  0
    0.8176   -6.8151    1.1205 C   0  0  0  0  0  0  0  0  0  0  0  0
    0.4304   -8.0339    0.5475 C   0  0  0  0  0  0  0  0  0  0  0  0
   -0.3325   -8.1004   -0.6331 C   0  0  0  0  0  0  0  0  0  0  0  0
   -0.7799   -9.3461   -1.1481 N   0  0  0  0  0  0  0  0  0  0  0  0
   -0.0864  -10.5769   -1.0152 C   0  0  0  0  0  0  0  0  0  0  0  0
    1.2556  -10.5279   -0.9359 N   0  0  0  0  0  0  0  0  0  0  0  0
    1.8923  -11.6868   -0.7752 C   0  0  0  0  0  0  0  0  0  0  0  0
    1.3255  -12.8889   -0.6797 N   0  0  0  0  0  0  0  0  0  0  0  0
   -0.0072  -12.9331   -0.7743 C   0  0  0  0  0  0  0  0  0  0  0  0
   -0.6301  -14.1669   -0.6457 C   0  0  0  0  0  0  0  0  0  0  0  0
   -2.0165  -14.3092   -0.7298 C   0  0  0  0  0  0  0  0  0  0  0  0
   -2.8089  -13.1923   -0.9595 C   0  0  0  0  0  0  0  0  0  0  0  0
   -2.2090  -11.9385   -1.0824 C   0  0  0  0  0  0  0  0  0  0  0  0
   -0.7967  -11.7947   -0.9805 C   0  0  0  0  0  0  0  0  0  0  0  0
   -0.7788   -6.9081   -1.2316 C   0  0  0  0  0  0  0  0  0  0  0  0
   -0.3803   -5.7026   -0.6410 C   0  0  0  0  0  0  0  0  0  0  0  0
   -0.6101   -4.3906   -0.9639 N   0  0  0  0  0  0  0  0  0  0  0  0
   -1.1311   -1.4214   -0.5235 C   0  0  0  0  0  0  0  0  0  0  0  0
   -0.0387    1.7650    0.0042 H   0  0  0  0  0  0  0  0  0  0  0  0
    1.9355   -1.9614    0.8505 H   0  0  0  0  0  0  0  0  0  0  0  0
    1.4166   -6.7843    2.0231 H   0  0  0  0  0  0  0  0  0  0  0  0
    0.7442   -8.9474    1.0476 H   0  0  0  0  0  0  0  0  0  0  0  0
   -1.1362   -9.2739   -2.0941 H   0  0  0  0  0  0  0  0  0  0  0  0
    2.9761  -11.6412   -0.7125 H   0  0  0  0  0  0  0  0  0  0  0  0
   -0.0160  -15.0461   -0.4608 H   0  0  0  0  0  0  0  0  0  0  0  0
   -2.4677  -15.2909   -0.6111 H   0  0  0  0  0  0  0  0  0  0  0  0
   -3.8890  -13.2965   -1.0268 H   0  0  0  0  0  0  0  0  0  0  0  0
   -2.8416  -11.0670   -1.2380 H   0  0  0  0  0  0  0  0  0  0  0  0
   -1.4007   -6.9169   -2.1192 H   0  0  0  0  0  0  0  0  0  0  0  0
   -1.1247   -4.0640   -1.7673 H   0  0  0  0  0  0  0  0  0  0  0  0
   -2.0115   -1.9440   -0.8874 H   0  0  0  0  0  0  0  0  0  0  0  0
  1  2  1  0  0  0  0
  2  3  1  0  0  0  0
  2 28  2  0  0  0  0
  3  4  2  0  0  0  0
  3 29  1  0  0  0  0
  4  5  1  0  0  0  0
  4  6  1  0  0  0  0
  6  7  2  0  0  0  0
  6 30  1  0  0  0  0
  7  8  1  0  0  0  0
  7 28  1  0  0  0  0
  8  9  2  0  0  0  0
  8 27  1  0  0  0  0
  9 10  1  0  0  0  0
 10 11  1  0  0  0  0
 10 26  2  0  0  0  0
 11 12  2  0  0  0  0
 11 31  1  0  0  0  0
 12 13  1  0  0  0  0
 12 32  1  0  0  0  0
 13 14  1  0  0  0  0
 13 25  2  0  0  0  0
 14 15  1  0  0  0  0
 14 33  1  0  0  0  0
 15 16  1  0  0  0  0
 15 24  2  0  0  0  0
 16 17  2  0  0  0  0
 17 18  1  0  0  0  0
 17 34  1  0  0  0  0
 18 19  2  0  0  0  0
 19 20  1  0  0  0  0
 19 24  1  0  0  0  0
 20 21  2  0  0  0  0
 20 35  1  0  0  0  0
 21 22  1  0  0  0  0
 21 36  1  0  0  0  0
 22 23  2  0  0  0  0
 22 37  1  0  0  0  0
 23 24  1  0  0  0  0
 23 38  1  0  0  0  0
 25 26  1  0  0  0  0
 25 39  1  0  0  0  0
 26 27  1  0  0  0  0
 27 40  1  0  0  0  0
 28 41  1  0  0  0  0
M  END
$$$$
