CHEMBL4520103
 OpenBabel04072215383D

 52 55  0  0  0  0  0  0  0  0999 V2000
    2.0198   -1.9840   -3.2728 C   0  0  0  0  0  0  0  0  0  0  0  0
    3.3296   -1.8653   -2.7364 O   0  0  0  0  0  0  0  0  0  0  0  0
    3.4402   -1.8761   -1.3730 C   0  0  0  0  0  0  0  0  0  0  0  0
    2.3917   -1.7895   -0.4591 C   0  0  0  0  0  0  0  0  0  0  0  0
    2.6539   -1.8366    0.9136 C   0  0  0  0  0  0  0  0  0  0  0  0
    3.9612   -1.9869    1.3791 C   0  0  0  0  0  0  0  0  0  0  0  0
    5.0168   -2.0757    0.4655 C   0  0  0  0  0  0  0  0  0  0  0  0
    6.3419   -2.2855    0.9280 N   0  0  0  0  0  0  0  0  0  0  0  0
    7.4859   -2.3240    0.1691 C   0  0  0  0  0  0  0  0  0  0  0  0
    8.5331   -2.5964    1.0066 C   0  0  0  0  0  0  0  0  0  0  0  0
    9.8707   -2.7083    0.6798 N   0  0  0  0  0  0  0  0  0  0  0  0
   10.3730   -2.5743   -0.6072 C   0  0  0  0  0  0  0  0  0  0  0  0
    9.7308   -2.3433   -1.6234 O   0  0  0  0  0  0  0  0  0  0  0  0
   11.8485   -2.6920   -0.7251 C   0  0  0  0  0  0  0  0  0  0  0  0
   12.4971   -1.9882   -1.7497 C   0  0  0  0  0  0  0  0  0  0  0  0
   13.8897   -2.0240   -1.8477 C   0  0  0  0  0  0  0  0  0  0  0  0
   14.6303   -2.7495   -0.9143 C   0  0  0  0  0  0  0  0  0  0  0  0
   13.9794   -3.4830    0.0760 C   0  0  0  0  0  0  0  0  0  0  0  0
   14.7355   -4.1982    1.0390 N   0  0  0  0  0  0  0  0  0  0  0  0
   15.2879   -3.3881    2.4165 S   0  0  0  0  0  0  0  0  0  0  0  0
   15.9578   -4.3849    3.2247 O   0  0  0  0  0  0  0  0  0  0  0  0
   15.9527   -2.1678    2.0177 O   0  0  0  0  0  0  0  0  0  0  0  0
   13.7887   -2.9402    3.2786 C   0  0  0  0  0  0  0  0  0  0  0  0
   13.2429   -3.8232    4.2175 C   0  0  0  0  0  0  0  0  0  0  0  0
   12.1237   -3.4403    4.9592 C   0  0  0  0  0  0  0  0  0  0  0  0
   11.5543   -2.1807    4.7664 C   0  0  0  0  0  0  0  0  0  0  0  0
   12.1039   -1.2982    3.8348 C   0  0  0  0  0  0  0  0  0  0  0  0
   13.2280   -1.6709    3.0937 C   0  0  0  0  0  0  0  0  0  0  0  0
   12.5913   -3.4745    0.1642 C   0  0  0  0  0  0  0  0  0  0  0  0
    7.9335   -2.7251    2.2728 C   0  0  0  0  0  0  0  0  0  0  0  0
    6.6151   -2.5150    2.2429 N   0  0  0  0  0  0  0  0  0  0  0  0
    4.7506   -1.9928   -0.9085 C   0  0  0  0  0  0  0  0  0  0  0  0
    2.1147   -2.1322   -4.3529 H   0  0  0  0  0  0  0  0  0  0  0  0
    1.4526   -1.0635   -3.1060 H   0  0  0  0  0  0  0  0  0  0  0  0
    1.4945   -2.8542   -2.8651 H   0  0  0  0  0  0  0  0  0  0  0  0
    1.3618   -1.6862   -0.7821 H   0  0  0  0  0  0  0  0  0  0  0  0
    1.8340   -1.7669    1.6241 H   0  0  0  0  0  0  0  0  0  0  0  0
    4.1418   -2.0333    2.4513 H   0  0  0  0  0  0  0  0  0  0  0  0
    7.4708   -2.1419   -0.8934 H   0  0  0  0  0  0  0  0  0  0  0  0
   10.5009   -2.8256    1.4616 H   0  0  0  0  0  0  0  0  0  0  0  0
   11.9207   -1.4013   -2.4645 H   0  0  0  0  0  0  0  0  0  0  0  0
   14.3915   -1.4774   -2.6425 H   0  0  0  0  0  0  0  0  0  0  0  0
   15.7158   -2.7593   -0.9819 H   0  0  0  0  0  0  0  0  0  0  0  0
   14.4838   -5.1674    1.2260 H   0  0  0  0  0  0  0  0  0  0  0  0
   13.7029   -4.7910    4.4061 H   0  0  0  0  0  0  0  0  0  0  0  0
   11.7125   -4.1105    5.7121 H   0  0  0  0  0  0  0  0  0  0  0  0
   10.7000   -1.8732    5.3677 H   0  0  0  0  0  0  0  0  0  0  0  0
   11.6747   -0.3052    3.7117 H   0  0  0  0  0  0  0  0  0  0  0  0
   13.6716   -0.9639    2.3960 H   0  0  0  0  0  0  0  0  0  0  0  0
   12.1013   -4.0758    0.9231 H   0  0  0  0  0  0  0  0  0  0  0  0
    8.3990   -2.9612    3.2207 H   0  0  0  0  0  0  0  0  0  0  0  0
    5.5372   -2.0518   -1.6547 H   0  0  0  0  0  0  0  0  0  0  0  0
  1  2  1  0  0  0  0
  1 33  1  0  0  0  0
  1 34  1  0  0  0  0
  1 35  1  0  0  0  0
  2  3  1  0  0  0  0
  3  4  1  0  0  0  0
  3 32  2  0  0  0  0
  4  5  2  0  0  0  0
  4 36  1  0  0  0  0
  5  6  1  0  0  0  0
  5 37  1  0  0  0  0
  6  7  2  0  0  0  0
  6 38  1  0  0  0  0
  7  8  1  0  0  0  0
  7 32  1  0  0  0  0
  8  9  1  0  0  0  0
  8 31  1  0  0  0  0
  9 10  2  0  0  0  0
  9 39  1  0  0  0  0
 10 11  1  0  0  0  0
 10 30  1  0  0  0  0
 11 12  1  0  0  0  0
 11 40  1  0  0  0  0
 12 13  2  0  0  0  0
 12 14  1  0  0  0  0
 14 15  1  0  0  0  0
 14 29  2  0  0  0  0
 15 16  2  0  0  0  0
 15 41  1  0  0  0  0
 16 17  1  0  0  0  0
 16 42  1  0  0  0  0
 17 18  2  0  0  0  0
 17 43  1  0  0  0  0
 18 19  1  0  0  0  0
 18 29  1  0  0  0  0
 19 20  1  0  0  0  0
 19 44  1  0  0  0  0
 20 21  2  0  0  0  0
 20 22  2  0  0  0  0
 20 23  1  0  0  0  0
 23 24  1  0  0  0  0
 23 28  2  0  0  0  0
 24 25  2  0  0  0  0
 24 45  1  0  0  0  0
 25 26  1  0  0  0  0
 25 46  1  0  0  0  0
 26 27  2  0  0  0  0
 26 47  1  0  0  0  0
 27 28  1  0  0  0  0
 27 48  1  0  0  0  0
 28 49  1  0  0  0  0
 29 50  1  0  0  0  0
 30 31  2  0  0  0  0
 30 51  1  0  0  0  0
 32 52  1  0  0  0  0
M  END
$$$$
