CHEMBL3892076
 OpenBabel04072215373D

 74 79  0  0  0  0  0  0  0  0999 V2000
    3.2296    6.5827    1.1508 C   0  0  0  0  0  0  0  0  0  0  0  0
    1.8876    6.7372    0.4916 C   0  0  0  0  0  0  0  0  0  0  0  0
    1.6155    7.8925   -0.2515 C   0  0  0  0  0  0  0  0  0  0  0  0
    0.3903    8.0392   -0.8830 C   0  0  0  0  0  0  0  0  0  0  0  0
   -0.5819    7.0468   -0.7681 C   0  0  0  0  0  0  0  0  0  0  0  0
   -1.6779    7.2034   -1.5224 F   0  0  0  0  0  0  0  0  0  0  0  0
   -0.3735    5.9039    0.0104 C   0  0  0  0  0  0  0  0  0  0  0  0
   -1.3510    4.8836    0.2119 N   0  0  0  0  0  0  0  0  0  0  0  0
   -2.7271    5.0514    0.0634 C   0  0  0  0  0  0  0  0  0  0  0  0
   -3.2953    6.1186   -0.1457 O   0  0  0  0  0  0  0  0  0  0  0  0
   -3.4152    3.8600    0.2568 N   0  0  0  0  0  0  0  0  0  0  0  0
   -4.8360    3.7867    0.0620 C   0  0  0  0  0  0  0  0  0  0  0  0
   -5.5810    3.3559    1.1464 C   0  0  0  0  0  0  0  0  0  0  0  0
   -6.9632    3.2275    1.0394 C   0  0  0  0  0  0  0  0  0  0  0  0
   -7.6806    3.6458   -0.0954 C   0  0  0  0  0  0  0  0  0  0  0  0
   -9.1784    3.5399   -0.0744 C   0  0  0  0  0  0  0  0  0  0  0  0
   -9.8847    3.0290   -1.1949 C   0  0  0  0  0  0  0  0  0  0  0  0
  -11.2729    3.0012   -1.2755 C   0  0  0  0  0  0  0  0  0  0  0  0
  -12.0516    3.3877   -0.1953 C   0  0  0  0  0  0  0  0  0  0  0  0
  -13.4152    3.2735   -0.3981 O   0  0  0  0  0  0  0  0  0  0  0  0
  -14.2254    4.1483    0.3760 C   0  0  0  0  0  0  0  0  0  0  0  0
  -15.5113    4.4512   -0.3803 C   0  0  0  0  0  0  0  0  0  0  0  0
  -16.4119    5.3175    0.5051 C   0  0  0  0  0  0  0  0  0  0  0  0
  -17.6718    5.7081   -0.1385 N   0  0  0  0  0  0  0  0  0  0  0  0
  -18.4456    6.6059    0.7399 C   0  0  0  0  0  0  0  0  0  0  0  0
  -19.2592    5.6764    1.6190 C   0  0  0  0  0  0  0  0  0  0  0  0
  -19.6544    4.5726    0.6599 C   0  0  0  0  0  0  0  0  0  0  0  0
  -18.5593    4.5605   -0.4002 C   0  0  0  0  0  0  0  0  0  0  0  0
  -11.3787    3.7532    0.9810 C   0  0  0  0  0  0  0  0  0  0  0  0
  -11.8463    4.0342    2.2350 N   0  0  0  0  0  0  0  0  0  0  0  0
  -10.9195    4.3965    3.1168 N   0  0  0  0  0  0  0  0  0  0  0  0
   -9.7875    4.3237    2.4289 C   0  0  0  0  0  0  0  0  0  0  0  0
   -8.6313    4.6264    3.0378 N   0  0  0  0  0  0  0  0  0  0  0  0
   -9.9794    3.8745    1.0720 C   0  0  0  0  0  0  0  0  0  0  0  0
   -6.9090    4.0773   -1.2392 C   0  0  0  0  0  0  0  0  0  0  0  0
   -7.4876    4.4667   -2.4810 C   0  0  0  0  0  0  0  0  0  0  0  0
   -6.7399    4.6790   -3.6395 C   0  0  0  0  0  0  0  0  0  0  0  0
   -5.3639    4.6130   -3.5779 C   0  0  0  0  0  0  0  0  0  0  0  0
   -4.7433    4.3594   -2.3543 C   0  0  0  0  0  0  0  0  0  0  0  0
   -5.4790    4.0938   -1.1682 C   0  0  0  0  0  0  0  0  0  0  0  0
    0.8909    5.7430    0.6137 C   0  0  0  0  0  0  0  0  0  0  0  0
    3.8790    7.4396    0.9338 H   0  0  0  0  0  0  0  0  0  0  0  0
    3.7372    5.6865    0.7816 H   0  0  0  0  0  0  0  0  0  0  0  0
    3.1177    6.5224    2.2375 H   0  0  0  0  0  0  0  0  0  0  0  0
    2.3636    8.6772   -0.3525 H   0  0  0  0  0  0  0  0  0  0  0  0
    0.1778    8.9164   -1.4861 H   0  0  0  0  0  0  0  0  0  0  0  0
   -1.0373    4.0234    0.6280 H   0  0  0  0  0  0  0  0  0  0  0  0
   -3.0781    3.3570    1.0612 H   0  0  0  0  0  0  0  0  0  0  0  0
   -5.1140    3.1361    2.1021 H   0  0  0  0  0  0  0  0  0  0  0  0
   -7.4896    2.8039    1.8931 H   0  0  0  0  0  0  0  0  0  0  0  0
   -9.3390    2.6487   -2.0571 H   0  0  0  0  0  0  0  0  0  0  0  0
  -11.7534    2.6718   -2.1943 H   0  0  0  0  0  0  0  0  0  0  0  0
  -13.7170    5.0957    0.5892 H   0  0  0  0  0  0  0  0  0  0  0  0
  -14.4760    3.6369    1.3123 H   0  0  0  0  0  0  0  0  0  0  0  0
  -15.9860    3.5040   -0.6569 H   0  0  0  0  0  0  0  0  0  0  0  0
  -15.2794    4.9622   -1.3227 H   0  0  0  0  0  0  0  0  0  0  0  0
  -15.8511    6.2309    0.7470 H   0  0  0  0  0  0  0  0  0  0  0  0
  -16.5937    4.7993    1.4552 H   0  0  0  0  0  0  0  0  0  0  0  0
  -19.1148    7.2148    0.1194 H   0  0  0  0  0  0  0  0  0  0  0  0
  -17.8255    7.2984    1.3197 H   0  0  0  0  0  0  0  0  0  0  0  0
  -20.1271    6.1670    2.0673 H   0  0  0  0  0  0  0  0  0  0  0  0
  -18.6443    5.2694    2.4312 H   0  0  0  0  0  0  0  0  0  0  0  0
  -20.6186    4.8047    0.1939 H   0  0  0  0  0  0  0  0  0  0  0  0
  -19.7433    3.6088    1.1705 H   0  0  0  0  0  0  0  0  0  0  0  0
  -19.0012    4.6762   -1.3964 H   0  0  0  0  0  0  0  0  0  0  0  0
  -18.0504    3.5926   -0.3990 H   0  0  0  0  0  0  0  0  0  0  0  0
  -12.8030    4.0009    2.5598 H   0  0  0  0  0  0  0  0  0  0  0  0
   -8.7129    5.0103    3.9726 H   0  0  0  0  0  0  0  0  0  0  0  0
   -7.8669    5.0252    2.5052 H   0  0  0  0  0  0  0  0  0  0  0  0
   -8.5609    4.5940   -2.5868 H   0  0  0  0  0  0  0  0  0  0  0  0
   -7.2409    4.8920   -4.5803 H   0  0  0  0  0  0  0  0  0  0  0  0
   -4.7645    4.7804   -4.4680 H   0  0  0  0  0  0  0  0  0  0  0  0
   -3.6596    4.3508   -2.3406 H   0  0  0  0  0  0  0  0  0  0  0  0
    1.1092    4.8576    1.2067 H   0  0  0  0  0  0  0  0  0  0  0  0
  1  2  1  0  0  0  0
  1 42  1  0  0  0  0
  1 43  1  0  0  0  0
  1 44  1  0  0  0  0
  2  3  1  0  0  0  0
  2 41  2  0  0  0  0
  3  4  2  0  0  0  0
  3 45  1  0  0  0  0
  4  5  1  0  0  0  0
  4 46  1  0  0  0  0
  5  6  1  0  0  0  0
  5  7  2  0  0  0  0
  7  8  1  0  0  0  0
  7 41  1  0  0  0  0
  8  9  1  0  0  0  0
  8 47  1  0  0  0  0
  9 10  2  0  0  0  0
  9 11  1  0  0  0  0
 11 12  1  0  0  0  0
 11 48  1  0  0  0  0
 12 13  1  0  0  0  0
 12 40  2  0  0  0  0
 13 14  2  0  0  0  0
 13 49  1  0  0  0  0
 14 15  1  0  0  0  0
 14 50  1  0  0  0  0
 15 16  1  0  0  0  0
 15 35  2  0  0  0  0
 16 17  1  0  0  0  0
 16 34  2  0  0  0  0
 17 18  2  0  0  0  0
 17 51  1  0  0  0  0
 18 19  1  0  0  0  0
 18 52  1  0  0  0  0
 19 20  1  0  0  0  0
 19 29  2  0  0  0  0
 20 21  1  0  0  0  0
 21 22  1  0  0  0  0
 21 53  1  0  0  0  0
 21 54  1  0  0  0  0
 22 23  1  0  0  0  0
 22 55  1  0  0  0  0
 22 56  1  0  0  0  0
 23 24  1  0  0  0  0
 23 57  1  0  0  0  0
 23 58  1  0  0  0  0
 24 25  1  0  0  0  0
 24 28  1  0  0  0  0
 25 26  1  0  0  0  0
 25 59  1  0  0  0  0
 25 60  1  0  0  0  0
 26 27  1  0  0  0  0
 26 61  1  0  0  0  0
 26 62  1  0  0  0  0
 27 28  1  0  0  0  0
 27 63  1  0  0  0  0
 27 64  1  0  0  0  0
 28 65  1  0  0  0  0
 28 66  1  0  0  0  0
 29 30  1  0  0  0  0
 29 34  1  0  0  0  0
 30 31  1  0  0  0  0
 30 67  1  0  0  0  0
 31 32  2  0  0  0  0
 32 33  1  0  0  0  0
 32 34  1  0  0  0  0
 33 68  1  0  0  0  0
 33 69  1  0  0  0  0
 35 36  1  0  0  0  0
 35 40  1  0  0  0  0
 36 37  2  0  0  0  0
 36 70  1  0  0  0  0
 37 38  1  0  0  0  0
 37 71  1  0  0  0  0
 38 39  2  0  0  0  0
 38 72  1  0  0  0  0
 39 40  1  0  0  0  0
 39 73  1  0  0  0  0
 41 74  1  0  0  0  0
M  END
$$$$
