CHEMBL1241490
 OpenBabel04072215363D

 37 40  0  0  0  0  0  0  0  0999 V2000
    1.2788    0.9584    0.4125 C   0  0  0  0  0  0  0  0  0  0  0  0
    2.4591    0.0088    0.2115 C   0  0  0  0  0  0  0  0  0  0  0  0
    3.5937    0.6945   -0.5523 C   0  0  0  0  0  0  0  0  0  0  0  0
    2.9137   -0.5482    1.4784 N   0  0  0  0  0  0  0  0  0  0  0  0
    3.4164    0.2588    2.4383 N   0  0  0  0  0  0  0  0  0  0  0  0
    3.7167   -0.5701    3.4581 C   0  0  0  0  0  0  0  0  0  0  0  0
    4.3505   -0.0279    4.6691 C   0  0  0  0  0  0  0  0  0  0  0  0
    5.2741   -0.7897    5.4033 C   0  0  0  0  0  0  0  0  0  0  0  0
    5.8763   -0.3083    6.5725 C   0  0  0  0  0  0  0  0  0  0  0  0
    5.5791    1.0023    6.9234 C   0  0  0  0  0  0  0  0  0  0  0  0
    6.1077    1.6739    7.9822 O   0  0  0  0  0  0  0  0  0  0  0  0
    5.6083    2.9362    7.9363 C   0  0  0  0  0  0  0  0  0  0  0  0
    4.7418    3.0768    6.8761 C   0  0  0  0  0  0  0  0  0  0  0  0
    4.7131    1.8222    6.2112 C   0  0  0  0  0  0  0  0  0  0  0  0
    4.0678    1.2938    5.0764 C   0  0  0  0  0  0  0  0  0  0  0  0
    3.3440   -1.9203    3.1500 C   0  0  0  0  0  0  0  0  0  0  0  0
    3.3319   -3.1868    3.7576 C   0  0  0  0  0  0  0  0  0  0  0  0
    3.6970   -3.4558    5.0688 N   0  0  0  0  0  0  0  0  0  0  0  0
    2.9148   -4.2494    3.0387 N   0  0  0  0  0  0  0  0  0  0  0  0
    2.5025   -4.0530    1.7737 C   0  0  0  0  0  0  0  0  0  0  0  0
    2.4248   -2.8939    1.1047 N   0  0  0  0  0  0  0  0  0  0  0  0
    2.8626   -1.8639    1.8503 C   0  0  0  0  0  0  0  0  0  0  0  0
    0.9059    1.3244   -0.5501 H   0  0  0  0  0  0  0  0  0  0  0  0
    1.5584    1.8278    1.0176 H   0  0  0  0  0  0  0  0  0  0  0  0
    0.4534    0.4496    0.9223 H   0  0  0  0  0  0  0  0  0  0  0  0
    2.1110   -0.8318   -0.4011 H   0  0  0  0  0  0  0  0  0  0  0  0
    3.9875    1.5573   -0.0042 H   0  0  0  0  0  0  0  0  0  0  0  0
    3.2429    1.0493   -1.5280 H   0  0  0  0  0  0  0  0  0  0  0  0
    4.4239    0.0013   -0.7261 H   0  0  0  0  0  0  0  0  0  0  0  0
    5.5666   -1.7814    5.0635 H   0  0  0  0  0  0  0  0  0  0  0  0
    6.5700   -0.9066    7.1503 H   0  0  0  0  0  0  0  0  0  0  0  0
    5.9656    3.6047    8.7070 H   0  0  0  0  0  0  0  0  0  0  0  0
    4.2133    3.9785    6.6025 H   0  0  0  0  0  0  0  0  0  0  0  0
    3.3822    1.9136    4.5036 H   0  0  0  0  0  0  0  0  0  0  0  0
    3.4654   -2.7247    5.7296 H   0  0  0  0  0  0  0  0  0  0  0  0
    3.3933   -4.3876    5.3307 H   0  0  0  0  0  0  0  0  0  0  0  0
    2.1856   -4.9413    1.2355 H   0  0  0  0  0  0  0  0  0  0  0  0
  1  2  1  0  0  0  0
  1 23  1  0  0  0  0
  1 24  1  0  0  0  0
  1 25  1  0  0  0  0
  2  3  1  0  0  0  0
  2  4  1  0  0  0  0
  2 26  1  0  0  0  0
  3 27  1  0  0  0  0
  3 28  1  0  0  0  0
  3 29  1  0  0  0  0
  4  5  1  0  0  0  0
  4 22  1  0  0  0  0
  5  6  2  0  0  0  0
  6  7  1  0  0  0  0
  6 16  1  0  0  0  0
  7  8  1  0  0  0  0
  7 15  2  0  0  0  0
  8  9  2  0  0  0  0
  8 30  1  0  0  0  0
  9 10  1  0  0  0  0
  9 31  1  0  0  0  0
 10 11  1  0  0  0  0
 10 14  2  0  0  0  0
 11 12  1  0  0  0  0
 12 13  2  0  0  0  0
 12 32  1  0  0  0  0
 13 14  1  0  0  0  0
 13 33  1  0  0  0  0
 14 15  1  0  0  0  0
 15 34  1  0  0  0  0
 16 17  1  0  0  0  0
 16 22  2  0  0  0  0
 17 18  1  0  0  0  0
 17 19  2  0  0  0  0
 18 35  1  0  0  0  0
 18 36  1  0  0  0  0
 19 20  1  0  0  0  0
 20 21  2  0  0  0  0
 20 37  1  0  0  0  0
 21 22  1  0  0  0  0
M  END
$$$$
