CHEMBL2011296
 OpenBabel04072215363D

 43 46  0  0  0  0  0  0  0  0999 V2000
    2.2096   -0.1269   -0.0052 C   0  0  0  0  0  0  0  0  0  0  0  0
    0.7099   -0.0809    0.0445 C   0  0  0  0  0  0  0  0  0  0  0  0
    0.0181    1.0561   -0.3838 C   0  0  0  0  0  0  0  0  0  0  0  0
   -1.3799    1.0763   -0.3850 C   0  0  0  0  0  0  0  0  0  0  0  0
   -2.1092   -0.0308    0.0757 C   0  0  0  0  0  0  0  0  0  0  0  0
   -3.5340    0.0189    0.0367 N   0  0  0  0  0  0  0  0  0  0  0  0
   -4.1341    0.7926   -0.8998 N   0  0  0  0  0  0  0  0  0  0  0  0
   -5.4344    0.4850   -0.8336 C   0  0  0  0  0  0  0  0  0  0  0  0
   -6.3587    1.0116   -1.8484 C   0  0  0  0  0  0  0  0  0  0  0  0
   -7.4630    0.2666   -2.2775 C   0  0  0  0  0  0  0  0  0  0  0  0
   -8.3904    0.8715   -3.1063 C   0  0  0  0  0  0  0  0  0  0  0  0
   -8.2565    2.1246   -3.5873 N   0  0  0  0  0  0  0  0  0  0  0  0
   -7.1403    2.7942   -3.2341 C   0  0  0  0  0  0  0  0  0  0  0  0
   -6.1741    2.2914   -2.3781 C   0  0  0  0  0  0  0  0  0  0  0  0
   -5.7242   -0.3151    0.3267 C   0  0  0  0  0  0  0  0  0  0  0  0
   -7.0238   -0.7224    0.8759 C   0  0  0  0  0  0  0  0  0  0  0  0
   -7.2205   -1.9802    1.4626 C   0  0  0  0  0  0  0  0  0  0  0  0
   -8.5007   -2.4033    1.8429 C   0  0  0  0  0  0  0  0  0  0  0  0
   -9.5994   -1.5888    1.5976 C   0  0  0  0  0  0  0  0  0  0  0  0
  -10.8299   -2.0297    1.8877 F   0  0  0  0  0  0  0  0  0  0  0  0
   -9.4361   -0.3298    1.0459 C   0  0  0  0  0  0  0  0  0  0  0  0
   -8.1483    0.1186    0.7342 C   0  0  0  0  0  0  0  0  0  0  0  0
   -4.4733   -0.6109    0.8676 C   0  0  0  0  0  0  0  0  0  0  0  0
   -4.1406   -1.2878    2.0026 N   0  0  0  0  0  0  0  0  0  0  0  0
   -1.4212   -1.1717    0.5037 C   0  0  0  0  0  0  0  0  0  0  0  0
   -0.0200   -1.1965    0.4773 C   0  0  0  0  0  0  0  0  0  0  0  0
    2.6330    0.8566   -0.2338 H   0  0  0  0  0  0  0  0  0  0  0  0
    2.5388   -0.8259   -0.7807 H   0  0  0  0  0  0  0  0  0  0  0  0
    2.6145   -0.4436    0.9614 H   0  0  0  0  0  0  0  0  0  0  0  0
    0.5591    1.9354   -0.7276 H   0  0  0  0  0  0  0  0  0  0  0  0
   -1.8900    1.9749   -0.7264 H   0  0  0  0  0  0  0  0  0  0  0  0
   -7.6335   -0.7491   -1.9372 H   0  0  0  0  0  0  0  0  0  0  0  0
   -9.3008    0.3539   -3.3955 H   0  0  0  0  0  0  0  0  0  0  0  0
   -7.0397    3.7876   -3.6641 H   0  0  0  0  0  0  0  0  0  0  0  0
   -5.3092    2.8898   -2.1174 H   0  0  0  0  0  0  0  0  0  0  0  0
   -6.3887   -2.6659    1.6013 H   0  0  0  0  0  0  0  0  0  0  0  0
   -8.6498   -3.3765    2.2999 H   0  0  0  0  0  0  0  0  0  0  0  0
  -10.3038    0.2914    0.8423 H   0  0  0  0  0  0  0  0  0  0  0  0
   -8.0509    1.1220    0.3229 H   0  0  0  0  0  0  0  0  0  0  0  0
   -4.8542   -1.4134    2.7206 H   0  0  0  0  0  0  0  0  0  0  0  0
   -3.2288   -1.1312    2.4277 H   0  0  0  0  0  0  0  0  0  0  0  0
   -1.9503   -2.0758    0.7937 H   0  0  0  0  0  0  0  0  0  0  0  0
    0.5028   -2.1043    0.7739 H   0  0  0  0  0  0  0  0  0  0  0  0
  1  2  1  0  0  0  0
  1 27  1  0  0  0  0
  1 28  1  0  0  0  0
  1 29  1  0  0  0  0
  2  3  1  0  0  0  0
  2 26  2  0  0  0  0
  3  4  2  0  0  0  0
  3 30  1  0  0  0  0
  4  5  1  0  0  0  0
  4 31  1  0  0  0  0
  5  6  1  0  0  0  0
  5 25  2  0  0  0  0
  6  7  1  0  0  0  0
  6 23  1  0  0  0  0
  7  8  2  0  0  0  0
  8  9  1  0  0  0  0
  8 15  1  0  0  0  0
  9 10  1  0  0  0  0
  9 14  2  0  0  0  0
 10 11  2  0  0  0  0
 10 32  1  0  0  0  0
 11 12  1  0  0  0  0
 11 33  1  0  0  0  0
 12 13  2  0  0  0  0
 13 14  1  0  0  0  0
 13 34  1  0  0  0  0
 14 35  1  0  0  0  0
 15 16  1  0  0  0  0
 15 23  2  0  0  0  0
 16 17  1  0  0  0  0
 16 22  2  0  0  0  0
 17 18  2  0  0  0  0
 17 36  1  0  0  0  0
 18 19  1  0  0  0  0
 18 37  1  0  0  0  0
 19 20  1  0  0  0  0
 19 21  2  0  0  0  0
 21 22  1  0  0  0  0
 21 38  1  0  0  0  0
 22 39  1  0  0  0  0
 23 24  1  0  0  0  0
 24 40  1  0  0  0  0
 24 41  1  0  0  0  0
 25 26  1  0  0  0  0
 25 42  1  0  0  0  0
 26 43  1  0  0  0  0
M  END
$$$$
