CHEMBL3896430
 OpenBabel04072215373D

 55 58  0  0  0  0  0  0  0  0999 V2000
    2.5998    0.1995    0.0965 C   0  0  0  0  0  0  0  0  0  0  0  0
    1.1022    0.0667    0.1435 C   0  0  0  0  0  0  0  0  0  0  0  0
    0.3627    1.2692    0.2190 C   0  0  0  0  0  0  0  0  0  0  0  0
   -1.0323    1.2790    0.1682 C   0  0  0  0  0  0  0  0  0  0  0  0
   -1.7900    2.4262    0.2582 O   0  0  0  0  0  0  0  0  0  0  0  0
   -1.3473    3.5563   -0.4241 C   0  0  0  0  0  0  0  0  0  0  0  0
   -1.7896    4.7795    0.0377 C   0  0  0  0  0  0  0  0  0  0  0  0
   -1.3365    5.8802   -0.6595 C   0  0  0  0  0  0  0  0  0  0  0  0
   -1.7718    7.1607   -0.2671 N   0  0  0  0  0  0  0  0  0  0  0  0
   -1.4527    8.3186   -0.9478 C   0  0  0  0  0  0  0  0  0  0  0  0
   -0.7679    8.4341   -1.9563 O   0  0  0  0  0  0  0  0  0  0  0  0
   -2.0154    9.5548   -0.3224 C   0  0  0  0  0  0  0  0  0  0  0  0
   -1.8768   10.8931   -1.0225 C   0  0  0  0  0  0  0  0  0  0  0  0
   -1.0586   10.6024    0.2009 C   0  0  0  0  0  0  0  0  0  0  0  0
   -0.5015    5.7619   -1.6982 N   0  0  0  0  0  0  0  0  0  0  0  0
   -0.1492    4.5328   -2.0751 C   0  0  0  0  0  0  0  0  0  0  0  0
   -0.5511    3.4046   -1.4956 N   0  0  0  0  0  0  0  0  0  0  0  0
   -1.7077    0.0721    0.0916 C   0  0  0  0  0  0  0  0  0  0  0  0
   -0.9900   -1.1284    0.0484 C   0  0  0  0  0  0  0  0  0  0  0  0
    0.4154   -1.1641    0.0898 C   0  0  0  0  0  0  0  0  0  0  0  0
    1.1303   -2.4003    0.1025 N   0  0  0  0  0  0  0  0  0  0  0  0
    0.5718   -3.6551    0.3269 C   0  0  0  0  0  0  0  0  0  0  0  0
   -0.6218   -3.8741    0.4999 O   0  0  0  0  0  0  0  0  0  0  0  0
    1.5286   -4.6625    0.4193 N   0  0  0  0  0  0  0  0  0  0  0  0
    1.1407   -6.0004    0.7073 C   0  0  0  0  0  0  0  0  0  0  0  0
    1.8493   -6.7104    1.6753 C   0  0  0  0  0  0  0  0  0  0  0  0
    1.4407   -7.9975    2.0362 C   0  0  0  0  0  0  0  0  0  0  0  0
    0.3435   -8.5995    1.4109 C   0  0  0  0  0  0  0  0  0  0  0  0
   -0.3796   -7.8986    0.4496 C   0  0  0  0  0  0  0  0  0  0  0  0
   -1.4793   -8.3496   -0.2173 O   0  0  0  0  0  0  0  0  0  0  0  0
   -2.3164   -9.3336    0.3748 C   0  0  0  0  0  0  0  0  0  0  0  0
   -2.1358   -9.4879    1.7036 F   0  0  0  0  0  0  0  0  0  0  0  0
   -3.6065   -8.9771    0.1772 F   0  0  0  0  0  0  0  0  0  0  0  0
   -2.1164  -10.5240   -0.2328 F   0  0  0  0  0  0  0  0  0  0  0  0
    0.0427   -6.6117    0.0839 C   0  0  0  0  0  0  0  0  0  0  0  0
    2.9115    1.2302    0.3105 H   0  0  0  0  0  0  0  0  0  0  0  0
    2.9714   -0.0487   -0.9028 H   0  0  0  0  0  0  0  0  0  0  0  0
    3.0784   -0.4350    0.8457 H   0  0  0  0  0  0  0  0  0  0  0  0
    0.8942    2.2148    0.2953 H   0  0  0  0  0  0  0  0  0  0  0  0
   -2.4521    4.8458    0.8882 H   0  0  0  0  0  0  0  0  0  0  0  0
   -2.3586    7.2290    0.5486 H   0  0  0  0  0  0  0  0  0  0  0  0
   -2.9415    9.4168    0.2261 H   0  0  0  0  0  0  0  0  0  0  0  0
   -2.6883   11.6059   -0.9373 H   0  0  0  0  0  0  0  0  0  0  0  0
   -1.3650   10.9247   -1.9803 H   0  0  0  0  0  0  0  0  0  0  0  0
   -1.3132   11.1206    1.1165 H   0  0  0  0  0  0  0  0  0  0  0  0
    0.0061   10.4436    0.0588 H   0  0  0  0  0  0  0  0  0  0  0  0
    0.5261    4.4507   -2.9181 H   0  0  0  0  0  0  0  0  0  0  0  0
   -2.7928    0.0415    0.0561 H   0  0  0  0  0  0  0  0  0  0  0  0
   -1.5802   -2.0331   -0.0426 H   0  0  0  0  0  0  0  0  0  0  0  0
    2.1340   -2.3507    0.0065 H   0  0  0  0  0  0  0  0  0  0  0  0
    2.4206   -4.3718    0.7911 H   0  0  0  0  0  0  0  0  0  0  0  0
    2.6812   -6.2552    2.2045 H   0  0  0  0  0  0  0  0  0  0  0  0
    1.9670   -8.5302    2.8250 H   0  0  0  0  0  0  0  0  0  0  0  0
    0.0815   -9.6117    1.7052 H   0  0  0  0  0  0  0  0  0  0  0  0
   -0.5101   -6.0796   -0.6882 H   0  0  0  0  0  0  0  0  0  0  0  0
  1  2  1  0  0  0  0
  1 36  1  0  0  0  0
  1 37  1  0  0  0  0
  1 38  1  0  0  0  0
  2  3  1  0  0  0  0
  2 20  2  0  0  0  0
  3  4  2  0  0  0  0
  3 39  1  0  0  0  0
  4  5  1  0  0  0  0
  4 18  1  0  0  0  0
  5  6  1  0  0  0  0
  6  7  1  0  0  0  0
  6 17  2  0  0  0  0
  7  8  2  0  0  0  0
  7 40  1  0  0  0  0
  8  9  1  0  0  0  0
  8 15  1  0  0  0  0
  9 10  1  0  0  0  0
  9 41  1  0  0  0  0
 10 11  2  0  0  0  0
 10 12  1  0  0  0  0
 12 13  1  0  0  0  0
 12 14  1  0  0  0  0
 12 42  1  0  0  0  0
 13 14  1  0  0  0  0
 13 43  1  0  0  0  0
 13 44  1  0  0  0  0
 14 45  1  0  0  0  0
 14 46  1  0  0  0  0
 15 16  2  0  0  0  0
 16 17  1  0  0  0  0
 16 47  1  0  0  0  0
 18 19  2  0  0  0  0
 18 48  1  0  0  0  0
 19 20  1  0  0  0  0
 19 49  1  0  0  0  0
 20 21  1  0  0  0  0
 21 22  1  0  0  0  0
 21 50  1  0  0  0  0
 22 23  2  0  0  0  0
 22 24  1  0  0  0  0
 24 25  1  0  0  0  0
 24 51  1  0  0  0  0
 25 26  1  0  0  0  0
 25 35  2  0  0  0  0
 26 27  2  0  0  0  0
 26 52  1  0  0  0  0
 27 28  1  0  0  0  0
 27 53  1  0  0  0  0
 28 29  2  0  0  0  0
 28 54  1  0  0  0  0
 29 30  1  0  0  0  0
 29 35  1  0  0  0  0
 30 31  1  0  0  0  0
 31 32  1  0  0  0  0
 31 33  1  0  0  0  0
 31 34  1  0  0  0  0
 35 55  1  0  0  0  0
M  END
$$$$
