CHEMBL3974900
 OpenBabel04072215373D

 49 52  0  0  0  0  0  0  0  0999 V2000
    4.0342    0.7371    1.2309 C   0  0  0  0  0  0  0  0  0  0  0  0
    3.1123    0.2400    0.1274 C   0  0  0  0  0  0  0  0  0  0  0  0
    3.3374    0.9614   -1.1798 C   0  0  0  0  0  0  0  0  0  0  0  0
    2.6022    2.1221   -1.4499 C   0  0  0  0  0  0  0  0  0  0  0  0
    2.7706    2.7918   -2.6558 C   0  0  0  0  0  0  0  0  0  0  0  0
    3.7110    2.3387   -3.5814 C   0  0  0  0  0  0  0  0  0  0  0  0
    4.5233    1.2344   -3.3042 C   0  0  0  0  0  0  0  0  0  0  0  0
    5.5788    0.8326   -4.1715 N   0  0  0  0  0  0  0  0  0  0  0  0
    6.2120    1.6841   -5.0801 C   0  0  0  0  0  0  0  0  0  0  0  0
    5.9711    2.8804   -5.1858 O   0  0  0  0  0  0  0  0  0  0  0  0
    7.1559    1.0151   -5.8590 N   0  0  0  0  0  0  0  0  0  0  0  0
    7.8614    1.6381   -6.9009 C   0  0  0  0  0  0  0  0  0  0  0  0
    8.0851    2.9932   -7.0478 C   0  0  0  0  0  0  0  0  0  0  0  0
    8.7672    3.3763   -8.5780 S   0  0  0  0  0  0  0  0  0  0  0  0
    8.4968    1.7662   -9.1247 C   0  0  0  0  0  0  0  0  0  0  0  0
    7.9600    1.4838  -10.4725 C   0  0  0  0  0  0  0  0  0  0  0  0
    6.9215    2.2749  -10.9837 C   0  0  0  0  0  0  0  0  0  0  0  0
    5.7872    1.5858  -10.4194 C   0  0  0  0  0  0  0  0  0  0  0  0
    4.5527    1.9982   -9.8983 C   0  0  0  0  0  0  0  0  0  0  0  0
    3.7528    1.0502   -9.2469 C   0  0  0  0  0  0  0  0  0  0  0  0
    4.1229   -0.2952   -9.1959 C   0  0  0  0  0  0  0  0  0  0  0  0
    5.3216   -0.7365   -9.7534 C   0  0  0  0  0  0  0  0  0  0  0  0
    6.1549    0.2412  -10.2942 C   0  0  0  0  0  0  0  0  0  0  0  0
    7.4537    0.2076  -10.7974 N   0  0  0  0  0  0  0  0  0  0  0  0
    8.0984   -0.8737  -11.4229 C   0  0  0  0  0  0  0  0  0  0  0  0
    8.8465   -0.4767  -12.4842 N   0  0  0  0  0  0  0  0  0  0  0  0
    7.8286   -2.0242  -11.1171 O   0  0  0  0  0  0  0  0  0  0  0  0
    8.4025    0.9174   -8.0243 C   0  0  0  0  0  0  0  0  0  0  0  0
    4.2939    0.5178   -2.1179 C   0  0  0  0  0  0  0  0  0  0  0  0
    3.8220    0.2093    2.1668 H   0  0  0  0  0  0  0  0  0  0  0  0
    3.8995    1.8093    1.4123 H   0  0  0  0  0  0  0  0  0  0  0  0
    5.0851    0.5677    0.9758 H   0  0  0  0  0  0  0  0  0  0  0  0
    2.0694    0.3776    0.4430 H   0  0  0  0  0  0  0  0  0  0  0  0
    3.2427   -0.8386   -0.0151 H   0  0  0  0  0  0  0  0  0  0  0  0
    1.8896    2.5082   -0.7243 H   0  0  0  0  0  0  0  0  0  0  0  0
    2.1832    3.6791   -2.8761 H   0  0  0  0  0  0  0  0  0  0  0  0
    3.7947    2.8808   -4.5188 H   0  0  0  0  0  0  0  0  0  0  0  0
    6.0853   -0.0001   -3.9093 H   0  0  0  0  0  0  0  0  0  0  0  0
    7.0404    0.0157   -5.9462 H   0  0  0  0  0  0  0  0  0  0  0  0
    7.8347    3.7965   -6.3673 H   0  0  0  0  0  0  0  0  0  0  0  0
    6.9517    3.3553  -11.0659 H   0  0  0  0  0  0  0  0  0  0  0  0
    4.2771    3.0490   -9.8965 H   0  0  0  0  0  0  0  0  0  0  0  0
    2.8435    1.3758   -8.7514 H   0  0  0  0  0  0  0  0  0  0  0  0
    3.4826   -1.0084   -8.6818 H   0  0  0  0  0  0  0  0  0  0  0  0
    5.6273   -1.7812   -9.6913 H   0  0  0  0  0  0  0  0  0  0  0  0
    8.6873    0.4333  -12.9010 H   0  0  0  0  0  0  0  0  0  0  0  0
    9.0586   -1.2219  -13.1382 H   0  0  0  0  0  0  0  0  0  0  0  0
    8.3091   -0.1565   -8.1213 H   0  0  0  0  0  0  0  0  0  0  0  0
    4.8792   -0.3694   -1.8905 H   0  0  0  0  0  0  0  0  0  0  0  0
  1  2  1  0  0  0  0
  1 30  1  0  0  0  0
  1 31  1  0  0  0  0
  1 32  1  0  0  0  0
  2  3  1  0  0  0  0
  2 33  1  0  0  0  0
  2 34  1  0  0  0  0
  3  4  1  0  0  0  0
  3 29  2  0  0  0  0
  4  5  2  0  0  0  0
  4 35  1  0  0  0  0
  5  6  1  0  0  0  0
  5 36  1  0  0  0  0
  6  7  2  0  0  0  0
  6 37  1  0  0  0  0
  7  8  1  0  0  0  0
  7 29  1  0  0  0  0
  8  9  1  0  0  0  0
  8 38  1  0  0  0  0
  9 10  2  0  0  0  0
  9 11  1  0  0  0  0
 11 12  1  0  0  0  0
 11 39  1  0  0  0  0
 12 13  2  0  0  0  0
 12 28  1  0  0  0  0
 13 14  1  0  0  0  0
 13 40  1  0  0  0  0
 14 15  1  0  0  0  0
 15 16  1  0  0  0  0
 15 28  2  0  0  0  0
 16 17  2  0  0  0  0
 16 24  1  0  0  0  0
 17 18  1  0  0  0  0
 17 41  1  0  0  0  0
 18 19  1  0  0  0  0
 18 23  2  0  0  0  0
 19 20  2  0  0  0  0
 19 42  1  0  0  0  0
 20 21  1  0  0  0  0
 20 43  1  0  0  0  0
 21 22  2  0  0  0  0
 21 44  1  0  0  0  0
 22 23  1  0  0  0  0
 22 45  1  0  0  0  0
 23 24  1  0  0  0  0
 24 25  1  0  0  0  0
 25 26  1  0  0  0  0
 25 27  2  0  0  0  0
 26 46  1  0  0  0  0
 26 47  1  0  0  0  0
 28 48  1  0  0  0  0
 29 49  1  0  0  0  0
M  END
$$$$
