CHEMBL3694702
 OpenBabel04072215373D

 49 52  0  0  0  0  0  0  0  0999 V2000
    1.1725    0.5342    0.0926 N   0  0  0  0  0  0  0  0  0  0  0  0
    2.5502    0.2822    0.0895 C   0  0  0  0  0  0  0  0  0  0  0  0
    3.2519    0.0751   -1.0822 C   0  0  0  0  0  0  0  0  0  0  0  0
    4.5942   -0.0177   -1.1663 N   0  0  0  0  0  0  0  0  0  0  0  0
    5.2707    0.1418   -0.0152 C   0  0  0  0  0  0  0  0  0  0  0  0
    6.7537    0.0612   -0.0927 C   0  0  0  0  0  0  0  0  0  0  0  0
    7.5007    0.1617   -1.3730 C   0  0  0  0  0  0  0  0  0  0  0  0
    8.8300    0.4065   -1.3568 C   0  0  0  0  0  0  0  0  0  0  0  0
    9.4951    0.3360   -0.1242 N   0  0  0  0  0  0  0  0  0  0  0  0
   10.8551    0.3065    0.2315 C   0  0  0  0  0  0  0  0  0  0  0  0
   11.5034    1.3446    1.1106 C   0  0  0  0  0  0  0  0  0  0  0  0
   10.9018    2.5872    1.3433 C   0  0  0  0  0  0  0  0  0  0  0  0
   11.3536    3.4072    2.3816 C   0  0  0  0  0  0  0  0  0  0  0  0
   12.4182    3.0094    3.1948 C   0  0  0  0  0  0  0  0  0  0  0  0
   13.0725    1.8009    2.9714 C   0  0  0  0  0  0  0  0  0  0  0  0
   14.1585    1.3307    3.7719 N   0  0  0  0  0  0  0  0  0  0  0  0
   14.6987    1.9730    4.8567 C   0  0  0  0  0  0  0  0  0  0  0  0
   14.3475    3.0331    5.3563 O   0  0  0  0  0  0  0  0  0  0  0  0
   15.8113    1.3121    5.3550 N   0  0  0  0  0  0  0  0  0  0  0  0
   16.5372    1.9136    6.4903 C   0  0  0  0  0  0  0  0  0  0  0  0
   15.9520    1.6446    7.8880 C   0  0  0  0  0  0  0  0  0  0  0  0
   14.9397    0.7478    7.8534 F   0  0  0  0  0  0  0  0  0  0  0  0
   16.9121    1.1175    8.6911 F   0  0  0  0  0  0  0  0  0  0  0  0
   15.5046    2.7665    8.4879 F   0  0  0  0  0  0  0  0  0  0  0  0
   12.6179    0.9882    1.9136 C   0  0  0  0  0  0  0  0  0  0  0  0
   10.8443   -1.0382    0.6322 C   0  0  0  0  0  0  0  0  0  0  0  0
    9.6707   -1.2767    1.3298 N   0  0  0  0  0  0  0  0  0  0  0  0
    8.8655   -0.3034    0.9385 C   0  0  0  0  0  0  0  0  0  0  0  0
    7.4647   -0.1222    1.0475 C   0  0  0  0  0  0  0  0  0  0  0  0
    4.7011    0.3807    1.1834 N   0  0  0  0  0  0  0  0  0  0  0  0
    3.3617    0.4632    1.2106 C   0  0  0  0  0  0  0  0  0  0  0  0
    2.7910    0.7684    2.4571 N   0  0  0  0  0  0  0  0  0  0  0  0
    0.6352    0.0523   -0.6193 H   0  0  0  0  0  0  0  0  0  0  0  0
    0.7543    0.5144    1.0173 H   0  0  0  0  0  0  0  0  0  0  0  0
    2.7341   -0.0097   -2.0326 H   0  0  0  0  0  0  0  0  0  0  0  0
    6.9492    0.0223   -2.2990 H   0  0  0  0  0  0  0  0  0  0  0  0
    9.4316    0.4986   -2.2522 H   0  0  0  0  0  0  0  0  0  0  0  0
   10.0332    2.9113    0.7766 H   0  0  0  0  0  0  0  0  0  0  0  0
   10.8509    4.3485    2.5956 H   0  0  0  0  0  0  0  0  0  0  0  0
   12.6992    3.6695    4.0093 H   0  0  0  0  0  0  0  0  0  0  0  0
   14.5691    0.4607    3.4944 H   0  0  0  0  0  0  0  0  0  0  0  0
   15.8024    0.3010    5.3031 H   0  0  0  0  0  0  0  0  0  0  0  0
   16.5966    2.9964    6.3361 H   0  0  0  0  0  0  0  0  0  0  0  0
   17.5568    1.5265    6.4422 H   0  0  0  0  0  0  0  0  0  0  0  0
   13.0914    0.0221    1.7556 H   0  0  0  0  0  0  0  0  0  0  0  0
   11.6929   -1.6964    0.7524 H   0  0  0  0  0  0  0  0  0  0  0  0
    7.0164   -0.1748    2.0327 H   0  0  0  0  0  0  0  0  0  0  0  0
    3.5519    0.8142    3.1306 H   0  0  0  0  0  0  0  0  0  0  0  0
    2.0972    0.0820    2.7240 H   0  0  0  0  0  0  0  0  0  0  0  0
  1  2  1  0  0  0  0
  1 33  1  0  0  0  0
  1 34  1  0  0  0  0
  2  3  1  0  0  0  0
  2 31  2  0  0  0  0
  3  4  2  0  0  0  0
  3 35  1  0  0  0  0
  4  5  1  0  0  0  0
  5  6  1  0  0  0  0
  5 30  2  0  0  0  0
  6  7  1  0  0  0  0
  6 29  2  0  0  0  0
  7  8  2  0  0  0  0
  7 36  1  0  0  0  0
  8  9  1  0  0  0  0
  8 37  1  0  0  0  0
  9 10  1  0  0  0  0
  9 28  1  0  0  0  0
 10 11  1  0  0  0  0
 10 26  2  0  0  0  0
 11 12  1  0  0  0  0
 11 25  2  0  0  0  0
 12 13  2  0  0  0  0
 12 38  1  0  0  0  0
 13 14  1  0  0  0  0
 13 39  1  0  0  0  0
 14 15  2  0  0  0  0
 14 40  1  0  0  0  0
 15 16  1  0  0  0  0
 15 25  1  0  0  0  0
 16 17  1  0  0  0  0
 16 41  1  0  0  0  0
 17 18  2  0  0  0  0
 17 19  1  0  0  0  0
 19 20  1  0  0  0  0
 19 42  1  0  0  0  0
 20 21  1  0  0  0  0
 20 43  1  0  0  0  0
 20 44  1  0  0  0  0
 21 22  1  0  0  0  0
 21 23  1  0  0  0  0
 21 24  1  0  0  0  0
 25 45  1  0  0  0  0
 26 27  1  0  0  0  0
 26 46  1  0  0  0  0
 27 28  2  0  0  0  0
 28 29  1  0  0  0  0
 29 47  1  0  0  0  0
 30 31  1  0  0  0  0
 31 32  1  0  0  0  0
 32 48  1  0  0  0  0
 32 49  1  0  0  0  0
M  END
$$$$
