CHEMBL406404
 OpenBabel04072215383D

 65 69  0  0  0  0  0  0  0  0999 V2000
    2.8233   -0.0212   -0.6120 C   0  0  0  0  0  0  0  0  0  0  0  0
    1.4373   -0.0476   -0.0357 C   0  0  0  0  0  0  0  0  0  0  0  0
    0.9618   -1.2106    0.5779 C   0  0  0  0  0  0  0  0  0  0  0  0
   -0.3084   -1.2286    1.1395 C   0  0  0  0  0  0  0  0  0  0  0  0
   -1.1173   -0.0977    1.0778 C   0  0  0  0  0  0  0  0  0  0  0  0
   -2.2689   -0.1665    1.7555 F   0  0  0  0  0  0  0  0  0  0  0  0
   -0.6990    1.0679    0.4174 C   0  0  0  0  0  0  0  0  0  0  0  0
   -1.4931    2.2331    0.2367 N   0  0  0  0  0  0  0  0  0  0  0  0
   -2.8702    2.3002    0.3577 C   0  0  0  0  0  0  0  0  0  0  0  0
   -3.6099    1.3622    0.6238 O   0  0  0  0  0  0  0  0  0  0  0  0
   -3.3621    3.5703    0.0577 N   0  0  0  0  0  0  0  0  0  0  0  0
   -4.7518    3.8187    0.1751 C   0  0  0  0  0  0  0  0  0  0  0  0
   -5.4639    3.4259    1.3091 C   0  0  0  0  0  0  0  0  0  0  0  0
   -6.8589    3.5296    1.3430 C   0  0  0  0  0  0  0  0  0  0  0  0
   -7.5826    4.0433    0.2536 C   0  0  0  0  0  0  0  0  0  0  0  0
   -9.0621    4.0682    0.2635 C   0  0  0  0  0  0  0  0  0  0  0  0
   -9.7801    4.3478    1.4479 C   0  0  0  0  0  0  0  0  0  0  0  0
  -11.1802    4.4046    1.4908 C   0  0  0  0  0  0  0  0  0  0  0  0
  -11.9433    4.2695    0.3296 C   0  0  0  0  0  0  0  0  0  0  0  0
  -13.3049    4.3473    0.2585 O   0  0  0  0  0  0  0  0  0  0  0  0
  -13.9610    5.1955    1.2074 C   0  0  0  0  0  0  0  0  0  0  0  0
  -14.6799    6.3359    0.4693 C   0  0  0  0  0  0  0  0  0  0  0  0
  -15.3376    7.3104    1.3660 N   0  0  0  0  0  0  0  0  0  0  0  0
  -16.0564    8.3450    0.5826 C   0  0  0  0  0  0  0  0  0  0  0  0
  -15.1271    9.3590   -0.1130 C   0  0  0  0  0  0  0  0  0  0  0  0
  -14.2307    9.9840    0.8158 O   0  0  0  0  0  0  0  0  0  0  0  0
  -13.4719    9.0060    1.5361 C   0  0  0  0  0  0  0  0  0  0  0  0
  -14.3996    8.0224    2.2657 C   0  0  0  0  0  0  0  0  0  0  0  0
  -11.2218    3.9474   -0.8227 C   0  0  0  0  0  0  0  0  0  0  0  0
  -11.7722    3.7324   -2.0472 O   0  0  0  0  0  0  0  0  0  0  0  0
  -10.7909    3.3558   -2.9384 N   0  0  0  0  0  0  0  0  0  0  0  0
   -9.6528    3.3410   -2.2410 C   0  0  0  0  0  0  0  0  0  0  0  0
   -8.4924    2.8862   -2.7563 N   0  0  0  0  0  0  0  0  0  0  0  0
   -9.8417    3.7954   -0.8968 C   0  0  0  0  0  0  0  0  0  0  0  0
   -6.8291    4.5383   -0.8277 C   0  0  0  0  0  0  0  0  0  0  0  0
   -5.4325    4.4193   -0.8778 C   0  0  0  0  0  0  0  0  0  0  0  0
    0.6035    1.0866   -0.1104 C   0  0  0  0  0  0  0  0  0  0  0  0
    3.3386   -0.9756   -0.4523 H   0  0  0  0  0  0  0  0  0  0  0  0
    3.4193    0.7601   -0.1307 H   0  0  0  0  0  0  0  0  0  0  0  0
    2.7836    0.1591   -1.6903 H   0  0  0  0  0  0  0  0  0  0  0  0
    1.5802   -2.1028    0.6393 H   0  0  0  0  0  0  0  0  0  0  0  0
   -0.6819   -2.1140    1.6444 H   0  0  0  0  0  0  0  0  0  0  0  0
   -1.0299    3.0525   -0.1248 H   0  0  0  0  0  0  0  0  0  0  0  0
   -2.8998    4.0198   -0.7181 H   0  0  0  0  0  0  0  0  0  0  0  0
   -4.9458    2.9986    2.1653 H   0  0  0  0  0  0  0  0  0  0  0  0
   -7.3687    3.1635    2.2317 H   0  0  0  0  0  0  0  0  0  0  0  0
   -9.2479    4.5242    2.3790 H   0  0  0  0  0  0  0  0  0  0  0  0
  -11.6422    4.5561    2.4594 H   0  0  0  0  0  0  0  0  0  0  0  0
  -13.2673    5.6212    1.9294 H   0  0  0  0  0  0  0  0  0  0  0  0
  -14.6842    4.5859    1.7595 H   0  0  0  0  0  0  0  0  0  0  0  0
  -15.4397    5.8782   -0.1791 H   0  0  0  0  0  0  0  0  0  0  0  0
  -13.9691    6.8166   -0.2131 H   0  0  0  0  0  0  0  0  0  0  0  0
  -16.7014    8.8930    1.2827 H   0  0  0  0  0  0  0  0  0  0  0  0
  -16.7282    7.8795   -0.1477 H   0  0  0  0  0  0  0  0  0  0  0  0
  -15.7278   10.1523   -0.5691 H   0  0  0  0  0  0  0  0  0  0  0  0
  -14.5437    8.8912   -0.9136 H   0  0  0  0  0  0  0  0  0  0  0  0
  -12.8560    9.5390    2.2675 H   0  0  0  0  0  0  0  0  0  0  0  0
  -12.7898    8.4928    0.8485 H   0  0  0  0  0  0  0  0  0  0  0  0
  -15.0063    8.5880    2.9853 H   0  0  0  0  0  0  0  0  0  0  0  0
  -13.8154    7.3287    2.8764 H   0  0  0  0  0  0  0  0  0  0  0  0
   -8.5737    2.3694   -3.6276 H   0  0  0  0  0  0  0  0  0  0  0  0
   -7.8092    2.4757   -2.1279 H   0  0  0  0  0  0  0  0  0  0  0  0
   -7.3301    4.9873   -1.6842 H   0  0  0  0  0  0  0  0  0  0  0  0
   -4.9133    4.7283   -1.7801 H   0  0  0  0  0  0  0  0  0  0  0  0
    0.9812    1.9769   -0.6089 H   0  0  0  0  0  0  0  0  0  0  0  0
  1  2  1  0  0  0  0
  1 38  1  0  0  0  0
  1 39  1  0  0  0  0
  1 40  1  0  0  0  0
  2  3  1  0  0  0  0
  2 37  2  0  0  0  0
  3  4  2  0  0  0  0
  3 41  1  0  0  0  0
  4  5  1  0  0  0  0
  4 42  1  0  0  0  0
  5  6  1  0  0  0  0
  5  7  2  0  0  0  0
  7  8  1  0  0  0  0
  7 37  1  0  0  0  0
  8  9  1  0  0  0  0
  8 43  1  0  0  0  0
  9 10  2  0  0  0  0
  9 11  1  0  0  0  0
 11 12  1  0  0  0  0
 11 44  1  0  0  0  0
 12 13  1  0  0  0  0
 12 36  2  0  0  0  0
 13 14  2  0  0  0  0
 13 45  1  0  0  0  0
 14 15  1  0  0  0  0
 14 46  1  0  0  0  0
 15 16  1  0  0  0  0
 15 35  2  0  0  0  0
 16 17  1  0  0  0  0
 16 34  2  0  0  0  0
 17 18  2  0  0  0  0
 17 47  1  0  0  0  0
 18 19  1  0  0  0  0
 18 48  1  0  0  0  0
 19 20  1  0  0  0  0
 19 29  2  0  0  0  0
 20 21  1  0  0  0  0
 21 22  1  0  0  0  0
 21 49  1  0  0  0  0
 21 50  1  0  0  0  0
 22 23  1  0  0  0  0
 22 51  1  0  0  0  0
 22 52  1  0  0  0  0
 23 24  1  0  0  0  0
 23 28  1  0  0  0  0
 24 25  1  0  0  0  0
 24 53  1  0  0  0  0
 24 54  1  0  0  0  0
 25 26  1  0  0  0  0
 25 55  1  0  0  0  0
 25 56  1  0  0  0  0
 26 27  1  0  0  0  0
 27 28  1  0  0  0  0
 27 57  1  0  0  0  0
 27 58  1  0  0  0  0
 28 59  1  0  0  0  0
 28 60  1  0  0  0  0
 29 30  1  0  0  0  0
 29 34  1  0  0  0  0
 30 31  1  0  0  0  0
 31 32  2  0  0  0  0
 32 33  1  0  0  0  0
 32 34  1  0  0  0  0
 33 61  1  0  0  0  0
 33 62  1  0  0  0  0
 35 36  1  0  0  0  0
 35 63  1  0  0  0  0
 36 64  1  0  0  0  0
 37 65  1  0  0  0  0
M  END
$$$$
