CHEMBL4590038
 OpenBabel04072215383D

 51 54  0  0  0  0  0  0  0  0999 V2000
    1.2957   -0.7452    0.2549 C   0  0  0  0  0  0  0  0  0  0  0  0
    2.6111   -0.2358    0.0531 O   0  0  0  0  0  0  0  0  0  0  0  0
    3.0761    0.5892    1.0420 C   0  0  0  0  0  0  0  0  0  0  0  0
    4.0327    1.5400    0.6192 C   0  0  0  0  0  0  0  0  0  0  0  0
    4.6057    2.4527    1.5149 C   0  0  0  0  0  0  0  0  0  0  0  0
    4.2054    2.3758    2.8298 C   0  0  0  0  0  0  0  0  0  0  0  0
    3.2775    1.4269    3.2466 C   0  0  0  0  0  0  0  0  0  0  0  0
    2.6961    0.5143    2.3810 C   0  0  0  0  0  0  0  0  0  0  0  0
    3.0842    1.6201    4.6788 C   0  0  0  0  0  0  0  0  0  0  0  0
    2.2877    0.9296    5.4309 N   0  0  0  0  0  0  0  0  0  0  0  0
    2.2205    1.2741    6.7557 N   0  0  0  0  0  0  0  0  0  0  0  0
    1.3738    0.5792    7.6141 C   0  0  0  0  0  0  0  0  0  0  0  0
    0.7033   -0.4012    7.3015 O   0  0  0  0  0  0  0  0  0  0  0  0
    1.3084    1.0807    9.0216 C   0  0  0  0  0  0  0  0  0  0  0  0
    1.5612    2.4148    9.3341 C   0  0  0  0  0  0  0  0  0  0  0  0
    1.4782    2.8570   10.6589 C   0  0  0  0  0  0  0  0  0  0  0  0
    1.1272    1.9954   11.7041 C   0  0  0  0  0  0  0  0  0  0  0  0
    1.0489    2.4103   13.0599 N   0  0  0  0  0  0  0  0  0  0  0  0
    1.2110    3.7112   13.5135 C   0  0  0  0  0  0  0  0  0  0  0  0
    1.3636    4.6916   12.7931 O   0  0  0  0  0  0  0  0  0  0  0  0
    1.2293    3.7928   14.9029 N   0  0  0  0  0  0  0  0  0  0  0  0
    1.4107    5.0589   15.5190 C   0  0  0  0  0  0  0  0  0  0  0  0
    0.6570    6.1717   15.1246 C   0  0  0  0  0  0  0  0  0  0  0  0
    0.9130    7.4308   15.6696 C   0  0  0  0  0  0  0  0  0  0  0  0
    1.9313    7.5861   16.6062 C   0  0  0  0  0  0  0  0  0  0  0  0
    2.6715    6.4774   17.0188 C   0  0  0  0  0  0  0  0  0  0  0  0
    2.3963    5.2091   16.4961 C   0  0  0  0  0  0  0  0  0  0  0  0
    0.8537    0.6599   11.3876 C   0  0  0  0  0  0  0  0  0  0  0  0
    0.9381    0.2071   10.0558 C   0  0  0  0  0  0  0  0  0  0  0  0
    3.9945    2.7899    5.0620 C   0  0  0  0  0  0  0  0  0  0  0  0
    4.0995    3.2435    6.1816 O   0  0  0  0  0  0  0  0  0  0  0  0
    4.6240    3.1729    3.8958 N   0  0  0  0  0  0  0  0  0  0  0  0
    1.0032   -1.2828   -0.6526 H   0  0  0  0  0  0  0  0  0  0  0  0
    0.5818    0.0711    0.4074 H   0  0  0  0  0  0  0  0  0  0  0  0
    1.2622   -1.4588    1.0839 H   0  0  0  0  0  0  0  0  0  0  0  0
    4.3206    1.5669   -0.4311 H   0  0  0  0  0  0  0  0  0  0  0  0
    5.3271    3.1848    1.1709 H   0  0  0  0  0  0  0  0  0  0  0  0
    2.0019   -0.2203    2.7665 H   0  0  0  0  0  0  0  0  0  0  0  0
    2.8287    2.0205    7.0938 H   0  0  0  0  0  0  0  0  0  0  0  0
    1.7968    3.1499    8.5698 H   0  0  0  0  0  0  0  0  0  0  0  0
    1.6909    3.9069   10.8263 H   0  0  0  0  0  0  0  0  0  0  0  0
    0.7447    1.7259   13.7366 H   0  0  0  0  0  0  0  0  0  0  0  0
    1.6746    3.0109   15.3598 H   0  0  0  0  0  0  0  0  0  0  0  0
   -0.1237    6.0714   14.3739 H   0  0  0  0  0  0  0  0  0  0  0  0
    0.3333    8.2902   15.3419 H   0  0  0  0  0  0  0  0  0  0  0  0
    2.1549    8.5726   17.0046 H   0  0  0  0  0  0  0  0  0  0  0  0
    3.4828    6.6075   17.7304 H   0  0  0  0  0  0  0  0  0  0  0  0
    3.0108    4.3691   16.8041 H   0  0  0  0  0  0  0  0  0  0  0  0
    0.5671   -0.0516   12.1581 H   0  0  0  0  0  0  0  0  0  0  0  0
    0.7123   -0.8328    9.8278 H   0  0  0  0  0  0  0  0  0  0  0  0
    5.2925    3.9287    3.8416 H   0  0  0  0  0  0  0  0  0  0  0  0
  1  2  1  0  0  0  0
  1 33  1  0  0  0  0
  1 34  1  0  0  0  0
  1 35  1  0  0  0  0
  2  3  1  0  0  0  0
  3  4  1  0  0  0  0
  3  8  2  0  0  0  0
  4  5  2  0  0  0  0
  4 36  1  0  0  0  0
  5  6  1  0  0  0  0
  5 37  1  0  0  0  0
  6  7  2  0  0  0  0
  6 32  1  0  0  0  0
  7  8  1  0  0  0  0
  7  9  1  0  0  0  0
  8 38  1  0  0  0  0
  9 10  2  0  0  0  0
  9 30  1  0  0  0  0
 10 11  1  0  0  0  0
 11 12  1  0  0  0  0
 11 39  1  0  0  0  0
 12 13  2  0  0  0  0
 12 14  1  0  0  0  0
 14 15  1  0  0  0  0
 14 29  2  0  0  0  0
 15 16  2  0  0  0  0
 15 40  1  0  0  0  0
 16 17  1  0  0  0  0
 16 41  1  0  0  0  0
 17 18  1  0  0  0  0
 17 28  2  0  0  0  0
 18 19  1  0  0  0  0
 18 42  1  0  0  0  0
 19 20  2  0  0  0  0
 19 21  1  0  0  0  0
 21 22  1  0  0  0  0
 21 43  1  0  0  0  0
 22 23  1  0  0  0  0
 22 27  2  0  0  0  0
 23 24  2  0  0  0  0
 23 44  1  0  0  0  0
 24 25  1  0  0  0  0
 24 45  1  0  0  0  0
 25 26  2  0  0  0  0
 25 46  1  0  0  0  0
 26 27  1  0  0  0  0
 26 47  1  0  0  0  0
 27 48  1  0  0  0  0
 28 29  1  0  0  0  0
 28 49  1  0  0  0  0
 29 50  1  0  0  0  0
 30 31  2  0  0  0  0
 30 32  1  0  0  0  0
 32 51  1  0  0  0  0
M  END
$$$$
