CHEMBL1241583
 OpenBabel04072215363D

 38 40  0  0  0  0  0  0  0  0999 V2000
    1.2323    0.7815    0.0134 C   0  0  0  0  0  0  0  0  0  0  0  0
    2.5652    0.0326    0.0570 C   0  0  0  0  0  0  0  0  0  0  0  0
    3.6008    0.7046   -0.8460 C   0  0  0  0  0  0  0  0  0  0  0  0
    3.0619   -0.0936    1.4229 N   0  0  0  0  0  0  0  0  0  0  0  0
    3.3771    1.0148    2.1219 N   0  0  0  0  0  0  0  0  0  0  0  0
    3.8557    0.5505    3.2909 C   0  0  0  0  0  0  0  0  0  0  0  0
    4.3531    1.4972    4.2873 C   0  0  0  0  0  0  0  0  0  0  0  0
    5.4305    1.1878    5.1225 C   0  0  0  0  0  0  0  0  0  0  0  0
    5.8505    2.0814    6.1077 C   0  0  0  0  0  0  0  0  0  0  0  0
    5.2439    3.3296    6.2185 C   0  0  0  0  0  0  0  0  0  0  0  0
    4.2151    3.6922    5.3403 C   0  0  0  0  0  0  0  0  0  0  0  0
    3.5618    5.0424    5.4258 C   0  0  0  0  0  0  0  0  0  0  0  0
    2.3949    5.0159    6.3996 C   0  0  0  0  0  0  0  0  0  0  0  0
    1.4269    4.9940    7.2074 N   0  0  0  0  0  0  0  0  0  0  0  0
    3.7578    2.7606    4.3986 C   0  0  0  0  0  0  0  0  0  0  0  0
    3.7773   -0.8741    3.3544 C   0  0  0  0  0  0  0  0  0  0  0  0
    4.0519   -1.9120    4.2581 C   0  0  0  0  0  0  0  0  0  0  0  0
    4.5084   -1.7453    5.5587 N   0  0  0  0  0  0  0  0  0  0  0  0
    3.8524   -3.1857    3.8619 N   0  0  0  0  0  0  0  0  0  0  0  0
    3.3831   -3.4091    2.6219 C   0  0  0  0  0  0  0  0  0  0  0  0
    3.0586   -2.5064    1.6830 N   0  0  0  0  0  0  0  0  0  0  0  0
    3.2770   -1.2521    2.1136 C   0  0  0  0  0  0  0  0  0  0  0  0
    0.8505    0.8351   -1.0110 H   0  0  0  0  0  0  0  0  0  0  0  0
    1.3317    1.8064    0.3874 H   0  0  0  0  0  0  0  0  0  0  0  0
    0.4810    0.2756    0.6297 H   0  0  0  0  0  0  0  0  0  0  0  0
    2.3955   -0.9829   -0.3183 H   0  0  0  0  0  0  0  0  0  0  0  0
    3.7985    1.7374   -0.5355 H   0  0  0  0  0  0  0  0  0  0  0  0
    3.2539    0.7282   -1.8840 H   0  0  0  0  0  0  0  0  0  0  0  0
    4.5529    0.1627   -0.8195 H   0  0  0  0  0  0  0  0  0  0  0  0
    5.9640    0.2461    5.0180 H   0  0  0  0  0  0  0  0  0  0  0  0
    6.6570    1.8016    6.7805 H   0  0  0  0  0  0  0  0  0  0  0  0
    5.5882    4.0175    6.9880 H   0  0  0  0  0  0  0  0  0  0  0  0
    3.2060    5.3611    4.4390 H   0  0  0  0  0  0  0  0  0  0  0  0
    4.2899    5.7935    5.7540 H   0  0  0  0  0  0  0  0  0  0  0  0
    2.9308    3.0207    3.7376 H   0  0  0  0  0  0  0  0  0  0  0  0
    4.1590   -0.9199    6.0300 H   0  0  0  0  0  0  0  0  0  0  0  0
    4.4246   -2.6106    6.0797 H   0  0  0  0  0  0  0  0  0  0  0  0
    3.2490   -4.4513    2.3500 H   0  0  0  0  0  0  0  0  0  0  0  0
  1  2  1  0  0  0  0
  1 23  1  0  0  0  0
  1 24  1  0  0  0  0
  1 25  1  0  0  0  0
  2  3  1  0  0  0  0
  2  4  1  0  0  0  0
  2 26  1  0  0  0  0
  3 27  1  0  0  0  0
  3 28  1  0  0  0  0
  3 29  1  0  0  0  0
  4  5  1  0  0  0  0
  4 22  1  0  0  0  0
  5  6  2  0  0  0  0
  6  7  1  0  0  0  0
  6 16  1  0  0  0  0
  7  8  1  0  0  0  0
  7 15  2  0  0  0  0
  8  9  2  0  0  0  0
  8 30  1  0  0  0  0
  9 10  1  0  0  0  0
  9 31  1  0  0  0  0
 10 11  2  0  0  0  0
 10 32  1  0  0  0  0
 11 12  1  0  0  0  0
 11 15  1  0  0  0  0
 12 13  1  0  0  0  0
 12 33  1  0  0  0  0
 12 34  1  0  0  0  0
 13 14  3  0  0  0  0
 15 35  1  0  0  0  0
 16 17  1  0  0  0  0
 16 22  2  0  0  0  0
 17 18  1  0  0  0  0
 17 19  2  0  0  0  0
 18 36  1  0  0  0  0
 18 37  1  0  0  0  0
 19 20  1  0  0  0  0
 20 21  2  0  0  0  0
 20 38  1  0  0  0  0
 21 22  1  0  0  0  0
M  END
$$$$
