CHEMBL3622955
 OpenBabel04072215363D

 52 56  0  0  0  0  0  0  0  0999 V2000
    2.2119   -0.9947   -1.5791 C   0  0  0  0  0  0  0  0  0  0  0  0
    2.7594    0.1267   -0.7696 C   0  0  0  0  0  0  0  0  0  0  0  0
    4.0528    0.4562   -0.8655 N   0  0  0  0  0  0  0  0  0  0  0  0
    4.2456    1.3863    0.1109 N   0  0  0  0  0  0  0  0  0  0  0  0
    5.5117    2.0347    0.3034 C   0  0  0  0  0  0  0  0  0  0  0  0
    6.4439    1.9276   -0.7008 C   0  0  0  0  0  0  0  0  0  0  0  0
    7.6108    2.6137   -0.5096 C   0  0  0  0  0  0  0  0  0  0  0  0
    7.8760    3.3248    0.5988 N   0  0  0  0  0  0  0  0  0  0  0  0
    6.9379    3.3680    1.5549 C   0  0  0  0  0  0  0  0  0  0  0  0
    7.1656    4.0570    2.7510 N   0  0  0  0  0  0  0  0  0  0  0  0
    8.1153    5.0221    3.1391 C   0  0  0  0  0  0  0  0  0  0  0  0
    9.2919    5.3027    2.4381 C   0  0  0  0  0  0  0  0  0  0  0  0
   10.1593    6.3516    2.8011 C   0  0  0  0  0  0  0  0  0  0  0  0
    9.7913    7.1694    3.8780 C   0  0  0  0  0  0  0  0  0  0  0  0
    8.6471    6.8986    4.6362 C   0  0  0  0  0  0  0  0  0  0  0  0
    7.8552    5.7754    4.2998 C   0  0  0  0  0  0  0  0  0  0  0  0
    8.5339    7.9344    5.6026 C   0  0  0  0  0  0  0  0  0  0  0  0
    7.2704    8.1040    6.7276 Cl  0  0  0  0  0  0  0  0  0  0  0  0
    9.5758    8.8093    5.4137 C   0  0  0  0  0  0  0  0  0  0  0  0
   10.3615    8.3127    4.4063 N   0  0  0  0  0  0  0  0  0  0  0  0
   11.5794    8.9430    3.9465 C   0  0  0  0  0  0  0  0  0  0  0  0
    5.7362    2.7608    1.4331 N   0  0  0  0  0  0  0  0  0  0  0  0
    3.0940    1.5947    0.8296 C   0  0  0  0  0  0  0  0  0  0  0  0
    2.0714    0.9239    0.1888 C   0  0  0  0  0  0  0  0  0  0  0  0
    0.6031    0.8764    0.4863 C   0  0  0  0  0  0  0  0  0  0  0  0
   -0.0806    2.1744    0.2991 N   0  0  0  0  0  0  0  0  0  0  0  0
    0.2824    3.2428    1.2675 C   0  0  0  0  0  0  0  0  0  0  0  0
   -0.7470    2.6815    2.2706 C   0  0  0  0  0  0  0  0  0  0  0  0
   -0.2634    1.7359    3.2604 O   0  0  0  0  0  0  0  0  0  0  0  0
   -1.4109    2.1011    0.9944 C   0  0  0  0  0  0  0  0  0  0  0  0
    3.0047   -1.5585   -2.0811 H   0  0  0  0  0  0  0  0  0  0  0  0
    1.5112   -0.6287   -2.3345 H   0  0  0  0  0  0  0  0  0  0  0  0
    1.6784   -1.6975   -0.9277 H   0  0  0  0  0  0  0  0  0  0  0  0
    6.2672    1.3755   -1.6193 H   0  0  0  0  0  0  0  0  0  0  0  0
    8.3916    2.6262   -1.2649 H   0  0  0  0  0  0  0  0  0  0  0  0
    6.3238    4.0239    3.3070 H   0  0  0  0  0  0  0  0  0  0  0  0
    9.5645    4.7134    1.5665 H   0  0  0  0  0  0  0  0  0  0  0  0
   11.0556    6.5427    2.2199 H   0  0  0  0  0  0  0  0  0  0  0  0
    6.9897    5.5508    4.9162 H   0  0  0  0  0  0  0  0  0  0  0  0
    9.8112    9.7427    5.9081 H   0  0  0  0  0  0  0  0  0  0  0  0
   11.6519    9.9521    4.3715 H   0  0  0  0  0  0  0  0  0  0  0  0
   11.5602    9.0131    2.8582 H   0  0  0  0  0  0  0  0  0  0  0  0
   12.4267    8.3410    4.2863 H   0  0  0  0  0  0  0  0  0  0  0  0
    3.1190    2.2489    1.6933 H   0  0  0  0  0  0  0  0  0  0  0  0
    0.4565    0.4074    1.4614 H   0  0  0  0  0  0  0  0  0  0  0  0
    0.1288    0.1940   -0.2323 H   0  0  0  0  0  0  0  0  0  0  0  0
    0.0128    4.2462    0.9068 H   0  0  0  0  0  0  0  0  0  0  0  0
    1.3117    3.3099    1.6100 H   0  0  0  0  0  0  0  0  0  0  0  0
   -1.3370    3.4481    2.7782 H   0  0  0  0  0  0  0  0  0  0  0  0
    0.7073    1.7987    3.2239 H   0  0  0  0  0  0  0  0  0  0  0  0
   -2.1624    2.7745    0.5596 H   0  0  0  0  0  0  0  0  0  0  0  0
   -1.8641    1.1086    1.0830 H   0  0  0  0  0  0  0  0  0  0  0  0
  1  2  1  0  0  0  0
  1 31  1  0  0  0  0
  1 32  1  0  0  0  0
  1 33  1  0  0  0  0
  2  3  2  0  0  0  0
  2 24  1  0  0  0  0
  3  4  1  0  0  0  0
  4  5  1  0  0  0  0
  4 23  1  0  0  0  0
  5  6  1  0  0  0  0
  5 22  2  0  0  0  0
  6  7  2  0  0  0  0
  6 34  1  0  0  0  0
  7  8  1  0  0  0  0
  7 35  1  0  0  0  0
  8  9  2  0  0  0  0
  9 10  1  0  0  0  0
  9 22  1  0  0  0  0
 10 11  1  0  0  0  0
 10 36  1  0  0  0  0
 11 12  1  0  0  0  0
 11 16  2  0  0  0  0
 12 13  2  0  0  0  0
 12 37  1  0  0  0  0
 13 14  1  0  0  0  0
 13 38  1  0  0  0  0
 14 15  2  0  0  0  0
 14 20  1  0  0  0  0
 15 16  1  0  0  0  0
 15 17  1  0  0  0  0
 16 39  1  0  0  0  0
 17 18  1  0  0  0  0
 17 19  2  0  0  0  0
 19 20  1  0  0  0  0
 19 40  1  0  0  0  0
 20 21  1  0  0  0  0
 21 41  1  0  0  0  0
 21 42  1  0  0  0  0
 21 43  1  0  0  0  0
 23 24  2  0  0  0  0
 23 44  1  0  0  0  0
 24 25  1  0  0  0  0
 25 26  1  0  0  0  0
 25 45  1  0  0  0  0
 25 46  1  0  0  0  0
 26 27  1  0  0  0  0
 26 30  1  0  0  0  0
 27 28  1  0  0  0  0
 27 47  1  0  0  0  0
 27 48  1  0  0  0  0
 28 29  1  0  0  0  0
 28 30  1  0  0  0  0
 28 49  1  0  0  0  0
 29 50  1  0  0  0  0
 30 51  1  0  0  0  0
 30 52  1  0  0  0  0
M  END
$$$$
