CHEMBL3973125
 OpenBabel04072215373D

 51 54  0  0  0  0  0  0  0  0999 V2000
    1.0772   -0.4626   -0.4195 O   0  0  0  0  0  0  0  0  0  0  0  0
    2.1900   -0.0937   -0.0625 C   0  0  0  0  0  0  0  0  0  0  0  0
    2.7681   -0.4334    1.1596 N   0  0  0  0  0  0  0  0  0  0  0  0
    2.1489   -1.2439    2.1532 C   0  0  0  0  0  0  0  0  0  0  0  0
    1.0376   -2.0469    1.8740 C   0  0  0  0  0  0  0  0  0  0  0  0
    0.3711   -2.7321    2.8867 C   0  0  0  0  0  0  0  0  0  0  0  0
    0.8281   -2.6535    4.1948 C   0  0  0  0  0  0  0  0  0  0  0  0
    2.0019   -1.9520    4.4863 C   0  0  0  0  0  0  0  0  0  0  0  0
    2.5165   -1.8761    5.7720 O   0  0  0  0  0  0  0  0  0  0  0  0
    2.4485   -3.0231    6.5688 C   0  0  0  0  0  0  0  0  0  0  0  0
    2.4638   -2.8560    7.9417 C   0  0  0  0  0  0  0  0  0  0  0  0
    2.4026   -4.0164    8.6917 C   0  0  0  0  0  0  0  0  0  0  0  0
    2.4727   -3.9383   10.0982 N   0  0  0  0  0  0  0  0  0  0  0  0
    2.5272   -5.0483   10.9239 C   0  0  0  0  0  0  0  0  0  0  0  0
    2.5001   -6.2213   10.5826 O   0  0  0  0  0  0  0  0  0  0  0  0
    2.6634   -4.7957   12.3912 C   0  0  0  0  0  0  0  0  0  0  0  0
    2.5694   -3.4730   13.1020 C   0  0  0  0  0  0  0  0  0  0  0  0
    3.9107   -4.1238   12.9192 C   0  0  0  0  0  0  0  0  0  0  0  0
    2.2917   -5.2189    8.1140 N   0  0  0  0  0  0  0  0  0  0  0  0
    2.3021   -5.2740    6.7830 C   0  0  0  0  0  0  0  0  0  0  0  0
    2.4062   -4.2259    5.9698 N   0  0  0  0  0  0  0  0  0  0  0  0
    2.6502   -1.2291    3.4680 C   0  0  0  0  0  0  0  0  0  0  0  0
    3.0031    0.7381   -0.8193 N   0  0  0  0  0  0  0  0  0  0  0  0
    2.6670    1.3300   -2.0662 C   0  0  0  0  0  0  0  0  0  0  0  0
    1.4431    1.1398   -2.7175 C   0  0  0  0  0  0  0  0  0  0  0  0
    1.1681    1.7594   -3.9394 C   0  0  0  0  0  0  0  0  0  0  0  0
    2.1120    2.5940   -4.5274 C   0  0  0  0  0  0  0  0  0  0  0  0
    3.3417    2.8167   -3.8950 C   0  0  0  0  0  0  0  0  0  0  0  0
    4.3510    3.7533   -4.5031 C   0  0  0  0  0  0  0  0  0  0  0  0
    3.9458    4.3145   -5.6770 F   0  0  0  0  0  0  0  0  0  0  0  0
    4.6492    4.7951   -3.6776 F   0  0  0  0  0  0  0  0  0  0  0  0
    5.5361    3.1398   -4.7719 F   0  0  0  0  0  0  0  0  0  0  0  0
    3.6116    2.1693   -2.6717 C   0  0  0  0  0  0  0  0  0  0  0  0
    3.5800    0.0889    1.4487 H   0  0  0  0  0  0  0  0  0  0  0  0
    0.6493   -2.1647    0.8679 H   0  0  0  0  0  0  0  0  0  0  0  0
   -0.5057   -3.3271    2.6484 H   0  0  0  0  0  0  0  0  0  0  0  0
    0.2763   -3.1755    4.9693 H   0  0  0  0  0  0  0  0  0  0  0  0
    2.5275   -1.8725    8.3829 H   0  0  0  0  0  0  0  0  0  0  0  0
    2.5522   -3.0259   10.5146 H   0  0  0  0  0  0  0  0  0  0  0  0
    2.3121   -5.6511   12.9676 H   0  0  0  0  0  0  0  0  0  0  0  0
    2.1430   -3.4819   14.1018 H   0  0  0  0  0  0  0  0  0  0  0  0
    2.3582   -2.5644   12.5584 H   0  0  0  0  0  0  0  0  0  0  0  0
    4.3899   -4.5783   13.7801 H   0  0  0  0  0  0  0  0  0  0  0  0
    4.6054   -3.6832   12.2139 H   0  0  0  0  0  0  0  0  0  0  0  0
    2.2116   -6.2542    6.3300 H   0  0  0  0  0  0  0  0  0  0  0  0
    3.5313   -0.6456    3.7180 H   0  0  0  0  0  0  0  0  0  0  0  0
    3.9314    0.9163   -0.4702 H   0  0  0  0  0  0  0  0  0  0  0  0
    0.6610    0.5101   -2.3067 H   0  0  0  0  0  0  0  0  0  0  0  0
    0.2076    1.5867   -4.4235 H   0  0  0  0  0  0  0  0  0  0  0  0
    1.8740    3.0734   -5.4755 H   0  0  0  0  0  0  0  0  0  0  0  0
    4.5724    2.3495   -2.1919 H   0  0  0  0  0  0  0  0  0  0  0  0
  1  2  2  0  0  0  0
  2  3  1  0  0  0  0
  2 23  1  0  0  0  0
  3  4  1  0  0  0  0
  3 34  1  0  0  0  0
  4  5  1  0  0  0  0
  4 22  2  0  0  0  0
  5  6  2  0  0  0  0
  5 35  1  0  0  0  0
  6  7  1  0  0  0  0
  6 36  1  0  0  0  0
  7  8  2  0  0  0  0
  7 37  1  0  0  0  0
  8  9  1  0  0  0  0
  8 22  1  0  0  0  0
  9 10  1  0  0  0  0
 10 11  1  0  0  0  0
 10 21  2  0  0  0  0
 11 12  2  0  0  0  0
 11 38  1  0  0  0  0
 12 13  1  0  0  0  0
 12 19  1  0  0  0  0
 13 14  1  0  0  0  0
 13 39  1  0  0  0  0
 14 15  2  0  0  0  0
 14 16  1  0  0  0  0
 16 17  1  0  0  0  0
 16 18  1  0  0  0  0
 16 40  1  0  0  0  0
 17 18  1  0  0  0  0
 17 41  1  0  0  0  0
 17 42  1  0  0  0  0
 18 43  1  0  0  0  0
 18 44  1  0  0  0  0
 19 20  2  0  0  0  0
 20 21  1  0  0  0  0
 20 45  1  0  0  0  0
 22 46  1  0  0  0  0
 23 24  1  0  0  0  0
 23 47  1  0  0  0  0
 24 25  1  0  0  0  0
 24 33  2  0  0  0  0
 25 26  2  0  0  0  0
 25 48  1  0  0  0  0
 26 27  1  0  0  0  0
 26 49  1  0  0  0  0
 27 28  2  0  0  0  0
 27 50  1  0  0  0  0
 28 29  1  0  0  0  0
 28 33  1  0  0  0  0
 29 30  1  0  0  0  0
 29 31  1  0  0  0  0
 29 32  1  0  0  0  0
 33 51  1  0  0  0  0
M  END
$$$$
