CHEMBL3639752
 OpenBabel04072215373D

 50 52  0  0  0  0  0  0  0  0999 V2000
    3.6419   -2.3350    3.1543 C   0  0  0  0  0  0  0  0  0  0  0  0
    3.6446   -2.4330    1.8234 C   0  0  0  0  0  0  0  0  0  0  0  0
    3.7507   -1.1976    1.0012 C   0  0  0  0  0  0  0  0  0  0  0  0
    3.2592   -0.1330    1.3625 O   0  0  0  0  0  0  0  0  0  0  0  0
    4.5171   -1.2654   -0.1460 N   0  0  0  0  0  0  0  0  0  0  0  0
    5.3178   -2.3763   -0.4630 C   0  0  0  0  0  0  0  0  0  0  0  0
    6.4703   -2.5597    0.3019 C   0  0  0  0  0  0  0  0  0  0  0  0
    7.1314   -3.7955    0.3081 C   0  0  0  0  0  0  0  0  0  0  0  0
    8.2057   -4.1002    1.1599 C   0  0  0  0  0  0  0  0  0  0  0  0
    8.5931   -3.1597    2.1696 N   0  0  0  0  0  0  0  0  0  0  0  0
    9.8373   -3.2406    2.8423 C   0  0  0  0  0  0  0  0  0  0  0  0
   11.0174   -3.3857    2.1084 C   0  0  0  0  0  0  0  0  0  0  0  0
   12.2186   -3.6474    2.7556 C   0  0  0  0  0  0  0  0  0  0  0  0
   13.3111   -3.8638    2.0097 F   0  0  0  0  0  0  0  0  0  0  0  0
   12.2712   -3.7252    4.1454 C   0  0  0  0  0  0  0  0  0  0  0  0
   13.8709   -4.2443    5.0092 Br  0  0  0  0  0  0  0  0  0  0  0  0
   11.1273   -3.4723    4.9011 C   0  0  0  0  0  0  0  0  0  0  0  0
    9.9212   -3.2286    4.2442 C   0  0  0  0  0  0  0  0  0  0  0  0
    8.8111   -3.0367    4.9749 F   0  0  0  0  0  0  0  0  0  0  0  0
    8.8521   -5.2721    1.0899 N   0  0  0  0  0  0  0  0  0  0  0  0
    8.3956   -6.1597    0.1993 C   0  0  0  0  0  0  0  0  0  0  0  0
    7.3421   -5.9934   -0.6136 N   0  0  0  0  0  0  0  0  0  0  0  0
    6.7140   -4.8182   -0.5581 C   0  0  0  0  0  0  0  0  0  0  0  0
    5.6021   -4.5851   -1.3731 C   0  0  0  0  0  0  0  0  0  0  0  0
    4.8952   -3.3736   -1.3521 C   0  0  0  0  0  0  0  0  0  0  0  0
    3.7970   -3.3069   -2.1903 O   0  0  0  0  0  0  0  0  0  0  0  0
    3.5851   -2.0092   -2.7714 C   0  0  0  0  0  0  0  0  0  0  0  0
    2.5135   -2.0056   -3.8688 C   0  0  0  0  0  0  0  0  0  0  0  0
    2.2874   -0.6552   -4.3856 N   0  0  0  0  0  0  0  0  0  0  0  0
    3.0687   -0.1112   -5.3762 C   0  0  0  0  0  0  0  0  0  0  0  0
    2.7663    1.3337   -5.6983 C   0  0  0  0  0  0  0  0  0  0  0  0
    3.9447   -0.7357   -5.9658 O   0  0  0  0  0  0  0  0  0  0  0  0
    3.6705   -3.2232    3.7775 H   0  0  0  0  0  0  0  0  0  0  0  0
    3.6352   -1.3684    3.6530 H   0  0  0  0  0  0  0  0  0  0  0  0
    3.6710   -3.4015    1.3330 H   0  0  0  0  0  0  0  0  0  0  0  0
    4.9119   -0.3480   -0.3236 H   0  0  0  0  0  0  0  0  0  0  0  0
    6.8140   -1.7513    0.9477 H   0  0  0  0  0  0  0  0  0  0  0  0
    7.8250   -3.0451    2.8270 H   0  0  0  0  0  0  0  0  0  0  0  0
   10.9976   -3.3534    1.0234 H   0  0  0  0  0  0  0  0  0  0  0  0
   11.1514   -3.5042    5.9860 H   0  0  0  0  0  0  0  0  0  0  0  0
    8.9241   -7.1058    0.1353 H   0  0  0  0  0  0  0  0  0  0  0  0
    5.2725   -5.3853   -2.0386 H   0  0  0  0  0  0  0  0  0  0  0  0
    4.5287   -1.6236   -3.1752 H   0  0  0  0  0  0  0  0  0  0  0  0
    3.2030   -1.3310   -2.0076 H   0  0  0  0  0  0  0  0  0  0  0  0
    1.5583   -2.3538   -3.4602 H   0  0  0  0  0  0  0  0  0  0  0  0
    2.7849   -2.6766   -4.6897 H   0  0  0  0  0  0  0  0  0  0  0  0
    1.6093   -0.0701   -3.9146 H   0  0  0  0  0  0  0  0  0  0  0  0
    2.1434    1.7994   -4.9300 H   0  0  0  0  0  0  0  0  0  0  0  0
    2.2498    1.3922   -6.6594 H   0  0  0  0  0  0  0  0  0  0  0  0
    3.7054    1.8916   -5.7547 H   0  0  0  0  0  0  0  0  0  0  0  0
  1  2  2  0  0  0  0
  1 33  1  0  0  0  0
  1 34  1  0  0  0  0
  2  3  1  0  0  0  0
  2 35  1  0  0  0  0
  3  4  2  0  0  0  0
  3  5  1  0  0  0  0
  5  6  1  0  0  0  0
  5 36  1  0  0  0  0
  6  7  1  0  0  0  0
  6 25  2  0  0  0  0
  7  8  2  0  0  0  0
  7 37  1  0  0  0  0
  8  9  1  0  0  0  0
  8 23  1  0  0  0  0
  9 10  1  0  0  0  0
  9 20  2  0  0  0  0
 10 11  1  0  0  0  0
 10 38  1  0  0  0  0
 11 12  1  0  0  0  0
 11 18  2  0  0  0  0
 12 13  2  0  0  0  0
 12 39  1  0  0  0  0
 13 14  1  0  0  0  0
 13 15  1  0  0  0  0
 15 16  1  0  0  0  0
 15 17  2  0  0  0  0
 17 18  1  0  0  0  0
 17 40  1  0  0  0  0
 18 19  1  0  0  0  0
 20 21  1  0  0  0  0
 21 22  2  0  0  0  0
 21 41  1  0  0  0  0
 22 23  1  0  0  0  0
 23 24  2  0  0  0  0
 24 25  1  0  0  0  0
 24 42  1  0  0  0  0
 25 26  1  0  0  0  0
 26 27  1  0  0  0  0
 27 28  1  0  0  0  0
 27 43  1  0  0  0  0
 27 44  1  0  0  0  0
 28 29  1  0  0  0  0
 28 45  1  0  0  0  0
 28 46  1  0  0  0  0
 29 30  1  0  0  0  0
 29 47  1  0  0  0  0
 30 31  1  0  0  0  0
 30 32  2  0  0  0  0
 31 48  1  0  0  0  0
 31 49  1  0  0  0  0
 31 50  1  0  0  0  0
M  END
$$$$
