CHEMBL379495
 OpenBabel04072215373D

 52 54  0  0  0  0  0  0  0  0999 V2000
    3.6833    0.5259    1.3901 C   0  0  0  0  0  0  0  0  0  0  0  0
    2.8539    0.9492    0.3131 O   0  0  0  0  0  0  0  0  0  0  0  0
    3.4448    1.0902   -0.9135 C   0  0  0  0  0  0  0  0  0  0  0  0
    4.6085    0.4013   -1.2798 C   0  0  0  0  0  0  0  0  0  0  0  0
    5.1326    0.5192   -2.5711 C   0  0  0  0  0  0  0  0  0  0  0  0
    4.5000    1.3265   -3.5209 C   0  0  0  0  0  0  0  0  0  0  0  0
    5.0842    1.4016   -4.8905 C   0  0  0  0  0  0  0  0  0  0  0  0
    5.6821    0.4172   -5.3107 O   0  0  0  0  0  0  0  0  0  0  0  0
    4.9414    2.6177   -5.5203 N   0  0  0  0  0  0  0  0  0  0  0  0
    5.4299    2.8392   -6.7796 C   0  0  0  0  0  0  0  0  0  0  0  0
    5.9044    1.9899   -7.6507 N   0  0  0  0  0  0  0  0  0  0  0  0
    6.3235    2.6749   -8.7773 C   0  0  0  0  0  0  0  0  0  0  0  0
    6.1590    4.0461   -8.7441 C   0  0  0  0  0  0  0  0  0  0  0  0
    6.6342    5.2715   -9.9050 S   0  0  0  0  0  0  0  0  0  0  0  0
    6.6633    4.3938  -11.4939 C   0  0  0  0  0  0  0  0  0  0  0  0
    5.3055    4.0213  -11.9656 C   0  0  0  0  0  0  0  0  0  0  0  0
    4.4305    4.7493  -12.6306 N   0  0  0  0  0  0  0  0  0  0  0  0
    3.3645    3.9051  -12.7978 C   0  0  0  0  0  0  0  0  0  0  0  0
    3.6297    2.6781  -12.2293 C   0  0  0  0  0  0  0  0  0  0  0  0
    2.8755    1.3841  -12.1056 C   0  0  0  0  0  0  0  0  0  0  0  0
    3.2094    0.4829  -13.3060 C   0  0  0  0  0  0  0  0  0  0  0  0
    3.2499    0.6512  -10.8037 C   0  0  0  0  0  0  0  0  0  0  0  0
    1.3585    1.6526  -12.0885 C   0  0  0  0  0  0  0  0  0  0  0  0
    4.8969    2.7401  -11.7106 O   0  0  0  0  0  0  0  0  0  0  0  0
    5.4043    4.4775   -7.2580 S   0  0  0  0  0  0  0  0  0  0  0  0
    3.3255    1.9976   -3.1728 C   0  0  0  0  0  0  0  0  0  0  0  0
    2.8042    1.8966   -1.8728 C   0  0  0  0  0  0  0  0  0  0  0  0
    1.6360    2.5985   -1.7090 O   0  0  0  0  0  0  0  0  0  0  0  0
    1.4091    3.1595   -0.4209 C   0  0  0  0  0  0  0  0  0  0  0  0
    3.0950    0.5966    2.3101 H   0  0  0  0  0  0  0  0  0  0  0  0
    4.5535    1.1821    1.4978 H   0  0  0  0  0  0  0  0  0  0  0  0
    3.9857   -0.5196    1.2760 H   0  0  0  0  0  0  0  0  0  0  0  0
    5.1171   -0.2682   -0.5934 H   0  0  0  0  0  0  0  0  0  0  0  0
    6.0292   -0.0383   -2.8392 H   0  0  0  0  0  0  0  0  0  0  0  0
    4.5851    3.4228   -5.0292 H   0  0  0  0  0  0  0  0  0  0  0  0
    6.7605    2.1032   -9.5862 H   0  0  0  0  0  0  0  0  0  0  0  0
    7.3201    3.5202  -11.4391 H   0  0  0  0  0  0  0  0  0  0  0  0
    7.1101    5.0728  -12.2285 H   0  0  0  0  0  0  0  0  0  0  0  0
    2.4700    4.2219  -13.3151 H   0  0  0  0  0  0  0  0  0  0  0  0
    4.2778    0.2387  -13.3378 H   0  0  0  0  0  0  0  0  0  0  0  0
    2.9575    0.9714  -14.2548 H   0  0  0  0  0  0  0  0  0  0  0  0
    2.6530   -0.4605  -13.2601 H   0  0  0  0  0  0  0  0  0  0  0  0
    4.3117    0.3786  -10.7832 H   0  0  0  0  0  0  0  0  0  0  0  0
    2.6736   -0.2744  -10.6913 H   0  0  0  0  0  0  0  0  0  0  0  0
    3.0540    1.2762   -9.9244 H   0  0  0  0  0  0  0  0  0  0  0  0
    1.0243    2.1413  -13.0113 H   0  0  0  0  0  0  0  0  0  0  0  0
    1.0793    2.3035  -11.2513 H   0  0  0  0  0  0  0  0  0  0  0  0
    0.7913    0.7200  -11.9894 H   0  0  0  0  0  0  0  0  0  0  0  0
    2.7773    2.5835   -3.9054 H   0  0  0  0  0  0  0  0  0  0  0  0
    0.6767    3.9643   -0.5389 H   0  0  0  0  0  0  0  0  0  0  0  0
    2.3188    3.6004    0.0009 H   0  0  0  0  0  0  0  0  0  0  0  0
    0.9673    2.4221    0.2551 H   0  0  0  0  0  0  0  0  0  0  0  0
  1  2  1  0  0  0  0
  1 30  1  0  0  0  0
  1 31  1  0  0  0  0
  1 32  1  0  0  0  0
  2  3  1  0  0  0  0
  3  4  1  0  0  0  0
  3 27  2  0  0  0  0
  4  5  2  0  0  0  0
  4 33  1  0  0  0  0
  5  6  1  0  0  0  0
  5 34  1  0  0  0  0
  6  7  1  0  0  0  0
  6 26  2  0  0  0  0
  7  8  2  0  0  0  0
  7  9  1  0  0  0  0
  9 10  1  0  0  0  0
  9 35  1  0  0  0  0
 10 11  2  0  0  0  0
 10 25  1  0  0  0  0
 11 12  1  0  0  0  0
 12 13  2  0  0  0  0
 12 36  1  0  0  0  0
 13 14  1  0  0  0  0
 13 25  1  0  0  0  0
 14 15  1  0  0  0  0
 15 16  1  0  0  0  0
 15 37  1  0  0  0  0
 15 38  1  0  0  0  0
 16 17  2  0  0  0  0
 16 24  1  0  0  0  0
 17 18  1  0  0  0  0
 18 19  2  0  0  0  0
 18 39  1  0  0  0  0
 19 20  1  0  0  0  0
 19 24  1  0  0  0  0
 20 21  1  0  0  0  0
 20 22  1  0  0  0  0
 20 23  1  0  0  0  0
 21 40  1  0  0  0  0
 21 41  1  0  0  0  0
 21 42  1  0  0  0  0
 22 43  1  0  0  0  0
 22 44  1  0  0  0  0
 22 45  1  0  0  0  0
 23 46  1  0  0  0  0
 23 47  1  0  0  0  0
 23 48  1  0  0  0  0
 26 27  1  0  0  0  0
 26 49  1  0  0  0  0
 27 28  1  0  0  0  0
 28 29  1  0  0  0  0
 29 50  1  0  0  0  0
 29 51  1  0  0  0  0
 29 52  1  0  0  0  0
M  END
$$$$
