CHEMBL3321893
 OpenBabel04072215363D

 44 48  0  0  0  0  0  0  0  0999 V2000
   -1.8349   -2.1526   -0.9722 C   0  0  0  0  0  0  0  0  0  0  0  0
   -1.0302   -1.0203   -0.3871 C   0  0  0  0  0  0  0  0  0  0  0  0
   -1.6141    0.2579   -0.3295 C   0  0  0  0  0  0  0  0  0  0  0  0
   -0.9237    1.3386    0.2171 C   0  0  0  0  0  0  0  0  0  0  0  0
    0.3643    1.1614    0.7070 C   0  0  0  0  0  0  0  0  0  0  0  0
    0.9629   -0.0973    0.6480 C   0  0  0  0  0  0  0  0  0  0  0  0
    0.2796   -1.2041    0.1089 C   0  0  0  0  0  0  0  0  0  0  0  0
    0.9539   -2.5069    0.0604 C   0  0  0  0  0  0  0  0  0  0  0  0
    0.8072   -3.4378   -0.8625 N   0  0  0  0  0  0  0  0  0  0  0  0
    1.6497   -4.4584   -0.5141 C   0  0  0  0  0  0  0  0  0  0  0  0
    1.8940   -5.6668   -1.1661 C   0  0  0  0  0  0  0  0  0  0  0  0
    2.8249   -6.5422   -0.5978 C   0  0  0  0  0  0  0  0  0  0  0  0
    3.4841   -6.2610    0.6155 C   0  0  0  0  0  0  0  0  0  0  0  0
    4.4536   -7.1576    1.1314 N   0  0  0  0  0  0  0  0  0  0  0  0
    4.4273   -8.5594    0.9219 C   0  0  0  0  0  0  0  0  0  0  0  0
    3.2208   -9.1508    0.8238 N   0  0  0  0  0  0  0  0  0  0  0  0
    3.2054  -10.4453    0.5115 C   0  0  0  0  0  0  0  0  0  0  0  0
    4.2757  -11.2094    0.2865 N   0  0  0  0  0  0  0  0  0  0  0  0
    5.4691  -10.6216    0.4153 C   0  0  0  0  0  0  0  0  0  0  0  0
    6.6021  -11.3759    0.1481 C   0  0  0  0  0  0  0  0  0  0  0  0
    7.8886  -10.8439    0.2610 C   0  0  0  0  0  0  0  0  0  0  0  0
    8.0561   -9.5243    0.6596 C   0  0  0  0  0  0  0  0  0  0  0  0
    6.9330   -8.7368    0.9107 C   0  0  0  0  0  0  0  0  0  0  0  0
    5.6269   -9.2755    0.7795 C   0  0  0  0  0  0  0  0  0  0  0  0
    3.2656   -5.0262    1.2474 C   0  0  0  0  0  0  0  0  0  0  0  0
    2.3307   -4.1663    0.6587 C   0  0  0  0  0  0  0  0  0  0  0  0
    1.8583   -2.9294    1.0114 N   0  0  0  0  0  0  0  0  0  0  0  0
   -2.8468   -1.8284   -1.2390 H   0  0  0  0  0  0  0  0  0  0  0  0
   -1.9393   -2.9629   -0.2432 H   0  0  0  0  0  0  0  0  0  0  0  0
   -1.3681   -2.5297   -1.8871 H   0  0  0  0  0  0  0  0  0  0  0  0
   -2.6192    0.4175   -0.7147 H   0  0  0  0  0  0  0  0  0  0  0  0
   -1.3909    2.3190    0.2523 H   0  0  0  0  0  0  0  0  0  0  0  0
    0.9098    2.0043    1.1232 H   0  0  0  0  0  0  0  0  0  0  0  0
    1.9845   -0.1931    1.0054 H   0  0  0  0  0  0  0  0  0  0  0  0
    1.3802   -5.9137   -2.0874 H   0  0  0  0  0  0  0  0  0  0  0  0
    3.0256   -7.4718   -1.1256 H   0  0  0  0  0  0  0  0  0  0  0  0
    4.7300   -6.9565    2.0848 H   0  0  0  0  0  0  0  0  0  0  0  0
    2.2316  -10.9121    0.4193 H   0  0  0  0  0  0  0  0  0  0  0  0
    6.4776  -12.4074   -0.1749 H   0  0  0  0  0  0  0  0  0  0  0  0
    8.7507  -11.4645    0.0311 H   0  0  0  0  0  0  0  0  0  0  0  0
    9.0554   -9.1070    0.7566 H   0  0  0  0  0  0  0  0  0  0  0  0
    7.0746   -7.6963    1.1946 H   0  0  0  0  0  0  0  0  0  0  0  0
    3.7857   -4.7499    2.1567 H   0  0  0  0  0  0  0  0  0  0  0  0
    2.1177   -2.4129    1.8347 H   0  0  0  0  0  0  0  0  0  0  0  0
  1  2  1  0  0  0  0
  1 28  1  0  0  0  0
  1 29  1  0  0  0  0
  1 30  1  0  0  0  0
  2  3  1  0  0  0  0
  2  7  2  0  0  0  0
  3  4  2  0  0  0  0
  3 31  1  0  0  0  0
  4  5  1  0  0  0  0
  4 32  1  0  0  0  0
  5  6  2  0  0  0  0
  5 33  1  0  0  0  0
  6  7  1  0  0  0  0
  6 34  1  0  0  0  0
  7  8  1  0  0  0  0
  8  9  2  0  0  0  0
  8 27  1  0  0  0  0
  9 10  1  0  0  0  0
 10 11  1  0  0  0  0
 10 26  2  0  0  0  0
 11 12  2  0  0  0  0
 11 35  1  0  0  0  0
 12 13  1  0  0  0  0
 12 36  1  0  0  0  0
 13 14  1  0  0  0  0
 13 25  2  0  0  0  0
 14 15  1  0  0  0  0
 14 37  1  0  0  0  0
 15 16  1  0  0  0  0
 15 24  2  0  0  0  0
 16 17  2  0  0  0  0
 17 18  1  0  0  0  0
 17 38  1  0  0  0  0
 18 19  2  0  0  0  0
 19 20  1  0  0  0  0
 19 24  1  0  0  0  0
 20 21  2  0  0  0  0
 20 39  1  0  0  0  0
 21 22  1  0  0  0  0
 21 40  1  0  0  0  0
 22 23  2  0  0  0  0
 22 41  1  0  0  0  0
 23 24  1  0  0  0  0
 23 42  1  0  0  0  0
 25 26  1  0  0  0  0
 25 43  1  0  0  0  0
 26 27  1  0  0  0  0
 27 44  1  0  0  0  0
M  END
$$$$
