CHEMBL2385596
 OpenBabel04072215363D

 56 61  0  0  0  0  0  0  0  0999 V2000
    1.4118    1.2913   -2.1547 C   0  0  0  0  0  0  0  0  0  0  0  0
    0.5970    0.5236   -1.2198 N   0  0  0  0  0  0  0  0  0  0  0  0
    0.2163    1.3443   -0.0475 C   0  0  0  0  0  0  0  0  0  0  0  0
   -0.5784    0.5146    0.9848 C   0  0  0  0  0  0  0  0  0  0  0  0
   -1.7619   -0.1022    0.3584 N   0  0  0  0  0  0  0  0  0  0  0  0
   -3.0055   -0.0820    0.9535 C   0  0  0  0  0  0  0  0  0  0  0  0
   -3.3971    0.9618    1.7978 C   0  0  0  0  0  0  0  0  0  0  0  0
   -4.6961    1.0464    2.3548 C   0  0  0  0  0  0  0  0  0  0  0  0
   -5.6851    0.0606    2.1144 C   0  0  0  0  0  0  0  0  0  0  0  0
   -7.0668    0.0766    2.7564 C   0  0  0  0  0  0  0  0  0  0  0  0
   -7.3343    0.7490    4.0600 C   0  0  0  0  0  0  0  0  0  0  0  0
   -8.5034    0.9518    4.6797 N   0  0  0  0  0  0  0  0  0  0  0  0
   -9.6733    0.3663    4.2137 C   0  0  0  0  0  0  0  0  0  0  0  0
  -10.9992    0.2278    4.7420 C   0  0  0  0  0  0  0  0  0  0  0  0
  -11.8142    0.7613    6.1883 C   0  0  0  0  0  0  0  0  0  0  0  0
  -11.4659    1.0837    7.6502 C   0  0  0  0  0  0  0  0  0  0  0  0
  -12.5157    1.5255    8.6708 C   0  0  0  0  0  0  0  0  0  0  0  0
  -13.3559    2.0298    7.9444 N   0  0  0  0  0  0  0  0  0  0  0  0
  -13.9363    1.2670    7.0913 C   0  0  0  0  0  0  0  0  0  0  0  0
  -15.2672    1.2378    7.2164 C   0  0  0  0  0  0  0  0  0  0  0  0
  -16.0280    1.0214    6.1011 C   0  0  0  0  0  0  0  0  0  0  0  0
  -15.3695    0.9061    4.8919 C   0  0  0  0  0  0  0  0  0  0  0  0
  -13.9778    1.0070    4.8514 C   0  0  0  0  0  0  0  0  0  0  0  0
  -13.1992    0.9200    5.9973 C   0  0  0  0  0  0  0  0  0  0  0  0
  -11.6032   -0.4993    3.5433 C   0  0  0  0  0  0  0  0  0  0  0  0
  -10.7260   -0.8056    2.5712 N   0  0  0  0  0  0  0  0  0  0  0  0
   -9.5221   -0.3206    2.9620 N   0  0  0  0  0  0  0  0  0  0  0  0
   -8.2359   -0.4218    2.2782 C   0  0  0  0  0  0  0  0  0  0  0  0
   -5.2946   -0.9583    1.2315 C   0  0  0  0  0  0  0  0  0  0  0  0
   -3.9834   -1.0533    0.7040 C   0  0  0  0  0  0  0  0  0  0  0  0
   -1.5013   -0.8237   -0.8967 C   0  0  0  0  0  0  0  0  0  0  0  0
   -0.6499    0.0437   -1.8599 C   0  0  0  0  0  0  0  0  0  0  0  0
    2.3436    1.6103   -1.6734 H   0  0  0  0  0  0  0  0  0  0  0  0
    0.8927    2.1798   -2.5288 H   0  0  0  0  0  0  0  0  0  0  0  0
    1.7002    0.6702   -3.0103 H   0  0  0  0  0  0  0  0  0  0  0  0
   -0.3913    2.2014   -0.3693 H   0  0  0  0  0  0  0  0  0  0  0  0
    1.1148    1.7426    0.4383 H   0  0  0  0  0  0  0  0  0  0  0  0
   -0.8444    1.1578    1.8294 H   0  0  0  0  0  0  0  0  0  0  0  0
    0.0663   -0.2771    1.3817 H   0  0  0  0  0  0  0  0  0  0  0  0
   -2.6757    1.7543    2.0057 H   0  0  0  0  0  0  0  0  0  0  0  0
   -4.9129    1.9253    2.9613 H   0  0  0  0  0  0  0  0  0  0  0  0
   -6.4180    1.1182    4.5707 H   0  0  0  0  0  0  0  0  0  0  0  0
  -10.5852    1.1744    8.3160 H   0  0  0  0  0  0  0  0  0  0  0  0
  -13.1685    1.7505    9.4359 H   0  0  0  0  0  0  0  0  0  0  0  0
  -15.6948    1.5415    8.1650 H   0  0  0  0  0  0  0  0  0  0  0  0
  -17.0909    1.1368    6.1509 H   0  0  0  0  0  0  0  0  0  0  0  0
  -15.9144    0.8530    3.9705 H   0  0  0  0  0  0  0  0  0  0  0  0
  -13.5245    1.3620    3.9529 H   0  0  0  0  0  0  0  0  0  0  0  0
  -12.6196   -0.8204    3.3273 H   0  0  0  0  0  0  0  0  0  0  0  0
   -8.2415   -0.9200    1.3145 H   0  0  0  0  0  0  0  0  0  0  0  0
   -6.0200   -1.7026    0.9112 H   0  0  0  0  0  0  0  0  0  0  0  0
   -3.7182   -1.9280    0.1058 H   0  0  0  0  0  0  0  0  0  0  0  0
   -2.4392   -1.0762   -1.4092 H   0  0  0  0  0  0  0  0  0  0  0  0
   -0.9729   -1.7610   -0.6831 H   0  0  0  0  0  0  0  0  0  0  0  0
   -1.2485    0.9027   -2.1955 H   0  0  0  0  0  0  0  0  0  0  0  0
   -0.4087   -0.5501   -2.7496 H   0  0  0  0  0  0  0  0  0  0  0  0
  1  2  1  0  0  0  0
  1 33  1  0  0  0  0
  1 34  1  0  0  0  0
  1 35  1  0  0  0  0
  2  3  1  0  0  0  0
  2 32  1  0  0  0  0
  3  4  1  0  0  0  0
  3 36  1  0  0  0  0
  3 37  1  0  0  0  0
  4  5  1  0  0  0  0
  4 38  1  0  0  0  0
  4 39  1  0  0  0  0
  5  6  1  0  0  0  0
  5 31  1  0  0  0  0
  6  7  1  0  0  0  0
  6 30  2  0  0  0  0
  7  8  2  0  0  0  0
  7 40  1  0  0  0  0
  8  9  1  0  0  0  0
  8 41  1  0  0  0  0
  9 10  1  0  0  0  0
  9 29  2  0  0  0  0
 10 11  1  0  0  0  0
 10 28  2  0  0  0  0
 11 12  2  0  0  0  0
 11 42  1  0  0  0  0
 12 13  1  0  0  0  0
 13 14  2  0  0  0  0
 13 27  1  0  0  0  0
 14 15  1  0  0  0  0
 14 25  1  0  0  0  0
 15 16  1  0  0  0  0
 15 24  2  0  0  0  0
 16 17  2  0  0  0  0
 16 43  1  0  0  0  0
 17 18  1  0  0  0  0
 17 44  1  0  0  0  0
 18 19  2  0  0  0  0
 19 20  1  0  0  0  0
 19 24  1  0  0  0  0
 20 21  2  0  0  0  0
 20 45  1  0  0  0  0
 21 22  1  0  0  0  0
 21 46  1  0  0  0  0
 22 23  2  0  0  0  0
 22 47  1  0  0  0  0
 23 24  1  0  0  0  0
 23 48  1  0  0  0  0
 25 26  2  0  0  0  0
 25 49  1  0  0  0  0
 26 27  1  0  0  0  0
 27 28  1  0  0  0  0
 28 50  1  0  0  0  0
 29 30  1  0  0  0  0
 29 51  1  0  0  0  0
 30 52  1  0  0  0  0
 31 32  1  0  0  0  0
 31 53  1  0  0  0  0
 31 54  1  0  0  0  0
 32 55  1  0  0  0  0
 32 56  1  0  0  0  0
M  END
$$$$
