CHEMBL189825
 OpenBabel04072215363D

 43 45  0  0  0  0  0  0  0  0999 V2000
    2.9262   -0.5957   -0.6642 O   0  0  0  0  0  0  0  0  0  0  0  0
    2.4888    0.7503   -0.5418 C   0  0  0  0  0  0  0  0  0  0  0  0
    2.9868    1.3345    0.7732 C   0  0  0  0  0  0  0  0  0  0  0  0
    4.5130    1.3408    0.8279 C   0  0  0  0  0  0  0  0  0  0  0  0
    4.9672    1.9240    2.0945 N   0  0  0  0  0  0  0  0  0  0  0  0
    6.3564    1.9949    2.2984 C   0  0  0  0  0  0  0  0  0  0  0  0
    6.8975    1.9523    3.5841 C   0  0  0  0  0  0  0  0  0  0  0  0
    8.2138    2.0677    3.8775 N   0  0  0  0  0  0  0  0  0  0  0  0
    9.0492    2.2803    2.8313 C   0  0  0  0  0  0  0  0  0  0  0  0
    8.6450    2.3842    1.5014 C   0  0  0  0  0  0  0  0  0  0  0  0
    9.6054    2.6301    0.4184 C   0  0  0  0  0  0  0  0  0  0  0  0
    9.4364    2.1649   -0.8843 C   0  0  0  0  0  0  0  0  0  0  0  0
   10.3287    2.3881   -1.8773 N   0  0  0  0  0  0  0  0  0  0  0  0
   11.4180    3.1029   -1.5088 C   0  0  0  0  0  0  0  0  0  0  0  0
   11.6118    3.6159   -0.2252 C   0  0  0  0  0  0  0  0  0  0  0  0
   12.7948    4.3270    0.0856 N   0  0  0  0  0  0  0  0  0  0  0  0
   12.8946    5.3195    1.0945 C   0  0  0  0  0  0  0  0  0  0  0  0
   11.8143    6.1476    1.4434 C   0  0  0  0  0  0  0  0  0  0  0  0
   11.9693    7.1816    2.3710 C   0  0  0  0  0  0  0  0  0  0  0  0
   13.2116    7.4061    2.9543 C   0  0  0  0  0  0  0  0  0  0  0  0
   14.2876    6.6048    2.5924 C   0  0  0  0  0  0  0  0  0  0  0  0
   15.4882    6.8295    3.1424 F   0  0  0  0  0  0  0  0  0  0  0  0
   14.1447    5.5791    1.6620 C   0  0  0  0  0  0  0  0  0  0  0  0
   10.7046    3.3556    0.7460 N   0  0  0  0  0  0  0  0  0  0  0  0
    7.2651    2.2571    1.2675 C   0  0  0  0  0  0  0  0  0  0  0  0
    2.5577   -0.9454   -1.4928 H   0  0  0  0  0  0  0  0  0  0  0  0
    1.3946    0.7635   -0.5701 H   0  0  0  0  0  0  0  0  0  0  0  0
    2.8696    1.3217   -1.3946 H   0  0  0  0  0  0  0  0  0  0  0  0
    2.5977    0.7427    1.6107 H   0  0  0  0  0  0  0  0  0  0  0  0
    2.6048    2.3558    0.8872 H   0  0  0  0  0  0  0  0  0  0  0  0
    4.8742    1.9284   -0.0229 H   0  0  0  0  0  0  0  0  0  0  0  0
    4.9029    0.3201    0.7365 H   0  0  0  0  0  0  0  0  0  0  0  0
    4.5080    1.4836    2.8913 H   0  0  0  0  0  0  0  0  0  0  0  0
    6.2601    1.8112    4.4535 H   0  0  0  0  0  0  0  0  0  0  0  0
   10.0990    2.3715    3.1060 H   0  0  0  0  0  0  0  0  0  0  0  0
    8.5740    1.5751   -1.1763 H   0  0  0  0  0  0  0  0  0  0  0  0
   12.1401    3.2714   -2.3002 H   0  0  0  0  0  0  0  0  0  0  0  0
   13.2279    4.6897   -0.7583 H   0  0  0  0  0  0  0  0  0  0  0  0
   10.8363    5.9974    0.9919 H   0  0  0  0  0  0  0  0  0  0  0  0
   11.1163    7.8027    2.6363 H   0  0  0  0  0  0  0  0  0  0  0  0
   13.3500    8.1985    3.6831 H   0  0  0  0  0  0  0  0  0  0  0  0
   15.0093    4.9755    1.4048 H   0  0  0  0  0  0  0  0  0  0  0  0
    6.8942    2.4025    0.2587 H   0  0  0  0  0  0  0  0  0  0  0  0
  1  2  1  0  0  0  0
  1 26  1  0  0  0  0
  2  3  1  0  0  0  0
  2 27  1  0  0  0  0
  2 28  1  0  0  0  0
  3  4  1  0  0  0  0
  3 29  1  0  0  0  0
  3 30  1  0  0  0  0
  4  5  1  0  0  0  0
  4 31  1  0  0  0  0
  4 32  1  0  0  0  0
  5  6  1  0  0  0  0
  5 33  1  0  0  0  0
  6  7  1  0  0  0  0
  6 25  2  0  0  0  0
  7  8  2  0  0  0  0
  7 34  1  0  0  0  0
  8  9  1  0  0  0  0
  9 10  2  0  0  0  0
  9 35  1  0  0  0  0
 10 11  1  0  0  0  0
 10 25  1  0  0  0  0
 11 12  1  0  0  0  0
 11 24  2  0  0  0  0
 12 13  2  0  0  0  0
 12 36  1  0  0  0  0
 13 14  1  0  0  0  0
 14 15  2  0  0  0  0
 14 37  1  0  0  0  0
 15 16  1  0  0  0  0
 15 24  1  0  0  0  0
 16 17  1  0  0  0  0
 16 38  1  0  0  0  0
 17 18  1  0  0  0  0
 17 23  2  0  0  0  0
 18 19  2  0  0  0  0
 18 39  1  0  0  0  0
 19 20  1  0  0  0  0
 19 40  1  0  0  0  0
 20 21  2  0  0  0  0
 20 41  1  0  0  0  0
 21 22  1  0  0  0  0
 21 23  1  0  0  0  0
 23 42  1  0  0  0  0
 25 43  1  0  0  0  0
M  END
$$$$
