CHEMBL409349
 OpenBabel04072215383D

 48 51  0  0  0  0  0  0  0  0999 V2000
   -2.4001    0.8831   -0.7214 C   0  0  0  0  0  0  0  0  0  0  0  0
   -1.1785    0.1013   -1.1064 C   0  0  0  0  0  0  0  0  0  0  0  0
   -0.1590    0.7047   -1.8543 C   0  0  0  0  0  0  0  0  0  0  0  0
    0.9863   -0.0147   -2.2029 C   0  0  0  0  0  0  0  0  0  0  0  0
    2.0900    0.6109   -3.0038 C   0  0  0  0  0  0  0  0  0  0  0  0
    1.1112   -1.3443   -1.7795 C   0  0  0  0  0  0  0  0  0  0  0  0
    0.1186   -1.9577   -1.0065 C   0  0  0  0  0  0  0  0  0  0  0  0
    0.2387   -3.2842   -0.5317 N   0  0  0  0  0  0  0  0  0  0  0  0
    1.4435   -3.9418   -0.3571 C   0  0  0  0  0  0  0  0  0  0  0  0
    2.5516   -3.4166   -0.4670 O   0  0  0  0  0  0  0  0  0  0  0  0
    1.2603   -5.2863   -0.0640 N   0  0  0  0  0  0  0  0  0  0  0  0
    2.3754   -6.1308    0.1532 C   0  0  0  0  0  0  0  0  0  0  0  0
    3.4624   -5.7210    0.9260 C   0  0  0  0  0  0  0  0  0  0  0  0
    4.6213   -6.5025    0.9978 C   0  0  0  0  0  0  0  0  0  0  0  0
    4.7210   -7.7256    0.3157 C   0  0  0  0  0  0  0  0  0  0  0  0
    5.9700   -8.5188    0.3343 C   0  0  0  0  0  0  0  0  0  0  0  0
    6.7601   -8.6249    1.5099 C   0  0  0  0  0  0  0  0  0  0  0  0
    7.9042   -9.4264    1.5817 C   0  0  0  0  0  0  0  0  0  0  0  0
    8.3067  -10.1904    0.4913 C   0  0  0  0  0  0  0  0  0  0  0  0
    7.5518  -10.0494   -0.6687 C   0  0  0  0  0  0  0  0  0  0  0  0
    7.8037  -10.6936   -1.8361 O   0  0  0  0  0  0  0  0  0  0  0  0
    6.9138  -10.2686   -2.7987 N   0  0  0  0  0  0  0  0  0  0  0  0
    6.1392   -9.3603   -2.2020 C   0  0  0  0  0  0  0  0  0  0  0  0
    5.2205   -8.6390   -2.8759 N   0  0  0  0  0  0  0  0  0  0  0  0
    6.4416   -9.2264   -0.8092 C   0  0  0  0  0  0  0  0  0  0  0  0
    3.5675   -8.1680   -0.3598 C   0  0  0  0  0  0  0  0  0  0  0  0
    2.4104   -7.3818   -0.4530 C   0  0  0  0  0  0  0  0  0  0  0  0
   -1.0389   -1.2367   -0.7000 C   0  0  0  0  0  0  0  0  0  0  0  0
   -2.3581    1.9081   -1.1050 H   0  0  0  0  0  0  0  0  0  0  0  0
   -2.4821    0.9386    0.3687 H   0  0  0  0  0  0  0  0  0  0  0  0
   -3.2974    0.4087   -1.1296 H   0  0  0  0  0  0  0  0  0  0  0  0
   -0.2556    1.7430   -2.1653 H   0  0  0  0  0  0  0  0  0  0  0  0
    1.8556    1.6455   -3.2734 H   0  0  0  0  0  0  0  0  0  0  0  0
    2.2493    0.0497   -3.9303 H   0  0  0  0  0  0  0  0  0  0  0  0
    3.0190    0.6174   -2.4238 H   0  0  0  0  0  0  0  0  0  0  0  0
    2.0045   -1.8899   -2.0734 H   0  0  0  0  0  0  0  0  0  0  0  0
   -0.5435   -3.6645   -0.0188 H   0  0  0  0  0  0  0  0  0  0  0  0
    0.4656   -5.7011   -0.5300 H   0  0  0  0  0  0  0  0  0  0  0  0
    3.4350   -4.7725    1.4586 H   0  0  0  0  0  0  0  0  0  0  0  0
    5.4568   -6.1147    1.5770 H   0  0  0  0  0  0  0  0  0  0  0  0
    6.4699   -8.0804    2.4077 H   0  0  0  0  0  0  0  0  0  0  0  0
    8.4763   -9.4672    2.5063 H   0  0  0  0  0  0  0  0  0  0  0  0
    9.1720  -10.8414    0.5275 H   0  0  0  0  0  0  0  0  0  0  0  0
    5.2827   -8.6764   -3.8884 H   0  0  0  0  0  0  0  0  0  0  0  0
    4.9866   -7.7097   -2.5365 H   0  0  0  0  0  0  0  0  0  0  0  0
    3.5668   -9.1309   -0.8690 H   0  0  0  0  0  0  0  0  0  0  0  0
    1.5842   -7.7352   -1.0624 H   0  0  0  0  0  0  0  0  0  0  0  0
   -1.8304   -1.6937   -0.1114 H   0  0  0  0  0  0  0  0  0  0  0  0
  1  2  1  0  0  0  0
  1 29  1  0  0  0  0
  1 30  1  0  0  0  0
  1 31  1  0  0  0  0
  2  3  1  0  0  0  0
  2 28  2  0  0  0  0
  3  4  2  0  0  0  0
  3 32  1  0  0  0  0
  4  5  1  0  0  0  0
  4  6  1  0  0  0  0
  5 33  1  0  0  0  0
  5 34  1  0  0  0  0
  5 35  1  0  0  0  0
  6  7  2  0  0  0  0
  6 36  1  0  0  0  0
  7  8  1  0  0  0  0
  7 28  1  0  0  0  0
  8  9  1  0  0  0  0
  8 37  1  0  0  0  0
  9 10  2  0  0  0  0
  9 11  1  0  0  0  0
 11 12  1  0  0  0  0
 11 38  1  0  0  0  0
 12 13  1  0  0  0  0
 12 27  2  0  0  0  0
 13 14  2  0  0  0  0
 13 39  1  0  0  0  0
 14 15  1  0  0  0  0
 14 40  1  0  0  0  0
 15 16  1  0  0  0  0
 15 26  2  0  0  0  0
 16 17  1  0  0  0  0
 16 25  2  0  0  0  0
 17 18  2  0  0  0  0
 17 41  1  0  0  0  0
 18 19  1  0  0  0  0
 18 42  1  0  0  0  0
 19 20  2  0  0  0  0
 19 43  1  0  0  0  0
 20 21  1  0  0  0  0
 20 25  1  0  0  0  0
 21 22  1  0  0  0  0
 22 23  2  0  0  0  0
 23 24  1  0  0  0  0
 23 25  1  0  0  0  0
 24 44  1  0  0  0  0
 24 45  1  0  0  0  0
 26 27  1  0  0  0  0
 26 46  1  0  0  0  0
 27 47  1  0  0  0  0
 28 48  1  0  0  0  0
M  END
$$$$
