CHEMBL3694698
 OpenBabel04072215373D

 52 55  0  0  0  0  0  0  0  0999 V2000
    2.0939    0.2343   -1.1325 C   0  0  0  0  0  0  0  0  0  0  0  0
    2.4617    0.2360    0.3249 C   0  0  0  0  0  0  0  0  0  0  0  0
    2.0426    1.1243    1.0674 O   0  0  0  0  0  0  0  0  0  0  0  0
    3.3291   -0.8235    0.8974 C   0  0  0  0  0  0  0  0  0  0  0  0
    3.6274   -0.7344    2.2443 C   0  0  0  0  0  0  0  0  0  0  0  0
    4.4389   -1.5869    2.9019 N   0  0  0  0  0  0  0  0  0  0  0  0
    4.9850   -2.5713    2.1725 C   0  0  0  0  0  0  0  0  0  0  0  0
    5.9949   -3.4306    2.8523 C   0  0  0  0  0  0  0  0  0  0  0  0
    6.4143   -3.1658    4.2352 C   0  0  0  0  0  0  0  0  0  0  0  0
    7.4002   -3.8806    4.7963 C   0  0  0  0  0  0  0  0  0  0  0  0
    7.9948   -4.9290    4.0880 N   0  0  0  0  0  0  0  0  0  0  0  0
    8.9810   -5.8514    4.4532 C   0  0  0  0  0  0  0  0  0  0  0  0
    9.5905   -6.0213    5.7853 C   0  0  0  0  0  0  0  0  0  0  0  0
    8.8340   -5.7654    6.9362 C   0  0  0  0  0  0  0  0  0  0  0  0
    9.3821   -5.9038    8.2025 C   0  0  0  0  0  0  0  0  0  0  0  0
   10.6753   -6.3861    8.3446 C   0  0  0  0  0  0  0  0  0  0  0  0
   11.4424   -6.7447    7.2337 C   0  0  0  0  0  0  0  0  0  0  0  0
   12.7289   -7.3400    7.3703 N   0  0  0  0  0  0  0  0  0  0  0  0
   13.3266   -7.6906    8.5621 C   0  0  0  0  0  0  0  0  0  0  0  0
   12.8616   -7.5531    9.6929 O   0  0  0  0  0  0  0  0  0  0  0  0
   14.5974   -8.1980    8.4114 N   0  0  0  0  0  0  0  0  0  0  0  0
   15.3227   -8.6007    9.6310 C   0  0  0  0  0  0  0  0  0  0  0  0
   14.9956   -9.9896   10.2002 C   0  0  0  0  0  0  0  0  0  0  0  0
   14.1523  -10.6879    9.4077 F   0  0  0  0  0  0  0  0  0  0  0  0
   16.1345  -10.7229   10.3013 F   0  0  0  0  0  0  0  0  0  0  0  0
   14.4559   -9.9255   11.4369 F   0  0  0  0  0  0  0  0  0  0  0  0
   10.9055   -6.5205    5.9507 C   0  0  0  0  0  0  0  0  0  0  0  0
    9.1798   -6.5896    3.2947 C   0  0  0  0  0  0  0  0  0  0  0  0
    8.3484   -6.2023    2.2786 N   0  0  0  0  0  0  0  0  0  0  0  0
    7.6284   -5.2221    2.7760 C   0  0  0  0  0  0  0  0  0  0  0  0
    6.5949   -4.4390    2.1751 C   0  0  0  0  0  0  0  0  0  0  0  0
    4.7389   -2.7619    0.8631 N   0  0  0  0  0  0  0  0  0  0  0  0
    3.9147   -1.8957    0.2413 C   0  0  0  0  0  0  0  0  0  0  0  0
    3.7772   -2.1652   -1.1168 N   0  0  0  0  0  0  0  0  0  0  0  0
    1.4359    1.0873   -1.3306 H   0  0  0  0  0  0  0  0  0  0  0  0
    1.5303   -0.6667   -1.3830 H   0  0  0  0  0  0  0  0  0  0  0  0
    2.9841    0.3474   -1.7551 H   0  0  0  0  0  0  0  0  0  0  0  0
    3.2265    0.0652    2.8642 H   0  0  0  0  0  0  0  0  0  0  0  0
    5.9265   -2.3647    4.7852 H   0  0  0  0  0  0  0  0  0  0  0  0
    7.7479   -3.6568    5.7932 H   0  0  0  0  0  0  0  0  0  0  0  0
    7.7908   -5.4752    6.8802 H   0  0  0  0  0  0  0  0  0  0  0  0
    8.7955   -5.6627    9.0837 H   0  0  0  0  0  0  0  0  0  0  0  0
   11.0363   -6.4867    9.3605 H   0  0  0  0  0  0  0  0  0  0  0  0
   13.2189   -7.5666    6.5195 H   0  0  0  0  0  0  0  0  0  0  0  0
   14.8084   -8.6836    7.5563 H   0  0  0  0  0  0  0  0  0  0  0  0
   15.1319   -7.8532   10.4105 H   0  0  0  0  0  0  0  0  0  0  0  0
   16.3884   -8.5387    9.3910 H   0  0  0  0  0  0  0  0  0  0  0  0
   11.5011   -6.7499    5.0712 H   0  0  0  0  0  0  0  0  0  0  0  0
    9.8646   -7.4156    3.1545 H   0  0  0  0  0  0  0  0  0  0  0  0
    6.3408   -4.6748    1.1469 H   0  0  0  0  0  0  0  0  0  0  0  0
    4.3053   -3.0165   -1.3076 H   0  0  0  0  0  0  0  0  0  0  0  0
    2.8165   -2.2801   -1.4166 H   0  0  0  0  0  0  0  0  0  0  0  0
  1  2  1  0  0  0  0
  1 35  1  0  0  0  0
  1 36  1  0  0  0  0
  1 37  1  0  0  0  0
  2  3  2  0  0  0  0
  2  4  1  0  0  0  0
  4  5  1  0  0  0  0
  4 33  2  0  0  0  0
  5  6  2  0  0  0  0
  5 38  1  0  0  0  0
  6  7  1  0  0  0  0
  7  8  1  0  0  0  0
  7 32  2  0  0  0  0
  8  9  1  0  0  0  0
  8 31  2  0  0  0  0
  9 10  2  0  0  0  0
  9 39  1  0  0  0  0
 10 11  1  0  0  0  0
 10 40  1  0  0  0  0
 11 12  1  0  0  0  0
 11 30  1  0  0  0  0
 12 13  1  0  0  0  0
 12 28  2  0  0  0  0
 13 14  1  0  0  0  0
 13 27  2  0  0  0  0
 14 15  2  0  0  0  0
 14 41  1  0  0  0  0
 15 16  1  0  0  0  0
 15 42  1  0  0  0  0
 16 17  2  0  0  0  0
 16 43  1  0  0  0  0
 17 18  1  0  0  0  0
 17 27  1  0  0  0  0
 18 19  1  0  0  0  0
 18 44  1  0  0  0  0
 19 20  2  0  0  0  0
 19 21  1  0  0  0  0
 21 22  1  0  0  0  0
 21 45  1  0  0  0  0
 22 23  1  0  0  0  0
 22 46  1  0  0  0  0
 22 47  1  0  0  0  0
 23 24  1  0  0  0  0
 23 25  1  0  0  0  0
 23 26  1  0  0  0  0
 27 48  1  0  0  0  0
 28 29  1  0  0  0  0
 28 49  1  0  0  0  0
 29 30  2  0  0  0  0
 30 31  1  0  0  0  0
 31 50  1  0  0  0  0
 32 33  1  0  0  0  0
 33 34  1  0  0  0  0
 34 51  1  0  0  0  0
 34 52  1  0  0  0  0
M  END
$$$$
