CHEMBL3671515
 OpenBabel04072215373D

 53 55  0  0  0  0  0  0  0  0999 V2000
    2.6178    1.4198    2.0782 C   0  0  0  0  0  0  0  0  0  0  0  0
    3.2086    0.7036    1.1129 C   0  0  0  0  0  0  0  0  0  0  0  0
    4.0888   -0.4328    1.4797 C   0  0  0  0  0  0  0  0  0  0  0  0
    4.3671   -0.6796    2.6485 O   0  0  0  0  0  0  0  0  0  0  0  0
    4.5010   -1.1690    0.3824 N   0  0  0  0  0  0  0  0  0  0  0  0
    5.2478   -2.3489    0.5531 C   0  0  0  0  0  0  0  0  0  0  0  0
    6.4171   -2.2107    1.2965 C   0  0  0  0  0  0  0  0  0  0  0  0
    7.1486   -3.3243    1.7332 C   0  0  0  0  0  0  0  0  0  0  0  0
    8.2807   -3.2220    2.5518 C   0  0  0  0  0  0  0  0  0  0  0  0
    8.7443   -1.9312    2.9418 N   0  0  0  0  0  0  0  0  0  0  0  0
    9.9805   -1.6684    3.5748 C   0  0  0  0  0  0  0  0  0  0  0  0
   10.0361   -0.7370    4.6228 C   0  0  0  0  0  0  0  0  0  0  0  0
   11.2322   -0.5099    5.3094 C   0  0  0  0  0  0  0  0  0  0  0  0
   12.3879   -1.1959    4.9368 C   0  0  0  0  0  0  0  0  0  0  0  0
   13.9847   -0.9532    5.9158 Br  0  0  0  0  0  0  0  0  0  0  0  0
   12.3721   -2.0681    3.8542 C   0  0  0  0  0  0  0  0  0  0  0  0
   11.1832   -2.2817    3.1725 C   0  0  0  0  0  0  0  0  0  0  0  0
   11.2139   -3.0738    2.0931 F   0  0  0  0  0  0  0  0  0  0  0  0
    8.9263   -4.3148    2.9924 N   0  0  0  0  0  0  0  0  0  0  0  0
    8.4473   -5.4952    2.5904 C   0  0  0  0  0  0  0  0  0  0  0  0
    7.3790   -5.6963    1.8045 N   0  0  0  0  0  0  0  0  0  0  0  0
    6.7262   -4.6030    1.3783 C   0  0  0  0  0  0  0  0  0  0  0  0
    5.5923   -4.7301    0.5725 C   0  0  0  0  0  0  0  0  0  0  0  0
    4.8512   -3.6216    0.1205 C   0  0  0  0  0  0  0  0  0  0  0  0
    3.7092   -3.9424   -0.5815 O   0  0  0  0  0  0  0  0  0  0  0  0
    3.4185   -3.0915   -1.6912 C   0  0  0  0  0  0  0  0  0  0  0  0
    2.2687   -3.6151   -2.5633 C   0  0  0  0  0  0  0  0  0  0  0  0
    2.5666   -4.8296   -3.3162 N   0  0  0  0  0  0  0  0  0  0  0  0
    2.0696   -6.0841   -2.7734 C   0  0  0  0  0  0  0  0  0  0  0  0
    3.2413   -4.8941   -4.5252 C   0  0  0  0  0  0  0  0  0  0  0  0
    3.8102   -3.6312   -5.1263 C   0  0  0  0  0  0  0  0  0  0  0  0
    3.3884   -5.9587   -5.1308 O   0  0  0  0  0  0  0  0  0  0  0  0
    1.9711    2.2557    1.8398 H   0  0  0  0  0  0  0  0  0  0  0  0
    2.7640    1.1847    3.1309 H   0  0  0  0  0  0  0  0  0  0  0  0
    3.0541    0.9401    0.0695 H   0  0  0  0  0  0  0  0  0  0  0  0
    4.1518   -0.9341   -0.5300 H   0  0  0  0  0  0  0  0  0  0  0  0
    6.7454   -1.2090    1.5627 H   0  0  0  0  0  0  0  0  0  0  0  0
    7.9752   -1.4230    3.3694 H   0  0  0  0  0  0  0  0  0  0  0  0
    9.1427   -0.2000    4.9335 H   0  0  0  0  0  0  0  0  0  0  0  0
   11.2484    0.1900    6.1410 H   0  0  0  0  0  0  0  0  0  0  0  0
   13.2649   -2.5922    3.5273 H   0  0  0  0  0  0  0  0  0  0  0  0
    8.9770   -6.3747    2.9389 H   0  0  0  0  0  0  0  0  0  0  0  0
    5.2605   -5.7342    0.3126 H   0  0  0  0  0  0  0  0  0  0  0  0
    4.3228   -2.9293   -2.2863 H   0  0  0  0  0  0  0  0  0  0  0  0
    3.0361   -2.1450   -1.3136 H   0  0  0  0  0  0  0  0  0  0  0  0
    1.9928   -2.8329   -3.2797 H   0  0  0  0  0  0  0  0  0  0  0  0
    1.3795   -3.7894   -1.9462 H   0  0  0  0  0  0  0  0  0  0  0  0
    1.5578   -5.9318   -1.8193 H   0  0  0  0  0  0  0  0  0  0  0  0
    2.9084   -6.7698   -2.6295 H   0  0  0  0  0  0  0  0  0  0  0  0
    1.3676   -6.5253   -3.4892 H   0  0  0  0  0  0  0  0  0  0  0  0
    3.7103   -2.7458   -4.5024 H   0  0  0  0  0  0  0  0  0  0  0  0
    3.3088   -3.4379   -6.0791 H   0  0  0  0  0  0  0  0  0  0  0  0
    4.8781   -3.7880   -5.3075 H   0  0  0  0  0  0  0  0  0  0  0  0
  1  2  2  0  0  0  0
  1 33  1  0  0  0  0
  1 34  1  0  0  0  0
  2  3  1  0  0  0  0
  2 35  1  0  0  0  0
  3  4  2  0  0  0  0
  3  5  1  0  0  0  0
  5  6  1  0  0  0  0
  5 36  1  0  0  0  0
  6  7  1  0  0  0  0
  6 24  2  0  0  0  0
  7  8  2  0  0  0  0
  7 37  1  0  0  0  0
  8  9  1  0  0  0  0
  8 22  1  0  0  0  0
  9 10  1  0  0  0  0
  9 19  2  0  0  0  0
 10 11  1  0  0  0  0
 10 38  1  0  0  0  0
 11 12  1  0  0  0  0
 11 17  2  0  0  0  0
 12 13  2  0  0  0  0
 12 39  1  0  0  0  0
 13 14  1  0  0  0  0
 13 40  1  0  0  0  0
 14 15  1  0  0  0  0
 14 16  2  0  0  0  0
 16 17  1  0  0  0  0
 16 41  1  0  0  0  0
 17 18  1  0  0  0  0
 19 20  1  0  0  0  0
 20 21  2  0  0  0  0
 20 42  1  0  0  0  0
 21 22  1  0  0  0  0
 22 23  2  0  0  0  0
 23 24  1  0  0  0  0
 23 43  1  0  0  0  0
 24 25  1  0  0  0  0
 25 26  1  0  0  0  0
 26 27  1  0  0  0  0
 26 44  1  0  0  0  0
 26 45  1  0  0  0  0
 27 28  1  0  0  0  0
 27 46  1  0  0  0  0
 27 47  1  0  0  0  0
 28 29  1  0  0  0  0
 28 30  1  0  0  0  0
 29 48  1  0  0  0  0
 29 49  1  0  0  0  0
 29 50  1  0  0  0  0
 30 31  1  0  0  0  0
 30 32  2  0  0  0  0
 31 51  1  0  0  0  0
 31 52  1  0  0  0  0
 31 53  1  0  0  0  0
M  END
$$$$
