CHEMBL2006715
 OpenBabel04072215363D

 67 73  0  0  0  0  0  0  0  0999 V2000
    0.3554   -0.2303   -0.1083 O   0  0  0  0  0  0  0  0  0  0  0  0
    1.2710    0.5835   -0.0424 C   0  0  0  0  0  0  0  0  0  0  0  0
    1.9712    0.9307    1.0997 N   0  0  0  0  0  0  0  0  0  0  0  0
    1.7857    0.3762    2.3844 C   0  0  0  0  0  0  0  0  0  0  0  0
    1.0582   -0.7911    2.6222 C   0  0  0  0  0  0  0  0  0  0  0  0
    0.8904   -1.2719    3.9212 C   0  0  0  0  0  0  0  0  0  0  0  0
    1.4450   -0.5832    4.9969 C   0  0  0  0  0  0  0  0  0  0  0  0
    2.1905    0.5826    4.7827 C   0  0  0  0  0  0  0  0  0  0  0  0
    2.8000    1.2566    5.9223 C   0  0  0  0  0  0  0  0  0  0  0  0
    3.2746    0.5212    7.0011 N   0  0  0  0  0  0  0  0  0  0  0  0
    3.8006    1.4252    7.7697 C   0  0  0  0  0  0  0  0  0  0  0  0
    4.6554    1.3784    9.2811 S   0  0  0  0  0  0  0  0  0  0  0  0
    4.8535    3.1301    9.1817 C   0  0  0  0  0  0  0  0  0  0  0  0
    4.2858    3.6595    8.0854 C   0  0  0  0  0  0  0  0  0  0  0  0
    3.7004    2.6940    7.2854 N   0  0  0  0  0  0  0  0  0  0  0  0
    3.0186    2.6338    6.0859 C   0  0  0  0  0  0  0  0  0  0  0  0
    2.6277    3.7940    5.2937 C   0  0  0  0  0  0  0  0  0  0  0  0
    3.4167    4.9185    5.1783 C   0  0  0  0  0  0  0  0  0  0  0  0
    2.8843    5.9470    4.4524 C   0  0  0  0  0  0  0  0  0  0  0  0
    1.6949    5.8647    3.8447 N   0  0  0  0  0  0  0  0  0  0  0  0
    0.9988    4.7266    3.9717 C   0  0  0  0  0  0  0  0  0  0  0  0
   -0.2483    4.6281    3.3473 N   0  0  0  0  0  0  0  0  0  0  0  0
   -1.1907    5.6782    3.2841 C   0  0  0  0  0  0  0  0  0  0  0  0
   -1.1811    6.7236    4.2155 C   0  0  0  0  0  0  0  0  0  0  0  0
   -2.0813    7.7804    4.1067 C   0  0  0  0  0  0  0  0  0  0  0  0
   -2.9931    7.8002    3.0599 C   0  0  0  0  0  0  0  0  0  0  0  0
   -3.0423    6.7682    2.1154 C   0  0  0  0  0  0  0  0  0  0  0  0
   -3.9403    6.8273    1.0158 N   0  0  0  0  0  0  0  0  0  0  0  0
   -3.8908    5.8969   -0.0875 C   0  0  0  0  0  0  0  0  0  0  0  0
   -4.6893    6.5768   -1.1804 C   0  0  0  0  0  0  0  0  0  0  0  0
   -5.7117    7.3973   -0.4199 C   0  0  0  0  0  0  0  0  0  0  0  0
   -5.0069    7.7266    0.8690 C   0  0  0  0  0  0  0  0  0  0  0  0
   -5.3979    8.6022    1.6262 O   0  0  0  0  0  0  0  0  0  0  0  0
   -2.1470    5.6909    2.2599 C   0  0  0  0  0  0  0  0  0  0  0  0
    1.4280    3.6799    4.6856 N   0  0  0  0  0  0  0  0  0  0  0  0
    2.3752    1.0356    3.4687 C   0  0  0  0  0  0  0  0  0  0  0  0
    1.6536    1.2881   -1.2811 C   0  0  0  0  0  0  0  0  0  0  0  0
    0.6719    1.5902   -2.2263 C   0  0  0  0  0  0  0  0  0  0  0  0
   -0.6250    1.3470   -1.9887 F   0  0  0  0  0  0  0  0  0  0  0  0
    1.0051    2.1877   -3.4421 C   0  0  0  0  0  0  0  0  0  0  0  0
    2.3367    2.4896   -3.7252 C   0  0  0  0  0  0  0  0  0  0  0  0
    3.3254    2.2010   -2.7851 C   0  0  0  0  0  0  0  0  0  0  0  0
    2.9790    1.6060   -1.5713 C   0  0  0  0  0  0  0  0  0  0  0  0
    3.9592    1.3393   -0.6956 F   0  0  0  0  0  0  0  0  0  0  0  0
    2.6316    1.6971    1.0353 H   0  0  0  0  0  0  0  0  0  0  0  0
    0.6300   -1.3687    1.8103 H   0  0  0  0  0  0  0  0  0  0  0  0
    0.3293   -2.1882    4.0869 H   0  0  0  0  0  0  0  0  0  0  0  0
    1.3042   -0.9678    6.0052 H   0  0  0  0  0  0  0  0  0  0  0  0
    5.3825    3.6876    9.9437 H   0  0  0  0  0  0  0  0  0  0  0  0
    4.2762    4.7043    7.8250 H   0  0  0  0  0  0  0  0  0  0  0  0
    4.3976    5.0133    5.6194 H   0  0  0  0  0  0  0  0  0  0  0  0
    3.4018    6.8937    4.3356 H   0  0  0  0  0  0  0  0  0  0  0  0
   -0.6494    3.7155    3.5192 H   0  0  0  0  0  0  0  0  0  0  0  0
   -0.4695    6.7407    5.0338 H   0  0  0  0  0  0  0  0  0  0  0  0
   -2.0534    8.5959    4.8240 H   0  0  0  0  0  0  0  0  0  0  0  0
   -3.6443    8.6665    2.9956 H   0  0  0  0  0  0  0  0  0  0  0  0
   -4.3570    4.9554    0.2229 H   0  0  0  0  0  0  0  0  0  0  0  0
   -2.8644    5.7173   -0.4221 H   0  0  0  0  0  0  0  0  0  0  0  0
   -5.1452    5.8694   -1.8778 H   0  0  0  0  0  0  0  0  0  0  0  0
   -4.0377    7.2462   -1.7564 H   0  0  0  0  0  0  0  0  0  0  0  0
   -6.6097    6.8174   -0.1872 H   0  0  0  0  0  0  0  0  0  0  0  0
   -5.9774    8.3116   -0.9564 H   0  0  0  0  0  0  0  0  0  0  0  0
   -2.1513    4.8622    1.5619 H   0  0  0  0  0  0  0  0  0  0  0  0
    2.9696    1.9266    3.2854 H   0  0  0  0  0  0  0  0  0  0  0  0
    0.2201    2.4052   -4.1589 H   0  0  0  0  0  0  0  0  0  0  0  0
    2.6002    2.9446   -4.6773 H   0  0  0  0  0  0  0  0  0  0  0  0
    4.3672    2.4270   -2.9942 H   0  0  0  0  0  0  0  0  0  0  0  0
  1  2  2  0  0  0  0
  2  3  1  0  0  0  0
  2 37  1  0  0  0  0
  3  4  1  0  0  0  0
  3 45  1  0  0  0  0
  4  5  1  0  0  0  0
  4 36  2  0  0  0  0
  5  6  2  0  0  0  0
  5 46  1  0  0  0  0
  6  7  1  0  0  0  0
  6 47  1  0  0  0  0
  7  8  2  0  0  0  0
  7 48  1  0  0  0  0
  8  9  1  0  0  0  0
  8 36  1  0  0  0  0
  9 10  1  0  0  0  0
  9 16  2  0  0  0  0
 10 11  2  0  0  0  0
 11 12  1  0  0  0  0
 11 15  1  0  0  0  0
 12 13  1  0  0  0  0
 13 14  2  0  0  0  0
 13 49  1  0  0  0  0
 14 15  1  0  0  0  0
 14 50  1  0  0  0  0
 15 16  1  0  0  0  0
 16 17  1  0  0  0  0
 17 18  1  0  0  0  0
 17 35  2  0  0  0  0
 18 19  2  0  0  0  0
 18 51  1  0  0  0  0
 19 20  1  0  0  0  0
 19 52  1  0  0  0  0
 20 21  2  0  0  0  0
 21 22  1  0  0  0  0
 21 35  1  0  0  0  0
 22 23  1  0  0  0  0
 22 53  1  0  0  0  0
 23 24  1  0  0  0  0
 23 34  2  0  0  0  0
 24 25  2  0  0  0  0
 24 54  1  0  0  0  0
 25 26  1  0  0  0  0
 25 55  1  0  0  0  0
 26 27  2  0  0  0  0
 26 56  1  0  0  0  0
 27 28  1  0  0  0  0
 27 34  1  0  0  0  0
 28 29  1  0  0  0  0
 28 32  1  0  0  0  0
 29 30  1  0  0  0  0
 29 57  1  0  0  0  0
 29 58  1  0  0  0  0
 30 31  1  0  0  0  0
 30 59  1  0  0  0  0
 30 60  1  0  0  0  0
 31 32  1  0  0  0  0
 31 61  1  0  0  0  0
 31 62  1  0  0  0  0
 32 33  2  0  0  0  0
 34 63  1  0  0  0  0
 36 64  1  0  0  0  0
 37 38  1  0  0  0  0
 37 43  2  0  0  0  0
 38 39  1  0  0  0  0
 38 40  2  0  0  0  0
 40 41  1  0  0  0  0
 40 65  1  0  0  0  0
 41 42  2  0  0  0  0
 41 66  1  0  0  0  0
 42 43  1  0  0  0  0
 42 67  1  0  0  0  0
 43 44  1  0  0  0  0
M  END
$$$$
