CHEMBL253969
 OpenBabel04072215363D

 56 58  0  0  0  0  0  0  0  0999 V2000
    2.4022    3.7010   -0.3332 N   0  0  0  0  0  0  0  0  0  0  0  0
    2.1048    4.8287    0.3920 C   0  0  0  0  0  0  0  0  0  0  0  0
    2.5460    5.9094    0.0229 O   0  0  0  0  0  0  0  0  0  0  0  0
    1.2741    4.6509    1.5701 C   0  0  0  0  0  0  0  0  0  0  0  0
    0.5206    5.6927    2.2317 C   0  0  0  0  0  0  0  0  0  0  0  0
    0.4284    7.0027    1.8580 O   0  0  0  0  0  0  0  0  0  0  0  0
    0.0163    7.8343    2.9583 C   0  0  0  0  0  0  0  0  0  0  0  0
   -0.1608    9.2914    2.6874 C   0  0  0  0  0  0  0  0  0  0  0  0
   -0.2082    9.8812    1.4273 C   0  0  0  0  0  0  0  0  0  0  0  0
   -0.0495    9.1450    0.3195 F   0  0  0  0  0  0  0  0  0  0  0  0
   -0.4503   11.2470    1.2822 C   0  0  0  0  0  0  0  0  0  0  0  0
   -0.6595   12.0378    2.4119 C   0  0  0  0  0  0  0  0  0  0  0  0
   -0.9965   13.8873    2.2229 Br  0  0  0  0  0  0  0  0  0  0  0  0
   -0.6342   11.4756    3.6821 C   0  0  0  0  0  0  0  0  0  0  0  0
   -0.3871   10.1145    3.8006 C   0  0  0  0  0  0  0  0  0  0  0  0
   -0.3913    9.5716    5.0275 F   0  0  0  0  0  0  0  0  0  0  0  0
   -0.1787    5.3378    3.3056 N   0  0  0  0  0  0  0  0  0  0  0  0
    0.1700    3.7988    3.6786 S   0  0  0  0  0  0  0  0  0  0  0  0
    1.0656    3.4609    2.2648 C   0  0  0  0  0  0  0  0  0  0  0  0
    1.5553    2.1809    2.0612 N   0  0  0  0  0  0  0  0  0  0  0  0
    0.9780    0.9836    2.4192 C   0  0  0  0  0  0  0  0  0  0  0  0
    1.5457   -0.0703    2.1482 O   0  0  0  0  0  0  0  0  0  0  0  0
   -0.2705    1.0437    2.9599 N   0  0  0  0  0  0  0  0  0  0  0  0
   -1.0429   -0.1035    3.3643 C   0  0  0  0  0  0  0  0  0  0  0  0
   -2.3908    0.3218    3.9494 C   0  0  0  0  0  0  0  0  0  0  0  0
   -3.2931    1.1038    2.9749 C   0  0  0  0  0  0  0  0  0  0  0  0
   -4.6580    1.3629    3.6375 C   0  0  0  0  0  0  0  0  0  0  0  0
   -5.6003    2.2001    2.8803 N   0  0  0  0  0  0  0  0  0  0  0  0
   -6.8601    2.3567    3.6386 C   0  0  0  0  0  0  0  0  0  0  0  0
   -7.8473    1.4052    2.9907 C   0  0  0  0  0  0  0  0  0  0  0  0
   -7.4810    1.5225    1.5300 C   0  0  0  0  0  0  0  0  0  0  0  0
   -5.9632    1.6570    1.5583 C   0  0  0  0  0  0  0  0  0  0  0  0
    2.8888    3.8756   -1.2054 H   0  0  0  0  0  0  0  0  0  0  0  0
    1.7979    2.8917   -0.3096 H   0  0  0  0  0  0  0  0  0  0  0  0
    0.7772    7.7326    3.7448 H   0  0  0  0  0  0  0  0  0  0  0  0
   -0.9632    7.4977    3.3311 H   0  0  0  0  0  0  0  0  0  0  0  0
   -0.4811   11.6723    0.2853 H   0  0  0  0  0  0  0  0  0  0  0  0
   -0.8127   12.0623    4.5755 H   0  0  0  0  0  0  0  0  0  0  0  0
    2.3812    2.0688    1.4838 H   0  0  0  0  0  0  0  0  0  0  0  0
   -0.5140    1.9073    3.4144 H   0  0  0  0  0  0  0  0  0  0  0  0
   -0.4654   -0.6429    4.1230 H   0  0  0  0  0  0  0  0  0  0  0  0
   -1.1679   -0.7635    2.5010 H   0  0  0  0  0  0  0  0  0  0  0  0
   -2.2160    0.9452    4.8374 H   0  0  0  0  0  0  0  0  0  0  0  0
   -2.9183   -0.5757    4.2908 H   0  0  0  0  0  0  0  0  0  0  0  0
   -3.4119    0.5249    2.0531 H   0  0  0  0  0  0  0  0  0  0  0  0
   -2.8262    2.0591    2.7056 H   0  0  0  0  0  0  0  0  0  0  0  0
   -4.4592    1.8759    4.5882 H   0  0  0  0  0  0  0  0  0  0  0  0
   -5.1199    0.3987    3.8834 H   0  0  0  0  0  0  0  0  0  0  0  0
   -7.2100    3.3896    3.5215 H   0  0  0  0  0  0  0  0  0  0  0  0
   -6.7612    2.1710    4.7141 H   0  0  0  0  0  0  0  0  0  0  0  0
   -8.8882    1.6776    3.1860 H   0  0  0  0  0  0  0  0  0  0  0  0
   -7.6850    0.3789    3.3426 H   0  0  0  0  0  0  0  0  0  0  0  0
   -7.9377    2.4235    1.1022 H   0  0  0  0  0  0  0  0  0  0  0  0
   -7.8151    0.6591    0.9473 H   0  0  0  0  0  0  0  0  0  0  0  0
   -5.6272    2.3352    0.7662 H   0  0  0  0  0  0  0  0  0  0  0  0
   -5.5182    0.6752    1.3678 H   0  0  0  0  0  0  0  0  0  0  0  0
  1  2  1  0  0  0  0
  1 33  1  0  0  0  0
  1 34  1  0  0  0  0
  2  3  2  0  0  0  0
  2  4  1  0  0  0  0
  4  5  1  0  0  0  0
  4 19  2  0  0  0  0
  5  6  1  0  0  0  0
  5 17  2  0  0  0  0
  6  7  1  0  0  0  0
  7  8  1  0  0  0  0
  7 35  1  0  0  0  0
  7 36  1  0  0  0  0
  8  9  1  0  0  0  0
  8 15  2  0  0  0  0
  9 10  1  0  0  0  0
  9 11  2  0  0  0  0
 11 12  1  0  0  0  0
 11 37  1  0  0  0  0
 12 13  1  0  0  0  0
 12 14  2  0  0  0  0
 14 15  1  0  0  0  0
 14 38  1  0  0  0  0
 15 16  1  0  0  0  0
 17 18  1  0  0  0  0
 18 19  1  0  0  0  0
 19 20  1  0  0  0  0
 20 21  1  0  0  0  0
 20 39  1  0  0  0  0
 21 22  2  0  0  0  0
 21 23  1  0  0  0  0
 23 24  1  0  0  0  0
 23 40  1  0  0  0  0
 24 25  1  0  0  0  0
 24 41  1  0  0  0  0
 24 42  1  0  0  0  0
 25 26  1  0  0  0  0
 25 43  1  0  0  0  0
 25 44  1  0  0  0  0
 26 27  1  0  0  0  0
 26 45  1  0  0  0  0
 26 46  1  0  0  0  0
 27 28  1  0  0  0  0
 27 47  1  0  0  0  0
 27 48  1  0  0  0  0
 28 29  1  0  0  0  0
 28 32  1  0  0  0  0
 29 30  1  0  0  0  0
 29 49  1  0  0  0  0
 29 50  1  0  0  0  0
 30 31  1  0  0  0  0
 30 51  1  0  0  0  0
 30 52  1  0  0  0  0
 31 32  1  0  0  0  0
 31 53  1  0  0  0  0
 31 54  1  0  0  0  0
 32 55  1  0  0  0  0
 32 56  1  0  0  0  0
M  END
$$$$
