CHEMBL3968192
 OpenBabel04072215373D

 59 63  0  0  1  0  0  0  0  0999 V2000
    2.7942    0.3093   -1.4066 C   0  0  0  0  0  0  0  0  0  0  0  0
    2.5908   -0.2408   -0.1110 O   0  0  0  0  0  0  0  0  0  0  0  0
    3.2691    0.2535    0.9631 C   0  0  0  0  0  0  0  0  0  0  0  0
    4.4065    1.0427    0.8100 C   0  0  0  0  0  0  0  0  0  0  0  0
    5.0566    1.6185    1.9226 C   0  0  0  0  0  0  0  0  0  0  0  0
    6.1832    2.4488    1.8130 C   0  0  0  0  0  0  0  0  0  0  0  0
    6.6030    2.8520    0.5248 N   0  0  0  0  0  0  0  0  0  0  0  0
    7.9108    3.1052    0.0609 C   0  0  0  0  0  0  0  0  0  0  0  0
    8.9950    2.4132    0.6154 C   0  0  0  0  0  0  0  0  0  0  0  0
   10.2639    2.4958    0.0460 C   0  0  0  0  0  0  0  0  0  0  0  0
   10.4739    3.2795   -1.0898 C   0  0  0  0  0  0  0  0  0  0  0  0
   12.2188    3.2340   -1.8431 Br  0  0  0  0  0  0  0  0  0  0  0  0
    9.4214    4.0217   -1.6459 C   0  0  0  0  0  0  0  0  0  0  0  0
    9.6862    5.0309   -3.0308 Cl  0  0  0  0  0  0  0  0  0  0  0  0
    8.1424    3.9300   -1.0612 C   0  0  0  0  0  0  0  0  0  0  0  0
    6.7892    4.8173   -1.7149 Cl  0  0  0  0  0  0  0  0  0  0  0  0
    6.8424    2.9082    2.8885 N   0  0  0  0  0  0  0  0  0  0  0  0
    6.3339    2.5700    4.0763 C   0  0  0  0  0  0  0  0  0  0  0  0
    5.2411    1.8232    4.2939 N   0  0  0  0  0  0  0  0  0  0  0  0
    4.6149    1.3417    3.2133 C   0  0  0  0  0  0  0  0  0  0  0  0
    3.4907    0.5326    3.3646 C   0  0  0  0  0  0  0  0  0  0  0  0
    2.8256   -0.0409    2.2666 C   0  0  0  0  0  0  0  0  0  0  0  0
    1.7641   -0.8415    2.6357 O   0  0  0  0  0  0  0  0  0  0  0  0
    1.4576   -1.8841    1.7098 C   0  0  0  0  0  0  0  0  0  0  0  0
    0.3405   -2.8355    2.1857 C   0  0  1  0  0  0  0  0  0  0  0  0
   -1.0238   -2.1230    2.2549 C   0  0  0  0  0  0  0  0  0  0  0  0
   -1.3629   -1.6392    0.9138 N   0  0  3  0  0  0  0  0  0  0  0  0
   -2.2798   -0.5229    0.8667 C   0  0  0  0  0  0  0  0  0  0  0  0
   -2.9389   -0.2012   -0.4804 C   0  0  0  0  0  0  0  0  0  0  0  0
   -2.8972   -1.3100   -1.5242 C   0  0  0  0  0  0  0  0  0  0  0  0
   -1.5895   -2.0819   -1.4661 C   0  0  0  0  0  0  0  0  0  0  0  0
   -1.4293   -2.7097   -0.0801 C   0  0  1  0  0  0  0  0  0  0  0  0
   -0.1431   -3.5784   -0.0410 C   0  0  0  0  0  0  0  0  0  0  0  0
    0.2254   -3.9762    1.2944 O   0  0  0  0  0  0  0  0  0  0  0  0
    3.4723   -0.3382   -1.9701 H   0  0  0  0  0  0  0  0  0  0  0  0
    3.1581    1.3404   -1.4067 H   0  0  0  0  0  0  0  0  0  0  0  0
    1.8269    0.3188   -1.9177 H   0  0  0  0  0  0  0  0  0  0  0  0
    4.8340    1.1974   -0.1736 H   0  0  0  0  0  0  0  0  0  0  0  0
    5.8996    3.4455    0.0855 H   0  0  0  0  0  0  0  0  0  0  0  0
    8.8514    1.7627    1.4794 H   0  0  0  0  0  0  0  0  0  0  0  0
   11.0748    1.9188    0.4840 H   0  0  0  0  0  0  0  0  0  0  0  0
    6.8480    2.9439    4.9550 H   0  0  0  0  0  0  0  0  0  0  0  0
    3.1372    0.3148    4.3694 H   0  0  0  0  0  0  0  0  0  0  0  0
    2.3489   -2.4734    1.4873 H   0  0  0  0  0  0  0  0  0  0  0  0
    1.0951   -1.4268    0.7917 H   0  0  0  0  0  0  0  0  0  0  0  0
    0.5872   -3.2235    3.1807 H   0  0  0  0  0  0  0  0  0  0  0  0
   -0.9694   -1.2950    2.9712 H   0  0  0  0  0  0  0  0  0  0  0  0
   -1.7933   -2.8212    2.6135 H   0  0  0  0  0  0  0  0  0  0  0  0
   -1.6811    0.3600    1.1348 H   0  0  0  0  0  0  0  0  0  0  0  0
   -3.0543   -0.5965    1.6385 H   0  0  0  0  0  0  0  0  0  0  0  0
   -2.4560    0.6889   -0.9031 H   0  0  0  0  0  0  0  0  0  0  0  0
   -3.9857    0.0788   -0.3062 H   0  0  0  0  0  0  0  0  0  0  0  0
   -3.0326   -0.8763   -2.5217 H   0  0  0  0  0  0  0  0  0  0  0  0
   -3.7342   -1.9999   -1.3634 H   0  0  0  0  0  0  0  0  0  0  0  0
   -0.7504   -1.4024   -1.6751 H   0  0  0  0  0  0  0  0  0  0  0  0
   -1.5752   -2.8511   -2.2461 H   0  0  0  0  0  0  0  0  0  0  0  0
   -2.2847   -3.3656    0.1317 H   0  0  0  0  0  0  0  0  0  0  0  0
    0.7054   -3.0628   -0.5077 H   0  0  0  0  0  0  0  0  0  0  0  0
   -0.2910   -4.4947   -0.6230 H   0  0  0  0  0  0  0  0  0  0  0  0
  1  2  1  0  0  0  0
  1 35  1  0  0  0  0
  1 36  1  0  0  0  0
  1 37  1  0  0  0  0
  2  3  1  0  0  0  0
  3  4  1  0  0  0  0
  3 22  2  0  0  0  0
  4  5  2  0  0  0  0
  4 38  1  0  0  0  0
  5  6  1  0  0  0  0
  5 20  1  0  0  0  0
  6  7  1  0  0  0  0
  6 17  2  0  0  0  0
  7  8  1  0  0  0  0
  7 39  1  0  0  0  0
  8  9  1  0  0  0  0
  8 15  2  0  0  0  0
  9 10  2  0  0  0  0
  9 40  1  0  0  0  0
 10 11  1  0  0  0  0
 10 41  1  0  0  0  0
 11 12  1  0  0  0  0
 11 13  2  0  0  0  0
 13 14  1  0  0  0  0
 13 15  1  0  0  0  0
 15 16  1  0  0  0  0
 17 18  1  0  0  0  0
 18 19  2  0  0  0  0
 18 42  1  0  0  0  0
 19 20  1  0  0  0  0
 20 21  2  0  0  0  0
 21 22  1  0  0  0  0
 21 43  1  0  0  0  0
 22 23  1  0  0  0  0
 23 24  1  0  0  0  0
 24 25  1  0  0  0  0
 24 44  1  0  0  0  0
 24 45  1  0  0  0  0
 25 26  1  0  0  0  0
 25 34  1  0  0  0  0
 25 46  1  1  0  0  0
 26 27  1  0  0  0  0
 26 47  1  0  0  0  0
 26 48  1  0  0  0  0
 27 28  1  0  0  0  0
 27 32  1  0  0  0  0
 28 29  1  0  0  0  0
 28 49  1  0  0  0  0
 28 50  1  0  0  0  0
 29 30  1  0  0  0  0
 29 51  1  0  0  0  0
 29 52  1  0  0  0  0
 30 31  1  0  0  0  0
 30 53  1  0  0  0  0
 30 54  1  0  0  0  0
 31 32  1  0  0  0  0
 31 55  1  0  0  0  0
 31 56  1  0  0  0  0
 32 33  1  0  0  0  0
 32 57  1  1  0  0  0
 33 34  1  0  0  0  0
 33 58  1  0  0  0  0
 33 59  1  0  0  0  0
M  END
$$$$
