CHEMBL3676349
 OpenBabel04072215373D

 54 56  0  0  0  0  0  0  0  0999 V2000
    3.5348   -2.8570    2.7635 C   0  0  0  0  0  0  0  0  0  0  0  0
    3.5879   -2.7862    1.4284 C   0  0  0  0  0  0  0  0  0  0  0  0
    3.7376   -1.4545    0.7896 C   0  0  0  0  0  0  0  0  0  0  0  0
    3.2600   -0.4338    1.2811 O   0  0  0  0  0  0  0  0  0  0  0  0
    4.5046   -1.3761   -0.3533 N   0  0  0  0  0  0  0  0  0  0  0  0
    5.3313   -2.4196   -0.7938 C   0  0  0  0  0  0  0  0  0  0  0  0
    6.4659   -2.7031   -0.0294 C   0  0  0  0  0  0  0  0  0  0  0  0
    7.1576   -3.9097   -0.2127 C   0  0  0  0  0  0  0  0  0  0  0  0
    8.1870   -4.3665    0.6313 C   0  0  0  0  0  0  0  0  0  0  0  0
    8.5054   -3.6420    1.8126 N   0  0  0  0  0  0  0  0  0  0  0  0
    9.2112   -4.1975    2.9078 C   0  0  0  0  0  0  0  0  0  0  0  0
    8.8962   -5.4819    3.3790 C   0  0  0  0  0  0  0  0  0  0  0  0
    9.6612   -6.1047    4.3692 C   0  0  0  0  0  0  0  0  0  0  0  0
    9.4252   -7.3736    4.8330 O   0  0  0  0  0  0  0  0  0  0  0  0
    8.3790   -8.1112    4.2089 C   0  0  0  0  0  0  0  0  0  0  0  0
   10.7442   -5.4020    4.9206 C   0  0  0  0  0  0  0  0  0  0  0  0
   11.7774   -6.1288    6.1017 Cl  0  0  0  0  0  0  0  0  0  0  0  0
   11.0298   -4.0960    4.5157 C   0  0  0  0  0  0  0  0  0  0  0  0
   10.2573   -3.5046    3.5219 C   0  0  0  0  0  0  0  0  0  0  0  0
   10.5490   -2.2575    3.1213 F   0  0  0  0  0  0  0  0  0  0  0  0
    8.8076   -5.5376    0.4101 N   0  0  0  0  0  0  0  0  0  0  0  0
    8.3936   -6.2623   -0.6285 C   0  0  0  0  0  0  0  0  0  0  0  0
    7.3873   -5.9540   -1.4517 N   0  0  0  0  0  0  0  0  0  0  0  0
    6.7674   -4.7916   -1.2335 C   0  0  0  0  0  0  0  0  0  0  0  0
    5.6636   -4.4597   -2.0181 C   0  0  0  0  0  0  0  0  0  0  0  0
    4.9384   -3.2802   -1.8242 C   0  0  0  0  0  0  0  0  0  0  0  0
    3.8365   -3.1142   -2.6342 O   0  0  0  0  0  0  0  0  0  0  0  0
    3.6234   -1.7641   -3.0728 C   0  0  0  0  0  0  0  0  0  0  0  0
    2.5700   -1.6837   -4.1828 C   0  0  0  0  0  0  0  0  0  0  0  0
    2.3107   -0.2998   -4.5643 N   0  0  0  0  0  0  0  0  0  0  0  0
    3.1310    0.3689   -5.4440 C   0  0  0  0  0  0  0  0  0  0  0  0
    2.8133    1.8324   -5.6123 C   0  0  0  0  0  0  0  0  0  0  0  0
    4.0516   -0.1700   -6.0494 O   0  0  0  0  0  0  0  0  0  0  0  0
    3.4997   -3.8161    3.2705 H   0  0  0  0  0  0  0  0  0  0  0  0
    3.5469   -1.9618    3.3803 H   0  0  0  0  0  0  0  0  0  0  0  0
    3.5961   -3.6792    0.8164 H   0  0  0  0  0  0  0  0  0  0  0  0
    4.8666   -0.4328   -0.4483 H   0  0  0  0  0  0  0  0  0  0  0  0
    6.7435   -2.0238    0.7777 H   0  0  0  0  0  0  0  0  0  0  0  0
    8.7999   -2.6925    1.6045 H   0  0  0  0  0  0  0  0  0  0  0  0
    8.0507   -5.9887    2.9255 H   0  0  0  0  0  0  0  0  0  0  0  0
    8.3353   -9.0983    4.6777 H   0  0  0  0  0  0  0  0  0  0  0  0
    8.5795   -8.2579    3.1416 H   0  0  0  0  0  0  0  0  0  0  0  0
    7.4083   -7.6281    4.3654 H   0  0  0  0  0  0  0  0  0  0  0  0
   11.8600   -3.5455    4.9472 H   0  0  0  0  0  0  0  0  0  0  0  0
    8.9130   -7.1987   -0.8088 H   0  0  0  0  0  0  0  0  0  0  0  0
    5.3402   -5.1638   -2.7839 H   0  0  0  0  0  0  0  0  0  0  0  0
    4.5665   -1.3269   -3.4216 H   0  0  0  0  0  0  0  0  0  0  0  0
    3.2251   -1.1651   -2.2511 H   0  0  0  0  0  0  0  0  0  0  0  0
    1.6222   -2.1094   -3.8365 H   0  0  0  0  0  0  0  0  0  0  0  0
    2.8873   -2.2573   -5.0597 H   0  0  0  0  0  0  0  0  0  0  0  0
    1.6377    0.2278   -4.0213 H   0  0  0  0  0  0  0  0  0  0  0  0
    2.1718    2.2037   -4.8083 H   0  0  0  0  0  0  0  0  0  0  0  0
    2.3136    1.9894   -6.5715 H   0  0  0  0  0  0  0  0  0  0  0  0
    3.7471    2.4024   -5.5884 H   0  0  0  0  0  0  0  0  0  0  0  0
  1  2  2  0  0  0  0
  1 34  1  0  0  0  0
  1 35  1  0  0  0  0
  2  3  1  0  0  0  0
  2 36  1  0  0  0  0
  3  4  2  0  0  0  0
  3  5  1  0  0  0  0
  5  6  1  0  0  0  0
  5 37  1  0  0  0  0
  6  7  1  0  0  0  0
  6 26  2  0  0  0  0
  7  8  2  0  0  0  0
  7 38  1  0  0  0  0
  8  9  1  0  0  0  0
  8 24  1  0  0  0  0
  9 10  1  0  0  0  0
  9 21  2  0  0  0  0
 10 11  1  0  0  0  0
 10 39  1  0  0  0  0
 11 12  1  0  0  0  0
 11 19  2  0  0  0  0
 12 13  2  0  0  0  0
 12 40  1  0  0  0  0
 13 14  1  0  0  0  0
 13 16  1  0  0  0  0
 14 15  1  0  0  0  0
 15 41  1  0  0  0  0
 15 42  1  0  0  0  0
 15 43  1  0  0  0  0
 16 17  1  0  0  0  0
 16 18  2  0  0  0  0
 18 19  1  0  0  0  0
 18 44  1  0  0  0  0
 19 20  1  0  0  0  0
 21 22  1  0  0  0  0
 22 23  2  0  0  0  0
 22 45  1  0  0  0  0
 23 24  1  0  0  0  0
 24 25  2  0  0  0  0
 25 26  1  0  0  0  0
 25 46  1  0  0  0  0
 26 27  1  0  0  0  0
 27 28  1  0  0  0  0
 28 29  1  0  0  0  0
 28 47  1  0  0  0  0
 28 48  1  0  0  0  0
 29 30  1  0  0  0  0
 29 49  1  0  0  0  0
 29 50  1  0  0  0  0
 30 31  1  0  0  0  0
 30 51  1  0  0  0  0
 31 32  1  0  0  0  0
 31 33  2  0  0  0  0
 32 52  1  0  0  0  0
 32 53  1  0  0  0  0
 32 54  1  0  0  0  0
M  END
$$$$
