CHEMBL248820
 OpenBabel04072215363D

 48 51  0  0  0  0  0  0  0  0999 V2000
    0.9013   -0.3683    0.4774 O   0  0  0  0  0  0  0  0  0  0  0  0
    2.1182   -0.3765    0.3045 C   0  0  0  0  0  0  0  0  0  0  0  0
    2.7603   -1.0925   -0.6958 N   0  0  0  0  0  0  0  0  0  0  0  0
    2.0093   -1.8620   -1.6037 C   0  0  0  0  0  0  0  0  0  0  0  0
    1.7604   -1.3940   -2.8935 C   0  0  0  0  0  0  0  0  0  0  0  0
    1.0618   -2.1995   -3.8012 C   0  0  0  0  0  0  0  0  0  0  0  0
    0.6668   -3.4891   -3.4366 C   0  0  0  0  0  0  0  0  0  0  0  0
    0.0232   -4.2399   -4.3979 O   0  0  0  0  0  0  0  0  0  0  0  0
    0.2698   -5.5961   -4.4460 C   0  0  0  0  0  0  0  0  0  0  0  0
   -0.8117   -6.4224   -4.7574 C   0  0  0  0  0  0  0  0  0  0  0  0
   -0.6399   -7.8077   -4.8148 C   0  0  0  0  0  0  0  0  0  0  0  0
    0.6141   -8.3666   -4.5677 C   0  0  0  0  0  0  0  0  0  0  0  0
    1.7030   -7.5410   -4.2911 C   0  0  0  0  0  0  0  0  0  0  0  0
    1.5370   -6.1556   -4.2522 C   0  0  0  0  0  0  0  0  0  0  0  0
    0.8868   -3.9379   -2.1308 C   0  0  0  0  0  0  0  0  0  0  0  0
    1.5601   -3.1254   -1.2153 C   0  0  0  0  0  0  0  0  0  0  0  0
    2.9650    0.4711    1.1878 C   0  0  0  0  0  0  0  0  0  0  0  0
    2.3822    1.6414    1.7047 C   0  0  0  0  0  0  0  0  0  0  0  0
    3.0837    2.4352    2.6063 C   0  0  0  0  0  0  0  0  0  0  0  0
    4.3460    2.0272    2.9712 C   0  0  0  0  0  0  0  0  0  0  0  0
    4.9401    0.9262    2.4706 N   0  0  0  0  0  0  0  0  0  0  0  0
    4.2702    0.1498    1.5794 C   0  0  0  0  0  0  0  0  0  0  0  0
    4.9479   -0.9801    1.0582 N   0  0  0  0  0  0  0  0  0  0  0  0
    6.3453   -1.1988    1.1227 C   0  0  0  0  0  0  0  0  0  0  0  0
    6.8572   -2.4969    1.2380 C   0  0  0  0  0  0  0  0  0  0  0  0
    8.2374   -2.7142    1.3029 C   0  0  0  0  0  0  0  0  0  0  0  0
    9.1115   -1.6315    1.2324 C   0  0  0  0  0  0  0  0  0  0  0  0
   10.4308   -1.8415    1.2989 F   0  0  0  0  0  0  0  0  0  0  0  0
    8.6322   -0.3422    1.0723 C   0  0  0  0  0  0  0  0  0  0  0  0
    7.2540   -0.1290    1.0003 C   0  0  0  0  0  0  0  0  0  0  0  0
    3.6067   -0.6584   -1.0511 H   0  0  0  0  0  0  0  0  0  0  0  0
    2.0560   -0.3909   -3.1871 H   0  0  0  0  0  0  0  0  0  0  0  0
    0.8311   -1.8233   -4.7943 H   0  0  0  0  0  0  0  0  0  0  0  0
   -1.7905   -5.9903   -4.9469 H   0  0  0  0  0  0  0  0  0  0  0  0
   -1.4843   -8.4512   -5.0479 H   0  0  0  0  0  0  0  0  0  0  0  0
    0.7443   -9.4456   -4.5986 H   0  0  0  0  0  0  0  0  0  0  0  0
    2.6824   -7.9745   -4.1061 H   0  0  0  0  0  0  0  0  0  0  0  0
    2.3983   -5.5235   -4.0554 H   0  0  0  0  0  0  0  0  0  0  0  0
    0.5520   -4.9233   -1.8176 H   0  0  0  0  0  0  0  0  0  0  0  0
    1.7597   -3.4997   -0.2159 H   0  0  0  0  0  0  0  0  0  0  0  0
    1.3768    1.9331    1.4068 H   0  0  0  0  0  0  0  0  0  0  0  0
    2.6492    3.3383    3.0220 H   0  0  0  0  0  0  0  0  0  0  0  0
    4.9369    2.5817    3.6953 H   0  0  0  0  0  0  0  0  0  0  0  0
    4.4043   -1.8231    1.2306 H   0  0  0  0  0  0  0  0  0  0  0  0
    6.1929   -3.3536    1.3038 H   0  0  0  0  0  0  0  0  0  0  0  0
    8.6418   -3.7154    1.4133 H   0  0  0  0  0  0  0  0  0  0  0  0
    9.3272    0.4904    1.0095 H   0  0  0  0  0  0  0  0  0  0  0  0
    6.8953    0.8837    0.8750 H   0  0  0  0  0  0  0  0  0  0  0  0
  1  2  2  0  0  0  0
  2  3  1  0  0  0  0
  2 17  1  0  0  0  0
  3  4  1  0  0  0  0
  3 31  1  0  0  0  0
  4  5  1  0  0  0  0
  4 16  2  0  0  0  0
  5  6  2  0  0  0  0
  5 32  1  0  0  0  0
  6  7  1  0  0  0  0
  6 33  1  0  0  0  0
  7  8  1  0  0  0  0
  7 15  2  0  0  0  0
  8  9  1  0  0  0  0
  9 10  1  0  0  0  0
  9 14  2  0  0  0  0
 10 11  2  0  0  0  0
 10 34  1  0  0  0  0
 11 12  1  0  0  0  0
 11 35  1  0  0  0  0
 12 13  2  0  0  0  0
 12 36  1  0  0  0  0
 13 14  1  0  0  0  0
 13 37  1  0  0  0  0
 14 38  1  0  0  0  0
 15 16  1  0  0  0  0
 15 39  1  0  0  0  0
 16 40  1  0  0  0  0
 17 18  1  0  0  0  0
 17 22  2  0  0  0  0
 18 19  2  0  0  0  0
 18 41  1  0  0  0  0
 19 20  1  0  0  0  0
 19 42  1  0  0  0  0
 20 21  2  0  0  0  0
 20 43  1  0  0  0  0
 21 22  1  0  0  0  0
 22 23  1  0  0  0  0
 23 24  1  0  0  0  0
 23 44  1  0  0  0  0
 24 25  1  0  0  0  0
 24 30  2  0  0  0  0
 25 26  2  0  0  0  0
 25 45  1  0  0  0  0
 26 27  1  0  0  0  0
 26 46  1  0  0  0  0
 27 28  1  0  0  0  0
 27 29  2  0  0  0  0
 29 30  1  0  0  0  0
 29 47  1  0  0  0  0
 30 48  1  0  0  0  0
M  END
$$$$
