CHEMBL3929448
 OpenBabel04072215373D

 75 79  0  0  0  0  0  0  0  0999 V2000
    2.5581    0.7255   -1.0970 C   0  0  0  0  0  0  0  0  0  0  0  0
    2.4152   -0.1322    0.0315 O   0  0  0  0  0  0  0  0  0  0  0  0
    3.0667    0.1282    1.1962 C   0  0  0  0  0  0  0  0  0  0  0  0
    4.2089    0.9248    1.2447 C   0  0  0  0  0  0  0  0  0  0  0  0
    4.8438    1.2348    2.4626 C   0  0  0  0  0  0  0  0  0  0  0  0
    5.9432    2.1066    2.5491 C   0  0  0  0  0  0  0  0  0  0  0  0
    6.3131    2.8343    1.3931 N   0  0  0  0  0  0  0  0  0  0  0  0
    7.5720    3.2986    0.9773 C   0  0  0  0  0  0  0  0  0  0  0  0
    7.6356    4.1667   -0.1168 C   0  0  0  0  0  0  0  0  0  0  0  0
    8.8583    4.5027   -0.7000 C   0  0  0  0  0  0  0  0  0  0  0  0
   10.0588    3.9567   -0.2381 C   0  0  0  0  0  0  0  0  0  0  0  0
   11.3014    4.1814   -0.8935 N   0  0  0  0  0  0  0  0  0  0  0  0
   11.4545    4.7292   -2.1551 C   0  0  0  0  0  0  0  0  0  0  0  0
   10.5326    5.1526   -2.8471 O   0  0  0  0  0  0  0  0  0  0  0  0
   12.7640    4.6977   -2.6084 N   0  0  0  0  0  0  0  0  0  0  0  0
   13.0625    5.1753   -3.9115 C   0  0  0  0  0  0  0  0  0  0  0  0
   13.8229    4.3739   -4.7679 C   0  0  0  0  0  0  0  0  0  0  0  0
   14.0177    4.7650   -6.0963 C   0  0  0  0  0  0  0  0  0  0  0  0
   13.4992    5.9761   -6.5486 C   0  0  0  0  0  0  0  0  0  0  0  0
   13.6958    6.3228   -7.8293 F   0  0  0  0  0  0  0  0  0  0  0  0
   12.7874    6.8054   -5.6872 C   0  0  0  0  0  0  0  0  0  0  0  0
   12.1707    8.3176   -6.2346 Cl  0  0  0  0  0  0  0  0  0  0  0  0
   12.5638    6.4045   -4.3699 C   0  0  0  0  0  0  0  0  0  0  0  0
   10.0020    3.1199    0.8923 C   0  0  0  0  0  0  0  0  0  0  0  0
   11.4325    2.3870    1.5304 Cl  0  0  0  0  0  0  0  0  0  0  0  0
    8.7735    2.7888    1.4780 C   0  0  0  0  0  0  0  0  0  0  0  0
    6.6026    2.3041    3.6986 N   0  0  0  0  0  0  0  0  0  0  0  0
    6.1182    1.6678    4.7724 C   0  0  0  0  0  0  0  0  0  0  0  0
    5.0374    0.8702    4.8091 N   0  0  0  0  0  0  0  0  0  0  0  0
    4.4051    0.6555    3.6519 C   0  0  0  0  0  0  0  0  0  0  0  0
    3.2815   -0.1736    3.5961 C   0  0  0  0  0  0  0  0  0  0  0  0
    2.6096   -0.4521    2.3899 C   0  0  0  0  0  0  0  0  0  0  0  0
    1.5060   -1.2729    2.5335 O   0  0  0  0  0  0  0  0  0  0  0  0
    1.2982   -2.1715    1.4390 C   0  0  0  0  0  0  0  0  0  0  0  0
    0.2254   -3.2155    1.7517 C   0  0  0  0  0  0  0  0  0  0  0  0
    0.0783   -4.1894    0.5661 C   0  0  0  0  0  0  0  0  0  0  0  0
    1.3331   -4.8829    0.2473 N   0  0  0  0  0  0  0  0  0  0  0  0
    1.7770   -5.7751    1.3319 C   0  0  0  0  0  0  0  0  0  0  0  0
    3.1187   -6.4565    0.9920 C   0  0  0  0  0  0  0  0  0  0  0  0
    3.1063   -7.2348   -0.2604 N   0  0  0  0  0  0  0  0  0  0  0  0
    2.3278   -8.4622   -0.1140 C   0  0  0  0  0  0  0  0  0  0  0  0
    2.5808   -6.3803   -1.3464 C   0  0  0  0  0  0  0  0  0  0  0  0
    1.2610   -5.6273   -1.0239 C   0  0  0  0  0  0  0  0  0  0  0  0
    2.8698    0.1141   -1.9503 H   0  0  0  0  0  0  0  0  0  0  0  0
    3.2585    1.5529   -0.9880 H   0  0  0  0  0  0  0  0  0  0  0  0
    1.5803    1.1563   -1.3203 H   0  0  0  0  0  0  0  0  0  0  0  0
    4.6681    1.2820    0.3305 H   0  0  0  0  0  0  0  0  0  0  0  0
    5.5416    3.4172    1.0848 H   0  0  0  0  0  0  0  0  0  0  0  0
    6.7297    4.5769   -0.5598 H   0  0  0  0  0  0  0  0  0  0  0  0
    8.8227    5.1923   -1.5413 H   0  0  0  0  0  0  0  0  0  0  0  0
   12.1185    3.7979   -0.4361 H   0  0  0  0  0  0  0  0  0  0  0  0
   13.3011    3.9041   -2.2880 H   0  0  0  0  0  0  0  0  0  0  0  0
   14.2044    3.4108   -4.4411 H   0  0  0  0  0  0  0  0  0  0  0  0
   14.5514    4.1234   -6.7909 H   0  0  0  0  0  0  0  0  0  0  0  0
   11.9877    7.0457   -3.7064 H   0  0  0  0  0  0  0  0  0  0  0  0
    8.7526    2.0967    2.3150 H   0  0  0  0  0  0  0  0  0  0  0  0
    6.6522    1.8162    5.7015 H   0  0  0  0  0  0  0  0  0  0  0  0
    2.9262   -0.6270    4.5186 H   0  0  0  0  0  0  0  0  0  0  0  0
    2.2478   -2.6649    1.2014 H   0  0  0  0  0  0  0  0  0  0  0  0
    0.9193   -1.6228    0.5750 H   0  0  0  0  0  0  0  0  0  0  0  0
   -0.7327   -2.7096    1.9266 H   0  0  0  0  0  0  0  0  0  0  0  0
    0.4456   -3.7387    2.6884 H   0  0  0  0  0  0  0  0  0  0  0  0
   -0.2302   -3.5973   -0.3068 H   0  0  0  0  0  0  0  0  0  0  0  0
   -0.7304   -4.9036    0.7622 H   0  0  0  0  0  0  0  0  0  0  0  0
    1.0092   -6.5288    1.5465 H   0  0  0  0  0  0  0  0  0  0  0  0
    1.9383   -5.2081    2.2537 H   0  0  0  0  0  0  0  0  0  0  0  0
    3.4307   -7.0895    1.8315 H   0  0  0  0  0  0  0  0  0  0  0  0
    3.8926   -5.6810    0.9070 H   0  0  0  0  0  0  0  0  0  0  0  0
    2.7087   -9.0590    0.7227 H   0  0  0  0  0  0  0  0  0  0  0  0
    2.4294   -9.0819   -1.0109 H   0  0  0  0  0  0  0  0  0  0  0  0
    1.2614   -8.2841    0.0571 H   0  0  0  0  0  0  0  0  0  0  0  0
    2.4545   -6.9718   -2.2618 H   0  0  0  0  0  0  0  0  0  0  0  0
    3.3526   -5.6353   -1.5842 H   0  0  0  0  0  0  0  0  0  0  0  0
    0.4289   -6.3418   -1.0045 H   0  0  0  0  0  0  0  0  0  0  0  0
    1.0672   -4.9270   -1.8462 H   0  0  0  0  0  0  0  0  0  0  0  0
  1  2  1  0  0  0  0
  1 44  1  0  0  0  0
  1 45  1  0  0  0  0
  1 46  1  0  0  0  0
  2  3  1  0  0  0  0
  3  4  1  0  0  0  0
  3 32  2  0  0  0  0
  4  5  2  0  0  0  0
  4 47  1  0  0  0  0
  5  6  1  0  0  0  0
  5 30  1  0  0  0  0
  6  7  1  0  0  0  0
  6 27  2  0  0  0  0
  7  8  1  0  0  0  0
  7 48  1  0  0  0  0
  8  9  1  0  0  0  0
  8 26  2  0  0  0  0
  9 10  2  0  0  0  0
  9 49  1  0  0  0  0
 10 11  1  0  0  0  0
 10 50  1  0  0  0  0
 11 12  1  0  0  0  0
 11 24  2  0  0  0  0
 12 13  1  0  0  0  0
 12 51  1  0  0  0  0
 13 14  2  0  0  0  0
 13 15  1  0  0  0  0
 15 16  1  0  0  0  0
 15 52  1  0  0  0  0
 16 17  1  0  0  0  0
 16 23  2  0  0  0  0
 17 18  2  0  0  0  0
 17 53  1  0  0  0  0
 18 19  1  0  0  0  0
 18 54  1  0  0  0  0
 19 20  1  0  0  0  0
 19 21  2  0  0  0  0
 21 22  1  0  0  0  0
 21 23  1  0  0  0  0
 23 55  1  0  0  0  0
 24 25  1  0  0  0  0
 24 26  1  0  0  0  0
 26 56  1  0  0  0  0
 27 28  1  0  0  0  0
 28 29  2  0  0  0  0
 28 57  1  0  0  0  0
 29 30  1  0  0  0  0
 30 31  2  0  0  0  0
 31 32  1  0  0  0  0
 31 58  1  0  0  0  0
 32 33  1  0  0  0  0
 33 34  1  0  0  0  0
 34 35  1  0  0  0  0
 34 59  1  0  0  0  0
 34 60  1  0  0  0  0
 35 36  1  0  0  0  0
 35 61  1  0  0  0  0
 35 62  1  0  0  0  0
 36 37  1  0  0  0  0
 36 63  1  0  0  0  0
 36 64  1  0  0  0  0
 37 38  1  0  0  0  0
 37 43  1  0  0  0  0
 38 39  1  0  0  0  0
 38 65  1  0  0  0  0
 38 66  1  0  0  0  0
 39 40  1  0  0  0  0
 39 67  1  0  0  0  0
 39 68  1  0  0  0  0
 40 41  1  0  0  0  0
 40 42  1  0  0  0  0
 41 69  1  0  0  0  0
 41 70  1  0  0  0  0
 41 71  1  0  0  0  0
 42 43  1  0  0  0  0
 42 72  1  0  0  0  0
 42 73  1  0  0  0  0
 43 74  1  0  0  0  0
 43 75  1  0  0  0  0
M  END
$$$$
