CHEMBL3899216
 OpenBabel04072215373D

 42 45  0  0  0  0  0  0  0  0999 V2000
   -2.6564   -1.2056   -5.5679 C   0  0  0  0  0  0  0  0  0  0  0  0
   -2.5349   -2.0953   -4.3995 C   0  0  0  0  0  0  0  0  0  0  0  0
   -1.8724   -2.0139   -3.1998 C   0  0  0  0  0  0  0  0  0  0  0  0
   -2.1603   -3.2361   -2.5624 C   0  0  0  0  0  0  0  0  0  0  0  0
   -1.6238   -3.6623   -1.3572 N   0  0  0  0  0  0  0  0  0  0  0  0
   -2.3977   -3.2270    0.0788 S   0  0  0  0  0  0  0  0  0  0  0  0
   -1.6489   -3.8445    1.1529 O   0  0  0  0  0  0  0  0  0  0  0  0
   -2.6363   -1.7987    0.0561 O   0  0  0  0  0  0  0  0  0  0  0  0
   -3.9756   -4.0594    0.0240 C   0  0  0  0  0  0  0  0  0  0  0  0
   -4.0266   -5.4555   -0.0178 C   0  0  0  0  0  0  0  0  0  0  0  0
   -5.2685   -6.1120   -0.0087 C   0  0  0  0  0  0  0  0  0  0  0  0
   -6.4690   -5.3958    0.0844 C   0  0  0  0  0  0  0  0  0  0  0  0
   -7.7424   -5.9925   -0.0218 N   0  0  0  0  0  0  0  0  0  0  0  0
   -8.1455   -7.3504    0.1185 C   0  0  0  0  0  0  0  0  0  0  0  0
   -7.3906   -8.2213    0.8268 N   0  0  0  0  0  0  0  0  0  0  0  0
   -7.7742   -9.5310    0.9714 N   0  0  0  0  0  0  0  0  0  0  0  0
   -8.8931   -9.9557    0.3655 C   0  0  0  0  0  0  0  0  0  0  0  0
   -9.6986   -9.1341   -0.4091 C   0  0  0  0  0  0  0  0  0  0  0  0
  -10.8328   -9.6357   -1.0859 C   0  0  0  0  0  0  0  0  0  0  0  0
  -11.6259   -8.7886   -1.8579 C   0  0  0  0  0  0  0  0  0  0  0  0
  -11.3193   -7.4359   -1.9386 C   0  0  0  0  0  0  0  0  0  0  0  0
  -10.1930   -6.9354   -1.2776 C   0  0  0  0  0  0  0  0  0  0  0  0
   -9.3405   -7.7732   -0.5145 C   0  0  0  0  0  0  0  0  0  0  0  0
   -6.3896   -3.9918    0.1250 C   0  0  0  0  0  0  0  0  0  0  0  0
   -5.1578   -3.3234    0.1041 C   0  0  0  0  0  0  0  0  0  0  0  0
   -2.9058   -4.0314   -3.3289 N   0  0  0  0  0  0  0  0  0  0  0  0
   -3.1804   -3.2921   -4.4715 O   0  0  0  0  0  0  0  0  0  0  0  0
   -2.0137   -0.3259   -5.4569 H   0  0  0  0  0  0  0  0  0  0  0  0
   -3.6875   -0.8614   -5.6868 H   0  0  0  0  0  0  0  0  0  0  0  0
   -2.3567   -1.7256   -6.4840 H   0  0  0  0  0  0  0  0  0  0  0  0
   -1.2383   -1.2121   -2.8536 H   0  0  0  0  0  0  0  0  0  0  0  0
   -1.3817   -4.6491   -1.3318 H   0  0  0  0  0  0  0  0  0  0  0  0
   -3.1165   -6.0484   -0.0544 H   0  0  0  0  0  0  0  0  0  0  0  0
   -5.2774   -7.1977   -0.0764 H   0  0  0  0  0  0  0  0  0  0  0  0
   -8.4911   -5.3846    0.2893 H   0  0  0  0  0  0  0  0  0  0  0  0
   -9.1273  -11.0048    0.5277 H   0  0  0  0  0  0  0  0  0  0  0  0
  -11.0840  -10.6908   -1.0354 H   0  0  0  0  0  0  0  0  0  0  0  0
  -12.4792   -9.1871   -2.4012 H   0  0  0  0  0  0  0  0  0  0  0  0
  -11.9445   -6.7696   -2.5274 H   0  0  0  0  0  0  0  0  0  0  0  0
   -9.9723   -5.8754   -1.3838 H   0  0  0  0  0  0  0  0  0  0  0  0
   -7.2990   -3.3968    0.1758 H   0  0  0  0  0  0  0  0  0  0  0  0
   -5.1382   -2.2375    0.1626 H   0  0  0  0  0  0  0  0  0  0  0  0
  1  2  1  0  0  0  0
  1 28  1  0  0  0  0
  1 29  1  0  0  0  0
  1 30  1  0  0  0  0
  2  3  2  0  0  0  0
  2 27  1  0  0  0  0
  3  4  1  0  0  0  0
  3 31  1  0  0  0  0
  4  5  1  0  0  0  0
  4 26  2  0  0  0  0
  5  6  1  0  0  0  0
  5 32  1  0  0  0  0
  6  7  2  0  0  0  0
  6  8  2  0  0  0  0
  6  9  1  0  0  0  0
  9 10  1  0  0  0  0
  9 25  2  0  0  0  0
 10 11  2  0  0  0  0
 10 33  1  0  0  0  0
 11 12  1  0  0  0  0
 11 34  1  0  0  0  0
 12 13  1  0  0  0  0
 12 24  2  0  0  0  0
 13 14  1  0  0  0  0
 13 35  1  0  0  0  0
 14 15  1  0  0  0  0
 14 23  2  0  0  0  0
 15 16  2  0  0  0  0
 16 17  1  0  0  0  0
 17 18  2  0  0  0  0
 17 36  1  0  0  0  0
 18 19  1  0  0  0  0
 18 23  1  0  0  0  0
 19 20  2  0  0  0  0
 19 37  1  0  0  0  0
 20 21  1  0  0  0  0
 20 38  1  0  0  0  0
 21 22  2  0  0  0  0
 21 39  1  0  0  0  0
 22 23  1  0  0  0  0
 22 40  1  0  0  0  0
 24 25  1  0  0  0  0
 24 41  1  0  0  0  0
 25 42  1  0  0  0  0
 26 27  1  0  0  0  0
M  END
$$$$
