CHEMBL453058
 OpenBabel04072215383D

 53 57  0  0  0  0  0  0  0  0999 V2000
    3.1139    1.0667    4.1917 C   0  0  0  0  0  0  0  0  0  0  0  0
    3.3898    0.1232    3.1393 N   0  0  0  0  0  0  0  0  0  0  0  0
    2.4769   -0.5405    2.3739 C   0  0  0  0  0  0  0  0  0  0  0  0
    3.2068   -1.2827    1.4723 C   0  0  0  0  0  0  0  0  0  0  0  0
    2.7195   -2.1392    0.4015 C   0  0  0  0  0  0  0  0  0  0  0  0
    1.3471   -2.3689    0.1304 C   0  0  0  0  0  0  0  0  0  0  0  0
    1.2762   -3.1959   -0.9591 C   0  0  0  0  0  0  0  0  0  0  0  0
    2.5619   -3.5197   -1.3664 N   0  0  0  0  0  0  0  0  0  0  0  0
    2.9809   -4.3774   -2.4155 C   0  0  0  0  0  0  0  0  0  0  0  0
    2.0087   -4.9838   -3.2106 N   0  0  0  0  0  0  0  0  0  0  0  0
    4.3121   -4.5736   -2.5726 C   0  0  0  0  0  0  0  0  0  0  0  0
    4.9219   -5.4553   -3.5804 C   0  0  0  0  0  0  0  0  0  0  0  0
    5.1910   -4.9708   -4.8594 C   0  0  0  0  0  0  0  0  0  0  0  0
    5.8159   -5.7858   -5.8087 C   0  0  0  0  0  0  0  0  0  0  0  0
    6.1999   -7.1033   -5.5137 C   0  0  0  0  0  0  0  0  0  0  0  0
    6.9153   -7.9126   -6.4443 N   0  0  0  0  0  0  0  0  0  0  0  0
    7.6602   -7.3976   -7.4978 C   0  0  0  0  0  0  0  0  0  0  0  0
    7.8058   -6.2016   -7.7333 O   0  0  0  0  0  0  0  0  0  0  0  0
    8.2441   -8.3795   -8.2884 N   0  0  0  0  0  0  0  0  0  0  0  0
    9.0547   -8.0036   -9.3949 C   0  0  0  0  0  0  0  0  0  0  0  0
   10.1532   -7.1492   -9.2240 C   0  0  0  0  0  0  0  0  0  0  0  0
   10.9995   -6.8561  -10.2983 C   0  0  0  0  0  0  0  0  0  0  0  0
   10.7237   -7.3719  -11.5627 C   0  0  0  0  0  0  0  0  0  0  0  0
    9.5976   -8.1748  -11.7452 C   0  0  0  0  0  0  0  0  0  0  0  0
    9.2258   -8.7644  -13.3196 Cl  0  0  0  0  0  0  0  0  0  0  0  0
    8.7767   -8.5145  -10.6652 C   0  0  0  0  0  0  0  0  0  0  0  0
    5.8721   -7.6033   -4.2496 C   0  0  0  0  0  0  0  0  0  0  0  0
    5.2529   -6.7864   -3.2910 C   0  0  0  0  0  0  0  0  0  0  0  0
    5.1885   -3.8045   -1.6351 C   0  0  0  0  0  0  0  0  0  0  0  0
    4.8085   -3.0115   -0.6808 N   0  0  0  0  0  0  0  0  0  0  0  0
    3.4610   -2.8674   -0.5197 C   0  0  0  0  0  0  0  0  0  0  0  0
    4.5517   -1.0098    1.7927 C   0  0  0  0  0  0  0  0  0  0  0  0
    4.6681   -0.1546    2.8176 N   0  0  0  0  0  0  0  0  0  0  0  0
    2.0372    1.0931    4.3812 H   0  0  0  0  0  0  0  0  0  0  0  0
    3.4604    2.0517    3.8696 H   0  0  0  0  0  0  0  0  0  0  0  0
    3.6418    0.7469    5.0936 H   0  0  0  0  0  0  0  0  0  0  0  0
    1.4138   -0.4144    2.5171 H   0  0  0  0  0  0  0  0  0  0  0  0
    0.4995   -1.9626    0.6690 H   0  0  0  0  0  0  0  0  0  0  0  0
    0.4125   -3.5931   -1.4755 H   0  0  0  0  0  0  0  0  0  0  0  0
    1.1345   -5.1647   -2.7258 H   0  0  0  0  0  0  0  0  0  0  0  0
    2.3486   -5.8057   -3.7052 H   0  0  0  0  0  0  0  0  0  0  0  0
    4.9306   -3.9504   -5.1359 H   0  0  0  0  0  0  0  0  0  0  0  0
    5.9886   -5.3511   -6.7886 H   0  0  0  0  0  0  0  0  0  0  0  0
    7.1107   -8.8648   -6.1691 H   0  0  0  0  0  0  0  0  0  0  0  0
    7.7044   -9.2274   -8.3931 H   0  0  0  0  0  0  0  0  0  0  0  0
   10.3784   -6.7290   -8.2461 H   0  0  0  0  0  0  0  0  0  0  0  0
   11.8779   -6.2335  -10.1443 H   0  0  0  0  0  0  0  0  0  0  0  0
   11.3858   -7.1491  -12.3952 H   0  0  0  0  0  0  0  0  0  0  0  0
    7.8996   -9.1299  -10.8351 H   0  0  0  0  0  0  0  0  0  0  0  0
    6.1382   -8.6242   -3.9680 H   0  0  0  0  0  0  0  0  0  0  0  0
    5.0436   -7.1892   -2.2945 H   0  0  0  0  0  0  0  0  0  0  0  0
    6.2725   -3.9406   -1.7862 H   0  0  0  0  0  0  0  0  0  0  0  0
    5.4499   -1.3864    1.3226 H   0  0  0  0  0  0  0  0  0  0  0  0
  1  2  1  0  0  0  0
  1 34  1  0  0  0  0
  1 35  1  0  0  0  0
  1 36  1  0  0  0  0
  2  3  1  0  0  0  0
  2 33  1  0  0  0  0
  3  4  2  0  0  0  0
  3 37  1  0  0  0  0
  4  5  1  0  0  0  0
  4 32  1  0  0  0  0
  5  6  1  0  0  0  0
  5 31  2  0  0  0  0
  6  7  2  0  0  0  0
  6 38  1  0  0  0  0
  7  8  1  0  0  0  0
  7 39  1  0  0  0  0
  8  9  1  0  0  0  0
  8 31  1  0  0  0  0
  9 10  1  0  0  0  0
  9 11  2  0  0  0  0
 10 40  1  0  0  0  0
 10 41  1  0  0  0  0
 11 12  1  0  0  0  0
 11 29  1  0  0  0  0
 12 13  1  0  0  0  0
 12 28  2  0  0  0  0
 13 14  2  0  0  0  0
 13 42  1  0  0  0  0
 14 15  1  0  0  0  0
 14 43  1  0  0  0  0
 15 16  1  0  0  0  0
 15 27  2  0  0  0  0
 16 17  1  0  0  0  0
 16 44  1  0  0  0  0
 17 18  2  0  0  0  0
 17 19  1  0  0  0  0
 19 20  1  0  0  0  0
 19 45  1  0  0  0  0
 20 21  1  0  0  0  0
 20 26  2  0  0  0  0
 21 22  2  0  0  0  0
 21 46  1  0  0  0  0
 22 23  1  0  0  0  0
 22 47  1  0  0  0  0
 23 24  2  0  0  0  0
 23 48  1  0  0  0  0
 24 25  1  0  0  0  0
 24 26  1  0  0  0  0
 26 49  1  0  0  0  0
 27 28  1  0  0  0  0
 27 50  1  0  0  0  0
 28 51  1  0  0  0  0
 29 30  2  0  0  0  0
 29 52  1  0  0  0  0
 30 31  1  0  0  0  0
 32 33  2  0  0  0  0
 32 53  1  0  0  0  0
M  END
$$$$
