CHEMBL2016901
 OpenBabel04072215363D

 45 49  0  0  0  0  0  0  0  0999 V2000
    2.8093    0.6692    0.9074 O   0  0  0  0  0  0  0  0  0  0  0  0
    2.4214    0.0591   -0.1047 C   0  0  0  0  0  0  0  0  0  0  0  0
    1.0478    0.4333   -0.6243 C   0  0  0  0  0  0  0  0  0  0  0  0
    0.6498    0.4007   -1.9655 C   0  0  0  0  0  0  0  0  0  0  0  0
   -0.6957    0.5121   -2.2811 C   0  0  0  0  0  0  0  0  0  0  0  0
   -1.6526    0.7802   -1.3763 N   0  0  0  0  0  0  0  0  0  0  0  0
   -1.2393    0.9503   -0.1036 C   0  0  0  0  0  0  0  0  0  0  0  0
    0.0705    0.7795    0.3167 C   0  0  0  0  0  0  0  0  0  0  0  0
    3.1551   -1.0165   -0.6487 N   0  0  0  0  0  0  0  0  0  0  0  0
    2.6356   -1.7904   -1.7857 C   0  0  0  0  0  0  0  0  0  0  0  0
    3.4385   -2.9138   -2.4228 C   0  0  0  0  0  0  0  0  0  0  0  0
    4.5251   -3.3373   -1.5553 C   0  0  0  0  0  0  0  0  0  0  0  0
    5.3793   -4.3397   -1.8711 N   0  0  0  0  0  0  0  0  0  0  0  0
    6.1861   -4.4551   -0.8319 C   0  0  0  0  0  0  0  0  0  0  0  0
    7.2117   -5.4296   -0.6399 C   0  0  0  0  0  0  0  0  0  0  0  0
    7.6711   -6.0699   -1.7109 C   0  0  0  0  0  0  0  0  0  0  0  0
    8.3488   -7.3606   -1.5610 C   0  0  0  0  0  0  0  0  0  0  0  0
    8.6729   -8.1217   -2.6732 C   0  0  0  0  0  0  0  0  0  0  0  0
    8.4847   -9.4924   -2.6099 C   0  0  0  0  0  0  0  0  0  0  0  0
    8.4508  -10.1029   -1.3603 C   0  0  0  0  0  0  0  0  0  0  0  0
    8.5404   -9.3306   -0.1983 C   0  0  0  0  0  0  0  0  0  0  0  0
    8.3642   -7.9605   -0.3061 C   0  0  0  0  0  0  0  0  0  0  0  0
    8.1302   -7.1629    0.8172 N   0  0  0  0  0  0  0  0  0  0  0  0
    7.6080   -5.8948    0.7297 C   0  0  0  0  0  0  0  0  0  0  0  0
    7.4162   -5.1999    1.7280 O   0  0  0  0  0  0  0  0  0  0  0  0
    5.8644   -3.5178    0.1359 N   0  0  0  0  0  0  0  0  0  0  0  0
    4.8249   -2.7626   -0.3511 C   0  0  0  0  0  0  0  0  0  0  0  0
    4.1505   -1.6302    0.2869 C   0  0  0  0  0  0  0  0  0  0  0  0
    1.3352    0.2845   -2.7870 H   0  0  0  0  0  0  0  0  0  0  0  0
   -1.0440    0.3767   -3.3033 H   0  0  0  0  0  0  0  0  0  0  0  0
   -2.0264    1.2299    0.5958 H   0  0  0  0  0  0  0  0  0  0  0  0
    0.3210    0.9065    1.3661 H   0  0  0  0  0  0  0  0  0  0  0  0
    2.5568   -1.0719   -2.6029 H   0  0  0  0  0  0  0  0  0  0  0  0
    1.6264   -2.1444   -1.5354 H   0  0  0  0  0  0  0  0  0  0  0  0
    3.8512   -2.5810   -3.3821 H   0  0  0  0  0  0  0  0  0  0  0  0
    2.7692   -3.7522   -2.6491 H   0  0  0  0  0  0  0  0  0  0  0  0
    7.3110   -5.8160   -2.7093 H   0  0  0  0  0  0  0  0  0  0  0  0
    9.1138   -7.6653   -3.5526 H   0  0  0  0  0  0  0  0  0  0  0  0
    8.4055  -10.0740   -3.5248 H   0  0  0  0  0  0  0  0  0  0  0  0
    8.3915  -11.1844   -1.2967 H   0  0  0  0  0  0  0  0  0  0  0  0
    8.6201   -9.8149    0.7675 H   0  0  0  0  0  0  0  0  0  0  0  0
    8.2757   -7.5295    1.7513 H   0  0  0  0  0  0  0  0  0  0  0  0
    6.3207   -3.4453    1.0396 H   0  0  0  0  0  0  0  0  0  0  0  0
    4.8596   -0.8475    0.5777 H   0  0  0  0  0  0  0  0  0  0  0  0
    3.6038   -1.9511    1.1830 H   0  0  0  0  0  0  0  0  0  0  0  0
  1  2  2  0  0  0  0
  2  3  1  0  0  0  0
  2  9  1  0  0  0  0
  3  4  1  0  0  0  0
  3  8  2  0  0  0  0
  4  5  2  0  0  0  0
  4 29  1  0  0  0  0
  5  6  1  0  0  0  0
  5 30  1  0  0  0  0
  6  7  2  0  0  0  0
  7  8  1  0  0  0  0
  7 31  1  0  0  0  0
  8 32  1  0  0  0  0
  9 10  1  0  0  0  0
  9 28  1  0  0  0  0
 10 11  1  0  0  0  0
 10 33  1  0  0  0  0
 10 34  1  0  0  0  0
 11 12  1  0  0  0  0
 11 35  1  0  0  0  0
 11 36  1  0  0  0  0
 12 13  1  0  0  0  0
 12 27  2  0  0  0  0
 13 14  2  0  0  0  0
 14 15  1  0  0  0  0
 14 26  1  0  0  0  0
 15 16  2  0  0  0  0
 15 24  1  0  0  0  0
 16 17  1  0  0  0  0
 16 37  1  0  0  0  0
 17 18  1  0  0  0  0
 17 22  2  0  0  0  0
 18 19  2  0  0  0  0
 18 38  1  0  0  0  0
 19 20  1  0  0  0  0
 19 39  1  0  0  0  0
 20 21  2  0  0  0  0
 20 40  1  0  0  0  0
 21 22  1  0  0  0  0
 21 41  1  0  0  0  0
 22 23  1  0  0  0  0
 23 24  1  0  0  0  0
 23 42  1  0  0  0  0
 24 25  2  0  0  0  0
 26 27  1  0  0  0  0
 26 43  1  0  0  0  0
 27 28  1  0  0  0  0
 28 44  1  0  0  0  0
 28 45  1  0  0  0  0
M  END
$$$$
