CHEMBL3644552
 OpenBabel04072215373D

 53 56  0  0  0  0  0  0  0  0999 V2000
    0.8752    0.0295    0.0758 C   0  0  0  0  0  0  0  0  0  0  0  0
    2.3955    0.0125   -0.0849 C   0  0  0  0  0  0  0  0  0  0  0  0
    3.0895   -0.3560    1.2278 C   0  0  0  0  0  0  0  0  0  0  0  0
    2.8325   -0.8986   -1.2186 C   0  0  0  0  0  0  0  0  0  0  0  0
    3.5229   -0.3449   -2.3054 C   0  0  0  0  0  0  0  0  0  0  0  0
    3.9507   -1.1516   -3.3536 C   0  0  0  0  0  0  0  0  0  0  0  0
    3.7212   -2.5250   -3.3161 C   0  0  0  0  0  0  0  0  0  0  0  0
    3.0673   -3.1156   -2.2307 C   0  0  0  0  0  0  0  0  0  0  0  0
    2.8693   -4.5149   -2.1172 N   0  0  0  0  0  0  0  0  0  0  0  0
    3.5581   -5.4661   -2.8532 C   0  0  0  0  0  0  0  0  0  0  0  0
    4.4658   -5.2353   -3.6479 O   0  0  0  0  0  0  0  0  0  0  0  0
    3.2048   -6.8955   -2.6311 C   0  0  0  0  0  0  0  0  0  0  0  0
    1.9394   -7.3330   -2.2508 C   0  0  0  0  0  0  0  0  0  0  0  0
    1.6918   -8.7050   -2.1860 C   0  0  0  0  0  0  0  0  0  0  0  0
    2.6934   -9.6304   -2.5248 C   0  0  0  0  0  0  0  0  0  0  0  0
    3.9715   -9.2221   -2.9265 C   0  0  0  0  0  0  0  0  0  0  0  0
    4.9648  -10.1057   -3.3000 N   0  0  0  0  0  0  0  0  0  0  0  0
    5.9859   -9.7391   -4.2907 C   0  0  0  0  0  0  0  0  0  0  0  0
    7.3667   -9.8675   -3.6466 C   0  0  0  0  0  0  0  0  0  0  0  0
    7.5340  -11.2171   -2.9926 C   0  0  0  0  0  0  0  0  0  0  0  0
    8.8092  -11.6996   -2.6885 C   0  0  0  0  0  0  0  0  0  0  0  0
    8.9158  -12.9337   -2.0699 C   0  0  0  0  0  0  0  0  0  0  0  0
    7.8582  -13.7048   -1.7400 N   0  0  0  0  0  0  0  0  0  0  0  0
    6.6326  -13.2084   -2.0252 C   0  0  0  0  0  0  0  0  0  0  0  0
    6.4069  -11.9764   -2.6309 C   0  0  0  0  0  0  0  0  0  0  0  0
    4.9891  -11.5112   -2.8886 C   0  0  0  0  0  0  0  0  0  0  0  0
    4.2008   -7.8401   -2.9338 C   0  0  0  0  0  0  0  0  0  0  0  0
    2.5941   -2.2889   -1.2017 C   0  0  0  0  0  0  0  0  0  0  0  0
    0.5796    0.7493    0.8471 H   0  0  0  0  0  0  0  0  0  0  0  0
    0.4821   -0.9506    0.3649 H   0  0  0  0  0  0  0  0  0  0  0  0
    0.3877    0.3244   -0.8600 H   0  0  0  0  0  0  0  0  0  0  0  0
    2.6999    1.0400   -0.3273 H   0  0  0  0  0  0  0  0  0  0  0  0
    2.8139   -1.3589    1.5706 H   0  0  0  0  0  0  0  0  0  0  0  0
    2.8205    0.3531    2.0180 H   0  0  0  0  0  0  0  0  0  0  0  0
    4.1792   -0.3304    1.1129 H   0  0  0  0  0  0  0  0  0  0  0  0
    3.7369    0.7209   -2.3440 H   0  0  0  0  0  0  0  0  0  0  0  0
    4.4788   -0.7190   -4.1994 H   0  0  0  0  0  0  0  0  0  0  0  0
    4.0605   -3.1118   -4.1632 H   0  0  0  0  0  0  0  0  0  0  0  0
    2.3124   -4.8346   -1.3374 H   0  0  0  0  0  0  0  0  0  0  0  0
    1.1318   -6.6375   -2.0485 H   0  0  0  0  0  0  0  0  0  0  0  0
    0.7037   -9.0663   -1.9098 H   0  0  0  0  0  0  0  0  0  0  0  0
    2.4320  -10.6853   -2.5095 H   0  0  0  0  0  0  0  0  0  0  0  0
    5.8605   -8.7362   -4.7119 H   0  0  0  0  0  0  0  0  0  0  0  0
    5.9063  -10.4230   -5.1467 H   0  0  0  0  0  0  0  0  0  0  0  0
    7.4968   -9.0927   -2.8809 H   0  0  0  0  0  0  0  0  0  0  0  0
    8.1351   -9.7219   -4.4144 H   0  0  0  0  0  0  0  0  0  0  0  0
    9.7004  -11.1269   -2.9226 H   0  0  0  0  0  0  0  0  0  0  0  0
    9.8874  -13.3462   -1.8131 H   0  0  0  0  0  0  0  0  0  0  0  0
    5.8073  -13.8528   -1.7337 H   0  0  0  0  0  0  0  0  0  0  0  0
    4.4183  -11.6612   -1.9651 H   0  0  0  0  0  0  0  0  0  0  0  0
    4.5459  -12.1283   -3.6799 H   0  0  0  0  0  0  0  0  0  0  0  0
    5.1912   -7.4625   -3.1797 H   0  0  0  0  0  0  0  0  0  0  0  0
    2.0679   -2.7248   -0.3563 H   0  0  0  0  0  0  0  0  0  0  0  0
  1  2  1  0  0  0  0
  1 29  1  0  0  0  0
  1 30  1  0  0  0  0
  1 31  1  0  0  0  0
  2  3  1  0  0  0  0
  2  4  1  0  0  0  0
  2 32  1  0  0  0  0
  3 33  1  0  0  0  0
  3 34  1  0  0  0  0
  3 35  1  0  0  0  0
  4  5  1  0  0  0  0
  4 28  2  0  0  0  0
  5  6  2  0  0  0  0
  5 36  1  0  0  0  0
  6  7  1  0  0  0  0
  6 37  1  0  0  0  0
  7  8  2  0  0  0  0
  7 38  1  0  0  0  0
  8  9  1  0  0  0  0
  8 28  1  0  0  0  0
  9 10  1  0  0  0  0
  9 39  1  0  0  0  0
 10 11  2  0  0  0  0
 10 12  1  0  0  0  0
 12 13  1  0  0  0  0
 12 27  2  0  0  0  0
 13 14  2  0  0  0  0
 13 40  1  0  0  0  0
 14 15  1  0  0  0  0
 14 41  1  0  0  0  0
 15 16  2  0  0  0  0
 15 42  1  0  0  0  0
 16 17  1  0  0  0  0
 16 27  1  0  0  0  0
 17 18  1  0  0  0  0
 17 26  1  0  0  0  0
 18 19  1  0  0  0  0
 18 43  1  0  0  0  0
 18 44  1  0  0  0  0
 19 20  1  0  0  0  0
 19 45  1  0  0  0  0
 19 46  1  0  0  0  0
 20 21  1  0  0  0  0
 20 25  2  0  0  0  0
 21 22  2  0  0  0  0
 21 47  1  0  0  0  0
 22 23  1  0  0  0  0
 22 48  1  0  0  0  0
 23 24  2  0  0  0  0
 24 25  1  0  0  0  0
 24 49  1  0  0  0  0
 25 26  1  0  0  0  0
 26 50  1  0  0  0  0
 26 51  1  0  0  0  0
 27 52  1  0  0  0  0
 28 53  1  0  0  0  0
M  END
$$$$
