CHEMBL3321902
 OpenBabel04072215363D

 41 45  0  0  0  0  0  0  0  0999 V2000
   -1.8903    0.1396   -1.1647 Cl  0  0  0  0  0  0  0  0  0  0  0  0
   -0.2822    0.0276   -0.5282 C   0  0  0  0  0  0  0  0  0  0  0  0
    0.4486    1.2215   -0.4693 C   0  0  0  0  0  0  0  0  0  0  0  0
    1.7413    1.2341    0.0512 C   0  0  0  0  0  0  0  0  0  0  0  0
    2.3057    0.0549    0.5254 C   0  0  0  0  0  0  0  0  0  0  0  0
    1.5778   -1.1361    0.4732 C   0  0  0  0  0  0  0  0  0  0  0  0
    0.2780   -1.1765   -0.0649 C   0  0  0  0  0  0  0  0  0  0  0  0
   -0.4034   -2.4752   -0.0939 C   0  0  0  0  0  0  0  0  0  0  0  0
   -0.2098   -3.4679    0.7567 N   0  0  0  0  0  0  0  0  0  0  0  0
   -1.0521   -4.4758    0.3629 C   0  0  0  0  0  0  0  0  0  0  0  0
   -1.2828   -5.7256    0.9437 C   0  0  0  0  0  0  0  0  0  0  0  0
   -2.2186   -6.5750    0.3383 C   0  0  0  0  0  0  0  0  0  0  0  0
   -2.9002   -6.2241   -0.8419 C   0  0  0  0  0  0  0  0  0  0  0  0
   -3.8953   -7.0721   -1.3863 N   0  0  0  0  0  0  0  0  0  0  0  0
   -3.9352   -8.4833   -1.2649 C   0  0  0  0  0  0  0  0  0  0  0  0
   -2.7660   -9.1450   -1.1715 N   0  0  0  0  0  0  0  0  0  0  0  0
   -2.8290  -10.4642   -0.9998 C   0  0  0  0  0  0  0  0  0  0  0  0
   -3.9459  -11.1917   -0.9005 N   0  0  0  0  0  0  0  0  0  0  0  0
   -5.1019  -10.5286   -1.0014 C   0  0  0  0  0  0  0  0  0  0  0  0
   -6.2837  -11.2446   -0.8612 C   0  0  0  0  0  0  0  0  0  0  0  0
   -7.5344  -10.6305   -0.9511 C   0  0  0  0  0  0  0  0  0  0  0  0
   -7.6168   -9.2673   -1.1995 C   0  0  0  0  0  0  0  0  0  0  0  0
   -6.4458   -8.5231   -1.3316 C   0  0  0  0  0  0  0  0  0  0  0  0
   -5.1755   -9.1458   -1.2234 C   0  0  0  0  0  0  0  0  0  0  0  0
   -2.6865   -4.9557   -1.4069 C   0  0  0  0  0  0  0  0  0  0  0  0
   -1.7526   -4.1216   -0.7802 C   0  0  0  0  0  0  0  0  0  0  0  0
   -1.3114   -2.8554   -1.0566 N   0  0  0  0  0  0  0  0  0  0  0  0
    0.0090    2.1511   -0.8231 H   0  0  0  0  0  0  0  0  0  0  0  0
    2.3031    2.1638    0.0940 H   0  0  0  0  0  0  0  0  0  0  0  0
    3.3112    0.0568    0.9396 H   0  0  0  0  0  0  0  0  0  0  0  0
    2.0324   -2.0507    0.8548 H   0  0  0  0  0  0  0  0  0  0  0  0
   -0.7627   -6.0183    1.8476 H   0  0  0  0  0  0  0  0  0  0  0  0
   -2.4133   -7.5325    0.8166 H   0  0  0  0  0  0  0  0  0  0  0  0
   -4.2124   -6.7934   -2.3071 H   0  0  0  0  0  0  0  0  0  0  0  0
   -1.8864  -10.9941   -0.9267 H   0  0  0  0  0  0  0  0  0  0  0  0
   -6.2262  -12.3116   -0.6575 H   0  0  0  0  0  0  0  0  0  0  0  0
   -8.4369  -11.2221   -0.8203 H   0  0  0  0  0  0  0  0  0  0  0  0
   -8.5872   -8.7827   -1.2726 H   0  0  0  0  0  0  0  0  0  0  0  0
   -6.5214   -7.4510   -1.4977 H   0  0  0  0  0  0  0  0  0  0  0  0
   -3.2192   -4.6290   -2.2927 H   0  0  0  0  0  0  0  0  0  0  0  0
   -1.6211   -2.2718   -1.8186 H   0  0  0  0  0  0  0  0  0  0  0  0
  1  2  1  0  0  0  0
  2  3  1  0  0  0  0
  2  7  2  0  0  0  0
  3  4  2  0  0  0  0
  3 28  1  0  0  0  0
  4  5  1  0  0  0  0
  4 29  1  0  0  0  0
  5  6  2  0  0  0  0
  5 30  1  0  0  0  0
  6  7  1  0  0  0  0
  6 31  1  0  0  0  0
  7  8  1  0  0  0  0
  8  9  2  0  0  0  0
  8 27  1  0  0  0  0
  9 10  1  0  0  0  0
 10 11  1  0  0  0  0
 10 26  2  0  0  0  0
 11 12  2  0  0  0  0
 11 32  1  0  0  0  0
 12 13  1  0  0  0  0
 12 33  1  0  0  0  0
 13 14  1  0  0  0  0
 13 25  2  0  0  0  0
 14 15  1  0  0  0  0
 14 34  1  0  0  0  0
 15 16  1  0  0  0  0
 15 24  2  0  0  0  0
 16 17  2  0  0  0  0
 17 18  1  0  0  0  0
 17 35  1  0  0  0  0
 18 19  2  0  0  0  0
 19 20  1  0  0  0  0
 19 24  1  0  0  0  0
 20 21  2  0  0  0  0
 20 36  1  0  0  0  0
 21 22  1  0  0  0  0
 21 37  1  0  0  0  0
 22 23  2  0  0  0  0
 22 38  1  0  0  0  0
 23 24  1  0  0  0  0
 23 39  1  0  0  0  0
 25 26  1  0  0  0  0
 25 40  1  0  0  0  0
 26 27  1  0  0  0  0
 27 41  1  0  0  0  0
M  END
$$$$
