CHEMBL262623
 OpenBabel04072215363D

 31 33  0  0  0  0  0  0  0  0999 V2000
    0.9617   -0.0408   -0.2812 N   0  0  0  0  0  0  0  0  0  0  0  0
    2.3538   -0.0014   -0.0902 C   0  0  0  0  0  0  0  0  0  0  0  0
    3.0098   -1.1558   -0.2791 N   0  0  0  0  0  0  0  0  0  0  0  0
    4.3398   -1.0874   -0.1489 C   0  0  0  0  0  0  0  0  0  0  0  0
    5.0623    0.0064    0.1366 N   0  0  0  0  0  0  0  0  0  0  0  0
    4.3754    1.1519    0.3072 C   0  0  0  0  0  0  0  0  0  0  0  0
    2.9808    1.2148    0.2025 C   0  0  0  0  0  0  0  0  0  0  0  0
    2.1821    2.3596    0.4599 N   0  0  0  0  0  0  0  0  0  0  0  0
    2.5374    3.5127   -0.0193 C   0  0  0  0  0  0  0  0  0  0  0  0
    1.6756    4.6970    0.2639 C   0  0  0  0  0  0  0  0  0  0  0  0
    2.2103    5.9877    0.3536 C   0  0  0  0  0  0  0  0  0  0  0  0
    1.3708    7.0737    0.6137 C   0  0  0  0  0  0  0  0  0  0  0  0
    0.0024    6.8761    0.7946 C   0  0  0  0  0  0  0  0  0  0  0  0
   -0.5324    5.5904    0.7202 C   0  0  0  0  0  0  0  0  0  0  0  0
    0.3019    4.5037    0.4590 C   0  0  0  0  0  0  0  0  0  0  0  0
    3.7725    3.6942   -0.8777 C   0  0  0  0  0  0  0  0  0  0  0  0
    5.0215    3.5216   -0.0305 C   0  0  0  0  0  0  0  0  0  0  0  0
    5.1759    2.2381    0.6445 N   0  0  0  0  0  0  0  0  0  0  0  0
    0.6586   -1.0074   -0.2945 H   0  0  0  0  0  0  0  0  0  0  0  0
    0.5093    0.5461    0.4139 H   0  0  0  0  0  0  0  0  0  0  0  0
    4.8906   -2.0116   -0.2888 H   0  0  0  0  0  0  0  0  0  0  0  0
    3.2744    6.1695    0.2456 H   0  0  0  0  0  0  0  0  0  0  0  0
    1.7878    8.0756    0.6823 H   0  0  0  0  0  0  0  0  0  0  0  0
   -0.6481    7.7237    0.9987 H   0  0  0  0  0  0  0  0  0  0  0  0
   -1.5978    5.4337    0.8678 H   0  0  0  0  0  0  0  0  0  0  0  0
   -0.1246    3.5038    0.4033 H   0  0  0  0  0  0  0  0  0  0  0  0
    3.7802    4.6794   -1.3535 H   0  0  0  0  0  0  0  0  0  0  0  0
    3.7441    2.9726   -1.7033 H   0  0  0  0  0  0  0  0  0  0  0  0
    5.0595    4.3030    0.7377 H   0  0  0  0  0  0  0  0  0  0  0  0
    5.8966    3.6776   -0.6726 H   0  0  0  0  0  0  0  0  0  0  0  0
    6.1347    1.8956    0.6401 H   0  0  0  0  0  0  0  0  0  0  0  0
  1  2  1  0  0  0  0
  1 19  1  0  0  0  0
  1 20  1  0  0  0  0
  2  3  1  0  0  0  0
  2  7  2  0  0  0  0
  3  4  2  0  0  0  0
  4  5  1  0  0  0  0
  4 21  1  0  0  0  0
  5  6  2  0  0  0  0
  6  7  1  0  0  0  0
  6 18  1  0  0  0  0
  7  8  1  0  0  0  0
  8  9  2  0  0  0  0
  9 10  1  0  0  0  0
  9 16  1  0  0  0  0
 10 11  1  0  0  0  0
 10 15  2  0  0  0  0
 11 12  2  0  0  0  0
 11 22  1  0  0  0  0
 12 13  1  0  0  0  0
 12 23  1  0  0  0  0
 13 14  2  0  0  0  0
 13 24  1  0  0  0  0
 14 15  1  0  0  0  0
 14 25  1  0  0  0  0
 15 26  1  0  0  0  0
 16 17  1  0  0  0  0
 16 27  1  0  0  0  0
 16 28  1  0  0  0  0
 17 18  1  0  0  0  0
 17 29  1  0  0  0  0
 17 30  1  0  0  0  0
 18 31  1  0  0  0  0
M  END
$$$$
