CHEMBL258433
 OpenBabel04072215363D

 60 65  0  0  0  0  0  0  0  0999 V2000
    0.9653   -0.3011    0.1359 C   0  0  0  0  0  0  0  0  0  0  0  0
    2.4433   -0.0813   -0.1411 C   0  0  0  0  0  0  0  0  0  0  0  0
    3.1019   -0.5954   -1.1373 N   0  0  0  0  0  0  0  0  0  0  0  0
    2.2954   -1.3964   -1.9246 O   0  0  0  0  0  0  0  0  0  0  0  0
    3.0325   -1.8305   -3.0590 C   0  0  0  0  0  0  0  0  0  0  0  0
    2.0944   -2.6754   -3.9219 C   0  0  0  0  0  0  0  0  0  0  0  0
    0.9072   -1.8332   -4.3838 C   0  0  0  0  0  0  0  0  0  0  0  0
    2.8462   -3.2826   -5.0841 C   0  0  0  0  0  0  0  0  0  0  0  0
    3.1733    0.8415    0.7476 C   0  0  0  0  0  0  0  0  0  0  0  0
    2.8393    0.9655    2.0778 C   0  0  0  0  0  0  0  0  0  0  0  0
    3.5285    1.8877    2.8983 C   0  0  0  0  0  0  0  0  0  0  0  0
    4.4867    2.6151    2.2406 C   0  0  0  0  0  0  0  0  0  0  0  0
    5.2183    3.6098    2.8146 N   0  0  0  0  0  0  0  0  0  0  0  0
    5.9521    4.2374    1.8806 C   0  0  0  0  0  0  0  0  0  0  0  0
    6.8414    5.3199    1.9655 C   0  0  0  0  0  0  0  0  0  0  0  0
    7.9632    6.1996    1.5223 C   0  0  0  0  0  0  0  0  0  0  0  0
    7.8813    5.1487    0.1251 C   0  0  0  0  0  0  0  0  0  0  0  0
    6.7262    4.0386   -0.1681 C   0  0  0  0  0  0  0  0  0  0  0  0
    5.8166    3.5313    0.7911 C   0  0  0  0  0  0  0  0  0  0  0  0
    4.8858    2.5878    0.9106 C   0  0  0  0  0  0  0  0  0  0  0  0
    4.1773    1.6132    0.1321 C   0  0  0  0  0  0  0  0  0  0  0  0
    6.6009    3.4757   -1.5023 C   0  0  0  0  0  0  0  0  0  0  0  0
    7.7383    4.1223   -2.0601 N   0  0  0  0  0  0  0  0  0  0  0  0
    8.3253    5.2377   -1.3243 C   0  0  0  0  0  0  0  0  0  0  0  0
    9.0161    6.0052   -1.9917 O   0  0  0  0  0  0  0  0  0  0  0  0
    8.7379    6.6285    3.2150 C   0  0  0  0  0  0  0  0  0  0  0  0
    8.7071    7.8282    4.2742 C   0  0  0  0  0  0  0  0  0  0  0  0
    8.9478    7.3176    5.7364 N   0  0  0  0  0  0  0  0  0  0  0  0
    8.9680    7.7136    7.1744 C   0  0  0  0  0  0  0  0  0  0  0  0
    8.7706    6.0125    5.7334 N   0  0  0  0  0  0  0  0  0  0  0  0
    8.2367    5.8620    4.5785 C   0  0  0  0  0  0  0  0  0  0  0  0
    6.8838    5.1888    4.6598 C   0  0  0  0  0  0  0  0  0  0  0  0
    6.6494    5.5869    3.2941 C   0  0  0  0  0  0  0  0  0  0  0  0
    0.4851   -0.9084   -0.6188 H   0  0  0  0  0  0  0  0  0  0  0  0
    0.4696    0.6813    0.1542 H   0  0  0  0  0  0  0  0  0  0  0  0
    0.8412   -0.7844    1.1036 H   0  0  0  0  0  0  0  0  0  0  0  0
    3.8897   -2.4443   -2.7267 H   0  0  0  0  0  0  0  0  0  0  0  0
    3.4297   -0.9668   -3.6237 H   0  0  0  0  0  0  0  0  0  0  0  0
    1.6902   -3.4758   -3.2847 H   0  0  0  0  0  0  0  0  0  0  0  0
    1.2478   -1.0066   -5.0214 H   0  0  0  0  0  0  0  0  0  0  0  0
    0.3628   -1.3965   -3.5480 H   0  0  0  0  0  0  0  0  0  0  0  0
    0.2095   -2.4290   -4.9643 H   0  0  0  0  0  0  0  0  0  0  0  0
    3.3789   -2.5239   -5.6546 H   0  0  0  0  0  0  0  0  0  0  0  0
    2.1582   -3.8974   -5.6819 H   0  0  0  0  0  0  0  0  0  0  0  0
    3.6414   -3.9325   -4.7420 H   0  0  0  0  0  0  0  0  0  0  0  0
    2.0824    0.3513    2.5764 H   0  0  0  0  0  0  0  0  0  0  0  0
    3.3003    2.0700    3.9392 H   0  0  0  0  0  0  0  0  0  0  0  0
    5.1386    3.8435    3.8236 H   0  0  0  0  0  0  0  0  0  0  0  0
    4.3816    1.5251   -0.9335 H   0  0  0  0  0  0  0  0  0  0  0  0
    5.6624    3.7838   -2.0099 H   0  0  0  0  0  0  0  0  0  0  0  0
    6.6560    2.3822   -1.5179 H   0  0  0  0  0  0  0  0  0  0  0  0
    7.9486    3.9030   -3.0125 H   0  0  0  0  0  0  0  0  0  0  0  0
    8.3247    8.8336    4.2879 H   0  0  0  0  0  0  0  0  0  0  0  0
    8.7841    8.7430    7.4675 H   0  0  0  0  0  0  0  0  0  0  0  0
    9.9252    7.3480    7.6021 H   0  0  0  0  0  0  0  0  0  0  0  0
    8.2358    7.0873    7.7455 H   0  0  0  0  0  0  0  0  0  0  0  0
    5.9886    5.6518    5.0545 H   0  0  0  0  0  0  0  0  0  0  0  0
    6.9507    4.1470    4.7940 H   0  0  0  0  0  0  0  0  0  0  0  0
    7.6001    4.8943    3.1155 H   0  0  0  0  0  0  0  0  0  0  0  0
    6.4859    6.6779    3.1955 H   0  0  0  0  0  0  0  0  0  0  0  0
  1  2  1  0  0  0  0
  1 34  1  0  0  0  0
  1 35  1  0  0  0  0
  1 36  1  0  0  0  0
  2  3  2  0  0  0  0
  2  9  1  0  0  0  0
  3  4  1  0  0  0  0
  4  5  1  0  0  0  0
  5  6  1  0  0  0  0
  5 37  1  0  0  0  0
  5 38  1  0  0  0  0
  6  7  1  0  0  0  0
  6  8  1  0  0  0  0
  6 39  1  0  0  0  0
  7 40  1  0  0  0  0
  7 41  1  0  0  0  0
  7 42  1  0  0  0  0
  8 43  1  0  0  0  0
  8 44  1  0  0  0  0
  8 45  1  0  0  0  0
  9 10  1  0  0  0  0
  9 21  2  0  0  0  0
 10 11  2  0  0  0  0
 10 46  1  0  0  0  0
 11 12  1  0  0  0  0
 11 47  1  0  0  0  0
 12 13  1  0  0  0  0
 12 20  2  0  0  0  0
 13 14  1  0  0  0  0
 13 48  1  0  0  0  0
 14 15  1  0  0  0  0
 14 19  2  0  0  0  0
 15 16  2  0  0  0  0
 15 33  1  0  0  0  0
 16 17  1  0  0  0  0
 16 26  1  0  0  0  0
 17 18  2  0  0  0  0
 17 24  1  0  0  0  0
 18 19  1  0  0  0  0
 18 22  1  0  0  0  0
 19 20  1  0  0  0  0
 20 21  1  0  0  0  0
 21 49  1  0  0  0  0
 22 23  1  0  0  0  0
 22 50  1  0  0  0  0
 22 51  1  0  0  0  0
 23 24  1  0  0  0  0
 23 52  1  0  0  0  0
 24 25  2  0  0  0  0
 26 27  2  0  0  0  0
 26 31  1  0  0  0  0
 27 28  1  0  0  0  0
 27 53  1  0  0  0  0
 28 29  1  0  0  0  0
 28 30  1  0  0  0  0
 29 54  1  0  0  0  0
 29 55  1  0  0  0  0
 29 56  1  0  0  0  0
 30 31  2  0  0  0  0
 31 32  1  0  0  0  0
 32 33  1  0  0  0  0
 32 57  1  0  0  0  0
 32 58  1  0  0  0  0
 33 59  1  0  0  0  0
 33 60  1  0  0  0  0
M  END
$$$$
