CHEMBL3754785
 OpenBabel04072215373D

 48 50  0  0  0  0  0  0  0  0999 V2000
    2.5257    0.4967    0.9970 C   0  0  0  0  0  0  0  0  0  0  0  0
    2.3701    0.3764   -0.4112 O   0  0  0  0  0  0  0  0  0  0  0  0
    3.0187   -0.7330   -0.9137 C   0  0  0  0  0  0  0  0  0  0  0  0
    3.1913   -0.7795   -2.2822 C   0  0  0  0  0  0  0  0  0  0  0  0
    3.8363   -1.8908   -2.8206 C   0  0  0  0  0  0  0  0  0  0  0  0
    4.3068   -2.9347   -1.9975 C   0  0  0  0  0  0  0  0  0  0  0  0
    5.0538   -4.0961   -2.5667 C   0  0  0  0  0  0  0  0  0  0  0  0
    5.8643   -3.8567   -3.6971 C   0  0  0  0  0  0  0  0  0  0  0  0
    6.5323   -4.8688   -4.3746 C   0  0  0  0  0  0  0  0  0  0  0  0
    7.2563   -4.6442   -5.5510 N   0  0  0  0  0  0  0  0  0  0  0  0
    7.5472   -3.4475   -6.1650 C   0  0  0  0  0  0  0  0  0  0  0  0
    7.1258   -2.3362   -5.8545 O   0  0  0  0  0  0  0  0  0  0  0  0
    8.5407   -3.5124   -7.1106 N   0  0  0  0  0  0  0  0  0  0  0  0
    9.0726   -4.6688   -7.6649 C   0  0  0  0  0  0  0  0  0  0  0  0
   10.4232   -4.6908   -7.9722 C   0  0  0  0  0  0  0  0  0  0  0  0
   10.9644   -5.8687   -8.4690 C   0  0  0  0  0  0  0  0  0  0  0  0
   10.1278   -6.9500   -8.7265 C   0  0  0  0  0  0  0  0  0  0  0  0
    8.7858   -6.8305   -8.4179 C   0  0  0  0  0  0  0  0  0  0  0  0
    8.2580   -5.7357   -7.8423 N   0  0  0  0  0  0  0  0  0  0  0  0
    6.4781   -6.1669   -3.8687 C   0  0  0  0  0  0  0  0  0  0  0  0
    5.7482   -6.4460   -2.7077 C   0  0  0  0  0  0  0  0  0  0  0  0
    5.6378   -7.7423   -2.2631 O   0  0  0  0  0  0  0  0  0  0  0  0
    6.8746   -8.4469   -2.1609 C   0  0  0  0  0  0  0  0  0  0  0  0
    5.0153   -5.4230   -2.0608 C   0  0  0  0  0  0  0  0  0  0  0  0
    4.1878   -5.6357   -0.9822 O   0  0  0  0  0  0  0  0  0  0  0  0
    4.5498   -6.6615   -0.0647 C   0  0  0  0  0  0  0  0  0  0  0  0
    4.0624   -2.7686   -0.6385 C   0  0  0  0  0  0  0  0  0  0  0  0
    3.4335   -1.7050   -0.0750 N   0  0  0  0  0  0  0  0  0  0  0  0
    2.0074    1.4069    1.3151 H   0  0  0  0  0  0  0  0  0  0  0  0
    3.5840    0.6048    1.2616 H   0  0  0  0  0  0  0  0  0  0  0  0
    2.0708   -0.3467    1.5286 H   0  0  0  0  0  0  0  0  0  0  0  0
    2.8538    0.0332   -2.9123 H   0  0  0  0  0  0  0  0  0  0  0  0
    3.9731   -1.9165   -3.8998 H   0  0  0  0  0  0  0  0  0  0  0  0
    5.9445   -2.8399   -4.0651 H   0  0  0  0  0  0  0  0  0  0  0  0
    7.6112   -5.4584   -6.0434 H   0  0  0  0  0  0  0  0  0  0  0  0
    8.9826   -2.6220   -7.2900 H   0  0  0  0  0  0  0  0  0  0  0  0
   11.0618   -3.8390   -7.7564 H   0  0  0  0  0  0  0  0  0  0  0  0
   12.0307   -5.9459   -8.6555 H   0  0  0  0  0  0  0  0  0  0  0  0
   10.5200   -7.8677   -9.1522 H   0  0  0  0  0  0  0  0  0  0  0  0
    8.0831   -7.6319   -8.6338 H   0  0  0  0  0  0  0  0  0  0  0  0
    6.9950   -6.9671   -4.3907 H   0  0  0  0  0  0  0  0  0  0  0  0
    6.7651   -9.1903   -1.3652 H   0  0  0  0  0  0  0  0  0  0  0  0
    7.7126   -7.7940   -1.8925 H   0  0  0  0  0  0  0  0  0  0  0  0
    7.0813   -8.9802   -3.0931 H   0  0  0  0  0  0  0  0  0  0  0  0
    4.0806   -6.4289    0.8964 H   0  0  0  0  0  0  0  0  0  0  0  0
    5.6317   -6.7078    0.1066 H   0  0  0  0  0  0  0  0  0  0  0  0
    4.1496   -7.6267   -0.3903 H   0  0  0  0  0  0  0  0  0  0  0  0
    4.3988   -3.5007    0.0903 H   0  0  0  0  0  0  0  0  0  0  0  0
  1  2  1  0  0  0  0
  1 29  1  0  0  0  0
  1 30  1  0  0  0  0
  1 31  1  0  0  0  0
  2  3  1  0  0  0  0
  3  4  1  0  0  0  0
  3 28  2  0  0  0  0
  4  5  2  0  0  0  0
  4 32  1  0  0  0  0
  5  6  1  0  0  0  0
  5 33  1  0  0  0  0
  6  7  1  0  0  0  0
  6 27  2  0  0  0  0
  7  8  1  0  0  0  0
  7 24  2  0  0  0  0
  8  9  2  0  0  0  0
  8 34  1  0  0  0  0
  9 10  1  0  0  0  0
  9 20  1  0  0  0  0
 10 11  1  0  0  0  0
 10 35  1  0  0  0  0
 11 12  2  0  0  0  0
 11 13  1  0  0  0  0
 13 14  1  0  0  0  0
 13 36  1  0  0  0  0
 14 15  1  0  0  0  0
 14 19  2  0  0  0  0
 15 16  2  0  0  0  0
 15 37  1  0  0  0  0
 16 17  1  0  0  0  0
 16 38  1  0  0  0  0
 17 18  2  0  0  0  0
 17 39  1  0  0  0  0
 18 19  1  0  0  0  0
 18 40  1  0  0  0  0
 20 21  2  0  0  0  0
 20 41  1  0  0  0  0
 21 22  1  0  0  0  0
 21 24  1  0  0  0  0
 22 23  1  0  0  0  0
 23 42  1  0  0  0  0
 23 43  1  0  0  0  0
 23 44  1  0  0  0  0
 24 25  1  0  0  0  0
 25 26  1  0  0  0  0
 26 45  1  0  0  0  0
 26 46  1  0  0  0  0
 26 47  1  0  0  0  0
 27 28  1  0  0  0  0
 27 48  1  0  0  0  0
M  END
$$$$
