CHEMBL3939307
 OpenBabel04072215373D

 48 51  0  0  0  0  0  0  0  0999 V2000
    4.5142    5.5199    4.7794 C   0  0  0  0  0  0  0  0  0  0  0  0
    4.7662    4.5286    3.7600 N   0  0  0  0  0  0  0  0  0  0  0  0
    4.2230    4.6184    2.5099 C   0  0  0  0  0  0  0  0  0  0  0  0
    3.4621    5.5311    2.1677 O   0  0  0  0  0  0  0  0  0  0  0  0
    4.6733    3.5985    1.5112 C   0  0  0  0  0  0  0  0  0  0  0  0
    4.8496    4.0728    0.1930 C   0  0  0  0  0  0  0  0  0  0  0  0
    5.3357    3.2370   -0.8086 C   0  0  0  0  0  0  0  0  0  0  0  0
    5.6586    1.9159   -0.5117 C   0  0  0  0  0  0  0  0  0  0  0  0
    5.4668    1.4319    0.7794 C   0  0  0  0  0  0  0  0  0  0  0  0
    4.9521    2.2507    1.8001 C   0  0  0  0  0  0  0  0  0  0  0  0
    4.7553    1.4517    3.3916 S   0  0  0  0  0  0  0  0  0  0  0  0
    3.0464    0.9191    3.3255 C   0  0  0  0  0  0  0  0  0  0  0  0
    2.6461   -0.2147    2.6005 C   0  0  0  0  0  0  0  0  0  0  0  0
    1.2892   -0.6242    2.5603 C   0  0  0  0  0  0  0  0  0  0  0  0
    0.3615    0.0605    3.3694 C   0  0  0  0  0  0  0  0  0  0  0  0
   -1.0338    0.0346    3.7308 C   0  0  0  0  0  0  0  0  0  0  0  0
   -2.1545    0.9269    3.1902 C   0  0  0  0  0  0  0  0  0  0  0  0
   -2.8359    0.6281    1.8732 C   0  0  0  0  0  0  0  0  0  0  0  0
   -3.6770   -0.6081    1.7280 C   0  0  0  0  0  0  0  0  0  0  0  0
   -4.1818   -1.3354    2.8023 C   0  0  0  0  0  0  0  0  0  0  0  0
   -5.0639   -2.3865    2.5488 C   0  0  0  0  0  0  0  0  0  0  0  0
   -5.4277   -2.6779    1.2407 C   0  0  0  0  0  0  0  0  0  0  0  0
   -4.8832   -1.9098    0.2302 C   0  0  0  0  0  0  0  0  0  0  0  0
   -4.0249   -0.8917    0.4460 N   0  0  0  0  0  0  0  0  0  0  0  0
   -1.0428    0.0713    5.0834 N   0  0  0  0  0  0  0  0  0  0  0  0
    0.0047    0.8942    5.3352 N   0  0  0  0  0  0  0  0  0  0  0  0
    0.8886    0.9551    4.2927 C   0  0  0  0  0  0  0  0  0  0  0  0
    2.1472    1.5470    4.1897 C   0  0  0  0  0  0  0  0  0  0  0  0
    4.8700    5.1399    5.7394 H   0  0  0  0  0  0  0  0  0  0  0  0
    3.4427    5.7313    4.8348 H   0  0  0  0  0  0  0  0  0  0  0  0
    5.0528    6.4347    4.5186 H   0  0  0  0  0  0  0  0  0  0  0  0
    5.4495    3.8013    3.9566 H   0  0  0  0  0  0  0  0  0  0  0  0
    4.6234    5.1114   -0.0453 H   0  0  0  0  0  0  0  0  0  0  0  0
    5.4750    3.6203   -1.8186 H   0  0  0  0  0  0  0  0  0  0  0  0
    6.0591    1.2625   -1.2832 H   0  0  0  0  0  0  0  0  0  0  0  0
    5.7286    0.3927    0.9910 H   0  0  0  0  0  0  0  0  0  0  0  0
    3.3927   -0.8214    2.0908 H   0  0  0  0  0  0  0  0  0  0  0  0
    1.0059   -1.5228    2.0176 H   0  0  0  0  0  0  0  0  0  0  0  0
   -1.7352    1.9419    3.1119 H   0  0  0  0  0  0  0  0  0  0  0  0
   -2.9307    1.0102    3.9671 H   0  0  0  0  0  0  0  0  0  0  0  0
   -2.1090    0.6776    1.0561 H   0  0  0  0  0  0  0  0  0  0  0  0
   -3.5372    1.4626    1.7066 H   0  0  0  0  0  0  0  0  0  0  0  0
   -3.9242   -1.0966    3.8288 H   0  0  0  0  0  0  0  0  0  0  0  0
   -5.4757   -2.9638    3.3719 H   0  0  0  0  0  0  0  0  0  0  0  0
   -6.1230   -3.4773    1.0133 H   0  0  0  0  0  0  0  0  0  0  0  0
   -5.1355   -2.0862   -0.8104 H   0  0  0  0  0  0  0  0  0  0  0  0
    0.1374    1.2211    6.2806 H   0  0  0  0  0  0  0  0  0  0  0  0
    2.4522    2.3503    4.8509 H   0  0  0  0  0  0  0  0  0  0  0  0
  1  2  1  0  0  0  0
  1 29  1  0  0  0  0
  1 30  1  0  0  0  0
  1 31  1  0  0  0  0
  2  3  1  0  0  0  0
  2 32  1  0  0  0  0
  3  4  2  0  0  0  0
  3  5  1  0  0  0  0
  5  6  1  0  0  0  0
  5 10  2  0  0  0  0
  6  7  2  0  0  0  0
  6 33  1  0  0  0  0
  7  8  1  0  0  0  0
  7 34  1  0  0  0  0
  8  9  2  0  0  0  0
  8 35  1  0  0  0  0
  9 10  1  0  0  0  0
  9 36  1  0  0  0  0
 10 11  1  0  0  0  0
 11 12  1  0  0  0  0
 12 13  1  0  0  0  0
 12 28  2  0  0  0  0
 13 14  2  0  0  0  0
 13 37  1  0  0  0  0
 14 15  1  0  0  0  0
 14 38  1  0  0  0  0
 15 16  1  0  0  0  0
 15 27  2  0  0  0  0
 16 17  1  0  0  0  0
 16 25  2  0  0  0  0
 17 18  1  0  0  0  0
 17 39  1  0  0  0  0
 17 40  1  0  0  0  0
 18 19  1  0  0  0  0
 18 41  1  0  0  0  0
 18 42  1  0  0  0  0
 19 20  1  0  0  0  0
 19 24  2  0  0  0  0
 20 21  2  0  0  0  0
 20 43  1  0  0  0  0
 21 22  1  0  0  0  0
 21 44  1  0  0  0  0
 22 23  2  0  0  0  0
 22 45  1  0  0  0  0
 23 24  1  0  0  0  0
 23 46  1  0  0  0  0
 25 26  1  0  0  0  0
 26 27  1  0  0  0  0
 26 47  1  0  0  0  0
 27 28  1  0  0  0  0
 28 48  1  0  0  0  0
M  END
$$$$
