CHEMBL2022852
 OpenBabel04072215363D

 64 68  0  0  0  0  0  0  0  0999 V2000
    3.6463   -5.5899   -3.8739 C   0  0  0  0  0  0  0  0  0  0  0  0
    2.9986   -4.3987   -3.1672 C   0  0  0  0  0  0  0  0  0  0  0  0
    1.5443   -4.7277   -2.8221 C   0  0  0  0  0  0  0  0  0  0  0  0
    3.7620   -3.9912   -1.8908 C   0  0  0  0  0  0  0  0  0  0  0  0
    5.2101   -3.5450   -2.1218 C   0  0  0  0  0  0  0  0  0  0  0  0
    5.3304   -2.4191   -3.0194 N   0  0  0  0  0  0  0  0  0  0  0  0
    5.9372   -2.4142   -4.2460 C   0  0  0  0  0  0  0  0  0  0  0  0
    5.7607   -1.1466   -4.7689 C   0  0  0  0  0  0  0  0  0  0  0  0
    6.2525   -0.7320   -6.0687 C   0  0  0  0  0  0  0  0  0  0  0  0
    6.3739   -1.6322   -7.1129 C   0  0  0  0  0  0  0  0  0  0  0  0
    6.8773   -1.3472   -8.3224 N   0  0  0  0  0  0  0  0  0  0  0  0
    7.2794   -0.0925   -8.6017 C   0  0  0  0  0  0  0  0  0  0  0  0
    7.8406    0.0301   -9.8623 N   0  0  0  0  0  0  0  0  0  0  0  0
    7.1308    0.9537   -7.6398 C   0  0  0  0  0  0  0  0  0  0  0  0
    7.3748    2.4076   -7.7116 C   0  0  0  0  0  0  0  0  0  0  0  0
    7.7592    3.2286   -8.8667 C   0  0  0  0  0  0  0  0  0  0  0  0
    7.3054    2.8888  -10.1370 C   0  0  0  0  0  0  0  0  0  0  0  0
    7.7335    3.5812  -11.2606 C   0  0  0  0  0  0  0  0  0  0  0  0
    8.4966    4.7415  -11.1381 C   0  0  0  0  0  0  0  0  0  0  0  0
    8.8281    5.5279  -12.2618 N   0  0  0  0  0  0  0  0  0  0  0  0
    8.1268    5.4850  -13.4518 C   0  0  0  0  0  0  0  0  0  0  0  0
    7.0860    4.8566  -13.6348 O   0  0  0  0  0  0  0  0  0  0  0  0
    8.7457    6.2218  -14.4458 N   0  0  0  0  0  0  0  0  0  0  0  0
    8.1502    6.3558  -15.7192 C   0  0  0  0  0  0  0  0  0  0  0  0
    6.7696    6.5673  -15.8623 C   0  0  0  0  0  0  0  0  0  0  0  0
    6.1920    6.6626  -17.1290 C   0  0  0  0  0  0  0  0  0  0  0  0
    6.9933    6.5367  -18.2587 C   0  0  0  0  0  0  0  0  0  0  0  0
    8.3614    6.3287  -18.1094 C   0  0  0  0  0  0  0  0  0  0  0  0
    9.1241    6.1753  -19.1998 F   0  0  0  0  0  0  0  0  0  0  0  0
    8.9521    6.2575  -16.8519 C   0  0  0  0  0  0  0  0  0  0  0  0
    8.9190    5.1354   -9.8687 C   0  0  0  0  0  0  0  0  0  0  0  0
    8.5656    4.3738   -8.7431 C   0  0  0  0  0  0  0  0  0  0  0  0
    7.1249    3.0266   -6.5064 C   0  0  0  0  0  0  0  0  0  0  0  0
    6.6742    1.9488   -5.2898 S   0  0  0  0  0  0  0  0  0  0  0  0
    6.6482    0.5916   -6.3624 C   0  0  0  0  0  0  0  0  0  0  0  0
    5.0225   -0.4738   -3.7660 C   0  0  0  0  0  0  0  0  0  0  0  0
    4.7807   -1.2366   -2.6980 N   0  0  0  0  0  0  0  0  0  0  0  0
    3.0668   -5.8771   -4.7578 H   0  0  0  0  0  0  0  0  0  0  0  0
    3.7051   -6.4594   -3.2107 H   0  0  0  0  0  0  0  0  0  0  0  0
    4.6580   -5.3528   -4.2157 H   0  0  0  0  0  0  0  0  0  0  0  0
    2.9832   -3.5539   -3.8667 H   0  0  0  0  0  0  0  0  0  0  0  0
    1.4821   -5.5407   -2.0906 H   0  0  0  0  0  0  0  0  0  0  0  0
    0.9905   -5.0327   -3.7164 H   0  0  0  0  0  0  0  0  0  0  0  0
    1.0382   -3.8523   -2.4010 H   0  0  0  0  0  0  0  0  0  0  0  0
    3.7664   -4.8272   -1.1829 H   0  0  0  0  0  0  0  0  0  0  0  0
    3.2136   -3.1758   -1.3993 H   0  0  0  0  0  0  0  0  0  0  0  0
    5.8258   -4.3661   -2.5094 H   0  0  0  0  0  0  0  0  0  0  0  0
    5.6605   -3.2314   -1.1678 H   0  0  0  0  0  0  0  0  0  0  0  0
    6.4263   -3.2978   -4.6296 H   0  0  0  0  0  0  0  0  0  0  0  0
    6.0659   -2.6689   -7.0063 H   0  0  0  0  0  0  0  0  0  0  0  0
    8.0036   -0.8861  -10.2646 H   0  0  0  0  0  0  0  0  0  0  0  0
    8.6036    0.6895   -9.9319 H   0  0  0  0  0  0  0  0  0  0  0  0
    6.6146    2.0641  -10.2935 H   0  0  0  0  0  0  0  0  0  0  0  0
    7.4347    3.1855  -12.2270 H   0  0  0  0  0  0  0  0  0  0  0  0
    9.3817    6.3596  -12.1026 H   0  0  0  0  0  0  0  0  0  0  0  0
    9.7550    6.2024  -14.4094 H   0  0  0  0  0  0  0  0  0  0  0  0
    6.1261    6.6520  -14.9877 H   0  0  0  0  0  0  0  0  0  0  0  0
    5.1207    6.8185  -17.2244 H   0  0  0  0  0  0  0  0  0  0  0  0
    6.5608    6.5894  -19.2521 H   0  0  0  0  0  0  0  0  0  0  0  0
   10.0163    6.0634  -16.7819 H   0  0  0  0  0  0  0  0  0  0  0  0
    9.5041    6.0385   -9.7285 H   0  0  0  0  0  0  0  0  0  0  0  0
    8.9174    4.7050   -7.7682 H   0  0  0  0  0  0  0  0  0  0  0  0
    7.1862    4.0798   -6.2675 H   0  0  0  0  0  0  0  0  0  0  0  0
    4.6437    0.5387   -3.7618 H   0  0  0  0  0  0  0  0  0  0  0  0
  1  2  1  0  0  0  0
  1 38  1  0  0  0  0
  1 39  1  0  0  0  0
  1 40  1  0  0  0  0
  2  3  1  0  0  0  0
  2  4  1  0  0  0  0
  2 41  1  0  0  0  0
  3 42  1  0  0  0  0
  3 43  1  0  0  0  0
  3 44  1  0  0  0  0
  4  5  1  0  0  0  0
  4 45  1  0  0  0  0
  4 46  1  0  0  0  0
  5  6  1  0  0  0  0
  5 47  1  0  0  0  0
  5 48  1  0  0  0  0
  6  7  1  0  0  0  0
  6 37  1  0  0  0  0
  7  8  2  0  0  0  0
  7 49  1  0  0  0  0
  8  9  1  0  0  0  0
  8 36  1  0  0  0  0
  9 10  1  0  0  0  0
  9 35  2  0  0  0  0
 10 11  2  0  0  0  0
 10 50  1  0  0  0  0
 11 12  1  0  0  0  0
 12 13  1  0  0  0  0
 12 14  2  0  0  0  0
 13 51  1  0  0  0  0
 13 52  1  0  0  0  0
 14 15  1  0  0  0  0
 14 35  1  0  0  0  0
 15 16  1  0  0  0  0
 15 33  2  0  0  0  0
 16 17  1  0  0  0  0
 16 32  2  0  0  0  0
 17 18  2  0  0  0  0
 17 53  1  0  0  0  0
 18 19  1  0  0  0  0
 18 54  1  0  0  0  0
 19 20  1  0  0  0  0
 19 31  2  0  0  0  0
 20 21  1  0  0  0  0
 20 55  1  0  0  0  0
 21 22  2  0  0  0  0
 21 23  1  0  0  0  0
 23 24  1  0  0  0  0
 23 56  1  0  0  0  0
 24 25  1  0  0  0  0
 24 30  2  0  0  0  0
 25 26  2  0  0  0  0
 25 57  1  0  0  0  0
 26 27  1  0  0  0  0
 26 58  1  0  0  0  0
 27 28  2  0  0  0  0
 27 59  1  0  0  0  0
 28 29  1  0  0  0  0
 28 30  1  0  0  0  0
 30 60  1  0  0  0  0
 31 32  1  0  0  0  0
 31 61  1  0  0  0  0
 32 62  1  0  0  0  0
 33 34  1  0  0  0  0
 33 63  1  0  0  0  0
 34 35  1  0  0  0  0
 36 37  2  0  0  0  0
 36 64  1  0  0  0  0
M  END
$$$$
