CHEMBL271375
 OpenBabel04072215363D

 48 50  0  0  0  0  0  0  0  0999 V2000
    2.5578    0.0834   -0.0559 C   0  0  0  0  0  0  0  0  0  0  0  0
    1.0567    0.0350    0.0154 C   0  0  0  0  0  0  0  0  0  0  0  0
    0.3852    1.2662    0.0736 C   0  0  0  0  0  0  0  0  0  0  0  0
   -1.0081    1.3384    0.0482 C   0  0  0  0  0  0  0  0  0  0  0  0
   -1.7859    0.1880   -0.0472 C   0  0  0  0  0  0  0  0  0  0  0  0
   -3.2033    0.2574   -0.1297 N   0  0  0  0  0  0  0  0  0  0  0  0
   -3.9038    1.3606   -0.6064 C   0  0  0  0  0  0  0  0  0  0  0  0
   -3.3878    2.3213   -1.1663 O   0  0  0  0  0  0  0  0  0  0  0  0
   -5.2657    1.2741   -0.3399 N   0  0  0  0  0  0  0  0  0  0  0  0
   -6.1538    2.3005   -0.7533 C   0  0  0  0  0  0  0  0  0  0  0  0
   -7.0880    2.7985    0.1574 C   0  0  0  0  0  0  0  0  0  0  0  0
   -7.9293    3.8551   -0.2042 C   0  0  0  0  0  0  0  0  0  0  0  0
   -7.8862    4.3792   -1.4968 C   0  0  0  0  0  0  0  0  0  0  0  0
   -6.9904    3.8562   -2.4405 C   0  0  0  0  0  0  0  0  0  0  0  0
   -6.9726    4.3770   -3.8601 C   0  0  0  0  0  0  0  0  0  0  0  0
   -7.9017    5.3486   -4.0939 F   0  0  0  0  0  0  0  0  0  0  0  0
   -5.7757    4.9168   -4.2158 F   0  0  0  0  0  0  0  0  0  0  0  0
   -7.2308    3.3985   -4.7726 F   0  0  0  0  0  0  0  0  0  0  0  0
   -6.1163    2.8272   -2.0516 C   0  0  0  0  0  0  0  0  0  0  0  0
   -1.1344   -1.0543   -0.0403 C   0  0  0  0  0  0  0  0  0  0  0  0
    0.2843   -1.1452   -0.0129 C   0  0  0  0  0  0  0  0  0  0  0  0
    0.8668   -2.5269   -0.1178 C   0  0  0  0  0  0  0  0  0  0  0  0
    0.2932   -3.3443   -0.8290 O   0  0  0  0  0  0  0  0  0  0  0  0
    1.9815   -2.8001    0.6590 N   0  0  0  0  0  0  0  0  0  0  0  0
    2.6955   -4.0246    0.6929 C   0  0  0  0  0  0  0  0  0  0  0  0
    2.5209   -5.1013   -0.1515 C   0  0  0  0  0  0  0  0  0  0  0  0
    3.2214   -6.2604   -0.0579 N   0  0  0  0  0  0  0  0  0  0  0  0
    4.1407   -6.3373    0.9066 C   0  0  0  0  0  0  0  0  0  0  0  0
    4.8299   -7.5235    1.0443 N   0  0  0  0  0  0  0  0  0  0  0  0
    4.4001   -5.3636    1.7802 N   0  0  0  0  0  0  0  0  0  0  0  0
    3.6811   -4.2265    1.6414 C   0  0  0  0  0  0  0  0  0  0  0  0
    2.9098    1.1030   -0.2571 H   0  0  0  0  0  0  0  0  0  0  0  0
    2.9325   -0.5434   -0.8699 H   0  0  0  0  0  0  0  0  0  0  0  0
    3.0025   -0.2177    0.8961 H   0  0  0  0  0  0  0  0  0  0  0  0
    0.9405    2.2031    0.1004 H   0  0  0  0  0  0  0  0  0  0  0  0
   -1.4616    2.3259    0.0871 H   0  0  0  0  0  0  0  0  0  0  0  0
   -3.7091   -0.6168   -0.1383 H   0  0  0  0  0  0  0  0  0  0  0  0
   -5.4815    0.8255    0.5388 H   0  0  0  0  0  0  0  0  0  0  0  0
   -7.1320    2.4200    1.1739 H   0  0  0  0  0  0  0  0  0  0  0  0
   -8.6145    4.2799    0.5258 H   0  0  0  0  0  0  0  0  0  0  0  0
   -8.5537    5.1980   -1.7639 H   0  0  0  0  0  0  0  0  0  0  0  0
   -5.4084    2.4312   -2.7795 H   0  0  0  0  0  0  0  0  0  0  0  0
   -1.7146   -1.9739   -0.1022 H   0  0  0  0  0  0  0  0  0  0  0  0
    2.2618   -2.1002    1.3324 H   0  0  0  0  0  0  0  0  0  0  0  0
    1.8078   -5.0910   -0.9696 H   0  0  0  0  0  0  0  0  0  0  0  0
    4.2950   -8.2744    0.6304 H   0  0  0  0  0  0  0  0  0  0  0  0
    5.1247   -7.6403    2.0034 H   0  0  0  0  0  0  0  0  0  0  0  0
    3.9363   -3.4600    2.3658 H   0  0  0  0  0  0  0  0  0  0  0  0
  1  2  1  0  0  0  0
  1 32  1  0  0  0  0
  1 33  1  0  0  0  0
  1 34  1  0  0  0  0
  2  3  1  0  0  0  0
  2 21  2  0  0  0  0
  3  4  2  0  0  0  0
  3 35  1  0  0  0  0
  4  5  1  0  0  0  0
  4 36  1  0  0  0  0
  5  6  1  0  0  0  0
  5 20  2  0  0  0  0
  6  7  1  0  0  0  0
  6 37  1  0  0  0  0
  7  8  2  0  0  0  0
  7  9  1  0  0  0  0
  9 10  1  0  0  0  0
  9 38  1  0  0  0  0
 10 11  1  0  0  0  0
 10 19  2  0  0  0  0
 11 12  2  0  0  0  0
 11 39  1  0  0  0  0
 12 13  1  0  0  0  0
 12 40  1  0  0  0  0
 13 14  2  0  0  0  0
 13 41  1  0  0  0  0
 14 15  1  0  0  0  0
 14 19  1  0  0  0  0
 15 16  1  0  0  0  0
 15 17  1  0  0  0  0
 15 18  1  0  0  0  0
 19 42  1  0  0  0  0
 20 21  1  0  0  0  0
 20 43  1  0  0  0  0
 21 22  1  0  0  0  0
 22 23  2  0  0  0  0
 22 24  1  0  0  0  0
 24 25  1  0  0  0  0
 24 44  1  0  0  0  0
 25 26  1  0  0  0  0
 25 31  2  0  0  0  0
 26 27  2  0  0  0  0
 26 45  1  0  0  0  0
 27 28  1  0  0  0  0
 28 29  1  0  0  0  0
 28 30  2  0  0  0  0
 29 46  1  0  0  0  0
 29 47  1  0  0  0  0
 30 31  1  0  0  0  0
 31 48  1  0  0  0  0
M  END
$$$$
