CHEMBL2063338
 OpenBabel04072215363D

 74 78  0  0  0  0  0  0  0  0999 V2000
    4.0493    3.9621   -4.1168 C   0  0  0  0  0  0  0  0  0  0  0  0
    3.8020    2.8999   -3.0919 C   0  0  0  0  0  0  0  0  0  0  0  0
    2.8310    3.1505   -2.2006 N   0  0  0  0  0  0  0  0  0  0  0  0
    2.6161    2.2400   -1.2385 C   0  0  0  0  0  0  0  0  0  0  0  0
    1.6674    2.4964   -0.2213 N   0  0  0  0  0  0  0  0  0  0  0  0
    0.9675    3.6473   -0.0835 C   0  0  0  0  0  0  0  0  0  0  0  0
    0.0808    4.0834    0.8662 C   0  0  0  0  0  0  0  0  0  0  0  0
   -0.3005    5.4005    0.4681 C   0  0  0  0  0  0  0  0  0  0  0  0
   -1.2038    6.3419    1.1425 C   0  0  0  0  0  0  0  0  0  0  0  0
   -1.7785    6.0348    2.3800 C   0  0  0  0  0  0  0  0  0  0  0  0
   -2.6436    6.9373    3.0096 C   0  0  0  0  0  0  0  0  0  0  0  0
   -2.9615    8.1643    2.4100 C   0  0  0  0  0  0  0  0  0  0  0  0
   -3.9402    9.1180    3.0513 C   0  0  0  0  0  0  0  0  0  0  0  0
   -3.3188   10.0589    3.9510 N   0  0  0  0  0  0  0  0  0  0  0  0
   -2.8029   11.2490    3.5344 C   0  0  0  0  0  0  0  0  0  0  0  0
   -2.8319   11.6662    2.3886 O   0  0  0  0  0  0  0  0  0  0  0  0
   -2.2096   11.8727    4.5812 O   0  0  0  0  0  0  0  0  0  0  0  0
   -1.2441   12.8719    4.2290 C   0  0  0  0  0  0  0  0  0  0  0  0
   -1.6340   14.2776    4.6267 C   0  0  0  0  0  0  0  0  0  0  0  0
   -0.8522   14.9922    5.5493 C   0  0  0  0  0  0  0  0  0  0  0  0
   -1.1163   16.3377    5.8192 C   0  0  0  0  0  0  0  0  0  0  0  0
   -2.1657   16.9841    5.1722 C   0  0  0  0  0  0  0  0  0  0  0  0
   -2.9630   16.2808    4.2710 C   0  0  0  0  0  0  0  0  0  0  0  0
   -2.7008   14.9341    3.9995 C   0  0  0  0  0  0  0  0  0  0  0  0
   -2.3678    8.4808    1.1822 C   0  0  0  0  0  0  0  0  0  0  0  0
   -1.5033    7.5773    0.5551 C   0  0  0  0  0  0  0  0  0  0  0  0
    0.3102    5.7358   -0.6846 N   0  0  0  0  0  0  0  0  0  0  0  0
    1.0648    4.6728   -0.9789 N   0  0  0  0  0  0  0  0  0  0  0  0
    3.3805    1.1037   -1.1607 C   0  0  0  0  0  0  0  0  0  0  0  0
    4.3781    0.9205   -2.1032 C   0  0  0  0  0  0  0  0  0  0  0  0
    5.1515   -0.2313   -1.9957 N   0  0  0  0  0  0  0  0  0  0  0  0
    5.8435   -0.7382   -3.1847 C   0  0  0  0  0  0  0  0  0  0  0  0
    6.2319   -2.2247   -2.9113 C   0  0  0  0  0  0  0  0  0  0  0  0
    6.9985   -2.4803   -1.6511 N   0  0  0  0  0  0  0  0  0  0  0  0
    8.3966   -2.0254   -1.8074 C   0  0  0  0  0  0  0  0  0  0  0  0
    9.2800   -2.2987   -0.5770 C   0  0  0  0  0  0  0  0  0  0  0  0
    9.2276   -3.6742   -0.2132 O   0  0  0  0  0  0  0  0  0  0  0  0
    6.2910   -1.8095   -0.5314 C   0  0  0  0  0  0  0  0  0  0  0  0
    5.9678   -0.3203   -0.7763 C   0  0  0  0  0  0  0  0  0  0  0  0
    4.5816    1.8061   -3.0932 N   0  0  0  0  0  0  0  0  0  0  0  0
    3.3481    4.7935   -3.9820 H   0  0  0  0  0  0  0  0  0  0  0  0
    3.9142    3.5590   -5.1237 H   0  0  0  0  0  0  0  0  0  0  0  0
    5.0641    4.3557   -4.0114 H   0  0  0  0  0  0  0  0  0  0  0  0
    1.4212    1.6878    0.3387 H   0  0  0  0  0  0  0  0  0  0  0  0
   -0.2329    3.5395    1.7445 H   0  0  0  0  0  0  0  0  0  0  0  0
   -1.5702    5.0908    2.8750 H   0  0  0  0  0  0  0  0  0  0  0  0
   -3.0807    6.6665    3.9679 H   0  0  0  0  0  0  0  0  0  0  0  0
   -4.6778    8.5520    3.6317 H   0  0  0  0  0  0  0  0  0  0  0  0
   -4.4928    9.6623    2.2781 H   0  0  0  0  0  0  0  0  0  0  0  0
   -3.1176    9.7932    4.9019 H   0  0  0  0  0  0  0  0  0  0  0  0
   -0.9801   12.8575    3.1642 H   0  0  0  0  0  0  0  0  0  0  0  0
   -0.3286   12.5884    4.7616 H   0  0  0  0  0  0  0  0  0  0  0  0
   -0.0104   14.5134    6.0451 H   0  0  0  0  0  0  0  0  0  0  0  0
   -0.4872   16.8848    6.5160 H   0  0  0  0  0  0  0  0  0  0  0  0
   -2.3581   18.0356    5.3645 H   0  0  0  0  0  0  0  0  0  0  0  0
   -3.7770   16.7879    3.7584 H   0  0  0  0  0  0  0  0  0  0  0  0
   -3.3132   14.4084    3.2681 H   0  0  0  0  0  0  0  0  0  0  0  0
   -2.5830    9.4313    0.6945 H   0  0  0  0  0  0  0  0  0  0  0  0
   -1.0730    7.8460   -0.4071 H   0  0  0  0  0  0  0  0  0  0  0  0
    1.6404    4.6750   -1.8176 H   0  0  0  0  0  0  0  0  0  0  0  0
    3.2106    0.3639   -0.3924 H   0  0  0  0  0  0  0  0  0  0  0  0
    6.7373   -0.1414   -3.4061 H   0  0  0  0  0  0  0  0  0  0  0  0
    5.1890   -0.7064   -4.0641 H   0  0  0  0  0  0  0  0  0  0  0  0
    6.7672   -2.6383   -3.7737 H   0  0  0  0  0  0  0  0  0  0  0  0
    5.2987   -2.8031   -2.8393 H   0  0  0  0  0  0  0  0  0  0  0  0
    8.4607   -0.9619   -2.0615 H   0  0  0  0  0  0  0  0  0  0  0  0
    8.8314   -2.5877   -2.6440 H   0  0  0  0  0  0  0  0  0  0  0  0
    8.9717   -1.7013    0.2859 H   0  0  0  0  0  0  0  0  0  0  0  0
   10.3206   -2.0411   -0.7970 H   0  0  0  0  0  0  0  0  0  0  0  0
    8.2959   -3.9424   -0.3383 H   0  0  0  0  0  0  0  0  0  0  0  0
    6.8326   -1.9233    0.4118 H   0  0  0  0  0  0  0  0  0  0  0  0
    5.3416   -2.3405   -0.3765 H   0  0  0  0  0  0  0  0  0  0  0  0
    6.8875    0.2688   -0.8898 H   0  0  0  0  0  0  0  0  0  0  0  0
    5.4504    0.0687    0.1076 H   0  0  0  0  0  0  0  0  0  0  0  0
  1  2  1  0  0  0  0
  1 41  1  0  0  0  0
  1 42  1  0  0  0  0
  1 43  1  0  0  0  0
  2  3  1  0  0  0  0
  2 40  2  0  0  0  0
  3  4  2  0  0  0  0
  4  5  1  0  0  0  0
  4 29  1  0  0  0  0
  5  6  1  0  0  0  0
  5 44  1  0  0  0  0
  6  7  2  0  0  0  0
  6 28  1  0  0  0  0
  7  8  1  0  0  0  0
  7 45  1  0  0  0  0
  8  9  1  0  0  0  0
  8 27  2  0  0  0  0
  9 10  1  0  0  0  0
  9 26  2  0  0  0  0
 10 11  2  0  0  0  0
 10 46  1  0  0  0  0
 11 12  1  0  0  0  0
 11 47  1  0  0  0  0
 12 13  1  0  0  0  0
 12 25  2  0  0  0  0
 13 14  1  0  0  0  0
 13 48  1  0  0  0  0
 13 49  1  0  0  0  0
 14 15  1  0  0  0  0
 14 50  1  0  0  0  0
 15 16  2  0  0  0  0
 15 17  1  0  0  0  0
 17 18  1  0  0  0  0
 18 19  1  0  0  0  0
 18 51  1  0  0  0  0
 18 52  1  0  0  0  0
 19 20  1  0  0  0  0
 19 24  2  0  0  0  0
 20 21  2  0  0  0  0
 20 53  1  0  0  0  0
 21 22  1  0  0  0  0
 21 54  1  0  0  0  0
 22 23  2  0  0  0  0
 22 55  1  0  0  0  0
 23 24  1  0  0  0  0
 23 56  1  0  0  0  0
 24 57  1  0  0  0  0
 25 26  1  0  0  0  0
 25 58  1  0  0  0  0
 26 59  1  0  0  0  0
 27 28  1  0  0  0  0
 28 60  1  0  0  0  0
 29 30  2  0  0  0  0
 29 61  1  0  0  0  0
 30 31  1  0  0  0  0
 30 40  1  0  0  0  0
 31 32  1  0  0  0  0
 31 39  1  0  0  0  0
 32 33  1  0  0  0  0
 32 62  1  0  0  0  0
 32 63  1  0  0  0  0
 33 34  1  0  0  0  0
 33 64  1  0  0  0  0
 33 65  1  0  0  0  0
 34 35  1  0  0  0  0
 34 38  1  0  0  0  0
 35 36  1  0  0  0  0
 35 66  1  0  0  0  0
 35 67  1  0  0  0  0
 36 37  1  0  0  0  0
 36 68  1  0  0  0  0
 36 69  1  0  0  0  0
 37 70  1  0  0  0  0
 38 39  1  0  0  0  0
 38 71  1  0  0  0  0
 38 72  1  0  0  0  0
 39 73  1  0  0  0  0
 39 74  1  0  0  0  0
M  END
$$$$
