CHEMBL241669
 OpenBabel04072215363D

 44 46  0  0  0  0  0  0  0  0999 V2000
    2.1201    0.0715   -0.0077 C   0  0  0  0  0  0  0  0  0  0  0  0
    0.6811   -0.0496    0.0057 N   0  0  0  0  0  0  0  0  0  0  0  0
   -0.1948    0.9970   -0.0306 C   0  0  0  0  0  0  0  0  0  0  0  0
   -1.4397    0.5814   -0.0937 N   0  0  0  0  0  0  0  0  0  0  0  0
   -1.3575   -0.7764   -0.0492 C   0  0  0  0  0  0  0  0  0  0  0  0
   -2.4501   -1.5557   -0.0234 N   0  0  0  0  0  0  0  0  0  0  0  0
   -3.7126   -1.1277   -0.5851 C   0  0  0  0  0  0  0  0  0  0  0  0
   -4.8048   -1.1265    0.4502 C   0  0  0  0  0  0  0  0  0  0  0  0
   -4.7479   -0.2484    1.5365 C   0  0  0  0  0  0  0  0  0  0  0  0
   -5.8055   -0.2258    2.4310 C   0  0  0  0  0  0  0  0  0  0  0  0
   -6.9007   -1.0085    2.3201 N   0  0  0  0  0  0  0  0  0  0  0  0
   -6.9361   -1.8524    1.2677 C   0  0  0  0  0  0  0  0  0  0  0  0
   -5.9282   -1.9489    0.3202 C   0  0  0  0  0  0  0  0  0  0  0  0
   -0.0524   -1.2185   -0.0249 C   0  0  0  0  0  0  0  0  0  0  0  0
    0.4939   -2.5550   -0.0415 C   0  0  0  0  0  0  0  0  0  0  0  0
    1.5942   -2.8025    0.4407 O   0  0  0  0  0  0  0  0  0  0  0  0
   -0.3051   -3.4754   -0.7134 N   0  0  0  0  0  0  0  0  0  0  0  0
   -0.0645   -4.8585   -0.8339 C   0  0  0  0  0  0  0  0  0  0  0  0
    0.8218   -5.5437    0.0013 C   0  0  0  0  0  0  0  0  0  0  0  0
    1.0824   -6.8958   -0.1937 C   0  0  0  0  0  0  0  0  0  0  0  0
    0.4385   -7.5964   -1.2155 C   0  0  0  0  0  0  0  0  0  0  0  0
   -0.5222   -6.9612   -1.9923 C   0  0  0  0  0  0  0  0  0  0  0  0
   -1.2622   -7.5508   -2.9774 O   0  0  0  0  0  0  0  0  0  0  0  0
   -1.5195   -8.9506   -2.9268 C   0  0  0  0  0  0  0  0  0  0  0  0
   -1.2340   -9.5290   -1.7415 F   0  0  0  0  0  0  0  0  0  0  0  0
   -2.8358   -9.1485   -3.1662 F   0  0  0  0  0  0  0  0  0  0  0  0
   -0.8186   -9.5757   -3.8978 F   0  0  0  0  0  0  0  0  0  0  0  0
   -0.7554   -5.5855   -1.8154 C   0  0  0  0  0  0  0  0  0  0  0  0
    2.3952    1.1272   -0.0781 H   0  0  0  0  0  0  0  0  0  0  0  0
    2.5078   -0.4612   -0.8796 H   0  0  0  0  0  0  0  0  0  0  0  0
    2.5187   -0.3485    0.9187 H   0  0  0  0  0  0  0  0  0  0  0  0
    0.1241    2.0320   -0.0161 H   0  0  0  0  0  0  0  0  0  0  0  0
   -2.4381   -2.4856    0.3823 H   0  0  0  0  0  0  0  0  0  0  0  0
   -3.9631   -1.8348   -1.3848 H   0  0  0  0  0  0  0  0  0  0  0  0
   -3.6610   -0.1408   -1.0590 H   0  0  0  0  0  0  0  0  0  0  0  0
   -3.8967    0.4130    1.6724 H   0  0  0  0  0  0  0  0  0  0  0  0
   -5.8019    0.4495    3.2814 H   0  0  0  0  0  0  0  0  0  0  0  0
   -7.8307   -2.4650    1.1976 H   0  0  0  0  0  0  0  0  0  0  0  0
   -6.0328   -2.6430   -0.5070 H   0  0  0  0  0  0  0  0  0  0  0  0
   -1.0586   -3.0766   -1.2582 H   0  0  0  0  0  0  0  0  0  0  0  0
    1.3244   -5.0418    0.8256 H   0  0  0  0  0  0  0  0  0  0  0  0
    1.7918   -7.4043    0.4515 H   0  0  0  0  0  0  0  0  0  0  0  0
    0.7174   -8.6363   -1.3634 H   0  0  0  0  0  0  0  0  0  0  0  0
   -1.4669   -5.0872   -2.4663 H   0  0  0  0  0  0  0  0  0  0  0  0
  1  2  1  0  0  0  0
  1 29  1  0  0  0  0
  1 30  1  0  0  0  0
  1 31  1  0  0  0  0
  2  3  1  0  0  0  0
  2 14  1  0  0  0  0
  3  4  2  0  0  0  0
  3 32  1  0  0  0  0
  4  5  1  0  0  0  0
  5  6  1  0  0  0  0
  5 14  2  0  0  0  0
  6  7  1  0  0  0  0
  6 33  1  0  0  0  0
  7  8  1  0  0  0  0
  7 34  1  0  0  0  0
  7 35  1  0  0  0  0
  8  9  1  0  0  0  0
  8 13  2  0  0  0  0
  9 10  2  0  0  0  0
  9 36  1  0  0  0  0
 10 11  1  0  0  0  0
 10 37  1  0  0  0  0
 11 12  2  0  0  0  0
 12 13  1  0  0  0  0
 12 38  1  0  0  0  0
 13 39  1  0  0  0  0
 14 15  1  0  0  0  0
 15 16  2  0  0  0  0
 15 17  1  0  0  0  0
 17 18  1  0  0  0  0
 17 40  1  0  0  0  0
 18 19  1  0  0  0  0
 18 28  2  0  0  0  0
 19 20  2  0  0  0  0
 19 41  1  0  0  0  0
 20 21  1  0  0  0  0
 20 42  1  0  0  0  0
 21 22  2  0  0  0  0
 21 43  1  0  0  0  0
 22 23  1  0  0  0  0
 22 28  1  0  0  0  0
 23 24  1  0  0  0  0
 24 25  1  0  0  0  0
 24 26  1  0  0  0  0
 24 27  1  0  0  0  0
 28 44  1  0  0  0  0
M  END
$$$$
