CHEMBL2016913
 OpenBabel04072215363D

 56 60  0  0  0  0  0  0  0  0999 V2000
   -2.5425    1.8958   -2.9932 C   0  0  0  0  0  0  0  0  0  0  0  0
   -3.4853    1.2003   -2.1274 N   0  0  0  0  0  0  0  0  0  0  0  0
   -2.9582   -0.1099   -1.7044 C   0  0  0  0  0  0  0  0  0  0  0  0
   -3.9747   -0.8416   -0.7985 C   0  0  0  0  0  0  0  0  0  0  0  0
   -4.3458   -0.0889    0.4251 N   0  0  0  0  0  0  0  0  0  0  0  0
   -3.2083    0.0343    1.3664 C   0  0  0  0  0  0  0  0  0  0  0  0
   -2.8487   -1.3215    2.0223 C   0  0  0  0  0  0  0  0  0  0  0  0
   -2.2818   -2.2046    1.3780 O   0  0  0  0  0  0  0  0  0  0  0  0
   -3.1808   -1.5026    3.3682 N   0  0  0  0  0  0  0  0  0  0  0  0
   -3.7396   -0.3978    4.1781 C   0  0  0  0  0  0  0  0  0  0  0  0
   -4.1555   -0.6005    5.6362 C   0  0  0  0  0  0  0  0  0  0  0  0
   -3.9457   -1.9749    6.0721 C   0  0  0  0  0  0  0  0  0  0  0  0
   -4.2921   -2.4443    7.2997 N   0  0  0  0  0  0  0  0  0  0  0  0
   -3.9524   -3.7221    7.2927 C   0  0  0  0  0  0  0  0  0  0  0  0
   -4.0909   -4.6917    8.3160 C   0  0  0  0  0  0  0  0  0  0  0  0
   -4.7477   -4.3411    9.4344 C   0  0  0  0  0  0  0  0  0  0  0  0
   -4.8415   -5.2509   10.5692 C   0  0  0  0  0  0  0  0  0  0  0  0
   -5.4794   -4.8887   11.7545 C   0  0  0  0  0  0  0  0  0  0  0  0
   -6.0835   -3.6954   11.8642 F   0  0  0  0  0  0  0  0  0  0  0  0
   -5.4874   -5.7468   12.8486 C   0  0  0  0  0  0  0  0  0  0  0  0
   -4.8605   -6.9924   12.7578 C   0  0  0  0  0  0  0  0  0  0  0  0
   -4.2411   -7.3795   11.5695 C   0  0  0  0  0  0  0  0  0  0  0  0
   -4.2320   -6.5066   10.4832 C   0  0  0  0  0  0  0  0  0  0  0  0
   -3.5989   -6.8830    9.2933 N   0  0  0  0  0  0  0  0  0  0  0  0
   -3.4991   -6.0660    8.1965 C   0  0  0  0  0  0  0  0  0  0  0  0
   -2.9446   -6.4551    7.1709 O   0  0  0  0  0  0  0  0  0  0  0  0
   -3.3781   -4.0636    6.0847 N   0  0  0  0  0  0  0  0  0  0  0  0
   -3.4059   -2.9545    5.2909 C   0  0  0  0  0  0  0  0  0  0  0  0
   -2.9741   -2.8588    3.8940 C   0  0  0  0  0  0  0  0  0  0  0  0
   -4.8112    1.2546   -0.0010 C   0  0  0  0  0  0  0  0  0  0  0  0
   -3.8446    2.0090   -0.9498 C   0  0  0  0  0  0  0  0  0  0  0  0
   -2.3181    1.2879   -3.8768 H   0  0  0  0  0  0  0  0  0  0  0  0
   -1.6003    2.1277   -2.4849 H   0  0  0  0  0  0  0  0  0  0  0  0
   -2.9803    2.8307   -3.3591 H   0  0  0  0  0  0  0  0  0  0  0  0
   -1.9989    0.0056   -1.1835 H   0  0  0  0  0  0  0  0  0  0  0  0
   -2.7661   -0.7353   -2.5833 H   0  0  0  0  0  0  0  0  0  0  0  0
   -3.6080   -1.8431   -0.5577 H   0  0  0  0  0  0  0  0  0  0  0  0
   -4.8918   -1.0188   -1.3785 H   0  0  0  0  0  0  0  0  0  0  0  0
   -3.4854    0.7699    2.1218 H   0  0  0  0  0  0  0  0  0  0  0  0
   -2.2986    0.4359    0.9148 H   0  0  0  0  0  0  0  0  0  0  0  0
   -4.6235   -0.0321    3.6429 H   0  0  0  0  0  0  0  0  0  0  0  0
   -2.9941    0.4086    4.1529 H   0  0  0  0  0  0  0  0  0  0  0  0
   -5.2123   -0.3326    5.7485 H   0  0  0  0  0  0  0  0  0  0  0  0
   -3.5931    0.0863    6.2799 H   0  0  0  0  0  0  0  0  0  0  0  0
   -5.1856   -3.3516    9.5453 H   0  0  0  0  0  0  0  0  0  0  0  0
   -5.9746   -5.4342   13.7670 H   0  0  0  0  0  0  0  0  0  0  0  0
   -4.8528   -7.6556   13.6186 H   0  0  0  0  0  0  0  0  0  0  0  0
   -3.7573   -8.3512   11.5093 H   0  0  0  0  0  0  0  0  0  0  0  0
   -3.1739   -7.7961    9.2064 H   0  0  0  0  0  0  0  0  0  0  0  0
   -3.0184   -4.9855    5.8553 H   0  0  0  0  0  0  0  0  0  0  0  0
   -3.5593   -3.5484    3.2731 H   0  0  0  0  0  0  0  0  0  0  0  0
   -1.9159   -3.1261    3.7856 H   0  0  0  0  0  0  0  0  0  0  0  0
   -5.0220    1.8764    0.8780 H   0  0  0  0  0  0  0  0  0  0  0  0
   -5.7785    1.1359   -0.5084 H   0  0  0  0  0  0  0  0  0  0  0  0
   -2.9456    2.3039   -0.3929 H   0  0  0  0  0  0  0  0  0  0  0  0
   -4.3375    2.9328   -1.2759 H   0  0  0  0  0  0  0  0  0  0  0  0
  1  2  1  0  0  0  0
  1 32  1  0  0  0  0
  1 33  1  0  0  0  0
  1 34  1  0  0  0  0
  2  3  1  0  0  0  0
  2 31  1  0  0  0  0
  3  4  1  0  0  0  0
  3 35  1  0  0  0  0
  3 36  1  0  0  0  0
  4  5  1  0  0  0  0
  4 37  1  0  0  0  0
  4 38  1  0  0  0  0
  5  6  1  0  0  0  0
  5 30  1  0  0  0  0
  6  7  1  0  0  0  0
  6 39  1  0  0  0  0
  6 40  1  0  0  0  0
  7  8  2  0  0  0  0
  7  9  1  0  0  0  0
  9 10  1  0  0  0  0
  9 29  1  0  0  0  0
 10 11  1  0  0  0  0
 10 41  1  0  0  0  0
 10 42  1  0  0  0  0
 11 12  1  0  0  0  0
 11 43  1  0  0  0  0
 11 44  1  0  0  0  0
 12 13  1  0  0  0  0
 12 28  2  0  0  0  0
 13 14  2  0  0  0  0
 14 15  1  0  0  0  0
 14 27  1  0  0  0  0
 15 16  2  0  0  0  0
 15 25  1  0  0  0  0
 16 17  1  0  0  0  0
 16 45  1  0  0  0  0
 17 18  1  0  0  0  0
 17 23  2  0  0  0  0
 18 19  1  0  0  0  0
 18 20  2  0  0  0  0
 20 21  1  0  0  0  0
 20 46  1  0  0  0  0
 21 22  2  0  0  0  0
 21 47  1  0  0  0  0
 22 23  1  0  0  0  0
 22 48  1  0  0  0  0
 23 24  1  0  0  0  0
 24 25  1  0  0  0  0
 24 49  1  0  0  0  0
 25 26  2  0  0  0  0
 27 28  1  0  0  0  0
 27 50  1  0  0  0  0
 28 29  1  0  0  0  0
 29 51  1  0  0  0  0
 29 52  1  0  0  0  0
 30 31  1  0  0  0  0
 30 53  1  0  0  0  0
 30 54  1  0  0  0  0
 31 55  1  0  0  0  0
 31 56  1  0  0  0  0
M  END
$$$$
