CHEMBL1980995
 OpenBabel04072215363D

 61 68  0  0  1  0  0  0  0  0999 V2000
    3.4269   -0.2962   -0.8870 C   0  0  0  0  0  0  0  0  0  0  0  0
    2.8482    0.3545    0.2879 N   0  0  0  0  0  0  0  0  0  0  0  0
    2.1746    1.6429   -0.0412 C   0  0  3  0  0  0  0  0  0  0  0  0
    1.2619    2.2070    1.2067 C   0  0  0  0  0  0  0  0  0  0  0  0
    1.0495    3.7764    1.3813 C   0  0  3  0  0  0  0  0  0  0  0  0
    2.3474    4.0338    0.9240 O   0  0  0  0  0  0  0  0  0  0  0  0
    2.3526    4.0298   -0.5216 C   0  0  3  0  0  0  0  0  0  0  0  0
    0.9991    3.8565   -1.4356 C   0  0  0  0  0  0  0  0  0  0  0  0
    3.0956    2.7244   -0.8248 C   0  0  3  0  0  0  0  0  0  0  0  0
    2.9594    2.4781   -2.2342 O   0  0  0  0  0  0  0  0  0  0  0  0
    4.0460    2.1582   -3.0599 C   0  0  0  0  0  0  0  0  0  0  0  0
    2.7807    5.3736   -0.6535 N   0  0  0  0  0  0  0  0  0  0  0  0
    3.9747    6.0874   -0.6245 C   0  0  0  0  0  0  0  0  0  0  0  0
    5.2871    5.6229   -0.4696 C   0  0  0  0  0  0  0  0  0  0  0  0
    6.3287    6.5524   -0.3887 C   0  0  0  0  0  0  0  0  0  0  0  0
    6.0959    7.9145   -0.5465 C   0  0  0  0  0  0  0  0  0  0  0  0
    4.7983    8.4074   -0.6939 C   0  0  0  0  0  0  0  0  0  0  0  0
    3.7033    7.5222   -0.6457 C   0  0  0  0  0  0  0  0  0  0  0  0
    2.3175    7.6786   -0.4094 C   0  0  0  0  0  0  0  0  0  0  0  0
    1.5870    8.8603   -0.1856 C   0  0  0  0  0  0  0  0  0  0  0  0
    0.2788    8.6461    0.3220 C   0  0  0  0  0  0  0  0  0  0  0  0
    0.0401    7.3106    0.7398 C   0  0  0  0  0  0  0  0  0  0  0  0
   -1.1912    6.7333    1.1322 C   0  0  0  0  0  0  0  0  0  0  0  0
   -2.4486    7.2510    1.5013 C   0  0  0  0  0  0  0  0  0  0  0  0
   -3.5878    6.5489    1.1220 C   0  0  0  0  0  0  0  0  0  0  0  0
   -3.4577    5.3944    0.3581 C   0  0  0  0  0  0  0  0  0  0  0  0
   -2.2254    4.7265    0.2461 C   0  0  0  0  0  0  0  0  0  0  0  0
   -1.0868    5.2954    0.8492 C   0  0  0  0  0  0  0  0  0  0  0  0
    0.2624    4.8896    0.8426 N   0  0  0  0  0  0  0  0  0  0  0  0
    0.7961    6.1394    0.5257 C   0  0  0  0  0  0  0  0  0  0  0  0
    1.9601    6.3649   -0.2030 C   0  0  0  0  0  0  0  0  0  0  0  0
   -0.4697    9.8546    0.1597 C   0  0  0  0  0  0  0  0  0  0  0  0
   -1.6410   10.1611    0.3370 O   0  0  0  0  0  0  0  0  0  0  0  0
    0.4637   10.7526   -0.3744 N   0  0  0  0  0  0  0  0  0  0  0  0
    1.8069   10.2387   -0.5966 C   0  0  0  0  0  0  0  0  0  0  0  0
    3.6188   -1.3554   -0.6902 H   0  0  0  0  0  0  0  0  0  0  0  0
    4.3891    0.1553   -1.1489 H   0  0  0  0  0  0  0  0  0  0  0  0
    2.7549   -0.2563   -1.7525 H   0  0  0  0  0  0  0  0  0  0  0  0
    3.5772    0.4835    0.9892 H   0  0  0  0  0  0  0  0  0  0  0  0
    1.4171    1.3161   -0.7609 H   0  0  0  0  0  0  0  0  0  0  0  0
    1.8900    1.9445    2.0834 H   0  0  0  0  0  0  0  0  0  0  0  0
    0.3465    1.6284    1.3357 H   0  0  0  0  0  0  0  0  0  0  0  0
    1.0149    3.9538    2.4674 H   0  0  0  0  0  0  0  0  0  0  0  0
    0.4185    2.9620   -1.1819 H   0  0  0  0  0  0  0  0  0  0  0  0
    1.2407    3.8123   -2.5007 H   0  0  0  0  0  0  0  0  0  0  0  0
    0.2710    4.6648   -1.4147 H   0  0  0  0  0  0  0  0  0  0  0  0
    4.1357    2.7172   -0.4741 H   0  0  0  0  0  0  0  0  0  0  0  0
    3.7566    2.4470   -4.0775 H   0  0  0  0  0  0  0  0  0  0  0  0
    4.1759    1.0769   -3.0864 H   0  0  0  0  0  0  0  0  0  0  0  0
    4.9712    2.6714   -2.7986 H   0  0  0  0  0  0  0  0  0  0  0  0
    5.4970    4.5704   -0.3012 H   0  0  0  0  0  0  0  0  0  0  0  0
    7.3385    6.2077   -0.1744 H   0  0  0  0  0  0  0  0  0  0  0  0
    6.9261    8.6139   -0.4954 H   0  0  0  0  0  0  0  0  0  0  0  0
    4.6372    9.4794   -0.7249 H   0  0  0  0  0  0  0  0  0  0  0  0
   -2.5430    8.2502    1.9195 H   0  0  0  0  0  0  0  0  0  0  0  0
   -4.5662    6.9895    1.2984 H   0  0  0  0  0  0  0  0  0  0  0  0
   -4.3253    5.0307   -0.1891 H   0  0  0  0  0  0  0  0  0  0  0  0
   -2.1315    3.8897   -0.4418 H   0  0  0  0  0  0  0  0  0  0  0  0
    0.1584   11.6686   -0.6703 H   0  0  0  0  0  0  0  0  0  0  0  0
    2.5068   10.7608    0.0571 H   0  0  0  0  0  0  0  0  0  0  0  0
    2.0731   10.3330   -1.6521 H   0  0  0  0  0  0  0  0  0  0  0  0
  1  2  1  0  0  0  0
  1 36  1  0  0  0  0
  1 37  1  0  0  0  0
  1 38  1  0  0  0  0
  2  3  1  0  0  0  0
  2 39  1  0  0  0  0
  3  4  1  0  0  0  0
  3  9  1  0  0  0  0
  3 40  1  0  0  0  0
  4  5  1  0  0  0  0
  4 41  1  0  0  0  0
  4 42  1  0  0  0  0
  5  6  1  0  0  0  0
  5 29  1  0  0  0  0
  5 43  1  0  0  0  0
  6  7  1  0  0  0  0
  7  8  1  0  0  0  0
  7  9  1  0  0  0  0
  7 12  1  0  0  0  0
  8 44  1  0  0  0  0
  8 45  1  0  0  0  0
  8 46  1  0  0  0  0
  9 10  1  0  0  0  0
  9 47  1  0  0  0  0
 10 11  1  0  0  0  0
 11 48  1  0  0  0  0
 11 49  1  0  0  0  0
 11 50  1  0  0  0  0
 12 13  1  0  0  0  0
 12 31  1  0  0  0  0
 13 14  1  0  0  0  0
 13 18  2  0  0  0  0
 14 15  2  0  0  0  0
 14 51  1  0  0  0  0
 15 16  1  0  0  0  0
 15 52  1  0  0  0  0
 16 17  2  0  0  0  0
 16 53  1  0  0  0  0
 17 18  1  0  0  0  0
 17 54  1  0  0  0  0
 18 19  1  0  0  0  0
 19 20  1  0  0  0  0
 19 31  2  0  0  0  0
 20 21  2  0  0  0  0
 20 35  1  0  0  0  0
 21 22  1  0  0  0  0
 21 32  1  0  0  0  0
 22 23  1  0  0  0  0
 22 30  2  0  0  0  0
 23 24  1  0  0  0  0
 23 28  2  0  0  0  0
 24 25  2  0  0  0  0
 24 55  1  0  0  0  0
 25 26  1  0  0  0  0
 25 56  1  0  0  0  0
 26 27  2  0  0  0  0
 26 57  1  0  0  0  0
 27 28  1  0  0  0  0
 27 58  1  0  0  0  0
 28 29  1  0  0  0  0
 29 30  1  0  0  0  0
 30 31  1  0  0  0  0
 32 33  2  0  0  0  0
 32 34  1  0  0  0  0
 34 35  1  0  0  0  0
 34 59  1  0  0  0  0
 35 60  1  0  0  0  0
 35 61  1  0  0  0  0
M  END
$$$$
