CHEMBL2386790
 OpenBabel04072215363D

 68 72  0  0  0  0  0  0  0  0999 V2000
   -6.3085    1.3566   -1.5129 C   0  0  0  0  0  0  0  0  0  0  0  0
   -5.3264    0.3274   -1.1437 C   0  0  0  0  0  0  0  0  0  0  0  0
   -4.3248    0.2355   -0.2088 C   0  0  0  0  0  0  0  0  0  0  0  0
   -3.8238   -1.0784   -0.3601 C   0  0  0  0  0  0  0  0  0  0  0  0
   -2.8445   -1.6394    0.4311 N   0  0  0  0  0  0  0  0  0  0  0  0
   -2.5717   -2.9734    0.5691 C   0  0  0  0  0  0  0  0  0  0  0  0
   -1.7354   -3.3273    1.3987 O   0  0  0  0  0  0  0  0  0  0  0  0
   -3.2887   -3.8187   -0.2328 N   0  0  0  0  0  0  0  0  0  0  0  0
   -3.2640   -5.2141   -0.1430 C   0  0  0  0  0  0  0  0  0  0  0  0
   -3.3967   -5.8350    1.0976 C   0  0  0  0  0  0  0  0  0  0  0  0
   -3.4281   -7.2283    1.1855 C   0  0  0  0  0  0  0  0  0  0  0  0
   -3.3114   -8.0162    0.0357 C   0  0  0  0  0  0  0  0  0  0  0  0
   -3.2781   -9.4840    0.1224 C   0  0  0  0  0  0  0  0  0  0  0  0
   -3.3902  -10.2786    1.2936 C   0  0  0  0  0  0  0  0  0  0  0  0
   -3.3017  -11.5839    0.8847 C   0  0  0  0  0  0  0  0  0  0  0  0
   -3.3714  -12.7427    1.6467 N   0  0  0  0  0  0  0  0  0  0  0  0
   -3.5837  -12.7293    3.0693 C   0  0  0  0  0  0  0  0  0  0  0  0
   -3.7027  -11.6874    3.6927 O   0  0  0  0  0  0  0  0  0  0  0  0
   -3.5886  -14.0349    3.7610 C   0  0  0  0  0  0  0  0  0  0  0  0
   -3.1256  -14.0663    5.0757 C   0  0  0  0  0  0  0  0  0  0  0  0
   -3.0895  -15.2745    5.7692 C   0  0  0  0  0  0  0  0  0  0  0  0
   -3.5315  -16.4747    5.1905 C   0  0  0  0  0  0  0  0  0  0  0  0
   -3.5238  -17.6276    5.9482 N   0  0  0  0  0  0  0  0  0  0  0  0
   -4.4383  -18.7469    5.6807 C   0  0  0  0  0  0  0  0  0  0  0  0
   -4.7354  -19.4860    7.0110 C   0  0  0  0  0  0  0  0  0  0  0  0
   -3.5053  -19.9595    7.6858 N   0  0  0  0  0  0  0  0  0  0  0  0
   -3.8342  -20.6134    8.9506 C   0  0  0  0  0  0  0  0  0  0  0  0
   -2.6026  -18.8080    7.9168 C   0  0  0  0  0  0  0  0  0  0  0  0
   -2.2715  -18.0450    6.6121 C   0  0  0  0  0  0  0  0  0  0  0  0
   -4.0297  -16.4103    3.8816 C   0  0  0  0  0  0  0  0  0  0  0  0
   -4.0555  -15.2060    3.1609 C   0  0  0  0  0  0  0  0  0  0  0  0
   -3.1130  -11.5133   -0.4680 N   0  0  0  0  0  0  0  0  0  0  0  0
   -3.1185  -10.2672   -0.9547 N   0  0  0  0  0  0  0  0  0  0  0  0
   -3.2006   -7.3794   -1.2128 C   0  0  0  0  0  0  0  0  0  0  0  0
   -3.1836   -5.9776   -1.3155 C   0  0  0  0  0  0  0  0  0  0  0  0
   -2.9882   -5.3419   -2.6622 C   0  0  0  0  0  0  0  0  0  0  0  0
   -4.4494   -1.7112   -1.3596 N   0  0  0  0  0  0  0  0  0  0  0  0
   -5.3891   -0.8298   -1.8456 O   0  0  0  0  0  0  0  0  0  0  0  0
   -6.2311    2.2299   -0.8640 H   0  0  0  0  0  0  0  0  0  0  0  0
   -7.3250    0.9573   -1.4349 H   0  0  0  0  0  0  0  0  0  0  0  0
   -6.1469    1.6774   -2.5501 H   0  0  0  0  0  0  0  0  0  0  0  0
   -4.0397    0.9841    0.5155 H   0  0  0  0  0  0  0  0  0  0  0  0
   -2.3541   -1.0485    1.0867 H   0  0  0  0  0  0  0  0  0  0  0  0
   -3.5967   -3.4056   -1.1072 H   0  0  0  0  0  0  0  0  0  0  0  0
   -3.5096   -5.2457    2.0019 H   0  0  0  0  0  0  0  0  0  0  0  0
   -3.5397   -7.6664    2.1737 H   0  0  0  0  0  0  0  0  0  0  0  0
   -3.5106   -9.9084    2.2996 H   0  0  0  0  0  0  0  0  0  0  0  0
   -3.2263  -13.6295    1.1791 H   0  0  0  0  0  0  0  0  0  0  0  0
   -2.7994  -13.1568    5.5796 H   0  0  0  0  0  0  0  0  0  0  0  0
   -2.7548  -15.2636    6.8054 H   0  0  0  0  0  0  0  0  0  0  0  0
   -3.9944  -19.4369    4.9533 H   0  0  0  0  0  0  0  0  0  0  0  0
   -5.3932  -18.3903    5.2755 H   0  0  0  0  0  0  0  0  0  0  0  0
   -5.3918  -20.3373    6.7953 H   0  0  0  0  0  0  0  0  0  0  0  0
   -5.2877  -18.8033    7.6720 H   0  0  0  0  0  0  0  0  0  0  0  0
   -4.4795  -21.4805    8.7751 H   0  0  0  0  0  0  0  0  0  0  0  0
   -4.3435  -19.9397    9.6492 H   0  0  0  0  0  0  0  0  0  0  0  0
   -2.9254  -20.9885    9.4344 H   0  0  0  0  0  0  0  0  0  0  0  0
   -1.6628  -19.1594    8.3597 H   0  0  0  0  0  0  0  0  0  0  0  0
   -3.0581  -18.1039    8.6261 H   0  0  0  0  0  0  0  0  0  0  0  0
   -1.7000  -18.6945    5.9356 H   0  0  0  0  0  0  0  0  0  0  0  0
   -1.6227  -17.1984    6.8620 H   0  0  0  0  0  0  0  0  0  0  0  0
   -4.4024  -17.3102    3.3977 H   0  0  0  0  0  0  0  0  0  0  0  0
   -4.4796  -15.2111    2.1615 H   0  0  0  0  0  0  0  0  0  0  0  0
   -2.9804  -12.2709   -1.1273 H   0  0  0  0  0  0  0  0  0  0  0  0
   -3.1067   -7.9790   -2.1124 H   0  0  0  0  0  0  0  0  0  0  0  0
   -2.7279   -6.0841   -3.4253 H   0  0  0  0  0  0  0  0  0  0  0  0
   -2.1618   -4.6237   -2.6247 H   0  0  0  0  0  0  0  0  0  0  0  0
   -3.9015   -4.8282   -2.9825 H   0  0  0  0  0  0  0  0  0  0  0  0
  1  2  1  0  0  0  0
  1 39  1  0  0  0  0
  1 40  1  0  0  0  0
  1 41  1  0  0  0  0
  2  3  2  0  0  0  0
  2 38  1  0  0  0  0
  3  4  1  0  0  0  0
  3 42  1  0  0  0  0
  4  5  1  0  0  0  0
  4 37  2  0  0  0  0
  5  6  1  0  0  0  0
  5 43  1  0  0  0  0
  6  7  2  0  0  0  0
  6  8  1  0  0  0  0
  8  9  1  0  0  0  0
  8 44  1  0  0  0  0
  9 10  1  0  0  0  0
  9 35  2  0  0  0  0
 10 11  2  0  0  0  0
 10 45  1  0  0  0  0
 11 12  1  0  0  0  0
 11 46  1  0  0  0  0
 12 13  1  0  0  0  0
 12 34  2  0  0  0  0
 13 14  1  0  0  0  0
 13 33  2  0  0  0  0
 14 15  2  0  0  0  0
 14 47  1  0  0  0  0
 15 16  1  0  0  0  0
 15 32  1  0  0  0  0
 16 17  1  0  0  0  0
 16 48  1  0  0  0  0
 17 18  2  0  0  0  0
 17 19  1  0  0  0  0
 19 20  1  0  0  0  0
 19 31  2  0  0  0  0
 20 21  2  0  0  0  0
 20 49  1  0  0  0  0
 21 22  1  0  0  0  0
 21 50  1  0  0  0  0
 22 23  1  0  0  0  0
 22 30  2  0  0  0  0
 23 24  1  0  0  0  0
 23 29  1  0  0  0  0
 24 25  1  0  0  0  0
 24 51  1  0  0  0  0
 24 52  1  0  0  0  0
 25 26  1  0  0  0  0
 25 53  1  0  0  0  0
 25 54  1  0  0  0  0
 26 27  1  0  0  0  0
 26 28  1  0  0  0  0
 27 55  1  0  0  0  0
 27 56  1  0  0  0  0
 27 57  1  0  0  0  0
 28 29  1  0  0  0  0
 28 58  1  0  0  0  0
 28 59  1  0  0  0  0
 29 60  1  0  0  0  0
 29 61  1  0  0  0  0
 30 31  1  0  0  0  0
 30 62  1  0  0  0  0
 31 63  1  0  0  0  0
 32 33  1  0  0  0  0
 32 64  1  0  0  0  0
 34 35  1  0  0  0  0
 34 65  1  0  0  0  0
 35 36  1  0  0  0  0
 36 66  1  0  0  0  0
 36 67  1  0  0  0  0
 36 68  1  0  0  0  0
 37 38  1  0  0  0  0
M  END
$$$$
