CHEMBL367442
 OpenBabel04072215373D

 40 43  0  0  0  0  0  0  0  0999 V2000
    1.1697    0.3471    0.1189 N   0  0  0  0  0  0  0  0  0  0  0  0
    2.5449    0.1578    0.0897 C   0  0  0  0  0  0  0  0  0  0  0  0
    3.2739    1.2890    0.1272 N   0  0  0  0  0  0  0  0  0  0  0  0
    4.6111    1.1873    0.1260 C   0  0  0  0  0  0  0  0  0  0  0  0
    5.3426    0.0725    0.1124 N   0  0  0  0  0  0  0  0  0  0  0  0
    4.5924   -1.0496    0.0686 C   0  0  0  0  0  0  0  0  0  0  0  0
    3.1966   -1.0919    0.0312 C   0  0  0  0  0  0  0  0  0  0  0  0
    2.8228   -2.4759   -0.0692 C   0  0  0  0  0  0  0  0  0  0  0  0
    1.5179   -3.1352   -0.1516 C   0  0  0  0  0  0  0  0  0  0  0  0
    0.4502   -2.5412   -0.8352 C   0  0  0  0  0  0  0  0  0  0  0  0
   -0.8081   -3.1473   -0.8743 C   0  0  0  0  0  0  0  0  0  0  0  0
   -1.0039   -4.3906   -0.2807 C   0  0  0  0  0  0  0  0  0  0  0  0
    0.0573   -5.0216    0.3611 C   0  0  0  0  0  0  0  0  0  0  0  0
    1.3044   -4.3939    0.4375 C   0  0  0  0  0  0  0  0  0  0  0  0
    4.0027   -3.1974   -0.1196 C   0  0  0  0  0  0  0  0  0  0  0  0
    5.0839   -2.3443   -0.0189 N   0  0  0  0  0  0  0  0  0  0  0  0
    6.4561   -2.7527   -0.0320 C   0  0  0  0  0  0  0  0  0  0  0  0
    6.8291   -3.9356   -0.6869 C   0  0  0  0  0  0  0  0  0  0  0  0
    8.1746   -4.3232   -0.7324 C   0  0  0  0  0  0  0  0  0  0  0  0
    9.1612   -3.5526   -0.1071 C   0  0  0  0  0  0  0  0  0  0  0  0
   10.6066   -3.9768   -0.1305 C   0  0  0  0  0  0  0  0  0  0  0  0
   11.4156   -2.9774   -0.7350 O   0  0  0  0  0  0  0  0  0  0  0  0
    8.7797   -2.3861    0.5646 C   0  0  0  0  0  0  0  0  0  0  0  0
    7.4404   -1.9828    0.5941 C   0  0  0  0  0  0  0  0  0  0  0  0
    0.9620    1.3068    0.3687 H   0  0  0  0  0  0  0  0  0  0  0  0
    0.6755   -0.3578    0.6537 H   0  0  0  0  0  0  0  0  0  0  0  0
    5.1611    2.1224    0.1409 H   0  0  0  0  0  0  0  0  0  0  0  0
    0.5812   -1.5965   -1.3593 H   0  0  0  0  0  0  0  0  0  0  0  0
   -1.6318   -2.6494   -1.3810 H   0  0  0  0  0  0  0  0  0  0  0  0
   -1.9792   -4.8700   -0.3272 H   0  0  0  0  0  0  0  0  0  0  0  0
   -0.0844   -6.0038    0.8067 H   0  0  0  0  0  0  0  0  0  0  0  0
    2.1054   -4.9034    0.9658 H   0  0  0  0  0  0  0  0  0  0  0  0
    4.1555   -4.2675   -0.1840 H   0  0  0  0  0  0  0  0  0  0  0  0
    6.1051   -4.5492   -1.2152 H   0  0  0  0  0  0  0  0  0  0  0  0
    8.4425   -5.2294   -1.2717 H   0  0  0  0  0  0  0  0  0  0  0  0
   10.7393   -4.9015   -0.7008 H   0  0  0  0  0  0  0  0  0  0  0  0
   10.9645   -4.1550    0.8883 H   0  0  0  0  0  0  0  0  0  0  0  0
   10.9307   -2.6524   -1.5134 H   0  0  0  0  0  0  0  0  0  0  0  0
    9.5296   -1.7794    1.0718 H   0  0  0  0  0  0  0  0  0  0  0  0
    7.1932   -1.0818    1.1523 H   0  0  0  0  0  0  0  0  0  0  0  0
  1  2  1  0  0  0  0
  1 25  1  0  0  0  0
  1 26  1  0  0  0  0
  2  3  1  0  0  0  0
  2  7  2  0  0  0  0
  3  4  2  0  0  0  0
  4  5  1  0  0  0  0
  4 27  1  0  0  0  0
  5  6  2  0  0  0  0
  6  7  1  0  0  0  0
  6 16  1  0  0  0  0
  7  8  1  0  0  0  0
  8  9  1  0  0  0  0
  8 15  2  0  0  0  0
  9 10  1  0  0  0  0
  9 14  2  0  0  0  0
 10 11  2  0  0  0  0
 10 28  1  0  0  0  0
 11 12  1  0  0  0  0
 11 29  1  0  0  0  0
 12 13  2  0  0  0  0
 12 30  1  0  0  0  0
 13 14  1  0  0  0  0
 13 31  1  0  0  0  0
 14 32  1  0  0  0  0
 15 16  1  0  0  0  0
 15 33  1  0  0  0  0
 16 17  1  0  0  0  0
 17 18  1  0  0  0  0
 17 24  2  0  0  0  0
 18 19  2  0  0  0  0
 18 34  1  0  0  0  0
 19 20  1  0  0  0  0
 19 35  1  0  0  0  0
 20 21  1  0  0  0  0
 20 23  2  0  0  0  0
 21 22  1  0  0  0  0
 21 36  1  0  0  0  0
 21 37  1  0  0  0  0
 22 38  1  0  0  0  0
 23 24  1  0  0  0  0
 23 39  1  0  0  0  0
 24 40  1  0  0  0  0
M  END
$$$$
