CHEMBL179450
 OpenBabel04072215363D

 56 59  0  0  1  0  0  0  0  0999 V2000
    5.1710    1.4546    0.4520 C   0  0  0  0  0  0  0  0  0  0  0  0
    4.0334    0.8794   -0.1913 O   0  0  0  0  0  0  0  0  0  0  0  0
    4.2817   -0.2042   -0.9874 C   0  0  0  0  0  0  0  0  0  0  0  0
    5.4036   -1.0303   -0.7999 C   0  0  0  0  0  0  0  0  0  0  0  0
    5.7177   -2.0865   -1.6435 C   0  0  0  0  0  0  0  0  0  0  0  0
    6.8750   -2.7311   -1.4296 N   0  0  0  0  0  0  0  0  0  0  0  0
    7.2314   -3.7153   -2.2766 C   0  0  0  0  0  0  0  0  0  0  0  0
    6.4858   -4.0765   -3.3763 C   0  0  0  0  0  0  0  0  0  0  0  0
    5.2876   -3.4032   -3.6103 C   0  0  0  0  0  0  0  0  0  0  0  0
    4.6535   -3.8222   -4.7696 O   0  0  0  0  0  0  0  0  0  0  0  0
    3.9090   -2.9506   -5.5263 C   0  0  0  0  0  0  0  0  0  0  0  0
    4.1925   -1.5956   -5.6810 C   0  0  0  0  0  0  0  0  0  0  0  0
    3.2350   -0.7452   -6.2451 C   0  0  0  0  0  0  0  0  0  0  0  0
    2.0308   -1.2407   -6.7593 C   0  0  0  0  0  0  0  0  0  0  0  0
    1.0701   -0.4429   -7.3644 N   0  0  0  0  0  0  0  0  0  0  0  0
    1.3616    0.8347   -7.9406 C   0  0  3  0  0  0  0  0  0  0  0  0
    0.8494    0.7905   -9.2768 N   0  0  0  0  0  0  0  0  0  0  0  0
    1.2024    1.7961  -10.1941 C   0  0  0  0  0  0  0  0  0  0  0  0
    1.5183    2.6467  -10.9165 N   0  0  0  0  0  0  0  0  0  0  0  0
    0.7424    1.8768   -7.1496 N   0  0  0  0  0  0  0  0  0  0  0  0
    1.2267    3.2186   -7.0260 C   0  0  0  0  0  0  0  0  0  0  0  0
    2.4404    3.6441   -7.5811 C   0  0  0  0  0  0  0  0  0  0  0  0
    2.8510    4.9736   -7.4488 C   0  0  0  0  0  0  0  0  0  0  0  0
    2.0508    5.8764   -6.7652 C   0  0  0  0  0  0  0  0  0  0  0  0
    2.4457    7.1483   -6.6445 F   0  0  0  0  0  0  0  0  0  0  0  0
    0.8454    5.4717   -6.2050 C   0  0  0  0  0  0  0  0  0  0  0  0
    0.4337    4.1400   -6.3302 C   0  0  0  0  0  0  0  0  0  0  0  0
    1.8378   -2.6296   -6.7342 C   0  0  0  0  0  0  0  0  0  0  0  0
    2.7666   -3.4792   -6.1218 C   0  0  0  0  0  0  0  0  0  0  0  0
    4.8402   -2.4107   -2.6904 C   0  0  0  0  0  0  0  0  0  0  0  0
    3.6192   -1.6921   -2.7481 C   0  0  0  0  0  0  0  0  0  0  0  0
    3.3734   -0.5401   -1.9930 C   0  0  0  0  0  0  0  0  0  0  0  0
    2.2615    0.1178   -2.4346 O   0  0  0  0  0  0  0  0  0  0  0  0
    1.9504    1.4232   -1.9758 C   0  0  0  0  0  0  0  0  0  0  0  0
    4.8776    2.4279    0.8556 H   0  0  0  0  0  0  0  0  0  0  0  0
    5.9905    1.6232   -0.2575 H   0  0  0  0  0  0  0  0  0  0  0  0
    5.4994    0.8329    1.2912 H   0  0  0  0  0  0  0  0  0  0  0  0
    6.1016   -0.8462    0.0133 H   0  0  0  0  0  0  0  0  0  0  0  0
    8.1724   -4.2073   -2.0459 H   0  0  0  0  0  0  0  0  0  0  0  0
    6.8356   -4.8562   -4.0437 H   0  0  0  0  0  0  0  0  0  0  0  0
    5.0982   -1.1667   -5.2582 H   0  0  0  0  0  0  0  0  0  0  0  0
    3.4355    0.3208   -6.1805 H   0  0  0  0  0  0  0  0  0  0  0  0
    0.1079   -0.7307   -7.2104 H   0  0  0  0  0  0  0  0  0  0  0  0
    2.4422    0.9889   -7.9983 H   0  0  0  0  0  0  0  0  0  0  0  0
    0.6154   -0.1121   -9.6720 H   0  0  0  0  0  0  0  0  0  0  0  0
   -0.0225    1.6033   -6.5455 H   0  0  0  0  0  0  0  0  0  0  0  0
    3.1107    2.9815   -8.1171 H   0  0  0  0  0  0  0  0  0  0  0  0
    3.7920    5.3119   -7.8773 H   0  0  0  0  0  0  0  0  0  0  0  0
    0.2340    6.2020   -5.6799 H   0  0  0  0  0  0  0  0  0  0  0  0
   -0.5197    3.8523   -5.8946 H   0  0  0  0  0  0  0  0  0  0  0  0
    0.9523   -3.0793   -7.1786 H   0  0  0  0  0  0  0  0  0  0  0  0
    2.5776   -4.5495   -6.0735 H   0  0  0  0  0  0  0  0  0  0  0  0
    2.8489   -1.9847   -3.4555 H   0  0  0  0  0  0  0  0  0  0  0  0
    1.4571    1.9466   -2.8038 H   0  0  0  0  0  0  0  0  0  0  0  0
    2.8124    2.0369   -1.7112 H   0  0  0  0  0  0  0  0  0  0  0  0
    1.2327    1.3530   -1.1553 H   0  0  0  0  0  0  0  0  0  0  0  0
  1  2  1  0  0  0  0
  1 35  1  0  0  0  0
  1 36  1  0  0  0  0
  1 37  1  0  0  0  0
  2  3  1  0  0  0  0
  3  4  1  0  0  0  0
  3 32  2  0  0  0  0
  4  5  2  0  0  0  0
  4 38  1  0  0  0  0
  5  6  1  0  0  0  0
  5 30  1  0  0  0  0
  6  7  2  0  0  0  0
  7  8  1  0  0  0  0
  7 39  1  0  0  0  0
  8  9  2  0  0  0  0
  8 40  1  0  0  0  0
  9 10  1  0  0  0  0
  9 30  1  0  0  0  0
 10 11  1  0  0  0  0
 11 12  1  0  0  0  0
 11 29  2  0  0  0  0
 12 13  2  0  0  0  0
 12 41  1  0  0  0  0
 13 14  1  0  0  0  0
 13 42  1  0  0  0  0
 14 15  1  0  0  0  0
 14 28  2  0  0  0  0
 15 16  1  0  0  0  0
 15 43  1  0  0  0  0
 16 17  1  0  0  0  0
 16 20  1  0  0  0  0
 16 44  1  0  0  0  0
 17 18  1  0  0  0  0
 17 45  1  0  0  0  0
 18 19  3  0  0  0  0
 20 21  1  0  0  0  0
 20 46  1  0  0  0  0
 21 22  1  0  0  0  0
 21 27  2  0  0  0  0
 22 23  2  0  0  0  0
 22 47  1  0  0  0  0
 23 24  1  0  0  0  0
 23 48  1  0  0  0  0
 24 25  1  0  0  0  0
 24 26  2  0  0  0  0
 26 27  1  0  0  0  0
 26 49  1  0  0  0  0
 27 50  1  0  0  0  0
 28 29  1  0  0  0  0
 28 51  1  0  0  0  0
 29 52  1  0  0  0  0
 30 31  2  0  0  0  0
 31 32  1  0  0  0  0
 31 53  1  0  0  0  0
 32 33  1  0  0  0  0
 33 34  1  0  0  0  0
 34 54  1  0  0  0  0
 34 55  1  0  0  0  0
 34 56  1  0  0  0  0
M  END
$$$$
