CHEMBL469038
 OpenBabel04072215383D

 46 50  0  0  0  0  0  0  0  0999 V2000
    3.2129    0.7906    0.4943 O   0  0  0  0  0  0  0  0  0  0  0  0
    2.5228    0.1534   -0.2801 C   0  0  0  0  0  0  0  0  0  0  0  0
    2.9767   -1.2155   -0.7547 C   0  0  0  0  0  0  0  0  0  0  0  0
    2.6420   -1.5786   -2.0607 C   0  0  0  0  0  0  0  0  0  0  0  0
    3.3142   -2.6271   -2.6828 C   0  0  0  0  0  0  0  0  0  0  0  0
    4.3270   -3.2907   -2.0005 C   0  0  0  0  0  0  0  0  0  0  0  0
    4.6112   -2.9627   -0.6722 C   0  0  0  0  0  0  0  0  0  0  0  0
    3.9197   -1.9459   -0.0007 C   0  0  0  0  0  0  0  0  0  0  0  0
    4.1730   -1.6632    1.3356 N   0  0  0  0  0  0  0  0  0  0  0  0
    5.3995   -2.0296    2.0206 C   0  0  0  0  0  0  0  0  0  0  0  0
    5.6100   -1.1889    3.2678 C   0  0  0  0  0  0  0  0  0  0  0  0
    6.2926   -1.7361    4.3676 C   0  0  0  0  0  0  0  0  0  0  0  0
    6.5444   -0.9841    5.5271 C   0  0  0  0  0  0  0  0  0  0  0  0
    6.1276    0.3564    5.5680 C   0  0  0  0  0  0  0  0  0  0  0  0
    6.1632    1.4149    6.5030 C   0  0  0  0  0  0  0  0  0  0  0  0
    5.6573    2.5530    6.0181 N   0  0  0  0  0  0  0  0  0  0  0  0
    5.2880    2.2178    4.7665 N   0  0  0  0  0  0  0  0  0  0  0  0
    5.5041    0.9013    4.4549 C   0  0  0  0  0  0  0  0  0  0  0  0
    5.2237    0.1646    3.3001 C   0  0  0  0  0  0  0  0  0  0  0  0
    1.3508    0.7578   -0.8444 C   0  0  0  0  0  0  0  0  0  0  0  0
    1.3675    2.0111   -1.4444 C   0  0  0  0  0  0  0  0  0  0  0  0
    0.0720    2.2975   -1.7810 N   0  0  0  0  0  0  0  0  0  0  0  0
   -0.7387    1.5685   -0.9454 C   0  0  0  0  0  0  0  0  0  0  0  0
   -2.0068    1.8185   -0.4200 C   0  0  0  0  0  0  0  0  0  0  0  0
   -2.5753    0.7919    0.3372 C   0  0  0  0  0  0  0  0  0  0  0  0
   -1.9716   -0.4655    0.4270 C   0  0  0  0  0  0  0  0  0  0  0  0
   -0.6882   -0.6795   -0.0831 C   0  0  0  0  0  0  0  0  0  0  0  0
   -0.0168    0.4125   -0.6541 C   0  0  0  0  0  0  0  0  0  0  0  0
    1.9002   -1.0294   -2.6425 H   0  0  0  0  0  0  0  0  0  0  0  0
    3.0806   -2.8938   -3.7094 H   0  0  0  0  0  0  0  0  0  0  0  0
    4.8997   -4.0685   -2.4986 H   0  0  0  0  0  0  0  0  0  0  0  0
    5.3886   -3.5323   -0.1656 H   0  0  0  0  0  0  0  0  0  0  0  0
    3.3461   -1.6359    1.9287 H   0  0  0  0  0  0  0  0  0  0  0  0
    6.2671   -1.8609    1.3702 H   0  0  0  0  0  0  0  0  0  0  0  0
    5.3610   -3.0918    2.2897 H   0  0  0  0  0  0  0  0  0  0  0  0
    6.6464   -2.7648    4.3311 H   0  0  0  0  0  0  0  0  0  0  0  0
    7.0665   -1.4291    6.3686 H   0  0  0  0  0  0  0  0  0  0  0  0
    6.5406    1.4014    7.5169 H   0  0  0  0  0  0  0  0  0  0  0  0
    4.8997    2.9354    4.1647 H   0  0  0  0  0  0  0  0  0  0  0  0
    4.7271    0.6284    2.4515 H   0  0  0  0  0  0  0  0  0  0  0  0
    2.1790    2.6990   -1.6616 H   0  0  0  0  0  0  0  0  0  0  0  0
   -0.2342    3.0059   -2.4370 H   0  0  0  0  0  0  0  0  0  0  0  0
   -2.4807    2.7861   -0.5132 H   0  0  0  0  0  0  0  0  0  0  0  0
   -3.5117    0.9718    0.8629 H   0  0  0  0  0  0  0  0  0  0  0  0
   -2.4742   -1.2695    0.9566 H   0  0  0  0  0  0  0  0  0  0  0  0
   -0.1947   -1.6397    0.0472 H   0  0  0  0  0  0  0  0  0  0  0  0
  1  2  2  0  0  0  0
  2  3  1  0  0  0  0
  2 20  1  0  0  0  0
  3  4  1  0  0  0  0
  3  8  2  0  0  0  0
  4  5  2  0  0  0  0
  4 29  1  0  0  0  0
  5  6  1  0  0  0  0
  5 30  1  0  0  0  0
  6  7  2  0  0  0  0
  6 31  1  0  0  0  0
  7  8  1  0  0  0  0
  7 32  1  0  0  0  0
  8  9  1  0  0  0  0
  9 10  1  0  0  0  0
  9 33  1  0  0  0  0
 10 11  1  0  0  0  0
 10 34  1  0  0  0  0
 10 35  1  0  0  0  0
 11 12  1  0  0  0  0
 11 19  2  0  0  0  0
 12 13  2  0  0  0  0
 12 36  1  0  0  0  0
 13 14  1  0  0  0  0
 13 37  1  0  0  0  0
 14 15  1  0  0  0  0
 14 18  2  0  0  0  0
 15 16  2  0  0  0  0
 15 38  1  0  0  0  0
 16 17  1  0  0  0  0
 17 18  1  0  0  0  0
 17 39  1  0  0  0  0
 18 19  1  0  0  0  0
 19 40  1  0  0  0  0
 20 21  2  0  0  0  0
 20 28  1  0  0  0  0
 21 22  1  0  0  0  0
 21 41  1  0  0  0  0
 22 23  1  0  0  0  0
 22 42  1  0  0  0  0
 23 24  1  0  0  0  0
 23 28  2  0  0  0  0
 24 25  2  0  0  0  0
 24 43  1  0  0  0  0
 25 26  1  0  0  0  0
 25 44  1  0  0  0  0
 26 27  2  0  0  0  0
 26 45  1  0  0  0  0
 27 28  1  0  0  0  0
 27 46  1  0  0  0  0
M  END
$$$$
