CHEMBL4091341
 OpenBabel04072215383D

 69 74  0  0  0  0  0  0  0  0999 V2000
    1.3115    1.9705    0.3016 C   0  0  0  0  0  0  0  0  0  0  0  0
    2.7029    1.6417    0.2106 O   0  0  0  0  0  0  0  0  0  0  0  0
    3.2811    1.3903    1.4091 C   0  0  0  0  0  0  0  0  0  0  0  0
    2.7062    1.3954    2.4907 O   0  0  0  0  0  0  0  0  0  0  0  0
    4.7484    1.1471    1.2781 C   0  0  0  0  0  0  0  0  0  0  0  0
    5.4350    1.0922    0.0456 C   0  0  0  0  0  0  0  0  0  0  0  0
    6.8444    0.9170   -0.0008 C   0  0  0  0  0  0  0  0  0  0  0  0
    7.5617    0.8233    1.1819 C   0  0  0  0  0  0  0  0  0  0  0  0
    6.8428    0.8885    2.3844 C   0  0  0  0  0  0  0  0  0  0  0  0
    5.4682    1.0255    2.4668 C   0  0  0  0  0  0  0  0  0  0  0  0
    7.6909    0.9137    3.4758 N   0  0  0  0  0  0  0  0  0  0  0  0
    9.0137    0.9456    3.0792 C   0  0  0  0  0  0  0  0  0  0  0  0
    9.9351    1.3166    3.7820 O   0  0  0  0  0  0  0  0  0  0  0  0
    8.9943    0.6892    1.5872 C   0  0  0  0  0  0  0  0  0  0  0  0
   10.1656    0.5105    0.9271 C   0  0  0  0  0  0  0  0  0  0  0  0
   11.4413    0.2409    1.4354 N   0  0  0  0  0  0  0  0  0  0  0  0
   11.8620   -0.6418    2.4580 C   0  0  0  0  0  0  0  0  0  0  0  0
   11.1060   -1.7296    2.8936 C   0  0  0  0  0  0  0  0  0  0  0  0
   11.4531   -2.4574    4.0534 C   0  0  0  0  0  0  0  0  0  0  0  0
   12.5410   -2.0905    4.8447 C   0  0  0  0  0  0  0  0  0  0  0  0
   12.7446   -2.5784    6.1893 N   0  0  0  0  0  0  0  0  0  0  0  0
   13.9871   -2.5758    6.8215 C   0  0  0  0  0  0  0  0  0  0  0  0
   13.8377   -2.8135    8.1655 C   0  0  0  0  0  0  0  0  0  0  0  0
   12.4711   -3.0310    8.3824 C   0  0  0  0  0  0  0  0  0  0  0  0
   11.8221   -3.0286    7.1518 C   0  0  0  0  0  0  0  0  0  0  0  0
   10.4160   -3.5076    6.9614 C   0  0  0  0  0  0  0  0  0  0  0  0
    9.3588   -2.5686    7.3929 N   0  0  0  0  0  0  0  0  0  0  0  0
    8.0641   -3.2798    7.4910 C   0  0  0  0  0  0  0  0  0  0  0  0
    7.6056   -3.4225    6.0519 C   0  0  0  0  0  0  0  0  0  0  0  0
    8.0359   -2.1026    5.4287 C   0  0  0  0  0  0  0  0  0  0  0  0
    9.0774   -1.5244    6.3925 C   0  0  0  0  0  0  0  0  0  0  0  0
   13.4000   -1.1106    4.3225 C   0  0  0  0  0  0  0  0  0  0  0  0
   13.0555   -0.3942    3.1539 C   0  0  0  0  0  0  0  0  0  0  0  0
   10.1823    0.8724   -0.5085 C   0  0  0  0  0  0  0  0  0  0  0  0
   10.4195    2.2142   -0.8546 C   0  0  0  0  0  0  0  0  0  0  0  0
   10.4429    2.6192   -2.1863 C   0  0  0  0  0  0  0  0  0  0  0  0
   10.2288    1.6752   -3.1918 C   0  0  0  0  0  0  0  0  0  0  0  0
   10.0030    0.3421   -2.8628 C   0  0  0  0  0  0  0  0  0  0  0  0
    9.9854   -0.0670   -1.5224 C   0  0  0  0  0  0  0  0  0  0  0  0
    0.8959    1.9819   -0.7091 H   0  0  0  0  0  0  0  0  0  0  0  0
    1.1907    2.9680    0.7377 H   0  0  0  0  0  0  0  0  0  0  0  0
    0.7602    1.2280    0.8892 H   0  0  0  0  0  0  0  0  0  0  0  0
    4.8863    1.2109   -0.8892 H   0  0  0  0  0  0  0  0  0  0  0  0
    7.3349    0.9006   -0.9712 H   0  0  0  0  0  0  0  0  0  0  0  0
    4.9735    1.0712    3.4334 H   0  0  0  0  0  0  0  0  0  0  0  0
    7.4221    1.1399    4.4126 H   0  0  0  0  0  0  0  0  0  0  0  0
   12.1973    0.7373    0.9744 H   0  0  0  0  0  0  0  0  0  0  0  0
   10.2227   -2.0311    2.3381 H   0  0  0  0  0  0  0  0  0  0  0  0
   10.8410   -3.3144    4.2853 H   0  0  0  0  0  0  0  0  0  0  0  0
   14.8932   -2.4080    6.2582 H   0  0  0  0  0  0  0  0  0  0  0  0
   14.6284   -2.8539    8.9035 H   0  0  0  0  0  0  0  0  0  0  0  0
   11.9945   -3.2642    9.3281 H   0  0  0  0  0  0  0  0  0  0  0  0
   10.3393   -4.3824    7.6241 H   0  0  0  0  0  0  0  0  0  0  0  0
   10.2497   -3.9273    5.9754 H   0  0  0  0  0  0  0  0  0  0  0  0
    7.3490   -2.6550    8.0445 H   0  0  0  0  0  0  0  0  0  0  0  0
    8.1255   -4.2361    8.0204 H   0  0  0  0  0  0  0  0  0  0  0  0
    6.5332   -3.6050    5.9568 H   0  0  0  0  0  0  0  0  0  0  0  0
    8.1215   -4.2582    5.5593 H   0  0  0  0  0  0  0  0  0  0  0  0
    7.1755   -1.4290    5.3488 H   0  0  0  0  0  0  0  0  0  0  0  0
    8.4386   -2.2588    4.4243 H   0  0  0  0  0  0  0  0  0  0  0  0
    8.6323   -0.6638    6.9095 H   0  0  0  0  0  0  0  0  0  0  0  0
    9.9629   -1.1346    5.8884 H   0  0  0  0  0  0  0  0  0  0  0  0
   14.3030   -0.8052    4.8469 H   0  0  0  0  0  0  0  0  0  0  0  0
   13.7124    0.4135    2.8382 H   0  0  0  0  0  0  0  0  0  0  0  0
   10.5875    2.9573   -0.0727 H   0  0  0  0  0  0  0  0  0  0  0  0
   10.6342    3.6579   -2.4430 H   0  0  0  0  0  0  0  0  0  0  0  0
   10.2472    1.9827   -4.2334 H   0  0  0  0  0  0  0  0  0  0  0  0
    9.8442   -0.3870   -3.6514 H   0  0  0  0  0  0  0  0  0  0  0  0
    9.8193   -1.1130   -1.2785 H   0  0  0  0  0  0  0  0  0  0  0  0
  1  2  1  0  0  0  0
  1 40  1  0  0  0  0
  1 41  1  0  0  0  0
  1 42  1  0  0  0  0
  2  3  1  0  0  0  0
  3  4  2  0  0  0  0
  3  5  1  0  0  0  0
  5  6  1  0  0  0  0
  5 10  2  0  0  0  0
  6  7  2  0  0  0  0
  6 43  1  0  0  0  0
  7  8  1  0  0  0  0
  7 44  1  0  0  0  0
  8  9  2  0  0  0  0
  8 14  1  0  0  0  0
  9 10  1  0  0  0  0
  9 11  1  0  0  0  0
 10 45  1  0  0  0  0
 11 12  1  0  0  0  0
 11 46  1  0  0  0  0
 12 13  2  0  0  0  0
 12 14  1  0  0  0  0
 14 15  2  0  0  0  0
 15 16  1  0  0  0  0
 15 34  1  0  0  0  0
 16 17  1  0  0  0  0
 16 47  1  0  0  0  0
 17 18  1  0  0  0  0
 17 33  2  0  0  0  0
 18 19  2  0  0  0  0
 18 48  1  0  0  0  0
 19 20  1  0  0  0  0
 19 49  1  0  0  0  0
 20 21  1  0  0  0  0
 20 32  2  0  0  0  0
 21 22  1  0  0  0  0
 21 25  1  0  0  0  0
 22 23  2  0  0  0  0
 22 50  1  0  0  0  0
 23 24  1  0  0  0  0
 23 51  1  0  0  0  0
 24 25  2  0  0  0  0
 24 52  1  0  0  0  0
 25 26  1  0  0  0  0
 26 27  1  0  0  0  0
 26 53  1  0  0  0  0
 26 54  1  0  0  0  0
 27 28  1  0  0  0  0
 27 31  1  0  0  0  0
 28 29  1  0  0  0  0
 28 55  1  0  0  0  0
 28 56  1  0  0  0  0
 29 30  1  0  0  0  0
 29 57  1  0  0  0  0
 29 58  1  0  0  0  0
 30 31  1  0  0  0  0
 30 59  1  0  0  0  0
 30 60  1  0  0  0  0
 31 61  1  0  0  0  0
 31 62  1  0  0  0  0
 32 33  1  0  0  0  0
 32 63  1  0  0  0  0
 33 64  1  0  0  0  0
 34 35  1  0  0  0  0
 34 39  2  0  0  0  0
 35 36  2  0  0  0  0
 35 65  1  0  0  0  0
 36 37  1  0  0  0  0
 36 66  1  0  0  0  0
 37 38  2  0  0  0  0
 37 67  1  0  0  0  0
 38 39  1  0  0  0  0
 38 68  1  0  0  0  0
 39 69  1  0  0  0  0
M  END
$$$$
