CHEMBL2113171
 OpenBabel04072215363D

 53 55  0  0  0  0  0  0  0  0999 V2000
    1.1572   -1.0295   -0.2560 C   0  0  0  0  0  0  0  0  0  0  0  0
    2.3998   -0.4375    0.0648 O   0  0  0  0  0  0  0  0  0  0  0  0
    2.8726   -0.7724    1.3738 C   0  0  0  0  0  0  0  0  0  0  0  0
    4.1758   -0.0029    1.5226 C   0  0  0  0  0  0  0  0  0  0  0  0
    4.8453   -0.2194    2.7454 O   0  0  0  0  0  0  0  0  0  0  0  0
    6.2039   -0.0241    2.7661 C   0  0  0  0  0  0  0  0  0  0  0  0
    6.7842   -0.7533    3.8308 C   0  0  0  0  0  0  0  0  0  0  0  0
    8.1517   -0.8140    4.0723 C   0  0  0  0  0  0  0  0  0  0  0  0
    8.6083   -1.5601    5.0840 N   0  0  0  0  0  0  0  0  0  0  0  0
    9.9291   -1.5775    5.2699 C   0  0  0  0  0  0  0  0  0  0  0  0
   10.8348   -0.9105    4.5416 N   0  0  0  0  0  0  0  0  0  0  0  0
   10.3719   -0.1728    3.5130 C   0  0  0  0  0  0  0  0  0  0  0  0
   11.3090    0.4845    2.6674 N   0  0  0  0  0  0  0  0  0  0  0  0
   12.6961    0.3982    2.8254 C   0  0  0  0  0  0  0  0  0  0  0  0
   13.3730   -0.6624    3.2616 C   0  0  0  0  0  0  0  0  0  0  0  0
   14.8112   -0.6521    3.5487 C   0  0  0  0  0  0  0  0  0  0  0  0
   15.3150   -1.6813    3.9802 O   0  0  0  0  0  0  0  0  0  0  0  0
   15.5714    0.6079    3.3315 C   0  0  0  0  0  0  0  0  0  0  0  0
   16.9008    0.7546    3.7101 O   0  0  0  0  0  0  0  0  0  0  0  0
   17.7423   -0.3947    3.9037 C   0  0  0  0  0  0  0  0  0  0  0  0
   17.9694   -1.1689    2.6069 C   0  0  0  0  0  0  0  0  0  0  0  0
   18.5337   -0.3410    1.6823 F   0  0  0  0  0  0  0  0  0  0  0  0
   19.0817    0.1131    4.4269 C   0  0  0  0  0  0  0  0  0  0  0  0
   19.9046   -0.9411    4.6722 F   0  0  0  0  0  0  0  0  0  0  0  0
   14.9222    1.6490    2.7780 C   0  0  0  0  0  0  0  0  0  0  0  0
   15.7396    3.1477    2.4607 Cl  0  0  0  0  0  0  0  0  0  0  0  0
   13.4755    1.6113    2.4226 C   0  0  0  0  0  0  0  0  0  0  0  0
   12.9000    2.5345    1.8470 O   0  0  0  0  0  0  0  0  0  0  0  0
    8.9970   -0.0950    3.2269 C   0  0  0  0  0  0  0  0  0  0  0  0
    8.4356    0.6332    2.1580 C   0  0  0  0  0  0  0  0  0  0  0  0
    7.0539    0.6982    1.9174 C   0  0  0  0  0  0  0  0  0  0  0  0
    6.8321    1.4038    0.7727 O   0  0  0  0  0  0  0  0  0  0  0  0
    5.7431    2.2930    0.6192 C   0  0  0  0  0  0  0  0  0  0  0  0
    0.8999   -0.7265   -1.2753 H   0  0  0  0  0  0  0  0  0  0  0  0
    0.3779   -0.6713    0.4212 H   0  0  0  0  0  0  0  0  0  0  0  0
    1.2320   -2.1189   -0.2226 H   0  0  0  0  0  0  0  0  0  0  0  0
    3.0333   -1.8509    1.4691 H   0  0  0  0  0  0  0  0  0  0  0  0
    2.1491   -0.4553    2.1347 H   0  0  0  0  0  0  0  0  0  0  0  0
    3.8744    1.0442    1.4914 H   0  0  0  0  0  0  0  0  0  0  0  0
    4.8120   -0.2568    0.6685 H   0  0  0  0  0  0  0  0  0  0  0  0
    6.1330   -1.3365    4.4821 H   0  0  0  0  0  0  0  0  0  0  0  0
   10.3153   -2.1984    6.0699 H   0  0  0  0  0  0  0  0  0  0  0  0
   11.0265    1.4296    2.4365 H   0  0  0  0  0  0  0  0  0  0  0  0
   12.8811   -1.5975    3.5008 H   0  0  0  0  0  0  0  0  0  0  0  0
   17.3373   -1.0452    4.6857 H   0  0  0  0  0  0  0  0  0  0  0  0
   17.0397   -1.5359    2.1671 H   0  0  0  0  0  0  0  0  0  0  0  0
   18.6395   -2.0198    2.7561 H   0  0  0  0  0  0  0  0  0  0  0  0
   18.9480    0.6616    5.3653 H   0  0  0  0  0  0  0  0  0  0  0  0
   19.5717    0.7877    3.7182 H   0  0  0  0  0  0  0  0  0  0  0  0
    9.0919    1.1593    1.4623 H   0  0  0  0  0  0  0  0  0  0  0  0
    6.1012    3.2154    0.1523 H   0  0  0  0  0  0  0  0  0  0  0  0
    5.2516    2.5632    1.5569 H   0  0  0  0  0  0  0  0  0  0  0  0
    5.0498    1.8496   -0.1033 H   0  0  0  0  0  0  0  0  0  0  0  0
  1  2  1  0  0  0  0
  1 34  1  0  0  0  0
  1 35  1  0  0  0  0
  1 36  1  0  0  0  0
  2  3  1  0  0  0  0
  3  4  1  0  0  0  0
  3 37  1  0  0  0  0
  3 38  1  0  0  0  0
  4  5  1  0  0  0  0
  4 39  1  0  0  0  0
  4 40  1  0  0  0  0
  5  6  1  0  0  0  0
  6  7  1  0  0  0  0
  6 31  2  0  0  0  0
  7  8  2  0  0  0  0
  7 41  1  0  0  0  0
  8  9  1  0  0  0  0
  8 29  1  0  0  0  0
  9 10  2  0  0  0  0
 10 11  1  0  0  0  0
 10 42  1  0  0  0  0
 11 12  2  0  0  0  0
 12 13  1  0  0  0  0
 12 29  1  0  0  0  0
 13 14  1  0  0  0  0
 13 43  1  0  0  0  0
 14 15  2  0  0  0  0
 14 27  1  0  0  0  0
 15 16  1  0  0  0  0
 15 44  1  0  0  0  0
 16 17  2  0  0  0  0
 16 18  1  0  0  0  0
 18 19  1  0  0  0  0
 18 25  2  0  0  0  0
 19 20  1  0  0  0  0
 20 21  1  0  0  0  0
 20 23  1  0  0  0  0
 20 45  1  0  0  0  0
 21 22  1  0  0  0  0
 21 46  1  0  0  0  0
 21 47  1  0  0  0  0
 23 24  1  0  0  0  0
 23 48  1  0  0  0  0
 23 49  1  0  0  0  0
 25 26  1  0  0  0  0
 25 27  1  0  0  0  0
 27 28  2  0  0  0  0
 29 30  2  0  0  0  0
 30 31  1  0  0  0  0
 30 50  1  0  0  0  0
 31 32  1  0  0  0  0
 32 33  1  0  0  0  0
 33 51  1  0  0  0  0
 33 52  1  0  0  0  0
 33 53  1  0  0  0  0
M  END
$$$$
