CHEMBL3907314
 OpenBabel04072215373D

 65 69  0  0  0  0  0  0  0  0999 V2000
    0.8924   -3.2781   -3.1031 C   0  0  0  0  0  0  0  0  0  0  0  0
    1.9483   -3.7857   -2.2848 O   0  0  0  0  0  0  0  0  0  0  0  0
    2.9086   -2.8875   -1.8864 C   0  0  0  0  0  0  0  0  0  0  0  0
    2.7279   -1.5061   -1.8622 C   0  0  0  0  0  0  0  0  0  0  0  0
    3.7441   -0.6835   -1.3848 C   0  0  0  0  0  0  0  0  0  0  0  0
    3.6795    0.6818   -1.2793 O   0  0  0  0  0  0  0  0  0  0  0  0
    2.5162    1.3193   -1.7987 C   0  0  0  0  0  0  0  0  0  0  0  0
    4.9444   -1.2532   -0.9243 C   0  0  0  0  0  0  0  0  0  0  0  0
    5.1597   -2.6411   -0.9056 C   0  0  0  0  0  0  0  0  0  0  0  0
    6.2698   -3.2432   -0.2573 N   0  0  0  0  0  0  0  0  0  0  0  0
    6.8060   -2.5462    0.9769 C   0  0  0  0  0  0  0  0  0  0  0  0
    5.8382   -2.0751    2.0798 C   0  0  0  0  0  0  0  0  0  0  0  0
    5.2161   -3.1091    3.0465 C   0  0  0  0  0  0  0  0  0  0  0  0
    4.5127   -2.3459    4.1065 N   0  0  0  0  0  0  0  0  0  0  0  0
    3.8681   -3.1752    5.1458 C   0  0  0  0  0  0  0  0  0  0  0  0
    2.5009   -2.9958    4.4581 C   0  0  0  0  0  0  0  0  0  0  0  0
    1.9749   -4.1323    3.7346 O   0  0  0  0  0  0  0  0  0  0  0  0
    3.1866   -1.8802    3.6465 C   0  0  0  0  0  0  0  0  0  0  0  0
    7.3830   -3.9821   -0.8435 C   0  0  0  0  0  0  0  0  0  0  0  0
    7.8950   -4.9872   -0.0440 C   0  0  0  0  0  0  0  0  0  0  0  0
    9.2052   -5.4143   -0.1905 C   0  0  0  0  0  0  0  0  0  0  0  0
   10.0023   -4.9745   -1.2140 C   0  0  0  0  0  0  0  0  0  0  0  0
   11.2768   -5.3428   -1.0858 N   0  0  0  0  0  0  0  0  0  0  0  0
   12.0889   -5.0747   -2.1166 C   0  0  0  0  0  0  0  0  0  0  0  0
   11.6173   -4.5161   -3.2866 C   0  0  0  0  0  0  0  0  0  0  0  0
   12.5284   -4.6209   -4.4280 C   0  0  0  0  0  0  0  0  0  0  0  0
   12.6013   -5.6344   -5.4244 C   0  0  0  0  0  0  0  0  0  0  0  0
   13.7318   -5.5889   -6.1410 N   0  0  0  0  0  0  0  0  0  0  0  0
   14.4029   -4.5574   -5.6026 N   0  0  0  0  0  0  0  0  0  0  0  0
   15.5963   -4.0500   -6.2423 C   0  0  0  0  0  0  0  0  0  0  0  0
   13.7945   -4.0522   -4.4847 C   0  0  0  0  0  0  0  0  0  0  0  0
   10.3235   -4.0324   -3.3806 N   0  0  0  0  0  0  0  0  0  0  0  0
    9.4762   -4.2021   -2.2807 C   0  0  0  0  0  0  0  0  0  0  0  0
    8.1381   -3.6563   -2.0258 C   0  0  0  0  0  0  0  0  0  0  0  0
    4.1172   -3.4437   -1.4108 C   0  0  0  0  0  0  0  0  0  0  0  0
    0.2280   -4.1111   -3.3573 H   0  0  0  0  0  0  0  0  0  0  0  0
    1.2908   -2.8705   -4.0385 H   0  0  0  0  0  0  0  0  0  0  0  0
    0.2807   -2.5348   -2.5813 H   0  0  0  0  0  0  0  0  0  0  0  0
    1.7870   -1.0726   -2.1810 H   0  0  0  0  0  0  0  0  0  0  0  0
    2.6548    2.4008   -1.7030 H   0  0  0  0  0  0  0  0  0  0  0  0
    1.6250    1.0473   -1.2237 H   0  0  0  0  0  0  0  0  0  0  0  0
    2.3823    1.0954   -2.8626 H   0  0  0  0  0  0  0  0  0  0  0  0
    5.7007   -0.5764   -0.5359 H   0  0  0  0  0  0  0  0  0  0  0  0
    7.3723   -1.6693    0.6351 H   0  0  0  0  0  0  0  0  0  0  0  0
    7.5398   -3.1720    1.4986 H   0  0  0  0  0  0  0  0  0  0  0  0
    5.0533   -1.4413    1.6674 H   0  0  0  0  0  0  0  0  0  0  0  0
    6.4461   -1.4134    2.7161 H   0  0  0  0  0  0  0  0  0  0  0  0
    6.0159   -3.6962    3.5160 H   0  0  0  0  0  0  0  0  0  0  0  0
    4.5656   -3.8101    2.5131 H   0  0  0  0  0  0  0  0  0  0  0  0
    3.8871   -2.7079    6.1412 H   0  0  0  0  0  0  0  0  0  0  0  0
    4.2211   -4.2048    5.2569 H   0  0  0  0  0  0  0  0  0  0  0  0
    1.7180   -2.6100    5.1231 H   0  0  0  0  0  0  0  0  0  0  0  0
    2.7377   -4.5114    3.2683 H   0  0  0  0  0  0  0  0  0  0  0  0
    2.9486   -0.8711    4.0053 H   0  0  0  0  0  0  0  0  0  0  0  0
    2.9985   -1.9048    2.5683 H   0  0  0  0  0  0  0  0  0  0  0  0
    7.3195   -5.3490    0.8026 H   0  0  0  0  0  0  0  0  0  0  0  0
    9.6267   -6.0718    0.5640 H   0  0  0  0  0  0  0  0  0  0  0  0
   13.1152   -5.3921   -1.9899 H   0  0  0  0  0  0  0  0  0  0  0  0
   11.9016   -6.4351   -5.6253 H   0  0  0  0  0  0  0  0  0  0  0  0
   15.8030   -4.6157   -7.1536 H   0  0  0  0  0  0  0  0  0  0  0  0
   16.4411   -4.1237   -5.5534 H   0  0  0  0  0  0  0  0  0  0  0  0
   15.4065   -3.0032   -6.4999 H   0  0  0  0  0  0  0  0  0  0  0  0
   14.3058   -3.3433   -3.8482 H   0  0  0  0  0  0  0  0  0  0  0  0
    7.7385   -2.9382   -2.7439 H   0  0  0  0  0  0  0  0  0  0  0  0
    4.2087   -4.5275   -1.3768 H   0  0  0  0  0  0  0  0  0  0  0  0
  1  2  1  0  0  0  0
  1 36  1  0  0  0  0
  1 37  1  0  0  0  0
  1 38  1  0  0  0  0
  2  3  1  0  0  0  0
  3  4  1  0  0  0  0
  3 35  2  0  0  0  0
  4  5  2  0  0  0  0
  4 39  1  0  0  0  0
  5  6  1  0  0  0  0
  5  8  1  0  0  0  0
  6  7  1  0  0  0  0
  7 40  1  0  0  0  0
  7 41  1  0  0  0  0
  7 42  1  0  0  0  0
  8  9  2  0  0  0  0
  8 43  1  0  0  0  0
  9 10  1  0  0  0  0
  9 35  1  0  0  0  0
 10 11  1  0  0  0  0
 10 19  1  0  0  0  0
 11 12  1  0  0  0  0
 11 44  1  0  0  0  0
 11 45  1  0  0  0  0
 12 13  1  0  0  0  0
 12 46  1  0  0  0  0
 12 47  1  0  0  0  0
 13 14  1  0  0  0  0
 13 48  1  0  0  0  0
 13 49  1  0  0  0  0
 14 15  1  0  0  0  0
 14 18  1  0  0  0  0
 15 16  1  0  0  0  0
 15 50  1  0  0  0  0
 15 51  1  0  0  0  0
 16 17  1  0  0  0  0
 16 18  1  0  0  0  0
 16 52  1  0  0  0  0
 17 53  1  0  0  0  0
 18 54  1  0  0  0  0
 18 55  1  0  0  0  0
 19 20  1  0  0  0  0
 19 34  2  0  0  0  0
 20 21  2  0  0  0  0
 20 56  1  0  0  0  0
 21 22  1  0  0  0  0
 21 57  1  0  0  0  0
 22 23  1  0  0  0  0
 22 33  2  0  0  0  0
 23 24  2  0  0  0  0
 24 25  1  0  0  0  0
 24 58  1  0  0  0  0
 25 26  1  0  0  0  0
 25 32  2  0  0  0  0
 26 27  1  0  0  0  0
 26 31  2  0  0  0  0
 27 28  2  0  0  0  0
 27 59  1  0  0  0  0
 28 29  1  0  0  0  0
 29 30  1  0  0  0  0
 29 31  1  0  0  0  0
 30 60  1  0  0  0  0
 30 61  1  0  0  0  0
 30 62  1  0  0  0  0
 31 63  1  0  0  0  0
 32 33  1  0  0  0  0
 33 34  1  0  0  0  0
 34 64  1  0  0  0  0
 35 65  1  0  0  0  0
M  END
$$$$
