CHEMBL1242754
 OpenBabel04072215363D

 39 42  0  0  0  0  0  0  0  0999 V2000
    3.7685    0.0088    0.7442 C   0  0  0  0  0  0  0  0  0  0  0  0
    2.5603   -0.0869   -0.1890 C   0  0  0  0  0  0  0  0  0  0  0  0
    1.3640    0.6555    0.4151 C   0  0  0  0  0  0  0  0  0  0  0  0
    2.8940    0.3850   -1.5263 N   0  0  0  0  0  0  0  0  0  0  0  0
    2.7727    1.6884   -1.8228 N   0  0  0  0  0  0  0  0  0  0  0  0
    3.2220    1.8088   -3.0832 C   0  0  0  0  0  0  0  0  0  0  0  0
    3.2542    3.1400   -3.6653 C   0  0  0  0  0  0  0  0  0  0  0  0
    3.3885    4.2385   -2.8150 C   0  0  0  0  0  0  0  0  0  0  0  0
    3.3963    5.5346   -3.2022 N   0  0  0  0  0  0  0  0  0  0  0  0
    3.4443    5.7747   -4.5168 C   0  0  0  0  0  0  0  0  0  0  0  0
    3.5987    7.0786   -4.9374 C   0  0  0  0  0  0  0  0  0  0  0  0
    4.1048    7.3477   -6.2045 C   0  0  0  0  0  0  0  0  0  0  0  0
    4.1515    6.3338   -7.1539 C   0  0  0  0  0  0  0  0  0  0  0  0
    3.6916    5.0591   -6.8244 C   0  0  0  0  0  0  0  0  0  0  0  0
    3.4204    4.7462   -5.4793 C   0  0  0  0  0  0  0  0  0  0  0  0
    3.1869    3.4356   -5.0263 C   0  0  0  0  0  0  0  0  0  0  0  0
    3.6315    0.5343   -3.5988 C   0  0  0  0  0  0  0  0  0  0  0  0
    4.1976   -0.0252   -4.7572 C   0  0  0  0  0  0  0  0  0  0  0  0
    4.5383    0.6853   -5.9130 N   0  0  0  0  0  0  0  0  0  0  0  0
    4.4648   -1.3391   -4.7904 N   0  0  0  0  0  0  0  0  0  0  0  0
    4.1911   -2.0828   -3.7047 C   0  0  0  0  0  0  0  0  0  0  0  0
    3.6594   -1.6719   -2.5524 N   0  0  0  0  0  0  0  0  0  0  0  0
    3.4108   -0.3515   -2.5545 C   0  0  0  0  0  0  0  0  0  0  0  0
    3.5180   -0.3574    1.7466 H   0  0  0  0  0  0  0  0  0  0  0  0
    4.1148    1.0437    0.8384 H   0  0  0  0  0  0  0  0  0  0  0  0
    4.6083   -0.5862    0.3689 H   0  0  0  0  0  0  0  0  0  0  0  0
    2.2806   -1.1401   -0.2927 H   0  0  0  0  0  0  0  0  0  0  0  0
    1.5923    1.7128    0.5944 H   0  0  0  0  0  0  0  0  0  0  0  0
    1.0781    0.2122    1.3746 H   0  0  0  0  0  0  0  0  0  0  0  0
    0.4973    0.6088   -0.2524 H   0  0  0  0  0  0  0  0  0  0  0  0
    3.5251    4.0981   -1.7443 H   0  0  0  0  0  0  0  0  0  0  0  0
    3.3711    7.8888   -4.2511 H   0  0  0  0  0  0  0  0  0  0  0  0
    4.4614    8.3473   -6.4375 H   0  0  0  0  0  0  0  0  0  0  0  0
    4.5252    6.5449   -8.1521 H   0  0  0  0  0  0  0  0  0  0  0  0
    3.6344    4.2976   -7.5974 H   0  0  0  0  0  0  0  0  0  0  0  0
    3.0106    2.6444   -5.7600 H   0  0  0  0  0  0  0  0  0  0  0  0
    4.9678    1.5772   -5.7245 H   0  0  0  0  0  0  0  0  0  0  0  0
    5.0863    0.0742   -6.5130 H   0  0  0  0  0  0  0  0  0  0  0  0
    4.4514   -3.1341   -3.7717 H   0  0  0  0  0  0  0  0  0  0  0  0
  1  2  1  0  0  0  0
  1 24  1  0  0  0  0
  1 25  1  0  0  0  0
  1 26  1  0  0  0  0
  2  3  1  0  0  0  0
  2  4  1  0  0  0  0
  2 27  1  0  0  0  0
  3 28  1  0  0  0  0
  3 29  1  0  0  0  0
  3 30  1  0  0  0  0
  4  5  1  0  0  0  0
  4 23  1  0  0  0  0
  5  6  2  0  0  0  0
  6  7  1  0  0  0  0
  6 17  1  0  0  0  0
  7  8  1  0  0  0  0
  7 16  2  0  0  0  0
  8  9  2  0  0  0  0
  8 31  1  0  0  0  0
  9 10  1  0  0  0  0
 10 11  1  0  0  0  0
 10 15  2  0  0  0  0
 11 12  2  0  0  0  0
 11 32  1  0  0  0  0
 12 13  1  0  0  0  0
 12 33  1  0  0  0  0
 13 14  2  0  0  0  0
 13 34  1  0  0  0  0
 14 15  1  0  0  0  0
 14 35  1  0  0  0  0
 15 16  1  0  0  0  0
 16 36  1  0  0  0  0
 17 18  1  0  0  0  0
 17 23  2  0  0  0  0
 18 19  1  0  0  0  0
 18 20  2  0  0  0  0
 19 37  1  0  0  0  0
 19 38  1  0  0  0  0
 20 21  1  0  0  0  0
 21 22  2  0  0  0  0
 21 39  1  0  0  0  0
 22 23  1  0  0  0  0
M  END
$$$$
