CHEMBL4073536
 OpenBabel04072215383D

 57 60  0  0  0  0  0  0  0  0999 V2000
    1.1199    0.1999    0.0412 C   0  0  0  0  0  0  0  0  0  0  0  0
    2.5331   -0.3558    0.0223 C   0  0  0  0  0  0  0  0  0  0  0  0
    3.0264   -0.6529   -1.3354 N   0  0  0  0  0  0  0  0  0  0  0  0
    2.3181   -1.6709   -2.1328 C   0  0  0  0  0  0  0  0  0  0  0  0
    2.8426   -3.0888   -1.9310 C   0  0  0  0  0  0  0  0  0  0  0  0
    4.4284   -0.6150   -1.4947 C   0  0  0  0  0  0  0  0  0  0  0  0
    5.2877   -0.7804   -0.3922 C   0  0  0  0  0  0  0  0  0  0  0  0
    6.6613   -0.6607   -0.5173 C   0  0  0  0  0  0  0  0  0  0  0  0
    7.2084   -0.4099   -1.7644 C   0  0  0  0  0  0  0  0  0  0  0  0
    6.4106   -0.3451   -2.9144 C   0  0  0  0  0  0  0  0  0  0  0  0
    6.9755   -0.2457   -4.2202 N   0  0  0  0  0  0  0  0  0  0  0  0
    8.2968   -0.5624   -4.4926 C   0  0  0  0  0  0  0  0  0  0  0  0
    9.0875   -0.9351   -3.6366 O   0  0  0  0  0  0  0  0  0  0  0  0
    8.6469   -0.4394   -5.8262 N   0  0  0  0  0  0  0  0  0  0  0  0
    9.9259   -0.8215   -6.3189 C   0  0  0  0  0  0  0  0  0  0  0  0
   10.7831   -1.6673   -5.6125 C   0  0  0  0  0  0  0  0  0  0  0  0
   12.0999   -1.8832   -6.0245 C   0  0  0  0  0  0  0  0  0  0  0  0
   12.5936   -1.3462   -7.2192 C   0  0  0  0  0  0  0  0  0  0  0  0
   14.0048   -1.5588   -7.6079 C   0  0  0  0  0  0  0  0  0  0  0  0
   14.6718   -2.7618   -7.2672 C   0  0  0  0  0  0  0  0  0  0  0  0
   16.0037   -2.9608   -7.5959 C   0  0  0  0  0  0  0  0  0  0  0  0
   16.7704   -2.0836   -8.2615 N   0  0  0  0  0  0  0  0  0  0  0  0
   16.1180   -0.9487   -8.5683 C   0  0  0  0  0  0  0  0  0  0  0  0
   16.6773    0.0952   -9.2346 N   0  0  0  0  0  0  0  0  0  0  0  0
   15.8561    1.1384   -9.4026 N   0  0  0  0  0  0  0  0  0  0  0  0
   14.7173    0.7494   -8.8043 C   0  0  0  0  0  0  0  0  0  0  0  0
   13.6089    1.7383   -8.7710 C   0  0  0  0  0  0  0  0  0  0  0  0
   14.7988   -0.5922   -8.2884 C   0  0  0  0  0  0  0  0  0  0  0  0
   11.6641   -0.6497   -8.0060 C   0  0  0  0  0  0  0  0  0  0  0  0
   10.3662   -0.3432   -7.5489 C   0  0  0  0  0  0  0  0  0  0  0  0
    5.0179   -0.4088   -2.7595 C   0  0  0  0  0  0  0  0  0  0  0  0
    0.9133    0.6372    1.0249 H   0  0  0  0  0  0  0  0  0  0  0  0
    0.3783   -0.5852   -0.1273 H   0  0  0  0  0  0  0  0  0  0  0  0
    0.9842    0.9803   -0.7134 H   0  0  0  0  0  0  0  0  0  0  0  0
    2.5948   -1.2433    0.6631 H   0  0  0  0  0  0  0  0  0  0  0  0
    3.1556    0.4297    0.4732 H   0  0  0  0  0  0  0  0  0  0  0  0
    2.3674   -1.4116   -3.1967 H   0  0  0  0  0  0  0  0  0  0  0  0
    1.2517   -1.6643   -1.8833 H   0  0  0  0  0  0  0  0  0  0  0  0
    3.8661   -3.1999   -2.3042 H   0  0  0  0  0  0  0  0  0  0  0  0
    2.2193   -3.7994   -2.4847 H   0  0  0  0  0  0  0  0  0  0  0  0
    2.8326   -3.3768   -0.8755 H   0  0  0  0  0  0  0  0  0  0  0  0
    4.9041   -1.0118    0.5958 H   0  0  0  0  0  0  0  0  0  0  0  0
    7.3088   -0.7699    0.3477 H   0  0  0  0  0  0  0  0  0  0  0  0
    8.2851   -0.2858   -1.7956 H   0  0  0  0  0  0  0  0  0  0  0  0
    6.3314   -0.2046   -4.9982 H   0  0  0  0  0  0  0  0  0  0  0  0
    8.1013    0.1959   -6.3899 H   0  0  0  0  0  0  0  0  0  0  0  0
   10.4752   -2.1702   -4.7007 H   0  0  0  0  0  0  0  0  0  0  0  0
   12.7286   -2.4777   -5.3649 H   0  0  0  0  0  0  0  0  0  0  0  0
   14.1565   -3.5588   -6.7380 H   0  0  0  0  0  0  0  0  0  0  0  0
   16.5053   -3.8838   -7.3137 H   0  0  0  0  0  0  0  0  0  0  0  0
   17.6235    0.1463   -9.5883 H   0  0  0  0  0  0  0  0  0  0  0  0
   13.9698    2.7461   -9.0065 H   0  0  0  0  0  0  0  0  0  0  0  0
   13.1440    1.7830   -7.7829 H   0  0  0  0  0  0  0  0  0  0  0  0
   12.8552    1.4996   -9.5267 H   0  0  0  0  0  0  0  0  0  0  0  0
   11.9415   -0.3223   -9.0020 H   0  0  0  0  0  0  0  0  0  0  0  0
    9.7314    0.2849   -8.1665 H   0  0  0  0  0  0  0  0  0  0  0  0
    4.3727   -0.2993   -3.6279 H   0  0  0  0  0  0  0  0  0  0  0  0
  1  2  1  0  0  0  0
  1 32  1  0  0  0  0
  1 33  1  0  0  0  0
  1 34  1  0  0  0  0
  2  3  1  0  0  0  0
  2 35  1  0  0  0  0
  2 36  1  0  0  0  0
  3  4  1  0  0  0  0
  3  6  1  0  0  0  0
  4  5  1  0  0  0  0
  4 37  1  0  0  0  0
  4 38  1  0  0  0  0
  5 39  1  0  0  0  0
  5 40  1  0  0  0  0
  5 41  1  0  0  0  0
  6  7  1  0  0  0  0
  6 31  2  0  0  0  0
  7  8  2  0  0  0  0
  7 42  1  0  0  0  0
  8  9  1  0  0  0  0
  8 43  1  0  0  0  0
  9 10  2  0  0  0  0
  9 44  1  0  0  0  0
 10 11  1  0  0  0  0
 10 31  1  0  0  0  0
 11 12  1  0  0  0  0
 11 45  1  0  0  0  0
 12 13  2  0  0  0  0
 12 14  1  0  0  0  0
 14 15  1  0  0  0  0
 14 46  1  0  0  0  0
 15 16  1  0  0  0  0
 15 30  2  0  0  0  0
 16 17  2  0  0  0  0
 16 47  1  0  0  0  0
 17 18  1  0  0  0  0
 17 48  1  0  0  0  0
 18 19  1  0  0  0  0
 18 29  2  0  0  0  0
 19 20  1  0  0  0  0
 19 28  2  0  0  0  0
 20 21  2  0  0  0  0
 20 49  1  0  0  0  0
 21 22  1  0  0  0  0
 21 50  1  0  0  0  0
 22 23  2  0  0  0  0
 23 24  1  0  0  0  0
 23 28  1  0  0  0  0
 24 25  1  0  0  0  0
 24 51  1  0  0  0  0
 25 26  2  0  0  0  0
 26 27  1  0  0  0  0
 26 28  1  0  0  0  0
 27 52  1  0  0  0  0
 27 53  1  0  0  0  0
 27 54  1  0  0  0  0
 29 30  1  0  0  0  0
 29 55  1  0  0  0  0
 30 56  1  0  0  0  0
 31 57  1  0  0  0  0
M  END
$$$$
