CHEMBL231309
 OpenBabel04072215363D

 48 51  0  0  0  0  0  0  0  0999 V2000
   -2.3988    0.8774   -0.8435 C   0  0  0  0  0  0  0  0  0  0  0  0
   -1.1907    0.0736   -1.2281 C   0  0  0  0  0  0  0  0  0  0  0  0
   -0.1730    0.6491   -2.0036 C   0  0  0  0  0  0  0  0  0  0  0  0
    0.9585   -0.0863   -2.3453 C   0  0  0  0  0  0  0  0  0  0  0  0
    2.0607    0.5119   -3.1750 C   0  0  0  0  0  0  0  0  0  0  0  0
    1.0785   -1.4033   -1.8911 C   0  0  0  0  0  0  0  0  0  0  0  0
    0.0897   -1.9934   -1.0933 C   0  0  0  0  0  0  0  0  0  0  0  0
    0.2022   -3.3114   -0.5893 N   0  0  0  0  0  0  0  0  0  0  0  0
    1.4009   -3.9783   -0.4172 C   0  0  0  0  0  0  0  0  0  0  0  0
    2.5081   -3.4671   -0.5542 O   0  0  0  0  0  0  0  0  0  0  0  0
    1.2046   -5.3171   -0.0912 N   0  0  0  0  0  0  0  0  0  0  0  0
    2.3175   -6.1630    0.1262 C   0  0  0  0  0  0  0  0  0  0  0  0
    3.4158   -5.7366    0.8741 C   0  0  0  0  0  0  0  0  0  0  0  0
    4.5826   -6.5037    0.9194 C   0  0  0  0  0  0  0  0  0  0  0  0
    4.6648   -7.7308    0.2432 C   0  0  0  0  0  0  0  0  0  0  0  0
    5.9404   -8.4666    0.1867 C   0  0  0  0  0  0  0  0  0  0  0  0
    6.7514   -8.4868    1.3082 C   0  0  0  0  0  0  0  0  0  0  0  0
    8.2022   -9.3326    1.0815 S   0  0  0  0  0  0  0  0  0  0  0  0
    7.7979   -9.7286   -0.5396 C   0  0  0  0  0  0  0  0  0  0  0  0
    8.5981  -10.4839   -1.4051 C   0  0  0  0  0  0  0  0  0  0  0  0
    8.0950  -10.6931   -2.6661 C   0  0  0  0  0  0  0  0  0  0  0  0
    6.9242  -10.2015   -3.0957 N   0  0  0  0  0  0  0  0  0  0  0  0
    6.1553   -9.4517   -2.2738 C   0  0  0  0  0  0  0  0  0  0  0  0
    5.0062   -8.9594   -2.8823 N   0  0  0  0  0  0  0  0  0  0  0  0
    6.5568   -9.2004   -0.9296 C   0  0  0  0  0  0  0  0  0  0  0  0
    3.5082   -8.2079   -0.3860 C   0  0  0  0  0  0  0  0  0  0  0  0
    2.3454   -7.4255   -0.4610 C   0  0  0  0  0  0  0  0  0  0  0  0
   -1.0564   -1.2507   -0.7890 C   0  0  0  0  0  0  0  0  0  0  0  0
   -2.3489    1.8946   -1.2438 H   0  0  0  0  0  0  0  0  0  0  0  0
   -2.4685    0.9514    0.2466 H   0  0  0  0  0  0  0  0  0  0  0  0
   -3.3056    0.4061   -1.2347 H   0  0  0  0  0  0  0  0  0  0  0  0
   -0.2699    1.6834   -2.3408 H   0  0  0  0  0  0  0  0  0  0  0  0
    1.8321    1.5453   -3.4637 H   0  0  0  0  0  0  0  0  0  0  0  0
    2.2025   -0.0693   -4.0885 H   0  0  0  0  0  0  0  0  0  0  0  0
    2.9971    0.5235   -2.6043 H   0  0  0  0  0  0  0  0  0  0  0  0
    1.9640   -1.9635   -2.1800 H   0  0  0  0  0  0  0  0  0  0  0  0
   -0.5821   -3.6701   -0.0611 H   0  0  0  0  0  0  0  0  0  0  0  0
    0.4000   -5.7328   -0.5368 H   0  0  0  0  0  0  0  0  0  0  0  0
    3.3947   -4.7812    1.3941 H   0  0  0  0  0  0  0  0  0  0  0  0
    5.4331   -6.0969    1.4614 H   0  0  0  0  0  0  0  0  0  0  0  0
    6.5676   -8.0339    2.2732 H   0  0  0  0  0  0  0  0  0  0  0  0
    9.5572  -10.8848   -1.1006 H   0  0  0  0  0  0  0  0  0  0  0  0
    8.6469  -11.2778   -3.3966 H   0  0  0  0  0  0  0  0  0  0  0  0
    5.0849   -9.1174   -3.8820 H   0  0  0  0  0  0  0  0  0  0  0  0
    4.8018   -8.0028   -2.6202 H   0  0  0  0  0  0  0  0  0  0  0  0
    3.5084   -9.1794   -0.8764 H   0  0  0  0  0  0  0  0  0  0  0  0
    1.5084   -7.7888   -1.0507 H   0  0  0  0  0  0  0  0  0  0  0  0
   -1.8465   -1.6902   -0.1786 H   0  0  0  0  0  0  0  0  0  0  0  0
  1  2  1  0  0  0  0
  1 29  1  0  0  0  0
  1 30  1  0  0  0  0
  1 31  1  0  0  0  0
  2  3  1  0  0  0  0
  2 28  2  0  0  0  0
  3  4  2  0  0  0  0
  3 32  1  0  0  0  0
  4  5  1  0  0  0  0
  4  6  1  0  0  0  0
  5 33  1  0  0  0  0
  5 34  1  0  0  0  0
  5 35  1  0  0  0  0
  6  7  2  0  0  0  0
  6 36  1  0  0  0  0
  7  8  1  0  0  0  0
  7 28  1  0  0  0  0
  8  9  1  0  0  0  0
  8 37  1  0  0  0  0
  9 10  2  0  0  0  0
  9 11  1  0  0  0  0
 11 12  1  0  0  0  0
 11 38  1  0  0  0  0
 12 13  1  0  0  0  0
 12 27  2  0  0  0  0
 13 14  2  0  0  0  0
 13 39  1  0  0  0  0
 14 15  1  0  0  0  0
 14 40  1  0  0  0  0
 15 16  1  0  0  0  0
 15 26  2  0  0  0  0
 16 17  2  0  0  0  0
 16 25  1  0  0  0  0
 17 18  1  0  0  0  0
 17 41  1  0  0  0  0
 18 19  1  0  0  0  0
 19 20  1  0  0  0  0
 19 25  2  0  0  0  0
 20 21  2  0  0  0  0
 20 42  1  0  0  0  0
 21 22  1  0  0  0  0
 21 43  1  0  0  0  0
 22 23  2  0  0  0  0
 23 24  1  0  0  0  0
 23 25  1  0  0  0  0
 24 44  1  0  0  0  0
 24 45  1  0  0  0  0
 26 27  1  0  0  0  0
 26 46  1  0  0  0  0
 27 47  1  0  0  0  0
 28 48  1  0  0  0  0
M  END
$$$$
