CHEMBL493708
 OpenBabel04072215383D

 50 53  0  0  1  0  0  0  0  0999 V2000
    3.4692   -4.5459   -4.1291 C   0  0  0  0  0  0  0  0  0  0  0  0
    3.3750   -3.0409   -4.1888 C   0  0  0  0  0  0  0  0  0  0  0  0
    3.7009   -2.4420   -5.4277 C   0  0  0  0  0  0  0  0  0  0  0  0
    3.7117   -1.0572   -5.5912 C   0  0  0  0  0  0  0  0  0  0  0  0
    3.3554   -0.2430   -4.5213 C   0  0  0  0  0  0  0  0  0  0  0  0
    3.4050    1.2436   -4.5909 C   0  0  0  0  0  0  0  0  0  0  0  0
    3.5977    1.8896   -3.5649 O   0  0  0  0  0  0  0  0  0  0  0  0
    3.2140    1.8211   -5.8316 N   0  0  0  0  0  0  0  0  0  0  0  0
    3.2110    3.2409   -5.9958 C   0  0  0  0  0  0  0  0  0  0  0  0
    1.9414    4.0238   -5.8022 C   0  0  0  0  0  0  0  0  0  0  0  0
    2.5345    3.8839   -7.1735 C   0  0  0  0  0  0  0  0  0  0  0  0
    3.0066   -0.8292   -3.2940 C   0  0  0  0  0  0  0  0  0  0  0  0
    3.0295   -2.2267   -3.0765 C   0  0  0  0  0  0  0  0  0  0  0  0
    2.7674   -2.7323   -1.6944 C   0  0  0  0  0  0  0  0  0  0  0  0
    3.2819   -2.0601   -0.5672 C   0  0  0  0  0  0  0  0  0  0  0  0
    3.0791   -2.5290    0.7421 C   0  0  0  0  0  0  0  0  0  0  0  0
    2.3712   -3.7223    0.9829 C   0  0  0  0  0  0  0  0  0  0  0  0
    2.1389   -4.2974    2.2451 C   0  0  0  0  0  0  0  0  0  0  0  0
    2.6344   -3.6713    3.3774 O   0  0  0  0  0  0  0  0  0  0  0  0
    1.9104   -4.0359    4.5777 C   0  0  2  0  0  0  0  0  0  0  0  0
    2.0560   -2.8620    5.5470 C   0  0  0  0  0  0  0  0  0  0  0  0
    2.3810   -5.3503    5.2340 C   0  0  0  0  0  0  0  0  0  0  0  0
    3.3360   -5.9872    4.5217 F   0  0  0  0  0  0  0  0  0  0  0  0
    2.8966   -5.1412    6.4719 F   0  0  0  0  0  0  0  0  0  0  0  0
    1.3437   -6.2081    5.3922 F   0  0  0  0  0  0  0  0  0  0  0  0
    1.4608   -5.4563    2.4087 N   0  0  0  0  0  0  0  0  0  0  0  0
    0.9605   -6.1074    1.3319 N   0  0  0  0  0  0  0  0  0  0  0  0
    1.1453   -5.5780    0.1056 C   0  0  0  0  0  0  0  0  0  0  0  0
    1.8348   -4.3942   -0.1275 C   0  0  0  0  0  0  0  0  0  0  0  0
    2.0043   -3.8784   -1.4321 C   0  0  0  0  0  0  0  0  0  0  0  0
    3.8436   -4.9624   -5.0716 H   0  0  0  0  0  0  0  0  0  0  0  0
    2.4847   -4.9951   -3.9797 H   0  0  0  0  0  0  0  0  0  0  0  0
    4.1599   -4.8604   -3.3418 H   0  0  0  0  0  0  0  0  0  0  0  0
    3.9920   -3.0642   -6.2743 H   0  0  0  0  0  0  0  0  0  0  0  0
    4.0410   -0.6450   -6.5400 H   0  0  0  0  0  0  0  0  0  0  0  0
    2.9534    1.2474   -6.6220 H   0  0  0  0  0  0  0  0  0  0  0  0
    4.1271    3.7093   -5.6392 H   0  0  0  0  0  0  0  0  0  0  0  0
    2.0179    4.9816   -5.2997 H   0  0  0  0  0  0  0  0  0  0  0  0
    1.0333    3.4787   -5.5731 H   0  0  0  0  0  0  0  0  0  0  0  0
    3.0030    4.7592   -7.6088 H   0  0  0  0  0  0  0  0  0  0  0  0
    2.0090    3.2607   -7.8866 H   0  0  0  0  0  0  0  0  0  0  0  0
    2.7288   -0.1625   -2.4769 H   0  0  0  0  0  0  0  0  0  0  0  0
    3.8650   -1.1477   -0.6926 H   0  0  0  0  0  0  0  0  0  0  0  0
    3.4908   -1.9571    1.5729 H   0  0  0  0  0  0  0  0  0  0  0  0
    0.8369   -4.1028    4.3524 H   0  0  0  0  0  0  0  0  0  0  0  0
    3.0897   -2.7651    5.8974 H   0  0  0  0  0  0  0  0  0  0  0  0
    1.4032   -2.9897    6.4167 H   0  0  0  0  0  0  0  0  0  0  0  0
    1.8007   -1.9182    5.0536 H   0  0  0  0  0  0  0  0  0  0  0  0
    0.7213   -6.1641   -0.7037 H   0  0  0  0  0  0  0  0  0  0  0  0
    1.5108   -4.3936   -2.2514 H   0  0  0  0  0  0  0  0  0  0  0  0
  1  2  1  0  0  0  0
  1 31  1  0  0  0  0
  1 32  1  0  0  0  0
  1 33  1  0  0  0  0
  2  3  1  0  0  0  0
  2 13  2  0  0  0  0
  3  4  2  0  0  0  0
  3 34  1  0  0  0  0
  4  5  1  0  0  0  0
  4 35  1  0  0  0  0
  5  6  1  0  0  0  0
  5 12  2  0  0  0  0
  6  7  2  0  0  0  0
  6  8  1  0  0  0  0
  8  9  1  0  0  0  0
  8 36  1  0  0  0  0
  9 10  1  0  0  0  0
  9 11  1  0  0  0  0
  9 37  1  0  0  0  0
 10 11  1  0  0  0  0
 10 38  1  0  0  0  0
 10 39  1  0  0  0  0
 11 40  1  0  0  0  0
 11 41  1  0  0  0  0
 12 13  1  0  0  0  0
 12 42  1  0  0  0  0
 13 14  1  0  0  0  0
 14 15  1  0  0  0  0
 14 30  2  0  0  0  0
 15 16  2  0  0  0  0
 15 43  1  0  0  0  0
 16 17  1  0  0  0  0
 16 44  1  0  0  0  0
 17 18  1  0  0  0  0
 17 29  2  0  0  0  0
 18 19  1  0  0  0  0
 18 26  2  0  0  0  0
 20 22  1  0  0  0  0
 20 21  1  0  0  0  0
 20 19  1  0  0  0  0
 20 45  1  6  0  0  0
 21 46  1  0  0  0  0
 21 47  1  0  0  0  0
 21 48  1  0  0  0  0
 22 23  1  0  0  0  0
 22 24  1  0  0  0  0
 22 25  1  0  0  0  0
 26 27  1  0  0  0  0
 27 28  2  0  0  0  0
 28 29  1  0  0  0  0
 28 49  1  0  0  0  0
 29 30  1  0  0  0  0
 30 50  1  0  0  0  0
M  END
$$$$
