CHEMBL3902552
 OpenBabel04072215373D

 72 76  0  0  0  0  0  0  0  0999 V2000
    0.5997   -1.8099    0.1153 C   0  0  0  0  0  0  0  0  0  0  0  0
    1.0917   -0.3836   -0.0970 C   0  0  0  0  0  0  0  0  0  0  0  0
    1.7996    0.1880    1.0596 N   0  0  0  0  0  0  0  0  0  0  0  0
    0.9423    0.3852    2.2520 C   0  0  0  0  0  0  0  0  0  0  0  0
   -0.1543    1.4692    2.1167 C   0  0  0  0  0  0  0  0  0  0  0  0
    0.3407    2.7386    1.5385 N   0  0  0  0  0  0  0  0  0  0  0  0
    0.3905    3.9083    2.2841 C   0  0  0  0  0  0  0  0  0  0  0  0
    0.5758    3.9100    3.6684 C   0  0  0  0  0  0  0  0  0  0  0  0
    0.6557    5.0830    4.4325 C   0  0  0  0  0  0  0  0  0  0  0  0
    0.8686    5.0607    5.8391 N   0  0  0  0  0  0  0  0  0  0  0  0
    1.1705    3.9326    6.5785 C   0  0  0  0  0  0  0  0  0  0  0  0
    1.3534    2.8120    6.1082 O   0  0  0  0  0  0  0  0  0  0  0  0
    1.2182    4.1655    7.9471 N   0  0  0  0  0  0  0  0  0  0  0  0
    1.5458    3.0912    8.8191 C   0  0  0  0  0  0  0  0  0  0  0  0
    2.5919    2.2082    8.5133 C   0  0  0  0  0  0  0  0  0  0  0  0
    2.8322    1.0751    9.2955 C   0  0  0  0  0  0  0  0  0  0  0  0
    2.0699    0.8421   10.4409 C   0  0  0  0  0  0  0  0  0  0  0  0
    2.2407   -0.2576   11.2609 O   0  0  0  0  0  0  0  0  0  0  0  0
    3.5165   -0.7122   11.5411 C   0  0  0  0  0  0  0  0  0  0  0  0
    4.6372    0.1116   11.5539 C   0  0  0  0  0  0  0  0  0  0  0  0
    5.8575   -0.4707   11.7991 C   0  0  0  0  0  0  0  0  0  0  0  0
    6.0092   -1.7742   12.0852 N   0  0  0  0  0  0  0  0  0  0  0  0
    4.9265   -2.5674   12.1503 C   0  0  0  0  0  0  0  0  0  0  0  0
    5.0979   -3.9280   12.4907 N   0  0  0  0  0  0  0  0  0  0  0  0
    6.3435   -4.4933   12.7299 C   0  0  0  0  0  0  0  0  0  0  0  0
    7.4253   -3.9215   12.7025 O   0  0  0  0  0  0  0  0  0  0  0  0
    6.4024   -5.9567   13.0269 C   0  0  0  0  0  0  0  0  0  0  0  0
    5.9535   -6.9358   11.9653 C   0  0  0  0  0  0  0  0  0  0  0  0
    5.2754   -6.9103   13.3052 C   0  0  0  0  0  0  0  0  0  0  0  0
    3.6536   -2.0715   11.8808 C   0  0  0  0  0  0  0  0  0  0  0  0
    1.0286    1.7274   10.7402 C   0  0  0  0  0  0  0  0  0  0  0  0
    0.2257    1.4866   11.7876 F   0  0  0  0  0  0  0  0  0  0  0  0
    0.7749    2.8594    9.9554 C   0  0  0  0  0  0  0  0  0  0  0  0
    0.5228    6.3105    3.7788 C   0  0  0  0  0  0  0  0  0  0  0  0
    0.3350    6.3558    2.3834 C   0  0  0  0  0  0  0  0  0  0  0  0
    0.2291    7.6539    1.6229 C   0  0  0  0  0  0  0  0  0  0  0  0
    0.3537    8.7600    2.4130 F   0  0  0  0  0  0  0  0  0  0  0  0
    1.1898    7.7712    0.6686 F   0  0  0  0  0  0  0  0  0  0  0  0
   -0.9594    7.7887    0.9739 F   0  0  0  0  0  0  0  0  0  0  0  0
    0.2646    5.1518    1.6603 C   0  0  0  0  0  0  0  0  0  0  0  0
    1.3146    2.6177    0.4368 C   0  0  0  0  0  0  0  0  0  0  0  0
    2.3649    1.5151    0.7130 C   0  0  0  0  0  0  0  0  0  0  0  0
    0.2152   -2.2078   -0.8306 H   0  0  0  0  0  0  0  0  0  0  0  0
   -0.2163   -1.8546    0.8423 H   0  0  0  0  0  0  0  0  0  0  0  0
    1.4083   -2.4670    0.4497 H   0  0  0  0  0  0  0  0  0  0  0  0
    0.2422    0.2320   -0.4114 H   0  0  0  0  0  0  0  0  0  0  0  0
    1.7886   -0.4133   -0.9446 H   0  0  0  0  0  0  0  0  0  0  0  0
    1.5992    0.6563    3.0903 H   0  0  0  0  0  0  0  0  0  0  0  0
    0.4842   -0.5632    2.5552 H   0  0  0  0  0  0  0  0  0  0  0  0
   -0.6370    1.6138    3.0911 H   0  0  0  0  0  0  0  0  0  0  0  0
   -0.9466    1.0932    1.4595 H   0  0  0  0  0  0  0  0  0  0  0  0
    0.6964    2.9442    4.1356 H   0  0  0  0  0  0  0  0  0  0  0  0
    0.9547    5.9544    6.3098 H   0  0  0  0  0  0  0  0  0  0  0  0
    0.5466    4.8408    8.2845 H   0  0  0  0  0  0  0  0  0  0  0  0
    3.2160    2.3735    7.6357 H   0  0  0  0  0  0  0  0  0  0  0  0
    3.6149    0.3871    8.9868 H   0  0  0  0  0  0  0  0  0  0  0  0
    4.5871    1.1756   11.3608 H   0  0  0  0  0  0  0  0  0  0  0  0
    6.7796    0.1029   11.7689 H   0  0  0  0  0  0  0  0  0  0  0  0
    4.2801   -4.5115   12.5356 H   0  0  0  0  0  0  0  0  0  0  0  0
    7.3322   -6.2090   13.5385 H   0  0  0  0  0  0  0  0  0  0  0  0
    6.6436   -7.7396   11.7304 H   0  0  0  0  0  0  0  0  0  0  0  0
    5.4039   -6.5631   11.1094 H   0  0  0  0  0  0  0  0  0  0  0  0
    5.4893   -7.7370   13.9767 H   0  0  0  0  0  0  0  0  0  0  0  0
    4.2599   -6.5514   13.3710 H   0  0  0  0  0  0  0  0  0  0  0  0
    2.7769   -2.7045   11.9220 H   0  0  0  0  0  0  0  0  0  0  0  0
   -0.0679    3.4929   10.2088 H   0  0  0  0  0  0  0  0  0  0  0  0
    0.5734    7.2442    4.3344 H   0  0  0  0  0  0  0  0  0  0  0  0
    0.0907    5.1871    0.5852 H   0  0  0  0  0  0  0  0  0  0  0  0
    1.8552    3.5545    0.2551 H   0  0  0  0  0  0  0  0  0  0  0  0
    0.7651    2.3985   -0.4848 H   0  0  0  0  0  0  0  0  0  0  0  0
    3.0086    1.8388    1.5429 H   0  0  0  0  0  0  0  0  0  0  0  0
    3.0309    1.4200   -0.1530 H   0  0  0  0  0  0  0  0  0  0  0  0
  1  2  1  0  0  0  0
  1 43  1  0  0  0  0
  1 44  1  0  0  0  0
  1 45  1  0  0  0  0
  2  3  1  0  0  0  0
  2 46  1  0  0  0  0
  2 47  1  0  0  0  0
  3  4  1  0  0  0  0
  3 42  1  0  0  0  0
  4  5  1  0  0  0  0
  4 48  1  0  0  0  0
  4 49  1  0  0  0  0
  5  6  1  0  0  0  0
  5 50  1  0  0  0  0
  5 51  1  0  0  0  0
  6  7  1  0  0  0  0
  6 41  1  0  0  0  0
  7  8  1  0  0  0  0
  7 40  2  0  0  0  0
  8  9  2  0  0  0  0
  8 52  1  0  0  0  0
  9 10  1  0  0  0  0
  9 34  1  0  0  0  0
 10 11  1  0  0  0  0
 10 53  1  0  0  0  0
 11 12  2  0  0  0  0
 11 13  1  0  0  0  0
 13 14  1  0  0  0  0
 13 54  1  0  0  0  0
 14 15  1  0  0  0  0
 14 33  2  0  0  0  0
 15 16  2  0  0  0  0
 15 55  1  0  0  0  0
 16 17  1  0  0  0  0
 16 56  1  0  0  0  0
 17 18  1  0  0  0  0
 17 31  2  0  0  0  0
 18 19  1  0  0  0  0
 19 20  1  0  0  0  0
 19 30  2  0  0  0  0
 20 21  2  0  0  0  0
 20 57  1  0  0  0  0
 21 22  1  0  0  0  0
 21 58  1  0  0  0  0
 22 23  2  0  0  0  0
 23 24  1  0  0  0  0
 23 30  1  0  0  0  0
 24 25  1  0  0  0  0
 24 59  1  0  0  0  0
 25 26  2  0  0  0  0
 25 27  1  0  0  0  0
 27 28  1  0  0  0  0
 27 29  1  0  0  0  0
 27 60  1  0  0  0  0
 28 29  1  0  0  0  0
 28 61  1  0  0  0  0
 28 62  1  0  0  0  0
 29 63  1  0  0  0  0
 29 64  1  0  0  0  0
 30 65  1  0  0  0  0
 31 32  1  0  0  0  0
 31 33  1  0  0  0  0
 33 66  1  0  0  0  0
 34 35  2  0  0  0  0
 34 67  1  0  0  0  0
 35 36  1  0  0  0  0
 35 40  1  0  0  0  0
 36 37  1  0  0  0  0
 36 38  1  0  0  0  0
 36 39  1  0  0  0  0
 40 68  1  0  0  0  0
 41 42  1  0  0  0  0
 41 69  1  0  0  0  0
 41 70  1  0  0  0  0
 42 71  1  0  0  0  0
 42 72  1  0  0  0  0
M  END
$$$$
