CHEMBL400253
 OpenBabel04072215373D

 44 47  0  0  0  0  0  0  0  0999 V2000
    3.1906    0.6150   -0.7400 C   0  0  0  0  0  0  0  0  0  0  0  0
    2.3341   -0.2370    0.0239 O   0  0  0  0  0  0  0  0  0  0  0  0
    2.9584   -0.8813    1.0742 C   0  0  0  0  0  0  0  0  0  0  0  0
    3.9062   -0.2301    1.8746 C   0  0  0  0  0  0  0  0  0  0  0  0
    4.5624   -0.9153    2.8883 C   0  0  0  0  0  0  0  0  0  0  0  0
    4.2687   -2.2478    3.1894 C   0  0  0  0  0  0  0  0  0  0  0  0
    5.1732   -2.8568    4.0373 O   0  0  0  0  0  0  0  0  0  0  0  0
    4.6441   -3.3612    5.2540 C   0  0  0  0  0  0  0  0  0  0  0  0
    3.2589   -2.8942    2.4379 C   0  0  0  0  0  0  0  0  0  0  0  0
    2.6005   -2.2283    1.3759 C   0  0  0  0  0  0  0  0  0  0  0  0
    1.6908   -3.1706    0.7765 C   0  0  0  0  0  0  0  0  0  0  0  0
    0.8071   -2.9853   -0.3313 C   0  0  0  0  0  0  0  0  0  0  0  0
    0.3571   -3.8898   -1.2185 C   0  0  0  0  0  0  0  0  0  0  0  0
    0.7646   -5.3035   -1.4388 C   0  0  0  0  0  0  0  0  0  0  0  0
    1.4075   -6.0650   -0.7461 O   0  0  0  0  0  0  0  0  0  0  0  0
    0.2181   -5.5945   -2.6773 N   0  0  0  0  0  0  0  0  0  0  0  0
   -0.6124   -4.6308   -3.1902 N   0  0  0  0  0  0  0  0  0  0  0  0
   -0.6003   -3.6334   -2.3347 C   0  0  0  0  0  0  0  0  0  0  0  0
   -1.5076   -2.5331   -2.4872 C   0  0  0  0  0  0  0  0  0  0  0  0
   -2.2187   -1.7394   -1.1402 S   0  0  0  0  0  0  0  0  0  0  0  0
   -3.1451   -0.7293   -2.0827 N   0  0  0  0  0  0  0  0  0  0  0  0
   -3.0112   -0.9704   -3.3728 N   0  0  0  0  0  0  0  0  0  0  0  0
   -2.1151   -2.0063   -3.6222 C   0  0  0  0  0  0  0  0  0  0  0  0
   -1.9237   -2.4125   -5.0386 C   0  0  0  0  0  0  0  0  0  0  0  0
    1.7341   -4.3065    1.5358 C   0  0  0  0  0  0  0  0  0  0  0  0
    2.7055   -4.1648    2.4881 N   0  0  0  0  0  0  0  0  0  0  0  0
    2.9800   -5.2380    3.4148 C   0  0  0  0  0  0  0  0  0  0  0  0
    2.6418    0.9347   -1.6314 H   0  0  0  0  0  0  0  0  0  0  0  0
    4.0918    0.0859   -1.0700 H   0  0  0  0  0  0  0  0  0  0  0  0
    3.4528    1.5220   -0.1861 H   0  0  0  0  0  0  0  0  0  0  0  0
    4.1635    0.8108    1.7080 H   0  0  0  0  0  0  0  0  0  0  0  0
    5.3443   -0.4011    3.4499 H   0  0  0  0  0  0  0  0  0  0  0  0
    5.3174   -3.0871    6.0720 H   0  0  0  0  0  0  0  0  0  0  0  0
    4.6657   -4.4525    5.2090 H   0  0  0  0  0  0  0  0  0  0  0  0
    3.6381   -2.9998    5.4891 H   0  0  0  0  0  0  0  0  0  0  0  0
    0.4969   -1.9537   -0.4570 H   0  0  0  0  0  0  0  0  0  0  0  0
    0.2936   -6.5059   -3.1137 H   0  0  0  0  0  0  0  0  0  0  0  0
   -2.6668   -1.9282   -5.6818 H   0  0  0  0  0  0  0  0  0  0  0  0
   -2.0415   -3.4925   -5.1638 H   0  0  0  0  0  0  0  0  0  0  0  0
   -0.9304   -2.1192   -5.3901 H   0  0  0  0  0  0  0  0  0  0  0  0
    1.1729   -5.2288    1.4680 H   0  0  0  0  0  0  0  0  0  0  0  0
    2.3666   -6.1101    3.1623 H   0  0  0  0  0  0  0  0  0  0  0  0
    2.6873   -4.9138    4.4150 H   0  0  0  0  0  0  0  0  0  0  0  0
    4.0318   -5.5135    3.3384 H   0  0  0  0  0  0  0  0  0  0  0  0
  1  2  1  0  0  0  0
  1 28  1  0  0  0  0
  1 29  1  0  0  0  0
  1 30  1  0  0  0  0
  2  3  1  0  0  0  0
  3  4  1  0  0  0  0
  3 10  2  0  0  0  0
  4  5  2  0  0  0  0
  4 31  1  0  0  0  0
  5  6  1  0  0  0  0
  5 32  1  0  0  0  0
  6  7  1  0  0  0  0
  6  9  2  0  0  0  0
  7  8  1  0  0  0  0
  8 33  1  0  0  0  0
  8 34  1  0  0  0  0
  8 35  1  0  0  0  0
  9 10  1  0  0  0  0
  9 26  1  0  0  0  0
 10 11  1  0  0  0  0
 11 12  1  0  0  0  0
 11 25  2  0  0  0  0
 12 13  2  0  0  0  0
 12 36  1  0  0  0  0
 13 14  1  0  0  0  0
 13 18  1  0  0  0  0
 14 15  2  0  0  0  0
 14 16  1  0  0  0  0
 16 17  1  0  0  0  0
 16 37  1  0  0  0  0
 17 18  2  0  0  0  0
 18 19  1  0  0  0  0
 19 20  1  0  0  0  0
 19 23  2  0  0  0  0
 20 21  1  0  0  0  0
 21 22  2  0  0  0  0
 22 23  1  0  0  0  0
 23 24  1  0  0  0  0
 24 38  1  0  0  0  0
 24 39  1  0  0  0  0
 24 40  1  0  0  0  0
 25 26  1  0  0  0  0
 25 41  1  0  0  0  0
 26 27  1  0  0  0  0
 27 42  1  0  0  0  0
 27 43  1  0  0  0  0
 27 44  1  0  0  0  0
M  END
$$$$
