CHEMBL215289
 OpenBabel04072215363D

 88 92  0  0  0  0  0  0  0  0999 V2000
    0.6082    1.5169    0.3197 C   0  0  0  0  0  0  0  0  0  0  0  0
    1.9960    1.2357    0.2406 O   0  0  0  0  0  0  0  0  0  0  0  0
    2.7187    1.2076    1.4000 C   0  0  0  0  0  0  0  0  0  0  0  0
    2.2516    1.4278    2.6910 C   0  0  0  0  0  0  0  0  0  0  0  0
    3.1388    1.3604    3.7829 C   0  0  0  0  0  0  0  0  0  0  0  0
    4.5104    1.1014    3.5970 C   0  0  0  0  0  0  0  0  0  0  0  0
    5.4170    1.0942    4.7129 N   0  0  0  0  0  0  0  0  0  0  0  0
    6.4983    1.9772    4.8082 C   0  0  0  0  0  0  0  0  0  0  0  0
    7.4943    1.7792    5.5106 O   0  0  0  0  0  0  0  0  0  0  0  0
    6.2987    3.1572    4.0879 O   0  0  0  0  0  0  0  0  0  0  0  0
    6.9089    4.4135    4.3958 C   0  0  0  0  0  0  0  0  0  0  0  0
    6.8805    4.9929    5.6805 C   0  0  0  0  0  0  0  0  0  0  0  0
    6.4993    4.3207    6.9673 C   0  0  0  0  0  0  0  0  0  0  0  0
    7.2017    6.3605    5.7971 C   0  0  0  0  0  0  0  0  0  0  0  0
    7.5692    7.1214    4.6918 C   0  0  0  0  0  0  0  0  0  0  0  0
    7.6563    6.5211    3.4417 C   0  0  0  0  0  0  0  0  0  0  0  0
    7.3262    5.1669    3.2755 C   0  0  0  0  0  0  0  0  0  0  0  0
    7.4574    4.5511    1.9118 C   0  0  0  0  0  0  0  0  0  0  0  0
    5.0190    0.3987    5.8859 C   0  0  0  0  0  0  0  0  0  0  0  0
    4.8918   -0.9694    5.8122 C   0  0  0  0  0  0  0  0  0  0  0  0
    4.5041   -1.5939    6.9674 C   0  0  0  0  0  0  0  0  0  0  0  0
    4.1845   -0.9380    8.0886 N   0  0  0  0  0  0  0  0  0  0  0  0
    4.3519    0.3889    8.1066 C   0  0  0  0  0  0  0  0  0  0  0  0
    4.0914    1.0931    9.2800 N   0  0  0  0  0  0  0  0  0  0  0  0
    3.1309    0.8599   10.2778 C   0  0  0  0  0  0  0  0  0  0  0  0
    2.0206    0.0250   10.0820 C   0  0  0  0  0  0  0  0  0  0  0  0
    1.0747   -0.2008   11.0947 C   0  0  0  0  0  0  0  0  0  0  0  0
    1.2331    0.3884   12.3472 C   0  0  0  0  0  0  0  0  0  0  0  0
    0.3411    0.2878   13.3807 O   0  0  0  0  0  0  0  0  0  0  0  0
   -0.4497   -0.9054   13.4169 C   0  0  0  0  0  0  0  0  0  0  0  0
   -1.3639   -0.8455   14.6414 C   0  0  0  0  0  0  0  0  0  0  0  0
   -2.1996   -2.1220   14.8081 C   0  0  0  0  0  0  0  0  0  0  0  0
   -1.3807   -3.3353   14.8807 N   0  0  0  0  0  0  0  0  0  0  0  0
   -0.4998   -3.3699   16.0633 C   0  0  0  0  0  0  0  0  0  0  0  0
    0.3954   -4.6289   16.0515 C   0  0  0  0  0  0  0  0  0  0  0  0
   -0.3402   -5.9063   15.9821 N   0  0  0  0  0  0  0  0  0  0  0  0
   -0.9801   -6.2198   17.2565 C   0  0  0  0  0  0  0  0  0  0  0  0
   -1.3207   -5.8399   14.8781 C   0  0  0  0  0  0  0  0  0  0  0  0
   -2.1991   -4.5622   14.8440 C   0  0  0  0  0  0  0  0  0  0  0  0
    2.3529    1.1943   12.5579 C   0  0  0  0  0  0  0  0  0  0  0  0
    2.5551    1.7582   13.7594 F   0  0  0  0  0  0  0  0  0  0  0  0
    3.2926    1.4254   11.5471 C   0  0  0  0  0  0  0  0  0  0  0  0
    4.8008    1.0860    7.0351 N   0  0  0  0  0  0  0  0  0  0  0  0
    4.9738    0.8668    2.2854 C   0  0  0  0  0  0  0  0  0  0  0  0
    6.2919    0.5059    2.1370 O   0  0  0  0  0  0  0  0  0  0  0  0
    6.7892    0.4756    0.8003 C   0  0  0  0  0  0  0  0  0  0  0  0
    4.0697    0.9171    1.2114 C   0  0  0  0  0  0  0  0  0  0  0  0
    0.2088    1.4985   -0.6990 H   0  0  0  0  0  0  0  0  0  0  0  0
    0.4273    2.5154    0.7300 H   0  0  0  0  0  0  0  0  0  0  0  0
    0.0826    0.7463    0.8961 H   0  0  0  0  0  0  0  0  0  0  0  0
    1.2105    1.6663    2.8822 H   0  0  0  0  0  0  0  0  0  0  0  0
    2.7487    1.5723    4.7772 H   0  0  0  0  0  0  0  0  0  0  0  0
    6.4252    3.2417    6.9170 H   0  0  0  0  0  0  0  0  0  0  0  0
    5.5396    4.7028    7.3261 H   0  0  0  0  0  0  0  0  0  0  0  0
    7.2659    4.5320    7.7245 H   0  0  0  0  0  0  0  0  0  0  0  0
    7.1460    6.8476    6.7698 H   0  0  0  0  0  0  0  0  0  0  0  0
    7.7909    8.1787    4.8103 H   0  0  0  0  0  0  0  0  0  0  0  0
    7.9635    7.1247    2.5909 H   0  0  0  0  0  0  0  0  0  0  0  0
    7.6784    5.3113    1.1533 H   0  0  0  0  0  0  0  0  0  0  0  0
    6.5325    4.0512    1.6126 H   0  0  0  0  0  0  0  0  0  0  0  0
    8.2842    3.8330    1.9075 H   0  0  0  0  0  0  0  0  0  0  0  0
    5.1452   -1.5303    4.9214 H   0  0  0  0  0  0  0  0  0  0  0  0
    4.4519   -2.6771    7.0372 H   0  0  0  0  0  0  0  0  0  0  0  0
    4.5927    1.9665    9.3099 H   0  0  0  0  0  0  0  0  0  0  0  0
    1.8482   -0.4373    9.1123 H   0  0  0  0  0  0  0  0  0  0  0  0
    0.2158   -0.8179   10.8560 H   0  0  0  0  0  0  0  0  0  0  0  0
    0.2223   -1.7705   13.4719 H   0  0  0  0  0  0  0  0  0  0  0  0
   -1.0816   -0.9818   12.5263 H   0  0  0  0  0  0  0  0  0  0  0  0
   -2.0384    0.0146   14.5407 H   0  0  0  0  0  0  0  0  0  0  0  0
   -0.7756   -0.6351   15.5422 H   0  0  0  0  0  0  0  0  0  0  0  0
   -2.8647   -2.1937   13.9372 H   0  0  0  0  0  0  0  0  0  0  0  0
   -2.8451   -2.0279   15.6904 H   0  0  0  0  0  0  0  0  0  0  0  0
   -1.0905   -3.3292   16.9875 H   0  0  0  0  0  0  0  0  0  0  0  0
    0.1711   -2.5053   16.0726 H   0  0  0  0  0  0  0  0  0  0  0  0
    1.0589   -4.6170   16.9248 H   0  0  0  0  0  0  0  0  0  0  0  0
    1.0603   -4.5713   15.1785 H   0  0  0  0  0  0  0  0  0  0  0  0
   -0.2329   -6.2622   18.0571 H   0  0  0  0  0  0  0  0  0  0  0  0
   -1.4446   -7.2107   17.2125 H   0  0  0  0  0  0  0  0  0  0  0  0
   -1.7477   -5.4961   17.5475 H   0  0  0  0  0  0  0  0  0  0  0  0
   -1.9628   -6.7291   14.8891 H   0  0  0  0  0  0  0  0  0  0  0  0
   -0.7611   -5.8945   13.9341 H   0  0  0  0  0  0  0  0  0  0  0  0
   -2.9092   -4.5790   15.6811 H   0  0  0  0  0  0  0  0  0  0  0  0
   -2.7885   -4.5835   13.9196 H   0  0  0  0  0  0  0  0  0  0  0  0
    4.1534    2.0466   11.7789 H   0  0  0  0  0  0  0  0  0  0  0  0
    7.8429    0.1868    0.8331 H   0  0  0  0  0  0  0  0  0  0  0  0
    6.7217    1.4703    0.3466 H   0  0  0  0  0  0  0  0  0  0  0  0
    6.2722   -0.2721    0.1870 H   0  0  0  0  0  0  0  0  0  0  0  0
    4.3815    0.7178    0.1903 H   0  0  0  0  0  0  0  0  0  0  0  0
  1  2  1  0  0  0  0
  1 48  1  0  0  0  0
  1 49  1  0  0  0  0
  1 50  1  0  0  0  0
  2  3  1  0  0  0  0
  3  4  1  0  0  0  0
  3 47  2  0  0  0  0
  4  5  2  0  0  0  0
  4 51  1  0  0  0  0
  5  6  1  0  0  0  0
  5 52  1  0  0  0  0
  6  7  1  0  0  0  0
  6 44  2  0  0  0  0
  7  8  1  0  0  0  0
  7 19  1  0  0  0  0
  8  9  2  0  0  0  0
  8 10  1  0  0  0  0
 10 11  1  0  0  0  0
 11 12  1  0  0  0  0
 11 17  2  0  0  0  0
 12 13  1  0  0  0  0
 12 14  2  0  0  0  0
 13 53  1  0  0  0  0
 13 54  1  0  0  0  0
 13 55  1  0  0  0  0
 14 15  1  0  0  0  0
 14 56  1  0  0  0  0
 15 16  2  0  0  0  0
 15 57  1  0  0  0  0
 16 17  1  0  0  0  0
 16 58  1  0  0  0  0
 17 18  1  0  0  0  0
 18 59  1  0  0  0  0
 18 60  1  0  0  0  0
 18 61  1  0  0  0  0
 19 20  1  0  0  0  0
 19 43  2  0  0  0  0
 20 21  2  0  0  0  0
 20 62  1  0  0  0  0
 21 22  1  0  0  0  0
 21 63  1  0  0  0  0
 22 23  2  0  0  0  0
 23 24  1  0  0  0  0
 23 43  1  0  0  0  0
 24 25  1  0  0  0  0
 24 64  1  0  0  0  0
 25 26  1  0  0  0  0
 25 42  2  0  0  0  0
 26 27  2  0  0  0  0
 26 65  1  0  0  0  0
 27 28  1  0  0  0  0
 27 66  1  0  0  0  0
 28 29  1  0  0  0  0
 28 40  2  0  0  0  0
 29 30  1  0  0  0  0
 30 31  1  0  0  0  0
 30 67  1  0  0  0  0
 30 68  1  0  0  0  0
 31 32  1  0  0  0  0
 31 69  1  0  0  0  0
 31 70  1  0  0  0  0
 32 33  1  0  0  0  0
 32 71  1  0  0  0  0
 32 72  1  0  0  0  0
 33 34  1  0  0  0  0
 33 39  1  0  0  0  0
 34 35  1  0  0  0  0
 34 73  1  0  0  0  0
 34 74  1  0  0  0  0
 35 36  1  0  0  0  0
 35 75  1  0  0  0  0
 35 76  1  0  0  0  0
 36 37  1  0  0  0  0
 36 38  1  0  0  0  0
 37 77  1  0  0  0  0
 37 78  1  0  0  0  0
 37 79  1  0  0  0  0
 38 39  1  0  0  0  0
 38 80  1  0  0  0  0
 38 81  1  0  0  0  0
 39 82  1  0  0  0  0
 39 83  1  0  0  0  0
 40 41  1  0  0  0  0
 40 42  1  0  0  0  0
 42 84  1  0  0  0  0
 44 45  1  0  0  0  0
 44 47  1  0  0  0  0
 45 46  1  0  0  0  0
 46 85  1  0  0  0  0
 46 86  1  0  0  0  0
 46 87  1  0  0  0  0
 47 88  1  0  0  0  0
M  END
$$$$
