CHEMBL1233882
 OpenBabel04072215363D

 39 42  0  0  0  0  0  0  0  0999 V2000
    1.5611    0.9165    0.4611 C   0  0  0  0  0  0  0  0  0  0  0  0
    2.6421   -0.1352    0.1864 C   0  0  0  0  0  0  0  0  0  0  0  0
    3.7323    0.4393   -0.7159 C   0  0  0  0  0  0  0  0  0  0  0  0
    3.1978   -0.6856    1.4197 N   0  0  0  0  0  0  0  0  0  0  0  0
    3.7728    0.1310    2.3200 N   0  0  0  0  0  0  0  0  0  0  0  0
    3.9830   -0.6397    3.4082 C   0  0  0  0  0  0  0  0  0  0  0  0
    4.3463    0.0347    4.6661 C   0  0  0  0  0  0  0  0  0  0  0  0
    3.7344    1.2731    4.9051 C   0  0  0  0  0  0  0  0  0  0  0  0
    3.9660    1.9875    6.0769 C   0  0  0  0  0  0  0  0  0  0  0  0
    4.8055    1.5116    7.0576 C   0  0  0  0  0  0  0  0  0  0  0  0
    4.9517    2.2600    8.1590 N   0  0  0  0  0  0  0  0  0  0  0  0
    5.7632    1.8020    9.1301 C   0  0  0  0  0  0  0  0  0  0  0  0
    6.4426    0.6032    9.0493 C   0  0  0  0  0  0  0  0  0  0  0  0
    6.2831   -0.1722    7.8972 C   0  0  0  0  0  0  0  0  0  0  0  0
    5.4464    0.2676    6.8511 C   0  0  0  0  0  0  0  0  0  0  0  0
    5.2252   -0.4602    5.6416 C   0  0  0  0  0  0  0  0  0  0  0  0
    3.6420   -2.0024    3.1343 C   0  0  0  0  0  0  0  0  0  0  0  0
    3.6047   -3.2414    3.7876 C   0  0  0  0  0  0  0  0  0  0  0  0
    4.0072   -3.4673    5.0980 N   0  0  0  0  0  0  0  0  0  0  0  0
    3.1132   -4.3139    3.1285 N   0  0  0  0  0  0  0  0  0  0  0  0
    2.6562   -4.1504    1.8732 C   0  0  0  0  0  0  0  0  0  0  0  0
    2.6199   -3.0207    1.1545 N   0  0  0  0  0  0  0  0  0  0  0  0
    3.1326   -1.9839    1.8408 C   0  0  0  0  0  0  0  0  0  0  0  0
    1.1239    1.2750   -0.4778 H   0  0  0  0  0  0  0  0  0  0  0  0
    1.9642    1.7863    0.9922 H   0  0  0  0  0  0  0  0  0  0  0  0
    0.7513    0.5005    1.0702 H   0  0  0  0  0  0  0  0  0  0  0  0
    2.1653   -0.9664   -0.3464 H   0  0  0  0  0  0  0  0  0  0  0  0
    4.2266    1.3003   -0.2527 H   0  0  0  0  0  0  0  0  0  0  0  0
    3.3067    0.7709   -1.6695 H   0  0  0  0  0  0  0  0  0  0  0  0
    4.4987   -0.3125   -0.9308 H   0  0  0  0  0  0  0  0  0  0  0  0
    3.0589    1.7011    4.1645 H   0  0  0  0  0  0  0  0  0  0  0  0
    3.4729    2.9464    6.2201 H   0  0  0  0  0  0  0  0  0  0  0  0
    5.8487    2.4499    9.9987 H   0  0  0  0  0  0  0  0  0  0  0  0
    7.0784    0.2832    9.8676 H   0  0  0  0  0  0  0  0  0  0  0  0
    6.8110   -1.1203    7.8292 H   0  0  0  0  0  0  0  0  0  0  0  0
    5.7533   -1.3996    5.4794 H   0  0  0  0  0  0  0  0  0  0  0  0
    3.8054   -2.7003    5.7259 H   0  0  0  0  0  0  0  0  0  0  0  0
    3.6552   -4.3693    5.4039 H   0  0  0  0  0  0  0  0  0  0  0  0
    2.2580   -5.0378    1.3898 H   0  0  0  0  0  0  0  0  0  0  0  0
  1  2  1  0  0  0  0
  1 24  1  0  0  0  0
  1 25  1  0  0  0  0
  1 26  1  0  0  0  0
  2  3  1  0  0  0  0
  2  4  1  0  0  0  0
  2 27  1  0  0  0  0
  3 28  1  0  0  0  0
  3 29  1  0  0  0  0
  3 30  1  0  0  0  0
  4  5  1  0  0  0  0
  4 23  1  0  0  0  0
  5  6  2  0  0  0  0
  6  7  1  0  0  0  0
  6 17  1  0  0  0  0
  7  8  1  0  0  0  0
  7 16  2  0  0  0  0
  8  9  2  0  0  0  0
  8 31  1  0  0  0  0
  9 10  1  0  0  0  0
  9 32  1  0  0  0  0
 10 11  1  0  0  0  0
 10 15  2  0  0  0  0
 11 12  2  0  0  0  0
 12 13  1  0  0  0  0
 12 33  1  0  0  0  0
 13 14  2  0  0  0  0
 13 34  1  0  0  0  0
 14 15  1  0  0  0  0
 14 35  1  0  0  0  0
 15 16  1  0  0  0  0
 16 36  1  0  0  0  0
 17 18  1  0  0  0  0
 17 23  2  0  0  0  0
 18 19  1  0  0  0  0
 18 20  2  0  0  0  0
 19 37  1  0  0  0  0
 19 38  1  0  0  0  0
 20 21  1  0  0  0  0
 21 22  2  0  0  0  0
 21 39  1  0  0  0  0
 22 23  1  0  0  0  0
M  END
$$$$
