CHEMBL3964675
 OpenBabel04072215373D

 78 83  0  0  1  0  0  0  0  0999 V2000
    4.7230    3.9000    5.8064 C   0  0  0  0  0  0  0  0  0  0  0  0
    4.6871    2.7646    4.9446 O   0  0  0  0  0  0  0  0  0  0  0  0
    5.8837    2.1631    4.6427 C   0  0  0  0  0  0  0  0  0  0  0  0
    7.1382    2.6622    4.9583 C   0  0  0  0  0  0  0  0  0  0  0  0
    8.2754    1.9474    4.5750 C   0  0  0  0  0  0  0  0  0  0  0  0
    9.5672    2.3405    4.8150 O   0  0  0  0  0  0  0  0  0  0  0  0
    9.7494    3.4802    5.6485 C   0  0  0  0  0  0  0  0  0  0  0  0
    8.1539    0.7187    3.8903 C   0  0  0  0  0  0  0  0  0  0  0  0
    6.9094    0.1453    3.6107 C   0  0  0  0  0  0  0  0  0  0  0  0
    6.7908   -1.1267    2.9610 N   0  0  0  0  0  0  0  0  0  0  0  0
    5.4419   -1.7868    3.1336 C   0  0  0  0  0  0  0  0  0  0  0  0
    4.2913   -1.5265    2.1710 C   0  0  0  0  0  0  0  0  0  0  0  0
    4.3682   -1.7407    0.6729 C   0  0  0  0  0  0  0  0  0  0  0  0
    4.0424   -0.3793    1.2134 C   0  0  0  0  0  0  0  0  0  0  0  0
    7.7726   -2.1635    2.7134 C   0  0  0  0  0  0  0  0  0  0  0  0
    7.5809   -2.8614    1.5303 C   0  0  0  0  0  0  0  0  0  0  0  0
    8.0164   -4.1543    1.3800 C   0  0  0  0  0  0  0  0  0  0  0  0
    8.8482   -4.7385    2.3080 C   0  0  0  0  0  0  0  0  0  0  0  0
    9.0460   -6.0425    2.1110 N   0  0  0  0  0  0  0  0  0  0  0  0
   10.0441   -6.6034    2.7935 C   0  0  0  0  0  0  0  0  0  0  0  0
   10.9016   -5.8582    3.5773 C   0  0  0  0  0  0  0  0  0  0  0  0
   12.2673   -6.3965    3.6332 C   0  0  0  0  0  0  0  0  0  0  0  0
   13.0310   -7.0542    4.6237 C   0  0  0  0  0  0  0  0  0  0  0  0
   14.1667   -7.5969    4.1438 N   0  0  0  0  0  0  0  0  0  0  0  0
   14.1634   -7.2597    2.8350 N   0  0  0  0  0  0  0  0  0  0  0  0
   15.4026   -7.2336    2.0702 C   0  0  0  0  0  0  0  0  0  0  0  0
   16.0297   -8.5532    1.5803 C   0  0  3  0  0  0  0  0  0  0  0  0
   16.2979   -9.4761    2.6416 O   0  0  0  0  0  0  0  0  0  0  0  0
   15.2811   -9.2824    0.4407 C   0  0  0  0  0  0  0  0  0  0  0  0
   15.0526   -8.5023   -0.7965 N   0  0  0  0  0  0  0  0  0  0  0  0
   16.3145   -8.1299   -1.4676 C   0  0  0  0  0  0  0  0  0  0  0  0
   16.0475   -7.2795   -2.7136 C   0  0  0  0  0  0  0  0  0  0  0  0
   15.1307   -7.9961   -3.6956 C   0  0  0  0  0  0  0  0  0  0  0  0
   13.8765   -8.4918   -2.9868 C   0  0  0  0  0  0  0  0  0  0  0  0
   14.2206   -9.2927   -1.7291 C   0  0  0  0  0  0  0  0  0  0  0  0
   12.9857   -6.6625    2.4699 C   0  0  0  0  0  0  0  0  0  0  0  0
   10.5794   -4.5552    3.9264 N   0  0  0  0  0  0  0  0  0  0  0  0
    9.4599   -3.9659    3.3216 C   0  0  0  0  0  0  0  0  0  0  0  0
    8.7996   -2.6753    3.5644 C   0  0  0  0  0  0  0  0  0  0  0  0
    5.7858    0.9385    3.9588 C   0  0  0  0  0  0  0  0  0  0  0  0
    3.6920    4.1635    6.0641 H   0  0  0  0  0  0  0  0  0  0  0  0
    5.1697    4.7632    5.3014 H   0  0  0  0  0  0  0  0  0  0  0  0
    5.2468    3.6788    6.7434 H   0  0  0  0  0  0  0  0  0  0  0  0
    7.2307    3.6037    5.4835 H   0  0  0  0  0  0  0  0  0  0  0  0
   10.8222    3.5956    5.8272 H   0  0  0  0  0  0  0  0  0  0  0  0
    9.2649    3.3464    6.6221 H   0  0  0  0  0  0  0  0  0  0  0  0
    9.3930    4.3895    5.1527 H   0  0  0  0  0  0  0  0  0  0  0  0
    9.0658    0.2180    3.5819 H   0  0  0  0  0  0  0  0  0  0  0  0
    5.0773   -1.5842    4.1504 H   0  0  0  0  0  0  0  0  0  0  0  0
    5.5502   -2.8800    3.1412 H   0  0  0  0  0  0  0  0  0  0  0  0
    3.3877   -1.9194    2.6395 H   0  0  0  0  0  0  0  0  0  0  0  0
    3.5801   -2.3345    0.2195 H   0  0  0  0  0  0  0  0  0  0  0  0
    5.2884   -1.7787    0.1145 H   0  0  0  0  0  0  0  0  0  0  0  0
    3.0187   -0.0459    1.0571 H   0  0  0  0  0  0  0  0  0  0  0  0
    4.7810    0.4001    1.0805 H   0  0  0  0  0  0  0  0  0  0  0  0
    6.9736   -2.4462    0.7435 H   0  0  0  0  0  0  0  0  0  0  0  0
    7.7048   -4.7371    0.5245 H   0  0  0  0  0  0  0  0  0  0  0  0
   10.2307   -7.6519    2.5718 H   0  0  0  0  0  0  0  0  0  0  0  0
   12.8011   -7.1985    5.6723 H   0  0  0  0  0  0  0  0  0  0  0  0
   16.1245   -6.7369    2.7305 H   0  0  0  0  0  0  0  0  0  0  0  0
   15.2394   -6.5618    1.2196 H   0  0  0  0  0  0  0  0  0  0  0  0
   17.0256   -8.2946    1.1991 H   0  0  0  0  0  0  0  0  0  0  0  0
   15.5027   -9.5276    3.2067 H   0  0  0  0  0  0  0  0  0  0  0  0
   14.3165   -9.6151    0.8453 H   0  0  0  0  0  0  0  0  0  0  0  0
   15.8284  -10.2063    0.2024 H   0  0  0  0  0  0  0  0  0  0  0  0
   16.8907   -9.0228   -1.7462 H   0  0  0  0  0  0  0  0  0  0  0  0
   16.9439   -7.5298   -0.8034 H   0  0  0  0  0  0  0  0  0  0  0  0
   16.9952   -7.0336   -3.2065 H   0  0  0  0  0  0  0  0  0  0  0  0
   15.5890   -6.3283   -2.4139 H   0  0  0  0  0  0  0  0  0  0  0  0
   15.6627   -8.8456   -4.1410 H   0  0  0  0  0  0  0  0  0  0  0  0
   14.8580   -7.3230   -4.5165 H   0  0  0  0  0  0  0  0  0  0  0  0
   13.2886   -9.1122   -3.6728 H   0  0  0  0  0  0  0  0  0  0  0  0
   13.2488   -7.6345   -2.7130 H   0  0  0  0  0  0  0  0  0  0  0  0
   14.7323  -10.2224   -2.0161 H   0  0  0  0  0  0  0  0  0  0  0  0
   13.2811   -9.5772   -1.2413 H   0  0  0  0  0  0  0  0  0  0  0  0
   12.7755   -6.4447    1.4310 H   0  0  0  0  0  0  0  0  0  0  0  0
    9.0888   -2.1271    4.4570 H   0  0  0  0  0  0  0  0  0  0  0  0
    4.7773    0.6241    3.7033 H   0  0  0  0  0  0  0  0  0  0  0  0
  1  2  1  0  0  0  0
  1 41  1  0  0  0  0
  1 42  1  0  0  0  0
  1 43  1  0  0  0  0
  2  3  1  0  0  0  0
  3  4  1  0  0  0  0
  3 40  2  0  0  0  0
  4  5  2  0  0  0  0
  4 44  1  0  0  0  0
  5  6  1  0  0  0  0
  5  8  1  0  0  0  0
  6  7  1  0  0  0  0
  7 45  1  0  0  0  0
  7 46  1  0  0  0  0
  7 47  1  0  0  0  0
  8  9  2  0  0  0  0
  8 48  1  0  0  0  0
  9 10  1  0  0  0  0
  9 40  1  0  0  0  0
 10 11  1  0  0  0  0
 10 15  1  0  0  0  0
 11 12  1  0  0  0  0
 11 49  1  0  0  0  0
 11 50  1  0  0  0  0
 12 13  1  0  0  0  0
 12 14  1  0  0  0  0
 12 51  1  0  0  0  0
 13 14  1  0  0  0  0
 13 52  1  0  0  0  0
 13 53  1  0  0  0  0
 14 54  1  0  0  0  0
 14 55  1  0  0  0  0
 15 16  1  0  0  0  0
 15 39  2  0  0  0  0
 16 17  2  0  0  0  0
 16 56  1  0  0  0  0
 17 18  1  0  0  0  0
 17 57  1  0  0  0  0
 18 19  1  0  0  0  0
 18 38  2  0  0  0  0
 19 20  2  0  0  0  0
 20 21  1  0  0  0  0
 20 58  1  0  0  0  0
 21 22  1  0  0  0  0
 21 37  2  0  0  0  0
 22 23  1  0  0  0  0
 22 36  2  0  0  0  0
 23 24  2  0  0  0  0
 23 59  1  0  0  0  0
 24 25  1  0  0  0  0
 25 26  1  0  0  0  0
 25 36  1  0  0  0  0
 26 27  1  0  0  0  0
 26 60  1  0  0  0  0
 26 61  1  0  0  0  0
 27 28  1  0  0  0  0
 27 29  1  0  0  0  0
 27 62  1  0  0  0  0
 28 63  1  0  0  0  0
 29 30  1  0  0  0  0
 29 64  1  0  0  0  0
 29 65  1  0  0  0  0
 30 31  1  0  0  0  0
 30 35  1  0  0  0  0
 31 32  1  0  0  0  0
 31 66  1  0  0  0  0
 31 67  1  0  0  0  0
 32 33  1  0  0  0  0
 32 68  1  0  0  0  0
 32 69  1  0  0  0  0
 33 34  1  0  0  0  0
 33 70  1  0  0  0  0
 33 71  1  0  0  0  0
 34 35  1  0  0  0  0
 34 72  1  0  0  0  0
 34 73  1  0  0  0  0
 35 74  1  0  0  0  0
 35 75  1  0  0  0  0
 36 76  1  0  0  0  0
 37 38  1  0  0  0  0
 38 39  1  0  0  0  0
 39 77  1  0  0  0  0
 40 78  1  0  0  0  0
M  END
$$$$
