CHEMBL3927104
 OpenBabel04072215373D

 48 51  0  0  0  0  0  0  0  0999 V2000
    2.8622    0.8248   -2.0601 C   0  0  0  0  0  0  0  0  0  0  0  0
    1.4305    0.5562   -1.6884 C   0  0  0  0  0  0  0  0  0  0  0  0
    0.9243   -0.7399   -1.8251 C   0  0  0  0  0  0  0  0  0  0  0  0
   -0.3849   -1.0133   -1.4556 C   0  0  0  0  0  0  0  0  0  0  0  0
   -1.2018    0.0031   -0.9644 C   0  0  0  0  0  0  0  0  0  0  0  0
   -2.3940   -0.3873   -0.4973 F   0  0  0  0  0  0  0  0  0  0  0  0
   -0.7565    1.3327   -0.8722 C   0  0  0  0  0  0  0  0  0  0  0  0
   -1.5723    2.4300   -0.4557 N   0  0  0  0  0  0  0  0  0  0  0  0
   -2.9621    2.4342   -0.4678 C   0  0  0  0  0  0  0  0  0  0  0  0
   -3.6569    1.5190   -0.8875 O   0  0  0  0  0  0  0  0  0  0  0  0
   -3.5177    3.6385   -0.0277 N   0  0  0  0  0  0  0  0  0  0  0  0
   -4.9444    3.7184    0.0292 C   0  0  0  0  0  0  0  0  0  0  0  0
   -5.6764    2.7803    0.7675 C   0  0  0  0  0  0  0  0  0  0  0  0
   -7.0723    2.7198    0.6652 C   0  0  0  0  0  0  0  0  0  0  0  0
   -7.7547    3.5906   -0.1854 C   0  0  0  0  0  0  0  0  0  0  0  0
   -9.1686    3.4098   -0.3999 C   0  0  0  0  0  0  0  0  0  0  0  0
  -10.3400    3.1926   -0.5928 C   0  0  0  0  0  0  0  0  0  0  0  0
  -11.7314    2.9438   -0.8341 C   0  0  0  0  0  0  0  0  0  0  0  0
  -12.6196    4.0186   -1.0020 C   0  0  0  0  0  0  0  0  0  0  0  0
  -13.9757    3.7983   -1.2461 C   0  0  0  0  0  0  0  0  0  0  0  0
  -14.4905    2.5037   -1.3394 C   0  0  0  0  0  0  0  0  0  0  0  0
  -13.5909    1.4459   -1.1722 C   0  0  0  0  0  0  0  0  0  0  0  0
  -13.7854    0.0914   -1.2065 N   0  0  0  0  0  0  0  0  0  0  0  0
  -12.6780   -0.6291   -0.9952 N   0  0  0  0  0  0  0  0  0  0  0  0
  -11.7327    0.2882   -0.8050 C   0  0  0  0  0  0  0  0  0  0  0  0
  -10.4645   -0.0551   -0.5421 N   0  0  0  0  0  0  0  0  0  0  0  0
  -12.2288    1.6216   -0.9166 C   0  0  0  0  0  0  0  0  0  0  0  0
   -7.0316    4.5809   -0.8629 C   0  0  0  0  0  0  0  0  0  0  0  0
   -5.6307    4.6638   -0.7366 C   0  0  0  0  0  0  0  0  0  0  0  0
    0.5870    1.5869   -1.2113 C   0  0  0  0  0  0  0  0  0  0  0  0
    3.3659   -0.0936   -2.3867 H   0  0  0  0  0  0  0  0  0  0  0  0
    3.4152    1.2103   -1.1985 H   0  0  0  0  0  0  0  0  0  0  0  0
    2.9167    1.5403   -2.8856 H   0  0  0  0  0  0  0  0  0  0  0  0
    1.5477   -1.5492   -2.1990 H   0  0  0  0  0  0  0  0  0  0  0  0
   -0.7838   -2.0205   -1.5246 H   0  0  0  0  0  0  0  0  0  0  0  0
   -1.1105    3.3066   -0.2685 H   0  0  0  0  0  0  0  0  0  0  0  0
   -3.0556    4.4519   -0.4061 H   0  0  0  0  0  0  0  0  0  0  0  0
   -5.1607    2.0538    1.3918 H   0  0  0  0  0  0  0  0  0  0  0  0
   -7.6105    1.9529    1.2176 H   0  0  0  0  0  0  0  0  0  0  0  0
  -12.2502    5.0397   -0.9398 H   0  0  0  0  0  0  0  0  0  0  0  0
  -14.6446    4.6480   -1.3664 H   0  0  0  0  0  0  0  0  0  0  0  0
  -15.5454    2.3324   -1.5306 H   0  0  0  0  0  0  0  0  0  0  0  0
  -14.6548   -0.4024   -1.3710 H   0  0  0  0  0  0  0  0  0  0  0  0
  -10.2141   -1.0234   -0.7015 H   0  0  0  0  0  0  0  0  0  0  0  0
   -9.7073    0.5987   -0.6951 H   0  0  0  0  0  0  0  0  0  0  0  0
   -7.5436    5.2657   -1.5351 H   0  0  0  0  0  0  0  0  0  0  0  0
   -5.0926    5.4042   -1.3208 H   0  0  0  0  0  0  0  0  0  0  0  0
    0.9922    2.5932   -1.1317 H   0  0  0  0  0  0  0  0  0  0  0  0
  1  2  1  0  0  0  0
  1 31  1  0  0  0  0
  1 32  1  0  0  0  0
  1 33  1  0  0  0  0
  2  3  1  0  0  0  0
  2 30  2  0  0  0  0
  3  4  2  0  0  0  0
  3 34  1  0  0  0  0
  4  5  1  0  0  0  0
  4 35  1  0  0  0  0
  5  6  1  0  0  0  0
  5  7  2  0  0  0  0
  7  8  1  0  0  0  0
  7 30  1  0  0  0  0
  8  9  1  0  0  0  0
  8 36  1  0  0  0  0
  9 10  2  0  0  0  0
  9 11  1  0  0  0  0
 11 12  1  0  0  0  0
 11 37  1  0  0  0  0
 12 13  1  0  0  0  0
 12 29  2  0  0  0  0
 13 14  2  0  0  0  0
 13 38  1  0  0  0  0
 14 15  1  0  0  0  0
 14 39  1  0  0  0  0
 15 16  1  0  0  0  0
 15 28  2  0  0  0  0
 16 17  3  0  0  0  0
 17 18  1  0  0  0  0
 18 19  1  0  0  0  0
 18 27  2  0  0  0  0
 19 20  2  0  0  0  0
 19 40  1  0  0  0  0
 20 21  1  0  0  0  0
 20 41  1  0  0  0  0
 21 22  2  0  0  0  0
 21 42  1  0  0  0  0
 22 23  1  0  0  0  0
 22 27  1  0  0  0  0
 23 24  1  0  0  0  0
 23 43  1  0  0  0  0
 24 25  2  0  0  0  0
 25 26  1  0  0  0  0
 25 27  1  0  0  0  0
 26 44  1  0  0  0  0
 26 45  1  0  0  0  0
 28 29  1  0  0  0  0
 28 46  1  0  0  0  0
 29 47  1  0  0  0  0
 30 48  1  0  0  0  0
M  END
$$$$
