CHEMBL1083454
 OpenBabel04072215363D

 68 75  0  0  1  0  0  0  0  0999 V2000
    1.8616   -0.5209    1.1768 C   0  0  0  0  0  0  0  0  0  0  0  0
    2.6849   -1.6603    0.8270 N   0  0  0  0  0  0  0  0  0  0  0  0
    3.7298   -2.2503    1.5272 C   0  0  0  0  0  0  0  0  0  0  0  0
    4.3645   -3.1595    0.6635 C   0  0  0  0  0  0  0  0  0  0  0  0
    3.8450   -2.6346   -0.5888 C   0  0  0  0  0  0  0  0  0  0  0  0
    2.6844   -2.0002   -0.4685 N   0  0  0  0  0  0  0  0  0  0  0  0
    4.7256   -2.2814   -1.7491 C   0  0  0  0  0  0  0  0  0  0  0  0
    6.0198   -3.0483   -1.6278 C   0  0  0  0  0  0  0  0  0  0  0  0
    6.5283   -2.8135   -0.2022 C   0  0  0  0  0  0  0  0  0  0  0  0
    5.8012   -3.5281    0.7618 C   0  0  0  0  0  0  0  0  0  0  0  0
    6.5099   -4.7464    1.0039 C   0  0  0  0  0  0  0  0  0  0  0  0
    7.9640   -4.8540    0.8335 C   0  0  0  0  0  0  0  0  0  0  0  0
    8.6420   -3.6432    0.5570 C   0  0  0  0  0  0  0  0  0  0  0  0
    9.9891   -3.2999    0.4499 C   0  0  0  0  0  0  0  0  0  0  0  0
   11.2575   -3.9400    0.4514 C   0  0  0  0  0  0  0  0  0  0  0  0
   12.4383   -3.1730    0.3062 C   0  0  0  0  0  0  0  0  0  0  0  0
   13.7716   -3.8586    0.0336 C   0  0  3  0  0  0  0  0  0  0  0  0
   15.0306   -2.9742   -0.0848 C   0  0  0  0  0  0  0  0  0  0  0  0
   15.0979   -2.1840   -1.3946 C   0  0  0  0  0  0  0  0  0  0  0  0
   14.8298   -3.0836   -2.5898 C   0  0  0  0  0  0  0  0  0  0  0  0
   13.6037   -3.9587   -2.3682 C   0  0  0  0  0  0  0  0  0  0  0  0
   13.6770   -4.6882   -1.1402 O   0  0  0  0  0  0  0  0  0  0  0  0
   12.3359   -1.7792    0.3509 C   0  0  0  0  0  0  0  0  0  0  0  0
   11.1066   -1.1225    0.2970 C   0  0  0  0  0  0  0  0  0  0  0  0
    9.9297   -1.8908    0.2911 C   0  0  0  0  0  0  0  0  0  0  0  0
    8.6174   -1.5243    0.1056 N   0  0  0  0  0  0  0  0  0  0  0  0
    7.9982   -0.2284   -0.0146 C   0  0  0  0  0  0  0  0  0  0  0  0
    8.0256    0.3717   -1.4064 C   0  0  0  0  0  0  0  0  0  0  0  0
    7.4772    1.7764   -1.1742 C   0  0  0  0  0  0  0  0  0  0  0  0
    7.6318    2.0659    0.3266 C   0  0  0  0  0  0  0  0  0  0  0  0
    8.4210    0.8973    0.9036 C   0  0  0  0  0  0  0  0  0  0  0  0
    7.8543   -2.6392    0.1041 C   0  0  0  0  0  0  0  0  0  0  0  0
    8.4479   -6.2243    0.8358 C   0  0  0  0  0  0  0  0  0  0  0  0
    7.1631   -6.9053    0.9814 N   0  0  0  0  0  0  0  0  0  0  0  0
    6.0190   -6.0953    1.0975 C   0  0  0  0  0  0  0  0  0  0  0  0
    4.8951   -6.5740    1.1642 O   0  0  0  0  0  0  0  0  0  0  0  0
    2.4942    0.3698    1.2410 H   0  0  0  0  0  0  0  0  0  0  0  0
    1.3398   -0.7139    2.1115 H   0  0  0  0  0  0  0  0  0  0  0  0
    1.1239   -0.3599    0.3779 H   0  0  0  0  0  0  0  0  0  0  0  0
    4.0083   -1.8580    2.4976 H   0  0  0  0  0  0  0  0  0  0  0  0
    4.9686   -1.2102   -1.6614 H   0  0  0  0  0  0  0  0  0  0  0  0
    4.2307   -2.4344   -2.7083 H   0  0  0  0  0  0  0  0  0  0  0  0
    6.7610   -2.7701   -2.3788 H   0  0  0  0  0  0  0  0  0  0  0  0
    5.8189   -4.1256   -1.7593 H   0  0  0  0  0  0  0  0  0  0  0  0
   11.3185   -5.0279    0.4700 H   0  0  0  0  0  0  0  0  0  0  0  0
   13.9410   -4.5401    0.8766 H   0  0  0  0  0  0  0  0  0  0  0  0
   15.9076   -3.6353   -0.0684 H   0  0  0  0  0  0  0  0  0  0  0  0
   15.1318   -2.3028    0.7751 H   0  0  0  0  0  0  0  0  0  0  0  0
   16.0813   -1.7102   -1.4934 H   0  0  0  0  0  0  0  0  0  0  0  0
   14.3717   -1.3655   -1.4020 H   0  0  0  0  0  0  0  0  0  0  0  0
   15.7070   -3.7218   -2.7461 H   0  0  0  0  0  0  0  0  0  0  0  0
   14.7028   -2.4776   -3.4946 H   0  0  0  0  0  0  0  0  0  0  0  0
   13.5378   -4.6915   -3.1795 H   0  0  0  0  0  0  0  0  0  0  0  0
   12.6821   -3.3671   -2.4006 H   0  0  0  0  0  0  0  0  0  0  0  0
   13.2165   -1.1455    0.3648 H   0  0  0  0  0  0  0  0  0  0  0  0
   11.0941   -0.0470    0.2165 H   0  0  0  0  0  0  0  0  0  0  0  0
    6.9379   -0.3962    0.2344 H   0  0  0  0  0  0  0  0  0  0  0  0
    7.4110   -0.1929   -2.1172 H   0  0  0  0  0  0  0  0  0  0  0  0
    9.0442    0.4095   -1.8058 H   0  0  0  0  0  0  0  0  0  0  0  0
    6.4166    1.8214   -1.4515 H   0  0  0  0  0  0  0  0  0  0  0  0
    8.0103    2.5077   -1.7869 H   0  0  0  0  0  0  0  0  0  0  0  0
    6.6392    2.1077    0.7935 H   0  0  0  0  0  0  0  0  0  0  0  0
    8.1261    3.0219    0.5139 H   0  0  0  0  0  0  0  0  0  0  0  0
    8.1646    0.6952    1.9497 H   0  0  0  0  0  0  0  0  0  0  0  0
    9.4883    1.1126    0.8528 H   0  0  0  0  0  0  0  0  0  0  0  0
    9.0965   -6.4755    1.6743 H   0  0  0  0  0  0  0  0  0  0  0  0
    8.8945   -6.5009   -0.1247 H   0  0  0  0  0  0  0  0  0  0  0  0
    7.0422   -7.8900    0.7830 H   0  0  0  0  0  0  0  0  0  0  0  0
  1  2  1  0  0  0  0
  1 37  1  0  0  0  0
  1 38  1  0  0  0  0
  1 39  1  0  0  0  0
  2  3  1  0  0  0  0
  2  6  1  0  0  0  0
  3  4  2  0  0  0  0
  3 40  1  0  0  0  0
  4  5  1  0  0  0  0
  4 10  1  0  0  0  0
  5  6  2  0  0  0  0
  5  7  1  0  0  0  0
  7  8  1  0  0  0  0
  7 41  1  0  0  0  0
  7 42  1  0  0  0  0
  8  9  1  0  0  0  0
  8 43  1  0  0  0  0
  8 44  1  0  0  0  0
  9 10  1  0  0  0  0
  9 32  2  0  0  0  0
 10 11  2  0  0  0  0
 11 12  1  0  0  0  0
 11 35  1  0  0  0  0
 12 13  2  0  0  0  0
 12 33  1  0  0  0  0
 13 14  1  0  0  0  0
 13 32  1  0  0  0  0
 14 15  1  0  0  0  0
 14 25  2  0  0  0  0
 15 16  2  0  0  0  0
 15 45  1  0  0  0  0
 16 17  1  0  0  0  0
 16 23  1  0  0  0  0
 17 18  1  0  0  0  0
 17 22  1  0  0  0  0
 17 46  1  0  0  0  0
 18 19  1  0  0  0  0
 18 47  1  0  0  0  0
 18 48  1  0  0  0  0
 19 20  1  0  0  0  0
 19 49  1  0  0  0  0
 19 50  1  0  0  0  0
 20 21  1  0  0  0  0
 20 51  1  0  0  0  0
 20 52  1  0  0  0  0
 21 22  1  0  0  0  0
 21 53  1  0  0  0  0
 21 54  1  0  0  0  0
 23 24  2  0  0  0  0
 23 55  1  0  0  0  0
 24 25  1  0  0  0  0
 24 56  1  0  0  0  0
 25 26  1  0  0  0  0
 26 27  1  0  0  0  0
 26 32  1  0  0  0  0
 27 28  1  0  0  0  0
 27 31  1  0  0  0  0
 27 57  1  0  0  0  0
 28 29  1  0  0  0  0
 28 58  1  0  0  0  0
 28 59  1  0  0  0  0
 29 30  1  0  0  0  0
 29 60  1  0  0  0  0
 29 61  1  0  0  0  0
 30 31  1  0  0  0  0
 30 62  1  0  0  0  0
 30 63  1  0  0  0  0
 31 64  1  0  0  0  0
 31 65  1  0  0  0  0
 33 34  1  0  0  0  0
 33 66  1  0  0  0  0
 33 67  1  0  0  0  0
 34 35  1  0  0  0  0
 34 68  1  0  0  0  0
 35 36  2  0  0  0  0
M  END
$$$$
