CHEMBL2386805
 OpenBabel04072215363D

 67 71  0  0  0  0  0  0  0  0999 V2000
    5.5061    4.5711   -2.1368 C   0  0  0  0  0  0  0  0  0  0  0  0
    4.8715    3.3523   -1.5377 C   0  0  0  0  0  0  0  0  0  0  0  0
    3.6109    3.4850   -1.0969 N   0  0  0  0  0  0  0  0  0  0  0  0
    3.0553    2.4158   -0.5012 C   0  0  0  0  0  0  0  0  0  0  0  0
    1.7358    2.4810    0.0184 N   0  0  0  0  0  0  0  0  0  0  0  0
    0.9975    3.6246    0.0214 C   0  0  0  0  0  0  0  0  0  0  0  0
    0.0518    4.0760    0.8964 C   0  0  0  0  0  0  0  0  0  0  0  0
   -0.3001    5.3823    0.4466 C   0  0  0  0  0  0  0  0  0  0  0  0
   -1.1998    6.3410    1.0938 C   0  0  0  0  0  0  0  0  0  0  0  0
   -1.7899    6.0482    2.3348 C   0  0  0  0  0  0  0  0  0  0  0  0
   -2.6499    6.9554    2.9518 C   0  0  0  0  0  0  0  0  0  0  0  0
   -2.9466    8.1814    2.3452 C   0  0  0  0  0  0  0  0  0  0  0  0
   -3.9342    9.1191    2.9811 C   0  0  0  0  0  0  0  0  0  0  0  0
   -3.3137   10.0888    3.8520 N   0  0  0  0  0  0  0  0  0  0  0  0
   -4.1257   10.9652    4.5313 C   0  0  0  0  0  0  0  0  0  0  0  0
   -5.3488   10.9230    4.4528 O   0  0  0  0  0  0  0  0  0  0  0  0
   -3.4028   11.8920    5.2433 N   0  0  0  0  0  0  0  0  0  0  0  0
   -4.0630   12.8977    5.9290 C   0  0  0  0  0  0  0  0  0  0  0  0
   -5.1861   12.7743    6.7784 C   0  0  0  0  0  0  0  0  0  0  0  0
   -5.4931   14.0651    7.1283 C   0  0  0  0  0  0  0  0  0  0  0  0
   -6.5524   14.6842    7.9439 C   0  0  0  0  0  0  0  0  0  0  0  0
   -4.5876   14.9067    6.5604 O   0  0  0  0  0  0  0  0  0  0  0  0
   -3.6521   14.1673    5.8539 N   0  0  0  0  0  0  0  0  0  0  0  0
   -2.3432    8.4930    1.1209 C   0  0  0  0  0  0  0  0  0  0  0  0
   -1.4814    7.5819    0.5033 C   0  0  0  0  0  0  0  0  0  0  0  0
    0.3400    5.6771   -0.6967 N   0  0  0  0  0  0  0  0  0  0  0  0
    1.1233    4.6051   -0.9256 N   0  0  0  0  0  0  0  0  0  0  0  0
    3.7291    1.2270   -0.3975 C   0  0  0  0  0  0  0  0  0  0  0  0
    5.0268    1.1729   -0.8708 C   0  0  0  0  0  0  0  0  0  0  0  0
    5.6963   -0.0432   -0.7060 N   0  0  0  0  0  0  0  0  0  0  0  0
    6.7721   -0.3557   -1.6544 C   0  0  0  0  0  0  0  0  0  0  0  0
    7.1081   -1.8652   -1.5022 C   0  0  0  0  0  0  0  0  0  0  0  0
    7.4866   -2.2439   -0.1150 N   0  0  0  0  0  0  0  0  0  0  0  0
    7.6625   -3.6913   -0.0058 C   0  0  0  0  0  0  0  0  0  0  0  0
    6.4491   -1.7869    0.8381 C   0  0  0  0  0  0  0  0  0  0  0  0
    6.1214   -0.2862    0.6851 C   0  0  0  0  0  0  0  0  0  0  0  0
    5.6082    2.2266   -1.4584 N   0  0  0  0  0  0  0  0  0  0  0  0
    4.8250    5.4284   -2.0767 H   0  0  0  0  0  0  0  0  0  0  0  0
    5.7478    4.3949   -3.1852 H   0  0  0  0  0  0  0  0  0  0  0  0
    6.4189    4.8269   -1.5888 H   0  0  0  0  0  0  0  0  0  0  0  0
    1.6407    1.8810    0.8311 H   0  0  0  0  0  0  0  0  0  0  0  0
   -0.3144    3.5666    1.7753 H   0  0  0  0  0  0  0  0  0  0  0  0
   -1.5970    5.1037    2.8365 H   0  0  0  0  0  0  0  0  0  0  0  0
   -3.1040    6.6884    3.9064 H   0  0  0  0  0  0  0  0  0  0  0  0
   -4.6745    8.5539    3.5614 H   0  0  0  0  0  0  0  0  0  0  0  0
   -4.4956    9.6613    2.2089 H   0  0  0  0  0  0  0  0  0  0  0  0
   -2.4703    9.8050    4.3341 H   0  0  0  0  0  0  0  0  0  0  0  0
   -2.5614   12.2123    4.7879 H   0  0  0  0  0  0  0  0  0  0  0  0
   -5.7008   11.8744    7.0792 H   0  0  0  0  0  0  0  0  0  0  0  0
   -7.0355   13.9409    8.5859 H   0  0  0  0  0  0  0  0  0  0  0  0
   -7.3190   15.1294    7.3023 H   0  0  0  0  0  0  0  0  0  0  0  0
   -6.1417   15.4691    8.5862 H   0  0  0  0  0  0  0  0  0  0  0  0
   -2.5504    9.4407    0.6292 H   0  0  0  0  0  0  0  0  0  0  0  0
   -1.0314    7.8412   -0.4566 H   0  0  0  0  0  0  0  0  0  0  0  0
    1.7705    4.5946   -1.7017 H   0  0  0  0  0  0  0  0  0  0  0  0
    3.2669    0.3516    0.0374 H   0  0  0  0  0  0  0  0  0  0  0  0
    7.6643    0.2516   -1.4600 H   0  0  0  0  0  0  0  0  0  0  0  0
    6.4472   -0.1718   -2.6867 H   0  0  0  0  0  0  0  0  0  0  0  0
    7.9283   -2.1142   -2.1855 H   0  0  0  0  0  0  0  0  0  0  0  0
    6.2289   -2.4456   -1.8152 H   0  0  0  0  0  0  0  0  0  0  0  0
    8.4542   -4.0350   -0.6800 H   0  0  0  0  0  0  0  0  0  0  0  0
    6.7444   -4.2416   -0.2431 H   0  0  0  0  0  0  0  0  0  0  0  0
    7.9705   -3.9637    1.0103 H   0  0  0  0  0  0  0  0  0  0  0  0
    6.7872   -1.9666    1.8658 H   0  0  0  0  0  0  0  0  0  0  0  0
    5.5219   -2.3583    0.6910 H   0  0  0  0  0  0  0  0  0  0  0  0
    7.0034    0.3217    0.9281 H   0  0  0  0  0  0  0  0  0  0  0  0
    5.3359   -0.0289    1.4062 H   0  0  0  0  0  0  0  0  0  0  0  0
  1  2  1  0  0  0  0
  1 38  1  0  0  0  0
  1 39  1  0  0  0  0
  1 40  1  0  0  0  0
  2  3  1  0  0  0  0
  2 37  2  0  0  0  0
  3  4  2  0  0  0  0
  4  5  1  0  0  0  0
  4 28  1  0  0  0  0
  5  6  1  0  0  0  0
  5 41  1  0  0  0  0
  6  7  2  0  0  0  0
  6 27  1  0  0  0  0
  7  8  1  0  0  0  0
  7 42  1  0  0  0  0
  8  9  1  0  0  0  0
  8 26  2  0  0  0  0
  9 10  1  0  0  0  0
  9 25  2  0  0  0  0
 10 11  2  0  0  0  0
 10 43  1  0  0  0  0
 11 12  1  0  0  0  0
 11 44  1  0  0  0  0
 12 13  1  0  0  0  0
 12 24  2  0  0  0  0
 13 14  1  0  0  0  0
 13 45  1  0  0  0  0
 13 46  1  0  0  0  0
 14 15  1  0  0  0  0
 14 47  1  0  0  0  0
 15 16  2  0  0  0  0
 15 17  1  0  0  0  0
 17 18  1  0  0  0  0
 17 48  1  0  0  0  0
 18 19  1  0  0  0  0
 18 23  2  0  0  0  0
 19 20  2  0  0  0  0
 19 49  1  0  0  0  0
 20 21  1  0  0  0  0
 20 22  1  0  0  0  0
 21 50  1  0  0  0  0
 21 51  1  0  0  0  0
 21 52  1  0  0  0  0
 22 23  1  0  0  0  0
 24 25  1  0  0  0  0
 24 53  1  0  0  0  0
 25 54  1  0  0  0  0
 26 27  1  0  0  0  0
 27 55  1  0  0  0  0
 28 29  2  0  0  0  0
 28 56  1  0  0  0  0
 29 30  1  0  0  0  0
 29 37  1  0  0  0  0
 30 31  1  0  0  0  0
 30 36  1  0  0  0  0
 31 32  1  0  0  0  0
 31 57  1  0  0  0  0
 31 58  1  0  0  0  0
 32 33  1  0  0  0  0
 32 59  1  0  0  0  0
 32 60  1  0  0  0  0
 33 34  1  0  0  0  0
 33 35  1  0  0  0  0
 34 61  1  0  0  0  0
 34 62  1  0  0  0  0
 34 63  1  0  0  0  0
 35 36  1  0  0  0  0
 35 64  1  0  0  0  0
 35 65  1  0  0  0  0
 36 66  1  0  0  0  0
 36 67  1  0  0  0  0
M  END
$$$$
