CHEMBL4592212
 OpenBabel04072215383D

 69 73  0  0  0  0  0  0  0  0999 V2000
    4.0876    4.4746   -5.9961 C   0  0  0  0  0  0  0  0  0  0  0  0
    4.6158    3.3239   -6.6220 O   0  0  0  0  0  0  0  0  0  0  0  0
    3.9618    2.1490   -6.5078 C   0  0  0  0  0  0  0  0  0  0  0  0
    4.7404    1.0808   -6.9513 C   0  0  0  0  0  0  0  0  0  0  0  0
    4.3216   -0.2296   -6.7629 C   0  0  0  0  0  0  0  0  0  0  0  0
    3.0911   -0.5853   -6.1575 C   0  0  0  0  0  0  0  0  0  0  0  0
    2.8567   -2.0757   -5.7453 C   0  0  0  0  0  0  0  0  0  0  0  0
    1.9967   -2.3854   -4.6893 C   0  0  0  0  0  0  0  0  0  0  0  0
    2.4825   -2.1567   -3.4027 C   0  0  0  0  0  0  0  0  0  0  0  0
    1.6330   -1.7480   -2.3853 C   0  0  0  0  0  0  0  0  0  0  0  0
    1.7963   -0.4620   -1.9148 C   0  0  0  0  0  0  0  0  0  0  0  0
    0.6764    0.0542   -1.3462 O   0  0  0  0  0  0  0  0  0  0  0  0
    0.7497    1.3120   -0.6963 C   0  0  0  0  0  0  0  0  0  0  0  0
    3.0315    0.1410   -2.1255 C   0  0  0  0  0  0  0  0  0  0  0  0
    4.0821   -0.6114   -2.7034 C   0  0  0  0  0  0  0  0  0  0  0  0
    3.8097   -1.7977   -3.3786 C   0  0  0  0  0  0  0  0  0  0  0  0
    4.6358   -2.3923   -4.2771 N   0  0  0  0  0  0  0  0  0  0  0  0
    4.0557   -2.7014   -5.4680 C   0  0  0  0  0  0  0  0  0  0  0  0
    4.7610   -3.4729   -6.4088 N   0  0  0  0  0  0  0  0  0  0  0  0
    4.8134   -3.4246   -7.8165 C   0  0  0  0  0  0  0  0  0  0  0  0
    5.9718   -3.8936   -8.4177 C   0  0  0  0  0  0  0  0  0  0  0  0
    6.2126   -3.6920   -9.8091 C   0  0  0  0  0  0  0  0  0  0  0  0
    5.2962   -3.0058  -10.5891 C   0  0  0  0  0  0  0  0  0  0  0  0
    5.5721   -2.6330  -11.9442 N   0  0  0  0  0  0  0  0  0  0  0  0
    6.8065   -2.7577  -12.5764 C   0  0  0  0  0  0  0  0  0  0  0  0
    7.8126   -3.2896  -12.0985 O   0  0  0  0  0  0  0  0  0  0  0  0
    6.8829   -2.2487  -14.0159 C   0  0  0  0  0  0  0  0  0  0  0  0
    6.1330   -0.9972  -14.3117 N   0  0  0  0  0  0  0  0  0  0  0  0
    6.6241    0.1321  -13.4939 C   0  0  0  0  0  0  0  0  0  0  0  0
    5.9086    1.4361  -13.8649 C   0  0  0  0  0  0  0  0  0  0  0  0
    6.0933    1.7724  -15.3402 C   0  0  0  0  0  0  0  0  0  0  0  0
    5.6732    0.5881  -16.1995 C   0  0  0  0  0  0  0  0  0  0  0  0
    6.3720   -0.6917  -15.7474 C   0  0  0  0  0  0  0  0  0  0  0  0
    4.0504   -2.6556  -10.0230 C   0  0  0  0  0  0  0  0  0  0  0  0
    3.8257   -2.8857   -8.6559 C   0  0  0  0  0  0  0  0  0  0  0  0
    2.2685    0.5032   -5.8091 C   0  0  0  0  0  0  0  0  0  0  0  0
    2.7159    1.8512   -5.9523 C   0  0  0  0  0  0  0  0  0  0  0  0
    4.9085    5.1927   -5.8963 H   0  0  0  0  0  0  0  0  0  0  0  0
    3.7000    4.2796   -4.9920 H   0  0  0  0  0  0  0  0  0  0  0  0
    3.3279    4.9202   -6.6428 H   0  0  0  0  0  0  0  0  0  0  0  0
    5.7165    1.2671   -7.3935 H   0  0  0  0  0  0  0  0  0  0  0  0
    5.0660   -0.9744   -7.0221 H   0  0  0  0  0  0  0  0  0  0  0  0
    0.9947   -2.7586   -4.8709 H   0  0  0  0  0  0  0  0  0  0  0  0
    1.0511   -2.4597   -1.8007 H   0  0  0  0  0  0  0  0  0  0  0  0
    0.3018    2.0887   -1.3278 H   0  0  0  0  0  0  0  0  0  0  0  0
    1.7574    1.5969   -0.4006 H   0  0  0  0  0  0  0  0  0  0  0  0
    0.1485    1.2225    0.2104 H   0  0  0  0  0  0  0  0  0  0  0  0
    3.2213    1.1760   -1.8729 H   0  0  0  0  0  0  0  0  0  0  0  0
    5.0643   -0.1619   -2.8275 H   0  0  0  0  0  0  0  0  0  0  0  0
    5.6292   -3.7486   -5.9621 H   0  0  0  0  0  0  0  0  0  0  0  0
    6.7375   -4.4040   -7.8468 H   0  0  0  0  0  0  0  0  0  0  0  0
    7.1465   -4.0728  -10.1815 H   0  0  0  0  0  0  0  0  0  0  0  0
    4.8797   -2.1002  -12.4474 H   0  0  0  0  0  0  0  0  0  0  0  0
    6.5075   -3.0611  -14.6498 H   0  0  0  0  0  0  0  0  0  0  0  0
    7.9475   -2.1068  -14.2464 H   0  0  0  0  0  0  0  0  0  0  0  0
    7.7077    0.2632  -13.6139 H   0  0  0  0  0  0  0  0  0  0  0  0
    6.4354   -0.0581  -12.4317 H   0  0  0  0  0  0  0  0  0  0  0  0
    6.2918    2.2584  -13.2507 H   0  0  0  0  0  0  0  0  0  0  0  0
    4.8372    1.3442  -13.6454 H   0  0  0  0  0  0  0  0  0  0  0  0
    7.1457    2.0151  -15.5331 H   0  0  0  0  0  0  0  0  0  0  0  0
    5.5058    2.6581  -15.6063 H   0  0  0  0  0  0  0  0  0  0  0  0
    5.9188    0.7914  -17.2498 H   0  0  0  0  0  0  0  0  0  0  0  0
    4.5872    0.4560  -16.1436 H   0  0  0  0  0  0  0  0  0  0  0  0
    7.4489   -0.5937  -15.9456 H   0  0  0  0  0  0  0  0  0  0  0  0
    6.0066   -1.5188  -16.3683 H   0  0  0  0  0  0  0  0  0  0  0  0
    3.3064   -2.1608  -10.6190 H   0  0  0  0  0  0  0  0  0  0  0  0
    2.8656   -2.5678   -8.2659 H   0  0  0  0  0  0  0  0  0  0  0  0
    1.2986    0.3344   -5.3440 H   0  0  0  0  0  0  0  0  0  0  0  0
    2.0740    2.6534   -5.6009 H   0  0  0  0  0  0  0  0  0  0  0  0
  1  2  1  0  0  0  0
  1 38  1  0  0  0  0
  1 39  1  0  0  0  0
  1 40  1  0  0  0  0
  2  3  1  0  0  0  0
  3  4  1  0  0  0  0
  3 37  2  0  0  0  0
  4  5  2  0  0  0  0
  4 41  1  0  0  0  0
  5  6  1  0  0  0  0
  5 42  1  0  0  0  0
  6  7  1  0  0  0  0
  6 36  2  0  0  0  0
  7  8  1  0  0  0  0
  7 18  2  0  0  0  0
  8  9  2  0  0  0  0
  8 43  1  0  0  0  0
  9 10  1  0  0  0  0
  9 16  1  0  0  0  0
 10 11  2  0  0  0  0
 10 44  1  0  0  0  0
 11 12  1  0  0  0  0
 11 14  1  0  0  0  0
 12 13  1  0  0  0  0
 13 45  1  0  0  0  0
 13 46  1  0  0  0  0
 13 47  1  0  0  0  0
 14 15  2  0  0  0  0
 14 48  1  0  0  0  0
 15 16  1  0  0  0  0
 15 49  1  0  0  0  0
 16 17  2  0  0  0  0
 17 18  1  0  0  0  0
 18 19  1  0  0  0  0
 19 20  1  0  0  0  0
 19 50  1  0  0  0  0
 20 21  1  0  0  0  0
 20 35  2  0  0  0  0
 21 22  2  0  0  0  0
 21 51  1  0  0  0  0
 22 23  1  0  0  0  0
 22 52  1  0  0  0  0
 23 24  1  0  0  0  0
 23 34  2  0  0  0  0
 24 25  1  0  0  0  0
 24 53  1  0  0  0  0
 25 26  2  0  0  0  0
 25 27  1  0  0  0  0
 27 28  1  0  0  0  0
 27 54  1  0  0  0  0
 27 55  1  0  0  0  0
 28 29  1  0  0  0  0
 28 33  1  0  0  0  0
 29 30  1  0  0  0  0
 29 56  1  0  0  0  0
 29 57  1  0  0  0  0
 30 31  1  0  0  0  0
 30 58  1  0  0  0  0
 30 59  1  0  0  0  0
 31 32  1  0  0  0  0
 31 60  1  0  0  0  0
 31 61  1  0  0  0  0
 32 33  1  0  0  0  0
 32 62  1  0  0  0  0
 32 63  1  0  0  0  0
 33 64  1  0  0  0  0
 33 65  1  0  0  0  0
 34 35  1  0  0  0  0
 34 66  1  0  0  0  0
 35 67  1  0  0  0  0
 36 37  1  0  0  0  0
 36 68  1  0  0  0  0
 37 69  1  0  0  0  0
M  END
$$$$
