CHEMBL2086727
 OpenBabel04072215363D

 41 45  0  0  0  0  0  0  0  0999 V2000
   -2.9540    0.7933    0.1307 O   0  0  0  0  0  0  0  0  0  0  0  0
   -1.7754    0.4989    0.0928 C   0  0  0  0  0  0  0  0  0  0  0  0
   -0.7291    1.3991    0.1099 N   0  0  0  0  0  0  0  0  0  0  0  0
    0.4976    0.7556    0.0628 C   0  0  0  0  0  0  0  0  0  0  0  0
    1.7324    1.3758    0.0545 C   0  0  0  0  0  0  0  0  0  0  0  0
    2.8577    0.5582   -0.0161 C   0  0  0  0  0  0  0  0  0  0  0  0
    2.7186   -0.8380   -0.0849 C   0  0  0  0  0  0  0  0  0  0  0  0
    1.4522   -1.4420   -0.0757 C   0  0  0  0  0  0  0  0  0  0  0  0
    0.3305   -0.6343    0.0119 C   0  0  0  0  0  0  0  0  0  0  0  0
   -1.1309   -0.8783    0.0444 C   0  0  0  0  0  0  0  0  0  0  0  0
   -1.8436   -2.0295    0.0563 C   0  0  0  0  0  0  0  0  0  0  0  0
   -1.1814   -3.2881    0.0431 C   0  0  0  0  0  0  0  0  0  0  0  0
   -0.7796   -4.0345   -0.9675 N   0  0  0  0  0  0  0  0  0  0  0  0
   -0.2833   -5.1854   -0.4042 C   0  0  0  0  0  0  0  0  0  0  0  0
    0.2600   -6.3218   -1.0202 C   0  0  0  0  0  0  0  0  0  0  0  0
    0.7223   -7.3682   -0.2122 C   0  0  0  0  0  0  0  0  0  0  0  0
    0.6419   -7.2846    1.1804 C   0  0  0  0  0  0  0  0  0  0  0  0
    0.0883   -6.1644    1.8129 C   0  0  0  0  0  0  0  0  0  0  0  0
   -0.3654   -5.1363    0.9829 C   0  0  0  0  0  0  0  0  0  0  0  0
   -0.9645   -3.9289    1.2413 N   0  0  0  0  0  0  0  0  0  0  0  0
   -3.3245   -2.0007    0.0342 C   0  0  0  0  0  0  0  0  0  0  0  0
   -4.0067   -2.0028   -1.1919 C   0  0  0  0  0  0  0  0  0  0  0  0
   -5.4014   -1.9479   -1.2141 C   0  0  0  0  0  0  0  0  0  0  0  0
   -6.1075   -1.8977   -0.0155 C   0  0  0  0  0  0  0  0  0  0  0  0
   -7.4455   -1.8404   -0.0439 F   0  0  0  0  0  0  0  0  0  0  0  0
   -5.4511   -1.9140    1.2084 C   0  0  0  0  0  0  0  0  0  0  0  0
   -4.0622   -1.9701    1.2248 C   0  0  0  0  0  0  0  0  0  0  0  0
   -3.4267   -2.0033    2.4074 F   0  0  0  0  0  0  0  0  0  0  0  0
   -0.8747    2.3965    0.1401 H   0  0  0  0  0  0  0  0  0  0  0  0
    1.8287    2.4547    0.0957 H   0  0  0  0  0  0  0  0  0  0  0  0
    3.8507    1.0027   -0.0273 H   0  0  0  0  0  0  0  0  0  0  0  0
    3.6084   -1.4610   -0.1552 H   0  0  0  0  0  0  0  0  0  0  0  0
    1.3838   -2.5210   -0.1551 H   0  0  0  0  0  0  0  0  0  0  0  0
    0.3156   -6.3800   -2.1014 H   0  0  0  0  0  0  0  0  0  0  0  0
    1.1483   -8.2542   -0.6774 H   0  0  0  0  0  0  0  0  0  0  0  0
    1.0144   -8.1099    1.7850 H   0  0  0  0  0  0  0  0  0  0  0  0
    0.0200   -6.1067    2.8937 H   0  0  0  0  0  0  0  0  0  0  0  0
   -1.2206   -3.5727    2.1512 H   0  0  0  0  0  0  0  0  0  0  0  0
   -3.4539   -2.0373   -2.1286 H   0  0  0  0  0  0  0  0  0  0  0  0
   -5.9391   -1.9363   -2.1572 H   0  0  0  0  0  0  0  0  0  0  0  0
   -6.0136   -1.8768    2.1331 H   0  0  0  0  0  0  0  0  0  0  0  0
  1  2  2  0  0  0  0
  2  3  1  0  0  0  0
  2 10  1  0  0  0  0
  3  4  1  0  0  0  0
  3 29  1  0  0  0  0
  4  5  1  0  0  0  0
  4  9  2  0  0  0  0
  5  6  2  0  0  0  0
  5 30  1  0  0  0  0
  6  7  1  0  0  0  0
  6 31  1  0  0  0  0
  7  8  2  0  0  0  0
  7 32  1  0  0  0  0
  8  9  1  0  0  0  0
  8 33  1  0  0  0  0
  9 10  1  0  0  0  0
 10 11  2  3  0  0  0
 11 12  1  0  0  0  0
 11 21  1  0  0  0  0
 12 13  2  0  0  0  0
 12 20  1  0  0  0  0
 13 14  1  0  0  0  0
 14 15  1  0  0  0  0
 14 19  2  0  0  0  0
 15 16  2  0  0  0  0
 15 34  1  0  0  0  0
 16 17  1  0  0  0  0
 16 35  1  0  0  0  0
 17 18  2  0  0  0  0
 17 36  1  0  0  0  0
 18 19  1  0  0  0  0
 18 37  1  0  0  0  0
 19 20  1  0  0  0  0
 20 38  1  0  0  0  0
 21 22  1  0  0  0  0
 21 27  2  0  0  0  0
 22 23  2  0  0  0  0
 22 39  1  0  0  0  0
 23 24  1  0  0  0  0
 23 40  1  0  0  0  0
 24 25  1  0  0  0  0
 24 26  2  0  0  0  0
 26 27  1  0  0  0  0
 26 41  1  0  0  0  0
 27 28  1  0  0  0  0
M  END
$$$$
