CHEMBL401064
 OpenBabel04072215373D

 56 61  0  0  0  0  0  0  0  0999 V2000
    1.4421   -1.1073   -1.1514 C   0  0  0  0  0  0  0  0  0  0  0  0
    2.5232   -0.8907   -2.2127 C   0  0  0  0  0  0  0  0  0  0  0  0
    2.0167    0.1026   -3.2627 C   0  0  0  0  0  0  0  0  0  0  0  0
    3.7825   -0.3624   -1.6653 N   0  0  0  0  0  0  0  0  0  0  0  0
    4.4441   -1.2572   -0.7052 C   0  0  0  0  0  0  0  0  0  0  0  0
    4.8563   -2.5848   -1.2836 C   0  0  0  0  0  0  0  0  0  0  0  0
    5.7509   -2.6499   -2.3726 C   0  0  0  0  0  0  0  0  0  0  0  0
    6.1370   -3.8696   -2.9358 C   0  0  0  0  0  0  0  0  0  0  0  0
    5.6595   -5.0853   -2.4366 C   0  0  0  0  0  0  0  0  0  0  0  0
    4.7882   -5.0112   -1.3506 C   0  0  0  0  0  0  0  0  0  0  0  0
    4.1483   -5.9735   -0.6140 N   0  0  0  0  0  0  0  0  0  0  0  0
    3.3846   -5.3491    0.3359 C   0  0  0  0  0  0  0  0  0  0  0  0
    2.5130   -6.0737    1.3007 C   0  0  0  0  0  0  0  0  0  0  0  0
    2.4889   -7.4165    1.3731 N   0  0  0  0  0  0  0  0  0  0  0  0
    1.5616   -7.6495    2.3306 N   0  0  0  0  0  0  0  0  0  0  0  0
    0.9579   -6.5207    2.8036 C   0  0  0  0  0  0  0  0  0  0  0  0
   -0.0594   -6.4629    3.6762 N   0  0  0  0  0  0  0  0  0  0  0  0
   -0.4463   -5.1815    3.9315 C   0  0  0  0  0  0  0  0  0  0  0  0
    0.1467   -3.9960    3.4667 C   0  0  0  0  0  0  0  0  0  0  0  0
   -0.3340   -2.6452    3.8651 C   0  0  0  0  0  0  0  0  0  0  0  0
   -0.3983   -1.6279    2.8991 C   0  0  0  0  0  0  0  0  0  0  0  0
   -0.8440   -0.3684    3.1032 N   0  0  0  0  0  0  0  0  0  0  0  0
   -1.2872   -0.0884    4.3430 C   0  0  0  0  0  0  0  0  0  0  0  0
   -1.2950   -0.9930    5.4018 C   0  0  0  0  0  0  0  0  0  0  0  0
   -1.8102   -0.6188    6.6568 C   0  0  0  0  0  0  0  0  0  0  0  0
   -1.8168   -1.5153    7.7214 C   0  0  0  0  0  0  0  0  0  0  0  0
   -1.2635   -2.7747    7.5552 C   0  0  0  0  0  0  0  0  0  0  0  0
   -0.7258   -3.1436    6.3185 C   0  0  0  0  0  0  0  0  0  0  0  0
   -0.7735   -2.2929    5.1827 C   0  0  0  0  0  0  0  0  0  0  0  0
    1.2012   -4.1594    2.5512 C   0  0  0  0  0  0  0  0  0  0  0  0
    1.6002   -5.4598    2.1954 C   0  0  0  0  0  0  0  0  0  0  0  0
    3.5038   -4.0403    0.2576 N   0  0  0  0  0  0  0  0  0  0  0  0
    4.3786   -3.8110   -0.7777 C   0  0  0  0  0  0  0  0  0  0  0  0
    0.5142   -1.4564   -1.6175 H   0  0  0  0  0  0  0  0  0  0  0  0
    1.2196   -0.1810   -0.6109 H   0  0  0  0  0  0  0  0  0  0  0  0
    1.7338   -1.8665   -0.4202 H   0  0  0  0  0  0  0  0  0  0  0  0
    2.7078   -1.8380   -2.7324 H   0  0  0  0  0  0  0  0  0  0  0  0
    1.8091    1.0849   -2.8231 H   0  0  0  0  0  0  0  0  0  0  0  0
    1.0908   -0.2609   -3.7220 H   0  0  0  0  0  0  0  0  0  0  0  0
    2.7515    0.2375   -4.0644 H   0  0  0  0  0  0  0  0  0  0  0  0
    3.5953    0.5222   -1.1950 H   0  0  0  0  0  0  0  0  0  0  0  0
    3.8229   -1.3910    0.1879 H   0  0  0  0  0  0  0  0  0  0  0  0
    5.3542   -0.7576   -0.3493 H   0  0  0  0  0  0  0  0  0  0  0  0
    6.1361   -1.7225   -2.7937 H   0  0  0  0  0  0  0  0  0  0  0  0
    6.8198   -3.8703   -3.7831 H   0  0  0  0  0  0  0  0  0  0  0  0
    5.9550   -6.0306   -2.8765 H   0  0  0  0  0  0  0  0  0  0  0  0
    4.1885   -6.9747   -0.7437 H   0  0  0  0  0  0  0  0  0  0  0  0
    1.3601   -8.6017    2.6094 H   0  0  0  0  0  0  0  0  0  0  0  0
   -1.3265   -5.1382    4.5721 H   0  0  0  0  0  0  0  0  0  0  0  0
   -0.0901   -1.8058    1.8703 H   0  0  0  0  0  0  0  0  0  0  0  0
   -1.6499    0.9293    4.4672 H   0  0  0  0  0  0  0  0  0  0  0  0
   -2.2215    0.3768    6.8100 H   0  0  0  0  0  0  0  0  0  0  0  0
   -2.2398   -1.2261    8.6797 H   0  0  0  0  0  0  0  0  0  0  0  0
   -1.2446   -3.4784    8.3840 H   0  0  0  0  0  0  0  0  0  0  0  0
   -0.2556   -4.1222    6.2684 H   0  0  0  0  0  0  0  0  0  0  0  0
    1.7063   -3.3118    2.0955 H   0  0  0  0  0  0  0  0  0  0  0  0
  1  2  1  0  0  0  0
  1 34  1  0  0  0  0
  1 35  1  0  0  0  0
  1 36  1  0  0  0  0
  2  3  1  0  0  0  0
  2  4  1  0  0  0  0
  2 37  1  0  0  0  0
  3 38  1  0  0  0  0
  3 39  1  0  0  0  0
  3 40  1  0  0  0  0
  4  5  1  0  0  0  0
  4 41  1  0  0  0  0
  5  6  1  0  0  0  0
  5 42  1  0  0  0  0
  5 43  1  0  0  0  0
  6  7  1  0  0  0  0
  6 33  2  0  0  0  0
  7  8  2  0  0  0  0
  7 44  1  0  0  0  0
  8  9  1  0  0  0  0
  8 45  1  0  0  0  0
  9 10  2  0  0  0  0
  9 46  1  0  0  0  0
 10 11  1  0  0  0  0
 10 33  1  0  0  0  0
 11 12  1  0  0  0  0
 11 47  1  0  0  0  0
 12 13  1  0  0  0  0
 12 32  2  0  0  0  0
 13 14  2  0  0  0  0
 13 31  1  0  0  0  0
 14 15  1  0  0  0  0
 15 16  1  0  0  0  0
 15 48  1  0  0  0  0
 16 17  1  0  0  0  0
 16 31  2  0  0  0  0
 17 18  2  0  0  0  0
 18 19  1  0  0  0  0
 18 49  1  0  0  0  0
 19 20  1  0  0  0  0
 19 30  2  0  0  0  0
 20 21  1  0  0  0  0
 20 29  2  0  0  0  0
 21 22  2  0  0  0  0
 21 50  1  0  0  0  0
 22 23  1  0  0  0  0
 23 24  2  0  0  0  0
 23 51  1  0  0  0  0
 24 25  1  0  0  0  0
 24 29  1  0  0  0  0
 25 26  2  0  0  0  0
 25 52  1  0  0  0  0
 26 27  1  0  0  0  0
 26 53  1  0  0  0  0
 27 28  2  0  0  0  0
 27 54  1  0  0  0  0
 28 29  1  0  0  0  0
 28 55  1  0  0  0  0
 30 31  1  0  0  0  0
 30 56  1  0  0  0  0
 32 33  1  0  0  0  0
M  END
$$$$
