CHEMBL360349
 OpenBabel04072215363D

 52 55  0  0  0  0  0  0  0  0999 V2000
    5.1472  -11.2126   -1.0062 C   0  0  0  0  0  0  0  0  0  0  0  0
    6.1631  -10.2591   -1.3318 O   0  0  0  0  0  0  0  0  0  0  0  0
    5.7099   -9.0300   -1.7386 C   0  0  0  0  0  0  0  0  0  0  0  0
    4.4958   -8.5179   -1.2569 C   0  0  0  0  0  0  0  0  0  0  0  0
    3.9746   -7.3063   -1.6710 C   0  0  0  0  0  0  0  0  0  0  0  0
    2.7757   -6.9592   -1.1810 N   0  0  0  0  0  0  0  0  0  0  0  0
    2.2490   -5.7842   -1.5624 C   0  0  0  0  0  0  0  0  0  0  0  0
    2.8731   -4.9213   -2.4332 C   0  0  0  0  0  0  0  0  0  0  0  0
    4.0838   -5.3205   -3.0112 C   0  0  0  0  0  0  0  0  0  0  0  0
    4.6741   -4.5718   -4.0306 O   0  0  0  0  0  0  0  0  0  0  0  0
    3.8062   -3.9390   -4.9088 C   0  0  0  0  0  0  0  0  0  0  0  0
    2.6886   -4.6111   -5.3993 C   0  0  0  0  0  0  0  0  0  0  0  0
    1.6826   -3.9093   -6.0558 C   0  0  0  0  0  0  0  0  0  0  0  0
    1.7971   -2.5421   -6.3293 C   0  0  0  0  0  0  0  0  0  0  0  0
    0.7539   -1.7954   -6.9401 N   0  0  0  0  0  0  0  0  0  0  0  0
   -0.4480   -2.3265   -7.3794 C   0  0  0  0  0  0  0  0  0  0  0  0
   -0.7561   -3.5079   -7.3140 O   0  0  0  0  0  0  0  0  0  0  0  0
   -1.2910   -1.3823   -7.9493 N   0  0  0  0  0  0  0  0  0  0  0  0
   -2.5212   -1.8274   -8.5164 C   0  0  0  0  0  0  0  0  0  0  0  0
   -3.3748   -2.7087   -7.8383 C   0  0  0  0  0  0  0  0  0  0  0  0
   -4.4823   -3.2474   -8.4954 C   0  0  0  0  0  0  0  0  0  0  0  0
   -4.7273   -2.9033   -9.8215 C   0  0  0  0  0  0  0  0  0  0  0  0
   -5.7628   -3.4646  -10.4552 F   0  0  0  0  0  0  0  0  0  0  0  0
   -3.9200   -1.9989  -10.4910 C   0  0  0  0  0  0  0  0  0  0  0  0
   -2.8355   -1.4447   -9.8224 C   0  0  0  0  0  0  0  0  0  0  0  0
   -2.0193   -0.6081  -10.4800 F   0  0  0  0  0  0  0  0  0  0  0  0
    2.9882   -1.9000   -5.9662 C   0  0  0  0  0  0  0  0  0  0  0  0
    3.9928   -2.5987   -5.2654 C   0  0  0  0  0  0  0  0  0  0  0  0
    5.4364   -1.7575   -4.8335 Cl  0  0  0  0  0  0  0  0  0  0  0  0
    4.6974   -6.5235   -2.5900 C   0  0  0  0  0  0  0  0  0  0  0  0
    5.9546   -7.0012   -3.0288 C   0  0  0  0  0  0  0  0  0  0  0  0
    6.4671   -8.2479   -2.6186 C   0  0  0  0  0  0  0  0  0  0  0  0
    7.6760   -8.5166   -3.1972 O   0  0  0  0  0  0  0  0  0  0  0  0
    8.3007   -9.7798   -3.0345 C   0  0  0  0  0  0  0  0  0  0  0  0
    5.5819  -12.2137   -1.0769 H   0  0  0  0  0  0  0  0  0  0  0  0
    4.3021  -11.1732   -1.7049 H   0  0  0  0  0  0  0  0  0  0  0  0
    4.8046  -11.0682    0.0240 H   0  0  0  0  0  0  0  0  0  0  0  0
    3.9064   -9.0719   -0.5308 H   0  0  0  0  0  0  0  0  0  0  0  0
    1.2683   -5.5592   -1.1543 H   0  0  0  0  0  0  0  0  0  0  0  0
    2.3830   -3.9913   -2.6962 H   0  0  0  0  0  0  0  0  0  0  0  0
    2.5325   -5.6684   -5.1938 H   0  0  0  0  0  0  0  0  0  0  0  0
    0.7962   -4.4834   -6.2980 H   0  0  0  0  0  0  0  0  0  0  0  0
    0.8762   -0.7959   -7.0159 H   0  0  0  0  0  0  0  0  0  0  0  0
   -0.8208   -0.6606   -8.4804 H   0  0  0  0  0  0  0  0  0  0  0  0
   -3.1565   -3.0167   -6.8191 H   0  0  0  0  0  0  0  0  0  0  0  0
   -5.1307   -3.9601   -7.9917 H   0  0  0  0  0  0  0  0  0  0  0  0
   -4.1157   -1.7597  -11.5269 H   0  0  0  0  0  0  0  0  0  0  0  0
    3.1445   -0.8505   -6.2046 H   0  0  0  0  0  0  0  0  0  0  0  0
    6.5506   -6.3949   -3.7102 H   0  0  0  0  0  0  0  0  0  0  0  0
    8.9585   -9.9234   -3.8989 H   0  0  0  0  0  0  0  0  0  0  0  0
    7.6093  -10.6241   -3.0450 H   0  0  0  0  0  0  0  0  0  0  0  0
    8.9288   -9.7801   -2.1384 H   0  0  0  0  0  0  0  0  0  0  0  0
  1  2  1  0  0  0  0
  1 35  1  0  0  0  0
  1 36  1  0  0  0  0
  1 37  1  0  0  0  0
  2  3  1  0  0  0  0
  3  4  1  0  0  0  0
  3 32  2  0  0  0  0
  4  5  2  0  0  0  0
  4 38  1  0  0  0  0
  5  6  1  0  0  0  0
  5 30  1  0  0  0  0
  6  7  2  0  0  0  0
  7  8  1  0  0  0  0
  7 39  1  0  0  0  0
  8  9  2  0  0  0  0
  8 40  1  0  0  0  0
  9 10  1  0  0  0  0
  9 30  1  0  0  0  0
 10 11  1  0  0  0  0
 11 12  1  0  0  0  0
 11 28  2  0  0  0  0
 12 13  2  0  0  0  0
 12 41  1  0  0  0  0
 13 14  1  0  0  0  0
 13 42  1  0  0  0  0
 14 15  1  0  0  0  0
 14 27  2  0  0  0  0
 15 16  1  0  0  0  0
 15 43  1  0  0  0  0
 16 17  2  0  0  0  0
 16 18  1  0  0  0  0
 18 19  1  0  0  0  0
 18 44  1  0  0  0  0
 19 20  1  0  0  0  0
 19 25  2  0  0  0  0
 20 21  2  0  0  0  0
 20 45  1  0  0  0  0
 21 22  1  0  0  0  0
 21 46  1  0  0  0  0
 22 23  1  0  0  0  0
 22 24  2  0  0  0  0
 24 25  1  0  0  0  0
 24 47  1  0  0  0  0
 25 26  1  0  0  0  0
 27 28  1  0  0  0  0
 27 48  1  0  0  0  0
 28 29  1  0  0  0  0
 30 31  2  0  0  0  0
 31 32  1  0  0  0  0
 31 49  1  0  0  0  0
 32 33  1  0  0  0  0
 33 34  1  0  0  0  0
 34 50  1  0  0  0  0
 34 51  1  0  0  0  0
 34 52  1  0  0  0  0
M  END
$$$$
