CHEMBL1765781
 OpenBabel04072215363D

 66 70  0  0  1  0  0  0  0  0999 V2000
   12.6872   -3.0774   -2.4416 C   0  0  0  0  0  0  0  0  0  0  0  0
   11.3470   -2.8785   -1.9381 N   0  0  0  0  0  0  0  0  0  0  0  0
   11.1716   -2.4802   -0.6224 C   0  0  0  0  0  0  0  0  0  0  0  0
   12.0722   -1.6681    0.0725 C   0  0  0  0  0  0  0  0  0  0  0  0
   11.8886   -1.2548    1.3463 N   0  0  0  0  0  0  0  0  0  0  0  0
   10.7269   -1.6616    1.9019 C   0  0  0  0  0  0  0  0  0  0  0  0
    9.7894   -2.4502    1.2303 C   0  0  0  0  0  0  0  0  0  0  0  0
    8.4902   -2.7981    1.8635 C   0  0  0  0  0  0  0  0  0  0  0  0
    7.3832   -2.9641    1.1185 C   0  0  0  0  0  0  0  0  0  0  0  0
    6.1552   -3.1710    1.7050 N   0  0  0  0  0  0  0  0  0  0  0  0
    5.9407   -3.2011    3.0684 C   0  0  0  0  0  0  0  0  0  0  0  0
    4.8211   -3.3184    3.5631 O   0  0  0  0  0  0  0  0  0  0  0  0
    7.1664   -3.0971    3.9370 C   0  0  0  0  0  0  0  0  0  0  0  0
    7.0045   -3.1729    5.3164 N   0  0  0  0  0  0  0  0  0  0  0  0
    8.0222   -3.0582    6.2464 C   0  0  0  0  0  0  0  0  0  0  0  0
    9.2119   -2.9052    5.9600 O   0  0  0  0  0  0  0  0  0  0  0  0
    7.7126   -3.0998    7.6973 C   0  0  0  0  0  0  0  0  0  0  0  0
    6.6271   -3.7569    8.2706 C   0  0  0  0  0  0  0  0  0  0  0  0
    6.5477   -3.8664    9.6752 C   0  0  0  0  0  0  0  0  0  0  0  0
    7.5371   -3.3508   10.5361 C   0  0  0  0  0  0  0  0  0  0  0  0
    7.5255   -3.5239   11.9105 N   0  0  0  0  0  0  0  0  0  0  0  0
    8.7865   -3.5107   12.6697 C   0  0  0  0  0  0  0  0  0  0  0  0
    8.7159   -4.7745   13.5093 C   0  0  0  0  0  0  0  0  0  0  0  0
    7.2480   -4.8305   13.8927 C   0  0  0  0  0  0  0  0  0  0  0  0
    6.5158   -4.3485   12.6232 C   0  0  1  0  0  0  0  0  0  0  0  0
    5.2570   -3.4931   12.9397 C   0  0  0  0  0  0  0  0  0  0  0  0
    4.2122   -4.1150   13.7826 N   0  0  0  0  0  0  0  0  0  0  0  0
    3.5399   -5.2526   13.1394 C   0  0  0  0  0  0  0  0  0  0  0  0
    2.3827   -4.6559   12.3627 C   0  0  0  0  0  0  0  0  0  0  0  0
    1.9084   -3.5366   13.2650 C   0  0  0  0  0  0  0  0  0  0  0  0
    3.1400   -3.1352   14.0717 C   0  0  0  0  0  0  0  0  0  0  0  0
    8.5613   -2.6190    9.9219 C   0  0  0  0  0  0  0  0  0  0  0  0
    8.6591   -2.5096    8.5377 C   0  0  0  0  0  0  0  0  0  0  0  0
    8.3425   -2.9393    3.3051 C   0  0  0  0  0  0  0  0  0  0  0  0
   10.0140   -2.8715   -0.0428 N   0  0  0  0  0  0  0  0  0  0  0  0
   12.6395   -3.4838   -3.4562 H   0  0  0  0  0  0  0  0  0  0  0  0
   13.2538   -3.7777   -1.8191 H   0  0  0  0  0  0  0  0  0  0  0  0
   13.2292   -2.1274   -2.5028 H   0  0  0  0  0  0  0  0  0  0  0  0
   10.6721   -3.6111   -2.1418 H   0  0  0  0  0  0  0  0  0  0  0  0
   12.9875   -1.3119   -0.3840 H   0  0  0  0  0  0  0  0  0  0  0  0
   10.5658   -1.3021    2.9132 H   0  0  0  0  0  0  0  0  0  0  0  0
    7.3923   -2.9023    0.0324 H   0  0  0  0  0  0  0  0  0  0  0  0
    5.3311   -3.2560    1.1221 H   0  0  0  0  0  0  0  0  0  0  0  0
    6.0376   -3.2562    5.6251 H   0  0  0  0  0  0  0  0  0  0  0  0
    5.8679   -4.2409    7.6651 H   0  0  0  0  0  0  0  0  0  0  0  0
    5.6985   -4.4114   10.0788 H   0  0  0  0  0  0  0  0  0  0  0  0
    8.8125   -2.6183   13.3070 H   0  0  0  0  0  0  0  0  0  0  0  0
    9.6990   -3.5329   12.0659 H   0  0  0  0  0  0  0  0  0  0  0  0
    9.3872   -4.7407   14.3720 H   0  0  0  0  0  0  0  0  0  0  0  0
    8.9864   -5.6437   12.8969 H   0  0  0  0  0  0  0  0  0  0  0  0
    7.0637   -4.1664   14.7446 H   0  0  0  0  0  0  0  0  0  0  0  0
    6.9467   -5.8431   14.1793 H   0  0  0  0  0  0  0  0  0  0  0  0
    6.2650   -5.2344   12.0297 H   0  0  0  0  0  0  0  0  0  0  0  0
    4.8209   -3.1333   11.9989 H   0  0  0  0  0  0  0  0  0  0  0  0
    5.6131   -2.5941   13.4639 H   0  0  0  0  0  0  0  0  0  0  0  0
    3.1483   -5.9086   13.9277 H   0  0  0  0  0  0  0  0  0  0  0  0
    4.1889   -5.8679   12.5116 H   0  0  0  0  0  0  0  0  0  0  0  0
    1.5915   -5.3848   12.1624 H   0  0  0  0  0  0  0  0  0  0  0  0
    2.7251   -4.2509   11.4034 H   0  0  0  0  0  0  0  0  0  0  0  0
    1.1231   -3.9023   13.9374 H   0  0  0  0  0  0  0  0  0  0  0  0
    1.4962   -2.7027   12.6878 H   0  0  0  0  0  0  0  0  0  0  0  0
    2.9046   -3.1627   15.1417 H   0  0  0  0  0  0  0  0  0  0  0  0
    3.4279   -2.1017   13.8426 H   0  0  0  0  0  0  0  0  0  0  0  0
    9.3331   -2.1313   10.5101 H   0  0  0  0  0  0  0  0  0  0  0  0
    9.5179   -1.9858    8.1192 H   0  0  0  0  0  0  0  0  0  0  0  0
    9.2718   -2.9099    3.8540 H   0  0  0  0  0  0  0  0  0  0  0  0
  1  2  1  0  0  0  0
  1 36  1  0  0  0  0
  1 37  1  0  0  0  0
  1 38  1  0  0  0  0
  2  3  1  0  0  0  0
  2 39  1  0  0  0  0
  3  4  1  0  0  0  0
  3 35  2  0  0  0  0
  4  5  2  0  0  0  0
  4 40  1  0  0  0  0
  5  6  1  0  0  0  0
  6  7  2  0  0  0  0
  6 41  1  0  0  0  0
  7  8  1  0  0  0  0
  7 35  1  0  0  0  0
  8  9  2  0  0  0  0
  8 34  1  0  0  0  0
  9 10  1  0  0  0  0
  9 42  1  0  0  0  0
 10 11  1  0  0  0  0
 10 43  1  0  0  0  0
 11 12  2  0  0  0  0
 11 13  1  0  0  0  0
 13 14  1  0  0  0  0
 13 34  2  0  0  0  0
 14 15  1  0  0  0  0
 14 44  1  0  0  0  0
 15 16  2  0  0  0  0
 15 17  1  0  0  0  0
 17 18  1  0  0  0  0
 17 33  2  0  0  0  0
 18 19  2  0  0  0  0
 18 45  1  0  0  0  0
 19 20  1  0  0  0  0
 19 46  1  0  0  0  0
 20 21  1  0  0  0  0
 20 32  2  0  0  0  0
 21 22  1  0  0  0  0
 21 25  1  0  0  0  0
 22 23  1  0  0  0  0
 22 47  1  0  0  0  0
 22 48  1  0  0  0  0
 23 24  1  0  0  0  0
 23 49  1  0  0  0  0
 23 50  1  0  0  0  0
 24 25  1  0  0  0  0
 24 51  1  0  0  0  0
 24 52  1  0  0  0  0
 25 26  1  0  0  0  0
 25 53  1  6  0  0  0
 26 27  1  0  0  0  0
 26 54  1  0  0  0  0
 26 55  1  0  0  0  0
 27 28  1  0  0  0  0
 27 31  1  0  0  0  0
 28 29  1  0  0  0  0
 28 56  1  0  0  0  0
 28 57  1  0  0  0  0
 29 30  1  0  0  0  0
 29 58  1  0  0  0  0
 29 59  1  0  0  0  0
 30 31  1  0  0  0  0
 30 60  1  0  0  0  0
 30 61  1  0  0  0  0
 31 62  1  0  0  0  0
 31 63  1  0  0  0  0
 32 33  1  0  0  0  0
 32 64  1  0  0  0  0
 33 65  1  0  0  0  0
 34 66  1  0  0  0  0
M  END
$$$$
