CHEMBL3741965
 OpenBabel04072215373D

 52 55  0  0  0  0  0  0  0  0999 V2000
    6.0866    2.0652   -2.4627 C   0  0  0  0  0  0  0  0  0  0  0  0
    7.5667    1.0899   -2.4635 S   0  0  0  0  0  0  0  0  0  0  0  0
    7.8858    0.8239   -3.8597 O   0  0  0  0  0  0  0  0  0  0  0  0
    8.5387    1.7614   -1.6320 O   0  0  0  0  0  0  0  0  0  0  0  0
    7.0813   -0.4754   -1.7426 C   0  0  0  0  0  0  0  0  0  0  0  0
    6.5650   -0.3135   -0.3394 C   0  0  0  0  0  0  0  0  0  0  0  0
    5.2067   -0.1001   -0.0731 C   0  0  0  0  0  0  0  0  0  0  0  0
    4.7563    0.0107    1.2433 C   0  0  0  0  0  0  0  0  0  0  0  0
    5.6534   -0.1286    2.3064 C   0  0  0  0  0  0  0  0  0  0  0  0
    7.0149   -0.3442    2.0679 C   0  0  0  0  0  0  0  0  0  0  0  0
    7.8860   -0.5660    3.1540 N   0  0  0  0  0  0  0  0  0  0  0  0
    9.2682   -0.3450    3.1590 C   0  0  0  0  0  0  0  0  0  0  0  0
   10.0240   -1.1487    3.9161 N   0  0  0  0  0  0  0  0  0  0  0  0
   11.3419   -0.8604    3.9775 C   0  0  0  0  0  0  0  0  0  0  0  0
   11.9237    0.2240    3.3647 C   0  0  0  0  0  0  0  0  0  0  0  0
   11.0612    1.0050    2.6449 C   0  0  0  0  0  0  0  0  0  0  0  0
   11.5533    2.2052    2.1216 O   0  0  0  0  0  0  0  0  0  0  0  0
   10.6401    3.2169    1.8820 C   0  0  0  0  0  0  0  0  0  0  0  0
    9.4617    3.3598    2.6204 C   0  0  0  0  0  0  0  0  0  0  0  0
    8.4530    4.1975    2.1687 C   0  0  0  0  0  0  0  0  0  0  0  0
    8.7078    5.0567    1.1067 C   0  0  0  0  0  0  0  0  0  0  0  0
    7.7590    5.9778    0.6859 C   0  0  0  0  0  0  0  0  0  0  0  0
    7.3797    5.9502   -0.7994 C   0  0  0  0  0  0  0  0  0  0  0  0
    7.7897    4.9062   -1.5864 N   0  0  0  0  0  0  0  0  0  0  0  0
    6.7820    6.8911   -1.3210 O   0  0  0  0  0  0  0  0  0  0  0  0
    8.1374    7.2702    0.9930 C   0  0  0  0  0  0  0  0  0  0  0  0
    9.4693    7.6026    0.7511 C   0  0  0  0  0  0  0  0  0  0  0  0
   10.4014    6.5813    0.4547 C   0  0  0  0  0  0  0  0  0  0  0  0
   10.0453    5.2543    0.7469 C   0  0  0  0  0  0  0  0  0  0  0  0
   10.9641    4.2066    0.9521 C   0  0  0  0  0  0  0  0  0  0  0  0
    9.7649    0.6894    2.4777 N   0  0  0  0  0  0  0  0  0  0  0  0
    7.4537   -0.4277    0.7398 C   0  0  0  0  0  0  0  0  0  0  0  0
    6.2825    2.9792   -3.0267 H   0  0  0  0  0  0  0  0  0  0  0  0
    5.8185    2.3217   -1.4387 H   0  0  0  0  0  0  0  0  0  0  0  0
    5.2907    1.5009   -2.9477 H   0  0  0  0  0  0  0  0  0  0  0  0
    7.9628   -1.1253   -1.7622 H   0  0  0  0  0  0  0  0  0  0  0  0
    6.3232   -0.9281   -2.3907 H   0  0  0  0  0  0  0  0  0  0  0  0
    4.4839   -0.0220   -0.8823 H   0  0  0  0  0  0  0  0  0  0  0  0
    3.7031    0.1942    1.4431 H   0  0  0  0  0  0  0  0  0  0  0  0
    5.2830   -0.0474    3.3262 H   0  0  0  0  0  0  0  0  0  0  0  0
    7.7206   -1.4501    3.6186 H   0  0  0  0  0  0  0  0  0  0  0  0
   11.9316   -1.5446    4.5810 H   0  0  0  0  0  0  0  0  0  0  0  0
   12.9718    0.4586    3.4699 H   0  0  0  0  0  0  0  0  0  0  0  0
    9.2845    2.7784    3.5197 H   0  0  0  0  0  0  0  0  0  0  0  0
    7.5068    4.2241    2.7020 H   0  0  0  0  0  0  0  0  0  0  0  0
    8.4296    4.1796   -1.2674 H   0  0  0  0  0  0  0  0  0  0  0  0
    7.7891    5.0838   -2.5872 H   0  0  0  0  0  0  0  0  0  0  0  0
    7.3820    8.0126    1.2205 H   0  0  0  0  0  0  0  0  0  0  0  0
    9.7815    8.6389    0.8173 H   0  0  0  0  0  0  0  0  0  0  0  0
   11.4237    6.8505    0.2190 H   0  0  0  0  0  0  0  0  0  0  0  0
   11.9507    4.2346    0.4996 H   0  0  0  0  0  0  0  0  0  0  0  0
    8.5100   -0.6009    0.5357 H   0  0  0  0  0  0  0  0  0  0  0  0
  1  2  1  0  0  0  0
  1 33  1  0  0  0  0
  1 34  1  0  0  0  0
  1 35  1  0  0  0  0
  2  3  2  0  0  0  0
  2  4  2  0  0  0  0
  2  5  1  0  0  0  0
  5  6  1  0  0  0  0
  5 36  1  0  0  0  0
  5 37  1  0  0  0  0
  6  7  1  0  0  0  0
  6 32  2  0  0  0  0
  7  8  2  0  0  0  0
  7 38  1  0  0  0  0
  8  9  1  0  0  0  0
  8 39  1  0  0  0  0
  9 10  2  0  0  0  0
  9 40  1  0  0  0  0
 10 11  1  0  0  0  0
 10 32  1  0  0  0  0
 11 12  1  0  0  0  0
 11 41  1  0  0  0  0
 12 13  1  0  0  0  0
 12 31  2  0  0  0  0
 13 14  2  0  0  0  0
 14 15  1  0  0  0  0
 14 42  1  0  0  0  0
 15 16  2  0  0  0  0
 15 43  1  0  0  0  0
 16 17  1  0  0  0  0
 16 31  1  0  0  0  0
 17 18  1  0  0  0  0
 18 19  1  0  0  0  0
 18 30  2  0  0  0  0
 19 20  2  0  0  0  0
 19 44  1  0  0  0  0
 20 21  1  0  0  0  0
 20 45  1  0  0  0  0
 21 22  1  0  0  0  0
 21 29  2  0  0  0  0
 22 23  1  0  0  0  0
 22 26  2  0  0  0  0
 23 24  1  0  0  0  0
 23 25  2  0  0  0  0
 24 46  1  0  0  0  0
 24 47  1  0  0  0  0
 26 27  1  0  0  0  0
 26 48  1  0  0  0  0
 27 28  2  0  0  0  0
 27 49  1  0  0  0  0
 28 29  1  0  0  0  0
 28 50  1  0  0  0  0
 29 30  1  0  0  0  0
 30 51  1  0  0  0  0
 32 52  1  0  0  0  0
M  END
$$$$
