CHEMBL70034
 OpenBabel04072215383D

 50 53  0  0  0  0  0  0  0  0999 V2000
    4.6333   -0.4165    1.1596 C   0  0  0  0  0  0  0  0  0  0  0  0
    3.2975   -0.4158    0.4131 C   0  0  0  0  0  0  0  0  0  0  0  0
    2.9389    0.9877   -0.0771 C   0  0  0  0  0  0  0  0  0  0  0  0
    3.2830   -1.3744   -0.6910 N   0  0  0  0  0  0  0  0  0  0  0  0
    4.1335   -1.3536   -1.7687 C   0  0  0  0  0  0  0  0  0  0  0  0
    3.7689   -2.3664   -2.6404 C   0  0  0  0  0  0  0  0  0  0  0  0
    4.4592   -2.5941   -3.9051 C   0  0  0  0  0  0  0  0  0  0  0  0
    5.8317   -2.3493   -4.0391 C   0  0  0  0  0  0  0  0  0  0  0  0
    6.4990   -2.6768   -5.2219 C   0  0  0  0  0  0  0  0  0  0  0  0
    5.8231   -3.3449   -6.2443 C   0  0  0  0  0  0  0  0  0  0  0  0
    6.4085   -3.8317   -7.3890 O   0  0  0  0  0  0  0  0  0  0  0  0
    7.7249   -4.2301   -7.3677 C   0  0  0  0  0  0  0  0  0  0  0  0
    8.3519   -4.8402   -6.2781 C   0  0  0  0  0  0  0  0  0  0  0  0
    9.7166   -5.1298   -6.3285 C   0  0  0  0  0  0  0  0  0  0  0  0
   10.4510   -4.8745   -7.4925 C   0  0  0  0  0  0  0  0  0  0  0  0
   11.9292   -5.1481   -7.5439 C   0  0  0  0  0  0  0  0  0  0  0  0
   12.2111   -6.1755   -8.4818 O   0  0  0  0  0  0  0  0  0  0  0  0
    9.7911   -4.3522   -8.6140 C   0  0  0  0  0  0  0  0  0  0  0  0
    8.4346   -4.0305   -8.5504 C   0  0  0  0  0  0  0  0  0  0  0  0
    4.4443   -3.5088   -6.1563 C   0  0  0  0  0  0  0  0  0  0  0  0
    3.7640   -3.0907   -5.0129 C   0  0  0  0  0  0  0  0  0  0  0  0
    2.6601   -3.0603   -2.0355 C   0  0  0  0  0  0  0  0  0  0  0  0
    1.8351   -4.1653   -2.3340 C   0  0  0  0  0  0  0  0  0  0  0  0
    1.9689   -4.9938   -3.4417 N   0  0  0  0  0  0  0  0  0  0  0  0
    0.8328   -4.4869   -1.4937 N   0  0  0  0  0  0  0  0  0  0  0  0
    0.6722   -3.7459   -0.3853 C   0  0  0  0  0  0  0  0  0  0  0  0
    1.3981   -2.6979    0.0245 N   0  0  0  0  0  0  0  0  0  0  0  0
    2.3819   -2.3994   -0.8422 C   0  0  0  0  0  0  0  0  0  0  0  0
    4.5983    0.2698    2.0129 H   0  0  0  0  0  0  0  0  0  0  0  0
    5.4618   -0.1030    0.5153 H   0  0  0  0  0  0  0  0  0  0  0  0
    4.8677   -1.4162    1.5413 H   0  0  0  0  0  0  0  0  0  0  0  0
    2.5246   -0.7299    1.1246 H   0  0  0  0  0  0  0  0  0  0  0  0
    3.6780    1.3680   -0.7910 H   0  0  0  0  0  0  0  0  0  0  0  0
    2.8889    1.6909    0.7606 H   0  0  0  0  0  0  0  0  0  0  0  0
    1.9642    0.9870   -0.5774 H   0  0  0  0  0  0  0  0  0  0  0  0
    4.9101   -0.6028   -1.8397 H   0  0  0  0  0  0  0  0  0  0  0  0
    6.4076   -1.9194   -3.2232 H   0  0  0  0  0  0  0  0  0  0  0  0
    7.5561   -2.4423   -5.3084 H   0  0  0  0  0  0  0  0  0  0  0  0
    7.8003   -5.0662   -5.3694 H   0  0  0  0  0  0  0  0  0  0  0  0
   10.2005   -5.5436   -5.4466 H   0  0  0  0  0  0  0  0  0  0  0  0
   12.3059   -5.4694   -6.5676 H   0  0  0  0  0  0  0  0  0  0  0  0
   12.4728   -4.2411   -7.8281 H   0  0  0  0  0  0  0  0  0  0  0  0
   11.5114   -6.8445   -8.3869 H   0  0  0  0  0  0  0  0  0  0  0  0
   10.3376   -4.1788   -9.5391 H   0  0  0  0  0  0  0  0  0  0  0  0
    7.9339   -3.6088   -9.4182 H   0  0  0  0  0  0  0  0  0  0  0  0
    3.8932   -3.9742   -6.9693 H   0  0  0  0  0  0  0  0  0  0  0  0
    2.6818   -3.1903   -4.9904 H   0  0  0  0  0  0  0  0  0  0  0  0
    2.9293   -5.1519   -3.7224 H   0  0  0  0  0  0  0  0  0  0  0  0
    1.3973   -5.8224   -3.3433 H   0  0  0  0  0  0  0  0  0  0  0  0
   -0.1567   -4.0295    0.2564 H   0  0  0  0  0  0  0  0  0  0  0  0
  1  2  1  0  0  0  0
  1 29  1  0  0  0  0
  1 30  1  0  0  0  0
  1 31  1  0  0  0  0
  2  3  1  0  0  0  0
  2  4  1  0  0  0  0
  2 32  1  0  0  0  0
  3 33  1  0  0  0  0
  3 34  1  0  0  0  0
  3 35  1  0  0  0  0
  4  5  1  0  0  0  0
  4 28  1  0  0  0  0
  5  6  2  0  0  0  0
  5 36  1  0  0  0  0
  6  7  1  0  0  0  0
  6 22  1  0  0  0  0
  7  8  1  0  0  0  0
  7 21  2  0  0  0  0
  8  9  2  0  0  0  0
  8 37  1  0  0  0  0
  9 10  1  0  0  0  0
  9 38  1  0  0  0  0
 10 11  1  0  0  0  0
 10 20  2  0  0  0  0
 11 12  1  0  0  0  0
 12 13  1  0  0  0  0
 12 19  2  0  0  0  0
 13 14  2  0  0  0  0
 13 39  1  0  0  0  0
 14 15  1  0  0  0  0
 14 40  1  0  0  0  0
 15 16  1  0  0  0  0
 15 18  2  0  0  0  0
 16 17  1  0  0  0  0
 16 41  1  0  0  0  0
 16 42  1  0  0  0  0
 17 43  1  0  0  0  0
 18 19  1  0  0  0  0
 18 44  1  0  0  0  0
 19 45  1  0  0  0  0
 20 21  1  0  0  0  0
 20 46  1  0  0  0  0
 21 47  1  0  0  0  0
 22 23  1  0  0  0  0
 22 28  2  0  0  0  0
 23 24  1  0  0  0  0
 23 25  2  0  0  0  0
 24 48  1  0  0  0  0
 24 49  1  0  0  0  0
 25 26  1  0  0  0  0
 26 27  2  0  0  0  0
 26 50  1  0  0  0  0
 27 28  1  0  0  0  0
M  END
$$$$
