CHEMBL3099466
 OpenBabel04072215363D

 80 83  0  0  0  0  0  0  0  0999 V2000
    3.5584    1.5219   -1.0090 C   0  0  0  0  0  0  0  0  0  0  0  0
    4.2800    0.4748   -0.3690 O   0  0  0  0  0  0  0  0  0  0  0  0
    4.0855   -0.8011   -0.8254 C   0  0  0  0  0  0  0  0  0  0  0  0
    3.5977   -1.1013   -2.1050 C   0  0  0  0  0  0  0  0  0  0  0  0
    3.5925   -2.4151   -2.6472 C   0  0  0  0  0  0  0  0  0  0  0  0
    3.1861   -2.6373   -4.0723 C   0  0  0  0  0  0  0  0  0  0  0  0
    3.4924   -1.6081   -4.9871 C   0  0  0  0  0  0  0  0  0  0  0  0
    3.0785   -1.5942   -6.3161 C   0  0  0  0  0  0  0  0  0  0  0  0
    3.2533   -0.4563   -7.1417 N   0  0  0  0  0  0  0  0  0  0  0  0
    3.5379    0.8202   -6.6723 C   0  0  0  0  0  0  0  0  0  0  0  0
    3.6854    1.1199   -5.4939 O   0  0  0  0  0  0  0  0  0  0  0  0
    3.5848    1.7599   -7.6933 N   0  0  0  0  0  0  0  0  0  0  0  0
    3.8867    3.1130   -7.3833 C   0  0  0  0  0  0  0  0  0  0  0  0
    5.0065    3.4080   -6.5934 C   0  0  0  0  0  0  0  0  0  0  0  0
    5.2963    4.7181   -6.2192 C   0  0  0  0  0  0  0  0  0  0  0  0
    4.4729    5.7637   -6.6369 C   0  0  0  0  0  0  0  0  0  0  0  0
    4.6397    7.0810   -6.2857 O   0  0  0  0  0  0  0  0  0  0  0  0
    5.9954    7.4543   -6.0026 C   0  0  0  0  0  0  0  0  0  0  0  0
    6.0833    8.9609   -5.6975 C   0  0  0  0  0  0  0  0  0  0  0  0
    7.4547    9.4154   -5.3707 N   0  0  0  0  0  0  0  0  0  0  0  0
    8.3723    9.2532   -6.5102 C   0  0  0  0  0  0  0  0  0  0  0  0
    9.7935    9.6949   -6.1619 C   0  0  0  0  0  0  0  0  0  0  0  0
    9.8185   11.1335   -5.6694 C   0  0  0  0  0  0  0  0  0  0  0  0
    8.8271   11.3119   -4.5266 C   0  0  0  0  0  0  0  0  0  0  0  0
    7.4308   10.8161   -4.9139 C   0  0  0  0  0  0  0  0  0  0  0  0
    3.3548    5.4732   -7.4257 C   0  0  0  0  0  0  0  0  0  0  0  0
    3.0524    4.1528   -7.8193 C   0  0  0  0  0  0  0  0  0  0  0  0
    1.7779    3.8824   -8.5664 C   0  0  0  0  0  0  0  0  0  0  0  0
    2.4451   -2.7248   -6.8159 C   0  0  0  0  0  0  0  0  0  0  0  0
    2.1751   -3.8144   -5.9693 C   0  0  0  0  0  0  0  0  0  0  0  0
    1.4453   -4.8778   -6.4454 O   0  0  0  0  0  0  0  0  0  0  0  0
    1.9060   -5.4043   -7.6882 C   0  0  0  0  0  0  0  0  0  0  0  0
    2.5218   -3.7735   -4.5916 C   0  0  0  0  0  0  0  0  0  0  0  0
    2.1996   -4.7553   -3.6834 O   0  0  0  0  0  0  0  0  0  0  0  0
    2.1480   -6.0973   -4.1557 C   0  0  0  0  0  0  0  0  0  0  0  0
    4.0660   -3.4365   -1.8164 C   0  0  0  0  0  0  0  0  0  0  0  0
    4.4941   -3.1646   -0.5084 C   0  0  0  0  0  0  0  0  0  0  0  0
    4.4988   -1.8542   -0.0049 C   0  0  0  0  0  0  0  0  0  0  0  0
    4.9345   -1.6663    1.4093 C   0  0  0  0  0  0  0  0  0  0  0  0
    4.3080   -0.5794    2.2490 C   0  0  0  0  0  0  0  0  0  0  0  0
    5.7569   -2.4420    1.8965 O   0  0  0  0  0  0  0  0  0  0  0  0
    3.7348    2.4397   -0.4392 H   0  0  0  0  0  0  0  0  0  0  0  0
    2.4830    1.3184   -0.9900 H   0  0  0  0  0  0  0  0  0  0  0  0
    3.9164    1.6942   -2.0287 H   0  0  0  0  0  0  0  0  0  0  0  0
    3.2426   -0.2854   -2.7308 H   0  0  0  0  0  0  0  0  0  0  0  0
    4.0954   -0.7828   -4.6226 H   0  0  0  0  0  0  0  0  0  0  0  0
    3.0485   -0.5562   -8.1237 H   0  0  0  0  0  0  0  0  0  0  0  0
    2.9137    1.6070   -8.4281 H   0  0  0  0  0  0  0  0  0  0  0  0
    5.6561    2.6091   -6.2390 H   0  0  0  0  0  0  0  0  0  0  0  0
    6.1481    4.8785   -5.5680 H   0  0  0  0  0  0  0  0  0  0  0  0
    6.6004    7.2082   -6.8815 H   0  0  0  0  0  0  0  0  0  0  0  0
    6.3684    6.9158   -5.1245 H   0  0  0  0  0  0  0  0  0  0  0  0
    5.4256    9.1540   -4.8387 H   0  0  0  0  0  0  0  0  0  0  0  0
    5.6611    9.5363   -6.5315 H   0  0  0  0  0  0  0  0  0  0  0  0
    8.0108    9.8143   -7.3815 H   0  0  0  0  0  0  0  0  0  0  0  0
    8.4397    8.2008   -6.8026 H   0  0  0  0  0  0  0  0  0  0  0  0
   10.4374    9.5914   -7.0427 H   0  0  0  0  0  0  0  0  0  0  0  0
   10.2037    9.0337   -5.3875 H   0  0  0  0  0  0  0  0  0  0  0  0
    9.5571   11.8081   -6.4938 H   0  0  0  0  0  0  0  0  0  0  0  0
   10.8286   11.4005   -5.3405 H   0  0  0  0  0  0  0  0  0  0  0  0
    8.7799   12.3696   -4.2436 H   0  0  0  0  0  0  0  0  0  0  0  0
    9.1823   10.7610   -3.6464 H   0  0  0  0  0  0  0  0  0  0  0  0
    7.0145   11.4700   -5.6913 H   0  0  0  0  0  0  0  0  0  0  0  0
    6.7855   10.9070   -4.0315 H   0  0  0  0  0  0  0  0  0  0  0  0
    2.6985    6.2910   -7.7165 H   0  0  0  0  0  0  0  0  0  0  0  0
    1.2737    4.8089   -8.8564 H   0  0  0  0  0  0  0  0  0  0  0  0
    1.0907    3.3156   -7.9261 H   0  0  0  0  0  0  0  0  0  0  0  0
    1.9750    3.3130   -9.4785 H   0  0  0  0  0  0  0  0  0  0  0  0
    2.0979   -2.7408   -7.8437 H   0  0  0  0  0  0  0  0  0  0  0  0
    1.6509   -6.4686   -7.7123 H   0  0  0  0  0  0  0  0  0  0  0  0
    2.9923   -5.3195   -7.8046 H   0  0  0  0  0  0  0  0  0  0  0  0
    1.3879   -4.9143   -8.5178 H   0  0  0  0  0  0  0  0  0  0  0  0
    2.2997   -6.7603   -3.2983 H   0  0  0  0  0  0  0  0  0  0  0  0
    2.9413   -6.3168   -4.8793 H   0  0  0  0  0  0  0  0  0  0  0  0
    1.1576   -6.3238   -4.5617 H   0  0  0  0  0  0  0  0  0  0  0  0
    4.1235   -4.4611   -2.1741 H   0  0  0  0  0  0  0  0  0  0  0  0
    4.8487   -3.9874    0.1129 H   0  0  0  0  0  0  0  0  0  0  0  0
    3.4696   -0.0810    1.7609 H   0  0  0  0  0  0  0  0  0  0  0  0
    5.0698    0.1626    2.5113 H   0  0  0  0  0  0  0  0  0  0  0  0
    3.9037   -1.0293    3.1616 H   0  0  0  0  0  0  0  0  0  0  0  0
  1  2  1  0  0  0  0
  1 42  1  0  0  0  0
  1 43  1  0  0  0  0
  1 44  1  0  0  0  0
  2  3  1  0  0  0  0
  3  4  1  0  0  0  0
  3 38  2  0  0  0  0
  4  5  2  0  0  0  0
  4 45  1  0  0  0  0
  5  6  1  0  0  0  0
  5 36  1  0  0  0  0
  6  7  1  0  0  0  0
  6 33  2  0  0  0  0
  7  8  2  0  0  0  0
  7 46  1  0  0  0  0
  8  9  1  0  0  0  0
  8 29  1  0  0  0  0
  9 10  1  0  0  0  0
  9 47  1  0  0  0  0
 10 11  2  0  0  0  0
 10 12  1  0  0  0  0
 12 13  1  0  0  0  0
 12 48  1  0  0  0  0
 13 14  1  0  0  0  0
 13 27  2  0  0  0  0
 14 15  2  0  0  0  0
 14 49  1  0  0  0  0
 15 16  1  0  0  0  0
 15 50  1  0  0  0  0
 16 17  1  0  0  0  0
 16 26  2  0  0  0  0
 17 18  1  0  0  0  0
 18 19  1  0  0  0  0
 18 51  1  0  0  0  0
 18 52  1  0  0  0  0
 19 20  1  0  0  0  0
 19 53  1  0  0  0  0
 19 54  1  0  0  0  0
 20 21  1  0  0  0  0
 20 25  1  0  0  0  0
 21 22  1  0  0  0  0
 21 55  1  0  0  0  0
 21 56  1  0  0  0  0
 22 23  1  0  0  0  0
 22 57  1  0  0  0  0
 22 58  1  0  0  0  0
 23 24  1  0  0  0  0
 23 59  1  0  0  0  0
 23 60  1  0  0  0  0
 24 25  1  0  0  0  0
 24 61  1  0  0  0  0
 24 62  1  0  0  0  0
 25 63  1  0  0  0  0
 25 64  1  0  0  0  0
 26 27  1  0  0  0  0
 26 65  1  0  0  0  0
 27 28  1  0  0  0  0
 28 66  1  0  0  0  0
 28 67  1  0  0  0  0
 28 68  1  0  0  0  0
 29 30  2  0  0  0  0
 29 69  1  0  0  0  0
 30 31  1  0  0  0  0
 30 33  1  0  0  0  0
 31 32  1  0  0  0  0
 32 70  1  0  0  0  0
 32 71  1  0  0  0  0
 32 72  1  0  0  0  0
 33 34  1  0  0  0  0
 34 35  1  0  0  0  0
 35 73  1  0  0  0  0
 35 74  1  0  0  0  0
 35 75  1  0  0  0  0
 36 37  2  0  0  0  0
 36 76  1  0  0  0  0
 37 38  1  0  0  0  0
 37 77  1  0  0  0  0
 38 39  1  0  0  0  0
 39 40  1  0  0  0  0
 39 41  2  0  0  0  0
 40 78  1  0  0  0  0
 40 79  1  0  0  0  0
 40 80  1  0  0  0  0
M  END
$$$$
