CHEMBL1825138
 OpenBabel04072215363D

 52 55  0  0  1  0  0  0  0  0999 V2000
    3.9885    0.4203    1.0310 C   0  0  0  0  0  0  0  0  0  0  0  0
    3.8918   -0.6459   -0.0724 C   0  0  3  0  0  0  0  0  0  0  0  0
    2.6773   -1.4159    0.0157 O   0  0  0  0  0  0  0  0  0  0  0  0
    2.5014   -2.1576    1.1633 C   0  0  0  0  0  0  0  0  0  0  0  0
    3.5469   -2.7186    1.9005 C   0  0  0  0  0  0  0  0  0  0  0  0
    3.2880   -3.4149    3.0819 C   0  0  0  0  0  0  0  0  0  0  0  0
    4.3592   -4.0043    3.8612 C   0  0  0  0  0  0  0  0  0  0  0  0
    4.3696   -5.1476    4.6891 C   0  0  0  0  0  0  0  0  0  0  0  0
    5.5618   -5.3712    5.2409 N   0  0  0  0  0  0  0  0  0  0  0  0
    6.3383   -4.3800    4.7667 N   0  0  0  0  0  0  0  0  0  0  0  0
    7.7169   -4.2050    5.2244 C   0  0  0  0  0  0  0  0  0  0  0  0
    8.7394   -4.3552    4.0877 C   0  0  0  0  0  0  0  0  0  0  0  0
    9.0055   -5.8187    3.7476 C   0  0  0  0  0  0  0  0  0  0  0  0
    9.4388   -6.5746    4.9206 N   0  0  0  0  0  0  0  0  0  0  0  0
    8.4277   -6.5323    5.9791 C   0  0  0  0  0  0  0  0  0  0  0  0
    8.1156   -5.0995    6.4110 C   0  0  0  0  0  0  0  0  0  0  0  0
    5.6524   -3.5270    3.9392 C   0  0  0  0  0  0  0  0  0  0  0  0
    1.9570   -3.5382    3.4628 C   0  0  0  0  0  0  0  0  0  0  0  0
    0.9131   -3.0620    2.7449 N   0  0  0  0  0  0  0  0  0  0  0  0
    1.1911   -2.4022    1.6037 C   0  0  0  0  0  0  0  0  0  0  0  0
    0.0829   -1.9133    0.9150 N   0  0  0  0  0  0  0  0  0  0  0  0
    4.0729    0.0682   -1.4176 C   0  0  0  0  0  0  0  0  0  0  0  0
    5.3790    0.2073   -1.9583 C   0  0  0  0  0  0  0  0  0  0  0  0
    6.7695   -0.5643   -1.2634 Cl  0  0  0  0  0  0  0  0  0  0  0  0
    5.6329    1.0174   -3.0722 C   0  0  0  0  0  0  0  0  0  0  0  0
    4.5936    1.7017   -3.6861 C   0  0  0  0  0  0  0  0  0  0  0  0
    3.3026    1.5531   -3.1980 C   0  0  0  0  0  0  0  0  0  0  0  0
    2.3188    2.2286   -3.8116 F   0  0  0  0  0  0  0  0  0  0  0  0
    3.0295    0.7513   -2.0783 C   0  0  0  0  0  0  0  0  0  0  0  0
    1.3855    0.7025   -1.5434 Cl  0  0  0  0  0  0  0  0  0  0  0  0
    4.0670   -0.0309    2.0238 H   0  0  0  0  0  0  0  0  0  0  0  0
    3.0977    1.0564    1.0452 H   0  0  0  0  0  0  0  0  0  0  0  0
    4.8671    1.0620    0.8972 H   0  0  0  0  0  0  0  0  0  0  0  0
    4.7154   -1.3558    0.0167 H   0  0  0  0  0  0  0  0  0  0  0  0
    4.5734   -2.6340    1.5672 H   0  0  0  0  0  0  0  0  0  0  0  0
    3.5594   -5.8291    4.9100 H   0  0  0  0  0  0  0  0  0  0  0  0
    7.7451   -3.1633    5.5734 H   0  0  0  0  0  0  0  0  0  0  0  0
    9.6834   -3.8901    4.4036 H   0  0  0  0  0  0  0  0  0  0  0  0
    8.4191   -3.8209    3.1859 H   0  0  0  0  0  0  0  0  0  0  0  0
    9.7958   -5.8727    2.9896 H   0  0  0  0  0  0  0  0  0  0  0  0
    8.1177   -6.2827    3.3032 H   0  0  0  0  0  0  0  0  0  0  0  0
   10.3194   -6.2016    5.2730 H   0  0  0  0  0  0  0  0  0  0  0  0
    8.8058   -7.0904    6.8429 H   0  0  0  0  0  0  0  0  0  0  0  0
    7.5266   -7.0601    5.6494 H   0  0  0  0  0  0  0  0  0  0  0  0
    9.0124   -4.6731    6.8809 H   0  0  0  0  0  0  0  0  0  0  0  0
    7.3373   -5.1025    7.1836 H   0  0  0  0  0  0  0  0  0  0  0  0
    6.1396   -2.6682    3.4976 H   0  0  0  0  0  0  0  0  0  0  0  0
    1.6711   -4.0343    4.3861 H   0  0  0  0  0  0  0  0  0  0  0  0
   -0.7483   -2.2944    1.3497 H   0  0  0  0  0  0  0  0  0  0  0  0
    0.1539   -2.1145   -0.0765 H   0  0  0  0  0  0  0  0  0  0  0  0
    6.6470    1.1342   -3.4498 H   0  0  0  0  0  0  0  0  0  0  0  0
    4.7799    2.3559   -4.5324 H   0  0  0  0  0  0  0  0  0  0  0  0
  1  2  1  0  0  0  0
  1 31  1  0  0  0  0
  1 32  1  0  0  0  0
  1 33  1  0  0  0  0
  2  3  1  0  0  0  0
  2 22  1  0  0  0  0
  2 34  1  0  0  0  0
  3  4  1  0  0  0  0
  4  5  1  0  0  0  0
  4 20  2  0  0  0  0
  5  6  2  0  0  0  0
  5 35  1  0  0  0  0
  6  7  1  0  0  0  0
  6 18  1  0  0  0  0
  7  8  1  0  0  0  0
  7 17  2  0  0  0  0
  8  9  2  0  0  0  0
  8 36  1  0  0  0  0
  9 10  1  0  0  0  0
 10 11  1  0  0  0  0
 10 17  1  0  0  0  0
 11 12  1  0  0  0  0
 11 16  1  0  0  0  0
 11 37  1  0  0  0  0
 12 13  1  0  0  0  0
 12 38  1  0  0  0  0
 12 39  1  0  0  0  0
 13 14  1  0  0  0  0
 13 40  1  0  0  0  0
 13 41  1  0  0  0  0
 14 15  1  0  0  0  0
 14 42  1  0  0  0  0
 15 16  1  0  0  0  0
 15 43  1  0  0  0  0
 15 44  1  0  0  0  0
 16 45  1  0  0  0  0
 16 46  1  0  0  0  0
 17 47  1  0  0  0  0
 18 19  2  0  0  0  0
 18 48  1  0  0  0  0
 19 20  1  0  0  0  0
 20 21  1  0  0  0  0
 21 49  1  0  0  0  0
 21 50  1  0  0  0  0
 22 23  1  0  0  0  0
 22 29  2  0  0  0  0
 23 24  1  0  0  0  0
 23 25  2  0  0  0  0
 25 26  1  0  0  0  0
 25 51  1  0  0  0  0
 26 27  2  0  0  0  0
 26 52  1  0  0  0  0
 27 28  1  0  0  0  0
 27 29  1  0  0  0  0
 29 30  1  0  0  0  0
M  END
$$$$
