CHEMBL4776125
 OpenBabel04072215383D

 85 90  0  0  1  0  0  0  0  0999 V2000
    2.5559   -1.1110    0.6543 C   0  0  0  0  0  0  0  0  0  0  0  0
    2.3469    0.2179    0.1807 O   0  0  0  0  0  0  0  0  0  0  0  0
    3.1409    0.6877   -0.8239 C   0  0  0  0  0  0  0  0  0  0  0  0
    4.3745    0.1279   -1.1333 C   0  0  0  0  0  0  0  0  0  0  0  0
    5.0658    0.4660   -2.3125 C   0  0  0  0  0  0  0  0  0  0  0  0
    6.1832   -0.2510   -2.7904 C   0  0  0  0  0  0  0  0  0  0  0  0
    6.6935   -1.3868   -2.1866 O   0  0  0  0  0  0  0  0  0  0  0  0
    5.8785   -2.4792   -1.9504 C   0  0  0  0  0  0  0  0  0  0  0  0
    4.6132   -2.6763   -2.5028 C   0  0  0  0  0  0  0  0  0  0  0  0
    3.8290   -3.7707   -2.1103 C   0  0  0  0  0  0  0  0  0  0  0  0
    4.3163   -4.7300   -1.2184 C   0  0  0  0  0  0  0  0  0  0  0  0
    3.5718   -5.8761   -0.8440 N   0  0  0  0  0  0  0  0  0  0  0  0
    2.2056   -6.0548   -1.0327 C   0  0  0  0  0  0  0  0  0  0  0  0
    1.4283   -5.1828   -1.4102 O   0  0  0  0  0  0  0  0  0  0  0  0
    1.6652   -7.4560   -0.7538 C   0  0  3  0  0  0  0  0  0  0  0  0
    2.2581   -8.5044   -1.6839 C   0  0  0  0  0  0  0  0  0  0  0  0
    1.8869   -7.7833    0.6701 C   0  0  0  0  0  0  0  0  0  0  0  0
    3.0157   -7.9161    1.3339 N   0  0  0  0  0  0  0  0  0  0  0  0
    2.6626   -8.2227    2.6311 N   0  0  0  0  0  0  0  0  0  0  0  0
    1.3443   -8.2661    2.6675 C   0  0  0  0  0  0  0  0  0  0  0  0
    0.4386   -8.5247    3.7799 C   0  0  0  0  0  0  0  0  0  0  0  0
    0.9636   -8.7404    5.0656 C   0  0  0  0  0  0  0  0  0  0  0  0
    0.1172   -8.9758    6.1524 C   0  0  0  0  0  0  0  0  0  0  0  0
   -1.2576   -8.9979    5.9577 C   0  0  0  0  0  0  0  0  0  0  0  0
   -2.0691   -9.2176    6.9995 F   0  0  0  0  0  0  0  0  0  0  0  0
   -1.8026   -8.7932    4.6962 C   0  0  0  0  0  0  0  0  0  0  0  0
   -0.9565   -8.5575    3.6089 C   0  0  0  0  0  0  0  0  0  0  0  0
    0.7816   -8.0037    1.4449 O   0  0  0  0  0  0  0  0  0  0  0  0
    5.6065   -4.5689   -0.7132 C   0  0  0  0  0  0  0  0  0  0  0  0
    6.3665   -3.4451   -1.0656 C   0  0  0  0  0  0  0  0  0  0  0  0
    7.5835   -3.2971   -0.5201 F   0  0  0  0  0  0  0  0  0  0  0  0
    6.8692    0.1966   -3.9122 C   0  0  0  0  0  0  0  0  0  0  0  0
    6.3769    1.3086   -4.5659 C   0  0  0  0  0  0  0  0  0  0  0  0
    5.2577    1.9644   -4.1921 N   0  0  0  0  0  0  0  0  0  0  0  0
    4.6062    1.5459   -3.0927 C   0  0  0  0  0  0  0  0  0  0  0  0
    3.4394    2.1871   -2.7029 C   0  0  0  0  0  0  0  0  0  0  0  0
    2.7043    1.7794   -1.5809 C   0  0  0  0  0  0  0  0  0  0  0  0
    1.5861    2.5376   -1.3422 O   0  0  0  0  0  0  0  0  0  0  0  0
    1.2103    2.7486    0.0229 C   0  0  0  0  0  0  0  0  0  0  0  0
    2.3109    3.3605    0.8987 C   0  0  0  0  0  0  0  0  0  0  0  0
    2.7142    4.7480    0.3882 C   0  0  0  0  0  0  0  0  0  0  0  0
    3.8351    5.3520    1.1275 N   0  0  0  0  0  0  0  0  0  0  0  0
    3.5787    5.5747    2.5564 C   0  0  0  0  0  0  0  0  0  0  0  0
    2.5825    6.7016    2.8380 C   0  0  0  0  0  0  0  0  0  0  0  0
    3.0492    8.0089    2.1881 C   0  0  3  0  0  0  0  0  0  0  0  0
    2.0316    9.1241    2.4043 C   0  0  0  0  0  0  0  0  0  0  0  0
    3.3243    7.7834    0.6967 C   0  0  0  0  0  0  0  0  0  0  0  0
    4.2778    6.6012    0.4832 C   0  0  0  0  0  0  0  0  0  0  0  0
    3.0938   -1.0672    1.6055 H   0  0  0  0  0  0  0  0  0  0  0  0
    3.0809   -1.7662   -0.0443 H   0  0  0  0  0  0  0  0  0  0  0  0
    1.5769   -1.5664    0.8300 H   0  0  0  0  0  0  0  0  0  0  0  0
    4.8004   -0.6191   -0.4733 H   0  0  0  0  0  0  0  0  0  0  0  0
    4.1784   -1.9734   -3.2075 H   0  0  0  0  0  0  0  0  0  0  0  0
    2.8328   -3.8415   -2.5366 H   0  0  0  0  0  0  0  0  0  0  0  0
    4.0581   -6.5693   -0.2815 H   0  0  0  0  0  0  0  0  0  0  0  0
    0.5831   -7.4187   -0.9431 H   0  0  0  0  0  0  0  0  0  0  0  0
    3.3438   -8.5955   -1.5715 H   0  0  0  0  0  0  0  0  0  0  0  0
    2.0532   -8.2509   -2.7301 H   0  0  0  0  0  0  0  0  0  0  0  0
    1.8206   -9.4898   -1.4856 H   0  0  0  0  0  0  0  0  0  0  0  0
    2.0406   -8.7224    5.2282 H   0  0  0  0  0  0  0  0  0  0  0  0
    0.5229   -9.1388    7.1462 H   0  0  0  0  0  0  0  0  0  0  0  0
   -2.8804   -8.8139    4.5677 H   0  0  0  0  0  0  0  0  0  0  0  0
   -1.4012   -8.3963    2.6280 H   0  0  0  0  0  0  0  0  0  0  0  0
    6.0405   -5.2826   -0.0158 H   0  0  0  0  0  0  0  0  0  0  0  0
    7.7584   -0.3075   -4.2706 H   0  0  0  0  0  0  0  0  0  0  0  0
    6.8771    1.7114   -5.4415 H   0  0  0  0  0  0  0  0  0  0  0  0
    3.0851    3.0299   -3.2919 H   0  0  0  0  0  0  0  0  0  0  0  0
    0.7934    1.8368    0.4598 H   0  0  0  0  0  0  0  0  0  0  0  0
    0.3666    3.4494   -0.0029 H   0  0  0  0  0  0  0  0  0  0  0  0
    3.2015    2.7230    0.9271 H   0  0  0  0  0  0  0  0  0  0  0  0
    1.9275    3.4163    1.9225 H   0  0  0  0  0  0  0  0  0  0  0  0
    1.8313    5.3984    0.3929 H   0  0  0  0  0  0  0  0  0  0  0  0
    3.0209    4.6444   -0.6596 H   0  0  0  0  0  0  0  0  0  0  0  0
    4.5336    5.8217    3.0396 H   0  0  0  0  0  0  0  0  0  0  0  0
    3.2517    4.6554    3.0525 H   0  0  0  0  0  0  0  0  0  0  0  0
    2.4896    6.8382    3.9220 H   0  0  0  0  0  0  0  0  0  0  0  0
    1.5862    6.4257    2.4710 H   0  0  0  0  0  0  0  0  0  0  0  0
    3.9890    8.3144    2.6672 H   0  0  0  0  0  0  0  0  0  0  0  0
    1.0647    8.8774    1.9531 H   0  0  0  0  0  0  0  0  0  0  0  0
    2.3844   10.0613    1.9614 H   0  0  0  0  0  0  0  0  0  0  0  0
    1.8719    9.2983    3.4736 H   0  0  0  0  0  0  0  0  0  0  0  0
    3.7673    8.6864    0.2601 H   0  0  0  0  0  0  0  0  0  0  0  0
    2.3831    7.6088    0.1609 H   0  0  0  0  0  0  0  0  0  0  0  0
    5.2659    6.8644    0.8815 H   0  0  0  0  0  0  0  0  0  0  0  0
    4.4324    6.4420   -0.5916 H   0  0  0  0  0  0  0  0  0  0  0  0
  1  2  1  0  0  0  0
  1 49  1  0  0  0  0
  1 50  1  0  0  0  0
  1 51  1  0  0  0  0
  2  3  1  0  0  0  0
  3  4  1  0  0  0  0
  3 37  2  0  0  0  0
  4  5  2  0  0  0  0
  4 52  1  0  0  0  0
  5  6  1  0  0  0  0
  5 35  1  0  0  0  0
  6  7  1  0  0  0  0
  6 32  2  0  0  0  0
  7  8  1  0  0  0  0
  8  9  1  0  0  0  0
  8 30  2  0  0  0  0
  9 10  2  0  0  0  0
  9 53  1  0  0  0  0
 10 11  1  0  0  0  0
 10 54  1  0  0  0  0
 11 12  1  0  0  0  0
 11 29  2  0  0  0  0
 12 13  1  0  0  0  0
 12 55  1  0  0  0  0
 13 14  2  0  0  0  0
 13 15  1  0  0  0  0
 15 16  1  0  0  0  0
 15 17  1  0  0  0  0
 15 56  1  0  0  0  0
 16 57  1  0  0  0  0
 16 58  1  0  0  0  0
 16 59  1  0  0  0  0
 17 18  2  0  0  0  0
 17 28  1  0  0  0  0
 18 19  1  0  0  0  0
 19 20  2  0  0  0  0
 20 21  1  0  0  0  0
 20 28  1  0  0  0  0
 21 22  1  0  0  0  0
 21 27  2  0  0  0  0
 22 23  2  0  0  0  0
 22 60  1  0  0  0  0
 23 24  1  0  0  0  0
 23 61  1  0  0  0  0
 24 25  1  0  0  0  0
 24 26  2  0  0  0  0
 26 27  1  0  0  0  0
 26 62  1  0  0  0  0
 27 63  1  0  0  0  0
 29 30  1  0  0  0  0
 29 64  1  0  0  0  0
 30 31  1  0  0  0  0
 32 33  1  0  0  0  0
 32 65  1  0  0  0  0
 33 34  2  0  0  0  0
 33 66  1  0  0  0  0
 34 35  1  0  0  0  0
 35 36  2  0  0  0  0
 36 37  1  0  0  0  0
 36 67  1  0  0  0  0
 37 38  1  0  0  0  0
 38 39  1  0  0  0  0
 39 40  1  0  0  0  0
 39 68  1  0  0  0  0
 39 69  1  0  0  0  0
 40 41  1  0  0  0  0
 40 70  1  0  0  0  0
 40 71  1  0  0  0  0
 41 42  1  0  0  0  0
 41 72  1  0  0  0  0
 41 73  1  0  0  0  0
 42 43  1  0  0  0  0
 42 48  1  0  0  0  0
 43 44  1  0  0  0  0
 43 74  1  0  0  0  0
 43 75  1  0  0  0  0
 44 45  1  0  0  0  0
 44 76  1  0  0  0  0
 44 77  1  0  0  0  0
 45 46  1  0  0  0  0
 45 47  1  0  0  0  0
 45 78  1  0  0  0  0
 46 79  1  0  0  0  0
 46 80  1  0  0  0  0
 46 81  1  0  0  0  0
 47 48  1  0  0  0  0
 47 82  1  0  0  0  0
 47 83  1  0  0  0  0
 48 84  1  0  0  0  0
 48 85  1  0  0  0  0
M  END
$$$$
