CHEMBL3938359
 OpenBabel04072215373D

 68 72  0  0  1  0  0  0  0  0999 V2000
    1.1203   -0.3407    0.2162 O   0  0  0  0  0  0  0  0  0  0  0  0
    2.3370   -0.3553    0.0825 C   0  0  0  0  0  0  0  0  0  0  0  0
    2.9780   -0.5824   -1.1293 N   0  0  0  0  0  0  0  0  0  0  0  0
    2.2979   -0.7228   -2.3666 C   0  0  0  0  0  0  0  0  0  0  0  0
    0.9994   -0.2450   -2.5583 C   0  0  0  0  0  0  0  0  0  0  0  0
    0.3044   -0.4238   -3.7537 C   0  0  0  0  0  0  0  0  0  0  0  0
   -0.9954    0.0883   -3.9331 N   0  0  0  0  0  0  0  0  0  0  0  0
   -1.5849    1.0992   -3.1824 C   0  0  0  0  0  0  0  0  0  0  0  0
   -1.0641    1.7420   -2.2743 O   0  0  0  0  0  0  0  0  0  0  0  0
   -3.0324    1.3869   -3.5734 C   0  0  2  0  0  0  0  0  0  0  0  0
   -4.0162    0.5676   -2.7640 C   0  0  0  0  0  0  0  0  0  0  0  0
   -5.2652    0.6178   -3.6189 C   0  0  0  0  0  0  0  0  0  0  0  0
   -4.7544    0.7410   -5.0487 C   0  0  0  0  0  0  0  0  0  0  0  0
   -3.3083    0.9809   -4.9745 N   0  0  0  0  0  0  0  0  0  0  0  0
    0.9222   -1.1266   -4.7871 C   0  0  0  0  0  0  0  0  0  0  0  0
    2.2556   -1.5639   -4.6499 C   0  0  0  0  0  0  0  0  0  0  0  0
    2.9752   -2.2404   -5.7897 C   0  0  0  0  0  0  0  0  0  0  0  0
    2.2158   -2.3885   -6.9098 F   0  0  0  0  0  0  0  0  0  0  0  0
    4.0839   -1.5505   -6.1793 F   0  0  0  0  0  0  0  0  0  0  0  0
    3.4116   -3.4886   -5.4641 F   0  0  0  0  0  0  0  0  0  0  0  0
    2.9381   -1.3459   -3.4357 C   0  0  0  0  0  0  0  0  0  0  0  0
    3.2257   -0.1918    1.1313 N   0  0  0  0  0  0  0  0  0  0  0  0
    2.8668   -0.0068    2.4908 C   0  0  0  0  0  0  0  0  0  0  0  0
    1.5418    0.0546    2.9408 C   0  0  0  0  0  0  0  0  0  0  0  0
    1.2370    0.2189    4.2938 C   0  0  0  0  0  0  0  0  0  0  0  0
    2.2577    0.3858    5.2276 C   0  0  0  0  0  0  0  0  0  0  0  0
    2.0337    0.5881    6.5685 O   0  0  0  0  0  0  0  0  0  0  0  0
    0.9360    1.3273    6.9589 C   0  0  0  0  0  0  0  0  0  0  0  0
    0.4728    2.4403    6.2596 C   0  0  0  0  0  0  0  0  0  0  0  0
   -0.6593    3.0624    6.7289 C   0  0  0  0  0  0  0  0  0  0  0  0
   -1.3039    2.6845    7.8477 N   0  0  0  0  0  0  0  0  0  0  0  0
   -0.8224    1.6469    8.5575 C   0  0  0  0  0  0  0  0  0  0  0  0
   -1.4599    1.2606    9.7507 N   0  0  0  0  0  0  0  0  0  0  0  0
   -2.6041    1.8619   10.2355 C   0  0  0  0  0  0  0  0  0  0  0  0
   -3.2510    2.7732    9.7368 O   0  0  0  0  0  0  0  0  0  0  0  0
   -3.0539    1.3064   11.5544 C   0  0  0  0  0  0  0  0  0  0  0  0
   -4.4042    1.6932   12.1180 C   0  0  0  0  0  0  0  0  0  0  0  0
   -3.1502    2.2340   12.7435 C   0  0  0  0  0  0  0  0  0  0  0  0
    0.3024    0.9425    8.1470 C   0  0  0  0  0  0  0  0  0  0  0  0
    3.5796    0.2927    4.7855 C   0  0  0  0  0  0  0  0  0  0  0  0
    4.5877    0.3908    5.6673 F   0  0  0  0  0  0  0  0  0  0  0  0
    3.8901    0.1043    3.4359 C   0  0  0  0  0  0  0  0  0  0  0  0
    3.9353   -0.8940   -1.0933 H   0  0  0  0  0  0  0  0  0  0  0  0
    0.5026    0.2759   -1.7511 H   0  0  0  0  0  0  0  0  0  0  0  0
   -1.5311   -0.1739   -4.7577 H   0  0  0  0  0  0  0  0  0  0  0  0
   -3.2198    2.4621   -3.4611 H   0  0  0  0  0  0  0  0  0  0  0  0
   -4.1867    0.9884   -1.7667 H   0  0  0  0  0  0  0  0  0  0  0  0
   -3.6776   -0.4677   -2.6345 H   0  0  0  0  0  0  0  0  0  0  0  0
   -5.8550    1.5051   -3.3583 H   0  0  0  0  0  0  0  0  0  0  0  0
   -5.8962   -0.2637   -3.4724 H   0  0  0  0  0  0  0  0  0  0  0  0
   -5.2612    1.5612   -5.5684 H   0  0  0  0  0  0  0  0  0  0  0  0
   -4.9362   -0.1800   -5.6104 H   0  0  0  0  0  0  0  0  0  0  0  0
   -3.0526    1.7535   -5.5926 H   0  0  0  0  0  0  0  0  0  0  0  0
    0.3921   -1.2999   -5.7221 H   0  0  0  0  0  0  0  0  0  0  0  0
    3.9654   -1.6952   -3.3342 H   0  0  0  0  0  0  0  0  0  0  0  0
    4.2081   -0.1700    0.9069 H   0  0  0  0  0  0  0  0  0  0  0  0
    0.6926   -0.0164    2.2689 H   0  0  0  0  0  0  0  0  0  0  0  0
    0.1901    0.2333    4.5868 H   0  0  0  0  0  0  0  0  0  0  0  0
    0.9538    2.8032    5.3605 H   0  0  0  0  0  0  0  0  0  0  0  0
   -1.1022    3.9070    6.2076 H   0  0  0  0  0  0  0  0  0  0  0  0
   -1.0446    0.5111   10.2758 H   0  0  0  0  0  0  0  0  0  0  0  0
   -2.7410    0.2865   11.7562 H   0  0  0  0  0  0  0  0  0  0  0  0
   -4.9674    0.9469   12.6599 H   0  0  0  0  0  0  0  0  0  0  0  0
   -5.0213    2.3840   11.5489 H   0  0  0  0  0  0  0  0  0  0  0  0
   -2.8657    1.8539   13.7184 H   0  0  0  0  0  0  0  0  0  0  0  0
   -2.9288    3.2861   12.5923 H   0  0  0  0  0  0  0  0  0  0  0  0
    0.6861    0.1026    8.7096 H   0  0  0  0  0  0  0  0  0  0  0  0
    4.9348    0.0426    3.1502 H   0  0  0  0  0  0  0  0  0  0  0  0
  1  2  2  0  0  0  0
  2  3  1  0  0  0  0
  2 22  1  0  0  0  0
  3  4  1  0  0  0  0
  3 43  1  0  0  0  0
  4  5  1  0  0  0  0
  4 21  2  0  0  0  0
  5  6  2  0  0  0  0
  5 44  1  0  0  0  0
  6  7  1  0  0  0  0
  6 15  1  0  0  0  0
  7  8  1  0  0  0  0
  7 45  1  0  0  0  0
  8  9  2  0  0  0  0
  8 10  1  0  0  0  0
 10 11  1  0  0  0  0
 10 14  1  0  0  0  0
 10 46  1  1  0  0  0
 11 12  1  0  0  0  0
 11 47  1  0  0  0  0
 11 48  1  0  0  0  0
 12 13  1  0  0  0  0
 12 49  1  0  0  0  0
 12 50  1  0  0  0  0
 13 14  1  0  0  0  0
 13 51  1  0  0  0  0
 13 52  1  0  0  0  0
 14 53  1  0  0  0  0
 15 16  2  0  0  0  0
 15 54  1  0  0  0  0
 16 17  1  0  0  0  0
 16 21  1  0  0  0  0
 17 18  1  0  0  0  0
 17 19  1  0  0  0  0
 17 20  1  0  0  0  0
 21 55  1  0  0  0  0
 22 23  1  0  0  0  0
 22 56  1  0  0  0  0
 23 24  1  0  0  0  0
 23 42  2  0  0  0  0
 24 25  2  0  0  0  0
 24 57  1  0  0  0  0
 25 26  1  0  0  0  0
 25 58  1  0  0  0  0
 26 27  1  0  0  0  0
 26 40  2  0  0  0  0
 27 28  1  0  0  0  0
 28 29  1  0  0  0  0
 28 39  2  0  0  0  0
 29 30  2  0  0  0  0
 29 59  1  0  0  0  0
 30 31  1  0  0  0  0
 30 60  1  0  0  0  0
 31 32  2  0  0  0  0
 32 33  1  0  0  0  0
 32 39  1  0  0  0  0
 33 34  1  0  0  0  0
 33 61  1  0  0  0  0
 34 35  2  0  0  0  0
 34 36  1  0  0  0  0
 36 37  1  0  0  0  0
 36 38  1  0  0  0  0
 36 62  1  0  0  0  0
 37 38  1  0  0  0  0
 37 63  1  0  0  0  0
 37 64  1  0  0  0  0
 38 65  1  0  0  0  0
 38 66  1  0  0  0  0
 39 67  1  0  0  0  0
 40 41  1  0  0  0  0
 40 42  1  0  0  0  0
 42 68  1  0  0  0  0
M  END
$$$$
