CHEMBL3912858
 OpenBabel04072215373D

 41 44  0  0  0  0  0  0  0  0999 V2000
    1.3669   -0.7715   -1.6373 O   0  0  0  0  0  0  0  0  0  0  0  0
    0.0850   -0.5638   -1.2227 C   0  0  0  0  0  0  0  0  0  0  0  0
   -0.8403   -1.6032   -1.1892 C   0  0  0  0  0  0  0  0  0  0  0  0
   -2.1573   -1.3382   -0.8056 C   0  0  0  0  0  0  0  0  0  0  0  0
   -2.5343   -0.0432   -0.4493 C   0  0  0  0  0  0  0  0  0  0  0  0
   -1.5805    0.9728   -0.4039 C   0  0  0  0  0  0  0  0  0  0  0  0
   -1.8537    2.2658   -0.0457 O   0  0  0  0  0  0  0  0  0  0  0  0
   -2.7026    2.5775    0.9945 C   0  0  0  0  0  0  0  0  0  0  0  0
   -3.1867    1.7144    1.9880 C   0  0  0  0  0  0  0  0  0  0  0  0
   -4.1057    2.1577    2.9707 C   0  0  0  0  0  0  0  0  0  0  0  0
   -4.3549    3.5397    3.0636 C   0  0  0  0  0  0  0  0  0  0  0  0
   -5.1044    4.4831    3.8537 C   0  0  0  0  0  0  0  0  0  0  0  0
   -6.4800    4.9260    3.6552 C   0  0  0  0  0  0  0  0  0  0  0  0
   -7.1475    4.7476    2.4964 C   0  0  0  0  0  0  0  0  0  0  0  0
   -7.8941    5.8297    1.8082 C   0  0  0  0  0  0  0  0  0  0  0  0
   -7.3951    7.1515    1.7539 C   0  0  0  0  0  0  0  0  0  0  0  0
   -7.9299    8.0919    0.8647 C   0  0  0  0  0  0  0  0  0  0  0  0
   -8.9612    7.7462    0.0158 C   0  0  0  0  0  0  0  0  0  0  0  0
   -9.4866    6.4567    0.0782 C   0  0  0  0  0  0  0  0  0  0  0  0
   -8.9518    5.5004    0.9603 C   0  0  0  0  0  0  0  0  0  0  0  0
   -4.2696    5.5246    4.0582 N   0  0  0  0  0  0  0  0  0  0  0  0
   -3.6350    5.5757    2.8715 N   0  0  0  0  0  0  0  0  0  0  0  0
   -3.6204    4.3738    2.2270 C   0  0  0  0  0  0  0  0  0  0  0  0
   -2.9506    3.9472    1.0856 C   0  0  0  0  0  0  0  0  0  0  0  0
   -0.2755    0.7204   -0.8330 C   0  0  0  0  0  0  0  0  0  0  0  0
    1.4600   -1.7009   -1.9040 H   0  0  0  0  0  0  0  0  0  0  0  0
   -0.5627   -2.6134   -1.4665 H   0  0  0  0  0  0  0  0  0  0  0  0
   -2.8911   -2.1367   -0.7863 H   0  0  0  0  0  0  0  0  0  0  0  0
   -3.5724    0.1579   -0.2021 H   0  0  0  0  0  0  0  0  0  0  0  0
   -2.8419    0.6848    2.0416 H   0  0  0  0  0  0  0  0  0  0  0  0
   -4.4825    1.4638    3.7170 H   0  0  0  0  0  0  0  0  0  0  0  0
   -6.7304    5.8058    4.2559 H   0  0  0  0  0  0  0  0  0  0  0  0
   -6.8912    3.9201    1.8366 H   0  0  0  0  0  0  0  0  0  0  0  0
   -6.5366    7.4351    2.3686 H   0  0  0  0  0  0  0  0  0  0  0  0
   -7.4762    9.0941    0.8156 H   0  0  0  0  0  0  0  0  0  0  0  0
   -9.3435    8.4610   -0.7007 H   0  0  0  0  0  0  0  0  0  0  0  0
  -10.2848    6.1747   -0.6001 H   0  0  0  0  0  0  0  0  0  0  0  0
   -9.3535    4.4927    0.9472 H   0  0  0  0  0  0  0  0  0  0  0  0
   -3.1168    6.4158    2.6335 H   0  0  0  0  0  0  0  0  0  0  0  0
   -2.5128    4.6463    0.3822 H   0  0  0  0  0  0  0  0  0  0  0  0
    0.4581    1.5221   -0.8667 H   0  0  0  0  0  0  0  0  0  0  0  0
  1  2  1  0  0  0  0
  1 26  1  0  0  0  0
  2  3  1  0  0  0  0
  2 25  2  0  0  0  0
  3  4  2  0  0  0  0
  3 27  1  0  0  0  0
  4  5  1  0  0  0  0
  4 28  1  0  0  0  0
  5  6  2  0  0  0  0
  5 29  1  0  0  0  0
  6  7  1  0  0  0  0
  6 25  1  0  0  0  0
  7  8  1  0  0  0  0
  8  9  1  0  0  0  0
  8 24  2  0  0  0  0
  9 10  2  0  0  0  0
  9 30  1  0  0  0  0
 10 11  1  0  0  0  0
 10 31  1  0  0  0  0
 11 12  1  0  0  0  0
 11 23  2  0  0  0  0
 12 13  1  0  0  0  0
 12 21  2  0  0  0  0
 13 14  2  0  0  0  0
 13 32  1  0  0  0  0
 14 15  1  0  0  0  0
 14 33  1  0  0  0  0
 15 16  1  0  0  0  0
 15 20  2  0  0  0  0
 16 17  2  0  0  0  0
 16 34  1  0  0  0  0
 17 18  1  0  0  0  0
 17 35  1  0  0  0  0
 18 19  2  0  0  0  0
 18 36  1  0  0  0  0
 19 20  1  0  0  0  0
 19 37  1  0  0  0  0
 20 38  1  0  0  0  0
 21 22  1  0  0  0  0
 22 23  1  0  0  0  0
 22 39  1  0  0  0  0
 23 24  1  0  0  0  0
 24 40  1  0  0  0  0
 25 41  1  0  0  0  0
M  END
$$$$
