CHEMBL3590225
 OpenBabel04072215363D

 62 66  0  0  0  0  0  0  0  0999 V2000
    8.0949    3.3122   -9.2390 C   0  0  0  0  0  0  0  0  0  0  0  0
    9.0702    3.0776   -8.1708 N   0  0  0  0  0  0  0  0  0  0  0  0
   10.3795    3.5969   -8.5579 C   0  0  0  0  0  0  0  0  0  0  0  0
    8.6275    3.7007   -6.8999 C   0  0  0  0  0  0  0  0  0  0  0  0
    7.3097    3.0820   -6.4067 C   0  0  0  0  0  0  0  0  0  0  0  0
    6.3002    3.7875   -6.3150 O   0  0  0  0  0  0  0  0  0  0  0  0
    7.2951    1.7297   -6.0928 N   0  0  0  0  0  0  0  0  0  0  0  0
    6.0200    1.0464   -5.9209 C   0  0  0  0  0  0  0  0  0  0  0  0
    6.0003    0.2638   -4.6137 C   0  0  0  0  0  0  0  0  0  0  0  0
    7.2016   -0.6943   -4.5021 C   0  0  0  0  0  0  0  0  0  0  0  0
    7.0474   -1.9122   -5.3764 C   0  0  0  0  0  0  0  0  0  0  0  0
    5.9956   -2.8516   -5.3492 C   0  0  0  0  0  0  0  0  0  0  0  0
    6.2963   -3.8011   -6.3084 C   0  0  0  0  0  0  0  0  0  0  0  0
    5.5380   -4.9931   -6.6655 C   0  0  0  0  0  0  0  0  0  0  0  0
    4.1547   -5.0384   -6.5858 C   0  0  0  0  0  0  0  0  0  0  0  0
    3.4425   -6.1668   -6.8130 N   0  0  0  0  0  0  0  0  0  0  0  0
    4.1470   -7.2763   -7.1291 C   0  0  0  0  0  0  0  0  0  0  0  0
    3.3717   -8.4238   -7.1770 N   0  0  0  0  0  0  0  0  0  0  0  0
    5.5488   -7.2298   -7.2351 C   0  0  0  0  0  0  0  0  0  0  0  0
    6.2830   -8.3787   -7.6487 N   0  0  0  0  0  0  0  0  0  0  0  0
    5.6768   -9.4865   -8.1632 N   0  0  0  0  0  0  0  0  0  0  0  0
    6.6088  -10.3481   -8.5376 N   0  0  0  0  0  0  0  0  0  0  0  0
    7.8263   -9.7978   -8.2678 C   0  0  0  0  0  0  0  0  0  0  0  0
    9.1155  -10.3089   -8.4791 C   0  0  0  0  0  0  0  0  0  0  0  0
   10.2182   -9.5304   -8.1100 C   0  0  0  0  0  0  0  0  0  0  0  0
   10.0407   -8.2731   -7.5338 C   0  0  0  0  0  0  0  0  0  0  0  0
    8.7609   -7.7539   -7.3089 C   0  0  0  0  0  0  0  0  0  0  0  0
    7.6642   -8.5390   -7.6984 C   0  0  0  0  0  0  0  0  0  0  0  0
    6.2560   -6.0819   -6.9950 N   0  0  0  0  0  0  0  0  0  0  0  0
    7.4933   -3.3902   -6.8438 N   0  0  0  0  0  0  0  0  0  0  0  0
    8.2877   -3.9655   -7.9059 C   0  0  0  0  0  0  0  0  0  0  0  0
    7.9606   -2.2516   -6.2886 N   0  0  0  0  0  0  0  0  0  0  0  0
    8.5064    0.0834   -4.7419 C   0  0  0  0  0  0  0  0  0  0  0  0
    8.4774    0.8690   -6.0523 C   0  0  0  0  0  0  0  0  0  0  0  0
    8.4223    2.8285  -10.1659 H   0  0  0  0  0  0  0  0  0  0  0  0
    7.9489    4.3796   -9.4373 H   0  0  0  0  0  0  0  0  0  0  0  0
    7.1229    2.8690   -8.9966 H   0  0  0  0  0  0  0  0  0  0  0  0
   10.7238    3.1191   -9.4822 H   0  0  0  0  0  0  0  0  0  0  0  0
   11.1266    3.3648   -7.7905 H   0  0  0  0  0  0  0  0  0  0  0  0
   10.3665    4.6814   -8.7134 H   0  0  0  0  0  0  0  0  0  0  0  0
    8.4768    4.7803   -7.0243 H   0  0  0  0  0  0  0  0  0  0  0  0
    9.3770    3.5766   -6.1088 H   0  0  0  0  0  0  0  0  0  0  0  0
    5.8845    0.3765   -6.7797 H   0  0  0  0  0  0  0  0  0  0  0  0
    5.1844    1.7534   -5.9394 H   0  0  0  0  0  0  0  0  0  0  0  0
    5.0488   -0.2717   -4.5171 H   0  0  0  0  0  0  0  0  0  0  0  0
    6.0448    0.9780   -3.7809 H   0  0  0  0  0  0  0  0  0  0  0  0
    7.2297   -1.0674   -3.4686 H   0  0  0  0  0  0  0  0  0  0  0  0
    5.1366   -2.8423   -4.6932 H   0  0  0  0  0  0  0  0  0  0  0  0
    3.5656   -4.1686   -6.3174 H   0  0  0  0  0  0  0  0  0  0  0  0
    2.3877   -8.1749   -7.1602 H   0  0  0  0  0  0  0  0  0  0  0  0
    3.6294   -9.0645   -7.9252 H   0  0  0  0  0  0  0  0  0  0  0  0
    9.2476  -11.2913   -8.9200 H   0  0  0  0  0  0  0  0  0  0  0  0
   11.2234   -9.9143   -8.2692 H   0  0  0  0  0  0  0  0  0  0  0  0
   10.9117   -7.6862   -7.2468 H   0  0  0  0  0  0  0  0  0  0  0  0
    8.6371   -6.7832   -6.8406 H   0  0  0  0  0  0  0  0  0  0  0  0
    7.7855   -4.8117   -8.3694 H   0  0  0  0  0  0  0  0  0  0  0  0
    9.2451   -4.2798   -7.4797 H   0  0  0  0  0  0  0  0  0  0  0  0
    8.4534   -3.1961   -8.6656 H   0  0  0  0  0  0  0  0  0  0  0  0
    9.3770   -0.5821   -4.7208 H   0  0  0  0  0  0  0  0  0  0  0  0
    8.6378    0.7962   -3.9167 H   0  0  0  0  0  0  0  0  0  0  0  0
    8.4435    0.2172   -6.9310 H   0  0  0  0  0  0  0  0  0  0  0  0
    9.4021    1.4439   -6.1161 H   0  0  0  0  0  0  0  0  0  0  0  0
  1  2  1  0  0  0  0
  1 35  1  0  0  0  0
  1 36  1  0  0  0  0
  1 37  1  0  0  0  0
  2  3  1  0  0  0  0
  2  4  1  0  0  0  0
  3 38  1  0  0  0  0
  3 39  1  0  0  0  0
  3 40  1  0  0  0  0
  4  5  1  0  0  0  0
  4 41  1  0  0  0  0
  4 42  1  0  0  0  0
  5  6  2  0  0  0  0
  5  7  1  0  0  0  0
  7  8  1  0  0  0  0
  7 34  1  0  0  0  0
  8  9  1  0  0  0  0
  8 43  1  0  0  0  0
  8 44  1  0  0  0  0
  9 10  1  0  0  0  0
  9 45  1  0  0  0  0
  9 46  1  0  0  0  0
 10 11  1  0  0  0  0
 10 33  1  0  0  0  0
 10 47  1  0  0  0  0
 11 12  1  0  0  0  0
 11 32  2  0  0  0  0
 12 13  2  0  0  0  0
 12 48  1  0  0  0  0
 13 14  1  0  0  0  0
 13 30  1  0  0  0  0
 14 15  1  0  0  0  0
 14 29  2  0  0  0  0
 15 16  2  0  0  0  0
 15 49  1  0  0  0  0
 16 17  1  0  0  0  0
 17 18  1  0  0  0  0
 17 19  2  0  0  0  0
 18 50  1  0  0  0  0
 18 51  1  0  0  0  0
 19 20  1  0  0  0  0
 19 29  1  0  0  0  0
 20 21  1  0  0  0  0
 20 28  1  0  0  0  0
 21 22  2  0  0  0  0
 22 23  1  0  0  0  0
 23 24  1  0  0  0  0
 23 28  2  0  0  0  0
 24 25  2  0  0  0  0
 24 52  1  0  0  0  0
 25 26  1  0  0  0  0
 25 53  1  0  0  0  0
 26 27  2  0  0  0  0
 26 54  1  0  0  0  0
 27 28  1  0  0  0  0
 27 55  1  0  0  0  0
 30 31  1  0  0  0  0
 30 32  1  0  0  0  0
 31 56  1  0  0  0  0
 31 57  1  0  0  0  0
 31 58  1  0  0  0  0
 33 34  1  0  0  0  0
 33 59  1  0  0  0  0
 33 60  1  0  0  0  0
 34 61  1  0  0  0  0
 34 62  1  0  0  0  0
M  END
$$$$
