CHEMBL190132
 OpenBabel04072215363D

 56 59  0  0  0  0  0  0  0  0999 V2000
   -0.6031   -7.0012    0.9353 C   0  0  0  0  0  0  0  0  0  0  0  0
   -0.1928   -5.6086    0.8021 N   0  0  0  0  0  0  0  0  0  0  0  0
   -1.3381   -4.7376    0.4929 C   0  0  0  0  0  0  0  0  0  0  0  0
   -0.8860   -3.2674    0.3433 C   0  0  0  0  0  0  0  0  0  0  0  0
   -0.2189   -2.7013    1.5363 N   0  0  0  0  0  0  0  0  0  0  0  0
   -1.1292   -2.4898    2.6754 C   0  0  0  0  0  0  0  0  0  0  0  0
   -2.2815   -1.5118    2.3768 C   0  0  0  0  0  0  0  0  0  0  0  0
   -3.1826   -1.3192    3.5974 C   0  0  0  0  0  0  0  0  0  0  0  0
   -3.6953   -2.6160    3.9913 N   0  0  0  0  0  0  0  0  0  0  0  0
   -4.0902   -2.8059    5.3026 C   0  0  0  0  0  0  0  0  0  0  0  0
   -4.0323   -4.0994    5.7997 C   0  0  0  0  0  0  0  0  0  0  0  0
   -4.1193   -4.3193    7.1622 C   0  0  0  0  0  0  0  0  0  0  0  0
   -3.9237   -5.5578    7.6310 N   0  0  0  0  0  0  0  0  0  0  0  0
   -3.9159   -5.7513    8.9672 C   0  0  0  0  0  0  0  0  0  0  0  0
   -3.6151   -7.0639    9.3240 N   0  0  0  0  0  0  0  0  0  0  0  0
   -4.1286   -4.7319    9.9135 C   0  0  0  0  0  0  0  0  0  0  0  0
   -4.1286   -4.9472   11.3825 C   0  0  0  0  0  0  0  0  0  0  0  0
   -3.2814   -5.8890   11.9943 C   0  0  0  0  0  0  0  0  0  0  0  0
   -3.3688   -6.1856   13.3562 C   0  0  0  0  0  0  0  0  0  0  0  0
   -4.2605   -5.4850   14.1606 C   0  0  0  0  0  0  0  0  0  0  0  0
   -5.0586   -4.4944   13.6036 C   0  0  0  0  0  0  0  0  0  0  0  0
   -5.0031   -4.2360   12.2298 C   0  0  0  0  0  0  0  0  0  0  0  0
   -4.3714   -3.4450    9.3824 C   0  0  0  0  0  0  0  0  0  0  0  0
   -4.3475   -3.2298    7.9994 C   0  0  0  0  0  0  0  0  0  0  0  0
   -4.4890   -1.9742    7.4123 C   0  0  0  0  0  0  0  0  0  0  0  0
   -4.3427   -1.7498    6.0914 N   0  0  0  0  0  0  0  0  0  0  0  0
    0.8817   -3.6234    1.9177 C   0  0  0  0  0  0  0  0  0  0  0  0
    0.4920   -5.1241    2.0154 C   0  0  0  0  0  0  0  0  0  0  0  0
   -1.0779   -7.3494    0.0109 H   0  0  0  0  0  0  0  0  0  0  0  0
   -1.3060   -7.1536    1.7616 H   0  0  0  0  0  0  0  0  0  0  0  0
    0.2698   -7.6426    1.0988 H   0  0  0  0  0  0  0  0  0  0  0  0
   -2.1141   -4.8182    1.2657 H   0  0  0  0  0  0  0  0  0  0  0  0
   -1.7947   -5.0519   -0.4531 H   0  0  0  0  0  0  0  0  0  0  0  0
   -1.7327   -2.6500    0.0286 H   0  0  0  0  0  0  0  0  0  0  0  0
   -0.1788   -3.2049   -0.4947 H   0  0  0  0  0  0  0  0  0  0  0  0
   -0.5499   -2.0701    3.5089 H   0  0  0  0  0  0  0  0  0  0  0  0
   -1.5298   -3.4454    3.0308 H   0  0  0  0  0  0  0  0  0  0  0  0
   -2.9066   -1.8843    1.5590 H   0  0  0  0  0  0  0  0  0  0  0  0
   -1.8753   -0.5418    2.0688 H   0  0  0  0  0  0  0  0  0  0  0  0
   -4.0028   -0.6341    3.3568 H   0  0  0  0  0  0  0  0  0  0  0  0
   -2.5865   -0.8676    4.4004 H   0  0  0  0  0  0  0  0  0  0  0  0
   -4.1350   -3.2001    3.2919 H   0  0  0  0  0  0  0  0  0  0  0  0
   -3.8077   -4.9305    5.1425 H   0  0  0  0  0  0  0  0  0  0  0  0
   -3.5808   -7.6221    8.4756 H   0  0  0  0  0  0  0  0  0  0  0  0
   -4.2588   -7.4302   10.0169 H   0  0  0  0  0  0  0  0  0  0  0  0
   -2.5391   -6.4311   11.4094 H   0  0  0  0  0  0  0  0  0  0  0  0
   -2.7375   -6.9619   13.7800 H   0  0  0  0  0  0  0  0  0  0  0  0
   -4.3249   -5.7084   15.2214 H   0  0  0  0  0  0  0  0  0  0  0  0
   -5.7406   -3.9281   14.2318 H   0  0  0  0  0  0  0  0  0  0  0  0
   -5.6720   -3.4791   11.8304 H   0  0  0  0  0  0  0  0  0  0  0  0
   -4.5253   -2.5979   10.0449 H   0  0  0  0  0  0  0  0  0  0  0  0
   -4.6870   -1.0885    8.0044 H   0  0  0  0  0  0  0  0  0  0  0  0
    1.3368   -3.3020    2.8630 H   0  0  0  0  0  0  0  0  0  0  0  0
    1.6730   -3.5225    1.1630 H   0  0  0  0  0  0  0  0  0  0  0  0
   -0.1378   -5.2812    2.9010 H   0  0  0  0  0  0  0  0  0  0  0  0
    1.4101   -5.7044    2.1676 H   0  0  0  0  0  0  0  0  0  0  0  0
  1  2  1  0  0  0  0
  1 29  1  0  0  0  0
  1 30  1  0  0  0  0
  1 31  1  0  0  0  0
  2  3  1  0  0  0  0
  2 28  1  0  0  0  0
  3  4  1  0  0  0  0
  3 32  1  0  0  0  0
  3 33  1  0  0  0  0
  4  5  1  0  0  0  0
  4 34  1  0  0  0  0
  4 35  1  0  0  0  0
  5  6  1  0  0  0  0
  5 27  1  0  0  0  0
  6  7  1  0  0  0  0
  6 36  1  0  0  0  0
  6 37  1  0  0  0  0
  7  8  1  0  0  0  0
  7 38  1  0  0  0  0
  7 39  1  0  0  0  0
  8  9  1  0  0  0  0
  8 40  1  0  0  0  0
  8 41  1  0  0  0  0
  9 10  1  0  0  0  0
  9 42  1  0  0  0  0
 10 11  1  0  0  0  0
 10 26  2  0  0  0  0
 11 12  2  0  0  0  0
 11 43  1  0  0  0  0
 12 13  1  0  0  0  0
 12 24  1  0  0  0  0
 13 14  2  0  0  0  0
 14 15  1  0  0  0  0
 14 16  1  0  0  0  0
 15 44  1  0  0  0  0
 15 45  1  0  0  0  0
 16 17  1  0  0  0  0
 16 23  2  0  0  0  0
 17 18  1  0  0  0  0
 17 22  2  0  0  0  0
 18 19  2  0  0  0  0
 18 46  1  0  0  0  0
 19 20  1  0  0  0  0
 19 47  1  0  0  0  0
 20 21  2  0  0  0  0
 20 48  1  0  0  0  0
 21 22  1  0  0  0  0
 21 49  1  0  0  0  0
 22 50  1  0  0  0  0
 23 24  1  0  0  0  0
 23 51  1  0  0  0  0
 24 25  2  0  0  0  0
 25 26  1  0  0  0  0
 25 52  1  0  0  0  0
 27 28  1  0  0  0  0
 27 53  1  0  0  0  0
 27 54  1  0  0  0  0
 28 55  1  0  0  0  0
 28 56  1  0  0  0  0
M  END
$$$$
