CHEMBL427233
 OpenBabel04072215383D

 55 59  0  0  0  0  0  0  0  0999 V2000
    0.9321   -0.0403    0.7446 C   0  0  0  0  0  0  0  0  0  0  0  0
    1.9938    0.2643   -0.1823 N   0  0  0  0  0  0  0  0  0  0  0  0
    2.6550    1.4550    0.0788 C   0  0  0  0  0  0  0  0  0  0  0  0
    3.1465    2.0839   -0.9921 N   0  0  0  0  0  0  0  0  0  0  0  0
    3.8282    3.2183   -0.7569 C   0  0  0  0  0  0  0  0  0  0  0  0
    4.0180    3.7500    0.5037 C   0  0  0  0  0  0  0  0  0  0  0  0
    4.7564    4.9233    0.7454 C   0  0  0  0  0  0  0  0  0  0  0  0
    4.8415    5.4981    2.0193 C   0  0  0  0  0  0  0  0  0  0  0  0
    5.5775    6.7733    2.2653 C   0  0  0  0  0  0  0  0  0  0  0  0
    6.2931    6.9263    3.4836 C   0  0  0  0  0  0  0  0  0  0  0  0
    6.9937    8.0988    3.7798 C   0  0  0  0  0  0  0  0  0  0  0  0
    7.6718    8.3400    5.0782 C   0  0  0  0  0  0  0  0  0  0  0  0
    7.6531    9.5020    5.4876 O   0  0  0  0  0  0  0  0  0  0  0  0
    8.3147    7.2695    5.6790 N   0  0  0  0  0  0  0  0  0  0  0  0
    9.0142    7.3488    6.9123 C   0  0  0  0  0  0  0  0  0  0  0  0
    8.8339    8.4170    7.8040 C   0  0  0  0  0  0  0  0  0  0  0  0
    9.5606    8.5139    8.9985 C   0  0  0  0  0  0  0  0  0  0  0  0
   10.4727    7.5296    9.3425 C   0  0  0  0  0  0  0  0  0  0  0  0
   10.6434    6.4584    8.4789 C   0  0  0  0  0  0  0  0  0  0  0  0
    9.9258    6.3583    7.2780 C   0  0  0  0  0  0  0  0  0  0  0  0
   10.3603    5.1462    6.5128 C   0  0  0  0  0  0  0  0  0  0  0  0
   11.3980    4.4713    7.4270 C   0  0  0  0  0  0  0  0  0  0  0  0
   11.6035    5.3345    8.6744 C   0  0  0  0  0  0  0  0  0  0  0  0
    7.0009    9.1521    2.8658 C   0  0  0  0  0  0  0  0  0  0  0  0
    6.3197    9.0337    1.6646 C   0  0  0  0  0  0  0  0  0  0  0  0
    5.5954    7.8698    1.3512 C   0  0  0  0  0  0  0  0  0  0  0  0
    4.8636    7.9015    0.0309 C   0  0  0  0  0  0  0  0  0  0  0  0
    4.2149    4.7857    3.0579 C   0  0  0  0  0  0  0  0  0  0  0  0
    3.5437    3.5747    2.8196 C   0  0  0  0  0  0  0  0  0  0  0  0
    3.4227    3.0472    1.5448 C   0  0  0  0  0  0  0  0  0  0  0  0
    2.7565    1.9058    1.3378 N   0  0  0  0  0  0  0  0  0  0  0  0
    0.4237   -0.9553    0.4222 H   0  0  0  0  0  0  0  0  0  0  0  0
    0.1859    0.7612    0.7830 H   0  0  0  0  0  0  0  0  0  0  0  0
    1.3201   -0.2222    1.7521 H   0  0  0  0  0  0  0  0  0  0  0  0
    1.7355    0.2957   -1.1652 H   0  0  0  0  0  0  0  0  0  0  0  0
    4.2166    3.7088   -1.6454 H   0  0  0  0  0  0  0  0  0  0  0  0
    5.2770    5.3625   -0.0959 H   0  0  0  0  0  0  0  0  0  0  0  0
    6.2731    6.1328    4.2275 H   0  0  0  0  0  0  0  0  0  0  0  0
    8.4241    6.4182    5.1473 H   0  0  0  0  0  0  0  0  0  0  0  0
    8.1203    9.2099    7.6046 H   0  0  0  0  0  0  0  0  0  0  0  0
    9.4052    9.3753    9.6457 H   0  0  0  0  0  0  0  0  0  0  0  0
   11.0451    7.6086   10.2615 H   0  0  0  0  0  0  0  0  0  0  0  0
   10.8237    5.4361    5.5644 H   0  0  0  0  0  0  0  0  0  0  0  0
    9.5215    4.4707    6.3184 H   0  0  0  0  0  0  0  0  0  0  0  0
   12.3492    4.3326    6.8982 H   0  0  0  0  0  0  0  0  0  0  0  0
   11.0639    3.4664    7.7135 H   0  0  0  0  0  0  0  0  0  0  0  0
   12.6306    5.7085    8.7306 H   0  0  0  0  0  0  0  0  0  0  0  0
   11.3712    4.7736    9.5862 H   0  0  0  0  0  0  0  0  0  0  0  0
    7.5212   10.0790    3.0971 H   0  0  0  0  0  0  0  0  0  0  0  0
    6.3387    9.8777    0.9765 H   0  0  0  0  0  0  0  0  0  0  0  0
    4.8637    8.9075   -0.4049 H   0  0  0  0  0  0  0  0  0  0  0  0
    3.8164    7.6113    0.1529 H   0  0  0  0  0  0  0  0  0  0  0  0
    5.3630    7.2676   -0.7058 H   0  0  0  0  0  0  0  0  0  0  0  0
    4.2340    5.1529    4.0816 H   0  0  0  0  0  0  0  0  0  0  0  0
    3.0935    3.0375    3.6541 H   0  0  0  0  0  0  0  0  0  0  0  0
  1  2  1  0  0  0  0
  1 32  1  0  0  0  0
  1 33  1  0  0  0  0
  1 34  1  0  0  0  0
  2  3  1  0  0  0  0
  2 35  1  0  0  0  0
  3  4  1  0  0  0  0
  3 31  2  0  0  0  0
  4  5  2  0  0  0  0
  5  6  1  0  0  0  0
  5 36  1  0  0  0  0
  6  7  1  0  0  0  0
  6 30  2  0  0  0  0
  7  8  2  0  0  0  0
  7 37  1  0  0  0  0
  8  9  1  0  0  0  0
  8 28  1  0  0  0  0
  9 10  1  0  0  0  0
  9 26  2  0  0  0  0
 10 11  2  0  0  0  0
 10 38  1  0  0  0  0
 11 12  1  0  0  0  0
 11 24  1  0  0  0  0
 12 13  2  0  0  0  0
 12 14  1  0  0  0  0
 14 15  1  0  0  0  0
 14 39  1  0  0  0  0
 15 16  1  0  0  0  0
 15 20  2  0  0  0  0
 16 17  2  0  0  0  0
 16 40  1  0  0  0  0
 17 18  1  0  0  0  0
 17 41  1  0  0  0  0
 18 19  2  0  0  0  0
 18 42  1  0  0  0  0
 19 20  1  0  0  0  0
 19 23  1  0  0  0  0
 20 21  1  0  0  0  0
 21 22  1  0  0  0  0
 21 43  1  0  0  0  0
 21 44  1  0  0  0  0
 22 23  1  0  0  0  0
 22 45  1  0  0  0  0
 22 46  1  0  0  0  0
 23 47  1  0  0  0  0
 23 48  1  0  0  0  0
 24 25  2  0  0  0  0
 24 49  1  0  0  0  0
 25 26  1  0  0  0  0
 25 50  1  0  0  0  0
 26 27  1  0  0  0  0
 27 51  1  0  0  0  0
 27 52  1  0  0  0  0
 27 53  1  0  0  0  0
 28 29  2  0  0  0  0
 28 54  1  0  0  0  0
 29 30  1  0  0  0  0
 29 55  1  0  0  0  0
 30 31  1  0  0  0  0
M  END
$$$$
