CHEMBL3910393
 OpenBabel04072215373D

 52 56  0  0  0  0  0  0  0  0999 V2000
    1.0056   -0.1050    0.5199 C   0  0  0  0  0  0  0  0  0  0  0  0
    2.2047    0.1115   -0.2130 O   0  0  0  0  0  0  0  0  0  0  0  0
    2.9614    1.1972    0.1348 C   0  0  0  0  0  0  0  0  0  0  0  0
    2.6952    2.0858    1.1594 C   0  0  0  0  0  0  0  0  0  0  0  0
    3.5903    3.1206    1.3775 C   0  0  0  0  0  0  0  0  0  0  0  0
    3.3947    3.9400    2.4202 F   0  0  0  0  0  0  0  0  0  0  0  0
    4.6939    3.3354    0.5437 C   0  0  0  0  0  0  0  0  0  0  0  0
    4.9623    2.5049   -0.5554 C   0  0  0  0  0  0  0  0  0  0  0  0
    6.0458    2.7228   -1.4600 N   0  0  0  0  0  0  0  0  0  0  0  0
    6.6970    4.0627   -1.4860 C   0  0  0  0  0  0  0  0  0  0  0  0
    6.1997    4.9269   -2.6253 C   0  0  0  0  0  0  0  0  0  0  0  0
    6.8637    6.2670   -2.8498 C   0  0  0  0  0  0  0  0  0  0  0  0
    5.4343    6.2095   -2.3959 C   0  0  0  0  0  0  0  0  0  0  0  0
    6.4428    1.9003   -2.5652 C   0  0  0  0  0  0  0  0  0  0  0  0
    5.5064    1.2584   -3.3821 C   0  0  0  0  0  0  0  0  0  0  0  0
    5.8999    0.3722   -4.3854 C   0  0  0  0  0  0  0  0  0  0  0  0
    7.2331    0.1851   -4.6875 C   0  0  0  0  0  0  0  0  0  0  0  0
    7.5535   -0.6456   -5.6923 N   0  0  0  0  0  0  0  0  0  0  0  0
    8.8663   -0.7206   -6.0042 C   0  0  0  0  0  0  0  0  0  0  0  0
    9.8436    0.0048   -5.3398 C   0  0  0  0  0  0  0  0  0  0  0  0
   11.2288   -0.0332   -5.7748 C   0  0  0  0  0  0  0  0  0  0  0  0
   11.8457   -0.7116   -6.8524 C   0  0  0  0  0  0  0  0  0  0  0  0
   13.1488   -0.4631   -6.9492 N   0  0  0  0  0  0  0  0  0  0  0  0
   13.3821    0.3851   -5.9310 N   0  0  0  0  0  0  0  0  0  0  0  0
   14.7126    0.9014   -5.7151 C   0  0  0  0  0  0  0  0  0  0  0  0
   12.2666    0.6739   -5.2020 C   0  0  0  0  0  0  0  0  0  0  0  0
    9.5252    0.8065   -4.2905 N   0  0  0  0  0  0  0  0  0  0  0  0
    8.2149    0.8965   -3.9623 C   0  0  0  0  0  0  0  0  0  0  0  0
    7.7999    1.7077   -2.8997 C   0  0  0  0  0  0  0  0  0  0  0  0
    4.1086    1.3846   -0.6571 C   0  0  0  0  0  0  0  0  0  0  0  0
    0.5183   -0.9938    0.1064 H   0  0  0  0  0  0  0  0  0  0  0  0
    0.3125    0.7359    0.4088 H   0  0  0  0  0  0  0  0  0  0  0  0
    1.2235   -0.3031    1.5735 H   0  0  0  0  0  0  0  0  0  0  0  0
    1.8389    1.9938    1.8145 H   0  0  0  0  0  0  0  0  0  0  0  0
    5.3340    4.1588    0.8319 H   0  0  0  0  0  0  0  0  0  0  0  0
    7.7833    3.9611   -1.5818 H   0  0  0  0  0  0  0  0  0  0  0  0
    6.5953    4.6145   -0.5497 H   0  0  0  0  0  0  0  0  0  0  0  0
    5.9656    4.3595   -3.5187 H   0  0  0  0  0  0  0  0  0  0  0  0
    7.0682    6.5618   -3.8736 H   0  0  0  0  0  0  0  0  0  0  0  0
    7.6059    6.6116   -2.1381 H   0  0  0  0  0  0  0  0  0  0  0  0
    4.6723    6.4843   -3.1182 H   0  0  0  0  0  0  0  0  0  0  0  0
    5.2100    6.5185   -1.3821 H   0  0  0  0  0  0  0  0  0  0  0  0
    4.4414    1.4391   -3.2623 H   0  0  0  0  0  0  0  0  0  0  0  0
    5.1451   -0.1634   -4.9552 H   0  0  0  0  0  0  0  0  0  0  0  0
    9.0931   -1.3827   -6.8315 H   0  0  0  0  0  0  0  0  0  0  0  0
   11.3987   -1.3741   -7.5855 H   0  0  0  0  0  0  0  0  0  0  0  0
   15.4069    0.4223   -6.4116 H   0  0  0  0  0  0  0  0  0  0  0  0
   15.0049    0.6776   -4.6871 H   0  0  0  0  0  0  0  0  0  0  0  0
   14.6947    1.9801   -5.8875 H   0  0  0  0  0  0  0  0  0  0  0  0
   12.2929    1.3499   -4.3576 H   0  0  0  0  0  0  0  0  0  0  0  0
    8.5837    2.1850   -2.3183 H   0  0  0  0  0  0  0  0  0  0  0  0
    4.3051    0.5926   -1.3703 H   0  0  0  0  0  0  0  0  0  0  0  0
  1  2  1  0  0  0  0
  1 31  1  0  0  0  0
  1 32  1  0  0  0  0
  1 33  1  0  0  0  0
  2  3  1  0  0  0  0
  3  4  1  0  0  0  0
  3 30  2  0  0  0  0
  4  5  2  0  0  0  0
  4 34  1  0  0  0  0
  5  6  1  0  0  0  0
  5  7  1  0  0  0  0
  7  8  2  0  0  0  0
  7 35  1  0  0  0  0
  8  9  1  0  0  0  0
  8 30  1  0  0  0  0
  9 10  1  0  0  0  0
  9 14  1  0  0  0  0
 10 11  1  0  0  0  0
 10 36  1  0  0  0  0
 10 37  1  0  0  0  0
 11 12  1  0  0  0  0
 11 13  1  0  0  0  0
 11 38  1  0  0  0  0
 12 13  1  0  0  0  0
 12 39  1  0  0  0  0
 12 40  1  0  0  0  0
 13 41  1  0  0  0  0
 13 42  1  0  0  0  0
 14 15  1  0  0  0  0
 14 29  2  0  0  0  0
 15 16  2  0  0  0  0
 15 43  1  0  0  0  0
 16 17  1  0  0  0  0
 16 44  1  0  0  0  0
 17 18  1  0  0  0  0
 17 28  2  0  0  0  0
 18 19  2  0  0  0  0
 19 20  1  0  0  0  0
 19 45  1  0  0  0  0
 20 21  1  0  0  0  0
 20 27  2  0  0  0  0
 21 22  1  0  0  0  0
 21 26  2  0  0  0  0
 22 23  2  0  0  0  0
 22 46  1  0  0  0  0
 23 24  1  0  0  0  0
 24 25  1  0  0  0  0
 24 26  1  0  0  0  0
 25 47  1  0  0  0  0
 25 48  1  0  0  0  0
 25 49  1  0  0  0  0
 26 50  1  0  0  0  0
 27 28  1  0  0  0  0
 28 29  1  0  0  0  0
 29 51  1  0  0  0  0
 30 52  1  0  0  0  0
M  END
$$$$
