CHEMBL1242379
 OpenBabel04072215363D

 45 47  0  0  0  0  0  0  0  0999 V2000
    2.3195   -2.0532   -0.2065 C   0  0  0  0  0  0  0  0  0  0  0  0
    2.3070   -0.6949    0.2173 O   0  0  0  0  0  0  0  0  0  0  0  0
    3.0074   -0.4157    1.3593 C   0  0  0  0  0  0  0  0  0  0  0  0
    4.1729   -1.1028    1.7224 C   0  0  0  0  0  0  0  0  0  0  0  0
    4.9053   -0.7180    2.8560 C   0  0  0  0  0  0  0  0  0  0  0  0
    4.4849    0.3543    3.6490 C   0  0  0  0  0  0  0  0  0  0  0  0
    5.2611    0.7610    4.8237 C   0  0  0  0  0  0  0  0  0  0  0  0
    5.8850   -0.1788    5.5556 N   0  0  0  0  0  0  0  0  0  0  0  0
    6.4423    0.4927    6.5881 N   0  0  0  0  0  0  0  0  0  0  0  0
    7.1616   -0.2442    7.6456 C   0  0  0  0  0  0  0  0  0  0  0  0
    7.1338   -1.7727    7.3952 C   0  0  0  0  0  0  0  0  0  0  0  0
    8.6392    0.1892    7.6903 C   0  0  0  0  0  0  0  0  0  0  0  0
    6.5034    0.0040    9.0175 C   0  0  0  0  0  0  0  0  0  0  0  0
    6.2432    1.8495    6.5025 C   0  0  0  0  0  0  0  0  0  0  0  0
    6.6896    2.7856    7.3587 N   0  0  0  0  0  0  0  0  0  0  0  0
    6.3167    4.0177    6.9877 C   0  0  0  0  0  0  0  0  0  0  0  0
    5.5997    4.3720    5.9077 N   0  0  0  0  0  0  0  0  0  0  0  0
    5.1730    3.4065    5.0689 C   0  0  0  0  0  0  0  0  0  0  0  0
    4.4520    3.8483    3.9704 N   0  0  0  0  0  0  0  0  0  0  0  0
    5.4881    2.0675    5.3593 C   0  0  0  0  0  0  0  0  0  0  0  0
    3.3046    1.0122    3.3011 C   0  0  0  0  0  0  0  0  0  0  0  0
    2.5825    0.6585    2.1547 C   0  0  0  0  0  0  0  0  0  0  0  0
    1.5289    1.4973    1.8994 O   0  0  0  0  0  0  0  0  0  0  0  0
    0.3340    0.8658    1.4576 C   0  0  0  0  0  0  0  0  0  0  0  0
    1.5666   -2.1637   -0.9932 H   0  0  0  0  0  0  0  0  0  0  0  0
    2.0491   -2.7296    0.6120 H   0  0  0  0  0  0  0  0  0  0  0  0
    3.2873   -2.3240   -0.6391 H   0  0  0  0  0  0  0  0  0  0  0  0
    4.5617   -1.9216    1.1260 H   0  0  0  0  0  0  0  0  0  0  0  0
    5.8161   -1.2608    3.1063 H   0  0  0  0  0  0  0  0  0  0  0  0
    7.6224   -2.0335    6.4481 H   0  0  0  0  0  0  0  0  0  0  0  0
    6.1063   -2.1545    7.3582 H   0  0  0  0  0  0  0  0  0  0  0  0
    7.6552   -2.3149    8.1924 H   0  0  0  0  0  0  0  0  0  0  0  0
    9.1334    0.0072    6.7288 H   0  0  0  0  0  0  0  0  0  0  0  0
    9.1888   -0.3669    8.4590 H   0  0  0  0  0  0  0  0  0  0  0  0
    8.7525    1.2530    7.9215 H   0  0  0  0  0  0  0  0  0  0  0  0
    5.4482   -0.2924    9.0083 H   0  0  0  0  0  0  0  0  0  0  0  0
    6.5486    1.0558    9.3149 H   0  0  0  0  0  0  0  0  0  0  0  0
    7.0050   -0.5730    9.8032 H   0  0  0  0  0  0  0  0  0  0  0  0
    6.6348    4.8313    7.6321 H   0  0  0  0  0  0  0  0  0  0  0  0
    4.5260    4.8530    3.8612 H   0  0  0  0  0  0  0  0  0  0  0  0
    4.5436    3.3038    3.1229 H   0  0  0  0  0  0  0  0  0  0  0  0
    2.9125    1.8141    3.9218 H   0  0  0  0  0  0  0  0  0  0  0  0
   -0.4971    1.5309    1.7140 H   0  0  0  0  0  0  0  0  0  0  0  0
    0.1621   -0.0908    1.9602 H   0  0  0  0  0  0  0  0  0  0  0  0
    0.3368    0.7540    0.3708 H   0  0  0  0  0  0  0  0  0  0  0  0
  1  2  1  0  0  0  0
  1 25  1  0  0  0  0
  1 26  1  0  0  0  0
  1 27  1  0  0  0  0
  2  3  1  0  0  0  0
  3  4  1  0  0  0  0
  3 22  2  0  0  0  0
  4  5  2  0  0  0  0
  4 28  1  0  0  0  0
  5  6  1  0  0  0  0
  5 29  1  0  0  0  0
  6  7  1  0  0  0  0
  6 21  2  0  0  0  0
  7  8  2  0  0  0  0
  7 20  1  0  0  0  0
  8  9  1  0  0  0  0
  9 10  1  0  0  0  0
  9 14  1  0  0  0  0
 10 11  1  0  0  0  0
 10 12  1  0  0  0  0
 10 13  1  0  0  0  0
 11 30  1  0  0  0  0
 11 31  1  0  0  0  0
 11 32  1  0  0  0  0
 12 33  1  0  0  0  0
 12 34  1  0  0  0  0
 12 35  1  0  0  0  0
 13 36  1  0  0  0  0
 13 37  1  0  0  0  0
 13 38  1  0  0  0  0
 14 15  1  0  0  0  0
 14 20  2  0  0  0  0
 15 16  2  0  0  0  0
 16 17  1  0  0  0  0
 16 39  1  0  0  0  0
 17 18  2  0  0  0  0
 18 19  1  0  0  0  0
 18 20  1  0  0  0  0
 19 40  1  0  0  0  0
 19 41  1  0  0  0  0
 21 22  1  0  0  0  0
 21 42  1  0  0  0  0
 22 23  1  0  0  0  0
 23 24  1  0  0  0  0
 24 43  1  0  0  0  0
 24 44  1  0  0  0  0
 24 45  1  0  0  0  0
M  END
$$$$
