CHEMBL3981059
 OpenBabel04072215373D

 46 49  0  0  0  0  0  0  0  0999 V2000
    3.9683    3.9007    3.1212 C   0  0  0  0  0  0  0  0  0  0  0  0
    4.1639    2.6069    2.5551 O   0  0  0  0  0  0  0  0  0  0  0  0
    5.3251    1.9599    2.8889 C   0  0  0  0  0  0  0  0  0  0  0  0
    6.3315    2.4794    3.7040 C   0  0  0  0  0  0  0  0  0  0  0  0
    7.4486    1.7113    3.9962 C   0  0  0  0  0  0  0  0  0  0  0  0
    7.5678    0.4249    3.4705 C   0  0  0  0  0  0  0  0  0  0  0  0
    6.5829   -0.1208    2.6354 C   0  0  0  0  0  0  0  0  0  0  0  0
    6.6445   -1.4362    2.1416 N   0  0  0  0  0  0  0  0  0  0  0  0
    7.5081   -2.4718    2.4945 C   0  0  0  0  0  0  0  0  0  0  0  0
    7.7802   -3.4102    1.5724 N   0  0  0  0  0  0  0  0  0  0  0  0
    8.6955   -4.3509    1.9056 C   0  0  0  0  0  0  0  0  0  0  0  0
    9.3335   -4.4068    3.1253 C   0  0  0  0  0  0  0  0  0  0  0  0
    8.9148   -3.4543    4.0336 C   0  0  0  0  0  0  0  0  0  0  0  0
    8.0286   -2.4940    3.7278 N   0  0  0  0  0  0  0  0  0  0  0  0
    9.5017   -3.3694    5.4128 C   0  0  0  0  0  0  0  0  0  0  0  0
   10.1552   -4.6912    5.7958 C   0  0  0  0  0  0  0  0  0  0  0  0
   11.0639   -5.0917    4.7222 N   0  0  0  0  0  0  0  0  0  0  0  0
   12.4597   -5.1050    4.7555 C   0  0  0  0  0  0  0  0  0  0  0  0
   13.1174   -5.5974    3.8383 O   0  0  0  0  0  0  0  0  0  0  0  0
   13.2231   -4.5263    5.8970 C   0  0  0  0  0  0  0  0  0  0  0  0
   12.8499   -3.3855    6.6097 C   0  0  0  0  0  0  0  0  0  0  0  0
   13.6324   -2.9204    7.6644 C   0  0  0  0  0  0  0  0  0  0  0  0
   14.8149   -3.5806    7.9384 C   0  0  0  0  0  0  0  0  0  0  0  0
   15.2479   -4.6496    7.2388 N   0  0  0  0  0  0  0  0  0  0  0  0
   14.4485   -5.0918    6.2303 C   0  0  0  0  0  0  0  0  0  0  0  0
   10.3731   -5.4367    3.4715 C   0  0  0  0  0  0  0  0  0  0  0  0
    5.4576    0.6684    2.3607 C   0  0  0  0  0  0  0  0  0  0  0  0
    2.9698    4.2444    2.8367 H   0  0  0  0  0  0  0  0  0  0  0  0
    4.6976    4.6090    2.7165 H   0  0  0  0  0  0  0  0  0  0  0  0
    4.0079    3.8726    4.2152 H   0  0  0  0  0  0  0  0  0  0  0  0
    6.2706    3.4749    4.1343 H   0  0  0  0  0  0  0  0  0  0  0  0
    8.2350    2.1046    4.6353 H   0  0  0  0  0  0  0  0  0  0  0  0
    8.4628   -0.1401    3.7183 H   0  0  0  0  0  0  0  0  0  0  0  0
    6.2549   -1.5928    1.2247 H   0  0  0  0  0  0  0  0  0  0  0  0
    8.9106   -5.0713    1.1204 H   0  0  0  0  0  0  0  0  0  0  0  0
    8.7340   -3.0971    6.1436 H   0  0  0  0  0  0  0  0  0  0  0  0
   10.2309   -2.5541    5.3795 H   0  0  0  0  0  0  0  0  0  0  0  0
    9.3932   -5.4760    5.8920 H   0  0  0  0  0  0  0  0  0  0  0  0
   10.6557   -4.6379    6.7634 H   0  0  0  0  0  0  0  0  0  0  0  0
   11.9680   -2.8196    6.3582 H   0  0  0  0  0  0  0  0  0  0  0  0
   13.3269   -2.0556    8.2433 H   0  0  0  0  0  0  0  0  0  0  0  0
   15.4669   -3.2465    8.7407 H   0  0  0  0  0  0  0  0  0  0  0  0
   14.8469   -5.9405    5.6786 H   0  0  0  0  0  0  0  0  0  0  0  0
    9.8812   -6.4043    3.6301 H   0  0  0  0  0  0  0  0  0  0  0  0
   11.0849   -5.5426    2.6469 H   0  0  0  0  0  0  0  0  0  0  0  0
    4.6518    0.2727    1.7491 H   0  0  0  0  0  0  0  0  0  0  0  0
  1  2  1  0  0  0  0
  1 28  1  0  0  0  0
  1 29  1  0  0  0  0
  1 30  1  0  0  0  0
  2  3  1  0  0  0  0
  3  4  1  0  0  0  0
  3 27  2  0  0  0  0
  4  5  2  0  0  0  0
  4 31  1  0  0  0  0
  5  6  1  0  0  0  0
  5 32  1  0  0  0  0
  6  7  2  0  0  0  0
  6 33  1  0  0  0  0
  7  8  1  0  0  0  0
  7 27  1  0  0  0  0
  8  9  1  0  0  0  0
  8 34  1  0  0  0  0
  9 10  1  0  0  0  0
  9 14  2  0  0  0  0
 10 11  2  0  0  0  0
 11 12  1  0  0  0  0
 11 35  1  0  0  0  0
 12 13  2  0  0  0  0
 12 26  1  0  0  0  0
 13 14  1  0  0  0  0
 13 15  1  0  0  0  0
 15 16  1  0  0  0  0
 15 36  1  0  0  0  0
 15 37  1  0  0  0  0
 16 17  1  0  0  0  0
 16 38  1  0  0  0  0
 16 39  1  0  0  0  0
 17 18  1  0  0  0  0
 17 26  1  0  0  0  0
 18 19  2  0  0  0  0
 18 20  1  0  0  0  0
 20 21  1  0  0  0  0
 20 25  2  0  0  0  0
 21 22  2  0  0  0  0
 21 40  1  0  0  0  0
 22 23  1  0  0  0  0
 22 41  1  0  0  0  0
 23 24  2  0  0  0  0
 23 42  1  0  0  0  0
 24 25  1  0  0  0  0
 25 43  1  0  0  0  0
 26 44  1  0  0  0  0
 26 45  1  0  0  0  0
 27 46  1  0  0  0  0
M  END
$$$$
