CHEMBL3981577
 OpenBabel04072215373D

 51 53  0  0  0  0  0  0  0  0999 V2000
    7.7990   -0.7660   -2.9942 C   0  0  0  0  0  0  0  0  0  0  0  0
    6.7322   -1.3085   -2.1862 N   0  0  0  0  0  0  0  0  0  0  0  0
    5.3914   -1.1945   -2.4171 C   0  0  0  0  0  0  0  0  0  0  0  0
    4.7909   -1.9937   -1.4815 C   0  0  0  0  0  0  0  0  0  0  0  0
    3.4677   -2.2423   -1.4086 N   0  0  0  0  0  0  0  0  0  0  0  0
    2.7884   -3.1979   -0.6540 C   0  0  0  0  0  0  0  0  0  0  0  0
    1.5010   -3.3842   -0.9744 N   0  0  0  0  0  0  0  0  0  0  0  0
    0.8249   -4.2994   -0.2484 C   0  0  0  0  0  0  0  0  0  0  0  0
    1.3644   -5.0098    0.8006 C   0  0  0  0  0  0  0  0  0  0  0  0
    0.3596   -6.0564    1.7181 Cl  0  0  0  0  0  0  0  0  0  0  0  0
    2.7070   -4.7813    1.0492 C   0  0  0  0  0  0  0  0  0  0  0  0
    3.4885   -5.4846    2.1420 C   0  0  0  0  0  0  0  0  0  0  0  0
    3.6950   -6.9846    1.8605 C   0  0  0  0  0  0  0  0  0  0  0  0
    4.3880   -7.8590    2.8982 C   0  0  0  0  0  0  0  0  0  0  0  0
    4.4518   -7.4107    4.2383 C   0  0  0  0  0  0  0  0  0  0  0  0
    4.8903   -8.2351    5.2735 C   0  0  0  0  0  0  0  0  0  0  0  0
    5.2548   -9.5384    4.9987 C   0  0  0  0  0  0  0  0  0  0  0  0
    5.2334   -9.9974    3.6829 C   0  0  0  0  0  0  0  0  0  0  0  0
    4.8395   -9.1808    2.5925 C   0  0  0  0  0  0  0  0  0  0  0  0
    4.9685   -9.7536    1.1441 C   0  0  0  0  0  0  0  0  0  0  0  0
    5.5511  -11.1957    1.1053 C   0  0  0  0  0  0  0  0  0  0  0  0
    3.6015   -9.8474    0.4316 C   0  0  0  0  0  0  0  0  0  0  0  0
    5.9458   -8.9354    0.2636 C   0  0  0  0  0  0  0  0  0  0  0  0
    7.0830   -8.4649    0.8569 N   0  0  0  0  0  0  0  0  0  0  0  0
    5.8056   -8.7940   -0.9501 O   0  0  0  0  0  0  0  0  0  0  0  0
    3.4109   -3.8817    0.3251 N   0  0  0  0  0  0  0  0  0  0  0  0
    5.8520   -2.4904   -0.6927 C   0  0  0  0  0  0  0  0  0  0  0  0
    7.0450   -2.0576   -1.1160 N   0  0  0  0  0  0  0  0  0  0  0  0
    7.3820   -0.0963   -3.7496 H   0  0  0  0  0  0  0  0  0  0  0  0
    8.3126   -1.6018   -3.4774 H   0  0  0  0  0  0  0  0  0  0  0  0
    8.4851   -0.2192   -2.3436 H   0  0  0  0  0  0  0  0  0  0  0  0
    4.9983   -0.6089   -3.2344 H   0  0  0  0  0  0  0  0  0  0  0  0
    2.8196   -1.8459   -2.0772 H   0  0  0  0  0  0  0  0  0  0  0  0
   -0.2082   -4.4417   -0.5504 H   0  0  0  0  0  0  0  0  0  0  0  0
    2.9736   -5.3031    3.0907 H   0  0  0  0  0  0  0  0  0  0  0  0
    4.4750   -5.0091    2.2327 H   0  0  0  0  0  0  0  0  0  0  0  0
    4.2225   -7.0583    0.9065 H   0  0  0  0  0  0  0  0  0  0  0  0
    2.7092   -7.4420    1.7350 H   0  0  0  0  0  0  0  0  0  0  0  0
    4.1325   -6.4102    4.5181 H   0  0  0  0  0  0  0  0  0  0  0  0
    4.9157   -7.8674    6.2961 H   0  0  0  0  0  0  0  0  0  0  0  0
    5.5566  -10.2061    5.8019 H   0  0  0  0  0  0  0  0  0  0  0  0
    5.5315  -11.0333    3.5444 H   0  0  0  0  0  0  0  0  0  0  0  0
    4.8763  -11.9116    1.5912 H   0  0  0  0  0  0  0  0  0  0  0  0
    6.5328  -11.2583    1.5898 H   0  0  0  0  0  0  0  0  0  0  0  0
    5.6955  -11.5417    0.0744 H   0  0  0  0  0  0  0  0  0  0  0  0
    2.8735  -10.4006    1.0333 H   0  0  0  0  0  0  0  0  0  0  0  0
    3.6961  -10.3593   -0.5348 H   0  0  0  0  0  0  0  0  0  0  0  0
    3.1732   -8.8725    0.1926 H   0  0  0  0  0  0  0  0  0  0  0  0
    7.1175   -8.3032    1.8555 H   0  0  0  0  0  0  0  0  0  0  0  0
    7.6793   -7.8894    0.2749 H   0  0  0  0  0  0  0  0  0  0  0  0
    5.8109   -3.1473    0.1638 H   0  0  0  0  0  0  0  0  0  0  0  0
  1  2  1  0  0  0  0
  1 29  1  0  0  0  0
  1 30  1  0  0  0  0
  1 31  1  0  0  0  0
  2  3  1  0  0  0  0
  2 28  1  0  0  0  0
  3  4  2  0  0  0  0
  3 32  1  0  0  0  0
  4  5  1  0  0  0  0
  4 27  1  0  0  0  0
  5  6  1  0  0  0  0
  5 33  1  0  0  0  0
  6  7  1  0  0  0  0
  6 26  2  0  0  0  0
  7  8  2  0  0  0  0
  8  9  1  0  0  0  0
  8 34  1  0  0  0  0
  9 10  1  0  0  0  0
  9 11  2  0  0  0  0
 11 12  1  0  0  0  0
 11 26  1  0  0  0  0
 12 13  1  0  0  0  0
 12 35  1  0  0  0  0
 12 36  1  0  0  0  0
 13 14  1  0  0  0  0
 13 37  1  0  0  0  0
 13 38  1  0  0  0  0
 14 15  1  0  0  0  0
 14 19  2  0  0  0  0
 15 16  2  0  0  0  0
 15 39  1  0  0  0  0
 16 17  1  0  0  0  0
 16 40  1  0  0  0  0
 17 18  2  0  0  0  0
 17 41  1  0  0  0  0
 18 19  1  0  0  0  0
 18 42  1  0  0  0  0
 19 20  1  0  0  0  0
 20 21  1  0  0  0  0
 20 22  1  0  0  0  0
 20 23  1  0  0  0  0
 21 43  1  0  0  0  0
 21 44  1  0  0  0  0
 21 45  1  0  0  0  0
 22 46  1  0  0  0  0
 22 47  1  0  0  0  0
 22 48  1  0  0  0  0
 23 24  1  0  0  0  0
 23 25  2  0  0  0  0
 24 49  1  0  0  0  0
 24 50  1  0  0  0  0
 27 28  2  0  0  0  0
 27 51  1  0  0  0  0
M  END
$$$$
