CHEMBL2023224
 OpenBabel04072215363D

 52 56  0  0  0  0  0  0  0  0999 V2000
    2.3842   -0.4688    1.6050 C   0  0  0  0  0  0  0  0  0  0  0  0
    0.8893   -0.3392    1.5728 C   0  0  0  0  0  0  0  0  0  0  0  0
    0.2857    0.8440    2.0051 C   0  0  0  0  0  0  0  0  0  0  0  0
   -1.0974    0.9688    1.9794 C   0  0  0  0  0  0  0  0  0  0  0  0
   -1.8859   -0.0876    1.5234 C   0  0  0  0  0  0  0  0  0  0  0  0
   -1.3110   -1.2807    1.0719 C   0  0  0  0  0  0  0  0  0  0  0  0
   -2.0759   -2.3819    0.6025 N   0  0  0  0  0  0  0  0  0  0  0  0
   -3.4405   -2.3733    0.3872 C   0  0  0  0  0  0  0  0  0  0  0  0
   -4.1593   -1.3837    0.4736 O   0  0  0  0  0  0  0  0  0  0  0  0
   -3.9385   -3.6426    0.0947 N   0  0  0  0  0  0  0  0  0  0  0  0
   -5.3264   -3.8234   -0.1342 C   0  0  0  0  0  0  0  0  0  0  0  0
   -6.0607   -2.9024   -0.8821 C   0  0  0  0  0  0  0  0  0  0  0  0
   -7.4535   -2.9743   -0.9246 C   0  0  0  0  0  0  0  0  0  0  0  0
   -8.1452   -3.9975   -0.2574 C   0  0  0  0  0  0  0  0  0  0  0  0
   -9.6177   -3.9889   -0.2300 C   0  0  0  0  0  0  0  0  0  0  0  0
  -10.2886   -3.6048   -1.3736 C   0  0  0  0  0  0  0  0  0  0  0  0
  -11.9597   -3.5304   -1.1788 S   0  0  0  0  0  0  0  0  0  0  0  0
  -11.8980   -4.1315    0.4397 C   0  0  0  0  0  0  0  0  0  0  0  0
  -12.9867   -4.4019    1.2985 C   0  0  0  0  0  0  0  0  0  0  0  0
  -14.3889   -4.2528    0.9151 C   0  0  0  0  0  0  0  0  0  0  0  0
  -15.0114   -4.4482   -0.3499 C   0  0  0  0  0  0  0  0  0  0  0  0
  -16.3411   -4.1729   -0.1624 C   0  0  0  0  0  0  0  0  0  0  0  0
  -16.4704   -3.8702    1.1546 N   0  0  0  0  0  0  0  0  0  0  0  0
  -15.3207   -3.9190    1.8350 N   0  0  0  0  0  0  0  0  0  0  0  0
  -12.6460   -4.8090    2.5768 C   0  0  0  0  0  0  0  0  0  0  0  0
  -11.3896   -4.9569    3.0287 N   0  0  0  0  0  0  0  0  0  0  0  0
  -10.3480   -4.7006    2.2143 C   0  0  0  0  0  0  0  0  0  0  0  0
   -9.1125   -4.8389    2.8375 N   0  0  0  0  0  0  0  0  0  0  0  0
  -10.5564   -4.2942    0.8635 C   0  0  0  0  0  0  0  0  0  0  0  0
   -7.3892   -4.9921    0.3740 C   0  0  0  0  0  0  0  0  0  0  0  0
   -5.9890   -4.9013    0.4507 C   0  0  0  0  0  0  0  0  0  0  0  0
    0.0859   -1.3979    1.1031 C   0  0  0  0  0  0  0  0  0  0  0  0
    2.8520    0.4336    2.0151 H   0  0  0  0  0  0  0  0  0  0  0  0
    2.7749   -0.6163    0.5938 H   0  0  0  0  0  0  0  0  0  0  0  0
    2.6779   -1.3109    2.2388 H   0  0  0  0  0  0  0  0  0  0  0  0
    0.8841    1.6770    2.3657 H   0  0  0  0  0  0  0  0  0  0  0  0
   -1.5739    1.8863    2.3154 H   0  0  0  0  0  0  0  0  0  0  0  0
   -2.9589    0.0663    1.5405 H   0  0  0  0  0  0  0  0  0  0  0  0
   -1.5663   -3.1846    0.2669 H   0  0  0  0  0  0  0  0  0  0  0  0
   -3.4561   -4.4011    0.5537 H   0  0  0  0  0  0  0  0  0  0  0  0
   -5.5647   -2.0847   -1.4009 H   0  0  0  0  0  0  0  0  0  0  0  0
   -7.9814   -2.1884   -1.4604 H   0  0  0  0  0  0  0  0  0  0  0  0
   -9.8693   -3.3274   -2.3314 H   0  0  0  0  0  0  0  0  0  0  0  0
  -14.5535   -4.7533   -1.2774 H   0  0  0  0  0  0  0  0  0  0  0  0
  -17.1834   -4.1710   -0.8373 H   0  0  0  0  0  0  0  0  0  0  0  0
  -17.3145   -3.6182    1.6599 H   0  0  0  0  0  0  0  0  0  0  0  0
  -13.4156   -5.0261    3.3147 H   0  0  0  0  0  0  0  0  0  0  0  0
   -9.2731   -4.9273    3.8365 H   0  0  0  0  0  0  0  0  0  0  0  0
   -8.4571   -4.1105    2.5811 H   0  0  0  0  0  0  0  0  0  0  0  0
   -7.8807   -5.8309    0.8630 H   0  0  0  0  0  0  0  0  0  0  0  0
   -5.4499   -5.6383    1.0389 H   0  0  0  0  0  0  0  0  0  0  0  0
    0.5668   -2.3117    0.7645 H   0  0  0  0  0  0  0  0  0  0  0  0
  1  2  1  0  0  0  0
  1 33  1  0  0  0  0
  1 34  1  0  0  0  0
  1 35  1  0  0  0  0
  2  3  1  0  0  0  0
  2 32  2  0  0  0  0
  3  4  2  0  0  0  0
  3 36  1  0  0  0  0
  4  5  1  0  0  0  0
  4 37  1  0  0  0  0
  5  6  2  0  0  0  0
  5 38  1  0  0  0  0
  6  7  1  0  0  0  0
  6 32  1  0  0  0  0
  7  8  1  0  0  0  0
  7 39  1  0  0  0  0
  8  9  2  0  0  0  0
  8 10  1  0  0  0  0
 10 11  1  0  0  0  0
 10 40  1  0  0  0  0
 11 12  1  0  0  0  0
 11 31  2  0  0  0  0
 12 13  2  0  0  0  0
 12 41  1  0  0  0  0
 13 14  1  0  0  0  0
 13 42  1  0  0  0  0
 14 15  1  0  0  0  0
 14 30  2  0  0  0  0
 15 16  2  0  0  0  0
 15 29  1  0  0  0  0
 16 17  1  0  0  0  0
 16 43  1  0  0  0  0
 17 18  1  0  0  0  0
 18 19  1  0  0  0  0
 18 29  2  0  0  0  0
 19 20  1  0  0  0  0
 19 25  2  0  0  0  0
 20 21  1  0  0  0  0
 20 24  2  0  0  0  0
 21 22  2  0  0  0  0
 21 44  1  0  0  0  0
 22 23  1  0  0  0  0
 22 45  1  0  0  0  0
 23 24  1  0  0  0  0
 23 46  1  0  0  0  0
 25 26  1  0  0  0  0
 25 47  1  0  0  0  0
 26 27  2  0  0  0  0
 27 28  1  0  0  0  0
 27 29  1  0  0  0  0
 28 48  1  0  0  0  0
 28 49  1  0  0  0  0
 30 31  1  0  0  0  0
 30 50  1  0  0  0  0
 31 51  1  0  0  0  0
 32 52  1  0  0  0  0
M  END
$$$$
