CHEMBL297769
 OpenBabel04072215363D

 46 49  0  0  0  0  0  0  0  0999 V2000
    2.4830   -3.1418    2.1770 C   0  0  0  0  0  0  0  0  0  0  0  0
    1.0688   -2.6407    2.2108 C   0  0  0  0  0  0  0  0  0  0  0  0
    0.5584   -2.0178    3.3593 C   0  0  0  0  0  0  0  0  0  0  0  0
   -0.7631   -1.5606    3.3940 C   0  0  0  0  0  0  0  0  0  0  0  0
   -1.3418   -0.8464    4.5878 C   0  0  0  0  0  0  0  0  0  0  0  0
   -0.7895   -1.3182    5.8092 O   0  0  0  0  0  0  0  0  0  0  0  0
   -1.5526   -1.7181    2.2471 C   0  0  0  0  0  0  0  0  0  0  0  0
   -1.0812   -2.3663    1.0947 C   0  0  0  0  0  0  0  0  0  0  0  0
   -1.8976   -2.5245   -0.0354 N   0  0  0  0  0  0  0  0  0  0  0  0
   -3.2892   -2.6303   -0.0574 C   0  0  0  0  0  0  0  0  0  0  0  0
   -3.9234   -3.0899    1.0313 N   0  0  0  0  0  0  0  0  0  0  0  0
   -5.2643   -3.0521    1.0437 C   0  0  0  0  0  0  0  0  0  0  0  0
   -6.0037   -2.5182    0.0224 C   0  0  0  0  0  0  0  0  0  0  0  0
   -5.2850   -2.0780   -1.0696 C   0  0  0  0  0  0  0  0  0  0  0  0
   -5.9825   -1.4162   -2.1261 N   0  0  0  0  0  0  0  0  0  0  0  0
   -7.2973   -1.6729   -2.4775 C   0  0  0  0  0  0  0  0  0  0  0  0
   -7.5596   -0.8859   -3.5726 C   0  0  0  0  0  0  0  0  0  0  0  0
   -6.4771   -0.1378   -3.8861 N   0  0  0  0  0  0  0  0  0  0  0  0
   -5.5209   -0.4338   -3.0121 C   0  0  0  0  0  0  0  0  0  0  0  0
   -4.1930    0.2065   -3.0242 C   0  0  0  0  0  0  0  0  0  0  0  0
   -3.4759    0.5169   -1.8608 C   0  0  0  0  0  0  0  0  0  0  0  0
   -2.1595    0.9817   -1.9277 C   0  0  0  0  0  0  0  0  0  0  0  0
   -1.5742    1.2337   -3.1630 C   0  0  0  0  0  0  0  0  0  0  0  0
   -2.3075    1.0330   -4.3306 C   0  0  0  0  0  0  0  0  0  0  0  0
   -3.6065    0.5210   -4.2600 C   0  0  0  0  0  0  0  0  0  0  0  0
   -3.9382   -2.1879   -1.1407 N   0  0  0  0  0  0  0  0  0  0  0  0
    0.2473   -2.7985    1.0817 C   0  0  0  0  0  0  0  0  0  0  0  0
    2.9932   -2.9703    3.1302 H   0  0  0  0  0  0  0  0  0  0  0  0
    3.0476   -2.6263    1.3936 H   0  0  0  0  0  0  0  0  0  0  0  0
    2.4936   -4.2186    1.9813 H   0  0  0  0  0  0  0  0  0  0  0  0
    1.1955   -1.8798    4.2304 H   0  0  0  0  0  0  0  0  0  0  0  0
   -2.4235   -1.0067    4.6411 H   0  0  0  0  0  0  0  0  0  0  0  0
   -1.1549    0.2279    4.5077 H   0  0  0  0  0  0  0  0  0  0  0  0
   -0.8958   -2.2854    5.8019 H   0  0  0  0  0  0  0  0  0  0  0  0
   -2.5639   -1.3148    2.2556 H   0  0  0  0  0  0  0  0  0  0  0  0
   -1.5042   -2.9882   -0.8389 H   0  0  0  0  0  0  0  0  0  0  0  0
   -5.7271   -3.4296    1.9493 H   0  0  0  0  0  0  0  0  0  0  0  0
   -7.0760   -2.4079    0.1315 H   0  0  0  0  0  0  0  0  0  0  0  0
   -7.8962   -2.4248   -1.9883 H   0  0  0  0  0  0  0  0  0  0  0  0
   -8.4726   -0.8432   -4.1558 H   0  0  0  0  0  0  0  0  0  0  0  0
   -3.9066    0.3537   -0.8770 H   0  0  0  0  0  0  0  0  0  0  0  0
   -1.5912    1.1233   -1.0115 H   0  0  0  0  0  0  0  0  0  0  0  0
   -0.5483    1.5901   -3.2164 H   0  0  0  0  0  0  0  0  0  0  0  0
   -1.8649    1.2515   -5.2975 H   0  0  0  0  0  0  0  0  0  0  0  0
   -4.1610    0.3472   -5.1805 H   0  0  0  0  0  0  0  0  0  0  0  0
    0.6545   -3.2712    0.1913 H   0  0  0  0  0  0  0  0  0  0  0  0
  1  2  1  0  0  0  0
  1 28  1  0  0  0  0
  1 29  1  0  0  0  0
  1 30  1  0  0  0  0
  2  3  1  0  0  0  0
  2 27  2  0  0  0  0
  3  4  2  0  0  0  0
  3 31  1  0  0  0  0
  4  5  1  0  0  0  0
  4  7  1  0  0  0  0
  5  6  1  0  0  0  0
  5 32  1  0  0  0  0
  5 33  1  0  0  0  0
  6 34  1  0  0  0  0
  7  8  2  0  0  0  0
  7 35  1  0  0  0  0
  8  9  1  0  0  0  0
  8 27  1  0  0  0  0
  9 10  1  0  0  0  0
  9 36  1  0  0  0  0
 10 11  1  0  0  0  0
 10 26  2  0  0  0  0
 11 12  2  0  0  0  0
 12 13  1  0  0  0  0
 12 37  1  0  0  0  0
 13 14  2  0  0  0  0
 13 38  1  0  0  0  0
 14 15  1  0  0  0  0
 14 26  1  0  0  0  0
 15 16  1  0  0  0  0
 15 19  1  0  0  0  0
 16 17  2  0  0  0  0
 16 39  1  0  0  0  0
 17 18  1  0  0  0  0
 17 40  1  0  0  0  0
 18 19  2  0  0  0  0
 19 20  1  0  0  0  0
 20 21  1  0  0  0  0
 20 25  2  0  0  0  0
 21 22  2  0  0  0  0
 21 41  1  0  0  0  0
 22 23  1  0  0  0  0
 22 42  1  0  0  0  0
 23 24  2  0  0  0  0
 23 43  1  0  0  0  0
 24 25  1  0  0  0  0
 24 44  1  0  0  0  0
 25 45  1  0  0  0  0
 27 46  1  0  0  0  0
M  END
$$$$
