CHEMBL3948234
 OpenBabel04072215373D

 68 70  0  0  0  0  0  0  0  0999 V2000
    2.0574    5.6255    0.3836 C   0  0  0  0  0  0  0  0  0  0  0  0
    2.0391    4.2833    0.6750 O   0  0  0  0  0  0  0  0  0  0  0  0
    3.0313    3.3726    0.4966 C   0  0  0  0  0  0  0  0  0  0  0  0
    2.6587    2.0379    0.6790 C   0  0  0  0  0  0  0  0  0  0  0  0
    3.5593    1.0015    0.4548 C   0  0  0  0  0  0  0  0  0  0  0  0
    3.2182   -0.3118    0.5849 O   0  0  0  0  0  0  0  0  0  0  0  0
    1.9592   -0.8065    0.8671 C   0  0  0  0  0  0  0  0  0  0  0  0
    4.8521    1.3130    0.0532 C   0  0  0  0  0  0  0  0  0  0  0  0
    5.3022    2.6465   -0.1351 C   0  0  0  0  0  0  0  0  0  0  0  0
    6.6212    2.8728   -0.7166 N   0  0  0  0  0  0  0  0  0  0  0  0
    7.0142    1.8720   -1.7796 C   0  0  0  0  0  0  0  0  0  0  0  0
    6.0633    1.8925   -3.0157 C   0  0  0  0  0  0  0  0  0  0  0  0
    6.5430    1.0154   -4.1139 N   0  0  0  0  0  0  0  0  0  0  0  0
    5.5531    0.8630   -5.2193 C   0  0  0  0  0  0  0  0  0  0  0  0
    5.2583    2.1950   -5.9328 C   0  0  0  0  0  0  0  0  0  0  0  0
    6.0542   -0.1394   -6.2816 C   0  0  0  0  0  0  0  0  0  0  0  0
    7.5973    3.9504   -0.4524 C   0  0  0  0  0  0  0  0  0  0  0  0
    8.2956    4.3763   -1.5923 C   0  0  0  0  0  0  0  0  0  0  0  0
    9.4140    5.1473   -1.5359 C   0  0  0  0  0  0  0  0  0  0  0  0
    9.8921    5.6055   -0.3471 C   0  0  0  0  0  0  0  0  0  0  0  0
   11.0591    6.2666   -0.3949 N   0  0  0  0  0  0  0  0  0  0  0  0
   11.5772    6.8671    0.6801 C   0  0  0  0  0  0  0  0  0  0  0  0
   10.8626    6.8930    1.8665 C   0  0  0  0  0  0  0  0  0  0  0  0
   11.3373    7.9837    2.8051 C   0  0  0  0  0  0  0  0  0  0  0  0
   11.5827    8.0096    4.1839 C   0  0  0  0  0  0  0  0  0  0  0  0
   11.9402    9.2707    4.5257 N   0  0  0  0  0  0  0  0  0  0  0  0
   12.2463    9.8174    5.8400 C   0  0  0  0  0  0  0  0  0  0  0  0
   11.9458   10.0553    3.4626 N   0  0  0  0  0  0  0  0  0  0  0  0
   11.6036    9.3189    2.3902 C   0  0  0  0  0  0  0  0  0  0  0  0
   11.4734   10.0306    1.0531 C   0  0  0  0  0  0  0  0  0  0  0  0
   11.0435    9.2534    0.0031 F   0  0  0  0  0  0  0  0  0  0  0  0
   10.5474   11.0436    1.2017 F   0  0  0  0  0  0  0  0  0  0  0  0
   12.6901   10.5960    0.7132 F   0  0  0  0  0  0  0  0  0  0  0  0
    9.7134    6.0962    1.9863 N   0  0  0  0  0  0  0  0  0  0  0  0
    9.2030    5.4185    0.8681 C   0  0  0  0  0  0  0  0  0  0  0  0
    8.0228    4.5275    0.8271 C   0  0  0  0  0  0  0  0  0  0  0  0
    4.3682    3.6930    0.1039 C   0  0  0  0  0  0  0  0  0  0  0  0
   -0.3833    2.6338   -0.9119 Cl  0  0  0  0  0  0  0  0  0  0  0  0
    1.0570    6.0473    0.6270 H   0  0  0  0  0  0  0  0  0  0  0  0
    2.2382    5.7802   -0.7008 H   0  0  0  0  0  0  0  0  0  0  0  0
    2.8215    6.1404    0.9965 H   0  0  0  0  0  0  0  0  0  0  0  0
    1.6454    1.8114    0.9737 H   0  0  0  0  0  0  0  0  0  0  0  0
    2.0074   -1.9139    0.9254 H   0  0  0  0  0  0  0  0  0  0  0  0
    1.2442   -0.5310    0.0616 H   0  0  0  0  0  0  0  0  0  0  0  0
    1.6011   -0.4195    1.8441 H   0  0  0  0  0  0  0  0  0  0  0  0
    5.4945    0.4694   -0.1285 H   0  0  0  0  0  0  0  0  0  0  0  0
    7.0989    0.8559   -1.3657 H   0  0  0  0  0  0  0  0  0  0  0  0
    8.0487    2.0336   -2.1442 H   0  0  0  0  0  0  0  0  0  0  0  0
    6.0137    2.9355   -3.3868 H   0  0  0  0  0  0  0  0  0  0  0  0
    5.0473    1.5759   -2.7003 H   0  0  0  0  0  0  0  0  0  0  0  0
    6.7179    0.0620   -3.7177 H   0  0  0  0  0  0  0  0  0  0  0  0
    4.5999    0.4593   -4.8124 H   0  0  0  0  0  0  0  0  0  0  0  0
    6.1878    2.6229   -6.3679 H   0  0  0  0  0  0  0  0  0  0  0  0
    4.7967    2.9310   -5.2475 H   0  0  0  0  0  0  0  0  0  0  0  0
    4.5306    2.0300   -6.7584 H   0  0  0  0  0  0  0  0  0  0  0  0
    6.9922    0.2131   -6.7627 H   0  0  0  0  0  0  0  0  0  0  0  0
    5.2880   -0.2608   -7.0829 H   0  0  0  0  0  0  0  0  0  0  0  0
    6.2288   -1.1420   -5.8405 H   0  0  0  0  0  0  0  0  0  0  0  0
    8.0033    4.0714   -2.5887 H   0  0  0  0  0  0  0  0  0  0  0  0
    9.9386    5.3785   -2.4510 H   0  0  0  0  0  0  0  0  0  0  0  0
   12.4972    7.4271    0.5565 H   0  0  0  0  0  0  0  0  0  0  0  0
   11.5141    7.1874    4.8806 H   0  0  0  0  0  0  0  0  0  0  0  0
   12.2501    9.0319    6.6148 H   0  0  0  0  0  0  0  0  0  0  0  0
   11.4643   10.5738    6.0871 H   0  0  0  0  0  0  0  0  0  0  0  0
   13.2260   10.3500    5.8303 H   0  0  0  0  0  0  0  0  0  0  0  0
    7.5001    4.2773    1.7469 H   0  0  0  0  0  0  0  0  0  0  0  0
    4.6457    4.7223   -0.0800 H   0  0  0  0  0  0  0  0  0  0  0  0
   -0.5417    2.1407    0.3638 H   0  0  0  0  0  0  0  0  0  0  0  0
  1  2  1  0  0  0  0
  1 39  1  0  0  0  0
  1 40  1  0  0  0  0
  1 41  1  0  0  0  0
  2  3  1  0  0  0  0
  3  4  1  0  0  0  0
  3 37  2  0  0  0  0
  4  5  2  0  0  0  0
  4 42  1  0  0  0  0
  5  6  1  0  0  0  0
  5  8  1  0  0  0  0
  6  7  1  0  0  0  0
  7 43  1  0  0  0  0
  7 44  1  0  0  0  0
  7 45  1  0  0  0  0
  8  9  2  0  0  0  0
  8 46  1  0  0  0  0
  9 10  1  0  0  0  0
  9 37  1  0  0  0  0
 10 11  1  0  0  0  0
 10 17  1  0  0  0  0
 11 12  1  0  0  0  0
 11 47  1  0  0  0  0
 11 48  1  0  0  0  0
 12 13  1  0  0  0  0
 12 49  1  0  0  0  0
 12 50  1  0  0  0  0
 13 14  1  0  0  0  0
 13 51  1  0  0  0  0
 14 15  1  0  0  0  0
 14 16  1  0  0  0  0
 14 52  1  0  0  0  0
 15 53  1  0  0  0  0
 15 54  1  0  0  0  0
 15 55  1  0  0  0  0
 16 56  1  0  0  0  0
 16 57  1  0  0  0  0
 16 58  1  0  0  0  0
 17 18  1  0  0  0  0
 17 36  2  0  0  0  0
 18 19  2  0  0  0  0
 18 59  1  0  0  0  0
 19 20  1  0  0  0  0
 19 60  1  0  0  0  0
 20 21  1  0  0  0  0
 20 35  2  0  0  0  0
 21 22  2  0  0  0  0
 22 23  1  0  0  0  0
 22 61  1  0  0  0  0
 23 24  1  0  0  0  0
 23 34  2  0  0  0  0
 24 25  2  0  0  0  0
 24 29  1  0  0  0  0
 25 26  1  0  0  0  0
 25 62  1  0  0  0  0
 26 27  1  0  0  0  0
 26 28  1  0  0  0  0
 27 63  1  0  0  0  0
 27 64  1  0  0  0  0
 27 65  1  0  0  0  0
 28 29  2  0  0  0  0
 29 30  1  0  0  0  0
 30 31  1  0  0  0  0
 30 32  1  0  0  0  0
 30 33  1  0  0  0  0
 34 35  1  0  0  0  0
 35 36  1  0  0  0  0
 36 66  1  0  0  0  0
 37 67  1  0  0  0  0
 38 68  1  0  0  0  0
M  END
$$$$
