CHEMBL3759853
 OpenBabel04072215373D

 50 52  0  0  0  0  0  0  0  0999 V2000
    2.3928   -0.0387   -1.4143 C   0  0  0  0  0  0  0  0  0  0  0  0
    2.4727   -0.1244    0.0055 O   0  0  0  0  0  0  0  0  0  0  0  0
    3.0404    0.9047    0.7007 C   0  0  0  0  0  0  0  0  0  0  0  0
    4.0540    1.7061    0.1686 C   0  0  0  0  0  0  0  0  0  0  0  0
    4.6222    2.7524    0.8745 C   0  0  0  0  0  0  0  0  0  0  0  0
    5.5812    3.4514    0.2644 N   0  0  0  0  0  0  0  0  0  0  0  0
    6.1529    4.4221    0.9750 C   0  0  0  0  0  0  0  0  0  0  0  0
    5.8684    4.7291    2.2382 N   0  0  0  0  0  0  0  0  0  0  0  0
    4.9087    4.0063    2.8522 C   0  0  0  0  0  0  0  0  0  0  0  0
    4.7036    4.2232    4.2388 N   0  0  0  0  0  0  0  0  0  0  0  0
    5.6706    4.8355    5.0762 C   0  0  0  0  0  0  0  0  0  0  0  0
    7.0238    4.4658    4.9621 C   0  0  0  0  0  0  0  0  0  0  0  0
    8.0163    5.1125    5.6938 C   0  0  0  0  0  0  0  0  0  0  0  0
    7.6686    6.1271    6.5795 C   0  0  0  0  0  0  0  0  0  0  0  0
    6.3248    6.4680    6.7555 C   0  0  0  0  0  0  0  0  0  0  0  0
    5.3315    5.8179    6.0178 C   0  0  0  0  0  0  0  0  0  0  0  0
    3.6821    6.2670    6.2704 Cl  0  0  0  0  0  0  0  0  0  0  0  0
    4.1973    2.9993    2.1830 C   0  0  0  0  0  0  0  0  0  0  0  0
    3.1765    2.1951    2.7433 C   0  0  0  0  0  0  0  0  0  0  0  0
    2.6299    1.1305    2.0204 C   0  0  0  0  0  0  0  0  0  0  0  0
    1.6753    0.4172    2.6979 O   0  0  0  0  0  0  0  0  0  0  0  0
    1.8343   -1.0041    2.6377 C   0  0  0  0  0  0  0  0  0  0  0  0
    0.9570   -1.6554    3.7124 C   0  0  0  0  0  0  0  0  0  0  0  0
   -0.5098   -1.2519    3.5441 C   0  0  0  0  0  0  0  0  0  0  0  0
   -1.4425   -1.9924    4.4975 C   0  0  0  0  0  0  0  0  0  0  0  0
   -2.8788   -1.5439    4.3093 C   0  0  0  0  0  0  0  0  0  0  0  0
   -3.2538   -0.7259    3.4727 O   0  0  0  0  0  0  0  0  0  0  0  0
   -3.7618   -2.1394    5.1778 N   0  0  0  0  0  0  0  0  0  0  0  0
   -5.1248   -1.8221    4.9685 O   0  0  0  0  0  0  0  0  0  0  0  0
    2.7188   -0.9982   -1.8267 H   0  0  0  0  0  0  0  0  0  0  0  0
    2.9850    0.7482   -1.8852 H   0  0  0  0  0  0  0  0  0  0  0  0
    1.3479    0.1196   -1.6961 H   0  0  0  0  0  0  0  0  0  0  0  0
    4.4686    1.5115   -0.8142 H   0  0  0  0  0  0  0  0  0  0  0  0
    6.9302    5.0005    0.4893 H   0  0  0  0  0  0  0  0  0  0  0  0
    3.7585    4.5488    4.4232 H   0  0  0  0  0  0  0  0  0  0  0  0
    7.3123    3.6795    4.2669 H   0  0  0  0  0  0  0  0  0  0  0  0
    9.0571    4.8312    5.5534 H   0  0  0  0  0  0  0  0  0  0  0  0
    8.4441    6.6525    7.1290 H   0  0  0  0  0  0  0  0  0  0  0  0
    6.0620    7.2522    7.4599 H   0  0  0  0  0  0  0  0  0  0  0  0
    2.8277    2.3734    3.7576 H   0  0  0  0  0  0  0  0  0  0  0  0
    2.8816   -1.2846    2.8057 H   0  0  0  0  0  0  0  0  0  0  0  0
    1.5027   -1.3845    1.6679 H   0  0  0  0  0  0  0  0  0  0  0  0
    1.3023   -1.3503    4.7074 H   0  0  0  0  0  0  0  0  0  0  0  0
    1.0607   -2.7449    3.6447 H   0  0  0  0  0  0  0  0  0  0  0  0
   -0.8236   -1.4430    2.5103 H   0  0  0  0  0  0  0  0  0  0  0  0
   -0.6128   -0.1724    3.7098 H   0  0  0  0  0  0  0  0  0  0  0  0
   -1.1512   -1.8038    5.5369 H   0  0  0  0  0  0  0  0  0  0  0  0
   -1.3902   -3.0719    4.3140 H   0  0  0  0  0  0  0  0  0  0  0  0
   -3.5640   -2.9951    5.6837 H   0  0  0  0  0  0  0  0  0  0  0  0
   -5.0753   -1.1644    4.2385 H   0  0  0  0  0  0  0  0  0  0  0  0
  1  2  1  0  0  0  0
  1 30  1  0  0  0  0
  1 31  1  0  0  0  0
  1 32  1  0  0  0  0
  2  3  1  0  0  0  0
  3  4  1  0  0  0  0
  3 20  2  0  0  0  0
  4  5  2  0  0  0  0
  4 33  1  0  0  0  0
  5  6  1  0  0  0  0
  5 18  1  0  0  0  0
  6  7  2  0  0  0  0
  7  8  1  0  0  0  0
  7 34  1  0  0  0  0
  8  9  2  0  0  0  0
  9 10  1  0  0  0  0
  9 18  1  0  0  0  0
 10 11  1  0  0  0  0
 10 35  1  0  0  0  0
 11 12  1  0  0  0  0
 11 16  2  0  0  0  0
 12 13  2  0  0  0  0
 12 36  1  0  0  0  0
 13 14  1  0  0  0  0
 13 37  1  0  0  0  0
 14 15  2  0  0  0  0
 14 38  1  0  0  0  0
 15 16  1  0  0  0  0
 15 39  1  0  0  0  0
 16 17  1  0  0  0  0
 18 19  2  0  0  0  0
 19 20  1  0  0  0  0
 19 40  1  0  0  0  0
 20 21  1  0  0  0  0
 21 22  1  0  0  0  0
 22 23  1  0  0  0  0
 22 41  1  0  0  0  0
 22 42  1  0  0  0  0
 23 24  1  0  0  0  0
 23 43  1  0  0  0  0
 23 44  1  0  0  0  0
 24 25  1  0  0  0  0
 24 45  1  0  0  0  0
 24 46  1  0  0  0  0
 25 26  1  0  0  0  0
 25 47  1  0  0  0  0
 25 48  1  0  0  0  0
 26 27  2  0  0  0  0
 26 28  1  0  0  0  0
 28 29  1  0  0  0  0
 28 49  1  0  0  0  0
 29 50  1  0  0  0  0
M  END
$$$$
