CHEMBL2071272
 OpenBabel04072215363D

 47 50  0  0  1  0  0  0  0  0999 V2000
   10.2236    9.5077  -11.4151 N   0  0  0  0  0  0  0  0  0  0  0  0
    9.4942    8.7863  -10.5188 C   0  0  0  0  0  0  0  0  0  0  0  0
    8.7648    7.8753  -10.9104 O   0  0  0  0  0  0  0  0  0  0  0  0
    9.5294    9.2254   -9.0748 C   0  0  0  0  0  0  0  0  0  0  0  0
   10.8417    9.6457   -8.6164 N   0  0  0  0  0  0  0  0  0  0  0  0
   11.5104    9.1321   -7.5479 C   0  0  0  0  0  0  0  0  0  0  0  0
   12.5796    9.9629   -7.3335 C   0  0  0  0  0  0  0  0  0  0  0  0
   13.4815    9.8942   -6.3404 N   0  0  0  0  0  0  0  0  0  0  0  0
   13.4316    9.1609   -5.1561 C   0  0  0  0  0  0  0  0  0  0  0  0
   14.6013    9.0807   -4.5042 N   0  0  0  0  0  0  0  0  0  0  0  0
   14.6377    8.2168   -3.4779 C   0  0  0  0  0  0  0  0  0  0  0  0
   13.5612    7.4659   -3.0661 C   0  0  0  0  0  0  0  0  0  0  0  0
   13.8632    6.2392   -1.9004 Cl  0  0  0  0  0  0  0  0  0  0  0  0
   12.3402    7.7513   -3.6739 C   0  0  0  0  0  0  0  0  0  0  0  0
   11.0864    7.2609   -3.2304 N   0  0  0  0  0  0  0  0  0  0  0  0
   10.8401    7.4212   -1.7968 C   0  0  1  0  0  0  0  0  0  0  0  0
    9.5971    8.1992   -1.2549 C   0  0  1  0  0  0  0  0  0  0  0  0
    8.3926    8.3005   -2.1866 C   0  0  0  0  0  0  0  0  0  0  0  0
    7.1890    8.5871   -1.6021 N   0  0  0  0  0  0  0  0  0  0  0  0
    8.4680    8.2210   -3.4091 O   0  0  0  0  0  0  0  0  0  0  0  0
    9.2726    7.3640    0.0197 C   0  0  2  0  0  0  0  0  0  0  0  0
   10.4980    7.2035    0.9102 C   0  0  0  0  0  0  0  0  0  0  0  0
   11.3189    6.3262    0.3115 C   0  0  0  0  0  0  0  0  0  0  0  0
   10.7171    6.0406   -1.0471 C   0  0  1  0  0  0  0  0  0  0  0  0
    9.2574    5.9607   -0.5936 C   0  0  0  0  0  0  0  0  0  0  0  0
   12.2912    8.5712   -4.7330 N   0  0  0  0  0  0  0  0  0  0  0  0
   12.5319   10.8952   -8.3862 C   0  0  0  0  0  0  0  0  0  0  0  0
   11.4664   10.7147   -9.1770 N   0  0  0  0  0  0  0  0  0  0  0  0
   10.2487    9.2097  -12.3798 H   0  0  0  0  0  0  0  0  0  0  0  0
   10.9131   10.1832  -11.0830 H   0  0  0  0  0  0  0  0  0  0  0  0
    9.2167    8.3850   -8.4461 H   0  0  0  0  0  0  0  0  0  0  0  0
    8.8424   10.0632   -8.9206 H   0  0  0  0  0  0  0  0  0  0  0  0
   11.1555    8.2589   -7.0186 H   0  0  0  0  0  0  0  0  0  0  0  0
   14.3805   10.3566   -6.3960 H   0  0  0  0  0  0  0  0  0  0  0  0
   15.6038    8.1293   -2.9900 H   0  0  0  0  0  0  0  0  0  0  0  0
   10.3639    7.7113   -3.8110 H   0  0  0  0  0  0  0  0  0  0  0  0
   11.6883    7.9872   -1.3778 H   0  0  0  0  0  0  0  0  0  0  0  0
    9.8820    9.2274   -0.9994 H   0  0  0  0  0  0  0  0  0  0  0  0
    7.0303    8.6374   -0.6058 H   0  0  0  0  0  0  0  0  0  0  0  0
    6.3748    8.6351   -2.2038 H   0  0  0  0  0  0  0  0  0  0  0  0
    8.3742    7.6203    0.5811 H   0  0  0  0  0  0  0  0  0  0  0  0
   10.7013    7.7256    1.8331 H   0  0  0  0  0  0  0  0  0  0  0  0
   12.2981    6.0078    0.6354 H   0  0  0  0  0  0  0  0  0  0  0  0
   11.0803    5.1499   -1.5601 H   0  0  0  0  0  0  0  0  0  0  0  0
    9.0720    5.1727    0.1504 H   0  0  0  0  0  0  0  0  0  0  0  0
    8.5408    5.8322   -1.4104 H   0  0  0  0  0  0  0  0  0  0  0  0
   13.2075   11.7134   -8.5971 H   0  0  0  0  0  0  0  0  0  0  0  0
  1  2  1  0  0  0  0
  1 29  1  0  0  0  0
  1 30  1  0  0  0  0
  2  3  2  0  0  0  0
  2  4  1  0  0  0  0
  4  5  1  0  0  0  0
  4 31  1  0  0  0  0
  4 32  1  0  0  0  0
  5  6  1  0  0  0  0
  5 28  1  0  0  0  0
  6  7  2  0  0  0  0
  6 33  1  0  0  0  0
  7  8  1  0  0  0  0
  7 27  1  0  0  0  0
  8  9  1  0  0  0  0
  8 34  1  0  0  0  0
  9 10  1  0  0  0  0
  9 26  2  0  0  0  0
 10 11  2  0  0  0  0
 11 12  1  0  0  0  0
 11 35  1  0  0  0  0
 12 13  1  0  0  0  0
 12 14  2  0  0  0  0
 14 15  1  0  0  0  0
 14 26  1  0  0  0  0
 15 36  1  0  0  0  0
 16 17  1  0  0  0  0
 16 24  1  0  0  0  0
 16 15  1  0  0  0  0
 16 37  1  1  0  0  0
 17 18  1  0  0  0  0
 17 21  1  0  0  0  0
 17 38  1  1  0  0  0
 18 19  1  0  0  0  0
 18 20  2  0  0  0  0
 19 39  1  0  0  0  0
 19 40  1  0  0  0  0
 21 22  1  0  0  0  0
 21 25  1  0  0  0  0
 21 41  1  1  0  0  0
 22 23  2  0  0  0  0
 22 42  1  0  0  0  0
 23 24  1  0  0  0  0
 23 43  1  0  0  0  0
 24 25  1  0  0  0  0
 24 44  1  6  0  0  0
 25 45  1  0  0  0  0
 25 46  1  0  0  0  0
 27 28  2  0  0  0  0
 27 47  1  0  0  0  0
M  END
$$$$
