CHEMBL3099476
 OpenBabel04072215363D

 81 84  0  0  0  0  0  0  0  0999 V2000
   -3.2912    2.9594   -3.4601 C   0  0  0  0  0  0  0  0  0  0  0  0
   -2.9809    1.7664   -2.7522 O   0  0  0  0  0  0  0  0  0  0  0  0
   -1.8976    1.0424   -3.1756 C   0  0  0  0  0  0  0  0  0  0  0  0
   -0.8162    1.6006   -3.8730 C   0  0  0  0  0  0  0  0  0  0  0  0
    0.3814    0.8906   -4.1457 C   0  0  0  0  0  0  0  0  0  0  0  0
    1.5109    1.5614   -4.8757 C   0  0  0  0  0  0  0  0  0  0  0  0
    1.7037    2.9508   -4.6778 C   0  0  0  0  0  0  0  0  0  0  0  0
    2.6108    3.7024   -5.4261 C   0  0  0  0  0  0  0  0  0  0  0  0
    2.7159    5.1035   -5.2794 N   0  0  0  0  0  0  0  0  0  0  0  0
    2.7582    5.7114   -4.0336 C   0  0  0  0  0  0  0  0  0  0  0  0
    2.7201    5.1117   -2.9617 O   0  0  0  0  0  0  0  0  0  0  0  0
    2.8562    7.0891   -4.1626 N   0  0  0  0  0  0  0  0  0  0  0  0
    3.1196    7.8854   -3.0155 C   0  0  0  0  0  0  0  0  0  0  0  0
    2.1682    8.8464   -2.6518 C   0  0  0  0  0  0  0  0  0  0  0  0
    2.3384    9.5922   -1.4851 C   0  0  0  0  0  0  0  0  0  0  0  0
    1.4560   10.5199   -1.0032 O   0  0  0  0  0  0  0  0  0  0  0  0
    0.0888   10.3210   -1.3609 C   0  0  0  0  0  0  0  0  0  0  0  0
   -0.7798   10.9703   -0.2851 C   0  0  0  0  0  0  0  0  0  0  0  0
   -2.2609   10.7403   -0.5938 C   0  0  0  0  0  0  0  0  0  0  0  0
   -3.1920   11.3019    0.3984 N   0  0  0  0  0  0  0  0  0  0  0  0
   -3.0280   10.7427    1.7602 C   0  0  0  0  0  0  0  0  0  0  0  0
   -3.4481    9.2683    1.8738 C   0  0  0  0  0  0  0  0  0  0  0  0
   -4.8139    9.0899    1.4751 O   0  0  0  0  0  0  0  0  0  0  0  0
   -5.0359    9.5768    0.1459 C   0  0  0  0  0  0  0  0  0  0  0  0
   -4.5977   11.0471   -0.0078 C   0  0  0  0  0  0  0  0  0  0  0  0
    3.4910    9.4266   -0.7209 C   0  0  0  0  0  0  0  0  0  0  0  0
    4.4686    8.5129   -1.1108 C   0  0  0  0  0  0  0  0  0  0  0  0
    4.3036    7.7352   -2.2671 C   0  0  0  0  0  0  0  0  0  0  0  0
    5.4485    6.8653   -2.7107 C   0  0  0  0  0  0  0  0  0  0  0  0
    3.4028    3.0670   -6.3714 C   0  0  0  0  0  0  0  0  0  0  0  0
    3.3426    1.6748   -6.5132 C   0  0  0  0  0  0  0  0  0  0  0  0
    4.1473    1.0664   -7.4465 O   0  0  0  0  0  0  0  0  0  0  0  0
    5.5286    1.4138   -7.3351 C   0  0  0  0  0  0  0  0  0  0  0  0
    2.3876    0.9152   -5.7937 C   0  0  0  0  0  0  0  0  0  0  0  0
    2.1912   -0.4341   -5.9852 O   0  0  0  0  0  0  0  0  0  0  0  0
    3.3345   -1.2242   -6.3034 C   0  0  0  0  0  0  0  0  0  0  0  0
    0.4391   -0.4292   -3.6738 C   0  0  0  0  0  0  0  0  0  0  0  0
   -0.6564   -1.0240   -3.0294 C   0  0  0  0  0  0  0  0  0  0  0  0
   -1.8365   -0.3042   -2.8007 C   0  0  0  0  0  0  0  0  0  0  0  0
   -2.9827   -1.0327   -2.1888 C   0  0  0  0  0  0  0  0  0  0  0  0
   -4.4002   -0.6903   -2.5885 C   0  0  0  0  0  0  0  0  0  0  0  0
   -2.7607   -1.9671   -1.4156 O   0  0  0  0  0  0  0  0  0  0  0  0
   -4.2310    3.3481   -3.0557 H   0  0  0  0  0  0  0  0  0  0  0  0
   -3.4435    2.7491   -4.5234 H   0  0  0  0  0  0  0  0  0  0  0  0
   -2.5289    3.7297   -3.3097 H   0  0  0  0  0  0  0  0  0  0  0  0
   -0.8873    2.6303   -4.2077 H   0  0  0  0  0  0  0  0  0  0  0  0
    1.0968    3.4741   -3.9397 H   0  0  0  0  0  0  0  0  0  0  0  0
    3.2344    5.6036   -5.9867 H   0  0  0  0  0  0  0  0  0  0  0  0
    2.1304    7.4420   -4.7764 H   0  0  0  0  0  0  0  0  0  0  0  0
    1.2828    8.9802   -3.2629 H   0  0  0  0  0  0  0  0  0  0  0  0
   -0.1576    9.2524   -1.4077 H   0  0  0  0  0  0  0  0  0  0  0  0
   -0.0994   10.7838   -2.3360 H   0  0  0  0  0  0  0  0  0  0  0  0
   -0.5561   12.0420   -0.2172 H   0  0  0  0  0  0  0  0  0  0  0  0
   -0.4976   10.5355    0.6795 H   0  0  0  0  0  0  0  0  0  0  0  0
   -2.4261    9.6665   -0.7367 H   0  0  0  0  0  0  0  0  0  0  0  0
   -2.4703   11.2160   -1.5617 H   0  0  0  0  0  0  0  0  0  0  0  0
   -3.6639   11.3332    2.4336 H   0  0  0  0  0  0  0  0  0  0  0  0
   -2.0088   10.8826    2.1323 H   0  0  0  0  0  0  0  0  0  0  0  0
   -3.3644    8.9412    2.9136 H   0  0  0  0  0  0  0  0  0  0  0  0
   -2.8052    8.6136    1.2732 H   0  0  0  0  0  0  0  0  0  0  0  0
   -6.1071    9.4908   -0.0589 H   0  0  0  0  0  0  0  0  0  0  0  0
   -4.5185    8.9224   -0.5648 H   0  0  0  0  0  0  0  0  0  0  0  0
   -5.2422   11.6686    0.6278 H   0  0  0  0  0  0  0  0  0  0  0  0
   -4.7677   11.3865   -1.0365 H   0  0  0  0  0  0  0  0  0  0  0  0
    3.6288   10.0110    0.1848 H   0  0  0  0  0  0  0  0  0  0  0  0
    5.3672    8.4174   -0.5054 H   0  0  0  0  0  0  0  0  0  0  0  0
    6.2679    6.8845   -1.9836 H   0  0  0  0  0  0  0  0  0  0  0  0
    5.8482    7.2385   -3.6601 H   0  0  0  0  0  0  0  0  0  0  0  0
    5.1549    5.8202   -2.8247 H   0  0  0  0  0  0  0  0  0  0  0  0
    4.0913    3.6449   -6.9788 H   0  0  0  0  0  0  0  0  0  0  0  0
    6.1170    0.5708   -7.7120 H   0  0  0  0  0  0  0  0  0  0  0  0
    5.8367    1.5956   -6.2973 H   0  0  0  0  0  0  0  0  0  0  0  0
    5.7495    2.2841   -7.9589 H   0  0  0  0  0  0  0  0  0  0  0  0
    3.1123   -2.2605   -6.0214 H   0  0  0  0  0  0  0  0  0  0  0  0
    4.2241   -0.9194   -5.7454 H   0  0  0  0  0  0  0  0  0  0  0  0
    3.5115   -1.2250   -7.3838 H   0  0  0  0  0  0  0  0  0  0  0  0
    1.3384   -1.0264   -3.8019 H   0  0  0  0  0  0  0  0  0  0  0  0
   -0.5830   -2.0629   -2.7078 H   0  0  0  0  0  0  0  0  0  0  0  0
   -4.4567    0.0533   -3.3850 H   0  0  0  0  0  0  0  0  0  0  0  0
   -4.9447   -0.3241   -1.7138 H   0  0  0  0  0  0  0  0  0  0  0  0
   -4.8835   -1.5914   -2.9748 H   0  0  0  0  0  0  0  0  0  0  0  0
  1  2  1  0  0  0  0
  1 43  1  0  0  0  0
  1 44  1  0  0  0  0
  1 45  1  0  0  0  0
  2  3  1  0  0  0  0
  3  4  1  0  0  0  0
  3 39  2  0  0  0  0
  4  5  2  0  0  0  0
  4 46  1  0  0  0  0
  5  6  1  0  0  0  0
  5 37  1  0  0  0  0
  6  7  1  0  0  0  0
  6 34  2  0  0  0  0
  7  8  2  0  0  0  0
  7 47  1  0  0  0  0
  8  9  1  0  0  0  0
  8 30  1  0  0  0  0
  9 10  1  0  0  0  0
  9 48  1  0  0  0  0
 10 11  2  0  0  0  0
 10 12  1  0  0  0  0
 12 13  1  0  0  0  0
 12 49  1  0  0  0  0
 13 14  1  0  0  0  0
 13 28  2  0  0  0  0
 14 15  2  0  0  0  0
 14 50  1  0  0  0  0
 15 16  1  0  0  0  0
 15 26  1  0  0  0  0
 16 17  1  0  0  0  0
 17 18  1  0  0  0  0
 17 51  1  0  0  0  0
 17 52  1  0  0  0  0
 18 19  1  0  0  0  0
 18 53  1  0  0  0  0
 18 54  1  0  0  0  0
 19 20  1  0  0  0  0
 19 55  1  0  0  0  0
 19 56  1  0  0  0  0
 20 21  1  0  0  0  0
 20 25  1  0  0  0  0
 21 22  1  0  0  0  0
 21 57  1  0  0  0  0
 21 58  1  0  0  0  0
 22 23  1  0  0  0  0
 22 59  1  0  0  0  0
 22 60  1  0  0  0  0
 23 24  1  0  0  0  0
 24 25  1  0  0  0  0
 24 61  1  0  0  0  0
 24 62  1  0  0  0  0
 25 63  1  0  0  0  0
 25 64  1  0  0  0  0
 26 27  2  0  0  0  0
 26 65  1  0  0  0  0
 27 28  1  0  0  0  0
 27 66  1  0  0  0  0
 28 29  1  0  0  0  0
 29 67  1  0  0  0  0
 29 68  1  0  0  0  0
 29 69  1  0  0  0  0
 30 31  2  0  0  0  0
 30 70  1  0  0  0  0
 31 32  1  0  0  0  0
 31 34  1  0  0  0  0
 32 33  1  0  0  0  0
 33 71  1  0  0  0  0
 33 72  1  0  0  0  0
 33 73  1  0  0  0  0
 34 35  1  0  0  0  0
 35 36  1  0  0  0  0
 36 74  1  0  0  0  0
 36 75  1  0  0  0  0
 36 76  1  0  0  0  0
 37 38  2  0  0  0  0
 37 77  1  0  0  0  0
 38 39  1  0  0  0  0
 38 78  1  0  0  0  0
 39 40  1  0  0  0  0
 40 41  1  0  0  0  0
 40 42  2  0  0  0  0
 41 79  1  0  0  0  0
 41 80  1  0  0  0  0
 41 81  1  0  0  0  0
M  END
$$$$
