CHEMBL3952283
 OpenBabel04072215373D

 43 47  0  0  0  0  0  0  0  0999 V2000
    1.2523   -0.5402    0.5938 O   0  0  0  0  0  0  0  0  0  0  0  0
    2.3757   -0.1441    0.2954 C   0  0  0  0  0  0  0  0  0  0  0  0
    2.9506    1.0362    0.7586 N   0  0  0  0  0  0  0  0  0  0  0  0
    2.3727    1.9529    1.6712 C   0  0  0  0  0  0  0  0  0  0  0  0
    1.2772    1.6240    2.4756 C   0  0  0  0  0  0  0  0  0  0  0  0
    0.6963    2.5772    3.3131 C   0  0  0  0  0  0  0  0  0  0  0  0
    1.1914    3.8813    3.3440 C   0  0  0  0  0  0  0  0  0  0  0  0
    2.2970    4.2315    2.5602 C   0  0  0  0  0  0  0  0  0  0  0  0
    2.7411    5.6027    2.5320 C   0  0  0  0  0  0  0  0  0  0  0  0
    3.0298    6.7744    2.4830 C   0  0  0  0  0  0  0  0  0  0  0  0
    3.2802    8.2031    2.4142 C   0  0  0  0  0  0  0  0  0  0  0  0
    2.1878    9.1904    2.6133 C   0  0  0  0  0  0  0  0  0  0  0  0
    2.5114   10.4894    2.5310 C   0  0  0  0  0  0  0  0  0  0  0  0
    3.8484   10.8491    2.2617 C   0  0  0  0  0  0  0  0  0  0  0  0
    4.4194   12.0331    2.1365 N   0  0  0  0  0  0  0  0  0  0  0  0
    5.7368   11.7679    1.8739 C   0  0  0  0  0  0  0  0  0  0  0  0
    5.9705   10.4099    1.8393 C   0  0  0  0  0  0  0  0  0  0  0  0
    4.7618    9.8173    2.0931 N   0  0  0  0  0  0  0  0  0  0  0  0
    4.5239    8.4694    2.1609 N   0  0  0  0  0  0  0  0  0  0  0  0
    2.9065    3.2529    1.7560 C   0  0  0  0  0  0  0  0  0  0  0  0
    3.2020   -0.8881   -0.6417 C   0  0  0  0  0  0  0  0  0  0  0  0
    2.9167   -2.0347   -1.3629 C   0  0  0  0  0  0  0  0  0  0  0  0
    4.0692   -2.3491   -2.1248 C   0  0  0  0  0  0  0  0  0  0  0  0
    4.4292   -3.3551   -3.0386 C   0  0  0  0  0  0  0  0  0  0  0  0
    5.7184   -3.3307   -3.5945 C   0  0  0  0  0  0  0  0  0  0  0  0
    6.6287   -2.3314   -3.2508 C   0  0  0  0  0  0  0  0  0  0  0  0
    6.2873   -1.3167   -2.3462 C   0  0  0  0  0  0  0  0  0  0  0  0
    5.0026   -1.3665   -1.8107 C   0  0  0  0  0  0  0  0  0  0  0  0
    4.4791   -0.4740   -0.9194 O   0  0  0  0  0  0  0  0  0  0  0  0
    3.8133    1.3060    0.3001 H   0  0  0  0  0  0  0  0  0  0  0  0
    0.8522    0.6249    2.4804 H   0  0  0  0  0  0  0  0  0  0  0  0
   -0.1604    2.2975    3.9246 H   0  0  0  0  0  0  0  0  0  0  0  0
    0.6977    4.6169    3.9739 H   0  0  0  0  0  0  0  0  0  0  0  0
    1.1825    8.8431    2.8114 H   0  0  0  0  0  0  0  0  0  0  0  0
    1.7775   11.2759    2.6615 H   0  0  0  0  0  0  0  0  0  0  0  0
    6.4509   12.5690    1.7230 H   0  0  0  0  0  0  0  0  0  0  0  0
    6.8622    9.8269    1.6643 H   0  0  0  0  0  0  0  0  0  0  0  0
    3.7724    3.5276    1.1591 H   0  0  0  0  0  0  0  0  0  0  0  0
    1.9794   -2.5743   -1.3369 H   0  0  0  0  0  0  0  0  0  0  0  0
    3.7279   -4.1373   -3.3132 H   0  0  0  0  0  0  0  0  0  0  0  0
    6.0091   -4.1062   -4.3005 H   0  0  0  0  0  0  0  0  0  0  0  0
    7.6237   -2.3388   -3.6931 H   0  0  0  0  0  0  0  0  0  0  0  0
    6.9858   -0.5351   -2.0727 H   0  0  0  0  0  0  0  0  0  0  0  0
  1  2  2  0  0  0  0
  2  3  1  0  0  0  0
  2 21  1  0  0  0  0
  3  4  1  0  0  0  0
  3 30  1  0  0  0  0
  4  5  1  0  0  0  0
  4 20  2  0  0  0  0
  5  6  2  0  0  0  0
  5 31  1  0  0  0  0
  6  7  1  0  0  0  0
  6 32  1  0  0  0  0
  7  8  2  0  0  0  0
  7 33  1  0  0  0  0
  8  9  1  0  0  0  0
  8 20  1  0  0  0  0
  9 10  3  0  0  0  0
 10 11  1  0  0  0  0
 11 12  1  0  0  0  0
 11 19  2  0  0  0  0
 12 13  2  0  0  0  0
 12 34  1  0  0  0  0
 13 14  1  0  0  0  0
 13 35  1  0  0  0  0
 14 15  2  0  0  0  0
 14 18  1  0  0  0  0
 15 16  1  0  0  0  0
 16 17  2  0  0  0  0
 16 36  1  0  0  0  0
 17 18  1  0  0  0  0
 17 37  1  0  0  0  0
 18 19  1  0  0  0  0
 20 38  1  0  0  0  0
 21 22  2  0  0  0  0
 21 29  1  0  0  0  0
 22 23  1  0  0  0  0
 22 39  1  0  0  0  0
 23 24  1  0  0  0  0
 23 28  2  0  0  0  0
 24 25  2  0  0  0  0
 24 40  1  0  0  0  0
 25 26  1  0  0  0  0
 25 41  1  0  0  0  0
 26 27  2  0  0  0  0
 26 42  1  0  0  0  0
 27 28  1  0  0  0  0
 27 43  1  0  0  0  0
 28 29  1  0  0  0  0
M  END
$$$$
