CHEMBL177688
 OpenBabel04072215363D

 43 45  0  0  0  0  0  0  0  0999 V2000
    2.8197    0.8190    0.4043 O   0  0  0  0  0  0  0  0  0  0  0  0
    2.3761   -0.5235    0.5412 C   0  0  0  0  0  0  0  0  0  0  0  0
    2.8750   -1.3514   -0.6354 C   0  0  0  0  0  0  0  0  0  0  0  0
    4.4011   -1.3713   -0.6848 C   0  0  0  0  0  0  0  0  0  0  0  0
    4.8560   -2.1899   -1.8130 N   0  0  0  0  0  0  0  0  0  0  0  0
    6.2460   -2.3001   -1.9980 C   0  0  0  0  0  0  0  0  0  0  0  0
    6.7895   -2.5071   -3.2652 C   0  0  0  0  0  0  0  0  0  0  0  0
    8.1070   -2.6764   -3.5293 N   0  0  0  0  0  0  0  0  0  0  0  0
    8.9385   -2.6819   -2.4583 C   0  0  0  0  0  0  0  0  0  0  0  0
    8.5324   -2.5260   -1.1345 C   0  0  0  0  0  0  0  0  0  0  0  0
    9.4905   -2.5544   -0.0217 C   0  0  0  0  0  0  0  0  0  0  0  0
    9.3156   -1.8462    1.1653 C   0  0  0  0  0  0  0  0  0  0  0  0
   10.2061   -1.8676    2.1844 N   0  0  0  0  0  0  0  0  0  0  0  0
   11.3016   -2.6321    1.9616 C   0  0  0  0  0  0  0  0  0  0  0  0
   11.5041   -3.3805    0.8002 C   0  0  0  0  0  0  0  0  0  0  0  0
   12.6949   -4.1224    0.6302 N   0  0  0  0  0  0  0  0  0  0  0  0
   12.8148   -5.2992   -0.1502 C   0  0  0  0  0  0  0  0  0  0  0  0
   11.7472   -6.1888   -0.3375 C   0  0  0  0  0  0  0  0  0  0  0  0
   11.9200   -7.3793   -1.0470 C   0  0  0  0  0  0  0  0  0  0  0  0
   13.1695   -7.6997   -1.5712 C   0  0  0  0  0  0  0  0  0  0  0  0
   14.2399   -6.8298   -1.3738 C   0  0  0  0  0  0  0  0  0  0  0  0
   15.7878   -7.2274   -2.0156 Cl  0  0  0  0  0  0  0  0  0  0  0  0
   14.0714   -5.6462   -0.6547 C   0  0  0  0  0  0  0  0  0  0  0  0
   10.5950   -3.3231   -0.2012 N   0  0  0  0  0  0  0  0  0  0  0  0
    7.1505   -2.3584   -0.9337 C   0  0  0  0  0  0  0  0  0  0  0  0
    2.4474    1.3244    1.1484 H   0  0  0  0  0  0  0  0  0  0  0  0
    1.2818   -0.5274    0.5680 H   0  0  0  0  0  0  0  0  0  0  0  0
    2.7527   -0.9210    1.4892 H   0  0  0  0  0  0  0  0  0  0  0  0
    2.4883   -0.9319   -1.5723 H   0  0  0  0  0  0  0  0  0  0  0  0
    2.4907   -2.3746   -0.5508 H   0  0  0  0  0  0  0  0  0  0  0  0
    4.7592   -1.7839    0.2643 H   0  0  0  0  0  0  0  0  0  0  0  0
    4.7932   -0.3527   -0.7917 H   0  0  0  0  0  0  0  0  0  0  0  0
    4.3994   -1.9108   -2.6812 H   0  0  0  0  0  0  0  0  0  0  0  0
    6.1522   -2.5371   -4.1458 H   0  0  0  0  0  0  0  0  0  0  0  0
    9.9904   -2.8219   -2.7075 H   0  0  0  0  0  0  0  0  0  0  0  0
    8.4498   -1.2148    1.3355 H   0  0  0  0  0  0  0  0  0  0  0  0
   12.0216   -2.6398    2.7727 H   0  0  0  0  0  0  0  0  0  0  0  0
   13.1699   -4.2672    1.5154 H   0  0  0  0  0  0  0  0  0  0  0  0
   10.7636   -5.9648    0.0693 H   0  0  0  0  0  0  0  0  0  0  0  0
   11.0777   -8.0520   -1.1875 H   0  0  0  0  0  0  0  0  0  0  0  0
   13.3010   -8.6226   -2.1289 H   0  0  0  0  0  0  0  0  0  0  0  0
   14.9170   -4.9772   -0.5109 H   0  0  0  0  0  0  0  0  0  0  0  0
    6.7785   -2.3050    0.0836 H   0  0  0  0  0  0  0  0  0  0  0  0
  1  2  1  0  0  0  0
  1 26  1  0  0  0  0
  2  3  1  0  0  0  0
  2 27  1  0  0  0  0
  2 28  1  0  0  0  0
  3  4  1  0  0  0  0
  3 29  1  0  0  0  0
  3 30  1  0  0  0  0
  4  5  1  0  0  0  0
  4 31  1  0  0  0  0
  4 32  1  0  0  0  0
  5  6  1  0  0  0  0
  5 33  1  0  0  0  0
  6  7  1  0  0  0  0
  6 25  2  0  0  0  0
  7  8  2  0  0  0  0
  7 34  1  0  0  0  0
  8  9  1  0  0  0  0
  9 10  2  0  0  0  0
  9 35  1  0  0  0  0
 10 11  1  0  0  0  0
 10 25  1  0  0  0  0
 11 12  1  0  0  0  0
 11 24  2  0  0  0  0
 12 13  2  0  0  0  0
 12 36  1  0  0  0  0
 13 14  1  0  0  0  0
 14 15  2  0  0  0  0
 14 37  1  0  0  0  0
 15 16  1  0  0  0  0
 15 24  1  0  0  0  0
 16 17  1  0  0  0  0
 16 38  1  0  0  0  0
 17 18  1  0  0  0  0
 17 23  2  0  0  0  0
 18 19  2  0  0  0  0
 18 39  1  0  0  0  0
 19 20  1  0  0  0  0
 19 40  1  0  0  0  0
 20 21  2  0  0  0  0
 20 41  1  0  0  0  0
 21 22  1  0  0  0  0
 21 23  1  0  0  0  0
 23 42  1  0  0  0  0
 25 43  1  0  0  0  0
M  END
$$$$
