CHEMBL3978687
 OpenBabel04072215373D

 58 61  0  0  0  0  0  0  0  0999 V2000
    2.5417    0.2315    0.0699 C   0  0  0  0  0  0  0  0  0  0  0  0
    1.0418    0.1045    0.1098 C   0  0  0  0  0  0  0  0  0  0  0  0
    0.3059    1.3050    0.1907 C   0  0  0  0  0  0  0  0  0  0  0  0
   -1.0868    1.3066    0.1796 C   0  0  0  0  0  0  0  0  0  0  0  0
   -1.7739    0.1129    0.0020 C   0  0  0  0  0  0  0  0  0  0  0  0
   -3.1485    0.0250   -0.1128 O   0  0  0  0  0  0  0  0  0  0  0  0
   -3.8307    1.0268   -0.7764 C   0  0  0  0  0  0  0  0  0  0  0  0
   -3.2969    1.7314   -1.8502 C   0  0  0  0  0  0  0  0  0  0  0  0
   -4.0337    2.7748   -2.3596 C   0  0  0  0  0  0  0  0  0  0  0  0
   -5.2626    3.0954   -1.9211 N   0  0  0  0  0  0  0  0  0  0  0  0
   -5.8206    2.3573   -0.9442 C   0  0  0  0  0  0  0  0  0  0  0  0
   -7.1261    2.6555   -0.5110 N   0  0  0  0  0  0  0  0  0  0  0  0
   -7.8709    3.7108   -1.0125 C   0  0  0  0  0  0  0  0  0  0  0  0
   -7.5315    4.5237   -1.8561 O   0  0  0  0  0  0  0  0  0  0  0  0
   -9.2445    3.8912   -0.4451 C   0  0  0  0  0  0  0  0  0  0  0  0
   -9.3991    4.2306    1.0198 C   0  0  0  0  0  0  0  0  0  0  0  0
   -9.9833    2.9594    0.4749 C   0  0  0  0  0  0  0  0  0  0  0  0
   -5.1313    1.3074   -0.3456 C   0  0  0  0  0  0  0  0  0  0  0  0
   -1.0574   -1.0873   -0.0246 C   0  0  0  0  0  0  0  0  0  0  0  0
    0.3521   -1.1265    0.0381 C   0  0  0  0  0  0  0  0  0  0  0  0
    1.0670   -2.3662    0.0574 N   0  0  0  0  0  0  0  0  0  0  0  0
    0.5072   -3.6225   -0.0756 C   0  0  0  0  0  0  0  0  0  0  0  0
   -0.6678   -3.8346   -0.3689 O   0  0  0  0  0  0  0  0  0  0  0  0
    1.3849   -4.6688    0.1926 N   0  0  0  0  0  0  0  0  0  0  0  0
    0.8751   -6.0001    0.1607 C   0  0  0  0  0  0  0  0  0  0  0  0
    0.0834   -6.4502   -0.9067 C   0  0  0  0  0  0  0  0  0  0  0  0
   -0.5860   -7.6847   -0.8456 C   0  0  0  0  0  0  0  0  0  0  0  0
   -1.4912   -8.1233   -1.9793 C   0  0  0  0  0  0  0  0  0  0  0  0
   -2.9111   -7.6032   -1.8123 C   0  0  0  0  0  0  0  0  0  0  0  0
   -1.0345   -7.7040   -3.1963 F   0  0  0  0  0  0  0  0  0  0  0  0
   -1.5629   -9.4851   -2.0775 F   0  0  0  0  0  0  0  0  0  0  0  0
   -0.4313   -8.4801    0.3005 C   0  0  0  0  0  0  0  0  0  0  0  0
    0.4041   -8.0650    1.3422 C   0  0  0  0  0  0  0  0  0  0  0  0
    1.0654   -6.8415    1.2577 C   0  0  0  0  0  0  0  0  0  0  0  0
    1.8244   -6.4351    2.2872 F   0  0  0  0  0  0  0  0  0  0  0  0
    2.8536    1.2713    0.2318 H   0  0  0  0  0  0  0  0  0  0  0  0
    2.9215   -0.0675   -0.9119 H   0  0  0  0  0  0  0  0  0  0  0  0
    3.0111   -0.3663    0.8550 H   0  0  0  0  0  0  0  0  0  0  0  0
    0.8171    2.2643    0.2554 H   0  0  0  0  0  0  0  0  0  0  0  0
   -1.6165    2.2509    0.2745 H   0  0  0  0  0  0  0  0  0  0  0  0
   -2.3207    1.5097   -2.2645 H   0  0  0  0  0  0  0  0  0  0  0  0
   -3.6458    3.4112   -3.1491 H   0  0  0  0  0  0  0  0  0  0  0  0
   -7.5186    2.0850    0.2155 H   0  0  0  0  0  0  0  0  0  0  0  0
   -9.8788    4.4478   -1.1345 H   0  0  0  0  0  0  0  0  0  0  0  0
  -10.0657    5.0537    1.2612 H   0  0  0  0  0  0  0  0  0  0  0  0
   -8.5312    4.1652    1.6624 H   0  0  0  0  0  0  0  0  0  0  0  0
  -11.0641    2.9130    0.3621 H   0  0  0  0  0  0  0  0  0  0  0  0
   -9.5481    2.0172    0.7727 H   0  0  0  0  0  0  0  0  0  0  0  0
   -5.5744    0.7167    0.4483 H   0  0  0  0  0  0  0  0  0  0  0  0
   -1.6551   -1.9874   -0.1007 H   0  0  0  0  0  0  0  0  0  0  0  0
    2.0773   -2.3224    0.0934 H   0  0  0  0  0  0  0  0  0  0  0  0
    2.0340   -4.4836    0.9532 H   0  0  0  0  0  0  0  0  0  0  0  0
   -0.0510   -5.8171   -1.7838 H   0  0  0  0  0  0  0  0  0  0  0  0
   -2.9435   -6.5088   -1.8282 H   0  0  0  0  0  0  0  0  0  0  0  0
   -3.3604   -7.9565   -0.8783 H   0  0  0  0  0  0  0  0  0  0  0  0
   -3.5386   -7.9632   -2.6350 H   0  0  0  0  0  0  0  0  0  0  0  0
   -0.9670   -9.4251    0.3842 H   0  0  0  0  0  0  0  0  0  0  0  0
    0.5130   -8.6765    2.2329 H   0  0  0  0  0  0  0  0  0  0  0  0
  1  2  1  0  0  0  0
  1 36  1  0  0  0  0
  1 37  1  0  0  0  0
  1 38  1  0  0  0  0
  2  3  1  0  0  0  0
  2 20  2  0  0  0  0
  3  4  2  0  0  0  0
  3 39  1  0  0  0  0
  4  5  1  0  0  0  0
  4 40  1  0  0  0  0
  5  6  1  0  0  0  0
  5 19  2  0  0  0  0
  6  7  1  0  0  0  0
  7  8  1  0  0  0  0
  7 18  2  0  0  0  0
  8  9  2  0  0  0  0
  8 41  1  0  0  0  0
  9 10  1  0  0  0  0
  9 42  1  0  0  0  0
 10 11  2  0  0  0  0
 11 12  1  0  0  0  0
 11 18  1  0  0  0  0
 12 13  1  0  0  0  0
 12 43  1  0  0  0  0
 13 14  2  0  0  0  0
 13 15  1  0  0  0  0
 15 16  1  0  0  0  0
 15 17  1  0  0  0  0
 15 44  1  0  0  0  0
 16 17  1  0  0  0  0
 16 45  1  0  0  0  0
 16 46  1  0  0  0  0
 17 47  1  0  0  0  0
 17 48  1  0  0  0  0
 18 49  1  0  0  0  0
 19 20  1  0  0  0  0
 19 50  1  0  0  0  0
 20 21  1  0  0  0  0
 21 22  1  0  0  0  0
 21 51  1  0  0  0  0
 22 23  2  0  0  0  0
 22 24  1  0  0  0  0
 24 25  1  0  0  0  0
 24 52  1  0  0  0  0
 25 26  1  0  0  0  0
 25 34  2  0  0  0  0
 26 27  2  0  0  0  0
 26 53  1  0  0  0  0
 27 28  1  0  0  0  0
 27 32  1  0  0  0  0
 28 29  1  0  0  0  0
 28 30  1  0  0  0  0
 28 31  1  0  0  0  0
 29 54  1  0  0  0  0
 29 55  1  0  0  0  0
 29 56  1  0  0  0  0
 32 33  2  0  0  0  0
 32 57  1  0  0  0  0
 33 34  1  0  0  0  0
 33 58  1  0  0  0  0
 34 35  1  0  0  0  0
M  END
$$$$
