CHEMBL3114029
 OpenBabel04072215363D

 47 50  0  0  0  0  0  0  0  0999 V2000
    1.1221   -0.0981    0.3505 C   0  0  0  0  0  0  0  0  0  0  0  0
    2.5508   -0.1003    0.0199 N   0  0  0  0  0  0  0  0  0  0  0  0
    3.1236   -1.3225   -0.4159 C   0  0  0  0  0  0  0  0  0  0  0  0
    4.5199   -1.5630   -0.1123 C   0  0  0  0  0  0  0  0  0  0  0  0
    5.2317   -2.7431   -0.4078 C   0  0  0  0  0  0  0  0  0  0  0  0
    4.4113   -3.6547   -1.0501 C   0  0  0  0  0  0  0  0  0  0  0  0
    4.7808   -4.9024   -1.4625 C   0  0  0  0  0  0  0  0  0  0  0  0
    3.6552   -5.4210   -2.0346 N   0  0  0  0  0  0  0  0  0  0  0  0
    3.5146   -6.7278   -2.6284 C   0  0  0  0  0  0  0  0  0  0  0  0
    2.5874   -4.5960   -2.0140 N   0  0  0  0  0  0  0  0  0  0  0  0
    3.0274   -3.4832   -1.4040 C   0  0  0  0  0  0  0  0  0  0  0  0
    2.3483   -2.2950   -1.0981 C   0  0  0  0  0  0  0  0  0  0  0  0
    3.1881    1.1615   -0.0142 C   0  0  0  0  0  0  0  0  0  0  0  0
    2.7397    2.1963    0.7816 C   0  0  0  0  0  0  0  0  0  0  0  0
    3.4147    3.3722    0.7274 C   0  0  0  0  0  0  0  0  0  0  0  0
    4.4786    3.5628   -0.0626 N   0  0  0  0  0  0  0  0  0  0  0  0
    4.8595    2.5337   -0.8371 C   0  0  0  0  0  0  0  0  0  0  0  0
    5.9149    2.7481   -1.7315 N   0  0  0  0  0  0  0  0  0  0  0  0
    6.9867    3.6256   -1.5928 C   0  0  0  0  0  0  0  0  0  0  0  0
    7.4709    3.9736   -0.3256 C   0  0  0  0  0  0  0  0  0  0  0  0
    8.4596    4.9356   -0.1632 C   0  0  0  0  0  0  0  0  0  0  0  0
    9.0018    5.5852   -1.2676 C   0  0  0  0  0  0  0  0  0  0  0  0
    9.9411    6.5695   -1.2358 O   0  0  0  0  0  0  0  0  0  0  0  0
   10.8707    6.5559   -0.1576 C   0  0  0  0  0  0  0  0  0  0  0  0
   10.7472    5.5039    0.6758 F   0  0  0  0  0  0  0  0  0  0  0  0
   12.1270    6.5126   -0.6580 F   0  0  0  0  0  0  0  0  0  0  0  0
   10.7430    7.6936    0.5627 F   0  0  0  0  0  0  0  0  0  0  0  0
    8.5241    5.2547   -2.5397 C   0  0  0  0  0  0  0  0  0  0  0  0
    7.5365    4.2772   -2.7022 C   0  0  0  0  0  0  0  0  0  0  0  0
    4.2549    1.3491   -0.8365 N   0  0  0  0  0  0  0  0  0  0  0  0
    0.6748   -1.0971    0.3746 H   0  0  0  0  0  0  0  0  0  0  0  0
    0.5612    0.5088   -0.3676 H   0  0  0  0  0  0  0  0  0  0  0  0
    0.9468    0.2920    1.3585 H   0  0  0  0  0  0  0  0  0  0  0  0
    5.0668   -0.7781    0.4123 H   0  0  0  0  0  0  0  0  0  0  0  0
    6.2696   -2.8903   -0.1432 H   0  0  0  0  0  0  0  0  0  0  0  0
    5.7097   -5.4520   -1.4051 H   0  0  0  0  0  0  0  0  0  0  0  0
    4.4678   -7.2592   -2.5725 H   0  0  0  0  0  0  0  0  0  0  0  0
    3.2179   -6.6013   -3.6728 H   0  0  0  0  0  0  0  0  0  0  0  0
    2.7480   -7.2755   -2.0746 H   0  0  0  0  0  0  0  0  0  0  0  0
    1.3150   -2.1601   -1.3799 H   0  0  0  0  0  0  0  0  0  0  0  0
    1.9020    2.0943    1.4611 H   0  0  0  0  0  0  0  0  0  0  0  0
    3.1295    4.2255    1.3345 H   0  0  0  0  0  0  0  0  0  0  0  0
    5.9133    2.0913   -2.5003 H   0  0  0  0  0  0  0  0  0  0  0  0
    7.0661    3.4836    0.5594 H   0  0  0  0  0  0  0  0  0  0  0  0
    8.7612    5.1418    0.8589 H   0  0  0  0  0  0  0  0  0  0  0  0
    8.9195    5.7683   -3.4141 H   0  0  0  0  0  0  0  0  0  0  0  0
    7.1647    4.0626   -3.7008 H   0  0  0  0  0  0  0  0  0  0  0  0
  1  2  1  0  0  0  0
  1 31  1  0  0  0  0
  1 32  1  0  0  0  0
  1 33  1  0  0  0  0
  2  3  1  0  0  0  0
  2 13  1  0  0  0  0
  3  4  1  0  0  0  0
  3 12  2  0  0  0  0
  4  5  2  0  0  0  0
  4 34  1  0  0  0  0
  5  6  1  0  0  0  0
  5 35  1  0  0  0  0
  6  7  2  0  0  0  0
  6 11  1  0  0  0  0
  7  8  1  0  0  0  0
  7 36  1  0  0  0  0
  8  9  1  0  0  0  0
  8 10  1  0  0  0  0
  9 37  1  0  0  0  0
  9 38  1  0  0  0  0
  9 39  1  0  0  0  0
 10 11  2  0  0  0  0
 11 12  1  0  0  0  0
 12 40  1  0  0  0  0
 13 14  1  0  0  0  0
 13 30  2  0  0  0  0
 14 15  2  0  0  0  0
 14 41  1  0  0  0  0
 15 16  1  0  0  0  0
 15 42  1  0  0  0  0
 16 17  2  0  0  0  0
 17 18  1  0  0  0  0
 17 30  1  0  0  0  0
 18 19  1  0  0  0  0
 18 43  1  0  0  0  0
 19 20  1  0  0  0  0
 19 29  2  0  0  0  0
 20 21  2  0  0  0  0
 20 44  1  0  0  0  0
 21 22  1  0  0  0  0
 21 45  1  0  0  0  0
 22 23  1  0  0  0  0
 22 28  2  0  0  0  0
 23 24  1  0  0  0  0
 24 25  1  0  0  0  0
 24 26  1  0  0  0  0
 24 27  1  0  0  0  0
 28 29  1  0  0  0  0
 28 46  1  0  0  0  0
 29 47  1  0  0  0  0
M  END
$$$$
