CHEMBL478402
 OpenBabel04072215383D

 48 51  0  0  0  0  0  0  0  0999 V2000
    1.9403   -0.4649   -1.3329 C   0  0  0  0  0  0  0  0  0  0  0  0
    2.5401    0.0045   -0.0801 N   0  0  0  0  0  0  0  0  0  0  0  0
    2.3978    1.3741    0.2845 C   0  0  0  0  0  0  0  0  0  0  0  0
    2.4478    1.7164    1.6943 C   0  0  0  0  0  0  0  0  0  0  0  0
    2.2871    3.0053    2.2464 C   0  0  0  0  0  0  0  0  0  0  0  0
    2.0548    3.9283    1.2450 C   0  0  0  0  0  0  0  0  0  0  0  0
    1.8295    5.2608    1.4408 C   0  0  0  0  0  0  0  0  0  0  0  0
    1.6452    5.7616    0.1853 N   0  0  0  0  0  0  0  0  0  0  0  0
    1.3576    7.1347   -0.1521 C   0  0  0  0  0  0  0  0  0  0  0  0
    1.7464    4.8462   -0.8032 N   0  0  0  0  0  0  0  0  0  0  0  0
    1.9972    3.6861   -0.1692 C   0  0  0  0  0  0  0  0  0  0  0  0
    2.1850    2.3906   -0.6863 C   0  0  0  0  0  0  0  0  0  0  0  0
    3.2623   -0.9681    0.6599 C   0  0  0  0  0  0  0  0  0  0  0  0
    2.8397   -2.2853    0.7050 C   0  0  0  0  0  0  0  0  0  0  0  0
    3.5748   -3.1482    1.4751 C   0  0  0  0  0  0  0  0  0  0  0  0
    4.6677   -2.7803    2.1470 N   0  0  0  0  0  0  0  0  0  0  0  0
    5.0396   -1.4972    2.0584 C   0  0  0  0  0  0  0  0  0  0  0  0
    6.1855   -1.0483    2.7214 N   0  0  0  0  0  0  0  0  0  0  0  0
    7.3533   -1.7390    3.0838 C   0  0  0  0  0  0  0  0  0  0  0  0
    7.5586   -3.0962    2.7898 C   0  0  0  0  0  0  0  0  0  0  0  0
    8.7081   -3.7791    3.1962 C   0  0  0  0  0  0  0  0  0  0  0  0
    9.6906   -3.1119    3.9126 C   0  0  0  0  0  0  0  0  0  0  0  0
    9.5064   -1.7621    4.2133 C   0  0  0  0  0  0  0  0  0  0  0  0
   10.7818   -0.8925    5.0786 S   0  0  0  0  0  0  0  0  0  0  0  0
   11.6793   -0.3124    3.7859 N   0  0  0  0  0  0  0  0  0  0  0  0
   10.1962    0.2545    5.7306 O   0  0  0  0  0  0  0  0  0  0  0  0
   11.6075   -1.8550    5.7689 O   0  0  0  0  0  0  0  0  0  0  0  0
    8.3383   -1.0827    3.8327 C   0  0  0  0  0  0  0  0  0  0  0  0
    4.3548   -0.5821    1.3592 N   0  0  0  0  0  0  0  0  0  0  0  0
    1.4451    0.3107   -1.9220 H   0  0  0  0  0  0  0  0  0  0  0  0
    1.1532   -1.2026   -1.1384 H   0  0  0  0  0  0  0  0  0  0  0  0
    2.7003   -0.9218   -1.9775 H   0  0  0  0  0  0  0  0  0  0  0  0
    2.6063    0.9116    2.4140 H   0  0  0  0  0  0  0  0  0  0  0  0
    2.3312    3.2061    3.3063 H   0  0  0  0  0  0  0  0  0  0  0  0
    1.7793    5.8766    2.3268 H   0  0  0  0  0  0  0  0  0  0  0  0
    1.2916    7.7268    0.7645 H   0  0  0  0  0  0  0  0  0  0  0  0
    0.4038    7.1671   -0.6845 H   0  0  0  0  0  0  0  0  0  0  0  0
    2.1668    7.5107   -0.7821 H   0  0  0  0  0  0  0  0  0  0  0  0
    2.1729    2.2336   -1.7542 H   0  0  0  0  0  0  0  0  0  0  0  0
    1.9528   -2.6435    0.2069 H   0  0  0  0  0  0  0  0  0  0  0  0
    3.2904   -4.1905    1.5802 H   0  0  0  0  0  0  0  0  0  0  0  0
    6.2620   -0.0466    2.6101 H   0  0  0  0  0  0  0  0  0  0  0  0
    6.8267   -3.6572    2.2166 H   0  0  0  0  0  0  0  0  0  0  0  0
    8.8241   -4.8305    2.9451 H   0  0  0  0  0  0  0  0  0  0  0  0
   10.5838   -3.6444    4.2285 H   0  0  0  0  0  0  0  0  0  0  0  0
   11.2599    0.4948    3.3307 H   0  0  0  0  0  0  0  0  0  0  0  0
   12.0747   -1.0371    3.1921 H   0  0  0  0  0  0  0  0  0  0  0  0
    8.2018   -0.0420    4.1186 H   0  0  0  0  0  0  0  0  0  0  0  0
  1  2  1  0  0  0  0
  1 30  1  0  0  0  0
  1 31  1  0  0  0  0
  1 32  1  0  0  0  0
  2  3  1  0  0  0  0
  2 13  1  0  0  0  0
  3  4  1  0  0  0  0
  3 12  2  0  0  0  0
  4  5  2  0  0  0  0
  4 33  1  0  0  0  0
  5  6  1  0  0  0  0
  5 34  1  0  0  0  0
  6  7  2  0  0  0  0
  6 11  1  0  0  0  0
  7  8  1  0  0  0  0
  7 35  1  0  0  0  0
  8  9  1  0  0  0  0
  8 10  1  0  0  0  0
  9 36  1  0  0  0  0
  9 37  1  0  0  0  0
  9 38  1  0  0  0  0
 10 11  2  0  0  0  0
 11 12  1  0  0  0  0
 12 39  1  0  0  0  0
 13 14  1  0  0  0  0
 13 29  2  0  0  0  0
 14 15  2  0  0  0  0
 14 40  1  0  0  0  0
 15 16  1  0  0  0  0
 15 41  1  0  0  0  0
 16 17  2  0  0  0  0
 17 18  1  0  0  0  0
 17 29  1  0  0  0  0
 18 19  1  0  0  0  0
 18 42  1  0  0  0  0
 19 20  1  0  0  0  0
 19 28  2  0  0  0  0
 20 21  2  0  0  0  0
 20 43  1  0  0  0  0
 21 22  1  0  0  0  0
 21 44  1  0  0  0  0
 22 23  2  0  0  0  0
 22 45  1  0  0  0  0
 23 24  1  0  0  0  0
 23 28  1  0  0  0  0
 24 25  1  0  0  0  0
 24 26  2  0  0  0  0
 24 27  2  0  0  0  0
 25 46  1  0  0  0  0
 25 47  1  0  0  0  0
 28 48  1  0  0  0  0
M  END
$$$$
