CHEMBL179698
 OpenBabel04072215363D

 52 55  0  0  0  0  0  0  0  0999 V2000
    5.3703   -1.2049   -1.5686 C   0  0  0  0  0  0  0  0  0  0  0  0
    4.2032   -1.1405   -0.7473 O   0  0  0  0  0  0  0  0  0  0  0  0
    4.4169   -0.9715    0.5950 C   0  0  0  0  0  0  0  0  0  0  0  0
    5.5730   -0.3470    1.0963 C   0  0  0  0  0  0  0  0  0  0  0  0
    5.8744   -0.3029    2.4517 C   0  0  0  0  0  0  0  0  0  0  0  0
    7.0646    0.2081    2.8147 N   0  0  0  0  0  0  0  0  0  0  0  0
    7.4059    0.1656    4.1157 C   0  0  0  0  0  0  0  0  0  0  0  0
    6.6128   -0.3891    5.1001 C   0  0  0  0  0  0  0  0  0  0  0  0
    5.3760   -0.9145    4.7303 C   0  0  0  0  0  0  0  0  0  0  0  0
    4.6798   -1.4690    5.7954 O   0  0  0  0  0  0  0  0  0  0  0  0
    3.8684   -2.5643    5.6183 C   0  0  0  0  0  0  0  0  0  0  0  0
    4.1288   -3.5964    4.7198 C   0  0  0  0  0  0  0  0  0  0  0  0
    3.1241   -4.5231    4.4244 C   0  0  0  0  0  0  0  0  0  0  0  0
    1.8896   -4.5012    5.0858 C   0  0  0  0  0  0  0  0  0  0  0  0
    0.7965   -5.3330    4.7313 N   0  0  0  0  0  0  0  0  0  0  0  0
    0.7977   -6.2853    3.7239 C   0  0  0  0  0  0  0  0  0  0  0  0
    1.7905   -6.6312    3.0931 O   0  0  0  0  0  0  0  0  0  0  0  0
   -0.4659   -6.7903    3.4632 N   0  0  0  0  0  0  0  0  0  0  0  0
   -0.6268   -7.7776    2.4512 C   0  0  0  0  0  0  0  0  0  0  0  0
    0.2604   -8.8584    2.3358 C   0  0  0  0  0  0  0  0  0  0  0  0
    0.1561   -9.7557    1.2684 C   0  0  0  0  0  0  0  0  0  0  0  0
   -0.8365   -9.5773    0.3086 C   0  0  0  0  0  0  0  0  0  0  0  0
   -1.7379   -8.5239    0.4408 C   0  0  0  0  0  0  0  0  0  0  0  0
   -2.6751   -8.3470   -0.5010 F   0  0  0  0  0  0  0  0  0  0  0  0
   -1.6516   -7.6420    1.5153 C   0  0  0  0  0  0  0  0  0  0  0  0
   -2.5090   -6.6132    1.6099 F   0  0  0  0  0  0  0  0  0  0  0  0
    1.7108   -3.5641    6.1087 C   0  0  0  0  0  0  0  0  0  0  0  0
    2.6966   -2.6032    6.3755 C   0  0  0  0  0  0  0  0  0  0  0  0
    4.9516   -0.8206    3.3745 C   0  0  0  0  0  0  0  0  0  0  0  0
    3.6974   -1.2322    2.8697 C   0  0  0  0  0  0  0  0  0  0  0  0
    3.4488   -1.3952    1.5025 C   0  0  0  0  0  0  0  0  0  0  0  0
    2.2446   -2.0013    1.2906 O   0  0  0  0  0  0  0  0  0  0  0  0
    1.9380   -2.5561    0.0251 C   0  0  0  0  0  0  0  0  0  0  0  0
    5.1529   -1.8604   -2.4172 H   0  0  0  0  0  0  0  0  0  0  0  0
    6.2419   -1.6299   -1.0561 H   0  0  0  0  0  0  0  0  0  0  0  0
    5.6015   -0.2074   -1.9546 H   0  0  0  0  0  0  0  0  0  0  0  0
    6.3014    0.0917    0.4194 H   0  0  0  0  0  0  0  0  0  0  0  0
    8.3777    0.5916    4.3535 H   0  0  0  0  0  0  0  0  0  0  0  0
    6.9547   -0.4231    6.1259 H   0  0  0  0  0  0  0  0  0  0  0  0
    5.0521   -3.6323    4.1511 H   0  0  0  0  0  0  0  0  0  0  0  0
    3.3342   -5.2175    3.6182 H   0  0  0  0  0  0  0  0  0  0  0  0
   -0.0500   -5.2396    5.2731 H   0  0  0  0  0  0  0  0  0  0  0  0
   -1.2151   -6.1108    3.5215 H   0  0  0  0  0  0  0  0  0  0  0  0
    1.0558   -8.9985    3.0635 H   0  0  0  0  0  0  0  0  0  0  0  0
    0.8701  -10.5705    1.1798 H   0  0  0  0  0  0  0  0  0  0  0  0
   -0.9054  -10.2449   -0.5448 H   0  0  0  0  0  0  0  0  0  0  0  0
    0.7882   -3.5357    6.6867 H   0  0  0  0  0  0  0  0  0  0  0  0
    2.5225   -1.8456    7.1365 H   0  0  0  0  0  0  0  0  0  0  0  0
    2.9021   -1.5243    3.5480 H   0  0  0  0  0  0  0  0  0  0  0  0
    1.1701   -3.3221    0.1893 H   0  0  0  0  0  0  0  0  0  0  0  0
    2.7831   -3.0607   -0.4499 H   0  0  0  0  0  0  0  0  0  0  0  0
    1.5048   -1.7862   -0.6178 H   0  0  0  0  0  0  0  0  0  0  0  0
  1  2  1  0  0  0  0
  1 34  1  0  0  0  0
  1 35  1  0  0  0  0
  1 36  1  0  0  0  0
  2  3  1  0  0  0  0
  3  4  1  0  0  0  0
  3 31  2  0  0  0  0
  4  5  2  0  0  0  0
  4 37  1  0  0  0  0
  5  6  1  0  0  0  0
  5 29  1  0  0  0  0
  6  7  2  0  0  0  0
  7  8  1  0  0  0  0
  7 38  1  0  0  0  0
  8  9  2  0  0  0  0
  8 39  1  0  0  0  0
  9 10  1  0  0  0  0
  9 29  1  0  0  0  0
 10 11  1  0  0  0  0
 11 12  1  0  0  0  0
 11 28  2  0  0  0  0
 12 13  2  0  0  0  0
 12 40  1  0  0  0  0
 13 14  1  0  0  0  0
 13 41  1  0  0  0  0
 14 15  1  0  0  0  0
 14 27  2  0  0  0  0
 15 16  1  0  0  0  0
 15 42  1  0  0  0  0
 16 17  2  0  0  0  0
 16 18  1  0  0  0  0
 18 19  1  0  0  0  0
 18 43  1  0  0  0  0
 19 20  1  0  0  0  0
 19 25  2  0  0  0  0
 20 21  2  0  0  0  0
 20 44  1  0  0  0  0
 21 22  1  0  0  0  0
 21 45  1  0  0  0  0
 22 23  2  0  0  0  0
 22 46  1  0  0  0  0
 23 24  1  0  0  0  0
 23 25  1  0  0  0  0
 25 26  1  0  0  0  0
 27 28  1  0  0  0  0
 27 47  1  0  0  0  0
 28 48  1  0  0  0  0
 29 30  2  0  0  0  0
 30 31  1  0  0  0  0
 30 49  1  0  0  0  0
 31 32  1  0  0  0  0
 32 33  1  0  0  0  0
 33 50  1  0  0  0  0
 33 51  1  0  0  0  0
 33 52  1  0  0  0  0
M  END
$$$$
