CHEMBL1969042
 OpenBabel04072215363D

 44 47  0  0  0  0  0  0  0  0999 V2000
   -4.8601    4.4860   -3.0858 O   0  0  0  0  0  0  0  0  0  0  0  0
   -4.5229    3.3799   -2.3655 C   0  0  0  0  0  0  0  0  0  0  0  0
   -5.4885    2.6030   -1.7398 C   0  0  0  0  0  0  0  0  0  0  0  0
   -5.0958    1.4717   -1.0179 C   0  0  0  0  0  0  0  0  0  0  0  0
   -3.7437    1.1055   -0.9128 C   0  0  0  0  0  0  0  0  0  0  0  0
   -3.3208   -0.0806   -0.2707 N   0  0  0  0  0  0  0  0  0  0  0  0
   -4.0656   -1.1930   -0.0405 C   0  0  0  0  0  0  0  0  0  0  0  0
   -4.9844   -1.6173   -0.9602 N   0  0  0  0  0  0  0  0  0  0  0  0
   -5.5851   -2.7708   -0.6581 N   0  0  0  0  0  0  0  0  0  0  0  0
   -5.0419   -3.1281    0.5181 C   0  0  0  0  0  0  0  0  0  0  0  0
   -5.4744   -4.3765    1.1557 C   0  0  0  0  0  0  0  0  0  0  0  0
   -5.7193   -5.5138    0.3662 C   0  0  0  0  0  0  0  0  0  0  0  0
   -6.0908   -6.7259    0.9538 C   0  0  0  0  0  0  0  0  0  0  0  0
   -6.2123   -6.8021    2.3366 C   0  0  0  0  0  0  0  0  0  0  0  0
   -6.5610   -7.9646    2.9566 O   0  0  0  0  0  0  0  0  0  0  0  0
   -5.9849   -5.6883    3.1346 C   0  0  0  0  0  0  0  0  0  0  0  0
   -5.6380   -4.4715    2.5438 C   0  0  0  0  0  0  0  0  0  0  0  0
   -4.0549   -2.1644    0.9487 C   0  0  0  0  0  0  0  0  0  0  0  0
   -3.1990   -2.1413    2.1356 C   0  0  0  0  0  0  0  0  0  0  0  0
   -2.6447   -3.3312    2.6336 C   0  0  0  0  0  0  0  0  0  0  0  0
   -1.9083   -3.3455    3.8220 C   0  0  0  0  0  0  0  0  0  0  0  0
   -1.6750   -2.1547    4.4930 C   0  0  0  0  0  0  0  0  0  0  0  0
   -0.9493   -2.1192    5.6451 O   0  0  0  0  0  0  0  0  0  0  0  0
   -2.1870   -0.9537    4.0038 C   0  0  0  0  0  0  0  0  0  0  0  0
   -2.9573   -0.9523    2.8387 C   0  0  0  0  0  0  0  0  0  0  0  0
   -2.7908    1.9101   -1.5518 C   0  0  0  0  0  0  0  0  0  0  0  0
   -3.1777    3.0446   -2.2738 C   0  0  0  0  0  0  0  0  0  0  0  0
   -5.8254    4.5972   -3.0536 H   0  0  0  0  0  0  0  0  0  0  0  0
   -6.5428    2.8558   -1.7981 H   0  0  0  0  0  0  0  0  0  0  0  0
   -5.8651    0.8972   -0.5076 H   0  0  0  0  0  0  0  0  0  0  0  0
   -2.4076    0.0030    0.1726 H   0  0  0  0  0  0  0  0  0  0  0  0
   -5.2150   -1.1649   -1.8361 H   0  0  0  0  0  0  0  0  0  0  0  0
   -5.6157   -5.4544   -0.7158 H   0  0  0  0  0  0  0  0  0  0  0  0
   -6.2717   -7.5884    0.3207 H   0  0  0  0  0  0  0  0  0  0  0  0
   -6.7549   -8.6299    2.2762 H   0  0  0  0  0  0  0  0  0  0  0  0
   -6.0792   -5.7627    4.2139 H   0  0  0  0  0  0  0  0  0  0  0  0
   -5.4840   -3.6054    3.1824 H   0  0  0  0  0  0  0  0  0  0  0  0
   -2.8032   -4.2754    2.1176 H   0  0  0  0  0  0  0  0  0  0  0  0
   -1.5401   -4.2927    4.2043 H   0  0  0  0  0  0  0  0  0  0  0  0
   -0.6568   -3.0215    5.8566 H   0  0  0  0  0  0  0  0  0  0  0  0
   -1.9964   -0.0292    4.5409 H   0  0  0  0  0  0  0  0  0  0  0  0
   -3.3852   -0.0084    2.5022 H   0  0  0  0  0  0  0  0  0  0  0  0
   -1.7359    1.6500   -1.5120 H   0  0  0  0  0  0  0  0  0  0  0  0
   -2.4310    3.6569   -2.7713 H   0  0  0  0  0  0  0  0  0  0  0  0
  1  2  1  0  0  0  0
  1 28  1  0  0  0  0
  2  3  1  0  0  0  0
  2 27  2  0  0  0  0
  3  4  2  0  0  0  0
  3 29  1  0  0  0  0
  4  5  1  0  0  0  0
  4 30  1  0  0  0  0
  5  6  1  0  0  0  0
  5 26  2  0  0  0  0
  6  7  1  0  0  0  0
  6 31  1  0  0  0  0
  7  8  1  0  0  0  0
  7 18  2  0  0  0  0
  8  9  1  0  0  0  0
  8 32  1  0  0  0  0
  9 10  2  0  0  0  0
 10 11  1  0  0  0  0
 10 18  1  0  0  0  0
 11 12  1  0  0  0  0
 11 17  2  0  0  0  0
 12 13  2  0  0  0  0
 12 33  1  0  0  0  0
 13 14  1  0  0  0  0
 13 34  1  0  0  0  0
 14 15  1  0  0  0  0
 14 16  2  0  0  0  0
 15 35  1  0  0  0  0
 16 17  1  0  0  0  0
 16 36  1  0  0  0  0
 17 37  1  0  0  0  0
 18 19  1  0  0  0  0
 19 20  1  0  0  0  0
 19 25  2  0  0  0  0
 20 21  2  0  0  0  0
 20 38  1  0  0  0  0
 21 22  1  0  0  0  0
 21 39  1  0  0  0  0
 22 23  1  0  0  0  0
 22 24  2  0  0  0  0
 23 40  1  0  0  0  0
 24 25  1  0  0  0  0
 24 41  1  0  0  0  0
 25 42  1  0  0  0  0
 26 27  1  0  0  0  0
 26 43  1  0  0  0  0
 27 44  1  0  0  0  0
M  END
$$$$
