CHEMBL1972584
 OpenBabel04072215363D

 81 87  0  0  1  0  0  0  0  0999 V2000
   -2.4029   -5.4885   -0.3049 C   0  0  0  0  0  0  0  0  0  0  0  0
   -1.5659   -4.4194   -0.9614 C   0  0  0  0  0  0  0  0  0  0  0  0
   -2.0081   -3.7887   -1.9217 O   0  0  0  0  0  0  0  0  0  0  0  0
   -0.2997   -4.1981   -0.4361 N   0  0  0  0  0  0  0  0  0  0  0  0
    0.3335   -5.0764    0.5494 C   0  0  0  0  0  0  0  0  0  0  0  0
    1.3741   -4.3307    1.4006 C   0  0  0  0  0  0  0  0  0  0  0  0
    2.4014   -3.6051    0.6277 N   0  0  0  0  0  0  0  0  0  0  0  0
    3.4224   -4.4419   -0.0497 C   0  0  3  0  0  0  0  0  0  0  0  0
    3.8465   -5.6763    0.7838 C   0  0  0  0  0  0  0  0  0  0  0  0
    5.0345   -6.4391    0.2062 C   0  0  0  0  0  0  0  0  0  0  0  0
    6.2313   -5.5230   -0.0562 C   0  0  3  0  0  0  0  0  0  0  0  0
    7.3552   -6.2594   -0.6222 N   0  0  0  0  0  0  0  0  0  0  0  0
    7.1903   -6.9637   -1.7606 N   0  0  0  0  0  0  0  0  0  0  0  0
    8.4113   -7.4733   -2.0163 C   0  0  0  0  0  0  0  0  0  0  0  0
    8.6425   -8.2483   -3.2394 C   0  0  0  0  0  0  0  0  0  0  0  0
    7.9386   -7.9350   -4.4074 C   0  0  0  0  0  0  0  0  0  0  0  0
    8.2704   -8.5351   -5.6270 C   0  0  0  0  0  0  0  0  0  0  0  0
    9.3262   -9.4387   -5.7008 C   0  0  0  0  0  0  0  0  0  0  0  0
    9.8010   -9.9982   -6.8982 N   0  0  0  0  0  0  0  0  0  0  0  0
    9.3576   -9.7630   -8.1856 C   0  0  0  0  0  0  0  0  0  0  0  0
    8.4423   -8.9985   -8.4925 O   0  0  0  0  0  0  0  0  0  0  0  0
   10.1218  -10.4813   -9.1846 C   0  0  0  0  0  0  0  0  0  0  0  0
   10.7732  -11.6999   -9.0622 C   0  0  0  0  0  0  0  0  0  0  0  0
   11.4796  -11.9588  -10.2604 C   0  0  0  0  0  0  0  0  0  0  0  0
   12.3431  -12.9955  -10.6631 C   0  0  0  0  0  0  0  0  0  0  0  0
   12.9203  -12.9479  -11.9318 C   0  0  0  0  0  0  0  0  0  0  0  0
   12.6287  -11.9003  -12.8011 C   0  0  0  0  0  0  0  0  0  0  0  0
   11.7583  -10.8719  -12.4275 C   0  0  0  0  0  0  0  0  0  0  0  0
   11.2000  -10.9131  -11.1404 C   0  0  0  0  0  0  0  0  0  0  0  0
   10.3437  -10.0485  -10.4810 N   0  0  0  0  0  0  0  0  0  0  0  0
    9.8147   -8.8141  -11.0288 C   0  0  0  0  0  0  0  0  0  0  0  0
    9.9793   -9.8150   -4.5229 C   0  0  0  0  0  0  0  0  0  0  0  0
    9.6051   -9.2574   -3.2968 C   0  0  0  0  0  0  0  0  0  0  0  0
    9.3643   -7.0622   -1.0249 C   0  0  0  0  0  0  0  0  0  0  0  0
   10.7358   -7.1883   -0.7470 C   0  0  0  0  0  0  0  0  0  0  0  0
   11.6674   -7.8499   -1.5380 N   0  0  0  0  0  0  0  0  0  0  0  0
   11.2330   -6.5953    0.3574 N   0  0  0  0  0  0  0  0  0  0  0  0
   10.4010   -5.8863    1.1393 C   0  0  0  0  0  0  0  0  0  0  0  0
    9.0899   -5.6764    0.9651 N   0  0  0  0  0  0  0  0  0  0  0  0
    8.6309   -6.2940   -0.1369 C   0  0  0  0  0  0  0  0  0  0  0  0
    5.8240   -4.3455   -0.9452 C   0  0  0  0  0  0  0  0  0  0  0  0
    4.6652   -3.5628   -0.3313 C   0  0  0  0  0  0  0  0  0  0  0  0
    1.6945   -2.6793   -0.2950 C   0  0  0  0  0  0  0  0  0  0  0  0
    0.6137   -3.3306   -1.1839 C   0  0  0  0  0  0  0  0  0  0  0  0
   -3.4041   -5.4898   -0.7457 H   0  0  0  0  0  0  0  0  0  0  0  0
   -2.5116   -5.2925    0.7647 H   0  0  0  0  0  0  0  0  0  0  0  0
   -1.9488   -6.4688   -0.4740 H   0  0  0  0  0  0  0  0  0  0  0  0
    0.7902   -5.9064   -0.0009 H   0  0  0  0  0  0  0  0  0  0  0  0
   -0.4156   -5.5030    1.2204 H   0  0  0  0  0  0  0  0  0  0  0  0
    1.8193   -5.0113    2.1333 H   0  0  0  0  0  0  0  0  0  0  0  0
    0.8432   -3.5899    2.0149 H   0  0  0  0  0  0  0  0  0  0  0  0
    3.0336   -4.8159   -1.0057 H   0  0  0  0  0  0  0  0  0  0  0  0
    3.0136   -6.3865    0.8503 H   0  0  0  0  0  0  0  0  0  0  0  0
    4.0949   -5.3688    1.8072 H   0  0  0  0  0  0  0  0  0  0  0  0
    4.7215   -6.9408   -0.7180 H   0  0  0  0  0  0  0  0  0  0  0  0
    5.3253   -7.2337    0.9060 H   0  0  0  0  0  0  0  0  0  0  0  0
    6.5718   -5.1231    0.9086 H   0  0  0  0  0  0  0  0  0  0  0  0
    7.1411   -7.1954   -4.3881 H   0  0  0  0  0  0  0  0  0  0  0  0
    7.6999   -8.2432   -6.5024 H   0  0  0  0  0  0  0  0  0  0  0  0
   10.6215  -10.5813   -6.8177 H   0  0  0  0  0  0  0  0  0  0  0  0
   10.7663  -12.3395   -8.1887 H   0  0  0  0  0  0  0  0  0  0  0  0
   12.5706  -13.8130   -9.9872 H   0  0  0  0  0  0  0  0  0  0  0  0
   13.6032  -13.7366  -12.2402 H   0  0  0  0  0  0  0  0  0  0  0  0
   13.0876  -11.8809  -13.7874 H   0  0  0  0  0  0  0  0  0  0  0  0
   11.5424  -10.0672  -13.1218 H   0  0  0  0  0  0  0  0  0  0  0  0
   10.2626   -8.6040  -12.0004 H   0  0  0  0  0  0  0  0  0  0  0  0
   10.0581   -7.9956  -10.3457 H   0  0  0  0  0  0  0  0  0  0  0  0
    8.7330   -8.9236  -11.1419 H   0  0  0  0  0  0  0  0  0  0  0  0
   10.7952  -10.5334   -4.5364 H   0  0  0  0  0  0  0  0  0  0  0  0
   10.1065   -9.6046   -2.3953 H   0  0  0  0  0  0  0  0  0  0  0  0
   11.5090   -7.7392   -2.5321 H   0  0  0  0  0  0  0  0  0  0  0  0
   12.6062   -7.6115   -1.2323 H   0  0  0  0  0  0  0  0  0  0  0  0
   10.8504   -5.4217    2.0120 H   0  0  0  0  0  0  0  0  0  0  0  0
    5.5326   -4.6977   -1.9433 H   0  0  0  0  0  0  0  0  0  0  0  0
    6.6783   -3.6728   -1.0909 H   0  0  0  0  0  0  0  0  0  0  0  0
    4.4194   -2.7438   -1.0161 H   0  0  0  0  0  0  0  0  0  0  0  0
    5.0078   -3.0967    0.6026 H   0  0  0  0  0  0  0  0  0  0  0  0
    2.3947   -2.1222   -0.9251 H   0  0  0  0  0  0  0  0  0  0  0  0
    1.2057   -1.9159    0.3258 H   0  0  0  0  0  0  0  0  0  0  0  0
    1.0789   -3.9485   -1.9613 H   0  0  0  0  0  0  0  0  0  0  0  0
    0.0470   -2.5436   -1.6943 H   0  0  0  0  0  0  0  0  0  0  0  0
  1  2  1  0  0  0  0
  1 45  1  0  0  0  0
  1 46  1  0  0  0  0
  1 47  1  0  0  0  0
  2  3  2  0  0  0  0
  2  4  1  0  0  0  0
  4  5  1  0  0  0  0
  4 44  1  0  0  0  0
  5  6  1  0  0  0  0
  5 48  1  0  0  0  0
  5 49  1  0  0  0  0
  6  7  1  0  0  0  0
  6 50  1  0  0  0  0
  6 51  1  0  0  0  0
  7  8  1  0  0  0  0
  7 43  1  0  0  0  0
  8  9  1  0  0  0  0
  8 42  1  0  0  0  0
  8 52  1  0  0  0  0
  9 10  1  0  0  0  0
  9 53  1  0  0  0  0
  9 54  1  0  0  0  0
 10 11  1  0  0  0  0
 10 55  1  0  0  0  0
 10 56  1  0  0  0  0
 11 12  1  0  0  0  0
 11 41  1  0  0  0  0
 11 57  1  0  0  0  0
 12 13  1  0  0  0  0
 12 40  1  0  0  0  0
 13 14  2  0  0  0  0
 14 15  1  0  0  0  0
 14 34  1  0  0  0  0
 15 16  1  0  0  0  0
 15 33  2  0  0  0  0
 16 17  2  0  0  0  0
 16 58  1  0  0  0  0
 17 18  1  0  0  0  0
 17 59  1  0  0  0  0
 18 19  1  0  0  0  0
 18 32  2  0  0  0  0
 19 20  1  0  0  0  0
 19 60  1  0  0  0  0
 20 21  2  0  0  0  0
 20 22  1  0  0  0  0
 22 23  2  0  0  0  0
 22 30  1  0  0  0  0
 23 24  1  0  0  0  0
 23 61  1  0  0  0  0
 24 25  1  0  0  0  0
 24 29  2  0  0  0  0
 25 26  2  0  0  0  0
 25 62  1  0  0  0  0
 26 27  1  0  0  0  0
 26 63  1  0  0  0  0
 27 28  2  0  0  0  0
 27 64  1  0  0  0  0
 28 29  1  0  0  0  0
 28 65  1  0  0  0  0
 29 30  1  0  0  0  0
 30 31  1  0  0  0  0
 31 66  1  0  0  0  0
 31 67  1  0  0  0  0
 31 68  1  0  0  0  0
 32 33  1  0  0  0  0
 32 69  1  0  0  0  0
 33 70  1  0  0  0  0
 34 35  1  0  0  0  0
 34 40  2  0  0  0  0
 35 36  1  0  0  0  0
 35 37  2  0  0  0  0
 36 71  1  0  0  0  0
 36 72  1  0  0  0  0
 37 38  1  0  0  0  0
 38 39  2  0  0  0  0
 38 73  1  0  0  0  0
 39 40  1  0  0  0  0
 41 42  1  0  0  0  0
 41 74  1  0  0  0  0
 41 75  1  0  0  0  0
 42 76  1  0  0  0  0
 42 77  1  0  0  0  0
 43 44  1  0  0  0  0
 43 78  1  0  0  0  0
 43 79  1  0  0  0  0
 44 80  1  0  0  0  0
 44 81  1  0  0  0  0
M  END
$$$$
