CHEMBL3977680
 OpenBabel04072215373D

 52 55  0  0  0  0  0  0  0  0999 V2000
    2.7595    1.9910    2.3380 O   0  0  0  0  0  0  0  0  0  0  0  0
    2.2792    1.4561    1.3481 C   0  0  0  0  0  0  0  0  0  0  0  0
    0.9431    1.1031    1.2360 N   0  0  0  0  0  0  0  0  0  0  0  0
   -0.0243    1.2981    2.2525 C   0  0  0  0  0  0  0  0  0  0  0  0
    0.1512    2.1860    3.3200 C   0  0  0  0  0  0  0  0  0  0  0  0
   -0.8004    2.2848    4.3343 C   0  0  0  0  0  0  0  0  0  0  0  0
   -1.9413    1.4977    4.2864 C   0  0  0  0  0  0  0  0  0  0  0  0
   -2.8257    1.6017    5.2854 F   0  0  0  0  0  0  0  0  0  0  0  0
   -2.1614    0.6205    3.2295 C   0  0  0  0  0  0  0  0  0  0  0  0
   -3.3831   -0.2467    3.1965 C   0  0  0  0  0  0  0  0  0  0  0  0
   -4.2041   -0.1380    4.2744 F   0  0  0  0  0  0  0  0  0  0  0  0
   -4.1623    0.0104    2.1081 F   0  0  0  0  0  0  0  0  0  0  0  0
   -3.0638   -1.5702    3.1100 F   0  0  0  0  0  0  0  0  0  0  0  0
   -1.2020    0.5420    2.1973 C   0  0  0  0  0  0  0  0  0  0  0  0
    3.0242    1.0770    0.2435 N   0  0  0  0  0  0  0  0  0  0  0  0
    4.4394    1.1583    0.1768 C   0  0  0  0  0  0  0  0  0  0  0  0
    5.2070    1.9960    0.9914 C   0  0  0  0  0  0  0  0  0  0  0  0
    6.6044    1.9818    0.9254 C   0  0  0  0  0  0  0  0  0  0  0  0
    7.2572    1.1258    0.0405 C   0  0  0  0  0  0  0  0  0  0  0  0
    8.6367    1.1707    0.0566 O   0  0  0  0  0  0  0  0  0  0  0  0
    9.3391    0.9658   -1.1138 C   0  0  0  0  0  0  0  0  0  0  0  0
    8.8305    1.2733   -2.3732 C   0  0  0  0  0  0  0  0  0  0  0  0
    9.5886    0.9372   -3.4672 C   0  0  0  0  0  0  0  0  0  0  0  0
   10.8191    0.4073   -3.3757 N   0  0  0  0  0  0  0  0  0  0  0  0
   11.3565    0.1973   -2.1599 C   0  0  0  0  0  0  0  0  0  0  0  0
   12.6728   -0.2958   -2.0714 N   0  0  0  0  0  0  0  0  0  0  0  0
   13.4571   -0.5673   -3.1803 C   0  0  0  0  0  0  0  0  0  0  0  0
   13.1489   -0.4401   -4.3542 O   0  0  0  0  0  0  0  0  0  0  0  0
   14.8398   -1.0727   -2.9211 C   0  0  0  0  0  0  0  0  0  0  0  0
   15.2035   -1.9776   -1.7731 C   0  0  0  0  0  0  0  0  0  0  0  0
   15.7127   -0.5632   -1.8038 C   0  0  0  0  0  0  0  0  0  0  0  0
   10.6396    0.4583   -0.9964 C   0  0  0  0  0  0  0  0  0  0  0  0
    6.5014    0.2636   -0.7584 C   0  0  0  0  0  0  0  0  0  0  0  0
    5.1088    0.3234   -0.7216 C   0  0  0  0  0  0  0  0  0  0  0  0
    4.4044   -0.4701   -1.5444 F   0  0  0  0  0  0  0  0  0  0  0  0
    0.6948    0.4834    0.4801 H   0  0  0  0  0  0  0  0  0  0  0  0
    1.0251    2.8265    3.3978 H   0  0  0  0  0  0  0  0  0  0  0  0
   -0.6455    2.9653    5.1664 H   0  0  0  0  0  0  0  0  0  0  0  0
   -1.3723   -0.1500    1.3741 H   0  0  0  0  0  0  0  0  0  0  0  0
    2.5847    0.5038   -0.4638 H   0  0  0  0  0  0  0  0  0  0  0  0
    4.7469    2.6902    1.6887 H   0  0  0  0  0  0  0  0  0  0  0  0
    7.1720    2.6451    1.5737 H   0  0  0  0  0  0  0  0  0  0  0  0
    7.8590    1.7274   -2.5205 H   0  0  0  0  0  0  0  0  0  0  0  0
    9.2224    1.0810   -4.4784 H   0  0  0  0  0  0  0  0  0  0  0  0
   13.0588   -0.4396   -1.1567 H   0  0  0  0  0  0  0  0  0  0  0  0
   15.3594   -1.2787   -3.8567 H   0  0  0  0  0  0  0  0  0  0  0  0
   15.9029   -2.7797   -1.9910 H   0  0  0  0  0  0  0  0  0  0  0  0
   14.4530   -2.2448   -1.0420 H   0  0  0  0  0  0  0  0  0  0  0  0
   16.7607   -0.4013   -2.0381 H   0  0  0  0  0  0  0  0  0  0  0  0
   15.3108    0.1529   -1.0998 H   0  0  0  0  0  0  0  0  0  0  0  0
   11.0610    0.2786   -0.0151 H   0  0  0  0  0  0  0  0  0  0  0  0
    6.9709   -0.4507   -1.4265 H   0  0  0  0  0  0  0  0  0  0  0  0
  1  2  2  0  0  0  0
  2  3  1  0  0  0  0
  2 15  1  0  0  0  0
  3  4  1  0  0  0  0
  3 36  1  0  0  0  0
  4  5  1  0  0  0  0
  4 14  2  0  0  0  0
  5  6  2  0  0  0  0
  5 37  1  0  0  0  0
  6  7  1  0  0  0  0
  6 38  1  0  0  0  0
  7  8  1  0  0  0  0
  7  9  2  0  0  0  0
  9 10  1  0  0  0  0
  9 14  1  0  0  0  0
 10 11  1  0  0  0  0
 10 12  1  0  0  0  0
 10 13  1  0  0  0  0
 14 39  1  0  0  0  0
 15 16  1  0  0  0  0
 15 40  1  0  0  0  0
 16 17  1  0  0  0  0
 16 34  2  0  0  0  0
 17 18  2  0  0  0  0
 17 41  1  0  0  0  0
 18 19  1  0  0  0  0
 18 42  1  0  0  0  0
 19 20  1  0  0  0  0
 19 33  2  0  0  0  0
 20 21  1  0  0  0  0
 21 22  1  0  0  0  0
 21 32  2  0  0  0  0
 22 23  2  0  0  0  0
 22 43  1  0  0  0  0
 23 24  1  0  0  0  0
 23 44  1  0  0  0  0
 24 25  2  0  0  0  0
 25 26  1  0  0  0  0
 25 32  1  0  0  0  0
 26 27  1  0  0  0  0
 26 45  1  0  0  0  0
 27 28  2  0  0  0  0
 27 29  1  0  0  0  0
 29 30  1  0  0  0  0
 29 31  1  0  0  0  0
 29 46  1  0  0  0  0
 30 31  1  0  0  0  0
 30 47  1  0  0  0  0
 30 48  1  0  0  0  0
 31 49  1  0  0  0  0
 31 50  1  0  0  0  0
 32 51  1  0  0  0  0
 33 34  1  0  0  0  0
 33 52  1  0  0  0  0
 34 35  1  0  0  0  0
M  END
$$$$
