CHEMBL505253
 OpenBabel04072215383D

 48 51  0  0  1  0  0  0  0  0999 V2000
    0.7444    1.2670   -2.4539 C   0  0  0  0  0  0  0  0  0  0  0  0
    1.8904    0.6788   -1.8483 O   0  0  0  0  0  0  0  0  0  0  0  0
    2.7864    1.5303   -1.2545 C   0  0  0  0  0  0  0  0  0  0  0  0
    2.4110    2.7867   -0.7523 C   0  0  0  0  0  0  0  0  0  0  0  0
    3.3286    3.5976   -0.0707 C   0  0  0  0  0  0  0  0  0  0  0  0
    2.9281    4.9175    0.4111 C   0  0  0  0  0  0  0  0  0  0  0  0
    2.3367    5.3334    1.5442 C   0  0  0  0  0  0  0  0  0  0  0  0
    1.8610    4.5962    2.6820 C   0  0  0  0  0  0  0  0  0  0  0  0
    1.7266    3.2234    2.7238 C   0  0  0  0  0  0  0  0  0  0  0  0
    1.1843    2.8937    3.9372 N   0  0  0  0  0  0  0  0  0  0  0  0
    0.5950    4.0123    4.4684 C   0  0  0  0  0  0  0  0  0  0  0  0
   -0.4388    4.1529    5.3971 C   0  0  0  0  0  0  0  0  0  0  0  0
   -0.7299    5.4450    5.8354 C   0  0  0  0  0  0  0  0  0  0  0  0
    0.0748    6.5183    5.4649 C   0  0  0  0  0  0  0  0  0  0  0  0
    1.0895    6.3557    4.5150 C   0  0  0  0  0  0  0  0  0  0  0  0
    1.2635    5.0976    3.8975 C   0  0  0  0  0  0  0  0  0  0  0  0
    2.0963    6.8219    1.5304 C   0  0  3  0  0  0  0  0  0  0  0  0
    0.7439    7.2067    1.5352 O   0  0  0  0  0  0  0  0  0  0  0  0
    2.5851    7.1937    0.2793 N   0  0  0  0  0  0  0  0  0  0  0  0
    3.0457    6.1337   -0.4426 C   0  0  0  0  0  0  0  0  0  0  0  0
    3.4429    6.1593   -1.5989 O   0  0  0  0  0  0  0  0  0  0  0  0
    4.6351    3.1493    0.1128 C   0  0  0  0  0  0  0  0  0  0  0  0
    5.0271    1.8945   -0.3679 C   0  0  0  0  0  0  0  0  0  0  0  0
    6.3085    1.4101   -0.2459 O   0  0  0  0  0  0  0  0  0  0  0  0
    7.0312    1.8432    0.8992 C   0  0  0  0  0  0  0  0  0  0  0  0
    4.1091    1.0847   -1.0705 C   0  0  0  0  0  0  0  0  0  0  0  0
    4.5942   -0.1465   -1.4514 O   0  0  0  0  0  0  0  0  0  0  0  0
    4.1297   -0.6686   -2.6894 C   0  0  0  0  0  0  0  0  0  0  0  0
    0.2208    0.4828   -3.0089 H   0  0  0  0  0  0  0  0  0  0  0  0
    1.0290    2.0496   -3.1653 H   0  0  0  0  0  0  0  0  0  0  0  0
    0.0505    1.6493   -1.6990 H   0  0  0  0  0  0  0  0  0  0  0  0
    1.3933    3.1483   -0.8579 H   0  0  0  0  0  0  0  0  0  0  0  0
    1.9567    2.4357    2.0199 H   0  0  0  0  0  0  0  0  0  0  0  0
    1.1222    1.9615    4.3236 H   0  0  0  0  0  0  0  0  0  0  0  0
   -1.0324    3.3040    5.7181 H   0  0  0  0  0  0  0  0  0  0  0  0
   -1.5798    5.6123    6.4923 H   0  0  0  0  0  0  0  0  0  0  0  0
   -0.1149    7.5055    5.8792 H   0  0  0  0  0  0  0  0  0  0  0  0
    1.6758    7.2218    4.2287 H   0  0  0  0  0  0  0  0  0  0  0  0
    2.6664    7.3669    2.2879 H   0  0  0  0  0  0  0  0  0  0  0  0
    0.2106    6.4008    1.4327 H   0  0  0  0  0  0  0  0  0  0  0  0
    2.4487    8.1045   -0.1470 H   0  0  0  0  0  0  0  0  0  0  0  0
    5.3504    3.7989    0.6128 H   0  0  0  0  0  0  0  0  0  0  0  0
    7.9017    1.1900    1.0107 H   0  0  0  0  0  0  0  0  0  0  0  0
    6.4292    1.7569    1.8103 H   0  0  0  0  0  0  0  0  0  0  0  0
    7.3984    2.8656    0.7658 H   0  0  0  0  0  0  0  0  0  0  0  0
    4.8696   -1.3966   -3.0389 H   0  0  0  0  0  0  0  0  0  0  0  0
    4.0350    0.1023   -3.4616 H   0  0  0  0  0  0  0  0  0  0  0  0
    3.1924   -1.2143   -2.5498 H   0  0  0  0  0  0  0  0  0  0  0  0
  1  2  1  0  0  0  0
  1 29  1  0  0  0  0
  1 30  1  0  0  0  0
  1 31  1  0  0  0  0
  2  3  1  0  0  0  0
  3  4  1  0  0  0  0
  3 26  2  0  0  0  0
  4  5  2  0  0  0  0
  4 32  1  0  0  0  0
  5  6  1  0  0  0  0
  5 22  1  0  0  0  0
  6  7  2  0  0  0  0
  6 20  1  0  0  0  0
  7  8  1  0  0  0  0
  7 17  1  0  0  0  0
  8  9  2  0  0  0  0
  8 16  1  0  0  0  0
  9 10  1  0  0  0  0
  9 33  1  0  0  0  0
 10 11  1  0  0  0  0
 10 34  1  0  0  0  0
 11 12  1  0  0  0  0
 11 16  2  0  0  0  0
 12 13  2  0  0  0  0
 12 35  1  0  0  0  0
 13 14  1  0  0  0  0
 13 36  1  0  0  0  0
 14 15  2  0  0  0  0
 14 37  1  0  0  0  0
 15 16  1  0  0  0  0
 15 38  1  0  0  0  0
 17 18  1  0  0  0  0
 17 19  1  0  0  0  0
 17 39  1  0  0  0  0
 18 40  1  0  0  0  0
 19 20  1  0  0  0  0
 19 41  1  0  0  0  0
 20 21  2  0  0  0  0
 22 23  2  0  0  0  0
 22 42  1  0  0  0  0
 23 24  1  0  0  0  0
 23 26  1  0  0  0  0
 24 25  1  0  0  0  0
 25 43  1  0  0  0  0
 25 44  1  0  0  0  0
 25 45  1  0  0  0  0
 26 27  1  0  0  0  0
 27 28  1  0  0  0  0
 28 46  1  0  0  0  0
 28 47  1  0  0  0  0
 28 48  1  0  0  0  0
M  END
$$$$
