CHEMBL3984213
 OpenBabel04072215373D

 58 62  0  0  0  0  0  0  0  0999 V2000
    1.1457    0.4267    0.2949 C   0  0  0  0  0  0  0  0  0  0  0  0
    2.5477    0.2753    0.1312 O   0  0  0  0  0  0  0  0  0  0  0  0
    3.0937    0.4511   -1.1067 C   0  0  0  0  0  0  0  0  0  0  0  0
    4.2116   -0.3686   -1.3244 C   0  0  0  0  0  0  0  0  0  0  0  0
    4.9427   -0.3285   -2.5390 C   0  0  0  0  0  0  0  0  0  0  0  0
    6.0329   -1.1404   -2.8854 C   0  0  0  0  0  0  0  0  0  0  0  0
    6.4596   -2.1593   -1.9928 N   0  0  0  0  0  0  0  0  0  0  0  0
    7.7063   -2.8113   -2.0985 C   0  0  0  0  0  0  0  0  0  0  0  0
    8.8814   -2.0656   -2.2711 C   0  0  0  0  0  0  0  0  0  0  0  0
   10.1145   -2.6932   -2.4393 C   0  0  0  0  0  0  0  0  0  0  0  0
   10.1906   -4.0849   -2.4309 C   0  0  0  0  0  0  0  0  0  0  0  0
   11.7409   -4.8034   -2.6803 Cl  0  0  0  0  0  0  0  0  0  0  0  0
    9.0302   -4.8423   -2.2326 C   0  0  0  0  0  0  0  0  0  0  0  0
    9.0513   -6.5710   -2.2086 Cl  0  0  0  0  0  0  0  0  0  0  0  0
    7.7940   -4.2061   -2.0583 C   0  0  0  0  0  0  0  0  0  0  0  0
    6.6892   -0.9990   -4.0558 N   0  0  0  0  0  0  0  0  0  0  0  0
    6.2565   -0.0529   -4.8866 C   0  0  0  0  0  0  0  0  0  0  0  0
    5.2310    0.7679   -4.6625 N   0  0  0  0  0  0  0  0  0  0  0  0
    4.5934    0.6178   -3.5013 C   0  0  0  0  0  0  0  0  0  0  0  0
    3.5181    1.4465   -3.2577 C   0  0  0  0  0  0  0  0  0  0  0  0
    2.7150    1.3534   -2.1048 C   0  0  0  0  0  0  0  0  0  0  0  0
    1.5922    2.1410   -1.9524 O   0  0  0  0  0  0  0  0  0  0  0  0
    1.0730    2.6216   -3.2043 C   0  0  0  0  0  0  0  0  0  0  0  0
   -0.3307    3.0473   -3.0673 C   0  0  0  0  0  0  0  0  0  0  0  0
   -1.3971    2.4955   -3.5992 N   0  0  0  0  0  0  0  0  0  0  0  0
   -2.3585    3.4414   -3.3617 C   0  0  0  0  0  0  0  0  0  0  0  0
   -3.7905    3.2057   -3.6952 C   0  0  0  0  0  0  0  0  0  0  0  0
   -4.3357    2.0391   -3.0608 O   0  0  0  0  0  0  0  0  0  0  0  0
   -4.2806    2.1302   -1.6381 C   0  0  0  0  0  0  0  0  0  0  0  0
   -4.7649    0.8349   -1.0497 C   0  0  0  0  0  0  0  0  0  0  0  0
   -4.0993   -0.3648   -1.3440 C   0  0  0  0  0  0  0  0  0  0  0  0
   -4.5220   -1.5643   -0.7736 C   0  0  0  0  0  0  0  0  0  0  0  0
   -5.6109   -1.5731    0.0968 C   0  0  0  0  0  0  0  0  0  0  0  0
   -6.2796   -0.3830    0.3936 C   0  0  0  0  0  0  0  0  0  0  0  0
   -5.8570    0.8152   -0.1755 C   0  0  0  0  0  0  0  0  0  0  0  0
   -1.9315    4.5260   -2.6981 N   0  0  0  0  0  0  0  0  0  0  0  0
   -0.5683    4.2704   -2.5134 O   0  0  0  0  0  0  0  0  0  0  0  0
    0.7899   -0.4444    0.8560 H   0  0  0  0  0  0  0  0  0  0  0  0
    0.5769    0.4570   -0.6364 H   0  0  0  0  0  0  0  0  0  0  0  0
    0.9499    1.3158    0.9011 H   0  0  0  0  0  0  0  0  0  0  0  0
    4.5158   -1.0519   -0.5330 H   0  0  0  0  0  0  0  0  0  0  0  0
    5.6873   -2.7916   -1.8077 H   0  0  0  0  0  0  0  0  0  0  0  0
    8.8333   -0.9782   -2.2925 H   0  0  0  0  0  0  0  0  0  0  0  0
   11.0035   -2.0861   -2.5879 H   0  0  0  0  0  0  0  0  0  0  0  0
    6.8983   -4.8069   -1.9258 H   0  0  0  0  0  0  0  0  0  0  0  0
    6.7801    0.0569   -5.8300 H   0  0  0  0  0  0  0  0  0  0  0  0
    3.3216    2.1822   -4.0325 H   0  0  0  0  0  0  0  0  0  0  0  0
    1.0805    1.8199   -3.9559 H   0  0  0  0  0  0  0  0  0  0  0  0
    1.6674    3.4735   -3.5521 H   0  0  0  0  0  0  0  0  0  0  0  0
   -3.8779    3.0481   -4.7765 H   0  0  0  0  0  0  0  0  0  0  0  0
   -4.4120    4.0729   -3.4462 H   0  0  0  0  0  0  0  0  0  0  0  0
   -4.8955    2.9746   -1.3072 H   0  0  0  0  0  0  0  0  0  0  0  0
   -3.2553    2.2886   -1.2838 H   0  0  0  0  0  0  0  0  0  0  0  0
   -3.2511   -0.3619   -2.0266 H   0  0  0  0  0  0  0  0  0  0  0  0
   -4.0040   -2.4895   -1.0088 H   0  0  0  0  0  0  0  0  0  0  0  0
   -5.9429   -2.5071    0.5391 H   0  0  0  0  0  0  0  0  0  0  0  0
   -7.1293   -0.3943    1.0696 H   0  0  0  0  0  0  0  0  0  0  0  0
   -6.3846    1.7342    0.0668 H   0  0  0  0  0  0  0  0  0  0  0  0
  1  2  1  0  0  0  0
  1 38  1  0  0  0  0
  1 39  1  0  0  0  0
  1 40  1  0  0  0  0
  2  3  1  0  0  0  0
  3  4  1  0  0  0  0
  3 21  2  0  0  0  0
  4  5  2  0  0  0  0
  4 41  1  0  0  0  0
  5  6  1  0  0  0  0
  5 19  1  0  0  0  0
  6  7  1  0  0  0  0
  6 16  2  0  0  0  0
  7  8  1  0  0  0  0
  7 42  1  0  0  0  0
  8  9  1  0  0  0  0
  8 15  2  0  0  0  0
  9 10  2  0  0  0  0
  9 43  1  0  0  0  0
 10 11  1  0  0  0  0
 10 44  1  0  0  0  0
 11 12  1  0  0  0  0
 11 13  2  0  0  0  0
 13 14  1  0  0  0  0
 13 15  1  0  0  0  0
 15 45  1  0  0  0  0
 16 17  1  0  0  0  0
 17 18  2  0  0  0  0
 17 46  1  0  0  0  0
 18 19  1  0  0  0  0
 19 20  2  0  0  0  0
 20 21  1  0  0  0  0
 20 47  1  0  0  0  0
 21 22  1  0  0  0  0
 22 23  1  0  0  0  0
 23 24  1  0  0  0  0
 23 48  1  0  0  0  0
 23 49  1  0  0  0  0
 24 25  2  0  0  0  0
 24 37  1  0  0  0  0
 25 26  1  0  0  0  0
 26 27  1  0  0  0  0
 26 36  2  0  0  0  0
 27 28  1  0  0  0  0
 27 50  1  0  0  0  0
 27 51  1  0  0  0  0
 28 29  1  0  0  0  0
 29 30  1  0  0  0  0
 29 52  1  0  0  0  0
 29 53  1  0  0  0  0
 30 31  1  0  0  0  0
 30 35  2  0  0  0  0
 31 32  2  0  0  0  0
 31 54  1  0  0  0  0
 32 33  1  0  0  0  0
 32 55  1  0  0  0  0
 33 34  2  0  0  0  0
 33 56  1  0  0  0  0
 34 35  1  0  0  0  0
 34 57  1  0  0  0  0
 35 58  1  0  0  0  0
 36 37  1  0  0  0  0
M  END
$$$$
