CHEMBL2111784
 OpenBabel04072215363D

 63 67  0  0  1  0  0  0  0  0999 V2000
   -3.3184    0.6529   -3.0985 C   0  0  0  0  0  0  0  0  0  0  0  0
   -3.6641   -0.5418   -2.1852 C   0  0  2  0  0  0  0  0  0  0  0  0
   -2.7607   -1.6537   -2.4095 N   0  0  0  0  0  0  0  0  0  0  0  0
   -1.7339   -1.9373   -1.5143 C   0  0  0  0  0  0  0  0  0  0  0  0
   -1.0968   -3.1679   -1.6975 C   0  0  0  0  0  0  0  0  0  0  0  0
    0.0270   -3.5376   -0.9545 C   0  0  0  0  0  0  0  0  0  0  0  0
    0.7456   -4.8022   -1.2289 C   0  0  0  0  0  0  0  0  0  0  0  0
    0.7528   -5.3963   -2.8782 S   0  0  0  0  0  0  0  0  0  0  0  0
    1.7058   -6.7136   -2.4259 C   0  0  0  0  0  0  0  0  0  0  0  0
    2.0782   -7.8366   -3.3920 C   0  0  0  0  0  0  0  0  0  0  0  0
    0.8554   -8.6341   -3.8528 C   0  0  0  0  0  0  0  0  0  0  0  0
    0.2084   -9.3796   -2.6854 C   0  0  0  0  0  0  0  0  0  0  0  0
    1.1437  -10.2750   -1.9884 N   0  0  0  0  0  0  0  0  0  0  0  0
    0.4902  -10.7974   -0.7797 C   0  0  0  0  0  0  0  0  0  0  0  0
    2.4068   -9.6244   -1.6049 C   0  0  0  0  0  0  0  0  0  0  0  0
    3.0584   -8.8314   -2.7458 C   0  0  0  0  0  0  0  0  0  0  0  0
    2.0968   -6.7103   -1.1796 N   0  0  0  0  0  0  0  0  0  0  0  0
    1.5230   -5.6708   -0.4722 C   0  0  0  0  0  0  0  0  0  0  0  0
    1.8640   -5.5957    0.9452 C   0  0  0  0  0  0  0  0  0  0  0  0
    3.1641   -5.9843    1.3299 C   0  0  0  0  0  0  0  0  0  0  0  0
    3.5916   -5.8848    2.6559 C   0  0  0  0  0  0  0  0  0  0  0  0
    2.7093   -5.3786    3.6082 C   0  0  0  0  0  0  0  0  0  0  0  0
    3.1268   -5.2321    4.8645 F   0  0  0  0  0  0  0  0  0  0  0  0
    1.3993   -5.0656    3.2687 C   0  0  0  0  0  0  0  0  0  0  0  0
    0.9651   -5.1851    1.9412 C   0  0  0  0  0  0  0  0  0  0  0  0
    0.4452   -2.6264    0.0029 C   0  0  0  0  0  0  0  0  0  0  0  0
   -0.2801   -1.4564    0.1897 C   0  0  0  0  0  0  0  0  0  0  0  0
   -1.3518   -1.0947   -0.5505 N   0  0  0  0  0  0  0  0  0  0  0  0
   -5.0646   -0.9564   -2.6478 C   0  0  0  0  0  0  0  0  0  0  0  0
   -6.1718   -0.3458   -2.0462 C   0  0  0  0  0  0  0  0  0  0  0  0
   -7.3071   -0.1047   -2.8079 C   0  0  0  0  0  0  0  0  0  0  0  0
   -7.3552   -0.5157   -4.1389 C   0  0  0  0  0  0  0  0  0  0  0  0
   -6.3362   -1.3075   -4.6666 C   0  0  0  0  0  0  0  0  0  0  0  0
   -5.2139   -1.5776   -3.9020 C   0  0  0  0  0  0  0  0  0  0  0  0
   -4.1389    1.3863   -3.1263 H   0  0  0  0  0  0  0  0  0  0  0  0
   -3.1603    0.3368   -4.1413 H   0  0  0  0  0  0  0  0  0  0  0  0
   -2.4158    1.1791   -2.7756 H   0  0  0  0  0  0  0  0  0  0  0  0
   -3.6986   -0.2272   -1.1371 H   0  0  0  0  0  0  0  0  0  0  0  0
   -2.3857   -1.6668   -3.3521 H   0  0  0  0  0  0  0  0  0  0  0  0
   -1.5050   -3.8342   -2.4651 H   0  0  0  0  0  0  0  0  0  0  0  0
    2.5663   -7.3836   -4.2646 H   0  0  0  0  0  0  0  0  0  0  0  0
    1.1641   -9.3577   -4.6189 H   0  0  0  0  0  0  0  0  0  0  0  0
    0.1123   -7.9836   -4.3284 H   0  0  0  0  0  0  0  0  0  0  0  0
   -0.6186   -9.9794   -3.0862 H   0  0  0  0  0  0  0  0  0  0  0  0
   -0.2354   -8.6542   -1.9917 H   0  0  0  0  0  0  0  0  0  0  0  0
   -0.4260  -11.3386   -1.0382 H   0  0  0  0  0  0  0  0  0  0  0  0
    0.2253   -9.9948   -0.0798 H   0  0  0  0  0  0  0  0  0  0  0  0
    1.1453  -11.5021   -0.2561 H   0  0  0  0  0  0  0  0  0  0  0  0
    3.1171  -10.3967   -1.2876 H   0  0  0  0  0  0  0  0  0  0  0  0
    2.2594   -8.9858   -0.7289 H   0  0  0  0  0  0  0  0  0  0  0  0
    3.4126   -9.5336   -3.5117 H   0  0  0  0  0  0  0  0  0  0  0  0
    3.9458   -8.3085   -2.3682 H   0  0  0  0  0  0  0  0  0  0  0  0
    3.8542   -6.3842    0.5857 H   0  0  0  0  0  0  0  0  0  0  0  0
    4.5958   -6.1735    2.9373 H   0  0  0  0  0  0  0  0  0  0  0  0
    0.7242   -4.7091    4.0393 H   0  0  0  0  0  0  0  0  0  0  0  0
   -0.0708   -4.9587    1.7015 H   0  0  0  0  0  0  0  0  0  0  0  0
    1.3200   -2.8011    0.6284 H   0  0  0  0  0  0  0  0  0  0  0  0
    0.0170   -0.7362    0.9563 H   0  0  0  0  0  0  0  0  0  0  0  0
   -6.0951    0.0662   -1.0408 H   0  0  0  0  0  0  0  0  0  0  0  0
   -8.1209    0.4802   -2.3906 H   0  0  0  0  0  0  0  0  0  0  0  0
   -8.1727   -0.1994   -4.7779 H   0  0  0  0  0  0  0  0  0  0  0  0
   -6.3773   -1.6486   -5.6992 H   0  0  0  0  0  0  0  0  0  0  0  0
   -4.3900   -2.1324   -4.3478 H   0  0  0  0  0  0  0  0  0  0  0  0
  1 35  1  0  0  0  0
  1 36  1  0  0  0  0
  1 37  1  0  0  0  0
  2 29  1  0  0  0  0
  2  3  1  0  0  0  0
  2  1  1  0  0  0  0
  2 38  1  1  0  0  0
  3  4  1  0  0  0  0
  3 39  1  0  0  0  0
  4  5  1  0  0  0  0
  4 28  2  0  0  0  0
  5  6  2  0  0  0  0
  5 40  1  0  0  0  0
  6  7  1  0  0  0  0
  6 26  1  0  0  0  0
  7  8  1  0  0  0  0
  7 18  2  0  0  0  0
  8  9  1  0  0  0  0
  9 10  1  0  0  0  0
  9 17  2  0  0  0  0
 10 11  1  0  0  0  0
 10 16  1  0  0  0  0
 10 41  1  0  0  0  0
 11 12  1  0  0  0  0
 11 42  1  0  0  0  0
 11 43  1  0  0  0  0
 12 13  1  0  0  0  0
 12 44  1  0  0  0  0
 12 45  1  0  0  0  0
 13 14  1  0  0  0  0
 13 15  1  0  0  0  0
 14 46  1  0  0  0  0
 14 47  1  0  0  0  0
 14 48  1  0  0  0  0
 15 16  1  0  0  0  0
 15 49  1  0  0  0  0
 15 50  1  0  0  0  0
 16 51  1  0  0  0  0
 16 52  1  0  0  0  0
 17 18  1  0  0  0  0
 18 19  1  0  0  0  0
 19 20  1  0  0  0  0
 19 25  2  0  0  0  0
 20 21  2  0  0  0  0
 20 53  1  0  0  0  0
 21 22  1  0  0  0  0
 21 54  1  0  0  0  0
 22 23  1  0  0  0  0
 22 24  2  0  0  0  0
 24 25  1  0  0  0  0
 24 55  1  0  0  0  0
 25 56  1  0  0  0  0
 26 27  2  0  0  0  0
 26 57  1  0  0  0  0
 27 28  1  0  0  0  0
 27 58  1  0  0  0  0
 29 30  1  0  0  0  0
 29 34  2  0  0  0  0
 30 31  2  0  0  0  0
 30 59  1  0  0  0  0
 31 32  1  0  0  0  0
 31 60  1  0  0  0  0
 32 33  2  0  0  0  0
 32 61  1  0  0  0  0
 33 34  1  0  0  0  0
 33 62  1  0  0  0  0
 34 63  1  0  0  0  0
M  END
$$$$
