CHEMBL4278759
 OpenBabel04072215383D

 50 53  0  0  0  0  0  0  0  0999 V2000
    2.2888   -2.0934   -0.0597 C   0  0  0  0  0  0  0  0  0  0  0  0
    2.3557   -0.5811   -0.2210 C   0  0  0  0  0  0  0  0  0  0  0  0
    2.9155   -0.1473   -1.4967 N   0  0  0  0  0  0  0  0  0  0  0  0
    2.1828   -0.2533   -2.7627 C   0  0  0  0  0  0  0  0  0  0  0  0
    0.6716   -0.3627   -2.6343 C   0  0  0  0  0  0  0  0  0  0  0  0
    4.2949   -0.2726   -1.6565 C   0  0  0  0  0  0  0  0  0  0  0  0
    5.0253   -0.8394   -0.6871 N   0  0  0  0  0  0  0  0  0  0  0  0
    6.3332   -1.0514   -0.9312 C   0  0  0  0  0  0  0  0  0  0  0  0
    6.9741   -0.6671   -2.0875 C   0  0  0  0  0  0  0  0  0  0  0  0
    6.1564   -0.0857   -3.0333 C   0  0  0  0  0  0  0  0  0  0  0  0
    4.8426    0.1324   -2.8131 N   0  0  0  0  0  0  0  0  0  0  0  0
    6.5927    0.2421   -4.3235 N   0  0  0  0  0  0  0  0  0  0  0  0
    7.3234   -0.6361   -5.0389 C   0  0  0  0  0  0  0  0  0  0  0  0
    7.0705   -0.9547   -6.3108 N   0  0  0  0  0  0  0  0  0  0  0  0
    7.9531   -1.9343   -6.5750 N   0  0  0  0  0  0  0  0  0  0  0  0
    8.7686   -2.2527   -5.5236 C   0  0  0  0  0  0  0  0  0  0  0  0
    9.8049   -3.3020   -5.6012 C   0  0  0  0  0  0  0  0  0  0  0  0
    8.3936   -1.3992   -4.5184 C   0  0  0  0  0  0  0  0  0  0  0  0
    9.0741   -1.2684   -3.3086 N   0  0  0  0  0  0  0  0  0  0  0  0
    8.4421   -0.8694   -2.2423 C   0  0  0  0  0  0  0  0  0  0  0  0
    9.3186   -0.5731   -1.0471 C   0  0  0  0  0  0  0  0  0  0  0  0
    8.9805    0.4205   -0.1177 C   0  0  0  0  0  0  0  0  0  0  0  0
    9.8460    0.7279    0.9358 C   0  0  0  0  0  0  0  0  0  0  0  0
   11.0742    0.0715    1.0592 C   0  0  0  0  0  0  0  0  0  0  0  0
   12.0342    0.4358    2.1525 C   0  0  0  0  0  0  0  0  0  0  0  0
   11.4120   -0.9216    0.1331 C   0  0  0  0  0  0  0  0  0  0  0  0
   10.5425   -1.2400   -0.9142 C   0  0  0  0  0  0  0  0  0  0  0  0
    1.7197   -2.3430    0.8416 H   0  0  0  0  0  0  0  0  0  0  0  0
    3.2827   -2.5357    0.0533 H   0  0  0  0  0  0  0  0  0  0  0  0
    1.8077   -2.5769   -0.9135 H   0  0  0  0  0  0  0  0  0  0  0  0
    2.9252   -0.1476    0.6124 H   0  0  0  0  0  0  0  0  0  0  0  0
    1.3487   -0.1654   -0.1044 H   0  0  0  0  0  0  0  0  0  0  0  0
    2.5313   -1.1265   -3.3311 H   0  0  0  0  0  0  0  0  0  0  0  0
    2.3916    0.6381   -3.3692 H   0  0  0  0  0  0  0  0  0  0  0  0
    0.3766   -1.3183   -2.1910 H   0  0  0  0  0  0  0  0  0  0  0  0
    0.2132   -0.3144   -3.6282 H   0  0  0  0  0  0  0  0  0  0  0  0
    0.2525    0.4468   -2.0305 H   0  0  0  0  0  0  0  0  0  0  0  0
    6.8544   -1.5663   -0.1288 H   0  0  0  0  0  0  0  0  0  0  0  0
    5.7957    0.6191   -4.8257 H   0  0  0  0  0  0  0  0  0  0  0  0
    7.9446   -2.3441   -7.5026 H   0  0  0  0  0  0  0  0  0  0  0  0
    9.7549   -3.8461   -6.5501 H   0  0  0  0  0  0  0  0  0  0  0  0
    9.6714   -4.0288   -4.7930 H   0  0  0  0  0  0  0  0  0  0  0  0
   10.8035   -2.8646   -5.5110 H   0  0  0  0  0  0  0  0  0  0  0  0
    8.0625    0.9958   -0.2068 H   0  0  0  0  0  0  0  0  0  0  0  0
    9.5628    1.5048    1.6430 H   0  0  0  0  0  0  0  0  0  0  0  0
   11.6680    1.2837    2.7402 H   0  0  0  0  0  0  0  0  0  0  0  0
   12.9996    0.7239    1.7235 H   0  0  0  0  0  0  0  0  0  0  0  0
   12.1766   -0.4117    2.8292 H   0  0  0  0  0  0  0  0  0  0  0  0
   12.3666   -1.4386    0.2056 H   0  0  0  0  0  0  0  0  0  0  0  0
   10.8370   -1.9977   -1.6371 H   0  0  0  0  0  0  0  0  0  0  0  0
  1  2  1  0  0  0  0
  1 28  1  0  0  0  0
  1 29  1  0  0  0  0
  1 30  1  0  0  0  0
  2  3  1  0  0  0  0
  2 31  1  0  0  0  0
  2 32  1  0  0  0  0
  3  4  1  0  0  0  0
  3  6  1  0  0  0  0
  4  5  1  0  0  0  0
  4 33  1  0  0  0  0
  4 34  1  0  0  0  0
  5 35  1  0  0  0  0
  5 36  1  0  0  0  0
  5 37  1  0  0  0  0
  6  7  1  0  0  0  0
  6 11  2  0  0  0  0
  7  8  2  0  0  0  0
  8  9  1  0  0  0  0
  8 38  1  0  0  0  0
  9 10  2  0  0  0  0
  9 20  1  0  0  0  0
 10 11  1  0  0  0  0
 10 12  1  0  0  0  0
 12 13  1  0  0  0  0
 12 39  1  0  0  0  0
 13 14  2  0  0  0  0
 13 18  1  0  0  0  0
 14 15  1  0  0  0  0
 15 16  1  0  0  0  0
 15 40  1  0  0  0  0
 16 17  1  0  0  0  0
 16 18  2  0  0  0  0
 17 41  1  0  0  0  0
 17 42  1  0  0  0  0
 17 43  1  0  0  0  0
 18 19  1  0  0  0  0
 19 20  2  0  0  0  0
 20 21  1  0  0  0  0
 21 22  1  0  0  0  0
 21 27  2  0  0  0  0
 22 23  2  0  0  0  0
 22 44  1  0  0  0  0
 23 24  1  0  0  0  0
 23 45  1  0  0  0  0
 24 25  1  0  0  0  0
 24 26  2  0  0  0  0
 25 46  1  0  0  0  0
 25 47  1  0  0  0  0
 25 48  1  0  0  0  0
 26 27  1  0  0  0  0
 26 49  1  0  0  0  0
 27 50  1  0  0  0  0
M  END
$$$$
