CHEMBL2023117
 OpenBabel04072215363D

 60 63  0  0  0  0  0  0  0  0999 V2000
   -0.1557    7.3449    7.3487 C   0  0  0  0  0  0  0  0  0  0  0  0
   -1.2704    7.2768    6.3208 C   0  0  0  0  0  0  0  0  0  0  0  0
   -0.8969    7.8942    5.0638 N   0  0  0  0  0  0  0  0  0  0  0  0
   -0.2160    7.2770    4.0596 C   0  0  0  0  0  0  0  0  0  0  0  0
   -0.1143    8.1785    3.0323 C   0  0  0  0  0  0  0  0  0  0  0  0
    0.4861    7.9704    1.8020 N   0  0  0  0  0  0  0  0  0  0  0  0
    1.3001    6.8849    1.5345 C   0  0  0  0  0  0  0  0  0  0  0  0
    1.6978    6.0741    2.3779 O   0  0  0  0  0  0  0  0  0  0  0  0
    1.8050    6.7322    0.1117 C   0  0  0  0  0  0  0  0  0  0  0  0
    0.8878    7.1962   -0.9954 C   0  0  0  0  0  0  0  0  0  0  0  0
    0.0227    6.2206   -1.5393 C   0  0  0  0  0  0  0  0  0  0  0  0
   -0.9009    6.5095   -2.5453 C   0  0  0  0  0  0  0  0  0  0  0  0
   -1.0362    7.8150   -2.9998 C   0  0  0  0  0  0  0  0  0  0  0  0
   -1.8792    8.2105   -4.0333 O   0  0  0  0  0  0  0  0  0  0  0  0
   -3.1619    7.6987   -4.1985 C   0  0  0  0  0  0  0  0  0  0  0  0
   -3.9131    7.1623   -3.1551 C   0  0  0  0  0  0  0  0  0  0  0  0
   -5.1958    6.7381   -3.4270 C   0  0  0  0  0  0  0  0  0  0  0  0
   -5.7770    6.8167   -4.6359 N   0  0  0  0  0  0  0  0  0  0  0  0
   -5.0764    7.3736   -5.6182 C   0  0  0  0  0  0  0  0  0  0  0  0
   -5.7508    7.4827   -6.8252 C   0  0  0  0  0  0  0  0  0  0  0  0
   -5.1921    8.0951   -7.9482 C   0  0  0  0  0  0  0  0  0  0  0  0
   -5.9062    8.2416   -9.1086 O   0  0  0  0  0  0  0  0  0  0  0  0
   -7.3268    8.3263   -8.9737 C   0  0  0  0  0  0  0  0  0  0  0  0
   -3.8725    8.5502   -7.8631 C   0  0  0  0  0  0  0  0  0  0  0  0
   -3.1545    9.1775   -8.8584 O   0  0  0  0  0  0  0  0  0  0  0  0
   -3.4735    8.8269  -10.2017 C   0  0  0  0  0  0  0  0  0  0  0  0
   -3.1726    8.4375   -6.6392 C   0  0  0  0  0  0  0  0  0  0  0  0
   -3.7576    7.8463   -5.4911 C   0  0  0  0  0  0  0  0  0  0  0  0
   -0.1771    8.7937   -2.4779 C   0  0  0  0  0  0  0  0  0  0  0  0
    0.7887    8.5099   -1.4831 C   0  0  0  0  0  0  0  0  0  0  0  0
    1.4393    9.6277   -1.0300 O   0  0  0  0  0  0  0  0  0  0  0  0
    2.7946    9.5463   -0.5903 C   0  0  0  0  0  0  0  0  0  0  0  0
   -0.7831    9.3252    3.5212 C   0  0  0  0  0  0  0  0  0  0  0  0
   -1.2567    9.1577    4.7642 N   0  0  0  0  0  0  0  0  0  0  0  0
   -0.4507    6.8203    8.2624 H   0  0  0  0  0  0  0  0  0  0  0  0
    0.0789    8.3829    7.6064 H   0  0  0  0  0  0  0  0  0  0  0  0
    0.7613    6.8790    6.9720 H   0  0  0  0  0  0  0  0  0  0  0  0
   -2.1797    7.7650    6.6866 H   0  0  0  0  0  0  0  0  0  0  0  0
   -1.5161    6.2309    6.1035 H   0  0  0  0  0  0  0  0  0  0  0  0
    0.1188    6.2529    4.1633 H   0  0  0  0  0  0  0  0  0  0  0  0
    0.3482    8.6824    1.0942 H   0  0  0  0  0  0  0  0  0  0  0  0
    1.9754    5.6548   -0.0278 H   0  0  0  0  0  0  0  0  0  0  0  0
    2.8082    7.1498    0.0332 H   0  0  0  0  0  0  0  0  0  0  0  0
    0.0708    5.1919   -1.1694 H   0  0  0  0  0  0  0  0  0  0  0  0
   -1.5021    5.7071   -2.9657 H   0  0  0  0  0  0  0  0  0  0  0  0
   -3.5442    7.0846   -2.1420 H   0  0  0  0  0  0  0  0  0  0  0  0
   -5.8417    6.3147   -2.6486 H   0  0  0  0  0  0  0  0  0  0  0  0
   -6.7532    7.0772   -6.8481 H   0  0  0  0  0  0  0  0  0  0  0  0
   -7.7526    8.5252   -9.9602 H   0  0  0  0  0  0  0  0  0  0  0  0
   -7.6078    9.1512   -8.3086 H   0  0  0  0  0  0  0  0  0  0  0  0
   -7.7605    7.3809   -8.6302 H   0  0  0  0  0  0  0  0  0  0  0  0
   -2.6937    9.2394  -10.8498 H   0  0  0  0  0  0  0  0  0  0  0  0
   -4.4133    9.2824  -10.5280 H   0  0  0  0  0  0  0  0  0  0  0  0
   -3.4808    7.7404  -10.3411 H   0  0  0  0  0  0  0  0  0  0  0  0
   -2.1550    8.8252   -6.5846 H   0  0  0  0  0  0  0  0  0  0  0  0
   -0.2529    9.8126   -2.8554 H   0  0  0  0  0  0  0  0  0  0  0  0
    3.1872   10.5636   -0.5364 H   0  0  0  0  0  0  0  0  0  0  0  0
    3.4251    8.9785   -1.2812 H   0  0  0  0  0  0  0  0  0  0  0  0
    2.8471    9.1561    0.4276 H   0  0  0  0  0  0  0  0  0  0  0  0
   -0.9356   10.2809    3.0368 H   0  0  0  0  0  0  0  0  0  0  0  0
  1  2  1  0  0  0  0
  1 35  1  0  0  0  0
  1 36  1  0  0  0  0
  1 37  1  0  0  0  0
  2  3  1  0  0  0  0
  2 38  1  0  0  0  0
  2 39  1  0  0  0  0
  3  4  1  0  0  0  0
  3 34  1  0  0  0  0
  4  5  2  0  0  0  0
  4 40  1  0  0  0  0
  5  6  1  0  0  0  0
  5 33  1  0  0  0  0
  6  7  1  0  0  0  0
  6 41  1  0  0  0  0
  7  8  2  0  0  0  0
  7  9  1  0  0  0  0
  9 10  1  0  0  0  0
  9 42  1  0  0  0  0
  9 43  1  0  0  0  0
 10 11  1  0  0  0  0
 10 30  2  0  0  0  0
 11 12  2  0  0  0  0
 11 44  1  0  0  0  0
 12 13  1  0  0  0  0
 12 45  1  0  0  0  0
 13 14  1  0  0  0  0
 13 29  2  0  0  0  0
 14 15  1  0  0  0  0
 15 16  1  0  0  0  0
 15 28  2  0  0  0  0
 16 17  2  0  0  0  0
 16 46  1  0  0  0  0
 17 18  1  0  0  0  0
 17 47  1  0  0  0  0
 18 19  2  0  0  0  0
 19 20  1  0  0  0  0
 19 28  1  0  0  0  0
 20 21  2  0  0  0  0
 20 48  1  0  0  0  0
 21 22  1  0  0  0  0
 21 24  1  0  0  0  0
 22 23  1  0  0  0  0
 23 49  1  0  0  0  0
 23 50  1  0  0  0  0
 23 51  1  0  0  0  0
 24 25  1  0  0  0  0
 24 27  2  0  0  0  0
 25 26  1  0  0  0  0
 26 52  1  0  0  0  0
 26 53  1  0  0  0  0
 26 54  1  0  0  0  0
 27 28  1  0  0  0  0
 27 55  1  0  0  0  0
 29 30  1  0  0  0  0
 29 56  1  0  0  0  0
 30 31  1  0  0  0  0
 31 32  1  0  0  0  0
 32 57  1  0  0  0  0
 32 58  1  0  0  0  0
 32 59  1  0  0  0  0
 33 34  2  0  0  0  0
 33 60  1  0  0  0  0
M  END
$$$$
