CHEMBL3656058
 OpenBabel04072215373D

 44 47  0  0  0  0  0  0  0  0999 V2000
    2.3715   -0.5668    0.3353 C   0  0  0  0  0  0  0  0  0  0  0  0
    0.9987   -0.2093   -0.1110 C   0  0  0  0  0  0  0  0  0  0  0  0
    0.5430    1.0702   -0.5285 C   0  0  0  0  0  0  0  0  0  0  0  0
   -0.7817    0.9245   -0.8604 C   0  0  0  0  0  0  0  0  0  0  0  0
   -1.1830   -0.3603   -0.6804 O   0  0  0  0  0  0  0  0  0  0  0  0
   -0.1004   -1.0540   -0.2100 C   0  0  0  0  0  0  0  0  0  0  0  0
   -0.2447   -2.4703    0.0900 C   0  0  0  0  0  0  0  0  0  0  0  0
    0.6705   -3.1185    0.5881 O   0  0  0  0  0  0  0  0  0  0  0  0
   -1.4836   -2.9826   -0.2740 N   0  0  0  0  0  0  0  0  0  0  0  0
   -1.9169   -4.3164   -0.1423 C   0  0  0  0  0  0  0  0  0  0  0  0
   -1.2257   -5.2638    0.6118 C   0  0  0  0  0  0  0  0  0  0  0  0
   -1.6588   -6.5885    0.6653 C   0  0  0  0  0  0  0  0  0  0  0  0
   -2.8386   -6.9718    0.0278 C   0  0  0  0  0  0  0  0  0  0  0  0
   -3.3524   -8.2510    0.0727 O   0  0  0  0  0  0  0  0  0  0  0  0
   -3.1437   -9.0111    1.2052 C   0  0  0  0  0  0  0  0  0  0  0  0
   -3.1671   -8.4861    2.4956 C   0  0  0  0  0  0  0  0  0  0  0  0
   -2.8788   -9.3328    3.5471 C   0  0  0  0  0  0  0  0  0  0  0  0
   -2.6419  -10.6524    3.4021 N   0  0  0  0  0  0  0  0  0  0  0  0
   -2.6995  -11.1566    2.1437 C   0  0  0  0  0  0  0  0  0  0  0  0
   -2.4821  -12.5986    2.0816 C   0  0  0  0  0  0  0  0  0  0  0  0
   -2.4776  -13.5063    1.0359 C   0  0  0  0  0  0  0  0  0  0  0  0
   -2.2281  -14.7954    1.5717 C   0  0  0  0  0  0  0  0  0  0  0  0
   -2.0799  -14.6519    2.9316 C   0  0  0  0  0  0  0  0  0  0  0  0
   -2.2314  -13.3251    3.2273 N   0  0  0  0  0  0  0  0  0  0  0  0
   -2.9399  -10.3764    1.0221 C   0  0  0  0  0  0  0  0  0  0  0  0
   -3.5365   -6.0348   -0.7346 C   0  0  0  0  0  0  0  0  0  0  0  0
   -3.0831   -4.7095   -0.8119 C   0  0  0  0  0  0  0  0  0  0  0  0
    3.0521    0.2837    0.2253 H   0  0  0  0  0  0  0  0  0  0  0  0
    2.7706   -1.3916   -0.2643 H   0  0  0  0  0  0  0  0  0  0  0  0
    2.3712   -0.8663    1.3874 H   0  0  0  0  0  0  0  0  0  0  0  0
    1.1159    1.9858   -0.5819 H   0  0  0  0  0  0  0  0  0  0  0  0
   -1.5379    1.6055   -1.2252 H   0  0  0  0  0  0  0  0  0  0  0  0
   -2.0917   -2.3327   -0.7610 H   0  0  0  0  0  0  0  0  0  0  0  0
   -0.3423   -5.0073    1.1870 H   0  0  0  0  0  0  0  0  0  0  0  0
   -1.0623   -7.2995    1.2298 H   0  0  0  0  0  0  0  0  0  0  0  0
   -3.3672   -7.4380    2.6850 H   0  0  0  0  0  0  0  0  0  0  0  0
   -2.8236   -8.9578    4.5647 H   0  0  0  0  0  0  0  0  0  0  0  0
   -2.6420  -13.2753   -0.0066 H   0  0  0  0  0  0  0  0  0  0  0  0
   -2.1659  -15.7258    1.0237 H   0  0  0  0  0  0  0  0  0  0  0  0
   -1.8820  -15.3757    3.7116 H   0  0  0  0  0  0  0  0  0  0  0  0
   -2.1783  -12.9004    4.1452 H   0  0  0  0  0  0  0  0  0  0  0  0
   -2.9647  -10.8062    0.0272 H   0  0  0  0  0  0  0  0  0  0  0  0
   -4.4327   -6.3335   -1.2732 H   0  0  0  0  0  0  0  0  0  0  0  0
   -3.6425   -4.0026   -1.4196 H   0  0  0  0  0  0  0  0  0  0  0  0
  1  2  1  0  0  0  0
  1 28  1  0  0  0  0
  1 29  1  0  0  0  0
  1 30  1  0  0  0  0
  2  3  1  0  0  0  0
  2  6  2  0  0  0  0
  3  4  2  0  0  0  0
  3 31  1  0  0  0  0
  4  5  1  0  0  0  0
  4 32  1  0  0  0  0
  5  6  1  0  0  0  0
  6  7  1  0  0  0  0
  7  8  2  0  0  0  0
  7  9  1  0  0  0  0
  9 10  1  0  0  0  0
  9 33  1  0  0  0  0
 10 11  1  0  0  0  0
 10 27  2  0  0  0  0
 11 12  2  0  0  0  0
 11 34  1  0  0  0  0
 12 13  1  0  0  0  0
 12 35  1  0  0  0  0
 13 14  1  0  0  0  0
 13 26  2  0  0  0  0
 14 15  1  0  0  0  0
 15 16  1  0  0  0  0
 15 25  2  0  0  0  0
 16 17  2  0  0  0  0
 16 36  1  0  0  0  0
 17 18  1  0  0  0  0
 17 37  1  0  0  0  0
 18 19  2  0  0  0  0
 19 20  1  0  0  0  0
 19 25  1  0  0  0  0
 20 21  2  0  0  0  0
 20 24  1  0  0  0  0
 21 22  1  0  0  0  0
 21 38  1  0  0  0  0
 22 23  2  0  0  0  0
 22 39  1  0  0  0  0
 23 24  1  0  0  0  0
 23 40  1  0  0  0  0
 24 41  1  0  0  0  0
 25 42  1  0  0  0  0
 26 27  1  0  0  0  0
 26 43  1  0  0  0  0
 27 44  1  0  0  0  0
M  END
$$$$
