CHEMBL1964687
 OpenBabel04072215363D

 51 55  0  0  0  0  0  0  0  0999 V2000
   -2.8126    0.4293    2.0490 C   0  0  0  0  0  0  0  0  0  0  0  0
   -1.4379   -0.0721    1.7242 C   0  0  0  0  0  0  0  0  0  0  0  0
   -0.3059    0.7200    1.8540 C   0  0  0  0  0  0  0  0  0  0  0  0
    0.9500    0.2008    1.5182 C   0  0  0  0  0  0  0  0  0  0  0  0
    2.1902    1.0396    1.6465 C   0  0  0  0  0  0  0  0  0  0  0  0
    1.0578   -1.1373    1.0638 C   0  0  0  0  0  0  0  0  0  0  0  0
   -0.0675   -1.9605    0.9288 C   0  0  0  0  0  0  0  0  0  0  0  0
    0.0234   -3.3312    0.4642 N   0  0  0  0  0  0  0  0  0  0  0  0
    1.2192   -4.0638    0.5045 C   0  0  0  0  0  0  0  0  0  0  0  0
    2.2765   -3.6053    0.9323 O   0  0  0  0  0  0  0  0  0  0  0  0
    1.2253   -5.3616    0.0038 N   0  0  0  0  0  0  0  0  0  0  0  0
    2.4513   -6.1286   -0.0046 C   0  0  0  0  0  0  0  0  0  0  0  0
    3.5268   -5.7883    0.8312 C   0  0  0  0  0  0  0  0  0  0  0  0
    4.7543   -6.4941    0.8425 C   0  0  0  0  0  0  0  0  0  0  0  0
    4.9694   -7.5678    0.0066 C   0  0  0  0  0  0  0  0  0  0  0  0
    3.8674   -7.9330   -0.8553 C   0  0  0  0  0  0  0  0  0  0  0  0
    2.6247   -7.2350   -0.8326 C   0  0  0  0  0  0  0  0  0  0  0  0
    3.9749   -9.1254   -1.7914 C   0  0  0  0  0  0  0  0  0  0  0  0
    5.3497   -9.2440   -2.3481 C   0  0  0  0  0  0  0  0  0  0  0  0
    6.2831   -9.0732   -1.2543 C   0  0  0  0  0  0  0  0  0  0  0  0
    7.5636  -10.0649   -1.5384 S   0  0  0  0  0  0  0  0  0  0  0  0
    8.0503   -9.4152   -0.1745 C   0  0  0  0  0  0  0  0  0  0  0  0
    9.1691   -9.8684    0.0832 N   0  0  0  0  0  0  0  0  0  0  0  0
   10.2363  -10.3259    0.2968 C   0  0  0  0  0  0  0  0  0  0  0  0
   10.0016   -9.5336    1.3083 N   0  0  0  0  0  0  0  0  0  0  0  0
    8.6459   -8.5517    1.6426 C   0  0  0  0  0  0  0  0  0  0  0  0
    8.7370   -7.8672    2.7862 N   0  0  0  0  0  0  0  0  0  0  0  0
    7.5469   -8.5438    0.6737 C   0  0  0  0  0  0  0  0  0  0  0  0
    6.2669   -8.3009   -0.0621 C   0  0  0  0  0  0  0  0  0  0  0  0
   -1.2935   -1.3824    1.2646 C   0  0  0  0  0  0  0  0  0  0  0  0
   -2.7692    1.4620    2.4008 H   0  0  0  0  0  0  0  0  0  0  0  0
   -3.2741   -0.1816    2.8332 H   0  0  0  0  0  0  0  0  0  0  0  0
   -3.4505    0.3965    1.1585 H   0  0  0  0  0  0  0  0  0  0  0  0
   -0.4170    1.7372    2.2190 H   0  0  0  0  0  0  0  0  0  0  0  0
    1.9634    2.0532    1.9948 H   0  0  0  0  0  0  0  0  0  0  0  0
    2.6948    1.1194    0.6778 H   0  0  0  0  0  0  0  0  0  0  0  0
    2.8765    0.5787    2.3637 H   0  0  0  0  0  0  0  0  0  0  0  0
    2.0500   -1.5026    0.8271 H   0  0  0  0  0  0  0  0  0  0  0  0
   -0.8354   -3.7293    0.1067 H   0  0  0  0  0  0  0  0  0  0  0  0
    0.4267   -5.7685   -0.4553 H   0  0  0  0  0  0  0  0  0  0  0  0
    3.4167   -4.9520    1.5183 H   0  0  0  0  0  0  0  0  0  0  0  0
    5.5397   -6.1713    1.5095 H   0  0  0  0  0  0  0  0  0  0  0  0
    1.8426   -7.5326   -1.5267 H   0  0  0  0  0  0  0  0  0  0  0  0
    3.3094   -9.0448   -2.6511 H   0  0  0  0  0  0  0  0  0  0  0  0
    3.7382  -10.0333   -1.2215 H   0  0  0  0  0  0  0  0  0  0  0  0
    5.6132   -8.4891   -3.0889 H   0  0  0  0  0  0  0  0  0  0  0  0
    5.4941  -10.2423   -2.8088 H   0  0  0  0  0  0  0  0  0  0  0  0
   10.0764  -10.8994   -0.6781 H   0  0  0  0  0  0  0  0  0  0  0  0
    8.9459   -7.4338    3.6476 H   0  0  0  0  0  0  0  0  0  0  0  0
    9.6579   -8.3427    2.8320 H   0  0  0  0  0  0  0  0  0  0  0  0
   -2.2134   -1.9340    1.1830 H   0  0  0  0  0  0  0  0  0  0  0  0
  1  2  1  0  0  0  0
  1 31  1  0  0  0  0
  1 32  1  0  0  0  0
  1 33  1  0  0  0  0
  2  3  1  0  0  0  0
  2 30  2  0  0  0  0
  3  4  2  0  0  0  0
  3 34  1  0  0  0  0
  4  5  1  0  0  0  0
  4  6  1  0  0  0  0
  5 35  1  0  0  0  0
  5 36  1  0  0  0  0
  5 37  1  0  0  0  0
  6  7  2  0  0  0  0
  6 38  1  0  0  0  0
  7  8  1  0  0  0  0
  7 30  1  0  0  0  0
  8  9  1  0  0  0  0
  8 39  1  0  0  0  0
  9 10  2  0  0  0  0
  9 11  1  0  0  0  0
 11 12  1  0  0  0  0
 11 40  1  0  0  0  0
 12 13  1  0  0  0  0
 12 17  2  0  0  0  0
 13 14  2  0  0  0  0
 13 41  1  0  0  0  0
 14 15  1  0  0  0  0
 14 42  1  0  0  0  0
 15 16  2  0  0  0  0
 15 29  1  0  0  0  0
 16 17  1  0  0  0  0
 16 18  1  0  0  0  0
 17 43  1  0  0  0  0
 18 19  1  0  0  0  0
 18 44  1  0  0  0  0
 18 45  1  0  0  0  0
 19 20  1  0  0  0  0
 19 46  1  0  0  0  0
 19 47  1  0  0  0  0
 20 21  1  0  0  0  0
 20 29  2  0  0  0  0
 21 22  1  0  0  0  0
 22 23  1  0  0  0  0
 22 28  2  0  0  0  0
 23 24  2  0  0  0  0
 24 25  1  0  0  0  0
 24 48  1  0  0  0  0
 25 26  2  0  0  0  0
 26 27  1  0  0  0  0
 26 28  1  0  0  0  0
 27 49  1  0  0  0  0
 27 50  1  0  0  0  0
 28 29  1  0  0  0  0
 30 51  1  0  0  0  0
M  END
$$$$
