CHEMBL1989029
 OpenBabel04072215363D

 35 37  0  0  0  0  0  0  0  0999 V2000
    0.9179    0.6035   -0.1090 C   0  0  0  0  0  0  0  0  0  0  0  0
    2.3528    0.8825   -0.5624 C   0  0  0  0  0  0  0  0  0  0  0  0
    2.3131    2.0559   -1.5506 C   0  0  0  0  0  0  0  0  0  0  0  0
    3.1195    1.1516    0.6381 O   0  0  0  0  0  0  0  0  0  0  0  0
    4.4456    1.3582    0.5484 C   0  0  0  0  0  0  0  0  0  0  0  0
    5.2508    0.9884   -0.3988 N   0  0  0  0  0  0  0  0  0  0  0  0
    6.4739    1.5569   -0.0698 N   0  0  0  0  0  0  0  0  0  0  0  0
    6.4757    2.3358    1.0806 C   0  0  0  0  0  0  0  0  0  0  0  0
    7.3954    2.9902    1.5295 O   0  0  0  0  0  0  0  0  0  0  0  0
    5.0952    2.1603    1.5985 C   0  0  0  0  0  0  0  0  0  0  0  0
    4.5940    2.5509    2.7623 C   0  0  0  0  0  0  0  0  0  0  0  0
    5.3189    3.2606    3.7701 C   0  0  0  0  0  0  0  0  0  0  0  0
    5.3869    4.6316    3.8607 C   0  0  0  0  0  0  0  0  0  0  0  0
    6.0865    4.9338    5.0007 N   0  0  0  0  0  0  0  0  0  0  0  0
    6.4920    3.7818    5.6359 C   0  0  0  0  0  0  0  0  0  0  0  0
    7.1931    3.6089    6.8358 C   0  0  0  0  0  0  0  0  0  0  0  0
    7.4643    2.2991    7.2444 C   0  0  0  0  0  0  0  0  0  0  0  0
    7.0506    1.2082    6.4837 C   0  0  0  0  0  0  0  0  0  0  0  0
    6.3387    1.3984    5.2942 C   0  0  0  0  0  0  0  0  0  0  0  0
    6.0453    2.7082    4.8615 C   0  0  0  0  0  0  0  0  0  0  0  0
    0.2908    0.3042   -0.9555 H   0  0  0  0  0  0  0  0  0  0  0  0
    0.4691    1.4928    0.3498 H   0  0  0  0  0  0  0  0  0  0  0  0
    0.8942   -0.1901    0.6448 H   0  0  0  0  0  0  0  0  0  0  0  0
    2.7469   -0.0088   -1.0641 H   0  0  0  0  0  0  0  0  0  0  0  0
    1.9771    2.9837   -1.0714 H   0  0  0  0  0  0  0  0  0  0  0  0
    1.6287    1.8326   -2.3783 H   0  0  0  0  0  0  0  0  0  0  0  0
    3.2936    2.2554   -1.9981 H   0  0  0  0  0  0  0  0  0  0  0  0
    7.2870    1.4445   -0.6592 H   0  0  0  0  0  0  0  0  0  0  0  0
    3.5760    2.2663    3.0300 H   0  0  0  0  0  0  0  0  0  0  0  0
    4.9823    5.4170    3.2384 H   0  0  0  0  0  0  0  0  0  0  0  0
    6.2503    5.8679    5.3519 H   0  0  0  0  0  0  0  0  0  0  0  0
    7.5057    4.4551    7.4393 H   0  0  0  0  0  0  0  0  0  0  0  0
    8.0009    2.1299    8.1750 H   0  0  0  0  0  0  0  0  0  0  0  0
    7.2676    0.1980    6.8216 H   0  0  0  0  0  0  0  0  0  0  0  0
    6.0031    0.5419    4.7179 H   0  0  0  0  0  0  0  0  0  0  0  0
  1  2  1  0  0  0  0
  1 21  1  0  0  0  0
  1 22  1  0  0  0  0
  1 23  1  0  0  0  0
  2  3  1  0  0  0  0
  2  4  1  0  0  0  0
  2 24  1  0  0  0  0
  3 25  1  0  0  0  0
  3 26  1  0  0  0  0
  3 27  1  0  0  0  0
  4  5  1  0  0  0  0
  5  6  2  0  0  0  0
  5 10  1  0  0  0  0
  6  7  1  0  0  0  0
  7  8  1  0  0  0  0
  7 28  1  0  0  0  0
  8  9  2  0  0  0  0
  8 10  1  0  0  0  0
 10 11  2  3  0  0  0
 11 12  1  0  0  0  0
 11 29  1  0  0  0  0
 12 13  2  0  0  0  0
 12 20  1  0  0  0  0
 13 14  1  0  0  0  0
 13 30  1  0  0  0  0
 14 15  1  0  0  0  0
 14 31  1  0  0  0  0
 15 16  1  0  0  0  0
 15 20  2  0  0  0  0
 16 17  2  0  0  0  0
 16 32  1  0  0  0  0
 17 18  1  0  0  0  0
 17 33  1  0  0  0  0
 18 19  2  0  0  0  0
 18 34  1  0  0  0  0
 19 20  1  0  0  0  0
 19 35  1  0  0  0  0
M  END
$$$$
