CHEMBL1241439
 OpenBabel04072215363D

 33 35  0  0  0  0  0  0  0  0999 V2000
    3.6877    0.4136    0.7354 C   0  0  0  0  0  0  0  0  0  0  0  0
    2.5613   -0.1642   -0.1216 C   0  0  0  0  0  0  0  0  0  0  0  0
    1.3721    0.7947   -0.1883 C   0  0  0  0  0  0  0  0  0  0  0  0
    3.0284   -0.5251   -1.4568 N   0  0  0  0  0  0  0  0  0  0  0  0
    3.5160    0.4260   -2.2909 N   0  0  0  0  0  0  0  0  0  0  0  0
    3.7853   -0.2527   -3.4190 C   0  0  0  0  0  0  0  0  0  0  0  0
    4.3044    0.4313   -4.6436 C   0  0  0  0  0  0  0  0  0  0  0  0
    4.6650    1.7617   -4.7526 C   0  0  0  0  0  0  0  0  0  0  0  0
    5.1170    1.9624   -6.0864 C   0  0  0  0  0  0  0  0  0  0  0  0
    5.6295    3.1599   -6.7093 C   0  0  0  0  0  0  0  0  0  0  0  0
    5.9976    3.2120   -7.8780 O   0  0  0  0  0  0  0  0  0  0  0  0
    4.9754    0.7455   -6.7138 C   0  0  0  0  0  0  0  0  0  0  0  0
    4.4883   -0.1795   -5.8544 O   0  0  0  0  0  0  0  0  0  0  0  0
    3.5070   -1.6381   -3.2983 C   0  0  0  0  0  0  0  0  0  0  0  0
    3.6020   -2.8045   -4.0683 C   0  0  0  0  0  0  0  0  0  0  0  0
    4.1133   -2.8663   -5.3508 N   0  0  0  0  0  0  0  0  0  0  0  0
    3.1782   -3.9684   -3.5299 N   0  0  0  0  0  0  0  0  0  0  0  0
    2.7089   -3.9627   -2.2708 C   0  0  0  0  0  0  0  0  0  0  0  0
    2.5855   -2.9165   -1.4360 N   0  0  0  0  0  0  0  0  0  0  0  0
    3.0070   -1.7774   -2.0141 C   0  0  0  0  0  0  0  0  0  0  0  0
    3.3266    0.6500    1.7423 H   0  0  0  0  0  0  0  0  0  0  0  0
    4.0966    1.3328    0.3016 H   0  0  0  0  0  0  0  0  0  0  0  0
    4.5102   -0.3033    0.8324 H   0  0  0  0  0  0  0  0  0  0  0  0
    2.2177   -1.0893    0.3571 H   0  0  0  0  0  0  0  0  0  0  0  0
    1.6565    1.7615   -0.6178 H   0  0  0  0  0  0  0  0  0  0  0  0
    0.9670    0.9785    0.8128 H   0  0  0  0  0  0  0  0  0  0  0  0
    0.5682    0.3792   -0.8057 H   0  0  0  0  0  0  0  0  0  0  0  0
    4.6203    2.4875   -3.9511 H   0  0  0  0  0  0  0  0  0  0  0  0
    5.6767    4.0493   -6.0598 H   0  0  0  0  0  0  0  0  0  0  0  0
    5.1761    0.3970   -7.7184 H   0  0  0  0  0  0  0  0  0  0  0  0
    4.1314   -1.9976   -5.8740 H   0  0  0  0  0  0  0  0  0  0  0  0
    3.8498   -3.7066   -5.8464 H   0  0  0  0  0  0  0  0  0  0  0  0
    2.3934   -4.9265   -1.8821 H   0  0  0  0  0  0  0  0  0  0  0  0
  1  2  1  0  0  0  0
  1 21  1  0  0  0  0
  1 22  1  0  0  0  0
  1 23  1  0  0  0  0
  2  3  1  0  0  0  0
  2  4  1  0  0  0  0
  2 24  1  0  0  0  0
  3 25  1  0  0  0  0
  3 26  1  0  0  0  0
  3 27  1  0  0  0  0
  4  5  1  0  0  0  0
  4 20  1  0  0  0  0
  5  6  2  0  0  0  0
  6  7  1  0  0  0  0
  6 14  1  0  0  0  0
  7  8  2  0  0  0  0
  7 13  1  0  0  0  0
  8  9  1  0  0  0  0
  8 28  1  0  0  0  0
  9 10  1  0  0  0  0
  9 12  2  0  0  0  0
 10 11  2  0  0  0  0
 10 29  1  0  0  0  0
 12 13  1  0  0  0  0
 12 30  1  0  0  0  0
 14 15  1  0  0  0  0
 14 20  2  0  0  0  0
 15 16  1  0  0  0  0
 15 17  2  0  0  0  0
 16 31  1  0  0  0  0
 16 32  1  0  0  0  0
 17 18  1  0  0  0  0
 18 19  2  0  0  0  0
 18 33  1  0  0  0  0
 19 20  1  0  0  0  0
M  END
$$$$
