CHEMBL204726
 OpenBabel04072215363D

 36 39  0  0  0  0  0  0  0  0999 V2000
    1.2151   -0.2276   -0.9522 C   0  0  0  0  0  0  0  0  0  0  0  0
    2.5500   -0.0671   -0.4226 N   0  0  0  0  0  0  0  0  0  0  0  0
    3.3296    1.0401   -0.6209 C   0  0  0  0  0  0  0  0  0  0  0  0
    4.4880    0.8842    0.1010 C   0  0  0  0  0  0  0  0  0  0  0  0
    5.5613    1.8203    0.2009 C   0  0  0  0  0  0  0  0  0  0  0  0
    5.5507    3.1620    0.1547 C   0  0  0  0  0  0  0  0  0  0  0  0
    4.4302    4.1130   -0.0513 C   0  0  0  0  0  0  0  0  0  0  0  0
    3.2300    3.9318   -0.0421 O   0  0  0  0  0  0  0  0  0  0  0  0
    5.0804    5.3234   -0.2455 N   0  0  0  0  0  0  0  0  0  0  0  0
    6.4419    5.3010   -0.0555 N   0  0  0  0  0  0  0  0  0  0  0  0
    6.7440    4.0542    0.2227 C   0  0  0  0  0  0  0  0  0  0  0  0
    8.0916    3.6116    0.5970 C   0  0  0  0  0  0  0  0  0  0  0  0
    9.2065    4.3213    0.1765 C   0  0  0  0  0  0  0  0  0  0  0  0
   10.4688    3.9559    0.5191 N   0  0  0  0  0  0  0  0  0  0  0  0
   10.5621    2.8699    1.3209 C   0  0  0  0  0  0  0  0  0  0  0  0
    9.4493    2.1776    1.7641 C   0  0  0  0  0  0  0  0  0  0  0  0
    8.1931    2.5297    1.4122 N   0  0  0  0  0  0  0  0  0  0  0  0
    4.4554   -0.4274    0.6779 C   0  0  0  0  0  0  0  0  0  0  0  0
    5.3551   -1.1856    1.4614 C   0  0  0  0  0  0  0  0  0  0  0  0
    4.9844   -2.4654    1.8859 C   0  0  0  0  0  0  0  0  0  0  0  0
    6.0846   -3.3944    2.8332 Cl  0  0  0  0  0  0  0  0  0  0  0  0
    3.7435   -3.0011    1.5585 C   0  0  0  0  0  0  0  0  0  0  0  0
    2.8368   -2.2734    0.7830 C   0  0  0  0  0  0  0  0  0  0  0  0
    3.2185   -0.9937    0.3483 C   0  0  0  0  0  0  0  0  0  0  0  0
    0.9363    0.6639   -1.5202 H   0  0  0  0  0  0  0  0  0  0  0  0
    0.5273   -0.3598   -0.1136 H   0  0  0  0  0  0  0  0  0  0  0  0
    1.2052   -1.1024   -1.6066 H   0  0  0  0  0  0  0  0  0  0  0  0
    2.9760    1.8533   -1.2414 H   0  0  0  0  0  0  0  0  0  0  0  0
    6.5224    1.3322    0.3314 H   0  0  0  0  0  0  0  0  0  0  0  0
    4.5887    6.1990   -0.3797 H   0  0  0  0  0  0  0  0  0  0  0  0
    9.1255    5.2008   -0.4540 H   0  0  0  0  0  0  0  0  0  0  0  0
   11.5650    2.5674    1.6032 H   0  0  0  0  0  0  0  0  0  0  0  0
    9.5355    1.3158    2.4168 H   0  0  0  0  0  0  0  0  0  0  0  0
    6.3246   -0.7789    1.7315 H   0  0  0  0  0  0  0  0  0  0  0  0
    3.4678   -3.9941    1.9051 H   0  0  0  0  0  0  0  0  0  0  0  0
    1.8689   -2.6933    0.5282 H   0  0  0  0  0  0  0  0  0  0  0  0
  1  2  1  0  0  0  0
  1 25  1  0  0  0  0
  1 26  1  0  0  0  0
  1 27  1  0  0  0  0
  2  3  1  0  0  0  0
  2 24  1  0  0  0  0
  3  4  2  0  0  0  0
  3 28  1  0  0  0  0
  4  5  1  0  0  0  0
  4 18  1  0  0  0  0
  5  6  2  0  0  0  0
  5 29  1  0  0  0  0
  6  7  1  0  0  0  0
  6 11  1  0  0  0  0
  7  8  2  0  0  0  0
  7  9  1  0  0  0  0
  9 10  1  0  0  0  0
  9 30  1  0  0  0  0
 10 11  2  0  0  0  0
 11 12  1  0  0  0  0
 12 13  1  0  0  0  0
 12 17  2  0  0  0  0
 13 14  2  0  0  0  0
 13 31  1  0  0  0  0
 14 15  1  0  0  0  0
 15 16  2  0  0  0  0
 15 32  1  0  0  0  0
 16 17  1  0  0  0  0
 16 33  1  0  0  0  0
 18 19  1  0  0  0  0
 18 24  2  0  0  0  0
 19 20  2  0  0  0  0
 19 34  1  0  0  0  0
 20 21  1  0  0  0  0
 20 22  1  0  0  0  0
 22 23  2  0  0  0  0
 22 35  1  0  0  0  0
 23 24  1  0  0  0  0
 23 36  1  0  0  0  0
M  END
$$$$
