CHEMBL3914955
 OpenBabel04072215373D

 74 78  0  0  1  0  0  0  0  0999 V2000
    0.4502   -3.8637    0.6891 C   0  0  0  0  0  0  0  0  0  0  0  0
    1.7604   -4.0798    1.2173 O   0  0  0  0  0  0  0  0  0  0  0  0
    2.7178   -3.1506    0.8861 C   0  0  0  0  0  0  0  0  0  0  0  0
    2.5252   -2.1406   -0.0608 C   0  0  0  0  0  0  0  0  0  0  0  0
    3.5629   -1.2731   -0.3714 C   0  0  0  0  0  0  0  0  0  0  0  0
    3.5173   -0.2708   -1.3027 O   0  0  0  0  0  0  0  0  0  0  0  0
    2.2578   -0.0154   -1.9151 C   0  0  0  0  0  0  0  0  0  0  0  0
    4.7900   -1.4187    0.2802 C   0  0  0  0  0  0  0  0  0  0  0  0
    5.0136   -2.3733    1.2942 C   0  0  0  0  0  0  0  0  0  0  0  0
    6.3053   -2.5615    1.9287 N   0  0  0  0  0  0  0  0  0  0  0  0
    6.9969   -1.2899    2.3433 C   0  0  0  0  0  0  0  0  0  0  0  0
    6.2360    0.0686    2.4346 C   0  0  0  0  0  0  0  0  0  0  0  0
    5.0540    0.2374    3.4064 C   0  0  0  0  0  0  0  0  0  0  0  0
    4.3401    1.5115    3.1839 N   0  0  0  0  0  0  0  0  0  0  0  0
    5.1011    2.7691    3.2505 C   0  0  0  0  0  0  0  0  0  0  0  0
    5.2595    3.4227    4.6422 C   0  0  2  0  0  0  0  0  0  0  0  0
    6.4342    2.8878    5.4512 C   0  0  0  0  0  0  0  0  0  0  0  0
    4.0489    3.4423    5.4115 O   0  0  0  0  0  0  0  0  0  0  0  0
    3.2623    2.2437    5.3804 C   0  0  2  0  0  0  0  0  0  0  0  0
    3.7411    1.2329    6.4131 C   0  0  0  0  0  0  0  0  0  0  0  0
    3.0969    1.6786    3.9531 C   0  0  0  0  0  0  0  0  0  0  0  0
    7.2442   -3.4865    1.2568 C   0  0  0  0  0  0  0  0  0  0  0  0
    7.0652   -3.6321   -0.1073 C   0  0  0  0  0  0  0  0  0  0  0  0
    7.5529   -4.7251   -0.7758 C   0  0  0  0  0  0  0  0  0  0  0  0
    8.3718   -5.6327   -0.1701 C   0  0  0  0  0  0  0  0  0  0  0  0
    8.5774   -6.6755   -0.9640 N   0  0  0  0  0  0  0  0  0  0  0  0
    9.5162   -7.5294   -0.5811 C   0  0  0  0  0  0  0  0  0  0  0  0
   10.2953   -7.3031    0.5327 C   0  0  0  0  0  0  0  0  0  0  0  0
   11.5006   -8.1366    0.5883 C   0  0  0  0  0  0  0  0  0  0  0  0
   12.8023   -7.8598    0.0751 C   0  0  0  0  0  0  0  0  0  0  0  0
   13.5702   -8.9512   -0.0422 N   0  0  0  0  0  0  0  0  0  0  0  0
   12.7646   -9.9448    0.3659 N   0  0  0  0  0  0  0  0  0  0  0  0
   13.2934  -11.2660    0.6207 C   0  0  0  0  0  0  0  0  0  0  0  0
   11.4782   -9.5272    0.5823 C   0  0  0  0  0  0  0  0  0  0  0  0
    9.9911   -6.2834    1.4286 N   0  0  0  0  0  0  0  0  0  0  0  0
    8.9269   -5.4091    1.1059 C   0  0  0  0  0  0  0  0  0  0  0  0
    8.2570   -4.3207    1.8534 C   0  0  0  0  0  0  0  0  0  0  0  0
    3.9587   -3.2700    1.5491 C   0  0  0  0  0  0  0  0  0  0  0  0
   -0.2226   -4.6113    1.1194 H   0  0  0  0  0  0  0  0  0  0  0  0
    0.4316   -3.9926   -0.3999 H   0  0  0  0  0  0  0  0  0  0  0  0
    0.0659   -2.8760    0.9702 H   0  0  0  0  0  0  0  0  0  0  0  0
    1.5809   -2.0489   -0.5792 H   0  0  0  0  0  0  0  0  0  0  0  0
    2.3652    0.8673   -2.5527 H   0  0  0  0  0  0  0  0  0  0  0  0
    1.4856    0.2072   -1.1704 H   0  0  0  0  0  0  0  0  0  0  0  0
    1.9595   -0.8537   -2.5534 H   0  0  0  0  0  0  0  0  0  0  0  0
    5.6101   -0.8013   -0.0775 H   0  0  0  0  0  0  0  0  0  0  0  0
    7.8159   -1.0972    1.6366 H   0  0  0  0  0  0  0  0  0  0  0  0
    7.4621   -1.4694    3.3198 H   0  0  0  0  0  0  0  0  0  0  0  0
    5.9254    0.4192    1.4481 H   0  0  0  0  0  0  0  0  0  0  0  0
    7.0011    0.7979    2.7286 H   0  0  0  0  0  0  0  0  0  0  0  0
    5.4271    0.1453    4.4242 H   0  0  0  0  0  0  0  0  0  0  0  0
    4.3363   -0.5752    3.2572 H   0  0  0  0  0  0  0  0  0  0  0  0
    4.5350    3.4855    2.6376 H   0  0  0  0  0  0  0  0  0  0  0  0
    6.0709    2.7020    2.7488 H   0  0  0  0  0  0  0  0  0  0  0  0
    5.4820    4.4840    4.4669 H   0  0  0  0  0  0  0  0  0  0  0  0
    6.4757    1.7990    5.4678 H   0  0  0  0  0  0  0  0  0  0  0  0
    6.3790    3.2319    6.4894 H   0  0  0  0  0  0  0  0  0  0  0  0
    7.3797    3.2321    5.0190 H   0  0  0  0  0  0  0  0  0  0  0  0
    2.2641    2.5585    5.7122 H   0  0  0  0  0  0  0  0  0  0  0  0
    4.7389    0.8520    6.2107 H   0  0  0  0  0  0  0  0  0  0  0  0
    3.0605    0.3780    6.4641 H   0  0  0  0  0  0  0  0  0  0  0  0
    3.7958    1.7000    7.4016 H   0  0  0  0  0  0  0  0  0  0  0  0
    2.4875    2.4077    3.3960 H   0  0  0  0  0  0  0  0  0  0  0  0
    2.5006    0.7592    3.9601 H   0  0  0  0  0  0  0  0  0  0  0  0
    6.4552   -2.9532   -0.6819 H   0  0  0  0  0  0  0  0  0  0  0  0
    7.2431   -4.8723   -1.8088 H   0  0  0  0  0  0  0  0  0  0  0  0
    9.6664   -8.3722   -1.2469 H   0  0  0  0  0  0  0  0  0  0  0  0
   13.2044   -6.9190   -0.2799 H   0  0  0  0  0  0  0  0  0  0  0  0
   14.3782  -11.2694    0.4800 H   0  0  0  0  0  0  0  0  0  0  0  0
   12.8229  -11.9894   -0.0502 H   0  0  0  0  0  0  0  0  0  0  0  0
   13.0629  -11.5089    1.6617 H   0  0  0  0  0  0  0  0  0  0  0  0
   10.6795  -10.2463    0.7051 H   0  0  0  0  0  0  0  0  0  0  0  0
    8.5210   -4.1934    2.9048 H   0  0  0  0  0  0  0  0  0  0  0  0
    4.1013   -4.0842    2.2558 H   0  0  0  0  0  0  0  0  0  0  0  0
  1  2  1  0  0  0  0
  1 39  1  0  0  0  0
  1 40  1  0  0  0  0
  1 41  1  0  0  0  0
  2  3  1  0  0  0  0
  3  4  1  0  0  0  0
  3 38  2  0  0  0  0
  4  5  2  0  0  0  0
  4 42  1  0  0  0  0
  5  6  1  0  0  0  0
  5  8  1  0  0  0  0
  6  7  1  0  0  0  0
  7 43  1  0  0  0  0
  7 44  1  0  0  0  0
  7 45  1  0  0  0  0
  8  9  2  0  0  0  0
  8 46  1  0  0  0  0
  9 10  1  0  0  0  0
  9 38  1  0  0  0  0
 10 11  1  0  0  0  0
 10 22  1  0  0  0  0
 11 12  1  0  0  0  0
 11 47  1  0  0  0  0
 11 48  1  0  0  0  0
 12 13  1  0  0  0  0
 12 49  1  0  0  0  0
 12 50  1  0  0  0  0
 13 14  1  0  0  0  0
 13 51  1  0  0  0  0
 13 52  1  0  0  0  0
 14 15  1  0  0  0  0
 14 21  1  0  0  0  0
 15 16  1  0  0  0  0
 15 53  1  0  0  0  0
 15 54  1  0  0  0  0
 16 18  1  0  0  0  0
 16 17  1  0  0  0  0
 16 55  1  6  0  0  0
 17 56  1  0  0  0  0
 17 57  1  0  0  0  0
 17 58  1  0  0  0  0
 18 19  1  0  0  0  0
 19 21  1  0  0  0  0
 19 20  1  0  0  0  0
 19 59  1  1  0  0  0
 20 60  1  0  0  0  0
 20 61  1  0  0  0  0
 20 62  1  0  0  0  0
 21 63  1  0  0  0  0
 21 64  1  0  0  0  0
 22 23  1  0  0  0  0
 22 37  2  0  0  0  0
 23 24  2  0  0  0  0
 23 65  1  0  0  0  0
 24 25  1  0  0  0  0
 24 66  1  0  0  0  0
 25 26  1  0  0  0  0
 25 36  2  0  0  0  0
 26 27  2  0  0  0  0
 27 28  1  0  0  0  0
 27 67  1  0  0  0  0
 28 29  1  0  0  0  0
 28 35  2  0  0  0  0
 29 30  1  0  0  0  0
 29 34  2  0  0  0  0
 30 31  2  0  0  0  0
 30 68  1  0  0  0  0
 31 32  1  0  0  0  0
 32 33  1  0  0  0  0
 32 34  1  0  0  0  0
 33 69  1  0  0  0  0
 33 70  1  0  0  0  0
 33 71  1  0  0  0  0
 34 72  1  0  0  0  0
 35 36  1  0  0  0  0
 36 37  1  0  0  0  0
 37 73  1  0  0  0  0
 38 74  1  0  0  0  0
M  END
$$$$
