CHEMBL2088256
 OpenBabel04072215363D

 42 44  0  0  0  0  0  0  0  0999 V2000
    0.9206    5.6835   -3.2505 C   0  0  0  0  0  0  0  0  0  0  0  0
    1.4196    4.3411   -2.7226 C   0  0  0  0  0  0  0  0  0  0  0  0
    1.3819    3.2738   -3.8200 C   0  0  0  0  0  0  0  0  0  0  0  0
    2.7889    4.4439   -2.1270 C   0  0  0  0  0  0  0  0  0  0  0  0
    3.2624    4.1043   -0.8760 C   0  0  0  0  0  0  0  0  0  0  0  0
    4.6713    4.1915   -0.9702 C   0  0  0  0  0  0  0  0  0  0  0  0
    5.4761    3.7326    0.0125 N   0  0  0  0  0  0  0  0  0  0  0  0
    6.8248    3.3393   -0.0606 C   0  0  0  0  0  0  0  0  0  0  0  0
    7.5710    3.6768    1.0179 N   0  0  0  0  0  0  0  0  0  0  0  0
    8.8699    3.3170    1.0335 C   0  0  0  0  0  0  0  0  0  0  0  0
    9.6924    3.6301    2.1016 N   0  0  0  0  0  0  0  0  0  0  0  0
    9.4911    4.9599    2.6463 C   0  0  0  0  0  0  0  0  0  0  0  0
   10.4978    5.2234    3.7380 C   0  0  0  0  0  0  0  0  0  0  0  0
   10.6050    4.3862    4.8541 C   0  0  0  0  0  0  0  0  0  0  0  0
   11.5272    4.6780    5.8568 C   0  0  0  0  0  0  0  0  0  0  0  0
   12.3163    5.8079    5.7120 C   0  0  0  0  0  0  0  0  0  0  0  0
   12.2422    6.6415    4.6545 N   0  0  0  0  0  0  0  0  0  0  0  0
   11.3365    6.3329    3.6959 C   0  0  0  0  0  0  0  0  0  0  0  0
    9.4636    2.6224    0.0630 N   0  0  0  0  0  0  0  0  0  0  0  0
    8.6931    2.2691   -0.9822 C   0  0  0  0  0  0  0  0  0  0  0  0
    7.3623    2.6028   -1.1069 C   0  0  0  0  0  0  0  0  0  0  0  0
    6.4163    1.8311   -2.5575 Br  0  0  0  0  0  0  0  0  0  0  0  0
    5.0376    4.7298   -2.1351 N   0  0  0  0  0  0  0  0  0  0  0  0
    3.8933    4.8523   -2.8234 N   0  0  0  0  0  0  0  0  0  0  0  0
   -0.1089    5.5935   -3.6145 H   0  0  0  0  0  0  0  0  0  0  0  0
    1.5373    6.0497   -4.0786 H   0  0  0  0  0  0  0  0  0  0  0  0
    0.9326    6.4433   -2.4618 H   0  0  0  0  0  0  0  0  0  0  0  0
    0.7312    4.0201   -1.9295 H   0  0  0  0  0  0  0  0  0  0  0  0
    2.0229    3.5406   -4.6681 H   0  0  0  0  0  0  0  0  0  0  0  0
    0.3626    3.1418   -4.1983 H   0  0  0  0  0  0  0  0  0  0  0  0
    1.7253    2.3052   -3.4384 H   0  0  0  0  0  0  0  0  0  0  0  0
    2.6810    3.7136   -0.0543 H   0  0  0  0  0  0  0  0  0  0  0  0
    5.2652    4.0080    0.9627 H   0  0  0  0  0  0  0  0  0  0  0  0
   10.6415    3.4573    1.7772 H   0  0  0  0  0  0  0  0  0  0  0  0
    8.4884    5.0673    3.0807 H   0  0  0  0  0  0  0  0  0  0  0  0
    9.5949    5.7140    1.8560 H   0  0  0  0  0  0  0  0  0  0  0  0
    9.9727    3.5053    4.9395 H   0  0  0  0  0  0  0  0  0  0  0  0
   11.6246    4.0410    6.7282 H   0  0  0  0  0  0  0  0  0  0  0  0
   13.0474    6.0774    6.4684 H   0  0  0  0  0  0  0  0  0  0  0  0
   11.3098    7.0347    2.8666 H   0  0  0  0  0  0  0  0  0  0  0  0
    9.1922    1.6538   -1.7238 H   0  0  0  0  0  0  0  0  0  0  0  0
    3.9452    5.1754   -3.7845 H   0  0  0  0  0  0  0  0  0  0  0  0
  1  2  1  0  0  0  0
  1 25  1  0  0  0  0
  1 26  1  0  0  0  0
  1 27  1  0  0  0  0
  2  3  1  0  0  0  0
  2  4  1  0  0  0  0
  2 28  1  0  0  0  0
  3 29  1  0  0  0  0
  3 30  1  0  0  0  0
  3 31  1  0  0  0  0
  4  5  2  0  0  0  0
  4 24  1  0  0  0  0
  5  6  1  0  0  0  0
  5 32  1  0  0  0  0
  6  7  1  0  0  0  0
  6 23  2  0  0  0  0
  7  8  1  0  0  0  0
  7 33  1  0  0  0  0
  8  9  1  0  0  0  0
  8 21  2  0  0  0  0
  9 10  2  0  0  0  0
 10 11  1  0  0  0  0
 10 19  1  0  0  0  0
 11 12  1  0  0  0  0
 11 34  1  0  0  0  0
 12 13  1  0  0  0  0
 12 35  1  0  0  0  0
 12 36  1  0  0  0  0
 13 14  1  0  0  0  0
 13 18  2  0  0  0  0
 14 15  2  0  0  0  0
 14 37  1  0  0  0  0
 15 16  1  0  0  0  0
 15 38  1  0  0  0  0
 16 17  2  0  0  0  0
 16 39  1  0  0  0  0
 17 18  1  0  0  0  0
 18 40  1  0  0  0  0
 19 20  2  0  0  0  0
 20 21  1  0  0  0  0
 20 41  1  0  0  0  0
 21 22  1  0  0  0  0
 23 24  1  0  0  0  0
 24 42  1  0  0  0  0
M  END
$$$$
