CHEMBL1254276
 OpenBabel04072215363D

 51 54  0  0  0  0  0  0  0  0999 V2000
    1.1325   -0.5133   -0.4748 C   0  0  0  0  0  0  0  0  0  0  0  0
    2.4103    0.0191   -0.1135 O   0  0  0  0  0  0  0  0  0  0  0  0
    3.1673   -0.7791    0.7169 C   0  0  0  0  0  0  0  0  0  0  0  0
    2.8592   -2.1278    0.9751 C   0  0  0  0  0  0  0  0  0  0  0  0
    3.6444   -2.9011    1.8318 C   0  0  0  0  0  0  0  0  0  0  0  0
    3.3978   -4.2260    2.1033 O   0  0  0  0  0  0  0  0  0  0  0  0
    2.0824   -4.6222    2.2818 C   0  0  0  0  0  0  0  0  0  0  0  0
    1.1558   -3.7547    2.7526 N   0  0  0  0  0  0  0  0  0  0  0  0
   -0.1011   -4.1948    2.9041 C   0  0  0  0  0  0  0  0  0  0  0  0
   -0.5757   -5.4232    2.6589 N   0  0  0  0  0  0  0  0  0  0  0  0
    0.3641   -6.2855    2.2226 C   0  0  0  0  0  0  0  0  0  0  0  0
    0.2295   -7.6495    1.8764 C   0  0  0  0  0  0  0  0  0  0  0  0
    1.4697   -8.0983    1.4755 C   0  0  0  0  0  0  0  0  0  0  0  0
    2.3489   -7.0461    1.5656 N   0  0  0  0  0  0  0  0  0  0  0  0
    3.7504   -7.1155    1.2178 C   0  0  0  0  0  0  0  0  0  0  0  0
    1.6910   -5.9280    2.0252 C   0  0  0  0  0  0  0  0  0  0  0  0
    4.7875   -2.3529    2.3879 C   0  0  0  0  0  0  0  0  0  0  0  0
    5.1024   -1.0167    2.1413 C   0  0  0  0  0  0  0  0  0  0  0  0
    4.3162   -0.2076    1.2982 C   0  0  0  0  0  0  0  0  0  0  0  0
    4.6545    1.1660    1.0472 N   0  0  0  0  0  0  0  0  0  0  0  0
    5.9132    1.6904    1.2672 C   0  0  0  0  0  0  0  0  0  0  0  0
    6.8811    0.9804    1.5375 O   0  0  0  0  0  0  0  0  0  0  0  0
    5.9939    3.0735    1.1790 N   0  0  0  0  0  0  0  0  0  0  0  0
    7.2016    3.8039    1.4067 C   0  0  0  0  0  0  0  0  0  0  0  0
    8.4646    3.1970    1.3926 C   0  0  0  0  0  0  0  0  0  0  0  0
    9.6236    3.8888    1.7388 C   0  0  0  0  0  0  0  0  0  0  0  0
    9.5534    5.2362    2.0513 C   0  0  0  0  0  0  0  0  0  0  0  0
    8.3218    5.9055    1.9951 C   0  0  0  0  0  0  0  0  0  0  0  0
    8.2692    7.3883    2.2720 C   0  0  0  0  0  0  0  0  0  0  0  0
    9.4857    7.9316    2.5685 F   0  0  0  0  0  0  0  0  0  0  0  0
    7.7998    8.0974    1.2087 F   0  0  0  0  0  0  0  0  0  0  0  0
    7.4595    7.7007    3.3201 F   0  0  0  0  0  0  0  0  0  0  0  0
    7.1463    5.1810    1.6771 C   0  0  0  0  0  0  0  0  0  0  0  0
    0.6136    0.2229   -1.0942 H   0  0  0  0  0  0  0  0  0  0  0  0
    0.5213   -0.6941    0.4173 H   0  0  0  0  0  0  0  0  0  0  0  0
    1.2281   -1.4260   -1.0753 H   0  0  0  0  0  0  0  0  0  0  0  0
    2.0015   -2.6070    0.5186 H   0  0  0  0  0  0  0  0  0  0  0  0
   -0.8205   -3.4652    3.2615 H   0  0  0  0  0  0  0  0  0  0  0  0
   -0.6801   -8.2329    1.9142 H   0  0  0  0  0  0  0  0  0  0  0  0
    1.7910   -9.0746    1.1353 H   0  0  0  0  0  0  0  0  0  0  0  0
    3.9876   -8.1186    0.8556 H   0  0  0  0  0  0  0  0  0  0  0  0
    4.3397   -6.8970    2.1120 H   0  0  0  0  0  0  0  0  0  0  0  0
    3.9496   -6.3854    0.4294 H   0  0  0  0  0  0  0  0  0  0  0  0
    5.4378   -2.9461    3.0244 H   0  0  0  0  0  0  0  0  0  0  0  0
    5.9835   -0.6323    2.6447 H   0  0  0  0  0  0  0  0  0  0  0  0
    4.0065    1.6666    0.4534 H   0  0  0  0  0  0  0  0  0  0  0  0
    5.1245    3.5827    1.2195 H   0  0  0  0  0  0  0  0  0  0  0  0
    8.5968    2.1544    1.1207 H   0  0  0  0  0  0  0  0  0  0  0  0
   10.5741    3.3617    1.7647 H   0  0  0  0  0  0  0  0  0  0  0  0
   10.4663    5.7628    2.3260 H   0  0  0  0  0  0  0  0  0  0  0  0
    6.1940    5.7076    1.6674 H   0  0  0  0  0  0  0  0  0  0  0  0
  1  2  1  0  0  0  0
  1 34  1  0  0  0  0
  1 35  1  0  0  0  0
  1 36  1  0  0  0  0
  2  3  1  0  0  0  0
  3  4  1  0  0  0  0
  3 19  2  0  0  0  0
  4  5  2  0  0  0  0
  4 37  1  0  0  0  0
  5  6  1  0  0  0  0
  5 17  1  0  0  0  0
  6  7  1  0  0  0  0
  7  8  1  0  0  0  0
  7 16  2  0  0  0  0
  8  9  2  0  0  0  0
  9 10  1  0  0  0  0
  9 38  1  0  0  0  0
 10 11  2  0  0  0  0
 11 12  1  0  0  0  0
 11 16  1  0  0  0  0
 12 13  2  0  0  0  0
 12 39  1  0  0  0  0
 13 14  1  0  0  0  0
 13 40  1  0  0  0  0
 14 15  1  0  0  0  0
 14 16  1  0  0  0  0
 15 41  1  0  0  0  0
 15 42  1  0  0  0  0
 15 43  1  0  0  0  0
 17 18  2  0  0  0  0
 17 44  1  0  0  0  0
 18 19  1  0  0  0  0
 18 45  1  0  0  0  0
 19 20  1  0  0  0  0
 20 21  1  0  0  0  0
 20 46  1  0  0  0  0
 21 22  2  0  0  0  0
 21 23  1  0  0  0  0
 23 24  1  0  0  0  0
 23 47  1  0  0  0  0
 24 25  1  0  0  0  0
 24 33  2  0  0  0  0
 25 26  2  0  0  0  0
 25 48  1  0  0  0  0
 26 27  1  0  0  0  0
 26 49  1  0  0  0  0
 27 28  2  0  0  0  0
 27 50  1  0  0  0  0
 28 29  1  0  0  0  0
 28 33  1  0  0  0  0
 29 30  1  0  0  0  0
 29 31  1  0  0  0  0
 29 32  1  0  0  0  0
 33 51  1  0  0  0  0
M  END
$$$$
