CHEMBL1242749
 OpenBabel04072215363D

 37 40  0  0  1  0  0  0  0  0999 V2000
    1.0874    0.3767    0.0403 N   0  0  0  0  0  0  0  0  0  0  0  0
    2.4641    0.1915    0.0247 C   0  0  0  0  0  0  0  0  0  0  0  0
    3.2035    1.3202    0.0208 N   0  0  0  0  0  0  0  0  0  0  0  0
    4.5452    1.2162    0.0182 C   0  0  0  0  0  0  0  0  0  0  0  0
    5.2845    0.0971    0.0331 N   0  0  0  0  0  0  0  0  0  0  0  0
    4.5086   -1.0029    0.0251 C   0  0  0  0  0  0  0  0  0  0  0  0
    3.1230   -1.0494    0.0111 C   0  0  0  0  0  0  0  0  0  0  0  0
    2.8109   -2.4473   -0.0448 C   0  0  0  0  0  0  0  0  0  0  0  0
    1.5099   -3.1128   -0.1769 C   0  0  0  0  0  0  0  0  0  0  0  0
    0.4739   -2.5445   -0.9365 C   0  0  0  0  0  0  0  0  0  0  0  0
   -0.7611   -3.1826   -1.0637 C   0  0  0  0  0  0  0  0  0  0  0  0
   -0.9462   -4.4262   -0.4786 C   0  0  0  0  0  0  0  0  0  0  0  0
   -2.1158   -5.0622   -0.6166 F   0  0  0  0  0  0  0  0  0  0  0  0
    0.0822   -5.0279    0.2363 C   0  0  0  0  0  0  0  0  0  0  0  0
   -0.0808   -6.2714    0.7772 O   0  0  0  0  0  0  0  0  0  0  0  0
    1.2998   -4.3771    0.4049 C   0  0  0  0  0  0  0  0  0  0  0  0
    3.9310   -3.1938   -0.0016 N   0  0  0  0  0  0  0  0  0  0  0  0
    4.9397   -2.3011   -0.0009 N   0  0  0  0  0  0  0  0  0  0  0  0
    6.3241   -2.7279   -0.1306 C   0  0  2  0  0  0  0  0  0  0  0  0
    6.5225   -4.0199   -0.9013 C   0  0  0  0  0  0  0  0  0  0  0  0
    6.5039   -5.0769    0.1818 C   0  0  0  0  0  0  0  0  0  0  0  0
    7.0197   -4.4653    1.3705 O   0  0  0  0  0  0  0  0  0  0  0  0
    6.9695   -3.0373    1.2113 C   0  0  0  0  0  0  0  0  0  0  0  0
    0.8671    1.3446    0.2514 H   0  0  0  0  0  0  0  0  0  0  0  0
    0.5710   -0.3101    0.5752 H   0  0  0  0  0  0  0  0  0  0  0  0
    5.0930    2.1536   -0.0008 H   0  0  0  0  0  0  0  0  0  0  0  0
    0.6235   -1.6034   -1.4596 H   0  0  0  0  0  0  0  0  0  0  0  0
   -1.5636   -2.7237   -1.6314 H   0  0  0  0  0  0  0  0  0  0  0  0
   -0.9615   -6.5890    0.4977 H   0  0  0  0  0  0  0  0  0  0  0  0
    2.0937   -4.8666    0.9624 H   0  0  0  0  0  0  0  0  0  0  0  0
    6.8471   -1.9053   -0.6315 H   0  0  0  0  0  0  0  0  0  0  0  0
    7.5161   -4.0072   -1.3665 H   0  0  0  0  0  0  0  0  0  0  0  0
    5.7902   -4.2087   -1.6918 H   0  0  0  0  0  0  0  0  0  0  0  0
    7.1233   -5.9406   -0.0774 H   0  0  0  0  0  0  0  0  0  0  0  0
    5.4909   -5.4348    0.3913 H   0  0  0  0  0  0  0  0  0  0  0  0
    8.0085   -2.6894    1.2221 H   0  0  0  0  0  0  0  0  0  0  0  0
    6.4557   -2.5968    2.0714 H   0  0  0  0  0  0  0  0  0  0  0  0
  1  2  1  0  0  0  0
  1 24  1  0  0  0  0
  1 25  1  0  0  0  0
  2  3  1  0  0  0  0
  2  7  2  0  0  0  0
  3  4  2  0  0  0  0
  4  5  1  0  0  0  0
  4 26  1  0  0  0  0
  5  6  2  0  0  0  0
  6  7  1  0  0  0  0
  6 18  1  0  0  0  0
  7  8  1  0  0  0  0
  8  9  1  0  0  0  0
  8 17  2  0  0  0  0
  9 10  1  0  0  0  0
  9 16  2  0  0  0  0
 10 11  2  0  0  0  0
 10 27  1  0  0  0  0
 11 12  1  0  0  0  0
 11 28  1  0  0  0  0
 12 13  1  0  0  0  0
 12 14  2  0  0  0  0
 14 15  1  0  0  0  0
 14 16  1  0  0  0  0
 15 29  1  0  0  0  0
 16 30  1  0  0  0  0
 17 18  1  0  0  0  0
 18 19  1  0  0  0  0
 19 20  1  0  0  0  0
 19 23  1  0  0  0  0
 19 31  1  6  0  0  0
 20 21  1  0  0  0  0
 20 32  1  0  0  0  0
 20 33  1  0  0  0  0
 21 22  1  0  0  0  0
 21 34  1  0  0  0  0
 21 35  1  0  0  0  0
 22 23  1  0  0  0  0
 23 36  1  0  0  0  0
 23 37  1  0  0  0  0
M  END
$$$$
