CHEMBL524322
 OpenBabel04072215383D

 38 41  0  0  0  0  0  0  0  0999 V2000
   -0.2141   -0.9910   -0.5527 N   0  0  0  0  0  0  0  0  0  0  0  0
    0.7902   -0.8002    0.3693 C   0  0  0  0  0  0  0  0  0  0  0  0
    0.9701   -1.7475    1.2919 N   0  0  0  0  0  0  0  0  0  0  0  0
    2.0055   -1.5754    2.1326 C   0  0  0  0  0  0  0  0  0  0  0  0
    2.8443   -0.4881    2.0909 C   0  0  0  0  0  0  0  0  0  0  0  0
    2.5468    0.4564    1.1341 C   0  0  0  0  0  0  0  0  0  0  0  0
    3.3682    1.6728    1.0051 C   0  0  0  0  0  0  0  0  0  0  0  0
    3.0928    2.6507    0.1301 C   0  0  0  0  0  0  0  0  0  0  0  0
    3.9474    3.7667   -0.0050 C   0  0  0  0  0  0  0  0  0  0  0  0
    5.0611    4.0909   -0.7842 C   0  0  0  0  0  0  0  0  0  0  0  0
    5.7260    3.2326   -1.7531 C   0  0  0  0  0  0  0  0  0  0  0  0
    5.0303    2.2654   -2.4922 C   0  0  0  0  0  0  0  0  0  0  0  0
    5.6979    1.4443   -3.4027 C   0  0  0  0  0  0  0  0  0  0  0  0
    7.0693    1.5905   -3.5965 C   0  0  0  0  0  0  0  0  0  0  0  0
    7.7708    2.5628   -2.8878 C   0  0  0  0  0  0  0  0  0  0  0  0
    7.1028    3.3823   -1.9741 C   0  0  0  0  0  0  0  0  0  0  0  0
    5.5130    5.3759   -0.5043 N   0  0  0  0  0  0  0  0  0  0  0  0
    4.6702    5.8157    0.3832 C   0  0  0  0  0  0  0  0  0  0  0  0
    3.7261    4.9005    0.7153 N   0  0  0  0  0  0  0  0  0  0  0  0
    2.7292    5.3075    1.6797 C   0  0  0  0  0  0  0  0  0  0  0  0
    3.2952    6.5373    2.3975 C   0  0  0  0  0  0  0  0  0  0  0  0
    4.5293    7.2848    1.2603 S   0  0  0  0  0  0  0  0  0  0  0  0
    1.5153    0.3166    0.2741 N   0  0  0  0  0  0  0  0  0  0  0  0
   -0.9153   -1.6293   -0.2074 H   0  0  0  0  0  0  0  0  0  0  0  0
   -0.5112   -0.1214   -0.9676 H   0  0  0  0  0  0  0  0  0  0  0  0
    2.1486   -2.3706    2.8587 H   0  0  0  0  0  0  0  0  0  0  0  0
    3.6798   -0.3970    2.7715 H   0  0  0  0  0  0  0  0  0  0  0  0
    4.2426    1.7381    1.6493 H   0  0  0  0  0  0  0  0  0  0  0  0
    2.2384    2.5801   -0.5402 H   0  0  0  0  0  0  0  0  0  0  0  0
    3.9574    2.1433   -2.3821 H   0  0  0  0  0  0  0  0  0  0  0  0
    5.1431    0.6954   -3.9610 H   0  0  0  0  0  0  0  0  0  0  0  0
    7.5901    0.9535   -4.3089 H   0  0  0  0  0  0  0  0  0  0  0  0
    8.8390    2.6876   -3.0456 H   0  0  0  0  0  0  0  0  0  0  0  0
    7.6611    4.1411   -1.4295 H   0  0  0  0  0  0  0  0  0  0  0  0
    2.5329    4.4876    2.3755 H   0  0  0  0  0  0  0  0  0  0  0  0
    1.8168    5.5506    1.1244 H   0  0  0  0  0  0  0  0  0  0  0  0
    3.8221    6.2353    3.3091 H   0  0  0  0  0  0  0  0  0  0  0  0
    2.5142    7.2534    2.6665 H   0  0  0  0  0  0  0  0  0  0  0  0
  1  2  1  0  0  0  0
  1 24  1  0  0  0  0
  1 25  1  0  0  0  0
  2  3  1  0  0  0  0
  2 23  2  0  0  0  0
  3  4  2  0  0  0  0
  4  5  1  0  0  0  0
  4 26  1  0  0  0  0
  5  6  2  0  0  0  0
  5 27  1  0  0  0  0
  6  7  1  0  0  0  0
  6 23  1  0  0  0  0
  7  8  2  0  0  0  0
  7 28  1  0  0  0  0
  8  9  1  0  0  0  0
  8 29  1  0  0  0  0
  9 10  2  0  0  0  0
  9 19  1  0  0  0  0
 10 11  1  0  0  0  0
 10 17  1  0  0  0  0
 11 12  1  0  0  0  0
 11 16  2  0  0  0  0
 12 13  2  0  0  0  0
 12 30  1  0  0  0  0
 13 14  1  0  0  0  0
 13 31  1  0  0  0  0
 14 15  2  0  0  0  0
 14 32  1  0  0  0  0
 15 16  1  0  0  0  0
 15 33  1  0  0  0  0
 16 34  1  0  0  0  0
 17 18  2  0  0  0  0
 18 19  1  0  0  0  0
 18 22  1  0  0  0  0
 19 20  1  0  0  0  0
 20 21  1  0  0  0  0
 20 35  1  0  0  0  0
 20 36  1  0  0  0  0
 21 22  1  0  0  0  0
 21 37  1  0  0  0  0
 21 38  1  0  0  0  0
M  END
$$$$
