CHEMBL4521454
 OpenBabel04072215383D

 41 43  0  0  0  0  0  0  0  0999 V2000
    2.4683    1.2533   -0.0954 O   0  0  0  0  0  0  0  0  0  0  0  0
    2.1284    0.2030    0.4325 C   0  0  0  0  0  0  0  0  0  0  0  0
    0.8029   -0.1758    0.5940 N   0  0  0  0  0  0  0  0  0  0  0  0
   -0.3262    0.6032    0.2297 C   0  0  0  0  0  0  0  0  0  0  0  0
   -0.2638    1.7341   -0.5942 C   0  0  0  0  0  0  0  0  0  0  0  0
   -1.4031    2.5069   -0.8479 C   0  0  0  0  0  0  0  0  0  0  0  0
   -2.6213    2.1444   -0.2876 C   0  0  0  0  0  0  0  0  0  0  0  0
   -4.0142    3.1147   -0.5643 Cl  0  0  0  0  0  0  0  0  0  0  0  0
   -2.7129    1.0016    0.5020 C   0  0  0  0  0  0  0  0  0  0  0  0
   -1.5704    0.2285    0.7523 C   0  0  0  0  0  0  0  0  0  0  0  0
    3.0088   -0.7306    0.9692 N   0  0  0  0  0  0  0  0  0  0  0  0
    4.4208   -0.5773    1.0842 C   0  0  0  0  0  0  0  0  0  0  0  0
    5.0812    0.5881    0.6855 C   0  0  0  0  0  0  0  0  0  0  0  0
    6.4597    0.7085    0.8012 C   0  0  0  0  0  0  0  0  0  0  0  0
    7.2000   -0.3254    1.3554 C   0  0  0  0  0  0  0  0  0  0  0  0
    6.5780   -1.4845    1.8231 C   0  0  0  0  0  0  0  0  0  0  0  0
    7.3064   -2.5028    2.4862 N   0  0  0  0  0  0  0  0  0  0  0  0
    8.6001   -2.3736    2.9833 C   0  0  0  0  0  0  0  0  0  0  0  0
    9.3194   -1.3811    2.9062 O   0  0  0  0  0  0  0  0  0  0  0  0
    9.1261   -3.5594    3.7302 C   0  0  0  0  0  0  0  0  0  0  0  0
   10.3961   -3.4792    4.3028 C   0  0  0  0  0  0  0  0  0  0  0  0
   10.8650   -4.5602    5.0375 C   0  0  0  0  0  0  0  0  0  0  0  0
   10.0555   -5.6806    5.1717 C   0  0  0  0  0  0  0  0  0  0  0  0
    8.8075   -5.6785    4.5560 C   0  0  0  0  0  0  0  0  0  0  0  0
    8.3111   -4.6426    3.8384 N   0  0  0  0  0  0  0  0  0  0  0  0
    5.1846   -1.6206    1.6481 C   0  0  0  0  0  0  0  0  0  0  0  0
    0.6254   -0.9726    1.1839 H   0  0  0  0  0  0  0  0  0  0  0  0
    0.6626    2.0542   -1.0618 H   0  0  0  0  0  0  0  0  0  0  0  0
   -1.3196    3.3919   -1.4737 H   0  0  0  0  0  0  0  0  0  0  0  0
   -3.6659    0.7147    0.9384 H   0  0  0  0  0  0  0  0  0  0  0  0
   -1.6688   -0.6484    1.3855 H   0  0  0  0  0  0  0  0  0  0  0  0
    2.6289   -1.6145    1.2709 H   0  0  0  0  0  0  0  0  0  0  0  0
    4.5609    1.4471    0.2767 H   0  0  0  0  0  0  0  0  0  0  0  0
    6.9568    1.6157    0.4688 H   0  0  0  0  0  0  0  0  0  0  0  0
    8.2747   -0.1852    1.4058 H   0  0  0  0  0  0  0  0  0  0  0  0
    6.8354   -3.3674    2.7327 H   0  0  0  0  0  0  0  0  0  0  0  0
   11.0019   -2.5852    4.1874 H   0  0  0  0  0  0  0  0  0  0  0  0
   11.8458   -4.5209    5.5051 H   0  0  0  0  0  0  0  0  0  0  0  0
   10.3906   -6.5378    5.7469 H   0  0  0  0  0  0  0  0  0  0  0  0
    8.1563   -6.5442    4.6389 H   0  0  0  0  0  0  0  0  0  0  0  0
    4.6928   -2.5287    1.9867 H   0  0  0  0  0  0  0  0  0  0  0  0
  1  2  2  0  0  0  0
  2  3  1  0  0  0  0
  2 11  1  0  0  0  0
  3  4  1  0  0  0  0
  3 27  1  0  0  0  0
  4  5  1  0  0  0  0
  4 10  2  0  0  0  0
  5  6  2  0  0  0  0
  5 28  1  0  0  0  0
  6  7  1  0  0  0  0
  6 29  1  0  0  0  0
  7  8  1  0  0  0  0
  7  9  2  0  0  0  0
  9 10  1  0  0  0  0
  9 30  1  0  0  0  0
 10 31  1  0  0  0  0
 11 12  1  0  0  0  0
 11 32  1  0  0  0  0
 12 13  1  0  0  0  0
 12 26  2  0  0  0  0
 13 14  2  0  0  0  0
 13 33  1  0  0  0  0
 14 15  1  0  0  0  0
 14 34  1  0  0  0  0
 15 16  2  0  0  0  0
 15 35  1  0  0  0  0
 16 17  1  0  0  0  0
 16 26  1  0  0  0  0
 17 18  1  0  0  0  0
 17 36  1  0  0  0  0
 18 19  2  0  0  0  0
 18 20  1  0  0  0  0
 20 21  1  0  0  0  0
 20 25  2  0  0  0  0
 21 22  2  0  0  0  0
 21 37  1  0  0  0  0
 22 23  1  0  0  0  0
 22 38  1  0  0  0  0
 23 24  2  0  0  0  0
 23 39  1  0  0  0  0
 24 25  1  0  0  0  0
 24 40  1  0  0  0  0
 26 41  1  0  0  0  0
M  END
$$$$
