CHEMBL3128236
 OpenBabel04072215363D

 60 64  0  0  0  0  0  0  0  0999 V2000
    4.3358   -0.9299   -2.2584 O   0  0  0  0  0  0  0  0  0  0  0  0
    4.8764   -1.8224   -1.6155 C   0  0  0  0  0  0  0  0  0  0  0  0
    4.8327   -3.1655   -1.9749 N   0  0  0  0  0  0  0  0  0  0  0  0
    4.1126   -3.6949   -3.0743 C   0  0  0  0  0  0  0  0  0  0  0  0
    3.5937   -2.9058   -4.1081 C   0  0  0  0  0  0  0  0  0  0  0  0
    2.7897   -3.4635   -5.1061 C   0  0  0  0  0  0  0  0  0  0  0  0
    2.5182   -4.8248   -5.0892 C   0  0  0  0  0  0  0  0  0  0  0  0
    1.3810   -5.5673   -6.4023 Br  0  0  0  0  0  0  0  0  0  0  0  0
    3.0728   -5.6378   -4.1020 C   0  0  0  0  0  0  0  0  0  0  0  0
    3.8755   -5.0738   -3.1023 C   0  0  0  0  0  0  0  0  0  0  0  0
    5.5663   -1.6230   -0.4323 N   0  0  0  0  0  0  0  0  0  0  0  0
    5.6624   -0.3992    0.2803 C   0  0  0  0  0  0  0  0  0  0  0  0
    5.0204    0.7773   -0.1159 C   0  0  0  0  0  0  0  0  0  0  0  0
    5.1590    1.9583    0.6176 C   0  0  0  0  0  0  0  0  0  0  0  0
    5.9172    1.9709    1.7805 C   0  0  0  0  0  0  0  0  0  0  0  0
    6.5340    0.7962    2.2297 C   0  0  0  0  0  0  0  0  0  0  0  0
    7.3309    0.8044    3.5142 C   0  0  0  0  0  0  0  0  0  0  0  0
    8.7063    1.1551    3.2078 N   0  0  0  0  0  0  0  0  0  0  0  0
    9.5781    1.2011    4.2958 C   0  0  0  0  0  0  0  0  0  0  0  0
    9.3573    0.4314    5.3861 N   0  0  0  0  0  0  0  0  0  0  0  0
   10.2416    0.4723    6.4037 C   0  0  0  0  0  0  0  0  0  0  0  0
   11.3609    1.2100    6.5000 N   0  0  0  0  0  0  0  0  0  0  0  0
   11.5558    1.9574    5.3992 C   0  0  0  0  0  0  0  0  0  0  0  0
   10.7286    2.0038    4.2912 C   0  0  0  0  0  0  0  0  0  0  0  0
   11.3473    2.9288    3.4303 C   0  0  0  0  0  0  0  0  0  0  0  0
   12.4807    3.4326    3.9295 N   0  0  0  0  0  0  0  0  0  0  0  0
   12.6027    2.8073    5.1309 N   0  0  0  0  0  0  0  0  0  0  0  0
   13.7434    3.1414    5.9679 C   0  0  0  0  0  0  0  0  0  0  0  0
   14.2968    1.9879    6.8053 C   0  0  0  0  0  0  0  0  0  0  0  0
   15.5451    2.3348    7.5854 C   0  0  0  0  0  0  0  0  0  0  0  0
   15.5290    2.2977    8.9879 C   0  0  0  0  0  0  0  0  0  0  0  0
   16.6934    2.5350    9.7199 C   0  0  0  0  0  0  0  0  0  0  0  0
   17.8863    2.8175    9.0588 C   0  0  0  0  0  0  0  0  0  0  0  0
   17.9123    2.8725    7.6667 C   0  0  0  0  0  0  0  0  0  0  0  0
   16.7487    2.6323    6.9320 C   0  0  0  0  0  0  0  0  0  0  0  0
    6.4234   -0.3776    1.4579 C   0  0  0  0  0  0  0  0  0  0  0  0
    5.1591   -3.8309   -1.2901 H   0  0  0  0  0  0  0  0  0  0  0  0
    3.7870   -1.8398   -4.1687 H   0  0  0  0  0  0  0  0  0  0  0  0
    2.3761   -2.8155   -5.8745 H   0  0  0  0  0  0  0  0  0  0  0  0
    2.8690   -6.7050   -4.0915 H   0  0  0  0  0  0  0  0  0  0  0  0
    4.2788   -5.7267   -2.3327 H   0  0  0  0  0  0  0  0  0  0  0  0
    6.0994   -2.3965   -0.0677 H   0  0  0  0  0  0  0  0  0  0  0  0
    4.3961    0.8260   -1.0011 H   0  0  0  0  0  0  0  0  0  0  0  0
    4.6625    2.8612    0.2706 H   0  0  0  0  0  0  0  0  0  0  0  0
    6.0139    2.8994    2.3387 H   0  0  0  0  0  0  0  0  0  0  0  0
    7.2574   -0.1826    3.9878 H   0  0  0  0  0  0  0  0  0  0  0  0
    6.8888    1.5317    4.2088 H   0  0  0  0  0  0  0  0  0  0  0  0
    8.7944    1.9560    2.5930 H   0  0  0  0  0  0  0  0  0  0  0  0
   10.0241   -0.1761    7.2481 H   0  0  0  0  0  0  0  0  0  0  0  0
   11.0142    3.2623    2.4559 H   0  0  0  0  0  0  0  0  0  0  0  0
   13.4332    3.9807    6.6011 H   0  0  0  0  0  0  0  0  0  0  0  0
   14.5240    3.5134    5.2905 H   0  0  0  0  0  0  0  0  0  0  0  0
   14.5166    1.1227    6.1672 H   0  0  0  0  0  0  0  0  0  0  0  0
   13.5360    1.6539    7.5185 H   0  0  0  0  0  0  0  0  0  0  0  0
   14.6110    2.0637    9.5234 H   0  0  0  0  0  0  0  0  0  0  0  0
   16.6716    2.4862   10.8055 H   0  0  0  0  0  0  0  0  0  0  0  0
   18.7963    2.9868    9.6284 H   0  0  0  0  0  0  0  0  0  0  0  0
   18.8448    3.0894    7.1513 H   0  0  0  0  0  0  0  0  0  0  0  0
   16.7979    2.6590    5.8458 H   0  0  0  0  0  0  0  0  0  0  0  0
    6.9353   -1.2748    1.7983 H   0  0  0  0  0  0  0  0  0  0  0  0
  1  2  2  0  0  0  0
  2  3  1  0  0  0  0
  2 11  1  0  0  0  0
  3  4  1  0  0  0  0
  3 37  1  0  0  0  0
  4  5  1  0  0  0  0
  4 10  2  0  0  0  0
  5  6  2  0  0  0  0
  5 38  1  0  0  0  0
  6  7  1  0  0  0  0
  6 39  1  0  0  0  0
  7  8  1  0  0  0  0
  7  9  2  0  0  0  0
  9 10  1  0  0  0  0
  9 40  1  0  0  0  0
 10 41  1  0  0  0  0
 11 12  1  0  0  0  0
 11 42  1  0  0  0  0
 12 13  1  0  0  0  0
 12 36  2  0  0  0  0
 13 14  2  0  0  0  0
 13 43  1  0  0  0  0
 14 15  1  0  0  0  0
 14 44  1  0  0  0  0
 15 16  2  0  0  0  0
 15 45  1  0  0  0  0
 16 17  1  0  0  0  0
 16 36  1  0  0  0  0
 17 18  1  0  0  0  0
 17 46  1  0  0  0  0
 17 47  1  0  0  0  0
 18 19  1  0  0  0  0
 18 48  1  0  0  0  0
 19 20  1  0  0  0  0
 19 24  2  0  0  0  0
 20 21  2  0  0  0  0
 21 22  1  0  0  0  0
 21 49  1  0  0  0  0
 22 23  2  0  0  0  0
 23 24  1  0  0  0  0
 23 27  1  0  0  0  0
 24 25  1  0  0  0  0
 25 26  2  0  0  0  0
 25 50  1  0  0  0  0
 26 27  1  0  0  0  0
 27 28  1  0  0  0  0
 28 29  1  0  0  0  0
 28 51  1  0  0  0  0
 28 52  1  0  0  0  0
 29 30  1  0  0  0  0
 29 53  1  0  0  0  0
 29 54  1  0  0  0  0
 30 31  1  0  0  0  0
 30 35  2  0  0  0  0
 31 32  2  0  0  0  0
 31 55  1  0  0  0  0
 32 33  1  0  0  0  0
 32 56  1  0  0  0  0
 33 34  2  0  0  0  0
 33 57  1  0  0  0  0
 34 35  1  0  0  0  0
 34 58  1  0  0  0  0
 35 59  1  0  0  0  0
 36 60  1  0  0  0  0
M  END
$$$$
