CHEMBL461140
 OpenBabel04072215383D

 53 56  0  0  0  0  0  0  0  0999 V2000
    0.9697   -0.6987    0.7579 C   0  0  0  0  0  0  0  0  0  0  0  0
    2.4315   -0.6830    0.6591 N   0  0  0  0  0  0  0  0  0  0  0  0
    2.8265   -0.4263   -0.7276 C   0  0  0  0  0  0  0  0  0  0  0  0
    2.9859    0.3139    1.5999 C   0  0  0  0  0  0  0  0  0  0  0  0
    4.5204    0.4030    1.5892 C   0  0  0  0  0  0  0  0  0  0  0  0
    4.9525    1.3458    2.5773 O   0  0  0  0  0  0  0  0  0  0  0  0
    6.3091    1.5277    2.6472 C   0  0  0  0  0  0  0  0  0  0  0  0
    7.2061    1.3192    1.5989 C   0  0  0  0  0  0  0  0  0  0  0  0
    8.5766    1.5264    1.7868 C   0  0  0  0  0  0  0  0  0  0  0  0
    9.0710    1.9595    3.0206 C   0  0  0  0  0  0  0  0  0  0  0  0
   10.5079    2.1121    3.2830 C   0  0  0  0  0  0  0  0  0  0  0  0
   11.4275    2.4603    2.3679 C   0  0  0  0  0  0  0  0  0  0  0  0
   12.8606    2.5808    2.6661 C   0  0  0  0  0  0  0  0  0  0  0  0
   13.7479    2.9425    1.6609 C   0  0  0  0  0  0  0  0  0  0  0  0
   15.1105    3.0532    1.9546 C   0  0  0  0  0  0  0  0  0  0  0  0
   16.0452    3.4559    0.9049 C   0  0  0  0  0  0  0  0  0  0  0  0
   15.8490    4.3119   -0.1734 C   0  0  0  0  0  0  0  0  0  0  0  0
   17.0358    4.3226   -0.9338 C   0  0  0  0  0  0  0  0  0  0  0  0
   17.4348    4.9762   -2.1530 C   0  0  0  0  0  0  0  0  0  0  0  0
   16.7236    5.7336   -2.8024 O   0  0  0  0  0  0  0  0  0  0  0  0
   18.7226    4.6495   -2.5314 N   0  0  0  0  0  0  0  0  0  0  0  0
   19.5315    3.7919   -1.8091 C   0  0  0  0  0  0  0  0  0  0  0  0
   19.1986    3.1956   -0.7042 N   0  0  0  0  0  0  0  0  0  0  0  0
   17.9383    3.4945   -0.3114 C   0  0  0  0  0  0  0  0  0  0  0  0
   17.3409    2.9801    0.8036 N   0  0  0  0  0  0  0  0  0  0  0  0
   15.5339    2.7886    3.2568 C   0  0  0  0  0  0  0  0  0  0  0  0
   14.5810    2.4340    4.1970 C   0  0  0  0  0  0  0  0  0  0  0  0
   13.2632    2.3231    3.9310 N   0  0  0  0  0  0  0  0  0  0  0  0
    8.1642    2.1813    4.0641 C   0  0  0  0  0  0  0  0  0  0  0  0
    6.7930    1.9795    3.8745 C   0  0  0  0  0  0  0  0  0  0  0  0
    0.5495   -1.4731    0.1061 H   0  0  0  0  0  0  0  0  0  0  0  0
    0.5279    0.2642    0.4761 H   0  0  0  0  0  0  0  0  0  0  0  0
    0.6521   -0.9417    1.7776 H   0  0  0  0  0  0  0  0  0  0  0  0
    2.3544   -1.1476   -1.4044 H   0  0  0  0  0  0  0  0  0  0  0  0
    3.9044   -0.5611   -0.8633 H   0  0  0  0  0  0  0  0  0  0  0  0
    2.5544    0.5833   -1.0551 H   0  0  0  0  0  0  0  0  0  0  0  0
    2.6729    0.0588    2.6215 H   0  0  0  0  0  0  0  0  0  0  0  0
    2.5732    1.3123    1.4012 H   0  0  0  0  0  0  0  0  0  0  0  0
    4.8338    0.7444    0.6003 H   0  0  0  0  0  0  0  0  0  0  0  0
    4.9525   -0.5812    1.8089 H   0  0  0  0  0  0  0  0  0  0  0  0
    6.8809    0.9973    0.6163 H   0  0  0  0  0  0  0  0  0  0  0  0
    9.2472    1.3248    0.9556 H   0  0  0  0  0  0  0  0  0  0  0  0
   10.8165    1.9193    4.3098 H   0  0  0  0  0  0  0  0  0  0  0  0
   11.1348    2.6807    1.3450 H   0  0  0  0  0  0  0  0  0  0  0  0
   13.3857    3.1284    0.6549 H   0  0  0  0  0  0  0  0  0  0  0  0
   14.9428    4.8614   -0.3950 H   0  0  0  0  0  0  0  0  0  0  0  0
   19.0494    5.0735   -3.3848 H   0  0  0  0  0  0  0  0  0  0  0  0
   20.5250    3.6443   -2.2615 H   0  0  0  0  0  0  0  0  0  0  0  0
   17.7810    2.3176    1.4248 H   0  0  0  0  0  0  0  0  0  0  0  0
   16.5718    2.8758    3.5543 H   0  0  0  0  0  0  0  0  0  0  0  0
   14.8594    2.2288    5.2270 H   0  0  0  0  0  0  0  0  0  0  0  0
    8.5175    2.5121    5.0385 H   0  0  0  0  0  0  0  0  0  0  0  0
    6.1044    2.1560    4.6967 H   0  0  0  0  0  0  0  0  0  0  0  0
  1  2  1  0  0  0  0
  1 31  1  0  0  0  0
  1 32  1  0  0  0  0
  1 33  1  0  0  0  0
  2  3  1  0  0  0  0
  2  4  1  0  0  0  0
  3 34  1  0  0  0  0
  3 35  1  0  0  0  0
  3 36  1  0  0  0  0
  4  5  1  0  0  0  0
  4 37  1  0  0  0  0
  4 38  1  0  0  0  0
  5  6  1  0  0  0  0
  5 39  1  0  0  0  0
  5 40  1  0  0  0  0
  6  7  1  0  0  0  0
  7  8  1  0  0  0  0
  7 30  2  0  0  0  0
  8  9  2  0  0  0  0
  8 41  1  0  0  0  0
  9 10  1  0  0  0  0
  9 42  1  0  0  0  0
 10 11  1  0  0  0  0
 10 29  2  0  0  0  0
 11 12  2  0  0  0  0
 11 43  1  0  0  0  0
 12 13  1  0  0  0  0
 12 44  1  0  0  0  0
 13 14  1  0  0  0  0
 13 28  2  0  0  0  0
 14 15  2  0  0  0  0
 14 45  1  0  0  0  0
 15 16  1  0  0  0  0
 15 26  1  0  0  0  0
 16 17  2  0  0  0  0
 16 25  1  0  0  0  0
 17 18  1  0  0  0  0
 17 46  1  0  0  0  0
 18 19  1  0  0  0  0
 18 24  2  0  0  0  0
 19 20  2  0  0  0  0
 19 21  1  0  0  0  0
 21 22  1  0  0  0  0
 21 47  1  0  0  0  0
 22 23  2  0  0  0  0
 22 48  1  0  0  0  0
 23 24  1  0  0  0  0
 24 25  1  0  0  0  0
 25 49  1  0  0  0  0
 26 27  2  0  0  0  0
 26 50  1  0  0  0  0
 27 28  1  0  0  0  0
 27 51  1  0  0  0  0
 29 30  1  0  0  0  0
 29 52  1  0  0  0  0
 30 53  1  0  0  0  0
M  END
$$$$
