CHEMBL3982570
 OpenBabel04072215373D

 69 72  0  0  0  0  0  0  0  0999 V2000
    1.9811   -0.0380   -2.4789 C   0  0  0  0  0  0  0  0  0  0  0  0
    3.1274   -0.2990   -1.7431 O   0  0  0  0  0  0  0  0  0  0  0  0
    3.4819   -1.5192   -1.2491 C   0  0  0  0  0  0  0  0  0  0  0  0
    2.6576   -2.6456   -1.3964 C   0  0  0  0  0  0  0  0  0  0  0  0
    3.0382   -3.8639   -0.8841 C   0  0  0  0  0  0  0  0  0  0  0  0
    4.2652   -4.0317   -0.2078 C   0  0  0  0  0  0  0  0  0  0  0  0
    4.5730   -5.2274    0.3595 O   0  0  0  0  0  0  0  0  0  0  0  0
    3.7313   -6.3287    0.3653 C   0  0  0  0  0  0  0  0  0  0  0  0
    5.1423   -2.9223   -0.0589 C   0  0  0  0  0  0  0  0  0  0  0  0
    6.3719   -3.0391    0.7019 N   0  0  0  0  0  0  0  0  0  0  0  0
    6.8164   -1.9244    1.6221 C   0  0  0  0  0  0  0  0  0  0  0  0
    5.8410   -0.9319    2.3249 C   0  0  0  0  0  0  0  0  0  0  0  0
    4.8769   -1.4417    3.4412 C   0  0  0  0  0  0  0  0  0  0  0  0
    5.5164   -2.0346    4.6574 N   0  0  0  0  0  0  0  0  0  0  0  0
    4.4737   -2.3931    5.6522 C   0  0  0  0  0  0  0  0  0  0  0  0
    4.4435   -1.2601    6.6720 C   0  0  0  0  0  0  0  0  0  0  0  0
    5.9197   -1.0473    6.8493 C   0  0  0  0  0  0  0  0  0  0  0  0
    6.3919   -1.0794    5.3946 C   0  0  0  0  0  0  0  0  0  0  0  0
    7.4148   -4.0784    0.5109 C   0  0  0  0  0  0  0  0  0  0  0  0
    7.9751   -4.4898    1.7190 C   0  0  0  0  0  0  0  0  0  0  0  0
    9.1493   -5.1303    1.8009 C   0  0  0  0  0  0  0  0  0  0  0  0
    9.8205   -5.5071    0.6924 C   0  0  0  0  0  0  0  0  0  0  0  0
   11.0422   -5.9715    0.9185 N   0  0  0  0  0  0  0  0  0  0  0  0
   11.7893   -6.4931   -0.0299 C   0  0  0  0  0  0  0  0  0  0  0  0
   11.2583   -6.7205   -1.2997 C   0  0  0  0  0  0  0  0  0  0  0  0
   12.0384   -7.8382   -2.0301 C   0  0  0  0  0  0  0  0  0  0  0  0
   13.0684   -8.5818   -1.3955 C   0  0  0  0  0  0  0  0  0  0  0  0
   13.4377   -9.6146   -2.1399 N   0  0  0  0  0  0  0  0  0  0  0  0
   12.7264   -9.5850   -3.2419 N   0  0  0  0  0  0  0  0  0  0  0  0
   12.8175  -10.6853   -4.1948 C   0  0  0  0  0  0  0  0  0  0  0  0
   11.8844   -8.5078   -3.2486 C   0  0  0  0  0  0  0  0  0  0  0  0
   10.0243   -6.0980   -1.6141 N   0  0  0  0  0  0  0  0  0  0  0  0
    9.2897   -5.4178   -0.6090 C   0  0  0  0  0  0  0  0  0  0  0  0
    8.0374   -4.6242   -0.7241 C   0  0  0  0  0  0  0  0  0  0  0  0
    4.7156   -1.6700   -0.5816 C   0  0  0  0  0  0  0  0  0  0  0  0
    1.4784    0.7539    2.3837 Cl  0  0  0  0  0  0  0  0  0  0  0  0
    1.9547    1.0318   -2.7702 H   0  0  0  0  0  0  0  0  0  0  0  0
    1.0676   -0.2606   -1.8839 H   0  0  0  0  0  0  0  0  0  0  0  0
    1.9768   -0.6517   -3.4063 H   0  0  0  0  0  0  0  0  0  0  0  0
    1.6910   -2.5606   -1.8947 H   0  0  0  0  0  0  0  0  0  0  0  0
    2.3276   -4.6748   -1.0043 H   0  0  0  0  0  0  0  0  0  0  0  0
    4.1926   -7.1533    0.9399 H   0  0  0  0  0  0  0  0  0  0  0  0
    3.5460   -6.6700   -0.6763 H   0  0  0  0  0  0  0  0  0  0  0  0
    2.7583   -6.0727    0.8463 H   0  0  0  0  0  0  0  0  0  0  0  0
    7.5950   -1.3486    1.0835 H   0  0  0  0  0  0  0  0  0  0  0  0
    7.3393   -2.2918    2.5163 H   0  0  0  0  0  0  0  0  0  0  0  0
    5.2571   -0.3562    1.5946 H   0  0  0  0  0  0  0  0  0  0  0  0
    6.4999   -0.1772    2.8077 H   0  0  0  0  0  0  0  0  0  0  0  0
    4.1787   -2.1755    2.9887 H   0  0  0  0  0  0  0  0  0  0  0  0
    4.2718   -0.5595    3.7590 H   0  0  0  0  0  0  0  0  0  0  0  0
    4.8050   -3.3179    6.1798 H   0  0  0  0  0  0  0  0  0  0  0  0
    3.4695   -2.6041    5.2233 H   0  0  0  0  0  0  0  0  0  0  0  0
    3.9034   -1.4971    7.6159 H   0  0  0  0  0  0  0  0  0  0  0  0
    3.9882   -0.3536    6.2130 H   0  0  0  0  0  0  0  0  0  0  0  0
    6.3272   -1.9257    7.4008 H   0  0  0  0  0  0  0  0  0  0  0  0
    6.2014   -0.1243    7.4043 H   0  0  0  0  0  0  0  0  0  0  0  0
    7.4637   -1.3681    5.3393 H   0  0  0  0  0  0  0  0  0  0  0  0
    6.2712   -0.0468    5.0059 H   0  0  0  0  0  0  0  0  0  0  0  0
    7.5304   -4.2586    2.6701 H   0  0  0  0  0  0  0  0  0  0  0  0
    9.5770   -5.3219    2.7721 H   0  0  0  0  0  0  0  0  0  0  0  0
   12.7392   -6.8239    0.3161 H   0  0  0  0  0  0  0  0  0  0  0  0
   13.5005   -8.4884   -0.4152 H   0  0  0  0  0  0  0  0  0  0  0  0
   13.4773  -11.4915   -3.7782 H   0  0  0  0  0  0  0  0  0  0  0  0
   13.2395  -10.3512   -5.1583 H   0  0  0  0  0  0  0  0  0  0  0  0
   11.8144  -11.1411   -4.3249 H   0  0  0  0  0  0  0  0  0  0  0  0
   11.1829   -8.3037   -4.0393 H   0  0  0  0  0  0  0  0  0  0  0  0
    7.6234   -4.3858   -1.7032 H   0  0  0  0  0  0  0  0  0  0  0  0
    5.3424   -0.7983   -0.4879 H   0  0  0  0  0  0  0  0  0  0  0  0
    2.0164    1.2697    1.2277 H   0  0  0  0  0  0  0  0  0  0  0  0
  1  2  1  0  0  0  0
  1 37  1  0  0  0  0
  1 38  1  0  0  0  0
  1 39  1  0  0  0  0
  2  3  1  0  0  0  0
  3  4  1  0  0  0  0
  3 35  2  0  0  0  0
  4  5  2  0  0  0  0
  4 40  1  0  0  0  0
  5  6  1  0  0  0  0
  5 41  1  0  0  0  0
  6  7  1  0  0  0  0
  6  9  2  0  0  0  0
  7  8  1  0  0  0  0
  8 42  1  0  0  0  0
  8 43  1  0  0  0  0
  8 44  1  0  0  0  0
  9 10  1  0  0  0  0
  9 35  1  0  0  0  0
 10 11  1  0  0  0  0
 10 19  1  0  0  0  0
 11 12  1  0  0  0  0
 11 45  1  0  0  0  0
 11 46  1  0  0  0  0
 12 13  1  0  0  0  0
 12 47  1  0  0  0  0
 12 48  1  0  0  0  0
 13 14  1  0  0  0  0
 13 49  1  0  0  0  0
 13 50  1  0  0  0  0
 14 15  1  0  0  0  0
 14 18  1  0  0  0  0
 15 16  1  0  0  0  0
 15 51  1  0  0  0  0
 15 52  1  0  0  0  0
 16 17  1  0  0  0  0
 16 53  1  0  0  0  0
 16 54  1  0  0  0  0
 17 18  1  0  0  0  0
 17 55  1  0  0  0  0
 17 56  1  0  0  0  0
 18 57  1  0  0  0  0
 18 58  1  0  0  0  0
 19 20  1  0  0  0  0
 19 34  2  0  0  0  0
 20 21  2  0  0  0  0
 20 59  1  0  0  0  0
 21 22  1  0  0  0  0
 21 60  1  0  0  0  0
 22 23  1  0  0  0  0
 22 33  2  0  0  0  0
 23 24  2  0  0  0  0
 24 25  1  0  0  0  0
 24 61  1  0  0  0  0
 25 26  1  0  0  0  0
 25 32  2  0  0  0  0
 26 27  1  0  0  0  0
 26 31  2  0  0  0  0
 27 28  2  0  0  0  0
 27 62  1  0  0  0  0
 28 29  1  0  0  0  0
 29 30  1  0  0  0  0
 29 31  1  0  0  0  0
 30 63  1  0  0  0  0
 30 64  1  0  0  0  0
 30 65  1  0  0  0  0
 31 66  1  0  0  0  0
 32 33  1  0  0  0  0
 33 34  1  0  0  0  0
 34 67  1  0  0  0  0
 35 68  1  0  0  0  0
 36 69  1  0  0  0  0
M  END
$$$$
