CHEMBL595497
 OpenBabel04072215383D

 44 46  0  0  0  0  0  0  0  0999 V2000
    0.4875    0.4190   -0.7657 C   0  0  0  0  0  0  0  0  0  0  0  0
    1.9563    0.2522   -0.4115 C   0  0  0  0  0  0  0  0  0  0  0  0
    2.8810    0.0759   -1.6251 C   0  0  0  0  0  0  0  0  0  0  0  0
    4.3856    0.0355   -1.3701 C   0  0  0  0  0  0  0  0  0  0  0  0
    5.0747    0.0297   -0.2093 C   0  0  0  0  0  0  0  0  0  0  0  0
    4.5786   -0.1125    1.1337 C   0  0  0  0  0  0  0  0  0  0  0  0
    4.0574   -1.2506    1.6019 C   0  0  0  0  0  0  0  0  0  0  0  0
    3.7663   -1.3251    2.9647 O   0  0  0  0  0  0  0  0  0  0  0  0
    4.2356   -0.1304    3.4542 C   0  0  0  0  0  0  0  0  0  0  0  0
    4.2554    0.1494    4.7111 N   0  0  0  0  0  0  0  0  0  0  0  0
    4.7735    1.3863    4.9564 C   0  0  0  0  0  0  0  0  0  0  0  0
    5.0005    1.6414    6.1960 N   0  0  0  0  0  0  0  0  0  0  0  0
    5.0564    2.2692    3.9565 N   0  0  0  0  0  0  0  0  0  0  0  0
    5.0667    1.9452    2.6186 C   0  0  0  0  0  0  0  0  0  0  0  0
    5.4620    2.8815    1.6914 N   0  0  0  0  0  0  0  0  0  0  0  0
    4.7014    0.6885    2.3075 C   0  0  0  0  0  0  0  0  0  0  0  0
    5.2238   -0.1938   -2.5835 C   0  0  0  0  0  0  0  0  0  0  0  0
    5.4271   -1.5660   -2.8810 C   0  0  0  0  0  0  0  0  0  0  0  0
    6.2876   -1.9897   -3.8961 C   0  0  0  0  0  0  0  0  0  0  0  0
    6.9574   -1.0476   -4.6579 C   0  0  0  0  0  0  0  0  0  0  0  0
    6.7717    0.3076   -4.3844 C   0  0  0  0  0  0  0  0  0  0  0  0
    5.9257    0.7548   -3.3474 C   0  0  0  0  0  0  0  0  0  0  0  0
    6.0106    2.1108   -3.2038 O   0  0  0  0  0  0  0  0  0  0  0  0
    4.9966    2.8306   -2.5315 C   0  0  0  0  0  0  0  0  0  0  0  0
   -0.1117    0.3958    0.1527 H   0  0  0  0  0  0  0  0  0  0  0  0
    0.1382   -0.3904   -1.4130 H   0  0  0  0  0  0  0  0  0  0  0  0
    0.3045    1.3762   -1.2608 H   0  0  0  0  0  0  0  0  0  0  0  0
    2.0148   -0.6385    0.2175 H   0  0  0  0  0  0  0  0  0  0  0  0
    2.2666    1.1199    0.1812 H   0  0  0  0  0  0  0  0  0  0  0  0
    2.6789    0.8983   -2.3232 H   0  0  0  0  0  0  0  0  0  0  0  0
    2.5883   -0.8469   -2.1435 H   0  0  0  0  0  0  0  0  0  0  0  0
    6.1660    0.0069   -0.2489 H   0  0  0  0  0  0  0  0  0  0  0  0
    3.8369   -2.1652    1.0705 H   0  0  0  0  0  0  0  0  0  0  0  0
    4.7173    0.7819    6.6851 H   0  0  0  0  0  0  0  0  0  0  0  0
    5.4051    3.1719    4.2414 H   0  0  0  0  0  0  0  0  0  0  0  0
    6.1544    3.5320    2.0484 H   0  0  0  0  0  0  0  0  0  0  0  0
    5.7253    2.4863    0.7939 H   0  0  0  0  0  0  0  0  0  0  0  0
    4.9354   -2.3303   -2.2801 H   0  0  0  0  0  0  0  0  0  0  0  0
    6.4443   -3.0505   -4.0749 H   0  0  0  0  0  0  0  0  0  0  0  0
    7.6398   -1.3581   -5.4455 H   0  0  0  0  0  0  0  0  0  0  0  0
    7.3213    1.0397   -4.9741 H   0  0  0  0  0  0  0  0  0  0  0  0
    5.3195    3.8771   -2.4996 H   0  0  0  0  0  0  0  0  0  0  0  0
    4.8803    2.5199   -1.4948 H   0  0  0  0  0  0  0  0  0  0  0  0
    4.0527    2.7915   -3.0817 H   0  0  0  0  0  0  0  0  0  0  0  0
  1  2  1  0  0  0  0
  1 25  1  0  0  0  0
  1 26  1  0  0  0  0
  1 27  1  0  0  0  0
  2  3  1  0  0  0  0
  2 28  1  0  0  0  0
  2 29  1  0  0  0  0
  3  4  1  0  0  0  0
  3 30  1  0  0  0  0
  3 31  1  0  0  0  0
  4  5  2  3  0  0  0
  4 17  1  0  0  0  0
  5  6  1  0  0  0  0
  5 32  1  0  0  0  0
  6  7  2  0  0  0  0
  6 16  1  0  0  0  0
  7  8  1  0  0  0  0
  7 33  1  0  0  0  0
  8  9  1  0  0  0  0
  9 10  2  0  0  0  0
  9 16  1  0  0  0  0
 10 11  1  0  0  0  0
 11 12  2  0  0  0  0
 11 13  1  0  0  0  0
 12 34  1  0  0  0  0
 13 14  1  0  0  0  0
 13 35  1  0  0  0  0
 14 15  1  0  0  0  0
 14 16  2  0  0  0  0
 15 36  1  0  0  0  0
 15 37  1  0  0  0  0
 17 18  1  0  0  0  0
 17 22  2  0  0  0  0
 18 19  2  0  0  0  0
 18 38  1  0  0  0  0
 19 20  1  0  0  0  0
 19 39  1  0  0  0  0
 20 21  2  0  0  0  0
 20 40  1  0  0  0  0
 21 22  1  0  0  0  0
 21 41  1  0  0  0  0
 22 23  1  0  0  0  0
 23 24  1  0  0  0  0
 24 42  1  0  0  0  0
 24 43  1  0  0  0  0
 24 44  1  0  0  0  0
M  END
$$$$
