CHEMBL2018777
 OpenBabel04072215363D

 73 75  0  0  0  0  0  0  0  0999 V2000
    2.2883   -3.5354    3.1318 C   0  0  0  0  0  0  0  0  0  0  0  0
    3.1168   -2.4096    3.7129 C   0  0  0  0  0  0  0  0  0  0  0  0
    3.5968   -1.3945    2.6650 C   0  0  0  0  0  0  0  0  0  0  0  0
    4.5600   -0.4414    3.3600 C   0  0  0  0  0  0  0  0  0  0  0  0
    5.2072    0.4757    2.4696 O   0  0  0  0  0  0  0  0  0  0  0  0
    6.5182    0.7649    2.7814 C   0  0  0  0  0  0  0  0  0  0  0  0
    7.0789    0.3750    4.0001 C   0  0  0  0  0  0  0  0  0  0  0  0
    8.4656    0.3336    4.2026 C   0  0  0  0  0  0  0  0  0  0  0  0
    9.0514   -0.2811    5.3233 C   0  0  0  0  0  0  0  0  0  0  0  0
    8.2261   -1.0530    6.1807 N   0  0  0  0  0  0  0  0  0  0  0  0
    8.3676   -1.3185    7.5552 C   0  0  0  0  0  0  0  0  0  0  0  0
    7.5481   -2.2851    8.1509 C   0  0  0  0  0  0  0  0  0  0  0  0
    7.5030   -2.4415    9.5370 C   0  0  0  0  0  0  0  0  0  0  0  0
    8.2406   -1.6041   10.3729 C   0  0  0  0  0  0  0  0  0  0  0  0
    8.1136   -1.6414   11.7790 N   0  0  0  0  0  0  0  0  0  0  0  0
    7.0279   -2.1211   12.4589 C   0  0  0  0  0  0  0  0  0  0  0  0
    6.0434   -2.6673   11.9870 O   0  0  0  0  0  0  0  0  0  0  0  0
    7.1419   -1.7803   13.7720 O   0  0  0  0  0  0  0  0  0  0  0  0
    5.9099   -1.8382   14.5108 C   0  0  0  0  0  0  0  0  0  0  0  0
    5.2669   -0.4642   14.4503 C   0  0  0  0  0  0  0  0  0  0  0  0
    9.0962   -0.6603    9.7818 C   0  0  0  0  0  0  0  0  0  0  0  0
   10.0312    0.4327   10.7472 Cl  0  0  0  0  0  0  0  0  0  0  0  0
    9.1473   -0.5155    8.3926 C   0  0  0  0  0  0  0  0  0  0  0  0
   10.3691   -0.2311    5.5460 N   0  0  0  0  0  0  0  0  0  0  0  0
   11.0933    0.3934    4.6091 C   0  0  0  0  0  0  0  0  0  0  0  0
   10.6329    0.9479    3.4714 N   0  0  0  0  0  0  0  0  0  0  0  0
    9.3139    0.9074    3.2600 C   0  0  0  0  0  0  0  0  0  0  0  0
    8.7377    1.4418    2.0987 C   0  0  0  0  0  0  0  0  0  0  0  0
    7.3535    1.3846    1.8415 C   0  0  0  0  0  0  0  0  0  0  0  0
    6.9379    1.9502    0.6451 O   0  0  0  0  0  0  0  0  0  0  0  0
    5.7847    2.7925    0.8228 C   0  0  0  0  0  0  0  0  0  0  0  0
    5.4676    3.7107   -0.3863 C   0  0  0  0  0  0  0  0  0  0  0  0
    4.1992    4.4699   -0.1941 N   0  0  0  0  0  0  0  0  0  0  0  0
    4.1833    5.2919    1.0264 C   0  0  0  0  0  0  0  0  0  0  0  0
    5.1210    6.4938    1.0316 C   0  0  0  0  0  0  0  0  0  0  0  0
    3.7986    5.2026   -1.4066 C   0  0  0  0  0  0  0  0  0  0  0  0
    2.4287    5.8806   -1.2931 C   0  0  0  0  0  0  0  0  0  0  0  0
    1.9163   -4.1727    3.9415 H   0  0  0  0  0  0  0  0  0  0  0  0
    2.8934   -4.1595    2.4669 H   0  0  0  0  0  0  0  0  0  0  0  0
    1.4309   -3.1507    2.5748 H   0  0  0  0  0  0  0  0  0  0  0  0
    3.9809   -2.8567    4.2229 H   0  0  0  0  0  0  0  0  0  0  0  0
    2.5368   -1.8880    4.4837 H   0  0  0  0  0  0  0  0  0  0  0  0
    2.7582   -0.8472    2.2228 H   0  0  0  0  0  0  0  0  0  0  0  0
    4.1162   -1.9026    1.8436 H   0  0  0  0  0  0  0  0  0  0  0  0
    5.2806   -1.1156    3.8317 H   0  0  0  0  0  0  0  0  0  0  0  0
    4.0422    0.1353    4.1357 H   0  0  0  0  0  0  0  0  0  0  0  0
    6.4492    0.0629    4.8293 H   0  0  0  0  0  0  0  0  0  0  0  0
    7.8163   -1.8258    5.6660 H   0  0  0  0  0  0  0  0  0  0  0  0
    6.9118   -2.9289    7.5438 H   0  0  0  0  0  0  0  0  0  0  0  0
    6.8554   -3.2152    9.9408 H   0  0  0  0  0  0  0  0  0  0  0  0
    8.7220   -1.0438   12.3190 H   0  0  0  0  0  0  0  0  0  0  0  0
    6.1465   -2.1049   15.5453 H   0  0  0  0  0  0  0  0  0  0  0  0
    5.2270   -2.6070   14.1307 H   0  0  0  0  0  0  0  0  0  0  0  0
    5.9303    0.2817   14.9008 H   0  0  0  0  0  0  0  0  0  0  0  0
    4.3083   -0.4501   14.9743 H   0  0  0  0  0  0  0  0  0  0  0  0
    5.1066   -0.1540   13.4117 H   0  0  0  0  0  0  0  0  0  0  0  0
    9.7724    0.2639    7.9647 H   0  0  0  0  0  0  0  0  0  0  0  0
   12.1636    0.4458    4.7829 H   0  0  0  0  0  0  0  0  0  0  0  0
    9.3942    1.9044    1.3642 H   0  0  0  0  0  0  0  0  0  0  0  0
    5.9669    3.4161    1.7037 H   0  0  0  0  0  0  0  0  0  0  0  0
    4.9002    2.1693    0.9701 H   0  0  0  0  0  0  0  0  0  0  0  0
    5.3764    3.0727   -1.2761 H   0  0  0  0  0  0  0  0  0  0  0  0
    6.3132    4.3791   -0.5912 H   0  0  0  0  0  0  0  0  0  0  0  0
    4.3961    4.6706    1.9013 H   0  0  0  0  0  0  0  0  0  0  0  0
    3.1621    5.6350    1.2271 H   0  0  0  0  0  0  0  0  0  0  0  0
    6.1303    6.2370    0.6982 H   0  0  0  0  0  0  0  0  0  0  0  0
    5.2044    6.8905    2.0487 H   0  0  0  0  0  0  0  0  0  0  0  0
    4.7393    7.2957    0.3923 H   0  0  0  0  0  0  0  0  0  0  0  0
    3.7318    4.4965   -2.2436 H   0  0  0  0  0  0  0  0  0  0  0  0
    4.5482    5.9536   -1.6823 H   0  0  0  0  0  0  0  0  0  0  0  0
    1.6467    5.1557   -1.0423 H   0  0  0  0  0  0  0  0  0  0  0  0
    2.1582    6.3506   -2.2444 H   0  0  0  0  0  0  0  0  0  0  0  0
    2.4181    6.6726   -0.5372 H   0  0  0  0  0  0  0  0  0  0  0  0
  1  2  1  0  0  0  0
  1 38  1  0  0  0  0
  1 39  1  0  0  0  0
  1 40  1  0  0  0  0
  2  3  1  0  0  0  0
  2 41  1  0  0  0  0
  2 42  1  0  0  0  0
  3  4  1  0  0  0  0
  3 43  1  0  0  0  0
  3 44  1  0  0  0  0
  4  5  1  0  0  0  0
  4 45  1  0  0  0  0
  4 46  1  0  0  0  0
  5  6  1  0  0  0  0
  6  7  1  0  0  0  0
  6 29  2  0  0  0  0
  7  8  2  0  0  0  0
  7 47  1  0  0  0  0
  8  9  1  0  0  0  0
  8 27  1  0  0  0  0
  9 10  1  0  0  0  0
  9 24  2  0  0  0  0
 10 11  1  0  0  0  0
 10 48  1  0  0  0  0
 11 12  1  0  0  0  0
 11 23  2  0  0  0  0
 12 13  2  0  0  0  0
 12 49  1  0  0  0  0
 13 14  1  0  0  0  0
 13 50  1  0  0  0  0
 14 15  1  0  0  0  0
 14 21  2  0  0  0  0
 15 16  1  0  0  0  0
 15 51  1  0  0  0  0
 16 17  2  0  0  0  0
 16 18  1  0  0  0  0
 18 19  1  0  0  0  0
 19 20  1  0  0  0  0
 19 52  1  0  0  0  0
 19 53  1  0  0  0  0
 20 54  1  0  0  0  0
 20 55  1  0  0  0  0
 20 56  1  0  0  0  0
 21 22  1  0  0  0  0
 21 23  1  0  0  0  0
 23 57  1  0  0  0  0
 24 25  1  0  0  0  0
 25 26  2  0  0  0  0
 25 58  1  0  0  0  0
 26 27  1  0  0  0  0
 27 28  2  0  0  0  0
 28 29  1  0  0  0  0
 28 59  1  0  0  0  0
 29 30  1  0  0  0  0
 30 31  1  0  0  0  0
 31 32  1  0  0  0  0
 31 60  1  0  0  0  0
 31 61  1  0  0  0  0
 32 33  1  0  0  0  0
 32 62  1  0  0  0  0
 32 63  1  0  0  0  0
 33 34  1  0  0  0  0
 33 36  1  0  0  0  0
 34 35  1  0  0  0  0
 34 64  1  0  0  0  0
 34 65  1  0  0  0  0
 35 66  1  0  0  0  0
 35 67  1  0  0  0  0
 35 68  1  0  0  0  0
 36 37  1  0  0  0  0
 36 69  1  0  0  0  0
 36 70  1  0  0  0  0
 37 71  1  0  0  0  0
 37 72  1  0  0  0  0
 37 73  1  0  0  0  0
M  END
$$$$
