CHEMBL365133
 OpenBabel04072215373D

 75 77  0  0  0  0  0  0  0  0999 V2000
    1.0486    4.1285   -2.7812 C   0  0  0  0  0  0  0  0  0  0  0  0
    2.4292    3.7875   -2.8331 O   0  0  0  0  0  0  0  0  0  0  0  0
    2.7382    2.4577   -2.7142 C   0  0  0  0  0  0  0  0  0  0  0  0
    1.8251    1.4354   -2.4589 C   0  0  0  0  0  0  0  0  0  0  0  0
    2.2705    0.1209   -2.3784 C   0  0  0  0  0  0  0  0  0  0  0  0
    1.4612   -0.9702   -2.2023 O   0  0  0  0  0  0  0  0  0  0  0  0
    0.1440   -0.8455   -2.7354 C   0  0  0  0  0  0  0  0  0  0  0  0
    3.6365   -0.1554   -2.4877 C   0  0  0  0  0  0  0  0  0  0  0  0
    4.5856    0.8430   -2.8004 C   0  0  0  0  0  0  0  0  0  0  0  0
    5.9899    0.4759   -3.1474 C   0  0  0  0  0  0  0  0  0  0  0  0
    6.2066   -0.7427   -3.8161 C   0  0  0  0  0  0  0  0  0  0  0  0
    7.4814   -1.1579   -4.2091 C   0  0  0  0  0  0  0  0  0  0  0  0
    7.6994   -2.3963   -4.8004 C   0  0  0  0  0  0  0  0  0  0  0  0
    8.9110   -2.8574   -5.1535 N   0  0  0  0  0  0  0  0  0  0  0  0
    9.9743   -2.0702   -4.9191 C   0  0  0  0  0  0  0  0  0  0  0  0
   11.2572   -2.5976   -5.2280 N   0  0  0  0  0  0  0  0  0  0  0  0
   11.4596   -3.4272   -6.4292 C   0  0  0  0  0  0  0  0  0  0  0  0
   10.4002   -3.4201   -7.5356 C   0  0  0  0  0  0  0  0  0  0  0  0
   10.8420   -4.1861   -8.7903 C   0  0  0  0  0  0  0  0  0  0  0  0
    9.7074   -4.1834   -9.8166 C   0  0  0  0  0  0  0  0  0  0  0  0
   10.0470   -4.9363  -11.0940 C   0  0  0  0  0  0  0  0  0  0  0  0
    8.9390   -4.8731  -11.9857 O   0  0  0  0  0  0  0  0  0  0  0  0
   12.2913   -2.6802   -4.2906 C   0  0  0  0  0  0  0  0  0  0  0  0
   12.0589   -2.2276   -2.8674 C   0  0  0  0  0  0  0  0  0  0  0  0
   13.3937   -3.1615   -4.5782 O   0  0  0  0  0  0  0  0  0  0  0  0
    9.8243   -0.7850   -4.3814 C   0  0  0  0  0  0  0  0  0  0  0  0
    8.5679   -0.3110   -4.0027 C   0  0  0  0  0  0  0  0  0  0  0  0
    8.3861    0.9114   -3.4372 N   0  0  0  0  0  0  0  0  0  0  0  0
    7.1477    1.2550   -2.9648 C   0  0  0  0  0  0  0  0  0  0  0  0
    7.1078    2.5034   -2.2947 N   0  0  0  0  0  0  0  0  0  0  0  0
    7.2114    2.4881   -0.9123 C   0  0  0  0  0  0  0  0  0  0  0  0
    7.3427    1.4774   -0.2343 O   0  0  0  0  0  0  0  0  0  0  0  0
    7.2230    3.7763   -0.3962 N   0  0  0  0  0  0  0  0  0  0  0  0
    7.4969    4.0924    1.0246 C   0  0  0  0  0  0  0  0  0  0  0  0
    8.9531    3.7366    1.3740 C   0  0  0  0  0  0  0  0  0  0  0  0
    7.3222    5.6081    1.2577 C   0  0  0  0  0  0  0  0  0  0  0  0
    6.5347    3.3622    1.9759 C   0  0  0  0  0  0  0  0  0  0  0  0
    4.0966    2.1550   -2.8996 C   0  0  0  0  0  0  0  0  0  0  0  0
    0.9657    5.2106   -2.9157 H   0  0  0  0  0  0  0  0  0  0  0  0
    0.6164    3.8796   -1.8064 H   0  0  0  0  0  0  0  0  0  0  0  0
    0.4943    3.6470   -3.5946 H   0  0  0  0  0  0  0  0  0  0  0  0
    0.7736    1.6491   -2.3199 H   0  0  0  0  0  0  0  0  0  0  0  0
   -0.2524   -1.8532   -2.8959 H   0  0  0  0  0  0  0  0  0  0  0  0
    0.1344   -0.3331   -3.7048 H   0  0  0  0  0  0  0  0  0  0  0  0
   -0.5071   -0.3346   -2.0197 H   0  0  0  0  0  0  0  0  0  0  0  0
    3.9428   -1.1936   -2.3708 H   0  0  0  0  0  0  0  0  0  0  0  0
    5.3656   -1.3941   -4.0482 H   0  0  0  0  0  0  0  0  0  0  0  0
    6.8805   -3.0854   -4.9938 H   0  0  0  0  0  0  0  0  0  0  0  0
   11.6353   -4.4590   -6.0970 H   0  0  0  0  0  0  0  0  0  0  0  0
   12.4052   -3.0852   -6.8737 H   0  0  0  0  0  0  0  0  0  0  0  0
   10.1504   -2.3882   -7.8080 H   0  0  0  0  0  0  0  0  0  0  0  0
    9.4868   -3.9034   -7.1756 H   0  0  0  0  0  0  0  0  0  0  0  0
   11.0995   -5.2195   -8.5257 H   0  0  0  0  0  0  0  0  0  0  0  0
   11.7400   -3.7259   -9.2190 H   0  0  0  0  0  0  0  0  0  0  0  0
    9.4377   -3.1507  -10.0707 H   0  0  0  0  0  0  0  0  0  0  0  0
    8.8056   -4.6245   -9.3727 H   0  0  0  0  0  0  0  0  0  0  0  0
   10.2687   -5.9892  -10.8947 H   0  0  0  0  0  0  0  0  0  0  0  0
   10.9088   -4.4886  -11.5976 H   0  0  0  0  0  0  0  0  0  0  0  0
    8.1701   -5.2522  -11.5257 H   0  0  0  0  0  0  0  0  0  0  0  0
   11.0203   -2.3258   -2.5483 H   0  0  0  0  0  0  0  0  0  0  0  0
   12.4053   -1.1982   -2.7539 H   0  0  0  0  0  0  0  0  0  0  0  0
   12.6447   -2.8711   -2.2012 H   0  0  0  0  0  0  0  0  0  0  0  0
   10.6856   -0.1372   -4.2546 H   0  0  0  0  0  0  0  0  0  0  0  0
    7.8449    3.1025   -2.6417 H   0  0  0  0  0  0  0  0  0  0  0  0
    6.6117    4.4111   -0.8928 H   0  0  0  0  0  0  0  0  0  0  0  0
    9.6546    4.2905    0.7383 H   0  0  0  0  0  0  0  0  0  0  0  0
    9.1598    2.6709    1.2364 H   0  0  0  0  0  0  0  0  0  0  0  0
    9.1830    3.9858    2.4165 H   0  0  0  0  0  0  0  0  0  0  0  0
    8.0085    6.1950    0.6373 H   0  0  0  0  0  0  0  0  0  0  0  0
    7.5178    5.8710    2.3058 H   0  0  0  0  0  0  0  0  0  0  0  0
    6.3026    5.9336    1.0225 H   0  0  0  0  0  0  0  0  0  0  0  0
    6.6672    2.2773    1.9474 H   0  0  0  0  0  0  0  0  0  0  0  0
    5.4914    3.5774    1.7210 H   0  0  0  0  0  0  0  0  0  0  0  0
    6.6984    3.6727    3.0149 H   0  0  0  0  0  0  0  0  0  0  0  0
    4.7606    2.9734   -3.1644 H   0  0  0  0  0  0  0  0  0  0  0  0
  1  2  1  0  0  0  0
  1 39  1  0  0  0  0
  1 40  1  0  0  0  0
  1 41  1  0  0  0  0
  2  3  1  0  0  0  0
  3  4  1  0  0  0  0
  3 38  2  0  0  0  0
  4  5  2  0  0  0  0
  4 42  1  0  0  0  0
  5  6  1  0  0  0  0
  5  8  1  0  0  0  0
  6  7  1  0  0  0  0
  7 43  1  0  0  0  0
  7 44  1  0  0  0  0
  7 45  1  0  0  0  0
  8  9  2  0  0  0  0
  8 46  1  0  0  0  0
  9 10  1  0  0  0  0
  9 38  1  0  0  0  0
 10 11  1  0  0  0  0
 10 29  2  0  0  0  0
 11 12  2  0  0  0  0
 11 47  1  0  0  0  0
 12 13  1  0  0  0  0
 12 27  1  0  0  0  0
 13 14  2  0  0  0  0
 13 48  1  0  0  0  0
 14 15  1  0  0  0  0
 15 16  1  0  0  0  0
 15 26  2  0  0  0  0
 16 17  1  0  0  0  0
 16 23  1  0  0  0  0
 17 18  1  0  0  0  0
 17 49  1  0  0  0  0
 17 50  1  0  0  0  0
 18 19  1  0  0  0  0
 18 51  1  0  0  0  0
 18 52  1  0  0  0  0
 19 20  1  0  0  0  0
 19 53  1  0  0  0  0
 19 54  1  0  0  0  0
 20 21  1  0  0  0  0
 20 55  1  0  0  0  0
 20 56  1  0  0  0  0
 21 22  1  0  0  0  0
 21 57  1  0  0  0  0
 21 58  1  0  0  0  0
 22 59  1  0  0  0  0
 23 24  1  0  0  0  0
 23 25  2  0  0  0  0
 24 60  1  0  0  0  0
 24 61  1  0  0  0  0
 24 62  1  0  0  0  0
 26 27  1  0  0  0  0
 26 63  1  0  0  0  0
 27 28  2  0  0  0  0
 28 29  1  0  0  0  0
 29 30  1  0  0  0  0
 30 31  1  0  0  0  0
 30 64  1  0  0  0  0
 31 32  2  0  0  0  0
 31 33  1  0  0  0  0
 33 34  1  0  0  0  0
 33 65  1  0  0  0  0
 34 35  1  0  0  0  0
 34 36  1  0  0  0  0
 34 37  1  0  0  0  0
 35 66  1  0  0  0  0
 35 67  1  0  0  0  0
 35 68  1  0  0  0  0
 36 69  1  0  0  0  0
 36 70  1  0  0  0  0
 36 71  1  0  0  0  0
 37 72  1  0  0  0  0
 37 73  1  0  0  0  0
 37 74  1  0  0  0  0
 38 75  1  0  0  0  0
M  END
$$$$
