CHEMBL1983006
 OpenBabel04072215363D

 34 35  0  0  0  0  0  0  0  0999 V2000
    1.1251    0.8316    0.5731 C   0  0  0  0  0  0  0  0  0  0  0  0
    2.3482    0.2179    0.1526 O   0  0  0  0  0  0  0  0  0  0  0  0
    3.1673    0.9907   -0.6405 C   0  0  0  0  0  0  0  0  0  0  0  0
    2.9463    2.3573   -0.8655 C   0  0  0  0  0  0  0  0  0  0  0  0
    3.7791    3.1223   -1.7008 C   0  0  0  0  0  0  0  0  0  0  0  0
    3.3707    4.5532   -1.8536 C   0  0  0  0  0  0  0  0  0  0  0  0
    2.3735    4.9959   -1.3032 O   0  0  0  0  0  0  0  0  0  0  0  0
    4.1434    5.3411   -2.6210 O   0  0  0  0  0  0  0  0  0  0  0  0
    4.8677    2.4883   -2.3054 C   0  0  0  0  0  0  0  0  0  0  0  0
    5.9679    3.2759   -3.3817 Cl  0  0  0  0  0  0  0  0  0  0  0  0
    5.1191    1.1321   -2.0614 C   0  0  0  0  0  0  0  0  0  0  0  0
    4.2909    0.3789   -1.2252 C   0  0  0  0  0  0  0  0  0  0  0  0
    4.5459   -0.9881   -0.9771 N   0  0  0  0  0  0  0  0  0  0  0  0
    5.7079   -1.6810   -1.1865 C   0  0  0  0  0  0  0  0  0  0  0  0
    6.7713   -1.2031   -1.5796 O   0  0  0  0  0  0  0  0  0  0  0  0
    5.7045   -3.0105   -0.8610 N   0  0  0  0  0  0  0  0  0  0  0  0
    4.6079   -3.8255   -0.5898 C   0  0  0  0  0  0  0  0  0  0  0  0
    4.8070   -5.1432   -0.1844 C   0  0  0  0  0  0  0  0  0  0  0  0
    3.7871   -6.0075    0.0522 N   0  0  0  0  0  0  0  0  0  0  0  0
    2.5428   -5.5053   -0.1536 C   0  0  0  0  0  0  0  0  0  0  0  0
    1.4376   -6.3830    0.0622 C   0  0  0  0  0  0  0  0  0  0  0  0
    0.5053   -7.0610    0.2197 N   0  0  0  0  0  0  0  0  0  0  0  0
    2.3366   -4.1985   -0.5558 C   0  0  0  0  0  0  0  0  0  0  0  0
    3.3594   -3.3336   -0.7589 N   0  0  0  0  0  0  0  0  0  0  0  0
    0.5213    0.0860    1.0978 H   0  0  0  0  0  0  0  0  0  0  0  0
    0.5422    1.1804   -0.2880 H   0  0  0  0  0  0  0  0  0  0  0  0
    1.3150    1.6529    1.2745 H   0  0  0  0  0  0  0  0  0  0  0  0
    2.1123    2.8647   -0.3861 H   0  0  0  0  0  0  0  0  0  0  0  0
    4.9193    4.9086   -3.0296 H   0  0  0  0  0  0  0  0  0  0  0  0
    5.9583    0.6634   -2.5672 H   0  0  0  0  0  0  0  0  0  0  0  0
    3.7991   -1.5031   -0.5142 H   0  0  0  0  0  0  0  0  0  0  0  0
    6.6247   -3.4285   -0.9066 H   0  0  0  0  0  0  0  0  0  0  0  0
    5.7992   -5.5516   -0.0230 H   0  0  0  0  0  0  0  0  0  0  0  0
    1.3456   -3.7953   -0.7393 H   0  0  0  0  0  0  0  0  0  0  0  0
  1  2  1  0  0  0  0
  1 25  1  0  0  0  0
  1 26  1  0  0  0  0
  1 27  1  0  0  0  0
  2  3  1  0  0  0  0
  3  4  1  0  0  0  0
  3 12  2  0  0  0  0
  4  5  2  0  0  0  0
  4 28  1  0  0  0  0
  5  6  1  0  0  0  0
  5  9  1  0  0  0  0
  6  7  2  0  0  0  0
  6  8  1  0  0  0  0
  8 29  1  0  0  0  0
  9 10  1  0  0  0  0
  9 11  2  0  0  0  0
 11 12  1  0  0  0  0
 11 30  1  0  0  0  0
 12 13  1  0  0  0  0
 13 14  1  0  0  0  0
 13 31  1  0  0  0  0
 14 15  2  0  0  0  0
 14 16  1  0  0  0  0
 16 17  1  0  0  0  0
 16 32  1  0  0  0  0
 17 18  1  0  0  0  0
 17 24  2  0  0  0  0
 18 19  2  0  0  0  0
 18 33  1  0  0  0  0
 19 20  1  0  0  0  0
 20 21  1  0  0  0  0
 20 23  2  0  0  0  0
 21 22  3  0  0  0  0
 23 24  1  0  0  0  0
 23 34  1  0  0  0  0
M  END
$$$$
