CHEMBL3104852
 OpenBabel04072215363D

 26 27  0  0  1  0  0  0  0  0999 V2000
    0.8533   -0.1704   -0.0278 C   0  0  0  0  0  0  0  0  0  0  0  0
    2.2230   -0.2655   -0.3659 O   0  0  0  0  0  0  0  0  0  0  0  0
    2.9102   -1.2901    0.3317 C   0  0  3  0  0  0  0  0  0  0  0  0
    2.3797   -2.6087    0.0925 O   0  0  0  0  0  0  0  0  0  0  0  0
    3.3248   -3.4370   -0.4259 C   0  0  0  0  0  0  0  0  0  0  0  0
    3.2264   -4.6285   -0.6703 O   0  0  0  0  0  0  0  0  0  0  0  0
    4.5131   -2.6477   -0.6659 C   0  0  0  0  0  0  0  0  0  0  0  0
    5.6869   -3.0313   -1.2790 C   0  0  0  0  0  0  0  0  0  0  0  0
    5.9346   -4.2968   -1.7209 O   0  0  0  0  0  0  0  0  0  0  0  0
    6.6505   -2.0510   -1.4681 C   0  0  0  0  0  0  0  0  0  0  0  0
    7.8299   -2.3490   -2.0999 O   0  0  0  0  0  0  0  0  0  0  0  0
    6.4337   -0.7317   -1.0403 C   0  0  0  0  0  0  0  0  0  0  0  0
    7.4062    0.1986   -1.2831 O   0  0  0  0  0  0  0  0  0  0  0  0
    5.2464   -0.3577   -0.3999 C   0  0  0  0  0  0  0  0  0  0  0  0
    4.9758    1.0517    0.0318 C   0  0  0  0  0  0  0  0  0  0  0  0
    4.2841   -1.3563   -0.2284 C   0  0  0  0  0  0  0  0  0  0  0  0
    0.4950    0.8076   -0.3624 H   0  0  0  0  0  0  0  0  0  0  0  0
    0.6908   -0.2503    1.0510 H   0  0  0  0  0  0  0  0  0  0  0  0
    0.2920   -0.9419   -0.5602 H   0  0  0  0  0  0  0  0  0  0  0  0
    2.9265   -1.1030    1.4118 H   0  0  0  0  0  0  0  0  0  0  0  0
    5.1503   -4.8538   -1.5217 H   0  0  0  0  0  0  0  0  0  0  0  0
    7.7571   -3.2997   -2.3257 H   0  0  0  0  0  0  0  0  0  0  0  0
    8.1028   -0.2864   -1.7703 H   0  0  0  0  0  0  0  0  0  0  0  0
    5.8368    1.7078   -0.1209 H   0  0  0  0  0  0  0  0  0  0  0  0
    4.7278    1.0778    1.0981 H   0  0  0  0  0  0  0  0  0  0  0  0
    4.1427    1.4711   -0.5411 H   0  0  0  0  0  0  0  0  0  0  0  0
  1  2  1  0  0  0  0
  1 17  1  0  0  0  0
  1 18  1  0  0  0  0
  1 19  1  0  0  0  0
  2  3  1  0  0  0  0
  3  4  1  0  0  0  0
  3 16  1  0  0  0  0
  3 20  1  0  0  0  0
  4  5  1  0  0  0  0
  5  6  2  0  0  0  0
  5  7  1  0  0  0  0
  7  8  1  0  0  0  0
  7 16  2  0  0  0  0
  8  9  1  0  0  0  0
  8 10  2  0  0  0  0
  9 21  1  0  0  0  0
 10 11  1  0  0  0  0
 10 12  1  0  0  0  0
 11 22  1  0  0  0  0
 12 13  1  0  0  0  0
 12 14  2  0  0  0  0
 13 23  1  0  0  0  0
 14 15  1  0  0  0  0
 14 16  1  0  0  0  0
 15 24  1  0  0  0  0
 15 25  1  0  0  0  0
 15 26  1  0  0  0  0
M  END
$$$$
