CHEMBL253429
 OpenBabel04072215363D

 50 55  0  0  0  0  0  0  0  0999 V2000
    2.6837    0.7553    0.3395 N   0  0  0  0  0  0  0  0  0  0  0  0
    1.3128    0.8377    0.6096 C   0  0  0  0  0  0  0  0  0  0  0  0
    0.5846    1.9299    0.1520 C   0  0  0  0  0  0  0  0  0  0  0  0
   -0.8063    1.9878    0.3090 C   0  0  0  0  0  0  0  0  0  0  0  0
   -1.5160    0.9168    0.8622 C   0  0  0  0  0  0  0  0  0  0  0  0
   -2.9112    0.9222    1.0369 N   0  0  0  0  0  0  0  0  0  0  0  0
   -3.8048    1.8202    0.4906 C   0  0  0  0  0  0  0  0  0  0  0  0
   -3.5353    2.6546   -0.3380 O   0  0  0  0  0  0  0  0  0  0  0  0
   -5.1109    1.7947    0.9145 N   0  0  0  0  0  0  0  0  0  0  0  0
   -5.9547    0.9320    1.6912 C   0  0  0  0  0  0  0  0  0  0  0  0
   -5.5703   -0.3244    2.1048 C   0  0  0  0  0  0  0  0  0  0  0  0
   -6.3200   -1.4170    1.6191 C   0  0  0  0  0  0  0  0  0  0  0  0
   -7.2299   -1.1949    0.5674 C   0  0  0  0  0  0  0  0  0  0  0  0
   -7.5455    0.1164    0.3544 C   0  0  0  0  0  0  0  0  0  0  0  0
   -7.2976    0.9591    1.4242 C   0  0  0  0  0  0  0  0  0  0  0  0
   -8.2212    2.1001    1.2468 C   0  0  0  0  0  0  0  0  0  0  0  0
   -8.8965    2.6526    2.0953 O   0  0  0  0  0  0  0  0  0  0  0  0
   -8.3412    2.1873   -0.1710 C   0  0  0  0  0  0  0  0  0  0  0  0
   -7.9225    0.9844   -0.7659 C   0  0  0  0  0  0  0  0  0  0  0  0
   -7.2067    1.2710   -1.8737 N   0  0  0  0  0  0  0  0  0  0  0  0
   -7.2369    2.6426   -1.9478 N   0  0  0  0  0  0  0  0  0  0  0  0
   -7.9508    3.2515   -0.9375 C   0  0  0  0  0  0  0  0  0  0  0  0
   -8.0362    4.6572   -0.6276 C   0  0  0  0  0  0  0  0  0  0  0  0
   -6.9426    5.5325   -0.7893 C   0  0  0  0  0  0  0  0  0  0  0  0
   -7.1686    6.9012   -0.9237 C   0  0  0  0  0  0  0  0  0  0  0  0
   -8.4798    7.3210   -0.8996 C   0  0  0  0  0  0  0  0  0  0  0  0
   -9.5085    6.4823   -0.5333 C   0  0  0  0  0  0  0  0  0  0  0  0
   -9.3081    5.1530   -0.3066 C   0  0  0  0  0  0  0  0  0  0  0  0
  -10.7303    7.0678   -0.6711 O   0  0  0  0  0  0  0  0  0  0  0  0
  -10.3433    8.1276   -1.5629 C   0  0  0  0  0  0  0  0  0  0  0  0
   -8.9589    8.5067   -1.3748 O   0  0  0  0  0  0  0  0  0  0  0  0
   -0.7859   -0.2034    1.2758 C   0  0  0  0  0  0  0  0  0  0  0  0
    0.6119   -0.2511    1.1317 C   0  0  0  0  0  0  0  0  0  0  0  0
    3.1324    1.6580    0.2259 H   0  0  0  0  0  0  0  0  0  0  0  0
    3.1979    0.1521    0.9740 H   0  0  0  0  0  0  0  0  0  0  0  0
    1.0885    2.7685   -0.3231 H   0  0  0  0  0  0  0  0  0  0  0  0
   -1.3093    2.8825   -0.0337 H   0  0  0  0  0  0  0  0  0  0  0  0
   -3.3097    0.0773    1.4137 H   0  0  0  0  0  0  0  0  0  0  0  0
   -5.5945    2.4203    0.2912 H   0  0  0  0  0  0  0  0  0  0  0  0
   -4.6944   -0.4762    2.7215 H   0  0  0  0  0  0  0  0  0  0  0  0
   -6.1065   -2.4204    1.9732 H   0  0  0  0  0  0  0  0  0  0  0  0
   -7.6762   -2.0038    0.0043 H   0  0  0  0  0  0  0  0  0  0  0  0
   -6.6268    3.1127   -2.6172 H   0  0  0  0  0  0  0  0  0  0  0  0
   -5.9303    5.1464   -0.8756 H   0  0  0  0  0  0  0  0  0  0  0  0
   -6.3603    7.5818   -1.1602 H   0  0  0  0  0  0  0  0  0  0  0  0
  -10.1448    4.5029   -0.0735 H   0  0  0  0  0  0  0  0  0  0  0  0
  -10.9921    8.9937   -1.4190 H   0  0  0  0  0  0  0  0  0  0  0  0
  -10.4757    7.7608   -2.5956 H   0  0  0  0  0  0  0  0  0  0  0  0
   -1.2878   -1.0709    1.7055 H   0  0  0  0  0  0  0  0  0  0  0  0
    1.1437   -1.1509    1.4281 H   0  0  0  0  0  0  0  0  0  0  0  0
  1  2  1  0  0  0  0
  1 34  1  0  0  0  0
  1 35  1  0  0  0  0
  2  3  1  0  0  0  0
  2 33  2  0  0  0  0
  3  4  2  0  0  0  0
  3 36  1  0  0  0  0
  4  5  1  0  0  0  0
  4 37  1  0  0  0  0
  5  6  1  0  0  0  0
  5 32  2  0  0  0  0
  6  7  1  0  0  0  0
  6 38  1  0  0  0  0
  7  8  2  0  0  0  0
  7  9  1  0  0  0  0
  9 10  1  0  0  0  0
  9 39  1  0  0  0  0
 10 11  1  0  0  0  0
 10 15  2  0  0  0  0
 11 12  2  0  0  0  0
 11 40  1  0  0  0  0
 12 13  1  0  0  0  0
 12 41  1  0  0  0  0
 13 14  2  0  0  0  0
 13 42  1  0  0  0  0
 14 15  1  0  0  0  0
 14 19  1  0  0  0  0
 15 16  1  0  0  0  0
 16 17  2  0  0  0  0
 16 18  1  0  0  0  0
 18 19  1  0  0  0  0
 18 22  2  0  0  0  0
 19 20  2  0  0  0  0
 20 21  1  0  0  0  0
 21 22  1  0  0  0  0
 21 43  1  0  0  0  0
 22 23  1  0  0  0  0
 23 24  1  0  0  0  0
 23 28  2  0  0  0  0
 24 25  2  0  0  0  0
 24 44  1  0  0  0  0
 25 26  1  0  0  0  0
 25 45  1  0  0  0  0
 26 27  2  0  0  0  0
 26 31  1  0  0  0  0
 27 28  1  0  0  0  0
 27 29  1  0  0  0  0
 28 46  1  0  0  0  0
 29 30  1  0  0  0  0
 30 31  1  0  0  0  0
 30 47  1  0  0  0  0
 30 48  1  0  0  0  0
 32 33  1  0  0  0  0
 32 49  1  0  0  0  0
 33 50  1  0  0  0  0
M  END
$$$$
