CHEMBL2011293
 OpenBabel04072215363D

 40 43  0  0  0  0  0  0  0  0999 V2000
    1.2371    0.3379    0.0402 N   0  0  0  0  0  0  0  0  0  0  0  0
    2.5842    0.1033    0.0035 C   0  0  0  0  0  0  0  0  0  0  0  0
    3.2729   -1.0979   -0.0342 C   0  0  0  0  0  0  0  0  0  0  0  0
    2.6485   -2.4213    0.0249 C   0  0  0  0  0  0  0  0  0  0  0  0
    3.1119   -3.4603   -0.8053 C   0  0  0  0  0  0  0  0  0  0  0  0
    2.6751   -4.7722   -0.6131 C   0  0  0  0  0  0  0  0  0  0  0  0
    1.7059   -5.0354    0.3444 C   0  0  0  0  0  0  0  0  0  0  0  0
    1.2995   -6.2957    0.5411 F   0  0  0  0  0  0  0  0  0  0  0  0
    1.1623   -4.0123    1.1105 C   0  0  0  0  0  0  0  0  0  0  0  0
    1.6479   -2.7080    0.9647 C   0  0  0  0  0  0  0  0  0  0  0  0
    4.6546   -0.7325   -0.1716 C   0  0  0  0  0  0  0  0  0  0  0  0
    5.8311   -1.6239   -0.2419 C   0  0  0  0  0  0  0  0  0  0  0  0
    6.9207   -1.3062   -1.0539 C   0  0  0  0  0  0  0  0  0  0  0  0
    7.9091   -2.2605   -1.2361 C   0  0  0  0  0  0  0  0  0  0  0  0
    7.8835   -3.4917   -0.6810 N   0  0  0  0  0  0  0  0  0  0  0  0
    6.8573   -3.7564    0.1494 C   0  0  0  0  0  0  0  0  0  0  0  0
    5.8522   -2.8488    0.4366 C   0  0  0  0  0  0  0  0  0  0  0  0
    4.7878    0.5934   -0.3427 N   0  0  0  0  0  0  0  0  0  0  0  0
    3.5526    1.1074   -0.1090 N   0  0  0  0  0  0  0  0  0  0  0  0
    3.3662    2.5228   -0.0537 C   0  0  0  0  0  0  0  0  0  0  0  0
    4.2146    3.3623   -0.7913 C   0  0  0  0  0  0  0  0  0  0  0  0
    4.0075    4.7472   -0.7879 C   0  0  0  0  0  0  0  0  0  0  0  0
    2.9836    5.2951   -0.0184 C   0  0  0  0  0  0  0  0  0  0  0  0
    2.7328    6.9984   -0.0103 Cl  0  0  0  0  0  0  0  0  0  0  0  0
    2.1620    4.4736    0.7497 C   0  0  0  0  0  0  0  0  0  0  0  0
    2.3462    3.0858    0.7300 C   0  0  0  0  0  0  0  0  0  0  0  0
    0.6080   -0.4332   -0.1731 H   0  0  0  0  0  0  0  0  0  0  0  0
    0.8738    1.2136   -0.3322 H   0  0  0  0  0  0  0  0  0  0  0  0
    3.8670   -3.2709   -1.5645 H   0  0  0  0  0  0  0  0  0  0  0  0
    3.1035   -5.5861   -1.1891 H   0  0  0  0  0  0  0  0  0  0  0  0
    0.3899   -4.2377    1.8371 H   0  0  0  0  0  0  0  0  0  0  0  0
    1.2556   -1.9288    1.6145 H   0  0  0  0  0  0  0  0  0  0  0  0
    6.9899   -0.3488   -1.5577 H   0  0  0  0  0  0  0  0  0  0  0  0
    8.7660   -2.0629   -1.8731 H   0  0  0  0  0  0  0  0  0  0  0  0
    6.8446   -4.7561    0.5752 H   0  0  0  0  0  0  0  0  0  0  0  0
    5.0710   -3.1352    1.1316 H   0  0  0  0  0  0  0  0  0  0  0  0
    5.0120    2.9490   -1.4064 H   0  0  0  0  0  0  0  0  0  0  0  0
    4.6452    5.3894   -1.3906 H   0  0  0  0  0  0  0  0  0  0  0  0
    1.3768    4.9047    1.3706 H   0  0  0  0  0  0  0  0  0  0  0  0
    1.7238    2.4736    1.3747 H   0  0  0  0  0  0  0  0  0  0  0  0
  1  2  1  0  0  0  0
  1 27  1  0  0  0  0
  1 28  1  0  0  0  0
  2  3  2  0  0  0  0
  2 19  1  0  0  0  0
  3  4  1  0  0  0  0
  3 11  1  0  0  0  0
  4  5  1  0  0  0  0
  4 10  2  0  0  0  0
  5  6  2  0  0  0  0
  5 29  1  0  0  0  0
  6  7  1  0  0  0  0
  6 30  1  0  0  0  0
  7  8  1  0  0  0  0
  7  9  2  0  0  0  0
  9 10  1  0  0  0  0
  9 31  1  0  0  0  0
 10 32  1  0  0  0  0
 11 12  1  0  0  0  0
 11 18  2  0  0  0  0
 12 13  1  0  0  0  0
 12 17  2  0  0  0  0
 13 14  2  0  0  0  0
 13 33  1  0  0  0  0
 14 15  1  0  0  0  0
 14 34  1  0  0  0  0
 15 16  2  0  0  0  0
 16 17  1  0  0  0  0
 16 35  1  0  0  0  0
 17 36  1  0  0  0  0
 18 19  1  0  0  0  0
 19 20  1  0  0  0  0
 20 21  1  0  0  0  0
 20 26  2  0  0  0  0
 21 22  2  0  0  0  0
 21 37  1  0  0  0  0
 22 23  1  0  0  0  0
 22 38  1  0  0  0  0
 23 24  1  0  0  0  0
 23 25  2  0  0  0  0
 25 26  1  0  0  0  0
 25 39  1  0  0  0  0
 26 40  1  0  0  0  0
M  END
$$$$
