CHEMBL529217
 OpenBabel04072215383D

 57 60  0  0  0  0  0  0  0  0999 V2000
    7.7370   -1.3643    4.3313 C   0  0  0  0  0  0  0  0  0  0  0  0
    6.4387   -0.6550    4.6604 C   0  0  0  0  0  0  0  0  0  0  0  0
    6.3049    0.4449    3.7717 O   0  0  0  0  0  0  0  0  0  0  0  0
    5.1035    1.1700    4.0022 C   0  0  0  0  0  0  0  0  0  0  0  0
    5.0471    2.2703    3.0486 N   0  0  0  0  0  0  0  0  0  0  0  0
    4.9977    3.5939    3.4216 C   0  0  0  0  0  0  0  0  0  0  0  0
    4.9639    4.3507    2.2737 C   0  0  0  0  0  0  0  0  0  0  0  0
    4.8712    5.7666    2.2569 C   0  0  0  0  0  0  0  0  0  0  0  0
    5.8540    6.6720    2.2635 C   0  0  0  0  0  0  0  0  0  0  0  0
    7.3002    6.4631    2.2643 C   0  0  0  0  0  0  0  0  0  0  0  0
    7.9978    6.3447    1.0618 C   0  0  0  0  0  0  0  0  0  0  0  0
    9.3970    6.2139    1.0436 C   0  0  0  0  0  0  0  0  0  0  0  0
   10.1100    6.1492   -0.1255 O   0  0  0  0  0  0  0  0  0  0  0  0
    9.4259    6.2170   -1.3662 C   0  0  0  0  0  0  0  0  0  0  0  0
   10.1182    6.1679    2.2612 C   0  0  0  0  0  0  0  0  0  0  0  0
   11.4790    6.0479    2.3762 O   0  0  0  0  0  0  0  0  0  0  0  0
   12.3133    5.9672    1.2344 C   0  0  0  0  0  0  0  0  0  0  0  0
    9.4048    6.2588    3.4794 C   0  0  0  0  0  0  0  0  0  0  0  0
    9.8966    6.2408    4.7638 O   0  0  0  0  0  0  0  0  0  0  0  0
   11.2960    6.1125    4.9697 C   0  0  0  0  0  0  0  0  0  0  0  0
    8.0079    6.4052    3.4640 C   0  0  0  0  0  0  0  0  0  0  0  0
    5.1807    7.9934    2.3485 C   0  0  0  0  0  0  0  0  0  0  0  0
    5.7120    9.0824    2.4031 O   0  0  0  0  0  0  0  0  0  0  0  0
    3.8235    7.7609    2.3643 N   0  0  0  0  0  0  0  0  0  0  0  0
    3.5032    6.3693    2.3009 C   0  0  0  0  0  0  0  0  0  0  0  0
    5.0088    3.4664    1.1611 C   0  0  0  0  0  0  0  0  0  0  0  0
    5.0146    3.6492   -0.2387 C   0  0  0  0  0  0  0  0  0  0  0  0
    5.0001    2.5377   -1.0852 C   0  0  0  0  0  0  0  0  0  0  0  0
    4.9822    1.2511   -0.5585 C   0  0  0  0  0  0  0  0  0  0  0  0
    4.9964    1.0386    0.8242 C   0  0  0  0  0  0  0  0  0  0  0  0
    5.0157    2.1618    1.6701 C   0  0  0  0  0  0  0  0  0  0  0  0
    7.8899   -2.2239    4.9888 H   0  0  0  0  0  0  0  0  0  0  0  0
    8.5862   -0.6812    4.4369 H   0  0  0  0  0  0  0  0  0  0  0  0
    7.7350   -1.7090    3.2915 H   0  0  0  0  0  0  0  0  0  0  0  0
    6.4599   -0.2944    5.6940 H   0  0  0  0  0  0  0  0  0  0  0  0
    5.5947   -1.3417    4.5342 H   0  0  0  0  0  0  0  0  0  0  0  0
    5.0991    1.5997    5.0100 H   0  0  0  0  0  0  0  0  0  0  0  0
    4.2230    0.5364    3.8594 H   0  0  0  0  0  0  0  0  0  0  0  0
    4.9881    3.8749    4.4668 H   0  0  0  0  0  0  0  0  0  0  0  0
    7.4288    6.3875    0.1393 H   0  0  0  0  0  0  0  0  0  0  0  0
   10.1760    6.1219   -2.1574 H   0  0  0  0  0  0  0  0  0  0  0  0
    8.9318    7.1856   -1.4915 H   0  0  0  0  0  0  0  0  0  0  0  0
    8.7212    5.3874   -1.4769 H   0  0  0  0  0  0  0  0  0  0  0  0
   13.3378    5.8148    1.5885 H   0  0  0  0  0  0  0  0  0  0  0  0
   12.3047    6.9059    0.6721 H   0  0  0  0  0  0  0  0  0  0  0  0
   12.0640    5.1017    0.6136 H   0  0  0  0  0  0  0  0  0  0  0  0
   11.4759    6.0945    6.0490 H   0  0  0  0  0  0  0  0  0  0  0  0
   11.8372    6.9771    4.5713 H   0  0  0  0  0  0  0  0  0  0  0  0
   11.6719    5.1651    4.5699 H   0  0  0  0  0  0  0  0  0  0  0  0
    7.4823    6.4967    4.4130 H   0  0  0  0  0  0  0  0  0  0  0  0
    3.1610    8.5233    2.4296 H   0  0  0  0  0  0  0  0  0  0  0  0
    2.9128    6.1859    1.3988 H   0  0  0  0  0  0  0  0  0  0  0  0
    2.9379    6.0930    3.1957 H   0  0  0  0  0  0  0  0  0  0  0  0
    5.0263    4.6484   -0.6602 H   0  0  0  0  0  0  0  0  0  0  0  0
    4.9930    2.6832   -2.1625 H   0  0  0  0  0  0  0  0  0  0  0  0
    4.9588    0.3968   -1.2313 H   0  0  0  0  0  0  0  0  0  0  0  0
    4.9909    0.0272    1.2192 H   0  0  0  0  0  0  0  0  0  0  0  0
  1  2  1  0  0  0  0
  1 32  1  0  0  0  0
  1 33  1  0  0  0  0
  1 34  1  0  0  0  0
  2  3  1  0  0  0  0
  2 35  1  0  0  0  0
  2 36  1  0  0  0  0
  3  4  1  0  0  0  0
  4  5  1  0  0  0  0
  4 37  1  0  0  0  0
  4 38  1  0  0  0  0
  5  6  1  0  0  0  0
  5 31  1  0  0  0  0
  6  7  2  0  0  0  0
  6 39  1  0  0  0  0
  7  8  1  0  0  0  0
  7 26  1  0  0  0  0
  8  9  2  0  0  0  0
  8 25  1  0  0  0  0
  9 10  1  0  0  0  0
  9 22  1  0  0  0  0
 10 11  1  0  0  0  0
 10 21  2  0  0  0  0
 11 12  2  0  0  0  0
 11 40  1  0  0  0  0
 12 13  1  0  0  0  0
 12 15  1  0  0  0  0
 13 14  1  0  0  0  0
 14 41  1  0  0  0  0
 14 42  1  0  0  0  0
 14 43  1  0  0  0  0
 15 16  1  0  0  0  0
 15 18  2  0  0  0  0
 16 17  1  0  0  0  0
 17 44  1  0  0  0  0
 17 45  1  0  0  0  0
 17 46  1  0  0  0  0
 18 19  1  0  0  0  0
 18 21  1  0  0  0  0
 19 20  1  0  0  0  0
 20 47  1  0  0  0  0
 20 48  1  0  0  0  0
 20 49  1  0  0  0  0
 21 50  1  0  0  0  0
 22 23  2  0  0  0  0
 22 24  1  0  0  0  0
 24 25  1  0  0  0  0
 24 51  1  0  0  0  0
 25 52  1  0  0  0  0
 25 53  1  0  0  0  0
 26 27  1  0  0  0  0
 26 31  2  0  0  0  0
 27 28  2  0  0  0  0
 27 54  1  0  0  0  0
 28 29  1  0  0  0  0
 28 55  1  0  0  0  0
 29 30  2  0  0  0  0
 29 56  1  0  0  0  0
 30 31  1  0  0  0  0
 30 57  1  0  0  0  0
M  END
$$$$
