CHEMBL45752
 OpenBabel04072215383D

 45 48  0  0  0  0  0  0  0  0999 V2000
   -2.4584   -5.4945   -3.6166 C   0  0  0  0  0  0  0  0  0  0  0  0
   -2.4862   -4.6570   -2.3724 C   0  0  0  0  0  0  0  0  0  0  0  0
   -3.6743   -4.1901   -1.8184 C   0  0  0  0  0  0  0  0  0  0  0  0
   -3.6533   -3.4163   -0.6524 C   0  0  0  0  0  0  0  0  0  0  0  0
   -4.9328   -2.9004   -0.0614 C   0  0  0  0  0  0  0  0  0  0  0  0
   -2.4218   -3.1346   -0.0294 C   0  0  0  0  0  0  0  0  0  0  0  0
   -1.2123   -3.6235   -0.5480 C   0  0  0  0  0  0  0  0  0  0  0  0
   -0.0069   -3.3538    0.1161 N   0  0  0  0  0  0  0  0  0  0  0  0
    1.2572   -3.9345   -0.0170 C   0  0  0  0  0  0  0  0  0  0  0  0
    1.5621   -4.7208   -1.0577 N   0  0  0  0  0  0  0  0  0  0  0  0
    2.7654   -5.3117   -1.0871 C   0  0  0  0  0  0  0  0  0  0  0  0
    3.7027   -5.1509   -0.1058 C   0  0  0  0  0  0  0  0  0  0  0  0
    3.3093   -4.3576    0.9505 C   0  0  0  0  0  0  0  0  0  0  0  0
    4.1515   -4.2774    2.0932 N   0  0  0  0  0  0  0  0  0  0  0  0
    5.5318   -4.3274    2.0729 C   0  0  0  0  0  0  0  0  0  0  0  0
    5.9328   -4.0792    3.3559 C   0  0  0  0  0  0  0  0  0  0  0  0
    4.8542   -3.9636    4.1865 N   0  0  0  0  0  0  0  0  0  0  0  0
    3.7741   -4.1504    3.4350 C   0  0  0  0  0  0  0  0  0  0  0  0
    2.4109   -4.2787    3.9896 C   0  0  0  0  0  0  0  0  0  0  0  0
    2.0739   -3.5786    5.1558 C   0  0  0  0  0  0  0  0  0  0  0  0
    0.7826   -3.6527    5.6893 C   0  0  0  0  0  0  0  0  0  0  0  0
   -0.1933   -4.4212    5.0581 C   0  0  0  0  0  0  0  0  0  0  0  0
    0.1348   -5.1573    3.9260 C   0  0  0  0  0  0  0  0  0  0  0  0
    1.4375   -5.1169    3.4251 C   0  0  0  0  0  0  0  0  0  0  0  0
    2.1124   -3.7259    0.9909 N   0  0  0  0  0  0  0  0  0  0  0  0
   -1.2718   -4.3505   -1.7418 C   0  0  0  0  0  0  0  0  0  0  0  0
   -3.4635   -5.6710   -4.0092 H   0  0  0  0  0  0  0  0  0  0  0  0
   -2.0044   -6.4673   -3.3984 H   0  0  0  0  0  0  0  0  0  0  0  0
   -1.8693   -4.9957   -4.3928 H   0  0  0  0  0  0  0  0  0  0  0  0
   -4.6214   -4.4295   -2.2974 H   0  0  0  0  0  0  0  0  0  0  0  0
   -5.7982   -3.1839   -0.6689 H   0  0  0  0  0  0  0  0  0  0  0  0
   -4.9096   -1.8079   -0.0047 H   0  0  0  0  0  0  0  0  0  0  0  0
   -5.0784   -3.3135    0.9417 H   0  0  0  0  0  0  0  0  0  0  0  0
   -2.4187   -2.5400    0.8805 H   0  0  0  0  0  0  0  0  0  0  0  0
   -0.0770   -2.9228    1.0298 H   0  0  0  0  0  0  0  0  0  0  0  0
    2.9340   -5.9678   -1.9361 H   0  0  0  0  0  0  0  0  0  0  0  0
    4.6343   -5.6977   -0.1433 H   0  0  0  0  0  0  0  0  0  0  0  0
    6.1007   -4.4466    1.1620 H   0  0  0  0  0  0  0  0  0  0  0  0
    6.9453   -3.9765    3.7300 H   0  0  0  0  0  0  0  0  0  0  0  0
    2.8233   -2.9690    5.6581 H   0  0  0  0  0  0  0  0  0  0  0  0
    0.5397   -3.1055    6.5959 H   0  0  0  0  0  0  0  0  0  0  0  0
   -1.2039   -4.4579    5.4549 H   0  0  0  0  0  0  0  0  0  0  0  0
   -0.6159   -5.7652    3.4271 H   0  0  0  0  0  0  0  0  0  0  0  0
    1.6630   -5.7411    2.5651 H   0  0  0  0  0  0  0  0  0  0  0  0
   -0.3655   -4.7035   -2.2194 H   0  0  0  0  0  0  0  0  0  0  0  0
  1  2  1  0  0  0  0
  1 27  1  0  0  0  0
  1 28  1  0  0  0  0
  1 29  1  0  0  0  0
  2  3  1  0  0  0  0
  2 26  2  0  0  0  0
  3  4  2  0  0  0  0
  3 30  1  0  0  0  0
  4  5  1  0  0  0  0
  4  6  1  0  0  0  0
  5 31  1  0  0  0  0
  5 32  1  0  0  0  0
  5 33  1  0  0  0  0
  6  7  2  0  0  0  0
  6 34  1  0  0  0  0
  7  8  1  0  0  0  0
  7 26  1  0  0  0  0
  8  9  1  0  0  0  0
  8 35  1  0  0  0  0
  9 10  1  0  0  0  0
  9 25  2  0  0  0  0
 10 11  2  0  0  0  0
 11 12  1  0  0  0  0
 11 36  1  0  0  0  0
 12 13  2  0  0  0  0
 12 37  1  0  0  0  0
 13 14  1  0  0  0  0
 13 25  1  0  0  0  0
 14 15  1  0  0  0  0
 14 18  1  0  0  0  0
 15 16  2  0  0  0  0
 15 38  1  0  0  0  0
 16 17  1  0  0  0  0
 16 39  1  0  0  0  0
 17 18  2  0  0  0  0
 18 19  1  0  0  0  0
 19 20  1  0  0  0  0
 19 24  2  0  0  0  0
 20 21  2  0  0  0  0
 20 40  1  0  0  0  0
 21 22  1  0  0  0  0
 21 41  1  0  0  0  0
 22 23  2  0  0  0  0
 22 42  1  0  0  0  0
 23 24  1  0  0  0  0
 23 43  1  0  0  0  0
 24 44  1  0  0  0  0
 26 45  1  0  0  0  0
M  END
$$$$
