CHEMBL3905276
 OpenBabel04072215373D

 62 65  0  0  1  0  0  0  0  0999 V2000
    0.7843    2.8035    3.1707 C   0  0  0  0  0  0  0  0  0  0  0  0
    2.1344    3.2426    2.9994 O   0  0  0  0  0  0  0  0  0  0  0  0
    3.0196    2.3517    2.4366 C   0  0  0  0  0  0  0  0  0  0  0  0
    2.6671    1.0687    2.0152 C   0  0  0  0  0  0  0  0  0  0  0  0
    3.6105    0.2624    1.3901 C   0  0  0  0  0  0  0  0  0  0  0  0
    3.3807   -0.9907    0.8860 O   0  0  0  0  0  0  0  0  0  0  0  0
    2.0920   -1.5534    1.1097 C   0  0  0  0  0  0  0  0  0  0  0  0
    4.9150    0.7383    1.2054 C   0  0  0  0  0  0  0  0  0  0  0  0
    5.3237    2.0147    1.6292 C   0  0  0  0  0  0  0  0  0  0  0  0
    6.5976    2.5439    1.2851 N   0  0  0  0  0  0  0  0  0  0  0  0
    7.1366    2.1188   -0.0780 C   0  0  0  0  0  0  0  0  0  0  0  0
    6.2555    2.4434   -1.3121 C   0  0  1  0  0  0  0  0  0  0  0  0
    6.0509    3.8738   -1.4309 O   0  0  0  0  0  0  0  0  0  0  0  0
    6.9251    1.8481   -2.5782 C   0  0  0  0  0  0  0  0  0  0  0  0
    8.0640    1.1749   -2.2967 F   0  0  0  0  0  0  0  0  0  0  0  0
    6.1036    0.9943   -3.2274 F   0  0  0  0  0  0  0  0  0  0  0  0
    7.2658    2.8267   -3.4544 F   0  0  0  0  0  0  0  0  0  0  0  0
    7.6691    3.0644    2.1043 C   0  0  0  0  0  0  0  0  0  0  0  0
    8.3757    4.1305    1.5272 C   0  0  0  0  0  0  0  0  0  0  0  0
    9.7120    4.2912    1.8247 C   0  0  0  0  0  0  0  0  0  0  0  0
   10.3328    3.6107    2.8364 C   0  0  0  0  0  0  0  0  0  0  0  0
   11.6631    3.7829    2.8619 N   0  0  0  0  0  0  0  0  0  0  0  0
   12.3048    3.3922    3.9649 C   0  0  0  0  0  0  0  0  0  0  0  0
   11.6324    2.9267    5.0773 C   0  0  0  0  0  0  0  0  0  0  0  0
   12.3436    3.1808    6.3563 C   0  0  0  0  0  0  0  0  0  0  0  0
   12.9981    2.3437    7.2869 C   0  0  0  0  0  0  0  0  0  0  0  0
   13.7213    3.0227    8.1912 N   0  0  0  0  0  0  0  0  0  0  0  0
   13.5614    4.3159    7.8425 N   0  0  0  0  0  0  0  0  0  0  0  0
   13.9879    5.4118    8.7212 C   0  0  0  0  0  0  0  0  0  0  0  0
   13.0526    5.5065    9.9293 C   0  0  0  0  0  0  0  0  0  0  0  0
   15.4471    5.3673    9.1974 C   0  0  0  0  0  0  0  0  0  0  0  0
   12.8174    4.4443    6.6962 C   0  0  0  0  0  0  0  0  0  0  0  0
   10.2912    2.5651    4.9746 N   0  0  0  0  0  0  0  0  0  0  0  0
    9.5988    2.8524    3.7726 C   0  0  0  0  0  0  0  0  0  0  0  0
    8.2470    2.5070    3.2907 C   0  0  0  0  0  0  0  0  0  0  0  0
    4.3446    2.8115    2.2548 C   0  0  0  0  0  0  0  0  0  0  0  0
    0.1943    3.6384    3.5634 H   0  0  0  0  0  0  0  0  0  0  0  0
    0.7269    1.9871    3.9000 H   0  0  0  0  0  0  0  0  0  0  0  0
    0.3261    2.5071    2.2191 H   0  0  0  0  0  0  0  0  0  0  0  0
    1.6569    0.7048    2.1540 H   0  0  0  0  0  0  0  0  0  0  0  0
    2.0826   -2.5560    0.6717 H   0  0  0  0  0  0  0  0  0  0  0  0
    1.3097   -0.9686    0.6132 H   0  0  0  0  0  0  0  0  0  0  0  0
    1.8882   -1.6554    2.1810 H   0  0  0  0  0  0  0  0  0  0  0  0
    5.6084    0.0761    0.6962 H   0  0  0  0  0  0  0  0  0  0  0  0
    7.3762    1.0509   -0.0417 H   0  0  0  0  0  0  0  0  0  0  0  0
    8.0931    2.6147   -0.2874 H   0  0  0  0  0  0  0  0  0  0  0  0
    5.2591    2.0031   -1.2211 H   0  0  0  0  0  0  0  0  0  0  0  0
    6.8589    4.2689   -1.8077 H   0  0  0  0  0  0  0  0  0  0  0  0
    7.9358    4.6940    0.7292 H   0  0  0  0  0  0  0  0  0  0  0  0
   10.2938    4.9991    1.2404 H   0  0  0  0  0  0  0  0  0  0  0  0
   13.3724    3.5793    3.9711 H   0  0  0  0  0  0  0  0  0  0  0  0
   13.0145    1.2629    7.3342 H   0  0  0  0  0  0  0  0  0  0  0  0
   13.8748    6.3337    8.1353 H   0  0  0  0  0  0  0  0  0  0  0  0
   13.0558    4.5756   10.5069 H   0  0  0  0  0  0  0  0  0  0  0  0
   12.0252    5.6994    9.6065 H   0  0  0  0  0  0  0  0  0  0  0  0
   13.3508    6.3198   10.6008 H   0  0  0  0  0  0  0  0  0  0  0  0
   15.6896    4.4316    9.7105 H   0  0  0  0  0  0  0  0  0  0  0  0
   15.6426    6.1852    9.9045 H   0  0  0  0  0  0  0  0  0  0  0  0
   16.1459    5.4948    8.3646 H   0  0  0  0  0  0  0  0  0  0  0  0
   12.6894    5.4072    6.2248 H   0  0  0  0  0  0  0  0  0  0  0  0
    7.6975    1.7390    3.8467 H   0  0  0  0  0  0  0  0  0  0  0  0
    4.5816    3.8359    2.5368 H   0  0  0  0  0  0  0  0  0  0  0  0
  1  2  1  0  0  0  0
  1 37  1  0  0  0  0
  1 38  1  0  0  0  0
  1 39  1  0  0  0  0
  2  3  1  0  0  0  0
  3  4  1  0  0  0  0
  3 36  2  0  0  0  0
  4  5  2  0  0  0  0
  4 40  1  0  0  0  0
  5  6  1  0  0  0  0
  5  8  1  0  0  0  0
  6  7  1  0  0  0  0
  7 41  1  0  0  0  0
  7 42  1  0  0  0  0
  7 43  1  0  0  0  0
  8  9  2  0  0  0  0
  8 44  1  0  0  0  0
  9 10  1  0  0  0  0
  9 36  1  0  0  0  0
 10 11  1  0  0  0  0
 10 18  1  0  0  0  0
 11 12  1  0  0  0  0
 11 45  1  0  0  0  0
 11 46  1  0  0  0  0
 12 13  1  0  0  0  0
 12 14  1  0  0  0  0
 12 47  1  1  0  0  0
 13 48  1  0  0  0  0
 14 15  1  0  0  0  0
 14 16  1  0  0  0  0
 14 17  1  0  0  0  0
 18 19  1  0  0  0  0
 18 35  2  0  0  0  0
 19 20  2  0  0  0  0
 19 49  1  0  0  0  0
 20 21  1  0  0  0  0
 20 50  1  0  0  0  0
 21 22  1  0  0  0  0
 21 34  2  0  0  0  0
 22 23  2  0  0  0  0
 23 24  1  0  0  0  0
 23 51  1  0  0  0  0
 24 25  1  0  0  0  0
 24 33  2  0  0  0  0
 25 26  1  0  0  0  0
 25 32  2  0  0  0  0
 26 27  2  0  0  0  0
 26 52  1  0  0  0  0
 27 28  1  0  0  0  0
 28 29  1  0  0  0  0
 28 32  1  0  0  0  0
 29 30  1  0  0  0  0
 29 31  1  0  0  0  0
 29 53  1  0  0  0  0
 30 54  1  0  0  0  0
 30 55  1  0  0  0  0
 30 56  1  0  0  0  0
 31 57  1  0  0  0  0
 31 58  1  0  0  0  0
 31 59  1  0  0  0  0
 32 60  1  0  0  0  0
 33 34  1  0  0  0  0
 34 35  1  0  0  0  0
 35 61  1  0  0  0  0
 36 62  1  0  0  0  0
M  END
$$$$
