CHEMBL3422071
 OpenBabel04072215363D

 73 78  0  0  1  0  0  0  0  0999 V2000
    0.7290    2.1535    1.3095 C   0  0  0  0  0  0  0  0  0  0  0  0
    2.0819    2.0353    0.7608 N   0  0  0  0  0  0  0  0  0  0  0  0
    2.4256    0.6178    0.5748 C   0  0  0  0  0  0  0  0  0  0  0  0
    3.8440    0.4734    0.0228 C   0  0  0  0  0  0  0  0  0  0  0  0
    3.9717    1.1830   -1.3255 C   0  0  0  0  0  0  0  0  0  0  0  0
    3.0718    0.6279   -2.2885 O   0  0  0  0  0  0  0  0  0  0  0  0
    3.2929   -0.6303   -2.7626 C   0  0  0  0  0  0  0  0  0  0  0  0
    2.1361   -1.2759   -3.1733 C   0  0  0  0  0  0  0  0  0  0  0  0
    2.2210   -2.5234   -3.7662 C   0  0  0  0  0  0  0  0  0  0  0  0
    3.4643   -3.1396   -4.0128 C   0  0  0  0  0  0  0  0  0  0  0  0
    3.3883   -4.3577   -4.8114 C   0  0  0  0  0  0  0  0  0  0  0  0
    2.5594   -4.3393   -5.8675 N   0  0  0  0  0  0  0  0  0  0  0  0
    2.1657   -5.5996   -5.9982 N   0  0  0  0  0  0  0  0  0  0  0  0
    2.7765   -6.4547   -5.1302 C   0  0  0  0  0  0  0  0  0  0  0  0
    2.5101   -7.7930   -4.8154 C   0  0  0  0  0  0  0  0  0  0  0  0
    3.4361   -8.4478   -3.9986 C   0  0  0  0  0  0  0  0  0  0  0  0
    4.5907   -7.7881   -3.5637 C   0  0  0  0  0  0  0  0  0  0  0  0
    5.6566   -8.5946   -2.9033 C   0  0  0  0  0  0  0  0  0  0  0  0
    5.3773   -9.4836   -2.1131 O   0  0  0  0  0  0  0  0  0  0  0  0
    6.9343   -8.2689   -3.3009 N   0  0  0  0  0  0  0  0  0  0  0  0
    8.1256   -8.9910   -2.8513 C   0  0  3  0  0  0  0  0  0  0  0  0
    8.4984  -10.1206   -3.8151 C   0  0  0  0  0  0  0  0  0  0  0  0
    9.1476  -11.2602   -3.3383 C   0  0  0  0  0  0  0  0  0  0  0  0
    9.5314  -12.2540   -4.2406 C   0  0  0  0  0  0  0  0  0  0  0  0
    9.2539  -12.0894   -5.5907 C   0  0  0  0  0  0  0  0  0  0  0  0
    8.6228  -10.9236   -5.9870 C   0  0  0  0  0  0  0  0  0  0  0  0
    8.2427   -9.9381   -5.1397 N   0  0  0  0  0  0  0  0  0  0  0  0
    9.3211   -8.0230   -2.6785 C   0  0  0  0  0  0  0  0  0  0  0  0
    9.0754   -6.9132   -1.6498 C   0  0  0  0  0  0  0  0  0  0  0  0
   10.1141   -5.8374   -1.9669 C   0  0  0  0  0  0  0  0  0  0  0  0
   10.6210   -6.1257   -3.3780 C   0  0  0  0  0  0  0  0  0  0  0  0
    9.7183   -7.2232   -3.9249 C   0  0  0  0  0  0  0  0  0  0  0  0
    4.7465   -6.3974   -3.7523 C   0  0  0  0  0  0  0  0  0  0  0  0
    3.7930   -5.7092   -4.5276 C   0  0  0  0  0  0  0  0  0  0  0  0
    4.6223   -2.5248   -3.5482 C   0  0  0  0  0  0  0  0  0  0  0  0
    4.5322   -1.2643   -2.9205 C   0  0  0  0  0  0  0  0  0  0  0  0
    3.5711    2.6513   -1.1394 C   0  0  0  0  0  0  0  0  0  0  0  0
    2.1825    2.7830   -0.5030 C   0  0  0  0  0  0  0  0  0  0  0  0
    0.6449    1.6029    2.2532 H   0  0  0  0  0  0  0  0  0  0  0  0
   -0.0326    1.7685    0.6206 H   0  0  0  0  0  0  0  0  0  0  0  0
    0.4952    3.1999    1.5330 H   0  0  0  0  0  0  0  0  0  0  0  0
    1.7053    0.1224   -0.0903 H   0  0  0  0  0  0  0  0  0  0  0  0
    2.3810    0.0977    1.5386 H   0  0  0  0  0  0  0  0  0  0  0  0
    4.0815   -0.5913   -0.0703 H   0  0  0  0  0  0  0  0  0  0  0  0
    4.5636    0.9025    0.7314 H   0  0  0  0  0  0  0  0  0  0  0  0
    4.9987    1.1543   -1.7032 H   0  0  0  0  0  0  0  0  0  0  0  0
    1.1641   -0.8037   -3.0583 H   0  0  0  0  0  0  0  0  0  0  0  0
    1.3008   -3.0096   -4.0886 H   0  0  0  0  0  0  0  0  0  0  0  0
    1.4445   -5.8156   -6.6681 H   0  0  0  0  0  0  0  0  0  0  0  0
    1.6261   -8.2980   -5.1854 H   0  0  0  0  0  0  0  0  0  0  0  0
    3.2669   -9.4888   -3.7331 H   0  0  0  0  0  0  0  0  0  0  0  0
    7.0162   -7.8645   -4.2257 H   0  0  0  0  0  0  0  0  0  0  0  0
    7.8903   -9.4389   -1.8774 H   0  0  0  0  0  0  0  0  0  0  0  0
    9.3641  -11.3804   -2.2810 H   0  0  0  0  0  0  0  0  0  0  0  0
   10.0388  -13.1483   -3.8905 H   0  0  0  0  0  0  0  0  0  0  0  0
    9.5291  -12.8441   -6.3168 H   0  0  0  0  0  0  0  0  0  0  0  0
    8.3739  -10.7528   -7.0312 H   0  0  0  0  0  0  0  0  0  0  0  0
   10.1989   -8.5992   -2.3497 H   0  0  0  0  0  0  0  0  0  0  0  0
    9.1717   -7.2784   -0.6226 H   0  0  0  0  0  0  0  0  0  0  0  0
    8.0728   -6.4833   -1.7537 H   0  0  0  0  0  0  0  0  0  0  0  0
   10.9447   -5.8709   -1.2535 H   0  0  0  0  0  0  0  0  0  0  0  0
    9.6675   -4.8391   -1.9007 H   0  0  0  0  0  0  0  0  0  0  0  0
   11.6579   -6.4783   -3.3345 H   0  0  0  0  0  0  0  0  0  0  0  0
   10.6029   -5.2332   -4.0118 H   0  0  0  0  0  0  0  0  0  0  0  0
   10.2371   -7.8338   -4.6702 H   0  0  0  0  0  0  0  0  0  0  0  0
    8.8492   -6.7641   -4.4087 H   0  0  0  0  0  0  0  0  0  0  0  0
    5.5987   -5.8734   -3.3294 H   0  0  0  0  0  0  0  0  0  0  0  0
    5.5985   -2.9741   -3.7051 H   0  0  0  0  0  0  0  0  0  0  0  0
    5.4482   -0.7761   -2.6064 H   0  0  0  0  0  0  0  0  0  0  0  0
    3.5592    3.1623   -2.1103 H   0  0  0  0  0  0  0  0  0  0  0  0
    4.3131    3.1571   -0.5099 H   0  0  0  0  0  0  0  0  0  0  0  0
    1.4165    2.4518   -1.2166 H   0  0  0  0  0  0  0  0  0  0  0  0
    1.9992    3.8471   -0.3084 H   0  0  0  0  0  0  0  0  0  0  0  0
  1  2  1  0  0  0  0
  1 39  1  0  0  0  0
  1 40  1  0  0  0  0
  1 41  1  0  0  0  0
  2  3  1  0  0  0  0
  2 38  1  0  0  0  0
  3  4  1  0  0  0  0
  3 42  1  0  0  0  0
  3 43  1  0  0  0  0
  4  5  1  0  0  0  0
  4 44  1  0  0  0  0
  4 45  1  0  0  0  0
  5  6  1  0  0  0  0
  5 37  1  0  0  0  0
  5 46  1  0  0  0  0
  6  7  1  0  0  0  0
  7  8  1  0  0  0  0
  7 36  2  0  0  0  0
  8  9  2  0  0  0  0
  8 47  1  0  0  0  0
  9 10  1  0  0  0  0
  9 48  1  0  0  0  0
 10 11  1  0  0  0  0
 10 35  2  0  0  0  0
 11 12  2  0  0  0  0
 11 34  1  0  0  0  0
 12 13  1  0  0  0  0
 13 14  1  0  0  0  0
 13 49  1  0  0  0  0
 14 15  1  0  0  0  0
 14 34  2  0  0  0  0
 15 16  2  0  0  0  0
 15 50  1  0  0  0  0
 16 17  1  0  0  0  0
 16 51  1  0  0  0  0
 17 18  1  0  0  0  0
 17 33  2  0  0  0  0
 18 19  2  0  0  0  0
 18 20  1  0  0  0  0
 20 21  1  0  0  0  0
 20 52  1  0  0  0  0
 21 22  1  0  0  0  0
 21 28  1  0  0  0  0
 21 53  1  0  0  0  0
 22 23  1  0  0  0  0
 22 27  2  0  0  0  0
 23 24  2  0  0  0  0
 23 54  1  0  0  0  0
 24 25  1  0  0  0  0
 24 55  1  0  0  0  0
 25 26  2  0  0  0  0
 25 56  1  0  0  0  0
 26 27  1  0  0  0  0
 26 57  1  0  0  0  0
 28 29  1  0  0  0  0
 28 32  1  0  0  0  0
 28 58  1  0  0  0  0
 29 30  1  0  0  0  0
 29 59  1  0  0  0  0
 29 60  1  0  0  0  0
 30 31  1  0  0  0  0
 30 61  1  0  0  0  0
 30 62  1  0  0  0  0
 31 32  1  0  0  0  0
 31 63  1  0  0  0  0
 31 64  1  0  0  0  0
 32 65  1  0  0  0  0
 32 66  1  0  0  0  0
 33 34  1  0  0  0  0
 33 67  1  0  0  0  0
 35 36  1  0  0  0  0
 35 68  1  0  0  0  0
 36 69  1  0  0  0  0
 37 38  1  0  0  0  0
 37 70  1  0  0  0  0
 37 71  1  0  0  0  0
 38 72  1  0  0  0  0
 38 73  1  0  0  0  0
M  END
$$$$
