CHEMBL3741876
 OpenBabel04072215373D

 66 70  0  0  0  0  0  0  0  0999 V2000
    1.1003   -0.1393   -0.1298 C   0  0  0  0  0  0  0  0  0  0  0  0
    2.5605   -0.0631   -0.1175 N   0  0  0  0  0  0  0  0  0  0  0  0
    3.1771    1.1084    0.3573 C   0  0  0  0  0  0  0  0  0  0  0  0
    2.6979    1.8243    1.4534 C   0  0  0  0  0  0  0  0  0  0  0  0
    3.3790    2.9503    1.9404 C   0  0  0  0  0  0  0  0  0  0  0  0
    4.6089    3.3877    1.3852 C   0  0  0  0  0  0  0  0  0  0  0  0
    5.4083    4.4698    1.8589 C   0  0  0  0  0  0  0  0  0  0  0  0
    5.1113    5.3069    3.0629 C   0  0  0  0  0  0  0  0  0  0  0  0
    5.3527    6.5075    2.9785 O   0  0  0  0  0  0  0  0  0  0  0  0
    4.6343    4.6520    4.1862 N   0  0  0  0  0  0  0  0  0  0  0  0
    4.3028    5.2424    5.4294 C   0  0  0  0  0  0  0  0  0  0  0  0
    4.5777    6.5733    5.7544 C   0  0  0  0  0  0  0  0  0  0  0  0
    4.2505    7.0861    7.0135 C   0  0  0  0  0  0  0  0  0  0  0  0
    3.6289    6.2768    7.9587 C   0  0  0  0  0  0  0  0  0  0  0  0
    3.3344    4.9527    7.6441 C   0  0  0  0  0  0  0  0  0  0  0  0
    3.6756    4.4359    6.3886 C   0  0  0  0  0  0  0  0  0  0  0  0
    6.5678    4.8557    1.1567 C   0  0  0  0  0  0  0  0  0  0  0  0
    6.9691    4.1810    0.0120 C   0  0  0  0  0  0  0  0  0  0  0  0
    6.2242    3.0996   -0.4376 C   0  0  0  0  0  0  0  0  0  0  0  0
    5.0601    2.6956    0.2345 C   0  0  0  0  0  0  0  0  0  0  0  0
    4.3432    1.5941   -0.2590 C   0  0  0  0  0  0  0  0  0  0  0  0
    3.2068   -1.2504   -0.5566 C   0  0  0  0  0  0  0  0  0  0  0  0
    4.4795   -1.5384   -0.0866 C   0  0  0  0  0  0  0  0  0  0  0  0
    5.0669   -2.6927   -0.5230 C   0  0  0  0  0  0  0  0  0  0  0  0
    4.4646   -3.5336   -1.3645 N   0  0  0  0  0  0  0  0  0  0  0  0
    3.2311   -3.2079   -1.7871 C   0  0  0  0  0  0  0  0  0  0  0  0
    2.5884   -4.0663   -2.6842 N   0  0  0  0  0  0  0  0  0  0  0  0
    2.7441   -5.4607   -2.7510 C   0  0  0  0  0  0  0  0  0  0  0  0
    2.5500   -6.1270   -3.9609 C   0  0  0  0  0  0  0  0  0  0  0  0
    2.7265   -7.5107   -4.0416 C   0  0  0  0  0  0  0  0  0  0  0  0
    3.0738   -8.2486   -2.9068 C   0  0  0  0  0  0  0  0  0  0  0  0
    3.2634   -7.6091   -1.6779 C   0  0  0  0  0  0  0  0  0  0  0  0
    3.5564   -8.3614   -0.4062 C   0  0  0  0  0  0  0  0  0  0  0  0
    5.1277   -9.2122   -0.4299 S   0  0  0  0  0  0  0  0  0  0  0  0
    6.3396   -7.9533   -0.7584 C   0  0  0  0  0  0  0  0  0  0  0  0
    5.3701   -9.6781    0.9260 O   0  0  0  0  0  0  0  0  0  0  0  0
    5.1525  -10.1614   -1.5269 O   0  0  0  0  0  0  0  0  0  0  0  0
    3.0836   -6.2170   -1.6186 C   0  0  0  0  0  0  0  0  0  0  0  0
    2.5783   -2.1004   -1.4012 N   0  0  0  0  0  0  0  0  0  0  0  0
    0.6183    0.7886    0.1981 H   0  0  0  0  0  0  0  0  0  0  0  0
    0.7539   -0.9375    0.5378 H   0  0  0  0  0  0  0  0  0  0  0  0
    0.7198   -0.3314   -1.1395 H   0  0  0  0  0  0  0  0  0  0  0  0
    1.7983    1.5049    1.9734 H   0  0  0  0  0  0  0  0  0  0  0  0
    2.9116    3.4857    2.7629 H   0  0  0  0  0  0  0  0  0  0  0  0
    4.5212    3.6488    4.1323 H   0  0  0  0  0  0  0  0  0  0  0  0
    5.0701    7.2427    5.0569 H   0  0  0  0  0  0  0  0  0  0  0  0
    4.4895    8.1202    7.2495 H   0  0  0  0  0  0  0  0  0  0  0  0
    3.3767    6.6793    8.9362 H   0  0  0  0  0  0  0  0  0  0  0  0
    2.8398    4.3218    8.3782 H   0  0  0  0  0  0  0  0  0  0  0  0
    3.4280    3.4005    6.1722 H   0  0  0  0  0  0  0  0  0  0  0  0
    7.1609    5.7011    1.5040 H   0  0  0  0  0  0  0  0  0  0  0  0
    7.8567    4.4993   -0.5291 H   0  0  0  0  0  0  0  0  0  0  0  0
    6.5536    2.5797   -1.3350 H   0  0  0  0  0  0  0  0  0  0  0  0
    4.7006    1.0926   -1.1575 H   0  0  0  0  0  0  0  0  0  0  0  0
    4.9980   -0.9033    0.6179 H   0  0  0  0  0  0  0  0  0  0  0  0
    6.0583   -2.9844   -0.1944 H   0  0  0  0  0  0  0  0  0  0  0  0
    1.6588   -3.7232   -2.8867 H   0  0  0  0  0  0  0  0  0  0  0  0
    2.2963   -5.5686   -4.8591 H   0  0  0  0  0  0  0  0  0  0  0  0
    2.5967   -8.0167   -4.9953 H   0  0  0  0  0  0  0  0  0  0  0  0
    3.1882   -9.3281   -2.9991 H   0  0  0  0  0  0  0  0  0  0  0  0
    2.7746   -9.1017   -0.2124 H   0  0  0  0  0  0  0  0  0  0  0  0
    3.5935   -7.6823    0.4539 H   0  0  0  0  0  0  0  0  0  0  0  0
    6.2362   -7.1601   -0.0157 H   0  0  0  0  0  0  0  0  0  0  0  0
    6.2056   -7.5688   -1.7694 H   0  0  0  0  0  0  0  0  0  0  0  0
    7.3271   -8.4138   -0.6666 H   0  0  0  0  0  0  0  0  0  0  0  0
    3.1905   -5.7109   -0.6620 H   0  0  0  0  0  0  0  0  0  0  0  0
  1  2  1  0  0  0  0
  1 40  1  0  0  0  0
  1 41  1  0  0  0  0
  1 42  1  0  0  0  0
  2  3  1  0  0  0  0
  2 22  1  0  0  0  0
  3  4  1  0  0  0  0
  3 21  2  0  0  0  0
  4  5  2  0  0  0  0
  4 43  1  0  0  0  0
  5  6  1  0  0  0  0
  5 44  1  0  0  0  0
  6  7  1  0  0  0  0
  6 20  2  0  0  0  0
  7  8  1  0  0  0  0
  7 17  2  0  0  0  0
  8  9  2  0  0  0  0
  8 10  1  0  0  0  0
 10 11  1  0  0  0  0
 10 45  1  0  0  0  0
 11 12  1  0  0  0  0
 11 16  2  0  0  0  0
 12 13  2  0  0  0  0
 12 46  1  0  0  0  0
 13 14  1  0  0  0  0
 13 47  1  0  0  0  0
 14 15  2  0  0  0  0
 14 48  1  0  0  0  0
 15 16  1  0  0  0  0
 15 49  1  0  0  0  0
 16 50  1  0  0  0  0
 17 18  1  0  0  0  0
 17 51  1  0  0  0  0
 18 19  2  0  0  0  0
 18 52  1  0  0  0  0
 19 20  1  0  0  0  0
 19 53  1  0  0  0  0
 20 21  1  0  0  0  0
 21 54  1  0  0  0  0
 22 23  1  0  0  0  0
 22 39  2  0  0  0  0
 23 24  2  0  0  0  0
 23 55  1  0  0  0  0
 24 25  1  0  0  0  0
 24 56  1  0  0  0  0
 25 26  2  0  0  0  0
 26 27  1  0  0  0  0
 26 39  1  0  0  0  0
 27 28  1  0  0  0  0
 27 57  1  0  0  0  0
 28 29  1  0  0  0  0
 28 38  2  0  0  0  0
 29 30  2  0  0  0  0
 29 58  1  0  0  0  0
 30 31  1  0  0  0  0
 30 59  1  0  0  0  0
 31 32  2  0  0  0  0
 31 60  1  0  0  0  0
 32 33  1  0  0  0  0
 32 38  1  0  0  0  0
 33 34  1  0  0  0  0
 33 61  1  0  0  0  0
 33 62  1  0  0  0  0
 34 35  1  0  0  0  0
 34 36  2  0  0  0  0
 34 37  2  0  0  0  0
 35 63  1  0  0  0  0
 35 64  1  0  0  0  0
 35 65  1  0  0  0  0
 38 66  1  0  0  0  0
M  END
$$$$
