CHEMBL3702602
 OpenBabel04072215373D

 54 57  0  0  0  0  0  0  0  0999 V2000
    1.2371   -0.8967   -0.8783 C   0  0  0  0  0  0  0  0  0  0  0  0
    2.4114   -0.1555   -0.2351 C   0  0  0  0  0  0  0  0  0  0  0  0
    3.5178   -1.1355    0.1576 C   0  0  0  0  0  0  0  0  0  0  0  0
    2.8614    1.0003   -1.1163 C   0  0  0  0  0  0  0  0  0  0  0  0
    2.1775    2.2199   -0.9812 C   0  0  0  0  0  0  0  0  0  0  0  0
    2.5117    3.3132   -1.7689 C   0  0  0  0  0  0  0  0  0  0  0  0
    3.5555    3.2130   -2.6825 C   0  0  0  0  0  0  0  0  0  0  0  0
    4.2948    2.0334   -2.8107 C   0  0  0  0  0  0  0  0  0  0  0  0
    5.4240    1.9387   -3.6735 N   0  0  0  0  0  0  0  0  0  0  0  0
    6.1149    3.0434   -4.1641 C   0  0  0  0  0  0  0  0  0  0  0  0
    5.8907    4.2101   -3.8580 O   0  0  0  0  0  0  0  0  0  0  0  0
    7.2485    2.8180   -5.1037 C   0  0  0  0  0  0  0  0  0  0  0  0
    7.3708    1.6915   -5.9145 C   0  0  0  0  0  0  0  0  0  0  0  0
    8.4037    1.6328   -6.8518 C   0  0  0  0  0  0  0  0  0  0  0  0
    9.2923    2.7032   -6.9898 C   0  0  0  0  0  0  0  0  0  0  0  0
    9.1976    3.8514   -6.1898 C   0  0  0  0  0  0  0  0  0  0  0  0
   10.1169    4.8870   -6.3559 N   0  0  0  0  0  0  0  0  0  0  0  0
   10.4232    5.7712   -5.2215 C   0  0  0  0  0  0  0  0  0  0  0  0
   11.8589    6.2650   -5.3988 C   0  0  0  0  0  0  0  0  0  0  0  0
   12.0823    6.8217   -6.7803 C   0  0  0  0  0  0  0  0  0  0  0  0
   13.1726    7.6037   -6.9477 N   0  0  0  0  0  0  0  0  0  0  0  0
   13.3922    8.0864   -8.1730 C   0  0  0  0  0  0  0  0  0  0  0  0
   14.5257    8.8505   -8.3575 N   0  0  0  0  0  0  0  0  0  0  0  0
   12.6292    7.8375   -9.2402 N   0  0  0  0  0  0  0  0  0  0  0  0
   11.5551    7.0489   -9.0386 C   0  0  0  0  0  0  0  0  0  0  0  0
   11.2343    6.4859   -7.8226 C   0  0  0  0  0  0  0  0  0  0  0  0
   10.0274    5.6112   -7.6380 C   0  0  0  0  0  0  0  0  0  0  0  0
    8.1745    3.8763   -5.2393 C   0  0  0  0  0  0  0  0  0  0  0  0
    3.9087    0.9121   -2.0577 C   0  0  0  0  0  0  0  0  0  0  0  0
    0.8738   -1.6926   -0.2188 H   0  0  0  0  0  0  0  0  0  0  0  0
    1.5222   -1.3494   -1.8339 H   0  0  0  0  0  0  0  0  0  0  0  0
    0.3968   -0.2187   -1.0677 H   0  0  0  0  0  0  0  0  0  0  0  0
    2.0499    0.2768    0.7092 H   0  0  0  0  0  0  0  0  0  0  0  0
    3.9139   -1.6789   -0.7058 H   0  0  0  0  0  0  0  0  0  0  0  0
    3.1322   -1.8793    0.8644 H   0  0  0  0  0  0  0  0  0  0  0  0
    4.3475   -0.6131    0.6458 H   0  0  0  0  0  0  0  0  0  0  0  0
    1.3713    2.3243   -0.2583 H   0  0  0  0  0  0  0  0  0  0  0  0
    1.9711    4.2502   -1.6692 H   0  0  0  0  0  0  0  0  0  0  0  0
    3.7655    4.0885   -3.2903 H   0  0  0  0  0  0  0  0  0  0  0  0
    5.8406    1.0244   -3.7815 H   0  0  0  0  0  0  0  0  0  0  0  0
    6.6625    0.8699   -5.8646 H   0  0  0  0  0  0  0  0  0  0  0  0
    8.5172    0.7628   -7.4926 H   0  0  0  0  0  0  0  0  0  0  0  0
   10.0961    2.6317   -7.7223 H   0  0  0  0  0  0  0  0  0  0  0  0
   10.3568    5.2475   -4.2605 H   0  0  0  0  0  0  0  0  0  0  0  0
    9.7221    6.6173   -5.1938 H   0  0  0  0  0  0  0  0  0  0  0  0
   12.5520    5.4258   -5.2599 H   0  0  0  0  0  0  0  0  0  0  0  0
   12.0911    7.0233   -4.6434 H   0  0  0  0  0  0  0  0  0  0  0  0
   15.2053    8.6027   -7.6513 H   0  0  0  0  0  0  0  0  0  0  0  0
   14.8183    8.7856   -9.3220 H   0  0  0  0  0  0  0  0  0  0  0  0
   10.9466    6.8785   -9.9226 H   0  0  0  0  0  0  0  0  0  0  0  0
    9.9660    4.9139   -8.4815 H   0  0  0  0  0  0  0  0  0  0  0  0
    9.1273    6.2413   -7.6482 H   0  0  0  0  0  0  0  0  0  0  0  0
    8.0535    4.7523   -4.6054 H   0  0  0  0  0  0  0  0  0  0  0  0
    4.4460   -0.0224   -2.1806 H   0  0  0  0  0  0  0  0  0  0  0  0
  1  2  1  0  0  0  0
  1 30  1  0  0  0  0
  1 31  1  0  0  0  0
  1 32  1  0  0  0  0
  2  3  1  0  0  0  0
  2  4  1  0  0  0  0
  2 33  1  0  0  0  0
  3 34  1  0  0  0  0
  3 35  1  0  0  0  0
  3 36  1  0  0  0  0
  4  5  1  0  0  0  0
  4 29  2  0  0  0  0
  5  6  2  0  0  0  0
  5 37  1  0  0  0  0
  6  7  1  0  0  0  0
  6 38  1  0  0  0  0
  7  8  2  0  0  0  0
  7 39  1  0  0  0  0
  8  9  1  0  0  0  0
  8 29  1  0  0  0  0
  9 10  1  0  0  0  0
  9 40  1  0  0  0  0
 10 11  2  0  0  0  0
 10 12  1  0  0  0  0
 12 13  1  0  0  0  0
 12 28  2  0  0  0  0
 13 14  2  0  0  0  0
 13 41  1  0  0  0  0
 14 15  1  0  0  0  0
 14 42  1  0  0  0  0
 15 16  2  0  0  0  0
 15 43  1  0  0  0  0
 16 17  1  0  0  0  0
 16 28  1  0  0  0  0
 17 18  1  0  0  0  0
 17 27  1  0  0  0  0
 18 19  1  0  0  0  0
 18 44  1  0  0  0  0
 18 45  1  0  0  0  0
 19 20  1  0  0  0  0
 19 46  1  0  0  0  0
 19 47  1  0  0  0  0
 20 21  1  0  0  0  0
 20 26  2  0  0  0  0
 21 22  2  0  0  0  0
 22 23  1  0  0  0  0
 22 24  1  0  0  0  0
 23 48  1  0  0  0  0
 23 49  1  0  0  0  0
 24 25  2  0  0  0  0
 25 26  1  0  0  0  0
 25 50  1  0  0  0  0
 26 27  1  0  0  0  0
 27 51  1  0  0  0  0
 27 52  1  0  0  0  0
 28 53  1  0  0  0  0
 29 54  1  0  0  0  0
M  END
$$$$
