CHEMBL3671508
 OpenBabel04072215373D

 52 54  0  0  0  0  0  0  0  0999 V2000
    3.6033    1.9242   -3.5521 C   0  0  0  0  0  0  0  0  0  0  0  0
    3.6202    2.1897   -2.2406 C   0  0  0  0  0  0  0  0  0  0  0  0
    3.7783    1.0684   -1.2756 C   0  0  0  0  0  0  0  0  0  0  0  0
    3.3471   -0.0544   -1.5076 O   0  0  0  0  0  0  0  0  0  0  0  0
    4.4729    1.3221   -0.1170 N   0  0  0  0  0  0  0  0  0  0  0  0
    5.3100    2.4434    0.0316 C   0  0  0  0  0  0  0  0  0  0  0  0
    6.4458    2.5211   -0.7767 C   0  0  0  0  0  0  0  0  0  0  0  0
    7.1422    3.7406   -0.8988 C   0  0  0  0  0  0  0  0  0  0  0  0
    8.1807    3.9788   -1.8127 C   0  0  0  0  0  0  0  0  0  0  0  0
    8.5490    2.9741   -2.7473 N   0  0  0  0  0  0  0  0  0  0  0  0
    9.2834    3.2337   -3.9294 C   0  0  0  0  0  0  0  0  0  0  0  0
    8.9714    4.3290   -4.7482 C   0  0  0  0  0  0  0  0  0  0  0  0
    9.7665    4.6490   -5.8496 C   0  0  0  0  0  0  0  0  0  0  0  0
   10.8704    3.8559   -6.1543 C   0  0  0  0  0  0  0  0  0  0  0  0
   11.9982    4.3436   -7.5903 Br  0  0  0  0  0  0  0  0  0  0  0  0
   11.1601    2.7234   -5.3973 C   0  0  0  0  0  0  0  0  0  0  0  0
   10.3587    2.4179   -4.3003 C   0  0  0  0  0  0  0  0  0  0  0  0
   10.6520    1.3376   -3.5589 F   0  0  0  0  0  0  0  0  0  0  0  0
    8.7931    5.1758   -1.8922 N   0  0  0  0  0  0  0  0  0  0  0  0
    8.3544    6.1406   -1.0838 C   0  0  0  0  0  0  0  0  0  0  0  0
    7.3459    6.0368   -0.2155 N   0  0  0  0  0  0  0  0  0  0  0  0
    6.7427    4.8482   -0.1355 C   0  0  0  0  0  0  0  0  0  0  0  0
    5.6478    4.7218    0.7107 C   0  0  0  0  0  0  0  0  0  0  0  0
    4.9292    3.5297    0.8270 C   0  0  0  0  0  0  0  0  0  0  0  0
    3.8483    3.5816    1.6670 O   0  0  0  0  0  0  0  0  0  0  0  0
    3.5629    2.3681    2.3720 C   0  0  0  0  0  0  0  0  0  0  0  0
    3.0333    2.6885    3.7721 C   0  0  0  0  0  0  0  0  0  0  0  0
    2.8551    1.4799    4.5813 N   0  0  0  0  0  0  0  0  0  0  0  0
    3.8378    0.8084    5.2853 C   0  0  0  0  0  0  0  0  0  0  0  0
    5.4168    1.3322    5.4409 S   0  0  0  0  0  0  0  0  0  0  0  0
    3.3334   -0.3522    5.8347 N   0  0  0  0  0  0  0  0  0  0  0  0
    4.0404   -1.3174    6.6603 C   0  0  0  0  0  0  0  0  0  0  0  0
    3.5619    2.7251   -4.2819 H   0  0  0  0  0  0  0  0  0  0  0  0
    3.6552    0.9038   -3.9229 H   0  0  0  0  0  0  0  0  0  0  0  0
    3.5921    3.2071   -1.8716 H   0  0  0  0  0  0  0  0  0  0  0  0
    4.8161    0.4444    0.2604 H   0  0  0  0  0  0  0  0  0  0  0  0
    6.7293    1.6672   -1.3866 H   0  0  0  0  0  0  0  0  0  0  0  0
    8.8816    2.1395   -2.2708 H   0  0  0  0  0  0  0  0  0  0  0  0
    8.1198    4.9620   -4.5080 H   0  0  0  0  0  0  0  0  0  0  0  0
    9.5268    5.5291   -6.4406 H   0  0  0  0  0  0  0  0  0  0  0  0
   12.0093    2.0904   -5.6295 H   0  0  0  0  0  0  0  0  0  0  0  0
    8.8540    7.1006   -1.1514 H   0  0  0  0  0  0  0  0  0  0  0  0
    5.3220    5.5922    1.2763 H   0  0  0  0  0  0  0  0  0  0  0  0
    4.4548    1.7395    2.4691 H   0  0  0  0  0  0  0  0  0  0  0  0
    2.7939    1.8127    1.8218 H   0  0  0  0  0  0  0  0  0  0  0  0
    2.0573    3.1813    3.6992 H   0  0  0  0  0  0  0  0  0  0  0  0
    3.6987    3.3893    4.2864 H   0  0  0  0  0  0  0  0  0  0  0  0
    1.9160    1.1120    4.6243 H   0  0  0  0  0  0  0  0  0  0  0  0
    2.3975   -0.6201    5.5700 H   0  0  0  0  0  0  0  0  0  0  0  0
    5.0499   -1.0005    6.9238 H   0  0  0  0  0  0  0  0  0  0  0  0
    4.0859   -2.2625    6.1126 H   0  0  0  0  0  0  0  0  0  0  0  0
    3.4587   -1.4643    7.5741 H   0  0  0  0  0  0  0  0  0  0  0  0
  1  2  2  0  0  0  0
  1 33  1  0  0  0  0
  1 34  1  0  0  0  0
  2  3  1  0  0  0  0
  2 35  1  0  0  0  0
  3  4  2  0  0  0  0
  3  5  1  0  0  0  0
  5  6  1  0  0  0  0
  5 36  1  0  0  0  0
  6  7  1  0  0  0  0
  6 24  2  0  0  0  0
  7  8  2  0  0  0  0
  7 37  1  0  0  0  0
  8  9  1  0  0  0  0
  8 22  1  0  0  0  0
  9 10  1  0  0  0  0
  9 19  2  0  0  0  0
 10 11  1  0  0  0  0
 10 38  1  0  0  0  0
 11 12  1  0  0  0  0
 11 17  2  0  0  0  0
 12 13  2  0  0  0  0
 12 39  1  0  0  0  0
 13 14  1  0  0  0  0
 13 40  1  0  0  0  0
 14 15  1  0  0  0  0
 14 16  2  0  0  0  0
 16 17  1  0  0  0  0
 16 41  1  0  0  0  0
 17 18  1  0  0  0  0
 19 20  1  0  0  0  0
 20 21  2  0  0  0  0
 20 42  1  0  0  0  0
 21 22  1  0  0  0  0
 22 23  2  0  0  0  0
 23 24  1  0  0  0  0
 23 43  1  0  0  0  0
 24 25  1  0  0  0  0
 25 26  1  0  0  0  0
 26 27  1  0  0  0  0
 26 44  1  0  0  0  0
 26 45  1  0  0  0  0
 27 28  1  0  0  0  0
 27 46  1  0  0  0  0
 27 47  1  0  0  0  0
 28 29  1  0  0  0  0
 28 48  1  0  0  0  0
 29 30  2  0  0  0  0
 29 31  1  0  0  0  0
 31 32  1  0  0  0  0
 31 49  1  0  0  0  0
 32 50  1  0  0  0  0
 32 51  1  0  0  0  0
 32 52  1  0  0  0  0
M  END
$$$$
