CHEMBL3899200
 OpenBabel04072215373D

 56 60  0  0  0  0  0  0  0  0999 V2000
    0.5093   -1.3211    2.4974 C   0  0  0  0  0  0  0  0  0  0  0  0
    1.3562   -0.7522    3.6079 C   0  0  0  0  0  0  0  0  0  0  0  0
    1.1741   -1.1409    4.7623 O   0  0  0  0  0  0  0  0  0  0  0  0
    2.3667    0.2252    3.2355 C   0  0  0  0  0  0  0  0  0  0  0  0
    2.6419    0.7764    1.9891 C   0  0  0  0  0  0  0  0  0  0  0  0
    3.7180    1.7072    2.0424 C   0  0  0  0  0  0  0  0  0  0  0  0
    4.2446    1.8478    3.3127 C   0  0  0  0  0  0  0  0  0  0  0  0
    5.3518    2.7190    3.6866 C   0  0  0  0  0  0  0  0  0  0  0  0
    5.8782    3.4465    2.8486 O   0  0  0  0  0  0  0  0  0  0  0  0
    5.7657    2.6222    5.0134 N   0  0  0  0  0  0  0  0  0  0  0  0
    6.8095    3.3468    5.6236 C   0  0  0  0  0  0  0  0  0  0  0  0
    7.4208    4.4507    5.0289 C   0  0  0  0  0  0  0  0  0  0  0  0
    8.5110    5.0755    5.6305 C   0  0  0  0  0  0  0  0  0  0  0  0
    8.9890    4.6165    6.8499 C   0  0  0  0  0  0  0  0  0  0  0  0
    8.3205    3.5874    7.5163 C   0  0  0  0  0  0  0  0  0  0  0  0
    8.7444    3.1458    8.8678 C   0  0  0  0  0  0  0  0  0  0  0  0
    8.5745    1.9652    9.1708 O   0  0  0  0  0  0  0  0  0  0  0  0
    9.3456    4.0795    9.8738 C   0  0  0  0  0  0  0  0  0  0  0  0
    9.2005    5.4795    9.8266 C   0  0  0  0  0  0  0  0  0  0  0  0
    9.8244    6.3234   10.7749 C   0  0  0  0  0  0  0  0  0  0  0  0
   10.4331    5.7209   11.8911 C   0  0  0  0  0  0  0  0  0  0  0  0
   11.0792    6.0860   13.1214 C   0  0  0  0  0  0  0  0  0  0  0  0
   12.5045    6.2649   13.3725 C   0  0  0  0  0  0  0  0  0  0  0  0
   13.4884    5.8632   12.5441 C   0  0  0  0  0  0  0  0  0  0  0  0
   14.7485    5.2735   13.0553 C   0  0  0  0  0  0  0  0  0  0  0  0
   15.7169    4.8261   12.1612 C   0  0  0  0  0  0  0  0  0  0  0  0
   16.7902    4.0740   12.6410 C   0  0  0  0  0  0  0  0  0  0  0  0
   16.8652    3.7755   13.9957 C   0  0  0  0  0  0  0  0  0  0  0  0
   15.8656    4.2587   14.8209 C   0  0  0  0  0  0  0  0  0  0  0  0
   14.8198    4.9978   14.3824 N   0  0  0  0  0  0  0  0  0  0  0  0
   10.5053    5.2951   14.0537 N   0  0  0  0  0  0  0  0  0  0  0  0
   10.4199    4.1335   13.3728 N   0  0  0  0  0  0  0  0  0  0  0  0
   10.2929    4.3420   12.0234 C   0  0  0  0  0  0  0  0  0  0  0  0
    9.9488    3.4825   10.9856 C   0  0  0  0  0  0  0  0  0  0  0  0
    7.2441    2.9358    6.8909 C   0  0  0  0  0  0  0  0  0  0  0  0
    3.4205    0.8543    4.4323 S   0  0  0  0  0  0  0  0  0  0  0  0
   -0.2557   -1.9760    2.9110 H   0  0  0  0  0  0  0  0  0  0  0  0
    1.1359   -1.9084    1.8131 H   0  0  0  0  0  0  0  0  0  0  0  0
    0.0052   -0.5145    1.9451 H   0  0  0  0  0  0  0  0  0  0  0  0
    2.1087    0.5258    1.0871 H   0  0  0  0  0  0  0  0  0  0  0  0
    4.1018    2.2532    1.1851 H   0  0  0  0  0  0  0  0  0  0  0  0
    5.3217    1.8755    5.5399 H   0  0  0  0  0  0  0  0  0  0  0  0
    7.0724    4.8563    4.0857 H   0  0  0  0  0  0  0  0  0  0  0  0
    8.9883    5.9179    5.1378 H   0  0  0  0  0  0  0  0  0  0  0  0
    9.8751    5.0827    7.2693 H   0  0  0  0  0  0  0  0  0  0  0  0
    8.5639    5.9455    9.0765 H   0  0  0  0  0  0  0  0  0  0  0  0
    9.6949    7.4016   10.7145 H   0  0  0  0  0  0  0  0  0  0  0  0
   12.7356    6.3440   14.4361 H   0  0  0  0  0  0  0  0  0  0  0  0
   13.2962    5.7046   11.4887 H   0  0  0  0  0  0  0  0  0  0  0  0
   15.6279    5.0165   11.0974 H   0  0  0  0  0  0  0  0  0  0  0  0
   17.5449    3.6980   11.9571 H   0  0  0  0  0  0  0  0  0  0  0  0
   17.6752    3.1738   14.3945 H   0  0  0  0  0  0  0  0  0  0  0  0
   15.8658    4.0353   15.8857 H   0  0  0  0  0  0  0  0  0  0  0  0
   10.2781    3.2770   13.8914 H   0  0  0  0  0  0  0  0  0  0  0  0
    9.9956    2.4049   11.1013 H   0  0  0  0  0  0  0  0  0  0  0  0
    6.7686    2.0946    7.3975 H   0  0  0  0  0  0  0  0  0  0  0  0
  1  2  1  0  0  0  0
  1 37  1  0  0  0  0
  1 38  1  0  0  0  0
  1 39  1  0  0  0  0
  2  3  2  0  0  0  0
  2  4  1  0  0  0  0
  4  5  2  0  0  0  0
  4 36  1  0  0  0  0
  5  6  1  0  0  0  0
  5 40  1  0  0  0  0
  6  7  2  0  0  0  0
  6 41  1  0  0  0  0
  7  8  1  0  0  0  0
  7 36  1  0  0  0  0
  8  9  2  0  0  0  0
  8 10  1  0  0  0  0
 10 11  1  0  0  0  0
 10 42  1  0  0  0  0
 11 12  1  0  0  0  0
 11 35  2  0  0  0  0
 12 13  2  0  0  0  0
 12 43  1  0  0  0  0
 13 14  1  0  0  0  0
 13 44  1  0  0  0  0
 14 15  2  0  0  0  0
 14 45  1  0  0  0  0
 15 16  1  0  0  0  0
 15 35  1  0  0  0  0
 16 17  2  0  0  0  0
 16 18  1  0  0  0  0
 18 19  1  0  0  0  0
 18 34  2  0  0  0  0
 19 20  2  0  0  0  0
 19 46  1  0  0  0  0
 20 21  1  0  0  0  0
 20 47  1  0  0  0  0
 21 22  1  0  0  0  0
 21 33  2  0  0  0  0
 22 23  1  0  0  0  0
 22 31  2  0  0  0  0
 23 24  2  0  0  0  0
 23 48  1  0  0  0  0
 24 25  1  0  0  0  0
 24 49  1  0  0  0  0
 25 26  1  0  0  0  0
 25 30  2  0  0  0  0
 26 27  2  0  0  0  0
 26 50  1  0  0  0  0
 27 28  1  0  0  0  0
 27 51  1  0  0  0  0
 28 29  2  0  0  0  0
 28 52  1  0  0  0  0
 29 30  1  0  0  0  0
 29 53  1  0  0  0  0
 31 32  1  0  0  0  0
 32 33  1  0  0  0  0
 32 54  1  0  0  0  0
 33 34  1  0  0  0  0
 34 55  1  0  0  0  0
 35 56  1  0  0  0  0
M  END
$$$$
