CHEMBL3918036
 OpenBabel04072215373D

 62 66  0  0  0  0  0  0  0  0999 V2000
    9.1746   -0.0633    1.3443 C   0  0  0  0  0  0  0  0  0  0  0  0
    7.9796   -0.9890    1.3384 C   0  0  0  0  0  0  0  0  0  0  0  0
    6.7867   -0.2240    1.2100 O   0  0  0  0  0  0  0  0  0  0  0  0
    5.6270   -1.0603    1.1901 C   0  0  0  0  0  0  0  0  0  0  0  0
    5.4082   -1.7855    2.5017 C   0  0  0  0  0  0  0  0  0  0  0  0
    5.2886   -1.0349    3.6598 C   0  0  0  0  0  0  0  0  0  0  0  0
    5.0299   -1.6598    4.8793 C   0  0  0  0  0  0  0  0  0  0  0  0
    4.9431   -1.0029    6.0778 O   0  0  0  0  0  0  0  0  0  0  0  0
    5.0465    0.4146    5.9870 C   0  0  0  0  0  0  0  0  0  0  0  0
    4.7847   -3.0412    4.9372 C   0  0  0  0  0  0  0  0  0  0  0  0
    4.7744   -3.8147    3.7820 C   0  0  0  0  0  0  0  0  0  0  0  0
    4.1989   -5.1240    3.7722 N   0  0  0  0  0  0  0  0  0  0  0  0
    3.8296   -5.6366    2.3827 C   0  0  0  0  0  0  0  0  0  0  0  0
    2.4937   -5.1176    1.8790 C   0  0  0  0  0  0  0  0  0  0  0  0
    1.1476   -5.3313    2.5340 C   0  0  0  0  0  0  0  0  0  0  0  0
    1.4904   -6.0981    1.2883 C   0  0  0  0  0  0  0  0  0  0  0  0
    4.1422   -6.1179    4.8221 C   0  0  0  0  0  0  0  0  0  0  0  0
    4.8233   -7.2704    4.5288 C   0  0  0  0  0  0  0  0  0  0  0  0
    4.6132   -8.3473    5.2963 C   0  0  0  0  0  0  0  0  0  0  0  0
    3.6552   -8.4082    6.2600 C   0  0  0  0  0  0  0  0  0  0  0  0
    3.1392   -9.5547    6.0495 N   0  0  0  0  0  0  0  0  0  0  0  0
    3.2048  -10.3611    7.0961 C   0  0  0  0  0  0  0  0  0  0  0  0
    2.9865   -9.9192    8.3576 C   0  0  0  0  0  0  0  0  0  0  0  0
    3.0556  -11.2596    9.2150 C   0  0  0  0  0  0  0  0  0  0  0  0
    3.6622  -12.5062    8.6830 C   0  0  0  0  0  0  0  0  0  0  0  0
    3.4859  -13.6146    9.3866 N   0  0  0  0  0  0  0  0  0  0  0  0
    2.7917  -13.1935   10.4423 N   0  0  0  0  0  0  0  0  0  0  0  0
    2.5015  -14.2091   11.4480 C   0  0  0  0  0  0  0  0  0  0  0  0
    2.4832  -11.8160   10.3710 C   0  0  0  0  0  0  0  0  0  0  0  0
    2.8225   -8.4741    8.4374 N   0  0  0  0  0  0  0  0  0  0  0  0
    3.2164   -7.5054    7.1693 C   0  0  0  0  0  0  0  0  0  0  0  0
    3.4422   -6.1609    6.1536 C   0  0  0  0  0  0  0  0  0  0  0  0
    5.3057   -3.1824    2.6247 C   0  0  0  0  0  0  0  0  0  0  0  0
   10.0887   -0.6377    1.5177 H   0  0  0  0  0  0  0  0  0  0  0  0
    9.0763    0.6927    2.1303 H   0  0  0  0  0  0  0  0  0  0  0  0
    9.2621    0.4675    0.3918 H   0  0  0  0  0  0  0  0  0  0  0  0
    7.9647   -1.5365    2.2847 H   0  0  0  0  0  0  0  0  0  0  0  0
    8.0489   -1.6994    0.5088 H   0  0  0  0  0  0  0  0  0  0  0  0
    5.6598   -1.7326    0.3255 H   0  0  0  0  0  0  0  0  0  0  0  0
    4.7693   -0.3918    1.0213 H   0  0  0  0  0  0  0  0  0  0  0  0
    5.4676    0.0336    3.5779 H   0  0  0  0  0  0  0  0  0  0  0  0
    4.8431    0.8322    6.9755 H   0  0  0  0  0  0  0  0  0  0  0  0
    4.3019    0.8262    5.2949 H   0  0  0  0  0  0  0  0  0  0  0  0
    6.0607    0.7058    5.6920 H   0  0  0  0  0  0  0  0  0  0  0  0
    4.5866   -3.4940    5.8981 H   0  0  0  0  0  0  0  0  0  0  0  0
    3.8584   -6.7305    2.2897 H   0  0  0  0  0  0  0  0  0  0  0  0
    4.5692   -5.3446    1.6209 H   0  0  0  0  0  0  0  0  0  0  0  0
    2.6192   -4.1646    1.3763 H   0  0  0  0  0  0  0  0  0  0  0  0
    0.4199   -4.5287    2.4293 H   0  0  0  0  0  0  0  0  0  0  0  0
    1.0679   -5.8520    3.4785 H   0  0  0  0  0  0  0  0  0  0  0  0
    0.9374   -5.8396    0.3898 H   0  0  0  0  0  0  0  0  0  0  0  0
    1.6886   -7.1632    1.3622 H   0  0  0  0  0  0  0  0  0  0  0  0
    5.3905   -7.4434    3.6186 H   0  0  0  0  0  0  0  0  0  0  0  0
    5.0418   -9.2996    4.9625 H   0  0  0  0  0  0  0  0  0  0  0  0
    3.6350  -11.2466    6.7768 H   0  0  0  0  0  0  0  0  0  0  0  0
    4.2063  -12.6816    7.7621 H   0  0  0  0  0  0  0  0  0  0  0  0
    2.8227  -15.2073   11.1009 H   0  0  0  0  0  0  0  0  0  0  0  0
    1.4294  -14.2550   11.6423 H   0  0  0  0  0  0  0  0  0  0  0  0
    3.0689  -13.9820   12.3524 H   0  0  0  0  0  0  0  0  0  0  0  0
    1.8575  -11.4236   11.1551 H   0  0  0  0  0  0  0  0  0  0  0  0
    2.9835   -5.2015    6.4427 H   0  0  0  0  0  0  0  0  0  0  0  0
    5.7561   -3.7832    1.8361 H   0  0  0  0  0  0  0  0  0  0  0  0
  1  2  1  0  0  0  0
  1 34  1  0  0  0  0
  1 35  1  0  0  0  0
  1 36  1  0  0  0  0
  2  3  1  0  0  0  0
  2 37  1  0  0  0  0
  2 38  1  0  0  0  0
  3  4  1  0  0  0  0
  4  5  1  0  0  0  0
  4 39  1  0  0  0  0
  4 40  1  0  0  0  0
  5  6  1  0  0  0  0
  5 33  2  0  0  0  0
  6  7  2  0  0  0  0
  6 41  1  0  0  0  0
  7  8  1  0  0  0  0
  7 10  1  0  0  0  0
  8  9  1  0  0  0  0
  9 42  1  0  0  0  0
  9 43  1  0  0  0  0
  9 44  1  0  0  0  0
 10 11  2  0  0  0  0
 10 45  1  0  0  0  0
 11 12  1  0  0  0  0
 11 33  1  0  0  0  0
 12 13  1  0  0  0  0
 12 17  1  0  0  0  0
 13 14  1  0  0  0  0
 13 46  1  0  0  0  0
 13 47  1  0  0  0  0
 14 15  1  0  0  0  0
 14 16  1  0  0  0  0
 14 48  1  0  0  0  0
 15 16  1  0  0  0  0
 15 49  1  0  0  0  0
 15 50  1  0  0  0  0
 16 51  1  0  0  0  0
 16 52  1  0  0  0  0
 17 18  1  0  0  0  0
 17 32  2  0  0  0  0
 18 19  2  0  0  0  0
 18 53  1  0  0  0  0
 19 20  1  0  0  0  0
 19 54  1  0  0  0  0
 20 21  1  0  0  0  0
 20 31  2  0  0  0  0
 21 22  2  0  0  0  0
 22 23  1  0  0  0  0
 22 55  1  0  0  0  0
 23 24  1  0  0  0  0
 23 30  2  0  0  0  0
 24 25  1  0  0  0  0
 24 29  2  0  0  0  0
 25 26  2  0  0  0  0
 25 56  1  0  0  0  0
 26 27  1  0  0  0  0
 27 28  1  0  0  0  0
 27 29  1  0  0  0  0
 28 57  1  0  0  0  0
 28 58  1  0  0  0  0
 28 59  1  0  0  0  0
 29 60  1  0  0  0  0
 30 31  1  0  0  0  0
 31 32  1  0  0  0  0
 32 61  1  0  0  0  0
 33 62  1  0  0  0  0
M  END
$$$$
