CHEMBL1242478
 OpenBabel04072215363D

 58 62  0  0  0  0  0  0  0  0999 V2000
   11.0470   -2.6548   -0.3269 C   0  0  0  0  0  0  0  0  0  0  0  0
    9.9683   -3.5645   -0.1128 O   0  0  0  0  0  0  0  0  0  0  0  0
    9.0567   -3.6905   -1.1260 C   0  0  0  0  0  0  0  0  0  0  0  0
    9.3854   -3.4329   -2.4632 C   0  0  0  0  0  0  0  0  0  0  0  0
    8.4653   -3.5166   -3.4948 C   0  0  0  0  0  0  0  0  0  0  0  0
    8.9087   -3.2172   -4.7225 N   0  0  0  0  0  0  0  0  0  0  0  0
    8.0457   -3.3044   -5.7564 C   0  0  0  0  0  0  0  0  0  0  0  0
    6.7355   -3.6788   -5.6145 C   0  0  0  0  0  0  0  0  0  0  0  0
    6.2503   -3.9119   -4.3245 C   0  0  0  0  0  0  0  0  0  0  0  0
    4.9117   -4.2060   -4.1112 O   0  0  0  0  0  0  0  0  0  0  0  0
    3.9557   -3.5843   -4.8952 C   0  0  0  0  0  0  0  0  0  0  0  0
    2.8339   -4.3311   -5.2382 C   0  0  0  0  0  0  0  0  0  0  0  0
    1.8012   -3.7535   -5.9943 C   0  0  0  0  0  0  0  0  0  0  0  0
    1.8560   -2.4151   -6.4172 C   0  0  0  0  0  0  0  0  0  0  0  0
    3.0226   -1.6927   -6.1094 C   0  0  0  0  0  0  0  0  0  0  0  0
    4.0391   -2.2576   -5.3251 C   0  0  0  0  0  0  0  0  0  0  0  0
    3.2773   -0.4108   -6.5327 O   0  0  0  0  0  0  0  0  0  0  0  0
    2.1095    0.2953   -6.9437 C   0  0  0  0  0  0  0  0  0  0  0  0
    1.2043   -0.5450   -7.8298 C   0  0  0  0  0  0  0  0  0  0  0  0
    0.7778   -1.7669   -7.1327 N   0  0  0  0  0  0  0  0  0  0  0  0
   -0.5484   -2.2119   -7.0056 C   0  0  0  0  0  0  0  0  0  0  0  0
   -0.8597   -3.1538   -6.2793 O   0  0  0  0  0  0  0  0  0  0  0  0
   -1.5000   -1.4987   -7.7193 N   0  0  0  0  0  0  0  0  0  0  0  0
   -2.9049   -1.7004   -7.6633 C   0  0  0  0  0  0  0  0  0  0  0  0
   -3.5433   -2.4932   -6.7022 C   0  0  0  0  0  0  0  0  0  0  0  0
   -4.9190   -2.7355   -6.7643 C   0  0  0  0  0  0  0  0  0  0  0  0
   -5.6765   -2.1591   -7.7761 C   0  0  0  0  0  0  0  0  0  0  0  0
   -7.3576   -2.4996   -7.8866 Cl  0  0  0  0  0  0  0  0  0  0  0  0
   -5.0726   -1.3130   -8.7035 C   0  0  0  0  0  0  0  0  0  0  0  0
   -3.6927   -1.0796   -8.6425 C   0  0  0  0  0  0  0  0  0  0  0  0
    7.1368   -3.8885   -3.2162 C   0  0  0  0  0  0  0  0  0  0  0  0
    6.8025   -4.1948   -1.8695 C   0  0  0  0  0  0  0  0  0  0  0  0
    7.7518   -4.1036   -0.8253 C   0  0  0  0  0  0  0  0  0  0  0  0
    7.2583   -4.3711    0.5632 C   0  0  0  0  0  0  0  0  0  0  0  0
    8.1800   -4.8455    1.6599 C   0  0  0  0  0  0  0  0  0  0  0  0
    6.0614   -4.1973    0.8022 O   0  0  0  0  0  0  0  0  0  0  0  0
   11.6527   -2.6312    0.5839 H   0  0  0  0  0  0  0  0  0  0  0  0
   10.6669   -1.6442   -0.5092 H   0  0  0  0  0  0  0  0  0  0  0  0
   11.7076   -2.9805   -1.1366 H   0  0  0  0  0  0  0  0  0  0  0  0
   10.3940   -3.1505   -2.7508 H   0  0  0  0  0  0  0  0  0  0  0  0
    8.4562   -3.0423   -6.7235 H   0  0  0  0  0  0  0  0  0  0  0  0
    6.0972   -3.7413   -6.4886 H   0  0  0  0  0  0  0  0  0  0  0  0
    2.7463   -5.3681   -4.9226 H   0  0  0  0  0  0  0  0  0  0  0  0
    0.9650   -4.3965   -6.2573 H   0  0  0  0  0  0  0  0  0  0  0  0
    4.8909   -1.6397   -5.0564 H   0  0  0  0  0  0  0  0  0  0  0  0
    2.4463    1.1761   -7.5022 H   0  0  0  0  0  0  0  0  0  0  0  0
    1.5787    0.6516   -6.0536 H   0  0  0  0  0  0  0  0  0  0  0  0
    1.7386   -0.8691   -8.7323 H   0  0  0  0  0  0  0  0  0  0  0  0
    0.3620    0.0739   -8.1421 H   0  0  0  0  0  0  0  0  0  0  0  0
   -1.1797   -0.9567   -8.5035 H   0  0  0  0  0  0  0  0  0  0  0  0
   -2.9986   -2.9567   -5.8843 H   0  0  0  0  0  0  0  0  0  0  0  0
   -5.3807   -3.3850   -6.0245 H   0  0  0  0  0  0  0  0  0  0  0  0
   -5.6672   -0.8458   -9.4837 H   0  0  0  0  0  0  0  0  0  0  0  0
   -3.2477   -0.4233   -9.3857 H   0  0  0  0  0  0  0  0  0  0  0  0
    5.7834   -4.5079   -1.6319 H   0  0  0  0  0  0  0  0  0  0  0  0
    9.1148   -5.2641    1.2865 H   0  0  0  0  0  0  0  0  0  0  0  0
    7.6781   -5.6505    2.2078 H   0  0  0  0  0  0  0  0  0  0  0  0
    8.3834   -4.0196    2.3479 H   0  0  0  0  0  0  0  0  0  0  0  0
  1  2  1  0  0  0  0
  1 37  1  0  0  0  0
  1 38  1  0  0  0  0
  1 39  1  0  0  0  0
  2  3  1  0  0  0  0
  3  4  1  0  0  0  0
  3 33  2  0  0  0  0
  4  5  2  0  0  0  0
  4 40  1  0  0  0  0
  5  6  1  0  0  0  0
  5 31  1  0  0  0  0
  6  7  2  0  0  0  0
  7  8  1  0  0  0  0
  7 41  1  0  0  0  0
  8  9  2  0  0  0  0
  8 42  1  0  0  0  0
  9 10  1  0  0  0  0
  9 31  1  0  0  0  0
 10 11  1  0  0  0  0
 11 12  1  0  0  0  0
 11 16  2  0  0  0  0
 12 13  2  0  0  0  0
 12 43  1  0  0  0  0
 13 14  1  0  0  0  0
 13 44  1  0  0  0  0
 14 15  2  0  0  0  0
 14 20  1  0  0  0  0
 15 16  1  0  0  0  0
 15 17  1  0  0  0  0
 16 45  1  0  0  0  0
 17 18  1  0  0  0  0
 18 19  1  0  0  0  0
 18 46  1  0  0  0  0
 18 47  1  0  0  0  0
 19 20  1  0  0  0  0
 19 48  1  0  0  0  0
 19 49  1  0  0  0  0
 20 21  1  0  0  0  0
 21 22  2  0  0  0  0
 21 23  1  0  0  0  0
 23 24  1  0  0  0  0
 23 50  1  0  0  0  0
 24 25  1  0  0  0  0
 24 30  2  0  0  0  0
 25 26  2  0  0  0  0
 25 51  1  0  0  0  0
 26 27  1  0  0  0  0
 26 52  1  0  0  0  0
 27 28  1  0  0  0  0
 27 29  2  0  0  0  0
 29 30  1  0  0  0  0
 29 53  1  0  0  0  0
 30 54  1  0  0  0  0
 31 32  2  0  0  0  0
 32 33  1  0  0  0  0
 32 55  1  0  0  0  0
 33 34  1  0  0  0  0
 34 35  1  0  0  0  0
 34 36  2  0  0  0  0
 35 56  1  0  0  0  0
 35 57  1  0  0  0  0
 35 58  1  0  0  0  0
M  END
$$$$
