CHEMBL3741187
 OpenBabel04072215373D

 62 66  0  0  0  0  0  0  0  0999 V2000
   -0.6143   -5.0244    2.6781 C   0  0  0  0  0  0  0  0  0  0  0  0
   -0.3793   -3.5459    2.8383 C   0  0  0  0  0  0  0  0  0  0  0  0
   -1.1887   -2.8337    3.7441 C   0  0  0  0  0  0  0  0  0  0  0  0
   -1.0118   -1.4662    3.9441 C   0  0  0  0  0  0  0  0  0  0  0  0
   -0.0214   -0.7989    3.2301 C   0  0  0  0  0  0  0  0  0  0  0  0
    0.1863    0.9511    3.4402 S   0  0  0  0  0  0  0  0  0  0  0  0
    1.3178    1.0849    4.7982 C   0  0  0  0  0  0  0  0  0  0  0  0
    0.8428    1.4699    2.2547 O   0  0  0  0  0  0  0  0  0  0  0  0
   -1.0875    1.4880    3.8670 O   0  0  0  0  0  0  0  0  0  0  0  0
    0.7691   -1.4818    2.3047 C   0  0  0  0  0  0  0  0  0  0  0  0
    0.6201   -2.8666    2.1081 C   0  0  0  0  0  0  0  0  0  0  0  0
    1.4085   -3.5585    1.1591 N   0  0  0  0  0  0  0  0  0  0  0  0
    2.6582   -3.1474    0.6687 C   0  0  0  0  0  0  0  0  0  0  0  0
    2.9407   -3.4235   -0.6129 N   0  0  0  0  0  0  0  0  0  0  0  0
    4.0894   -2.9118   -1.1014 C   0  0  0  0  0  0  0  0  0  0  0  0
    4.9612   -2.1454   -0.3647 C   0  0  0  0  0  0  0  0  0  0  0  0
    4.6148   -1.9714    0.9548 C   0  0  0  0  0  0  0  0  0  0  0  0
    5.2922   -1.1687    1.8416 O   0  0  0  0  0  0  0  0  0  0  0  0
    6.6620   -1.1326    1.8691 C   0  0  0  0  0  0  0  0  0  0  0  0
    7.2191    0.0264    2.4007 C   0  0  0  0  0  0  0  0  0  0  0  0
    8.6045    0.1923    2.4226 C   0  0  0  0  0  0  0  0  0  0  0  0
    9.4697   -0.7585    1.8315 C   0  0  0  0  0  0  0  0  0  0  0  0
   10.8635   -0.5720    1.5999 C   0  0  0  0  0  0  0  0  0  0  0  0
   11.5862    0.7355    1.7501 C   0  0  0  0  0  0  0  0  0  0  0  0
   12.7538    0.7078    2.1236 O   0  0  0  0  0  0  0  0  0  0  0  0
   10.8757    1.8626    1.3710 N   0  0  0  0  0  0  0  0  0  0  0  0
   11.3165    3.2039    1.3651 C   0  0  0  0  0  0  0  0  0  0  0  0
   12.6146    3.6033    1.6843 C   0  0  0  0  0  0  0  0  0  0  0  0
   12.9754    4.9546    1.6289 C   0  0  0  0  0  0  0  0  0  0  0  0
   12.0392    5.9192    1.2650 C   0  0  0  0  0  0  0  0  0  0  0  0
   10.7389    5.5338    0.9534 C   0  0  0  0  0  0  0  0  0  0  0  0
   10.3809    4.1830    1.0003 C   0  0  0  0  0  0  0  0  0  0  0  0
   11.6460   -1.6326    1.1085 C   0  0  0  0  0  0  0  0  0  0  0  0
   11.0726   -2.8663    0.8213 C   0  0  0  0  0  0  0  0  0  0  0  0
    9.7023   -3.0404    0.9782 C   0  0  0  0  0  0  0  0  0  0  0  0
    8.8913   -1.9957    1.4428 C   0  0  0  0  0  0  0  0  0  0  0  0
    7.5000   -2.1770    1.4910 C   0  0  0  0  0  0  0  0  0  0  0  0
    3.4805   -2.4612    1.4723 N   0  0  0  0  0  0  0  0  0  0  0  0
   -1.2664   -5.4082    3.4712 H   0  0  0  0  0  0  0  0  0  0  0  0
    0.3264   -5.5791    2.7461 H   0  0  0  0  0  0  0  0  0  0  0  0
   -1.0958   -5.2305    1.7178 H   0  0  0  0  0  0  0  0  0  0  0  0
   -1.9684   -3.3486    4.3029 H   0  0  0  0  0  0  0  0  0  0  0  0
   -1.6539   -0.9349    4.6423 H   0  0  0  0  0  0  0  0  0  0  0  0
    2.2793    0.6555    4.5108 H   0  0  0  0  0  0  0  0  0  0  0  0
    0.9002    0.5657    5.6629 H   0  0  0  0  0  0  0  0  0  0  0  0
    1.4402    2.1457    5.0299 H   0  0  0  0  0  0  0  0  0  0  0  0
    1.5024   -0.9229    1.7270 H   0  0  0  0  0  0  0  0  0  0  0  0
    0.8704   -3.8768    0.3595 H   0  0  0  0  0  0  0  0  0  0  0  0
    4.2845   -3.1334   -2.1482 H   0  0  0  0  0  0  0  0  0  0  0  0
    5.8447   -1.7130   -0.8101 H   0  0  0  0  0  0  0  0  0  0  0  0
    6.5756    0.8079    2.7983 H   0  0  0  0  0  0  0  0  0  0  0  0
    8.9983    1.0857    2.9049 H   0  0  0  0  0  0  0  0  0  0  0  0
    9.9380    1.7200    1.0209 H   0  0  0  0  0  0  0  0  0  0  0  0
   13.3785    2.8863    1.9670 H   0  0  0  0  0  0  0  0  0  0  0  0
   13.9944    5.2484    1.8682 H   0  0  0  0  0  0  0  0  0  0  0  0
   12.3246    6.9674    1.2235 H   0  0  0  0  0  0  0  0  0  0  0  0
   10.0037    6.2829    0.6713 H   0  0  0  0  0  0  0  0  0  0  0  0
    9.3579    3.9123    0.7531 H   0  0  0  0  0  0  0  0  0  0  0  0
   12.7106   -1.4884    0.9280 H   0  0  0  0  0  0  0  0  0  0  0  0
   11.6875   -3.6801    0.4442 H   0  0  0  0  0  0  0  0  0  0  0  0
    9.2670   -4.0042    0.7181 H   0  0  0  0  0  0  0  0  0  0  0  0
    7.0749   -3.1351    1.2018 H   0  0  0  0  0  0  0  0  0  0  0  0
  1  2  1  0  0  0  0
  1 39  1  0  0  0  0
  1 40  1  0  0  0  0
  1 41  1  0  0  0  0
  2  3  1  0  0  0  0
  2 11  2  0  0  0  0
  3  4  2  0  0  0  0
  3 42  1  0  0  0  0
  4  5  1  0  0  0  0
  4 43  1  0  0  0  0
  5  6  1  0  0  0  0
  5 10  2  0  0  0  0
  6  7  1  0  0  0  0
  6  8  2  0  0  0  0
  6  9  2  0  0  0  0
  7 44  1  0  0  0  0
  7 45  1  0  0  0  0
  7 46  1  0  0  0  0
 10 11  1  0  0  0  0
 10 47  1  0  0  0  0
 11 12  1  0  0  0  0
 12 13  1  0  0  0  0
 12 48  1  0  0  0  0
 13 14  1  0  0  0  0
 13 38  2  0  0  0  0
 14 15  2  0  0  0  0
 15 16  1  0  0  0  0
 15 49  1  0  0  0  0
 16 17  2  0  0  0  0
 16 50  1  0  0  0  0
 17 18  1  0  0  0  0
 17 38  1  0  0  0  0
 18 19  1  0  0  0  0
 19 20  1  0  0  0  0
 19 37  2  0  0  0  0
 20 21  2  0  0  0  0
 20 51  1  0  0  0  0
 21 22  1  0  0  0  0
 21 52  1  0  0  0  0
 22 23  1  0  0  0  0
 22 36  2  0  0  0  0
 23 24  1  0  0  0  0
 23 33  2  0  0  0  0
 24 25  2  0  0  0  0
 24 26  1  0  0  0  0
 26 27  1  0  0  0  0
 26 53  1  0  0  0  0
 27 28  1  0  0  0  0
 27 32  2  0  0  0  0
 28 29  2  0  0  0  0
 28 54  1  0  0  0  0
 29 30  1  0  0  0  0
 29 55  1  0  0  0  0
 30 31  2  0  0  0  0
 30 56  1  0  0  0  0
 31 32  1  0  0  0  0
 31 57  1  0  0  0  0
 32 58  1  0  0  0  0
 33 34  1  0  0  0  0
 33 59  1  0  0  0  0
 34 35  2  0  0  0  0
 34 60  1  0  0  0  0
 35 36  1  0  0  0  0
 35 61  1  0  0  0  0
 36 37  1  0  0  0  0
 37 62  1  0  0  0  0
M  END
$$$$
