CHEMBL3686065
 OpenBabel04072215373D

 62 66  0  0  0  0  0  0  0  0999 V2000
    2.0322   -1.9151    1.7121 C   0  0  0  0  0  0  0  0  0  0  0  0
    2.9800   -2.2180    0.6302 N   0  0  0  0  0  0  0  0  0  0  0  0
    2.2871   -2.9710   -0.4223 C   0  0  0  0  0  0  0  0  0  0  0  0
    3.1604   -3.1964   -1.6544 C   0  0  0  0  0  0  0  0  0  0  0  0
    3.6966   -1.8716   -2.2143 C   0  0  0  0  0  0  0  0  0  0  0  0
    2.6618   -1.0723   -2.8747 N   0  0  0  0  0  0  0  0  0  0  0  0
    1.9070   -1.4681   -3.9457 C   0  0  0  0  0  0  0  0  0  0  0  0
    1.0593   -0.4200   -4.2479 C   0  0  0  0  0  0  0  0  0  0  0  0
    0.0439   -0.4342   -5.2627 C   0  0  0  0  0  0  0  0  0  0  0  0
    0.1510   -1.4247   -6.3452 C   0  0  0  0  0  0  0  0  0  0  0  0
   -0.8881   -1.6614   -7.1556 C   0  0  0  0  0  0  0  0  0  0  0  0
   -1.9597   -0.7770   -7.1435 N   0  0  0  0  0  0  0  0  0  0  0  0
   -2.9576   -0.5884   -8.0819 C   0  0  0  0  0  0  0  0  0  0  0  0
   -3.0604   -1.2233   -9.4105 C   0  0  0  0  0  0  0  0  0  0  0  0
   -4.3223   -1.5267   -9.9098 C   0  0  0  0  0  0  0  0  0  0  0  0
   -4.4639   -2.0344  -11.2016 C   0  0  0  0  0  0  0  0  0  0  0  0
   -3.3392   -2.2332  -12.0011 C   0  0  0  0  0  0  0  0  0  0  0  0
   -2.0547   -1.9419  -11.5299 C   0  0  0  0  0  0  0  0  0  0  0  0
   -0.8782   -2.1220  -12.3118 N   0  0  0  0  0  0  0  0  0  0  0  0
   -0.8476   -2.5508  -13.6271 C   0  0  0  0  0  0  0  0  0  0  0  0
   -1.7994   -2.8162  -14.3494 O   0  0  0  0  0  0  0  0  0  0  0  0
    0.4385   -2.7092  -14.0953 N   0  0  0  0  0  0  0  0  0  0  0  0
    0.6192   -3.1466  -15.4897 C   0  0  0  0  0  0  0  0  0  0  0  0
    0.4450   -2.0638  -16.5671 C   0  0  0  0  0  0  0  0  0  0  0  0
    0.3458   -0.8257  -16.0307 F   0  0  0  0  0  0  0  0  0  0  0  0
    1.5315   -2.0497  -17.3807 F   0  0  0  0  0  0  0  0  0  0  0  0
   -0.6346   -2.2763  -17.3461 F   0  0  0  0  0  0  0  0  0  0  0  0
   -1.9277   -1.4395  -10.2246 C   0  0  0  0  0  0  0  0  0  0  0  0
   -3.7226    0.4423   -7.5500 C   0  0  0  0  0  0  0  0  0  0  0  0
   -3.1824    0.9371   -6.3912 N   0  0  0  0  0  0  0  0  0  0  0  0
   -2.0868    0.2357   -6.1972 C   0  0  0  0  0  0  0  0  0  0  0  0
   -1.0567    0.3583   -5.2162 C   0  0  0  0  0  0  0  0  0  0  0  0
    1.4107    0.5793   -3.3193 C   0  0  0  0  0  0  0  0  0  0  0  0
    2.4018    0.1985   -2.5081 N   0  0  0  0  0  0  0  0  0  0  0  0
    4.4474   -1.1469   -1.0912 C   0  0  0  0  0  0  0  0  0  0  0  0
    3.5725   -0.9596    0.1490 C   0  0  0  0  0  0  0  0  0  0  0  0
    1.6032   -2.8350    2.1237 H   0  0  0  0  0  0  0  0  0  0  0  0
    1.2066   -1.2808    1.3644 H   0  0  0  0  0  0  0  0  0  0  0  0
    2.5348   -1.3978    2.5364 H   0  0  0  0  0  0  0  0  0  0  0  0
    1.3551   -2.4760   -0.7207 H   0  0  0  0  0  0  0  0  0  0  0  0
    2.0133   -3.9568   -0.0234 H   0  0  0  0  0  0  0  0  0  0  0  0
    2.5903   -3.7511   -2.4085 H   0  0  0  0  0  0  0  0  0  0  0  0
    4.0095   -3.8380   -1.3812 H   0  0  0  0  0  0  0  0  0  0  0  0
    4.4135   -2.0967   -3.0153 H   0  0  0  0  0  0  0  0  0  0  0  0
    2.0184   -2.4539   -4.3723 H   0  0  0  0  0  0  0  0  0  0  0  0
    1.0872   -1.9498   -6.4971 H   0  0  0  0  0  0  0  0  0  0  0  0
   -0.8892   -2.4543   -7.8899 H   0  0  0  0  0  0  0  0  0  0  0  0
   -5.2176   -1.3732   -9.3108 H   0  0  0  0  0  0  0  0  0  0  0  0
   -5.4518   -2.2553  -11.5966 H   0  0  0  0  0  0  0  0  0  0  0  0
   -3.5132   -2.6258  -12.9985 H   0  0  0  0  0  0  0  0  0  0  0  0
    0.0047   -1.9359  -11.8695 H   0  0  0  0  0  0  0  0  0  0  0  0
    1.1335   -2.0777  -13.7239 H   0  0  0  0  0  0  0  0  0  0  0  0
   -0.0861   -3.9626  -15.6907 H   0  0  0  0  0  0  0  0  0  0  0  0
    1.6248   -3.5698  -15.5502 H   0  0  0  0  0  0  0  0  0  0  0  0
   -0.9397   -1.1750   -9.8594 H   0  0  0  0  0  0  0  0  0  0  0  0
   -4.5919    0.9037   -7.9972 H   0  0  0  0  0  0  0  0  0  0  0  0
   -1.2173    1.0854   -4.4276 H   0  0  0  0  0  0  0  0  0  0  0  0
    0.9950    1.5709   -3.1948 H   0  0  0  0  0  0  0  0  0  0  0  0
    4.8232   -0.1755   -1.4334 H   0  0  0  0  0  0  0  0  0  0  0  0
    5.3307   -1.7397   -0.8171 H   0  0  0  0  0  0  0  0  0  0  0  0
    2.7937   -0.2143   -0.0454 H   0  0  0  0  0  0  0  0  0  0  0  0
    4.2065   -0.5444    0.9426 H   0  0  0  0  0  0  0  0  0  0  0  0
  1  2  1  0  0  0  0
  1 37  1  0  0  0  0
  1 38  1  0  0  0  0
  1 39  1  0  0  0  0
  2  3  1  0  0  0  0
  2 36  1  0  0  0  0
  3  4  1  0  0  0  0
  3 40  1  0  0  0  0
  3 41  1  0  0  0  0
  4  5  1  0  0  0  0
  4 42  1  0  0  0  0
  4 43  1  0  0  0  0
  5  6  1  0  0  0  0
  5 35  1  0  0  0  0
  5 44  1  0  0  0  0
  6  7  1  0  0  0  0
  6 34  1  0  0  0  0
  7  8  2  0  0  0  0
  7 45  1  0  0  0  0
  8  9  1  0  0  0  0
  8 33  1  0  0  0  0
  9 10  1  0  0  0  0
  9 32  2  0  0  0  0
 10 11  2  0  0  0  0
 10 46  1  0  0  0  0
 11 12  1  0  0  0  0
 11 47  1  0  0  0  0
 12 13  1  0  0  0  0
 12 31  1  0  0  0  0
 13 14  1  0  0  0  0
 13 29  2  0  0  0  0
 14 15  1  0  0  0  0
 14 28  2  0  0  0  0
 15 16  2  0  0  0  0
 15 48  1  0  0  0  0
 16 17  1  0  0  0  0
 16 49  1  0  0  0  0
 17 18  2  0  0  0  0
 17 50  1  0  0  0  0
 18 19  1  0  0  0  0
 18 28  1  0  0  0  0
 19 20  1  0  0  0  0
 19 51  1  0  0  0  0
 20 21  2  0  0  0  0
 20 22  1  0  0  0  0
 22 23  1  0  0  0  0
 22 52  1  0  0  0  0
 23 24  1  0  0  0  0
 23 53  1  0  0  0  0
 23 54  1  0  0  0  0
 24 25  1  0  0  0  0
 24 26  1  0  0  0  0
 24 27  1  0  0  0  0
 28 55  1  0  0  0  0
 29 30  1  0  0  0  0
 29 56  1  0  0  0  0
 30 31  2  0  0  0  0
 31 32  1  0  0  0  0
 32 57  1  0  0  0  0
 33 34  2  0  0  0  0
 33 58  1  0  0  0  0
 35 36  1  0  0  0  0
 35 59  1  0  0  0  0
 35 60  1  0  0  0  0
 36 61  1  0  0  0  0
 36 62  1  0  0  0  0
M  END
$$$$
