CHEMBL203438
 OpenBabel04072215363D

 56 61  0  0  0  0  0  0  0  0999 V2000
   -2.1922   -0.8879    0.3603 C   0  0  0  0  0  0  0  0  0  0  0  0
   -2.3517    0.4925    0.3047 C   0  0  0  0  0  0  0  0  0  0  0  0
   -1.3040    1.3589   -0.0860 C   0  0  0  0  0  0  0  0  0  0  0  0
   -1.4962    2.8359    0.0544 C   0  0  0  0  0  0  0  0  0  0  0  0
   -1.0224    3.5539   -0.9834 N   0  0  0  0  0  0  0  0  0  0  0  0
   -1.0422    4.9197   -0.9675 N   0  0  0  0  0  0  0  0  0  0  0  0
   -1.6454    5.5997    0.0260 C   0  0  0  0  0  0  0  0  0  0  0  0
   -1.5410    7.0058    0.0721 N   0  0  0  0  0  0  0  0  0  0  0  0
   -0.5288    7.8590   -0.4117 C   0  0  0  0  0  0  0  0  0  0  0  0
    0.6927    7.4095   -0.9173 C   0  0  0  0  0  0  0  0  0  0  0  0
    1.7429    8.2992   -1.2087 C   0  0  0  0  0  0  0  0  0  0  0  0
    1.6413    9.6730   -0.9736 C   0  0  0  0  0  0  0  0  0  0  0  0
    2.6976   10.5373   -1.1643 N   0  0  0  0  0  0  0  0  0  0  0  0
    3.7725   10.3177   -2.1451 C   0  0  0  0  0  0  0  0  0  0  0  0
    5.1445   10.3630   -1.4531 C   0  0  0  0  0  0  0  0  0  0  0  0
    5.3241   11.5843   -0.7153 O   0  0  0  0  0  0  0  0  0  0  0  0
    4.3075   11.7037    0.2927 C   0  0  0  0  0  0  0  0  0  0  0  0
    2.8947   11.7261   -0.3179 C   0  0  0  0  0  0  0  0  0  0  0  0
    0.4016   10.1187   -0.4935 C   0  0  0  0  0  0  0  0  0  0  0  0
   -0.6554    9.2362   -0.2126 C   0  0  0  0  0  0  0  0  0  0  0  0
   -2.2963    4.8981    1.0708 C   0  0  0  0  0  0  0  0  0  0  0  0
   -3.0607    5.5452    2.0807 C   0  0  0  0  0  0  0  0  0  0  0  0
   -3.6552    4.8409    3.1289 C   0  0  0  0  0  0  0  0  0  0  0  0
   -3.4292    3.4835    3.2496 C   0  0  0  0  0  0  0  0  0  0  0  0
   -2.6577    2.8306    2.2902 C   0  0  0  0  0  0  0  0  0  0  0  0
   -2.1484    3.4877    1.1338 C   0  0  0  0  0  0  0  0  0  0  0  0
   -0.1037    0.7605   -0.6143 C   0  0  0  0  0  0  0  0  0  0  0  0
    0.9994    1.4582   -1.1688 C   0  0  0  0  0  0  0  0  0  0  0  0
    2.0819    0.7704   -1.6995 C   0  0  0  0  0  0  0  0  0  0  0  0
    2.1943   -0.5671   -1.6902 N   0  0  0  0  0  0  0  0  0  0  0  0
    1.1647   -1.2405   -1.1360 C   0  0  0  0  0  0  0  0  0  0  0  0
    0.0119   -0.6530   -0.6049 C   0  0  0  0  0  0  0  0  0  0  0  0
   -1.0073   -1.4555   -0.0784 C   0  0  0  0  0  0  0  0  0  0  0  0
   -2.9932   -1.5150    0.7437 H   0  0  0  0  0  0  0  0  0  0  0  0
   -3.3192    0.8947    0.6022 H   0  0  0  0  0  0  0  0  0  0  0  0
   -2.4438    7.4525    0.1739 H   0  0  0  0  0  0  0  0  0  0  0  0
    0.8802    6.3522   -1.0754 H   0  0  0  0  0  0  0  0  0  0  0  0
    2.6715    7.8648   -1.5698 H   0  0  0  0  0  0  0  0  0  0  0  0
    3.7200   11.1318   -2.8787 H   0  0  0  0  0  0  0  0  0  0  0  0
    3.6701    9.3844   -2.7062 H   0  0  0  0  0  0  0  0  0  0  0  0
    5.9404   10.3135   -2.2033 H   0  0  0  0  0  0  0  0  0  0  0  0
    5.2738    9.5136   -0.7721 H   0  0  0  0  0  0  0  0  0  0  0  0
    4.4893   12.6345    0.8396 H   0  0  0  0  0  0  0  0  0  0  0  0
    4.4140   10.8748    1.0034 H   0  0  0  0  0  0  0  0  0  0  0  0
    2.7768   12.6182   -0.9438 H   0  0  0  0  0  0  0  0  0  0  0  0
    2.1758   11.7907    0.5052 H   0  0  0  0  0  0  0  0  0  0  0  0
    0.2287   11.1788   -0.3304 H   0  0  0  0  0  0  0  0  0  0  0  0
   -1.5709    9.6506    0.1958 H   0  0  0  0  0  0  0  0  0  0  0  0
   -3.2165    6.6208    2.0540 H   0  0  0  0  0  0  0  0  0  0  0  0
   -4.2665    5.3585    3.8634 H   0  0  0  0  0  0  0  0  0  0  0  0
   -3.8469    2.9247    4.0839 H   0  0  0  0  0  0  0  0  0  0  0  0
   -2.4607    1.7761    2.4669 H   0  0  0  0  0  0  0  0  0  0  0  0
    1.0277    2.5410   -1.2306 H   0  0  0  0  0  0  0  0  0  0  0  0
    2.9057    1.3045   -2.1649 H   0  0  0  0  0  0  0  0  0  0  0  0
    1.2906   -2.3205   -1.1434 H   0  0  0  0  0  0  0  0  0  0  0  0
   -0.8953   -2.5376   -0.0358 H   0  0  0  0  0  0  0  0  0  0  0  0
  1  2  1  0  0  0  0
  1 33  2  0  0  0  0
  1 34  1  0  0  0  0
  2  3  2  0  0  0  0
  2 35  1  0  0  0  0
  3  4  1  0  0  0  0
  3 27  1  0  0  0  0
  4  5  1  0  0  0  0
  4 26  2  0  0  0  0
  5  6  2  0  0  0  0
  6  7  1  0  0  0  0
  7  8  1  0  0  0  0
  7 21  2  0  0  0  0
  8  9  1  0  0  0  0
  8 36  1  0  0  0  0
  9 10  1  0  0  0  0
  9 20  2  0  0  0  0
 10 11  2  0  0  0  0
 10 37  1  0  0  0  0
 11 12  1  0  0  0  0
 11 38  1  0  0  0  0
 12 13  1  0  0  0  0
 12 19  2  0  0  0  0
 13 14  1  0  0  0  0
 13 18  1  0  0  0  0
 14 15  1  0  0  0  0
 14 39  1  0  0  0  0
 14 40  1  0  0  0  0
 15 16  1  0  0  0  0
 15 41  1  0  0  0  0
 15 42  1  0  0  0  0
 16 17  1  0  0  0  0
 17 18  1  0  0  0  0
 17 43  1  0  0  0  0
 17 44  1  0  0  0  0
 18 45  1  0  0  0  0
 18 46  1  0  0  0  0
 19 20  1  0  0  0  0
 19 47  1  0  0  0  0
 20 48  1  0  0  0  0
 21 22  1  0  0  0  0
 21 26  1  0  0  0  0
 22 23  2  0  0  0  0
 22 49  1  0  0  0  0
 23 24  1  0  0  0  0
 23 50  1  0  0  0  0
 24 25  2  0  0  0  0
 24 51  1  0  0  0  0
 25 26  1  0  0  0  0
 25 52  1  0  0  0  0
 27 28  1  0  0  0  0
 27 32  2  0  0  0  0
 28 29  2  0  0  0  0
 28 53  1  0  0  0  0
 29 30  1  0  0  0  0
 29 54  1  0  0  0  0
 30 31  2  0  0  0  0
 31 32  1  0  0  0  0
 31 55  1  0  0  0  0
 32 33  1  0  0  0  0
 33 56  1  0  0  0  0
M  END
$$$$
