CHEMBL231467
 OpenBabel04072215363D

 61 65  0  0  0  0  0  0  0  0999 V2000
   -5.4240   -9.5641    5.3737 C   0  0  0  0  0  0  0  0  0  0  0  0
   -4.6410  -10.7312    5.7141 N   0  0  0  0  0  0  0  0  0  0  0  0
   -3.4482  -10.8480    5.0133 C   0  0  0  0  0  0  0  0  0  0  0  0
   -3.0366  -12.1028    4.7925 N   0  0  0  0  0  0  0  0  0  0  0  0
   -1.8866  -12.2583    4.1157 C   0  0  0  0  0  0  0  0  0  0  0  0
   -1.1450  -11.2086    3.6404 C   0  0  0  0  0  0  0  0  0  0  0  0
   -1.6326   -9.9565    3.9466 C   0  0  0  0  0  0  0  0  0  0  0  0
   -0.9979   -8.7945    3.5496 O   0  0  0  0  0  0  0  0  0  0  0  0
    0.3720   -8.7066    3.6870 C   0  0  0  0  0  0  0  0  0  0  0  0
    1.0351   -7.8509    2.7968 C   0  0  0  0  0  0  0  0  0  0  0  0
    2.4337   -7.7217    2.8025 C   0  0  0  0  0  0  0  0  0  0  0  0
    3.1220   -8.5005    3.7351 C   0  0  0  0  0  0  0  0  0  0  0  0
    4.4575   -8.6749    4.0171 N   0  0  0  0  0  0  0  0  0  0  0  0
    4.5661   -9.5220    5.0965 C   0  0  0  0  0  0  0  0  0  0  0  0
    5.7729   -9.7915    5.6433 N   0  0  0  0  0  0  0  0  0  0  0  0
    5.9942  -10.0655    7.0152 C   0  0  0  0  0  0  0  0  0  0  0  0
    4.9658  -10.1213    7.9647 C   0  0  0  0  0  0  0  0  0  0  0  0
    5.2356  -10.3255    9.3177 C   0  0  0  0  0  0  0  0  0  0  0  0
    6.5449  -10.5107    9.7589 C   0  0  0  0  0  0  0  0  0  0  0  0
    6.7897  -10.6637   11.4571 Cl  0  0  0  0  0  0  0  0  0  0  0  0
    7.5970  -10.5334    8.8302 C   0  0  0  0  0  0  0  0  0  0  0  0
    9.0379  -10.7555    9.2415 C   0  0  0  0  0  0  0  0  0  0  0  0
    9.9195   -9.6443    8.8520 N   0  0  0  0  0  0  0  0  0  0  0  0
    9.5650   -8.3816    9.5335 C   0  0  0  0  0  0  0  0  0  0  0  0
   10.4986   -7.2340    9.0853 C   0  0  0  0  0  0  0  0  0  0  0  0
   11.9378   -7.4905    9.2939 N   0  0  0  0  0  0  0  0  0  0  0  0
   12.2952   -7.3900   10.7074 C   0  0  0  0  0  0  0  0  0  0  0  0
   12.2800   -8.8156    8.7373 C   0  0  0  0  0  0  0  0  0  0  0  0
   11.3298   -9.9679    9.1450 C   0  0  0  0  0  0  0  0  0  0  0  0
    7.2990  -10.3200    7.4640 C   0  0  0  0  0  0  0  0  0  0  0  0
    3.3784   -9.9431    5.4657 N   0  0  0  0  0  0  0  0  0  0  0  0
    2.4814   -9.3120    4.6576 C   0  0  0  0  0  0  0  0  0  0  0  0
    1.0881   -9.3945    4.6716 C   0  0  0  0  0  0  0  0  0  0  0  0
   -2.7891   -9.7602    4.6027 N   0  0  0  0  0  0  0  0  0  0  0  0
   -6.3722   -9.5980    5.9197 H   0  0  0  0  0  0  0  0  0  0  0  0
   -5.6572   -9.5298    4.3038 H   0  0  0  0  0  0  0  0  0  0  0  0
   -4.9152   -8.6388    5.6650 H   0  0  0  0  0  0  0  0  0  0  0  0
   -5.1110  -11.6236    5.6232 H   0  0  0  0  0  0  0  0  0  0  0  0
   -1.5672  -13.2855    3.9689 H   0  0  0  0  0  0  0  0  0  0  0  0
   -0.2260  -11.3687    3.0962 H   0  0  0  0  0  0  0  0  0  0  0  0
    0.4524   -7.2744    2.0803 H   0  0  0  0  0  0  0  0  0  0  0  0
    2.9410   -7.0609    2.1086 H   0  0  0  0  0  0  0  0  0  0  0  0
    5.2241   -8.2052    3.5651 H   0  0  0  0  0  0  0  0  0  0  0  0
    6.6228   -9.5220    5.1619 H   0  0  0  0  0  0  0  0  0  0  0  0
    3.9290   -9.9736    7.6836 H   0  0  0  0  0  0  0  0  0  0  0  0
    4.4081  -10.3228   10.0278 H   0  0  0  0  0  0  0  0  0  0  0  0
    9.3649  -11.6714    8.7301 H   0  0  0  0  0  0  0  0  0  0  0  0
    9.1398  -10.9630   10.3105 H   0  0  0  0  0  0  0  0  0  0  0  0
    9.6056   -8.5000   10.6239 H   0  0  0  0  0  0  0  0  0  0  0  0
    8.5422   -8.0824    9.2804 H   0  0  0  0  0  0  0  0  0  0  0  0
   10.2021   -6.3017    9.5810 H   0  0  0  0  0  0  0  0  0  0  0  0
   10.3398   -7.0582    8.0127 H   0  0  0  0  0  0  0  0  0  0  0  0
   12.0391   -6.3979   11.0951 H   0  0  0  0  0  0  0  0  0  0  0  0
   13.3777   -7.5025   10.8322 H   0  0  0  0  0  0  0  0  0  0  0  0
   11.8015   -8.1376   11.3364 H   0  0  0  0  0  0  0  0  0  0  0  0
   13.3128   -9.0799    8.9955 H   0  0  0  0  0  0  0  0  0  0  0  0
   12.2638   -8.7308    7.6424 H   0  0  0  0  0  0  0  0  0  0  0  0
   11.4630  -10.1949   10.2111 H   0  0  0  0  0  0  0  0  0  0  0  0
   11.6242  -10.8654    8.5862 H   0  0  0  0  0  0  0  0  0  0  0  0
    8.1241  -10.3225    6.7502 H   0  0  0  0  0  0  0  0  0  0  0  0
    0.6104  -10.0087    5.4260 H   0  0  0  0  0  0  0  0  0  0  0  0
  1  2  1  0  0  0  0
  1 35  1  0  0  0  0
  1 36  1  0  0  0  0
  1 37  1  0  0  0  0
  2  3  1  0  0  0  0
  2 38  1  0  0  0  0
  3  4  1  0  0  0  0
  3 34  2  0  0  0  0
  4  5  2  0  0  0  0
  5  6  1  0  0  0  0
  5 39  1  0  0  0  0
  6  7  2  0  0  0  0
  6 40  1  0  0  0  0
  7  8  1  0  0  0  0
  7 34  1  0  0  0  0
  8  9  1  0  0  0  0
  9 10  1  0  0  0  0
  9 33  2  0  0  0  0
 10 11  2  0  0  0  0
 10 41  1  0  0  0  0
 11 12  1  0  0  0  0
 11 42  1  0  0  0  0
 12 13  1  0  0  0  0
 12 32  2  0  0  0  0
 13 14  1  0  0  0  0
 13 43  1  0  0  0  0
 14 15  1  0  0  0  0
 14 31  2  0  0  0  0
 15 16  1  0  0  0  0
 15 44  1  0  0  0  0
 16 17  1  0  0  0  0
 16 30  2  0  0  0  0
 17 18  2  0  0  0  0
 17 45  1  0  0  0  0
 18 19  1  0  0  0  0
 18 46  1  0  0  0  0
 19 20  1  0  0  0  0
 19 21  2  0  0  0  0
 21 22  1  0  0  0  0
 21 30  1  0  0  0  0
 22 23  1  0  0  0  0
 22 47  1  0  0  0  0
 22 48  1  0  0  0  0
 23 24  1  0  0  0  0
 23 29  1  0  0  0  0
 24 25  1  0  0  0  0
 24 49  1  0  0  0  0
 24 50  1  0  0  0  0
 25 26  1  0  0  0  0
 25 51  1  0  0  0  0
 25 52  1  0  0  0  0
 26 27  1  0  0  0  0
 26 28  1  0  0  0  0
 27 53  1  0  0  0  0
 27 54  1  0  0  0  0
 27 55  1  0  0  0  0
 28 29  1  0  0  0  0
 28 56  1  0  0  0  0
 28 57  1  0  0  0  0
 29 58  1  0  0  0  0
 29 59  1  0  0  0  0
 30 60  1  0  0  0  0
 31 32  1  0  0  0  0
 32 33  1  0  0  0  0
 33 61  1  0  0  0  0
M  END
$$$$
