CHEMBL3950496
 OpenBabel04072215373D

 78 82  0  0  0  0  0  0  0  0999 V2000
    0.6587   -3.5098    2.4804 C   0  0  0  0  0  0  0  0  0  0  0  0
    2.0369   -3.4829    2.8632 O   0  0  0  0  0  0  0  0  0  0  0  0
    2.8881   -2.7241    2.1091 C   0  0  0  0  0  0  0  0  0  0  0  0
    2.5230   -2.0613    0.9363 C   0  0  0  0  0  0  0  0  0  0  0  0
    3.4395   -1.2510    0.2741 C   0  0  0  0  0  0  0  0  0  0  0  0
    3.1949   -0.5167   -0.8571 O   0  0  0  0  0  0  0  0  0  0  0  0
    1.9125   -0.6563   -1.4560 C   0  0  0  0  0  0  0  0  0  0  0  0
    4.7355   -1.1075    0.7883 C   0  0  0  0  0  0  0  0  0  0  0  0
    5.1591   -1.7508    1.9616 C   0  0  0  0  0  0  0  0  0  0  0  0
    6.4045   -1.4473    2.5791 N   0  0  0  0  0  0  0  0  0  0  0  0
    6.8567    0.0102    2.4422 C   0  0  0  0  0  0  0  0  0  0  0  0
    5.9108    1.1198    3.0426 C   0  0  0  0  0  0  0  0  0  0  0  0
    6.3508    2.5715    2.9694 N   0  0  0  0  0  0  0  0  0  0  0  0
    6.6059    3.0065    1.5785 C   0  0  0  0  0  0  0  0  0  0  0  0
    7.8235    2.4665    0.8620 C   0  0  0  0  0  0  0  0  0  0  0  0
    7.7508    2.2677   -0.5241 C   0  0  0  0  0  0  0  0  0  0  0  0
    8.8890    1.9225   -1.2524 C   0  0  0  0  0  0  0  0  0  0  0  0
   10.1149    1.7395   -0.6101 C   0  0  0  0  0  0  0  0  0  0  0  0
   11.2841    1.6087   -1.3679 N   0  0  0  0  0  0  0  0  0  0  0  0
   10.1906    1.9521    0.7679 C   0  0  0  0  0  0  0  0  0  0  0  0
    9.0566    2.3072    1.5026 C   0  0  0  0  0  0  0  0  0  0  0  0
    5.3062    3.4952    3.5558 C   0  0  0  0  0  0  0  0  0  0  0  0
    5.0016    3.2306    5.0430 C   0  0  0  0  0  0  0  0  0  0  0  0
    5.6459    5.0127    3.4751 C   0  0  0  0  0  0  0  0  0  0  0  0
    7.5519   -2.2856    2.8123 C   0  0  0  0  0  0  0  0  0  0  0  0
    8.2578   -1.9994    3.9862 C   0  0  0  0  0  0  0  0  0  0  0  0
    9.5751   -2.3926    4.1395 C   0  0  0  0  0  0  0  0  0  0  0  0
   10.2108   -3.1739    3.2106 C   0  0  0  0  0  0  0  0  0  0  0  0
   11.5121   -3.3439    3.4659 N   0  0  0  0  0  0  0  0  0  0  0  0
   12.1808   -4.1918    2.6781 C   0  0  0  0  0  0  0  0  0  0  0  0
   11.5559   -4.9245    1.6931 C   0  0  0  0  0  0  0  0  0  0  0  0
   12.3812   -5.9542    1.0675 C   0  0  0  0  0  0  0  0  0  0  0  0
   12.5423   -7.3265    1.4004 C   0  0  0  0  0  0  0  0  0  0  0  0
   13.5689   -7.9036    0.7598 N   0  0  0  0  0  0  0  0  0  0  0  0
   14.0766   -6.9004    0.0246 N   0  0  0  0  0  0  0  0  0  0  0  0
   14.9736   -7.1713   -1.0747 C   0  0  0  0  0  0  0  0  0  0  0  0
   13.5260   -5.6861    0.3313 C   0  0  0  0  0  0  0  0  0  0  0  0
   10.2278   -4.7083    1.3745 N   0  0  0  0  0  0  0  0  0  0  0  0
    9.5109   -3.7520    2.1238 C   0  0  0  0  0  0  0  0  0  0  0  0
    8.1531   -3.2421    1.9334 C   0  0  0  0  0  0  0  0  0  0  0  0
    4.2130   -2.5852    2.5967 C   0  0  0  0  0  0  0  0  0  0  0  0
    0.0996   -4.0587    3.2464 H   0  0  0  0  0  0  0  0  0  0  0  0
    0.5328   -4.0448    1.5323 H   0  0  0  0  0  0  0  0  0  0  0  0
    0.2323   -2.5019    2.4260 H   0  0  0  0  0  0  0  0  0  0  0  0
    1.5172   -2.1593    0.5484 H   0  0  0  0  0  0  0  0  0  0  0  0
    1.9064   -0.0585   -2.3723 H   0  0  0  0  0  0  0  0  0  0  0  0
    1.1260   -0.2682   -0.8000 H   0  0  0  0  0  0  0  0  0  0  0  0
    1.7167   -1.6964   -1.7360 H   0  0  0  0  0  0  0  0  0  0  0  0
    5.4080   -0.4481    0.2493 H   0  0  0  0  0  0  0  0  0  0  0  0
    7.0551    0.1720    1.3845 H   0  0  0  0  0  0  0  0  0  0  0  0
    7.8185    0.1589    2.9504 H   0  0  0  0  0  0  0  0  0  0  0  0
    5.8118    0.8656    4.1046 H   0  0  0  0  0  0  0  0  0  0  0  0
    4.9126    1.0371    2.6007 H   0  0  0  0  0  0  0  0  0  0  0  0
    6.8295    4.0804    1.5574 H   0  0  0  0  0  0  0  0  0  0  0  0
    5.7038    2.8592    0.9759 H   0  0  0  0  0  0  0  0  0  0  0  0
    6.8128    2.4218   -1.0551 H   0  0  0  0  0  0  0  0  0  0  0  0
    8.8138    1.8275   -2.3318 H   0  0  0  0  0  0  0  0  0  0  0  0
   11.1471    1.1690   -2.2714 H   0  0  0  0  0  0  0  0  0  0  0  0
   12.0711    1.2249   -0.8560 H   0  0  0  0  0  0  0  0  0  0  0  0
   11.1440    1.8655    1.2822 H   0  0  0  0  0  0  0  0  0  0  0  0
    9.1448    2.4866    2.5720 H   0  0  0  0  0  0  0  0  0  0  0  0
    4.3745    3.3566    2.9997 H   0  0  0  0  0  0  0  0  0  0  0  0
    5.9002    3.3274    5.6611 H   0  0  0  0  0  0  0  0  0  0  0  0
    4.5583    2.2455    5.2042 H   0  0  0  0  0  0  0  0  0  0  0  0
    4.2698    3.9595    5.4163 H   0  0  0  0  0  0  0  0  0  0  0  0
    6.6060    5.2410    3.9509 H   0  0  0  0  0  0  0  0  0  0  0  0
    4.8770    5.6124    3.9796 H   0  0  0  0  0  0  0  0  0  0  0  0
    5.6636    5.3922    2.4491 H   0  0  0  0  0  0  0  0  0  0  0  0
    7.8222   -1.3487    4.7388 H   0  0  0  0  0  0  0  0  0  0  0  0
   10.1357   -2.0283    4.9984 H   0  0  0  0  0  0  0  0  0  0  0  0
   13.2425   -4.2779    2.8848 H   0  0  0  0  0  0  0  0  0  0  0  0
   11.9820   -7.9252    2.1077 H   0  0  0  0  0  0  0  0  0  0  0  0
   15.1337   -8.2485   -1.1707 H   0  0  0  0  0  0  0  0  0  0  0  0
   15.9225   -6.6556   -0.9111 H   0  0  0  0  0  0  0  0  0  0  0  0
   14.4887   -6.7954   -1.9806 H   0  0  0  0  0  0  0  0  0  0  0  0
   13.9659   -4.7676   -0.0309 H   0  0  0  0  0  0  0  0  0  0  0  0
    7.6075   -3.5666    1.0463 H   0  0  0  0  0  0  0  0  0  0  0  0
    4.4734   -3.0758    3.5345 H   0  0  0  0  0  0  0  0  0  0  0  0
  1  2  1  0  0  0  0
  1 42  1  0  0  0  0
  1 43  1  0  0  0  0
  1 44  1  0  0  0  0
  2  3  1  0  0  0  0
  3  4  1  0  0  0  0
  3 41  2  0  0  0  0
  4  5  2  0  0  0  0
  4 45  1  0  0  0  0
  5  6  1  0  0  0  0
  5  8  1  0  0  0  0
  6  7  1  0  0  0  0
  7 46  1  0  0  0  0
  7 47  1  0  0  0  0
  7 48  1  0  0  0  0
  8  9  2  0  0  0  0
  8 49  1  0  0  0  0
  9 10  1  0  0  0  0
  9 41  1  0  0  0  0
 10 11  1  0  0  0  0
 10 25  1  0  0  0  0
 11 12  1  0  0  0  0
 11 50  1  0  0  0  0
 11 51  1  0  0  0  0
 12 13  1  0  0  0  0
 12 52  1  0  0  0  0
 12 53  1  0  0  0  0
 13 14  1  0  0  0  0
 13 22  1  0  0  0  0
 14 15  1  0  0  0  0
 14 54  1  0  0  0  0
 14 55  1  0  0  0  0
 15 16  1  0  0  0  0
 15 21  2  0  0  0  0
 16 17  2  0  0  0  0
 16 56  1  0  0  0  0
 17 18  1  0  0  0  0
 17 57  1  0  0  0  0
 18 19  1  0  0  0  0
 18 20  2  0  0  0  0
 19 58  1  0  0  0  0
 19 59  1  0  0  0  0
 20 21  1  0  0  0  0
 20 60  1  0  0  0  0
 21 61  1  0  0  0  0
 22 23  1  0  0  0  0
 22 24  1  0  0  0  0
 22 62  1  0  0  0  0
 23 63  1  0  0  0  0
 23 64  1  0  0  0  0
 23 65  1  0  0  0  0
 24 66  1  0  0  0  0
 24 67  1  0  0  0  0
 24 68  1  0  0  0  0
 25 26  1  0  0  0  0
 25 40  2  0  0  0  0
 26 27  2  0  0  0  0
 26 69  1  0  0  0  0
 27 28  1  0  0  0  0
 27 70  1  0  0  0  0
 28 29  1  0  0  0  0
 28 39  2  0  0  0  0
 29 30  2  0  0  0  0
 30 31  1  0  0  0  0
 30 71  1  0  0  0  0
 31 32  1  0  0  0  0
 31 38  2  0  0  0  0
 32 33  1  0  0  0  0
 32 37  2  0  0  0  0
 33 34  2  0  0  0  0
 33 72  1  0  0  0  0
 34 35  1  0  0  0  0
 35 36  1  0  0  0  0
 35 37  1  0  0  0  0
 36 73  1  0  0  0  0
 36 74  1  0  0  0  0
 36 75  1  0  0  0  0
 37 76  1  0  0  0  0
 38 39  1  0  0  0  0
 39 40  1  0  0  0  0
 40 77  1  0  0  0  0
 41 78  1  0  0  0  0
M  END
$$$$
