CHEMBL212880
 OpenBabel04072215363D

 50 54  0  0  0  0  0  0  0  0999 V2000
    1.4586   -2.1285    0.6306 C   0  0  0  0  0  0  0  0  0  0  0  0
    0.4436   -1.1219    0.2178 C   0  0  0  0  0  0  0  0  0  0  0  0
    0.5035   -0.2027   -0.8091 C   0  0  0  0  0  0  0  0  0  0  0  0
   -0.7043    0.5485   -0.9308 C   0  0  0  0  0  0  0  0  0  0  0  0
   -1.6389    0.1928    0.0201 C   0  0  0  0  0  0  0  0  0  0  0  0
   -3.0105    0.7845    0.1162 C   0  0  0  0  0  0  0  0  0  0  0  0
   -3.4895    1.6675   -0.7924 N   0  0  0  0  0  0  0  0  0  0  0  0
   -4.7512    1.9435   -0.3744 N   0  0  0  0  0  0  0  0  0  0  0  0
   -5.0583    1.2772    0.7519 C   0  0  0  0  0  0  0  0  0  0  0  0
   -3.9694    0.5326    1.1058 C   0  0  0  0  0  0  0  0  0  0  0  0
   -4.1566   -0.2392    2.3670 C   0  0  0  0  0  0  0  0  0  0  0  0
   -5.5906    0.2350    2.6716 C   0  0  0  0  0  0  0  0  0  0  0  0
   -6.3606   -0.1237    3.7654 C   0  0  0  0  0  0  0  0  0  0  0  0
   -7.6573    0.4095    3.8779 C   0  0  0  0  0  0  0  0  0  0  0  0
   -8.5293    0.0376    5.0629 C   0  0  0  0  0  0  0  0  0  0  0  0
   -7.9176    0.3521    6.3636 N   0  0  0  0  0  0  0  0  0  0  0  0
   -7.6827    1.7978    6.5405 C   0  0  0  0  0  0  0  0  0  0  0  0
   -7.0516    2.1023    7.9191 C   0  0  0  0  0  0  0  0  0  0  0  0
   -7.8213    1.6058    9.0772 N   0  0  0  0  0  0  0  0  0  0  0  0
   -9.0114    2.4166    9.3174 C   0  0  0  0  0  0  0  0  0  0  0  0
   -8.1589    0.1847    8.8588 C   0  0  0  0  0  0  0  0  0  0  0  0
   -8.7591   -0.1462    7.4694 C   0  0  0  0  0  0  0  0  0  0  0  0
   -8.1495    1.2911    2.8824 C   0  0  0  0  0  0  0  0  0  0  0  0
   -7.3734    1.6582    1.7775 C   0  0  0  0  0  0  0  0  0  0  0  0
   -6.1077    1.1275    1.6957 C   0  0  0  0  0  0  0  0  0  0  0  0
   -1.0388   -1.0213    1.0616 S   0  0  0  0  0  0  0  0  0  0  0  0
    2.3860   -2.0083    0.0601 H   0  0  0  0  0  0  0  0  0  0  0  0
    1.0849   -3.1425    0.4520 H   0  0  0  0  0  0  0  0  0  0  0  0
    1.7035   -2.0309    1.6943 H   0  0  0  0  0  0  0  0  0  0  0  0
    1.3610   -0.0851   -1.4606 H   0  0  0  0  0  0  0  0  0  0  0  0
   -0.8822    1.3091   -1.6819 H   0  0  0  0  0  0  0  0  0  0  0  0
   -5.3130    2.5936   -0.9136 H   0  0  0  0  0  0  0  0  0  0  0  0
   -3.4668    0.0789    3.1525 H   0  0  0  0  0  0  0  0  0  0  0  0
   -4.1342   -1.3193    2.2032 H   0  0  0  0  0  0  0  0  0  0  0  0
   -5.9680   -0.7889    4.5301 H   0  0  0  0  0  0  0  0  0  0  0  0
   -8.7013   -1.0453    4.9934 H   0  0  0  0  0  0  0  0  0  0  0  0
   -9.5140    0.5144    4.9729 H   0  0  0  0  0  0  0  0  0  0  0  0
   -8.6184    2.3596    6.4254 H   0  0  0  0  0  0  0  0  0  0  0  0
   -6.9882    2.1695    5.7788 H   0  0  0  0  0  0  0  0  0  0  0  0
   -6.8781    3.1813    8.0141 H   0  0  0  0  0  0  0  0  0  0  0  0
   -6.0548    1.6416    7.9541 H   0  0  0  0  0  0  0  0  0  0  0  0
   -8.7322    3.4630    9.4864 H   0  0  0  0  0  0  0  0  0  0  0  0
   -9.5202    2.0820   10.2286 H   0  0  0  0  0  0  0  0  0  0  0  0
   -9.7328    2.3866    8.4946 H   0  0  0  0  0  0  0  0  0  0  0  0
   -8.8382   -0.1675    9.6452 H   0  0  0  0  0  0  0  0  0  0  0  0
   -7.2377   -0.4004    8.9834 H   0  0  0  0  0  0  0  0  0  0  0  0
   -9.7712    0.2729    7.4017 H   0  0  0  0  0  0  0  0  0  0  0  0
   -8.8557   -1.2356    7.3933 H   0  0  0  0  0  0  0  0  0  0  0  0
   -9.1540    1.7000    2.9740 H   0  0  0  0  0  0  0  0  0  0  0  0
   -7.7598    2.3357    1.0263 H   0  0  0  0  0  0  0  0  0  0  0  0
  1  2  1  0  0  0  0
  1 27  1  0  0  0  0
  1 28  1  0  0  0  0
  1 29  1  0  0  0  0
  2  3  2  0  0  0  0
  2 26  1  0  0  0  0
  3  4  1  0  0  0  0
  3 30  1  0  0  0  0
  4  5  2  0  0  0  0
  4 31  1  0  0  0  0
  5  6  1  0  0  0  0
  5 26  1  0  0  0  0
  6  7  2  0  0  0  0
  6 10  1  0  0  0  0
  7  8  1  0  0  0  0
  8  9  1  0  0  0  0
  8 32  1  0  0  0  0
  9 10  2  0  0  0  0
  9 25  1  0  0  0  0
 10 11  1  0  0  0  0
 11 12  1  0  0  0  0
 11 33  1  0  0  0  0
 11 34  1  0  0  0  0
 12 13  1  0  0  0  0
 12 25  2  0  0  0  0
 13 14  2  0  0  0  0
 13 35  1  0  0  0  0
 14 15  1  0  0  0  0
 14 23  1  0  0  0  0
 15 16  1  0  0  0  0
 15 36  1  0  0  0  0
 15 37  1  0  0  0  0
 16 17  1  0  0  0  0
 16 22  1  0  0  0  0
 17 18  1  0  0  0  0
 17 38  1  0  0  0  0
 17 39  1  0  0  0  0
 18 19  1  0  0  0  0
 18 40  1  0  0  0  0
 18 41  1  0  0  0  0
 19 20  1  0  0  0  0
 19 21  1  0  0  0  0
 20 42  1  0  0  0  0
 20 43  1  0  0  0  0
 20 44  1  0  0  0  0
 21 22  1  0  0  0  0
 21 45  1  0  0  0  0
 21 46  1  0  0  0  0
 22 47  1  0  0  0  0
 22 48  1  0  0  0  0
 23 24  2  0  0  0  0
 23 49  1  0  0  0  0
 24 25  1  0  0  0  0
 24 50  1  0  0  0  0
M  END
$$$$
