CHEMBL124660
 OpenBabel04072215363D

 83 87  0  0  0  0  0  0  0  0999 V2000
    2.5519   -0.2360   -1.2541 C   0  0  0  0  0  0  0  0  0  0  0  0
    2.1981    0.0356    0.0995 O   0  0  0  0  0  0  0  0  0  0  0  0
    2.9990    0.8126    0.8873 C   0  0  0  0  0  0  0  0  0  0  0  0
    4.1344    1.4466    0.4174 C   0  0  0  0  0  0  0  0  0  0  0  0
    4.9574    2.2577    1.2228 C   0  0  0  0  0  0  0  0  0  0  0  0
    6.1470    2.8689    0.7692 C   0  0  0  0  0  0  0  0  0  0  0  0
    6.5805    2.6699   -0.5302 N   0  0  0  0  0  0  0  0  0  0  0  0
    7.3463    3.7118   -1.2147 C   0  0  0  0  0  0  0  0  0  0  0  0
    6.9576    3.6786   -2.7159 C   0  0  0  0  0  0  0  0  0  0  0  0
    7.0444    2.3127   -3.2893 N   0  0  0  0  0  0  0  0  0  0  0  0
    7.4245    1.9414   -4.5647 C   0  0  0  0  0  0  0  0  0  0  0  0
    7.2956    0.7721   -4.9219 O   0  0  0  0  0  0  0  0  0  0  0  0
    7.9591    2.9296   -5.3505 N   0  0  0  0  0  0  0  0  0  0  0  0
    8.4153    2.7648   -6.6745 C   0  0  0  0  0  0  0  0  0  0  0  0
    8.1285    1.6392   -7.4487 C   0  0  0  0  0  0  0  0  0  0  0  0
    8.6432    1.5036   -8.7367 C   0  0  0  0  0  0  0  0  0  0  0  0
    9.4134    2.5196   -9.2905 C   0  0  0  0  0  0  0  0  0  0  0  0
    9.9167    2.5201  -10.5601 O   0  0  0  0  0  0  0  0  0  0  0  0
    9.2265    1.7317  -11.5409 C   0  0  0  0  0  0  0  0  0  0  0  0
    7.8257    2.2854  -11.8128 C   0  0  0  0  0  0  0  0  0  0  0  0
   10.0584    1.8051  -12.8186 C   0  0  0  0  0  0  0  0  0  0  0  0
    9.7069    3.6483   -8.5238 C   0  0  0  0  0  0  0  0  0  0  0  0
    9.2039    3.7783   -7.2285 C   0  0  0  0  0  0  0  0  0  0  0  0
    6.3957    1.2696   -2.4838 C   0  0  0  0  0  0  0  0  0  0  0  0
    6.8786    1.3198   -1.0266 C   0  0  0  0  0  0  0  0  0  0  0  0
    6.8334    3.7229    1.5474 N   0  0  0  0  0  0  0  0  0  0  0  0
    6.3687    3.9094    2.7852 C   0  0  0  0  0  0  0  0  0  0  0  0
    5.2712    3.3499    3.3279 N   0  0  0  0  0  0  0  0  0  0  0  0
    4.5723    2.5299    2.5383 C   0  0  0  0  0  0  0  0  0  0  0  0
    3.4156    1.9161    3.0134 C   0  0  0  0  0  0  0  0  0  0  0  0
    2.6645    1.0201    2.2310 C   0  0  0  0  0  0  0  0  0  0  0  0
    1.6329    0.4125    2.9103 O   0  0  0  0  0  0  0  0  0  0  0  0
    1.3260   -0.8978    2.4371 C   0  0  0  0  0  0  0  0  0  0  0  0
    0.7255   -1.7441    3.5469 C   0  0  0  0  0  0  0  0  0  0  0  0
    0.4522   -3.1403    2.9756 C   0  0  0  0  0  0  0  0  0  0  0  0
   -0.0594   -4.1009    3.9557 N   0  0  0  0  0  0  0  0  0  0  0  0
   -1.3791   -3.7168    4.4757 C   0  0  0  0  0  0  0  0  0  0  0  0
   -1.8105   -4.6835    5.5755 C   0  0  0  0  0  0  0  0  0  0  0  0
   -1.8366   -6.1223    5.0746 C   0  0  0  0  0  0  0  0  0  0  0  0
   -0.5216   -6.4853    4.3938 C   0  0  0  0  0  0  0  0  0  0  0  0
   -0.1253   -5.4432    3.3507 C   0  0  0  0  0  0  0  0  0  0  0  0
    3.2009   -1.1168   -1.3110 H   0  0  0  0  0  0  0  0  0  0  0  0
    3.0044    0.6091   -1.7778 H   0  0  0  0  0  0  0  0  0  0  0  0
    1.6274   -0.4601   -1.7941 H   0  0  0  0  0  0  0  0  0  0  0  0
    4.4053    1.3353   -0.6167 H   0  0  0  0  0  0  0  0  0  0  0  0
    8.4204    3.5170   -1.1053 H   0  0  0  0  0  0  0  0  0  0  0  0
    7.1361    4.7116   -0.8192 H   0  0  0  0  0  0  0  0  0  0  0  0
    7.5705    4.3961   -3.2611 H   0  0  0  0  0  0  0  0  0  0  0  0
    5.9108    3.9918   -2.8266 H   0  0  0  0  0  0  0  0  0  0  0  0
    8.2214    3.7905   -4.9056 H   0  0  0  0  0  0  0  0  0  0  0  0
    7.4915    0.8386   -7.0880 H   0  0  0  0  0  0  0  0  0  0  0  0
    8.4076    0.5928   -9.2766 H   0  0  0  0  0  0  0  0  0  0  0  0
    9.1861    0.6792  -11.2396 H   0  0  0  0  0  0  0  0  0  0  0  0
    7.8748    3.3424  -12.0953 H   0  0  0  0  0  0  0  0  0  0  0  0
    7.1873    2.2326  -10.9253 H   0  0  0  0  0  0  0  0  0  0  0  0
    7.3284    1.7259  -12.6103 H   0  0  0  0  0  0  0  0  0  0  0  0
   10.1787    2.8438  -13.1463 H   0  0  0  0  0  0  0  0  0  0  0  0
    9.5946    1.2319  -13.6269 H   0  0  0  0  0  0  0  0  0  0  0  0
   11.0651    1.4110  -12.6433 H   0  0  0  0  0  0  0  0  0  0  0  0
   10.3238    4.4379   -8.9475 H   0  0  0  0  0  0  0  0  0  0  0  0
    9.4476    4.6709   -6.6588 H   0  0  0  0  0  0  0  0  0  0  0  0
    6.5621    0.2636   -2.8824 H   0  0  0  0  0  0  0  0  0  0  0  0
    5.3179    1.4585   -2.5567 H   0  0  0  0  0  0  0  0  0  0  0  0
    7.9590    1.1361   -0.9890 H   0  0  0  0  0  0  0  0  0  0  0  0
    6.4124    0.5153   -0.4489 H   0  0  0  0  0  0  0  0  0  0  0  0
    6.9273    4.5872    3.4188 H   0  0  0  0  0  0  0  0  0  0  0  0
    3.0954    2.1225    4.0318 H   0  0  0  0  0  0  0  0  0  0  0  0
    2.2292   -1.4139    2.0848 H   0  0  0  0  0  0  0  0  0  0  0  0
    0.5911   -0.8160    1.6280 H   0  0  0  0  0  0  0  0  0  0  0  0
   -0.1843   -1.2550    3.9097 H   0  0  0  0  0  0  0  0  0  0  0  0
    1.4166   -1.7942    4.3970 H   0  0  0  0  0  0  0  0  0  0  0  0
    1.4071   -3.5234    2.5889 H   0  0  0  0  0  0  0  0  0  0  0  0
   -0.2269   -3.0640    2.1163 H   0  0  0  0  0  0  0  0  0  0  0  0
   -2.1266   -3.6955    3.6712 H   0  0  0  0  0  0  0  0  0  0  0  0
   -1.3520   -2.7174    4.9202 H   0  0  0  0  0  0  0  0  0  0  0  0
   -2.8011   -4.4001    5.9476 H   0  0  0  0  0  0  0  0  0  0  0  0
   -1.1154   -4.6020    6.4211 H   0  0  0  0  0  0  0  0  0  0  0  0
   -2.6612   -6.2430    4.3619 H   0  0  0  0  0  0  0  0  0  0  0  0
   -2.0267   -6.8047    5.9096 H   0  0  0  0  0  0  0  0  0  0  0  0
   -0.6100   -7.4695    3.9198 H   0  0  0  0  0  0  0  0  0  0  0  0
    0.2722   -6.5631    5.1474 H   0  0  0  0  0  0  0  0  0  0  0  0
   -0.8379   -5.4607    2.5139 H   0  0  0  0  0  0  0  0  0  0  0  0
    0.8542   -5.7247    2.9439 H   0  0  0  0  0  0  0  0  0  0  0  0
  1  2  1  0  0  0  0
  1 42  1  0  0  0  0
  1 43  1  0  0  0  0
  1 44  1  0  0  0  0
  2  3  1  0  0  0  0
  3  4  1  0  0  0  0
  3 31  2  0  0  0  0
  4  5  2  0  0  0  0
  4 45  1  0  0  0  0
  5  6  1  0  0  0  0
  5 29  1  0  0  0  0
  6  7  1  0  0  0  0
  6 26  2  0  0  0  0
  7  8  1  0  0  0  0
  7 25  1  0  0  0  0
  8  9  1  0  0  0  0
  8 46  1  0  0  0  0
  8 47  1  0  0  0  0
  9 10  1  0  0  0  0
  9 48  1  0  0  0  0
  9 49  1  0  0  0  0
 10 11  1  0  0  0  0
 10 24  1  0  0  0  0
 11 12  2  0  0  0  0
 11 13  1  0  0  0  0
 13 14  1  0  0  0  0
 13 50  1  0  0  0  0
 14 15  1  0  0  0  0
 14 23  2  0  0  0  0
 15 16  2  0  0  0  0
 15 51  1  0  0  0  0
 16 17  1  0  0  0  0
 16 52  1  0  0  0  0
 17 18  1  0  0  0  0
 17 22  2  0  0  0  0
 18 19  1  0  0  0  0
 19 20  1  0  0  0  0
 19 21  1  0  0  0  0
 19 53  1  0  0  0  0
 20 54  1  0  0  0  0
 20 55  1  0  0  0  0
 20 56  1  0  0  0  0
 21 57  1  0  0  0  0
 21 58  1  0  0  0  0
 21 59  1  0  0  0  0
 22 23  1  0  0  0  0
 22 60  1  0  0  0  0
 23 61  1  0  0  0  0
 24 25  1  0  0  0  0
 24 62  1  0  0  0  0
 24 63  1  0  0  0  0
 25 64  1  0  0  0  0
 25 65  1  0  0  0  0
 26 27  1  0  0  0  0
 27 28  2  0  0  0  0
 27 66  1  0  0  0  0
 28 29  1  0  0  0  0
 29 30  2  0  0  0  0
 30 31  1  0  0  0  0
 30 67  1  0  0  0  0
 31 32  1  0  0  0  0
 32 33  1  0  0  0  0
 33 34  1  0  0  0  0
 33 68  1  0  0  0  0
 33 69  1  0  0  0  0
 34 35  1  0  0  0  0
 34 70  1  0  0  0  0
 34 71  1  0  0  0  0
 35 36  1  0  0  0  0
 35 72  1  0  0  0  0
 35 73  1  0  0  0  0
 36 37  1  0  0  0  0
 36 41  1  0  0  0  0
 37 38  1  0  0  0  0
 37 74  1  0  0  0  0
 37 75  1  0  0  0  0
 38 39  1  0  0  0  0
 38 76  1  0  0  0  0
 38 77  1  0  0  0  0
 39 40  1  0  0  0  0
 39 78  1  0  0  0  0
 39 79  1  0  0  0  0
 40 41  1  0  0  0  0
 40 80  1  0  0  0  0
 40 81  1  0  0  0  0
 41 82  1  0  0  0  0
 41 83  1  0  0  0  0
M  END
$$$$
