CHEMBL410841
 OpenBabel04072215383D

 56 60  0  0  0  0  0  0  0  0999 V2000
    5.2712   -1.3777   -0.9232 C   0  0  0  0  0  0  0  0  0  0  0  0
    4.0509   -1.0296   -0.2476 O   0  0  0  0  0  0  0  0  0  0  0  0
    4.2557   -0.4851    0.9932 C   0  0  0  0  0  0  0  0  0  0  0  0
    5.4255    0.2660    1.2357 C   0  0  0  0  0  0  0  0  0  0  0  0
    5.8324    0.7020    2.4805 C   0  0  0  0  0  0  0  0  0  0  0  0
    7.0372    1.2782    2.6172 N   0  0  0  0  0  0  0  0  0  0  0  0
    7.4413    1.6503    3.8497 C   0  0  0  0  0  0  0  0  0  0  0  0
    6.7084    1.4487    4.9974 C   0  0  0  0  0  0  0  0  0  0  0  0
    5.4570    0.8542    4.8713 C   0  0  0  0  0  0  0  0  0  0  0  0
    4.8282    0.6767    6.0997 O   0  0  0  0  0  0  0  0  0  0  0  0
    3.9612   -0.3701    6.3030 C   0  0  0  0  0  0  0  0  0  0  0  0
    4.0833   -1.5884    5.6517 C   0  0  0  0  0  0  0  0  0  0  0  0
    2.9689   -2.4351    5.5770 C   0  0  0  0  0  0  0  0  0  0  0  0
    1.7919   -2.2233    6.3450 C   0  0  0  0  0  0  0  0  0  0  0  0
    0.6160   -3.0554    6.3503 C   0  0  0  0  0  0  0  0  0  0  0  0
    0.3682   -4.2859    5.5089 C   0  0  0  0  0  0  0  0  0  0  0  0
   -0.7834   -4.5527    5.2030 O   0  0  0  0  0  0  0  0  0  0  0  0
    1.4588   -5.0922    5.2218 N   0  0  0  0  0  0  0  0  0  0  0  0
    1.4241   -6.3200    4.5215 C   0  0  0  0  0  0  0  0  0  0  0  0
    0.3703   -6.7291    3.6996 C   0  0  0  0  0  0  0  0  0  0  0  0
    0.3767   -8.0046    3.1241 C   0  0  0  0  0  0  0  0  0  0  0  0
    1.4412   -8.8622    3.3693 C   0  0  0  0  0  0  0  0  0  0  0  0
    1.4249  -10.1013    2.8618 F   0  0  0  0  0  0  0  0  0  0  0  0
    2.5231   -8.4527    4.1374 C   0  0  0  0  0  0  0  0  0  0  0  0
    2.5236   -7.1743    4.6973 C   0  0  0  0  0  0  0  0  0  0  0  0
   -0.4775   -2.6967    7.1663 C   0  0  0  0  0  0  0  0  0  0  0  0
   -0.4638   -1.5529    7.9454 C   0  0  0  0  0  0  0  0  0  0  0  0
    0.6554   -0.7233    7.9275 C   0  0  0  0  0  0  0  0  0  0  0  0
    1.7748   -1.0460    7.1451 C   0  0  0  0  0  0  0  0  0  0  0  0
    2.8501   -0.1322    7.1083 C   0  0  0  0  0  0  0  0  0  0  0  0
    4.9602    0.5158    3.5785 C   0  0  0  0  0  0  0  0  0  0  0  0
    3.7017   -0.0387    3.2669 C   0  0  0  0  0  0  0  0  0  0  0  0
    3.3708   -0.6589    2.0587 C   0  0  0  0  0  0  0  0  0  0  0  0
    2.2571   -1.4092    2.2381 O   0  0  0  0  0  0  0  0  0  0  0  0
    1.7305   -2.2472    1.2494 C   0  0  0  0  0  0  0  0  0  0  0  0
    5.1787   -2.3960   -1.3063 H   0  0  0  0  0  0  0  0  0  0  0  0
    6.1686   -1.3795   -0.2881 H   0  0  0  0  0  0  0  0  0  0  0  0
    5.4398   -0.7113   -1.7792 H   0  0  0  0  0  0  0  0  0  0  0  0
    6.1077    0.4473    0.4048 H   0  0  0  0  0  0  0  0  0  0  0  0
    8.4171    2.1278    3.8939 H   0  0  0  0  0  0  0  0  0  0  0  0
    7.0967    1.7371    5.9672 H   0  0  0  0  0  0  0  0  0  0  0  0
    4.9424   -1.7874    5.0167 H   0  0  0  0  0  0  0  0  0  0  0  0
    3.0245   -3.1945    4.8050 H   0  0  0  0  0  0  0  0  0  0  0  0
    2.3190   -4.8873    5.7032 H   0  0  0  0  0  0  0  0  0  0  0  0
   -0.4713   -6.0749    3.4856 H   0  0  0  0  0  0  0  0  0  0  0  0
   -0.4506   -8.3357    2.5042 H   0  0  0  0  0  0  0  0  0  0  0  0
    3.3491   -9.1336    4.3110 H   0  0  0  0  0  0  0  0  0  0  0  0
    3.3712   -6.8709    5.3049 H   0  0  0  0  0  0  0  0  0  0  0  0
   -1.3775   -3.3184    7.1825 H   0  0  0  0  0  0  0  0  0  0  0  0
   -1.3273   -1.2897    8.5513 H   0  0  0  0  0  0  0  0  0  0  0  0
    0.6296    0.1892    8.5191 H   0  0  0  0  0  0  0  0  0  0  0  0
    2.7866    0.8084    7.6483 H   0  0  0  0  0  0  0  0  0  0  0  0
    2.9378   -0.0884    4.0385 H   0  0  0  0  0  0  0  0  0  0  0  0
    0.9869   -2.9003    1.7205 H   0  0  0  0  0  0  0  0  0  0  0  0
    2.4783   -2.8934    0.7800 H   0  0  0  0  0  0  0  0  0  0  0  0
    1.1891   -1.6323    0.5150 H   0  0  0  0  0  0  0  0  0  0  0  0
  1  2  1  0  0  0  0
  1 36  1  0  0  0  0
  1 37  1  0  0  0  0
  1 38  1  0  0  0  0
  2  3  1  0  0  0  0
  3  4  1  0  0  0  0
  3 33  2  0  0  0  0
  4  5  2  0  0  0  0
  4 39  1  0  0  0  0
  5  6  1  0  0  0  0
  5 31  1  0  0  0  0
  6  7  2  0  0  0  0
  7  8  1  0  0  0  0
  7 40  1  0  0  0  0
  8  9  2  0  0  0  0
  8 41  1  0  0  0  0
  9 10  1  0  0  0  0
  9 31  1  0  0  0  0
 10 11  1  0  0  0  0
 11 12  1  0  0  0  0
 11 30  2  0  0  0  0
 12 13  2  0  0  0  0
 12 42  1  0  0  0  0
 13 14  1  0  0  0  0
 13 43  1  0  0  0  0
 14 15  1  0  0  0  0
 14 29  2  0  0  0  0
 15 16  1  0  0  0  0
 15 26  2  0  0  0  0
 16 17  2  0  0  0  0
 16 18  1  0  0  0  0
 18 19  1  0  0  0  0
 18 44  1  0  0  0  0
 19 20  1  0  0  0  0
 19 25  2  0  0  0  0
 20 21  2  0  0  0  0
 20 45  1  0  0  0  0
 21 22  1  0  0  0  0
 21 46  1  0  0  0  0
 22 23  1  0  0  0  0
 22 24  2  0  0  0  0
 24 25  1  0  0  0  0
 24 47  1  0  0  0  0
 25 48  1  0  0  0  0
 26 27  1  0  0  0  0
 26 49  1  0  0  0  0
 27 28  2  0  0  0  0
 27 50  1  0  0  0  0
 28 29  1  0  0  0  0
 28 51  1  0  0  0  0
 29 30  1  0  0  0  0
 30 52  1  0  0  0  0
 31 32  2  0  0  0  0
 32 33  1  0  0  0  0
 32 53  1  0  0  0  0
 33 34  1  0  0  0  0
 34 35  1  0  0  0  0
 35 54  1  0  0  0  0
 35 55  1  0  0  0  0
 35 56  1  0  0  0  0
M  END
$$$$
