CHEMBL2348989
 OpenBabel04072215363D

 60 64  0  0  0  0  0  0  0  0999 V2000
    5.3063    6.5472   -1.3498 O   0  0  0  0  0  0  0  0  0  0  0  0
    4.3601    5.7694   -1.4360 C   0  0  0  0  0  0  0  0  0  0  0  0
    3.6070    5.2615   -0.3836 N   0  0  0  0  0  0  0  0  0  0  0  0
    3.7684    5.6203    0.9798 C   0  0  0  0  0  0  0  0  0  0  0  0
    4.4835    6.7626    1.3648 C   0  0  0  0  0  0  0  0  0  0  0  0
    4.7064    7.0589    2.7093 C   0  0  0  0  0  0  0  0  0  0  0  0
    4.1950    6.2238    3.6900 C   0  0  0  0  0  0  0  0  0  0  0  0
    3.4191    5.1247    3.3307 C   0  0  0  0  0  0  0  0  0  0  0  0
    2.9391    4.2341    4.3206 O   0  0  0  0  0  0  0  0  0  0  0  0
    2.4516    4.7522    5.5205 C   0  0  0  0  0  0  0  0  0  0  0  0
    2.5181    3.6940    6.5571 C   0  0  0  0  0  0  0  0  0  0  0  0
    2.0846    4.0292    7.7816 C   0  0  0  0  0  0  0  0  0  0  0  0
    1.5968    5.3366    8.0093 C   0  0  0  0  0  0  0  0  0  0  0  0
    1.1059    5.9083    9.0860 N   0  0  0  0  0  0  0  0  0  0  0  0
    0.8111    7.1930    8.7243 C   0  0  0  0  0  0  0  0  0  0  0  0
    0.2491    8.1283    9.5684 N   0  0  0  0  0  0  0  0  0  0  0  0
   -0.1138    7.8652   10.8764 C   0  0  0  0  0  0  0  0  0  0  0  0
    0.0697    6.8133   11.4824 O   0  0  0  0  0  0  0  0  0  0  0  0
   -0.8172    9.0124   11.5981 C   0  0  0  0  0  0  0  0  0  0  0  0
   -2.1230    9.4222   10.9126 C   0  0  0  0  0  0  0  0  0  0  0  0
   -2.7765   10.5699   11.6715 C   0  0  0  0  0  0  0  0  0  0  0  0
   -1.8687   11.6653   11.7940 O   0  0  0  0  0  0  0  0  0  0  0  0
   -0.7043   11.3199   12.5456 C   0  0  0  0  0  0  0  0  0  0  0  0
    0.0821   10.2284   11.8269 C   0  0  0  0  0  0  0  0  0  0  0  0
    1.1380    7.4149    7.4059 C   0  0  0  0  0  0  0  0  0  0  0  0
    1.6159    6.2170    6.9421 N   0  0  0  0  0  0  0  0  0  0  0  0
    2.0261    5.9661    5.6689 N   0  0  0  0  0  0  0  0  0  0  0  0
    3.2075    4.8057    1.9775 C   0  0  0  0  0  0  0  0  0  0  0  0
    4.0299    5.2691   -2.7967 C   0  0  0  0  0  0  0  0  0  0  0  0
    5.0755    5.1418   -3.7219 C   0  0  0  0  0  0  0  0  0  0  0  0
    4.8193    4.7196   -5.0250 C   0  0  0  0  0  0  0  0  0  0  0  0
    3.5134    4.4193   -5.4112 C   0  0  0  0  0  0  0  0  0  0  0  0
    2.4519    4.5430   -4.5000 C   0  0  0  0  0  0  0  0  0  0  0  0
    1.0397    4.1970   -4.9045 C   0  0  0  0  0  0  0  0  0  0  0  0
    0.9304    3.7520   -6.1862 F   0  0  0  0  0  0  0  0  0  0  0  0
    0.5149    3.2141   -4.1209 F   0  0  0  0  0  0  0  0  0  0  0  0
    0.1908    5.2544   -4.7968 F   0  0  0  0  0  0  0  0  0  0  0  0
    2.7179    4.9852   -3.1891 C   0  0  0  0  0  0  0  0  0  0  0  0
    3.0008    4.4741   -0.5735 H   0  0  0  0  0  0  0  0  0  0  0  0
    4.8901    7.4529    0.6323 H   0  0  0  0  0  0  0  0  0  0  0  0
    5.2867    7.9339    2.9802 H   0  0  0  0  0  0  0  0  0  0  0  0
    4.4110    6.4503    4.7323 H   0  0  0  0  0  0  0  0  0  0  0  0
    2.9264    2.7214    6.3189 H   0  0  0  0  0  0  0  0  0  0  0  0
    2.1041    3.3319    8.6113 H   0  0  0  0  0  0  0  0  0  0  0  0
    0.0700    9.0394    9.1725 H   0  0  0  0  0  0  0  0  0  0  0  0
   -1.0832    8.6162   12.5895 H   0  0  0  0  0  0  0  0  0  0  0  0
   -2.8083    8.5693   10.8510 H   0  0  0  0  0  0  0  0  0  0  0  0
   -1.9216    9.7501    9.8859 H   0  0  0  0  0  0  0  0  0  0  0  0
   -3.1092   10.2553   12.6678 H   0  0  0  0  0  0  0  0  0  0  0  0
   -3.6568   10.9245   11.1261 H   0  0  0  0  0  0  0  0  0  0  0  0
   -0.9997   11.0060   13.5544 H   0  0  0  0  0  0  0  0  0  0  0  0
   -0.0923   12.2216   12.6482 H   0  0  0  0  0  0  0  0  0  0  0  0
    0.9649    9.9513   12.4140 H   0  0  0  0  0  0  0  0  0  0  0  0
    0.4393   10.6183   10.8664 H   0  0  0  0  0  0  0  0  0  0  0  0
    1.0693    8.2732    6.7566 H   0  0  0  0  0  0  0  0  0  0  0  0
    2.6435    3.9161    1.7245 H   0  0  0  0  0  0  0  0  0  0  0  0
    6.0974    5.3801   -3.4283 H   0  0  0  0  0  0  0  0  0  0  0  0
    5.6366    4.6284   -5.7374 H   0  0  0  0  0  0  0  0  0  0  0  0
    3.3271    4.0922   -6.4338 H   0  0  0  0  0  0  0  0  0  0  0  0
    1.8890    5.1335   -2.4991 H   0  0  0  0  0  0  0  0  0  0  0  0
  1  2  2  0  0  0  0
  2  3  1  0  0  0  0
  2 29  1  0  0  0  0
  3  4  1  0  0  0  0
  3 39  1  0  0  0  0
  4  5  1  0  0  0  0
  4 28  2  0  0  0  0
  5  6  2  0  0  0  0
  5 40  1  0  0  0  0
  6  7  1  0  0  0  0
  6 41  1  0  0  0  0
  7  8  2  0  0  0  0
  7 42  1  0  0  0  0
  8  9  1  0  0  0  0
  8 28  1  0  0  0  0
  9 10  1  0  0  0  0
 10 11  1  0  0  0  0
 10 27  2  0  0  0  0
 11 12  2  0  0  0  0
 11 43  1  0  0  0  0
 12 13  1  0  0  0  0
 12 44  1  0  0  0  0
 13 14  2  0  0  0  0
 13 26  1  0  0  0  0
 14 15  1  0  0  0  0
 15 16  1  0  0  0  0
 15 25  2  0  0  0  0
 16 17  1  0  0  0  0
 16 45  1  0  0  0  0
 17 18  2  0  0  0  0
 17 19  1  0  0  0  0
 19 20  1  0  0  0  0
 19 24  1  0  0  0  0
 19 46  1  0  0  0  0
 20 21  1  0  0  0  0
 20 47  1  0  0  0  0
 20 48  1  0  0  0  0
 21 22  1  0  0  0  0
 21 49  1  0  0  0  0
 21 50  1  0  0  0  0
 22 23  1  0  0  0  0
 23 24  1  0  0  0  0
 23 51  1  0  0  0  0
 23 52  1  0  0  0  0
 24 53  1  0  0  0  0
 24 54  1  0  0  0  0
 25 26  1  0  0  0  0
 25 55  1  0  0  0  0
 26 27  1  0  0  0  0
 28 56  1  0  0  0  0
 29 30  1  0  0  0  0
 29 38  2  0  0  0  0
 30 31  2  0  0  0  0
 30 57  1  0  0  0  0
 31 32  1  0  0  0  0
 31 58  1  0  0  0  0
 32 33  2  0  0  0  0
 32 59  1  0  0  0  0
 33 34  1  0  0  0  0
 33 38  1  0  0  0  0
 34 35  1  0  0  0  0
 34 36  1  0  0  0  0
 34 37  1  0  0  0  0
 38 60  1  0  0  0  0
M  END
$$$$
