CHEMBL2377464
 OpenBabel04072215363D

 59 64  0  0  0  0  0  0  0  0999 V2000
    0.7858   -0.3032    0.0854 O   0  0  0  0  0  0  0  0  0  0  0  0
    2.0084   -0.1750    0.0775 C   0  0  0  0  0  0  0  0  0  0  0  0
    2.8441   -1.2614    0.0815 N   0  0  0  0  0  0  0  0  0  0  0  0
    4.2165   -1.1751   -0.0694 C   0  0  0  0  0  0  0  0  0  0  0  0
    4.9145   -2.5279   -0.0679 C   0  0  0  0  0  0  0  0  0  0  0  0
    4.0246   -3.5748   -0.6369 N   0  0  0  0  0  0  0  0  0  0  0  0
    3.9256   -3.4112   -2.1027 C   0  0  0  0  0  0  0  0  0  0  0  0
    3.1263   -4.5353   -2.7605 C   0  0  0  0  0  0  0  0  0  0  0  0
    3.7263   -5.8911   -2.4208 C   0  0  0  0  0  0  0  0  0  0  0  0
    3.7882   -6.0517   -0.9091 C   0  0  0  0  0  0  0  0  0  0  0  0
    4.5585   -4.8983   -0.2668 C   0  0  0  0  0  0  0  0  0  0  0  0
    4.8977   -0.0713   -0.1676 N   0  0  0  0  0  0  0  0  0  0  0  0
    4.1064    1.0836   -0.0916 C   0  0  0  0  0  0  0  0  0  0  0  0
    4.6239    2.3946   -0.1173 C   0  0  0  0  0  0  0  0  0  0  0  0
    3.6157    3.3256    0.0546 C   0  0  0  0  0  0  0  0  0  0  0  0
    3.8317    4.7967    0.1537 C   0  0  0  0  0  0  0  0  0  0  0  0
    3.0109    5.6322    0.8756 C   0  0  0  0  0  0  0  0  0  0  0  0
    3.5576    6.8902    0.8504 N   0  0  0  0  0  0  0  0  0  0  0  0
    3.0543    8.0036    1.6497 C   0  0  0  0  0  0  0  0  0  0  0  0
    2.0742    8.8503    0.8798 C   0  0  0  0  0  0  0  0  0  0  0  0
    0.8378    8.3279    0.4685 C   0  0  0  0  0  0  0  0  0  0  0  0
   -0.0407    9.0987   -0.2927 C   0  0  0  0  0  0  0  0  0  0  0  0
    0.2986   10.4044   -0.6365 C   0  0  0  0  0  0  0  0  0  0  0  0
    1.5076   10.9469   -0.2036 C   0  0  0  0  0  0  0  0  0  0  0  0
    2.3892   10.1763    0.5539 C   0  0  0  0  0  0  0  0  0  0  0  0
    4.6696    6.9059    0.0300 C   0  0  0  0  0  0  0  0  0  0  0  0
    5.5169    7.9567   -0.3600 C   0  0  0  0  0  0  0  0  0  0  0  0
    6.5717    7.6687   -1.2321 C   0  0  0  0  0  0  0  0  0  0  0  0
    6.7794    6.3782   -1.7023 C   0  0  0  0  0  0  0  0  0  0  0  0
    5.9371    5.3366   -1.3047 C   0  0  0  0  0  0  0  0  0  0  0  0
    4.8681    5.5922   -0.4169 C   0  0  0  0  0  0  0  0  0  0  0  0
    2.0718    2.5851    0.2022 S   0  0  0  0  0  0  0  0  0  0  0  0
    2.7440    1.0463    0.0402 C   0  0  0  0  0  0  0  0  0  0  0  0
    2.4255   -2.1842    0.0488 H   0  0  0  0  0  0  0  0  0  0  0  0
    5.1330   -2.7460    0.9860 H   0  0  0  0  0  0  0  0  0  0  0  0
    5.8696   -2.4610   -0.6018 H   0  0  0  0  0  0  0  0  0  0  0  0
    4.9215   -3.3607   -2.5582 H   0  0  0  0  0  0  0  0  0  0  0  0
    3.4156   -2.4682   -2.3370 H   0  0  0  0  0  0  0  0  0  0  0  0
    3.1173   -4.3940   -3.8471 H   0  0  0  0  0  0  0  0  0  0  0  0
    2.0824   -4.4980   -2.4237 H   0  0  0  0  0  0  0  0  0  0  0  0
    4.7362   -5.9650   -2.8435 H   0  0  0  0  0  0  0  0  0  0  0  0
    3.1284   -6.6939   -2.8647 H   0  0  0  0  0  0  0  0  0  0  0  0
    4.2714   -7.0023   -0.6569 H   0  0  0  0  0  0  0  0  0  0  0  0
    2.7701   -6.0913   -0.5017 H   0  0  0  0  0  0  0  0  0  0  0  0
    5.6190   -4.9782   -0.5374 H   0  0  0  0  0  0  0  0  0  0  0  0
    4.4905   -5.0168    0.8222 H   0  0  0  0  0  0  0  0  0  0  0  0
    5.6780    2.6325   -0.1822 H   0  0  0  0  0  0  0  0  0  0  0  0
    2.1209    5.4252    1.4550 H   0  0  0  0  0  0  0  0  0  0  0  0
    3.9198    8.5831    1.9907 H   0  0  0  0  0  0  0  0  0  0  0  0
    2.5771    7.5894    2.5464 H   0  0  0  0  0  0  0  0  0  0  0  0
    0.5557    7.3075    0.7193 H   0  0  0  0  0  0  0  0  0  0  0  0
   -0.9833    8.6734   -0.6273 H   0  0  0  0  0  0  0  0  0  0  0  0
   -0.3782   10.9983   -1.2450 H   0  0  0  0  0  0  0  0  0  0  0  0
    1.7674   11.9686   -0.4674 H   0  0  0  0  0  0  0  0  0  0  0  0
    3.3303   10.6162    0.8759 H   0  0  0  0  0  0  0  0  0  0  0  0
    5.3556    8.9727   -0.0178 H   0  0  0  0  0  0  0  0  0  0  0  0
    7.2309    8.4699   -1.5576 H   0  0  0  0  0  0  0  0  0  0  0  0
    7.5926    6.1743   -2.3945 H   0  0  0  0  0  0  0  0  0  0  0  0
    6.0953    4.3422   -1.7093 H   0  0  0  0  0  0  0  0  0  0  0  0
  1  2  2  0  0  0  0
  2  3  1  0  0  0  0
  2 33  1  0  0  0  0
  3  4  1  0  0  0  0
  3 34  1  0  0  0  0
  4  5  1  0  0  0  0
  4 12  2  0  0  0  0
  5  6  1  0  0  0  0
  5 35  1  0  0  0  0
  5 36  1  0  0  0  0
  6  7  1  0  0  0  0
  6 11  1  0  0  0  0
  7  8  1  0  0  0  0
  7 37  1  0  0  0  0
  7 38  1  0  0  0  0
  8  9  1  0  0  0  0
  8 39  1  0  0  0  0
  8 40  1  0  0  0  0
  9 10  1  0  0  0  0
  9 41  1  0  0  0  0
  9 42  1  0  0  0  0
 10 11  1  0  0  0  0
 10 43  1  0  0  0  0
 10 44  1  0  0  0  0
 11 45  1  0  0  0  0
 11 46  1  0  0  0  0
 12 13  1  0  0  0  0
 13 14  1  0  0  0  0
 13 33  2  0  0  0  0
 14 15  2  0  0  0  0
 14 47  1  0  0  0  0
 15 16  1  0  0  0  0
 15 32  1  0  0  0  0
 16 17  2  0  0  0  0
 16 31  1  0  0  0  0
 17 18  1  0  0  0  0
 17 48  1  0  0  0  0
 18 19  1  0  0  0  0
 18 26  1  0  0  0  0
 19 20  1  0  0  0  0
 19 49  1  0  0  0  0
 19 50  1  0  0  0  0
 20 21  1  0  0  0  0
 20 25  2  0  0  0  0
 21 22  2  0  0  0  0
 21 51  1  0  0  0  0
 22 23  1  0  0  0  0
 22 52  1  0  0  0  0
 23 24  2  0  0  0  0
 23 53  1  0  0  0  0
 24 25  1  0  0  0  0
 24 54  1  0  0  0  0
 25 55  1  0  0  0  0
 26 27  1  0  0  0  0
 26 31  2  0  0  0  0
 27 28  2  0  0  0  0
 27 56  1  0  0  0  0
 28 29  1  0  0  0  0
 28 57  1  0  0  0  0
 29 30  2  0  0  0  0
 29 58  1  0  0  0  0
 30 31  1  0  0  0  0
 30 59  1  0  0  0  0
 32 33  1  0  0  0  0
M  END
$$$$
