CHEMBL150826
 OpenBabel04072215363D

 44 46  0  0  0  0  0  0  0  0999 V2000
    0.5772   -3.8189    2.3757 C   0  0  0  0  0  0  0  0  0  0  0  0
    1.9908   -3.8950    2.4308 O   0  0  0  0  0  0  0  0  0  0  0  0
    2.6123   -2.6093    2.3384 C   0  0  0  0  0  0  0  0  0  0  0  0
    4.1104   -2.8447    2.4283 C   0  0  0  0  0  0  0  0  0  0  0  0
    4.8652   -1.6319    2.3746 O   0  0  0  0  0  0  0  0  0  0  0  0
    6.2362   -1.8078    2.4290 C   0  0  0  0  0  0  0  0  0  0  0  0
    6.8367   -3.0684    2.5565 C   0  0  0  0  0  0  0  0  0  0  0  0
    8.2029   -3.2395    2.5842 C   0  0  0  0  0  0  0  0  0  0  0  0
    8.6731   -4.4903    2.7010 N   0  0  0  0  0  0  0  0  0  0  0  0
    9.9986   -4.7287    2.7379 N   0  0  0  0  0  0  0  0  0  0  0  0
   10.8380   -3.6865    2.6225 C   0  0  0  0  0  0  0  0  0  0  0  0
   10.4216   -2.3684    2.4452 C   0  0  0  0  0  0  0  0  0  0  0  0
   11.3543   -1.3110    2.2749 N   0  0  0  0  0  0  0  0  0  0  0  0
   12.6273   -1.4516    1.6674 C   0  0  0  0  0  0  0  0  0  0  0  0
   12.8122   -2.3016    0.5656 C   0  0  0  0  0  0  0  0  0  0  0  0
   14.0848   -2.4958    0.0319 C   0  0  0  0  0  0  0  0  0  0  0  0
   14.2564   -3.3855   -0.9920 O   0  0  0  0  0  0  0  0  0  0  0  0
   15.1790   -1.7994    0.5536 C   0  0  0  0  0  0  0  0  0  0  0  0
   16.7718   -2.0444   -0.0600 Cl  0  0  0  0  0  0  0  0  0  0  0  0
   14.9969   -0.8954    1.5989 C   0  0  0  0  0  0  0  0  0  0  0  0
   13.7267   -0.7251    2.1394 C   0  0  0  0  0  0  0  0  0  0  0  0
   13.5597    0.1263    3.1629 F   0  0  0  0  0  0  0  0  0  0  0  0
    9.0340   -2.1186    2.4698 C   0  0  0  0  0  0  0  0  0  0  0  0
    8.4452   -0.8324    2.3596 C   0  0  0  0  0  0  0  0  0  0  0  0
    7.0524   -0.6716    2.3319 C   0  0  0  0  0  0  0  0  0  0  0  0
    6.4247    0.5444    2.2370 O   0  0  0  0  0  0  0  0  0  0  0  0
    7.1866    1.6211    1.6999 C   0  0  0  0  0  0  0  0  0  0  0  0
    0.1797   -4.8353    2.4490 H   0  0  0  0  0  0  0  0  0  0  0  0
    0.2559   -3.3850    1.4252 H   0  0  0  0  0  0  0  0  0  0  0  0
    0.1944   -3.2324    3.2153 H   0  0  0  0  0  0  0  0  0  0  0  0
    2.2765   -1.9624    3.1559 H   0  0  0  0  0  0  0  0  0  0  0  0
    2.3568   -2.1317    1.3861 H   0  0  0  0  0  0  0  0  0  0  0  0
    4.3915   -3.5015    1.5937 H   0  0  0  0  0  0  0  0  0  0  0  0
    4.3081   -3.3661    3.3743 H   0  0  0  0  0  0  0  0  0  0  0  0
    6.2497   -3.9784    2.6307 H   0  0  0  0  0  0  0  0  0  0  0  0
   11.8859   -3.9624    2.6684 H   0  0  0  0  0  0  0  0  0  0  0  0
   11.4023   -0.7255    3.1120 H   0  0  0  0  0  0  0  0  0  0  0  0
   11.9584   -2.8221    0.1385 H   0  0  0  0  0  0  0  0  0  0  0  0
   13.4197   -3.8457   -1.1747 H   0  0  0  0  0  0  0  0  0  0  0  0
   15.8308   -0.3348    2.0067 H   0  0  0  0  0  0  0  0  0  0  0  0
    9.0998    0.0300    2.3016 H   0  0  0  0  0  0  0  0  0  0  0  0
    6.5127    2.4712    1.5537 H   0  0  0  0  0  0  0  0  0  0  0  0
    7.6092    1.3583    0.7240 H   0  0  0  0  0  0  0  0  0  0  0  0
    7.9704    1.9417    2.3942 H   0  0  0  0  0  0  0  0  0  0  0  0
  1  2  1  0  0  0  0
  1 28  1  0  0  0  0
  1 29  1  0  0  0  0
  1 30  1  0  0  0  0
  2  3  1  0  0  0  0
  3  4  1  0  0  0  0
  3 31  1  0  0  0  0
  3 32  1  0  0  0  0
  4  5  1  0  0  0  0
  4 33  1  0  0  0  0
  4 34  1  0  0  0  0
  5  6  1  0  0  0  0
  6  7  1  0  0  0  0
  6 25  2  0  0  0  0
  7  8  2  0  0  0  0
  7 35  1  0  0  0  0
  8  9  1  0  0  0  0
  8 23  1  0  0  0  0
  9 10  2  0  0  0  0
 10 11  1  0  0  0  0
 11 12  2  0  0  0  0
 11 36  1  0  0  0  0
 12 13  1  0  0  0  0
 12 23  1  0  0  0  0
 13 14  1  0  0  0  0
 13 37  1  0  0  0  0
 14 15  1  0  0  0  0
 14 21  2  0  0  0  0
 15 16  2  0  0  0  0
 15 38  1  0  0  0  0
 16 17  1  0  0  0  0
 16 18  1  0  0  0  0
 17 39  1  0  0  0  0
 18 19  1  0  0  0  0
 18 20  2  0  0  0  0
 20 21  1  0  0  0  0
 20 40  1  0  0  0  0
 21 22  1  0  0  0  0
 23 24  2  0  0  0  0
 24 25  1  0  0  0  0
 24 41  1  0  0  0  0
 25 26  1  0  0  0  0
 26 27  1  0  0  0  0
 27 42  1  0  0  0  0
 27 43  1  0  0  0  0
 27 44  1  0  0  0  0
M  END
$$$$
