CHEMBL190984
 OpenBabel04072215363D

 47 49  0  0  0  0  0  0  0  0999 V2000
    1.9244    1.7521   -1.9062 C   0  0  0  0  0  0  0  0  0  0  0  0
    2.1478    2.0389   -0.4872 N   0  0  0  0  0  0  0  0  0  0  0  0
    0.9084    1.8191    0.2633 C   0  0  0  0  0  0  0  0  0  0  0  0
    3.2253    1.1994    0.0747 C   0  0  0  0  0  0  0  0  0  0  0  0
    4.6287    1.4071   -0.5365 C   0  0  0  0  0  0  0  0  0  0  0  0
    5.0814    2.7973   -0.4110 N   0  0  0  0  0  0  0  0  0  0  0  0
    6.4571    3.0384   -0.4203 C   0  0  0  0  0  0  0  0  0  0  0  0
    7.0203    4.1170    0.2586 C   0  0  0  0  0  0  0  0  0  0  0  0
    8.3437    4.4046    0.2904 N   0  0  0  0  0  0  0  0  0  0  0  0
    9.1572    3.5993   -0.4370 C   0  0  0  0  0  0  0  0  0  0  0  0
    8.7217    2.5401   -1.2303 C   0  0  0  0  0  0  0  0  0  0  0  0
    9.6464    1.7449   -2.0501 C   0  0  0  0  0  0  0  0  0  0  0  0
    9.2663    1.0915   -3.2221 C   0  0  0  0  0  0  0  0  0  0  0  0
   10.1001    0.3099   -3.9461 N   0  0  0  0  0  0  0  0  0  0  0  0
   11.3561    0.2149   -3.4520 C   0  0  0  0  0  0  0  0  0  0  0  0
   11.7974    0.8981   -2.3171 C   0  0  0  0  0  0  0  0  0  0  0  0
   13.1270    0.7258   -1.8613 N   0  0  0  0  0  0  0  0  0  0  0  0
   13.8454    1.6818   -1.0976 C   0  0  0  0  0  0  0  0  0  0  0  0
   13.6189    3.0611   -1.2207 C   0  0  0  0  0  0  0  0  0  0  0  0
   14.4052    3.9838   -0.5287 C   0  0  0  0  0  0  0  0  0  0  0  0
   15.4449    3.5368    0.2820 C   0  0  0  0  0  0  0  0  0  0  0  0
   15.6943    2.1704    0.3908 C   0  0  0  0  0  0  0  0  0  0  0  0
   16.9895    1.6187    1.3812 Cl  0  0  0  0  0  0  0  0  0  0  0  0
   14.9127    1.2464   -0.3040 C   0  0  0  0  0  0  0  0  0  0  0  0
   10.9261    1.6548   -1.6061 N   0  0  0  0  0  0  0  0  0  0  0  0
    7.3415    2.2789   -1.1929 C   0  0  0  0  0  0  0  0  0  0  0  0
    1.0980    2.3568   -2.2969 H   0  0  0  0  0  0  0  0  0  0  0  0
    1.6872    0.6961   -2.0810 H   0  0  0  0  0  0  0  0  0  0  0  0
    2.7996    2.0161   -2.5083 H   0  0  0  0  0  0  0  0  0  0  0  0
    0.0933    2.4265   -0.1451 H   0  0  0  0  0  0  0  0  0  0  0  0
    1.0351    2.1258    1.3073 H   0  0  0  0  0  0  0  0  0  0  0  0
    0.5965    0.7681    0.2465 H   0  0  0  0  0  0  0  0  0  0  0  0
    2.9659    0.1360   -0.0110 H   0  0  0  0  0  0  0  0  0  0  0  0
    3.3082    1.4196    1.1476 H   0  0  0  0  0  0  0  0  0  0  0  0
    4.6354    1.1089   -1.5900 H   0  0  0  0  0  0  0  0  0  0  0  0
    5.3147    0.7360   -0.0003 H   0  0  0  0  0  0  0  0  0  0  0  0
    4.5617    3.3201    0.2918 H   0  0  0  0  0  0  0  0  0  0  0  0
    6.4003    4.7955    0.8379 H   0  0  0  0  0  0  0  0  0  0  0  0
   10.2134    3.8527   -0.3708 H   0  0  0  0  0  0  0  0  0  0  0  0
    8.2648    1.1798   -3.6292 H   0  0  0  0  0  0  0  0  0  0  0  0
   12.0215   -0.4237   -4.0224 H   0  0  0  0  0  0  0  0  0  0  0  0
   13.7247    0.4250   -2.6267 H   0  0  0  0  0  0  0  0  0  0  0  0
   12.8250    3.4346   -1.8630 H   0  0  0  0  0  0  0  0  0  0  0  0
   14.2066    5.0477   -0.6311 H   0  0  0  0  0  0  0  0  0  0  0  0
   16.0558    4.2556    0.8211 H   0  0  0  0  0  0  0  0  0  0  0  0
   15.1208    0.1847   -0.2106 H   0  0  0  0  0  0  0  0  0  0  0  0
    6.9435    1.4551   -1.7774 H   0  0  0  0  0  0  0  0  0  0  0  0
  1  2  1  0  0  0  0
  1 27  1  0  0  0  0
  1 28  1  0  0  0  0
  1 29  1  0  0  0  0
  2  3  1  0  0  0  0
  2  4  1  0  0  0  0
  3 30  1  0  0  0  0
  3 31  1  0  0  0  0
  3 32  1  0  0  0  0
  4  5  1  0  0  0  0
  4 33  1  0  0  0  0
  4 34  1  0  0  0  0
  5  6  1  0  0  0  0
  5 35  1  0  0  0  0
  5 36  1  0  0  0  0
  6  7  1  0  0  0  0
  6 37  1  0  0  0  0
  7  8  1  0  0  0  0
  7 26  2  0  0  0  0
  8  9  2  0  0  0  0
  8 38  1  0  0  0  0
  9 10  1  0  0  0  0
 10 11  2  0  0  0  0
 10 39  1  0  0  0  0
 11 12  1  0  0  0  0
 11 26  1  0  0  0  0
 12 13  1  0  0  0  0
 12 25  2  0  0  0  0
 13 14  2  0  0  0  0
 13 40  1  0  0  0  0
 14 15  1  0  0  0  0
 15 16  2  0  0  0  0
 15 41  1  0  0  0  0
 16 17  1  0  0  0  0
 16 25  1  0  0  0  0
 17 18  1  0  0  0  0
 17 42  1  0  0  0  0
 18 19  1  0  0  0  0
 18 24  2  0  0  0  0
 19 20  2  0  0  0  0
 19 43  1  0  0  0  0
 20 21  1  0  0  0  0
 20 44  1  0  0  0  0
 21 22  2  0  0  0  0
 21 45  1  0  0  0  0
 22 23  1  0  0  0  0
 22 24  1  0  0  0  0
 24 46  1  0  0  0  0
 26 47  1  0  0  0  0
M  END
$$$$
