CHEMBL197923
 OpenBabel04072215363D

 42 45  0  0  0  0  0  0  0  0999 V2000
    0.9821    0.0011   -0.1225 O   0  0  0  0  0  0  0  0  0  0  0  0
    2.2094   -0.0299   -0.0734 C   0  0  0  0  0  0  0  0  0  0  0  0
    2.8885   -1.1847    0.2733 N   0  0  0  0  0  0  0  0  0  0  0  0
    2.1936   -2.4079    0.6397 C   0  0  0  0  0  0  0  0  0  0  0  0
    3.1562   -3.5636    0.9331 C   0  0  0  0  0  0  0  0  0  0  0  0
    2.4714   -4.8541    1.3239 C   0  0  0  0  0  0  0  0  0  0  0  0
    2.6419   -6.0108    0.5487 C   0  0  0  0  0  0  0  0  0  0  0  0
    2.0550   -7.2200    0.9312 C   0  0  0  0  0  0  0  0  0  0  0  0
    1.2902   -7.2895    2.0930 C   0  0  0  0  0  0  0  0  0  0  0  0
    1.1105   -6.1479    2.8706 C   0  0  0  0  0  0  0  0  0  0  0  0
    1.6980   -4.9384    2.4910 C   0  0  0  0  0  0  0  0  0  0  0  0
    3.0397    1.1454   -0.3511 C   0  0  0  0  0  0  0  0  0  0  0  0
    2.5675    2.4502   -0.6586 C   0  0  0  0  0  0  0  0  0  0  0  0
    3.6259    3.3825   -0.8367 C   0  0  0  0  0  0  0  0  0  0  0  0
    3.9782    4.6755   -1.0987 C   0  0  0  0  0  0  0  0  0  0  0  0
    3.2498    5.9204   -1.3352 C   0  0  0  0  0  0  0  0  0  0  0  0
    1.9858    6.1326   -0.7719 C   0  0  0  0  0  0  0  0  0  0  0  0
    1.3144    7.3459   -0.9616 C   0  0  0  0  0  0  0  0  0  0  0  0
    1.8952    8.3586   -1.7201 C   0  0  0  0  0  0  0  0  0  0  0  0
    3.1455    8.1599   -2.2982 C   0  0  0  0  0  0  0  0  0  0  0  0
    3.8155    6.9465   -2.1089 C   0  0  0  0  0  0  0  0  0  0  0  0
    5.3823    4.6203   -1.0389 N   0  0  0  0  0  0  0  0  0  0  0  0
    5.8939    3.3764   -0.7894 N   0  0  0  0  0  0  0  0  0  0  0  0
    4.8047    2.6801   -0.6725 C   0  0  0  0  0  0  0  0  0  0  0  0
    4.8177    0.9833   -0.3164 S   0  0  0  0  0  0  0  0  0  0  0  0
    3.8898   -1.1125    0.4111 H   0  0  0  0  0  0  0  0  0  0  0  0
    1.5160   -2.6688   -0.1817 H   0  0  0  0  0  0  0  0  0  0  0  0
    1.5744   -2.1786    1.5140 H   0  0  0  0  0  0  0  0  0  0  0  0
    3.8454   -3.2836    1.7401 H   0  0  0  0  0  0  0  0  0  0  0  0
    3.7889   -3.7329    0.0518 H   0  0  0  0  0  0  0  0  0  0  0  0
    3.2424   -5.9840   -0.3579 H   0  0  0  0  0  0  0  0  0  0  0  0
    2.2017   -8.1108    0.3253 H   0  0  0  0  0  0  0  0  0  0  0  0
    0.8405   -8.2321    2.3939 H   0  0  0  0  0  0  0  0  0  0  0  0
    0.5162   -6.2023    3.7801 H   0  0  0  0  0  0  0  0  0  0  0  0
    1.5543   -4.0655    3.1240 H   0  0  0  0  0  0  0  0  0  0  0  0
    1.5094    2.6810   -0.7266 H   0  0  0  0  0  0  0  0  0  0  0  0
    1.5155    5.3663   -0.1613 H   0  0  0  0  0  0  0  0  0  0  0  0
    0.3372    7.4998   -0.5102 H   0  0  0  0  0  0  0  0  0  0  0  0
    1.3744    9.3031   -1.8620 H   0  0  0  0  0  0  0  0  0  0  0  0
    3.5987    8.9453   -2.8976 H   0  0  0  0  0  0  0  0  0  0  0  0
    4.7827    6.8222   -2.5908 H   0  0  0  0  0  0  0  0  0  0  0  0
    6.0297    5.3962   -1.1386 H   0  0  0  0  0  0  0  0  0  0  0  0
  1  2  2  0  0  0  0
  2  3  1  0  0  0  0
  2 12  1  0  0  0  0
  3  4  1  0  0  0  0
  3 26  1  0  0  0  0
  4  5  1  0  0  0  0
  4 27  1  0  0  0  0
  4 28  1  0  0  0  0
  5  6  1  0  0  0  0
  5 29  1  0  0  0  0
  5 30  1  0  0  0  0
  6  7  1  0  0  0  0
  6 11  2  0  0  0  0
  7  8  2  0  0  0  0
  7 31  1  0  0  0  0
  8  9  1  0  0  0  0
  8 32  1  0  0  0  0
  9 10  2  0  0  0  0
  9 33  1  0  0  0  0
 10 11  1  0  0  0  0
 10 34  1  0  0  0  0
 11 35  1  0  0  0  0
 12 13  2  0  0  0  0
 12 25  1  0  0  0  0
 13 14  1  0  0  0  0
 13 36  1  0  0  0  0
 14 15  2  0  0  0  0
 14 24  1  0  0  0  0
 15 16  1  0  0  0  0
 15 22  1  0  0  0  0
 16 17  1  0  0  0  0
 16 21  2  0  0  0  0
 17 18  2  0  0  0  0
 17 37  1  0  0  0  0
 18 19  1  0  0  0  0
 18 38  1  0  0  0  0
 19 20  2  0  0  0  0
 19 39  1  0  0  0  0
 20 21  1  0  0  0  0
 20 40  1  0  0  0  0
 21 41  1  0  0  0  0
 22 23  1  0  0  0  0
 22 42  1  0  0  0  0
 23 24  2  0  0  0  0
 24 25  1  0  0  0  0
M  END
$$$$
