CHEMBL2180602
 OpenBabel04072215363D

 60 63  0  0  0  0  0  0  0  0999 V2000
    4.8049   -2.3390    0.9910 C   0  0  0  0  0  0  0  0  0  0  0  0
    4.3950   -0.9289    1.4041 C   0  0  0  0  0  0  0  0  0  0  0  0
    4.7723    0.1321    0.4520 N   0  0  0  0  0  0  0  0  0  0  0  0
    4.2935   -0.1034   -0.9233 C   0  0  0  0  0  0  0  0  0  0  0  0
    2.7802   -0.0736   -1.1338 C   0  0  0  0  0  0  0  0  0  0  0  0
    4.3485    1.4684    0.9338 C   0  0  0  0  0  0  0  0  0  0  0  0
    4.9384    1.8883    2.2883 C   0  0  0  0  0  0  0  0  0  0  0  0
    6.3853    1.9131    2.2958 N   0  0  0  0  0  0  0  0  0  0  0  0
    7.0400    2.2883    3.4457 C   0  0  0  0  0  0  0  0  0  0  0  0
    6.4234    2.6418    4.4491 O   0  0  0  0  0  0  0  0  0  0  0  0
    8.5021    2.1793    3.4320 C   0  0  0  0  0  0  0  0  0  0  0  0
    9.4007    2.3833    2.3904 C   0  0  0  0  0  0  0  0  0  0  0  0
    9.1934    2.7816    0.9705 C   0  0  0  0  0  0  0  0  0  0  0  0
   10.6830    2.2236    2.8982 N   0  0  0  0  0  0  0  0  0  0  0  0
   10.6360    1.9411    4.2372 C   0  0  0  0  0  0  0  0  0  0  0  0
    9.3004    1.9025    4.5858 C   0  0  0  0  0  0  0  0  0  0  0  0
    8.7847    1.6317    5.9521 C   0  0  0  0  0  0  0  0  0  0  0  0
    9.8489    1.3409    6.9954 C   0  0  0  0  0  0  0  0  0  0  0  0
   11.3237    1.4282    6.5898 C   0  0  0  0  0  0  0  0  0  0  0  0
   11.7305    1.7345    5.1447 C   0  0  0  0  0  0  0  0  0  0  0  0
   13.0614    1.7998    4.8634 C   0  0  0  0  0  0  0  0  0  0  0  0
   13.7407    2.0987    3.5366 C   0  0  0  0  0  0  0  0  0  0  0  0
   13.2349    2.3390    2.4553 O   0  0  0  0  0  0  0  0  0  0  0  0
   15.1018    2.0478    3.7813 N   0  0  0  0  0  0  0  0  0  0  0  0
   15.3802    1.7466    5.1065 C   0  0  0  0  0  0  0  0  0  0  0  0
   16.6433    1.6213    5.6697 C   0  0  0  0  0  0  0  0  0  0  0  0
   16.7213    1.3144    7.0281 C   0  0  0  0  0  0  0  0  0  0  0  0
   15.5528    1.1480    7.7674 C   0  0  0  0  0  0  0  0  0  0  0  0
   15.6336    0.8512    9.0722 F   0  0  0  0  0  0  0  0  0  0  0  0
   14.2942    1.2783    7.1850 C   0  0  0  0  0  0  0  0  0  0  0  0
   14.1941    1.5835    5.8301 C   0  0  0  0  0  0  0  0  0  0  0  0
    4.7049   -3.0161    1.8465 H   0  0  0  0  0  0  0  0  0  0  0  0
    5.8490   -2.3707    0.6633 H   0  0  0  0  0  0  0  0  0  0  0  0
    4.1693   -2.7272    0.1896 H   0  0  0  0  0  0  0  0  0  0  0  0
    4.9049   -0.7474    2.3560 H   0  0  0  0  0  0  0  0  0  0  0  0
    3.3188   -0.9116    1.6131 H   0  0  0  0  0  0  0  0  0  0  0  0
    4.6857   -1.0579   -1.2918 H   0  0  0  0  0  0  0  0  0  0  0  0
    4.7463    0.6473   -1.5844 H   0  0  0  0  0  0  0  0  0  0  0  0
    2.2452   -0.6790   -0.3971 H   0  0  0  0  0  0  0  0  0  0  0  0
    2.5348   -0.4705   -2.1245 H   0  0  0  0  0  0  0  0  0  0  0  0
    2.3937    0.9498   -1.0872 H   0  0  0  0  0  0  0  0  0  0  0  0
    3.2560    1.5230    1.0125 H   0  0  0  0  0  0  0  0  0  0  0  0
    4.6602    2.2193    0.1960 H   0  0  0  0  0  0  0  0  0  0  0  0
    4.5977    1.2307    3.0963 H   0  0  0  0  0  0  0  0  0  0  0  0
    4.5850    2.8945    2.5434 H   0  0  0  0  0  0  0  0  0  0  0  0
    6.8795    1.3281    1.6331 H   0  0  0  0  0  0  0  0  0  0  0  0
    8.1430    2.9881    0.7476 H   0  0  0  0  0  0  0  0  0  0  0  0
    9.5287    1.9883    0.2956 H   0  0  0  0  0  0  0  0  0  0  0  0
    9.7504    3.6957    0.7416 H   0  0  0  0  0  0  0  0  0  0  0  0
   11.5342    2.3424    2.3546 H   0  0  0  0  0  0  0  0  0  0  0  0
    8.0965    0.7780    5.9086 H   0  0  0  0  0  0  0  0  0  0  0  0
    8.1967    2.4922    6.2921 H   0  0  0  0  0  0  0  0  0  0  0  0
    9.6669    0.3415    7.4131 H   0  0  0  0  0  0  0  0  0  0  0  0
    9.6900    2.0143    7.8492 H   0  0  0  0  0  0  0  0  0  0  0  0
   11.7529    0.4536    6.8518 H   0  0  0  0  0  0  0  0  0  0  0  0
   11.7571    2.2092    7.2270 H   0  0  0  0  0  0  0  0  0  0  0  0
   15.7894    2.2101    3.0608 H   0  0  0  0  0  0  0  0  0  0  0  0
   17.5432    1.7530    5.0817 H   0  0  0  0  0  0  0  0  0  0  0  0
   17.6795    1.2004    7.5258 H   0  0  0  0  0  0  0  0  0  0  0  0
   13.4526    1.1319    7.8432 H   0  0  0  0  0  0  0  0  0  0  0  0
  1  2  1  0  0  0  0
  1 32  1  0  0  0  0
  1 33  1  0  0  0  0
  1 34  1  0  0  0  0
  2  3  1  0  0  0  0
  2 35  1  0  0  0  0
  2 36  1  0  0  0  0
  3  4  1  0  0  0  0
  3  6  1  0  0  0  0
  4  5  1  0  0  0  0
  4 37  1  0  0  0  0
  4 38  1  0  0  0  0
  5 39  1  0  0  0  0
  5 40  1  0  0  0  0
  5 41  1  0  0  0  0
  6  7  1  0  0  0  0
  6 42  1  0  0  0  0
  6 43  1  0  0  0  0
  7  8  1  0  0  0  0
  7 44  1  0  0  0  0
  7 45  1  0  0  0  0
  8  9  1  0  0  0  0
  8 46  1  0  0  0  0
  9 10  2  0  0  0  0
  9 11  1  0  0  0  0
 11 12  2  0  0  0  0
 11 16  1  0  0  0  0
 12 13  1  0  0  0  0
 12 14  1  0  0  0  0
 13 47  1  0  0  0  0
 13 48  1  0  0  0  0
 13 49  1  0  0  0  0
 14 15  1  0  0  0  0
 14 50  1  0  0  0  0
 15 16  2  0  0  0  0
 15 20  1  0  0  0  0
 16 17  1  0  0  0  0
 17 18  1  0  0  0  0
 17 51  1  0  0  0  0
 17 52  1  0  0  0  0
 18 19  1  0  0  0  0
 18 53  1  0  0  0  0
 18 54  1  0  0  0  0
 19 20  1  0  0  0  0
 19 55  1  0  0  0  0
 19 56  1  0  0  0  0
 20 21  2  0  0  0  0
 21 22  1  0  0  0  0
 21 31  1  0  0  0  0
 22 23  2  0  0  0  0
 22 24  1  0  0  0  0
 24 25  1  0  0  0  0
 24 57  1  0  0  0  0
 25 26  1  0  0  0  0
 25 31  2  0  0  0  0
 26 27  2  0  0  0  0
 26 58  1  0  0  0  0
 27 28  1  0  0  0  0
 27 59  1  0  0  0  0
 28 29  1  0  0  0  0
 28 30  2  0  0  0  0
 30 31  1  0  0  0  0
 30 60  1  0  0  0  0
M  END
$$$$
