CHEMBL3985692
 OpenBabel04072215373D

 65 69  0  0  0  0  0  0  0  0999 V2000
    1.7699   -1.7792    1.3443 C   0  0  0  0  0  0  0  0  0  0  0  0
    2.2122   -1.9175    2.6901 O   0  0  0  0  0  0  0  0  0  0  0  0
    3.0829   -0.8466    3.0609 C   0  0  0  0  0  0  0  0  0  0  0  0
    3.5154   -1.0186    4.5110 C   0  0  0  0  0  0  0  0  0  0  0  0
    4.3336    0.0849    4.9760 N   0  0  0  0  0  0  0  0  0  0  0  0
    3.9598    1.4003    5.0206 C   0  0  0  0  0  0  0  0  0  0  0  0
    4.9952    2.0813    5.6228 C   0  0  0  0  0  0  0  0  0  0  0  0
    5.0339    3.5080    5.8865 C   0  0  0  0  0  0  0  0  0  0  0  0
    3.9918    4.3601    5.5616 C   0  0  0  0  0  0  0  0  0  0  0  0
    4.0465    5.6996    5.7530 N   0  0  0  0  0  0  0  0  0  0  0  0
    5.1945    6.1727    6.2671 C   0  0  0  0  0  0  0  0  0  0  0  0
    5.3596    7.5345    6.4311 C   0  0  0  0  0  0  0  0  0  0  0  0
    6.5689    8.0594    6.8946 C   0  0  0  0  0  0  0  0  0  0  0  0
    7.6447    7.2303    7.2599 C   0  0  0  0  0  0  0  0  0  0  0  0
    8.8542    7.7958    7.7305 N   0  0  0  0  0  0  0  0  0  0  0  0
   10.1285    7.0474    7.5552 C   0  0  0  0  0  0  0  0  0  0  0  0
   10.9481    7.3457    6.3450 C   0  0  0  0  0  0  0  0  0  0  0  0
   10.7865    8.0829    5.1956 C   0  0  0  0  0  0  0  0  0  0  0  0
   12.0481    8.0154    4.5583 C   0  0  0  0  0  0  0  0  0  0  0  0
   12.5031    8.7048    3.3281 C   0  0  0  0  0  0  0  0  0  0  0  0
   12.8949    7.2353    5.2371 N   0  0  0  0  0  0  0  0  0  0  0  0
   12.2026    6.8153    6.3549 O   0  0  0  0  0  0  0  0  0  0  0  0
    8.9613    8.9736    8.5268 C   0  0  0  0  0  0  0  0  0  0  0  0
    7.9520    9.2898    9.4553 C   0  0  0  0  0  0  0  0  0  0  0  0
    8.0120   10.4399   10.2450 C   0  0  0  0  0  0  0  0  0  0  0  0
    7.0682   10.8325   11.1559 O   0  0  0  0  0  0  0  0  0  0  0  0
    5.9307    9.9892   11.2979 C   0  0  0  0  0  0  0  0  0  0  0  0
    9.1131   11.2876   10.1387 C   0  0  0  0  0  0  0  0  0  0  0  0
   10.1488   10.9801    9.2608 C   0  0  0  0  0  0  0  0  0  0  0  0
   11.2813   11.7322    9.0968 O   0  0  0  0  0  0  0  0  0  0  0  0
   11.7099   12.4339   10.2611 C   0  0  0  0  0  0  0  0  0  0  0  0
   10.0566    9.8477    8.4458 C   0  0  0  0  0  0  0  0  0  0  0  0
    7.4320    5.8497    7.1395 C   0  0  0  0  0  0  0  0  0  0  0  0
    6.2558    5.3096    6.6247 C   0  0  0  0  0  0  0  0  0  0  0  0
    6.1683    3.9747    6.4541 N   0  0  0  0  0  0  0  0  0  0  0  0
    5.9632    1.0809    5.8717 C   0  0  0  0  0  0  0  0  0  0  0  0
    5.5628   -0.1306    5.4732 N   0  0  0  0  0  0  0  0  0  0  0  0
    1.1151   -2.6212    1.1064 H   0  0  0  0  0  0  0  0  0  0  0  0
    2.6230   -1.7915    0.6594 H   0  0  0  0  0  0  0  0  0  0  0  0
    1.2036   -0.8504    1.2225 H   0  0  0  0  0  0  0  0  0  0  0  0
    2.5441    0.0998    2.9304 H   0  0  0  0  0  0  0  0  0  0  0  0
    3.9592   -0.8374    2.4022 H   0  0  0  0  0  0  0  0  0  0  0  0
    4.0728   -1.9528    4.6389 H   0  0  0  0  0  0  0  0  0  0  0  0
    2.6431   -1.0740    5.1738 H   0  0  0  0  0  0  0  0  0  0  0  0
    3.0022    1.7186    4.6333 H   0  0  0  0  0  0  0  0  0  0  0  0
    3.0696    4.0094    5.1143 H   0  0  0  0  0  0  0  0  0  0  0  0
    4.5462    8.2029    6.1656 H   0  0  0  0  0  0  0  0  0  0  0  0
    6.6641    9.1424    6.9571 H   0  0  0  0  0  0  0  0  0  0  0  0
    9.9714    5.9657    7.5779 H   0  0  0  0  0  0  0  0  0  0  0  0
   10.7643    7.2170    8.4369 H   0  0  0  0  0  0  0  0  0  0  0  0
    9.9091    8.6371    4.8951 H   0  0  0  0  0  0  0  0  0  0  0  0
   11.6666    9.1779    2.8048 H   0  0  0  0  0  0  0  0  0  0  0  0
   12.9836    8.0039    2.6382 H   0  0  0  0  0  0  0  0  0  0  0  0
   13.2280    9.4865    3.5812 H   0  0  0  0  0  0  0  0  0  0  0  0
    7.1199    8.6018    9.5609 H   0  0  0  0  0  0  0  0  0  0  0  0
    5.2888   10.4208   12.0701 H   0  0  0  0  0  0  0  0  0  0  0  0
    6.2209    8.9860   11.6296 H   0  0  0  0  0  0  0  0  0  0  0  0
    5.3541    9.9476   10.3678 H   0  0  0  0  0  0  0  0  0  0  0  0
    9.1342   12.1866   10.7456 H   0  0  0  0  0  0  0  0  0  0  0  0
   12.7304   12.7864   10.0832 H   0  0  0  0  0  0  0  0  0  0  0  0
   11.7323   11.7784   11.1391 H   0  0  0  0  0  0  0  0  0  0  0  0
   11.0812   13.3107   10.4423 H   0  0  0  0  0  0  0  0  0  0  0  0
   10.8650    9.6739    7.7425 H   0  0  0  0  0  0  0  0  0  0  0  0
    8.1766    5.1309    7.4624 H   0  0  0  0  0  0  0  0  0  0  0  0
    6.9417    1.1914    6.3280 H   0  0  0  0  0  0  0  0  0  0  0  0
  1  2  1  0  0  0  0
  1 38  1  0  0  0  0
  1 39  1  0  0  0  0
  1 40  1  0  0  0  0
  2  3  1  0  0  0  0
  3  4  1  0  0  0  0
  3 41  1  0  0  0  0
  3 42  1  0  0  0  0
  4  5  1  0  0  0  0
  4 43  1  0  0  0  0
  4 44  1  0  0  0  0
  5  6  1  0  0  0  0
  5 37  1  0  0  0  0
  6  7  2  0  0  0  0
  6 45  1  0  0  0  0
  7  8  1  0  0  0  0
  7 36  1  0  0  0  0
  8  9  1  0  0  0  0
  8 35  2  0  0  0  0
  9 10  2  0  0  0  0
  9 46  1  0  0  0  0
 10 11  1  0  0  0  0
 11 12  1  0  0  0  0
 11 34  2  0  0  0  0
 12 13  2  0  0  0  0
 12 47  1  0  0  0  0
 13 14  1  0  0  0  0
 13 48  1  0  0  0  0
 14 15  1  0  0  0  0
 14 33  2  0  0  0  0
 15 16  1  0  0  0  0
 15 23  1  0  0  0  0
 16 17  1  0  0  0  0
 16 49  1  0  0  0  0
 16 50  1  0  0  0  0
 17 18  2  0  0  0  0
 17 22  1  0  0  0  0
 18 19  1  0  0  0  0
 18 51  1  0  0  0  0
 19 20  1  0  0  0  0
 19 21  2  0  0  0  0
 20 52  1  0  0  0  0
 20 53  1  0  0  0  0
 20 54  1  0  0  0  0
 21 22  1  0  0  0  0
 23 24  1  0  0  0  0
 23 32  2  0  0  0  0
 24 25  2  0  0  0  0
 24 55  1  0  0  0  0
 25 26  1  0  0  0  0
 25 28  1  0  0  0  0
 26 27  1  0  0  0  0
 27 56  1  0  0  0  0
 27 57  1  0  0  0  0
 27 58  1  0  0  0  0
 28 29  2  0  0  0  0
 28 59  1  0  0  0  0
 29 30  1  0  0  0  0
 29 32  1  0  0  0  0
 30 31  1  0  0  0  0
 31 60  1  0  0  0  0
 31 61  1  0  0  0  0
 31 62  1  0  0  0  0
 32 63  1  0  0  0  0
 33 34  1  0  0  0  0
 33 64  1  0  0  0  0
 34 35  1  0  0  0  0
 36 37  2  0  0  0  0
 36 65  1  0  0  0  0
M  END
$$$$
