CHEMBL3898480
 OpenBabel04072215373D

 73 76  0  0  1  0  0  0  0  0999 V2000
   -0.6947    4.2449    3.6312 C   0  0  0  0  0  0  0  0  0  0  0  0
   -0.3335    2.7781    3.9032 C   0  0  1  0  0  0  0  0  0  0  0  0
    1.1252    2.6006    3.9406 N   0  0  0  0  0  0  0  0  0  0  0  0
    1.7766    2.8129    2.7166 C   0  0  0  0  0  0  0  0  0  0  0  0
    1.1233    2.6402    1.5410 N   0  0  0  0  0  0  0  0  0  0  0  0
    1.7765    2.9033    0.3919 C   0  0  0  0  0  0  0  0  0  0  0  0
    3.0412    3.3161    0.2297 N   0  0  0  0  0  0  0  0  0  0  0  0
    3.6554    3.4630    1.4122 C   0  0  0  0  0  0  0  0  0  0  0  0
    4.9392    3.8941    1.5709 N   0  0  0  0  0  0  0  0  0  0  0  0
    5.2694    3.9625    2.9091 C   0  0  0  0  0  0  0  0  0  0  0  0
    6.5782    4.4129    3.3856 C   0  0  0  0  0  0  0  0  0  0  0  0
    6.7032    5.0533    4.6242 C   0  0  0  0  0  0  0  0  0  0  0  0
    7.9553    5.4661    5.0925 C   0  0  0  0  0  0  0  0  0  0  0  0
    9.1107    5.2417    4.3317 C   0  0  0  0  0  0  0  0  0  0  0  0
   10.4661    5.6773    4.8332 C   0  0  0  0  0  0  0  0  0  0  0  0
   10.7987    5.0176    6.0937 N   0  0  0  0  0  0  0  0  0  0  0  0
   12.1281    5.4089    6.5518 C   0  0  0  0  0  0  0  0  0  0  0  0
   12.4350    4.7017    7.8700 C   0  0  0  0  0  0  0  0  0  0  0  0
   13.8175    5.0915    8.3904 C   0  0  0  0  0  0  0  0  0  0  0  0
   14.1209    4.3879    9.7105 C   0  0  0  0  0  0  0  0  0  0  0  0
   15.5017    4.7737   10.2374 C   0  0  0  0  0  0  0  0  0  0  0  0
   15.7934    4.0646   11.5576 C   0  0  0  0  0  0  0  0  0  0  0  0
   17.1686    4.4356   12.1035 C   0  0  0  0  0  0  0  0  0  0  0  0
   17.4491    3.7420   13.4189 C   0  0  0  0  0  0  0  0  0  0  0  0
   16.6779    2.9679   13.9804 O   0  0  0  0  0  0  0  0  0  0  0  0
   18.6689    4.0647   13.9603 N   0  0  0  0  0  0  0  0  0  0  0  0
   19.0113    3.3909   15.1543 O   0  0  0  0  0  0  0  0  0  0  0  0
    8.9857    4.6117    3.0897 C   0  0  0  0  0  0  0  0  0  0  0  0
    7.7340    4.2028    2.6215 C   0  0  0  0  0  0  0  0  0  0  0  0
    4.1387    3.5525    3.6034 C   0  0  0  0  0  0  0  0  0  0  0  0
    3.1173    3.2349    2.6683 C   0  0  0  0  0  0  0  0  0  0  0  0
   -0.9098    2.3207    5.2407 C   0  0  0  0  0  0  0  0  0  0  0  0
   -1.8290    1.2593    5.2866 C   0  0  0  0  0  0  0  0  0  0  0  0
   -2.3558    0.8216    6.5048 C   0  0  0  0  0  0  0  0  0  0  0  0
   -1.9734    1.4386    7.6938 C   0  0  0  0  0  0  0  0  0  0  0  0
   -1.0683    2.4972    7.6658 C   0  0  0  0  0  0  0  0  0  0  0  0
   -0.5390    2.9346    6.4491 C   0  0  0  0  0  0  0  0  0  0  0  0
   -0.4490    4.5282    2.6019 H   0  0  0  0  0  0  0  0  0  0  0  0
   -0.1439    4.9279    4.2882 H   0  0  0  0  0  0  0  0  0  0  0  0
   -1.7656    4.4250    3.7711 H   0  0  0  0  0  0  0  0  0  0  0  0
   -0.7741    2.1510    3.1168 H   0  0  0  0  0  0  0  0  0  0  0  0
    1.3419    1.6467    4.2247 H   0  0  0  0  0  0  0  0  0  0  0  0
    1.1986    2.7719   -0.5199 H   0  0  0  0  0  0  0  0  0  0  0  0
    5.5359    4.1543    0.8002 H   0  0  0  0  0  0  0  0  0  0  0  0
    5.8272    5.2456    5.2393 H   0  0  0  0  0  0  0  0  0  0  0  0
    8.0298    5.9555    6.0627 H   0  0  0  0  0  0  0  0  0  0  0  0
   10.4558    6.7668    4.9557 H   0  0  0  0  0  0  0  0  0  0  0  0
   11.2278    5.4401    4.0799 H   0  0  0  0  0  0  0  0  0  0  0  0
   10.7608    4.0075    5.9576 H   0  0  0  0  0  0  0  0  0  0  0  0
   12.1691    6.4942    6.7027 H   0  0  0  0  0  0  0  0  0  0  0  0
   12.8858    5.1403    5.8056 H   0  0  0  0  0  0  0  0  0  0  0  0
   12.3906    3.6141    7.7301 H   0  0  0  0  0  0  0  0  0  0  0  0
   11.6750    4.9630    8.6175 H   0  0  0  0  0  0  0  0  0  0  0  0
   13.8660    6.1781    8.5319 H   0  0  0  0  0  0  0  0  0  0  0  0
   14.5797    4.8268    7.6475 H   0  0  0  0  0  0  0  0  0  0  0  0
   14.0710    3.3012    9.5683 H   0  0  0  0  0  0  0  0  0  0  0  0
   13.3566    4.6516   10.4520 H   0  0  0  0  0  0  0  0  0  0  0  0
   15.5514    5.8598   10.3815 H   0  0  0  0  0  0  0  0  0  0  0  0
   16.2666    4.5089    9.4974 H   0  0  0  0  0  0  0  0  0  0  0  0
   15.7349    2.9785   11.4128 H   0  0  0  0  0  0  0  0  0  0  0  0
   15.0222    4.3263   12.2930 H   0  0  0  0  0  0  0  0  0  0  0  0
   17.2290    5.5182   12.2649 H   0  0  0  0  0  0  0  0  0  0  0  0
   17.9473    4.1502   11.3867 H   0  0  0  0  0  0  0  0  0  0  0  0
   19.4178    4.5299   13.4603 H   0  0  0  0  0  0  0  0  0  0  0  0
   18.2026    2.8599   15.3322 H   0  0  0  0  0  0  0  0  0  0  0  0
    9.8645    4.4241    2.4774 H   0  0  0  0  0  0  0  0  0  0  0  0
    7.6860    3.6989    1.6607 H   0  0  0  0  0  0  0  0  0  0  0  0
    4.0448    3.4914    4.6808 H   0  0  0  0  0  0  0  0  0  0  0  0
   -2.1438    0.7629    4.3712 H   0  0  0  0  0  0  0  0  0  0  0  0
   -3.0636   -0.0032    6.5255 H   0  0  0  0  0  0  0  0  0  0  0  0
   -2.3782    1.0938    8.6417 H   0  0  0  0  0  0  0  0  0  0  0  0
   -0.7694    2.9807    8.5923 H   0  0  0  0  0  0  0  0  0  0  0  0
    0.1743    3.7565    6.4459 H   0  0  0  0  0  0  0  0  0  0  0  0
  1  2  1  0  0  0  0
  1 38  1  0  0  0  0
  1 39  1  0  0  0  0
  1 40  1  0  0  0  0
  2  3  1  0  0  0  0
  2 32  1  0  0  0  0
  2 41  1  6  0  0  0
  3  4  1  0  0  0  0
  3 42  1  0  0  0  0
  4  5  1  0  0  0  0
  4 31  2  0  0  0  0
  5  6  2  0  0  0  0
  6  7  1  0  0  0  0
  6 43  1  0  0  0  0
  7  8  2  0  0  0  0
  8  9  1  0  0  0  0
  8 31  1  0  0  0  0
  9 10  1  0  0  0  0
  9 44  1  0  0  0  0
 10 11  1  0  0  0  0
 10 30  2  0  0  0  0
 11 12  1  0  0  0  0
 11 29  2  0  0  0  0
 12 13  2  0  0  0  0
 12 45  1  0  0  0  0
 13 14  1  0  0  0  0
 13 46  1  0  0  0  0
 14 15  1  0  0  0  0
 14 28  2  0  0  0  0
 15 16  1  0  0  0  0
 15 47  1  0  0  0  0
 15 48  1  0  0  0  0
 16 17  1  0  0  0  0
 16 49  1  0  0  0  0
 17 18  1  0  0  0  0
 17 50  1  0  0  0  0
 17 51  1  0  0  0  0
 18 19  1  0  0  0  0
 18 52  1  0  0  0  0
 18 53  1  0  0  0  0
 19 20  1  0  0  0  0
 19 54  1  0  0  0  0
 19 55  1  0  0  0  0
 20 21  1  0  0  0  0
 20 56  1  0  0  0  0
 20 57  1  0  0  0  0
 21 22  1  0  0  0  0
 21 58  1  0  0  0  0
 21 59  1  0  0  0  0
 22 23  1  0  0  0  0
 22 60  1  0  0  0  0
 22 61  1  0  0  0  0
 23 24  1  0  0  0  0
 23 62  1  0  0  0  0
 23 63  1  0  0  0  0
 24 25  2  0  0  0  0
 24 26  1  0  0  0  0
 26 27  1  0  0  0  0
 26 64  1  0  0  0  0
 27 65  1  0  0  0  0
 28 29  1  0  0  0  0
 28 66  1  0  0  0  0
 29 67  1  0  0  0  0
 30 31  1  0  0  0  0
 30 68  1  0  0  0  0
 32 33  1  0  0  0  0
 32 37  2  0  0  0  0
 33 34  2  0  0  0  0
 33 69  1  0  0  0  0
 34 35  1  0  0  0  0
 34 70  1  0  0  0  0
 35 36  2  0  0  0  0
 35 71  1  0  0  0  0
 36 37  1  0  0  0  0
 36 72  1  0  0  0  0
 37 73  1  0  0  0  0
M  END
$$$$
