CHEMBL2113167
 OpenBabel04072215363D

 51 53  0  0  0  0  0  0  0  0999 V2000
    1.0605    0.1510    0.8018 C   0  0  0  0  0  0  0  0  0  0  0  0
    2.3113    0.1776    0.1408 O   0  0  0  0  0  0  0  0  0  0  0  0
    2.8009    1.5006   -0.1046 C   0  0  0  0  0  0  0  0  0  0  0  0
    4.1168    1.3045   -0.8484 C   0  0  0  0  0  0  0  0  0  0  0  0
    4.7921    2.5074   -1.1520 O   0  0  0  0  0  0  0  0  0  0  0  0
    6.1486    2.4563   -1.3642 C   0  0  0  0  0  0  0  0  0  0  0  0
    6.7237    3.7307   -1.1348 C   0  0  0  0  0  0  0  0  0  0  0  0
    8.0906    3.9944   -1.2025 C   0  0  0  0  0  0  0  0  0  0  0  0
    8.5500    5.2143   -0.8936 N   0  0  0  0  0  0  0  0  0  0  0  0
    9.8740    5.3981   -0.9448 C   0  0  0  0  0  0  0  0  0  0  0  0
   10.7837    4.4877   -1.3068 N   0  0  0  0  0  0  0  0  0  0  0  0
   10.3125    3.2708   -1.6416 C   0  0  0  0  0  0  0  0  0  0  0  0
   11.2326    2.2795   -2.0820 N   0  0  0  0  0  0  0  0  0  0  0  0
   12.6142    2.4050   -1.9489 C   0  0  0  0  0  0  0  0  0  0  0  0
   13.2655    2.7784   -0.8426 C   0  0  0  0  0  0  0  0  0  0  0  0
   14.7331    2.8741   -0.7419 C   0  0  0  0  0  0  0  0  0  0  0  0
   15.2260    3.0930    0.3613 O   0  0  0  0  0  0  0  0  0  0  0  0
   15.5600    2.6651   -1.9984 C   0  0  0  0  0  0  0  0  0  0  0  0
   16.9473    2.9246   -1.9786 N   0  0  0  0  0  0  0  0  0  0  0  0
   17.9231    2.1885   -2.7854 C   0  0  0  0  0  0  0  0  0  0  0  0
   17.5813    3.8142   -0.9968 C   0  0  0  0  0  0  0  0  0  0  0  0
   14.8932    2.2330   -3.0821 C   0  0  0  0  0  0  0  0  0  0  0  0
   13.4316    2.0272   -3.1384 C   0  0  0  0  0  0  0  0  0  0  0  0
   12.8980    1.5857   -4.1528 O   0  0  0  0  0  0  0  0  0  0  0  0
    8.9391    2.9557   -1.5725 C   0  0  0  0  0  0  0  0  0  0  0  0
    8.3844    1.6747   -1.8071 C   0  0  0  0  0  0  0  0  0  0  0  0
    7.0046    1.4031   -1.7063 C   0  0  0  0  0  0  0  0  0  0  0  0
    6.7931    0.0634   -1.8535 O   0  0  0  0  0  0  0  0  0  0  0  0
    5.6949   -0.4599   -2.5759 C   0  0  0  0  0  0  0  0  0  0  0  0
    0.7878   -0.8979    0.9527 H   0  0  0  0  0  0  0  0  0  0  0  0
    0.2919    0.6247    0.1861 H   0  0  0  0  0  0  0  0  0  0  0  0
    1.1318    0.6374    1.7774 H   0  0  0  0  0  0  0  0  0  0  0  0
    2.9511    2.0423    0.8351 H   0  0  0  0  0  0  0  0  0  0  0  0
    2.0887    2.0614   -0.7218 H   0  0  0  0  0  0  0  0  0  0  0  0
    3.8237    0.8379   -1.7887 H   0  0  0  0  0  0  0  0  0  0  0  0
    4.7459    0.6362   -0.2539 H   0  0  0  0  0  0  0  0  0  0  0  0
    6.0676    4.5532   -0.8407 H   0  0  0  0  0  0  0  0  0  0  0  0
   10.2498    6.3770   -0.6660 H   0  0  0  0  0  0  0  0  0  0  0  0
   10.9900    1.9750   -3.0180 H   0  0  0  0  0  0  0  0  0  0  0  0
   12.7263    3.0232    0.0642 H   0  0  0  0  0  0  0  0  0  0  0  0
   17.4646    1.4968   -3.4971 H   0  0  0  0  0  0  0  0  0  0  0  0
   18.5771    1.5971   -2.1343 H   0  0  0  0  0  0  0  0  0  0  0  0
   18.5465    2.8886   -3.3521 H   0  0  0  0  0  0  0  0  0  0  0  0
   16.8781    4.5072   -0.5273 H   0  0  0  0  0  0  0  0  0  0  0  0
   18.3257    4.4437   -1.4986 H   0  0  0  0  0  0  0  0  0  0  0  0
   18.0923    3.2322   -0.2227 H   0  0  0  0  0  0  0  0  0  0  0  0
   15.3972    2.0499   -4.0233 H   0  0  0  0  0  0  0  0  0  0  0  0
    9.0517    0.8434   -2.0351 H   0  0  0  0  0  0  0  0  0  0  0  0
    6.0475   -1.2768   -3.2122 H   0  0  0  0  0  0  0  0  0  0  0  0
    5.1935    0.2700   -3.2168 H   0  0  0  0  0  0  0  0  0  0  0  0
    5.0102   -0.9255   -1.8592 H   0  0  0  0  0  0  0  0  0  0  0  0
  1  2  1  0  0  0  0
  1 30  1  0  0  0  0
  1 31  1  0  0  0  0
  1 32  1  0  0  0  0
  2  3  1  0  0  0  0
  3  4  1  0  0  0  0
  3 33  1  0  0  0  0
  3 34  1  0  0  0  0
  4  5  1  0  0  0  0
  4 35  1  0  0  0  0
  4 36  1  0  0  0  0
  5  6  1  0  0  0  0
  6  7  1  0  0  0  0
  6 27  2  0  0  0  0
  7  8  2  0  0  0  0
  7 37  1  0  0  0  0
  8  9  1  0  0  0  0
  8 25  1  0  0  0  0
  9 10  2  0  0  0  0
 10 11  1  0  0  0  0
 10 38  1  0  0  0  0
 11 12  2  0  0  0  0
 12 13  1  0  0  0  0
 12 25  1  0  0  0  0
 13 14  1  0  0  0  0
 13 39  1  0  0  0  0
 14 15  2  0  0  0  0
 14 23  1  0  0  0  0
 15 16  1  0  0  0  0
 15 40  1  0  0  0  0
 16 17  2  0  0  0  0
 16 18  1  0  0  0  0
 18 19  1  0  0  0  0
 18 22  2  0  0  0  0
 19 20  1  0  0  0  0
 19 21  1  0  0  0  0
 20 41  1  0  0  0  0
 20 42  1  0  0  0  0
 20 43  1  0  0  0  0
 21 44  1  0  0  0  0
 21 45  1  0  0  0  0
 21 46  1  0  0  0  0
 22 23  1  0  0  0  0
 22 47  1  0  0  0  0
 23 24  2  0  0  0  0
 25 26  2  0  0  0  0
 26 27  1  0  0  0  0
 26 48  1  0  0  0  0
 27 28  1  0  0  0  0
 28 29  1  0  0  0  0
 29 49  1  0  0  0  0
 29 50  1  0  0  0  0
 29 51  1  0  0  0  0
M  END
$$$$
