CHEMBL3648074
 OpenBabel04072215373D

 51 53  0  0  1  0  0  0  0  0999 V2000
    4.0802    0.6428    0.9355 C   0  0  0  0  0  0  0  0  0  0  0  0
    4.0424   -0.6587    0.1218 C   0  0  1  0  0  0  0  0  0  0  0  0
    2.7784   -1.3821    0.3785 N   0  0  0  0  0  0  0  0  0  0  0  0
    2.5426   -1.8421    1.6922 C   0  0  0  0  0  0  0  0  0  0  0  0
    3.5902   -2.0818    2.5128 N   0  0  0  0  0  0  0  0  0  0  0  0
    3.3315   -2.5587    3.7420 C   0  0  0  0  0  0  0  0  0  0  0  0
    4.4148   -2.9124    4.5481 N   0  0  0  0  0  0  0  0  0  0  0  0
    4.4172   -3.8250    5.6177 C   0  0  0  0  0  0  0  0  0  0  0  0
    3.5186   -4.9032    5.6814 C   0  0  0  0  0  0  0  0  0  0  0  0
    3.4505   -5.7335    6.8041 C   0  0  0  0  0  0  0  0  0  0  0  0
    4.2831   -5.4827    7.8945 C   0  0  0  0  0  0  0  0  0  0  0  0
    4.2593   -6.5514    9.3198 S   0  0  3  0  0  0  0  0  0  0  0  0
    3.7432   -7.9270    8.8586 N   0  0  0  0  0  0  0  0  0  0  0  0
    5.5343   -6.3786    9.9781 O   0  0  0  0  0  0  0  0  0  0  0  0
    3.0455   -5.9646   10.5333 C   0  0  0  0  0  0  0  0  0  0  0  0
    1.6132   -5.9413   10.0686 C   0  0  0  0  0  0  0  0  0  0  0  0
    2.3528   -4.6527   10.3044 C   0  0  0  0  0  0  0  0  0  0  0  0
    5.2256   -4.4494    7.8278 C   0  0  0  0  0  0  0  0  0  0  0  0
    5.2931   -3.6321    6.6906 C   0  0  0  0  0  0  0  0  0  0  0  0
    2.0893   -2.7243    4.2237 N   0  0  0  0  0  0  0  0  0  0  0  0
    1.0667   -2.4972    3.3898 C   0  0  0  0  0  0  0  0  0  0  0  0
    1.2361   -2.1024    2.0881 C   0  0  0  0  0  0  0  0  0  0  0  0
   -0.2684   -1.9159    0.9637 Br  0  0  0  0  0  0  0  0  0  0  0  0
    4.1698   -0.3948   -1.4245 C   0  0  0  0  0  0  0  0  0  0  0  0
    3.0863    0.5377   -1.9887 C   0  0  0  0  0  0  0  0  0  0  0  0
    5.5505    0.1710   -1.7813 C   0  0  0  0  0  0  0  0  0  0  0  0
    4.0667   -1.6603   -2.1095 O   0  0  0  0  0  0  0  0  0  0  0  0
    4.1118    0.4441    2.0113 H   0  0  0  0  0  0  0  0  0  0  0  0
    3.1913    1.2566    0.7546 H   0  0  0  0  0  0  0  0  0  0  0  0
    4.9659    1.2393    0.7028 H   0  0  0  0  0  0  0  0  0  0  0  0
    4.8811   -1.3039    0.4151 H   0  0  0  0  0  0  0  0  0  0  0  0
    2.7125   -2.2063   -0.2190 H   0  0  0  0  0  0  0  0  0  0  0  0
    5.2964   -2.7662    4.0748 H   0  0  0  0  0  0  0  0  0  0  0  0
    2.8579   -5.1128    4.8422 H   0  0  0  0  0  0  0  0  0  0  0  0
    2.7482   -6.5638    6.8060 H   0  0  0  0  0  0  0  0  0  0  0  0
    4.4829   -8.4216    8.3587 H   0  0  0  0  0  0  0  0  0  0  0  0
    3.2364   -6.2766   11.5513 H   0  0  0  0  0  0  0  0  0  0  0  0
    0.8570   -6.2405   10.7872 H   0  0  0  0  0  0  0  0  0  0  0  0
    1.3705   -6.2134    9.0494 H   0  0  0  0  0  0  0  0  0  0  0  0
    2.0824   -4.0755   11.1840 H   0  0  0  0  0  0  0  0  0  0  0  0
    2.5796   -4.0372    9.4451 H   0  0  0  0  0  0  0  0  0  0  0  0
    5.9087   -4.2662    8.6516 H   0  0  0  0  0  0  0  0  0  0  0  0
    6.0109   -2.8158    6.6658 H   0  0  0  0  0  0  0  0  0  0  0  0
    0.0855   -2.6580    3.8229 H   0  0  0  0  0  0  0  0  0  0  0  0
    3.1200    1.5338   -1.5378 H   0  0  0  0  0  0  0  0  0  0  0  0
    2.0833    0.1220   -1.8434 H   0  0  0  0  0  0  0  0  0  0  0  0
    3.2109    0.6576   -3.0720 H   0  0  0  0  0  0  0  0  0  0  0  0
    5.6882    1.1909   -1.4104 H   0  0  0  0  0  0  0  0  0  0  0  0
    5.6942    0.1870   -2.8679 H   0  0  0  0  0  0  0  0  0  0  0  0
    6.3484   -0.4594   -1.3738 H   0  0  0  0  0  0  0  0  0  0  0  0
    3.1211   -1.8401   -2.2483 H   0  0  0  0  0  0  0  0  0  0  0  0
  1  2  1  0  0  0  0
  1 28  1  0  0  0  0
  1 29  1  0  0  0  0
  1 30  1  0  0  0  0
  2  3  1  0  0  0  0
  2 24  1  0  0  0  0
  2 31  1  1  0  0  0
  3  4  1  0  0  0  0
  3 32  1  0  0  0  0
  4  5  1  0  0  0  0
  4 22  2  0  0  0  0
  5  6  2  0  0  0  0
  6  7  1  0  0  0  0
  6 20  1  0  0  0  0
  7  8  1  0  0  0  0
  7 33  1  0  0  0  0
  8  9  1  0  0  0  0
  8 19  2  0  0  0  0
  9 10  2  0  0  0  0
  9 34  1  0  0  0  0
 10 11  1  0  0  0  0
 10 35  1  0  0  0  0
 11 12  1  0  0  0  0
 11 18  2  0  0  0  0
 12 13  2  0  0  0  0
 12 14  2  0  0  0  0
 12 15  1  0  0  0  0
 13 36  1  0  0  0  0
 15 16  1  0  0  0  0
 15 17  1  0  0  0  0
 15 37  1  0  0  0  0
 16 17  1  0  0  0  0
 16 38  1  0  0  0  0
 16 39  1  0  0  0  0
 17 40  1  0  0  0  0
 17 41  1  0  0  0  0
 18 19  1  0  0  0  0
 18 42  1  0  0  0  0
 19 43  1  0  0  0  0
 20 21  2  0  0  0  0
 21 22  1  0  0  0  0
 21 44  1  0  0  0  0
 22 23  1  0  0  0  0
 24 25  1  0  0  0  0
 24 26  1  0  0  0  0
 24 27  1  0  0  0  0
 25 45  1  0  0  0  0
 25 46  1  0  0  0  0
 25 47  1  0  0  0  0
 26 48  1  0  0  0  0
 26 49  1  0  0  0  0
 26 50  1  0  0  0  0
 27 51  1  0  0  0  0
M  END
$$$$
