CHEMBL3397930
 OpenBabel04072215363D

 57 60  0  0  0  0  0  0  0  0999 V2000
    1.0024   -0.5236    0.2067 O   0  0  0  0  0  0  0  0  0  0  0  0
    2.1246   -0.0640    0.0290 C   0  0  0  0  0  0  0  0  0  0  0  0
    2.7461    0.9172    0.7822 N   0  0  0  0  0  0  0  0  0  0  0  0
    2.2472    1.4936    1.9679 C   0  0  0  0  0  0  0  0  0  0  0  0
    1.1630    0.9701    2.6716 C   0  0  0  0  0  0  0  0  0  0  0  0
    0.7209    1.5693    3.8533 C   0  0  0  0  0  0  0  0  0  0  0  0
    1.3749    2.6895    4.3595 C   0  0  0  0  0  0  0  0  0  0  0  0
    1.0585    3.3159    5.5340 O   0  0  0  0  0  0  0  0  0  0  0  0
    0.3616    2.4990    6.4851 C   0  0  0  0  0  0  0  0  0  0  0  0
    0.5686    3.0955    7.8843 C   0  0  0  0  0  0  0  0  0  0  0  0
    0.0541    2.2529    8.9799 N   0  0  0  0  0  0  0  0  0  0  0  0
   -1.4118    2.0585    8.9493 C   0  0  0  0  0  0  0  0  0  0  0  0
   -2.2161    3.3063    9.3486 C   0  0  0  0  0  0  0  0  0  0  0  0
   -1.8270    3.7840   10.6423 O   0  0  0  0  0  0  0  0  0  0  0  0
   -0.4220    4.0637   10.6819 C   0  0  0  0  0  0  0  0  0  0  0  0
    0.4084    2.8256   10.2994 C   0  0  0  0  0  0  0  0  0  0  0  0
    2.4395    3.2388    3.6460 C   0  0  0  0  0  0  0  0  0  0  0  0
    2.8860    2.6353    2.4648 C   0  0  0  0  0  0  0  0  0  0  0  0
    2.8936   -0.5632   -1.1410 C   0  0  0  0  0  0  0  0  0  0  0  0
    2.1896   -0.9484   -2.2812 C   0  0  0  0  0  0  0  0  0  0  0  0
    2.8771   -1.4457   -3.3812 C   0  0  0  0  0  0  0  0  0  0  0  0
    4.2721   -1.5442   -3.3478 C   0  0  0  0  0  0  0  0  0  0  0  0
    5.0166   -1.1423   -2.2209 C   0  0  0  0  0  0  0  0  0  0  0  0
    6.4992   -1.1375   -2.2205 C   0  0  0  0  0  0  0  0  0  0  0  0
    7.2203   -0.8537   -3.3959 C   0  0  0  0  0  0  0  0  0  0  0  0
    8.6137   -0.7326   -3.3906 C   0  0  0  0  0  0  0  0  0  0  0  0
    9.3225   -0.8764   -2.2024 C   0  0  0  0  0  0  0  0  0  0  0  0
    8.6292   -1.1707   -1.0366 C   0  0  0  0  0  0  0  0  0  0  0  0
    9.2740   -1.2888    0.1600 O   0  0  0  0  0  0  0  0  0  0  0  0
    7.2438   -1.3258   -1.0421 C   0  0  0  0  0  0  0  0  0  0  0  0
    4.2937   -0.6713   -1.1082 C   0  0  0  0  0  0  0  0  0  0  0  0
    3.5896    1.3307    0.4075 H   0  0  0  0  0  0  0  0  0  0  0  0
    0.6463    0.0748    2.3409 H   0  0  0  0  0  0  0  0  0  0  0  0
   -0.1344    1.1277    4.3545 H   0  0  0  0  0  0  0  0  0  0  0  0
    0.7531    1.4737    6.4856 H   0  0  0  0  0  0  0  0  0  0  0  0
   -0.7017    2.4943    6.2209 H   0  0  0  0  0  0  0  0  0  0  0  0
    0.1566    4.1109    7.9044 H   0  0  0  0  0  0  0  0  0  0  0  0
    1.6524    3.2168    8.0188 H   0  0  0  0  0  0  0  0  0  0  0  0
   -1.6447    1.2579    9.6642 H   0  0  0  0  0  0  0  0  0  0  0  0
   -1.7466    1.6851    7.9765 H   0  0  0  0  0  0  0  0  0  0  0  0
   -3.2803    3.0543    9.3994 H   0  0  0  0  0  0  0  0  0  0  0  0
   -2.1037    4.1127    8.6153 H   0  0  0  0  0  0  0  0  0  0  0  0
   -0.1766    4.3685   11.7040 H   0  0  0  0  0  0  0  0  0  0  0  0
   -0.2069    4.9153   10.0267 H   0  0  0  0  0  0  0  0  0  0  0  0
    0.2334    2.0452   11.0516 H   0  0  0  0  0  0  0  0  0  0  0  0
    1.4790    3.0569   10.3453 H   0  0  0  0  0  0  0  0  0  0  0  0
    2.9367    4.1301    4.0202 H   0  0  0  0  0  0  0  0  0  0  0  0
    3.7301    3.0769    1.9423 H   0  0  0  0  0  0  0  0  0  0  0  0
    1.1051   -0.8630   -2.3096 H   0  0  0  0  0  0  0  0  0  0  0  0
    2.3303   -1.7468   -4.2712 H   0  0  0  0  0  0  0  0  0  0  0  0
    4.7729   -1.9474   -4.2248 H   0  0  0  0  0  0  0  0  0  0  0  0
    6.7005   -0.6849   -4.3369 H   0  0  0  0  0  0  0  0  0  0  0  0
    9.1379   -0.5007   -4.3139 H   0  0  0  0  0  0  0  0  0  0  0  0
   10.4001   -0.7540   -2.2048 H   0  0  0  0  0  0  0  0  0  0  0  0
   10.1995   -1.0178    0.0405 H   0  0  0  0  0  0  0  0  0  0  0  0
    6.7562   -1.5756   -0.1033 H   0  0  0  0  0  0  0  0  0  0  0  0
    4.8243   -0.3946   -0.2010 H   0  0  0  0  0  0  0  0  0  0  0  0
  1  2  2  0  0  0  0
  2  3  1  0  0  0  0
  2 19  1  0  0  0  0
  3  4  1  0  0  0  0
  3 32  1  0  0  0  0
  4  5  1  0  0  0  0
  4 18  2  0  0  0  0
  5  6  2  0  0  0  0
  5 33  1  0  0  0  0
  6  7  1  0  0  0  0
  6 34  1  0  0  0  0
  7  8  1  0  0  0  0
  7 17  2  0  0  0  0
  8  9  1  0  0  0  0
  9 10  1  0  0  0  0
  9 35  1  0  0  0  0
  9 36  1  0  0  0  0
 10 11  1  0  0  0  0
 10 37  1  0  0  0  0
 10 38  1  0  0  0  0
 11 12  1  0  0  0  0
 11 16  1  0  0  0  0
 12 13  1  0  0  0  0
 12 39  1  0  0  0  0
 12 40  1  0  0  0  0
 13 14  1  0  0  0  0
 13 41  1  0  0  0  0
 13 42  1  0  0  0  0
 14 15  1  0  0  0  0
 15 16  1  0  0  0  0
 15 43  1  0  0  0  0
 15 44  1  0  0  0  0
 16 45  1  0  0  0  0
 16 46  1  0  0  0  0
 17 18  1  0  0  0  0
 17 47  1  0  0  0  0
 18 48  1  0  0  0  0
 19 20  1  0  0  0  0
 19 31  2  0  0  0  0
 20 21  2  0  0  0  0
 20 49  1  0  0  0  0
 21 22  1  0  0  0  0
 21 50  1  0  0  0  0
 22 23  2  0  0  0  0
 22 51  1  0  0  0  0
 23 24  1  0  0  0  0
 23 31  1  0  0  0  0
 24 25  1  0  0  0  0
 24 30  2  0  0  0  0
 25 26  2  0  0  0  0
 25 52  1  0  0  0  0
 26 27  1  0  0  0  0
 26 53  1  0  0  0  0
 27 28  2  0  0  0  0
 27 54  1  0  0  0  0
 28 29  1  0  0  0  0
 28 30  1  0  0  0  0
 29 55  1  0  0  0  0
 30 56  1  0  0  0  0
 31 57  1  0  0  0  0
M  END
$$$$
