CHEMBL92238
 OpenBabel04072215383D

 33 36  0  0  0  0  0  0  0  0999 V2000
    1.2742   -0.4936    0.2937 C   0  0  0  0  0  0  0  0  0  0  0  0
    0.4729   -0.2811    1.4128 C   0  0  0  0  0  0  0  0  0  0  0  0
   -0.8732    0.0594    1.2561 C   0  0  0  0  0  0  0  0  0  0  0  0
   -1.4362    0.1817   -0.0209 C   0  0  0  0  0  0  0  0  0  0  0  0
   -2.8472    0.4852   -0.2057 C   0  0  0  0  0  0  0  0  0  0  0  0
   -3.4897    1.1879   -1.2484 C   0  0  0  0  0  0  0  0  0  0  0  0
   -4.8157    1.2241   -1.1226 N   0  0  0  0  0  0  0  0  0  0  0  0
   -5.0582    0.5280    0.0139 N   0  0  0  0  0  0  0  0  0  0  0  0
   -6.3013    0.2415    0.5613 C   0  0  0  0  0  0  0  0  0  0  0  0
   -6.4120   -0.4812    1.6901 C   0  0  0  0  0  0  0  0  0  0  0  0
   -7.6861   -0.8212    2.3299 C   0  0  0  0  0  0  0  0  0  0  0  0
   -8.8480   -1.0366    1.5903 C   0  0  0  0  0  0  0  0  0  0  0  0
  -10.0319   -1.3358    2.2600 C   0  0  0  0  0  0  0  0  0  0  0  0
  -10.0253   -1.4223    3.6452 C   0  0  0  0  0  0  0  0  0  0  0  0
   -8.8271   -1.2125    4.3048 C   0  0  0  0  0  0  0  0  0  0  0  0
   -7.6636   -0.9215    3.6795 N   0  0  0  0  0  0  0  0  0  0  0  0
   -5.0967   -0.8876    2.2799 C   0  0  0  0  0  0  0  0  0  0  0  0
   -3.9167   -0.6446    1.7866 N   0  0  0  0  0  0  0  0  0  0  0  0
   -3.8819    0.0751    0.6190 C   0  0  0  0  0  0  0  0  0  0  0  0
   -0.6120   -0.0130   -1.1393 C   0  0  0  0  0  0  0  0  0  0  0  0
    0.7344   -0.3525   -0.9823 C   0  0  0  0  0  0  0  0  0  0  0  0
    2.3164   -0.7746    0.4168 H   0  0  0  0  0  0  0  0  0  0  0  0
    0.8885   -0.3893    2.4111 H   0  0  0  0  0  0  0  0  0  0  0  0
   -1.4786    0.2183    2.1458 H   0  0  0  0  0  0  0  0  0  0  0  0
   -3.0395    1.6767   -2.1029 H   0  0  0  0  0  0  0  0  0  0  0  0
   -7.1400    0.6416    0.0096 H   0  0  0  0  0  0  0  0  0  0  0  0
   -8.8505   -0.9792    0.5066 H   0  0  0  0  0  0  0  0  0  0  0  0
  -10.9502   -1.4995    1.7022 H   0  0  0  0  0  0  0  0  0  0  0  0
  -10.9305   -1.6495    4.1973 H   0  0  0  0  0  0  0  0  0  0  0  0
   -8.7681   -1.2721    5.3881 H   0  0  0  0  0  0  0  0  0  0  0  0
   -5.1516   -1.4606    3.2216 H   0  0  0  0  0  0  0  0  0  0  0  0
   -1.0116    0.0705   -2.1470 H   0  0  0  0  0  0  0  0  0  0  0  0
    1.3566   -0.5197   -1.8575 H   0  0  0  0  0  0  0  0  0  0  0  0
  1  2  1  0  0  0  0
  1 21  2  0  0  0  0
  1 22  1  0  0  0  0
  2  3  2  0  0  0  0
  2 23  1  0  0  0  0
  3  4  1  0  0  0  0
  3 24  1  0  0  0  0
  4  5  1  0  0  0  0
  4 20  2  0  0  0  0
  5  6  1  0  0  0  0
  5 19  2  0  0  0  0
  6  7  2  0  0  0  0
  6 25  1  0  0  0  0
  7  8  1  0  0  0  0
  8  9  1  0  0  0  0
  8 19  1  0  0  0  0
  9 10  2  0  0  0  0
  9 26  1  0  0  0  0
 10 11  1  0  0  0  0
 10 17  1  0  0  0  0
 11 12  1  0  0  0  0
 11 16  2  0  0  0  0
 12 13  2  0  0  0  0
 12 27  1  0  0  0  0
 13 14  1  0  0  0  0
 13 28  1  0  0  0  0
 14 15  2  0  0  0  0
 14 29  1  0  0  0  0
 15 16  1  0  0  0  0
 15 30  1  0  0  0  0
 17 18  2  0  0  0  0
 17 31  1  0  0  0  0
 18 19  1  0  0  0  0
 20 21  1  0  0  0  0
 20 32  1  0  0  0  0
 21 33  1  0  0  0  0
M  END
$$$$
