CHEMBL3775940
 OpenBabel04072215373D

 40 42  0  0  0  0  0  0  0  0999 V2000
    2.5403    1.4864    0.9047 C   0  0  0  0  0  0  0  0  0  0  0  0
    2.4519    0.2789    0.1476 O   0  0  0  0  0  0  0  0  0  0  0  0
    3.0693   -0.8051    0.7177 C   0  0  0  0  0  0  0  0  0  0  0  0
    4.2066   -0.6720    1.5250 C   0  0  0  0  0  0  0  0  0  0  0  0
    4.7711   -1.7446    2.1993 C   0  0  0  0  0  0  0  0  0  0  0  0
    5.8186   -1.5038    2.9910 N   0  0  0  0  0  0  0  0  0  0  0  0
    6.3043   -2.5450    3.6718 C   0  0  0  0  0  0  0  0  0  0  0  0
    5.8529   -3.7974    3.6155 N   0  0  0  0  0  0  0  0  0  0  0  0
    4.7961   -4.0302    2.8133 C   0  0  0  0  0  0  0  0  0  0  0  0
    4.2730   -5.3472    2.7520 N   0  0  0  0  0  0  0  0  0  0  0  0
    4.5550   -6.3681    3.6960 C   0  0  0  0  0  0  0  0  0  0  0  0
    4.4396   -6.1087    5.0786 C   0  0  0  0  0  0  0  0  0  0  0  0
    4.0017   -4.9155    5.5137 F   0  0  0  0  0  0  0  0  0  0  0  0
    4.7334   -7.0735    6.0362 C   0  0  0  0  0  0  0  0  0  0  0  0
    5.1344   -8.3404    5.6318 C   0  0  0  0  0  0  0  0  0  0  0  0
    5.2444   -8.6236    4.2694 C   0  0  0  0  0  0  0  0  0  0  0  0
    5.6355   -9.8753    3.8786 O   0  0  0  0  0  0  0  0  0  0  0  0
    4.9698   -7.6561    3.2849 C   0  0  0  0  0  0  0  0  0  0  0  0
    5.1711   -7.9764    1.8270 C   0  0  0  0  0  0  0  0  0  0  0  0
    4.1984   -3.0102    2.0511 C   0  0  0  0  0  0  0  0  0  0  0  0
    3.0819   -3.1668    1.1914 C   0  0  0  0  0  0  0  0  0  0  0  0
    2.5378   -2.0797    0.5007 C   0  0  0  0  0  0  0  0  0  0  0  0
    1.4610   -2.4034   -0.2784 O   0  0  0  0  0  0  0  0  0  0  0  0
    1.3087   -1.6583   -1.4823 C   0  0  0  0  0  0  0  0  0  0  0  0
    1.7513    2.1614    0.5616 H   0  0  0  0  0  0  0  0  0  0  0  0
    3.5027    1.9778    0.7282 H   0  0  0  0  0  0  0  0  0  0  0  0
    2.3835    1.3115    1.9761 H   0  0  0  0  0  0  0  0  0  0  0  0
    4.6787    0.2965    1.6645 H   0  0  0  0  0  0  0  0  0  0  0  0
    7.1392   -2.3531    4.3360 H   0  0  0  0  0  0  0  0  0  0  0  0
    4.2594   -5.6659    1.7928 H   0  0  0  0  0  0  0  0  0  0  0  0
    4.6406   -6.8234    7.0879 H   0  0  0  0  0  0  0  0  0  0  0  0
    5.3583   -9.0885    6.3856 H   0  0  0  0  0  0  0  0  0  0  0  0
    5.7758  -10.4244    4.6673 H   0  0  0  0  0  0  0  0  0  0  0  0
    5.4619   -9.0167    1.6552 H   0  0  0  0  0  0  0  0  0  0  0  0
    5.9670   -7.3456    1.4164 H   0  0  0  0  0  0  0  0  0  0  0  0
    4.2464   -7.8075    1.2661 H   0  0  0  0  0  0  0  0  0  0  0  0
    2.6153   -4.1417    1.0706 H   0  0  0  0  0  0  0  0  0  0  0  0
    0.8415   -2.3190   -2.2202 H   0  0  0  0  0  0  0  0  0  0  0  0
    2.2627   -1.3251   -1.9053 H   0  0  0  0  0  0  0  0  0  0  0  0
    0.6318   -0.8149   -1.3179 H   0  0  0  0  0  0  0  0  0  0  0  0
  1  2  1  0  0  0  0
  1 25  1  0  0  0  0
  1 26  1  0  0  0  0
  1 27  1  0  0  0  0
  2  3  1  0  0  0  0
  3  4  1  0  0  0  0
  3 22  2  0  0  0  0
  4  5  2  0  0  0  0
  4 28  1  0  0  0  0
  5  6  1  0  0  0  0
  5 20  1  0  0  0  0
  6  7  2  0  0  0  0
  7  8  1  0  0  0  0
  7 29  1  0  0  0  0
  8  9  2  0  0  0  0
  9 10  1  0  0  0  0
  9 20  1  0  0  0  0
 10 11  1  0  0  0  0
 10 30  1  0  0  0  0
 11 12  1  0  0  0  0
 11 18  2  0  0  0  0
 12 13  1  0  0  0  0
 12 14  2  0  0  0  0
 14 15  1  0  0  0  0
 14 31  1  0  0  0  0
 15 16  2  0  0  0  0
 15 32  1  0  0  0  0
 16 17  1  0  0  0  0
 16 18  1  0  0  0  0
 17 33  1  0  0  0  0
 18 19  1  0  0  0  0
 19 34  1  0  0  0  0
 19 35  1  0  0  0  0
 19 36  1  0  0  0  0
 20 21  2  0  0  0  0
 21 22  1  0  0  0  0
 21 37  1  0  0  0  0
 22 23  1  0  0  0  0
 23 24  1  0  0  0  0
 24 38  1  0  0  0  0
 24 39  1  0  0  0  0
 24 40  1  0  0  0  0
M  END
$$$$
