CHEMBL3690474
 OpenBabel04072215373D

 54 57  0  0  0  0  0  0  0  0999 V2000
    5.3440   -2.9382    1.4562 O   0  0  0  0  0  0  0  0  0  0  0  0
    6.2766   -3.2293    0.7160 C   0  0  0  0  0  0  0  0  0  0  0  0
    6.9695   -4.4047    0.8751 N   0  0  0  0  0  0  0  0  0  0  0  0
    6.6515   -5.2813    2.0048 C   0  0  0  0  0  0  0  0  0  0  0  0
    7.4879   -6.5572    2.0712 C   0  0  0  0  0  0  0  0  0  0  0  0
    8.3646   -6.6152    1.0374 F   0  0  0  0  0  0  0  0  0  0  0  0
    8.2153   -6.6040    3.2096 F   0  0  0  0  0  0  0  0  0  0  0  0
    6.7220   -7.6664    2.0200 F   0  0  0  0  0  0  0  0  0  0  0  0
    6.7840   -2.4753   -0.3149 N   0  0  0  0  0  0  0  0  0  0  0  0
    6.3571   -1.1921   -0.7169 C   0  0  0  0  0  0  0  0  0  0  0  0
    5.3255   -0.4864   -0.1074 C   0  0  0  0  0  0  0  0  0  0  0  0
    4.9223    0.7541   -0.6047 C   0  0  0  0  0  0  0  0  0  0  0  0
    5.5602    1.3097   -1.7130 C   0  0  0  0  0  0  0  0  0  0  0  0
    6.6312    0.6465   -2.3183 C   0  0  0  0  0  0  0  0  0  0  0  0
    7.3554    1.2834   -3.4250 C   0  0  0  0  0  0  0  0  0  0  0  0
    7.6027    2.6298   -3.6606 C   0  0  0  0  0  0  0  0  0  0  0  0
    8.3860    2.8280   -4.7659 N   0  0  0  0  0  0  0  0  0  0  0  0
    8.6230    1.6219   -5.2357 C   0  0  0  0  0  0  0  0  0  0  0  0
    9.3889    1.1971   -6.3581 C   0  0  0  0  0  0  0  0  0  0  0  0
    9.4829   -0.1175   -6.6603 C   0  0  0  0  0  0  0  0  0  0  0  0
   10.2575   -0.5065   -7.8437 C   0  0  0  0  0  0  0  0  0  0  0  0
   11.6248   -0.7704   -7.7367 C   0  0  0  0  0  0  0  0  0  0  0  0
   12.3573   -1.1385   -8.8671 C   0  0  0  0  0  0  0  0  0  0  0  0
   11.7259   -1.2599  -10.1129 C   0  0  0  0  0  0  0  0  0  0  0  0
   12.5067   -1.5997  -11.3627 C   0  0  0  0  0  0  0  0  0  0  0  0
   13.2292   -2.9451  -11.3151 C   0  0  0  0  0  0  0  0  0  0  0  0
   12.3158   -4.0241  -11.1513 O   0  0  0  0  0  0  0  0  0  0  0  0
   10.3478   -1.0169  -10.2031 C   0  0  0  0  0  0  0  0  0  0  0  0
    9.6175   -0.6446   -9.0771 C   0  0  0  0  0  0  0  0  0  0  0  0
    8.7889   -1.1139   -5.8552 C   0  0  0  0  0  0  0  0  0  0  0  0
    8.0404   -0.7143   -4.8185 C   0  0  0  0  0  0  0  0  0  0  0  0
    7.9821    0.6400   -4.4823 N   0  0  0  0  0  0  0  0  0  0  0  0
    7.0223   -0.6013   -1.7950 C   0  0  0  0  0  0  0  0  0  0  0  0
    7.9295   -4.4184    0.5468 H   0  0  0  0  0  0  0  0  0  0  0  0
    5.5828   -5.5306    1.9495 H   0  0  0  0  0  0  0  0  0  0  0  0
    6.7959   -4.6954    2.9212 H   0  0  0  0  0  0  0  0  0  0  0  0
    7.4680   -2.9315   -0.8968 H   0  0  0  0  0  0  0  0  0  0  0  0
    4.8058   -0.8718    0.7638 H   0  0  0  0  0  0  0  0  0  0  0  0
    4.1107    1.2880   -0.1198 H   0  0  0  0  0  0  0  0  0  0  0  0
    5.2155    2.2725   -2.0841 H   0  0  0  0  0  0  0  0  0  0  0  0
    7.2747    3.4724   -3.0651 H   0  0  0  0  0  0  0  0  0  0  0  0
    9.8753    1.9628   -6.9534 H   0  0  0  0  0  0  0  0  0  0  0  0
   12.1268   -0.6799   -6.7759 H   0  0  0  0  0  0  0  0  0  0  0  0
   13.4257   -1.3144   -8.7646 H   0  0  0  0  0  0  0  0  0  0  0  0
   13.2328   -0.7972  -11.5401 H   0  0  0  0  0  0  0  0  0  0  0  0
   11.8239   -1.6023  -12.2210 H   0  0  0  0  0  0  0  0  0  0  0  0
   13.9717   -2.9896  -10.5123 H   0  0  0  0  0  0  0  0  0  0  0  0
   13.7543   -3.1044  -12.2628 H   0  0  0  0  0  0  0  0  0  0  0  0
   11.9004   -3.9137  -10.2771 H   0  0  0  0  0  0  0  0  0  0  0  0
    9.8323   -1.1089  -11.1576 H   0  0  0  0  0  0  0  0  0  0  0  0
    8.5493   -0.4537   -9.1709 H   0  0  0  0  0  0  0  0  0  0  0  0
    8.8764   -2.1641   -6.1158 H   0  0  0  0  0  0  0  0  0  0  0  0
    7.4766   -1.4225   -4.2352 H   0  0  0  0  0  0  0  0  0  0  0  0
    7.8873   -1.1121   -2.2049 H   0  0  0  0  0  0  0  0  0  0  0  0
  1  2  2  0  0  0  0
  2  3  1  0  0  0  0
  2  9  1  0  0  0  0
  3  4  1  0  0  0  0
  3 34  1  0  0  0  0
  4  5  1  0  0  0  0
  4 35  1  0  0  0  0
  4 36  1  0  0  0  0
  5  6  1  0  0  0  0
  5  7  1  0  0  0  0
  5  8  1  0  0  0  0
  9 10  1  0  0  0  0
  9 37  1  0  0  0  0
 10 11  1  0  0  0  0
 10 33  2  0  0  0  0
 11 12  2  0  0  0  0
 11 38  1  0  0  0  0
 12 13  1  0  0  0  0
 12 39  1  0  0  0  0
 13 14  2  0  0  0  0
 13 40  1  0  0  0  0
 14 15  1  0  0  0  0
 14 33  1  0  0  0  0
 15 16  2  0  0  0  0
 15 32  1  0  0  0  0
 16 17  1  0  0  0  0
 16 41  1  0  0  0  0
 17 18  2  0  0  0  0
 18 19  1  0  0  0  0
 18 32  1  0  0  0  0
 19 20  2  0  0  0  0
 19 42  1  0  0  0  0
 20 21  1  0  0  0  0
 20 30  1  0  0  0  0
 21 22  1  0  0  0  0
 21 29  2  0  0  0  0
 22 23  2  0  0  0  0
 22 43  1  0  0  0  0
 23 24  1  0  0  0  0
 23 44  1  0  0  0  0
 24 25  1  0  0  0  0
 24 28  2  0  0  0  0
 25 26  1  0  0  0  0
 25 45  1  0  0  0  0
 25 46  1  0  0  0  0
 26 27  1  0  0  0  0
 26 47  1  0  0  0  0
 26 48  1  0  0  0  0
 27 49  1  0  0  0  0
 28 29  1  0  0  0  0
 28 50  1  0  0  0  0
 29 51  1  0  0  0  0
 30 31  2  0  0  0  0
 30 52  1  0  0  0  0
 31 32  1  0  0  0  0
 31 53  1  0  0  0  0
 33 54  1  0  0  0  0
M  END
$$$$
