CHEMBL183174
 OpenBabel04072215363D

 49 52  0  0  0  0  0  0  0  0999 V2000
    2.6912   -6.2581   -1.4068 C   0  0  0  0  0  0  0  0  0  0  0  0
    1.2601   -6.5791   -1.0895 C   0  0  0  0  0  0  0  0  0  0  0  0
    0.8306   -7.9098   -1.0787 C   0  0  0  0  0  0  0  0  0  0  0  0
   -0.4926   -8.2145   -0.7886 C   0  0  0  0  0  0  0  0  0  0  0  0
   -1.3995   -7.1924   -0.5278 C   0  0  0  0  0  0  0  0  0  0  0  0
   -1.0077   -5.8495   -0.5573 C   0  0  0  0  0  0  0  0  0  0  0  0
   -1.9097   -4.7804   -0.3588 N   0  0  0  0  0  0  0  0  0  0  0  0
   -3.2915   -4.8948   -0.3172 C   0  0  0  0  0  0  0  0  0  0  0  0
   -3.9256   -5.9402   -0.4303 O   0  0  0  0  0  0  0  0  0  0  0  0
   -3.9168   -3.6616   -0.1710 N   0  0  0  0  0  0  0  0  0  0  0  0
   -5.3336   -3.6062   -0.0712 C   0  0  0  0  0  0  0  0  0  0  0  0
   -5.9830   -4.4360    0.8508 C   0  0  0  0  0  0  0  0  0  0  0  0
   -7.3767   -4.4579    0.9494 C   0  0  0  0  0  0  0  0  0  0  0  0
   -8.1809   -3.6881    0.1024 C   0  0  0  0  0  0  0  0  0  0  0  0
   -9.6610   -3.8050    0.0931 C   0  0  0  0  0  0  0  0  0  0  0  0
  -10.4816   -2.6695   -0.1074 C   0  0  0  0  0  0  0  0  0  0  0  0
  -11.8880   -2.7509   -0.1994 C   0  0  0  0  0  0  0  0  0  0  0  0
  -12.5313   -3.9766   -0.0848 C   0  0  0  0  0  0  0  0  0  0  0  0
  -11.7351   -5.0843    0.1228 C   0  0  0  0  0  0  0  0  0  0  0  0
  -10.3367   -5.0243    0.2167 C   0  0  0  0  0  0  0  0  0  0  0  0
   -9.8149   -6.4162    0.4107 C   0  0  0  0  0  0  0  0  0  0  0  0
  -11.0045   -7.2254    0.3910 N   0  0  0  0  0  0  0  0  0  0  0  0
  -12.1536   -6.4805    0.2548 C   0  0  0  0  0  0  0  0  0  0  0  0
  -13.2995   -6.8925    0.2488 O   0  0  0  0  0  0  0  0  0  0  0  0
   -7.5123   -2.8229   -0.7851 C   0  0  0  0  0  0  0  0  0  0  0  0
   -6.1019   -2.7636   -0.8794 C   0  0  0  0  0  0  0  0  0  0  0  0
   -5.5079   -1.8634   -1.9315 C   0  0  0  0  0  0  0  0  0  0  0  0
   -4.1446   -1.9555   -2.0437 F   0  0  0  0  0  0  0  0  0  0  0  0
   -5.9937   -2.1209   -3.1776 F   0  0  0  0  0  0  0  0  0  0  0  0
   -5.7609   -0.5504   -1.6938 F   0  0  0  0  0  0  0  0  0  0  0  0
    0.3359   -5.5510   -0.8154 C   0  0  0  0  0  0  0  0  0  0  0  0
    3.2614   -7.1657   -1.6310 H   0  0  0  0  0  0  0  0  0  0  0  0
    3.1679   -5.7647   -0.5546 H   0  0  0  0  0  0  0  0  0  0  0  0
    2.7470   -5.6072   -2.2861 H   0  0  0  0  0  0  0  0  0  0  0  0
    1.5225   -8.7215   -1.2968 H   0  0  0  0  0  0  0  0  0  0  0  0
   -0.8300   -9.2468   -0.7730 H   0  0  0  0  0  0  0  0  0  0  0  0
   -2.4166   -7.4891   -0.2923 H   0  0  0  0  0  0  0  0  0  0  0  0
   -1.5220   -3.8529   -0.2899 H   0  0  0  0  0  0  0  0  0  0  0  0
   -3.4657   -2.9249   -0.7001 H   0  0  0  0  0  0  0  0  0  0  0  0
   -5.4085   -5.0995    1.4956 H   0  0  0  0  0  0  0  0  0  0  0  0
   -7.8118   -5.1070    1.7024 H   0  0  0  0  0  0  0  0  0  0  0  0
  -10.0335   -1.6810   -0.2017 H   0  0  0  0  0  0  0  0  0  0  0  0
  -12.4714   -1.8495   -0.3711 H   0  0  0  0  0  0  0  0  0  0  0  0
  -13.6102   -4.0715   -0.1619 H   0  0  0  0  0  0  0  0  0  0  0  0
   -9.3521   -6.5584    1.3918 H   0  0  0  0  0  0  0  0  0  0  0  0
   -9.1558   -6.7375   -0.3962 H   0  0  0  0  0  0  0  0  0  0  0  0
  -11.0430   -8.2238    0.5509 H   0  0  0  0  0  0  0  0  0  0  0  0
   -8.0930   -2.2052   -1.4686 H   0  0  0  0  0  0  0  0  0  0  0  0
    0.6776   -4.5195   -0.8385 H   0  0  0  0  0  0  0  0  0  0  0  0
  1  2  1  0  0  0  0
  1 32  1  0  0  0  0
  1 33  1  0  0  0  0
  1 34  1  0  0  0  0
  2  3  1  0  0  0  0
  2 31  2  0  0  0  0
  3  4  2  0  0  0  0
  3 35  1  0  0  0  0
  4  5  1  0  0  0  0
  4 36  1  0  0  0  0
  5  6  2  0  0  0  0
  5 37  1  0  0  0  0
  6  7  1  0  0  0  0
  6 31  1  0  0  0  0
  7  8  1  0  0  0  0
  7 38  1  0  0  0  0
  8  9  2  0  0  0  0
  8 10  1  0  0  0  0
 10 11  1  0  0  0  0
 10 39  1  0  0  0  0
 11 12  1  0  0  0  0
 11 26  2  0  0  0  0
 12 13  2  0  0  0  0
 12 40  1  0  0  0  0
 13 14  1  0  0  0  0
 13 41  1  0  0  0  0
 14 15  1  0  0  0  0
 14 25  2  0  0  0  0
 15 16  1  0  0  0  0
 15 20  2  0  0  0  0
 16 17  2  0  0  0  0
 16 42  1  0  0  0  0
 17 18  1  0  0  0  0
 17 43  1  0  0  0  0
 18 19  2  0  0  0  0
 18 44  1  0  0  0  0
 19 20  1  0  0  0  0
 19 23  1  0  0  0  0
 20 21  1  0  0  0  0
 21 22  1  0  0  0  0
 21 45  1  0  0  0  0
 21 46  1  0  0  0  0
 22 23  1  0  0  0  0
 22 47  1  0  0  0  0
 23 24  2  0  0  0  0
 25 26  1  0  0  0  0
 25 48  1  0  0  0  0
 26 27  1  0  0  0  0
 27 28  1  0  0  0  0
 27 29  1  0  0  0  0
 27 30  1  0  0  0  0
 31 49  1  0  0  0  0
M  END
$$$$
