CHEMBL258185
 OpenBabel04072215363D

 57 61  0  0  0  0  0  0  0  0999 V2000
   -1.9577    0.1610   -5.0832 C   0  0  0  0  0  0  0  0  0  0  0  0
   -1.1252   -0.2815   -3.9854 N   0  0  0  0  0  0  0  0  0  0  0  0
   -0.9481   -1.6068   -3.6661 C   0  0  0  0  0  0  0  0  0  0  0  0
   -0.0562   -1.6827   -2.6236 C   0  0  0  0  0  0  0  0  0  0  0  0
    0.3133   -0.3588   -2.2987 C   0  0  0  0  0  0  0  0  0  0  0  0
   -0.3654    0.5094   -3.1435 C   0  0  0  0  0  0  0  0  0  0  0  0
   -0.2976    1.9476   -3.1681 C   0  0  0  0  0  0  0  0  0  0  0  0
   -1.3005    2.8502   -3.4732 C   0  0  0  0  0  0  0  0  0  0  0  0
   -0.8809    4.2051   -3.3997 C   0  0  0  0  0  0  0  0  0  0  0  0
   -1.6730    5.2774   -3.6769 N   0  0  0  0  0  0  0  0  0  0  0  0
   -1.1097    6.4829   -3.4873 C   0  0  0  0  0  0  0  0  0  0  0  0
    0.1842    6.6966   -3.0576 C   0  0  0  0  0  0  0  0  0  0  0  0
    1.0190    5.5957   -2.8580 C   0  0  0  0  0  0  0  0  0  0  0  0
    2.3349    5.7079   -2.4665 O   0  0  0  0  0  0  0  0  0  0  0  0
    3.1225    6.6750   -3.0461 C   0  0  0  0  0  0  0  0  0  0  0  0
    2.9268    7.1771   -4.3325 C   0  0  0  0  0  0  0  0  0  0  0  0
    3.7337    8.2118   -4.8018 C   0  0  0  0  0  0  0  0  0  0  0  0
    4.8075    8.6891   -4.0386 C   0  0  0  0  0  0  0  0  0  0  0  0
    5.5590    9.7183   -4.6280 N   0  0  0  0  0  0  0  0  0  0  0  0
    6.8558   10.1375   -4.4563 C   0  0  0  0  0  0  0  0  0  0  0  0
    8.0571    9.4926   -3.4918 S   0  0  0  0  0  0  0  0  0  0  0  0
    7.2189   11.2088   -5.2570 N   0  0  0  0  0  0  0  0  0  0  0  0
    6.4637   11.8612   -6.2231 C   0  0  0  0  0  0  0  0  0  0  0  0
    5.2869   11.5909   -6.4633 O   0  0  0  0  0  0  0  0  0  0  0  0
    7.2161   12.9428   -6.9713 C   0  0  0  0  0  0  0  0  0  0  0  0
    7.2221   14.2409   -6.2111 C   0  0  0  0  0  0  0  0  0  0  0  0
    8.3245   14.6056   -5.4276 C   0  0  0  0  0  0  0  0  0  0  0  0
    8.2858   15.7690   -4.6589 C   0  0  0  0  0  0  0  0  0  0  0  0
    7.1506   16.5780   -4.6707 C   0  0  0  0  0  0  0  0  0  0  0  0
    6.0562   16.2323   -5.4605 C   0  0  0  0  0  0  0  0  0  0  0  0
    6.0900   15.0683   -6.2273 C   0  0  0  0  0  0  0  0  0  0  0  0
    5.0375    8.1479   -2.7769 C   0  0  0  0  0  0  0  0  0  0  0  0
    4.1950    7.1487   -2.2911 C   0  0  0  0  0  0  0  0  0  0  0  0
    4.4196    6.6582   -1.0625 F   0  0  0  0  0  0  0  0  0  0  0  0
    0.4481    4.3218   -3.0033 C   0  0  0  0  0  0  0  0  0  0  0  0
    1.1514    2.7738   -2.7650 S   0  0  0  0  0  0  0  0  0  0  0  0
   -2.2413   -0.6986   -5.6958 H   0  0  0  0  0  0  0  0  0  0  0  0
   -1.3929    0.8683   -5.6953 H   0  0  0  0  0  0  0  0  0  0  0  0
   -2.8590    0.6184   -4.6697 H   0  0  0  0  0  0  0  0  0  0  0  0
   -1.4624   -2.3878   -4.2105 H   0  0  0  0  0  0  0  0  0  0  0  0
    0.2927   -2.5925   -2.1510 H   0  0  0  0  0  0  0  0  0  0  0  0
    1.0026   -0.0674   -1.5163 H   0  0  0  0  0  0  0  0  0  0  0  0
   -2.3113    2.5758   -3.7314 H   0  0  0  0  0  0  0  0  0  0  0  0
   -1.7606    7.3265   -3.7041 H   0  0  0  0  0  0  0  0  0  0  0  0
    0.5393    7.7107   -2.9095 H   0  0  0  0  0  0  0  0  0  0  0  0
    2.1458    6.7908   -4.9810 H   0  0  0  0  0  0  0  0  0  0  0  0
    3.5343    8.6177   -5.7921 H   0  0  0  0  0  0  0  0  0  0  0  0
    5.0919   10.1820   -5.4101 H   0  0  0  0  0  0  0  0  0  0  0  0
    8.1754   11.5067   -5.1183 H   0  0  0  0  0  0  0  0  0  0  0  0
    6.7397   13.0778   -7.9507 H   0  0  0  0  0  0  0  0  0  0  0  0
    8.2370   12.6013   -7.1790 H   0  0  0  0  0  0  0  0  0  0  0  0
    9.2194   13.9886   -5.4016 H   0  0  0  0  0  0  0  0  0  0  0  0
    9.1389   16.0420   -4.0427 H   0  0  0  0  0  0  0  0  0  0  0  0
    7.1179   17.4771   -4.0611 H   0  0  0  0  0  0  0  0  0  0  0  0
    5.1716   16.8639   -5.4711 H   0  0  0  0  0  0  0  0  0  0  0  0
    5.2206   14.8021   -6.8264 H   0  0  0  0  0  0  0  0  0  0  0  0
    5.8190    8.5051   -2.1189 H   0  0  0  0  0  0  0  0  0  0  0  0
  1  2  1  0  0  0  0
  1 37  1  0  0  0  0
  1 38  1  0  0  0  0
  1 39  1  0  0  0  0
  2  3  1  0  0  0  0
  2  6  1  0  0  0  0
  3  4  2  0  0  0  0
  3 40  1  0  0  0  0
  4  5  1  0  0  0  0
  4 41  1  0  0  0  0
  5  6  2  0  0  0  0
  5 42  1  0  0  0  0
  6  7  1  0  0  0  0
  7  8  2  0  0  0  0
  7 36  1  0  0  0  0
  8  9  1  0  0  0  0
  8 43  1  0  0  0  0
  9 10  1  0  0  0  0
  9 35  2  0  0  0  0
 10 11  2  0  0  0  0
 11 12  1  0  0  0  0
 11 44  1  0  0  0  0
 12 13  2  0  0  0  0
 12 45  1  0  0  0  0
 13 14  1  0  0  0  0
 13 35  1  0  0  0  0
 14 15  1  0  0  0  0
 15 16  1  0  0  0  0
 15 33  2  0  0  0  0
 16 17  2  0  0  0  0
 16 46  1  0  0  0  0
 17 18  1  0  0  0  0
 17 47  1  0  0  0  0
 18 19  1  0  0  0  0
 18 32  2  0  0  0  0
 19 20  1  0  0  0  0
 19 48  1  0  0  0  0
 20 21  2  0  0  0  0
 20 22  1  0  0  0  0
 22 23  1  0  0  0  0
 22 49  1  0  0  0  0
 23 24  2  0  0  0  0
 23 25  1  0  0  0  0
 25 26  1  0  0  0  0
 25 50  1  0  0  0  0
 25 51  1  0  0  0  0
 26 27  1  0  0  0  0
 26 31  2  0  0  0  0
 27 28  2  0  0  0  0
 27 52  1  0  0  0  0
 28 29  1  0  0  0  0
 28 53  1  0  0  0  0
 29 30  2  0  0  0  0
 29 54  1  0  0  0  0
 30 31  1  0  0  0  0
 30 55  1  0  0  0  0
 31 56  1  0  0  0  0
 32 33  1  0  0  0  0
 32 57  1  0  0  0  0
 33 34  1  0  0  0  0
 35 36  1  0  0  0  0
M  END
$$$$
