CHEMBL3971555
 OpenBabel04072215373D

 51 54  0  0  0  0  0  0  0  0999 V2000
    2.7289   -2.1955    2.5141 O   0  0  0  0  0  0  0  0  0  0  0  0
    2.2970   -1.3741    1.7154 C   0  0  0  0  0  0  0  0  0  0  0  0
    0.9774   -1.3152    1.3071 N   0  0  0  0  0  0  0  0  0  0  0  0
   -0.0517   -2.1873    1.7471 C   0  0  0  0  0  0  0  0  0  0  0  0
    0.0740   -3.0351    2.8544 C   0  0  0  0  0  0  0  0  0  0  0  0
   -0.9464   -3.9189    3.2067 C   0  0  0  0  0  0  0  0  0  0  0  0
   -2.1228   -3.9515    2.4667 C   0  0  0  0  0  0  0  0  0  0  0  0
   -2.2930   -3.0895    1.3779 C   0  0  0  0  0  0  0  0  0  0  0  0
   -3.5748   -3.0966    0.5828 C   0  0  0  0  0  0  0  0  0  0  0  0
   -4.4961   -3.9901    1.0375 F   0  0  0  0  0  0  0  0  0  0  0  0
   -4.1932   -1.8839    0.5912 F   0  0  0  0  0  0  0  0  0  0  0  0
   -3.3716   -3.4027   -0.7286 F   0  0  0  0  0  0  0  0  0  0  0  0
   -1.2490   -2.2078    1.0273 C   0  0  0  0  0  0  0  0  0  0  0  0
    3.0961   -0.4314    1.0822 N   0  0  0  0  0  0  0  0  0  0  0  0
    4.5118   -0.3816    1.1763 C   0  0  0  0  0  0  0  0  0  0  0  0
    5.2759   -1.3083    1.8859 C   0  0  0  0  0  0  0  0  0  0  0  0
    6.6259   -1.3033    1.9568 N   0  0  0  0  0  0  0  0  0  0  0  0
    7.2768   -0.3012    1.3344 C   0  0  0  0  0  0  0  0  0  0  0  0
    8.6593   -0.2350    1.4772 O   0  0  0  0  0  0  0  0  0  0  0  0
    9.1778   -0.7507    2.6565 C   0  0  0  0  0  0  0  0  0  0  0  0
    8.5705   -0.5205    3.8904 C   0  0  0  0  0  0  0  0  0  0  0  0
    9.1380   -1.0896    5.0056 C   0  0  0  0  0  0  0  0  0  0  0  0
   10.2702   -1.8096    4.9711 N   0  0  0  0  0  0  0  0  0  0  0  0
   10.8799   -2.0024    3.7913 C   0  0  0  0  0  0  0  0  0  0  0  0
   12.0784   -2.7442    3.7591 N   0  0  0  0  0  0  0  0  0  0  0  0
   12.6673   -3.2920    4.8830 C   0  0  0  0  0  0  0  0  0  0  0  0
   12.2750   -3.2470    6.0402 O   0  0  0  0  0  0  0  0  0  0  0  0
   13.9672   -3.9886    4.6016 C   0  0  0  0  0  0  0  0  0  0  0  0
   14.6242   -4.8320    5.6769 C   0  0  0  0  0  0  0  0  0  0  0  0
   15.2174   -3.5054    5.3040 C   0  0  0  0  0  0  0  0  0  0  0  0
   10.3672   -1.4855    2.6005 C   0  0  0  0  0  0  0  0  0  0  0  0
    6.6135    0.6618    0.5831 C   0  0  0  0  0  0  0  0  0  0  0  0
    7.2797    1.6333   -0.0536 F   0  0  0  0  0  0  0  0  0  0  0  0
    5.2140    0.6255    0.5068 C   0  0  0  0  0  0  0  0  0  0  0  0
    0.7689   -0.7433    0.5030 H   0  0  0  0  0  0  0  0  0  0  0  0
    0.9628   -3.0411    3.4793 H   0  0  0  0  0  0  0  0  0  0  0  0
   -0.8133   -4.5808    4.0601 H   0  0  0  0  0  0  0  0  0  0  0  0
   -2.9072   -4.6539    2.7512 H   0  0  0  0  0  0  0  0  0  0  0  0
   -1.3851   -1.5543    0.1656 H   0  0  0  0  0  0  0  0  0  0  0  0
    2.6381    0.2936    0.5503 H   0  0  0  0  0  0  0  0  0  0  0  0
    4.8492   -2.1249    2.4563 H   0  0  0  0  0  0  0  0  0  0  0  0
    7.6536    0.0464    3.9887 H   0  0  0  0  0  0  0  0  0  0  0  0
    8.6884   -0.9849    5.9871 H   0  0  0  0  0  0  0  0  0  0  0  0
   12.5305   -2.8606    2.8684 H   0  0  0  0  0  0  0  0  0  0  0  0
   14.0842   -4.3577    3.5888 H   0  0  0  0  0  0  0  0  0  0  0  0
   15.1547   -5.7282    5.3789 H   0  0  0  0  0  0  0  0  0  0  0  0
   14.1340   -4.9138    6.6420 H   0  0  0  0  0  0  0  0  0  0  0  0
   16.1491   -3.5033    4.7533 H   0  0  0  0  0  0  0  0  0  0  0  0
   15.1235   -2.7000    6.0259 H   0  0  0  0  0  0  0  0  0  0  0  0
   10.8587   -1.6505    1.6494 H   0  0  0  0  0  0  0  0  0  0  0  0
    4.7044    1.3889   -0.0738 H   0  0  0  0  0  0  0  0  0  0  0  0
  1  2  2  0  0  0  0
  2  3  1  0  0  0  0
  2 14  1  0  0  0  0
  3  4  1  0  0  0  0
  3 35  1  0  0  0  0
  4  5  1  0  0  0  0
  4 13  2  0  0  0  0
  5  6  2  0  0  0  0
  5 36  1  0  0  0  0
  6  7  1  0  0  0  0
  6 37  1  0  0  0  0
  7  8  2  0  0  0  0
  7 38  1  0  0  0  0
  8  9  1  0  0  0  0
  8 13  1  0  0  0  0
  9 10  1  0  0  0  0
  9 11  1  0  0  0  0
  9 12  1  0  0  0  0
 13 39  1  0  0  0  0
 14 15  1  0  0  0  0
 14 40  1  0  0  0  0
 15 16  1  0  0  0  0
 15 34  2  0  0  0  0
 16 17  2  0  0  0  0
 16 41  1  0  0  0  0
 17 18  1  0  0  0  0
 18 19  1  0  0  0  0
 18 32  2  0  0  0  0
 19 20  1  0  0  0  0
 20 21  1  0  0  0  0
 20 31  2  0  0  0  0
 21 22  2  0  0  0  0
 21 42  1  0  0  0  0
 22 23  1  0  0  0  0
 22 43  1  0  0  0  0
 23 24  2  0  0  0  0
 24 25  1  0  0  0  0
 24 31  1  0  0  0  0
 25 26  1  0  0  0  0
 25 44  1  0  0  0  0
 26 27  2  0  0  0  0
 26 28  1  0  0  0  0
 28 29  1  0  0  0  0
 28 30  1  0  0  0  0
 28 45  1  0  0  0  0
 29 30  1  0  0  0  0
 29 46  1  0  0  0  0
 29 47  1  0  0  0  0
 30 48  1  0  0  0  0
 30 49  1  0  0  0  0
 31 50  1  0  0  0  0
 32 33  1  0  0  0  0
 32 34  1  0  0  0  0
 34 51  1  0  0  0  0
M  END
$$$$
