CHEMBL410731
 OpenBabel04072215383D

 50 53  0  0  0  0  0  0  0  0999 V2000
    4.2588    1.5457    3.0467 N   0  0  0  0  0  0  0  0  0  0  0  0
    4.8201    1.3133    1.7783 C   0  0  0  0  0  0  0  0  0  0  0  0
    5.6339    0.2516    1.6827 N   0  0  0  0  0  0  0  0  0  0  0  0
    6.1220    0.0076    0.4604 C   0  0  0  0  0  0  0  0  0  0  0  0
    5.8631    0.7045   -0.6555 N   0  0  0  0  0  0  0  0  0  0  0  0
    5.0322    1.7561   -0.5275 C   0  0  0  0  0  0  0  0  0  0  0  0
    4.4615    2.1271    0.7007 C   0  0  0  0  0  0  0  0  0  0  0  0
    3.6394    3.2661    0.9257 N   0  0  0  0  0  0  0  0  0  0  0  0
    2.6781    3.5204    0.0888 C   0  0  0  0  0  0  0  0  0  0  0  0
    1.8221    4.7191    0.3105 C   0  0  0  0  0  0  0  0  0  0  0  0
    1.2905    5.4015   -0.7781 C   0  0  0  0  0  0  0  0  0  0  0  0
    0.4660    6.5075   -0.5786 C   0  0  0  0  0  0  0  0  0  0  0  0
    0.1482    6.9606    0.7051 C   0  0  0  0  0  0  0  0  0  0  0  0
   -0.7009    8.0720    0.9343 N   0  0  0  0  0  0  0  0  0  0  0  0
   -1.4315    8.7281   -0.0406 C   0  0  0  0  0  0  0  0  0  0  0  0
   -1.5098    8.3835   -1.2152 O   0  0  0  0  0  0  0  0  0  0  0  0
   -2.0603    9.8688    0.4423 N   0  0  0  0  0  0  0  0  0  0  0  0
   -2.8188   10.6602   -0.4629 C   0  0  0  0  0  0  0  0  0  0  0  0
   -3.7451   10.0808   -1.3376 C   0  0  0  0  0  0  0  0  0  0  0  0
   -4.3718   10.8547   -2.3135 C   0  0  0  0  0  0  0  0  0  0  0  0
   -4.0710   12.2118   -2.4230 C   0  0  0  0  0  0  0  0  0  0  0  0
   -3.1617   12.8120   -1.5365 C   0  0  0  0  0  0  0  0  0  0  0  0
   -2.7678   14.2504   -1.6666 C   0  0  0  0  0  0  0  0  0  0  0  0
   -3.4073   14.8885   -2.6892 F   0  0  0  0  0  0  0  0  0  0  0  0
   -3.0445   14.9791   -0.5511 F   0  0  0  0  0  0  0  0  0  0  0  0
   -1.4386   14.4152   -1.9114 F   0  0  0  0  0  0  0  0  0  0  0  0
   -2.5697   12.0313   -0.5429 C   0  0  0  0  0  0  0  0  0  0  0  0
   -1.6773   12.5817    0.2953 F   0  0  0  0  0  0  0  0  0  0  0  0
    0.7113    6.2940    1.7999 C   0  0  0  0  0  0  0  0  0  0  0  0
    1.5487    5.1803    1.6043 C   0  0  0  0  0  0  0  0  0  0  0  0
    2.3801    2.6323   -1.1078 C   0  0  0  0  0  0  0  0  0  0  0  0
    3.4751    2.7784   -2.1520 C   0  0  0  0  0  0  0  0  0  0  0  0
    4.8282    2.4519   -1.7154 N   0  0  0  0  0  0  0  0  0  0  0  0
    4.7512    0.9782    3.7267 H   0  0  0  0  0  0  0  0  0  0  0  0
    4.2613    2.5433    3.2362 H   0  0  0  0  0  0  0  0  0  0  0  0
    6.7890   -0.8416    0.3610 H   0  0  0  0  0  0  0  0  0  0  0  0
    1.5062    5.1114   -1.8009 H   0  0  0  0  0  0  0  0  0  0  0  0
    0.0934    6.9923   -1.4740 H   0  0  0  0  0  0  0  0  0  0  0  0
   -0.8986    8.3172    1.8941 H   0  0  0  0  0  0  0  0  0  0  0  0
   -1.5065   10.3936    1.1088 H   0  0  0  0  0  0  0  0  0  0  0  0
   -3.9592    9.0147   -1.2904 H   0  0  0  0  0  0  0  0  0  0  0  0
   -5.0664   10.3879   -3.0088 H   0  0  0  0  0  0  0  0  0  0  0  0
   -4.5352   12.7953   -3.2174 H   0  0  0  0  0  0  0  0  0  0  0  0
    0.5094    6.6195    2.8175 H   0  0  0  0  0  0  0  0  0  0  0  0
    1.9735    4.6678    2.4651 H   0  0  0  0  0  0  0  0  0  0  0  0
    1.4104    2.8807   -1.5515 H   0  0  0  0  0  0  0  0  0  0  0  0
    2.2834    1.5936   -0.7705 H   0  0  0  0  0  0  0  0  0  0  0  0
    3.4946    3.8061   -2.5331 H   0  0  0  0  0  0  0  0  0  0  0  0
    3.2247    2.1390   -3.0076 H   0  0  0  0  0  0  0  0  0  0  0  0
    5.3599    1.9501   -2.4252 H   0  0  0  0  0  0  0  0  0  0  0  0
  1  2  1  0  0  0  0
  1 34  1  0  0  0  0
  1 35  1  0  0  0  0
  2  3  1  0  0  0  0
  2  7  2  0  0  0  0
  3  4  2  0  0  0  0
  4  5  1  0  0  0  0
  4 36  1  0  0  0  0
  5  6  2  0  0  0  0
  6  7  1  0  0  0  0
  6 33  1  0  0  0  0
  7  8  1  0  0  0  0
  8  9  2  0  0  0  0
  9 10  1  0  0  0  0
  9 31  1  0  0  0  0
 10 11  1  0  0  0  0
 10 30  2  0  0  0  0
 11 12  2  0  0  0  0
 11 37  1  0  0  0  0
 12 13  1  0  0  0  0
 12 38  1  0  0  0  0
 13 14  1  0  0  0  0
 13 29  2  0  0  0  0
 14 15  1  0  0  0  0
 14 39  1  0  0  0  0
 15 16  2  0  0  0  0
 15 17  1  0  0  0  0
 17 18  1  0  0  0  0
 17 40  1  0  0  0  0
 18 19  1  0  0  0  0
 18 27  2  0  0  0  0
 19 20  2  0  0  0  0
 19 41  1  0  0  0  0
 20 21  1  0  0  0  0
 20 42  1  0  0  0  0
 21 22  2  0  0  0  0
 21 43  1  0  0  0  0
 22 23  1  0  0  0  0
 22 27  1  0  0  0  0
 23 24  1  0  0  0  0
 23 25  1  0  0  0  0
 23 26  1  0  0  0  0
 27 28  1  0  0  0  0
 29 30  1  0  0  0  0
 29 44  1  0  0  0  0
 30 45  1  0  0  0  0
 31 32  1  0  0  0  0
 31 46  1  0  0  0  0
 31 47  1  0  0  0  0
 32 33  1  0  0  0  0
 32 48  1  0  0  0  0
 32 49  1  0  0  0  0
 33 50  1  0  0  0  0
M  END
$$$$
