CHEMBL3739656
 OpenBabel04072215373D

 62 66  0  0  0  0  0  0  0  0999 V2000
   18.5620    3.3454    2.2314 C   0  0  0  0  0  0  0  0  0  0  0  0
   17.6954    1.7111    1.2223 S   0  0  0  0  0  0  0  0  0  0  0  0
   17.4476    1.7044   -0.2084 O   0  0  0  0  0  0  0  0  0  0  0  0
   18.3298    0.5073    1.7249 O   0  0  0  0  0  0  0  0  0  0  0  0
   16.2204    1.8259    2.1112 C   0  0  0  0  0  0  0  0  0  0  0  0
   15.3961    0.6472    1.8435 C   0  0  0  0  0  0  0  0  0  0  0  0
   15.8599   -0.6682    1.6865 C   0  0  0  0  0  0  0  0  0  0  0  0
   15.0065   -1.6408    1.2090 C   0  0  0  0  0  0  0  0  0  0  0  0
   13.6379   -1.3146    1.0617 C   0  0  0  0  0  0  0  0  0  0  0  0
   13.1852   -0.0420    1.3228 C   0  0  0  0  0  0  0  0  0  0  0  0
   11.8074    0.2209    1.3286 N   0  0  0  0  0  0  0  0  0  0  0  0
   11.2119    1.4659    1.6026 C   0  0  0  0  0  0  0  0  0  0  0  0
   10.1541    1.3931    2.4240 N   0  0  0  0  0  0  0  0  0  0  0  0
    9.5649    2.5487    2.7590 C   0  0  0  0  0  0  0  0  0  0  0  0
   10.0019    3.7778    2.3207 C   0  0  0  0  0  0  0  0  0  0  0  0
   11.1223    3.7661    1.5169 C   0  0  0  0  0  0  0  0  0  0  0  0
   11.5989    5.0133    1.0795 O   0  0  0  0  0  0  0  0  0  0  0  0
   12.9031    5.1284    0.6325 C   0  0  0  0  0  0  0  0  0  0  0  0
   13.1522    5.6161   -0.6476 C   0  0  0  0  0  0  0  0  0  0  0  0
   14.4930    5.7572   -1.1442 C   0  0  0  0  0  0  0  0  0  0  0  0
   15.6738    5.5672   -0.3474 C   0  0  0  0  0  0  0  0  0  0  0  0
   17.1799    5.6636   -0.7212 C   0  0  0  0  0  0  0  0  0  0  0  0
   18.0251    4.3432   -0.3588 C   0  0  0  0  0  0  0  0  0  0  0  0
   17.2238    3.8283    0.4073 O   0  0  0  0  0  0  0  0  0  0  0  0
   19.4537    3.8283   -0.6201 N   0  0  0  0  0  0  0  0  0  0  0  0
   20.4332    2.5717   -0.0706 C   0  0  0  0  0  0  0  0  0  0  0  0
   20.4771    1.7572    1.1178 C   0  0  0  0  0  0  0  0  0  0  0  0
   21.1859    0.5410    1.4061 C   0  0  0  0  0  0  0  0  0  0  0  0
   20.8287   -0.4517    2.7954 Cl  0  0  0  0  0  0  0  0  0  0  0  0
   22.1885    0.1944    0.5560 C   0  0  0  0  0  0  0  0  0  0  0  0
   22.4172    1.0616   -0.4691 C   0  0  0  0  0  0  0  0  0  0  0  0
   23.9058    0.8205   -1.3092 Cl  0  0  0  0  0  0  0  0  0  0  0  0
   21.5543    2.2018   -0.8299 C   0  0  0  0  0  0  0  0  0  0  0  0
   17.7838    6.6179    0.0837 C   0  0  0  0  0  0  0  0  0  0  0  0
   17.3664    6.7038    1.4307 C   0  0  0  0  0  0  0  0  0  0  0  0
   16.2247    6.0239    1.9214 C   0  0  0  0  0  0  0  0  0  0  0  0
   15.2917    5.4991    1.0277 C   0  0  0  0  0  0  0  0  0  0  0  0
   13.9927    5.0970    1.4908 C   0  0  0  0  0  0  0  0  0  0  0  0
   11.7115    2.6263    1.1221 N   0  0  0  0  0  0  0  0  0  0  0  0
   14.0742    0.9484    1.6555 C   0  0  0  0  0  0  0  0  0  0  0  0
   19.5682    3.6483    1.9117 H   0  0  0  0  0  0  0  0  0  0  0  0
   18.6052    3.0191    3.2687 H   0  0  0  0  0  0  0  0  0  0  0  0
   18.0294    4.2833    2.2100 H   0  0  0  0  0  0  0  0  0  0  0  0
   15.7507    2.7756    1.8346 H   0  0  0  0  0  0  0  0  0  0  0  0
   16.5213    1.8995    3.1690 H   0  0  0  0  0  0  0  0  0  0  0  0
   16.8858   -0.9667    1.8429 H   0  0  0  0  0  0  0  0  0  0  0  0
   15.4207   -2.6067    0.9509 H   0  0  0  0  0  0  0  0  0  0  0  0
   12.9995   -2.1023    0.7205 H   0  0  0  0  0  0  0  0  0  0  0  0
   11.3564   -0.4189    1.9777 H   0  0  0  0  0  0  0  0  0  0  0  0
    8.7076    2.4417    3.4174 H   0  0  0  0  0  0  0  0  0  0  0  0
    9.4893    4.6854    2.6036 H   0  0  0  0  0  0  0  0  0  0  0  0
   12.3056    5.9247   -1.2607 H   0  0  0  0  0  0  0  0  0  0  0  0
   14.6047    6.1140   -2.1657 H   0  0  0  0  0  0  0  0  0  0  0  0
   19.8197    4.1506   -1.5079 H   0  0  0  0  0  0  0  0  0  0  0  0
   19.9603    1.9002    2.0527 H   0  0  0  0  0  0  0  0  0  0  0  0
   22.7758   -0.7029    0.8080 H   0  0  0  0  0  0  0  0  0  0  0  0
   21.8448    2.7679   -1.6882 H   0  0  0  0  0  0  0  0  0  0  0  0
   18.6743    7.1232   -0.2616 H   0  0  0  0  0  0  0  0  0  0  0  0
   17.9819    7.2562    2.1356 H   0  0  0  0  0  0  0  0  0  0  0  0
   16.0229    6.0071    2.9912 H   0  0  0  0  0  0  0  0  0  0  0  0
   13.8160    4.8849    2.5451 H   0  0  0  0  0  0  0  0  0  0  0  0
   13.7772    1.9857    1.7891 H   0  0  0  0  0  0  0  0  0  0  0  0
  1  2  1  0  0  0  0
  1 41  1  0  0  0  0
  1 42  1  0  0  0  0
  1 43  1  0  0  0  0
  2  3  2  0  0  0  0
  2  4  2  0  0  0  0
  2  5  1  0  0  0  0
  5  6  1  0  0  0  0
  5 44  1  0  0  0  0
  5 45  1  0  0  0  0
  6  7  1  0  0  0  0
  6 40  2  0  0  0  0
  7  8  2  0  0  0  0
  7 46  1  0  0  0  0
  8  9  1  0  0  0  0
  8 47  1  0  0  0  0
  9 10  2  0  0  0  0
  9 48  1  0  0  0  0
 10 11  1  0  0  0  0
 10 40  1  0  0  0  0
 11 12  1  0  0  0  0
 11 49  1  0  0  0  0
 12 13  1  0  0  0  0
 12 39  2  0  0  0  0
 13 14  2  0  0  0  0
 14 15  1  0  0  0  0
 14 50  1  0  0  0  0
 15 16  2  0  0  0  0
 15 51  1  0  0  0  0
 16 17  1  0  0  0  0
 16 39  1  0  0  0  0
 17 18  1  0  0  0  0
 18 19  1  0  0  0  0
 18 38  2  0  0  0  0
 19 20  2  0  0  0  0
 19 52  1  0  0  0  0
 20 21  1  0  0  0  0
 20 53  1  0  0  0  0
 21 22  1  0  0  0  0
 21 37  2  0  0  0  0
 22 23  1  0  0  0  0
 22 34  2  0  0  0  0
 23 24  2  0  0  0  0
 23 25  1  0  0  0  0
 25 26  1  0  0  0  0
 25 54  1  0  0  0  0
 26 27  1  0  0  0  0
 26 33  2  0  0  0  0
 27 28  2  0  0  0  0
 27 55  1  0  0  0  0
 28 29  1  0  0  0  0
 28 30  1  0  0  0  0
 30 31  2  0  0  0  0
 30 56  1  0  0  0  0
 31 32  1  0  0  0  0
 31 33  1  0  0  0  0
 33 57  1  0  0  0  0
 34 35  1  0  0  0  0
 34 58  1  0  0  0  0
 35 36  2  0  0  0  0
 35 59  1  0  0  0  0
 36 37  1  0  0  0  0
 36 60  1  0  0  0  0
 37 38  1  0  0  0  0
 38 61  1  0  0  0  0
 40 62  1  0  0  0  0
M  END
$$$$
