CHEMBL3929188
 OpenBabel04072215373D

 48 51  0  0  0  0  0  0  0  0999 V2000
    2.6418   -0.9533   -0.6822 C   0  0  0  0  0  0  0  0  0  0  0  0
    2.4126    0.0965    0.2524 O   0  0  0  0  0  0  0  0  0  0  0  0
    3.1516    1.2432    0.1427 C   0  0  0  0  0  0  0  0  0  0  0  0
    4.2837    1.3322   -0.6632 C   0  0  0  0  0  0  0  0  0  0  0  0
    4.9295    2.5653   -0.8903 C   0  0  0  0  0  0  0  0  0  0  0  0
    6.0278    2.7220   -1.7515 C   0  0  0  0  0  0  0  0  0  0  0  0
    6.4733    1.6032   -2.5152 N   0  0  0  0  0  0  0  0  0  0  0  0
    7.7272    1.5230   -3.1505 C   0  0  0  0  0  0  0  0  0  0  0  0
    8.8942    1.8722   -2.4586 C   0  0  0  0  0  0  0  0  0  0  0  0
   10.1369    1.8483   -3.0876 C   0  0  0  0  0  0  0  0  0  0  0  0
   10.2297    1.4663   -4.4268 C   0  0  0  0  0  0  0  0  0  0  0  0
   11.7890    1.5176   -5.1669 Cl  0  0  0  0  0  0  0  0  0  0  0  0
    9.0793    1.0743   -5.1155 C   0  0  0  0  0  0  0  0  0  0  0  0
    9.1215    0.5760   -6.7734 Cl  0  0  0  0  0  0  0  0  0  0  0  0
    7.8343    1.0887   -4.4772 C   0  0  0  0  0  0  0  0  0  0  0  0
    6.6419    3.9050   -1.9098 N   0  0  0  0  0  0  0  0  0  0  0  0
    6.1359    4.9392   -1.2319 C   0  0  0  0  0  0  0  0  0  0  0  0
    5.0788    4.9065   -0.4105 N   0  0  0  0  0  0  0  0  0  0  0  0
    4.4849    3.7193   -0.2385 C   0  0  0  0  0  0  0  0  0  0  0  0
    3.4022    3.6043    0.6268 C   0  0  0  0  0  0  0  0  0  0  0  0
    2.7492    2.3814    0.8564 C   0  0  0  0  0  0  0  0  0  0  0  0
    1.7432    2.4529    1.7977 O   0  0  0  0  0  0  0  0  0  0  0  0
    1.5066    1.2435    2.5260 C   0  0  0  0  0  0  0  0  0  0  0  0
    0.9658    1.5414    3.9200 C   0  0  0  0  0  0  0  0  0  0  0  0
    0.7020    0.2388    4.6664 C   0  0  0  0  0  0  0  0  0  0  0  0
    0.2708    0.4843    6.0112 O   0  0  0  0  0  0  0  0  0  0  0  0
    1.1431   -0.2958    6.8362 C   0  0  0  0  0  0  0  0  0  0  0  0
    1.7318   -1.3219    5.9055 C   0  0  0  0  0  0  0  0  0  0  0  0
    1.8725   -0.5897    4.6924 O   0  0  0  0  0  0  0  0  0  0  0  0
    3.3569   -1.6663   -0.2617 H   0  0  0  0  0  0  0  0  0  0  0  0
    2.9755   -0.6087   -1.6657 H   0  0  0  0  0  0  0  0  0  0  0  0
    1.6914   -1.4692   -0.8434 H   0  0  0  0  0  0  0  0  0  0  0  0
    4.7031    0.4424   -1.1206 H   0  0  0  0  0  0  0  0  0  0  0  0
    5.7083    1.2924   -3.1083 H   0  0  0  0  0  0  0  0  0  0  0  0
    8.8330    2.1798   -1.4148 H   0  0  0  0  0  0  0  0  0  0  0  0
   11.0209    2.1480   -2.5305 H   0  0  0  0  0  0  0  0  0  0  0  0
    6.9460    0.7910   -5.0274 H   0  0  0  0  0  0  0  0  0  0  0  0
    6.6259    5.8974   -1.3662 H   0  0  0  0  0  0  0  0  0  0  0  0
    3.0594    4.4931    1.1532 H   0  0  0  0  0  0  0  0  0  0  0  0
    2.4363    0.6738    2.6402 H   0  0  0  0  0  0  0  0  0  0  0  0
    0.7663    0.6489    1.9770 H   0  0  0  0  0  0  0  0  0  0  0  0
    0.0489    2.1427    3.8641 H   0  0  0  0  0  0  0  0  0  0  0  0
    1.6868    2.1610    4.4687 H   0  0  0  0  0  0  0  0  0  0  0  0
   -0.0950   -0.3233    4.1639 H   0  0  0  0  0  0  0  0  0  0  0  0
    0.5939   -0.7402    7.6705 H   0  0  0  0  0  0  0  0  0  0  0  0
    1.9164    0.3721    7.2297 H   0  0  0  0  0  0  0  0  0  0  0  0
    1.0431   -2.1549    5.7255 H   0  0  0  0  0  0  0  0  0  0  0  0
    2.6950   -1.7155    6.2398 H   0  0  0  0  0  0  0  0  0  0  0  0
  1  2  1  0  0  0  0
  1 30  1  0  0  0  0
  1 31  1  0  0  0  0
  1 32  1  0  0  0  0
  2  3  1  0  0  0  0
  3  4  1  0  0  0  0
  3 21  2  0  0  0  0
  4  5  2  0  0  0  0
  4 33  1  0  0  0  0
  5  6  1  0  0  0  0
  5 19  1  0  0  0  0
  6  7  1  0  0  0  0
  6 16  2  0  0  0  0
  7  8  1  0  0  0  0
  7 34  1  0  0  0  0
  8  9  1  0  0  0  0
  8 15  2  0  0  0  0
  9 10  2  0  0  0  0
  9 35  1  0  0  0  0
 10 11  1  0  0  0  0
 10 36  1  0  0  0  0
 11 12  1  0  0  0  0
 11 13  2  0  0  0  0
 13 14  1  0  0  0  0
 13 15  1  0  0  0  0
 15 37  1  0  0  0  0
 16 17  1  0  0  0  0
 17 18  2  0  0  0  0
 17 38  1  0  0  0  0
 18 19  1  0  0  0  0
 19 20  2  0  0  0  0
 20 21  1  0  0  0  0
 20 39  1  0  0  0  0
 21 22  1  0  0  0  0
 22 23  1  0  0  0  0
 23 24  1  0  0  0  0
 23 40  1  0  0  0  0
 23 41  1  0  0  0  0
 24 25  1  0  0  0  0
 24 42  1  0  0  0  0
 24 43  1  0  0  0  0
 25 26  1  0  0  0  0
 25 29  1  0  0  0  0
 25 44  1  0  0  0  0
 26 27  1  0  0  0  0
 27 28  1  0  0  0  0
 27 45  1  0  0  0  0
 27 46  1  0  0  0  0
 28 29  1  0  0  0  0
 28 47  1  0  0  0  0
 28 48  1  0  0  0  0
M  END
$$$$
