CHEMBL4555386
 OpenBabel04072215383D

 44 47  0  0  0  0  0  0  0  0999 V2000
   -4.2508   -2.5524    5.4830 C   0  0  0  0  0  0  0  0  0  0  0  0
   -4.0784   -1.8369    4.1754 C   0  0  0  0  0  0  0  0  0  0  0  0
   -4.5834   -2.3787    2.9909 C   0  0  0  0  0  0  0  0  0  0  0  0
   -4.4029   -1.7187    1.7750 C   0  0  0  0  0  0  0  0  0  0  0  0
   -3.7178   -0.4950    1.7161 C   0  0  0  0  0  0  0  0  0  0  0  0
   -3.4463    0.1484    0.3777 C   0  0  0  0  0  0  0  0  0  0  0  0
   -3.8796    1.5947    0.2610 C   0  0  0  0  0  0  0  0  0  0  0  0
   -3.0592    2.5077    0.3472 O   0  0  0  0  0  0  0  0  0  0  0  0
   -5.2421    1.7672    0.0617 N   0  0  0  0  0  0  0  0  0  0  0  0
   -5.8039    3.0556   -0.0857 C   0  0  0  0  0  0  0  0  0  0  0  0
   -5.2066    4.0136   -0.9251 C   0  0  0  0  0  0  0  0  0  0  0  0
   -5.6902    5.3244   -1.0070 C   0  0  0  0  0  0  0  0  0  0  0  0
   -6.7659    5.6087   -0.1810 C   0  0  0  0  0  0  0  0  0  0  0  0
   -7.3719    6.8137   -0.0103 O   0  0  0  0  0  0  0  0  0  0  0  0
   -8.3507    6.5722    0.9182 C   0  0  0  0  0  0  0  0  0  0  0  0
   -9.1825    7.7042    1.3098 C   0  0  0  0  0  0  0  0  0  0  0  0
  -10.1524    7.5344    2.3131 C   0  0  0  0  0  0  0  0  0  0  0  0
  -10.9985    8.5877    2.6842 C   0  0  0  0  0  0  0  0  0  0  0  0
  -10.8796    9.8279    2.0620 C   0  0  0  0  0  0  0  0  0  0  0  0
   -9.9130   10.0176    1.0772 C   0  0  0  0  0  0  0  0  0  0  0  0
   -9.0752    8.9646    0.7109 C   0  0  0  0  0  0  0  0  0  0  0  0
   -8.1667    9.2053   -0.2470 F   0  0  0  0  0  0  0  0  0  0  0  0
   -8.4151    5.3143    1.3274 N   0  0  0  0  0  0  0  0  0  0  0  0
   -7.4058    4.6918    0.6342 C   0  0  0  0  0  0  0  0  0  0  0  0
   -6.9541    3.3646    0.6559 C   0  0  0  0  0  0  0  0  0  0  0  0
   -3.2168    0.0505    2.9058 C   0  0  0  0  0  0  0  0  0  0  0  0
   -3.3978   -0.6143    4.1244 C   0  0  0  0  0  0  0  0  0  0  0  0
   -4.7728   -3.5070    5.3524 H   0  0  0  0  0  0  0  0  0  0  0  0
   -4.8388   -1.9404    6.1736 H   0  0  0  0  0  0  0  0  0  0  0  0
   -3.2747   -2.7670    5.9311 H   0  0  0  0  0  0  0  0  0  0  0  0
   -5.1070   -3.3321    3.0014 H   0  0  0  0  0  0  0  0  0  0  0  0
   -4.7825   -2.1805    0.8665 H   0  0  0  0  0  0  0  0  0  0  0  0
   -3.9240   -0.4109   -0.4289 H   0  0  0  0  0  0  0  0  0  0  0  0
   -2.3679    0.1028    0.1783 H   0  0  0  0  0  0  0  0  0  0  0  0
   -5.8337    1.0469    0.4588 H   0  0  0  0  0  0  0  0  0  0  0  0
   -4.3421    3.7461   -1.5311 H   0  0  0  0  0  0  0  0  0  0  0  0
   -5.2340    6.0775   -1.6366 H   0  0  0  0  0  0  0  0  0  0  0  0
  -10.2589    6.5699    2.8088 H   0  0  0  0  0  0  0  0  0  0  0  0
  -11.7462    8.4336    3.4564 H   0  0  0  0  0  0  0  0  0  0  0  0
  -11.5415   10.6437    2.3396 H   0  0  0  0  0  0  0  0  0  0  0  0
   -9.8086   10.9778    0.5821 H   0  0  0  0  0  0  0  0  0  0  0  0
   -7.4316    2.6442    1.3086 H   0  0  0  0  0  0  0  0  0  0  0  0
   -2.6568    0.9852    2.8926 H   0  0  0  0  0  0  0  0  0  0  0  0
   -2.9891   -0.1783    5.0332 H   0  0  0  0  0  0  0  0  0  0  0  0
  1  2  1  0  0  0  0
  1 28  1  0  0  0  0
  1 29  1  0  0  0  0
  1 30  1  0  0  0  0
  2  3  1  0  0  0  0
  2 27  2  0  0  0  0
  3  4  2  0  0  0  0
  3 31  1  0  0  0  0
  4  5  1  0  0  0  0
  4 32  1  0  0  0  0
  5  6  1  0  0  0  0
  5 26  2  0  0  0  0
  6  7  1  0  0  0  0
  6 33  1  0  0  0  0
  6 34  1  0  0  0  0
  7  8  2  0  0  0  0
  7  9  1  0  0  0  0
  9 10  1  0  0  0  0
  9 35  1  0  0  0  0
 10 11  1  0  0  0  0
 10 25  2  0  0  0  0
 11 12  2  0  0  0  0
 11 36  1  0  0  0  0
 12 13  1  0  0  0  0
 12 37  1  0  0  0  0
 13 14  1  0  0  0  0
 13 24  2  0  0  0  0
 14 15  1  0  0  0  0
 15 16  1  0  0  0  0
 15 23  2  0  0  0  0
 16 17  1  0  0  0  0
 16 21  2  0  0  0  0
 17 18  2  0  0  0  0
 17 38  1  0  0  0  0
 18 19  1  0  0  0  0
 18 39  1  0  0  0  0
 19 20  2  0  0  0  0
 19 40  1  0  0  0  0
 20 21  1  0  0  0  0
 20 41  1  0  0  0  0
 21 22  1  0  0  0  0
 23 24  1  0  0  0  0
 24 25  1  0  0  0  0
 25 42  1  0  0  0  0
 26 27  1  0  0  0  0
 26 43  1  0  0  0  0
 27 44  1  0  0  0  0
M  END
$$$$
