CHEMBL3965529
 OpenBabel04072215373D

 46 49  0  0  0  0  0  0  0  0999 V2000
    1.0690   -2.5943    1.6430 N   0  0  0  0  0  0  0  0  0  0  0  0
    2.4124   -2.6755    1.8912 C   0  0  0  0  0  0  0  0  0  0  0  0
    2.9199   -2.8579    2.9851 O   0  0  0  0  0  0  0  0  0  0  0  0
    3.1924   -2.4439    0.7379 N   0  0  0  0  0  0  0  0  0  0  0  0
    4.3240   -1.6204    0.6389 C   0  0  0  0  0  0  0  0  0  0  0  0
    4.8570   -0.7819    1.6924 C   0  0  0  0  0  0  0  0  0  0  0  0
    4.1703   -0.1788    2.7259 C   0  0  0  0  0  0  0  0  0  0  0  0
    5.0022    0.4968    3.6778 C   0  0  0  0  0  0  0  0  0  0  0  0
    4.6039    1.1020    4.8766 N   0  0  0  0  0  0  0  0  0  0  0  0
    3.2935    1.1195    5.3051 C   0  0  0  0  0  0  0  0  0  0  0  0
    2.3607    0.6479    4.6549 O   0  0  0  0  0  0  0  0  0  0  0  0
    3.1086    1.7495    6.5291 N   0  0  0  0  0  0  0  0  0  0  0  0
    1.8236    1.8434    7.1315 C   0  0  0  0  0  0  0  0  0  0  0  0
    0.8081    0.9231    6.8535 C   0  0  0  0  0  0  0  0  0  0  0  0
   -0.4947    1.1408    7.2871 C   0  0  0  0  0  0  0  0  0  0  0  0
   -0.8072    2.2644    8.0504 C   0  0  0  0  0  0  0  0  0  0  0  0
   -2.4691    2.4548    8.4656 Cl  0  0  0  0  0  0  0  0  0  0  0  0
    0.2017    3.1590    8.4196 C   0  0  0  0  0  0  0  0  0  0  0  0
   -0.0471    4.4086    9.2283 C   0  0  0  0  0  0  0  0  0  0  0  0
   -1.3396    4.6833    9.5396 F   0  0  0  0  0  0  0  0  0  0  0  0
    0.6189    4.3862   10.4169 F   0  0  0  0  0  0  0  0  0  0  0  0
    0.4073    5.5192    8.5795 F   0  0  0  0  0  0  0  0  0  0  0  0
    1.5323    2.9158    7.9767 C   0  0  0  0  0  0  0  0  0  0  0  0
    6.3125    0.4751    3.2586 C   0  0  0  0  0  0  0  0  0  0  0  0
    6.5202   -0.3655    1.7782 S   0  0  0  0  0  0  0  0  0  0  0  0
    4.7894   -1.7150   -0.6606 C   0  0  0  0  0  0  0  0  0  0  0  0
    3.9953   -2.6476   -1.3656 C   0  0  0  0  0  0  0  0  0  0  0  0
    4.0567   -3.1739   -2.6704 C   0  0  0  0  0  0  0  0  0  0  0  0
    3.1315   -4.1415   -3.0699 C   0  0  0  0  0  0  0  0  0  0  0  0
    2.1508   -4.5832   -2.1900 C   0  0  0  0  0  0  0  0  0  0  0  0
    2.0685   -4.0702   -0.8922 C   0  0  0  0  0  0  0  0  0  0  0  0
    2.9965   -3.0848   -0.4958 C   0  0  0  0  0  0  0  0  0  0  0  0
    0.4588   -2.5721    2.4504 H   0  0  0  0  0  0  0  0  0  0  0  0
    0.6992   -2.2560    0.7635 H   0  0  0  0  0  0  0  0  0  0  0  0
    3.0998   -0.2813    2.8234 H   0  0  0  0  0  0  0  0  0  0  0  0
    5.3296    1.4504    5.4810 H   0  0  0  0  0  0  0  0  0  0  0  0
    3.7952    2.4387    6.7981 H   0  0  0  0  0  0  0  0  0  0  0  0
    0.9928    0.0286    6.2651 H   0  0  0  0  0  0  0  0  0  0  0  0
   -1.2678    0.4355    6.9882 H   0  0  0  0  0  0  0  0  0  0  0  0
    2.3162    3.6194    8.2575 H   0  0  0  0  0  0  0  0  0  0  0  0
    7.1769    0.9129    3.7361 H   0  0  0  0  0  0  0  0  0  0  0  0
    5.6378   -1.1769   -1.0635 H   0  0  0  0  0  0  0  0  0  0  0  0
    4.8360   -2.8500   -3.3545 H   0  0  0  0  0  0  0  0  0  0  0  0
    3.1922   -4.5618   -4.0707 H   0  0  0  0  0  0  0  0  0  0  0  0
    1.4487   -5.3506   -2.5086 H   0  0  0  0  0  0  0  0  0  0  0  0
    1.3195   -4.4593   -0.2078 H   0  0  0  0  0  0  0  0  0  0  0  0
  1  2  1  0  0  0  0
  1 33  1  0  0  0  0
  1 34  1  0  0  0  0
  2  3  2  0  0  0  0
  2  4  1  0  0  0  0
  4  5  1  0  0  0  0
  4 32  1  0  0  0  0
  5  6  1  0  0  0  0
  5 26  2  0  0  0  0
  6  7  2  0  0  0  0
  6 25  1  0  0  0  0
  7  8  1  0  0  0  0
  7 35  1  0  0  0  0
  8  9  1  0  0  0  0
  8 24  2  0  0  0  0
  9 10  1  0  0  0  0
  9 36  1  0  0  0  0
 10 11  2  0  0  0  0
 10 12  1  0  0  0  0
 12 13  1  0  0  0  0
 12 37  1  0  0  0  0
 13 14  1  0  0  0  0
 13 23  2  0  0  0  0
 14 15  2  0  0  0  0
 14 38  1  0  0  0  0
 15 16  1  0  0  0  0
 15 39  1  0  0  0  0
 16 17  1  0  0  0  0
 16 18  2  0  0  0  0
 18 19  1  0  0  0  0
 18 23  1  0  0  0  0
 19 20  1  0  0  0  0
 19 21  1  0  0  0  0
 19 22  1  0  0  0  0
 23 40  1  0  0  0  0
 24 25  1  0  0  0  0
 24 41  1  0  0  0  0
 26 27  1  0  0  0  0
 26 42  1  0  0  0  0
 27 28  1  0  0  0  0
 27 32  2  0  0  0  0
 28 29  2  0  0  0  0
 28 43  1  0  0  0  0
 29 30  1  0  0  0  0
 29 44  1  0  0  0  0
 30 31  2  0  0  0  0
 30 45  1  0  0  0  0
 31 32  1  0  0  0  0
 31 46  1  0  0  0  0
M  END
$$$$
