CHEMBL3612233
 OpenBabel04072215363D

 44 47  0  0  0  0  0  0  0  0999 V2000
    1.1017   -0.6003    0.3069 O   0  0  0  0  0  0  0  0  0  0  0  0
    2.2217   -0.1669    0.0429 C   0  0  0  0  0  0  0  0  0  0  0  0
    2.8219    0.8775    0.7257 N   0  0  0  0  0  0  0  0  0  0  0  0
    2.2524    1.5841    1.8153 C   0  0  0  0  0  0  0  0  0  0  0  0
    1.1209    1.1403    2.5094 C   0  0  0  0  0  0  0  0  0  0  0  0
    0.5912    1.8780    3.5680 C   0  0  0  0  0  0  0  0  0  0  0  0
    1.2156    3.0550    3.9741 C   0  0  0  0  0  0  0  0  0  0  0  0
    2.3697    3.4974    3.3226 C   0  0  0  0  0  0  0  0  0  0  0  0
    3.2961    4.8638    4.0005 S   0  0  0  0  0  0  0  0  0  0  0  0
    2.6559    6.2660    3.1230 C   0  0  0  0  0  0  0  0  0  0  0  0
    1.3328    6.6793    3.2723 C   0  0  0  0  0  0  0  0  0  0  0  0
    0.9017    7.8059    2.6003 C   0  0  0  0  0  0  0  0  0  0  0  0
    1.6644    8.5719    1.8024 N   0  0  0  0  0  0  0  0  0  0  0  0
    2.9633    8.1891    1.6780 C   0  0  0  0  0  0  0  0  0  0  0  0
    3.9338    8.8809    0.8951 C   0  0  0  0  0  0  0  0  0  0  0  0
    5.1746    8.2926    0.9532 C   0  0  0  0  0  0  0  0  0  0  0  0
    5.1739    6.9009    1.9400 S   0  0  0  0  0  0  0  0  0  0  0  0
    3.4930    7.0622    2.3147 C   0  0  0  0  0  0  0  0  0  0  0  0
    2.8736    2.7690    2.2328 C   0  0  0  0  0  0  0  0  0  0  0  0
    3.0136   -0.6421   -0.9939 N   0  0  0  0  0  0  0  0  0  0  0  0
    2.6390   -1.6218   -1.9455 C   0  0  0  0  0  0  0  0  0  0  0  0
    1.3920   -2.2576   -1.9480 C   0  0  0  0  0  0  0  0  0  0  0  0
    1.0655   -3.2160   -2.9082 C   0  0  0  0  0  0  0  0  0  0  0  0
    1.9733   -3.5243   -3.9120 C   0  0  0  0  0  0  0  0  0  0  0  0
    3.2098   -2.8700   -3.9706 C   0  0  0  0  0  0  0  0  0  0  0  0
    4.1376   -3.1082   -5.1345 C   0  0  0  0  0  0  0  0  0  0  0  0
    3.6358   -3.9716   -6.0627 F   0  0  0  0  0  0  0  0  0  0  0  0
    4.4131   -1.9585   -5.8125 F   0  0  0  0  0  0  0  0  0  0  0  0
    5.3407   -3.6188   -4.7586 F   0  0  0  0  0  0  0  0  0  0  0  0
    3.5490   -1.9446   -2.9591 C   0  0  0  0  0  0  0  0  0  0  0  0
    3.6779    1.2503    0.3460 H   0  0  0  0  0  0  0  0  0  0  0  0
    0.6263    0.2060    2.2696 H   0  0  0  0  0  0  0  0  0  0  0  0
   -0.2899    1.5122    4.0880 H   0  0  0  0  0  0  0  0  0  0  0  0
    0.8100    3.5971    4.8239 H   0  0  0  0  0  0  0  0  0  0  0  0
    0.6431    6.1415    3.9137 H   0  0  0  0  0  0  0  0  0  0  0  0
   -0.1288    8.1404    2.6987 H   0  0  0  0  0  0  0  0  0  0  0  0
    3.7183    9.7741    0.3232 H   0  0  0  0  0  0  0  0  0  0  0  0
    6.0831    8.6144    0.4622 H   0  0  0  0  0  0  0  0  0  0  0  0
    3.7631    3.1294    1.7216 H   0  0  0  0  0  0  0  0  0  0  0  0
    3.9484   -0.2739   -1.0644 H   0  0  0  0  0  0  0  0  0  0  0  0
    0.6256   -2.0339   -1.2131 H   0  0  0  0  0  0  0  0  0  0  0  0
    0.0944   -3.7002   -2.8732 H   0  0  0  0  0  0  0  0  0  0  0  0
    1.6964   -4.2609   -4.6653 H   0  0  0  0  0  0  0  0  0  0  0  0
    4.5234   -1.4586   -3.0005 H   0  0  0  0  0  0  0  0  0  0  0  0
  1  2  2  0  0  0  0
  2  3  1  0  0  0  0
  2 20  1  0  0  0  0
  3  4  1  0  0  0  0
  3 31  1  0  0  0  0
  4  5  1  0  0  0  0
  4 19  2  0  0  0  0
  5  6  2  0  0  0  0
  5 32  1  0  0  0  0
  6  7  1  0  0  0  0
  6 33  1  0  0  0  0
  7  8  2  0  0  0  0
  7 34  1  0  0  0  0
  8  9  1  0  0  0  0
  8 19  1  0  0  0  0
  9 10  1  0  0  0  0
 10 11  1  0  0  0  0
 10 18  2  0  0  0  0
 11 12  2  0  0  0  0
 11 35  1  0  0  0  0
 12 13  1  0  0  0  0
 12 36  1  0  0  0  0
 13 14  2  0  0  0  0
 14 15  1  0  0  0  0
 14 18  1  0  0  0  0
 15 16  2  0  0  0  0
 15 37  1  0  0  0  0
 16 17  1  0  0  0  0
 16 38  1  0  0  0  0
 17 18  1  0  0  0  0
 19 39  1  0  0  0  0
 20 21  1  0  0  0  0
 20 40  1  0  0  0  0
 21 22  1  0  0  0  0
 21 30  2  0  0  0  0
 22 23  2  0  0  0  0
 22 41  1  0  0  0  0
 23 24  1  0  0  0  0
 23 42  1  0  0  0  0
 24 25  2  0  0  0  0
 24 43  1  0  0  0  0
 25 26  1  0  0  0  0
 25 30  1  0  0  0  0
 26 27  1  0  0  0  0
 26 28  1  0  0  0  0
 26 29  1  0  0  0  0
 30 44  1  0  0  0  0
M  END
$$$$
