CHEMBL3114030
 OpenBabel04072215363D

 49 52  0  0  0  0  0  0  0  0999 V2000
   -4.2918   -1.9877   -1.9850 C   0  0  0  0  0  0  0  0  0  0  0  0
   -3.3636   -3.0300   -1.4339 C   0  0  0  0  0  0  0  0  0  0  0  0
   -3.7054   -4.3878   -1.4897 C   0  0  0  0  0  0  0  0  0  0  0  0
   -2.8363   -5.3605   -0.9885 C   0  0  0  0  0  0  0  0  0  0  0  0
   -3.1751   -6.8196   -1.0399 C   0  0  0  0  0  0  0  0  0  0  0  0
   -1.6097   -4.9604   -0.4509 C   0  0  0  0  0  0  0  0  0  0  0  0
   -1.2187   -3.6131   -0.4220 C   0  0  0  0  0  0  0  0  0  0  0  0
    0.0269   -3.2123    0.1107 N   0  0  0  0  0  0  0  0  0  0  0  0
    1.2076   -3.9630    0.0424 C   0  0  0  0  0  0  0  0  0  0  0  0
    1.4030   -4.7708   -1.0084 N   0  0  0  0  0  0  0  0  0  0  0  0
    2.5482   -5.4561   -1.0396 C   0  0  0  0  0  0  0  0  0  0  0  0
    3.5025   -5.3677   -0.0621 C   0  0  0  0  0  0  0  0  0  0  0  0
    3.2414   -4.5332    1.0122 C   0  0  0  0  0  0  0  0  0  0  0  0
    4.1734   -4.4008    2.0737 N   0  0  0  0  0  0  0  0  0  0  0  0
    4.9823   -5.5770    2.4169 C   0  0  0  0  0  0  0  0  0  0  0  0
    4.2721   -3.2841    2.9632 C   0  0  0  0  0  0  0  0  0  0  0  0
    3.9670   -1.9586    2.4623 C   0  0  0  0  0  0  0  0  0  0  0  0
    3.9755   -0.7613    3.2194 C   0  0  0  0  0  0  0  0  0  0  0  0
    4.3137   -1.0210    4.5370 C   0  0  0  0  0  0  0  0  0  0  0  0
    4.3583   -0.1033    5.5499 C   0  0  0  0  0  0  0  0  0  0  0  0
    4.6931   -0.8312    6.6562 N   0  0  0  0  0  0  0  0  0  0  0  0
    4.7939   -0.3478    8.0123 C   0  0  0  0  0  0  0  0  0  0  0  0
    4.9095   -2.1406    6.4174 N   0  0  0  0  0  0  0  0  0  0  0  0
    4.6514   -2.2932    5.1071 C   0  0  0  0  0  0  0  0  0  0  0  0
    4.6610   -3.4576    4.3206 C   0  0  0  0  0  0  0  0  0  0  0  0
    2.0896   -3.8218    1.0459 N   0  0  0  0  0  0  0  0  0  0  0  0
   -2.1307   -2.6514   -0.8768 C   0  0  0  0  0  0  0  0  0  0  0  0
   -5.2080   -2.4362   -2.3836 H   0  0  0  0  0  0  0  0  0  0  0  0
   -3.8058   -1.4436   -2.8011 H   0  0  0  0  0  0  0  0  0  0  0  0
   -4.5792   -1.2818   -1.1995 H   0  0  0  0  0  0  0  0  0  0  0  0
   -4.6544   -4.6900   -1.9291 H   0  0  0  0  0  0  0  0  0  0  0  0
   -4.1740   -6.9883   -1.4555 H   0  0  0  0  0  0  0  0  0  0  0  0
   -3.1537   -7.2456   -0.0313 H   0  0  0  0  0  0  0  0  0  0  0  0
   -2.4527   -7.3510   -1.6684 H   0  0  0  0  0  0  0  0  0  0  0  0
   -0.9320   -5.7222   -0.0669 H   0  0  0  0  0  0  0  0  0  0  0  0
   -0.0425   -2.8257    1.0470 H   0  0  0  0  0  0  0  0  0  0  0  0
    2.6746   -6.1059   -1.9017 H   0  0  0  0  0  0  0  0  0  0  0  0
    4.4243   -5.9226   -0.1763 H   0  0  0  0  0  0  0  0  0  0  0  0
    4.7932   -6.4562    1.7934 H   0  0  0  0  0  0  0  0  0  0  0  0
    4.7838   -5.9345    3.4316 H   0  0  0  0  0  0  0  0  0  0  0  0
    6.0480   -5.3374    2.3218 H   0  0  0  0  0  0  0  0  0  0  0  0
    3.7082   -1.8580    1.4066 H   0  0  0  0  0  0  0  0  0  0  0  0
    3.7278    0.2043    2.8033 H   0  0  0  0  0  0  0  0  0  0  0  0
    4.1623    0.9583    5.5922 H   0  0  0  0  0  0  0  0  0  0  0  0
    4.6197    0.7299    8.0304 H   0  0  0  0  0  0  0  0  0  0  0  0
    5.7955   -0.5741    8.3864 H   0  0  0  0  0  0  0  0  0  0  0  0
    4.0363   -0.8593    8.6127 H   0  0  0  0  0  0  0  0  0  0  0  0
    4.9000   -4.3993    4.7861 H   0  0  0  0  0  0  0  0  0  0  0  0
   -1.8522   -1.6015   -0.8495 H   0  0  0  0  0  0  0  0  0  0  0  0
  1  2  1  0  0  0  0
  1 28  1  0  0  0  0
  1 29  1  0  0  0  0
  1 30  1  0  0  0  0
  2  3  1  0  0  0  0
  2 27  2  0  0  0  0
  3  4  2  0  0  0  0
  3 31  1  0  0  0  0
  4  5  1  0  0  0  0
  4  6  1  0  0  0  0
  5 32  1  0  0  0  0
  5 33  1  0  0  0  0
  5 34  1  0  0  0  0
  6  7  2  0  0  0  0
  6 35  1  0  0  0  0
  7  8  1  0  0  0  0
  7 27  1  0  0  0  0
  8  9  1  0  0  0  0
  8 36  1  0  0  0  0
  9 10  1  0  0  0  0
  9 26  2  0  0  0  0
 10 11  2  0  0  0  0
 11 12  1  0  0  0  0
 11 37  1  0  0  0  0
 12 13  2  0  0  0  0
 12 38  1  0  0  0  0
 13 14  1  0  0  0  0
 13 26  1  0  0  0  0
 14 15  1  0  0  0  0
 14 16  1  0  0  0  0
 15 39  1  0  0  0  0
 15 40  1  0  0  0  0
 15 41  1  0  0  0  0
 16 17  1  0  0  0  0
 16 25  2  0  0  0  0
 17 18  2  0  0  0  0
 17 42  1  0  0  0  0
 18 19  1  0  0  0  0
 18 43  1  0  0  0  0
 19 20  2  0  0  0  0
 19 24  1  0  0  0  0
 20 21  1  0  0  0  0
 20 44  1  0  0  0  0
 21 22  1  0  0  0  0
 21 23  1  0  0  0  0
 22 45  1  0  0  0  0
 22 46  1  0  0  0  0
 22 47  1  0  0  0  0
 23 24  2  0  0  0  0
 24 25  1  0  0  0  0
 25 48  1  0  0  0  0
 27 49  1  0  0  0  0
M  END
$$$$
