CHEMBL4790015
 OpenBabel04072215383D

 80 86  0  0  0  0  0  0  0  0999 V2000
    2.7439   -1.4361    0.5538 C   0  0  0  0  0  0  0  0  0  0  0  0
    2.4496   -0.1100    0.1166 O   0  0  0  0  0  0  0  0  0  0  0  0
    3.1799    0.4321   -0.9064 C   0  0  0  0  0  0  0  0  0  0  0  0
    4.3468   -0.1647   -1.4004 C   0  0  0  0  0  0  0  0  0  0  0  0
    5.0297    0.3152   -2.5012 C   0  0  0  0  0  0  0  0  0  0  0  0
    6.1256   -0.3446   -2.8843 N   0  0  0  0  0  0  0  0  0  0  0  0
    6.7647    0.1124   -3.9647 C   0  0  0  0  0  0  0  0  0  0  0  0
    6.4004    1.1597   -4.6984 N   0  0  0  0  0  0  0  0  0  0  0  0
    5.3317    1.8425   -4.2386 C   0  0  0  0  0  0  0  0  0  0  0  0
    5.0186    3.0318   -4.8855 O   0  0  0  0  0  0  0  0  0  0  0  0
    6.0850    3.8014   -5.3062 C   0  0  0  0  0  0  0  0  0  0  0  0
    5.9288    4.4868   -6.5116 C   0  0  0  0  0  0  0  0  0  0  0  0
    6.9286    5.3620   -6.9598 C   0  0  0  0  0  0  0  0  0  0  0  0
    8.0878    5.5816   -6.2034 C   0  0  0  0  0  0  0  0  0  0  0  0
    9.0205    6.5540   -6.6130 N   0  0  0  0  0  0  0  0  0  0  0  0
    9.8439    7.3603   -5.7910 C   0  0  0  0  0  0  0  0  0  0  0  0
    9.7316    7.2486   -4.4417 N   0  0  0  0  0  0  0  0  0  0  0  0
   10.6097    7.8863   -3.6456 C   0  0  0  0  0  0  0  0  0  0  0  0
   11.6627    8.6306   -4.1255 C   0  0  0  0  0  0  0  0  0  0  0  0
   11.7876    8.7616   -5.5025 C   0  0  0  0  0  0  0  0  0  0  0  0
   12.9088    9.3907   -6.0555 N   0  0  0  0  0  0  0  0  0  0  0  0
   13.0234    9.5554   -7.4029 C   0  0  0  0  0  0  0  0  0  0  0  0
   12.1159    9.2066   -8.3368 C   0  0  0  0  0  0  0  0  0  0  0  0
   12.3190    9.5840   -9.7633 C   0  0  0  0  0  0  0  0  0  0  0  0
   11.6990    8.8965  -10.8227 C   0  0  0  0  0  0  0  0  0  0  0  0
   11.9080    9.2755  -12.1559 C   0  0  0  0  0  0  0  0  0  0  0  0
   12.7455   10.3414  -12.4512 C   0  0  0  0  0  0  0  0  0  0  0  0
   12.9585   10.6945  -13.7254 F   0  0  0  0  0  0  0  0  0  0  0  0
   13.3587   11.0543  -11.4352 C   0  0  0  0  0  0  0  0  0  0  0  0
   13.1322   10.6894  -10.1046 C   0  0  0  0  0  0  0  0  0  0  0  0
   10.9013    8.4745   -7.8066 C   0  0  0  0  0  0  0  0  0  0  0  0
    9.9454    8.1850   -8.5235 O   0  0  0  0  0  0  0  0  0  0  0  0
   10.8391    8.1684   -6.3483 C   0  0  0  0  0  0  0  0  0  0  0  0
    8.2627    4.8280   -5.0372 C   0  0  0  0  0  0  0  0  0  0  0  0
    7.2592    3.9851   -4.5735 C   0  0  0  0  0  0  0  0  0  0  0  0
    7.4436    3.3880   -3.3848 F   0  0  0  0  0  0  0  0  0  0  0  0
    4.5439    1.4526   -3.1493 C   0  0  0  0  0  0  0  0  0  0  0  0
    3.3878    2.1062   -2.6439 C   0  0  0  0  0  0  0  0  0  0  0  0
    2.7417    1.6369   -1.4918 C   0  0  0  0  0  0  0  0  0  0  0  0
    1.7282    2.4565   -1.0342 O   0  0  0  0  0  0  0  0  0  0  0  0
    1.5678    2.4540    0.3883 C   0  0  0  0  0  0  0  0  0  0  0  0
    1.1143    3.8100    0.9569 C   0  0  0  0  0  0  0  0  0  0  0  0
    1.0813    3.6625    2.4923 C   0  0  0  0  0  0  0  0  0  0  0  0
    0.6786    4.8278    3.2955 N   0  0  0  0  0  0  0  0  0  0  0  0
    1.6370    5.9430    3.2492 C   0  0  0  0  0  0  0  0  0  0  0  0
    2.6693    5.6367    4.3179 C   0  0  0  0  0  0  0  0  0  0  0  0
    1.8431    5.0178    5.4263 C   0  0  0  0  0  0  0  0  0  0  0  0
    0.6167    4.4384    4.7269 C   0  0  0  0  0  0  0  0  0  0  0  0
    3.3806   -1.3949    1.4431 H   0  0  0  0  0  0  0  0  0  0  0  0
    3.1958   -2.0786   -0.2072 H   0  0  0  0  0  0  0  0  0  0  0  0
    1.7994   -1.9142    0.8300 H   0  0  0  0  0  0  0  0  0  0  0  0
    4.7824   -1.0347   -0.9183 H   0  0  0  0  0  0  0  0  0  0  0  0
    7.6686   -0.4078   -4.2594 H   0  0  0  0  0  0  0  0  0  0  0  0
    5.0252    4.3546   -7.0985 H   0  0  0  0  0  0  0  0  0  0  0  0
    6.7767    5.8986   -7.8936 H   0  0  0  0  0  0  0  0  0  0  0  0
    8.7930    7.0363   -7.4844 H   0  0  0  0  0  0  0  0  0  0  0  0
   10.4500    7.7498   -2.5802 H   0  0  0  0  0  0  0  0  0  0  0  0
   12.3631    9.0897   -3.4389 H   0  0  0  0  0  0  0  0  0  0  0  0
   13.5261    9.9226   -5.4478 H   0  0  0  0  0  0  0  0  0  0  0  0
   13.9620   10.0372   -7.6567 H   0  0  0  0  0  0  0  0  0  0  0  0
   11.0336    8.0545  -10.6338 H   0  0  0  0  0  0  0  0  0  0  0  0
   11.4168    8.7432  -12.9639 H   0  0  0  0  0  0  0  0  0  0  0  0
   14.0030   11.8949  -11.6732 H   0  0  0  0  0  0  0  0  0  0  0  0
   13.6023   11.2990   -9.3401 H   0  0  0  0  0  0  0  0  0  0  0  0
    9.1702    4.9076   -4.4475 H   0  0  0  0  0  0  0  0  0  0  0  0
    3.0070    2.9987   -3.1377 H   0  0  0  0  0  0  0  0  0  0  0  0
    2.5197    2.2191    0.8800 H   0  0  0  0  0  0  0  0  0  0  0  0
    0.8188    1.6962    0.6464 H   0  0  0  0  0  0  0  0  0  0  0  0
    0.1280    4.0813    0.5600 H   0  0  0  0  0  0  0  0  0  0  0  0
    1.8086    4.5933    0.6340 H   0  0  0  0  0  0  0  0  0  0  0  0
    2.0565    3.2936    2.8326 H   0  0  0  0  0  0  0  0  0  0  0  0
    0.3556    2.8634    2.6984 H   0  0  0  0  0  0  0  0  0  0  0  0
    1.1043    6.8653    3.5174 H   0  0  0  0  0  0  0  0  0  0  0  0
    2.0867    6.1122    2.2679 H   0  0  0  0  0  0  0  0  0  0  0  0
    3.2049    6.5291    4.6554 H   0  0  0  0  0  0  0  0  0  0  0  0
    3.4087    4.9162    3.9500 H   0  0  0  0  0  0  0  0  0  0  0  0
    1.5365    5.7865    6.1457 H   0  0  0  0  0  0  0  0  0  0  0  0
    2.4117    4.2563    5.9703 H   0  0  0  0  0  0  0  0  0  0  0  0
   -0.2953    4.8472    5.1761 H   0  0  0  0  0  0  0  0  0  0  0  0
    0.5731    3.3519    4.8731 H   0  0  0  0  0  0  0  0  0  0  0  0
  1  2  1  0  0  0  0
  1 49  1  0  0  0  0
  1 50  1  0  0  0  0
  1 51  1  0  0  0  0
  2  3  1  0  0  0  0
  3  4  1  0  0  0  0
  3 39  2  0  0  0  0
  4  5  2  0  0  0  0
  4 52  1  0  0  0  0
  5  6  1  0  0  0  0
  5 37  1  0  0  0  0
  6  7  2  0  0  0  0
  7  8  1  0  0  0  0
  7 53  1  0  0  0  0
  8  9  2  0  0  0  0
  9 10  1  0  0  0  0
  9 37  1  0  0  0  0
 10 11  1  0  0  0  0
 11 12  1  0  0  0  0
 11 35  2  0  0  0  0
 12 13  2  0  0  0  0
 12 54  1  0  0  0  0
 13 14  1  0  0  0  0
 13 55  1  0  0  0  0
 14 15  1  0  0  0  0
 14 34  2  0  0  0  0
 15 16  1  0  0  0  0
 15 56  1  0  0  0  0
 16 17  1  0  0  0  0
 16 33  2  0  0  0  0
 17 18  2  0  0  0  0
 18 19  1  0  0  0  0
 18 57  1  0  0  0  0
 19 20  2  0  0  0  0
 19 58  1  0  0  0  0
 20 21  1  0  0  0  0
 20 33  1  0  0  0  0
 21 22  1  0  0  0  0
 21 59  1  0  0  0  0
 22 23  2  0  0  0  0
 22 60  1  0  0  0  0
 23 24  1  0  0  0  0
 23 31  1  0  0  0  0
 24 25  1  0  0  0  0
 24 30  2  0  0  0  0
 25 26  2  0  0  0  0
 25 61  1  0  0  0  0
 26 27  1  0  0  0  0
 26 62  1  0  0  0  0
 27 28  1  0  0  0  0
 27 29  2  0  0  0  0
 29 30  1  0  0  0  0
 29 63  1  0  0  0  0
 30 64  1  0  0  0  0
 31 32  2  0  0  0  0
 31 33  1  0  0  0  0
 34 35  1  0  0  0  0
 34 65  1  0  0  0  0
 35 36  1  0  0  0  0
 37 38  2  0  0  0  0
 38 39  1  0  0  0  0
 38 66  1  0  0  0  0
 39 40  1  0  0  0  0
 40 41  1  0  0  0  0
 41 42  1  0  0  0  0
 41 67  1  0  0  0  0
 41 68  1  0  0  0  0
 42 43  1  0  0  0  0
 42 69  1  0  0  0  0
 42 70  1  0  0  0  0
 43 44  1  0  0  0  0
 43 71  1  0  0  0  0
 43 72  1  0  0  0  0
 44 45  1  0  0  0  0
 44 48  1  0  0  0  0
 45 46  1  0  0  0  0
 45 73  1  0  0  0  0
 45 74  1  0  0  0  0
 46 47  1  0  0  0  0
 46 75  1  0  0  0  0
 46 76  1  0  0  0  0
 47 48  1  0  0  0  0
 47 77  1  0  0  0  0
 47 78  1  0  0  0  0
 48 79  1  0  0  0  0
 48 80  1  0  0  0  0
M  END
$$$$
