CHEMBL4098962
 OpenBabel04072215383D

 77 82  0  0  0  0  0  0  0  0999 V2000
    1.1463    1.5230    1.0934 C   0  0  0  0  0  0  0  0  0  0  0  0
    2.5451    1.2929    0.9094 O   0  0  0  0  0  0  0  0  0  0  0  0
    3.0838    0.5007    1.8531 C   0  0  0  0  0  0  0  0  0  0  0  0
    2.4898    0.0051    2.8054 O   0  0  0  0  0  0  0  0  0  0  0  0
    4.5434    0.2922    1.6152 C   0  0  0  0  0  0  0  0  0  0  0  0
    5.2553    0.8973    0.5529 C   0  0  0  0  0  0  0  0  0  0  0  0
    6.6513    0.7632    0.4319 C   0  0  0  0  0  0  0  0  0  0  0  0
    7.3382    0.0356    1.3862 C   0  0  0  0  0  0  0  0  0  0  0  0
    6.6015   -0.5892    2.4069 C   0  0  0  0  0  0  0  0  0  0  0  0
    5.2349   -0.4886    2.5461 C   0  0  0  0  0  0  0  0  0  0  0  0
    7.4364   -1.2153    3.3217 N   0  0  0  0  0  0  0  0  0  0  0  0
    8.7625   -0.9427    3.0436 C   0  0  0  0  0  0  0  0  0  0  0  0
    9.6784   -1.0436    3.8386 O   0  0  0  0  0  0  0  0  0  0  0  0
    8.7587   -0.2848    1.6763 C   0  0  0  0  0  0  0  0  0  0  0  0
    9.9235   -0.0671    1.0245 C   0  0  0  0  0  0  0  0  0  0  0  0
   11.1762   -0.6214    1.2980 N   0  0  0  0  0  0  0  0  0  0  0  0
   11.4318   -2.0003    1.4632 C   0  0  0  0  0  0  0  0  0  0  0  0
   10.7717   -2.9518    0.6796 C   0  0  0  0  0  0  0  0  0  0  0  0
   10.8781   -4.3201    0.9517 C   0  0  0  0  0  0  0  0  0  0  0  0
   11.6696   -4.7859    2.0063 C   0  0  0  0  0  0  0  0  0  0  0  0
   11.6563   -6.2470    2.3964 C   0  0  0  0  0  0  0  0  0  0  0  0
   12.6829   -7.0526    1.7387 N   0  0  0  0  0  0  0  0  0  0  0  0
   13.9467   -7.2331    2.2614 C   0  0  0  0  0  0  0  0  0  0  0  0
   14.6738   -8.0081    1.3899 C   0  0  0  0  0  0  0  0  0  0  0  0
   13.7953   -8.4058    0.3632 C   0  0  0  0  0  0  0  0  0  0  0  0
   12.5522   -7.8393    0.6079 C   0  0  0  0  0  0  0  0  0  0  0  0
   11.2988   -7.9995   -0.2024 C   0  0  0  0  0  0  0  0  0  0  0  0
   11.1507   -6.9367   -1.1998 N   0  0  0  0  0  0  0  0  0  0  0  0
   12.2626   -6.8973   -2.1691 C   0  0  0  0  0  0  0  0  0  0  0  0
   12.0866   -5.7548   -3.1929 C   0  0  0  0  0  0  0  0  0  0  0  0
   10.8117   -5.7759   -3.9359 N   0  0  0  0  0  0  0  0  0  0  0  0
   10.8079   -6.8198   -4.9563 C   0  0  0  0  0  0  0  0  0  0  0  0
    9.6997   -5.9307   -2.9771 C   0  0  0  0  0  0  0  0  0  0  0  0
    9.8764   -7.0610   -1.9313 C   0  0  0  0  0  0  0  0  0  0  0  0
   12.4052   -3.8423    2.7380 C   0  0  0  0  0  0  0  0  0  0  0  0
   12.2854   -2.4665    2.4702 C   0  0  0  0  0  0  0  0  0  0  0  0
    9.9656    0.8691   -0.1149 C   0  0  0  0  0  0  0  0  0  0  0  0
   10.2308    2.2253    0.1270 C   0  0  0  0  0  0  0  0  0  0  0  0
   10.3073    3.1274   -0.9344 C   0  0  0  0  0  0  0  0  0  0  0  0
   10.1279    2.6789   -2.2413 C   0  0  0  0  0  0  0  0  0  0  0  0
    9.8734    1.3298   -2.4912 C   0  0  0  0  0  0  0  0  0  0  0  0
    9.7945    0.4246   -1.4310 C   0  0  0  0  0  0  0  0  0  0  0  0
    0.7612    2.0151    0.1950 H   0  0  0  0  0  0  0  0  0  0  0  0
    0.9779    2.1813    1.9513 H   0  0  0  0  0  0  0  0  0  0  0  0
    0.6067    0.5778    1.2220 H   0  0  0  0  0  0  0  0  0  0  0  0
    4.7226    1.5125   -0.1729 H   0  0  0  0  0  0  0  0  0  0  0  0
    7.1677    1.2568   -0.3875 H   0  0  0  0  0  0  0  0  0  0  0  0
    4.7164   -0.9697    3.3759 H   0  0  0  0  0  0  0  0  0  0  0  0
    7.1477   -1.6028    4.2047 H   0  0  0  0  0  0  0  0  0  0  0  0
   11.8196    0.0083    1.7631 H   0  0  0  0  0  0  0  0  0  0  0  0
   10.1539   -2.6314   -0.1538 H   0  0  0  0  0  0  0  0  0  0  0  0
   10.3018   -5.0116    0.3454 H   0  0  0  0  0  0  0  0  0  0  0  0
   10.6768   -6.6960    2.2048 H   0  0  0  0  0  0  0  0  0  0  0  0
   11.8173   -6.3422    3.4786 H   0  0  0  0  0  0  0  0  0  0  0  0
   14.2342   -6.7687    3.1951 H   0  0  0  0  0  0  0  0  0  0  0  0
   15.7178   -8.2725    1.4909 H   0  0  0  0  0  0  0  0  0  0  0  0
   14.0369   -9.0305   -0.4875 H   0  0  0  0  0  0  0  0  0  0  0  0
   10.4340   -7.9992    0.4712 H   0  0  0  0  0  0  0  0  0  0  0  0
   11.3029   -8.9870   -0.6835 H   0  0  0  0  0  0  0  0  0  0  0  0
   12.3565   -7.8602   -2.6884 H   0  0  0  0  0  0  0  0  0  0  0  0
   13.2137   -6.7063   -1.6627 H   0  0  0  0  0  0  0  0  0  0  0  0
   12.9341   -5.7556   -3.8895 H   0  0  0  0  0  0  0  0  0  0  0  0
   12.1495   -4.7992   -2.6552 H   0  0  0  0  0  0  0  0  0  0  0  0
   11.6370   -6.6677   -5.6573 H   0  0  0  0  0  0  0  0  0  0  0  0
    9.8889   -6.7662   -5.5498 H   0  0  0  0  0  0  0  0  0  0  0  0
   10.8924   -7.8313   -4.5469 H   0  0  0  0  0  0  0  0  0  0  0  0
    8.7535   -6.0689   -3.5139 H   0  0  0  0  0  0  0  0  0  0  0  0
    9.5939   -4.9797   -2.4370 H   0  0  0  0  0  0  0  0  0  0  0  0
    9.8079   -8.0367   -2.4294 H   0  0  0  0  0  0  0  0  0  0  0  0
    9.0403   -6.9995   -1.2240 H   0  0  0  0  0  0  0  0  0  0  0  0
   13.0389   -4.1635    3.5620 H   0  0  0  0  0  0  0  0  0  0  0  0
   12.8203   -1.7640    3.1043 H   0  0  0  0  0  0  0  0  0  0  0  0
   10.3922    2.5793    1.1422 H   0  0  0  0  0  0  0  0  0  0  0  0
   10.5212    4.1752   -0.7406 H   0  0  0  0  0  0  0  0  0  0  0  0
   10.1983    3.3798   -3.0694 H   0  0  0  0  0  0  0  0  0  0  0  0
    9.7496    0.9791   -3.5120 H   0  0  0  0  0  0  0  0  0  0  0  0
    9.6120   -0.6273   -1.6356 H   0  0  0  0  0  0  0  0  0  0  0  0
  1  2  1  0  0  0  0
  1 43  1  0  0  0  0
  1 44  1  0  0  0  0
  1 45  1  0  0  0  0
  2  3  1  0  0  0  0
  3  4  2  0  0  0  0
  3  5  1  0  0  0  0
  5  6  1  0  0  0  0
  5 10  2  0  0  0  0
  6  7  2  0  0  0  0
  6 46  1  0  0  0  0
  7  8  1  0  0  0  0
  7 47  1  0  0  0  0
  8  9  2  0  0  0  0
  8 14  1  0  0  0  0
  9 10  1  0  0  0  0
  9 11  1  0  0  0  0
 10 48  1  0  0  0  0
 11 12  1  0  0  0  0
 11 49  1  0  0  0  0
 12 13  2  0  0  0  0
 12 14  1  0  0  0  0
 14 15  2  0  0  0  0
 15 16  1  0  0  0  0
 15 37  1  0  0  0  0
 16 17  1  0  0  0  0
 16 50  1  0  0  0  0
 17 18  1  0  0  0  0
 17 36  2  0  0  0  0
 18 19  2  0  0  0  0
 18 51  1  0  0  0  0
 19 20  1  0  0  0  0
 19 52  1  0  0  0  0
 20 21  1  0  0  0  0
 20 35  2  0  0  0  0
 21 22  1  0  0  0  0
 21 53  1  0  0  0  0
 21 54  1  0  0  0  0
 22 23  1  0  0  0  0
 22 26  1  0  0  0  0
 23 24  2  0  0  0  0
 23 55  1  0  0  0  0
 24 25  1  0  0  0  0
 24 56  1  0  0  0  0
 25 26  2  0  0  0  0
 25 57  1  0  0  0  0
 26 27  1  0  0  0  0
 27 28  1  0  0  0  0
 27 58  1  0  0  0  0
 27 59  1  0  0  0  0
 28 29  1  0  0  0  0
 28 34  1  0  0  0  0
 29 30  1  0  0  0  0
 29 60  1  0  0  0  0
 29 61  1  0  0  0  0
 30 31  1  0  0  0  0
 30 62  1  0  0  0  0
 30 63  1  0  0  0  0
 31 32  1  0  0  0  0
 31 33  1  0  0  0  0
 32 64  1  0  0  0  0
 32 65  1  0  0  0  0
 32 66  1  0  0  0  0
 33 34  1  0  0  0  0
 33 67  1  0  0  0  0
 33 68  1  0  0  0  0
 34 69  1  0  0  0  0
 34 70  1  0  0  0  0
 35 36  1  0  0  0  0
 35 71  1  0  0  0  0
 36 72  1  0  0  0  0
 37 38  1  0  0  0  0
 37 42  2  0  0  0  0
 38 39  2  0  0  0  0
 38 73  1  0  0  0  0
 39 40  1  0  0  0  0
 39 74  1  0  0  0  0
 40 41  2  0  0  0  0
 40 75  1  0  0  0  0
 41 42  1  0  0  0  0
 41 76  1  0  0  0  0
 42 77  1  0  0  0  0
M  END
$$$$
