CHEMBL2088110
 OpenBabel04072215363D

 37 39  0  0  0  0  0  0  0  0999 V2000
   -1.3680   -0.8489   -5.3601 C   0  0  0  0  0  0  0  0  0  0  0  0
   -1.9426   -0.9648   -3.9983 C   0  0  0  0  0  0  0  0  0  0  0  0
   -1.3040   -1.2462   -2.7705 C   0  0  0  0  0  0  0  0  0  0  0  0
   -2.3407   -1.4108   -1.8792 C   0  0  0  0  0  0  0  0  0  0  0  0
   -2.4417   -1.7734   -0.4409 C   0  0  0  0  0  0  0  0  0  0  0  0
   -2.0923   -3.1447   -0.1110 N   0  0  0  0  0  0  0  0  0  0  0  0
   -3.1431   -4.0513   -0.0797 C   0  0  0  0  0  0  0  0  0  0  0  0
   -3.0114   -5.0300    0.8245 N   0  0  0  0  0  0  0  0  0  0  0  0
   -3.9790   -5.9535    0.8549 C   0  0  0  0  0  0  0  0  0  0  0  0
   -5.0874   -5.9259    0.0445 C   0  0  0  0  0  0  0  0  0  0  0  0
   -5.1577   -4.8745   -0.8493 C   0  0  0  0  0  0  0  0  0  0  0  0
   -6.2444   -4.8652   -1.7489 N   0  0  0  0  0  0  0  0  0  0  0  0
   -6.3827   -4.2405   -2.9330 C   0  0  0  0  0  0  0  0  0  0  0  0
   -5.3479   -3.6890   -3.7213 C   0  0  0  0  0  0  0  0  0  0  0  0
   -5.9691   -3.1672   -4.8387 C   0  0  0  0  0  0  0  0  0  0  0  0
   -5.5025   -2.3953   -6.0080 C   0  0  0  0  0  0  0  0  0  0  0  0
   -4.0909   -2.3828   -5.9985 O   0  0  0  0  0  0  0  0  0  0  0  0
   -7.2881   -3.4730   -4.6795 N   0  0  0  0  0  0  0  0  0  0  0  0
   -7.5677   -4.1147   -3.5348 N   0  0  0  0  0  0  0  0  0  0  0  0
   -4.1866   -3.9394   -0.9091 N   0  0  0  0  0  0  0  0  0  0  0  0
   -3.5152   -1.1588   -2.5139 O   0  0  0  0  0  0  0  0  0  0  0  0
   -3.2676   -0.8556   -3.8366 N   0  0  0  0  0  0  0  0  0  0  0  0
   -0.3086   -0.5852   -5.3318 H   0  0  0  0  0  0  0  0  0  0  0  0
   -1.8986   -0.0901   -5.9456 H   0  0  0  0  0  0  0  0  0  0  0  0
   -1.4629   -1.8051   -5.8888 H   0  0  0  0  0  0  0  0  0  0  0  0
   -0.2492   -1.3644   -2.5748 H   0  0  0  0  0  0  0  0  0  0  0  0
   -3.4269   -1.4985   -0.0406 H   0  0  0  0  0  0  0  0  0  0  0  0
   -1.7320   -1.1276    0.0928 H   0  0  0  0  0  0  0  0  0  0  0  0
   -1.6161   -3.2654    0.7755 H   0  0  0  0  0  0  0  0  0  0  0  0
   -3.8335   -6.7640    1.5662 H   0  0  0  0  0  0  0  0  0  0  0  0
   -5.8361   -6.7047    0.0806 H   0  0  0  0  0  0  0  0  0  0  0  0
   -7.1200   -5.1114   -1.3067 H   0  0  0  0  0  0  0  0  0  0  0  0
   -4.2920   -3.6626   -3.4953 H   0  0  0  0  0  0  0  0  0  0  0  0
   -5.8644   -1.3611   -5.9707 H   0  0  0  0  0  0  0  0  0  0  0  0
   -5.8357   -2.8488   -6.9435 H   0  0  0  0  0  0  0  0  0  0  0  0
   -3.8607   -1.9209   -5.1659 H   0  0  0  0  0  0  0  0  0  0  0  0
   -8.0520   -3.2728   -5.3128 H   0  0  0  0  0  0  0  0  0  0  0  0
  1  2  1  0  0  0  0
  1 23  1  0  0  0  0
  1 24  1  0  0  0  0
  1 25  1  0  0  0  0
  2  3  1  0  0  0  0
  2 22  2  0  0  0  0
  3  4  2  0  0  0  0
  3 26  1  0  0  0  0
  4  5  1  0  0  0  0
  4 21  1  0  0  0  0
  5  6  1  0  0  0  0
  5 27  1  0  0  0  0
  5 28  1  0  0  0  0
  6  7  1  0  0  0  0
  6 29  1  0  0  0  0
  7  8  1  0  0  0  0
  7 20  2  0  0  0  0
  8  9  2  0  0  0  0
  9 10  1  0  0  0  0
  9 30  1  0  0  0  0
 10 11  2  0  0  0  0
 10 31  1  0  0  0  0
 11 12  1  0  0  0  0
 11 20  1  0  0  0  0
 12 13  1  0  0  0  0
 12 32  1  0  0  0  0
 13 14  1  0  0  0  0
 13 19  2  0  0  0  0
 14 15  2  0  0  0  0
 14 33  1  0  0  0  0
 15 16  1  0  0  0  0
 15 18  1  0  0  0  0
 16 17  1  0  0  0  0
 16 34  1  0  0  0  0
 16 35  1  0  0  0  0
 17 36  1  0  0  0  0
 18 19  1  0  0  0  0
 18 37  1  0  0  0  0
 21 22  1  0  0  0  0
M  END
$$$$
