CHEMBL1233881
 OpenBabel04072215363D

 43 46  0  0  0  0  0  0  0  0999 V2000
    3.3616   -0.6468    1.1175 C   0  0  0  0  0  0  0  0  0  0  0  0
    2.9472    0.4918    0.3696 O   0  0  0  0  0  0  0  0  0  0  0  0
    3.5888    0.7066   -0.8212 C   0  0  0  0  0  0  0  0  0  0  0  0
    4.1843   -0.3368   -1.5373 C   0  0  0  0  0  0  0  0  0  0  0  0
    4.7923   -0.1039   -2.7695 C   0  0  0  0  0  0  0  0  0  0  0  0
    4.7357    1.1516   -3.3712 C   0  0  0  0  0  0  0  0  0  0  0  0
    5.3011    1.3665   -4.7073 C   0  0  0  0  0  0  0  0  0  0  0  0
    5.8470    2.5566   -5.0142 N   0  0  0  0  0  0  0  0  0  0  0  0
    6.3335    2.3973   -6.2621 N   0  0  0  0  0  0  0  0  0  0  0  0
    7.0556    3.4320   -6.9650 C   0  0  0  0  0  0  0  0  0  0  0  0
    8.2810    3.9484   -6.1500 C   0  0  0  0  0  0  0  0  0  0  0  0
    7.9050    5.3712   -6.5983 C   0  0  0  0  0  0  0  0  0  0  0  0
    6.4629    4.8589   -6.7604 C   0  0  0  0  0  0  0  0  0  0  0  0
    6.1005    1.1508   -6.7852 C   0  0  0  0  0  0  0  0  0  0  0  0
    6.4845    0.6865   -7.9850 N   0  0  0  0  0  0  0  0  0  0  0  0
    6.1068   -0.5866   -8.1691 C   0  0  0  0  0  0  0  0  0  0  0  0
    5.4033   -1.3657   -7.3299 N   0  0  0  0  0  0  0  0  0  0  0  0
    5.0233   -0.8603   -6.1365 C   0  0  0  0  0  0  0  0  0  0  0  0
    4.2806   -1.7169   -5.3362 N   0  0  0  0  0  0  0  0  0  0  0  0
    5.3999    0.4533   -5.8115 C   0  0  0  0  0  0  0  0  0  0  0  0
    4.1539    2.2038   -2.6507 C   0  0  0  0  0  0  0  0  0  0  0  0
    3.6059    2.0004   -1.3692 C   0  0  0  0  0  0  0  0  0  0  0  0
    3.1341    3.1592   -0.8046 O   0  0  0  0  0  0  0  0  0  0  0  0
    2.8836    3.1638    0.5944 C   0  0  0  0  0  0  0  0  0  0  0  0
    2.9016   -0.5835    2.1075 H   0  0  0  0  0  0  0  0  0  0  0  0
    4.4491   -0.6582    1.2518 H   0  0  0  0  0  0  0  0  0  0  0  0
    3.0110   -1.5734    0.6517 H   0  0  0  0  0  0  0  0  0  0  0  0
    4.1889   -1.3570   -1.1699 H   0  0  0  0  0  0  0  0  0  0  0  0
    5.3089   -0.9326   -3.2464 H   0  0  0  0  0  0  0  0  0  0  0  0
    7.3089    3.1927   -8.0042 H   0  0  0  0  0  0  0  0  0  0  0  0
    9.2557    3.5965   -6.5013 H   0  0  0  0  0  0  0  0  0  0  0  0
    8.2348    3.8100   -5.0634 H   0  0  0  0  0  0  0  0  0  0  0  0
    8.3753    5.6804   -7.5382 H   0  0  0  0  0  0  0  0  0  0  0  0
    8.0488    6.1556   -5.8507 H   0  0  0  0  0  0  0  0  0  0  0  0
    5.9224    5.2671   -7.6197 H   0  0  0  0  0  0  0  0  0  0  0  0
    5.8504    5.0136   -5.8646 H   0  0  0  0  0  0  0  0  0  0  0  0
    6.4035   -1.0478   -9.1082 H   0  0  0  0  0  0  0  0  0  0  0  0
    3.9864   -2.5327   -5.8625 H   0  0  0  0  0  0  0  0  0  0  0  0
    3.5556   -1.2693   -4.7888 H   0  0  0  0  0  0  0  0  0  0  0  0
    4.1367    3.2061   -3.0745 H   0  0  0  0  0  0  0  0  0  0  0  0
    2.8244    4.2069    0.9197 H   0  0  0  0  0  0  0  0  0  0  0  0
    3.6937    2.6989    1.1671 H   0  0  0  0  0  0  0  0  0  0  0  0
    1.9156    2.7001    0.8066 H   0  0  0  0  0  0  0  0  0  0  0  0
  1  2  1  0  0  0  0
  1 25  1  0  0  0  0
  1 26  1  0  0  0  0
  1 27  1  0  0  0  0
  2  3  1  0  0  0  0
  3  4  1  0  0  0  0
  3 22  2  0  0  0  0
  4  5  2  0  0  0  0
  4 28  1  0  0  0  0
  5  6  1  0  0  0  0
  5 29  1  0  0  0  0
  6  7  1  0  0  0  0
  6 21  2  0  0  0  0
  7  8  2  0  0  0  0
  7 20  1  0  0  0  0
  8  9  1  0  0  0  0
  9 10  1  0  0  0  0
  9 14  1  0  0  0  0
 10 11  1  0  0  0  0
 10 13  1  0  0  0  0
 10 30  1  0  0  0  0
 11 12  1  0  0  0  0
 11 31  1  0  0  0  0
 11 32  1  0  0  0  0
 12 13  1  0  0  0  0
 12 33  1  0  0  0  0
 12 34  1  0  0  0  0
 13 35  1  0  0  0  0
 13 36  1  0  0  0  0
 14 15  1  0  0  0  0
 14 20  2  0  0  0  0
 15 16  2  0  0  0  0
 16 17  1  0  0  0  0
 16 37  1  0  0  0  0
 17 18  2  0  0  0  0
 18 19  1  0  0  0  0
 18 20  1  0  0  0  0
 19 38  1  0  0  0  0
 19 39  1  0  0  0  0
 21 22  1  0  0  0  0
 21 40  1  0  0  0  0
 22 23  1  0  0  0  0
 23 24  1  0  0  0  0
 24 41  1  0  0  0  0
 24 42  1  0  0  0  0
 24 43  1  0  0  0  0
M  END
$$$$
