CHEMBL374752
 OpenBabel04072215373D

 46 49  0  0  0  0  0  0  0  0999 V2000
    2.3423   -0.4511    1.5857 C   0  0  0  0  0  0  0  0  0  0  0  0
    0.8470   -0.3187    1.5321 C   0  0  0  0  0  0  0  0  0  0  0  0
    0.2491    0.8870    1.9274 C   0  0  0  0  0  0  0  0  0  0  0  0
   -1.1339    1.0200    1.8848 C   0  0  0  0  0  0  0  0  0  0  0  0
   -1.9253   -0.0392    1.4535 C   0  0  0  0  0  0  0  0  0  0  0  0
   -1.3583   -1.2522    1.0337 C   0  0  0  0  0  0  0  0  0  0  0  0
   -2.1271   -2.3491    0.5843 N   0  0  0  0  0  0  0  0  0  0  0  0
   -3.4863   -2.3228    0.3352 C   0  0  0  0  0  0  0  0  0  0  0  0
   -4.1887   -1.3212    0.3681 O   0  0  0  0  0  0  0  0  0  0  0  0
   -3.9962   -3.5923    0.0804 N   0  0  0  0  0  0  0  0  0  0  0  0
   -5.3853   -3.7681   -0.1519 C   0  0  0  0  0  0  0  0  0  0  0  0
   -6.1166   -2.8728   -0.9350 C   0  0  0  0  0  0  0  0  0  0  0  0
   -7.5132   -2.9518   -0.9992 C   0  0  0  0  0  0  0  0  0  0  0  0
   -8.2190   -3.9469   -0.3060 C   0  0  0  0  0  0  0  0  0  0  0  0
   -9.6987   -4.0040   -0.3153 C   0  0  0  0  0  0  0  0  0  0  0  0
  -10.4489   -3.6653   -1.4729 C   0  0  0  0  0  0  0  0  0  0  0  0
  -11.8335   -3.8338   -1.5431 C   0  0  0  0  0  0  0  0  0  0  0  0
  -12.5186   -4.3936   -0.4761 C   0  0  0  0  0  0  0  0  0  0  0  0
  -13.8351   -4.6213   -0.5557 F   0  0  0  0  0  0  0  0  0  0  0  0
  -11.8073   -4.6895    0.6785 C   0  0  0  0  0  0  0  0  0  0  0  0
  -12.2132   -5.2542    1.8524 N   0  0  0  0  0  0  0  0  0  0  0  0
  -11.2761   -5.2552    2.8089 N   0  0  0  0  0  0  0  0  0  0  0  0
  -10.2106   -4.7356    2.2058 C   0  0  0  0  0  0  0  0  0  0  0  0
   -9.0785   -4.4820    2.8813 N   0  0  0  0  0  0  0  0  0  0  0  0
  -10.4408   -4.4501    0.8204 C   0  0  0  0  0  0  0  0  0  0  0  0
   -7.4436   -4.9102    0.3703 C   0  0  0  0  0  0  0  0  0  0  0  0
   -6.0480   -4.8211    0.4635 C   0  0  0  0  0  0  0  0  0  0  0  0
    0.0405   -1.3900    1.0956 C   0  0  0  0  0  0  0  0  0  0  0  0
    2.8107    0.4591    1.9555 H   0  0  0  0  0  0  0  0  0  0  0  0
    2.7387   -0.6469    0.5844 H   0  0  0  0  0  0  0  0  0  0  0  0
    2.6269   -1.2681    2.2581 H   0  0  0  0  0  0  0  0  0  0  0  0
    0.8527    1.7216    2.2652 H   0  0  0  0  0  0  0  0  0  0  0  0
   -1.6018    1.9521    2.1894 H   0  0  0  0  0  0  0  0  0  0  0  0
   -2.9971    0.1204    1.4585 H   0  0  0  0  0  0  0  0  0  0  0  0
   -1.6222   -3.1695    0.2792 H   0  0  0  0  0  0  0  0  0  0  0  0
   -3.5278   -4.3438    0.5685 H   0  0  0  0  0  0  0  0  0  0  0  0
   -5.6141   -2.0747   -1.4775 H   0  0  0  0  0  0  0  0  0  0  0  0
   -8.0348   -2.1942   -1.5795 H   0  0  0  0  0  0  0  0  0  0  0  0
   -9.9421   -3.2839   -2.3581 H   0  0  0  0  0  0  0  0  0  0  0  0
  -12.3775   -3.5607   -2.4426 H   0  0  0  0  0  0  0  0  0  0  0  0
  -13.1267   -5.6379    2.0674 H   0  0  0  0  0  0  0  0  0  0  0  0
   -9.1481   -4.5180    3.8921 H   0  0  0  0  0  0  0  0  0  0  0  0
   -8.4619   -3.7452    2.5521 H   0  0  0  0  0  0  0  0  0  0  0  0
   -7.9295   -5.7381    0.8862 H   0  0  0  0  0  0  0  0  0  0  0  0
   -5.5198   -5.5393    1.0829 H   0  0  0  0  0  0  0  0  0  0  0  0
    0.5149   -2.3116    0.7819 H   0  0  0  0  0  0  0  0  0  0  0  0
  1  2  1  0  0  0  0
  1 29  1  0  0  0  0
  1 30  1  0  0  0  0
  1 31  1  0  0  0  0
  2  3  1  0  0  0  0
  2 28  2  0  0  0  0
  3  4  2  0  0  0  0
  3 32  1  0  0  0  0
  4  5  1  0  0  0  0
  4 33  1  0  0  0  0
  5  6  2  0  0  0  0
  5 34  1  0  0  0  0
  6  7  1  0  0  0  0
  6 28  1  0  0  0  0
  7  8  1  0  0  0  0
  7 35  1  0  0  0  0
  8  9  2  0  0  0  0
  8 10  1  0  0  0  0
 10 11  1  0  0  0  0
 10 36  1  0  0  0  0
 11 12  1  0  0  0  0
 11 27  2  0  0  0  0
 12 13  2  0  0  0  0
 12 37  1  0  0  0  0
 13 14  1  0  0  0  0
 13 38  1  0  0  0  0
 14 15  1  0  0  0  0
 14 26  2  0  0  0  0
 15 16  1  0  0  0  0
 15 25  2  0  0  0  0
 16 17  2  0  0  0  0
 16 39  1  0  0  0  0
 17 18  1  0  0  0  0
 17 40  1  0  0  0  0
 18 19  1  0  0  0  0
 18 20  2  0  0  0  0
 20 21  1  0  0  0  0
 20 25  1  0  0  0  0
 21 22  1  0  0  0  0
 21 41  1  0  0  0  0
 22 23  2  0  0  0  0
 23 24  1  0  0  0  0
 23 25  1  0  0  0  0
 24 42  1  0  0  0  0
 24 43  1  0  0  0  0
 26 27  1  0  0  0  0
 26 44  1  0  0  0  0
 27 45  1  0  0  0  0
 28 46  1  0  0  0  0
M  END
$$$$
