CHEMBL223971
 OpenBabel04072215363D

 52 56  0  0  0  0  0  0  0  0999 V2000
   16.7540   -3.7895   -2.4986 C   0  0  0  0  0  0  0  0  0  0  0  0
   15.3430   -3.9319   -2.5923 O   0  0  0  0  0  0  0  0  0  0  0  0
   14.7568   -2.9378   -3.4363 C   0  0  0  0  0  0  0  0  0  0  0  0
   13.2520   -3.1731   -3.4823 C   0  0  0  0  0  0  0  0  0  0  0  0
   12.5998   -2.2108   -4.3247 O   0  0  0  0  0  0  0  0  0  0  0  0
   11.1948   -2.4452   -4.3380 C   0  0  0  0  0  0  0  0  0  0  0  0
   10.5238   -1.4249   -5.1889 C   0  0  0  0  0  0  0  0  0  0  0  0
    9.9433   -0.5768   -5.8004 C   0  0  0  0  0  0  0  0  0  0  0  0
    9.2348    0.4890   -6.4524 C   0  0  0  0  0  0  0  0  0  0  0  0
    9.4829    0.9719   -7.7278 C   0  0  0  0  0  0  0  0  0  0  0  0
    8.6516    2.1065   -8.1172 C   0  0  0  0  0  0  0  0  0  0  0  0
    8.7967    2.7038   -9.5089 C   0  0  0  0  0  0  0  0  0  0  0  0
    9.9627    2.4339  -10.1218 N   0  0  0  0  0  0  0  0  0  0  0  0
    9.5757    1.5069  -11.0399 N   0  0  0  0  0  0  0  0  0  0  0  0
    8.1991    1.3563  -11.0744 C   0  0  0  0  0  0  0  0  0  0  0  0
    7.8185    2.6259  -10.5871 C   0  0  0  0  0  0  0  0  0  0  0  0
    6.3294    2.7331  -10.6876 C   0  0  0  0  0  0  0  0  0  0  0  0
    6.0882    1.3447  -10.1401 C   0  0  0  0  0  0  0  0  0  0  0  0
    5.1704    1.1165   -9.1327 C   0  0  0  0  0  0  0  0  0  0  0  0
    5.3439   -0.0173   -8.3643 C   0  0  0  0  0  0  0  0  0  0  0  0
    6.3697   -0.9521   -8.6519 C   0  0  0  0  0  0  0  0  0  0  0  0
    6.5034   -2.1044   -7.6726 C   0  0  0  0  0  0  0  0  0  0  0  0
    5.5438   -3.1779   -7.8812 N   0  0  0  0  0  0  0  0  0  0  0  0
    4.9356   -3.5854   -9.0310 C   0  0  0  0  0  0  0  0  0  0  0  0
    4.2313   -4.6666   -8.7998 N   0  0  0  0  0  0  0  0  0  0  0  0
    4.4268   -4.8847   -7.4686 C   0  0  0  0  0  0  0  0  0  0  0  0
    5.2199   -3.9978   -6.8576 N   0  0  0  0  0  0  0  0  0  0  0  0
    7.2883   -0.7286   -9.7228 C   0  0  0  0  0  0  0  0  0  0  0  0
    7.1729    0.4574  -10.4452 C   0  0  0  0  0  0  0  0  0  0  0  0
    7.7712    2.4101   -7.1069 C   0  0  0  0  0  0  0  0  0  0  0  0
    7.9474    1.3652   -5.7422 S   0  0  0  0  0  0  0  0  0  0  0  0
   17.1350   -4.5794   -1.8443 H   0  0  0  0  0  0  0  0  0  0  0  0
   17.0142   -2.8207   -2.0624 H   0  0  0  0  0  0  0  0  0  0  0  0
   17.2175   -3.8999   -3.4832 H   0  0  0  0  0  0  0  0  0  0  0  0
   15.1812   -3.0058   -4.4465 H   0  0  0  0  0  0  0  0  0  0  0  0
   14.9743   -1.9374   -3.0461 H   0  0  0  0  0  0  0  0  0  0  0  0
   12.8450   -3.1109   -2.4620 H   0  0  0  0  0  0  0  0  0  0  0  0
   13.0529   -4.1841   -3.8544 H   0  0  0  0  0  0  0  0  0  0  0  0
   10.8000   -2.3811   -3.3365 H   0  0  0  0  0  0  0  0  0  0  0  0
   10.9932   -3.4430   -4.7429 H   0  0  0  0  0  0  0  0  0  0  0  0
   10.2295    0.5288   -8.3829 H   0  0  0  0  0  0  0  0  0  0  0  0
   10.1876    1.4406  -11.8390 H   0  0  0  0  0  0  0  0  0  0  0  0
    6.0210    2.7501  -11.7431 H   0  0  0  0  0  0  0  0  0  0  0  0
    5.8664    3.5475  -10.1415 H   0  0  0  0  0  0  0  0  0  0  0  0
    4.4711    1.8928   -8.8346 H   0  0  0  0  0  0  0  0  0  0  0  0
    4.7406   -0.1197   -7.4629 H   0  0  0  0  0  0  0  0  0  0  0  0
    6.3214   -1.7238   -6.6571 H   0  0  0  0  0  0  0  0  0  0  0  0
    7.5014   -2.5462   -7.6823 H   0  0  0  0  0  0  0  0  0  0  0  0
    5.0422   -3.0810   -9.9811 H   0  0  0  0  0  0  0  0  0  0  0  0
    3.9862   -5.7158   -6.9264 H   0  0  0  0  0  0  0  0  0  0  0  0
    8.1383   -1.3869   -9.8640 H   0  0  0  0  0  0  0  0  0  0  0  0
    7.0094    3.1753   -7.0704 H   0  0  0  0  0  0  0  0  0  0  0  0
  1  2  1  0  0  0  0
  1 32  1  0  0  0  0
  1 33  1  0  0  0  0
  1 34  1  0  0  0  0
  2  3  1  0  0  0  0
  3  4  1  0  0  0  0
  3 35  1  0  0  0  0
  3 36  1  0  0  0  0
  4  5  1  0  0  0  0
  4 37  1  0  0  0  0
  4 38  1  0  0  0  0
  5  6  1  0  0  0  0
  6  7  1  0  0  0  0
  6 39  1  0  0  0  0
  6 40  1  0  0  0  0
  7  8  3  0  0  0  0
  8  9  1  0  0  0  0
  9 10  2  0  0  0  0
  9 31  1  0  0  0  0
 10 11  1  0  0  0  0
 10 41  1  0  0  0  0
 11 12  1  0  0  0  0
 11 30  2  0  0  0  0
 12 13  2  0  0  0  0
 12 16  1  0  0  0  0
 13 14  1  0  0  0  0
 14 15  1  0  0  0  0
 14 42  1  0  0  0  0
 15 16  2  0  0  0  0
 15 29  1  0  0  0  0
 16 17  1  0  0  0  0
 17 18  1  0  0  0  0
 17 43  1  0  0  0  0
 17 44  1  0  0  0  0
 18 19  1  0  0  0  0
 18 29  2  0  0  0  0
 19 20  2  0  0  0  0
 19 45  1  0  0  0  0
 20 21  1  0  0  0  0
 20 46  1  0  0  0  0
 21 22  1  0  0  0  0
 21 28  2  0  0  0  0
 22 23  1  0  0  0  0
 22 47  1  0  0  0  0
 22 48  1  0  0  0  0
 23 24  1  0  0  0  0
 23 27  1  0  0  0  0
 24 25  2  0  0  0  0
 24 49  1  0  0  0  0
 25 26  1  0  0  0  0
 26 27  2  0  0  0  0
 26 50  1  0  0  0  0
 28 29  1  0  0  0  0
 28 51  1  0  0  0  0
 30 31  1  0  0  0  0
 30 52  1  0  0  0  0
M  END
$$$$
