CHEMBL3125891
 OpenBabel04072215363D

 61 65  0  0  0  0  0  0  0  0999 V2000
   -1.1635    1.5335    0.1541 C   0  0  0  0  0  0  0  0  0  0  0  0
   -1.0446    0.0941   -0.3990 C   0  0  0  0  0  0  0  0  0  0  0  0
   -2.2392   -0.6971    0.1837 C   0  0  0  0  0  0  0  0  0  0  0  0
    0.2170   -0.4912    0.1302 C   0  0  0  0  0  0  0  0  0  0  0  0
    1.1869   -0.9624    0.5624 N   0  0  0  0  0  0  0  0  0  0  0  0
   -1.0767    0.0230   -1.9410 C   0  0  0  0  0  0  0  0  0  0  0  0
   -0.9742   -1.2111   -2.6111 C   0  0  0  0  0  0  0  0  0  0  0  0
   -1.0498   -1.2908   -4.0096 C   0  0  0  0  0  0  0  0  0  0  0  0
   -1.2609   -0.1450   -4.7792 C   0  0  0  0  0  0  0  0  0  0  0  0
   -1.3782    1.0875   -4.1430 C   0  0  0  0  0  0  0  0  0  0  0  0
   -1.6429    2.3551   -4.8788 C   0  0  0  0  0  0  0  0  0  0  0  0
   -1.1299    3.3711   -4.4162 O   0  0  0  0  0  0  0  0  0  0  0  0
   -2.5313    2.2907   -5.9539 N   0  0  0  0  0  0  0  0  0  0  0  0
   -3.0001    3.4237   -6.6795 C   0  0  0  0  0  0  0  0  0  0  0  0
   -2.3125    4.6410   -6.6344 C   0  0  0  0  0  0  0  0  0  0  0  0
   -2.8312    5.7790   -7.2357 C   0  0  0  0  0  0  0  0  0  0  0  0
   -4.0552    5.7156   -7.8881 C   0  0  0  0  0  0  0  0  0  0  0  0
   -4.7163    4.4895   -8.0704 C   0  0  0  0  0  0  0  0  0  0  0  0
   -5.8847    4.3755   -8.8464 O   0  0  0  0  0  0  0  0  0  0  0  0
   -6.0456    5.2727   -9.9147 C   0  0  0  0  0  0  0  0  0  0  0  0
   -4.9097    5.6741  -10.6127 C   0  0  0  0  0  0  0  0  0  0  0  0
   -4.9317    6.7984  -11.4238 C   0  0  0  0  0  0  0  0  0  0  0  0
   -6.1548    7.4003  -11.7346 C   0  0  0  0  0  0  0  0  0  0  0  0
   -6.2519    8.5005  -12.5569 N   0  0  0  0  0  0  0  0  0  0  0  0
   -7.5039    8.7474  -12.8227 C   0  0  0  0  0  0  0  0  0  0  0  0
   -7.8058    9.7281  -13.7384 N   0  0  0  0  0  0  0  0  0  0  0  0
   -9.0506   10.2284  -14.0214 C   0  0  0  0  0  0  0  0  0  0  0  0
  -10.0902    9.9061  -13.4757 O   0  0  0  0  0  0  0  0  0  0  0  0
   -9.1218   11.3014  -15.0698 C   0  0  0  0  0  0  0  0  0  0  0  0
   -8.1054   11.5888  -16.1485 C   0  0  0  0  0  0  0  0  0  0  0  0
   -8.2448   12.5331  -14.9908 C   0  0  0  0  0  0  0  0  0  0  0  0
   -8.6347    7.7378  -12.0277 S   0  0  0  0  0  0  0  0  0  0  0  0
   -7.3480    6.8561  -11.2336 C   0  0  0  0  0  0  0  0  0  0  0  0
   -7.3089    5.7940  -10.2815 C   0  0  0  0  0  0  0  0  0  0  0  0
   -8.5563    5.2892   -9.7389 C   0  0  0  0  0  0  0  0  0  0  0  0
   -9.5510    4.8711   -9.3155 N   0  0  0  0  0  0  0  0  0  0  0  0
   -4.1864    3.3396   -7.4480 C   0  0  0  0  0  0  0  0  0  0  0  0
   -1.2396    1.1678   -2.7428 C   0  0  0  0  0  0  0  0  0  0  0  0
   -1.2127    1.5399    1.2501 H   0  0  0  0  0  0  0  0  0  0  0  0
   -2.0740    2.0279   -0.2061 H   0  0  0  0  0  0  0  0  0  0  0  0
   -0.3023    2.1501   -0.1301 H   0  0  0  0  0  0  0  0  0  0  0  0
   -2.2837   -0.5990    1.2766 H   0  0  0  0  0  0  0  0  0  0  0  0
   -2.1763   -1.7702   -0.0309 H   0  0  0  0  0  0  0  0  0  0  0  0
   -3.1914   -0.3308   -0.2179 H   0  0  0  0  0  0  0  0  0  0  0  0
   -0.8242   -2.1353   -2.0522 H   0  0  0  0  0  0  0  0  0  0  0  0
   -0.9460   -2.2582   -4.4974 H   0  0  0  0  0  0  0  0  0  0  0  0
   -1.2994   -0.2249   -5.8614 H   0  0  0  0  0  0  0  0  0  0  0  0
   -3.0293    1.4218   -6.0963 H   0  0  0  0  0  0  0  0  0  0  0  0
   -1.3606    4.7448   -6.1221 H   0  0  0  0  0  0  0  0  0  0  0  0
   -2.2822    6.7153   -7.1837 H   0  0  0  0  0  0  0  0  0  0  0  0
   -4.4419    6.6411   -8.3040 H   0  0  0  0  0  0  0  0  0  0  0  0
   -3.9410    5.2022  -10.4416 H   0  0  0  0  0  0  0  0  0  0  0  0
   -4.0137    7.2190  -11.8193 H   0  0  0  0  0  0  0  0  0  0  0  0
   -6.9897   10.1486  -14.1629 H   0  0  0  0  0  0  0  0  0  0  0  0
  -10.1537   11.4654  -15.3791 H   0  0  0  0  0  0  0  0  0  0  0  0
   -8.4755   11.9400  -17.1095 H   0  0  0  0  0  0  0  0  0  0  0  0
   -7.2011   11.0016  -16.2294 H   0  0  0  0  0  0  0  0  0  0  0  0
   -8.7156   13.4950  -15.1696 H   0  0  0  0  0  0  0  0  0  0  0  0
   -7.4284   12.5754  -14.2803 H   0  0  0  0  0  0  0  0  0  0  0  0
   -4.7143    2.3949   -7.5436 H   0  0  0  0  0  0  0  0  0  0  0  0
   -1.2796    2.1599   -2.2962 H   0  0  0  0  0  0  0  0  0  0  0  0
  1  2  1  0  0  0  0
  1 39  1  0  0  0  0
  1 40  1  0  0  0  0
  1 41  1  0  0  0  0
  2  3  1  0  0  0  0
  2  4  1  0  0  0  0
  2  6  1  0  0  0  0
  3 42  1  0  0  0  0
  3 43  1  0  0  0  0
  3 44  1  0  0  0  0
  4  5  3  0  0  0  0
  6  7  1  0  0  0  0
  6 38  2  0  0  0  0
  7  8  2  0  0  0  0
  7 45  1  0  0  0  0
  8  9  1  0  0  0  0
  8 46  1  0  0  0  0
  9 10  2  0  0  0  0
  9 47  1  0  0  0  0
 10 11  1  0  0  0  0
 10 38  1  0  0  0  0
 11 12  2  0  0  0  0
 11 13  1  0  0  0  0
 13 14  1  0  0  0  0
 13 48  1  0  0  0  0
 14 15  1  0  0  0  0
 14 37  2  0  0  0  0
 15 16  2  0  0  0  0
 15 49  1  0  0  0  0
 16 17  1  0  0  0  0
 16 50  1  0  0  0  0
 17 18  2  0  0  0  0
 17 51  1  0  0  0  0
 18 19  1  0  0  0  0
 18 37  1  0  0  0  0
 19 20  1  0  0  0  0
 20 21  1  0  0  0  0
 20 34  2  0  0  0  0
 21 22  2  0  0  0  0
 21 52  1  0  0  0  0
 22 23  1  0  0  0  0
 22 53  1  0  0  0  0
 23 24  1  0  0  0  0
 23 33  2  0  0  0  0
 24 25  2  0  0  0  0
 25 26  1  0  0  0  0
 25 32  1  0  0  0  0
 26 27  1  0  0  0  0
 26 54  1  0  0  0  0
 27 28  2  0  0  0  0
 27 29  1  0  0  0  0
 29 30  1  0  0  0  0
 29 31  1  0  0  0  0
 29 55  1  0  0  0  0
 30 31  1  0  0  0  0
 30 56  1  0  0  0  0
 30 57  1  0  0  0  0
 31 58  1  0  0  0  0
 31 59  1  0  0  0  0
 32 33  1  0  0  0  0
 33 34  1  0  0  0  0
 34 35  1  0  0  0  0
 35 36  3  0  0  0  0
 37 60  1  0  0  0  0
 38 61  1  0  0  0  0
M  END
$$$$
