CHEMBL2018753
 OpenBabel04072215363D

 50 52  0  0  0  0  0  0  0  0999 V2000
    7.1660   -0.5743    3.4228 C   0  0  0  0  0  0  0  0  0  0  0  0
    6.8640   -0.0242    2.0363 C   0  0  0  0  0  0  0  0  0  0  0  0
    6.4235   -1.1463    1.1049 C   0  0  0  0  0  0  0  0  0  0  0  0
    6.1844   -0.6691   -0.2305 O   0  0  0  0  0  0  0  0  0  0  0  0
    7.1849   -0.9679   -1.1013 C   0  0  0  0  0  0  0  0  0  0  0  0
    8.3075   -1.3127   -0.7450 O   0  0  0  0  0  0  0  0  0  0  0  0
    6.7355   -0.8721   -2.3902 N   0  0  0  0  0  0  0  0  0  0  0  0
    7.3749   -1.4110   -3.5312 C   0  0  0  0  0  0  0  0  0  0  0  0
    8.4356   -2.3193   -3.4221 C   0  0  0  0  0  0  0  0  0  0  0  0
    9.0441   -2.8680   -4.5543 C   0  0  0  0  0  0  0  0  0  0  0  0
    8.5821   -2.5539   -5.8315 C   0  0  0  0  0  0  0  0  0  0  0  0
    9.2397   -3.0760   -6.9618 N   0  0  0  0  0  0  0  0  0  0  0  0
    8.6335   -3.3138   -8.2170 C   0  0  0  0  0  0  0  0  0  0  0  0
    7.3326   -3.6598   -8.2332 N   0  0  0  0  0  0  0  0  0  0  0  0
    6.7717   -3.8146   -9.4323 C   0  0  0  0  0  0  0  0  0  0  0  0
    7.3781   -3.6328  -10.6076 N   0  0  0  0  0  0  0  0  0  0  0  0
    8.6735   -3.2918  -10.5723 C   0  0  0  0  0  0  0  0  0  0  0  0
    9.3451   -3.0348  -11.7560 C   0  0  0  0  0  0  0  0  0  0  0  0
   10.7150   -2.6639  -11.8542 C   0  0  0  0  0  0  0  0  0  0  0  0
   10.9759   -2.4914  -13.1743 O   0  0  0  0  0  0  0  0  0  0  0  0
   12.1921   -2.0705  -13.7284 C   0  0  0  0  0  0  0  0  0  0  0  0
   11.4495   -2.5705  -10.6727 C   0  0  0  0  0  0  0  0  0  0  0  0
   12.7377   -2.3036  -10.3417 O   0  0  0  0  0  0  0  0  0  0  0  0
   13.7624   -1.9002  -11.2090 C   0  0  0  0  0  0  0  0  0  0  0  0
   10.7570   -2.8118   -9.4609 C   0  0  0  0  0  0  0  0  0  0  0  0
    9.3850   -3.1519   -9.3919 C   0  0  0  0  0  0  0  0  0  0  0  0
    7.5302   -1.6322   -5.9473 C   0  0  0  0  0  0  0  0  0  0  0  0
    6.9222   -1.0795   -4.8151 C   0  0  0  0  0  0  0  0  0  0  0  0
    5.6285    0.0446   -5.0494 Cl  0  0  0  0  0  0  0  0  0  0  0  0
    7.4516    0.2307    4.1061 H   0  0  0  0  0  0  0  0  0  0  0  0
    7.9901   -1.2949    3.3848 H   0  0  0  0  0  0  0  0  0  0  0  0
    6.2912   -1.0828    3.8409 H   0  0  0  0  0  0  0  0  0  0  0  0
    7.7491    0.4831    1.6352 H   0  0  0  0  0  0  0  0  0  0  0  0
    6.0756    0.7345    2.0971 H   0  0  0  0  0  0  0  0  0  0  0  0
    5.4822   -1.5777    1.4573 H   0  0  0  0  0  0  0  0  0  0  0  0
    7.1545   -1.9662    1.1198 H   0  0  0  0  0  0  0  0  0  0  0  0
    5.8579   -0.3904   -2.5221 H   0  0  0  0  0  0  0  0  0  0  0  0
    8.8068   -2.6508   -2.4573 H   0  0  0  0  0  0  0  0  0  0  0  0
    9.8718   -3.5582   -4.4146 H   0  0  0  0  0  0  0  0  0  0  0  0
    9.9137   -3.8048   -6.7553 H   0  0  0  0  0  0  0  0  0  0  0  0
    5.7279   -4.1061   -9.4495 H   0  0  0  0  0  0  0  0  0  0  0  0
    8.7654   -3.1140  -12.6767 H   0  0  0  0  0  0  0  0  0  0  0  0
   12.0511   -2.0041  -14.8127 H   0  0  0  0  0  0  0  0  0  0  0  0
   12.9684   -2.8176  -13.5732 H   0  0  0  0  0  0  0  0  0  0  0  0
   12.4576   -1.0669  -13.3966 H   0  0  0  0  0  0  0  0  0  0  0  0
   14.6511   -1.7141  -10.5956 H   0  0  0  0  0  0  0  0  0  0  0  0
   13.5297   -0.9526  -11.6938 H   0  0  0  0  0  0  0  0  0  0  0  0
   14.0383   -2.7002  -11.8945 H   0  0  0  0  0  0  0  0  0  0  0  0
   11.3160   -2.7126   -8.5286 H   0  0  0  0  0  0  0  0  0  0  0  0
    7.1830   -1.3353   -6.9342 H   0  0  0  0  0  0  0  0  0  0  0  0
  1  2  1  0  0  0  0
  1 30  1  0  0  0  0
  1 31  1  0  0  0  0
  1 32  1  0  0  0  0
  2  3  1  0  0  0  0
  2 33  1  0  0  0  0
  2 34  1  0  0  0  0
  3  4  1  0  0  0  0
  3 35  1  0  0  0  0
  3 36  1  0  0  0  0
  4  5  1  0  0  0  0
  5  6  2  0  0  0  0
  5  7  1  0  0  0  0
  7  8  1  0  0  0  0
  7 37  1  0  0  0  0
  8  9  1  0  0  0  0
  8 28  2  0  0  0  0
  9 10  2  0  0  0  0
  9 38  1  0  0  0  0
 10 11  1  0  0  0  0
 10 39  1  0  0  0  0
 11 12  1  0  0  0  0
 11 27  2  0  0  0  0
 12 13  1  0  0  0  0
 12 40  1  0  0  0  0
 13 14  1  0  0  0  0
 13 26  2  0  0  0  0
 14 15  2  0  0  0  0
 15 16  1  0  0  0  0
 15 41  1  0  0  0  0
 16 17  2  0  0  0  0
 17 18  1  0  0  0  0
 17 26  1  0  0  0  0
 18 19  2  0  0  0  0
 18 42  1  0  0  0  0
 19 20  1  0  0  0  0
 19 22  1  0  0  0  0
 20 21  1  0  0  0  0
 21 43  1  0  0  0  0
 21 44  1  0  0  0  0
 21 45  1  0  0  0  0
 22 23  1  0  0  0  0
 22 25  2  0  0  0  0
 23 24  1  0  0  0  0
 24 46  1  0  0  0  0
 24 47  1  0  0  0  0
 24 48  1  0  0  0  0
 25 26  1  0  0  0  0
 25 49  1  0  0  0  0
 27 28  1  0  0  0  0
 27 50  1  0  0  0  0
 28 29  1  0  0  0  0
M  END
$$$$
