CHEMBL3690401
 OpenBabel04072215373D

 53 57  0  0  0  0  0  0  0  0999 V2000
    2.5858    0.8372   -0.9729 O   0  0  0  0  0  0  0  0  0  0  0  0
    2.4583   -0.3071   -0.5618 C   0  0  0  0  0  0  0  0  0  0  0  0
    1.3809   -1.0842   -0.9367 N   0  0  0  0  0  0  0  0  0  0  0  0
    0.3044   -0.4599   -1.7155 C   0  0  0  0  0  0  0  0  0  0  0  0
   -0.7261    0.3218   -0.8880 C   0  0  0  0  0  0  0  0  0  0  0  0
   -0.4901    0.2158    0.4409 F   0  0  0  0  0  0  0  0  0  0  0  0
   -0.7591    1.6308   -1.2072 F   0  0  0  0  0  0  0  0  0  0  0  0
   -1.9677   -0.1809   -1.1031 F   0  0  0  0  0  0  0  0  0  0  0  0
    3.3108   -0.9970    0.2705 N   0  0  0  0  0  0  0  0  0  0  0  0
    4.5277   -0.5339    0.8169 C   0  0  0  0  0  0  0  0  0  0  0  0
    5.0542    0.7300    0.5541 C   0  0  0  0  0  0  0  0  0  0  0  0
    6.3003    1.0947    1.0590 C   0  0  0  0  0  0  0  0  0  0  0  0
    7.0174    0.2083    1.8573 C   0  0  0  0  0  0  0  0  0  0  0  0
    6.4691   -1.0237    2.2298 C   0  0  0  0  0  0  0  0  0  0  0  0
    7.1407   -1.9034    3.1950 C   0  0  0  0  0  0  0  0  0  0  0  0
    7.1923   -3.2887    3.2446 C   0  0  0  0  0  0  0  0  0  0  0  0
    7.8793   -3.7453    4.3362 N   0  0  0  0  0  0  0  0  0  0  0  0
    8.2558   -2.6639    4.9806 C   0  0  0  0  0  0  0  0  0  0  0  0
    8.9827   -2.5218    6.1971 C   0  0  0  0  0  0  0  0  0  0  0  0
    9.2676   -1.3004    6.7133 C   0  0  0  0  0  0  0  0  0  0  0  0
    9.9717   -1.1486    7.9530 C   0  0  0  0  0  0  0  0  0  0  0  0
    9.8793   -0.1235    8.9171 C   0  0  0  0  0  0  0  0  0  0  0  0
   10.6610   -0.3455    9.9771 N   0  0  0  0  0  0  0  0  0  0  0  0
   11.2678   -1.5129    9.6943 N   0  0  0  0  0  0  0  0  0  0  0  0
   12.1685   -2.1144   10.6367 C   0  0  0  0  0  0  0  0  0  0  0  0
   13.5731   -2.3622   10.0469 C   0  0  0  0  0  0  0  0  0  0  0  0
   13.5805   -3.6948   10.6911 N   0  0  0  0  0  0  0  0  0  0  0  0
   12.1022   -3.6555   10.7177 C   0  0  0  0  0  0  0  0  0  0  0  0
   10.9096   -2.0140    8.4688 C   0  0  0  0  0  0  0  0  0  0  0  0
    8.8026   -0.1097    5.9938 C   0  0  0  0  0  0  0  0  0  0  0  0
    8.0891   -0.2364    4.8643 C   0  0  0  0  0  0  0  0  0  0  0  0
    7.8264   -1.5046    4.3415 N   0  0  0  0  0  0  0  0  0  0  0  0
    5.2365   -1.3999    1.6652 C   0  0  0  0  0  0  0  0  0  0  0  0
    1.0952   -1.7886   -0.2726 H   0  0  0  0  0  0  0  0  0  0  0  0
   -0.1937   -1.2732   -2.2527 H   0  0  0  0  0  0  0  0  0  0  0  0
    0.7460    0.2032   -2.4684 H   0  0  0  0  0  0  0  0  0  0  0  0
    3.0738   -1.9595    0.4551 H   0  0  0  0  0  0  0  0  0  0  0  0
    4.5322    1.4544   -0.0619 H   0  0  0  0  0  0  0  0  0  0  0  0
    6.7114    2.0731    0.8234 H   0  0  0  0  0  0  0  0  0  0  0  0
    8.0083    0.5069    2.1874 H   0  0  0  0  0  0  0  0  0  0  0  0
    6.7611   -3.9879    2.5388 H   0  0  0  0  0  0  0  0  0  0  0  0
    9.2712   -3.4391    6.6983 H   0  0  0  0  0  0  0  0  0  0  0  0
    9.2662    0.7699    8.9049 H   0  0  0  0  0  0  0  0  0  0  0  0
   12.2014   -1.6021   11.6111 H   0  0  0  0  0  0  0  0  0  0  0  0
   14.3507   -1.6823   10.4084 H   0  0  0  0  0  0  0  0  0  0  0  0
   13.6508   -2.4130    8.9544 H   0  0  0  0  0  0  0  0  0  0  0  0
   14.0006   -3.6894   11.6227 H   0  0  0  0  0  0  0  0  0  0  0  0
   11.6555   -4.0530   11.6339 H   0  0  0  0  0  0  0  0  0  0  0  0
   11.6529   -4.1933    9.8753 H   0  0  0  0  0  0  0  0  0  0  0  0
   11.3305   -2.9301    8.0782 H   0  0  0  0  0  0  0  0  0  0  0  0
    9.0391    0.8764    6.3810 H   0  0  0  0  0  0  0  0  0  0  0  0
    7.7122    0.6307    4.3431 H   0  0  0  0  0  0  0  0  0  0  0  0
    4.8159   -2.3730    1.9095 H   0  0  0  0  0  0  0  0  0  0  0  0
  1  2  2  0  0  0  0
  2  3  1  0  0  0  0
  2  9  1  0  0  0  0
  3  4  1  0  0  0  0
  3 34  1  0  0  0  0
  4  5  1  0  0  0  0
  4 35  1  0  0  0  0
  4 36  1  0  0  0  0
  5  6  1  0  0  0  0
  5  7  1  0  0  0  0
  5  8  1  0  0  0  0
  9 10  1  0  0  0  0
  9 37  1  0  0  0  0
 10 11  1  0  0  0  0
 10 33  2  0  0  0  0
 11 12  2  0  0  0  0
 11 38  1  0  0  0  0
 12 13  1  0  0  0  0
 12 39  1  0  0  0  0
 13 14  2  0  0  0  0
 13 40  1  0  0  0  0
 14 15  1  0  0  0  0
 14 33  1  0  0  0  0
 15 16  2  0  0  0  0
 15 32  1  0  0  0  0
 16 17  1  0  0  0  0
 16 41  1  0  0  0  0
 17 18  2  0  0  0  0
 18 19  1  0  0  0  0
 18 32  1  0  0  0  0
 19 20  2  0  0  0  0
 19 42  1  0  0  0  0
 20 21  1  0  0  0  0
 20 30  1  0  0  0  0
 21 22  1  0  0  0  0
 21 29  2  0  0  0  0
 22 23  2  0  0  0  0
 22 43  1  0  0  0  0
 23 24  1  0  0  0  0
 24 25  1  0  0  0  0
 24 29  1  0  0  0  0
 25 26  1  0  0  0  0
 25 28  1  0  0  0  0
 25 44  1  0  0  0  0
 26 27  1  0  0  0  0
 26 45  1  0  0  0  0
 26 46  1  0  0  0  0
 27 28  1  0  0  0  0
 27 47  1  0  0  0  0
 28 48  1  0  0  0  0
 28 49  1  0  0  0  0
 29 50  1  0  0  0  0
 30 31  2  0  0  0  0
 30 51  1  0  0  0  0
 31 32  1  0  0  0  0
 31 52  1  0  0  0  0
 33 53  1  0  0  0  0
M  END
$$$$
