CHEMBL3660276
 OpenBabel04072215373D

 55 58  0  0  0  0  0  0  0  0999 V2000
    3.2276   -2.5514    1.3824 C   0  0  0  0  0  0  0  0  0  0  0  0
    4.4424   -2.2414    0.6975 O   0  0  0  0  0  0  0  0  0  0  0  0
    4.7056   -0.9022    0.6554 C   0  0  0  0  0  0  0  0  0  0  0  0
    3.9696   -0.0426    1.1294 O   0  0  0  0  0  0  0  0  0  0  0  0
    5.9631   -0.5770   -0.0058 C   0  0  0  0  0  0  0  0  0  0  0  0
    6.8519   -1.4162   -0.6544 C   0  0  0  0  0  0  0  0  0  0  0  0
    7.9066   -0.6621   -1.1154 N   0  0  0  0  0  0  0  0  0  0  0  0
    7.7295    0.6627   -0.7740 C   0  0  0  0  0  0  0  0  0  0  0  0
    8.7024    1.7069   -1.0802 C   0  0  0  0  0  0  0  0  0  0  0  0
    8.4847    3.0229   -0.6901 C   0  0  0  0  0  0  0  0  0  0  0  0
    9.4932    3.9630   -0.8830 C   0  0  0  0  0  0  0  0  0  0  0  0
    9.4068    5.2822   -0.4746 O   0  0  0  0  0  0  0  0  0  0  0  0
    8.6955    5.5861    0.6695 C   0  0  0  0  0  0  0  0  0  0  0  0
    8.6519    4.7547    1.7818 C   0  0  0  0  0  0  0  0  0  0  0  0
    7.8309    5.0724    2.8637 C   0  0  0  0  0  0  0  0  0  0  0  0
    7.0736    6.2497    2.8977 C   0  0  0  0  0  0  0  0  0  0  0  0
    6.1777    6.5601    3.9609 N   0  0  0  0  0  0  0  0  0  0  0  0
    5.8275    5.6797    4.9753 C   0  0  0  0  0  0  0  0  0  0  0  0
    6.2142    4.5170    5.0275 O   0  0  0  0  0  0  0  0  0  0  0  0
    4.9852    6.2285    5.9322 N   0  0  0  0  0  0  0  0  0  0  0  0
    4.6297    5.5462    7.1325 C   0  0  0  0  0  0  0  0  0  0  0  0
    5.4119    4.5096    7.6597 C   0  0  0  0  0  0  0  0  0  0  0  0
    5.0143    3.8006    8.7915 C   0  0  0  0  0  0  0  0  0  0  0  0
    3.8418    4.1484    9.4469 C   0  0  0  0  0  0  0  0  0  0  0  0
    3.0704    5.2209    8.9843 C   0  0  0  0  0  0  0  0  0  0  0  0
    1.8202    5.6035    9.7209 C   0  0  0  0  0  0  0  0  0  0  0  0
    3.4672    5.9150    7.8218 C   0  0  0  0  0  0  0  0  0  0  0  0
    7.2191    7.1427    1.8304 C   0  0  0  0  0  0  0  0  0  0  0  0
    8.0213    6.8091    0.7192 C   0  0  0  0  0  0  0  0  0  0  0  0
   10.6446    3.5792   -1.5581 C   0  0  0  0  0  0  0  0  0  0  0  0
   10.7607    2.2527   -1.9524 C   0  0  0  0  0  0  0  0  0  0  0  0
    9.8265    1.3007   -1.7139 N   0  0  0  0  0  0  0  0  0  0  0  0
    6.5266    0.7265   -0.0940 C   0  0  0  0  0  0  0  0  0  0  0  0
    3.1875   -3.6328    1.5335 H   0  0  0  0  0  0  0  0  0  0  0  0
    2.3680   -2.2496    0.7759 H   0  0  0  0  0  0  0  0  0  0  0  0
    3.1912   -2.0697    2.3661 H   0  0  0  0  0  0  0  0  0  0  0  0
    6.8268   -2.4845   -0.8244 H   0  0  0  0  0  0  0  0  0  0  0  0
    8.7137   -0.9993   -1.6149 H   0  0  0  0  0  0  0  0  0  0  0  0
    7.5557    3.2989   -0.2076 H   0  0  0  0  0  0  0  0  0  0  0  0
    9.2138    3.8260    1.8227 H   0  0  0  0  0  0  0  0  0  0  0  0
    7.8154    4.3461    3.6676 H   0  0  0  0  0  0  0  0  0  0  0  0
    5.7259    7.4625    3.9409 H   0  0  0  0  0  0  0  0  0  0  0  0
    4.3896    6.9910    5.6462 H   0  0  0  0  0  0  0  0  0  0  0  0
    6.3537    4.2183    7.2047 H   0  0  0  0  0  0  0  0  0  0  0  0
    5.6247    2.9764    9.1500 H   0  0  0  0  0  0  0  0  0  0  0  0
    3.5407    3.5805   10.3237 H   0  0  0  0  0  0  0  0  0  0  0  0
    1.7165    5.0305   10.6499 H   0  0  0  0  0  0  0  0  0  0  0  0
    0.9386    5.4057    9.1044 H   0  0  0  0  0  0  0  0  0  0  0  0
    1.8505    6.6629    9.9924 H   0  0  0  0  0  0  0  0  0  0  0  0
    2.8423    6.7244    7.4542 H   0  0  0  0  0  0  0  0  0  0  0  0
    6.6958    8.0961    1.8236 H   0  0  0  0  0  0  0  0  0  0  0  0
    8.1022    7.5009   -0.1157 H   0  0  0  0  0  0  0  0  0  0  0  0
   11.4355    4.2904   -1.7659 H   0  0  0  0  0  0  0  0  0  0  0  0
   11.6446    1.9083   -2.4835 H   0  0  0  0  0  0  0  0  0  0  0  0
    6.0829    1.6184    0.3323 H   0  0  0  0  0  0  0  0  0  0  0  0
  1  2  1  0  0  0  0
  1 34  1  0  0  0  0
  1 35  1  0  0  0  0
  1 36  1  0  0  0  0
  2  3  1  0  0  0  0
  3  4  2  0  0  0  0
  3  5  1  0  0  0  0
  5  6  2  0  0  0  0
  5 33  1  0  0  0  0
  6  7  1  0  0  0  0
  6 37  1  0  0  0  0
  7  8  1  0  0  0  0
  7 38  1  0  0  0  0
  8  9  1  0  0  0  0
  8 33  2  0  0  0  0
  9 10  1  0  0  0  0
  9 32  2  0  0  0  0
 10 11  2  0  0  0  0
 10 39  1  0  0  0  0
 11 12  1  0  0  0  0
 11 30  1  0  0  0  0
 12 13  1  0  0  0  0
 13 14  1  0  0  0  0
 13 29  2  0  0  0  0
 14 15  2  0  0  0  0
 14 40  1  0  0  0  0
 15 16  1  0  0  0  0
 15 41  1  0  0  0  0
 16 17  1  0  0  0  0
 16 28  2  0  0  0  0
 17 18  1  0  0  0  0
 17 42  1  0  0  0  0
 18 19  2  0  0  0  0
 18 20  1  0  0  0  0
 20 21  1  0  0  0  0
 20 43  1  0  0  0  0
 21 22  1  0  0  0  0
 21 27  2  0  0  0  0
 22 23  2  0  0  0  0
 22 44  1  0  0  0  0
 23 24  1  0  0  0  0
 23 45  1  0  0  0  0
 24 25  2  0  0  0  0
 24 46  1  0  0  0  0
 25 26  1  0  0  0  0
 25 27  1  0  0  0  0
 26 47  1  0  0  0  0
 26 48  1  0  0  0  0
 26 49  1  0  0  0  0
 27 50  1  0  0  0  0
 28 29  1  0  0  0  0
 28 51  1  0  0  0  0
 29 52  1  0  0  0  0
 30 31  2  0  0  0  0
 30 53  1  0  0  0  0
 31 32  1  0  0  0  0
 31 54  1  0  0  0  0
 33 55  1  0  0  0  0
M  END
$$$$
