CHEMBL2086740
 OpenBabel04072215363D

 47 51  0  0  0  0  0  0  0  0999 V2000
    2.5085   -0.3579   -0.1974 C   0  0  0  0  0  0  0  0  0  0  0  0
    1.0071   -0.3209   -0.1392 C   0  0  0  0  0  0  0  0  0  0  0  0
    0.2426   -0.2356   -1.3065 C   0  0  0  0  0  0  0  0  0  0  0  0
   -1.1578   -0.2188   -1.2431 C   0  0  0  0  0  0  0  0  0  0  0  0
   -1.8278   -0.2999   -0.0124 C   0  0  0  0  0  0  0  0  0  0  0  0
   -3.3030   -0.0983    0.0235 C   0  0  0  0  0  0  0  0  0  0  0  0
   -4.2231   -1.0925   -0.0887 C   0  0  0  0  0  0  0  0  0  0  0  0
   -3.9737   -2.5880   -0.0303 C   0  0  0  0  0  0  0  0  0  0  0  0
   -2.9142   -3.1776    0.0082 O   0  0  0  0  0  0  0  0  0  0  0  0
   -5.2394   -3.1736    0.0361 N   0  0  0  0  0  0  0  0  0  0  0  0
   -6.2525   -2.2249   -0.0411 C   0  0  0  0  0  0  0  0  0  0  0  0
   -7.6225   -2.4424   -0.0454 C   0  0  0  0  0  0  0  0  0  0  0  0
   -8.4585   -1.3257   -0.1839 C   0  0  0  0  0  0  0  0  0  0  0  0
   -7.9122   -0.0439   -0.3673 C   0  0  0  0  0  0  0  0  0  0  0  0
   -8.8057    1.1289   -0.5267 C   0  0  0  0  0  0  0  0  0  0  0  0
   -9.9260    1.0306   -0.9909 O   0  0  0  0  0  0  0  0  0  0  0  0
   -8.3001    2.2916   -0.0607 O   0  0  0  0  0  0  0  0  0  0  0  0
   -6.5257    0.1196   -0.4342 C   0  0  0  0  0  0  0  0  0  0  0  0
   -5.7019   -0.9514   -0.1784 C   0  0  0  0  0  0  0  0  0  0  0  0
   -3.7726    1.2499    0.1363 C   0  0  0  0  0  0  0  0  0  0  0  0
   -4.0755    2.1351   -0.7930 N   0  0  0  0  0  0  0  0  0  0  0  0
   -4.4589    3.2695   -0.1221 C   0  0  0  0  0  0  0  0  0  0  0  0
   -4.8575    4.5137   -0.6275 C   0  0  0  0  0  0  0  0  0  0  0  0
   -5.1394    5.5431    0.2776 C   0  0  0  0  0  0  0  0  0  0  0  0
   -5.0759    5.3207    1.6554 C   0  0  0  0  0  0  0  0  0  0  0  0
   -4.7397    4.0650    2.1779 C   0  0  0  0  0  0  0  0  0  0  0  0
   -4.4209    3.0685    1.2527 C   0  0  0  0  0  0  0  0  0  0  0  0
   -3.9934    1.7710    1.3923 N   0  0  0  0  0  0  0  0  0  0  0  0
   -1.0592   -0.3579    1.1577 C   0  0  0  0  0  0  0  0  0  0  0  0
    0.3437   -0.3689    1.0931 C   0  0  0  0  0  0  0  0  0  0  0  0
    2.8745   -0.3323   -1.2298 H   0  0  0  0  0  0  0  0  0  0  0  0
    2.8810   -1.2802    0.2609 H   0  0  0  0  0  0  0  0  0  0  0  0
    2.9374    0.5010    0.3293 H   0  0  0  0  0  0  0  0  0  0  0  0
    0.7287   -0.1648   -2.2773 H   0  0  0  0  0  0  0  0  0  0  0  0
   -1.7215   -0.0977   -2.1659 H   0  0  0  0  0  0  0  0  0  0  0  0
   -5.3780   -4.1738    0.0884 H   0  0  0  0  0  0  0  0  0  0  0  0
   -8.0488   -3.4356    0.0539 H   0  0  0  0  0  0  0  0  0  0  0  0
   -9.5410   -1.4504   -0.1779 H   0  0  0  0  0  0  0  0  0  0  0  0
   -7.4219    2.2616    0.3702 H   0  0  0  0  0  0  0  0  0  0  0  0
   -6.1303    1.0748   -0.7471 H   0  0  0  0  0  0  0  0  0  0  0  0
   -4.9114    4.6774   -1.6984 H   0  0  0  0  0  0  0  0  0  0  0  0
   -5.3951    6.5308   -0.1005 H   0  0  0  0  0  0  0  0  0  0  0  0
   -5.2798    6.1463    2.3356 H   0  0  0  0  0  0  0  0  0  0  0  0
   -4.6920    3.8997    3.2489 H   0  0  0  0  0  0  0  0  0  0  0  0
   -3.8392    1.2883    2.2656 H   0  0  0  0  0  0  0  0  0  0  0  0
   -1.5338   -0.3662    2.1344 H   0  0  0  0  0  0  0  0  0  0  0  0
    0.9209   -0.4043    2.0152 H   0  0  0  0  0  0  0  0  0  0  0  0
  1  2  1  0  0  0  0
  1 31  1  0  0  0  0
  1 32  1  0  0  0  0
  1 33  1  0  0  0  0
  2  3  1  0  0  0  0
  2 30  2  0  0  0  0
  3  4  2  0  0  0  0
  3 34  1  0  0  0  0
  4  5  1  0  0  0  0
  4 35  1  0  0  0  0
  5  6  1  0  0  0  0
  5 29  2  0  0  0  0
  6  7  2  3  0  0  0
  6 20  1  0  0  0  0
  7  8  1  0  0  0  0
  7 19  1  0  0  0  0
  8  9  2  0  0  0  0
  8 10  1  0  0  0  0
 10 11  1  0  0  0  0
 10 36  1  0  0  0  0
 11 12  1  0  0  0  0
 11 19  2  0  0  0  0
 12 13  2  0  0  0  0
 12 37  1  0  0  0  0
 13 14  1  0  0  0  0
 13 38  1  0  0  0  0
 14 15  1  0  0  0  0
 14 18  2  0  0  0  0
 15 16  2  0  0  0  0
 15 17  1  0  0  0  0
 17 39  1  0  0  0  0
 18 19  1  0  0  0  0
 18 40  1  0  0  0  0
 20 21  2  0  0  0  0
 20 28  1  0  0  0  0
 21 22  1  0  0  0  0
 22 23  1  0  0  0  0
 22 27  2  0  0  0  0
 23 24  2  0  0  0  0
 23 41  1  0  0  0  0
 24 25  1  0  0  0  0
 24 42  1  0  0  0  0
 25 26  2  0  0  0  0
 25 43  1  0  0  0  0
 26 27  1  0  0  0  0
 26 44  1  0  0  0  0
 27 28  1  0  0  0  0
 28 45  1  0  0  0  0
 29 30  1  0  0  0  0
 29 46  1  0  0  0  0
 30 47  1  0  0  0  0
M  END
$$$$
