CHEMBL3657546
 OpenBabel04072215373D

 51 55  0  0  0  0  0  0  0  0999 V2000
    2.2027   -1.3144   -0.7013 C   0  0  0  0  0  0  0  0  0  0  0  0
    2.7848    0.0088   -0.3434 C   0  0  0  0  0  0  0  0  0  0  0  0
    4.0601    0.2939   -0.6463 N   0  0  0  0  0  0  0  0  0  0  0  0
    4.3004    1.4776   -0.0217 N   0  0  0  0  0  0  0  0  0  0  0  0
    5.5469    2.1748   -0.1015 C   0  0  0  0  0  0  0  0  0  0  0  0
    6.5016    1.7327   -0.9890 C   0  0  0  0  0  0  0  0  0  0  0  0
    7.6436    2.4885   -1.0348 C   0  0  0  0  0  0  0  0  0  0  0  0
    7.8570    3.5669   -0.2584 N   0  0  0  0  0  0  0  0  0  0  0  0
    6.8901    3.9187    0.6040 C   0  0  0  0  0  0  0  0  0  0  0  0
    7.2079    5.0138    1.4079 N   0  0  0  0  0  0  0  0  0  0  0  0
    6.6245    5.6184    2.5308 C   0  0  0  0  0  0  0  0  0  0  0  0
    5.3924    5.2239    3.0673 C   0  0  0  0  0  0  0  0  0  0  0  0
    4.8224    5.8482    4.1883 C   0  0  0  0  0  0  0  0  0  0  0  0
    5.4839    6.9670    4.6797 C   0  0  0  0  0  0  0  0  0  0  0  0
    5.0248    7.7856    5.6664 O   0  0  0  0  0  0  0  0  0  0  0  0
    5.9087    8.8210    5.7661 C   0  0  0  0  0  0  0  0  0  0  0  0
    5.5268    9.9317    6.6616 C   0  0  0  0  0  0  0  0  0  0  0  0
    6.9780    8.6113    4.9198 C   0  0  0  0  0  0  0  0  0  0  0  0
    8.3279    9.6189    4.7006 Cl  0  0  0  0  0  0  0  0  0  0  0  0
    6.6925    7.4320    4.1799 C   0  0  0  0  0  0  0  0  0  0  0  0
    7.2900    6.7204    3.1167 C   0  0  0  0  0  0  0  0  0  0  0  0
    5.7235    3.2655    0.6947 N   0  0  0  0  0  0  0  0  0  0  0  0
    3.2025    1.8899    0.6998 C   0  0  0  0  0  0  0  0  0  0  0  0
    2.1507    1.0564    0.3857 C   0  0  0  0  0  0  0  0  0  0  0  0
    0.7318    1.0971    0.8591 C   0  0  0  0  0  0  0  0  0  0  0  0
   -0.0201    2.3043    0.4497 N   0  0  0  0  0  0  0  0  0  0  0  0
    0.4319    3.6085    1.0288 C   0  0  0  0  0  0  0  0  0  0  0  0
   -0.3766    3.3094    2.3043 C   0  0  0  0  0  0  0  0  0  0  0  0
    0.3262    2.6662    3.3983 O   0  0  0  0  0  0  0  0  0  0  0  0
   -1.2206    2.4230    1.3472 C   0  0  0  0  0  0  0  0  0  0  0  0
    2.9391   -1.9745   -1.1691 H   0  0  0  0  0  0  0  0  0  0  0  0
    1.3544   -1.1987   -1.3823 H   0  0  0  0  0  0  0  0  0  0  0  0
    1.8431   -1.8182    0.2059 H   0  0  0  0  0  0  0  0  0  0  0  0
    6.3630    0.8721   -1.6305 H   0  0  0  0  0  0  0  0  0  0  0  0
    8.4516    2.2446   -1.7199 H   0  0  0  0  0  0  0  0  0  0  0  0
    8.1502    5.3010    1.1807 H   0  0  0  0  0  0  0  0  0  0  0  0
    4.8326    4.4132    2.6117 H   0  0  0  0  0  0  0  0  0  0  0  0
    3.8855    5.5131    4.6158 H   0  0  0  0  0  0  0  0  0  0  0  0
    4.5432    9.7644    7.1124 H   0  0  0  0  0  0  0  0  0  0  0  0
    5.4717   10.8666    6.0911 H   0  0  0  0  0  0  0  0  0  0  0  0
    6.2576   10.0619    7.4636 H   0  0  0  0  0  0  0  0  0  0  0  0
    8.2437    7.0626    2.7242 H   0  0  0  0  0  0  0  0  0  0  0  0
    3.2838    2.7583    1.3316 H   0  0  0  0  0  0  0  0  0  0  0  0
    0.7225    0.8886    1.9369 H   0  0  0  0  0  0  0  0  0  0  0  0
    0.1961    0.2561    0.4064 H   0  0  0  0  0  0  0  0  0  0  0  0
    0.0413    4.4696    0.4746 H   0  0  0  0  0  0  0  0  0  0  0  0
    1.4939    3.7828    1.1540 H   0  0  0  0  0  0  0  0  0  0  0  0
   -0.9243    4.1776    2.6982 H   0  0  0  0  0  0  0  0  0  0  0  0
    1.2727    2.7315    3.1652 H   0  0  0  0  0  0  0  0  0  0  0  0
   -2.0511    2.9664    0.8800 H   0  0  0  0  0  0  0  0  0  0  0  0
   -1.6218    1.4876    1.7518 H   0  0  0  0  0  0  0  0  0  0  0  0
  1  2  1  0  0  0  0
  1 31  1  0  0  0  0
  1 32  1  0  0  0  0
  1 33  1  0  0  0  0
  2  3  2  0  0  0  0
  2 24  1  0  0  0  0
  3  4  1  0  0  0  0
  4  5  1  0  0  0  0
  4 23  1  0  0  0  0
  5  6  1  0  0  0  0
  5 22  2  0  0  0  0
  6  7  2  0  0  0  0
  6 34  1  0  0  0  0
  7  8  1  0  0  0  0
  7 35  1  0  0  0  0
  8  9  2  0  0  0  0
  9 10  1  0  0  0  0
  9 22  1  0  0  0  0
 10 11  1  0  0  0  0
 10 36  1  0  0  0  0
 11 12  1  0  0  0  0
 11 21  2  0  0  0  0
 12 13  2  0  0  0  0
 12 37  1  0  0  0  0
 13 14  1  0  0  0  0
 13 38  1  0  0  0  0
 14 15  1  0  0  0  0
 14 20  2  0  0  0  0
 15 16  1  0  0  0  0
 16 17  1  0  0  0  0
 16 18  2  0  0  0  0
 17 39  1  0  0  0  0
 17 40  1  0  0  0  0
 17 41  1  0  0  0  0
 18 19  1  0  0  0  0
 18 20  1  0  0  0  0
 20 21  1  0  0  0  0
 21 42  1  0  0  0  0
 23 24  2  0  0  0  0
 23 43  1  0  0  0  0
 24 25  1  0  0  0  0
 25 26  1  0  0  0  0
 25 44  1  0  0  0  0
 25 45  1  0  0  0  0
 26 27  1  0  0  0  0
 26 30  1  0  0  0  0
 27 28  1  0  0  0  0
 27 46  1  0  0  0  0
 27 47  1  0  0  0  0
 28 29  1  0  0  0  0
 28 30  1  0  0  0  0
 28 48  1  0  0  0  0
 29 49  1  0  0  0  0
 30 50  1  0  0  0  0
 30 51  1  0  0  0  0
M  END
$$$$
