CHEMBL3628536
 OpenBabel04072215363D

 34 37  0  0  0  0  0  0  0  0999 V2000
   -3.1444    4.6098   -0.8035 C   0  0  0  0  0  0  0  0  0  0  0  0
   -4.3214    3.8771   -0.9082 C   0  0  0  0  0  0  0  0  0  0  0  0
   -4.3378    2.5299   -0.5762 C   0  0  0  0  0  0  0  0  0  0  0  0
   -3.1903    1.8866   -0.1016 C   0  0  0  0  0  0  0  0  0  0  0  0
   -3.1835    0.5397    0.2635 N   0  0  0  0  0  0  0  0  0  0  0  0
   -4.0492   -0.5250    0.0040 C   0  0  0  0  0  0  0  0  0  0  0  0
   -3.7519   -1.6439    0.6890 N   0  0  0  0  0  0  0  0  0  0  0  0
   -4.3171   -2.7910    0.2814 C   0  0  0  0  0  0  0  0  0  0  0  0
   -5.1388   -2.8604   -0.8090 C   0  0  0  0  0  0  0  0  0  0  0  0
   -5.5167   -1.6500   -1.3634 C   0  0  0  0  0  0  0  0  0  0  0  0
   -4.9931   -0.4718   -0.9561 N   0  0  0  0  0  0  0  0  0  0  0  0
   -6.3022   -1.6783   -2.6138 C   0  0  0  0  0  0  0  0  0  0  0  0
   -7.5605   -1.0832   -2.7525 C   0  0  0  0  0  0  0  0  0  0  0  0
   -8.2807   -1.2278   -3.9474 C   0  0  0  0  0  0  0  0  0  0  0  0
   -7.7061   -1.8645   -5.0505 C   0  0  0  0  0  0  0  0  0  0  0  0
   -6.4785   -2.5026   -4.9190 C   0  0  0  0  0  0  0  0  0  0  0  0
   -5.8611   -2.5123   -3.6691 C   0  0  0  0  0  0  0  0  0  0  0  0
   -4.8089   -3.9330   -3.2601 S   0  0  0  0  0  0  0  0  0  0  0  0
   -5.4627   -4.1248   -1.5373 C   0  0  0  0  0  0  0  0  0  0  0  0
   -1.9956    2.6286   -0.0472 C   0  0  0  0  0  0  0  0  0  0  0  0
   -1.9713    3.9821   -0.3939 C   0  0  0  0  0  0  0  0  0  0  0  0
   -3.1366    5.6671   -1.0637 H   0  0  0  0  0  0  0  0  0  0  0  0
   -5.2389    4.3594   -1.2446 H   0  0  0  0  0  0  0  0  0  0  0  0
   -5.2716    1.9804   -0.6634 H   0  0  0  0  0  0  0  0  0  0  0  0
   -2.4385    0.2256    0.8691 H   0  0  0  0  0  0  0  0  0  0  0  0
   -4.0129   -3.6756    0.8315 H   0  0  0  0  0  0  0  0  0  0  0  0
   -8.0255   -0.5832   -1.9057 H   0  0  0  0  0  0  0  0  0  0  0  0
   -9.3009   -0.8569   -4.0169 H   0  0  0  0  0  0  0  0  0  0  0  0
   -8.2498   -1.9335   -5.9894 H   0  0  0  0  0  0  0  0  0  0  0  0
   -6.0658   -3.0710   -5.7478 H   0  0  0  0  0  0  0  0  0  0  0  0
   -5.0118   -5.0004   -1.0639 H   0  0  0  0  0  0  0  0  0  0  0  0
   -6.5496   -4.2830   -1.5684 H   0  0  0  0  0  0  0  0  0  0  0  0
   -1.0627    2.1548    0.2556 H   0  0  0  0  0  0  0  0  0  0  0  0
   -1.0443    4.5481   -0.3421 H   0  0  0  0  0  0  0  0  0  0  0  0
  1  2  1  0  0  0  0
  1 21  2  0  0  0  0
  1 22  1  0  0  0  0
  2  3  2  0  0  0  0
  2 23  1  0  0  0  0
  3  4  1  0  0  0  0
  3 24  1  0  0  0  0
  4  5  1  0  0  0  0
  4 20  2  0  0  0  0
  5  6  1  0  0  0  0
  5 25  1  0  0  0  0
  6  7  1  0  0  0  0
  6 11  2  0  0  0  0
  7  8  2  0  0  0  0
  8  9  1  0  0  0  0
  8 26  1  0  0  0  0
  9 10  2  0  0  0  0
  9 19  1  0  0  0  0
 10 11  1  0  0  0  0
 10 12  1  0  0  0  0
 12 13  1  0  0  0  0
 12 17  2  0  0  0  0
 13 14  2  0  0  0  0
 13 27  1  0  0  0  0
 14 15  1  0  0  0  0
 14 28  1  0  0  0  0
 15 16  2  0  0  0  0
 15 29  1  0  0  0  0
 16 17  1  0  0  0  0
 16 30  1  0  0  0  0
 17 18  1  0  0  0  0
 18 19  1  0  0  0  0
 19 31  1  0  0  0  0
 19 32  1  0  0  0  0
 20 21  1  0  0  0  0
 20 33  1  0  0  0  0
 21 34  1  0  0  0  0
M  END
$$$$
