CHEMBL150291
 OpenBabel04072215363D

 64 69  0  0  1  0  0  0  0  0999 V2000
    3.2432   -1.6965    0.8124 C   0  0  0  0  0  0  0  0  0  0  0  0
    2.5268   -0.5876    0.0521 C   0  0  0  0  0  0  0  0  0  0  0  0
    1.0627   -0.5036    0.4700 C   0  0  0  0  0  0  0  0  0  0  0  0
    3.0963    0.6893    0.3264 O   0  0  0  0  0  0  0  0  0  0  0  0
    4.4749    0.8440   -0.0170 C   0  0  3  0  0  0  0  0  0  0  0  0
    4.7467    0.6543   -1.5170 C   0  0  0  0  0  0  0  0  0  0  0  0
    4.8937    2.2717    0.2997 C   0  0  0  0  0  0  0  0  0  0  0  0
    6.2291    2.5116    0.6205 C   0  0  0  0  0  0  0  0  0  0  0  0
    6.7449    3.7864    0.5066 C   0  0  0  0  0  0  0  0  0  0  0  0
    5.9199    4.8024    0.0214 C   0  0  0  0  0  0  0  0  0  0  0  0
    4.5419    4.5791   -0.1532 C   0  0  0  0  0  0  0  0  0  0  0  0
    3.9998    3.3156    0.0360 C   0  0  0  0  0  0  0  0  0  0  0  0
    4.0611    5.8234   -0.4782 C   0  0  0  0  0  0  0  0  0  0  0  0
    2.8353    6.3477    0.0334 C   0  0  0  0  0  0  0  0  0  0  0  0
    2.8562    7.7592    0.4167 C   0  0  0  0  0  0  0  0  0  0  0  0
    4.0482    8.4824    0.2522 C   0  0  0  0  0  0  0  0  0  0  0  0
    4.6299    8.0096   -0.9243 C   0  0  0  0  0  0  0  0  0  0  0  0
    5.0329    6.7088   -0.8227 C   0  0  0  0  0  0  0  0  0  0  0  0
    6.1634    6.1614   -0.2098 N   0  0  0  0  0  0  0  0  0  0  0  0
    7.1307    6.9563    0.5486 C   0  0  0  0  0  0  0  0  0  0  0  0
    8.5775    6.5099    0.7120 C   0  0  0  0  0  0  0  0  0  0  0  0
    9.2777    6.3673   -0.6247 C   0  0  0  0  0  0  0  0  0  0  0  0
   10.6039    5.9016   -0.4200 O   0  0  0  0  0  0  0  0  0  0  0  0
    4.9534    9.1393   -1.8047 C   0  0  0  0  0  0  0  0  0  0  0  0
    5.5334   10.0132   -0.7316 C   0  0  0  0  0  0  0  0  0  0  0  0
    6.8531   10.4521   -0.8820 C   0  0  0  0  0  0  0  0  0  0  0  0
    7.6376   10.5205    0.2521 C   0  0  0  0  0  0  0  0  0  0  0  0
    7.0650   10.2374    1.5048 C   0  0  0  0  0  0  0  0  0  0  0  0
    5.6975    9.8413    1.6485 C   0  0  0  0  0  0  0  0  0  0  0  0
    4.8805    9.6788    0.5135 C   0  0  0  0  0  0  0  0  0  0  0  0
    1.4730    8.1822    0.3730 C   0  0  0  0  0  0  0  0  0  0  0  0
    0.9333    9.2807    0.4268 O   0  0  0  0  0  0  0  0  0  0  0  0
    0.7474    7.0262    0.0129 N   0  0  0  0  0  0  0  0  0  0  0  0
    1.5057    5.8031   -0.1738 C   0  0  0  0  0  0  0  0  0  0  0  0
    2.7459   -2.6583    0.6691 H   0  0  0  0  0  0  0  0  0  0  0  0
    3.2904   -1.4667    1.8820 H   0  0  0  0  0  0  0  0  0  0  0  0
    4.2758   -1.8087    0.4652 H   0  0  0  0  0  0  0  0  0  0  0  0
    2.5621   -0.7826   -1.0251 H   0  0  0  0  0  0  0  0  0  0  0  0
    0.9653   -0.1012    1.4845 H   0  0  0  0  0  0  0  0  0  0  0  0
    0.5753   -1.4806    0.4236 H   0  0  0  0  0  0  0  0  0  0  0  0
    0.5205    0.1838   -0.1900 H   0  0  0  0  0  0  0  0  0  0  0  0
    5.0862    0.1732    0.5861 H   0  0  0  0  0  0  0  0  0  0  0  0
    3.9821    1.1699   -2.1195 H   0  0  0  0  0  0  0  0  0  0  0  0
    4.6894   -0.4078   -1.7863 H   0  0  0  0  0  0  0  0  0  0  0  0
    5.7242    1.0224   -1.8160 H   0  0  0  0  0  0  0  0  0  0  0  0
    6.8865    1.6901    0.8807 H   0  0  0  0  0  0  0  0  0  0  0  0
    7.8064    3.9266    0.7030 H   0  0  0  0  0  0  0  0  0  0  0  0
    2.9529    3.1240   -0.1778 H   0  0  0  0  0  0  0  0  0  0  0  0
    6.6933    7.0977    1.5449 H   0  0  0  0  0  0  0  0  0  0  0  0
    7.1772    7.9141    0.0448 H   0  0  0  0  0  0  0  0  0  0  0  0
    8.6734    5.6059    1.3166 H   0  0  0  0  0  0  0  0  0  0  0  0
    9.1093    7.2662    1.3072 H   0  0  0  0  0  0  0  0  0  0  0  0
    9.3215    7.3301   -1.1446 H   0  0  0  0  0  0  0  0  0  0  0  0
    8.7630    5.6500   -1.2686 H   0  0  0  0  0  0  0  0  0  0  0  0
   11.0943    6.5978    0.0494 H   0  0  0  0  0  0  0  0  0  0  0  0
    4.0256    9.6237   -2.1562 H   0  0  0  0  0  0  0  0  0  0  0  0
    5.5822    8.8890   -2.6570 H   0  0  0  0  0  0  0  0  0  0  0  0
    7.3051   10.4711   -1.8730 H   0  0  0  0  0  0  0  0  0  0  0  0
    8.7130   10.6577    0.1413 H   0  0  0  0  0  0  0  0  0  0  0  0
    7.7364   10.1966    2.3636 H   0  0  0  0  0  0  0  0  0  0  0  0
    5.3991    9.4424    2.6171 H   0  0  0  0  0  0  0  0  0  0  0  0
   -0.1532    7.1514   -0.4285 H   0  0  0  0  0  0  0  0  0  0  0  0
    1.3953    5.4399   -1.2014 H   0  0  0  0  0  0  0  0  0  0  0  0
    1.1979    5.0501    0.5531 H   0  0  0  0  0  0  0  0  0  0  0  0
  1  2  1  0  0  0  0
  1 35  1  0  0  0  0
  1 36  1  0  0  0  0
  1 37  1  0  0  0  0
  2  3  1  0  0  0  0
  2  4  1  0  0  0  0
  2 38  1  0  0  0  0
  3 39  1  0  0  0  0
  3 40  1  0  0  0  0
  3 41  1  0  0  0  0
  4  5  1  0  0  0  0
  5  6  1  0  0  0  0
  5  7  1  0  0  0  0
  5 42  1  0  0  0  0
  6 43  1  0  0  0  0
  6 44  1  0  0  0  0
  6 45  1  0  0  0  0
  7  8  1  0  0  0  0
  7 12  2  0  0  0  0
  8  9  2  0  0  0  0
  8 46  1  0  0  0  0
  9 10  1  0  0  0  0
  9 47  1  0  0  0  0
 10 11  2  0  0  0  0
 10 19  1  0  0  0  0
 11 12  1  0  0  0  0
 11 13  1  0  0  0  0
 12 48  1  0  0  0  0
 13 14  1  0  0  0  0
 13 18  2  0  0  0  0
 14 15  2  0  0  0  0
 14 34  1  0  0  0  0
 15 16  1  0  0  0  0
 15 31  1  0  0  0  0
 16 17  2  0  0  0  0
 16 30  1  0  0  0  0
 17 18  1  0  0  0  0
 17 24  1  0  0  0  0
 18 19  1  0  0  0  0
 19 20  1  0  0  0  0
 20 21  1  0  0  0  0
 20 49  1  0  0  0  0
 20 50  1  0  0  0  0
 21 22  1  0  0  0  0
 21 51  1  0  0  0  0
 21 52  1  0  0  0  0
 22 23  1  0  0  0  0
 22 53  1  0  0  0  0
 22 54  1  0  0  0  0
 23 55  1  0  0  0  0
 24 25  1  0  0  0  0
 24 56  1  0  0  0  0
 24 57  1  0  0  0  0
 25 26  1  0  0  0  0
 25 30  2  0  0  0  0
 26 27  2  0  0  0  0
 26 58  1  0  0  0  0
 27 28  1  0  0  0  0
 27 59  1  0  0  0  0
 28 29  2  0  0  0  0
 28 60  1  0  0  0  0
 29 30  1  0  0  0  0
 29 61  1  0  0  0  0
 31 32  2  0  0  0  0
 31 33  1  0  0  0  0
 33 34  1  0  0  0  0
 33 62  1  0  0  0  0
 34 63  1  0  0  0  0
 34 64  1  0  0  0  0
M  END
$$$$
