CHEMBL3937598
 OpenBabel04072215373D

 64 67  0  0  1  0  0  0  0  0999 V2000
    2.7579   -3.8999   -0.0743 C   0  0  0  0  0  0  0  0  0  0  0  0
    3.5676   -3.2691   -1.1933 C   0  0  0  0  0  0  0  0  0  0  0  0
    4.9465   -3.2615   -0.7869 O   0  0  0  0  0  0  0  0  0  0  0  0
    5.3640   -2.1260   -0.1590 C   0  0  0  0  0  0  0  0  0  0  0  0
    4.6915   -1.0998   -0.1379 O   0  0  0  0  0  0  0  0  0  0  0  0
    6.6516   -2.3491    0.6930 C   0  0  3  0  0  0  0  0  0  0  0  0
    7.3583   -3.6684    0.3255 C   0  0  0  0  0  0  0  0  0  0  0  0
    7.5815   -1.1809    0.6345 N   0  0  0  0  0  0  0  0  0  0  0  0
    8.7932   -1.3206    1.4656 C   0  0  0  0  0  0  0  0  0  0  0  0
    8.5840   -1.0808    2.9748 C   0  0  0  0  0  0  0  0  0  0  0  0
    7.7771    0.0429    3.3457 O   0  0  0  0  0  0  0  0  0  0  0  0
    6.6500    0.3492    2.5027 C   0  0  3  0  0  0  0  0  0  0  0  0
    5.3231   -0.3065    2.9807 C   0  0  0  0  0  0  0  0  0  0  0  0
    4.7365    0.3335    4.1479 O   0  0  0  0  0  0  0  0  0  0  0  0
    3.8580    1.3775    3.9523 C   0  0  0  0  0  0  0  0  0  0  0  0
    3.7539    2.0421    2.7159 C   0  0  0  0  0  0  0  0  0  0  0  0
    2.9252    3.1416    2.4987 C   0  0  0  0  0  0  0  0  0  0  0  0
    2.8724    3.7032    1.2890 N   0  0  0  0  0  0  0  0  0  0  0  0
    2.0654    4.7583    1.1455 C   0  0  0  0  0  0  0  0  0  0  0  0
    1.3471    5.3303    2.1221 N   0  0  0  0  0  0  0  0  0  0  0  0
    1.4239    4.7725    3.3365 C   0  0  0  0  0  0  0  0  0  0  0  0
    0.7580    5.4014    4.4316 N   0  0  0  0  0  0  0  0  0  0  0  0
   -0.2001    6.4227    4.2960 C   0  0  0  0  0  0  0  0  0  0  0  0
   -1.2698    6.2695    3.4078 C   0  0  0  0  0  0  0  0  0  0  0  0
   -2.1725    7.3078    3.1926 C   0  0  0  0  0  0  0  0  0  0  0  0
   -2.0183    8.5136    3.8763 C   0  0  0  0  0  0  0  0  0  0  0  0
   -3.1205    9.7901    3.5071 Cl  0  0  0  0  0  0  0  0  0  0  0  0
   -0.9819    8.6594    4.8059 C   0  0  0  0  0  0  0  0  0  0  0  0
   -0.7392   10.1201    5.6993 Cl  0  0  0  0  0  0  0  0  0  0  0  0
   -0.0822    7.6101    5.0237 C   0  0  0  0  0  0  0  0  0  0  0  0
    2.1797    3.6255    3.5737 C   0  0  0  0  0  0  0  0  0  0  0  0
    2.2243    2.9419    4.7984 C   0  0  0  0  0  0  0  0  0  0  0  0
    3.0466    1.8255    5.0051 C   0  0  0  0  0  0  0  0  0  0  0  0
    2.8385    1.3515    6.2645 O   0  0  0  0  0  0  0  0  0  0  0  0
    3.7265    0.4497    6.8851 C   0  0  0  0  0  0  0  0  0  0  0  0
    7.0057    0.1330    1.0084 C   0  0  0  0  0  0  0  0  0  0  0  0
    1.6920   -3.9154   -0.3141 H   0  0  0  0  0  0  0  0  0  0  0  0
    2.9016   -3.3556    0.8657 H   0  0  0  0  0  0  0  0  0  0  0  0
    3.0967   -4.9263    0.1033 H   0  0  0  0  0  0  0  0  0  0  0  0
    3.1922   -2.2671   -1.4318 H   0  0  0  0  0  0  0  0  0  0  0  0
    3.4878   -3.8681   -2.1054 H   0  0  0  0  0  0  0  0  0  0  0  0
    6.2893   -2.4909    1.7143 H   0  0  0  0  0  0  0  0  0  0  0  0
    7.9242   -3.5796   -0.6077 H   0  0  0  0  0  0  0  0  0  0  0  0
    6.6530   -4.4985    0.2086 H   0  0  0  0  0  0  0  0  0  0  0  0
    8.0431   -3.9826    1.1205 H   0  0  0  0  0  0  0  0  0  0  0  0
    9.5185   -0.5805    1.0984 H   0  0  0  0  0  0  0  0  0  0  0  0
    9.3024   -2.2773    1.3083 H   0  0  0  0  0  0  0  0  0  0  0  0
    9.5721   -0.8844    3.4111 H   0  0  0  0  0  0  0  0  0  0  0  0
    8.1944   -1.9781    3.4632 H   0  0  0  0  0  0  0  0  0  0  0  0
    6.5305    1.4303    2.6313 H   0  0  0  0  0  0  0  0  0  0  0  0
    5.5110   -1.3367    3.2956 H   0  0  0  0  0  0  0  0  0  0  0  0
    4.5724   -0.3634    2.1823 H   0  0  0  0  0  0  0  0  0  0  0  0
    4.3343    1.7328    1.8519 H   0  0  0  0  0  0  0  0  0  0  0  0
    1.9995    5.2033    0.1596 H   0  0  0  0  0  0  0  0  0  0  0  0
    1.4516    5.6054    5.1466 H   0  0  0  0  0  0  0  0  0  0  0  0
   -1.3846    5.3374    2.8568 H   0  0  0  0  0  0  0  0  0  0  0  0
   -2.9745    7.1728    2.4722 H   0  0  0  0  0  0  0  0  0  0  0  0
    0.7320    7.7415    5.7321 H   0  0  0  0  0  0  0  0  0  0  0  0
    1.5862    3.2661    5.6213 H   0  0  0  0  0  0  0  0  0  0  0  0
    3.5395    0.5378    7.9637 H   0  0  0  0  0  0  0  0  0  0  0  0
    4.7740    0.7028    6.7169 H   0  0  0  0  0  0  0  0  0  0  0  0
    3.4908   -0.5778    6.5997 H   0  0  0  0  0  0  0  0  0  0  0  0
    7.7876    0.8720    0.7691 H   0  0  0  0  0  0  0  0  0  0  0  0
    6.1887    0.4399    0.3545 H   0  0  0  0  0  0  0  0  0  0  0  0
  1  2  1  0  0  0  0
  1 37  1  0  0  0  0
  1 38  1  0  0  0  0
  1 39  1  0  0  0  0
  2  3  1  0  0  0  0
  2 40  1  0  0  0  0
  2 41  1  0  0  0  0
  3  4  1  0  0  0  0
  4  5  2  0  0  0  0
  4  6  1  0  0  0  0
  6  7  1  0  0  0  0
  6  8  1  0  0  0  0
  6 42  1  0  0  0  0
  7 43  1  0  0  0  0
  7 44  1  0  0  0  0
  7 45  1  0  0  0  0
  8  9  1  0  0  0  0
  8 36  1  0  0  0  0
  9 10  1  0  0  0  0
  9 46  1  0  0  0  0
  9 47  1  0  0  0  0
 10 11  1  0  0  0  0
 10 48  1  0  0  0  0
 10 49  1  0  0  0  0
 11 12  1  0  0  0  0
 12 13  1  0  0  0  0
 12 36  1  0  0  0  0
 12 50  1  0  0  0  0
 13 14  1  0  0  0  0
 13 51  1  0  0  0  0
 13 52  1  0  0  0  0
 14 15  1  0  0  0  0
 15 16  1  0  0  0  0
 15 33  2  0  0  0  0
 16 17  2  0  0  0  0
 16 53  1  0  0  0  0
 17 18  1  0  0  0  0
 17 31  1  0  0  0  0
 18 19  2  0  0  0  0
 19 20  1  0  0  0  0
 19 54  1  0  0  0  0
 20 21  2  0  0  0  0
 21 22  1  0  0  0  0
 21 31  1  0  0  0  0
 22 23  1  0  0  0  0
 22 55  1  0  0  0  0
 23 24  1  0  0  0  0
 23 30  2  0  0  0  0
 24 25  2  0  0  0  0
 24 56  1  0  0  0  0
 25 26  1  0  0  0  0
 25 57  1  0  0  0  0
 26 27  1  0  0  0  0
 26 28  2  0  0  0  0
 28 29  1  0  0  0  0
 28 30  1  0  0  0  0
 30 58  1  0  0  0  0
 31 32  2  0  0  0  0
 32 33  1  0  0  0  0
 32 59  1  0  0  0  0
 33 34  1  0  0  0  0
 34 35  1  0  0  0  0
 35 60  1  0  0  0  0
 35 61  1  0  0  0  0
 35 62  1  0  0  0  0
 36 63  1  0  0  0  0
 36 64  1  0  0  0  0
M  END
$$$$
