CHEMBL244481
 OpenBabel04072215363D

 56 59  0  0  0  0  0  0  0  0999 V2000
    4.6978    2.1414   -0.7302 C   0  0  0  0  0  0  0  0  0  0  0  0
    5.9473    1.4947   -0.9766 O   0  0  0  0  0  0  0  0  0  0  0  0
    5.8505    0.1551   -1.2296 C   0  0  0  0  0  0  0  0  0  0  0  0
    4.7886   -0.4474   -1.2936 O   0  0  0  0  0  0  0  0  0  0  0  0
    7.1121   -0.3683   -1.3303 N   0  0  0  0  0  0  0  0  0  0  0  0
    7.3069   -1.7210   -1.1930 C   0  0  0  0  0  0  0  0  0  0  0  0
    8.1543   -2.2490   -0.3314 N   0  0  0  0  0  0  0  0  0  0  0  0
    7.9936   -3.6116   -0.4312 C   0  0  0  0  0  0  0  0  0  0  0  0
    8.5710   -4.6577    0.3202 C   0  0  0  0  0  0  0  0  0  0  0  0
    8.2559   -5.9876    0.0001 C   0  0  0  0  0  0  0  0  0  0  0  0
    8.8352   -6.9761    0.7872 O   0  0  0  0  0  0  0  0  0  0  0  0
    9.1375   -8.1998    0.2157 C   0  0  0  0  0  0  0  0  0  0  0  0
    9.5504   -8.3341   -1.1055 C   0  0  0  0  0  0  0  0  0  0  0  0
    9.7389   -9.5945   -1.6620 C   0  0  0  0  0  0  0  0  0  0  0  0
    9.6018  -10.7634   -0.9099 C   0  0  0  0  0  0  0  0  0  0  0  0
    9.7483  -12.0600   -1.4756 N   0  0  0  0  0  0  0  0  0  0  0  0
   10.0487  -12.3236   -2.8070 C   0  0  0  0  0  0  0  0  0  0  0  0
   10.2754  -11.4743   -3.6596 O   0  0  0  0  0  0  0  0  0  0  0  0
   10.0266  -13.6777   -3.1141 N   0  0  0  0  0  0  0  0  0  0  0  0
   10.3017  -14.0550   -4.4602 C   0  0  0  0  0  0  0  0  0  0  0  0
   11.4548  -13.6029   -5.1183 C   0  0  0  0  0  0  0  0  0  0  0  0
   11.6741  -13.8933   -6.4758 C   0  0  0  0  0  0  0  0  0  0  0  0
   12.9202  -13.4114   -7.1805 C   0  0  0  0  0  0  0  0  0  0  0  0
   13.7790  -12.7252   -6.3759 F   0  0  0  0  0  0  0  0  0  0  0  0
   13.6461  -14.4423   -7.6990 F   0  0  0  0  0  0  0  0  0  0  0  0
   12.6472  -12.5866   -8.2290 F   0  0  0  0  0  0  0  0  0  0  0  0
   10.7069  -14.6357   -7.1742 C   0  0  0  0  0  0  0  0  0  0  0  0
    9.5633  -15.1021   -6.5187 C   0  0  0  0  0  0  0  0  0  0  0  0
    9.3800  -14.8293   -5.1647 C   0  0  0  0  0  0  0  0  0  0  0  0
    8.2624  -15.2541   -4.5556 F   0  0  0  0  0  0  0  0  0  0  0  0
    9.2916  -10.6255    0.4534 C   0  0  0  0  0  0  0  0  0  0  0  0
    9.0578   -9.3452    1.0114 C   0  0  0  0  0  0  0  0  0  0  0  0
    7.3565   -6.2594   -1.0378 C   0  0  0  0  0  0  0  0  0  0  0  0
    6.7999   -5.2389   -1.8169 C   0  0  0  0  0  0  0  0  0  0  0  0
    7.1133   -3.9247   -1.4669 C   0  0  0  0  0  0  0  0  0  0  0  0
    6.7190   -2.7022   -1.9611 N   0  0  0  0  0  0  0  0  0  0  0  0
    5.9656   -2.5092   -3.1800 C   0  0  0  0  0  0  0  0  0  0  0  0
    4.8952    3.1979   -0.5279 H   0  0  0  0  0  0  0  0  0  0  0  0
    4.2084    1.7104    0.1510 H   0  0  0  0  0  0  0  0  0  0  0  0
    4.0464    2.0733   -1.6070 H   0  0  0  0  0  0  0  0  0  0  0  0
    7.8165    0.2165   -0.8972 H   0  0  0  0  0  0  0  0  0  0  0  0
    9.2462   -4.4200    1.1386 H   0  0  0  0  0  0  0  0  0  0  0  0
    9.6965   -7.4669   -1.7372 H   0  0  0  0  0  0  0  0  0  0  0  0
    9.9952   -9.6059   -2.7171 H   0  0  0  0  0  0  0  0  0  0  0  0
    9.6693  -12.8504   -0.8522 H   0  0  0  0  0  0  0  0  0  0  0  0
    9.2707  -14.1889   -2.6769 H   0  0  0  0  0  0  0  0  0  0  0  0
   12.1823  -13.0001   -4.5745 H   0  0  0  0  0  0  0  0  0  0  0  0
   10.8422  -14.8469   -8.2347 H   0  0  0  0  0  0  0  0  0  0  0  0
    8.8049  -15.6576   -7.0629 H   0  0  0  0  0  0  0  0  0  0  0  0
    9.2194  -11.4972    1.1001 H   0  0  0  0  0  0  0  0  0  0  0  0
    8.7977   -9.2601    2.0602 H   0  0  0  0  0  0  0  0  0  0  0  0
    7.0807   -7.2841   -1.2770 H   0  0  0  0  0  0  0  0  0  0  0  0
    6.1381   -5.4752   -2.6426 H   0  0  0  0  0  0  0  0  0  0  0  0
    5.9648   -3.4317   -3.7649 H   0  0  0  0  0  0  0  0  0  0  0  0
    6.4433   -1.7256   -3.7740 H   0  0  0  0  0  0  0  0  0  0  0  0
    4.9383   -2.2461   -2.9286 H   0  0  0  0  0  0  0  0  0  0  0  0
  1  2  1  0  0  0  0
  1 38  1  0  0  0  0
  1 39  1  0  0  0  0
  1 40  1  0  0  0  0
  2  3  1  0  0  0  0
  3  4  2  0  0  0  0
  3  5  1  0  0  0  0
  5  6  1  0  0  0  0
  5 41  1  0  0  0  0
  6  7  2  0  0  0  0
  6 36  1  0  0  0  0
  7  8  1  0  0  0  0
  8  9  1  0  0  0  0
  8 35  2  0  0  0  0
  9 10  2  0  0  0  0
  9 42  1  0  0  0  0
 10 11  1  0  0  0  0
 10 33  1  0  0  0  0
 11 12  1  0  0  0  0
 12 13  1  0  0  0  0
 12 32  2  0  0  0  0
 13 14  2  0  0  0  0
 13 43  1  0  0  0  0
 14 15  1  0  0  0  0
 14 44  1  0  0  0  0
 15 16  1  0  0  0  0
 15 31  2  0  0  0  0
 16 17  1  0  0  0  0
 16 45  1  0  0  0  0
 17 18  2  0  0  0  0
 17 19  1  0  0  0  0
 19 20  1  0  0  0  0
 19 46  1  0  0  0  0
 20 21  1  0  0  0  0
 20 29  2  0  0  0  0
 21 22  2  0  0  0  0
 21 47  1  0  0  0  0
 22 23  1  0  0  0  0
 22 27  1  0  0  0  0
 23 24  1  0  0  0  0
 23 25  1  0  0  0  0
 23 26  1  0  0  0  0
 27 28  2  0  0  0  0
 27 48  1  0  0  0  0
 28 29  1  0  0  0  0
 28 49  1  0  0  0  0
 29 30  1  0  0  0  0
 31 32  1  0  0  0  0
 31 50  1  0  0  0  0
 32 51  1  0  0  0  0
 33 34  2  0  0  0  0
 33 52  1  0  0  0  0
 34 35  1  0  0  0  0
 34 53  1  0  0  0  0
 35 36  1  0  0  0  0
 36 37  1  0  0  0  0
 37 54  1  0  0  0  0
 37 55  1  0  0  0  0
 37 56  1  0  0  0  0
M  END
$$$$
