CHEMBL2430252
 OpenBabel04072215363D

 68 73  0  0  1  0  0  0  0  0999 V2000
    0.9261    0.5157    0.1916 C   0  0  0  0  0  0  0  0  0  0  0  0
    2.3581    0.1341    0.0559 C   0  0  0  0  0  0  0  0  0  0  0  0
    3.3056    1.1367   -0.0345 N   0  0  0  0  0  0  0  0  0  0  0  0
    4.5656    0.6151   -0.0358 C   0  0  0  0  0  0  0  0  0  0  0  0
    4.4263   -0.7559   -0.0096 C   0  0  0  0  0  0  0  0  0  0  0  0
    3.0320   -1.0859    0.0283 C   0  0  0  0  0  0  0  0  0  0  0  0
    2.5685   -2.4780    0.1331 C   0  0  0  0  0  0  0  0  0  0  0  0
    3.1663   -3.2525    0.8845 O   0  0  0  0  0  0  0  0  0  0  0  0
    1.5403   -2.9561   -0.6867 N   0  0  0  0  0  0  0  0  0  0  0  0
    1.0786   -4.3093   -0.3964 C   0  0  0  0  0  0  0  0  0  0  0  0
    0.4447   -4.9862   -1.5960 C   0  0  0  0  0  0  0  0  0  0  0  0
   -0.6460   -4.1450   -2.2817 C   0  0  3  0  0  0  0  0  0  0  0  0
   -1.9959   -4.1026   -1.6591 N   0  0  0  0  0  0  0  0  0  0  0  0
   -2.5807   -5.4519   -1.5940 C   0  0  0  0  0  0  0  0  0  0  0  0
   -4.0186   -5.4527   -1.0822 C   0  0  0  0  0  0  0  0  0  0  0  0
   -4.0966   -4.7938    0.2853 C   0  0  0  0  0  0  0  0  0  0  0  0
   -3.5515   -3.3801    0.1852 C   0  0  0  0  0  0  0  0  0  0  0  0
   -2.1354   -3.3721   -0.3964 C   0  0  0  0  0  0  0  0  0  0  0  0
   -0.0353   -2.7826   -2.6347 C   0  0  0  0  0  0  0  0  0  0  0  0
    0.6808   -2.0972   -1.4837 C   0  0  0  0  0  0  0  0  0  0  0  0
    5.5552   -1.7221    0.0025 C   0  0  0  0  0  0  0  0  0  0  0  0
    6.9379   -1.0942   -0.0155 C   0  0  0  0  0  0  0  0  0  0  0  0
    7.0544    0.4341   -0.0160 C   0  0  0  0  0  0  0  0  0  0  0  0
    5.8067    1.3195   -0.0359 C   0  0  0  0  0  0  0  0  0  0  0  0
    5.9661    2.6713   -0.0303 C   0  0  0  0  0  0  0  0  0  0  0  0
    4.9067    3.7659   -0.0367 C   0  0  0  0  0  0  0  0  0  0  0  0
    3.6948    3.6648   -0.0555 O   0  0  0  0  0  0  0  0  0  0  0  0
    5.5981    4.9649   -0.0204 N   0  0  0  0  0  0  0  0  0  0  0  0
    6.9669    4.7677   -0.0071 C   0  0  0  0  0  0  0  0  0  0  0  0
    7.9343    5.7621    0.0062 C   0  0  0  0  0  0  0  0  0  0  0  0
    9.2717    5.3684    0.0202 C   0  0  0  0  0  0  0  0  0  0  0  0
    9.5931    4.0089    0.0188 C   0  0  0  0  0  0  0  0  0  0  0  0
   10.8789    3.6338    0.0301 F   0  0  0  0  0  0  0  0  0  0  0  0
    8.6077    3.0287    0.0050 C   0  0  0  0  0  0  0  0  0  0  0  0
    7.2709    3.4037   -0.0108 C   0  0  0  0  0  0  0  0  0  0  0  0
    0.8149    1.5189    0.6157 H   0  0  0  0  0  0  0  0  0  0  0  0
    0.3937   -0.1801    0.8466 H   0  0  0  0  0  0  0  0  0  0  0  0
    0.4372    0.5355   -0.7883 H   0  0  0  0  0  0  0  0  0  0  0  0
    3.0822    2.1282   -0.0412 H   0  0  0  0  0  0  0  0  0  0  0  0
    0.4104   -4.2616    0.4657 H   0  0  0  0  0  0  0  0  0  0  0  0
    1.9200   -4.9312   -0.0681 H   0  0  0  0  0  0  0  0  0  0  0  0
    0.0903   -5.9838   -1.3224 H   0  0  0  0  0  0  0  0  0  0  0  0
    1.2427   -5.1591   -2.3329 H   0  0  0  0  0  0  0  0  0  0  0  0
   -0.8148   -4.6195   -3.2596 H   0  0  0  0  0  0  0  0  0  0  0  0
   -1.9883   -6.1028   -0.9415 H   0  0  0  0  0  0  0  0  0  0  0  0
   -2.5801   -5.9004   -2.5950 H   0  0  0  0  0  0  0  0  0  0  0  0
   -4.3834   -6.4833   -1.0186 H   0  0  0  0  0  0  0  0  0  0  0  0
   -4.6664   -4.9210   -1.7899 H   0  0  0  0  0  0  0  0  0  0  0  0
   -3.5079   -5.3693    1.0115 H   0  0  0  0  0  0  0  0  0  0  0  0
   -5.1303   -4.7772    0.6436 H   0  0  0  0  0  0  0  0  0  0  0  0
   -3.5370   -2.9198    1.1807 H   0  0  0  0  0  0  0  0  0  0  0  0
   -4.2123   -2.7686   -0.4406 H   0  0  0  0  0  0  0  0  0  0  0  0
   -1.4804   -3.7787    0.3732 H   0  0  0  0  0  0  0  0  0  0  0  0
   -1.8903   -2.3193   -0.5426 H   0  0  0  0  0  0  0  0  0  0  0  0
   -0.7890   -2.1113   -3.0634 H   0  0  0  0  0  0  0  0  0  0  0  0
    0.7072   -2.9429   -3.4297 H   0  0  0  0  0  0  0  0  0  0  0  0
   -0.0442   -1.6632   -0.7988 H   0  0  0  0  0  0  0  0  0  0  0  0
    1.2734   -1.2834   -1.9078 H   0  0  0  0  0  0  0  0  0  0  0  0
    5.4601   -2.3950   -0.8592 H   0  0  0  0  0  0  0  0  0  0  0  0
    5.4846   -2.3488    0.8988 H   0  0  0  0  0  0  0  0  0  0  0  0
    7.4897   -1.4836   -0.8818 H   0  0  0  0  0  0  0  0  0  0  0  0
    7.5018   -1.4771    0.8468 H   0  0  0  0  0  0  0  0  0  0  0  0
    7.6472    0.6793   -0.9053 H   0  0  0  0  0  0  0  0  0  0  0  0
    7.6176    0.6821    0.8920 H   0  0  0  0  0  0  0  0  0  0  0  0
    5.1320    5.8571   -0.0217 H   0  0  0  0  0  0  0  0  0  0  0  0
    7.6719    6.8134    0.0067 H   0  0  0  0  0  0  0  0  0  0  0  0
   10.0740    6.0945    0.0272 H   0  0  0  0  0  0  0  0  0  0  0  0
    8.9598    2.0070    0.0076 H   0  0  0  0  0  0  0  0  0  0  0  0
  1  2  1  0  0  0  0
  1 36  1  0  0  0  0
  1 37  1  0  0  0  0
  1 38  1  0  0  0  0
  2  3  1  0  0  0  0
  2  6  2  0  0  0  0
  3  4  1  0  0  0  0
  3 39  1  0  0  0  0
  4  5  2  0  0  0  0
  4 24  1  0  0  0  0
  5  6  1  0  0  0  0
  5 21  1  0  0  0  0
  6  7  1  0  0  0  0
  7  8  2  0  0  0  0
  7  9  1  0  0  0  0
  9 10  1  0  0  0  0
  9 20  1  0  0  0  0
 10 11  1  0  0  0  0
 10 40  1  0  0  0  0
 10 41  1  0  0  0  0
 11 12  1  0  0  0  0
 11 42  1  0  0  0  0
 11 43  1  0  0  0  0
 12 13  1  0  0  0  0
 12 19  1  0  0  0  0
 12 44  1  0  0  0  0
 13 14  1  0  0  0  0
 13 18  1  0  0  0  0
 14 15  1  0  0  0  0
 14 45  1  0  0  0  0
 14 46  1  0  0  0  0
 15 16  1  0  0  0  0
 15 47  1  0  0  0  0
 15 48  1  0  0  0  0
 16 17  1  0  0  0  0
 16 49  1  0  0  0  0
 16 50  1  0  0  0  0
 17 18  1  0  0  0  0
 17 51  1  0  0  0  0
 17 52  1  0  0  0  0
 18 53  1  0  0  0  0
 18 54  1  0  0  0  0
 19 20  1  0  0  0  0
 19 55  1  0  0  0  0
 19 56  1  0  0  0  0
 20 57  1  0  0  0  0
 20 58  1  0  0  0  0
 21 22  1  0  0  0  0
 21 59  1  0  0  0  0
 21 60  1  0  0  0  0
 22 23  1  0  0  0  0
 22 61  1  0  0  0  0
 22 62  1  0  0  0  0
 23 24  1  0  0  0  0
 23 63  1  0  0  0  0
 23 64  1  0  0  0  0
 24 25  2  0  0  0  0
 25 26  1  0  0  0  0
 25 35  1  0  0  0  0
 26 27  2  0  0  0  0
 26 28  1  0  0  0  0
 28 29  1  0  0  0  0
 28 65  1  0  0  0  0
 29 30  1  0  0  0  0
 29 35  2  0  0  0  0
 30 31  2  0  0  0  0
 30 66  1  0  0  0  0
 31 32  1  0  0  0  0
 31 67  1  0  0  0  0
 32 33  1  0  0  0  0
 32 34  2  0  0  0  0
 34 35  1  0  0  0  0
 34 68  1  0  0  0  0
M  END
$$$$
