CHEMBL3939133
 OpenBabel04072215373D

 61 64  0  0  1  0  0  0  0  0999 V2000
    2.5598   -0.6458   -0.9096 C   0  0  0  0  0  0  0  0  0  0  0  0
    2.3319    0.0299    0.3331 O   0  0  0  0  0  0  0  0  0  0  0  0
    3.0411    1.1820    0.5566 C   0  0  0  0  0  0  0  0  0  0  0  0
    4.2059    1.4925   -0.1463 C   0  0  0  0  0  0  0  0  0  0  0  0
    4.8551    2.7404    0.0087 C   0  0  0  0  0  0  0  0  0  0  0  0
    5.9943    3.1455   -0.6910 C   0  0  0  0  0  0  0  0  0  0  0  0
    6.4768    2.3203   -1.7494 N   0  0  0  0  0  0  0  0  0  0  0  0
    7.7488    2.4921   -2.3358 C   0  0  0  0  0  0  0  0  0  0  0  0
    8.8830    2.5927   -1.5180 C   0  0  0  0  0  0  0  0  0  0  0  0
   10.1379    2.8447   -2.0676 C   0  0  0  0  0  0  0  0  0  0  0  0
   10.2707    2.9862   -3.4474 C   0  0  0  0  0  0  0  0  0  0  0  0
   11.8449    3.3588   -4.0580 Cl  0  0  0  0  0  0  0  0  0  0  0  0
    9.1542    2.8493   -4.2754 C   0  0  0  0  0  0  0  0  0  0  0  0
    9.2526    3.0080   -5.9940 Cl  0  0  0  0  0  0  0  0  0  0  0  0
    7.8997    2.5897   -3.7201 C   0  0  0  0  0  0  0  0  0  0  0  0
    6.6175    4.3118   -0.4330 N   0  0  0  0  0  0  0  0  0  0  0  0
    6.0722    5.0934    0.5005 C   0  0  0  0  0  0  0  0  0  0  0  0
    4.9524    4.8357    1.1775 N   0  0  0  0  0  0  0  0  0  0  0  0
    4.3641    3.6615    0.9275 C   0  0  0  0  0  0  0  0  0  0  0  0
    3.2320    3.3221    1.6338 C   0  0  0  0  0  0  0  0  0  0  0  0
    2.5951    2.0835    1.5316 C   0  0  0  0  0  0  0  0  0  0  0  0
    1.5355    1.7863    2.3595 O   0  0  0  0  0  0  0  0  0  0  0  0
    1.6612    2.2905    3.7195 C   0  0  0  0  0  0  0  0  0  0  0  0
    0.6500    3.4124    4.0001 C   0  0  0  0  0  0  0  0  0  0  0  0
    0.8127    4.0783    5.3881 C   0  0  3  0  0  0  0  0  0  0  0  0
   -0.3202    5.0924    5.6806 C   0  0  0  0  0  0  0  0  0  0  0  0
   -0.0854    6.3617    4.9725 N   0  0  0  0  0  0  0  0  0  0  0  0
   -1.2095    7.2784    5.1176 C   0  0  0  0  0  0  0  0  0  0  0  0
    1.1468    6.9374    5.5368 C   0  0  0  0  0  0  0  0  0  0  0  0
    2.3615    6.0081    5.2854 C   0  0  0  0  0  0  0  0  0  0  0  0
    2.8168    6.1111    3.8315 C   0  0  0  0  0  0  0  0  0  0  0  0
    3.5351    6.4890    6.1580 C   0  0  0  0  0  0  0  0  0  0  0  0
    2.1237    4.6253    5.6445 O   0  0  0  0  0  0  0  0  0  0  0  0
    3.2058   -1.5132   -0.7394 H   0  0  0  0  0  0  0  0  0  0  0  0
    2.9866   -0.0204   -1.7030 H   0  0  0  0  0  0  0  0  0  0  0  0
    1.5988   -0.9979   -1.2953 H   0  0  0  0  0  0  0  0  0  0  0  0
    4.6692    0.7607   -0.8044 H   0  0  0  0  0  0  0  0  0  0  0  0
    5.7381    2.2147   -2.4391 H   0  0  0  0  0  0  0  0  0  0  0  0
    8.7803    2.4973   -0.4396 H   0  0  0  0  0  0  0  0  0  0  0  0
   10.9918    2.9438   -1.4049 H   0  0  0  0  0  0  0  0  0  0  0  0
    7.0299    2.5069   -4.3708 H   0  0  0  0  0  0  0  0  0  0  0  0
    6.5856    6.0201    0.7280 H   0  0  0  0  0  0  0  0  0  0  0  0
    2.8320    4.0624    2.3042 H   0  0  0  0  0  0  0  0  0  0  0  0
    2.6854    2.5976    3.9635 H   0  0  0  0  0  0  0  0  0  0  0  0
    1.4445    1.4432    4.3799 H   0  0  0  0  0  0  0  0  0  0  0  0
   -0.3554    2.9731    3.9387 H   0  0  0  0  0  0  0  0  0  0  0  0
    0.6803    4.1561    3.2005 H   0  0  0  0  0  0  0  0  0  0  0  0
    0.7046    3.2724    6.1260 H   0  0  0  0  0  0  0  0  0  0  0  0
   -0.3659    5.2734    6.7645 H   0  0  0  0  0  0  0  0  0  0  0  0
   -1.2842    4.6588    5.3906 H   0  0  0  0  0  0  0  0  0  0  0  0
   -2.1051    6.8542    4.6509 H   0  0  0  0  0  0  0  0  0  0  0  0
   -1.0021    8.2189    4.5942 H   0  0  0  0  0  0  0  0  0  0  0  0
   -1.4357    7.5077    6.1642 H   0  0  0  0  0  0  0  0  0  0  0  0
    1.0206    7.1072    6.6153 H   0  0  0  0  0  0  0  0  0  0  0  0
    1.3452    7.9186    5.0853 H   0  0  0  0  0  0  0  0  0  0  0  0
    3.1136    7.1317    3.5684 H   0  0  0  0  0  0  0  0  0  0  0  0
    2.0247    5.8228    3.1391 H   0  0  0  0  0  0  0  0  0  0  0  0
    3.6806    5.4602    3.6657 H   0  0  0  0  0  0  0  0  0  0  0  0
    3.8338    7.5121    5.9011 H   0  0  0  0  0  0  0  0  0  0  0  0
    4.4078    5.8362    6.0404 H   0  0  0  0  0  0  0  0  0  0  0  0
    3.2704    6.4672    7.2208 H   0  0  0  0  0  0  0  0  0  0  0  0
  1  2  1  0  0  0  0
  1 34  1  0  0  0  0
  1 35  1  0  0  0  0
  1 36  1  0  0  0  0
  2  3  1  0  0  0  0
  3  4  1  0  0  0  0
  3 21  2  0  0  0  0
  4  5  2  0  0  0  0
  4 37  1  0  0  0  0
  5  6  1  0  0  0  0
  5 19  1  0  0  0  0
  6  7  1  0  0  0  0
  6 16  2  0  0  0  0
  7  8  1  0  0  0  0
  7 38  1  0  0  0  0
  8  9  1  0  0  0  0
  8 15  2  0  0  0  0
  9 10  2  0  0  0  0
  9 39  1  0  0  0  0
 10 11  1  0  0  0  0
 10 40  1  0  0  0  0
 11 12  1  0  0  0  0
 11 13  2  0  0  0  0
 13 14  1  0  0  0  0
 13 15  1  0  0  0  0
 15 41  1  0  0  0  0
 16 17  1  0  0  0  0
 17 18  2  0  0  0  0
 17 42  1  0  0  0  0
 18 19  1  0  0  0  0
 19 20  2  0  0  0  0
 20 21  1  0  0  0  0
 20 43  1  0  0  0  0
 21 22  1  0  0  0  0
 22 23  1  0  0  0  0
 23 24  1  0  0  0  0
 23 44  1  0  0  0  0
 23 45  1  0  0  0  0
 24 25  1  0  0  0  0
 24 46  1  0  0  0  0
 24 47  1  0  0  0  0
 25 26  1  0  0  0  0
 25 33  1  0  0  0  0
 25 48  1  0  0  0  0
 26 27  1  0  0  0  0
 26 49  1  0  0  0  0
 26 50  1  0  0  0  0
 27 28  1  0  0  0  0
 27 29  1  0  0  0  0
 28 51  1  0  0  0  0
 28 52  1  0  0  0  0
 28 53  1  0  0  0  0
 29 30  1  0  0  0  0
 29 54  1  0  0  0  0
 29 55  1  0  0  0  0
 30 31  1  0  0  0  0
 30 32  1  0  0  0  0
 30 33  1  0  0  0  0
 31 56  1  0  0  0  0
 31 57  1  0  0  0  0
 31 58  1  0  0  0  0
 32 59  1  0  0  0  0
 32 60  1  0  0  0  0
 32 61  1  0  0  0  0
M  END
$$$$
