CHEMBL1994241
 OpenBabel04072215363D

 35 37  0  0  0  0  0  0  0  0999 V2000
    0.4258    0.1193    1.2226 C   0  0  0  0  0  0  0  0  0  0  0  0
    1.7522    0.5669    0.9807 O   0  0  0  0  0  0  0  0  0  0  0  0
    2.7448    0.0154    1.7449 C   0  0  0  0  0  0  0  0  0  0  0  0
    3.8454    0.8695    1.9227 C   0  0  0  0  0  0  0  0  0  0  0  0
    5.0005    0.4751    2.6193 C   0  0  0  0  0  0  0  0  0  0  0  0
    6.1043    1.4399    2.8619 C   0  0  0  0  0  0  0  0  0  0  0  0
    6.5998    2.4192    2.0709 C   0  0  0  0  0  0  0  0  0  0  0  0
    6.1163    2.6695    0.7513 C   0  0  0  0  0  0  0  0  0  0  0  0
    5.7601    2.9709   -0.3112 N   0  0  0  0  0  0  0  0  0  0  0  0
    7.6302    3.2523    2.6184 C   0  0  0  0  0  0  0  0  0  0  0  0
    8.2612    3.1836    3.7788 N   0  0  0  0  0  0  0  0  0  0  0  0
    9.0849    4.2815    3.8398 C   0  0  0  0  0  0  0  0  0  0  0  0
    9.9451    4.7053    4.8625 C   0  0  0  0  0  0  0  0  0  0  0  0
   10.6610    5.8967    4.6862 C   0  0  0  0  0  0  0  0  0  0  0  0
   10.5314    6.6421    3.5126 C   0  0  0  0  0  0  0  0  0  0  0  0
    9.6851    6.2286    2.4740 C   0  0  0  0  0  0  0  0  0  0  0  0
    8.9791    5.0408    2.6834 C   0  0  0  0  0  0  0  0  0  0  0  0
    8.0743    4.3568    1.9112 N   0  0  0  0  0  0  0  0  0  0  0  0
    5.0055   -0.8231    3.1666 C   0  0  0  0  0  0  0  0  0  0  0  0
    6.4848   -1.5251    4.1430 Br  0  0  0  0  0  0  0  0  0  0  0  0
    3.9076   -1.6830    3.0061 C   0  0  0  0  0  0  0  0  0  0  0  0
    2.7838   -1.2661    2.2929 C   0  0  0  0  0  0  0  0  0  0  0  0
    1.7453   -2.1380    2.1324 O   0  0  0  0  0  0  0  0  0  0  0  0
   -0.2488    0.8085    0.7046 H   0  0  0  0  0  0  0  0  0  0  0  0
    0.1809    0.1548    2.2892 H   0  0  0  0  0  0  0  0  0  0  0  0
    0.2515   -0.8721    0.7967 H   0  0  0  0  0  0  0  0  0  0  0  0
    3.7505    1.8725    1.5126 H   0  0  0  0  0  0  0  0  0  0  0  0
    6.5509    1.3297    3.8524 H   0  0  0  0  0  0  0  0  0  0  0  0
   10.0395    4.1232    5.7725 H   0  0  0  0  0  0  0  0  0  0  0  0
   11.3220    6.2453    5.4763 H   0  0  0  0  0  0  0  0  0  0  0  0
   11.0949    7.5673    3.4017 H   0  0  0  0  0  0  0  0  0  0  0  0
    9.5871    6.8079    1.5639 H   0  0  0  0  0  0  0  0  0  0  0  0
    7.7586    4.6508    0.9950 H   0  0  0  0  0  0  0  0  0  0  0  0
    3.9397   -2.6788    3.4412 H   0  0  0  0  0  0  0  0  0  0  0  0
    1.9738   -2.9971    2.5234 H   0  0  0  0  0  0  0  0  0  0  0  0
  1  2  1  0  0  0  0
  1 24  1  0  0  0  0
  1 25  1  0  0  0  0
  1 26  1  0  0  0  0
  2  3  1  0  0  0  0
  3  4  1  0  0  0  0
  3 22  2  0  0  0  0
  4  5  2  0  0  0  0
  4 27  1  0  0  0  0
  5  6  1  0  0  0  0
  5 19  1  0  0  0  0
  6  7  2  3  0  0  0
  6 28  1  0  0  0  0
  7  8  1  0  0  0  0
  7 10  1  0  0  0  0
  8  9  3  0  0  0  0
 10 11  2  0  0  0  0
 10 18  1  0  0  0  0
 11 12  1  0  0  0  0
 12 13  1  0  0  0  0
 12 17  2  0  0  0  0
 13 14  2  0  0  0  0
 13 29  1  0  0  0  0
 14 15  1  0  0  0  0
 14 30  1  0  0  0  0
 15 16  2  0  0  0  0
 15 31  1  0  0  0  0
 16 17  1  0  0  0  0
 16 32  1  0  0  0  0
 17 18  1  0  0  0  0
 18 33  1  0  0  0  0
 19 20  1  0  0  0  0
 19 21  2  0  0  0  0
 21 22  1  0  0  0  0
 21 34  1  0  0  0  0
 22 23  1  0  0  0  0
 23 35  1  0  0  0  0
M  END
$$$$
