CHEMBL2430255
 OpenBabel04072215363D

 66 69  0  0  0  0  0  0  0  0999 V2000
    4.7706   -0.1020    2.5386 C   0  0  0  0  0  0  0  0  0  0  0  0
    4.3477    0.8142    1.3949 C   0  0  0  0  0  0  0  0  0  0  0  0
    4.7123    0.3378    0.0476 N   0  0  0  0  0  0  0  0  0  0  0  0
    4.2354   -1.0246   -0.2536 C   0  0  0  0  0  0  0  0  0  0  0  0
    2.7218   -1.2092   -0.3505 C   0  0  0  0  0  0  0  0  0  0  0  0
    4.2718    1.2893   -1.0004 C   0  0  0  0  0  0  0  0  0  0  0  0
    4.8635    2.6989   -0.8800 C   0  0  0  0  0  0  0  0  0  0  0  0
    6.3083    2.7056   -0.9262 N   0  0  0  0  0  0  0  0  0  0  0  0
    6.9638    3.9085   -0.8408 C   0  0  0  0  0  0  0  0  0  0  0  0
    6.3495    4.9710   -0.7690 O   0  0  0  0  0  0  0  0  0  0  0  0
    8.4216    3.8492   -0.7595 C   0  0  0  0  0  0  0  0  0  0  0  0
    9.3232    2.9715   -1.3541 C   0  0  0  0  0  0  0  0  0  0  0  0
    9.1096    1.8181   -2.2686 C   0  0  0  0  0  0  0  0  0  0  0  0
   10.6079    3.3791   -1.0161 N   0  0  0  0  0  0  0  0  0  0  0  0
   10.5523    4.4988   -0.2291 C   0  0  0  0  0  0  0  0  0  0  0  0
    9.2173    4.8019   -0.0572 C   0  0  0  0  0  0  0  0  0  0  0  0
    8.6831    5.9481    0.7284 C   0  0  0  0  0  0  0  0  0  0  0  0
    9.7301    6.8042    1.4025 C   0  0  0  0  0  0  0  0  0  0  0  0
   11.1952    6.4585    1.1617 C   0  0  0  0  0  0  0  0  0  0  0  0
   11.6353    5.2596    0.3185 C   0  0  0  0  0  0  0  0  0  0  0  0
   12.9683    5.0474    0.1618 C   0  0  0  0  0  0  0  0  0  0  0  0
   13.7193    3.9693   -0.6127 C   0  0  0  0  0  0  0  0  0  0  0  0
   13.2518    3.0550   -1.2679 O   0  0  0  0  0  0  0  0  0  0  0  0
   15.0742    4.2405   -0.4193 N   0  0  0  0  0  0  0  0  0  0  0  0
   15.2764    5.3560    0.3890 C   0  0  0  0  0  0  0  0  0  0  0  0
   16.4830    5.9216    0.8013 C   0  0  0  0  0  0  0  0  0  0  0  0
   16.4537    7.0669    1.6314 C   0  0  0  0  0  0  0  0  0  0  0  0
   15.2256    7.6145    2.0195 C   0  0  0  0  0  0  0  0  0  0  0  0
   14.9886    8.8135    2.8797 C   0  0  0  0  0  0  0  0  0  0  0  0
   13.8552    9.2144    3.1278 O   0  0  0  0  0  0  0  0  0  0  0  0
   16.1229    9.3807    3.3492 O   0  0  0  0  0  0  0  0  0  0  0  0
   15.8158   10.5073    4.1821 C   0  0  0  0  0  0  0  0  0  0  0  0
   14.0480    7.0076    1.5782 C   0  0  0  0  0  0  0  0  0  0  0  0
   14.0513    5.8845    0.7689 C   0  0  0  0  0  0  0  0  0  0  0  0
    4.6745    0.4313    3.4908 H   0  0  0  0  0  0  0  0  0  0  0  0
    5.8158   -0.4113    2.4360 H   0  0  0  0  0  0  0  0  0  0  0  0
    4.1402   -0.9941    2.5974 H   0  0  0  0  0  0  0  0  0  0  0  0
    4.8577    1.7646    1.5842 H   0  0  0  0  0  0  0  0  0  0  0  0
    3.2719    1.0121    1.4688 H   0  0  0  0  0  0  0  0  0  0  0  0
    4.6348   -1.7277    0.4856 H   0  0  0  0  0  0  0  0  0  0  0  0
    4.6818   -1.3486   -1.2031 H   0  0  0  0  0  0  0  0  0  0  0  0
    2.1933   -0.7614    0.4956 H   0  0  0  0  0  0  0  0  0  0  0  0
    2.4774   -2.2764   -0.3628 H   0  0  0  0  0  0  0  0  0  0  0  0
    2.3277   -0.7732   -1.2744 H   0  0  0  0  0  0  0  0  0  0  0  0
    3.1794    1.3826   -1.0073 H   0  0  0  0  0  0  0  0  0  0  0  0
    4.5729    0.8934   -1.9792 H   0  0  0  0  0  0  0  0  0  0  0  0
    4.5395    3.1956    0.0421 H   0  0  0  0  0  0  0  0  0  0  0  0
    4.4994    3.3212   -1.7060 H   0  0  0  0  0  0  0  0  0  0  0  0
    6.8037    1.8709   -0.6375 H   0  0  0  0  0  0  0  0  0  0  0  0
    8.0555    1.6938   -2.5339 H   0  0  0  0  0  0  0  0  0  0  0  0
    9.4483    0.8885   -1.7999 H   0  0  0  0  0  0  0  0  0  0  0  0
    9.6580    1.9611   -3.2048 H   0  0  0  0  0  0  0  0  0  0  0  0
   11.4651    2.9330   -1.3348 H   0  0  0  0  0  0  0  0  0  0  0  0
    8.0001    5.5671    1.4982 H   0  0  0  0  0  0  0  0  0  0  0  0
    8.0916    6.5944    0.0703 H   0  0  0  0  0  0  0  0  0  0  0  0
    9.5499    6.8070    2.4861 H   0  0  0  0  0  0  0  0  0  0  0  0
    9.5734    7.8522    1.1105 H   0  0  0  0  0  0  0  0  0  0  0  0
   11.6044    6.3018    2.1676 H   0  0  0  0  0  0  0  0  0  0  0  0
   11.6131    7.3537    0.6832 H   0  0  0  0  0  0  0  0  0  0  0  0
   15.8025    3.6746   -0.8289 H   0  0  0  0  0  0  0  0  0  0  0  0
   17.4350    5.4974    0.4965 H   0  0  0  0  0  0  0  0  0  0  0  0
   17.3842    7.5202    1.9644 H   0  0  0  0  0  0  0  0  0  0  0  0
   16.7487   10.9461    4.5400 H   0  0  0  0  0  0  0  0  0  0  0  0
   15.2233   10.1947    5.0516 H   0  0  0  0  0  0  0  0  0  0  0  0
   15.2686   11.2704    3.6139 H   0  0  0  0  0  0  0  0  0  0  0  0
   13.1400    7.4786    1.9117 H   0  0  0  0  0  0  0  0  0  0  0  0
  1  2  1  0  0  0  0
  1 35  1  0  0  0  0
  1 36  1  0  0  0  0
  1 37  1  0  0  0  0
  2  3  1  0  0  0  0
  2 38  1  0  0  0  0
  2 39  1  0  0  0  0
  3  4  1  0  0  0  0
  3  6  1  0  0  0  0
  4  5  1  0  0  0  0
  4 40  1  0  0  0  0
  4 41  1  0  0  0  0
  5 42  1  0  0  0  0
  5 43  1  0  0  0  0
  5 44  1  0  0  0  0
  6  7  1  0  0  0  0
  6 45  1  0  0  0  0
  6 46  1  0  0  0  0
  7  8  1  0  0  0  0
  7 47  1  0  0  0  0
  7 48  1  0  0  0  0
  8  9  1  0  0  0  0
  8 49  1  0  0  0  0
  9 10  2  0  0  0  0
  9 11  1  0  0  0  0
 11 12  2  0  0  0  0
 11 16  1  0  0  0  0
 12 13  1  0  0  0  0
 12 14  1  0  0  0  0
 13 50  1  0  0  0  0
 13 51  1  0  0  0  0
 13 52  1  0  0  0  0
 14 15  1  0  0  0  0
 14 53  1  0  0  0  0
 15 16  2  0  0  0  0
 15 20  1  0  0  0  0
 16 17  1  0  0  0  0
 17 18  1  0  0  0  0
 17 54  1  0  0  0  0
 17 55  1  0  0  0  0
 18 19  1  0  0  0  0
 18 56  1  0  0  0  0
 18 57  1  0  0  0  0
 19 20  1  0  0  0  0
 19 58  1  0  0  0  0
 19 59  1  0  0  0  0
 20 21  2  0  0  0  0
 21 22  1  0  0  0  0
 21 34  1  0  0  0  0
 22 23  2  0  0  0  0
 22 24  1  0  0  0  0
 24 25  1  0  0  0  0
 24 60  1  0  0  0  0
 25 26  1  0  0  0  0
 25 34  2  0  0  0  0
 26 27  2  0  0  0  0
 26 61  1  0  0  0  0
 27 28  1  0  0  0  0
 27 62  1  0  0  0  0
 28 29  1  0  0  0  0
 28 33  2  0  0  0  0
 29 30  2  0  0  0  0
 29 31  1  0  0  0  0
 31 32  1  0  0  0  0
 32 63  1  0  0  0  0
 32 64  1  0  0  0  0
 32 65  1  0  0  0  0
 33 34  1  0  0  0  0
 33 66  1  0  0  0  0
M  END
$$$$
