CHEMBL394789
 OpenBabel04072215373D

 45 48  0  0  0  0  0  0  0  0999 V2000
   -1.6187   -2.8409   -1.5216 C   0  0  0  0  0  0  0  0  0  0  0  0
   -0.8814   -1.5312   -1.4618 C   0  0  0  0  0  0  0  0  0  0  0  0
   -1.5758   -0.3784   -1.8928 C   0  0  0  0  0  0  0  0  0  0  0  0
   -0.9758    0.8786   -1.8859 C   0  0  0  0  0  0  0  0  0  0  0  0
    0.3200    1.0095   -1.4184 C   0  0  0  0  0  0  0  0  0  0  0  0
    1.0109   -0.1177   -0.9714 C   0  0  0  0  0  0  0  0  0  0  0  0
    0.4456   -1.4038   -1.0002 C   0  0  0  0  0  0  0  0  0  0  0  0
    1.1884   -2.5494   -0.5897 N   0  0  0  0  0  0  0  0  0  0  0  0
    2.5579   -2.5757   -0.3638 C   0  0  0  0  0  0  0  0  0  0  0  0
    3.2979   -1.6065   -0.4845 O   0  0  0  0  0  0  0  0  0  0  0  0
    3.0455   -3.8369   -0.0394 N   0  0  0  0  0  0  0  0  0  0  0  0
    4.4370   -4.0051    0.1948 C   0  0  0  0  0  0  0  0  0  0  0  0
    5.1675   -3.0793    0.9443 C   0  0  0  0  0  0  0  0  0  0  0  0
    6.5646   -3.1364    0.9863 C   0  0  0  0  0  0  0  0  0  0  0  0
    7.2653   -4.1441    0.3074 C   0  0  0  0  0  0  0  0  0  0  0  0
    8.7401   -4.1268    0.2602 C   0  0  0  0  0  0  0  0  0  0  0  0
    9.4404   -3.7393    1.3899 C   0  0  0  0  0  0  0  0  0  0  0  0
   11.1224   -3.7350    1.1805 S   0  0  0  0  0  0  0  0  0  0  0  0
   10.9903   -4.2745   -0.4442 C   0  0  0  0  0  0  0  0  0  0  0  0
   12.0719   -4.5207   -1.2991 C   0  0  0  0  0  0  0  0  0  0  0  0
   11.7565   -4.9489   -2.5659 C   0  0  0  0  0  0  0  0  0  0  0  0
   10.5015   -5.1077   -3.0100 N   0  0  0  0  0  0  0  0  0  0  0  0
    9.4508   -4.8498   -2.1990 C   0  0  0  0  0  0  0  0  0  0  0  0
    8.2163   -4.9921   -2.8208 N   0  0  0  0  0  0  0  0  0  0  0  0
    9.6560   -4.4420   -0.8489 C   0  0  0  0  0  0  0  0  0  0  0  0
    6.5150   -5.1437   -0.3253 C   0  0  0  0  0  0  0  0  0  0  0  0
    5.1121   -5.0722   -0.3947 C   0  0  0  0  0  0  0  0  0  0  0  0
   -2.5306   -2.7528   -2.1244 H   0  0  0  0  0  0  0  0  0  0  0  0
   -1.9131   -3.1560   -0.5163 H   0  0  0  0  0  0  0  0  0  0  0  0
   -1.0078   -3.6167   -1.9927 H   0  0  0  0  0  0  0  0  0  0  0  0
   -2.5996   -0.4559   -2.2545 H   0  0  0  0  0  0  0  0  0  0  0  0
   -1.5159    1.7522   -2.2381 H   0  0  0  0  0  0  0  0  0  0  0  0
    0.8077    1.9792   -1.3947 H   0  0  0  0  0  0  0  0  0  0  0  0
    2.0081    0.0665   -0.5874 H   0  0  0  0  0  0  0  0  0  0  0  0
    0.6879   -3.4229   -0.5043 H   0  0  0  0  0  0  0  0  0  0  0  0
    2.5709   -4.6054   -0.4864 H   0  0  0  0  0  0  0  0  0  0  0  0
    4.6622   -2.2690    1.4669 H   0  0  0  0  0  0  0  0  0  0  0  0
    7.0853   -2.3507    1.5286 H   0  0  0  0  0  0  0  0  0  0  0  0
    9.0445   -3.4476    2.3532 H   0  0  0  0  0  0  0  0  0  0  0  0
   13.0993   -4.3862   -0.9831 H   0  0  0  0  0  0  0  0  0  0  0  0
   12.5356   -5.1748   -3.2886 H   0  0  0  0  0  0  0  0  0  0  0  0
    8.3760   -5.0768   -3.8199 H   0  0  0  0  0  0  0  0  0  0  0  0
    7.5615   -4.2658   -2.5579 H   0  0  0  0  0  0  0  0  0  0  0  0
    7.0133   -5.9746   -0.8204 H   0  0  0  0  0  0  0  0  0  0  0  0
    4.5807   -5.8143   -0.9827 H   0  0  0  0  0  0  0  0  0  0  0  0
  1  2  1  0  0  0  0
  1 28  1  0  0  0  0
  1 29  1  0  0  0  0
  1 30  1  0  0  0  0
  2  3  1  0  0  0  0
  2  7  2  0  0  0  0
  3  4  2  0  0  0  0
  3 31  1  0  0  0  0
  4  5  1  0  0  0  0
  4 32  1  0  0  0  0
  5  6  2  0  0  0  0
  5 33  1  0  0  0  0
  6  7  1  0  0  0  0
  6 34  1  0  0  0  0
  7  8  1  0  0  0  0
  8  9  1  0  0  0  0
  8 35  1  0  0  0  0
  9 10  2  0  0  0  0
  9 11  1  0  0  0  0
 11 12  1  0  0  0  0
 11 36  1  0  0  0  0
 12 13  1  0  0  0  0
 12 27  2  0  0  0  0
 13 14  2  0  0  0  0
 13 37  1  0  0  0  0
 14 15  1  0  0  0  0
 14 38  1  0  0  0  0
 15 16  1  0  0  0  0
 15 26  2  0  0  0  0
 16 17  2  0  0  0  0
 16 25  1  0  0  0  0
 17 18  1  0  0  0  0
 17 39  1  0  0  0  0
 18 19  1  0  0  0  0
 19 20  1  0  0  0  0
 19 25  2  0  0  0  0
 20 21  2  0  0  0  0
 20 40  1  0  0  0  0
 21 22  1  0  0  0  0
 21 41  1  0  0  0  0
 22 23  2  0  0  0  0
 23 24  1  0  0  0  0
 23 25  1  0  0  0  0
 24 42  1  0  0  0  0
 24 43  1  0  0  0  0
 26 27  1  0  0  0  0
 26 44  1  0  0  0  0
 27 45  1  0  0  0  0
M  END
$$$$
