CHEMBL58224
 OpenBabel04072215383D

 48 52  0  0  0  0  0  0  0  0999 V2000
   -2.7927    1.3971   -0.2704 O   0  0  0  0  0  0  0  0  0  0  0  0
   -1.6712    0.9867   -0.0501 C   0  0  0  0  0  0  0  0  0  0  0  0
   -0.5528    1.7715    0.0914 N   0  0  0  0  0  0  0  0  0  0  0  0
    0.5957    1.0041    0.2004 C   0  0  0  0  0  0  0  0  0  0  0  0
    1.8674    1.5348    0.2590 C   0  0  0  0  0  0  0  0  0  0  0  0
    2.9224    0.6379    0.2613 C   0  0  0  0  0  0  0  0  0  0  0  0
    2.6759   -0.7401    0.1427 C   0  0  0  0  0  0  0  0  0  0  0  0
    1.3756   -1.2886    0.0335 C   0  0  0  0  0  0  0  0  0  0  0  0
    1.2158   -2.7687   -0.3220 C   0  0  0  0  0  0  0  0  0  0  0  0
    1.5460   -3.7481    0.8157 C   0  0  0  0  0  0  0  0  0  0  0  0
    3.0394   -4.0419    0.9555 C   0  0  0  0  0  0  0  0  0  0  0  0
    3.6333   -4.5362   -0.2842 N   0  0  0  0  0  0  0  0  0  0  0  0
    3.4124   -3.6465   -1.4208 C   0  0  0  0  0  0  0  0  0  0  0  0
    1.9562   -3.2085   -1.6086 C   0  0  0  0  0  0  0  0  0  0  0  0
    0.3093   -0.3776    0.1530 C   0  0  0  0  0  0  0  0  0  0  0  0
   -1.1859   -0.4337    0.1320 C   0  0  0  0  0  0  0  0  0  0  0  0
   -1.9442   -1.5129    0.3966 C   0  0  0  0  0  0  0  0  0  0  0  0
   -3.3634   -1.6651    0.3777 C   0  0  0  0  0  0  0  0  0  0  0  0
   -4.2377   -0.6930   -0.0635 N   0  0  0  0  0  0  0  0  0  0  0  0
   -5.5335   -1.1471   -0.0411 C   0  0  0  0  0  0  0  0  0  0  0  0
   -5.5184   -2.4334    0.4425 C   0  0  0  0  0  0  0  0  0  0  0  0
   -4.1573   -2.7574    0.6898 C   0  0  0  0  0  0  0  0  0  0  0  0
   -3.8166   -4.1200    1.1622 C   0  0  0  0  0  0  0  0  0  0  0  0
   -5.0161   -4.6642    1.9462 C   0  0  0  0  0  0  0  0  0  0  0  0
   -6.2722   -4.5576    1.2286 O   0  0  0  0  0  0  0  0  0  0  0  0
   -6.6252   -3.3604    0.6445 C   0  0  0  0  0  0  0  0  0  0  0  0
   -7.7715   -3.1294    0.2900 O   0  0  0  0  0  0  0  0  0  0  0  0
   -0.5854    2.7777    0.0169 H   0  0  0  0  0  0  0  0  0  0  0  0
    2.0414    2.6030    0.2872 H   0  0  0  0  0  0  0  0  0  0  0  0
    3.9441    1.0013    0.3060 H   0  0  0  0  0  0  0  0  0  0  0  0
    3.5554   -1.3743    0.1004 H   0  0  0  0  0  0  0  0  0  0  0  0
    0.1590   -2.9124   -0.5649 H   0  0  0  0  0  0  0  0  0  0  0  0
    1.0419   -4.7014    0.5986 H   0  0  0  0  0  0  0  0  0  0  0  0
    1.1402   -3.3954    1.7701 H   0  0  0  0  0  0  0  0  0  0  0  0
    3.1804   -4.8075    1.7276 H   0  0  0  0  0  0  0  0  0  0  0  0
    3.5845   -3.1648    1.3158 H   0  0  0  0  0  0  0  0  0  0  0  0
    3.2623   -5.4617   -0.4966 H   0  0  0  0  0  0  0  0  0  0  0  0
    3.7344   -4.1745   -2.3275 H   0  0  0  0  0  0  0  0  0  0  0  0
    4.0796   -2.7827   -1.3525 H   0  0  0  0  0  0  0  0  0  0  0  0
    1.4140   -4.0715   -2.0207 H   0  0  0  0  0  0  0  0  0  0  0  0
    1.9047   -2.4238   -2.3733 H   0  0  0  0  0  0  0  0  0  0  0  0
   -1.4219   -2.4168    0.6927 H   0  0  0  0  0  0  0  0  0  0  0  0
   -3.9727    0.2428   -0.3641 H   0  0  0  0  0  0  0  0  0  0  0  0
   -6.3465   -0.5171   -0.3760 H   0  0  0  0  0  0  0  0  0  0  0  0
   -2.9196   -4.1197    1.7896 H   0  0  0  0  0  0  0  0  0  0  0  0
   -3.6271   -4.7501    0.2857 H   0  0  0  0  0  0  0  0  0  0  0  0
   -5.1357   -4.1449    2.9046 H   0  0  0  0  0  0  0  0  0  0  0  0
   -4.8557   -5.7259    2.1652 H   0  0  0  0  0  0  0  0  0  0  0  0
  1  2  2  0  0  0  0
  2  3  1  0  0  0  0
  2 16  1  0  0  0  0
  3  4  1  0  0  0  0
  3 28  1  0  0  0  0
  4  5  1  0  0  0  0
  4 15  2  0  0  0  0
  5  6  2  0  0  0  0
  5 29  1  0  0  0  0
  6  7  1  0  0  0  0
  6 30  1  0  0  0  0
  7  8  2  0  0  0  0
  7 31  1  0  0  0  0
  8  9  1  0  0  0  0
  8 15  1  0  0  0  0
  9 10  1  0  0  0  0
  9 14  1  0  0  0  0
  9 32  1  0  0  0  0
 10 11  1  0  0  0  0
 10 33  1  0  0  0  0
 10 34  1  0  0  0  0
 11 12  1  0  0  0  0
 11 35  1  0  0  0  0
 11 36  1  0  0  0  0
 12 13  1  0  0  0  0
 12 37  1  0  0  0  0
 13 14  1  0  0  0  0
 13 38  1  0  0  0  0
 13 39  1  0  0  0  0
 14 40  1  0  0  0  0
 14 41  1  0  0  0  0
 15 16  1  0  0  0  0
 16 17  2  0  0  0  0
 17 18  1  0  0  0  0
 17 42  1  0  0  0  0
 18 19  1  0  0  0  0
 18 22  2  0  0  0  0
 19 20  1  0  0  0  0
 19 43  1  0  0  0  0
 20 21  2  0  0  0  0
 20 44  1  0  0  0  0
 21 22  1  0  0  0  0
 21 26  1  0  0  0  0
 22 23  1  0  0  0  0
 23 24  1  0  0  0  0
 23 45  1  0  0  0  0
 23 46  1  0  0  0  0
 24 25  1  0  0  0  0
 24 47  1  0  0  0  0
 24 48  1  0  0  0  0
 25 26  1  0  0  0  0
 26 27  2  0  0  0  0
M  END
$$$$
