CHEMBL4074713
 OpenBabel04072215383D

 46 49  0  0  0  0  0  0  0  0999 V2000
    2.8646    0.8468   -2.2495 C   0  0  0  0  0  0  0  0  0  0  0  0
    1.4530    0.5438   -1.8358 C   0  0  0  0  0  0  0  0  0  0  0  0
    0.9622   -0.7611   -1.9396 C   0  0  0  0  0  0  0  0  0  0  0  0
   -0.3297   -1.0502   -1.5190 C   0  0  0  0  0  0  0  0  0  0  0  0
   -1.1443   -0.0408   -1.0156 C   0  0  0  0  0  0  0  0  0  0  0  0
   -2.3179   -0.4339   -0.5069 F   0  0  0  0  0  0  0  0  0  0  0  0
   -0.7093    1.2951   -0.9588 C   0  0  0  0  0  0  0  0  0  0  0  0
   -1.5103    2.3924   -0.5461 N   0  0  0  0  0  0  0  0  0  0  0  0
   -2.8949    2.4075   -0.4855 C   0  0  0  0  0  0  0  0  0  0  0  0
   -3.6296    1.4741   -0.7983 O   0  0  0  0  0  0  0  0  0  0  0  0
   -3.3932    3.6481   -0.0974 N   0  0  0  0  0  0  0  0  0  0  0  0
   -4.7885    3.8102    0.0895 C   0  0  0  0  0  0  0  0  0  0  0  0
   -5.5425    2.8678    0.7862 C   0  0  0  0  0  0  0  0  0  0  0  0
   -6.9388    2.9584    0.8189 C   0  0  0  0  0  0  0  0  0  0  0  0
   -7.6258    4.0090    0.1818 C   0  0  0  0  0  0  0  0  0  0  0  0
   -9.1050    4.0483    0.1518 C   0  0  0  0  0  0  0  0  0  0  0  0
   -9.8586    3.6133    1.2675 C   0  0  0  0  0  0  0  0  0  0  0  0
  -11.2453    3.6357    1.2450 C   0  0  0  0  0  0  0  0  0  0  0  0
  -11.9942    4.0659    0.2170 N   0  0  0  0  0  0  0  0  0  0  0  0
  -11.2563    4.4664   -0.8330 C   0  0  0  0  0  0  0  0  0  0  0  0
  -11.7787    4.9395   -1.9951 N   0  0  0  0  0  0  0  0  0  0  0  0
  -10.8611    5.2602   -2.9151 N   0  0  0  0  0  0  0  0  0  0  0  0
   -9.6936    4.9605   -2.3206 C   0  0  0  0  0  0  0  0  0  0  0  0
   -8.4630    5.1590   -3.1298 C   0  0  0  0  0  0  0  0  0  0  0  0
   -9.8684    4.4867   -0.9710 C   0  0  0  0  0  0  0  0  0  0  0  0
   -6.8311    5.0153   -0.3880 C   0  0  0  0  0  0  0  0  0  0  0  0
   -5.4332    4.9151   -0.4593 C   0  0  0  0  0  0  0  0  0  0  0  0
    0.6141    1.5647   -1.3476 C   0  0  0  0  0  0  0  0  0  0  0  0
    3.3806   -0.0585   -2.5933 H   0  0  0  0  0  0  0  0  0  0  0  0
    3.4288    1.2462   -1.4017 H   0  0  0  0  0  0  0  0  0  0  0  0
    2.8744    1.5681   -3.0709 H   0  0  0  0  0  0  0  0  0  0  0  0
    1.5835   -1.5643   -2.3289 H   0  0  0  0  0  0  0  0  0  0  0  0
   -0.7175   -2.0637   -1.5631 H   0  0  0  0  0  0  0  0  0  0  0  0
   -1.0440    3.2819   -0.4241 H   0  0  0  0  0  0  0  0  0  0  0  0
   -2.9047    4.4363   -0.4936 H   0  0  0  0  0  0  0  0  0  0  0  0
   -5.0560    2.0289    1.2817 H   0  0  0  0  0  0  0  0  0  0  0  0
   -7.4785    2.1643    1.3316 H   0  0  0  0  0  0  0  0  0  0  0  0
   -9.3677    3.2565    2.1685 H   0  0  0  0  0  0  0  0  0  0  0  0
  -11.8128    3.2899    2.1061 H   0  0  0  0  0  0  0  0  0  0  0  0
  -12.7599    5.0577   -2.2113 H   0  0  0  0  0  0  0  0  0  0  0  0
   -8.7035    5.2589   -4.1950 H   0  0  0  0  0  0  0  0  0  0  0  0
   -7.7788    4.3125   -3.0299 H   0  0  0  0  0  0  0  0  0  0  0  0
   -7.9555    6.0836   -2.8414 H   0  0  0  0  0  0  0  0  0  0  0  0
   -7.2983    5.8994   -0.8097 H   0  0  0  0  0  0  0  0  0  0  0  0
   -4.8795    5.6707   -1.0068 H   0  0  0  0  0  0  0  0  0  0  0  0
    1.0016    2.5790   -1.2969 H   0  0  0  0  0  0  0  0  0  0  0  0
  1  2  1  0  0  0  0
  1 29  1  0  0  0  0
  1 30  1  0  0  0  0
  1 31  1  0  0  0  0
  2  3  1  0  0  0  0
  2 28  2  0  0  0  0
  3  4  2  0  0  0  0
  3 32  1  0  0  0  0
  4  5  1  0  0  0  0
  4 33  1  0  0  0  0
  5  6  1  0  0  0  0
  5  7  2  0  0  0  0
  7  8  1  0  0  0  0
  7 28  1  0  0  0  0
  8  9  1  0  0  0  0
  8 34  1  0  0  0  0
  9 10  2  0  0  0  0
  9 11  1  0  0  0  0
 11 12  1  0  0  0  0
 11 35  1  0  0  0  0
 12 13  1  0  0  0  0
 12 27  2  0  0  0  0
 13 14  2  0  0  0  0
 13 36  1  0  0  0  0
 14 15  1  0  0  0  0
 14 37  1  0  0  0  0
 15 16  1  0  0  0  0
 15 26  2  0  0  0  0
 16 17  1  0  0  0  0
 16 25  2  0  0  0  0
 17 18  2  0  0  0  0
 17 38  1  0  0  0  0
 18 19  1  0  0  0  0
 18 39  1  0  0  0  0
 19 20  2  0  0  0  0
 20 21  1  0  0  0  0
 20 25  1  0  0  0  0
 21 22  1  0  0  0  0
 21 40  1  0  0  0  0
 22 23  2  0  0  0  0
 23 24  1  0  0  0  0
 23 25  1  0  0  0  0
 24 41  1  0  0  0  0
 24 42  1  0  0  0  0
 24 43  1  0  0  0  0
 26 27  1  0  0  0  0
 26 44  1  0  0  0  0
 27 45  1  0  0  0  0
 28 46  1  0  0  0  0
M  END
$$$$
