CHEMBL4574832
 OpenBabel04072215383D

 41 43  0  0  0  0  0  0  0  0999 V2000
    8.6894    0.3148   -7.8142 O   0  0  0  0  0  0  0  0  0  0  0  0
    7.6101    0.0201   -7.3440 C   0  0  0  0  0  0  0  0  0  0  0  0
    6.9741   -1.1407   -7.6148 O   0  0  0  0  0  0  0  0  0  0  0  0
    6.8592    0.9052   -6.4131 C   0  0  0  0  0  0  0  0  0  0  0  0
    7.0089    2.2824   -6.5735 C   0  0  0  0  0  0  0  0  0  0  0  0
    6.3621    3.1649   -5.7041 C   0  0  0  0  0  0  0  0  0  0  0  0
    5.5345    2.6950   -4.6741 C   0  0  0  0  0  0  0  0  0  0  0  0
    4.9439    3.5811   -3.7285 N   0  0  0  0  0  0  0  0  0  0  0  0
    4.4834    4.8885   -4.0527 C   0  0  0  0  0  0  0  0  0  0  0  0
    4.4247    5.8465   -3.0591 C   0  0  0  0  0  0  0  0  0  0  0  0
    3.8803    7.0609   -3.4127 C   0  0  0  0  0  0  0  0  0  0  0  0
    3.4106    7.3440   -4.6423 N   0  0  0  0  0  0  0  0  0  0  0  0
    3.5087    6.3541   -5.5456 C   0  0  0  0  0  0  0  0  0  0  0  0
    2.8346    6.5976   -7.1756 S   0  0  0  0  0  0  0  0  0  0  0  0
    3.0675    8.3931   -7.3905 C   0  0  0  0  0  0  0  0  0  0  0  0
    4.5292    8.7901   -7.3062 C   0  0  0  0  0  0  0  0  0  0  0  0
    5.4416    8.0343   -7.6396 O   0  0  0  0  0  0  0  0  0  0  0  0
    4.8980   10.1639   -6.8390 C   0  0  0  0  0  0  0  0  0  0  0  0
    3.9542   11.1469   -6.5170 C   0  0  0  0  0  0  0  0  0  0  0  0
    4.3751   12.3850   -6.0143 C   0  0  0  0  0  0  0  0  0  0  0  0
    5.7342   12.6489   -5.8468 C   0  0  0  0  0  0  0  0  0  0  0  0
    6.2400   14.1593   -5.1993 Cl  0  0  0  0  0  0  0  0  0  0  0  0
    6.6826   11.6893   -6.1833 C   0  0  0  0  0  0  0  0  0  0  0  0
    6.2645   10.4531   -6.6802 C   0  0  0  0  0  0  0  0  0  0  0  0
    4.0116    5.1370   -5.2888 N   0  0  0  0  0  0  0  0  0  0  0  0
    5.4228    1.3086   -4.4948 C   0  0  0  0  0  0  0  0  0  0  0  0
    6.0721    0.4149   -5.3633 C   0  0  0  0  0  0  0  0  0  0  0  0
    6.0511   -1.1739   -7.3108 H   0  0  0  0  0  0  0  0  0  0  0  0
    7.6301    2.6786   -7.3744 H   0  0  0  0  0  0  0  0  0  0  0  0
    6.5125    4.2319   -5.8536 H   0  0  0  0  0  0  0  0  0  0  0  0
    5.5513    3.6314   -2.9155 H   0  0  0  0  0  0  0  0  0  0  0  0
    4.7949    5.6692   -2.0590 H   0  0  0  0  0  0  0  0  0  0  0  0
    3.8026    7.8657   -2.6861 H   0  0  0  0  0  0  0  0  0  0  0  0
    2.4564    8.9039   -6.6470 H   0  0  0  0  0  0  0  0  0  0  0  0
    2.6997    8.6701   -8.3870 H   0  0  0  0  0  0  0  0  0  0  0  0
    2.8869   10.9782   -6.6203 H   0  0  0  0  0  0  0  0  0  0  0  0
    3.6366   13.1343   -5.7388 H   0  0  0  0  0  0  0  0  0  0  0  0
    7.7439   11.8833   -6.0466 H   0  0  0  0  0  0  0  0  0  0  0  0
    7.0149    9.7013   -6.9224 H   0  0  0  0  0  0  0  0  0  0  0  0
    4.8114    0.9124   -3.6869 H   0  0  0  0  0  0  0  0  0  0  0  0
    5.9757   -0.6537   -5.1857 H   0  0  0  0  0  0  0  0  0  0  0  0
  1  2  2  0  0  0  0
  2  3  1  0  0  0  0
  2  4  1  0  0  0  0
  3 28  1  0  0  0  0
  4  5  1  0  0  0  0
  4 27  2  0  0  0  0
  5  6  2  0  0  0  0
  5 29  1  0  0  0  0
  6  7  1  0  0  0  0
  6 30  1  0  0  0  0
  7  8  1  0  0  0  0
  7 26  2  0  0  0  0
  8  9  1  0  0  0  0
  8 31  1  0  0  0  0
  9 10  1  0  0  0  0
  9 25  2  0  0  0  0
 10 11  2  0  0  0  0
 10 32  1  0  0  0  0
 11 12  1  0  0  0  0
 11 33  1  0  0  0  0
 12 13  2  0  0  0  0
 13 14  1  0  0  0  0
 13 25  1  0  0  0  0
 14 15  1  0  0  0  0
 15 16  1  0  0  0  0
 15 34  1  0  0  0  0
 15 35  1  0  0  0  0
 16 17  2  0  0  0  0
 16 18  1  0  0  0  0
 18 19  1  0  0  0  0
 18 24  2  0  0  0  0
 19 20  2  0  0  0  0
 19 36  1  0  0  0  0
 20 21  1  0  0  0  0
 20 37  1  0  0  0  0
 21 22  1  0  0  0  0
 21 23  2  0  0  0  0
 23 24  1  0  0  0  0
 23 38  1  0  0  0  0
 24 39  1  0  0  0  0
 26 27  1  0  0  0  0
 26 40  1  0  0  0  0
 27 41  1  0  0  0  0
M  END
$$$$
