CHEMBL2018776
 OpenBabel04072215363D

 70 72  0  0  0  0  0  0  0  0999 V2000
    2.2345   -4.0645   -2.3848 C   0  0  0  0  0  0  0  0  0  0  0  0
    3.0673   -4.3026   -1.1437 C   0  0  0  0  0  0  0  0  0  0  0  0
    3.5610   -3.0094   -0.4790 C   0  0  0  0  0  0  0  0  0  0  0  0
    4.5233   -3.4054    0.6321 C   0  0  0  0  0  0  0  0  0  0  0  0
    5.1807   -2.2914    1.2466 O   0  0  0  0  0  0  0  0  0  0  0  0
    6.4923   -2.5140    1.6074 C   0  0  0  0  0  0  0  0  0  0  0  0
    7.0436   -3.7987    1.5873 C   0  0  0  0  0  0  0  0  0  0  0  0
    8.4273   -4.0144    1.6073 C   0  0  0  0  0  0  0  0  0  0  0  0
    9.0122   -5.2644    1.3504 C   0  0  0  0  0  0  0  0  0  0  0  0
    8.1886   -6.3214    0.8739 N   0  0  0  0  0  0  0  0  0  0  0  0
    8.3191   -7.7083    1.0748 C   0  0  0  0  0  0  0  0  0  0  0  0
    7.5039   -8.5863    0.3505 C   0  0  0  0  0  0  0  0  0  0  0  0
    7.4364   -9.9461    0.6749 C   0  0  0  0  0  0  0  0  0  0  0  0
    8.1598  -10.4609    1.7535 C   0  0  0  0  0  0  0  0  0  0  0  0
    8.0159  -11.7988    2.1882 N   0  0  0  0  0  0  0  0  0  0  0  0
    6.9972  -12.6529    1.8670 C   0  0  0  0  0  0  0  0  0  0  0  0
    6.0529  -12.4300    1.1232 O   0  0  0  0  0  0  0  0  0  0  0  0
    7.1522  -13.8226    2.5467 O   0  0  0  0  0  0  0  0  0  0  0  0
    6.0921  -14.7496    2.2966 C   0  0  0  0  0  0  0  0  0  0  0  0
    9.0244   -9.5969    2.4410 C   0  0  0  0  0  0  0  0  0  0  0  0
    9.9699  -10.1534    3.7801 Cl  0  0  0  0  0  0  0  0  0  0  0  0
    9.0917   -8.2422    2.1138 C   0  0  0  0  0  0  0  0  0  0  0  0
   10.3292   -5.4595    1.4615 N   0  0  0  0  0  0  0  0  0  0  0  0
   11.0574   -4.3912    1.7880 C   0  0  0  0  0  0  0  0  0  0  0  0
   10.6045   -3.1394    1.9851 N   0  0  0  0  0  0  0  0  0  0  0  0
    9.2832   -2.9530    1.8892 C   0  0  0  0  0  0  0  0  0  0  0  0
    8.7161   -1.6774    2.0554 C   0  0  0  0  0  0  0  0  0  0  0  0
    7.3344   -1.4382    1.9258 C   0  0  0  0  0  0  0  0  0  0  0  0
    6.9286   -0.1253    2.1109 O   0  0  0  0  0  0  0  0  0  0  0  0
    5.7746   -0.0366    2.9653 C   0  0  0  0  0  0  0  0  0  0  0  0
    5.4622    1.3919    3.4827 C   0  0  0  0  0  0  0  0  0  0  0  0
    4.1937    1.4349    4.2649 N   0  0  0  0  0  0  0  0  0  0  0  0
    4.1772    0.5130    5.4119 C   0  0  0  0  0  0  0  0  0  0  0  0
    5.1188    0.8615    6.5589 C   0  0  0  0  0  0  0  0  0  0  0  0
    3.7934    2.8100    4.6051 C   0  0  0  0  0  0  0  0  0  0  0  0
    2.4233    2.9021    5.2858 C   0  0  0  0  0  0  0  0  0  0  0  0
    1.8566   -5.0208   -2.7625 H   0  0  0  0  0  0  0  0  0  0  0  0
    2.8377   -3.6077   -3.1753 H   0  0  0  0  0  0  0  0  0  0  0  0
    1.3807   -3.4171   -2.1710 H   0  0  0  0  0  0  0  0  0  0  0  0
    3.9251   -4.9272   -1.4284 H   0  0  0  0  0  0  0  0  0  0  0  0
    2.4866   -4.8846   -0.4181 H   0  0  0  0  0  0  0  0  0  0  0  0
    2.7292   -2.4188   -0.0819 H   0  0  0  0  0  0  0  0  0  0  0  0
    4.0845   -2.3765   -1.2056 H   0  0  0  0  0  0  0  0  0  0  0  0
    5.2369   -4.0590    0.1224 H   0  0  0  0  0  0  0  0  0  0  0  0
    4.0034   -3.9748    1.4117 H   0  0  0  0  0  0  0  0  0  0  0  0
    6.4094   -4.6785    1.5307 H   0  0  0  0  0  0  0  0  0  0  0  0
    7.7781   -6.0778   -0.0229 H   0  0  0  0  0  0  0  0  0  0  0  0
    6.8793   -8.2250   -0.4641 H   0  0  0  0  0  0  0  0  0  0  0  0
    6.7900  -10.5763    0.0709 H   0  0  0  0  0  0  0  0  0  0  0  0
    8.6261  -12.1158    2.9326 H   0  0  0  0  0  0  0  0  0  0  0  0
    6.2297  -15.6197    2.9443 H   0  0  0  0  0  0  0  0  0  0  0  0
    6.1182  -15.0817    1.2534 H   0  0  0  0  0  0  0  0  0  0  0  0
    5.1206  -14.2997    2.5290 H   0  0  0  0  0  0  0  0  0  0  0  0
    9.7276   -7.5850    2.7010 H   0  0  0  0  0  0  0  0  0  0  0  0
   12.1285   -4.5455    1.8952 H   0  0  0  0  0  0  0  0  0  0  0  0
    9.3790   -0.8451    2.2856 H   0  0  0  0  0  0  0  0  0  0  0  0
    5.9522   -0.6931    3.8227 H   0  0  0  0  0  0  0  0  0  0  0  0
    4.8891   -0.3569    2.4127 H   0  0  0  0  0  0  0  0  0  0  0  0
    5.3720    2.0526    2.6096 H   0  0  0  0  0  0  0  0  0  0  0  0
    6.3086    1.7844    4.0602 H   0  0  0  0  0  0  0  0  0  0  0  0
    4.3858   -0.5076    5.0775 H   0  0  0  0  0  0  0  0  0  0  0  0
    3.1566    0.4256    5.8014 H   0  0  0  0  0  0  0  0  0  0  0  0
    6.1287    1.0981    6.2123 H   0  0  0  0  0  0  0  0  0  0  0  0
    5.1995    0.0084    7.2403 H   0  0  0  0  0  0  0  0  0  0  0  0
    4.7426    1.7127    7.1344 H   0  0  0  0  0  0  0  0  0  0  0  0
    3.7268    3.4001    3.6825 H   0  0  0  0  0  0  0  0  0  0  0  0
    4.5428    3.2959    5.2408 H   0  0  0  0  0  0  0  0  0  0  0  0
    1.6419    2.4462    4.6680 H   0  0  0  0  0  0  0  0  0  0  0  0
    2.1517    3.9498    5.4517 H   0  0  0  0  0  0  0  0  0  0  0  0
    2.4130    2.4157    6.2666 H   0  0  0  0  0  0  0  0  0  0  0  0
  1  2  1  0  0  0  0
  1 37  1  0  0  0  0
  1 38  1  0  0  0  0
  1 39  1  0  0  0  0
  2  3  1  0  0  0  0
  2 40  1  0  0  0  0
  2 41  1  0  0  0  0
  3  4  1  0  0  0  0
  3 42  1  0  0  0  0
  3 43  1  0  0  0  0
  4  5  1  0  0  0  0
  4 44  1  0  0  0  0
  4 45  1  0  0  0  0
  5  6  1  0  0  0  0
  6  7  1  0  0  0  0
  6 28  2  0  0  0  0
  7  8  2  0  0  0  0
  7 46  1  0  0  0  0
  8  9  1  0  0  0  0
  8 26  1  0  0  0  0
  9 10  1  0  0  0  0
  9 23  2  0  0  0  0
 10 11  1  0  0  0  0
 10 47  1  0  0  0  0
 11 12  1  0  0  0  0
 11 22  2  0  0  0  0
 12 13  2  0  0  0  0
 12 48  1  0  0  0  0
 13 14  1  0  0  0  0
 13 49  1  0  0  0  0
 14 15  1  0  0  0  0
 14 20  2  0  0  0  0
 15 16  1  0  0  0  0
 15 50  1  0  0  0  0
 16 17  2  0  0  0  0
 16 18  1  0  0  0  0
 18 19  1  0  0  0  0
 19 51  1  0  0  0  0
 19 52  1  0  0  0  0
 19 53  1  0  0  0  0
 20 21  1  0  0  0  0
 20 22  1  0  0  0  0
 22 54  1  0  0  0  0
 23 24  1  0  0  0  0
 24 25  2  0  0  0  0
 24 55  1  0  0  0  0
 25 26  1  0  0  0  0
 26 27  2  0  0  0  0
 27 28  1  0  0  0  0
 27 56  1  0  0  0  0
 28 29  1  0  0  0  0
 29 30  1  0  0  0  0
 30 31  1  0  0  0  0
 30 57  1  0  0  0  0
 30 58  1  0  0  0  0
 31 32  1  0  0  0  0
 31 59  1  0  0  0  0
 31 60  1  0  0  0  0
 32 33  1  0  0  0  0
 32 35  1  0  0  0  0
 33 34  1  0  0  0  0
 33 61  1  0  0  0  0
 33 62  1  0  0  0  0
 34 63  1  0  0  0  0
 34 64  1  0  0  0  0
 34 65  1  0  0  0  0
 35 36  1  0  0  0  0
 35 66  1  0  0  0  0
 35 67  1  0  0  0  0
 36 68  1  0  0  0  0
 36 69  1  0  0  0  0
 36 70  1  0  0  0  0
M  END
$$$$
