CHEMBL3983004
 OpenBabel04072215373D

 48 51  0  0  0  0  0  0  0  0999 V2000
    0.7891    0.3595   -2.0193 C   0  0  0  0  0  0  0  0  0  0  0  0
    2.1910   -0.0925   -1.7086 C   0  0  0  0  0  0  0  0  0  0  0  0
    2.3919   -1.2184   -1.2588 O   0  0  0  0  0  0  0  0  0  0  0  0
    3.1447    0.8770   -1.9810 N   0  0  0  0  0  0  0  0  0  0  0  0
    4.5415    0.7283   -1.8308 C   0  0  0  0  0  0  0  0  0  0  0  0
    5.1501   -0.5140   -1.6342 C   0  0  0  0  0  0  0  0  0  0  0  0
    6.5174   -0.6124   -1.3836 C   0  0  0  0  0  0  0  0  0  0  0  0
    7.2994    0.5313   -1.3568 C   0  0  0  0  0  0  0  0  0  0  0  0
    6.7390    1.7694   -1.6779 C   0  0  0  0  0  0  0  0  0  0  0  0
    7.5670    2.9927   -1.7793 C   0  0  0  0  0  0  0  0  0  0  0  0
    7.0470    4.0897   -1.5349 O   0  0  0  0  0  0  0  0  0  0  0  0
    9.0064    2.9606   -2.2103 C   0  0  0  0  0  0  0  0  0  0  0  0
    9.5703    1.9058   -2.9518 C   0  0  0  0  0  0  0  0  0  0  0  0
   10.9452    1.8815   -3.2771 C   0  0  0  0  0  0  0  0  0  0  0  0
   11.6993    3.0391   -3.0201 C   0  0  0  0  0  0  0  0  0  0  0  0
   13.0357    3.5502   -3.1894 C   0  0  0  0  0  0  0  0  0  0  0  0
   14.1373    3.4830   -2.2294 C   0  0  0  0  0  0  0  0  0  0  0  0
   13.9684    3.1728   -0.9308 C   0  0  0  0  0  0  0  0  0  0  0  0
   14.5280    4.0056    0.1630 C   0  0  0  0  0  0  0  0  0  0  0  0
   14.5252    5.4125    0.0688 C   0  0  0  0  0  0  0  0  0  0  0  0
   14.7812    6.2159    1.1850 C   0  0  0  0  0  0  0  0  0  0  0  0
   15.0475    5.6283    2.4168 C   0  0  0  0  0  0  0  0  0  0  0  0
   15.0740    4.2378    2.5244 C   0  0  0  0  0  0  0  0  0  0  0  0
   14.8101    3.4334    1.4071 C   0  0  0  0  0  0  0  0  0  0  0  0
   12.8734    4.8019   -3.6633 N   0  0  0  0  0  0  0  0  0  0  0  0
   11.8002    5.2061   -2.9545 N   0  0  0  0  0  0  0  0  0  0  0  0
   11.0119    4.1544   -2.5579 C   0  0  0  0  0  0  0  0  0  0  0  0
    9.7539    4.1163   -1.9661 C   0  0  0  0  0  0  0  0  0  0  0  0
    5.3485    1.8710   -1.8878 C   0  0  0  0  0  0  0  0  0  0  0  0
    0.0803   -0.3644   -1.6079 H   0  0  0  0  0  0  0  0  0  0  0  0
    0.6563    0.4028   -3.1055 H   0  0  0  0  0  0  0  0  0  0  0  0
    0.5866    1.3363   -1.5764 H   0  0  0  0  0  0  0  0  0  0  0  0
    2.8095    1.8109   -2.1993 H   0  0  0  0  0  0  0  0  0  0  0  0
    4.5801   -1.4384   -1.6662 H   0  0  0  0  0  0  0  0  0  0  0  0
    6.9644   -1.5874   -1.2054 H   0  0  0  0  0  0  0  0  0  0  0  0
    8.3521    0.4362   -1.0995 H   0  0  0  0  0  0  0  0  0  0  0  0
    8.9485    1.0936   -3.3209 H   0  0  0  0  0  0  0  0  0  0  0  0
   11.3601    1.0466   -3.8373 H   0  0  0  0  0  0  0  0  0  0  0  0
   14.9620    4.1473   -2.4959 H   0  0  0  0  0  0  0  0  0  0  0  0
   13.1338    2.5534   -0.6100 H   0  0  0  0  0  0  0  0  0  0  0  0
   14.2646    5.9063   -0.8657 H   0  0  0  0  0  0  0  0  0  0  0  0
   14.7383    7.3000    1.0989 H   0  0  0  0  0  0  0  0  0  0  0  0
   15.2157    6.2479    3.2934 H   0  0  0  0  0  0  0  0  0  0  0  0
   15.2685    3.7777    3.4894 H   0  0  0  0  0  0  0  0  0  0  0  0
   14.7865    2.3541    1.5317 H   0  0  0  0  0  0  0  0  0  0  0  0
   11.5828    6.1929   -2.9083 H   0  0  0  0  0  0  0  0  0  0  0  0
    9.3258    4.9831   -1.4745 H   0  0  0  0  0  0  0  0  0  0  0  0
    4.9138    2.8505   -2.0783 H   0  0  0  0  0  0  0  0  0  0  0  0
  1  2  1  0  0  0  0
  1 30  1  0  0  0  0
  1 31  1  0  0  0  0
  1 32  1  0  0  0  0
  2  3  2  0  0  0  0
  2  4  1  0  0  0  0
  4  5  1  0  0  0  0
  4 33  1  0  0  0  0
  5  6  1  0  0  0  0
  5 29  2  0  0  0  0
  6  7  2  0  0  0  0
  6 34  1  0  0  0  0
  7  8  1  0  0  0  0
  7 35  1  0  0  0  0
  8  9  2  0  0  0  0
  8 36  1  0  0  0  0
  9 10  1  0  0  0  0
  9 29  1  0  0  0  0
 10 11  2  0  0  0  0
 10 12  1  0  0  0  0
 12 13  1  0  0  0  0
 12 28  2  0  0  0  0
 13 14  2  0  0  0  0
 13 37  1  0  0  0  0
 14 15  1  0  0  0  0
 14 38  1  0  0  0  0
 15 16  1  0  0  0  0
 15 27  2  0  0  0  0
 16 17  1  0  0  0  0
 16 25  2  0  0  0  0
 17 18  2  0  0  0  0
 17 39  1  0  0  0  0
 18 19  1  0  0  0  0
 18 40  1  0  0  0  0
 19 20  1  0  0  0  0
 19 24  2  0  0  0  0
 20 21  2  0  0  0  0
 20 41  1  0  0  0  0
 21 22  1  0  0  0  0
 21 42  1  0  0  0  0
 22 23  2  0  0  0  0
 22 43  1  0  0  0  0
 23 24  1  0  0  0  0
 23 44  1  0  0  0  0
 24 45  1  0  0  0  0
 25 26  1  0  0  0  0
 26 27  1  0  0  0  0
 26 46  1  0  0  0  0
 27 28  1  0  0  0  0
 28 47  1  0  0  0  0
 29 48  1  0  0  0  0
M  END
$$$$
