CHEMBL4292884
 OpenBabel04072215383D

 74 78  0  0  0  0  0  0  0  0999 V2000
    0.9183   -0.2055    0.0681 C   0  0  0  0  0  0  0  0  0  0  0  0
    2.3983   -0.0284    0.0712 C   0  0  0  0  0  0  0  0  0  0  0  0
    3.1706    1.1947    0.0516 C   0  0  0  0  0  0  0  0  0  0  0  0
    2.8013    2.6085    0.0308 C   0  0  0  0  0  0  0  0  0  0  0  0
    3.4891    3.4428   -0.5508 O   0  0  0  0  0  0  0  0  0  0  0  0
    1.6732    2.9435    0.7352 N   0  0  0  0  0  0  0  0  0  0  0  0
    1.1820    4.3055    0.7717 C   0  0  0  0  0  0  0  0  0  0  0  0
    0.3119    4.6413   -0.4384 C   0  0  0  0  0  0  0  0  0  0  0  0
   -0.9546    3.7805   -0.5404 C   0  0  0  0  0  0  0  0  0  0  0  0
   -1.8218    3.8243    0.6509 N   0  0  0  0  0  0  0  0  0  0  0  0
   -2.3772    5.1625    0.8697 C   0  0  0  0  0  0  0  0  0  0  0  0
   -2.9124    2.8554    0.5080 C   0  0  0  0  0  0  0  0  0  0  0  0
    4.5029    0.8118    0.0025 C   0  0  0  0  0  0  0  0  0  0  0  0
    4.5801   -0.5416   -0.0260 N   0  0  0  0  0  0  0  0  0  0  0  0
    5.7138   -1.2582   -0.0955 N   0  0  0  0  0  0  0  0  0  0  0  0
    5.5389   -2.5412   -0.1365 C   0  0  0  0  0  0  0  0  0  0  0  0
    4.3434   -3.2009   -0.0874 N   0  0  0  0  0  0  0  0  0  0  0  0
    3.2757   -2.4827    0.0343 C   0  0  0  0  0  0  0  0  0  0  0  0
    2.0112   -2.9911    0.2494 O   0  0  0  0  0  0  0  0  0  0  0  0
    1.9882   -4.2097    0.9479 C   0  0  0  0  0  0  0  0  0  0  0  0
    2.8464   -4.4358    2.0243 C   0  0  0  0  0  0  0  0  0  0  0  0
    2.7975   -5.6423    2.7061 C   0  0  0  0  0  0  0  0  0  0  0  0
    1.8439   -6.6043    2.3732 C   0  0  0  0  0  0  0  0  0  0  0  0
    1.7048   -7.7885    3.1125 N   0  0  0  0  0  0  0  0  0  0  0  0
    2.1784   -7.9839    4.3961 C   0  0  0  0  0  0  0  0  0  0  0  0
    2.7774   -7.1877    5.1048 O   0  0  0  0  0  0  0  0  0  0  0  0
    1.8955   -9.3394    4.9490 C   0  0  0  0  0  0  0  0  0  0  0  0
    3.0001  -10.2965    4.6859 C   0  0  0  0  0  0  0  0  0  0  0  0
    3.0300  -10.8227    3.5750 O   0  0  0  0  0  0  0  0  0  0  0  0
    3.9261  -10.4853    5.6924 N   0  0  0  0  0  0  0  0  0  0  0  0
    5.1480  -11.1424    5.4423 C   0  0  0  0  0  0  0  0  0  0  0  0
    5.8320  -10.9372    4.2341 C   0  0  0  0  0  0  0  0  0  0  0  0
    6.9660  -11.6842    3.9257 C   0  0  0  0  0  0  0  0  0  0  0  0
    7.4104  -12.6374    4.8290 C   0  0  0  0  0  0  0  0  0  0  0  0
    8.4530  -13.4134    4.5069 F   0  0  0  0  0  0  0  0  0  0  0  0
    6.7812  -12.8052    6.0606 C   0  0  0  0  0  0  0  0  0  0  0  0
    5.6636  -12.0290    6.3870 C   0  0  0  0  0  0  0  0  0  0  0  0
    0.4743   -9.9002    4.8628 C   0  0  0  0  0  0  0  0  0  0  0  0
    1.0023   -9.4152    6.1765 C   0  0  0  0  0  0  0  0  0  0  0  0
    0.9815   -6.3796    1.2944 C   0  0  0  0  0  0  0  0  0  0  0  0
    1.0462   -5.1727    0.5992 C   0  0  0  0  0  0  0  0  0  0  0  0
    0.1706   -4.9399   -0.3896 F   0  0  0  0  0  0  0  0  0  0  0  0
    3.3271   -1.0609    0.0279 C   0  0  0  0  0  0  0  0  0  0  0  0
    0.3758    0.7381    0.0094 H   0  0  0  0  0  0  0  0  0  0  0  0
    0.5936   -0.7252    0.9760 H   0  0  0  0  0  0  0  0  0  0  0  0
    0.6122   -0.8037   -0.7975 H   0  0  0  0  0  0  0  0  0  0  0  0
    1.1711    2.2397    1.2555 H   0  0  0  0  0  0  0  0  0  0  0  0
    2.0391    4.9889    0.7962 H   0  0  0  0  0  0  0  0  0  0  0  0
    0.6353    4.4366    1.7105 H   0  0  0  0  0  0  0  0  0  0  0  0
    0.8944    4.5034   -1.3583 H   0  0  0  0  0  0  0  0  0  0  0  0
    0.0454    5.7041   -0.4071 H   0  0  0  0  0  0  0  0  0  0  0  0
   -0.6379    2.7440   -0.7098 H   0  0  0  0  0  0  0  0  0  0  0  0
   -1.5147    4.0776   -1.4366 H   0  0  0  0  0  0  0  0  0  0  0  0
   -1.5890    5.8803    1.1183 H   0  0  0  0  0  0  0  0  0  0  0  0
   -3.0604    5.1615    1.7265 H   0  0  0  0  0  0  0  0  0  0  0  0
   -2.9227    5.5317   -0.0059 H   0  0  0  0  0  0  0  0  0  0  0  0
   -2.5134    1.8381    0.4264 H   0  0  0  0  0  0  0  0  0  0  0  0
   -3.5317    3.0575   -0.3733 H   0  0  0  0  0  0  0  0  0  0  0  0
   -3.5577    2.8662    1.3936 H   0  0  0  0  0  0  0  0  0  0  0  0
    5.4024    1.4106   -0.0277 H   0  0  0  0  0  0  0  0  0  0  0  0
    6.4337   -3.1832   -0.1887 H   0  0  0  0  0  0  0  0  0  0  0  0
    3.5773   -3.6973    2.3398 H   0  0  0  0  0  0  0  0  0  0  0  0
    3.5329   -5.8069    3.4884 H   0  0  0  0  0  0  0  0  0  0  0  0
    1.1461   -8.5294    2.7055 H   0  0  0  0  0  0  0  0  0  0  0  0
    3.6343  -10.3350    6.6497 H   0  0  0  0  0  0  0  0  0  0  0  0
    5.4868  -10.1920    3.5199 H   0  0  0  0  0  0  0  0  0  0  0  0
    7.4804  -11.5433    2.9808 H   0  0  0  0  0  0  0  0  0  0  0  0
    7.1507  -13.5624    6.7449 H   0  0  0  0  0  0  0  0  0  0  0  0
    5.1640  -12.1918    7.3370 H   0  0  0  0  0  0  0  0  0  0  0  0
    0.3588  -10.9711    4.7249 H   0  0  0  0  0  0  0  0  0  0  0  0
   -0.2907   -9.3142    4.3681 H   0  0  0  0  0  0  0  0  0  0  0  0
    1.2035  -10.1490    6.9433 H   0  0  0  0  0  0  0  0  0  0  0  0
    0.5932   -8.4824    6.5573 H   0  0  0  0  0  0  0  0  0  0  0  0
    0.2259   -7.1047    1.0097 H   0  0  0  0  0  0  0  0  0  0  0  0
  1  2  1  0  0  0  0
  1 44  1  0  0  0  0
  1 45  1  0  0  0  0
  1 46  1  0  0  0  0
  2  3  1  0  0  0  0
  2 43  2  0  0  0  0
  3  4  1  0  0  0  0
  3 13  2  0  0  0  0
  4  5  2  0  0  0  0
  4  6  1  0  0  0  0
  6  7  1  0  0  0  0
  6 47  1  0  0  0  0
  7  8  1  0  0  0  0
  7 48  1  0  0  0  0
  7 49  1  0  0  0  0
  8  9  1  0  0  0  0
  8 50  1  0  0  0  0
  8 51  1  0  0  0  0
  9 10  1  0  0  0  0
  9 52  1  0  0  0  0
  9 53  1  0  0  0  0
 10 11  1  0  0  0  0
 10 12  1  0  0  0  0
 11 54  1  0  0  0  0
 11 55  1  0  0  0  0
 11 56  1  0  0  0  0
 12 57  1  0  0  0  0
 12 58  1  0  0  0  0
 12 59  1  0  0  0  0
 13 14  1  0  0  0  0
 13 60  1  0  0  0  0
 14 15  1  0  0  0  0
 14 43  1  0  0  0  0
 15 16  2  0  0  0  0
 16 17  1  0  0  0  0
 16 61  1  0  0  0  0
 17 18  2  0  0  0  0
 18 19  1  0  0  0  0
 18 43  1  0  0  0  0
 19 20  1  0  0  0  0
 20 21  1  0  0  0  0
 20 41  2  0  0  0  0
 21 22  2  0  0  0  0
 21 62  1  0  0  0  0
 22 23  1  0  0  0  0
 22 63  1  0  0  0  0
 23 24  1  0  0  0  0
 23 40  2  0  0  0  0
 24 25  1  0  0  0  0
 24 64  1  0  0  0  0
 25 26  2  0  0  0  0
 25 27  1  0  0  0  0
 27 28  1  0  0  0  0
 27 38  1  0  0  0  0
 27 39  1  0  0  0  0
 28 29  2  0  0  0  0
 28 30  1  0  0  0  0
 30 31  1  0  0  0  0
 30 65  1  0  0  0  0
 31 32  1  0  0  0  0
 31 37  2  0  0  0  0
 32 33  2  0  0  0  0
 32 66  1  0  0  0  0
 33 34  1  0  0  0  0
 33 67  1  0  0  0  0
 34 35  1  0  0  0  0
 34 36  2  0  0  0  0
 36 37  1  0  0  0  0
 36 68  1  0  0  0  0
 37 69  1  0  0  0  0
 38 39  1  0  0  0  0
 38 70  1  0  0  0  0
 38 71  1  0  0  0  0
 39 72  1  0  0  0  0
 39 73  1  0  0  0  0
 40 41  1  0  0  0  0
 40 74  1  0  0  0  0
 41 42  1  0  0  0  0
M  END
$$$$
