CHEMBL1989471
 OpenBabel04072215363D

 35 37  0  0  0  0  0  0  0  0999 V2000
    0.9662    0.2056    0.0999 C   0  0  0  0  0  0  0  0  0  0  0  0
    2.4648    0.1468    0.1038 C   0  0  0  0  0  0  0  0  0  0  0  0
    3.2092    1.3295    0.1011 C   0  0  0  0  0  0  0  0  0  0  0  0
    4.5927    1.2563    0.1026 C   0  0  0  0  0  0  0  0  0  0  0  0
    5.2873    0.0971    0.1042 N   0  0  0  0  0  0  0  0  0  0  0  0
    4.5684   -1.0455    0.1062 C   0  0  0  0  0  0  0  0  0  0  0  0
    5.2894   -2.2408    0.1012 N   0  0  0  0  0  0  0  0  0  0  0  0
    4.7013   -3.5018    0.1173 C   0  0  0  0  0  0  0  0  0  0  0  0
    5.4769   -4.6645    0.1067 C   0  0  0  0  0  0  0  0  0  0  0  0
    4.8764   -5.9385    0.1230 C   0  0  0  0  0  0  0  0  0  0  0  0
    5.6922   -7.2199    0.0692 C   0  0  0  0  0  0  0  0  0  0  0  0
    6.5389   -7.2791   -1.2073 C   0  0  0  0  0  0  0  0  0  0  0  0
    6.5955   -7.4210    1.2891 C   0  0  0  0  0  0  0  0  0  0  0  0
    3.4752   -6.0233    0.1564 C   0  0  0  0  0  0  0  0  0  0  0  0
    2.6907   -4.8740    0.1531 C   0  0  0  0  0  0  0  0  0  0  0  0
    3.3118   -3.6261    0.1317 C   0  0  0  0  0  0  0  0  0  0  0  0
    2.4909   -2.3979    0.1177 C   0  0  0  0  0  0  0  0  0  0  0  0
    1.2731   -2.5068    0.1129 O   0  0  0  0  0  0  0  0  0  0  0  0
    3.1694   -1.0702    0.1088 C   0  0  0  0  0  0  0  0  0  0  0  0
    0.6015    1.2382    0.0990 H   0  0  0  0  0  0  0  0  0  0  0  0
    0.5648   -0.2785    0.9961 H   0  0  0  0  0  0  0  0  0  0  0  0
    0.5692   -0.2789   -0.7982 H   0  0  0  0  0  0  0  0  0  0  0  0
    2.7217    2.3019    0.0982 H   0  0  0  0  0  0  0  0  0  0  0  0
    5.1991    2.1582    0.1019 H   0  0  0  0  0  0  0  0  0  0  0  0
    6.2903   -2.1244    0.1098 H   0  0  0  0  0  0  0  0  0  0  0  0
    6.5598   -4.5669    0.0763 H   0  0  0  0  0  0  0  0  0  0  0  0
    4.9916   -8.0645    0.0477 H   0  0  0  0  0  0  0  0  0  0  0  0
    7.2394   -6.4395   -1.2588 H   0  0  0  0  0  0  0  0  0  0  0  0
    5.9131   -7.2448   -2.1056 H   0  0  0  0  0  0  0  0  0  0  0  0
    7.1229   -8.2044   -1.2425 H   0  0  0  0  0  0  0  0  0  0  0  0
    7.3538   -6.6335    1.3644 H   0  0  0  0  0  0  0  0  0  0  0  0
    7.1235   -8.3798    1.2259 H   0  0  0  0  0  0  0  0  0  0  0  0
    6.0158   -7.4255    2.2191 H   0  0  0  0  0  0  0  0  0  0  0  0
    2.9760   -6.9919    0.1800 H   0  0  0  0  0  0  0  0  0  0  0  0
    1.6080   -4.9533    0.1628 H   0  0  0  0  0  0  0  0  0  0  0  0
  1  2  1  0  0  0  0
  1 20  1  0  0  0  0
  1 21  1  0  0  0  0
  1 22  1  0  0  0  0
  2  3  1  0  0  0  0
  2 19  2  0  0  0  0
  3  4  2  0  0  0  0
  3 23  1  0  0  0  0
  4  5  1  0  0  0  0
  4 24  1  0  0  0  0
  5  6  2  0  0  0  0
  6  7  1  0  0  0  0
  6 19  1  0  0  0  0
  7  8  1  0  0  0  0
  7 25  1  0  0  0  0
  8  9  1  0  0  0  0
  8 16  2  0  0  0  0
  9 10  2  0  0  0  0
  9 26  1  0  0  0  0
 10 11  1  0  0  0  0
 10 14  1  0  0  0  0
 11 12  1  0  0  0  0
 11 13  1  0  0  0  0
 11 27  1  0  0  0  0
 12 28  1  0  0  0  0
 12 29  1  0  0  0  0
 12 30  1  0  0  0  0
 13 31  1  0  0  0  0
 13 32  1  0  0  0  0
 13 33  1  0  0  0  0
 14 15  2  0  0  0  0
 14 34  1  0  0  0  0
 15 16  1  0  0  0  0
 15 35  1  0  0  0  0
 16 17  1  0  0  0  0
 17 18  2  0  0  0  0
 17 19  1  0  0  0  0
M  END
$$$$
