CHEMBL3970332
 OpenBabel04072215373D

 65 69  0  0  1  0  0  0  0  0999 V2000
    3.7470   -3.5055   -3.8004 C   0  0  0  0  0  0  0  0  0  0  0  0
    3.8608   -3.8760   -2.4328 O   0  0  0  0  0  0  0  0  0  0  0  0
    3.7224   -2.8998   -1.4873 C   0  0  0  0  0  0  0  0  0  0  0  0
    4.5983   -3.0505   -0.4006 C   0  0  0  0  0  0  0  0  0  0  0  0
    4.5499   -2.1780    0.7216 C   0  0  0  0  0  0  0  0  0  0  0  0
    5.3636   -2.2192    1.8630 C   0  0  0  0  0  0  0  0  0  0  0  0
    6.4236   -3.1617    1.9227 N   0  0  0  0  0  0  0  0  0  0  0  0
    7.0959   -3.4821    3.1197 C   0  0  0  0  0  0  0  0  0  0  0  0
    6.3668   -3.8032    4.2731 C   0  0  0  0  0  0  0  0  0  0  0  0
    7.0114   -4.0547    5.4821 C   0  0  0  0  0  0  0  0  0  0  0  0
    8.4024   -3.9936    5.5504 C   0  0  0  0  0  0  0  0  0  0  0  0
    9.1405   -4.2815    7.0844 Cl  0  0  0  0  0  0  0  0  0  0  0  0
    9.1435   -3.6976    4.4000 C   0  0  0  0  0  0  0  0  0  0  0  0
   10.8694   -3.6004    4.4128 Cl  0  0  0  0  0  0  0  0  0  0  0  0
    8.4909   -3.4519    3.1865 C   0  0  0  0  0  0  0  0  0  0  0  0
    5.1876   -1.3870    2.9126 N   0  0  0  0  0  0  0  0  0  0  0  0
    4.2140   -0.4863    2.8179 C   0  0  0  0  0  0  0  0  0  0  0  0
    3.4130   -0.3304    1.7716 N   0  0  0  0  0  0  0  0  0  0  0  0
    3.5936   -1.1753    0.7580 C   0  0  0  0  0  0  0  0  0  0  0  0
    2.7469   -1.0389   -0.3124 C   0  0  0  0  0  0  0  0  0  0  0  0
    2.7696   -1.8775   -1.4442 C   0  0  0  0  0  0  0  0  0  0  0  0
    1.8473   -1.7261   -2.4624 O   0  0  0  0  0  0  0  0  0  0  0  0
    0.9481   -0.6322   -2.2330 C   0  0  0  0  0  0  0  0  0  0  0  0
   -0.1020   -0.4374   -3.3029 C   0  0  3  0  0  0  0  0  0  0  0  0
    0.5308   -0.2350   -4.6819 C   0  0  0  0  0  0  0  0  0  0  0  0
   -0.5282    0.0409   -5.7028 N   0  0  0  0  0  0  0  0  0  0  0  0
   -1.4818   -1.2872   -6.2154 S   0  0  0  0  0  0  0  0  0  0  0  0
   -2.0049   -1.9680   -5.0555 O   0  0  0  0  0  0  0  0  0  0  0  0
   -2.3751   -0.8042   -7.2498 O   0  0  0  0  0  0  0  0  0  0  0  0
   -0.3097   -2.3606   -7.0037 C   0  0  0  0  0  0  0  0  0  0  0  0
   -0.0307   -3.6233   -6.4719 C   0  0  0  0  0  0  0  0  0  0  0  0
    0.8081   -4.4931   -7.1741 C   0  0  0  0  0  0  0  0  0  0  0  0
    1.3664   -4.1047   -8.4000 C   0  0  0  0  0  0  0  0  0  0  0  0
    2.2315   -5.0436   -9.1897 C   0  0  0  0  0  0  0  0  0  0  0  0
    1.0814   -2.8316   -8.9137 C   0  0  0  0  0  0  0  0  0  0  0  0
    0.2465   -1.9585   -8.2184 C   0  0  0  0  0  0  0  0  0  0  0  0
   -1.3277    1.2355   -5.2629 C   0  0  0  0  0  0  0  0  0  0  0  0
   -1.8921    1.0384   -3.8518 C   0  0  0  0  0  0  0  0  0  0  0  0
   -0.8520    0.7375   -2.9144 O   0  0  0  0  0  0  0  0  0  0  0  0
    4.6562   -3.8432   -4.3119 H   0  0  0  0  0  0  0  0  0  0  0  0
    3.6512   -2.4322   -3.9791 H   0  0  0  0  0  0  0  0  0  0  0  0
    2.9026   -4.0432   -4.2417 H   0  0  0  0  0  0  0  0  0  0  0  0
    5.3063   -3.8776   -0.4127 H   0  0  0  0  0  0  0  0  0  0  0  0
    7.0506   -2.9990    1.1414 H   0  0  0  0  0  0  0  0  0  0  0  0
    5.2789   -3.8343    4.2337 H   0  0  0  0  0  0  0  0  0  0  0  0
    6.4164   -4.2805    6.3626 H   0  0  0  0  0  0  0  0  0  0  0  0
    9.0745   -3.2010    2.3050 H   0  0  0  0  0  0  0  0  0  0  0  0
    4.0547    0.1756    3.6619 H   0  0  0  0  0  0  0  0  0  0  0  0
    2.0272   -0.2354   -0.1951 H   0  0  0  0  0  0  0  0  0  0  0  0
    1.5152    0.3060   -2.1529 H   0  0  0  0  0  0  0  0  0  0  0  0
    0.3910   -0.8054   -1.3012 H   0  0  0  0  0  0  0  0  0  0  0  0
   -0.7601   -1.3063   -3.2735 H   0  0  0  0  0  0  0  0  0  0  0  0
    1.1617   -1.0736   -4.9864 H   0  0  0  0  0  0  0  0  0  0  0  0
    1.1846    0.6499   -4.6556 H   0  0  0  0  0  0  0  0  0  0  0  0
   -0.4797   -3.9513   -5.5365 H   0  0  0  0  0  0  0  0  0  0  0  0
    1.0028   -5.4857   -6.7712 H   0  0  0  0  0  0  0  0  0  0  0  0
    2.4279   -5.9699   -8.6404 H   0  0  0  0  0  0  0  0  0  0  0  0
    3.1955   -4.5733   -9.4085 H   0  0  0  0  0  0  0  0  0  0  0  0
    1.7380   -5.3060  -10.1314 H   0  0  0  0  0  0  0  0  0  0  0  0
    1.4896   -2.5239   -9.8740 H   0  0  0  0  0  0  0  0  0  0  0  0
    0.0090   -0.9825   -8.6353 H   0  0  0  0  0  0  0  0  0  0  0  0
   -2.1230    1.4604   -5.9787 H   0  0  0  0  0  0  0  0  0  0  0  0
   -0.6491    2.0991   -5.2645 H   0  0  0  0  0  0  0  0  0  0  0  0
   -2.6476    0.2486   -3.8123 H   0  0  0  0  0  0  0  0  0  0  0  0
   -2.3694    1.9648   -3.5150 H   0  0  0  0  0  0  0  0  0  0  0  0
  1  2  1  0  0  0  0
  1 40  1  0  0  0  0
  1 41  1  0  0  0  0
  1 42  1  0  0  0  0
  2  3  1  0  0  0  0
  3  4  1  0  0  0  0
  3 21  2  0  0  0  0
  4  5  2  0  0  0  0
  4 43  1  0  0  0  0
  5  6  1  0  0  0  0
  5 19  1  0  0  0  0
  6  7  1  0  0  0  0
  6 16  2  0  0  0  0
  7  8  1  0  0  0  0
  7 44  1  0  0  0  0
  8  9  1  0  0  0  0
  8 15  2  0  0  0  0
  9 10  2  0  0  0  0
  9 45  1  0  0  0  0
 10 11  1  0  0  0  0
 10 46  1  0  0  0  0
 11 12  1  0  0  0  0
 11 13  2  0  0  0  0
 13 14  1  0  0  0  0
 13 15  1  0  0  0  0
 15 47  1  0  0  0  0
 16 17  1  0  0  0  0
 17 18  2  0  0  0  0
 17 48  1  0  0  0  0
 18 19  1  0  0  0  0
 19 20  2  0  0  0  0
 20 21  1  0  0  0  0
 20 49  1  0  0  0  0
 21 22  1  0  0  0  0
 22 23  1  0  0  0  0
 23 24  1  0  0  0  0
 23 50  1  0  0  0  0
 23 51  1  0  0  0  0
 24 25  1  0  0  0  0
 24 39  1  0  0  0  0
 24 52  1  0  0  0  0
 25 26  1  0  0  0  0
 25 53  1  0  0  0  0
 25 54  1  0  0  0  0
 26 27  1  0  0  0  0
 26 37  1  0  0  0  0
 27 28  2  0  0  0  0
 27 29  2  0  0  0  0
 27 30  1  0  0  0  0
 30 31  1  0  0  0  0
 30 36  2  0  0  0  0
 31 32  2  0  0  0  0
 31 55  1  0  0  0  0
 32 33  1  0  0  0  0
 32 56  1  0  0  0  0
 33 34  1  0  0  0  0
 33 35  2  0  0  0  0
 34 57  1  0  0  0  0
 34 58  1  0  0  0  0
 34 59  1  0  0  0  0
 35 36  1  0  0  0  0
 35 60  1  0  0  0  0
 36 61  1  0  0  0  0
 37 38  1  0  0  0  0
 37 62  1  0  0  0  0
 37 63  1  0  0  0  0
 38 39  1  0  0  0  0
 38 64  1  0  0  0  0
 38 65  1  0  0  0  0
M  END
$$$$
