CHEMBL1202473
 OpenBabel04072215363D

 60 62  0  0  0  0  0  0  0  0999 V2000
    2.1609    1.1689   -0.7795 C   0  0  0  0  0  0  0  0  0  0  0  0
    2.3082    0.1674    0.1626 O   0  0  0  0  0  0  0  0  0  0  0  0
    3.0560    0.1869    1.2961 C   0  0  0  0  0  0  0  0  0  0  0  0
    4.1624    1.0515    1.4014 C   0  0  0  0  0  0  0  0  0  0  0  0
    4.9155    1.1324    2.5788 C   0  0  0  0  0  0  0  0  0  0  0  0
    5.9963    2.0360    2.7336 C   0  0  0  0  0  0  0  0  0  0  0  0
    6.4606    2.8538    1.6577 N   0  0  0  0  0  0  0  0  0  0  0  0
    6.9345    4.1960    1.8020 C   0  0  0  0  0  0  0  0  0  0  0  0
    6.5894    4.9761    2.9192 C   0  0  0  0  0  0  0  0  0  0  0  0
    6.9359    6.3359    2.9798 C   0  0  0  0  0  0  0  0  0  0  0  0
    6.5497    7.0821    4.0373 O   0  0  0  0  0  0  0  0  0  0  0  0
    7.6589    6.9230    1.9220 C   0  0  0  0  0  0  0  0  0  0  0  0
    7.9938    8.3898    1.9091 C   0  0  0  0  0  0  0  0  0  0  0  0
    8.0489    6.1312    0.8349 C   0  0  0  0  0  0  0  0  0  0  0  0
    7.6800    4.7858    0.7649 C   0  0  0  0  0  0  0  0  0  0  0  0
    8.0409    4.0607   -0.3244 F   0  0  0  0  0  0  0  0  0  0  0  0
    6.6285    2.1018    3.9371 N   0  0  0  0  0  0  0  0  0  0  0  0
    6.2722    1.3066    4.9737 C   0  0  0  0  0  0  0  0  0  0  0  0
    5.2526    0.4235    4.8390 N   0  0  0  0  0  0  0  0  0  0  0  0
    4.5599    0.3233    3.6715 C   0  0  0  0  0  0  0  0  0  0  0  0
    3.4817   -0.5788    3.5682 C   0  0  0  0  0  0  0  0  0  0  0  0
    2.7183   -0.6683    2.3900 C   0  0  0  0  0  0  0  0  0  0  0  0
    1.6749   -1.5643    2.3597 O   0  0  0  0  0  0  0  0  0  0  0  0
    0.8154   -1.7594    1.2867 C   0  0  0  0  0  0  0  0  0  0  0  0
   -0.2501   -2.8589    1.5157 C   0  0  0  0  0  0  0  0  0  0  0  0
    0.3424   -4.2616    1.7601 C   0  0  0  0  0  0  0  0  0  0  0  0
    1.0309   -4.8130    0.4984 C   0  0  0  0  0  0  0  0  0  0  0  0
    0.0781   -4.8721   -0.6314 N   0  0  0  0  0  0  0  0  0  0  0  0
    0.7425   -5.4246   -1.8238 C   0  0  0  0  0  0  0  0  0  0  0  0
   -0.4860   -3.5395   -0.9362 C   0  0  0  0  0  0  0  0  0  0  0  0
   -1.2012   -2.9575    0.2975 C   0  0  0  0  0  0  0  0  0  0  0  0
    2.4869   -1.8240   -2.6584 Cl  0  0  0  0  0  0  0  0  0  0  0  0
    2.5734    0.8307   -1.7486 H   0  0  0  0  0  0  0  0  0  0  0  0
    2.6367    2.1240   -0.4873 H   0  0  0  0  0  0  0  0  0  0  0  0
    1.0788    1.3781   -0.9033 H   0  0  0  0  0  0  0  0  0  0  0  0
    4.4195    1.6751    0.5659 H   0  0  0  0  0  0  0  0  0  0  0  0
    6.3964    2.4881    0.6969 H   0  0  0  0  0  0  0  0  0  0  0  0
    5.9998    4.5567    3.7221 H   0  0  0  0  0  0  0  0  0  0  0  0
    6.0286    6.7142    4.7653 H   0  0  0  0  0  0  0  0  0  0  0  0
    7.5867    8.9244    2.7923 H   0  0  0  0  0  0  0  0  0  0  0  0
    7.5388    8.8478    1.0039 H   0  0  0  0  0  0  0  0  0  0  0  0
    9.0920    8.5410    1.8758 H   0  0  0  0  0  0  0  0  0  0  0  0
    8.6153    6.5695    0.0203 H   0  0  0  0  0  0  0  0  0  0  0  0
    6.8105    1.3713    5.9090 H   0  0  0  0  0  0  0  0  0  0  0  0
    3.2262   -1.2012    4.4183 H   0  0  0  0  0  0  0  0  0  0  0  0
    1.4206   -2.0237    0.4055 H   0  0  0  0  0  0  0  0  0  0  0  0
    0.2700   -0.8092    1.0978 H   0  0  0  0  0  0  0  0  0  0  0  0
   -0.8448   -2.5584    2.4064 H   0  0  0  0  0  0  0  0  0  0  0  0
   -0.4895   -4.9558    2.0199 H   0  0  0  0  0  0  0  0  0  0  0  0
    1.0483   -4.2445    2.6160 H   0  0  0  0  0  0  0  0  0  0  0  0
    1.3930   -5.8387    0.7307 H   0  0  0  0  0  0  0  0  0  0  0  0
    1.9175   -4.1963    0.2367 H   0  0  0  0  0  0  0  0  0  0  0  0
    1.1779   -6.4221   -1.5992 H   0  0  0  0  0  0  0  0  0  0  0  0
    1.5566   -4.7539   -2.1795 H   0  0  0  0  0  0  0  0  0  0  0  0
    0.0057   -5.5622   -2.6443 H   0  0  0  0  0  0  0  0  0  0  0  0
   -1.2243   -3.6226   -1.7642 H   0  0  0  0  0  0  0  0  0  0  0  0
    0.3075   -2.8491   -1.2823 H   0  0  0  0  0  0  0  0  0  0  0  0
   -2.0477   -3.6340    0.5476 H   0  0  0  0  0  0  0  0  0  0  0  0
   -1.6277   -1.9595    0.0544 H   0  0  0  0  0  0  0  0  0  0  0  0
    2.9406   -1.8699   -1.3606 H   0  0  0  0  0  0  0  0  0  0  0  0
  1  2  1  0  0  0  0
  1 33  1  0  0  0  0
  1 34  1  0  0  0  0
  1 35  1  0  0  0  0
  2  3  1  0  0  0  0
  3  4  1  0  0  0  0
  3 22  2  0  0  0  0
  4  5  2  0  0  0  0
  4 36  1  0  0  0  0
  5  6  1  0  0  0  0
  5 20  1  0  0  0  0
  6  7  1  0  0  0  0
  6 17  2  0  0  0  0
  7  8  1  0  0  0  0
  7 37  1  0  0  0  0
  8  9  1  0  0  0  0
  8 15  2  0  0  0  0
  9 10  2  0  0  0  0
  9 38  1  0  0  0  0
 10 11  1  0  0  0  0
 10 12  1  0  0  0  0
 11 39  1  0  0  0  0
 12 13  1  0  0  0  0
 12 14  2  0  0  0  0
 13 40  1  0  0  0  0
 13 41  1  0  0  0  0
 13 42  1  0  0  0  0
 14 15  1  0  0  0  0
 14 43  1  0  0  0  0
 15 16  1  0  0  0  0
 17 18  1  0  0  0  0
 18 19  2  0  0  0  0
 18 44  1  0  0  0  0
 19 20  1  0  0  0  0
 20 21  2  0  0  0  0
 21 22  1  0  0  0  0
 21 45  1  0  0  0  0
 22 23  1  0  0  0  0
 23 24  1  0  0  0  0
 24 25  1  0  0  0  0
 24 46  1  0  0  0  0
 24 47  1  0  0  0  0
 25 26  1  0  0  0  0
 25 31  1  0  0  0  0
 25 48  1  0  0  0  0
 26 27  1  0  0  0  0
 26 49  1  0  0  0  0
 26 50  1  0  0  0  0
 27 28  1  0  0  0  0
 27 51  1  0  0  0  0
 27 52  1  0  0  0  0
 28 29  1  0  0  0  0
 28 30  1  0  0  0  0
 29 53  1  0  0  0  0
 29 54  1  0  0  0  0
 29 55  1  0  0  0  0
 30 31  1  0  0  0  0
 30 56  1  0  0  0  0
 30 57  1  0  0  0  0
 31 58  1  0  0  0  0
 31 59  1  0  0  0  0
 32 60  1  0  0  0  0
M  END
$$$$
