CHEMBL3983941
 OpenBabel04072215373D

 66 68  0  0  0  0  0  0  0  0999 V2000
    2.8119    0.9385   -0.2948 O   0  0  0  0  0  0  0  0  0  0  0  0
    2.3462   -0.1969   -0.2705 C   0  0  0  0  0  0  0  0  0  0  0  0
    1.3008   -0.5967   -1.1251 N   0  0  0  0  0  0  0  0  0  0  0  0
    0.2229    0.4144   -1.5626 S   0  0  0  0  0  0  0  0  0  0  0  0
   -0.3799    1.3894   -0.6747 O   0  0  0  0  0  0  0  0  0  0  0  0
    0.8516    1.3114   -2.9805 C   0  0  0  0  0  0  0  0  0  0  0  0
   -0.1439    2.3581   -3.4762 C   0  0  0  0  0  0  0  0  0  0  0  0
    0.3986    3.1562   -4.6496 C   0  0  0  0  0  0  0  0  0  0  0  0
    1.5840    3.8415   -4.2809 O   0  0  0  0  0  0  0  0  0  0  0  0
   -1.1243   -0.5508   -2.2470 C   0  0  0  0  0  0  0  0  0  0  0  0
   -1.7172   -1.5437   -1.2523 C   0  0  0  0  0  0  0  0  0  0  0  0
   -2.2848   -0.8929    0.0044 C   0  0  0  0  0  0  0  0  0  0  0  0
   -2.8246   -1.8972    0.8565 O   0  0  0  0  0  0  0  0  0  0  0  0
    3.0026   -1.1806    0.6340 C   0  0  0  0  0  0  0  0  0  0  0  0
    4.0488   -0.7717    1.4537 C   0  0  0  0  0  0  0  0  0  0  0  0
    4.7097   -1.5963    2.3059 N   0  0  0  0  0  0  0  0  0  0  0  0
    4.2967   -2.8853    2.3428 C   0  0  0  0  0  0  0  0  0  0  0  0
    3.2551   -3.3877    1.5721 C   0  0  0  0  0  0  0  0  0  0  0  0
    2.8730   -4.7590    1.6753 C   0  0  0  0  0  0  0  0  0  0  0  0
    2.5772   -5.9209    1.7550 C   0  0  0  0  0  0  0  0  0  0  0  0
    2.2586   -7.3139    1.8005 C   0  0  0  0  0  0  0  0  0  0  0  0
    1.9926   -7.9855    0.6105 C   0  0  0  0  0  0  0  0  0  0  0  0
    1.7074   -9.3453    0.6350 C   0  0  0  0  0  0  0  0  0  0  0  0
    1.6895  -10.0284    1.8520 C   0  0  0  0  0  0  0  0  0  0  0  0
    1.9560   -9.3723    3.0598 C   0  0  0  0  0  0  0  0  0  0  0  0
    1.9607  -10.0269    4.3174 N   0  0  0  0  0  0  0  0  0  0  0  0
    1.7339  -11.3785    4.5220 C   0  0  0  0  0  0  0  0  0  0  0  0
    1.5278  -12.2128    3.6427 O   0  0  0  0  0  0  0  0  0  0  0  0
    1.7376  -11.8911    5.9203 C   0  0  0  0  0  0  0  0  0  0  0  0
    1.4402  -11.1084    7.0391 C   0  0  0  0  0  0  0  0  0  0  0  0
    1.3428  -11.7101    8.2994 C   0  0  0  0  0  0  0  0  0  0  0  0
    1.5132  -13.0910    8.4440 C   0  0  0  0  0  0  0  0  0  0  0  0
    1.7955  -13.8921    7.3315 C   0  0  0  0  0  0  0  0  0  0  0  0
    1.8861  -15.3951    7.4283 C   0  0  0  0  0  0  0  0  0  0  0  0
    1.6346  -15.8743    8.6781 F   0  0  0  0  0  0  0  0  0  0  0  0
    0.9960  -16.0191    6.6070 F   0  0  0  0  0  0  0  0  0  0  0  0
    3.1129  -15.8723    7.0830 F   0  0  0  0  0  0  0  0  0  0  0  0
    1.9349  -13.2743    6.0818 C   0  0  0  0  0  0  0  0  0  0  0  0
    2.2344   -7.9996    3.0245 C   0  0  0  0  0  0  0  0  0  0  0  0
    2.6007   -2.5197    0.6978 C   0  0  0  0  0  0  0  0  0  0  0  0
    1.0900    0.5823   -3.7613 H   0  0  0  0  0  0  0  0  0  0  0  0
    1.7813    1.7908   -2.6577 H   0  0  0  0  0  0  0  0  0  0  0  0
   -0.3762    3.0491   -2.6569 H   0  0  0  0  0  0  0  0  0  0  0  0
   -1.0840    1.8832   -3.7733 H   0  0  0  0  0  0  0  0  0  0  0  0
   -0.3395    3.8922   -4.9844 H   0  0  0  0  0  0  0  0  0  0  0  0
    0.6297    2.4996   -5.4940 H   0  0  0  0  0  0  0  0  0  0  0  0
    1.3873    4.3833   -3.4958 H   0  0  0  0  0  0  0  0  0  0  0  0
   -0.7331   -1.0860   -3.1192 H   0  0  0  0  0  0  0  0  0  0  0  0
   -1.8957    0.1461   -2.5866 H   0  0  0  0  0  0  0  0  0  0  0  0
   -0.9691   -2.2918   -0.9641 H   0  0  0  0  0  0  0  0  0  0  0  0
   -2.5153   -2.1088   -1.7509 H   0  0  0  0  0  0  0  0  0  0  0  0
   -3.0729   -0.1727   -0.2392 H   0  0  0  0  0  0  0  0  0  0  0  0
   -1.5124   -0.3825    0.5820 H   0  0  0  0  0  0  0  0  0  0  0  0
   -3.5986   -2.2787    0.4102 H   0  0  0  0  0  0  0  0  0  0  0  0
    4.4022    0.2570    1.4575 H   0  0  0  0  0  0  0  0  0  0  0  0
    4.8461   -3.5214    3.0324 H   0  0  0  0  0  0  0  0  0  0  0  0
    2.0101   -7.4629   -0.3443 H   0  0  0  0  0  0  0  0  0  0  0  0
    1.5027   -9.8848   -0.2858 H   0  0  0  0  0  0  0  0  0  0  0  0
    1.4643  -11.0882    1.8072 H   0  0  0  0  0  0  0  0  0  0  0  0
    2.2012   -9.4560    5.1174 H   0  0  0  0  0  0  0  0  0  0  0  0
    1.2269  -10.0476    6.9539 H   0  0  0  0  0  0  0  0  0  0  0  0
    1.0913  -11.1084    9.1708 H   0  0  0  0  0  0  0  0  0  0  0  0
    1.3929  -13.5446    9.4272 H   0  0  0  0  0  0  0  0  0  0  0  0
    2.1528  -13.8914    5.2076 H   0  0  0  0  0  0  0  0  0  0  0  0
    2.4396   -7.4524    3.9399 H   0  0  0  0  0  0  0  0  0  0  0  0
    1.7862   -2.8807    0.0748 H   0  0  0  0  0  0  0  0  0  0  0  0
  1  2  2  0  0  0  0
  2  3  1  0  0  0  0
  2 14  1  0  0  0  0
  3  4  2  0  0  0  0
  4  5  2  0  0  0  0
  4  6  1  0  0  0  0
  4 10  1  0  0  0  0
  6  7  1  0  0  0  0
  6 41  1  0  0  0  0
  6 42  1  0  0  0  0
  7  8  1  0  0  0  0
  7 43  1  0  0  0  0
  7 44  1  0  0  0  0
  8  9  1  0  0  0  0
  8 45  1  0  0  0  0
  8 46  1  0  0  0  0
  9 47  1  0  0  0  0
 10 11  1  0  0  0  0
 10 48  1  0  0  0  0
 10 49  1  0  0  0  0
 11 12  1  0  0  0  0
 11 50  1  0  0  0  0
 11 51  1  0  0  0  0
 12 13  1  0  0  0  0
 12 52  1  0  0  0  0
 12 53  1  0  0  0  0
 13 54  1  0  0  0  0
 14 15  1  0  0  0  0
 14 40  2  0  0  0  0
 15 16  2  0  0  0  0
 15 55  1  0  0  0  0
 16 17  1  0  0  0  0
 17 18  2  0  0  0  0
 17 56  1  0  0  0  0
 18 19  1  0  0  0  0
 18 40  1  0  0  0  0
 19 20  3  0  0  0  0
 20 21  1  0  0  0  0
 21 22  1  0  0  0  0
 21 39  2  0  0  0  0
 22 23  2  0  0  0  0
 22 57  1  0  0  0  0
 23 24  1  0  0  0  0
 23 58  1  0  0  0  0
 24 25  2  0  0  0  0
 24 59  1  0  0  0  0
 25 26  1  0  0  0  0
 25 39  1  0  0  0  0
 26 27  1  0  0  0  0
 26 60  1  0  0  0  0
 27 28  2  0  0  0  0
 27 29  1  0  0  0  0
 29 30  1  0  0  0  0
 29 38  2  0  0  0  0
 30 31  2  0  0  0  0
 30 61  1  0  0  0  0
 31 32  1  0  0  0  0
 31 62  1  0  0  0  0
 32 33  2  0  0  0  0
 32 63  1  0  0  0  0
 33 34  1  0  0  0  0
 33 38  1  0  0  0  0
 34 35  1  0  0  0  0
 34 36  1  0  0  0  0
 34 37  1  0  0  0  0
 38 64  1  0  0  0  0
 39 65  1  0  0  0  0
 40 66  1  0  0  0  0
M  END
$$$$
