CHEMBL3893416
 OpenBabel04072215373D

 56 60  0  0  1  0  0  0  0  0999 V2000
    3.0278    0.7877   -0.9554 C   0  0  0  0  0  0  0  0  0  0  0  0
    2.5470   -0.4156   -0.3543 O   0  0  0  0  0  0  0  0  0  0  0  0
    3.2658   -1.0111    0.6531 C   0  0  0  0  0  0  0  0  0  0  0  0
    4.3659   -0.4215    1.2751 C   0  0  0  0  0  0  0  0  0  0  0  0
    5.1474   -1.1388    2.2131 C   0  0  0  0  0  0  0  0  0  0  0  0
    6.3268   -0.6585    2.7893 C   0  0  0  0  0  0  0  0  0  0  0  0
    6.7005    0.6903    2.5391 N   0  0  0  0  0  0  0  0  0  0  0  0
    7.9900    1.1983    2.7762 C   0  0  0  0  0  0  0  0  0  0  0  0
    9.1155    0.5254    2.2844 C   0  0  0  0  0  0  0  0  0  0  0  0
   10.3996    0.9750    2.5823 C   0  0  0  0  0  0  0  0  0  0  0  0
   10.5695    2.1104    3.3743 C   0  0  0  0  0  0  0  0  0  0  0  0
   12.1843    2.5787    3.7665 Cl  0  0  0  0  0  0  0  0  0  0  0  0
    9.4499    2.8143    3.8342 C   0  0  0  0  0  0  0  0  0  0  0  0
    9.5839    4.2348    4.8098 Cl  0  0  0  0  0  0  0  0  0  0  0  0
    8.1633    2.3647    3.5248 C   0  0  0  0  0  0  0  0  0  0  0  0
    7.1095   -1.4240    3.5723 N   0  0  0  0  0  0  0  0  0  0  0  0
    6.6739   -2.6576    3.8343 C   0  0  0  0  0  0  0  0  0  0  0  0
    5.5236   -3.1836    3.4104 N   0  0  0  0  0  0  0  0  0  0  0  0
    4.7885   -2.4260    2.5904 C   0  0  0  0  0  0  0  0  0  0  0  0
    3.6284   -2.9518    2.0638 C   0  0  0  0  0  0  0  0  0  0  0  0
    2.8823   -2.3015    1.0587 C   0  0  0  0  0  0  0  0  0  0  0  0
    1.8106   -2.9148    0.4280 O   0  0  0  0  0  0  0  0  0  0  0  0
    1.8042   -4.3363    0.6096 C   0  0  0  0  0  0  0  0  0  0  0  0
    0.8997   -5.0728   -0.3568 C   0  0  2  0  0  0  0  0  0  0  0  0
   -0.5789   -4.8988   -0.0689 C   0  0  0  0  0  0  0  0  0  0  0  0
   -1.2143   -6.0762   -0.5955 O   0  0  0  0  0  0  0  0  0  0  0  0
   -0.2987   -7.1708   -0.4131 C   0  0  2  0  0  0  0  0  0  0  0  0
   -0.5408   -7.8673    0.9243 C   0  0  1  0  0  0  0  0  0  0  0  0
   -1.3038   -9.0671    0.8218 O   0  0  0  0  0  0  0  0  0  0  0  0
   -2.6330   -8.8181    0.3729 C   0  0  0  0  0  0  0  0  0  0  0  0
    0.8731   -8.1557    1.3900 C   0  0  0  0  0  0  0  0  0  0  0  0
    1.6516   -7.0312    0.9592 O   0  0  0  0  0  0  0  0  0  0  0  0
    1.0944   -6.5831   -0.2884 C   0  0  2  0  0  0  0  0  0  0  0  0
    2.9772    0.6694   -2.0419 H   0  0  0  0  0  0  0  0  0  0  0  0
    4.0625    1.0612   -0.7357 H   0  0  0  0  0  0  0  0  0  0  0  0
    2.3739    1.6172   -0.6687 H   0  0  0  0  0  0  0  0  0  0  0  0
    4.6941    0.5748    1.0147 H   0  0  0  0  0  0  0  0  0  0  0  0
    5.9642    1.2953    2.8892 H   0  0  0  0  0  0  0  0  0  0  0  0
    8.9893   -0.3694    1.6769 H   0  0  0  0  0  0  0  0  0  0  0  0
   11.2562    0.4209    2.2077 H   0  0  0  0  0  0  0  0  0  0  0  0
    7.2986    2.9060    3.9013 H   0  0  0  0  0  0  0  0  0  0  0  0
    7.3112   -3.2908    4.4410 H   0  0  0  0  0  0  0  0  0  0  0  0
    3.3476   -3.9311    2.4402 H   0  0  0  0  0  0  0  0  0  0  0  0
    1.4827   -4.5562    1.6368 H   0  0  0  0  0  0  0  0  0  0  0  0
    2.8177   -4.7247    0.4401 H   0  0  0  0  0  0  0  0  0  0  0  0
    1.0784   -4.7334   -1.3847 H   0  0  0  0  0  0  0  0  0  0  0  0
   -1.0009   -4.0162   -0.5567 H   0  0  0  0  0  0  0  0  0  0  0  0
   -0.8003   -4.8425    1.0029 H   0  0  0  0  0  0  0  0  0  0  0  0
   -0.3863   -7.8522   -1.2655 H   0  0  0  0  0  0  0  0  0  0  0  0
   -1.0272   -7.1940    1.6421 H   0  0  0  0  0  0  0  0  0  0  0  0
   -3.1829   -9.7621    0.3914 H   0  0  0  0  0  0  0  0  0  0  0  0
   -2.6310   -8.4488   -0.6565 H   0  0  0  0  0  0  0  0  0  0  0  0
   -3.1373   -8.1024    1.0294 H   0  0  0  0  0  0  0  0  0  0  0  0
    1.2812   -9.0712    0.9464 H   0  0  0  0  0  0  0  0  0  0  0  0
    0.9420   -8.2507    2.4784 H   0  0  0  0  0  0  0  0  0  0  0  0
    1.7596   -6.9305   -1.0865 H   0  0  0  0  0  0  0  0  0  0  0  0
  1  2  1  0  0  0  0
  1 34  1  0  0  0  0
  1 35  1  0  0  0  0
  1 36  1  0  0  0  0
  2  3  1  0  0  0  0
  3  4  1  0  0  0  0
  3 21  2  0  0  0  0
  4  5  2  0  0  0  0
  4 37  1  0  0  0  0
  5  6  1  0  0  0  0
  5 19  1  0  0  0  0
  6  7  1  0  0  0  0
  6 16  2  0  0  0  0
  7  8  1  0  0  0  0
  7 38  1  0  0  0  0
  8  9  1  0  0  0  0
  8 15  2  0  0  0  0
  9 10  2  0  0  0  0
  9 39  1  0  0  0  0
 10 11  1  0  0  0  0
 10 40  1  0  0  0  0
 11 12  1  0  0  0  0
 11 13  2  0  0  0  0
 13 14  1  0  0  0  0
 13 15  1  0  0  0  0
 15 41  1  0  0  0  0
 16 17  1  0  0  0  0
 17 18  2  0  0  0  0
 17 42  1  0  0  0  0
 18 19  1  0  0  0  0
 19 20  2  0  0  0  0
 20 21  1  0  0  0  0
 20 43  1  0  0  0  0
 21 22  1  0  0  0  0
 22 23  1  0  0  0  0
 23 24  1  0  0  0  0
 23 44  1  0  0  0  0
 23 45  1  0  0  0  0
 24 25  1  0  0  0  0
 24 33  1  0  0  0  0
 24 46  1  6  0  0  0
 25 26  1  0  0  0  0
 25 47  1  0  0  0  0
 25 48  1  0  0  0  0
 26 27  1  0  0  0  0
 27 28  1  0  0  0  0
 27 33  1  0  0  0  0
 27 49  1  6  0  0  0
 28 29  1  0  0  0  0
 28 31  1  0  0  0  0
 28 50  1  1  0  0  0
 29 30  1  0  0  0  0
 30 51  1  0  0  0  0
 30 52  1  0  0  0  0
 30 53  1  0  0  0  0
 31 32  1  0  0  0  0
 31 54  1  0  0  0  0
 31 55  1  0  0  0  0
 32 33  1  0  0  0  0
 33 56  1  6  0  0  0
M  END
$$$$
