CHEMBL3968818
 OpenBabel04072215373D

 75 78  0  0  0  0  0  0  0  0999 V2000
    0.9519   -2.4589    4.0200 C   0  0  0  0  0  0  0  0  0  0  0  0
    2.3149   -2.2097    4.1251 O   0  0  0  0  0  0  0  0  0  0  0  0
    3.1488   -1.9434    3.0779 C   0  0  0  0  0  0  0  0  0  0  0  0
    2.6600   -1.9045    1.7553 C   0  0  0  0  0  0  0  0  0  0  0  0
    3.5080   -1.6197    0.6918 C   0  0  0  0  0  0  0  0  0  0  0  0
    2.9952   -1.5657   -0.5653 O   0  0  0  0  0  0  0  0  0  0  0  0
    3.7177   -1.2439   -1.6988 C   0  0  0  0  0  0  0  0  0  0  0  0
    4.8592   -1.3668    0.9460 C   0  0  0  0  0  0  0  0  0  0  0  0
    5.3933   -1.3615    2.2352 C   0  0  0  0  0  0  0  0  0  0  0  0
    6.7546   -0.9059    2.4086 N   0  0  0  0  0  0  0  0  0  0  0  0
    7.1010    0.4918    1.9404 C   0  0  0  0  0  0  0  0  0  0  0  0
    6.4618    1.2242    0.7188 C   0  0  0  0  0  0  0  0  0  0  0  0
    5.0792    1.9263    0.8717 C   0  0  0  0  0  0  0  0  0  0  0  0
    4.6686    2.5049   -0.4386 N   0  0  0  0  0  0  0  0  0  0  0  0
    5.5645    3.5355   -1.0093 C   0  0  0  0  0  0  0  0  0  0  0  0
    4.6829    4.5291   -1.7752 C   0  0  0  0  0  0  0  0  0  0  0  0
    3.4098    3.7509   -1.9901 C   0  0  0  0  0  0  0  0  0  0  0  0
    3.2808    2.9632   -0.6779 C   0  0  0  0  0  0  0  0  0  0  0  0
    2.3129    1.7942   -0.9124 C   0  0  0  0  0  0  0  0  0  0  0  0
    2.7470    3.8525    0.4755 C   0  0  0  0  0  0  0  0  0  0  0  0
    7.7790   -1.4984    3.2945 C   0  0  0  0  0  0  0  0  0  0  0  0
    8.4170   -0.5770    4.1315 C   0  0  0  0  0  0  0  0  0  0  0  0
    9.5899   -0.8303    4.7440 C   0  0  0  0  0  0  0  0  0  0  0  0
   10.2015   -2.0312    4.6151 C   0  0  0  0  0  0  0  0  0  0  0  0
   11.4178   -2.0841    5.1318 N   0  0  0  0  0  0  0  0  0  0  0  0
   12.1420   -3.1805    5.1399 C   0  0  0  0  0  0  0  0  0  0  0  0
   11.6189   -4.3967    4.6939 C   0  0  0  0  0  0  0  0  0  0  0  0
   12.4917   -5.5927    5.1734 C   0  0  0  0  0  0  0  0  0  0  0  0
   13.5424   -5.4119    6.1100 C   0  0  0  0  0  0  0  0  0  0  0  0
   14.0643   -6.5724    6.4791 N   0  0  0  0  0  0  0  0  0  0  0  0
   13.4316   -7.5208    5.8411 N   0  0  0  0  0  0  0  0  0  0  0  0
   13.7405   -8.9236    6.1322 C   0  0  0  0  0  0  0  0  0  0  0  0
   12.4795   -6.9924    5.0068 C   0  0  0  0  0  0  0  0  0  0  0  0
   10.3650   -4.3535    4.0336 N   0  0  0  0  0  0  0  0  0  0  0  0
    9.6353   -3.1383    3.9487 C   0  0  0  0  0  0  0  0  0  0  0  0
    8.3665   -2.8658    3.2318 C   0  0  0  0  0  0  0  0  0  0  0  0
    4.5269   -1.6717    3.3157 C   0  0  0  0  0  0  0  0  0  0  0  0
   -1.0805    1.5256    0.4443 Cl  0  0  0  0  0  0  0  0  0  0  0  0
    0.5234   -2.6634    5.0228 H   0  0  0  0  0  0  0  0  0  0  0  0
    0.7678   -3.3484    3.3781 H   0  0  0  0  0  0  0  0  0  0  0  0
    0.4212   -1.5799    3.5893 H   0  0  0  0  0  0  0  0  0  0  0  0
    1.6140   -2.0832    1.5362 H   0  0  0  0  0  0  0  0  0  0  0  0
    3.0417   -1.2314   -2.5770 H   0  0  0  0  0  0  0  0  0  0  0  0
    4.5237   -1.9862   -1.8644 H   0  0  0  0  0  0  0  0  0  0  0  0
    4.1848   -0.2416   -1.5884 H   0  0  0  0  0  0  0  0  0  0  0  0
    5.5062   -1.1560    0.1256 H   0  0  0  0  0  0  0  0  0  0  0  0
    8.1705    0.4318    1.6381 H   0  0  0  0  0  0  0  0  0  0  0  0
    7.0338    1.2295    2.7668 H   0  0  0  0  0  0  0  0  0  0  0  0
    6.5129    0.5983   -0.1836 H   0  0  0  0  0  0  0  0  0  0  0  0
    7.1644    2.0611    0.5047 H   0  0  0  0  0  0  0  0  0  0  0  0
    5.1447    2.7276    1.6451 H   0  0  0  0  0  0  0  0  0  0  0  0
    4.3179    1.2012    1.2097 H   0  0  0  0  0  0  0  0  0  0  0  0
    6.2481    3.0158   -1.7126 H   0  0  0  0  0  0  0  0  0  0  0  0
    6.1594    4.0863   -0.2465 H   0  0  0  0  0  0  0  0  0  0  0  0
    5.1421    4.9326   -2.7040 H   0  0  0  0  0  0  0  0  0  0  0  0
    4.4413    5.3865   -1.1159 H   0  0  0  0  0  0  0  0  0  0  0  0
    3.6146    3.0342   -2.8192 H   0  0  0  0  0  0  0  0  0  0  0  0
    2.5244    4.3629   -2.2699 H   0  0  0  0  0  0  0  0  0  0  0  0
    2.5947    1.2271   -1.8191 H   0  0  0  0  0  0  0  0  0  0  0  0
    1.2908    2.1793   -1.1068 H   0  0  0  0  0  0  0  0  0  0  0  0
    2.2930    1.1051   -0.0442 H   0  0  0  0  0  0  0  0  0  0  0  0
    3.4131    4.7102    0.6932 H   0  0  0  0  0  0  0  0  0  0  0  0
    2.6366    3.2664    1.4109 H   0  0  0  0  0  0  0  0  0  0  0  0
    1.7466    4.2580    0.2054 H   0  0  0  0  0  0  0  0  0  0  0  0
    8.0670    0.4268    4.2923 H   0  0  0  0  0  0  0  0  0  0  0  0
   10.0712   -0.0482    5.3156 H   0  0  0  0  0  0  0  0  0  0  0  0
   13.0999   -3.0455    5.5742 H   0  0  0  0  0  0  0  0  0  0  0  0
   13.9149   -4.5229    6.5834 H   0  0  0  0  0  0  0  0  0  0  0  0
   14.4991   -8.9743    6.9548 H   0  0  0  0  0  0  0  0  0  0  0  0
   14.1595   -9.4401    5.2495 H   0  0  0  0  0  0  0  0  0  0  0  0
   12.8305   -9.4310    6.5052 H   0  0  0  0  0  0  0  0  0  0  0  0
   11.8240   -7.5891    4.3915 H   0  0  0  0  0  0  0  0  0  0  0  0
    7.9194   -3.6167    2.5994 H   0  0  0  0  0  0  0  0  0  0  0  0
    4.8894   -1.6478    4.3358 H   0  0  0  0  0  0  0  0  0  0  0  0
    0.1866    1.7195    0.9404 H   0  0  0  0  0  0  0  0  0  0  0  0
  1  2  1  0  0  0  0
  1 39  1  0  0  0  0
  1 40  1  0  0  0  0
  1 41  1  0  0  0  0
  2  3  1  0  0  0  0
  3  4  1  0  0  0  0
  3 37  2  0  0  0  0
  4  5  2  0  0  0  0
  4 42  1  0  0  0  0
  5  6  1  0  0  0  0
  5  8  1  0  0  0  0
  6  7  1  0  0  0  0
  7 43  1  0  0  0  0
  7 44  1  0  0  0  0
  7 45  1  0  0  0  0
  8  9  2  0  0  0  0
  8 46  1  0  0  0  0
  9 10  1  0  0  0  0
  9 37  1  0  0  0  0
 10 11  1  0  0  0  0
 10 21  1  0  0  0  0
 11 12  1  0  0  0  0
 11 47  1  0  0  0  0
 11 48  1  0  0  0  0
 12 13  1  0  0  0  0
 12 49  1  0  0  0  0
 12 50  1  0  0  0  0
 13 14  1  0  0  0  0
 13 51  1  0  0  0  0
 13 52  1  0  0  0  0
 14 15  1  0  0  0  0
 14 18  1  0  0  0  0
 15 16  1  0  0  0  0
 15 53  1  0  0  0  0
 15 54  1  0  0  0  0
 16 17  1  0  0  0  0
 16 55  1  0  0  0  0
 16 56  1  0  0  0  0
 17 18  1  0  0  0  0
 17 57  1  0  0  0  0
 17 58  1  0  0  0  0
 18 19  1  0  0  0  0
 18 20  1  0  0  0  0
 19 59  1  0  0  0  0
 19 60  1  0  0  0  0
 19 61  1  0  0  0  0
 20 62  1  0  0  0  0
 20 63  1  0  0  0  0
 20 64  1  0  0  0  0
 21 22  1  0  0  0  0
 21 36  2  0  0  0  0
 22 23  2  0  0  0  0
 22 65  1  0  0  0  0
 23 24  1  0  0  0  0
 23 66  1  0  0  0  0
 24 25  1  0  0  0  0
 24 35  2  0  0  0  0
 25 26  2  0  0  0  0
 26 27  1  0  0  0  0
 26 67  1  0  0  0  0
 27 28  1  0  0  0  0
 27 34  2  0  0  0  0
 28 29  1  0  0  0  0
 28 33  2  0  0  0  0
 29 30  2  0  0  0  0
 29 68  1  0  0  0  0
 30 31  1  0  0  0  0
 31 32  1  0  0  0  0
 31 33  1  0  0  0  0
 32 69  1  0  0  0  0
 32 70  1  0  0  0  0
 32 71  1  0  0  0  0
 33 72  1  0  0  0  0
 34 35  1  0  0  0  0
 35 36  1  0  0  0  0
 36 73  1  0  0  0  0
 37 74  1  0  0  0  0
 38 75  1  0  0  0  0
M  END
$$$$
