CHEMBL4061361
 OpenBabel04072215383D

 71 76  0  0  0  0  0  0  0  0999 V2000
    1.4502   -1.9227    1.8129 C   0  0  0  0  0  0  0  0  0  0  0  0
    2.7948   -1.6103    1.4370 O   0  0  0  0  0  0  0  0  0  0  0  0
    3.3219   -2.4385    0.4978 C   0  0  0  0  0  0  0  0  0  0  0  0
    2.7360   -3.3626   -0.0523 O   0  0  0  0  0  0  0  0  0  0  0  0
    4.7558   -2.1033    0.2408 C   0  0  0  0  0  0  0  0  0  0  0  0
    5.3910   -0.9993    0.8511 C   0  0  0  0  0  0  0  0  0  0  0  0
    6.7605   -0.7424    0.6387 C   0  0  0  0  0  0  0  0  0  0  0  0
    7.4812   -1.5977   -0.1746 C   0  0  0  0  0  0  0  0  0  0  0  0
    6.8225   -2.6820   -0.7743 C   0  0  0  0  0  0  0  0  0  0  0  0
    5.4711   -2.9496   -0.6025 C   0  0  0  0  0  0  0  0  0  0  0  0
    7.7146   -3.4547   -1.5180 N   0  0  0  0  0  0  0  0  0  0  0  0
    8.9999   -2.9469   -1.4393 C   0  0  0  0  0  0  0  0  0  0  0  0
   10.0186   -3.4875   -1.8177 O   0  0  0  0  0  0  0  0  0  0  0  0
    8.8793   -1.6645   -0.6389 C   0  0  0  0  0  0  0  0  0  0  0  0
    9.9534   -0.8517   -0.5109 C   0  0  0  0  0  0  0  0  0  0  0  0
   11.2028   -1.0088   -1.1401 N   0  0  0  0  0  0  0  0  0  0  0  0
   11.4281   -0.5315   -2.4824 C   0  0  0  0  0  0  0  0  0  0  0  0
   10.8814    0.6455   -2.9711 C   0  0  0  0  0  0  0  0  0  0  0  0
   11.0619    1.0583   -4.3033 C   0  0  0  0  0  0  0  0  0  0  0  0
   11.8245    0.3202   -5.2252 C   0  0  0  0  0  0  0  0  0  0  0  0
   11.8882    0.7516   -6.6151 N   0  0  0  0  0  0  0  0  0  0  0  0
   11.2907    1.9363   -7.0600 C   0  0  0  0  0  0  0  0  0  0  0  0
   11.6647    2.2210   -8.3470 C   0  0  0  0  0  0  0  0  0  0  0  0
   12.5035    1.1802   -8.7474 C   0  0  0  0  0  0  0  0  0  0  0  0
   12.4569    0.1806   -7.7760 C   0  0  0  0  0  0  0  0  0  0  0  0
   12.8748   -1.2443   -8.0519 C   0  0  0  0  0  0  0  0  0  0  0  0
   11.7855   -2.0488   -8.6251 N   0  0  0  0  0  0  0  0  0  0  0  0
   12.0194   -3.4942   -8.5638 C   0  0  0  0  0  0  0  0  0  0  0  0
   12.5812   -4.1777   -9.8275 C   0  0  0  0  0  0  0  0  0  0  0  0
   11.9428   -3.8520  -11.1000 N   0  0  0  0  0  0  0  0  0  0  0  0
   11.5574   -2.4472  -11.2092 C   0  0  0  0  0  0  0  0  0  0  0  0
   11.2493   -1.6296   -9.9278 C   0  0  0  0  0  0  0  0  0  0  0  0
   12.5191   -0.7688   -4.6925 C   0  0  0  0  0  0  0  0  0  0  0  0
   12.3277   -1.1815   -3.3415 C   0  0  0  0  0  0  0  0  0  0  0  0
    9.9450    0.2051    0.5464 C   0  0  0  0  0  0  0  0  0  0  0  0
   10.2967   -0.1292    1.8699 C   0  0  0  0  0  0  0  0  0  0  0  0
   10.4523    0.8706    2.8324 C   0  0  0  0  0  0  0  0  0  0  0  0
   10.2619    2.2061    2.5002 C   0  0  0  0  0  0  0  0  0  0  0  0
    9.8509    2.5411    1.2157 C   0  0  0  0  0  0  0  0  0  0  0  0
    9.6594    1.5482    0.2549 C   0  0  0  0  0  0  0  0  0  0  0  0
    1.1017   -1.1427    2.4970 H   0  0  0  0  0  0  0  0  0  0  0  0
    1.4208   -2.8823    2.3382 H   0  0  0  0  0  0  0  0  0  0  0  0
    0.7901   -1.9366    0.9400 H   0  0  0  0  0  0  0  0  0  0  0  0
    4.8329   -0.3302    1.5039 H   0  0  0  0  0  0  0  0  0  0  0  0
    7.2182    0.1116    1.1218 H   0  0  0  0  0  0  0  0  0  0  0  0
    4.9992   -3.7940   -1.0911 H   0  0  0  0  0  0  0  0  0  0  0  0
    7.4997   -4.3266   -1.9697 H   0  0  0  0  0  0  0  0  0  0  0  0
   11.4091   -2.0136   -1.1882 H   0  0  0  0  0  0  0  0  0  0  0  0
   10.2897    1.2857   -2.3394 H   0  0  0  0  0  0  0  0  0  0  0  0
   10.5638    1.9864   -4.5621 H   0  0  0  0  0  0  0  0  0  0  0  0
   10.6433    2.5231   -6.4307 H   0  0  0  0  0  0  0  0  0  0  0  0
   11.3416    3.0712   -8.9331 H   0  0  0  0  0  0  0  0  0  0  0  0
   12.9449    1.0670   -9.7305 H   0  0  0  0  0  0  0  0  0  0  0  0
   13.2328   -1.7108   -7.1391 H   0  0  0  0  0  0  0  0  0  0  0  0
   13.7359   -1.2426   -8.7336 H   0  0  0  0  0  0  0  0  0  0  0  0
   11.0570   -3.9607   -8.3237 H   0  0  0  0  0  0  0  0  0  0  0  0
   12.6777   -3.7471   -7.7229 H   0  0  0  0  0  0  0  0  0  0  0  0
   12.4840   -5.2633   -9.6909 H   0  0  0  0  0  0  0  0  0  0  0  0
   13.6539   -3.9775   -9.9098 H   0  0  0  0  0  0  0  0  0  0  0  0
   11.1332   -4.4470  -11.2560 H   0  0  0  0  0  0  0  0  0  0  0  0
   10.6641   -2.4055  -11.8492 H   0  0  0  0  0  0  0  0  0  0  0  0
   12.3402   -1.9295  -11.7765 H   0  0  0  0  0  0  0  0  0  0  0  0
   10.1577   -1.6179   -9.8082 H   0  0  0  0  0  0  0  0  0  0  0  0
   11.5018   -0.5978  -10.1737 H   0  0  0  0  0  0  0  0  0  0  0  0
   13.2514   -1.3218   -5.2620 H   0  0  0  0  0  0  0  0  0  0  0  0
   12.8861   -2.0438   -2.9821 H   0  0  0  0  0  0  0  0  0  0  0  0
   10.4907   -1.1672    2.1400 H   0  0  0  0  0  0  0  0  0  0  0  0
   10.7544    0.6042    3.8499 H   0  0  0  0  0  0  0  0  0  0  0  0
   10.4392    2.9917    3.2352 H   0  0  0  0  0  0  0  0  0  0  0  0
    9.6911    3.5835    0.9458 H   0  0  0  0  0  0  0  0  0  0  0  0
    9.2992    1.8375   -0.7227 H   0  0  0  0  0  0  0  0  0  0  0  0
  1  2  1  0  0  0  0
  1 41  1  0  0  0  0
  1 42  1  0  0  0  0
  1 43  1  0  0  0  0
  2  3  1  0  0  0  0
  3  4  2  0  0  0  0
  3  5  1  0  0  0  0
  5  6  1  0  0  0  0
  5 10  2  0  0  0  0
  6  7  2  0  0  0  0
  6 44  1  0  0  0  0
  7  8  1  0  0  0  0
  7 45  1  0  0  0  0
  8  9  2  0  0  0  0
  8 14  1  0  0  0  0
  9 10  1  0  0  0  0
  9 11  1  0  0  0  0
 10 46  1  0  0  0  0
 11 12  1  0  0  0  0
 11 47  1  0  0  0  0
 12 13  2  0  0  0  0
 12 14  1  0  0  0  0
 14 15  2  0  0  0  0
 15 16  1  0  0  0  0
 15 35  1  0  0  0  0
 16 17  1  0  0  0  0
 16 48  1  0  0  0  0
 17 18  1  0  0  0  0
 17 34  2  0  0  0  0
 18 19  2  0  0  0  0
 18 49  1  0  0  0  0
 19 20  1  0  0  0  0
 19 50  1  0  0  0  0
 20 21  1  0  0  0  0
 20 33  2  0  0  0  0
 21 22  1  0  0  0  0
 21 25  1  0  0  0  0
 22 23  2  0  0  0  0
 22 51  1  0  0  0  0
 23 24  1  0  0  0  0
 23 52  1  0  0  0  0
 24 25  2  0  0  0  0
 24 53  1  0  0  0  0
 25 26  1  0  0  0  0
 26 27  1  0  0  0  0
 26 54  1  0  0  0  0
 26 55  1  0  0  0  0
 27 28  1  0  0  0  0
 27 32  1  0  0  0  0
 28 29  1  0  0  0  0
 28 56  1  0  0  0  0
 28 57  1  0  0  0  0
 29 30  1  0  0  0  0
 29 58  1  0  0  0  0
 29 59  1  0  0  0  0
 30 31  1  0  0  0  0
 30 60  1  0  0  0  0
 31 32  1  0  0  0  0
 31 61  1  0  0  0  0
 31 62  1  0  0  0  0
 32 63  1  0  0  0  0
 32 64  1  0  0  0  0
 33 34  1  0  0  0  0
 33 65  1  0  0  0  0
 34 66  1  0  0  0  0
 35 36  1  0  0  0  0
 35 40  2  0  0  0  0
 36 37  2  0  0  0  0
 36 67  1  0  0  0  0
 37 38  1  0  0  0  0
 37 68  1  0  0  0  0
 38 39  2  0  0  0  0
 38 69  1  0  0  0  0
 39 40  1  0  0  0  0
 39 70  1  0  0  0  0
 40 71  1  0  0  0  0
M  END
$$$$
