CHEMBL4292983
 OpenBabel04072215383D

 65 69  0  0  1  0  0  0  0  0999 V2000
    0.5080   -0.4986    0.6942 C   0  0  0  0  0  0  0  0  0  0  0  0
    1.5941   -0.5038    1.7118 C   0  0  0  0  0  0  0  0  0  0  0  0
    1.7921    0.4091    2.7960 C   0  0  0  0  0  0  0  0  0  0  0  0
    1.0149    1.4806    3.1090 O   0  0  0  0  0  0  0  0  0  0  0  0
    1.4980    2.1955    4.2540 C   0  0  0  0  0  0  0  0  0  0  0  0
    0.6833    3.4478    4.5624 C   0  0  3  0  0  0  0  0  0  0  0  0
    1.2116    4.0554    5.7525 O   0  0  0  0  0  0  0  0  0  0  0  0
    0.7167    4.4463    3.4001 C   0  0  0  0  0  0  0  0  0  0  0  0
    0.0153    5.6450    3.7283 O   0  0  0  0  0  0  0  0  0  0  0  0
    2.9194    0.0110    3.4799 C   0  0  0  0  0  0  0  0  0  0  0  0
    3.4413   -1.0732    2.8515 N   0  0  0  0  0  0  0  0  0  0  0  0
    4.5535   -1.7108    3.2284 N   0  0  0  0  0  0  0  0  0  0  0  0
    4.8627   -2.7278    2.4834 C   0  0  0  0  0  0  0  0  0  0  0  0
    4.1527   -3.1950    1.4125 N   0  0  0  0  0  0  0  0  0  0  0  0
    3.0538   -2.5812    1.1139 C   0  0  0  0  0  0  0  0  0  0  0  0
    2.1395   -3.0375    0.1856 O   0  0  0  0  0  0  0  0  0  0  0  0
    2.1149   -4.4337    0.0524 C   0  0  0  0  0  0  0  0  0  0  0  0
    2.2007   -5.2616    1.1733 C   0  0  0  0  0  0  0  0  0  0  0  0
    2.1801   -6.6394    1.0189 C   0  0  0  0  0  0  0  0  0  0  0  0
    1.9908   -7.2057   -0.2410 C   0  0  0  0  0  0  0  0  0  0  0  0
    1.8565   -8.5915   -0.4100 N   0  0  0  0  0  0  0  0  0  0  0  0
    1.5224   -9.4822    0.5919 C   0  0  0  0  0  0  0  0  0  0  0  0
    1.2776   -9.2372    1.7650 O   0  0  0  0  0  0  0  0  0  0  0  0
    1.4561  -10.9020    0.1442 C   0  0  0  0  0  0  0  0  0  0  0  0
    2.7536  -11.6063    0.3105 C   0  0  0  0  0  0  0  0  0  0  0  0
    3.6028  -11.4292   -0.5609 O   0  0  0  0  0  0  0  0  0  0  0  0
    2.9186  -12.3655    1.4484 N   0  0  0  0  0  0  0  0  0  0  0  0
    4.1897  -12.8253    1.8460 C   0  0  0  0  0  0  0  0  0  0  0  0
    5.3260  -12.0218    1.6660 C   0  0  0  0  0  0  0  0  0  0  0  0
    6.5973  -12.5210    1.9361 C   0  0  0  0  0  0  0  0  0  0  0  0
    6.7274  -13.8286    2.3864 C   0  0  0  0  0  0  0  0  0  0  0  0
    7.9496  -14.3391    2.5755 F   0  0  0  0  0  0  0  0  0  0  0  0
    5.6050  -14.6128    2.6345 C   0  0  0  0  0  0  0  0  0  0  0  0
    4.3247  -14.1000    2.3959 C   0  0  0  0  0  0  0  0  0  0  0  0
    0.6418  -11.2584   -1.1013 C   0  0  0  0  0  0  0  0  0  0  0  0
    0.1046  -11.5952    0.2549 C   0  0  0  0  0  0  0  0  0  0  0  0
    1.9019   -6.3782   -1.3658 C   0  0  0  0  0  0  0  0  0  0  0  0
    1.9467   -4.9932   -1.2094 C   0  0  0  0  0  0  0  0  0  0  0  0
    1.7999   -4.2088   -2.2868 F   0  0  0  0  0  0  0  0  0  0  0  0
    2.6407   -1.4160    1.8022 C   0  0  0  0  0  0  0  0  0  0  0  0
   -0.1627    0.3570    0.8125 H   0  0  0  0  0  0  0  0  0  0  0  0
   -0.0927   -1.4119    0.7674 H   0  0  0  0  0  0  0  0  0  0  0  0
    0.9332   -0.4545   -0.3154 H   0  0  0  0  0  0  0  0  0  0  0  0
    2.5391    2.5088    4.0925 H   0  0  0  0  0  0  0  0  0  0  0  0
    1.4702    1.5448    5.1389 H   0  0  0  0  0  0  0  0  0  0  0  0
   -0.3553    3.1794    4.7822 H   0  0  0  0  0  0  0  0  0  0  0  0
    2.0564    4.4823    5.5214 H   0  0  0  0  0  0  0  0  0  0  0  0
    0.2655    4.0207    2.4996 H   0  0  0  0  0  0  0  0  0  0  0  0
    1.7468    4.7387    3.1709 H   0  0  0  0  0  0  0  0  0  0  0  0
   -0.7671    5.3970    4.2517 H   0  0  0  0  0  0  0  0  0  0  0  0
    3.4222    0.3950    4.3541 H   0  0  0  0  0  0  0  0  0  0  0  0
    5.7651   -3.3038    2.7491 H   0  0  0  0  0  0  0  0  0  0  0  0
    2.3095   -4.8607    2.1768 H   0  0  0  0  0  0  0  0  0  0  0  0
    2.3308   -7.2474    1.9066 H   0  0  0  0  0  0  0  0  0  0  0  0
    1.9300   -8.9565   -1.3523 H   0  0  0  0  0  0  0  0  0  0  0  0
    2.0956  -12.7450    1.9031 H   0  0  0  0  0  0  0  0  0  0  0  0
    5.2308  -10.9976    1.3162 H   0  0  0  0  0  0  0  0  0  0  0  0
    7.4775  -11.9089    1.7742 H   0  0  0  0  0  0  0  0  0  0  0  0
    5.7387  -15.6322    2.9834 H   0  0  0  0  0  0  0  0  0  0  0  0
    3.4592  -14.7352    2.5631 H   0  0  0  0  0  0  0  0  0  0  0  0
    0.9981  -12.0723   -1.7256 H   0  0  0  0  0  0  0  0  0  0  0  0
    0.1639  -10.4612   -1.6587 H   0  0  0  0  0  0  0  0  0  0  0  0
    0.0585  -12.6393    0.5346 H   0  0  0  0  0  0  0  0  0  0  0  0
   -0.7334  -11.0071    0.6123 H   0  0  0  0  0  0  0  0  0  0  0  0
    1.7529   -6.7855   -2.3610 H   0  0  0  0  0  0  0  0  0  0  0  0
  1  2  1  0  0  0  0
  1 41  1  0  0  0  0
  1 42  1  0  0  0  0
  1 43  1  0  0  0  0
  2  3  1  0  0  0  0
  2 40  2  0  0  0  0
  3  4  1  0  0  0  0
  3 10  2  0  0  0  0
  4  5  1  0  0  0  0
  5  6  1  0  0  0  0
  5 44  1  0  0  0  0
  5 45  1  0  0  0  0
  6  7  1  0  0  0  0
  6  8  1  0  0  0  0
  6 46  1  0  0  0  0
  7 47  1  0  0  0  0
  8  9  1  0  0  0  0
  8 48  1  0  0  0  0
  8 49  1  0  0  0  0
  9 50  1  0  0  0  0
 10 11  1  0  0  0  0
 10 51  1  0  0  0  0
 11 12  1  0  0  0  0
 11 40  1  0  0  0  0
 12 13  2  0  0  0  0
 13 14  1  0  0  0  0
 13 52  1  0  0  0  0
 14 15  2  0  0  0  0
 15 16  1  0  0  0  0
 15 40  1  0  0  0  0
 16 17  1  0  0  0  0
 17 18  1  0  0  0  0
 17 38  2  0  0  0  0
 18 19  2  0  0  0  0
 18 53  1  0  0  0  0
 19 20  1  0  0  0  0
 19 54  1  0  0  0  0
 20 21  1  0  0  0  0
 20 37  2  0  0  0  0
 21 22  1  0  0  0  0
 21 55  1  0  0  0  0
 22 23  2  0  0  0  0
 22 24  1  0  0  0  0
 24 25  1  0  0  0  0
 24 35  1  0  0  0  0
 24 36  1  0  0  0  0
 25 26  2  0  0  0  0
 25 27  1  0  0  0  0
 27 28  1  0  0  0  0
 27 56  1  0  0  0  0
 28 29  1  0  0  0  0
 28 34  2  0  0  0  0
 29 30  2  0  0  0  0
 29 57  1  0  0  0  0
 30 31  1  0  0  0  0
 30 58  1  0  0  0  0
 31 32  1  0  0  0  0
 31 33  2  0  0  0  0
 33 34  1  0  0  0  0
 33 59  1  0  0  0  0
 34 60  1  0  0  0  0
 35 36  1  0  0  0  0
 35 61  1  0  0  0  0
 35 62  1  0  0  0  0
 36 63  1  0  0  0  0
 36 64  1  0  0  0  0
 37 38  1  0  0  0  0
 37 65  1  0  0  0  0
 38 39  1  0  0  0  0
M  END
$$$$
