CHEMBL331465
 OpenBabel04072215363D

 54 58  0  0  0  0  0  0  0  0999 V2000
   -0.6998    3.3017   -2.0608 C   0  0  0  0  0  0  0  0  0  0  0  0
   -2.0390    3.0210   -2.3184 C   0  0  0  0  0  0  0  0  0  0  0  0
   -2.6713    1.9623   -1.6613 C   0  0  0  0  0  0  0  0  0  0  0  0
   -1.9753    1.1786   -0.7313 C   0  0  0  0  0  0  0  0  0  0  0  0
   -2.6294    0.1062    0.0030 C   0  0  0  0  0  0  0  0  0  0  0  0
   -2.0987   -1.1025    0.5029 C   0  0  0  0  0  0  0  0  0  0  0  0
   -2.9821   -1.8265    1.1886 N   0  0  0  0  0  0  0  0  0  0  0  0
   -4.1148   -1.0864    1.1539 N   0  0  0  0  0  0  0  0  0  0  0  0
   -5.3294   -1.3895    1.7547 C   0  0  0  0  0  0  0  0  0  0  0  0
   -6.3732   -0.5536    1.6362 C   0  0  0  0  0  0  0  0  0  0  0  0
   -7.6682   -0.8281    2.2439 C   0  0  0  0  0  0  0  0  0  0  0  0
   -7.9336   -0.4161    3.5539 C   0  0  0  0  0  0  0  0  0  0  0  0
   -9.1654   -0.7060    4.1457 C   0  0  0  0  0  0  0  0  0  0  0  0
  -10.1445   -1.3935    3.4256 C   0  0  0  0  0  0  0  0  0  0  0  0
  -11.3880   -1.7139    3.9000 O   0  0  0  0  0  0  0  0  0  0  0  0
  -11.8929   -0.8350    4.9130 C   0  0  0  0  0  0  0  0  0  0  0  0
  -13.4287   -0.8618    4.8615 C   0  0  0  0  0  0  0  0  0  0  0  0
  -14.0910    0.0352    5.8330 N   0  0  0  0  0  0  0  0  0  0  0  0
  -15.5667   -0.0436    5.6954 C   0  0  0  0  0  0  0  0  0  0  0  0
  -16.1167    0.6442    4.4293 C   0  0  0  0  0  0  0  0  0  0  0  0
  -15.6692    2.0025    4.3131 O   0  0  0  0  0  0  0  0  0  0  0  0
  -14.2404    2.0842    4.3753 C   0  0  0  0  0  0  0  0  0  0  0  0
  -13.7188    1.4603    5.6775 C   0  0  0  0  0  0  0  0  0  0  0  0
   -9.8725   -1.8211    2.1258 C   0  0  0  0  0  0  0  0  0  0  0  0
   -8.6421   -1.5364    1.5322 C   0  0  0  0  0  0  0  0  0  0  0  0
   -6.1068    0.6730    0.8294 C   0  0  0  0  0  0  0  0  0  0  0  0
   -4.9820    0.9892    0.2608 N   0  0  0  0  0  0  0  0  0  0  0  0
   -3.9504    0.0977    0.4205 C   0  0  0  0  0  0  0  0  0  0  0  0
   -0.6200    1.4581   -0.4995 C   0  0  0  0  0  0  0  0  0  0  0  0
    0.0123    2.5162   -1.1580 C   0  0  0  0  0  0  0  0  0  0  0  0
   -0.2132    4.1349   -2.5605 H   0  0  0  0  0  0  0  0  0  0  0  0
   -2.5995    3.6295   -3.0228 H   0  0  0  0  0  0  0  0  0  0  0  0
   -3.7188    1.7645   -1.8785 H   0  0  0  0  0  0  0  0  0  0  0  0
   -1.0922   -1.4841    0.3951 H   0  0  0  0  0  0  0  0  0  0  0  0
   -5.3594   -2.3182    2.3092 H   0  0  0  0  0  0  0  0  0  0  0  0
   -7.1832    0.1243    4.1276 H   0  0  0  0  0  0  0  0  0  0  0  0
   -9.3312   -0.3929    5.1721 H   0  0  0  0  0  0  0  0  0  0  0  0
  -11.5483    0.1850    4.7190 H   0  0  0  0  0  0  0  0  0  0  0  0
  -11.5380   -1.1695    5.8940 H   0  0  0  0  0  0  0  0  0  0  0  0
  -13.7481   -1.8935    5.0569 H   0  0  0  0  0  0  0  0  0  0  0  0
  -13.7399   -0.6557    3.8312 H   0  0  0  0  0  0  0  0  0  0  0  0
  -16.0019    0.4520    6.5735 H   0  0  0  0  0  0  0  0  0  0  0  0
  -15.9034   -1.0855    5.7383 H   0  0  0  0  0  0  0  0  0  0  0  0
  -17.2113    0.6671    4.4733 H   0  0  0  0  0  0  0  0  0  0  0  0
  -15.8402    0.0993    3.5206 H   0  0  0  0  0  0  0  0  0  0  0  0
  -13.9673    3.1434    4.3392 H   0  0  0  0  0  0  0  0  0  0  0  0
  -13.8071    1.6074    3.4883 H   0  0  0  0  0  0  0  0  0  0  0  0
  -14.1567    2.0067    6.5237 H   0  0  0  0  0  0  0  0  0  0  0  0
  -12.6389    1.6068    5.7742 H   0  0  0  0  0  0  0  0  0  0  0  0
  -10.6265   -2.3715    1.5688 H   0  0  0  0  0  0  0  0  0  0  0  0
   -8.4506   -1.8758    0.5168 H   0  0  0  0  0  0  0  0  0  0  0  0
   -6.9618    1.3631    0.7196 H   0  0  0  0  0  0  0  0  0  0  0  0
   -0.0454    0.8743    0.2151 H   0  0  0  0  0  0  0  0  0  0  0  0
    1.0575    2.7331   -0.9548 H   0  0  0  0  0  0  0  0  0  0  0  0
  1  2  1  0  0  0  0
  1 30  2  0  0  0  0
  1 31  1  0  0  0  0
  2  3  2  0  0  0  0
  2 32  1  0  0  0  0
  3  4  1  0  0  0  0
  3 33  1  0  0  0  0
  4  5  1  0  0  0  0
  4 29  2  0  0  0  0
  5  6  1  0  0  0  0
  5 28  2  0  0  0  0
  6  7  2  0  0  0  0
  6 34  1  0  0  0  0
  7  8  1  0  0  0  0
  8  9  1  0  0  0  0
  8 28  1  0  0  0  0
  9 10  2  0  0  0  0
  9 35  1  0  0  0  0
 10 11  1  0  0  0  0
 10 26  1  0  0  0  0
 11 12  1  0  0  0  0
 11 25  2  0  0  0  0
 12 13  2  0  0  0  0
 12 36  1  0  0  0  0
 13 14  1  0  0  0  0
 13 37  1  0  0  0  0
 14 15  1  0  0  0  0
 14 24  2  0  0  0  0
 15 16  1  0  0  0  0
 16 17  1  0  0  0  0
 16 38  1  0  0  0  0
 16 39  1  0  0  0  0
 17 18  1  0  0  0  0
 17 40  1  0  0  0  0
 17 41  1  0  0  0  0
 18 19  1  0  0  0  0
 18 23  1  0  0  0  0
 19 20  1  0  0  0  0
 19 42  1  0  0  0  0
 19 43  1  0  0  0  0
 20 21  1  0  0  0  0
 20 44  1  0  0  0  0
 20 45  1  0  0  0  0
 21 22  1  0  0  0  0
 22 23  1  0  0  0  0
 22 46  1  0  0  0  0
 22 47  1  0  0  0  0
 23 48  1  0  0  0  0
 23 49  1  0  0  0  0
 24 25  1  0  0  0  0
 24 50  1  0  0  0  0
 25 51  1  0  0  0  0
 26 27  2  0  0  0  0
 26 52  1  0  0  0  0
 27 28  1  0  0  0  0
 29 30  1  0  0  0  0
 29 53  1  0  0  0  0
 30 54  1  0  0  0  0
M  END
$$$$
