CHEMBL427050
 OpenBabel04072215383D

 50 54  0  0  0  0  0  0  0  0999 V2000
    1.9846   -0.2309   -0.9753 C   0  0  0  0  0  0  0  0  0  0  0  0
    0.5527    0.0459   -1.0390 N   0  0  0  0  0  0  0  0  0  0  0  0
   -0.2317   -1.1503   -0.6934 C   0  0  0  0  0  0  0  0  0  0  0  0
   -1.7486   -0.8544   -0.7014 C   0  0  0  0  0  0  0  0  0  0  0  0
   -2.1670    0.2241    0.2227 N   0  0  0  0  0  0  0  0  0  0  0  0
   -2.0334   -0.1228    1.6499 C   0  0  0  0  0  0  0  0  0  0  0  0
   -2.8518   -1.3263    2.0854 C   0  0  0  0  0  0  0  0  0  0  0  0
   -2.2664   -2.6193    2.0318 C   0  0  0  0  0  0  0  0  0  0  0  0
   -2.9848   -3.7713    2.3512 C   0  0  0  0  0  0  0  0  0  0  0  0
   -4.2909   -3.6175    2.7707 C   0  0  0  0  0  0  0  0  0  0  0  0
   -4.8672   -2.3211    2.8748 C   0  0  0  0  0  0  0  0  0  0  0  0
   -4.1800   -1.1774    2.5250 C   0  0  0  0  0  0  0  0  0  0  0  0
   -6.1677   -2.5561    3.3993 C   0  0  0  0  0  0  0  0  0  0  0  0
   -7.2481   -1.8992    3.8547 N   0  0  0  0  0  0  0  0  0  0  0  0
   -8.1994   -2.7541    4.3148 N   0  0  0  0  0  0  0  0  0  0  0  0
   -7.6584   -3.9904    4.1881 C   0  0  0  0  0  0  0  0  0  0  0  0
   -8.3564   -5.1973    4.6317 C   0  0  0  0  0  0  0  0  0  0  0  0
   -9.7534   -5.2762    4.5661 C   0  0  0  0  0  0  0  0  0  0  0  0
  -10.4216   -6.4289    4.9900 C   0  0  0  0  0  0  0  0  0  0  0  0
   -9.6997   -7.5134    5.4862 C   0  0  0  0  0  0  0  0  0  0  0  0
   -8.3106   -7.4482    5.5592 C   0  0  0  0  0  0  0  0  0  0  0  0
   -7.6434   -6.2961    5.1352 C   0  0  0  0  0  0  0  0  0  0  0  0
   -6.3841   -3.8908    3.6017 C   0  0  0  0  0  0  0  0  0  0  0  0
   -5.2473   -4.7496    3.1759 C   0  0  0  0  0  0  0  0  0  0  0  0
   -1.3488    1.4187   -0.1030 C   0  0  0  0  0  0  0  0  0  0  0  0
    0.1840    1.1736   -0.1617 C   0  0  0  0  0  0  0  0  0  0  0  0
    2.2463   -1.0632   -1.6404 H   0  0  0  0  0  0  0  0  0  0  0  0
    2.3149   -0.4886    0.0380 H   0  0  0  0  0  0  0  0  0  0  0  0
    2.5584    0.6359   -1.3157 H   0  0  0  0  0  0  0  0  0  0  0  0
    0.0750   -1.5357    0.2865 H   0  0  0  0  0  0  0  0  0  0  0  0
   -0.0329   -1.9438   -1.4240 H   0  0  0  0  0  0  0  0  0  0  0  0
   -2.3142   -1.7740   -0.5232 H   0  0  0  0  0  0  0  0  0  0  0  0
   -2.0358   -0.5558   -1.7197 H   0  0  0  0  0  0  0  0  0  0  0  0
   -2.3715    0.7334    2.2499 H   0  0  0  0  0  0  0  0  0  0  0  0
   -0.9896   -0.2865    1.9435 H   0  0  0  0  0  0  0  0  0  0  0  0
   -1.2333   -2.7317    1.7124 H   0  0  0  0  0  0  0  0  0  0  0  0
   -2.5272   -4.7515    2.2746 H   0  0  0  0  0  0  0  0  0  0  0  0
   -4.6421   -0.1985    2.5860 H   0  0  0  0  0  0  0  0  0  0  0  0
   -7.4227   -0.9021    3.9087 H   0  0  0  0  0  0  0  0  0  0  0  0
  -10.3277   -4.4359    4.1816 H   0  0  0  0  0  0  0  0  0  0  0  0
  -11.5061   -6.4726    4.9370 H   0  0  0  0  0  0  0  0  0  0  0  0
  -10.2196   -8.4062    5.8241 H   0  0  0  0  0  0  0  0  0  0  0  0
   -7.7451   -8.2878    5.9552 H   0  0  0  0  0  0  0  0  0  0  0  0
   -6.5624   -6.2627    5.2286 H   0  0  0  0  0  0  0  0  0  0  0  0
   -5.5031   -5.3697    2.3129 H   0  0  0  0  0  0  0  0  0  0  0  0
   -4.8245   -5.3322    3.9962 H   0  0  0  0  0  0  0  0  0  0  0  0
   -1.5638    2.2295    0.6037 H   0  0  0  0  0  0  0  0  0  0  0  0
   -1.6756    1.7917   -1.0834 H   0  0  0  0  0  0  0  0  0  0  0  0
    0.5607    1.0069    0.8555 H   0  0  0  0  0  0  0  0  0  0  0  0
    0.6618    2.0874   -0.5349 H   0  0  0  0  0  0  0  0  0  0  0  0
  1  2  1  0  0  0  0
  1 27  1  0  0  0  0
  1 28  1  0  0  0  0
  1 29  1  0  0  0  0
  2  3  1  0  0  0  0
  2 26  1  0  0  0  0
  3  4  1  0  0  0  0
  3 30  1  0  0  0  0
  3 31  1  0  0  0  0
  4  5  1  0  0  0  0
  4 32  1  0  0  0  0
  4 33  1  0  0  0  0
  5  6  1  0  0  0  0
  5 25  1  0  0  0  0
  6  7  1  0  0  0  0
  6 34  1  0  0  0  0
  6 35  1  0  0  0  0
  7  8  1  0  0  0  0
  7 12  2  0  0  0  0
  8  9  2  0  0  0  0
  8 36  1  0  0  0  0
  9 10  1  0  0  0  0
  9 37  1  0  0  0  0
 10 11  2  0  0  0  0
 10 24  1  0  0  0  0
 11 12  1  0  0  0  0
 11 13  1  0  0  0  0
 12 38  1  0  0  0  0
 13 14  1  0  0  0  0
 13 23  2  0  0  0  0
 14 15  1  0  0  0  0
 14 39  1  0  0  0  0
 15 16  2  0  0  0  0
 16 17  1  0  0  0  0
 16 23  1  0  0  0  0
 17 18  1  0  0  0  0
 17 22  2  0  0  0  0
 18 19  2  0  0  0  0
 18 40  1  0  0  0  0
 19 20  1  0  0  0  0
 19 41  1  0  0  0  0
 20 21  2  0  0  0  0
 20 42  1  0  0  0  0
 21 22  1  0  0  0  0
 21 43  1  0  0  0  0
 22 44  1  0  0  0  0
 23 24  1  0  0  0  0
 24 45  1  0  0  0  0
 24 46  1  0  0  0  0
 25 26  1  0  0  0  0
 25 47  1  0  0  0  0
 25 48  1  0  0  0  0
 26 49  1  0  0  0  0
 26 50  1  0  0  0  0
M  END
$$$$
