CHEMBL4779200
 OpenBabel04072215383D

 83 89  0  0  0  0  0  0  0  0999 V2000
    2.5572    0.5185   -1.4343 C   0  0  0  0  0  0  0  0  0  0  0  0
    2.6796   -0.0418   -0.1301 O   0  0  0  0  0  0  0  0  0  0  0  0
    3.2248    0.7266    0.8624 C   0  0  0  0  0  0  0  0  0  0  0  0
    4.2116    1.6804    0.5991 C   0  0  0  0  0  0  0  0  0  0  0  0
    4.7873    2.4508    1.5919 C   0  0  0  0  0  0  0  0  0  0  0  0
    5.7408    3.3073    1.2137 N   0  0  0  0  0  0  0  0  0  0  0  0
    6.2917    4.0622    2.1678 C   0  0  0  0  0  0  0  0  0  0  0  0
    5.9662    4.0479    3.4576 N   0  0  0  0  0  0  0  0  0  0  0  0
    5.0464    3.1244    3.8152 C   0  0  0  0  0  0  0  0  0  0  0  0
    4.7710    3.0010    5.1732 O   0  0  0  0  0  0  0  0  0  0  0  0
    5.8344    3.1566    6.0421 C   0  0  0  0  0  0  0  0  0  0  0  0
    5.5770    3.7876    7.2609 C   0  0  0  0  0  0  0  0  0  0  0  0
    6.5898    3.8984    8.2293 C   0  0  0  0  0  0  0  0  0  0  0  0
    7.8717    3.3726    8.0020 C   0  0  0  0  0  0  0  0  0  0  0  0
    8.8423    3.4046    9.0231 N   0  0  0  0  0  0  0  0  0  0  0  0
    9.8500    2.4540    9.3110 C   0  0  0  0  0  0  0  0  0  0  0  0
    9.9534    1.3528    8.5231 N   0  0  0  0  0  0  0  0  0  0  0  0
   10.9546    0.4751    8.7298 C   0  0  0  0  0  0  0  0  0  0  0  0
   11.9041    0.6219    9.7177 C   0  0  0  0  0  0  0  0  0  0  0  0
   11.8070    1.7301   10.5529 C   0  0  0  0  0  0  0  0  0  0  0  0
   12.7902    1.9638   11.5293 N   0  0  0  0  0  0  0  0  0  0  0  0
   12.7078    3.0506   12.3554 C   0  0  0  0  0  0  0  0  0  0  0  0
   11.7497    3.9879   12.2991 C   0  0  0  0  0  0  0  0  0  0  0  0
   11.7146    5.0703   13.2881 C   0  0  0  0  0  0  0  0  0  0  0  0
   12.3352    6.3031   13.0376 C   0  0  0  0  0  0  0  0  0  0  0  0
   12.3251    7.3006   14.0148 C   0  0  0  0  0  0  0  0  0  0  0  0
   11.6988    7.0640   15.2339 C   0  0  0  0  0  0  0  0  0  0  0  0
   11.7035    8.0163   16.1755 F   0  0  0  0  0  0  0  0  0  0  0  0
   11.0694    5.8522   15.4925 C   0  0  0  0  0  0  0  0  0  0  0  0
   11.0747    4.8547   14.5191 C   0  0  0  0  0  0  0  0  0  0  0  0
   10.6689    3.8180   11.2739 C   0  0  0  0  0  0  0  0  0  0  0  0
    9.7046    4.5669   11.2415 O   0  0  0  0  0  0  0  0  0  0  0  0
   10.7714    2.6647   10.3385 C   0  0  0  0  0  0  0  0  0  0  0  0
    8.1217    2.7817    6.7597 C   0  0  0  0  0  0  0  0  0  0  0  0
    7.1135    2.6483    5.8091 C   0  0  0  0  0  0  0  0  0  0  0  0
    7.4032    1.9820    4.6806 F   0  0  0  0  0  0  0  0  0  0  0  0
    4.3671    2.2907    2.9130 C   0  0  0  0  0  0  0  0  0  0  0  0
    3.3723    1.3157    3.2101 C   0  0  0  0  0  0  0  0  0  0  0  0
    2.8468    0.4981    2.1974 C   0  0  0  0  0  0  0  0  0  0  0  0
    1.9817   -0.4905    2.6251 O   0  0  0  0  0  0  0  0  0  0  0  0
    2.2364   -1.7549    1.9976 C   0  0  0  0  0  0  0  0  0  0  0  0
    1.5527   -2.9122    2.7272 C   0  0  0  0  0  0  0  0  0  0  0  0
    1.8171   -4.2079    1.9344 C   0  0  0  0  0  0  0  0  0  0  0  0
    1.2150   -5.4293    2.4887 N   0  0  0  0  0  0  0  0  0  0  0  0
   -0.2527   -5.3674    2.5367 C   0  0  0  0  0  0  0  0  0  0  0  0
   -0.7937   -6.5954    3.2676 C   0  0  0  0  0  0  0  0  0  0  0  0
   -0.3736   -7.8846    2.5732 C   0  0  0  0  0  0  0  0  0  0  0  0
    1.1300   -7.9058    2.3180 C   0  0  0  0  0  0  0  0  0  0  0  0
    1.6276   -6.6020    1.6894 C   0  0  0  0  0  0  0  0  0  0  0  0
    2.3479   -0.3044   -2.1252 H   0  0  0  0  0  0  0  0  0  0  0  0
    3.4657    0.9989   -1.8025 H   0  0  0  0  0  0  0  0  0  0  0  0
    1.7145    1.2155   -1.4688 H   0  0  0  0  0  0  0  0  0  0  0  0
    4.6046    1.8195   -0.4006 H   0  0  0  0  0  0  0  0  0  0  0  0
    7.0811    4.7384    1.8609 H   0  0  0  0  0  0  0  0  0  0  0  0
    4.5869    4.1833    7.4703 H   0  0  0  0  0  0  0  0  0  0  0  0
    6.3565    4.3746    9.1793 H   0  0  0  0  0  0  0  0  0  0  0  0
    8.5852    3.9444    9.8526 H   0  0  0  0  0  0  0  0  0  0  0  0
   10.9770   -0.3666    8.0444 H   0  0  0  0  0  0  0  0  0  0  0  0
   12.6950   -0.1109    9.8244 H   0  0  0  0  0  0  0  0  0  0  0  0
   13.3870    1.1935   11.8112 H   0  0  0  0  0  0  0  0  0  0  0  0
   13.4989    3.0871   13.1002 H   0  0  0  0  0  0  0  0  0  0  0  0
   12.8223    6.4937   12.0843 H   0  0  0  0  0  0  0  0  0  0  0  0
   12.7990    8.2606   13.8346 H   0  0  0  0  0  0  0  0  0  0  0  0
   10.5774    5.6926   16.4462 H   0  0  0  0  0  0  0  0  0  0  0  0
   10.5743    3.9098   14.7190 H   0  0  0  0  0  0  0  0  0  0  0  0
    9.1038    2.3920    6.5147 H   0  0  0  0  0  0  0  0  0  0  0  0
    3.0408    1.1713    4.2367 H   0  0  0  0  0  0  0  0  0  0  0  0
    3.3165   -1.9454    1.9591 H   0  0  0  0  0  0  0  0  0  0  0  0
    1.8165   -1.7480    0.9890 H   0  0  0  0  0  0  0  0  0  0  0  0
    0.4829   -2.6899    2.8000 H   0  0  0  0  0  0  0  0  0  0  0  0
    1.9269   -2.9942    3.7545 H   0  0  0  0  0  0  0  0  0  0  0  0
    2.9066   -4.3492    1.9122 H   0  0  0  0  0  0  0  0  0  0  0  0
    1.4966   -4.0715    0.8931 H   0  0  0  0  0  0  0  0  0  0  0  0
   -0.6785   -5.3072    1.5259 H   0  0  0  0  0  0  0  0  0  0  0  0
   -0.5964   -4.4878    3.0877 H   0  0  0  0  0  0  0  0  0  0  0  0
   -1.8864   -6.5422    3.3242 H   0  0  0  0  0  0  0  0  0  0  0  0
   -0.4200   -6.5961    4.2998 H   0  0  0  0  0  0  0  0  0  0  0  0
   -0.9078   -7.9730    1.6195 H   0  0  0  0  0  0  0  0  0  0  0  0
   -0.6613   -8.7479    3.1835 H   0  0  0  0  0  0  0  0  0  0  0  0
    1.3769   -8.7500    1.6633 H   0  0  0  0  0  0  0  0  0  0  0  0
    1.6568   -8.0737    3.2655 H   0  0  0  0  0  0  0  0  0  0  0  0
    1.2517   -6.5232    0.6597 H   0  0  0  0  0  0  0  0  0  0  0  0
    2.7216   -6.6528    1.6273 H   0  0  0  0  0  0  0  0  0  0  0  0
  1  2  1  0  0  0  0
  1 50  1  0  0  0  0
  1 51  1  0  0  0  0
  1 52  1  0  0  0  0
  2  3  1  0  0  0  0
  3  4  1  0  0  0  0
  3 39  2  0  0  0  0
  4  5  2  0  0  0  0
  4 53  1  0  0  0  0
  5  6  1  0  0  0  0
  5 37  1  0  0  0  0
  6  7  2  0  0  0  0
  7  8  1  0  0  0  0
  7 54  1  0  0  0  0
  8  9  2  0  0  0  0
  9 10  1  0  0  0  0
  9 37  1  0  0  0  0
 10 11  1  0  0  0  0
 11 12  1  0  0  0  0
 11 35  2  0  0  0  0
 12 13  2  0  0  0  0
 12 55  1  0  0  0  0
 13 14  1  0  0  0  0
 13 56  1  0  0  0  0
 14 15  1  0  0  0  0
 14 34  2  0  0  0  0
 15 16  1  0  0  0  0
 15 57  1  0  0  0  0
 16 17  1  0  0  0  0
 16 33  2  0  0  0  0
 17 18  2  0  0  0  0
 18 19  1  0  0  0  0
 18 58  1  0  0  0  0
 19 20  2  0  0  0  0
 19 59  1  0  0  0  0
 20 21  1  0  0  0  0
 20 33  1  0  0  0  0
 21 22  1  0  0  0  0
 21 60  1  0  0  0  0
 22 23  2  0  0  0  0
 22 61  1  0  0  0  0
 23 24  1  0  0  0  0
 23 31  1  0  0  0  0
 24 25  1  0  0  0  0
 24 30  2  0  0  0  0
 25 26  2  0  0  0  0
 25 62  1  0  0  0  0
 26 27  1  0  0  0  0
 26 63  1  0  0  0  0
 27 28  1  0  0  0  0
 27 29  2  0  0  0  0
 29 30  1  0  0  0  0
 29 64  1  0  0  0  0
 30 65  1  0  0  0  0
 31 32  2  0  0  0  0
 31 33  1  0  0  0  0
 34 35  1  0  0  0  0
 34 66  1  0  0  0  0
 35 36  1  0  0  0  0
 37 38  2  0  0  0  0
 38 39  1  0  0  0  0
 38 67  1  0  0  0  0
 39 40  1  0  0  0  0
 40 41  1  0  0  0  0
 41 42  1  0  0  0  0
 41 68  1  0  0  0  0
 41 69  1  0  0  0  0
 42 43  1  0  0  0  0
 42 70  1  0  0  0  0
 42 71  1  0  0  0  0
 43 44  1  0  0  0  0
 43 72  1  0  0  0  0
 43 73  1  0  0  0  0
 44 45  1  0  0  0  0
 44 49  1  0  0  0  0
 45 46  1  0  0  0  0
 45 74  1  0  0  0  0
 45 75  1  0  0  0  0
 46 47  1  0  0  0  0
 46 76  1  0  0  0  0
 46 77  1  0  0  0  0
 47 48  1  0  0  0  0
 47 78  1  0  0  0  0
 47 79  1  0  0  0  0
 48 49  1  0  0  0  0
 48 80  1  0  0  0  0
 48 81  1  0  0  0  0
 49 82  1  0  0  0  0
 49 83  1  0  0  0  0
M  END
$$$$
