CHEMBL4098293
 OpenBabel04072215383D

 64 70  0  0  1  0  0  0  0  0999 V2000
    6.3676    2.3911    2.5222 N   0  0  0  0  0  0  0  0  0  0  0  0
    6.0783    1.0917    2.3168 C   0  0  0  0  0  0  0  0  0  0  0  0
    5.8814    0.5529    1.1387 N   0  0  0  0  0  0  0  0  0  0  0  0
    5.6315   -0.7613    1.4159 C   0  0  0  0  0  0  0  0  0  0  0  0
    5.3056   -1.5235    0.3522 N   0  0  0  0  0  0  0  0  0  0  0  0
    5.0334   -2.8959    0.2065 C   0  0  0  0  0  0  0  0  0  0  0  0
    4.2707   -3.3311   -0.8848 C   0  0  0  0  0  0  0  0  0  0  0  0
    3.8991   -4.6795   -1.0305 C   0  0  0  0  0  0  0  0  0  0  0  0
    4.2815   -5.6592   -0.1032 C   0  0  0  0  0  0  0  0  0  0  0  0
    3.8999   -6.9954   -0.3058 N   0  0  0  0  0  0  0  0  0  0  0  0
    4.6777   -8.0551    0.3680 C   0  0  0  0  0  0  0  0  0  0  0  0
    4.2699   -9.4572   -0.1594 C   0  0  0  0  0  0  0  0  0  0  0  0
    2.8195   -9.7844   -0.0729 N   0  0  0  0  0  0  0  0  0  0  0  0
    2.3732  -10.0366    1.3063 C   0  0  3  0  0  0  0  0  0  0  0  0
    3.0241  -11.2951    1.9507 C   0  0  0  0  0  0  0  0  0  0  0  0
    1.8269  -12.0775    2.5204 C   0  0  3  0  0  0  0  0  0  0  0  0
    1.0639  -12.7243    1.3522 C   0  0  0  0  0  0  0  0  0  0  0  0
    0.3550  -11.5268    0.7063 C   0  0  0  0  0  0  0  0  0  0  0  0
    0.8573  -10.3313    1.5357 C   0  0  3  0  0  0  0  0  0  0  0  0
    0.8834  -10.9536    2.9379 C   0  0  0  0  0  0  0  0  0  0  0  0
    2.0921   -8.6791   -0.7443 C   0  0  0  0  0  0  0  0  0  0  0  0
    2.4381   -7.2379   -0.2760 C   0  0  0  0  0  0  0  0  0  0  0  0
    5.0708   -5.2195    0.9683 C   0  0  0  0  0  0  0  0  0  0  0  0
    5.4204   -3.8631    1.1323 C   0  0  0  0  0  0  0  0  0  0  0  0
    5.6762   -1.0743    2.7081 N   0  0  0  0  0  0  0  0  0  0  0  0
    5.9277    0.1197    3.3097 N   0  0  0  0  0  0  0  0  0  0  0  0
    5.9492    0.3037    4.7283 C   0  0  0  0  0  0  0  0  0  0  0  0
    6.0738    1.5791    5.2235 N   0  0  0  0  0  0  0  0  0  0  0  0
    6.0464    1.7685    6.5512 C   0  0  0  0  0  0  0  0  0  0  0  0
    5.8784    0.8421    7.4890 N   0  0  0  0  0  0  0  0  0  0  0  0
    5.7707   -0.4233    7.0193 C   0  0  0  0  0  0  0  0  0  0  0  0
    5.5817   -1.5637    7.8561 C   0  0  0  0  0  0  0  0  0  0  0  0
    5.5690   -2.7373    7.1440 C   0  0  0  0  0  0  0  0  0  0  0  0
    5.7349   -2.4608    5.4710 S   0  0  0  0  0  0  0  0  0  0  0  0
    5.8257   -0.7438    5.6582 C   0  0  0  0  0  0  0  0  0  0  0  0
    6.2540    3.0155    1.7295 H   0  0  0  0  0  0  0  0  0  0  0  0
    6.1665    2.8080    3.4285 H   0  0  0  0  0  0  0  0  0  0  0  0
    5.2348   -1.0057   -0.5146 H   0  0  0  0  0  0  0  0  0  0  0  0
    3.9425   -2.6216   -1.6420 H   0  0  0  0  0  0  0  0  0  0  0  0
    3.3235   -4.9651   -1.9077 H   0  0  0  0  0  0  0  0  0  0  0  0
    4.5312   -8.0139    1.4538 H   0  0  0  0  0  0  0  0  0  0  0  0
    5.7467   -7.9169    0.1629 H   0  0  0  0  0  0  0  0  0  0  0  0
    4.8742  -10.2223    0.3403 H   0  0  0  0  0  0  0  0  0  0  0  0
    4.5547   -9.5167   -1.2195 H   0  0  0  0  0  0  0  0  0  0  0  0
    2.6261   -9.1722    1.9341 H   0  0  0  0  0  0  0  0  0  0  0  0
    3.7012  -10.9863    2.7561 H   0  0  0  0  0  0  0  0  0  0  0  0
    3.5976  -11.9095    1.2484 H   0  0  0  0  0  0  0  0  0  0  0  0
    2.0992  -12.7856    3.3060 H   0  0  0  0  0  0  0  0  0  0  0  0
    0.3291  -13.4517    1.7159 H   0  0  0  0  0  0  0  0  0  0  0  0
    1.7268  -13.2362    0.6473 H   0  0  0  0  0  0  0  0  0  0  0  0
   -0.7305  -11.6390    0.8305 H   0  0  0  0  0  0  0  0  0  0  0  0
    0.5613  -11.4424   -0.3630 H   0  0  0  0  0  0  0  0  0  0  0  0
    0.2213   -9.4474    1.4513 H   0  0  0  0  0  0  0  0  0  0  0  0
   -0.0958  -11.3142    3.2716 H   0  0  0  0  0  0  0  0  0  0  0  0
    1.3087  -10.2928    3.7001 H   0  0  0  0  0  0  0  0  0  0  0  0
    1.0096   -8.8357   -0.6851 H   0  0  0  0  0  0  0  0  0  0  0  0
    2.3256   -8.7473   -1.8163 H   0  0  0  0  0  0  0  0  0  0  0  0
    2.0552   -7.0784    0.7396 H   0  0  0  0  0  0  0  0  0  0  0  0
    1.9117   -6.5443   -0.9420 H   0  0  0  0  0  0  0  0  0  0  0  0
    5.4234   -5.9138    1.7239 H   0  0  0  0  0  0  0  0  0  0  0  0
    6.0281   -3.5831    1.9893 H   0  0  0  0  0  0  0  0  0  0  0  0
    6.1726    2.7883    6.9027 H   0  0  0  0  0  0  0  0  0  0  0  0
    5.4792   -1.5143    8.9332 H   0  0  0  0  0  0  0  0  0  0  0  0
    5.4691   -3.7444    7.5271 H   0  0  0  0  0  0  0  0  0  0  0  0
  1  2  1  0  0  0  0
  1 36  1  0  0  0  0
  1 37  1  0  0  0  0
  2  3  2  0  0  0  0
  2 26  1  0  0  0  0
  3  4  1  0  0  0  0
  4  5  1  0  0  0  0
  4 25  2  0  0  0  0
  5  6  1  0  0  0  0
  5 38  1  0  0  0  0
  6  7  1  0  0  0  0
  6 24  2  0  0  0  0
  7  8  2  0  0  0  0
  7 39  1  0  0  0  0
  8  9  1  0  0  0  0
  8 40  1  0  0  0  0
  9 10  1  0  0  0  0
  9 23  2  0  0  0  0
 10 11  1  0  0  0  0
 10 22  1  0  0  0  0
 11 12  1  0  0  0  0
 11 41  1  0  0  0  0
 11 42  1  0  0  0  0
 12 13  1  0  0  0  0
 12 43  1  0  0  0  0
 12 44  1  0  0  0  0
 13 14  1  0  0  0  0
 13 21  1  0  0  0  0
 14 15  1  0  0  0  0
 14 19  1  0  0  0  0
 14 45  1  0  0  0  0
 15 16  1  0  0  0  0
 15 46  1  0  0  0  0
 15 47  1  0  0  0  0
 16 17  1  0  0  0  0
 16 20  1  0  0  0  0
 16 48  1  0  0  0  0
 17 18  1  0  0  0  0
 17 49  1  0  0  0  0
 17 50  1  0  0  0  0
 18 19  1  0  0  0  0
 18 51  1  0  0  0  0
 18 52  1  0  0  0  0
 19 20  1  0  0  0  0
 19 53  1  0  0  0  0
 20 54  1  0  0  0  0
 20 55  1  0  0  0  0
 21 22  1  0  0  0  0
 21 56  1  0  0  0  0
 21 57  1  0  0  0  0
 22 58  1  0  0  0  0
 22 59  1  0  0  0  0
 23 24  1  0  0  0  0
 23 60  1  0  0  0  0
 24 61  1  0  0  0  0
 25 26  1  0  0  0  0
 26 27  1  0  0  0  0
 27 28  1  0  0  0  0
 27 35  2  0  0  0  0
 28 29  2  0  0  0  0
 29 30  1  0  0  0  0
 29 62  1  0  0  0  0
 30 31  2  0  0  0  0
 31 32  1  0  0  0  0
 31 35  1  0  0  0  0
 32 33  2  0  0  0  0
 32 63  1  0  0  0  0
 33 34  1  0  0  0  0
 33 64  1  0  0  0  0
 34 35  1  0  0  0  0
M  END
$$$$
