CHEMBL3321904
 OpenBabel04072215363D

 41 45  0  0  0  0  0  0  0  0999 V2000
   -2.1175    0.1189   -0.0881 Cl  0  0  0  0  0  0  0  0  0  0  0  0
   -0.3989    0.0953   -0.0349 C   0  0  0  0  0  0  0  0  0  0  0  0
    0.2559    0.1721    1.1923 C   0  0  0  0  0  0  0  0  0  0  0  0
    1.6533    0.1518    1.2411 C   0  0  0  0  0  0  0  0  0  0  0  0
    2.4035    0.0547    0.0599 C   0  0  0  0  0  0  0  0  0  0  0  0
    3.8651    0.0204    0.0742 C   0  0  0  0  0  0  0  0  0  0  0  0
    4.6293   -0.5564   -0.8334 N   0  0  0  0  0  0  0  0  0  0  0  0
    5.9219   -0.3428   -0.4315 C   0  0  0  0  0  0  0  0  0  0  0  0
    7.1159   -0.7495   -1.0285 C   0  0  0  0  0  0  0  0  0  0  0  0
    8.3198   -0.3779   -0.4187 C   0  0  0  0  0  0  0  0  0  0  0  0
    8.3619    0.3610    0.7788 C   0  0  0  0  0  0  0  0  0  0  0  0
    9.5998    0.7804    1.3246 N   0  0  0  0  0  0  0  0  0  0  0  0
   10.8327    0.0968    1.1725 C   0  0  0  0  0  0  0  0  0  0  0  0
   10.8016   -1.2456    1.0756 N   0  0  0  0  0  0  0  0  0  0  0  0
   11.9603   -1.8642    0.8599 C   0  0  0  0  0  0  0  0  0  0  0  0
   13.1500   -1.2753    0.7170 N   0  0  0  0  0  0  0  0  0  0  0  0
   13.1758    0.0561    0.8273 C   0  0  0  0  0  0  0  0  0  0  0  0
   14.3887    0.7049    0.6437 C   0  0  0  0  0  0  0  0  0  0  0  0
   14.5055    2.0933    0.7400 C   0  0  0  0  0  0  0  0  0  0  0  0
   13.3862    2.8603    1.0343 C   0  0  0  0  0  0  0  0  0  0  0  0
   12.1525    2.2339    1.2064 C   0  0  0  0  0  0  0  0  0  0  0  0
   12.0334    0.8242    1.0951 C   0  0  0  0  0  0  0  0  0  0  0  0
    7.1580    0.7945    1.3615 C   0  0  0  0  0  0  0  0  0  0  0  0
    5.9646    0.4059    0.7363 C   0  0  0  0  0  0  0  0  0  0  0  0
    4.6441    0.6249    1.0345 N   0  0  0  0  0  0  0  0  0  0  0  0
    1.7264   -0.0328   -1.1663 C   0  0  0  0  0  0  0  0  0  0  0  0
    0.3302   -0.0066   -1.2167 C   0  0  0  0  0  0  0  0  0  0  0  0
   -0.3144    0.2365    2.1156 H   0  0  0  0  0  0  0  0  0  0  0  0
    2.1391    0.1833    2.2119 H   0  0  0  0  0  0  0  0  0  0  0  0
    7.1072   -1.3303   -1.9432 H   0  0  0  0  0  0  0  0  0  0  0  0
    9.2442   -0.6796   -0.9061 H   0  0  0  0  0  0  0  0  0  0  0  0
    9.5311    1.1722    2.2558 H   0  0  0  0  0  0  0  0  0  0  0  0
   11.9307   -2.9447    0.7792 H   0  0  0  0  0  0  0  0  0  0  0  0
   15.2687    0.1114    0.4042 H   0  0  0  0  0  0  0  0  0  0  0  0
   15.4707    2.5666    0.5780 H   0  0  0  0  0  0  0  0  0  0  0  0
   13.4702    3.9413    1.1121 H   0  0  0  0  0  0  0  0  0  0  0  0
   11.2768    2.8466    1.4078 H   0  0  0  0  0  0  0  0  0  0  0  0
    7.1466    1.3974    2.2618 H   0  0  0  0  0  0  0  0  0  0  0  0
    4.2997    1.1593    1.8160 H   0  0  0  0  0  0  0  0  0  0  0  0
    2.2938   -0.1218   -2.0925 H   0  0  0  0  0  0  0  0  0  0  0  0
   -0.1746   -0.0718   -2.1765 H   0  0  0  0  0  0  0  0  0  0  0  0
  1  2  1  0  0  0  0
  2  3  1  0  0  0  0
  2 27  2  0  0  0  0
  3  4  2  0  0  0  0
  3 28  1  0  0  0  0
  4  5  1  0  0  0  0
  4 29  1  0  0  0  0
  5  6  1  0  0  0  0
  5 26  2  0  0  0  0
  6  7  2  0  0  0  0
  6 25  1  0  0  0  0
  7  8  1  0  0  0  0
  8  9  1  0  0  0  0
  8 24  2  0  0  0  0
  9 10  2  0  0  0  0
  9 30  1  0  0  0  0
 10 11  1  0  0  0  0
 10 31  1  0  0  0  0
 11 12  1  0  0  0  0
 11 23  2  0  0  0  0
 12 13  1  0  0  0  0
 12 32  1  0  0  0  0
 13 14  1  0  0  0  0
 13 22  2  0  0  0  0
 14 15  2  0  0  0  0
 15 16  1  0  0  0  0
 15 33  1  0  0  0  0
 16 17  2  0  0  0  0
 17 18  1  0  0  0  0
 17 22  1  0  0  0  0
 18 19  2  0  0  0  0
 18 34  1  0  0  0  0
 19 20  1  0  0  0  0
 19 35  1  0  0  0  0
 20 21  2  0  0  0  0
 20 36  1  0  0  0  0
 21 22  1  0  0  0  0
 21 37  1  0  0  0  0
 23 24  1  0  0  0  0
 23 38  1  0  0  0  0
 24 25  1  0  0  0  0
 25 39  1  0  0  0  0
 26 27  1  0  0  0  0
 26 40  1  0  0  0  0
 27 41  1  0  0  0  0
M  END
$$$$
