CHEMBL513422
 OpenBabel04072215383D

 45 48  0  0  0  0  0  0  0  0999 V2000
   -6.6593    3.1201   -0.0155 C   0  0  0  0  0  0  0  0  0  0  0  0
   -5.6286    2.1982   -0.5982 C   0  0  0  0  0  0  0  0  0  0  0  0
   -4.9109    2.5590   -1.7401 C   0  0  0  0  0  0  0  0  0  0  0  0
   -3.9513    1.6963   -2.2690 C   0  0  0  0  0  0  0  0  0  0  0  0
   -3.6993    0.4605   -1.6684 C   0  0  0  0  0  0  0  0  0  0  0  0
   -4.4059    0.0797   -0.5324 C   0  0  0  0  0  0  0  0  0  0  0  0
   -4.3160   -1.1927    0.0608 N   0  0  0  0  0  0  0  0  0  0  0  0
   -3.4973   -2.2778   -0.1807 C   0  0  0  0  0  0  0  0  0  0  0  0
   -1.8706   -2.2694   -0.5446 S   0  0  0  0  0  0  0  0  0  0  0  0
   -4.1202   -3.4929    0.0609 N   0  0  0  0  0  0  0  0  0  0  0  0
   -5.4970   -3.7513   -0.0993 C   0  0  0  0  0  0  0  0  0  0  0  0
   -6.2664   -3.0163   -1.0101 C   0  0  0  0  0  0  0  0  0  0  0  0
   -7.6496   -3.1479   -1.0381 C   0  0  0  0  0  0  0  0  0  0  0  0
   -8.2743   -4.0346   -0.1626 C   0  0  0  0  0  0  0  0  0  0  0  0
   -9.7328   -4.0428   -0.0720 C   0  0  0  0  0  0  0  0  0  0  0  0
  -10.4100   -3.1473    0.9221 C   0  0  0  0  0  0  0  0  0  0  0  0
  -11.6863   -3.0268    1.1184 N   0  0  0  0  0  0  0  0  0  0  0  0
  -12.4765   -3.8050    0.3217 C   0  0  0  0  0  0  0  0  0  0  0  0
  -13.8425   -3.9467    0.2576 C   0  0  0  0  0  0  0  0  0  0  0  0
  -14.0630   -4.9024   -0.7433 C   0  0  0  0  0  0  0  0  0  0  0  0
  -12.9354   -5.3540   -1.2932 N   0  0  0  0  0  0  0  0  0  0  0  0
  -11.9472   -4.6586   -0.6533 N   0  0  0  0  0  0  0  0  0  0  0  0
  -10.5476   -4.7708   -0.8646 C   0  0  0  0  0  0  0  0  0  0  0  0
  -10.1198   -5.6341   -1.8742 N   0  0  0  0  0  0  0  0  0  0  0  0
   -7.4983   -4.8576    0.6648 C   0  0  0  0  0  0  0  0  0  0  0  0
   -6.1049   -4.7318    0.6810 C   0  0  0  0  0  0  0  0  0  0  0  0
   -5.3720    0.9540   -0.0041 C   0  0  0  0  0  0  0  0  0  0  0  0
   -6.7571    4.0359   -0.6084 H   0  0  0  0  0  0  0  0  0  0  0  0
   -6.3742    3.4092    1.0011 H   0  0  0  0  0  0  0  0  0  0  0  0
   -7.6399    2.6335    0.0089 H   0  0  0  0  0  0  0  0  0  0  0  0
   -5.0974    3.5107   -2.2320 H   0  0  0  0  0  0  0  0  0  0  0  0
   -3.4044    1.9784   -3.1649 H   0  0  0  0  0  0  0  0  0  0  0  0
   -2.9759   -0.1940   -2.1395 H   0  0  0  0  0  0  0  0  0  0  0  0
   -5.0421   -1.3939    0.7381 H   0  0  0  0  0  0  0  0  0  0  0  0
   -3.5148   -4.2561    0.3427 H   0  0  0  0  0  0  0  0  0  0  0  0
   -5.7987   -2.3236   -1.7072 H   0  0  0  0  0  0  0  0  0  0  0  0
   -8.2282   -2.5349   -1.7260 H   0  0  0  0  0  0  0  0  0  0  0  0
   -9.7318   -2.5298    1.5352 H   0  0  0  0  0  0  0  0  0  0  0  0
  -14.5678   -3.4258    0.8643 H   0  0  0  0  0  0  0  0  0  0  0  0
  -15.0081   -5.2965   -1.0932 H   0  0  0  0  0  0  0  0  0  0  0  0
  -10.8463   -6.3096   -2.1248 H   0  0  0  0  0  0  0  0  0  0  0  0
   -9.2052   -6.0462   -1.7183 H   0  0  0  0  0  0  0  0  0  0  0  0
   -7.9762   -5.5724    1.3316 H   0  0  0  0  0  0  0  0  0  0  0  0
   -5.5230   -5.3438    1.3647 H   0  0  0  0  0  0  0  0  0  0  0  0
   -5.9486    0.6655    0.8729 H   0  0  0  0  0  0  0  0  0  0  0  0
  1  2  1  0  0  0  0
  1 28  1  0  0  0  0
  1 29  1  0  0  0  0
  1 30  1  0  0  0  0
  2  3  1  0  0  0  0
  2 27  2  0  0  0  0
  3  4  2  0  0  0  0
  3 31  1  0  0  0  0
  4  5  1  0  0  0  0
  4 32  1  0  0  0  0
  5  6  2  0  0  0  0
  5 33  1  0  0  0  0
  6  7  1  0  0  0  0
  6 27  1  0  0  0  0
  7  8  1  0  0  0  0
  7 34  1  0  0  0  0
  8  9  2  0  0  0  0
  8 10  1  0  0  0  0
 10 11  1  0  0  0  0
 10 35  1  0  0  0  0
 11 12  1  0  0  0  0
 11 26  2  0  0  0  0
 12 13  2  0  0  0  0
 12 36  1  0  0  0  0
 13 14  1  0  0  0  0
 13 37  1  0  0  0  0
 14 15  1  0  0  0  0
 14 25  2  0  0  0  0
 15 16  1  0  0  0  0
 15 23  2  0  0  0  0
 16 17  2  0  0  0  0
 16 38  1  0  0  0  0
 17 18  1  0  0  0  0
 18 19  2  0  0  0  0
 18 22  1  0  0  0  0
 19 20  1  0  0  0  0
 19 39  1  0  0  0  0
 20 21  2  0  0  0  0
 20 40  1  0  0  0  0
 21 22  1  0  0  0  0
 22 23  1  0  0  0  0
 23 24  1  0  0  0  0
 24 41  1  0  0  0  0
 24 42  1  0  0  0  0
 25 26  1  0  0  0  0
 25 43  1  0  0  0  0
 26 44  1  0  0  0  0
 27 45  1  0  0  0  0
M  END
$$$$
