CHEMBL293068
 OpenBabel04072215363D

 36 39  0  0  0  0  0  0  0  0999 V2000
   -2.9522    0.9543   -0.0685 O   0  0  0  0  0  0  0  0  0  0  0  0
   -1.7813    0.6328   -0.0473 C   0  0  0  0  0  0  0  0  0  0  0  0
   -0.7034    1.5005   -0.0228 N   0  0  0  0  0  0  0  0  0  0  0  0
    0.5048    0.8196   -0.0348 C   0  0  0  0  0  0  0  0  0  0  0  0
    1.7581    1.3930    0.0005 C   0  0  0  0  0  0  0  0  0  0  0  0
    2.8536    0.5311   -0.0093 C   0  0  0  0  0  0  0  0  0  0  0  0
    2.6755   -0.8702   -0.0597 C   0  0  0  0  0  0  0  0  0  0  0  0
    3.9094   -1.7030   -0.0284 C   0  0  0  0  0  0  0  0  0  0  0  0
    4.9358   -1.3299    0.5139 O   0  0  0  0  0  0  0  0  0  0  0  0
    3.8073   -2.8731   -0.6852 O   0  0  0  0  0  0  0  0  0  0  0  0
    1.3829   -1.4326   -0.0806 C   0  0  0  0  0  0  0  0  0  0  0  0
    0.2978   -0.5666   -0.0739 C   0  0  0  0  0  0  0  0  0  0  0  0
   -1.1645   -0.7502   -0.0648 C   0  0  0  0  0  0  0  0  0  0  0  0
   -1.8295   -1.9166   -0.0443 C   0  0  0  0  0  0  0  0  0  0  0  0
   -3.2377   -1.9767    0.0641 C   0  0  0  0  0  0  0  0  0  0  0  0
   -4.0066   -1.9510   -1.0802 N   0  0  0  0  0  0  0  0  0  0  0  0
   -5.3402   -1.9933   -0.7488 C   0  0  0  0  0  0  0  0  0  0  0  0
   -5.4348   -2.0342    0.6257 C   0  0  0  0  0  0  0  0  0  0  0  0
   -4.1079   -2.0340    1.1323 C   0  0  0  0  0  0  0  0  0  0  0  0
   -3.8776   -2.0634    2.5955 C   0  0  0  0  0  0  0  0  0  0  0  0
   -5.1238   -1.5094    3.2996 C   0  0  0  0  0  0  0  0  0  0  0  0
   -6.3720   -2.0727    2.8199 O   0  0  0  0  0  0  0  0  0  0  0  0
   -6.6232   -2.0781    1.4655 C   0  0  0  0  0  0  0  0  0  0  0  0
   -7.7617   -2.1702    1.0226 O   0  0  0  0  0  0  0  0  0  0  0  0
   -0.8220    2.5018   -0.0006 H   0  0  0  0  0  0  0  0  0  0  0  0
    1.8938    2.4675    0.0496 H   0  0  0  0  0  0  0  0  0  0  0  0
    3.8608    0.9488    0.0330 H   0  0  0  0  0  0  0  0  0  0  0  0
    3.0200   -2.9762   -1.2481 H   0  0  0  0  0  0  0  0  0  0  0  0
    1.2309   -2.5064   -0.0610 H   0  0  0  0  0  0  0  0  0  0  0  0
   -1.2952   -2.8618   -0.0383 H   0  0  0  0  0  0  0  0  0  0  0  0
   -3.6520   -1.8760   -2.0242 H   0  0  0  0  0  0  0  0  0  0  0  0
   -6.1069   -1.9707   -1.5126 H   0  0  0  0  0  0  0  0  0  0  0  0
   -2.9992   -1.4730    2.8763 H   0  0  0  0  0  0  0  0  0  0  0  0
   -3.7071   -3.1013    2.9028 H   0  0  0  0  0  0  0  0  0  0  0  0
   -5.1913   -0.4202    3.1910 H   0  0  0  0  0  0  0  0  0  0  0  0
   -5.0634   -1.7269    4.3713 H   0  0  0  0  0  0  0  0  0  0  0  0
  1  2  2  0  0  0  0
  2  3  1  0  0  0  0
  2 13  1  0  0  0  0
  3  4  1  0  0  0  0
  3 25  1  0  0  0  0
  4  5  1  0  0  0  0
  4 12  2  0  0  0  0
  5  6  2  0  0  0  0
  5 26  1  0  0  0  0
  6  7  1  0  0  0  0
  6 27  1  0  0  0  0
  7  8  1  0  0  0  0
  7 11  2  0  0  0  0
  8  9  2  0  0  0  0
  8 10  1  0  0  0  0
 10 28  1  0  0  0  0
 11 12  1  0  0  0  0
 11 29  1  0  0  0  0
 12 13  1  0  0  0  0
 13 14  2  0  0  0  0
 14 15  1  0  0  0  0
 14 30  1  0  0  0  0
 15 16  1  0  0  0  0
 15 19  2  0  0  0  0
 16 17  1  0  0  0  0
 16 31  1  0  0  0  0
 17 18  2  0  0  0  0
 17 32  1  0  0  0  0
 18 19  1  0  0  0  0
 18 23  1  0  0  0  0
 19 20  1  0  0  0  0
 20 21  1  0  0  0  0
 20 33  1  0  0  0  0
 20 34  1  0  0  0  0
 21 22  1  0  0  0  0
 21 35  1  0  0  0  0
 21 36  1  0  0  0  0
 22 23  1  0  0  0  0
 23 24  2  0  0  0  0
M  END
$$$$
