CHEMBL3971277
 OpenBabel04072215373D

 82 87  0  0  1  0  0  0  0  0999 V2000
    0.5606   -0.5174   -3.9876 C   0  0  0  0  0  0  0  0  0  0  0  0
    1.8506   -1.0744   -4.2489 O   0  0  0  0  0  0  0  0  0  0  0  0
    2.8149   -0.8675   -3.2919 C   0  0  0  0  0  0  0  0  0  0  0  0
    2.6745    0.0227   -2.2258 C   0  0  0  0  0  0  0  0  0  0  0  0
    3.7053    0.1801   -1.3058 C   0  0  0  0  0  0  0  0  0  0  0  0
    3.6840    1.0524   -0.2489 O   0  0  0  0  0  0  0  0  0  0  0  0
    2.4802    1.7805   -0.0253 C   0  0  0  0  0  0  0  0  0  0  0  0
    4.8844   -0.5685   -1.4540 C   0  0  0  0  0  0  0  0  0  0  0  0
    5.0640   -1.4902   -2.5127 C   0  0  0  0  0  0  0  0  0  0  0  0
    6.3244   -2.1783   -2.7792 N   0  0  0  0  0  0  0  0  0  0  0  0
    7.0518   -2.5850   -1.5409 C   0  0  0  0  0  0  0  0  0  0  0  0
    6.2249   -3.2388   -0.4023 C   0  0  0  0  0  0  0  0  0  0  0  0
    5.6758   -4.6612   -0.6231 C   0  0  0  0  0  0  0  0  0  0  0  0
    4.9370   -5.1428    0.5708 N   0  0  0  0  0  0  0  0  0  0  0  0
    5.7363   -5.2740    1.7945 C   0  0  0  0  0  0  0  0  0  0  0  0
    6.3239   -6.6637    1.7122 C   0  0  0  0  0  0  0  0  0  0  0  0
    5.1353   -7.5237    1.2690 C   0  0  3  0  0  0  0  0  0  0  0  0
    4.3556   -8.1263    2.3949 N   0  0  0  0  0  0  0  0  0  0  0  0
    3.2270   -8.9374    1.8875 C   0  0  0  0  0  0  0  0  0  0  0  0
    2.3851   -9.5428    3.0175 C   0  0  0  0  0  0  0  0  0  0  0  0
    3.2360  -10.3733    3.9664 C   0  0  0  0  0  0  0  0  0  0  0  0
    4.4115   -9.5447    4.4535 C   0  0  0  0  0  0  0  0  0  0  0  0
    5.1991   -8.9609    3.2774 C   0  0  0  0  0  0  0  0  0  0  0  0
    4.3328   -6.4895    0.3994 C   0  0  0  0  0  0  0  0  0  0  0  0
    7.2444   -1.5259   -3.7133 C   0  0  0  0  0  0  0  0  0  0  0  0
    7.0726   -0.1553   -3.9020 C   0  0  0  0  0  0  0  0  0  0  0  0
    7.5318    0.4656   -5.0340 C   0  0  0  0  0  0  0  0  0  0  0  0
    8.3342   -0.1814   -5.9263 C   0  0  0  0  0  0  0  0  0  0  0  0
    8.5585    0.5397   -7.0219 N   0  0  0  0  0  0  0  0  0  0  0  0
    9.4857    0.0829   -7.8627 C   0  0  0  0  0  0  0  0  0  0  0  0
   10.2539   -1.0169   -7.5774 C   0  0  0  0  0  0  0  0  0  0  0  0
   11.4813   -1.1259   -8.3690 C   0  0  0  0  0  0  0  0  0  0  0  0
   12.7911   -0.6526   -8.0751 C   0  0  0  0  0  0  0  0  0  0  0  0
   13.5979   -0.6342   -9.1453 N   0  0  0  0  0  0  0  0  0  0  0  0
   12.8077   -1.0748  -10.1380 N   0  0  0  0  0  0  0  0  0  0  0  0
   13.3682   -1.4506  -11.4155 C   0  0  0  0  0  0  0  0  0  0  0  0
   11.5010   -1.2123   -9.7549 C   0  0  0  0  0  0  0  0  0  0  0  0
    9.9498   -1.8376   -6.5006 N   0  0  0  0  0  0  0  0  0  0  0  0
    8.8930   -1.4515   -5.6627 C   0  0  0  0  0  0  0  0  0  0  0  0
    8.2427   -2.1487   -4.5424 C   0  0  0  0  0  0  0  0  0  0  0  0
    4.0108   -1.5977   -3.4437 C   0  0  0  0  0  0  0  0  0  0  0  0
   -0.1338   -0.8855   -4.7487 H   0  0  0  0  0  0  0  0  0  0  0  0
    0.5796    0.5764   -4.0604 H   0  0  0  0  0  0  0  0  0  0  0  0
    0.1745   -0.8351   -3.0116 H   0  0  0  0  0  0  0  0  0  0  0  0
    1.7717    0.6105   -2.1266 H   0  0  0  0  0  0  0  0  0  0  0  0
    2.6127    2.3937    0.8714 H   0  0  0  0  0  0  0  0  0  0  0  0
    1.6369    1.1060    0.1601 H   0  0  0  0  0  0  0  0  0  0  0  0
    2.2651    2.4586   -0.8595 H   0  0  0  0  0  0  0  0  0  0  0  0
    5.6862   -0.3757   -0.7468 H   0  0  0  0  0  0  0  0  0  0  0  0
    7.5316   -1.6947   -1.1066 H   0  0  0  0  0  0  0  0  0  0  0  0
    7.8642   -3.2742   -1.8005 H   0  0  0  0  0  0  0  0  0  0  0  0
    5.3951   -2.6045   -0.0767 H   0  0  0  0  0  0  0  0  0  0  0  0
    6.9134   -3.2573    0.4488 H   0  0  0  0  0  0  0  0  0  0  0  0
    6.4874   -5.3450   -0.8926 H   0  0  0  0  0  0  0  0  0  0  0  0
    4.9765   -4.6292   -1.4679 H   0  0  0  0  0  0  0  0  0  0  0  0
    5.0681   -5.1972    2.6627 H   0  0  0  0  0  0  0  0  0  0  0  0
    6.5078   -4.5174    1.9390 H   0  0  0  0  0  0  0  0  0  0  0  0
    6.8037   -6.9451    2.6489 H   0  0  0  0  0  0  0  0  0  0  0  0
    7.1089   -6.7052    0.9460 H   0  0  0  0  0  0  0  0  0  0  0  0
    5.5074   -8.3332    0.6268 H   0  0  0  0  0  0  0  0  0  0  0  0
    3.5978   -9.7443    1.2421 H   0  0  0  0  0  0  0  0  0  0  0  0
    2.5502   -8.3274    1.2818 H   0  0  0  0  0  0  0  0  0  0  0  0
    1.5932  -10.1705    2.5932 H   0  0  0  0  0  0  0  0  0  0  0  0
    1.8901   -8.7401    3.5789 H   0  0  0  0  0  0  0  0  0  0  0  0
    3.6049  -11.2673    3.4489 H   0  0  0  0  0  0  0  0  0  0  0  0
    2.6362  -10.7166    4.8165 H   0  0  0  0  0  0  0  0  0  0  0  0
    5.0722  -10.1646    5.0707 H   0  0  0  0  0  0  0  0  0  0  0  0
    4.0496   -8.7306    5.0950 H   0  0  0  0  0  0  0  0  0  0  0  0
    5.6667   -9.7736    2.7066 H   0  0  0  0  0  0  0  0  0  0  0  0
    6.0034   -8.3762    3.7292 H   0  0  0  0  0  0  0  0  0  0  0  0
    3.2897   -6.4174    0.7248 H   0  0  0  0  0  0  0  0  0  0  0  0
    4.3110   -6.8109   -0.6488 H   0  0  0  0  0  0  0  0  0  0  0  0
    6.4754    0.4444   -3.2269 H   0  0  0  0  0  0  0  0  0  0  0  0
    7.2562    1.5048   -5.2262 H   0  0  0  0  0  0  0  0  0  0  0  0
    9.6375    0.6889   -8.7500 H   0  0  0  0  0  0  0  0  0  0  0  0
   13.1812   -0.2719   -7.1392 H   0  0  0  0  0  0  0  0  0  0  0  0
   14.4581   -1.3671  -11.3845 H   0  0  0  0  0  0  0  0  0  0  0  0
   12.9601   -0.8089  -12.2000 H   0  0  0  0  0  0  0  0  0  0  0  0
   13.0900   -2.4930  -11.5945 H   0  0  0  0  0  0  0  0  0  0  0  0
   10.7217   -1.3678  -10.4881 H   0  0  0  0  0  0  0  0  0  0  0  0
    8.5044   -3.1934   -4.3773 H   0  0  0  0  0  0  0  0  0  0  0  0
    4.1249   -2.2460   -4.3092 H   0  0  0  0  0  0  0  0  0  0  0  0
  1  2  1  0  0  0  0
  1 42  1  0  0  0  0
  1 43  1  0  0  0  0
  1 44  1  0  0  0  0
  2  3  1  0  0  0  0
  3  4  1  0  0  0  0
  3 41  2  0  0  0  0
  4  5  2  0  0  0  0
  4 45  1  0  0  0  0
  5  6  1  0  0  0  0
  5  8  1  0  0  0  0
  6  7  1  0  0  0  0
  7 46  1  0  0  0  0
  7 47  1  0  0  0  0
  7 48  1  0  0  0  0
  8  9  2  0  0  0  0
  8 49  1  0  0  0  0
  9 10  1  0  0  0  0
  9 41  1  0  0  0  0
 10 11  1  0  0  0  0
 10 25  1  0  0  0  0
 11 12  1  0  0  0  0
 11 50  1  0  0  0  0
 11 51  1  0  0  0  0
 12 13  1  0  0  0  0
 12 52  1  0  0  0  0
 12 53  1  0  0  0  0
 13 14  1  0  0  0  0
 13 54  1  0  0  0  0
 13 55  1  0  0  0  0
 14 15  1  0  0  0  0
 14 24  1  0  0  0  0
 15 16  1  0  0  0  0
 15 56  1  0  0  0  0
 15 57  1  0  0  0  0
 16 17  1  0  0  0  0
 16 58  1  0  0  0  0
 16 59  1  0  0  0  0
 17 18  1  0  0  0  0
 17 24  1  0  0  0  0
 17 60  1  0  0  0  0
 18 19  1  0  0  0  0
 18 23  1  0  0  0  0
 19 20  1  0  0  0  0
 19 61  1  0  0  0  0
 19 62  1  0  0  0  0
 20 21  1  0  0  0  0
 20 63  1  0  0  0  0
 20 64  1  0  0  0  0
 21 22  1  0  0  0  0
 21 65  1  0  0  0  0
 21 66  1  0  0  0  0
 22 23  1  0  0  0  0
 22 67  1  0  0  0  0
 22 68  1  0  0  0  0
 23 69  1  0  0  0  0
 23 70  1  0  0  0  0
 24 71  1  0  0  0  0
 24 72  1  0  0  0  0
 25 26  1  0  0  0  0
 25 40  2  0  0  0  0
 26 27  2  0  0  0  0
 26 73  1  0  0  0  0
 27 28  1  0  0  0  0
 27 74  1  0  0  0  0
 28 29  1  0  0  0  0
 28 39  2  0  0  0  0
 29 30  2  0  0  0  0
 30 31  1  0  0  0  0
 30 75  1  0  0  0  0
 31 32  1  0  0  0  0
 31 38  2  0  0  0  0
 32 33  1  0  0  0  0
 32 37  2  0  0  0  0
 33 34  2  0  0  0  0
 33 76  1  0  0  0  0
 34 35  1  0  0  0  0
 35 36  1  0  0  0  0
 35 37  1  0  0  0  0
 36 77  1  0  0  0  0
 36 78  1  0  0  0  0
 36 79  1  0  0  0  0
 37 80  1  0  0  0  0
 38 39  1  0  0  0  0
 39 40  1  0  0  0  0
 40 81  1  0  0  0  0
 41 82  1  0  0  0  0
M  END
$$$$
