CHEMBL3927327
 OpenBabel04072215373D

 77 81  0  0  0  0  0  0  0  0999 V2000
    1.3024   -0.7065   -0.4460 C   0  0  0  0  0  0  0  0  0  0  0  0
    2.3530    0.0604    0.0651 O   0  0  0  0  0  0  0  0  0  0  0  0
    3.2150   -0.3308    1.0496 C   0  0  0  0  0  0  0  0  0  0  0  0
    3.1163   -1.6282    1.5556 C   0  0  0  0  0  0  0  0  0  0  0  0
    3.9214   -2.0513    2.5798 C   0  0  0  0  0  0  0  0  0  0  0  0
    3.8258   -3.3583    2.9446 O   0  0  0  0  0  0  0  0  0  0  0  0
    4.7822   -4.0724    3.6385 C   0  0  0  0  0  0  0  0  0  0  0  0
    4.8408   -1.1612    3.1498 C   0  0  0  0  0  0  0  0  0  0  0  0
    5.1359    0.1359    2.6046 C   0  0  0  0  0  0  0  0  0  0  0  0
    6.3851    0.8644    3.0554 N   0  0  0  0  0  0  0  0  0  0  0  0
    6.8473    2.0020    2.2165 C   0  0  0  0  0  0  0  0  0  0  0  0
    6.1282    3.3776    2.3045 C   0  0  0  0  0  0  0  0  0  0  0  0
    6.3210    3.9265    3.7042 C   0  0  0  0  0  0  0  0  0  0  0  0
    4.9161    3.7281    3.1558 C   0  0  0  0  0  0  0  0  0  0  0  0
    7.4476    0.0006    3.6642 C   0  0  0  0  0  0  0  0  0  0  0  0
    7.5376   -1.2046    2.9976 C   0  0  0  0  0  0  0  0  0  0  0  0
    8.0101   -2.3000    3.5954 C   0  0  0  0  0  0  0  0  0  0  0  0
    8.6418   -2.2482    4.7818 C   0  0  0  0  0  0  0  0  0  0  0  0
    8.8688   -3.4315    5.3216 N   0  0  0  0  0  0  0  0  0  0  0  0
    9.6289   -3.5985    6.3726 C   0  0  0  0  0  0  0  0  0  0  0  0
   10.3988   -2.5404    6.8360 C   0  0  0  0  0  0  0  0  0  0  0  0
   11.7054   -3.1053    7.4865 C   0  0  0  0  0  0  0  0  0  0  0  0
   12.9086   -2.5295    7.8924 C   0  0  0  0  0  0  0  0  0  0  0  0
   13.8412   -3.5135    8.1021 N   0  0  0  0  0  0  0  0  0  0  0  0
   13.2788   -4.6973    7.9006 N   0  0  0  0  0  0  0  0  0  0  0  0
   13.9594   -6.0081    7.6862 C   0  0  0  0  0  0  0  0  0  0  0  0
   15.1214   -6.3865    8.6271 C   0  0  0  0  0  0  0  0  0  0  0  0
   14.7754   -6.8708   10.0508 C   0  0  0  0  0  0  0  0  0  0  0  0
   16.0228   -7.0291   10.8514 N   0  0  0  0  0  0  0  0  0  0  0  0
   16.9477   -8.1084   10.4289 C   0  0  0  0  0  0  0  0  0  0  0  0
   16.4611   -9.4859   10.9031 C   0  0  0  0  0  0  0  0  0  0  0  0
   16.3351   -9.5074   12.3117 O   0  0  0  0  0  0  0  0  0  0  0  0
   15.3728   -8.5532   12.7189 C   0  0  0  0  0  0  0  0  0  0  0  0
   15.7952   -7.1307   12.3067 C   0  0  0  0  0  0  0  0  0  0  0  0
   12.0087   -4.4958    7.5362 C   0  0  0  0  0  0  0  0  0  0  0  0
   10.0148   -1.2280    6.4188 N   0  0  0  0  0  0  0  0  0  0  0  0
    9.0343   -1.0563    5.3991 C   0  0  0  0  0  0  0  0  0  0  0  0
    8.3457    0.1630    4.8559 C   0  0  0  0  0  0  0  0  0  0  0  0
    4.2442    0.5469    1.5452 C   0  0  0  0  0  0  0  0  0  0  0  0
    1.6996    2.8202   -0.9506 Cl  0  0  0  0  0  0  0  0  0  0  0  0
    0.7079   -0.1161   -1.1725 H   0  0  0  0  0  0  0  0  0  0  0  0
    0.6094   -1.0141    0.3718 H   0  0  0  0  0  0  0  0  0  0  0  0
    1.6853   -1.6126   -0.9711 H   0  0  0  0  0  0  0  0  0  0  0  0
    2.4148   -2.3434    1.1426 H   0  0  0  0  0  0  0  0  0  0  0  0
    4.4799   -5.1381    3.6949 H   0  0  0  0  0  0  0  0  0  0  0  0
    4.8981   -3.6712    4.6633 H   0  0  0  0  0  0  0  0  0  0  0  0
    5.7499   -4.0403    3.0951 H   0  0  0  0  0  0  0  0  0  0  0  0
    5.4073   -1.5508    3.9712 H   0  0  0  0  0  0  0  0  0  0  0  0
    6.7449    1.6970    1.1510 H   0  0  0  0  0  0  0  0  0  0  0  0
    7.9378    2.1675    2.3457 H   0  0  0  0  0  0  0  0  0  0  0  0
    6.4779    4.1611    1.5914 H   0  0  0  0  0  0  0  0  0  0  0  0
    6.4609    5.0249    3.8172 H   0  0  0  0  0  0  0  0  0  0  0  0
    6.3635    3.2554    4.5847 H   0  0  0  0  0  0  0  0  0  0  0  0
    4.4484    4.6168    2.6689 H   0  0  0  0  0  0  0  0  0  0  0  0
    4.3456    2.7854    3.2186 H   0  0  0  0  0  0  0  0  0  0  0  0
    7.0311   -1.3719    2.0653 H   0  0  0  0  0  0  0  0  0  0  0  0
    7.8482   -3.2519    3.1212 H   0  0  0  0  0  0  0  0  0  0  0  0
    9.7145   -4.6139    6.6562 H   0  0  0  0  0  0  0  0  0  0  0  0
   13.1481   -1.4789    7.9330 H   0  0  0  0  0  0  0  0  0  0  0  0
   14.4311   -5.9455    6.6773 H   0  0  0  0  0  0  0  0  0  0  0  0
   13.2318   -6.8520    7.6016 H   0  0  0  0  0  0  0  0  0  0  0  0
   15.8185   -5.5282    8.6728 H   0  0  0  0  0  0  0  0  0  0  0  0
   15.6365   -7.2325    8.1229 H   0  0  0  0  0  0  0  0  0  0  0  0
   14.1849   -7.8160   10.0240 H   0  0  0  0  0  0  0  0  0  0  0  0
   14.1422   -6.0861   10.5152 H   0  0  0  0  0  0  0  0  0  0  0  0
   17.9396   -7.9210   10.8972 H   0  0  0  0  0  0  0  0  0  0  0  0
   17.1286   -8.1153    9.3388 H   0  0  0  0  0  0  0  0  0  0  0  0
   17.2233  -10.2410   10.6119 H   0  0  0  0  0  0  0  0  0  0  0  0
   15.5091   -9.7850   10.4125 H   0  0  0  0  0  0  0  0  0  0  0  0
   15.3082   -8.5832   13.8280 H   0  0  0  0  0  0  0  0  0  0  0  0
   14.3674   -8.8181   12.3262 H   0  0  0  0  0  0  0  0  0  0  0  0
   16.7530   -6.8966   12.8227 H   0  0  0  0  0  0  0  0  0  0  0  0
   15.0494   -6.3836   12.6513 H   0  0  0  0  0  0  0  0  0  0  0  0
   11.4292   -5.3518    7.2343 H   0  0  0  0  0  0  0  0  0  0  0  0
    8.4489    1.1279    5.3596 H   0  0  0  0  0  0  0  0  0  0  0  0
    4.3492    1.5131    1.0717 H   0  0  0  0  0  0  0  0  0  0  0  0
    2.0447    1.7704   -1.7735 H   0  0  0  0  0  0  0  0  0  0  0  0
  1  2  1  0  0  0  0
  1 41  1  0  0  0  0
  1 42  1  0  0  0  0
  1 43  1  0  0  0  0
  2  3  1  0  0  0  0
  3  4  1  0  0  0  0
  3 39  2  0  0  0  0
  4  5  2  0  0  0  0
  4 44  1  0  0  0  0
  5  6  1  0  0  0  0
  5  8  1  0  0  0  0
  6  7  1  0  0  0  0
  7 45  1  0  0  0  0
  7 46  1  0  0  0  0
  7 47  1  0  0  0  0
  8  9  2  0  0  0  0
  8 48  1  0  0  0  0
  9 10  1  0  0  0  0
  9 39  1  0  0  0  0
 10 11  1  0  0  0  0
 10 15  1  0  0  0  0
 11 12  1  0  0  0  0
 11 49  1  0  0  0  0
 11 50  1  0  0  0  0
 12 13  1  0  0  0  0
 12 14  1  0  0  0  0
 12 51  1  0  0  0  0
 13 14  1  0  0  0  0
 13 52  1  0  0  0  0
 13 53  1  0  0  0  0
 14 54  1  0  0  0  0
 14 55  1  0  0  0  0
 15 16  1  0  0  0  0
 15 38  2  0  0  0  0
 16 17  2  0  0  0  0
 16 56  1  0  0  0  0
 17 18  1  0  0  0  0
 17 57  1  0  0  0  0
 18 19  1  0  0  0  0
 18 37  2  0  0  0  0
 19 20  2  0  0  0  0
 20 21  1  0  0  0  0
 20 58  1  0  0  0  0
 21 22  1  0  0  0  0
 21 36  2  0  0  0  0
 22 23  1  0  0  0  0
 22 35  2  0  0  0  0
 23 24  2  0  0  0  0
 23 59  1  0  0  0  0
 24 25  1  0  0  0  0
 25 26  1  0  0  0  0
 25 35  1  0  0  0  0
 26 27  1  0  0  0  0
 26 60  1  0  0  0  0
 26 61  1  0  0  0  0
 27 28  1  0  0  0  0
 27 62  1  0  0  0  0
 27 63  1  0  0  0  0
 28 29  1  0  0  0  0
 28 64  1  0  0  0  0
 28 65  1  0  0  0  0
 29 30  1  0  0  0  0
 29 34  1  0  0  0  0
 30 31  1  0  0  0  0
 30 66  1  0  0  0  0
 30 67  1  0  0  0  0
 31 32  1  0  0  0  0
 31 68  1  0  0  0  0
 31 69  1  0  0  0  0
 32 33  1  0  0  0  0
 33 34  1  0  0  0  0
 33 70  1  0  0  0  0
 33 71  1  0  0  0  0
 34 72  1  0  0  0  0
 34 73  1  0  0  0  0
 35 74  1  0  0  0  0
 36 37  1  0  0  0  0
 37 38  1  0  0  0  0
 38 75  1  0  0  0  0
 39 76  1  0  0  0  0
 40 77  1  0  0  0  0
M  END
$$$$
