CHEMBL356658
 OpenBabel04072215363D

 59 62  0  0  0  0  0  0  0  0999 V2000
    1.0454   -0.3063    0.1452 C   0  0  0  0  0  0  0  0  0  0  0  0
    2.4627   -0.1855    0.2187 O   0  0  0  0  0  0  0  0  0  0  0  0
    2.9922    1.0665    0.3652 C   0  0  0  0  0  0  0  0  0  0  0  0
    4.0779    1.3032   -0.4820 C   0  0  0  0  0  0  0  0  0  0  0  0
    4.7861    2.5303   -0.4650 C   0  0  0  0  0  0  0  0  0  0  0  0
    5.8478    2.8637   -1.3188 C   0  0  0  0  0  0  0  0  0  0  0  0
    6.2276    1.9739   -2.3560 N   0  0  0  0  0  0  0  0  0  0  0  0
    7.0078    2.3586   -3.4695 C   0  0  0  0  0  0  0  0  0  0  0  0
    6.7572    3.5637   -4.1429 C   0  0  0  0  0  0  0  0  0  0  0  0
    7.5918    3.9936   -5.1759 C   0  0  0  0  0  0  0  0  0  0  0  0
    8.6758    3.2073   -5.5558 C   0  0  0  0  0  0  0  0  0  0  0  0
    9.7421    3.7746   -6.7801 Cl  0  0  0  0  0  0  0  0  0  0  0  0
    8.9109    1.9801   -4.9428 C   0  0  0  0  0  0  0  0  0  0  0  0
    8.0716    1.5655   -3.9119 C   0  0  0  0  0  0  0  0  0  0  0  0
    8.3107    0.3888   -3.3117 F   0  0  0  0  0  0  0  0  0  0  0  0
    6.4919    4.0443   -1.2246 N   0  0  0  0  0  0  0  0  0  0  0  0
    6.0597    4.9049   -0.3054 C   0  0  0  0  0  0  0  0  0  0  0  0
    5.0313    4.7113    0.5210 N   0  0  0  0  0  0  0  0  0  0  0  0
    4.3999    3.5314    0.4307 C   0  0  0  0  0  0  0  0  0  0  0  0
    3.3228    3.2826    1.2673 C   0  0  0  0  0  0  0  0  0  0  0  0
    2.6244    2.0615    1.2746 C   0  0  0  0  0  0  0  0  0  0  0  0
    1.6471    2.0199    2.2290 O   0  0  0  0  0  0  0  0  0  0  0  0
    1.4048    0.7660    2.8620 C   0  0  0  0  0  0  0  0  0  0  0  0
    1.6064    0.8524    4.3570 C   0  0  0  0  0  0  0  0  0  0  0  0
    0.5902    1.6559    4.9542 O   0  0  0  0  0  0  0  0  0  0  0  0
    0.7728    1.6415    6.3673 C   0  0  0  0  0  0  0  0  0  0  0  0
   -0.1960    2.6124    7.0373 C   0  0  0  0  0  0  0  0  0  0  0  0
   -0.0575    2.6154    8.5058 N   0  0  0  0  0  0  0  0  0  0  0  0
   -1.0203    3.5561    9.1199 C   0  0  0  0  0  0  0  0  0  0  0  0
   -0.6525    5.0409    8.9301 C   0  0  0  0  0  0  0  0  0  0  0  0
    0.6890    5.3271    9.3511 O   0  0  0  0  0  0  0  0  0  0  0  0
    1.6305    4.4721    8.6928 C   0  0  0  0  0  0  0  0  0  0  0  0
    1.2962    3.0002    8.9688 C   0  0  0  0  0  0  0  0  0  0  0  0
    0.7855   -0.8018   -0.7929 H   0  0  0  0  0  0  0  0  0  0  0  0
    0.5053    0.6425    0.2067 H   0  0  0  0  0  0  0  0  0  0  0  0
    0.7197   -0.9755    0.9503 H   0  0  0  0  0  0  0  0  0  0  0  0
    4.3736    0.5142   -1.1687 H   0  0  0  0  0  0  0  0  0  0  0  0
    6.5046    1.0698   -1.9819 H   0  0  0  0  0  0  0  0  0  0  0  0
    5.9194    4.1863   -3.8434 H   0  0  0  0  0  0  0  0  0  0  0  0
    7.3970    4.9503   -5.6543 H   0  0  0  0  0  0  0  0  0  0  0  0
    9.7460    1.3540   -5.2397 H   0  0  0  0  0  0  0  0  0  0  0  0
    6.5889    5.8485   -0.2290 H   0  0  0  0  0  0  0  0  0  0  0  0
    3.0100    4.0743    1.9527 H   0  0  0  0  0  0  0  0  0  0  0  0
    2.0790   -0.0215    2.5250 H   0  0  0  0  0  0  0  0  0  0  0  0
    0.3632    0.5023    2.6546 H   0  0  0  0  0  0  0  0  0  0  0  0
    2.5915    1.2772    4.5796 H   0  0  0  0  0  0  0  0  0  0  0  0
    1.5403   -0.1607    4.7709 H   0  0  0  0  0  0  0  0  0  0  0  0
    1.8074    1.9349    6.5681 H   0  0  0  0  0  0  0  0  0  0  0  0
    0.6072    0.6248    6.7418 H   0  0  0  0  0  0  0  0  0  0  0  0
   -1.2160    2.3074    6.7673 H   0  0  0  0  0  0  0  0  0  0  0  0
   -0.0648    3.6071    6.5945 H   0  0  0  0  0  0  0  0  0  0  0  0
   -1.0431    3.3373   10.1951 H   0  0  0  0  0  0  0  0  0  0  0  0
   -2.0348    3.3656    8.7501 H   0  0  0  0  0  0  0  0  0  0  0  0
   -1.3209    5.6585    9.5377 H   0  0  0  0  0  0  0  0  0  0  0  0
   -0.7730    5.3557    7.8878 H   0  0  0  0  0  0  0  0  0  0  0  0
    2.6252    4.7041    9.0864 H   0  0  0  0  0  0  0  0  0  0  0  0
    1.6463    4.6994    7.6205 H   0  0  0  0  0  0  0  0  0  0  0  0
    1.3322    2.8298   10.0522 H   0  0  0  0  0  0  0  0  0  0  0  0
    2.0693    2.3450    8.5564 H   0  0  0  0  0  0  0  0  0  0  0  0
  1  2  1  0  0  0  0
  1 34  1  0  0  0  0
  1 35  1  0  0  0  0
  1 36  1  0  0  0  0
  2  3  1  0  0  0  0
  3  4  1  0  0  0  0
  3 21  2  0  0  0  0
  4  5  2  0  0  0  0
  4 37  1  0  0  0  0
  5  6  1  0  0  0  0
  5 19  1  0  0  0  0
  6  7  1  0  0  0  0
  6 16  2  0  0  0  0
  7  8  1  0  0  0  0
  7 38  1  0  0  0  0
  8  9  1  0  0  0  0
  8 14  2  0  0  0  0
  9 10  2  0  0  0  0
  9 39  1  0  0  0  0
 10 11  1  0  0  0  0
 10 40  1  0  0  0  0
 11 12  1  0  0  0  0
 11 13  2  0  0  0  0
 13 14  1  0  0  0  0
 13 41  1  0  0  0  0
 14 15  1  0  0  0  0
 16 17  1  0  0  0  0
 17 18  2  0  0  0  0
 17 42  1  0  0  0  0
 18 19  1  0  0  0  0
 19 20  2  0  0  0  0
 20 21  1  0  0  0  0
 20 43  1  0  0  0  0
 21 22  1  0  0  0  0
 22 23  1  0  0  0  0
 23 24  1  0  0  0  0
 23 44  1  0  0  0  0
 23 45  1  0  0  0  0
 24 25  1  0  0  0  0
 24 46  1  0  0  0  0
 24 47  1  0  0  0  0
 25 26  1  0  0  0  0
 26 27  1  0  0  0  0
 26 48  1  0  0  0  0
 26 49  1  0  0  0  0
 27 28  1  0  0  0  0
 27 50  1  0  0  0  0
 27 51  1  0  0  0  0
 28 29  1  0  0  0  0
 28 33  1  0  0  0  0
 29 30  1  0  0  0  0
 29 52  1  0  0  0  0
 29 53  1  0  0  0  0
 30 31  1  0  0  0  0
 30 54  1  0  0  0  0
 30 55  1  0  0  0  0
 31 32  1  0  0  0  0
 32 33  1  0  0  0  0
 32 56  1  0  0  0  0
 32 57  1  0  0  0  0
 33 58  1  0  0  0  0
 33 59  1  0  0  0  0
M  END
$$$$
