CHEMBL4554486
 OpenBabel04072215383D

 52 55  0  0  0  0  0  0  0  0999 V2000
    2.0639    3.6609    0.7175 C   0  0  0  0  0  0  0  0  0  0  0  0
    3.3631    3.2768    0.2894 O   0  0  0  0  0  0  0  0  0  0  0  0
    3.4367    2.2604   -0.6230 C   0  0  0  0  0  0  0  0  0  0  0  0
    2.3813    1.4499   -1.0375 C   0  0  0  0  0  0  0  0  0  0  0  0
    2.5964    0.4566   -1.9973 C   0  0  0  0  0  0  0  0  0  0  0  0
    3.8620    0.2795   -2.5593 C   0  0  0  0  0  0  0  0  0  0  0  0
    4.9271    1.0902   -2.1496 C   0  0  0  0  0  0  0  0  0  0  0  0
    6.2045    0.9466   -2.7566 N   0  0  0  0  0  0  0  0  0  0  0  0
    7.3623    1.6038   -2.4212 C   0  0  0  0  0  0  0  0  0  0  0  0
    8.3424    1.2146   -3.2962 C   0  0  0  0  0  0  0  0  0  0  0  0
    9.6678    1.6230   -3.3259 N   0  0  0  0  0  0  0  0  0  0  0  0
   10.2148    2.5211   -2.4225 C   0  0  0  0  0  0  0  0  0  0  0  0
    9.6205    3.0605   -1.4939 O   0  0  0  0  0  0  0  0  0  0  0  0
   11.6547    2.8562   -2.5975 C   0  0  0  0  0  0  0  0  0  0  0  0
   12.2965    2.8245   -3.8410 C   0  0  0  0  0  0  0  0  0  0  0  0
   13.6295    3.2316   -3.9461 C   0  0  0  0  0  0  0  0  0  0  0  0
   14.3147    3.6965   -2.8218 C   0  0  0  0  0  0  0  0  0  0  0  0
   13.6749    3.7327   -1.5853 C   0  0  0  0  0  0  0  0  0  0  0  0
   14.3480    4.2154   -0.4338 N   0  0  0  0  0  0  0  0  0  0  0  0
   15.1239    3.1354    0.5993 S   0  0  0  0  0  0  0  0  0  0  0  0
   15.7075    3.9308    1.6597 O   0  0  0  0  0  0  0  0  0  0  0  0
   14.2522    2.0175    0.8823 O   0  0  0  0  0  0  0  0  0  0  0  0
   16.4694    2.5372   -0.4036 C   0  0  0  0  0  0  0  0  0  0  0  0
   17.7053    3.1928   -0.3585 C   0  0  0  0  0  0  0  0  0  0  0  0
   18.7617    2.7236   -1.1427 C   0  0  0  0  0  0  0  0  0  0  0  0
   18.5771    1.6057   -1.9572 C   0  0  0  0  0  0  0  0  0  0  0  0
   19.8761    1.0386   -2.9317 Cl  0  0  0  0  0  0  0  0  0  0  0  0
   17.3491    0.9424   -1.9873 C   0  0  0  0  0  0  0  0  0  0  0  0
   16.2917    1.4001   -1.1985 C   0  0  0  0  0  0  0  0  0  0  0  0
   12.3576    3.2995   -1.4678 C   0  0  0  0  0  0  0  0  0  0  0  0
    7.6856    0.3062   -4.1480 C   0  0  0  0  0  0  0  0  0  0  0  0
    6.4042    0.1179   -3.8190 N   0  0  0  0  0  0  0  0  0  0  0  0
    4.7101    2.0636   -1.1635 C   0  0  0  0  0  0  0  0  0  0  0  0
    2.1653    4.5645    1.3268 H   0  0  0  0  0  0  0  0  0  0  0  0
    1.6171    2.8820    1.3431 H   0  0  0  0  0  0  0  0  0  0  0  0
    1.4173    3.9066   -0.1320 H   0  0  0  0  0  0  0  0  0  0  0  0
    1.3815    1.5642   -0.6326 H   0  0  0  0  0  0  0  0  0  0  0  0
    1.7720   -0.1765   -2.3151 H   0  0  0  0  0  0  0  0  0  0  0  0
    4.0045   -0.4941   -3.3116 H   0  0  0  0  0  0  0  0  0  0  0  0
    7.4011    2.2860   -1.5850 H   0  0  0  0  0  0  0  0  0  0  0  0
   10.2542    1.1836   -4.0209 H   0  0  0  0  0  0  0  0  0  0  0  0
   11.7716    2.5300   -4.7452 H   0  0  0  0  0  0  0  0  0  0  0  0
   14.1293    3.2100   -4.9126 H   0  0  0  0  0  0  0  0  0  0  0  0
   15.3454    4.0280   -2.9250 H   0  0  0  0  0  0  0  0  0  0  0  0
   14.7836    5.1346   -0.4730 H   0  0  0  0  0  0  0  0  0  0  0  0
   17.8567    4.0575    0.2849 H   0  0  0  0  0  0  0  0  0  0  0  0
   19.7239    3.2283   -1.1092 H   0  0  0  0  0  0  0  0  0  0  0  0
   17.2122    0.0676   -2.6181 H   0  0  0  0  0  0  0  0  0  0  0  0
   15.3370    0.8779   -1.2156 H   0  0  0  0  0  0  0  0  0  0  0  0
   11.8617    3.3391   -0.4978 H   0  0  0  0  0  0  0  0  0  0  0  0
    8.0823   -0.2338   -4.9975 H   0  0  0  0  0  0  0  0  0  0  0  0
    5.5053    2.7142   -0.8099 H   0  0  0  0  0  0  0  0  0  0  0  0
  1  2  1  0  0  0  0
  1 34  1  0  0  0  0
  1 35  1  0  0  0  0
  1 36  1  0  0  0  0
  2  3  1  0  0  0  0
  3  4  1  0  0  0  0
  3 33  2  0  0  0  0
  4  5  2  0  0  0  0
  4 37  1  0  0  0  0
  5  6  1  0  0  0  0
  5 38  1  0  0  0  0
  6  7  2  0  0  0  0
  6 39  1  0  0  0  0
  7  8  1  0  0  0  0
  7 33  1  0  0  0  0
  8  9  1  0  0  0  0
  8 32  1  0  0  0  0
  9 10  2  0  0  0  0
  9 40  1  0  0  0  0
 10 11  1  0  0  0  0
 10 31  1  0  0  0  0
 11 12  1  0  0  0  0
 11 41  1  0  0  0  0
 12 13  2  0  0  0  0
 12 14  1  0  0  0  0
 14 15  1  0  0  0  0
 14 30  2  0  0  0  0
 15 16  2  0  0  0  0
 15 42  1  0  0  0  0
 16 17  1  0  0  0  0
 16 43  1  0  0  0  0
 17 18  2  0  0  0  0
 17 44  1  0  0  0  0
 18 19  1  0  0  0  0
 18 30  1  0  0  0  0
 19 20  1  0  0  0  0
 19 45  1  0  0  0  0
 20 21  2  0  0  0  0
 20 22  2  0  0  0  0
 20 23  1  0  0  0  0
 23 24  1  0  0  0  0
 23 29  2  0  0  0  0
 24 25  2  0  0  0  0
 24 46  1  0  0  0  0
 25 26  1  0  0  0  0
 25 47  1  0  0  0  0
 26 27  1  0  0  0  0
 26 28  2  0  0  0  0
 28 29  1  0  0  0  0
 28 48  1  0  0  0  0
 29 49  1  0  0  0  0
 30 50  1  0  0  0  0
 31 32  2  0  0  0  0
 31 51  1  0  0  0  0
 33 52  1  0  0  0  0
M  END
$$$$
