CHEMBL3893070
 OpenBabel04072215373D

 67 71  0  0  0  0  0  0  0  0999 V2000
    2.2111   -0.9451   -0.9314 C   0  0  0  0  0  0  0  0  0  0  0  0
    2.4000    0.1942   -0.1044 O   0  0  0  0  0  0  0  0  0  0  0  0
    3.0717    1.2719   -0.6153 C   0  0  0  0  0  0  0  0  0  0  0  0
    2.6592    2.4950   -0.1044 C   0  0  0  0  0  0  0  0  0  0  0  0
    3.2965    3.6649   -0.5053 C   0  0  0  0  0  0  0  0  0  0  0  0
    2.9263    4.9231   -0.1109 O   0  0  0  0  0  0  0  0  0  0  0  0
    1.5541    5.0712    0.2414 C   0  0  0  0  0  0  0  0  0  0  0  0
    4.4468    3.5977   -1.3052 C   0  0  0  0  0  0  0  0  0  0  0  0
    4.9869    2.3757   -1.7219 C   0  0  0  0  0  0  0  0  0  0  0  0
    6.2538    2.3264   -2.3740 N   0  0  0  0  0  0  0  0  0  0  0  0
    6.9078    0.9218   -2.5148 C   0  0  0  0  0  0  0  0  0  0  0  0
    6.4828   -0.1281   -3.6314 C   0  0  0  0  0  0  0  0  0  0  0  0
    7.1500   -1.4994   -3.2917 C   0  0  0  0  0  0  0  0  0  0  0  0
    8.6040   -1.6106   -3.7727 C   0  0  0  0  0  0  0  0  0  0  0  0
    8.6624   -1.4913   -5.2299 N   0  0  0  0  0  0  0  0  0  0  0  0
   10.0270   -1.7295   -5.7157 C   0  0  0  0  0  0  0  0  0  0  0  0
    8.1621   -0.1783   -5.6569 C   0  0  0  0  0  0  0  0  0  0  0  0
    6.7355    0.1014   -5.1436 C   0  0  0  0  0  0  0  0  0  0  0  0
    7.2732    3.3652   -2.5357 C   0  0  0  0  0  0  0  0  0  0  0  0
    7.8769    3.2420   -3.7572 C   0  0  0  0  0  0  0  0  0  0  0  0
    9.1943    3.6303   -3.8494 C   0  0  0  0  0  0  0  0  0  0  0  0
    9.8227    4.3323   -2.8960 C   0  0  0  0  0  0  0  0  0  0  0  0
   11.1064    4.1632   -3.1570 N   0  0  0  0  0  0  0  0  0  0  0  0
   11.9268    5.1430   -2.8261 C   0  0  0  0  0  0  0  0  0  0  0  0
   11.5347    6.3151   -2.2303 C   0  0  0  0  0  0  0  0  0  0  0  0
   12.5762    7.3871   -2.6239 C   0  0  0  0  0  0  0  0  0  0  0  0
   13.3854    7.2407   -3.8302 C   0  0  0  0  0  0  0  0  0  0  0  0
   14.4476    8.0240   -3.9155 N   0  0  0  0  0  0  0  0  0  0  0  0
   14.3674    8.7767   -2.8175 N   0  0  0  0  0  0  0  0  0  0  0  0
   15.4189    9.7692   -2.6735 C   0  0  0  0  0  0  0  0  0  0  0  0
   13.2812    8.4245   -1.9986 C   0  0  0  0  0  0  0  0  0  0  0  0
   10.2264    6.3210   -1.6778 N   0  0  0  0  0  0  0  0  0  0  0  0
    9.2443    5.1495   -1.9670 C   0  0  0  0  0  0  0  0  0  0  0  0
    7.8556    4.4137   -1.6830 C   0  0  0  0  0  0  0  0  0  0  0  0
    4.1912    1.2265   -1.4572 C   0  0  0  0  0  0  0  0  0  0  0  0
    1.8540   -1.7580   -0.2877 H   0  0  0  0  0  0  0  0  0  0  0  0
    3.1264   -1.2974   -1.4106 H   0  0  0  0  0  0  0  0  0  0  0  0
    1.4317   -0.7440   -1.6724 H   0  0  0  0  0  0  0  0  0  0  0  0
    1.8452    2.5009    0.6124 H   0  0  0  0  0  0  0  0  0  0  0  0
    1.3708    6.1337    0.4233 H   0  0  0  0  0  0  0  0  0  0  0  0
    1.3148    4.5362    1.1660 H   0  0  0  0  0  0  0  0  0  0  0  0
    0.9015    4.7505   -0.5783 H   0  0  0  0  0  0  0  0  0  0  0  0
    4.9270    4.5283   -1.5887 H   0  0  0  0  0  0  0  0  0  0  0  0
    6.7319    0.4256   -1.5493 H   0  0  0  0  0  0  0  0  0  0  0  0
    7.9990    1.0143   -2.5488 H   0  0  0  0  0  0  0  0  0  0  0  0
    5.4019   -0.2820   -3.5531 H   0  0  0  0  0  0  0  0  0  0  0  0
    6.5711   -2.3078   -3.7624 H   0  0  0  0  0  0  0  0  0  0  0  0
    7.1132   -1.6925   -2.2144 H   0  0  0  0  0  0  0  0  0  0  0  0
    8.9924   -2.5910   -3.4687 H   0  0  0  0  0  0  0  0  0  0  0  0
    9.2338   -0.8512   -3.2941 H   0  0  0  0  0  0  0  0  0  0  0  0
   10.3932   -2.7108   -5.3876 H   0  0  0  0  0  0  0  0  0  0  0  0
   10.7332   -0.9708   -5.3597 H   0  0  0  0  0  0  0  0  0  0  0  0
   10.0586   -1.7435   -6.8116 H   0  0  0  0  0  0  0  0  0  0  0  0
    8.1352   -0.1624   -6.7560 H   0  0  0  0  0  0  0  0  0  0  0  0
    8.8373    0.6218   -5.3383 H   0  0  0  0  0  0  0  0  0  0  0  0
    6.0851   -0.6091   -5.6834 H   0  0  0  0  0  0  0  0  0  0  0  0
    6.3925    1.0864   -5.4671 H   0  0  0  0  0  0  0  0  0  0  0  0
    7.4783    2.6469   -4.5453 H   0  0  0  0  0  0  0  0  0  0  0  0
    9.7370    3.2838   -4.7093 H   0  0  0  0  0  0  0  0  0  0  0  0
   12.8969    4.9564   -3.2383 H   0  0  0  0  0  0  0  0  0  0  0  0
   13.2898    6.5087   -4.6226 H   0  0  0  0  0  0  0  0  0  0  0  0
   16.1869    9.6020   -3.4488 H   0  0  0  0  0  0  0  0  0  0  0  0
   15.9039    9.6813   -1.7010 H   0  0  0  0  0  0  0  0  0  0  0  0
   14.9962   10.7615   -2.8393 H   0  0  0  0  0  0  0  0  0  0  0  0
   13.1804    8.9237   -1.0467 H   0  0  0  0  0  0  0  0  0  0  0  0
    7.3254    4.6929   -0.7615 H   0  0  0  0  0  0  0  0  0  0  0  0
    4.4678    0.2633   -1.8552 H   0  0  0  0  0  0  0  0  0  0  0  0
  1  2  1  0  0  0  0
  1 36  1  0  0  0  0
  1 37  1  0  0  0  0
  1 38  1  0  0  0  0
  2  3  1  0  0  0  0
  3  4  1  0  0  0  0
  3 35  2  0  0  0  0
  4  5  2  0  0  0  0
  4 39  1  0  0  0  0
  5  6  1  0  0  0  0
  5  8  1  0  0  0  0
  6  7  1  0  0  0  0
  7 40  1  0  0  0  0
  7 41  1  0  0  0  0
  7 42  1  0  0  0  0
  8  9  2  0  0  0  0
  8 43  1  0  0  0  0
  9 10  1  0  0  0  0
  9 35  1  0  0  0  0
 10 11  1  0  0  0  0
 10 19  1  0  0  0  0
 11 12  1  0  0  0  0
 11 44  1  0  0  0  0
 11 45  1  0  0  0  0
 12 13  1  0  0  0  0
 12 18  1  0  0  0  0
 12 46  1  0  0  0  0
 13 14  1  0  0  0  0
 13 47  1  0  0  0  0
 13 48  1  0  0  0  0
 14 15  1  0  0  0  0
 14 49  1  0  0  0  0
 14 50  1  0  0  0  0
 15 16  1  0  0  0  0
 15 17  1  0  0  0  0
 16 51  1  0  0  0  0
 16 52  1  0  0  0  0
 16 53  1  0  0  0  0
 17 18  1  0  0  0  0
 17 54  1  0  0  0  0
 17 55  1  0  0  0  0
 18 56  1  0  0  0  0
 18 57  1  0  0  0  0
 19 20  1  0  0  0  0
 19 34  2  0  0  0  0
 20 21  2  0  0  0  0
 20 58  1  0  0  0  0
 21 22  1  0  0  0  0
 21 59  1  0  0  0  0
 22 23  1  0  0  0  0
 22 33  2  0  0  0  0
 23 24  2  0  0  0  0
 24 25  1  0  0  0  0
 24 60  1  0  0  0  0
 25 26  1  0  0  0  0
 25 32  2  0  0  0  0
 26 27  1  0  0  0  0
 26 31  2  0  0  0  0
 27 28  2  0  0  0  0
 27 61  1  0  0  0  0
 28 29  1  0  0  0  0
 29 30  1  0  0  0  0
 29 31  1  0  0  0  0
 30 62  1  0  0  0  0
 30 63  1  0  0  0  0
 30 64  1  0  0  0  0
 31 65  1  0  0  0  0
 32 33  1  0  0  0  0
 33 34  1  0  0  0  0
 34 66  1  0  0  0  0
 35 67  1  0  0  0  0
M  END
$$$$
