CHEMBL397549
 OpenBabel04072215373D

 45 48  0  0  0  0  0  0  0  0999 V2000
    1.0091   -0.6228   -0.2820 C   0  0  0  0  0  0  0  0  0  0  0  0
    2.4069   -0.6947   -0.5685 O   0  0  0  0  0  0  0  0  0  0  0  0
    2.8953    0.3813   -1.2316 C   0  0  0  0  0  0  0  0  0  0  0  0
    2.2522    1.3576   -1.5854 O   0  0  0  0  0  0  0  0  0  0  0  0
    4.3474    0.2285   -1.4692 C   0  0  0  0  0  0  0  0  0  0  0  0
    5.0247    1.2771   -2.0766 C   0  0  0  0  0  0  0  0  0  0  0  0
    6.3495    1.2543   -2.3581 N   0  0  0  0  0  0  0  0  0  0  0  0
    7.0242    0.1296   -2.0137 C   0  0  0  0  0  0  0  0  0  0  0  0
    6.4546   -0.9776   -1.3858 C   0  0  0  0  0  0  0  0  0  0  0  0
    7.2839   -2.1578   -1.0904 C   0  0  0  0  0  0  0  0  0  0  0  0
    7.0694   -2.9879   -0.0562 C   0  0  0  0  0  0  0  0  0  0  0  0
    7.8197   -4.1661    0.2161 C   0  0  0  0  0  0  0  0  0  0  0  0
    8.9366   -4.2391    1.0126 C   0  0  0  0  0  0  0  0  0  0  0  0
    9.2470   -5.5662    1.0942 N   0  0  0  0  0  0  0  0  0  0  0  0
    8.4181   -6.3646    0.3931 N   0  0  0  0  0  0  0  0  0  0  0  0
    7.5476   -5.5049   -0.1617 C   0  0  0  0  0  0  0  0  0  0  0  0
    6.4460   -5.9635   -1.0566 C   0  0  0  0  0  0  0  0  0  0  0  0
    5.6092   -5.1725   -1.6963 N   0  0  0  0  0  0  0  0  0  0  0  0
    4.8119   -6.0041   -2.4332 C   0  0  0  0  0  0  0  0  0  0  0  0
    3.7817   -5.6848   -3.3244 C   0  0  0  0  0  0  0  0  0  0  0  0
    3.0913   -6.7265   -3.9593 C   0  0  0  0  0  0  0  0  0  0  0  0
    3.4142   -8.0639   -3.7049 C   0  0  0  0  0  0  0  0  0  0  0  0
    2.7842   -9.1483   -4.2597 O   0  0  0  0  0  0  0  0  0  0  0  0
    1.7101   -8.8773   -5.1529 C   0  0  0  0  0  0  0  0  0  0  0  0
    4.4566   -8.3938   -2.8230 C   0  0  0  0  0  0  0  0  0  0  0  0
    5.1369   -7.3372   -2.2119 C   0  0  0  0  0  0  0  0  0  0  0  0
    6.1911   -7.2823   -1.3369 N   0  0  0  0  0  0  0  0  0  0  0  0
    5.0785   -0.9171   -1.1261 C   0  0  0  0  0  0  0  0  0  0  0  0
    0.7556   -1.4595    0.3747 H   0  0  0  0  0  0  0  0  0  0  0  0
    0.4301   -0.7164   -1.2059 H   0  0  0  0  0  0  0  0  0  0  0  0
    0.7622    0.3085    0.2378 H   0  0  0  0  0  0  0  0  0  0  0  0
    4.5132    2.1918   -2.3687 H   0  0  0  0  0  0  0  0  0  0  0  0
    8.0821    0.1509   -2.2644 H   0  0  0  0  0  0  0  0  0  0  0  0
    8.1050   -2.3502   -1.7783 H   0  0  0  0  0  0  0  0  0  0  0  0
    6.2389   -2.8070    0.6211 H   0  0  0  0  0  0  0  0  0  0  0  0
    9.5102   -3.4901    1.5394 H   0  0  0  0  0  0  0  0  0  0  0  0
    9.9996   -5.9978    1.6214 H   0  0  0  0  0  0  0  0  0  0  0  0
    3.5349   -4.6469   -3.5170 H   0  0  0  0  0  0  0  0  0  0  0  0
    2.3019   -6.4495   -4.6500 H   0  0  0  0  0  0  0  0  0  0  0  0
    1.2957   -9.8353   -5.4803 H   0  0  0  0  0  0  0  0  0  0  0  0
    2.0652   -8.3457   -6.0420 H   0  0  0  0  0  0  0  0  0  0  0  0
    0.9080   -8.3226   -4.6541 H   0  0  0  0  0  0  0  0  0  0  0  0
    4.7164   -9.4295   -2.6312 H   0  0  0  0  0  0  0  0  0  0  0  0
    6.7176   -8.0548   -0.9545 H   0  0  0  0  0  0  0  0  0  0  0  0
    4.5721   -1.7667   -0.6744 H   0  0  0  0  0  0  0  0  0  0  0  0
  1  2  1  0  0  0  0
  1 29  1  0  0  0  0
  1 30  1  0  0  0  0
  1 31  1  0  0  0  0
  2  3  1  0  0  0  0
  3  4  2  0  0  0  0
  3  5  1  0  0  0  0
  5  6  1  0  0  0  0
  5 28  2  0  0  0  0
  6  7  2  0  0  0  0
  6 32  1  0  0  0  0
  7  8  1  0  0  0  0
  8  9  2  0  0  0  0
  8 33  1  0  0  0  0
  9 10  1  0  0  0  0
  9 28  1  0  0  0  0
 10 11  2  0  0  0  0
 10 34  1  0  0  0  0
 11 12  1  0  0  0  0
 11 35  1  0  0  0  0
 12 13  2  0  0  0  0
 12 16  1  0  0  0  0
 13 14  1  0  0  0  0
 13 36  1  0  0  0  0
 14 15  1  0  0  0  0
 14 37  1  0  0  0  0
 15 16  2  0  0  0  0
 16 17  1  0  0  0  0
 17 18  2  0  0  0  0
 17 27  1  0  0  0  0
 18 19  1  0  0  0  0
 19 20  1  0  0  0  0
 19 26  2  0  0  0  0
 20 21  2  0  0  0  0
 20 38  1  0  0  0  0
 21 22  1  0  0  0  0
 21 39  1  0  0  0  0
 22 23  1  0  0  0  0
 22 25  2  0  0  0  0
 23 24  1  0  0  0  0
 24 40  1  0  0  0  0
 24 41  1  0  0  0  0
 24 42  1  0  0  0  0
 25 26  1  0  0  0  0
 25 43  1  0  0  0  0
 26 27  1  0  0  0  0
 27 44  1  0  0  0  0
 28 45  1  0  0  0  0
M  END
$$$$
