CHEMBL3903713
 OpenBabel04072215373D

 45 48  0  0  0  0  0  0  0  0999 V2000
    1.0945    0.0384    0.0010 C   0  0  0  0  0  0  0  0  0  0  0  0
    0.3131    1.0463   -0.4332 C   0  0  0  0  0  0  0  0  0  0  0  0
   -1.1514    1.1181   -0.2794 C   0  0  0  0  0  0  0  0  0  0  0  0
   -1.8290    0.5514    0.8110 C   0  0  0  0  0  0  0  0  0  0  0  0
   -3.2111    0.7013    0.9544 C   0  0  0  0  0  0  0  0  0  0  0  0
   -3.9380    1.4281    0.0178 C   0  0  0  0  0  0  0  0  0  0  0  0
   -3.2824    2.0078   -1.0655 C   0  0  0  0  0  0  0  0  0  0  0  0
   -1.8985    1.8551   -1.2100 C   0  0  0  0  0  0  0  0  0  0  0  0
    2.5919    0.0988   -0.1374 C   0  0  0  0  0  0  0  0  0  0  0  0
    3.1632    1.2749   -0.1347 N   0  0  0  0  0  0  0  0  0  0  0  0
    4.5162    1.3411   -0.1696 N   0  0  0  0  0  0  0  0  0  0  0  0
    5.1746    2.4323    0.4388 C   0  0  0  0  0  0  0  0  0  0  0  0
    6.3162    2.8345   -0.1758 N   0  0  0  0  0  0  0  0  0  0  0  0
    7.0400    3.8822    0.3052 N   0  0  0  0  0  0  0  0  0  0  0  0
    6.6290    4.4969    1.4295 C   0  0  0  0  0  0  0  0  0  0  0  0
    5.5168    4.0948    2.1580 C   0  0  0  0  0  0  0  0  0  0  0  0
    5.1718    4.7178    3.3746 C   0  0  0  0  0  0  0  0  0  0  0  0
    4.0579    4.3018    4.1028 C   0  0  0  0  0  0  0  0  0  0  0  0
    3.2688    3.2704    3.6174 C   0  0  0  0  0  0  0  0  0  0  0  0
    3.6137    2.6433    2.4210 C   0  0  0  0  0  0  0  0  0  0  0  0
    4.7443    3.0306    1.6535 C   0  0  0  0  0  0  0  0  0  0  0  0
    3.2914   -1.2340   -0.1769 C   0  0  0  0  0  0  0  0  0  0  0  0
    2.6997   -2.3064   -0.8546 C   0  0  0  0  0  0  0  0  0  0  0  0
    3.3700   -3.5257   -0.9808 C   0  0  0  0  0  0  0  0  0  0  0  0
    4.6530   -3.6831   -0.4514 C   0  0  0  0  0  0  0  0  0  0  0  0
    5.2433   -2.6314    0.2413 C   0  0  0  0  0  0  0  0  0  0  0  0
    4.5544   -1.4274    0.4065 C   0  0  0  0  0  0  0  0  0  0  0  0
    0.6851   -0.8304    0.5003 H   0  0  0  0  0  0  0  0  0  0  0  0
    0.7686    1.8976   -0.9368 H   0  0  0  0  0  0  0  0  0  0  0  0
   -1.2879    0.0031    1.5764 H   0  0  0  0  0  0  0  0  0  0  0  0
   -3.7202    0.2584    1.8091 H   0  0  0  0  0  0  0  0  0  0  0  0
   -5.0128    1.5509    0.1367 H   0  0  0  0  0  0  0  0  0  0  0  0
   -3.8448    2.5856   -1.7943 H   0  0  0  0  0  0  0  0  0  0  0  0
   -1.4095    2.3259   -2.0604 H   0  0  0  0  0  0  0  0  0  0  0  0
    4.9793    1.1336   -1.0548 H   0  0  0  0  0  0  0  0  0  0  0  0
    7.2398    5.3408    1.7307 H   0  0  0  0  0  0  0  0  0  0  0  0
    5.7819    5.5256    3.7738 H   0  0  0  0  0  0  0  0  0  0  0  0
    3.8077    4.7774    5.0469 H   0  0  0  0  0  0  0  0  0  0  0  0
    2.3863    2.9444    4.1614 H   0  0  0  0  0  0  0  0  0  0  0  0
    2.9747    1.8299    2.0921 H   0  0  0  0  0  0  0  0  0  0  0  0
    1.7196   -2.2052   -1.3186 H   0  0  0  0  0  0  0  0  0  0  0  0
    2.9036   -4.3491   -1.5107 H   0  0  0  0  0  0  0  0  0  0  0  0
    5.1873   -4.6164   -0.5830 H   0  0  0  0  0  0  0  0  0  0  0  0
    6.2472   -2.7396    0.6474 H   0  0  0  0  0  0  0  0  0  0  0  0
    5.0336   -0.6454    0.9881 H   0  0  0  0  0  0  0  0  0  0  0  0
  1  2  2  0  0  0  0
  1  9  1  0  0  0  0
  1 28  1  0  0  0  0
  2  3  1  0  0  0  0
  2 29  1  0  0  0  0
  3  4  1  0  0  0  0
  3  8  2  0  0  0  0
  4  5  2  0  0  0  0
  4 30  1  0  0  0  0
  5  6  1  0  0  0  0
  5 31  1  0  0  0  0
  6  7  2  0  0  0  0
  6 32  1  0  0  0  0
  7  8  1  0  0  0  0
  7 33  1  0  0  0  0
  8 34  1  0  0  0  0
  9 10  2  0  0  0  0
  9 22  1  0  0  0  0
 10 11  1  0  0  0  0
 11 12  1  0  0  0  0
 11 35  1  0  0  0  0
 12 13  1  0  0  0  0
 12 21  2  0  0  0  0
 13 14  2  0  0  0  0
 14 15  1  0  0  0  0
 15 16  2  0  0  0  0
 15 36  1  0  0  0  0
 16 17  1  0  0  0  0
 16 21  1  0  0  0  0
 17 18  2  0  0  0  0
 17 37  1  0  0  0  0
 18 19  1  0  0  0  0
 18 38  1  0  0  0  0
 19 20  2  0  0  0  0
 19 39  1  0  0  0  0
 20 21  1  0  0  0  0
 20 40  1  0  0  0  0
 22 23  1  0  0  0  0
 22 27  2  0  0  0  0
 23 24  2  0  0  0  0
 23 41  1  0  0  0  0
 24 25  1  0  0  0  0
 24 42  1  0  0  0  0
 25 26  2  0  0  0  0
 25 43  1  0  0  0  0
 26 27  1  0  0  0  0
 26 44  1  0  0  0  0
 27 45  1  0  0  0  0
M  END
$$$$
