CHEMBL566621
 OpenBabel04072215383D

 46 49  0  0  0  0  0  0  0  0999 V2000
    4.4395   -1.2107    2.6212 O   0  0  0  0  0  0  0  0  0  0  0  0
    4.0657   -0.5170    1.6783 C   0  0  0  0  0  0  0  0  0  0  0  0
    2.9904   -1.0088    0.7431 C   0  0  0  0  0  0  0  0  0  0  0  0
    1.9471   -1.9326    1.3343 C   0  0  0  0  0  0  0  0  0  0  0  0
    0.8464   -2.0007    0.7821 O   0  0  0  0  0  0  0  0  0  0  0  0
    2.3285   -2.6635    2.4418 N   0  0  0  0  0  0  0  0  0  0  0  0
    1.5403   -3.5821    3.1565 C   0  0  0  0  0  0  0  0  0  0  0  0
    0.3696   -4.1397    2.6418 C   0  0  0  0  0  0  0  0  0  0  0  0
   -0.4414   -4.9489    3.4382 C   0  0  0  0  0  0  0  0  0  0  0  0
   -0.0848   -5.2121    4.7582 C   0  0  0  0  0  0  0  0  0  0  0  0
   -0.9916   -5.9518    5.4742 O   0  0  0  0  0  0  0  0  0  0  0  0
   -1.2136   -5.6800    6.8044 C   0  0  0  0  0  0  0  0  0  0  0  0
   -1.0157   -4.4387    7.4101 C   0  0  0  0  0  0  0  0  0  0  0  0
   -1.1974   -4.3214    8.7747 C   0  0  0  0  0  0  0  0  0  0  0  0
   -1.6270   -5.3013    9.5888 N   0  0  0  0  0  0  0  0  0  0  0  0
   -1.9205   -6.4818    8.9806 C   0  0  0  0  0  0  0  0  0  0  0  0
   -2.4389   -7.6314    9.6443 C   0  0  0  0  0  0  0  0  0  0  0  0
   -2.6745   -8.6768    8.7820 C   0  0  0  0  0  0  0  0  0  0  0  0
   -2.2293   -8.2954    7.1785 S   0  0  0  0  0  0  0  0  0  0  0  0
   -1.7374   -6.7012    7.6156 C   0  0  0  0  0  0  0  0  0  0  0  0
    1.1508   -4.7623    5.2273 C   0  0  0  0  0  0  0  0  0  0  0  0
    1.5792   -5.0751    6.4594 F   0  0  0  0  0  0  0  0  0  0  0  0
    1.9546   -3.9367    4.4440 C   0  0  0  0  0  0  0  0  0  0  0  0
    4.5537    0.7342    1.3551 N   0  0  0  0  0  0  0  0  0  0  0  0
    5.6000    1.4042    2.0283 C   0  0  0  0  0  0  0  0  0  0  0  0
    6.4803    0.7590    2.9010 C   0  0  0  0  0  0  0  0  0  0  0  0
    7.4617    1.4831    3.5849 C   0  0  0  0  0  0  0  0  0  0  0  0
    7.5766    2.8537    3.3894 C   0  0  0  0  0  0  0  0  0  0  0  0
    6.7276    3.5005    2.4926 C   0  0  0  0  0  0  0  0  0  0  0  0
    5.7497    2.7747    1.8056 C   0  0  0  0  0  0  0  0  0  0  0  0
    3.4770   -1.5414   -0.0816 H   0  0  0  0  0  0  0  0  0  0  0  0
    2.4519   -0.1475    0.3294 H   0  0  0  0  0  0  0  0  0  0  0  0
    3.2116   -2.3878    2.8820 H   0  0  0  0  0  0  0  0  0  0  0  0
    0.0586   -3.9593    1.6173 H   0  0  0  0  0  0  0  0  0  0  0  0
   -1.3625   -5.3541    3.0272 H   0  0  0  0  0  0  0  0  0  0  0  0
   -0.6892   -3.5712    6.8481 H   0  0  0  0  0  0  0  0  0  0  0  0
   -0.9798   -3.3795    9.2732 H   0  0  0  0  0  0  0  0  0  0  0  0
   -2.6373   -7.6710   10.7066 H   0  0  0  0  0  0  0  0  0  0  0  0
   -3.0801   -9.6510    9.0170 H   0  0  0  0  0  0  0  0  0  0  0  0
    2.8751   -3.5525    4.8735 H   0  0  0  0  0  0  0  0  0  0  0  0
    4.0485    1.2806    0.6656 H   0  0  0  0  0  0  0  0  0  0  0  0
    6.4433   -0.3121    3.0671 H   0  0  0  0  0  0  0  0  0  0  0  0
    8.1285    0.9657    4.2682 H   0  0  0  0  0  0  0  0  0  0  0  0
    8.3276    3.4172    3.9354 H   0  0  0  0  0  0  0  0  0  0  0  0
    6.8216    4.5713    2.3346 H   0  0  0  0  0  0  0  0  0  0  0  0
    5.0932    3.3072    1.1219 H   0  0  0  0  0  0  0  0  0  0  0  0
  1  2  2  0  0  0  0
  2  3  1  0  0  0  0
  2 24  1  0  0  0  0
  3  4  1  0  0  0  0
  3 31  1  0  0  0  0
  3 32  1  0  0  0  0
  4  5  2  0  0  0  0
  4  6  1  0  0  0  0
  6  7  1  0  0  0  0
  6 33  1  0  0  0  0
  7  8  1  0  0  0  0
  7 23  2  0  0  0  0
  8  9  2  0  0  0  0
  8 34  1  0  0  0  0
  9 10  1  0  0  0  0
  9 35  1  0  0  0  0
 10 11  1  0  0  0  0
 10 21  2  0  0  0  0
 11 12  1  0  0  0  0
 12 13  1  0  0  0  0
 12 20  2  0  0  0  0
 13 14  2  0  0  0  0
 13 36  1  0  0  0  0
 14 15  1  0  0  0  0
 14 37  1  0  0  0  0
 15 16  2  0  0  0  0
 16 17  1  0  0  0  0
 16 20  1  0  0  0  0
 17 18  2  0  0  0  0
 17 38  1  0  0  0  0
 18 19  1  0  0  0  0
 18 39  1  0  0  0  0
 19 20  1  0  0  0  0
 21 22  1  0  0  0  0
 21 23  1  0  0  0  0
 23 40  1  0  0  0  0
 24 25  1  0  0  0  0
 24 41  1  0  0  0  0
 25 26  1  0  0  0  0
 25 30  2  0  0  0  0
 26 27  2  0  0  0  0
 26 42  1  0  0  0  0
 27 28  1  0  0  0  0
 27 43  1  0  0  0  0
 28 29  2  0  0  0  0
 28 44  1  0  0  0  0
 29 30  1  0  0  0  0
 29 45  1  0  0  0  0
 30 46  1  0  0  0  0
M  END
$$$$
