CHEMBL3128234
 OpenBabel04072215363D

 61 65  0  0  0  0  0  0  0  0999 V2000
    5.2518    2.1585   -1.7335 O   0  0  0  0  0  0  0  0  0  0  0  0
    6.0018    1.2843   -2.1637 C   0  0  0  0  0  0  0  0  0  0  0  0
    6.5090    1.3455   -3.5968 C   0  0  0  0  0  0  0  0  0  0  0  0
    7.7320    2.2093   -3.7920 C   0  0  0  0  0  0  0  0  0  0  0  0
    8.8774    1.6849   -4.4096 C   0  0  0  0  0  0  0  0  0  0  0  0
    9.9872    2.4989   -4.6546 C   0  0  0  0  0  0  0  0  0  0  0  0
    9.9629    3.8420   -4.2883 C   0  0  0  0  0  0  0  0  0  0  0  0
    8.8323    4.3760   -3.6783 C   0  0  0  0  0  0  0  0  0  0  0  0
    7.7216    3.5656   -3.4333 C   0  0  0  0  0  0  0  0  0  0  0  0
    6.4631    0.1833   -1.4538 N   0  0  0  0  0  0  0  0  0  0  0  0
    6.0703   -0.1935   -0.1482 C   0  0  0  0  0  0  0  0  0  0  0  0
    4.9619    0.3532    0.5008 C   0  0  0  0  0  0  0  0  0  0  0  0
    4.6520   -0.0084    1.8135 C   0  0  0  0  0  0  0  0  0  0  0  0
    5.4316   -0.9455    2.4868 C   0  0  0  0  0  0  0  0  0  0  0  0
    6.5120   -1.5580    1.8397 C   0  0  0  0  0  0  0  0  0  0  0  0
    7.3244   -2.6262    2.5465 C   0  0  0  0  0  0  0  0  0  0  0  0
    8.6964   -2.1733    2.6670 N   0  0  0  0  0  0  0  0  0  0  0  0
    9.6012   -3.0633    3.2404 C   0  0  0  0  0  0  0  0  0  0  0  0
    9.3884   -4.4037    3.1934 N   0  0  0  0  0  0  0  0  0  0  0  0
   10.3200   -5.2267    3.7188 C   0  0  0  0  0  0  0  0  0  0  0  0
   11.4796   -4.9005    4.3134 N   0  0  0  0  0  0  0  0  0  0  0  0
   11.6628   -3.5703    4.3398 C   0  0  0  0  0  0  0  0  0  0  0  0
   10.7855   -2.6187    3.8465 C   0  0  0  0  0  0  0  0  0  0  0  0
   11.4088   -1.3874    4.1245 C   0  0  0  0  0  0  0  0  0  0  0  0
   12.5884   -1.5259    4.7350 N   0  0  0  0  0  0  0  0  0  0  0  0
   12.7414   -2.8717    4.8320 N   0  0  0  0  0  0  0  0  0  0  0  0
   13.9532   -3.3809    5.4538 C   0  0  0  0  0  0  0  0  0  0  0  0
   14.4604   -4.7115    4.9026 C   0  0  0  0  0  0  0  0  0  0  0  0
   15.7949   -5.1170    5.4827 C   0  0  0  0  0  0  0  0  0  0  0  0
   15.8546   -5.9016    6.6431 C   0  0  0  0  0  0  0  0  0  0  0  0
   17.0848   -6.3268    7.1473 C   0  0  0  0  0  0  0  0  0  0  0  0
   18.2660   -5.9638    6.5036 C   0  0  0  0  0  0  0  0  0  0  0  0
   18.2188   -5.1629    5.3640 C   0  0  0  0  0  0  0  0  0  0  0  0
   16.9895   -4.7364    4.8575 C   0  0  0  0  0  0  0  0  0  0  0  0
    6.8228   -1.1717    0.5186 C   0  0  0  0  0  0  0  0  0  0  0  0
    5.6966    1.7412   -4.2209 H   0  0  0  0  0  0  0  0  0  0  0  0
    6.6906    0.3261   -3.9580 H   0  0  0  0  0  0  0  0  0  0  0  0
    8.9121    0.6448   -4.7196 H   0  0  0  0  0  0  0  0  0  0  0  0
   10.8665    2.0849   -5.1410 H   0  0  0  0  0  0  0  0  0  0  0  0
   10.8242    4.4775   -4.4907 H   0  0  0  0  0  0  0  0  0  0  0  0
    8.8087    5.4259   -3.3965 H   0  0  0  0  0  0  0  0  0  0  0  0
    6.8411    4.0062   -2.9670 H   0  0  0  0  0  0  0  0  0  0  0  0
    7.2399   -0.3279   -1.8546 H   0  0  0  0  0  0  0  0  0  0  0  0
    4.3076    1.0645    0.0061 H   0  0  0  0  0  0  0  0  0  0  0  0
    3.7971    0.4485    2.3054 H   0  0  0  0  0  0  0  0  0  0  0  0
    5.1820   -1.1973    3.5148 H   0  0  0  0  0  0  0  0  0  0  0  0
    7.2424   -3.5549    1.9699 H   0  0  0  0  0  0  0  0  0  0  0  0
    6.9044   -2.8130    3.5442 H   0  0  0  0  0  0  0  0  0  0  0  0
    8.7845   -1.2287    3.0214 H   0  0  0  0  0  0  0  0  0  0  0  0
   10.1061   -6.2899    3.6419 H   0  0  0  0  0  0  0  0  0  0  0  0
   11.0449   -0.3915    3.9097 H   0  0  0  0  0  0  0  0  0  0  0  0
   13.7507   -3.4432    6.5290 H   0  0  0  0  0  0  0  0  0  0  0  0
   14.7231   -2.6107    5.3090 H   0  0  0  0  0  0  0  0  0  0  0  0
   14.5412   -4.6655    3.8090 H   0  0  0  0  0  0  0  0  0  0  0  0
   13.7466   -5.5146    5.1170 H   0  0  0  0  0  0  0  0  0  0  0  0
   14.9417   -6.2052    7.1512 H   0  0  0  0  0  0  0  0  0  0  0  0
   17.1211   -6.9513    8.0363 H   0  0  0  0  0  0  0  0  0  0  0  0
   19.2228   -6.3077    6.8879 H   0  0  0  0  0  0  0  0  0  0  0  0
   19.1406   -4.8792    4.8625 H   0  0  0  0  0  0  0  0  0  0  0  0
   16.9715   -4.1207    3.9609 H   0  0  0  0  0  0  0  0  0  0  0  0
    7.6788   -1.6354    0.0319 H   0  0  0  0  0  0  0  0  0  0  0  0
  1  2  2  0  0  0  0
  2  3  1  0  0  0  0
  2 10  1  0  0  0  0
  3  4  1  0  0  0  0
  3 36  1  0  0  0  0
  3 37  1  0  0  0  0
  4  5  1  0  0  0  0
  4  9  2  0  0  0  0
  5  6  2  0  0  0  0
  5 38  1  0  0  0  0
  6  7  1  0  0  0  0
  6 39  1  0  0  0  0
  7  8  2  0  0  0  0
  7 40  1  0  0  0  0
  8  9  1  0  0  0  0
  8 41  1  0  0  0  0
  9 42  1  0  0  0  0
 10 11  1  0  0  0  0
 10 43  1  0  0  0  0
 11 12  1  0  0  0  0
 11 35  2  0  0  0  0
 12 13  2  0  0  0  0
 12 44  1  0  0  0  0
 13 14  1  0  0  0  0
 13 45  1  0  0  0  0
 14 15  2  0  0  0  0
 14 46  1  0  0  0  0
 15 16  1  0  0  0  0
 15 35  1  0  0  0  0
 16 17  1  0  0  0  0
 16 47  1  0  0  0  0
 16 48  1  0  0  0  0
 17 18  1  0  0  0  0
 17 49  1  0  0  0  0
 18 19  1  0  0  0  0
 18 23  2  0  0  0  0
 19 20  2  0  0  0  0
 20 21  1  0  0  0  0
 20 50  1  0  0  0  0
 21 22  2  0  0  0  0
 22 23  1  0  0  0  0
 22 26  1  0  0  0  0
 23 24  1  0  0  0  0
 24 25  2  0  0  0  0
 24 51  1  0  0  0  0
 25 26  1  0  0  0  0
 26 27  1  0  0  0  0
 27 28  1  0  0  0  0
 27 52  1  0  0  0  0
 27 53  1  0  0  0  0
 28 29  1  0  0  0  0
 28 54  1  0  0  0  0
 28 55  1  0  0  0  0
 29 30  1  0  0  0  0
 29 34  2  0  0  0  0
 30 31  2  0  0  0  0
 30 56  1  0  0  0  0
 31 32  1  0  0  0  0
 31 57  1  0  0  0  0
 32 33  2  0  0  0  0
 32 58  1  0  0  0  0
 33 34  1  0  0  0  0
 33 59  1  0  0  0  0
 34 60  1  0  0  0  0
 35 61  1  0  0  0  0
M  END
$$$$
