CHEMBL3917187
 OpenBabel04072215373D

 49 51  0  0  0  0  0  0  0  0999 V2000
    2.2662   -0.5370    0.7330 C   0  0  0  0  0  0  0  0  0  0  0  0
    0.9211   -0.2048    0.1884 C   0  0  0  0  0  0  0  0  0  0  0  0
    0.4930    1.0799   -0.2332 C   0  0  0  0  0  0  0  0  0  0  0  0
   -0.8011    0.9393   -0.6672 C   0  0  0  0  0  0  0  0  0  0  0  0
   -1.2089   -0.3473   -0.5536 O   0  0  0  0  0  0  0  0  0  0  0  0
   -0.1609   -1.0596   -0.0269 C   0  0  0  0  0  0  0  0  0  0  0  0
   -0.3274   -2.4849    0.2044 C   0  0  0  0  0  0  0  0  0  0  0  0
    0.5726   -3.1422    0.7195 O   0  0  0  0  0  0  0  0  0  0  0  0
   -1.5466   -3.0105   -0.2372 N   0  0  0  0  0  0  0  0  0  0  0  0
   -1.9444   -4.3597   -0.1377 C   0  0  0  0  0  0  0  0  0  0  0  0
   -1.2922   -5.2615    0.7155 C   0  0  0  0  0  0  0  0  0  0  0  0
   -1.6009   -6.6208    0.7141 C   0  0  0  0  0  0  0  0  0  0  0  0
   -2.6144   -7.0995   -0.1097 C   0  0  0  0  0  0  0  0  0  0  0  0
   -3.3642   -6.2128   -0.8920 C   0  0  0  0  0  0  0  0  0  0  0  0
   -4.4674   -6.7394   -1.6459 C   0  0  0  0  0  0  0  0  0  0  0  0
   -5.3466   -7.3070   -2.2510 C   0  0  0  0  0  0  0  0  0  0  0  0
   -6.2513   -8.1017   -3.0307 C   0  0  0  0  0  0  0  0  0  0  0  0
   -6.6134   -9.3856   -2.6348 C   0  0  0  0  0  0  0  0  0  0  0  0
   -7.2982  -10.2568   -3.4206 N   0  0  0  0  0  0  0  0  0  0  0  0
   -7.5585   -9.8561   -4.6929 C   0  0  0  0  0  0  0  0  0  0  0  0
   -7.2167   -8.6040   -5.1841 C   0  0  0  0  0  0  0  0  0  0  0  0
   -7.2834   -8.3167   -6.6458 C   0  0  0  0  0  0  0  0  0  0  0  0
   -6.5777   -7.3975   -7.0534 O   0  0  0  0  0  0  0  0  0  0  0  0
   -8.1494   -9.0304   -7.4916 N   0  0  0  0  0  0  0  0  0  0  0  0
   -7.7956   -9.2915   -8.9722 S   0  0  0  0  0  0  0  0  0  0  0  0
   -8.1788   -7.8497   -9.9412 C   0  0  0  0  0  0  0  0  0  0  0  0
   -9.0217  -10.4269   -9.5819 C   0  0  0  0  0  0  0  0  0  0  0  0
   -6.5152   -9.7921   -9.4337 O   0  0  0  0  0  0  0  0  0  0  0  0
   -6.6316   -7.6839   -4.3042 C   0  0  0  0  0  0  0  0  0  0  0  0
   -3.0181   -4.8525   -0.9140 C   0  0  0  0  0  0  0  0  0  0  0  0
    2.9188    0.3436    0.7105 H   0  0  0  0  0  0  0  0  0  0  0  0
    2.7506   -1.3181    0.1386 H   0  0  0  0  0  0  0  0  0  0  0  0
    2.2019   -0.8712    1.7737 H   0  0  0  0  0  0  0  0  0  0  0  0
    1.0669    1.9980   -0.2257 H   0  0  0  0  0  0  0  0  0  0  0  0
   -1.5301    1.6265   -1.0729 H   0  0  0  0  0  0  0  0  0  0  0  0
   -2.1282   -2.3771   -0.7733 H   0  0  0  0  0  0  0  0  0  0  0  0
   -0.5270   -4.9291    1.4104 H   0  0  0  0  0  0  0  0  0  0  0  0
   -1.0421   -7.2932    1.3602 H   0  0  0  0  0  0  0  0  0  0  0  0
   -2.8209   -8.1677   -0.1179 H   0  0  0  0  0  0  0  0  0  0  0  0
   -6.3154   -9.7854   -1.6678 H   0  0  0  0  0  0  0  0  0  0  0  0
   -8.0130  -10.6156   -5.3253 H   0  0  0  0  0  0  0  0  0  0  0  0
   -9.1370   -7.4418   -9.6151 H   0  0  0  0  0  0  0  0  0  0  0  0
   -8.2456   -8.1511  -10.9911 H   0  0  0  0  0  0  0  0  0  0  0  0
   -7.3796   -7.1164   -9.8300 H   0  0  0  0  0  0  0  0  0  0  0  0
  -10.0008  -10.1315   -9.2001 H   0  0  0  0  0  0  0  0  0  0  0  0
   -8.7627  -11.4332   -9.2487 H   0  0  0  0  0  0  0  0  0  0  0  0
   -9.0196  -10.3907  -10.6738 H   0  0  0  0  0  0  0  0  0  0  0  0
   -6.3964   -6.6783   -4.6431 H   0  0  0  0  0  0  0  0  0  0  0  0
   -3.5727   -4.1729   -1.5655 H   0  0  0  0  0  0  0  0  0  0  0  0
  1  2  1  0  0  0  0
  1 31  1  0  0  0  0
  1 32  1  0  0  0  0
  1 33  1  0  0  0  0
  2  3  1  0  0  0  0
  2  6  2  0  0  0  0
  3  4  2  0  0  0  0
  3 34  1  0  0  0  0
  4  5  1  0  0  0  0
  4 35  1  0  0  0  0
  5  6  1  0  0  0  0
  6  7  1  0  0  0  0
  7  8  2  0  0  0  0
  7  9  1  0  0  0  0
  9 10  1  0  0  0  0
  9 36  1  0  0  0  0
 10 11  1  0  0  0  0
 10 30  2  0  0  0  0
 11 12  2  0  0  0  0
 11 37  1  0  0  0  0
 12 13  1  0  0  0  0
 12 38  1  0  0  0  0
 13 14  2  0  0  0  0
 13 39  1  0  0  0  0
 14 15  1  0  0  0  0
 14 30  1  0  0  0  0
 15 16  3  0  0  0  0
 16 17  1  0  0  0  0
 17 18  1  0  0  0  0
 17 29  2  0  0  0  0
 18 19  2  0  0  0  0
 18 40  1  0  0  0  0
 19 20  1  0  0  0  0
 20 21  2  0  0  0  0
 20 41  1  0  0  0  0
 21 22  1  0  0  0  0
 21 29  1  0  0  0  0
 22 23  2  0  0  0  0
 22 24  1  0  0  0  0
 24 25  2  0  0  0  0
 25 26  1  0  0  0  0
 25 27  1  0  0  0  0
 25 28  2  0  0  0  0
 26 42  1  0  0  0  0
 26 43  1  0  0  0  0
 26 44  1  0  0  0  0
 27 45  1  0  0  0  0
 27 46  1  0  0  0  0
 27 47  1  0  0  0  0
 29 48  1  0  0  0  0
 30 49  1  0  0  0  0
M  END
$$$$
