CHEMBL3967065
 OpenBabel04072215373D

 71 74  0  0  1  0  0  0  0  0999 V2000
    0.3816   -0.2525   -0.9591 C   0  0  0  0  0  0  0  0  0  0  0  0
    1.7564   -0.3973   -1.0836 O   0  0  0  0  0  0  0  0  0  0  0  0
    2.6393    0.5210   -1.5699 C   0  0  0  0  0  0  0  0  0  0  0  0
    2.3952    1.8820   -1.4614 C   0  0  0  0  0  0  0  0  0  0  0  0
    3.3036    2.8077   -1.9719 C   0  0  0  0  0  0  0  0  0  0  0  0
    3.1134    4.1419   -1.8110 O   0  0  0  0  0  0  0  0  0  0  0  0
    2.0569    4.6811   -1.1021 C   0  0  0  0  0  0  0  0  0  0  0  0
    4.4501    2.3633   -2.6319 C   0  0  0  0  0  0  0  0  0  0  0  0
    4.8171    1.0153   -2.7106 C   0  0  0  0  0  0  0  0  0  0  0  0
    6.1140    0.6590   -3.3221 N   0  0  0  0  0  0  0  0  0  0  0  0
    6.7187   -0.7365   -3.0859 C   0  0  0  0  0  0  0  0  0  0  0  0
    8.2065   -0.6336   -2.5452 C   0  0  1  0  0  0  0  0  0  0  0  0
    8.2661    0.1954   -1.4235 O   0  0  0  0  0  0  0  0  0  0  0  0
    9.0805   -1.8981   -2.2818 C   0  0  0  0  0  0  0  0  0  0  0  0
    9.2462   -2.7098   -3.5079 N   0  0  0  0  0  0  0  0  0  0  0  0
    9.9168   -1.9827   -4.6083 C   0  0  0  0  0  0  0  0  0  0  0  0
   11.0392   -2.8701   -5.1183 C   0  0  0  0  0  0  0  0  0  0  0  0
   10.5638   -4.2531   -4.7404 C   0  0  2  0  0  0  0  0  0  0  0  0
    9.5000   -4.7365   -5.6777 C   0  0  0  0  0  0  0  0  0  0  0  0
    8.6903   -5.1272   -6.3734 N   0  0  0  0  0  0  0  0  0  0  0  0
    9.9940   -3.9742   -3.3569 C   0  0  0  0  0  0  0  0  0  0  0  0
    7.0086    1.6101   -4.0752 C   0  0  0  0  0  0  0  0  0  0  0  0
    7.6050    0.9542   -5.1372 C   0  0  0  0  0  0  0  0  0  0  0  0
    8.7431    1.3852   -5.6648 C   0  0  0  0  0  0  0  0  0  0  0  0
    9.3217    2.5256   -5.3011 C   0  0  0  0  0  0  0  0  0  0  0  0
   10.6125    2.5574   -5.5826 N   0  0  0  0  0  0  0  0  0  0  0  0
   11.3842    3.5962   -5.4027 C   0  0  0  0  0  0  0  0  0  0  0  0
   10.7569    4.7987   -5.3627 C   0  0  0  0  0  0  0  0  0  0  0  0
   11.4335    5.6276   -6.5468 C   0  0  0  0  0  0  0  0  0  0  0  0
   12.2779    5.0354   -7.5684 C   0  0  0  0  0  0  0  0  0  0  0  0
   12.4450    5.8855   -8.5946 N   0  0  0  0  0  0  0  0  0  0  0  0
   11.7921    6.9956   -8.3076 N   0  0  0  0  0  0  0  0  0  0  0  0
   11.5724    8.0647   -9.3090 C   0  0  0  0  0  0  0  0  0  0  0  0
   11.2356    6.9048   -7.0576 C   0  0  0  0  0  0  0  0  0  0  0  0
    9.4291    4.7979   -4.7720 N   0  0  0  0  0  0  0  0  0  0  0  0
    8.7162    3.5449   -4.6008 C   0  0  0  0  0  0  0  0  0  0  0  0
    7.4783    3.0511   -3.8551 C   0  0  0  0  0  0  0  0  0  0  0  0
    3.8467    0.0805   -2.1589 C   0  0  0  0  0  0  0  0  0  0  0  0
    2.1253    1.0836    2.4675 Cl  0  0  0  0  0  0  0  0  0  0  0  0
   -0.0185   -1.1331   -0.4142 H   0  0  0  0  0  0  0  0  0  0  0  0
   -0.0876   -0.2318   -1.9674 H   0  0  0  0  0  0  0  0  0  0  0  0
    0.0871    0.6544   -0.3923 H   0  0  0  0  0  0  0  0  0  0  0  0
    1.5057    2.2227   -0.9585 H   0  0  0  0  0  0  0  0  0  0  0  0
    2.1339    5.7826   -1.0728 H   0  0  0  0  0  0  0  0  0  0  0  0
    2.0507    4.2968   -0.0540 H   0  0  0  0  0  0  0  0  0  0  0  0
    1.1073    4.3987   -1.6008 H   0  0  0  0  0  0  0  0  0  0  0  0
    5.0634    3.1084   -3.0475 H   0  0  0  0  0  0  0  0  0  0  0  0
    6.7880   -1.3828   -4.0050 H   0  0  0  0  0  0  0  0  0  0  0  0
    6.1437   -1.3352   -2.3541 H   0  0  0  0  0  0  0  0  0  0  0  0
    8.7658   -0.1336   -3.3308 H   0  0  0  0  0  0  0  0  0  0  0  0
    7.4986   -0.0414   -0.8474 H   0  0  0  0  0  0  0  0  0  0  0  0
    8.6660   -2.5005   -1.4440 H   0  0  0  0  0  0  0  0  0  0  0  0
   10.0869   -1.5204   -1.9555 H   0  0  0  0  0  0  0  0  0  0  0  0
   10.3752   -1.0071   -4.3346 H   0  0  0  0  0  0  0  0  0  0  0  0
    9.1409   -1.8335   -5.3853 H   0  0  0  0  0  0  0  0  0  0  0  0
   11.9411   -2.6664   -4.4971 H   0  0  0  0  0  0  0  0  0  0  0  0
   11.2984   -2.6940   -6.1845 H   0  0  0  0  0  0  0  0  0  0  0  0
   11.3725   -5.0138   -4.7651 H   0  0  0  0  0  0  0  0  0  0  0  0
   10.8470   -3.8389   -2.6547 H   0  0  0  0  0  0  0  0  0  0  0  0
    9.3592   -4.8090   -2.9823 H   0  0  0  0  0  0  0  0  0  0  0  0
    7.3152   -0.0210   -5.4755 H   0  0  0  0  0  0  0  0  0  0  0  0
    9.2784    0.7632   -6.3458 H   0  0  0  0  0  0  0  0  0  0  0  0
   12.3898    3.4416   -5.7170 H   0  0  0  0  0  0  0  0  0  0  0  0
   12.6560    4.0096   -7.6791 H   0  0  0  0  0  0  0  0  0  0  0  0
   12.0140    7.8157  -10.3063 H   0  0  0  0  0  0  0  0  0  0  0  0
   11.9767    9.0422   -8.9944 H   0  0  0  0  0  0  0  0  0  0  0  0
   10.4801    8.1837   -9.5055 H   0  0  0  0  0  0  0  0  0  0  0  0
   10.6400    7.6587   -6.6051 H   0  0  0  0  0  0  0  0  0  0  0  0
    7.0071    3.6792   -3.0919 H   0  0  0  0  0  0  0  0  0  0  0  0
    3.9190   -0.9973   -2.1492 H   0  0  0  0  0  0  0  0  0  0  0  0
    1.8986    1.4674    1.1744 H   0  0  0  0  0  0  0  0  0  0  0  0
  1  2  1  0  0  0  0
  1 40  1  0  0  0  0
  1 41  1  0  0  0  0
  1 42  1  0  0  0  0
  2  3  1  0  0  0  0
  3  4  1  0  0  0  0
  3 38  2  0  0  0  0
  4  5  2  0  0  0  0
  4 43  1  0  0  0  0
  5  6  1  0  0  0  0
  5  8  1  0  0  0  0
  6  7  1  0  0  0  0
  7 44  1  0  0  0  0
  7 45  1  0  0  0  0
  7 46  1  0  0  0  0
  8  9  2  0  0  0  0
  8 47  1  0  0  0  0
  9 10  1  0  0  0  0
  9 38  1  0  0  0  0
 10 11  1  0  0  0  0
 10 22  1  0  0  0  0
 11 12  1  0  0  0  0
 11 48  1  0  0  0  0
 11 49  1  0  0  0  0
 12 13  1  0  0  0  0
 12 14  1  0  0  0  0
 12 50  1  6  0  0  0
 13 51  1  0  0  0  0
 14 15  1  0  0  0  0
 14 52  1  0  0  0  0
 14 53  1  0  0  0  0
 15 16  1  0  0  0  0
 15 21  1  0  0  0  0
 16 17  1  0  0  0  0
 16 54  1  0  0  0  0
 16 55  1  0  0  0  0
 17 18  1  0  0  0  0
 17 56  1  0  0  0  0
 17 57  1  0  0  0  0
 18 19  1  0  0  0  0
 18 21  1  0  0  0  0
 18 58  1  1  0  0  0
 19 20  3  0  0  0  0
 21 59  1  0  0  0  0
 21 60  1  0  0  0  0
 22 23  1  0  0  0  0
 22 37  2  0  0  0  0
 23 24  2  0  0  0  0
 23 61  1  0  0  0  0
 24 25  1  0  0  0  0
 24 62  1  0  0  0  0
 25 26  1  0  0  0  0
 25 36  2  0  0  0  0
 26 27  2  0  0  0  0
 27 28  1  0  0  0  0
 27 63  1  0  0  0  0
 28 29  1  0  0  0  0
 28 35  2  0  0  0  0
 29 30  1  0  0  0  0
 29 34  2  0  0  0  0
 30 31  2  0  0  0  0
 30 64  1  0  0  0  0
 31 32  1  0  0  0  0
 32 33  1  0  0  0  0
 32 34  1  0  0  0  0
 33 65  1  0  0  0  0
 33 66  1  0  0  0  0
 33 67  1  0  0  0  0
 34 68  1  0  0  0  0
 35 36  1  0  0  0  0
 36 37  1  0  0  0  0
 37 69  1  0  0  0  0
 38 70  1  0  0  0  0
 39 71  1  0  0  0  0
M  END
$$$$
