CHEMBL1277254
 OpenBabel04072215363D

 55 58  0  0  0  0  0  0  0  0999 V2000
   13.2644   -8.9000   -0.3334 C   0  0  0  0  0  0  0  0  0  0  0  0
   12.7896   -9.3646   -1.5931 O   0  0  0  0  0  0  0  0  0  0  0  0
   11.5637   -8.9000   -1.9828 C   0  0  0  0  0  0  0  0  0  0  0  0
   10.7720   -8.0078   -1.2639 C   0  0  0  0  0  0  0  0  0  0  0  0
    9.5211   -7.6185   -1.7512 C   0  0  0  0  0  0  0  0  0  0  0  0
    9.0406   -8.1175   -2.9586 C   0  0  0  0  0  0  0  0  0  0  0  0
    7.7761   -7.7959   -3.4865 N   0  0  0  0  0  0  0  0  0  0  0  0
    6.8254   -6.9657   -2.9357 C   0  0  0  0  0  0  0  0  0  0  0  0
    6.9195   -6.3506   -1.8786 O   0  0  0  0  0  0  0  0  0  0  0  0
    5.7217   -6.7240   -3.7118 N   0  0  0  0  0  0  0  0  0  0  0  0
    5.3366   -7.3064   -4.9261 C   0  0  0  0  0  0  0  0  0  0  0  0
    4.9358   -6.4485   -5.9473 C   0  0  0  0  0  0  0  0  0  0  0  0
    4.5536   -6.9713   -7.1772 C   0  0  0  0  0  0  0  0  0  0  0  0
    4.5194   -8.3566   -7.3754 C   0  0  0  0  0  0  0  0  0  0  0  0
    4.9101   -9.2329   -6.3603 C   0  0  0  0  0  0  0  0  0  0  0  0
    4.8580  -10.6119   -6.4058 O   0  0  0  0  0  0  0  0  0  0  0  0
    4.9285  -11.3319   -7.6018 C   0  0  0  0  0  0  0  0  0  0  0  0
    5.3528  -10.7231   -8.7254 N   0  0  0  0  0  0  0  0  0  0  0  0
    5.3711  -11.4809   -9.8226 C   0  0  0  0  0  0  0  0  0  0  0  0
    5.0520  -12.7788   -9.8940 N   0  0  0  0  0  0  0  0  0  0  0  0
    4.6579  -13.3696   -8.7640 C   0  0  0  0  0  0  0  0  0  0  0  0
    4.2923  -14.7097   -8.8213 C   0  0  0  0  0  0  0  0  0  0  0  0
    3.8046  -15.4085   -7.7064 C   0  0  0  0  0  0  0  0  0  0  0  0
    3.3396  -16.6930   -7.7955 O   0  0  0  0  0  0  0  0  0  0  0  0
    3.8280  -17.5134   -8.8498 C   0  0  0  0  0  0  0  0  0  0  0  0
    3.7255  -14.7413   -6.4774 C   0  0  0  0  0  0  0  0  0  0  0  0
    3.2848  -15.2247   -5.2724 O   0  0  0  0  0  0  0  0  0  0  0  0
    2.7060  -16.5221   -5.2274 C   0  0  0  0  0  0  0  0  0  0  0  0
    4.1350  -13.3990   -6.4001 C   0  0  0  0  0  0  0  0  0  0  0  0
    4.5755  -12.6926   -7.5468 C   0  0  0  0  0  0  0  0  0  0  0  0
    5.3047   -8.6950   -5.1260 C   0  0  0  0  0  0  0  0  0  0  0  0
    9.8479   -8.9896   -3.6977 C   0  0  0  0  0  0  0  0  0  0  0  0
   11.0996   -9.3812   -3.2077 C   0  0  0  0  0  0  0  0  0  0  0  0
   14.2521   -9.3364   -0.1608 H   0  0  0  0  0  0  0  0  0  0  0  0
   12.6075   -9.2270    0.4806 H   0  0  0  0  0  0  0  0  0  0  0  0
   13.3790   -7.8104   -0.3334 H   0  0  0  0  0  0  0  0  0  0  0  0
   11.0872   -7.5903   -0.3147 H   0  0  0  0  0  0  0  0  0  0  0  0
    8.9497   -6.9178   -1.1525 H   0  0  0  0  0  0  0  0  0  0  0  0
    7.5761   -8.1528   -4.4043 H   0  0  0  0  0  0  0  0  0  0  0  0
    5.2976   -5.8414   -3.4550 H   0  0  0  0  0  0  0  0  0  0  0  0
    4.9663   -5.3687   -5.8087 H   0  0  0  0  0  0  0  0  0  0  0  0
    4.2778   -6.2993   -7.9855 H   0  0  0  0  0  0  0  0  0  0  0  0
    4.1703   -8.7181   -8.3372 H   0  0  0  0  0  0  0  0  0  0  0  0
    5.6584  -11.0026  -10.7534 H   0  0  0  0  0  0  0  0  0  0  0  0
    4.3578  -15.1882   -9.7934 H   0  0  0  0  0  0  0  0  0  0  0  0
    3.4010  -18.5122   -8.7142 H   0  0  0  0  0  0  0  0  0  0  0  0
    4.9175  -17.6022   -8.7982 H   0  0  0  0  0  0  0  0  0  0  0  0
    3.5017  -17.1562   -9.8311 H   0  0  0  0  0  0  0  0  0  0  0  0
    2.3556  -16.6952   -4.2054 H   0  0  0  0  0  0  0  0  0  0  0  0
    3.4499  -17.2944   -5.4471 H   0  0  0  0  0  0  0  0  0  0  0  0
    1.8312  -16.5933   -5.8822 H   0  0  0  0  0  0  0  0  0  0  0  0
    4.0833  -12.8922   -5.4388 H   0  0  0  0  0  0  0  0  0  0  0  0
    5.5345   -9.3690   -4.3026 H   0  0  0  0  0  0  0  0  0  0  0  0
    9.5163   -9.3862   -4.6542 H   0  0  0  0  0  0  0  0  0  0  0  0
   11.7125  -10.0716   -3.7827 H   0  0  0  0  0  0  0  0  0  0  0  0
  1  2  1  0  0  0  0
  1 34  1  0  0  0  0
  1 35  1  0  0  0  0
  1 36  1  0  0  0  0
  2  3  1  0  0  0  0
  3  4  1  0  0  0  0
  3 33  2  0  0  0  0
  4  5  2  0  0  0  0
  4 37  1  0  0  0  0
  5  6  1  0  0  0  0
  5 38  1  0  0  0  0
  6  7  1  0  0  0  0
  6 32  2  0  0  0  0
  7  8  1  0  0  0  0
  7 39  1  0  0  0  0
  8  9  2  0  0  0  0
  8 10  1  0  0  0  0
 10 11  1  0  0  0  0
 10 40  1  0  0  0  0
 11 12  1  0  0  0  0
 11 31  2  0  0  0  0
 12 13  2  0  0  0  0
 12 41  1  0  0  0  0
 13 14  1  0  0  0  0
 13 42  1  0  0  0  0
 14 15  2  0  0  0  0
 14 43  1  0  0  0  0
 15 16  1  0  0  0  0
 15 31  1  0  0  0  0
 16 17  1  0  0  0  0
 17 18  1  0  0  0  0
 17 30  2  0  0  0  0
 18 19  2  0  0  0  0
 19 20  1  0  0  0  0
 19 44  1  0  0  0  0
 20 21  2  0  0  0  0
 21 22  1  0  0  0  0
 21 30  1  0  0  0  0
 22 23  2  0  0  0  0
 22 45  1  0  0  0  0
 23 24  1  0  0  0  0
 23 26  1  0  0  0  0
 24 25  1  0  0  0  0
 25 46  1  0  0  0  0
 25 47  1  0  0  0  0
 25 48  1  0  0  0  0
 26 27  1  0  0  0  0
 26 29  2  0  0  0  0
 27 28  1  0  0  0  0
 28 49  1  0  0  0  0
 28 50  1  0  0  0  0
 28 51  1  0  0  0  0
 29 30  1  0  0  0  0
 29 52  1  0  0  0  0
 31 53  1  0  0  0  0
 32 33  1  0  0  0  0
 32 54  1  0  0  0  0
 33 55  1  0  0  0  0
M  END
$$$$
