CHEMBL1081090
 OpenBabel04072215353D

 58 62  0  0  0  0  0  0  0  0999 V2000
    1.3022   -0.5792    0.0301 C   0  0  0  0  0  0  0  0  0  0  0  0
    2.5731    0.0320   -0.1651 O   0  0  0  0  0  0  0  0  0  0  0  0
    3.1340    0.6382    0.9282 C   0  0  0  0  0  0  0  0  0  0  0  0
    2.5373    0.7433    2.1844 C   0  0  0  0  0  0  0  0  0  0  0  0
    3.2204    1.3684    3.2240 C   0  0  0  0  0  0  0  0  0  0  0  0
    4.5003    1.8741    3.0135 C   0  0  0  0  0  0  0  0  0  0  0  0
    5.1288    1.7583    1.7669 C   0  0  0  0  0  0  0  0  0  0  0  0
    6.4540    2.1921    1.5207 N   0  0  0  0  0  0  0  0  0  0  0  0
    7.3524    2.5494    2.5061 C   0  0  0  0  0  0  0  0  0  0  0  0
    7.1276    2.5746    3.7106 O   0  0  0  0  0  0  0  0  0  0  0  0
    8.7280    2.9279    2.1073 C   0  0  0  0  0  0  0  0  0  0  0  0
    9.0467    3.6141    0.9459 C   0  0  0  0  0  0  0  0  0  0  0  0
   10.3657    4.0353    0.7578 C   0  0  0  0  0  0  0  0  0  0  0  0
   11.3392    3.8578    1.7637 C   0  0  0  0  0  0  0  0  0  0  0  0
   12.7587    4.2778    1.4715 C   0  0  0  0  0  0  0  0  0  0  0  0
   10.9753    3.2692    2.9960 C   0  0  0  0  0  0  0  0  0  0  0  0
   11.8893    3.2149    4.0640 N   0  0  0  0  0  0  0  0  0  0  0  0
   11.6820    3.0578    5.4138 C   0  0  0  0  0  0  0  0  0  0  0  0
   12.4978    3.7140    6.2247 N   0  0  0  0  0  0  0  0  0  0  0  0
   13.3014    2.7130    6.7059 C   0  0  0  0  0  0  0  0  0  0  0  0
   14.5813    2.7943    7.2688 C   0  0  0  0  0  0  0  0  0  0  0  0
   15.2531    1.6037    7.5641 C   0  0  0  0  0  0  0  0  0  0  0  0
   14.6375    0.3645    7.3673 C   0  0  0  0  0  0  0  0  0  0  0  0
   13.3332    0.2679    6.8687 C   0  0  0  0  0  0  0  0  0  0  0  0
   12.7067    1.4653    6.5091 C   0  0  0  0  0  0  0  0  0  0  0  0
   11.4521    1.8058    6.0099 N   0  0  0  0  0  0  0  0  0  0  0  0
   10.2343    1.1135    6.2833 C   0  0  0  0  0  0  0  0  0  0  0  0
    9.0177    1.7775    6.2778 C   0  0  0  0  0  0  0  0  0  0  0  0
    7.8972    1.0225    6.5798 C   0  0  0  0  0  0  0  0  0  0  0  0
    6.6223    1.5635    6.5009 N   0  0  0  0  0  0  0  0  0  0  0  0
    7.9568   -0.2757    6.8793 N   0  0  0  0  0  0  0  0  0  0  0  0
    9.1760   -0.8215    6.8949 C   0  0  0  0  0  0  0  0  0  0  0  0
   10.3256   -0.1935    6.6238 N   0  0  0  0  0  0  0  0  0  0  0  0
    9.7150    2.7036    3.0750 C   0  0  0  0  0  0  0  0  0  0  0  0
    4.4157    1.1591    0.7197 C   0  0  0  0  0  0  0  0  0  0  0  0
    1.0448   -1.1191   -0.8852 H   0  0  0  0  0  0  0  0  0  0  0  0
    0.5314    0.1794    0.2034 H   0  0  0  0  0  0  0  0  0  0  0  0
    1.3255   -1.3109    0.8457 H   0  0  0  0  0  0  0  0  0  0  0  0
    1.5510    0.3486    2.3952 H   0  0  0  0  0  0  0  0  0  0  0  0
    2.7662    1.4542    4.2081 H   0  0  0  0  0  0  0  0  0  0  0  0
    4.9826    2.3544    3.8583 H   0  0  0  0  0  0  0  0  0  0  0  0
    6.7992    2.0966    0.5731 H   0  0  0  0  0  0  0  0  0  0  0  0
    8.2938    3.8532    0.2028 H   0  0  0  0  0  0  0  0  0  0  0  0
   10.6283    4.5424   -0.1689 H   0  0  0  0  0  0  0  0  0  0  0  0
   12.8341    4.8041    0.5144 H   0  0  0  0  0  0  0  0  0  0  0  0
   13.4004    3.3912    1.4126 H   0  0  0  0  0  0  0  0  0  0  0  0
   13.1453    4.9555    2.2383 H   0  0  0  0  0  0  0  0  0  0  0  0
   12.5929    3.9398    3.9429 H   0  0  0  0  0  0  0  0  0  0  0  0
   15.0556    3.7597    7.4054 H   0  0  0  0  0  0  0  0  0  0  0  0
   16.2718    1.6463    7.9408 H   0  0  0  0  0  0  0  0  0  0  0  0
   15.1820   -0.5468    7.6042 H   0  0  0  0  0  0  0  0  0  0  0  0
   12.8528   -0.6951    6.7287 H   0  0  0  0  0  0  0  0  0  0  0  0
    8.9192    2.8281    6.0383 H   0  0  0  0  0  0  0  0  0  0  0  0
    6.5073    2.4693    6.9314 H   0  0  0  0  0  0  0  0  0  0  0  0
    5.9340    0.8720    6.7745 H   0  0  0  0  0  0  0  0  0  0  0  0
    9.2372   -1.8763    7.1394 H   0  0  0  0  0  0  0  0  0  0  0  0
    9.4483    2.0971    3.9221 H   0  0  0  0  0  0  0  0  0  0  0  0
    4.8646    1.0638   -0.2657 H   0  0  0  0  0  0  0  0  0  0  0  0
  1  2  1  0  0  0  0
  1 36  1  0  0  0  0
  1 37  1  0  0  0  0
  1 38  1  0  0  0  0
  2  3  1  0  0  0  0
  3  4  1  0  0  0  0
  3 35  2  0  0  0  0
  4  5  2  0  0  0  0
  4 39  1  0  0  0  0
  5  6  1  0  0  0  0
  5 40  1  0  0  0  0
  6  7  2  0  0  0  0
  6 41  1  0  0  0  0
  7  8  1  0  0  0  0
  7 35  1  0  0  0  0
  8  9  1  0  0  0  0
  8 42  1  0  0  0  0
  9 10  2  0  0  0  0
  9 11  1  0  0  0  0
 11 12  1  0  0  0  0
 11 34  2  0  0  0  0
 12 13  2  0  0  0  0
 12 43  1  0  0  0  0
 13 14  1  0  0  0  0
 13 44  1  0  0  0  0
 14 15  1  0  0  0  0
 14 16  2  0  0  0  0
 15 45  1  0  0  0  0
 15 46  1  0  0  0  0
 15 47  1  0  0  0  0
 16 17  1  0  0  0  0
 16 34  1  0  0  0  0
 17 18  1  0  0  0  0
 17 48  1  0  0  0  0
 18 19  2  0  0  0  0
 18 26  1  0  0  0  0
 19 20  1  0  0  0  0
 20 21  1  0  0  0  0
 20 25  2  0  0  0  0
 21 22  2  0  0  0  0
 21 49  1  0  0  0  0
 22 23  1  0  0  0  0
 22 50  1  0  0  0  0
 23 24  2  0  0  0  0
 23 51  1  0  0  0  0
 24 25  1  0  0  0  0
 24 52  1  0  0  0  0
 25 26  1  0  0  0  0
 26 27  1  0  0  0  0
 27 28  1  0  0  0  0
 27 33  2  0  0  0  0
 28 29  2  0  0  0  0
 28 53  1  0  0  0  0
 29 30  1  0  0  0  0
 29 31  1  0  0  0  0
 30 54  1  0  0  0  0
 30 55  1  0  0  0  0
 31 32  2  0  0  0  0
 32 33  1  0  0  0  0
 32 56  1  0  0  0  0
 34 57  1  0  0  0  0
 35 58  1  0  0  0  0
M  END
$$$$
