CHEMBL2063323
 OpenBabel04072215363D

 71 75  0  0  0  0  0  0  0  0999 V2000
    2.4640   -0.4644   -0.0182 C   0  0  0  0  0  0  0  0  0  0  0  0
    1.0999    0.0003   -0.2609 N   0  0  0  0  0  0  0  0  0  0  0  0
    0.1928   -1.1476   -0.4917 C   0  0  0  0  0  0  0  0  0  0  0  0
   -1.2849   -0.7200   -0.6840 C   0  0  0  0  0  0  0  0  0  0  0  0
   -1.7064    0.0733    0.4816 N   0  0  0  0  0  0  0  0  0  0  0  0
   -2.9954    0.0491    0.9677 C   0  0  0  0  0  0  0  0  0  0  0  0
   -3.2426    0.3859    2.3108 C   0  0  0  0  0  0  0  0  0  0  0  0
   -4.5213    0.3108    2.8736 C   0  0  0  0  0  0  0  0  0  0  0  0
   -5.5921   -0.1123    2.0892 C   0  0  0  0  0  0  0  0  0  0  0  0
   -6.9702   -0.2153    2.6121 C   0  0  0  0  0  0  0  0  0  0  0  0
   -7.9304   -0.1595    1.8600 O   0  0  0  0  0  0  0  0  0  0  0  0
   -7.1394   -0.3928    4.0335 N   0  0  0  0  0  0  0  0  0  0  0  0
   -8.3903   -0.5363    4.6256 C   0  0  0  0  0  0  0  0  0  0  0  0
   -9.6033   -0.7531    4.0185 C   0  0  0  0  0  0  0  0  0  0  0  0
  -10.5675   -0.8268    5.0598 C   0  0  0  0  0  0  0  0  0  0  0  0
  -12.0106   -1.0519    4.9171 C   0  0  0  0  0  0  0  0  0  0  0  0
  -12.5723   -1.3298    3.6609 C   0  0  0  0  0  0  0  0  0  0  0  0
  -13.9454   -1.5412    3.5180 C   0  0  0  0  0  0  0  0  0  0  0  0
  -14.7944   -1.4679    4.6267 C   0  0  0  0  0  0  0  0  0  0  0  0
  -16.2734   -1.6798    4.4559 C   0  0  0  0  0  0  0  0  0  0  0  0
  -16.6422   -3.0633    4.6104 N   0  0  0  0  0  0  0  0  0  0  0  0
  -16.9039   -3.8766    3.5514 C   0  0  0  0  0  0  0  0  0  0  0  0
  -16.7535   -3.5708    2.3786 O   0  0  0  0  0  0  0  0  0  0  0  0
  -17.4333   -5.0367    4.0059 O   0  0  0  0  0  0  0  0  0  0  0  0
  -18.1180   -5.8225    3.0246 C   0  0  0  0  0  0  0  0  0  0  0  0
  -17.4160   -7.1299    2.7559 C   0  0  0  0  0  0  0  0  0  0  0  0
  -17.7182   -8.2736    3.5086 C   0  0  0  0  0  0  0  0  0  0  0  0
  -17.1323   -9.5022    3.1967 C   0  0  0  0  0  0  0  0  0  0  0  0
  -16.2308   -9.5970    2.1383 C   0  0  0  0  0  0  0  0  0  0  0  0
  -15.9010   -8.4604    1.4021 C   0  0  0  0  0  0  0  0  0  0  0  0
  -16.4846   -7.2307    1.7133 C   0  0  0  0  0  0  0  0  0  0  0  0
  -14.2398   -1.2058    5.8854 C   0  0  0  0  0  0  0  0  0  0  0  0
  -12.8626   -0.9980    6.0283 C   0  0  0  0  0  0  0  0  0  0  0  0
   -9.9694   -0.6616    6.2540 N   0  0  0  0  0  0  0  0  0  0  0  0
   -8.6683   -0.5118    5.9632 N   0  0  0  0  0  0  0  0  0  0  0  0
   -5.3747   -0.4342    0.7435 C   0  0  0  0  0  0  0  0  0  0  0  0
   -4.0903   -0.3580    0.1959 C   0  0  0  0  0  0  0  0  0  0  0  0
   -0.8523    1.2543    0.7090 C   0  0  0  0  0  0  0  0  0  0  0  0
    0.6120    0.7945    0.8894 C   0  0  0  0  0  0  0  0  0  0  0  0
    2.8371   -1.0230   -0.8829 H   0  0  0  0  0  0  0  0  0  0  0  0
    2.5328   -1.1089    0.8659 H   0  0  0  0  0  0  0  0  0  0  0  0
    3.1374    0.3878    0.1239 H   0  0  0  0  0  0  0  0  0  0  0  0
    0.2414   -1.8410    0.3599 H   0  0  0  0  0  0  0  0  0  0  0  0
    0.5129   -1.6999   -1.3831 H   0  0  0  0  0  0  0  0  0  0  0  0
   -1.8844   -1.6315   -0.7896 H   0  0  0  0  0  0  0  0  0  0  0  0
   -1.3952   -0.1311   -1.6037 H   0  0  0  0  0  0  0  0  0  0  0  0
   -2.4153    0.6737    2.9522 H   0  0  0  0  0  0  0  0  0  0  0  0
   -4.6355    0.6070    3.9104 H   0  0  0  0  0  0  0  0  0  0  0  0
   -6.3288   -0.4296    4.6338 H   0  0  0  0  0  0  0  0  0  0  0  0
   -9.7967   -0.8622    2.9639 H   0  0  0  0  0  0  0  0  0  0  0  0
  -11.9603   -1.3920    2.7648 H   0  0  0  0  0  0  0  0  0  0  0  0
  -14.3515   -1.7641    2.5318 H   0  0  0  0  0  0  0  0  0  0  0  0
  -16.5975   -1.3085    3.4766 H   0  0  0  0  0  0  0  0  0  0  0  0
  -16.8260   -1.1050    5.2078 H   0  0  0  0  0  0  0  0  0  0  0  0
  -16.8364   -3.4386    5.5277 H   0  0  0  0  0  0  0  0  0  0  0  0
  -18.2924   -5.2862    2.0846 H   0  0  0  0  0  0  0  0  0  0  0  0
  -19.1164   -6.0290    3.4274 H   0  0  0  0  0  0  0  0  0  0  0  0
  -18.4300   -8.2189    4.3294 H   0  0  0  0  0  0  0  0  0  0  0  0
  -17.3886  -10.3882    3.7717 H   0  0  0  0  0  0  0  0  0  0  0  0
  -15.7878  -10.5570    1.8857 H   0  0  0  0  0  0  0  0  0  0  0  0
  -15.1975   -8.5337    0.5766 H   0  0  0  0  0  0  0  0  0  0  0  0
  -16.2269   -6.3526    1.1233 H   0  0  0  0  0  0  0  0  0  0  0  0
  -14.8751   -1.1556    6.7669 H   0  0  0  0  0  0  0  0  0  0  0  0
  -12.4607   -0.7901    7.0178 H   0  0  0  0  0  0  0  0  0  0  0  0
   -8.0303   -0.3679    6.7367 H   0  0  0  0  0  0  0  0  0  0  0  0
   -6.2015   -0.7493    0.1060 H   0  0  0  0  0  0  0  0  0  0  0  0
   -3.9650   -0.6108   -0.8536 H   0  0  0  0  0  0  0  0  0  0  0  0
   -1.1482    1.8336    1.5901 H   0  0  0  0  0  0  0  0  0  0  0  0
   -0.9291    1.9313   -0.1526 H   0  0  0  0  0  0  0  0  0  0  0  0
    0.6798    0.2039    1.8140 H   0  0  0  0  0  0  0  0  0  0  0  0
    1.2409    1.6828    1.0182 H   0  0  0  0  0  0  0  0  0  0  0  0
  1  2  1  0  0  0  0
  1 40  1  0  0  0  0
  1 41  1  0  0  0  0
  1 42  1  0  0  0  0
  2  3  1  0  0  0  0
  2 39  1  0  0  0  0
  3  4  1  0  0  0  0
  3 43  1  0  0  0  0
  3 44  1  0  0  0  0
  4  5  1  0  0  0  0
  4 45  1  0  0  0  0
  4 46  1  0  0  0  0
  5  6  1  0  0  0  0
  5 38  1  0  0  0  0
  6  7  1  0  0  0  0
  6 37  2  0  0  0  0
  7  8  2  0  0  0  0
  7 47  1  0  0  0  0
  8  9  1  0  0  0  0
  8 48  1  0  0  0  0
  9 10  1  0  0  0  0
  9 36  2  0  0  0  0
 10 11  2  0  0  0  0
 10 12  1  0  0  0  0
 12 13  1  0  0  0  0
 12 49  1  0  0  0  0
 13 14  2  0  0  0  0
 13 35  1  0  0  0  0
 14 15  1  0  0  0  0
 14 50  1  0  0  0  0
 15 16  1  0  0  0  0
 15 34  2  0  0  0  0
 16 17  1  0  0  0  0
 16 33  2  0  0  0  0
 17 18  2  0  0  0  0
 17 51  1  0  0  0  0
 18 19  1  0  0  0  0
 18 52  1  0  0  0  0
 19 20  1  0  0  0  0
 19 32  2  0  0  0  0
 20 21  1  0  0  0  0
 20 53  1  0  0  0  0
 20 54  1  0  0  0  0
 21 22  1  0  0  0  0
 21 55  1  0  0  0  0
 22 23  2  0  0  0  0
 22 24  1  0  0  0  0
 24 25  1  0  0  0  0
 25 26  1  0  0  0  0
 25 56  1  0  0  0  0
 25 57  1  0  0  0  0
 26 27  1  0  0  0  0
 26 31  2  0  0  0  0
 27 28  2  0  0  0  0
 27 58  1  0  0  0  0
 28 29  1  0  0  0  0
 28 59  1  0  0  0  0
 29 30  2  0  0  0  0
 29 60  1  0  0  0  0
 30 31  1  0  0  0  0
 30 61  1  0  0  0  0
 31 62  1  0  0  0  0
 32 33  1  0  0  0  0
 32 63  1  0  0  0  0
 33 64  1  0  0  0  0
 34 35  1  0  0  0  0
 35 65  1  0  0  0  0
 36 37  1  0  0  0  0
 36 66  1  0  0  0  0
 37 67  1  0  0  0  0
 38 39  1  0  0  0  0
 38 68  1  0  0  0  0
 38 69  1  0  0  0  0
 39 70  1  0  0  0  0
 39 71  1  0  0  0  0
M  END
$$$$
