CHEMBL2349001
 OpenBabel04072215363D

 46 50  0  0  0  0  0  0  0  0999 V2000
    2.2922   -5.4553    4.6389 O   0  0  0  0  0  0  0  0  0  0  0  0
    3.2361   -4.8511    4.1283 C   0  0  0  0  0  0  0  0  0  0  0  0
    3.3818   -4.6585    2.7535 N   0  0  0  0  0  0  0  0  0  0  0  0
    2.4235   -5.0658    1.7832 C   0  0  0  0  0  0  0  0  0  0  0  0
    1.0898   -5.3187    2.1347 C   0  0  0  0  0  0  0  0  0  0  0  0
    0.1676   -5.7967    1.2057 C   0  0  0  0  0  0  0  0  0  0  0  0
    0.5583   -6.0132   -0.1065 C   0  0  0  0  0  0  0  0  0  0  0  0
    1.8738   -5.7405   -0.4831 C   0  0  0  0  0  0  0  0  0  0  0  0
    2.2641   -5.8786   -1.8388 O   0  0  0  0  0  0  0  0  0  0  0  0
    1.8278   -6.9795   -2.5790 C   0  0  0  0  0  0  0  0  0  0  0  0
    1.8283   -6.6140   -4.0167 C   0  0  0  0  0  0  0  0  0  0  0  0
    1.3760   -7.5416   -4.8725 C   0  0  0  0  0  0  0  0  0  0  0  0
    0.9659   -8.8002   -4.3764 C   0  0  0  0  0  0  0  0  0  0  0  0
    0.4907   -9.8645   -4.9865 N   0  0  0  0  0  0  0  0  0  0  0  0
    0.2696  -10.7844   -4.0021 C   0  0  0  0  0  0  0  0  0  0  0  0
   -0.2428  -12.0447   -4.2076 N   0  0  0  0  0  0  0  0  0  0  0  0
   -0.6165  -12.5535   -5.4320 C   0  0  0  0  0  0  0  0  0  0  0  0
   -0.5479  -12.0140   -6.5264 O   0  0  0  0  0  0  0  0  0  0  0  0
   -1.2051  -13.9308   -5.3244 C   0  0  0  0  0  0  0  0  0  0  0  0
   -1.5696  -14.7293   -6.5567 C   0  0  0  0  0  0  0  0  0  0  0  0
   -2.6547  -14.1372   -5.7068 C   0  0  0  0  0  0  0  0  0  0  0  0
    0.6189  -10.2780   -2.7710 C   0  0  0  0  0  0  0  0  0  0  0  0
    1.0572   -9.0025   -3.0098 N   0  0  0  0  0  0  0  0  0  0  0  0
    1.4767   -8.1138   -2.0618 N   0  0  0  0  0  0  0  0  0  0  0  0
    2.8026   -5.2287    0.4409 C   0  0  0  0  0  0  0  0  0  0  0  0
    4.2826   -4.3414    4.9777 C   0  0  0  0  0  0  0  0  0  0  0  0
    4.4449   -4.4687    6.3424 C   0  0  0  0  0  0  0  0  0  0  0  0
    5.6059   -3.7415    6.6288 C   0  0  0  0  0  0  0  0  0  0  0  0
    6.1397   -3.2056    5.5285 N   0  0  0  0  0  0  0  0  0  0  0  0
    5.3022   -3.5852    4.4832 O   0  0  0  0  0  0  0  0  0  0  0  0
    4.2846   -4.3353    2.4267 H   0  0  0  0  0  0  0  0  0  0  0  0
    0.7197   -5.1366    3.1394 H   0  0  0  0  0  0  0  0  0  0  0  0
   -0.8526   -6.0013    1.5181 H   0  0  0  0  0  0  0  0  0  0  0  0
   -0.1699   -6.3873   -0.8186 H   0  0  0  0  0  0  0  0  0  0  0  0
    2.1509   -5.6297   -4.3266 H   0  0  0  0  0  0  0  0  0  0  0  0
    1.3121   -7.3613   -5.9402 H   0  0  0  0  0  0  0  0  0  0  0  0
   -0.3720  -12.6149   -3.3861 H   0  0  0  0  0  0  0  0  0  0  0  0
   -0.8338  -14.5209   -4.4916 H   0  0  0  0  0  0  0  0  0  0  0  0
   -1.4337  -15.8043   -6.5290 H   0  0  0  0  0  0  0  0  0  0  0  0
   -1.3915  -14.2885   -7.5322 H   0  0  0  0  0  0  0  0  0  0  0  0
   -3.2534  -14.8086   -5.1035 H   0  0  0  0  0  0  0  0  0  0  0  0
   -3.2050  -13.2978   -6.1199 H   0  0  0  0  0  0  0  0  0  0  0  0
    0.5949  -10.6796   -1.7702 H   0  0  0  0  0  0  0  0  0  0  0  0
    3.8109   -5.0001    0.1102 H   0  0  0  0  0  0  0  0  0  0  0  0
    3.7961   -5.0082    7.0181 H   0  0  0  0  0  0  0  0  0  0  0  0
    6.0814   -3.5778    7.5874 H   0  0  0  0  0  0  0  0  0  0  0  0
  1  2  2  0  0  0  0
  2  3  1  0  0  0  0
  2 26  1  0  0  0  0
  3  4  1  0  0  0  0
  3 31  1  0  0  0  0
  4  5  1  0  0  0  0
  4 25  2  0  0  0  0
  5  6  2  0  0  0  0
  5 32  1  0  0  0  0
  6  7  1  0  0  0  0
  6 33  1  0  0  0  0
  7  8  2  0  0  0  0
  7 34  1  0  0  0  0
  8  9  1  0  0  0  0
  8 25  1  0  0  0  0
  9 10  1  0  0  0  0
 10 11  1  0  0  0  0
 10 24  2  0  0  0  0
 11 12  2  0  0  0  0
 11 35  1  0  0  0  0
 12 13  1  0  0  0  0
 12 36  1  0  0  0  0
 13 14  2  0  0  0  0
 13 23  1  0  0  0  0
 14 15  1  0  0  0  0
 15 16  1  0  0  0  0
 15 22  2  0  0  0  0
 16 17  1  0  0  0  0
 16 37  1  0  0  0  0
 17 18  2  0  0  0  0
 17 19  1  0  0  0  0
 19 20  1  0  0  0  0
 19 21  1  0  0  0  0
 19 38  1  0  0  0  0
 20 21  1  0  0  0  0
 20 39  1  0  0  0  0
 20 40  1  0  0  0  0
 21 41  1  0  0  0  0
 21 42  1  0  0  0  0
 22 23  1  0  0  0  0
 22 43  1  0  0  0  0
 23 24  1  0  0  0  0
 25 44  1  0  0  0  0
 26 27  2  0  0  0  0
 26 30  1  0  0  0  0
 27 28  1  0  0  0  0
 27 45  1  0  0  0  0
 28 29  2  0  0  0  0
 28 46  1  0  0  0  0
 29 30  1  0  0  0  0
M  END
$$$$
