CHEMBL516635
 OpenBabel04072215383D

 48 52  0  0  0  0  0  0  0  0999 V2000
    3.8445    0.8193   -4.6100 Cl  0  0  0  0  0  0  0  0  0  0  0  0
    2.8201    0.1957   -3.3739 C   0  0  0  0  0  0  0  0  0  0  0  0
    1.5279    0.6974   -3.2308 C   0  0  0  0  0  0  0  0  0  0  0  0
    0.6947    0.1798   -2.2414 C   0  0  0  0  0  0  0  0  0  0  0  0
    1.1494   -0.8450   -1.4067 C   0  0  0  0  0  0  0  0  0  0  0  0
    2.4591   -1.3544   -1.5526 C   0  0  0  0  0  0  0  0  0  0  0  0
    2.8978   -2.4194   -0.7288 N   0  0  0  0  0  0  0  0  0  0  0  0
    4.1409   -3.0293   -0.6582 C   0  0  0  0  0  0  0  0  0  0  0  0
    3.9862   -4.0530    0.2499 C   0  0  0  0  0  0  0  0  0  0  0  0
    4.9702   -4.9873    0.7980 C   0  0  0  0  0  0  0  0  0  0  0  0
    4.6884   -5.4153    2.1210 C   0  0  0  0  0  0  0  0  0  0  0  0
    5.5005   -6.3156    2.8008 C   0  0  0  0  0  0  0  0  0  0  0  0
    6.6222   -6.8166    2.1701 C   0  0  0  0  0  0  0  0  0  0  0  0
    6.9357   -6.3963    0.8760 C   0  0  0  0  0  0  0  0  0  0  0  0
    6.1468   -5.4671    0.1612 C   0  0  0  0  0  0  0  0  0  0  0  0
    6.5121   -5.1210   -1.1519 N   0  0  0  0  0  0  0  0  0  0  0  0
    7.9345   -4.9843   -1.5060 C   0  0  0  0  0  0  0  0  0  0  0  0
    8.7198   -6.1992   -1.9906 C   0  0  0  0  0  0  0  0  0  0  0  0
    8.1078   -7.3821   -2.4137 C   0  0  0  0  0  0  0  0  0  0  0  0
    8.9062   -8.4335   -2.8411 C   0  0  0  0  0  0  0  0  0  0  0  0
   10.2542   -8.3999   -2.8761 N   0  0  0  0  0  0  0  0  0  0  0  0
   10.8665   -7.2812   -2.4714 C   0  0  0  0  0  0  0  0  0  0  0  0
   12.2595   -7.2626   -2.4710 C   0  0  0  0  0  0  0  0  0  0  0  0
   12.9847   -6.1502   -2.0460 C   0  0  0  0  0  0  0  0  0  0  0  0
   12.3075   -5.0093   -1.6504 C   0  0  0  0  0  0  0  0  0  0  0  0
   10.9118   -4.9977   -1.6617 C   0  0  0  0  0  0  0  0  0  0  0  0
   10.1538   -6.1347   -2.0388 C   0  0  0  0  0  0  0  0  0  0  0  0
    2.6917   -4.0208    0.7179 N   0  0  0  0  0  0  0  0  0  0  0  0
    2.0539   -3.0176    0.1409 N   0  0  0  0  0  0  0  0  0  0  0  0
    3.2968   -0.8182   -2.5412 C   0  0  0  0  0  0  0  0  0  0  0  0
    1.1645    1.4833   -3.8877 H   0  0  0  0  0  0  0  0  0  0  0  0
   -0.3175    0.5658   -2.1233 H   0  0  0  0  0  0  0  0  0  0  0  0
    0.4744   -1.2316   -0.6466 H   0  0  0  0  0  0  0  0  0  0  0  0
    4.9976   -2.6783   -1.2075 H   0  0  0  0  0  0  0  0  0  0  0  0
    3.8115   -5.0313    2.6443 H   0  0  0  0  0  0  0  0  0  0  0  0
    5.2472   -6.6238    3.8111 H   0  0  0  0  0  0  0  0  0  0  0  0
    7.2587   -7.5375    2.6758 H   0  0  0  0  0  0  0  0  0  0  0  0
    7.8224   -6.8355    0.4295 H   0  0  0  0  0  0  0  0  0  0  0  0
    5.9105   -5.5158   -1.8672 H   0  0  0  0  0  0  0  0  0  0  0  0
    8.4457   -4.5604   -0.6325 H   0  0  0  0  0  0  0  0  0  0  0  0
    7.9928   -4.2326   -2.3020 H   0  0  0  0  0  0  0  0  0  0  0  0
    7.0305   -7.5150   -2.3984 H   0  0  0  0  0  0  0  0  0  0  0  0
    8.4724   -9.3747   -3.1729 H   0  0  0  0  0  0  0  0  0  0  0  0
   12.7977   -8.1516   -2.7983 H   0  0  0  0  0  0  0  0  0  0  0  0
   14.0709   -6.1788   -2.0284 H   0  0  0  0  0  0  0  0  0  0  0  0
   12.8570   -4.1302   -1.3242 H   0  0  0  0  0  0  0  0  0  0  0  0
   10.4250   -4.0739   -1.3572 H   0  0  0  0  0  0  0  0  0  0  0  0
    4.3035   -1.1849   -2.6895 H   0  0  0  0  0  0  0  0  0  0  0  0
  1  2  1  0  0  0  0
  2  3  1  0  0  0  0
  2 30  2  0  0  0  0
  3  4  2  0  0  0  0
  3 31  1  0  0  0  0
  4  5  1  0  0  0  0
  4 32  1  0  0  0  0
  5  6  2  0  0  0  0
  5 33  1  0  0  0  0
  6  7  1  0  0  0  0
  6 30  1  0  0  0  0
  7  8  1  0  0  0  0
  7 29  1  0  0  0  0
  8  9  2  0  0  0  0
  8 34  1  0  0  0  0
  9 10  1  0  0  0  0
  9 28  1  0  0  0  0
 10 11  1  0  0  0  0
 10 15  2  0  0  0  0
 11 12  2  0  0  0  0
 11 35  1  0  0  0  0
 12 13  1  0  0  0  0
 12 36  1  0  0  0  0
 13 14  2  0  0  0  0
 13 37  1  0  0  0  0
 14 15  1  0  0  0  0
 14 38  1  0  0  0  0
 15 16  1  0  0  0  0
 16 17  1  0  0  0  0
 16 39  1  0  0  0  0
 17 18  1  0  0  0  0
 17 40  1  0  0  0  0
 17 41  1  0  0  0  0
 18 19  1  0  0  0  0
 18 27  2  0  0  0  0
 19 20  2  0  0  0  0
 19 42  1  0  0  0  0
 20 21  1  0  0  0  0
 20 43  1  0  0  0  0
 21 22  2  0  0  0  0
 22 23  1  0  0  0  0
 22 27  1  0  0  0  0
 23 24  2  0  0  0  0
 23 44  1  0  0  0  0
 24 25  1  0  0  0  0
 24 45  1  0  0  0  0
 25 26  2  0  0  0  0
 25 46  1  0  0  0  0
 26 27  1  0  0  0  0
 26 47  1  0  0  0  0
 28 29  2  0  0  0  0
 30 48  1  0  0  0  0
M  END
$$$$
