CHEMBL1972365
 OpenBabel04072215363D

 26 28  0  0  0  0  0  0  0  0999 V2000
    1.2748    0.0159   -0.1838 N   0  0  0  0  0  0  0  0  0  0  0  0
    2.6449    0.0424   -0.0889 C   0  0  0  0  0  0  0  0  0  0  0  0
    3.2939    1.2271   -0.0195 C   0  0  0  0  0  0  0  0  0  0  0  0
    4.7038    1.2474    0.0273 C   0  0  0  0  0  0  0  0  0  0  0  0
    5.5866    2.2223    0.0610 N   0  0  0  0  0  0  0  0  0  0  0  0
    6.8232    1.6047    0.0253 C   0  0  0  0  0  0  0  0  0  0  0  0
    8.0790    2.3415   -0.0186 C   0  0  0  0  0  0  0  0  0  0  0  0
    8.0605    3.7426    0.0455 C   0  0  0  0  0  0  0  0  0  0  0  0
    9.2465    4.4796   -0.0244 C   0  0  0  0  0  0  0  0  0  0  0  0
   10.4679    3.8242   -0.1594 C   0  0  0  0  0  0  0  0  0  0  0  0
   10.5045    2.4335   -0.2204 C   0  0  0  0  0  0  0  0  0  0  0  0
    9.3187    1.6959   -0.1496 C   0  0  0  0  0  0  0  0  0  0  0  0
    6.6709    0.2318    0.0079 C   0  0  0  0  0  0  0  0  0  0  0  0
    5.3186    0.0244    0.0024 N   0  0  0  0  0  0  0  0  0  0  0  0
    4.6076   -1.1625   -0.0341 C   0  0  0  0  0  0  0  0  0  0  0  0
    3.3082   -1.1701   -0.0667 N   0  0  0  0  0  0  0  0  0  0  0  0
    0.8108    0.8038    0.2538 H   0  0  0  0  0  0  0  0  0  0  0  0
    0.9259   -0.8850    0.1321 H   0  0  0  0  0  0  0  0  0  0  0  0
    2.7669    2.1727   -0.0372 H   0  0  0  0  0  0  0  0  0  0  0  0
    7.1142    4.2715    0.1444 H   0  0  0  0  0  0  0  0  0  0  0  0
    9.2122    5.5650    0.0221 H   0  0  0  0  0  0  0  0  0  0  0  0
   11.3897    4.3968   -0.2213 H   0  0  0  0  0  0  0  0  0  0  0  0
   11.4559    1.9196   -0.3292 H   0  0  0  0  0  0  0  0  0  0  0  0
    9.3839    0.6139   -0.2079 H   0  0  0  0  0  0  0  0  0  0  0  0
    7.3743   -0.5878   -0.0234 H   0  0  0  0  0  0  0  0  0  0  0  0
    5.1698   -2.1100   -0.0325 H   0  0  0  0  0  0  0  0  0  0  0  0
  1  2  1  0  0  0  0
  1 17  1  0  0  0  0
  1 18  1  0  0  0  0
  2  3  2  0  0  0  0
  2 16  1  0  0  0  0
  3  4  1  0  0  0  0
  3 19  1  0  0  0  0
  4  5  2  0  0  0  0
  4 14  1  0  0  0  0
  5  6  1  0  0  0  0
  6  7  1  0  0  0  0
  6 13  2  0  0  0  0
  7  8  1  0  0  0  0
  7 12  2  0  0  0  0
  8  9  2  0  0  0  0
  8 20  1  0  0  0  0
  9 10  1  0  0  0  0
  9 21  1  0  0  0  0
 10 11  2  0  0  0  0
 10 22  1  0  0  0  0
 11 12  1  0  0  0  0
 11 23  1  0  0  0  0
 12 24  1  0  0  0  0
 13 14  1  0  0  0  0
 13 25  1  0  0  0  0
 14 15  1  0  0  0  0
 15 16  2  0  0  0  0
 15 26  1  0  0  0  0
M  END
$$$$
