CHEMBL397496
 OpenBabel04072215373D

 63 68  0  0  0  0  0  0  0  0999 V2000
   -3.1296   -9.4032    3.8478 C   0  0  0  0  0  0  0  0  0  0  0  0
   -2.1901   -8.3150    3.5899 N   0  0  0  0  0  0  0  0  0  0  0  0
   -1.8286   -8.2533    2.1632 C   0  0  0  0  0  0  0  0  0  0  0  0
   -0.9105   -7.0462    1.8435 C   0  0  0  0  0  0  0  0  0  0  0  0
   -1.4695   -5.7303    2.2325 N   0  0  0  0  0  0  0  0  0  0  0  0
   -2.5886   -5.3636    1.3417 C   0  0  0  0  0  0  0  0  0  0  0  0
   -3.1549   -3.9822    1.5932 C   0  0  0  0  0  0  0  0  0  0  0  0
   -4.2649   -3.8804    2.4541 C   0  0  0  0  0  0  0  0  0  0  0  0
   -4.8537   -2.6606    2.7937 C   0  0  0  0  0  0  0  0  0  0  0  0
   -6.0150   -2.5593    3.5879 N   0  0  0  0  0  0  0  0  0  0  0  0
   -6.7066   -3.6069    4.0944 C   0  0  0  0  0  0  0  0  0  0  0  0
   -6.2984   -4.8071    4.4417 N   0  0  0  0  0  0  0  0  0  0  0  0
   -7.4045   -5.4927    4.8569 C   0  0  0  0  0  0  0  0  0  0  0  0
   -7.5208   -6.8138    5.3208 C   0  0  0  0  0  0  0  0  0  0  0  0
   -8.7797   -7.2728    5.7182 C   0  0  0  0  0  0  0  0  0  0  0  0
   -8.8268   -8.5702    6.1998 O   0  0  0  0  0  0  0  0  0  0  0  0
   -9.6758   -8.8644    7.2545 C   0  0  0  0  0  0  0  0  0  0  0  0
   -9.9449   -7.9412    8.2637 C   0  0  0  0  0  0  0  0  0  0  0  0
  -10.8781   -8.2747    9.2152 C   0  0  0  0  0  0  0  0  0  0  0  0
  -11.5112   -9.4612    9.2583 N   0  0  0  0  0  0  0  0  0  0  0  0
  -11.1849  -10.3912    8.3463 C   0  0  0  0  0  0  0  0  0  0  0  0
  -11.7984  -11.6320    8.4327 C   0  0  0  0  0  0  0  0  0  0  0  0
  -11.4969  -12.6669    7.5472 C   0  0  0  0  0  0  0  0  0  0  0  0
  -10.5550  -12.4598    6.5465 C   0  0  0  0  0  0  0  0  0  0  0  0
   -9.9400  -11.2120    6.4239 C   0  0  0  0  0  0  0  0  0  0  0  0
  -10.2493  -10.1558    7.3153 C   0  0  0  0  0  0  0  0  0  0  0  0
   -9.9127   -6.4537    5.5858 C   0  0  0  0  0  0  0  0  0  0  0  0
   -9.8120   -5.1292    5.1286 C   0  0  0  0  0  0  0  0  0  0  0  0
   -8.5348   -4.6904    4.7787 C   0  0  0  0  0  0  0  0  0  0  0  0
   -8.0643   -3.4918    4.3013 N   0  0  0  0  0  0  0  0  0  0  0  0
   -4.2295   -1.4953    2.3395 C   0  0  0  0  0  0  0  0  0  0  0  0
   -3.1550   -1.5655    1.4439 C   0  0  0  0  0  0  0  0  0  0  0  0
   -2.6480   -2.8049    1.0388 C   0  0  0  0  0  0  0  0  0  0  0  0
   -1.4449   -2.8148   -0.1980 Cl  0  0  0  0  0  0  0  0  0  0  0  0
   -1.8402   -5.8225    3.6657 C   0  0  0  0  0  0  0  0  0  0  0  0
   -2.7452   -7.0230    4.0404 C   0  0  0  0  0  0  0  0  0  0  0  0
   -2.7099  -10.3608    3.5202 H   0  0  0  0  0  0  0  0  0  0  0  0
   -4.0869   -9.2556    3.3346 H   0  0  0  0  0  0  0  0  0  0  0  0
   -3.3250   -9.4955    4.9217 H   0  0  0  0  0  0  0  0  0  0  0  0
   -2.7295   -8.2076    1.5382 H   0  0  0  0  0  0  0  0  0  0  0  0
   -1.2955   -9.1701    1.8853 H   0  0  0  0  0  0  0  0  0  0  0  0
   -0.6523   -7.0481    0.7779 H   0  0  0  0  0  0  0  0  0  0  0  0
    0.0417   -7.1825    2.3745 H   0  0  0  0  0  0  0  0  0  0  0  0
   -3.4083   -6.0903    1.4036 H   0  0  0  0  0  0  0  0  0  0  0  0
   -2.2557   -5.4150    0.2982 H   0  0  0  0  0  0  0  0  0  0  0  0
   -4.6764   -4.8052    2.8469 H   0  0  0  0  0  0  0  0  0  0  0  0
   -6.4845   -1.6730    3.4529 H   0  0  0  0  0  0  0  0  0  0  0  0
   -6.6424   -7.4453    5.3809 H   0  0  0  0  0  0  0  0  0  0  0  0
   -9.4653   -6.9662    8.2975 H   0  0  0  0  0  0  0  0  0  0  0  0
  -11.1650   -7.5704    9.9885 H   0  0  0  0  0  0  0  0  0  0  0  0
  -12.5315  -11.7992    9.2193 H   0  0  0  0  0  0  0  0  0  0  0  0
  -11.9912  -13.6285    7.6494 H   0  0  0  0  0  0  0  0  0  0  0  0
  -10.2984  -13.2684    5.8667 H   0  0  0  0  0  0  0  0  0  0  0  0
   -9.1986  -11.0683    5.6393 H   0  0  0  0  0  0  0  0  0  0  0  0
  -10.8962   -6.8277    5.8595 H   0  0  0  0  0  0  0  0  0  0  0  0
  -10.6827   -4.4906    5.0623 H   0  0  0  0  0  0  0  0  0  0  0  0
   -8.6182   -2.6847    4.0806 H   0  0  0  0  0  0  0  0  0  0  0  0
   -4.5834   -0.5161    2.6525 H   0  0  0  0  0  0  0  0  0  0  0  0
   -2.7261   -0.6460    1.0526 H   0  0  0  0  0  0  0  0  0  0  0  0
   -2.2916   -4.8908    4.0219 H   0  0  0  0  0  0  0  0  0  0  0  0
   -0.9076   -5.9078    4.2416 H   0  0  0  0  0  0  0  0  0  0  0  0
   -3.7473   -6.8701    3.6220 H   0  0  0  0  0  0  0  0  0  0  0  0
   -2.8522   -7.0416    5.1319 H   0  0  0  0  0  0  0  0  0  0  0  0
  1  2  1  0  0  0  0
  1 37  1  0  0  0  0
  1 38  1  0  0  0  0
  1 39  1  0  0  0  0
  2  3  1  0  0  0  0
  2 36  1  0  0  0  0
  3  4  1  0  0  0  0
  3 40  1  0  0  0  0
  3 41  1  0  0  0  0
  4  5  1  0  0  0  0
  4 42  1  0  0  0  0
  4 43  1  0  0  0  0
  5  6  1  0  0  0  0
  5 35  1  0  0  0  0
  6  7  1  0  0  0  0
  6 44  1  0  0  0  0
  6 45  1  0  0  0  0
  7  8  1  0  0  0  0
  7 33  2  0  0  0  0
  8  9  2  0  0  0  0
  8 46  1  0  0  0  0
  9 10  1  0  0  0  0
  9 31  1  0  0  0  0
 10 11  1  0  0  0  0
 10 47  1  0  0  0  0
 11 12  2  0  0  0  0
 11 30  1  0  0  0  0
 12 13  1  0  0  0  0
 13 14  1  0  0  0  0
 13 29  2  0  0  0  0
 14 15  2  0  0  0  0
 14 48  1  0  0  0  0
 15 16  1  0  0  0  0
 15 27  1  0  0  0  0
 16 17  1  0  0  0  0
 17 18  1  0  0  0  0
 17 26  2  0  0  0  0
 18 19  2  0  0  0  0
 18 49  1  0  0  0  0
 19 20  1  0  0  0  0
 19 50  1  0  0  0  0
 20 21  2  0  0  0  0
 21 22  1  0  0  0  0
 21 26  1  0  0  0  0
 22 23  2  0  0  0  0
 22 51  1  0  0  0  0
 23 24  1  0  0  0  0
 23 52  1  0  0  0  0
 24 25  2  0  0  0  0
 24 53  1  0  0  0  0
 25 26  1  0  0  0  0
 25 54  1  0  0  0  0
 27 28  2  0  0  0  0
 27 55  1  0  0  0  0
 28 29  1  0  0  0  0
 28 56  1  0  0  0  0
 29 30  1  0  0  0  0
 30 57  1  0  0  0  0
 31 32  2  0  0  0  0
 31 58  1  0  0  0  0
 32 33  1  0  0  0  0
 32 59  1  0  0  0  0
 33 34  1  0  0  0  0
 35 36  1  0  0  0  0
 35 60  1  0  0  0  0
 35 61  1  0  0  0  0
 36 62  1  0  0  0  0
 36 63  1  0  0  0  0
M  END
$$$$
