CHEMBL3297999
 OpenBabel04072215363D

 44 46  0  0  0  0  0  0  0  0999 V2000
    1.7140   -0.6207   -0.6446 C   0  0  0  0  0  0  0  0  0  0  0  0
    2.3796    0.4168    0.0615 O   0  0  0  0  0  0  0  0  0  0  0  0
    2.9854    0.0688    1.2380 C   0  0  0  0  0  0  0  0  0  0  0  0
    3.0321   -1.2131    1.7931 C   0  0  0  0  0  0  0  0  0  0  0  0
    3.7472   -1.4448    2.9913 C   0  0  0  0  0  0  0  0  0  0  0  0
    4.4082   -0.4028    3.6645 C   0  0  0  0  0  0  0  0  0  0  0  0
    5.2563   -0.6291    4.7845 N   0  0  0  0  0  0  0  0  0  0  0  0
    6.4735    0.0630    5.0190 C   0  0  0  0  0  0  0  0  0  0  0  0
    6.9275    0.2350    6.2902 N   0  0  0  0  0  0  0  0  0  0  0  0
    8.0406    0.9569    6.5430 C   0  0  0  0  0  0  0  0  0  0  0  0
    8.3765    1.1735    7.9888 C   0  0  0  0  0  0  0  0  0  0  0  0
    8.8447    1.5254    5.6386 N   0  0  0  0  0  0  0  0  0  0  0  0
    8.4127    1.3139    4.3878 C   0  0  0  0  0  0  0  0  0  0  0  0
    9.0757    1.7867    3.2894 O   0  0  0  0  0  0  0  0  0  0  0  0
    8.3744    1.3873    2.1932 C   0  0  0  0  0  0  0  0  0  0  0  0
    8.8898    1.7433    0.8585 C   0  0  0  0  0  0  0  0  0  0  0  0
    7.2740    0.6625    2.5789 C   0  0  0  0  0  0  0  0  0  0  0  0
    7.2774    0.6138    4.0012 C   0  0  0  0  0  0  0  0  0  0  0  0
    4.8096   -1.6346    5.7960 C   0  0  0  0  0  0  0  0  0  0  0  0
    5.7820   -2.8143    5.9157 C   0  0  0  0  0  0  0  0  0  0  0  0
    4.5055   -1.0338    7.1728 C   0  0  0  0  0  0  0  0  0  0  0  0
    4.2672    0.8830    3.1249 C   0  0  0  0  0  0  0  0  0  0  0  0
    3.5995    1.1110    1.9106 C   0  0  0  0  0  0  0  0  0  0  0  0
    1.2680   -0.1806   -1.5417 H   0  0  0  0  0  0  0  0  0  0  0  0
    0.9031   -1.0470   -0.0443 H   0  0  0  0  0  0  0  0  0  0  0  0
    2.4180   -1.3948   -0.9669 H   0  0  0  0  0  0  0  0  0  0  0  0
    2.5591   -2.0607    1.3147 H   0  0  0  0  0  0  0  0  0  0  0  0
    3.8100   -2.4659    3.3409 H   0  0  0  0  0  0  0  0  0  0  0  0
    7.6554    0.6725    8.6404 H   0  0  0  0  0  0  0  0  0  0  0  0
    8.3563    2.2443    8.2163 H   0  0  0  0  0  0  0  0  0  0  0  0
    9.3748    0.7804    8.2109 H   0  0  0  0  0  0  0  0  0  0  0  0
    9.7923    2.3550    0.9128 H   0  0  0  0  0  0  0  0  0  0  0  0
    8.1297    2.2921    0.2914 H   0  0  0  0  0  0  0  0  0  0  0  0
    9.1225    0.8283    0.3031 H   0  0  0  0  0  0  0  0  0  0  0  0
    6.5502    0.2344    1.8996 H   0  0  0  0  0  0  0  0  0  0  0  0
    3.8500   -2.0677    5.4824 H   0  0  0  0  0  0  0  0  0  0  0  0
    6.7773   -2.5024    6.2434 H   0  0  0  0  0  0  0  0  0  0  0  0
    5.8884   -3.3347    4.9596 H   0  0  0  0  0  0  0  0  0  0  0  0
    5.4092   -3.5385    6.6489 H   0  0  0  0  0  0  0  0  0  0  0  0
    5.4050   -0.7844    7.7399 H   0  0  0  0  0  0  0  0  0  0  0  0
    3.9640   -1.7644    7.7856 H   0  0  0  0  0  0  0  0  0  0  0  0
    3.8858   -0.1359    7.0870 H   0  0  0  0  0  0  0  0  0  0  0  0
    4.7366    1.7379    3.6088 H   0  0  0  0  0  0  0  0  0  0  0  0
    3.5922    2.1122    1.4872 H   0  0  0  0  0  0  0  0  0  0  0  0
  1  2  1  0  0  0  0
  1 24  1  0  0  0  0
  1 25  1  0  0  0  0
  1 26  1  0  0  0  0
  2  3  1  0  0  0  0
  3  4  1  0  0  0  0
  3 23  2  0  0  0  0
  4  5  2  0  0  0  0
  4 27  1  0  0  0  0
  5  6  1  0  0  0  0
  5 28  1  0  0  0  0
  6  7  1  0  0  0  0
  6 22  2  0  0  0  0
  7  8  1  0  0  0  0
  7 19  1  0  0  0  0
  8  9  1  0  0  0  0
  8 18  2  0  0  0  0
  9 10  2  0  0  0  0
 10 11  1  0  0  0  0
 10 12  1  0  0  0  0
 11 29  1  0  0  0  0
 11 30  1  0  0  0  0
 11 31  1  0  0  0  0
 12 13  2  0  0  0  0
 13 14  1  0  0  0  0
 13 18  1  0  0  0  0
 14 15  1  0  0  0  0
 15 16  1  0  0  0  0
 15 17  2  0  0  0  0
 16 32  1  0  0  0  0
 16 33  1  0  0  0  0
 16 34  1  0  0  0  0
 17 18  1  0  0  0  0
 17 35  1  0  0  0  0
 19 20  1  0  0  0  0
 19 21  1  0  0  0  0
 19 36  1  0  0  0  0
 20 37  1  0  0  0  0
 20 38  1  0  0  0  0
 20 39  1  0  0  0  0
 21 40  1  0  0  0  0
 21 41  1  0  0  0  0
 21 42  1  0  0  0  0
 22 23  1  0  0  0  0
 22 43  1  0  0  0  0
 23 44  1  0  0  0  0
M  END
$$$$
