CHEMBL1253837
 OpenBabel04072215363D

 58 61  0  0  0  0  0  0  0  0999 V2000
    2.4794   -0.3693    1.3715 O   0  0  0  0  0  0  0  0  0  0  0  0
    2.1344   -0.3820    0.1985 C   0  0  0  0  0  0  0  0  0  0  0  0
    0.8171   -0.2546   -0.2262 N   0  0  0  0  0  0  0  0  0  0  0  0
   -0.3188   -0.1079    0.6085 C   0  0  0  0  0  0  0  0  0  0  0  0
   -0.2487    0.1694    1.9765 C   0  0  0  0  0  0  0  0  0  0  0  0
   -1.4062    0.2543    2.7546 C   0  0  0  0  0  0  0  0  0  0  0  0
   -2.6558    0.0747    2.1706 C   0  0  0  0  0  0  0  0  0  0  0  0
   -2.7587   -0.1765    0.7966 C   0  0  0  0  0  0  0  0  0  0  0  0
   -4.1050   -0.3624    0.1439 C   0  0  0  0  0  0  0  0  0  0  0  0
   -5.1544   -0.2390    1.0031 F   0  0  0  0  0  0  0  0  0  0  0  0
   -4.3280    0.5426   -0.8494 F   0  0  0  0  0  0  0  0  0  0  0  0
   -4.2376   -1.5886   -0.4340 F   0  0  0  0  0  0  0  0  0  0  0  0
   -1.5827   -0.2613    0.0238 C   0  0  0  0  0  0  0  0  0  0  0  0
    3.0005   -0.5505   -0.8717 N   0  0  0  0  0  0  0  0  0  0  0  0
    4.4012   -0.8138   -0.8010 C   0  0  0  0  0  0  0  0  0  0  0  0
    5.0712   -1.0273    0.4032 C   0  0  0  0  0  0  0  0  0  0  0  0
    6.4479   -1.2663    0.4282 C   0  0  0  0  0  0  0  0  0  0  0  0
    7.1942   -1.2565   -0.7517 C   0  0  0  0  0  0  0  0  0  0  0  0
    8.5684   -1.4237   -0.7427 O   0  0  0  0  0  0  0  0  0  0  0  0
    9.2727   -0.6377    0.1729 C   0  0  0  0  0  0  0  0  0  0  0  0
    8.7097    0.5219    0.5959 N   0  0  0  0  0  0  0  0  0  0  0  0
    9.3400    1.2444    1.5293 C   0  0  0  0  0  0  0  0  0  0  0  0
   10.5221    0.9901    2.0863 N   0  0  0  0  0  0  0  0  0  0  0  0
   11.1108   -0.1276    1.6141 C   0  0  0  0  0  0  0  0  0  0  0  0
   12.3777   -0.6372    1.9616 C   0  0  0  0  0  0  0  0  0  0  0  0
   12.5770   -1.7673    1.2056 C   0  0  0  0  0  0  0  0  0  0  0  0
   11.4368   -2.0006    0.4633 N   0  0  0  0  0  0  0  0  0  0  0  0
   11.3214   -3.1187   -0.4637 C   0  0  0  0  0  0  0  0  0  0  0  0
   11.6060   -4.4887    0.1629 C   0  0  0  0  0  0  0  0  0  0  0  0
   10.5885   -4.8823    1.0931 O   0  0  0  0  0  0  0  0  0  0  0  0
   10.9199   -6.1583    1.6698 C   0  0  0  0  0  0  0  0  0  0  0  0
    9.8613   -6.5801    2.6852 C   0  0  0  0  0  0  0  0  0  0  0  0
    8.5923   -6.7135    2.0499 O   0  0  0  0  0  0  0  0  0  0  0  0
   10.5337   -0.9738    0.6649 C   0  0  0  0  0  0  0  0  0  0  0  0
    6.5406   -1.1010   -1.9706 C   0  0  0  0  0  0  0  0  0  0  0  0
    5.1546   -0.8740   -1.9929 C   0  0  0  0  0  0  0  0  0  0  0  0
    4.3870   -0.6605   -3.5323 Cl  0  0  0  0  0  0  0  0  0  0  0  0
    0.6373   -0.4308   -1.2022 H   0  0  0  0  0  0  0  0  0  0  0  0
    0.6991    0.3322    2.4808 H   0  0  0  0  0  0  0  0  0  0  0  0
   -1.3229    0.4583    3.8199 H   0  0  0  0  0  0  0  0  0  0  0  0
   -3.5470    0.1346    2.7936 H   0  0  0  0  0  0  0  0  0  0  0  0
   -1.6728   -0.4699   -1.0410 H   0  0  0  0  0  0  0  0  0  0  0  0
    2.6426   -0.3956   -1.8022 H   0  0  0  0  0  0  0  0  0  0  0  0
    4.5645   -1.0050    1.3622 H   0  0  0  0  0  0  0  0  0  0  0  0
    6.9340   -1.4103    1.3906 H   0  0  0  0  0  0  0  0  0  0  0  0
    8.8220    2.1328    1.8757 H   0  0  0  0  0  0  0  0  0  0  0  0
   13.0725   -0.2041    2.6671 H   0  0  0  0  0  0  0  0  0  0  0  0
   13.4337   -2.4249    1.1519 H   0  0  0  0  0  0  0  0  0  0  0  0
   12.0609   -2.9248   -1.2517 H   0  0  0  0  0  0  0  0  0  0  0  0
   10.3288   -3.1072   -0.9143 H   0  0  0  0  0  0  0  0  0  0  0  0
   12.5771   -4.4932    0.6702 H   0  0  0  0  0  0  0  0  0  0  0  0
   11.6445   -5.2342   -0.6409 H   0  0  0  0  0  0  0  0  0  0  0  0
   11.8924   -6.0906    2.1696 H   0  0  0  0  0  0  0  0  0  0  0  0
   10.9715   -6.8988    0.8636 H   0  0  0  0  0  0  0  0  0  0  0  0
    9.7624   -5.8439    3.4871 H   0  0  0  0  0  0  0  0  0  0  0  0
   10.1261   -7.5475    3.1219 H   0  0  0  0  0  0  0  0  0  0  0  0
    8.4171   -5.8507    1.6334 H   0  0  0  0  0  0  0  0  0  0  0  0
    7.1075   -1.1304   -2.8981 H   0  0  0  0  0  0  0  0  0  0  0  0
  1  2  2  0  0  0  0
  2  3  1  0  0  0  0
  2 14  1  0  0  0  0
  3  4  1  0  0  0  0
  3 38  1  0  0  0  0
  4  5  1  0  0  0  0
  4 13  2  0  0  0  0
  5  6  2  0  0  0  0
  5 39  1  0  0  0  0
  6  7  1  0  0  0  0
  6 40  1  0  0  0  0
  7  8  2  0  0  0  0
  7 41  1  0  0  0  0
  8  9  1  0  0  0  0
  8 13  1  0  0  0  0
  9 10  1  0  0  0  0
  9 11  1  0  0  0  0
  9 12  1  0  0  0  0
 13 42  1  0  0  0  0
 14 15  1  0  0  0  0
 14 43  1  0  0  0  0
 15 16  1  0  0  0  0
 15 36  2  0  0  0  0
 16 17  2  0  0  0  0
 16 44  1  0  0  0  0
 17 18  1  0  0  0  0
 17 45  1  0  0  0  0
 18 19  1  0  0  0  0
 18 35  2  0  0  0  0
 19 20  1  0  0  0  0
 20 21  1  0  0  0  0
 20 34  2  0  0  0  0
 21 22  2  0  0  0  0
 22 23  1  0  0  0  0
 22 46  1  0  0  0  0
 23 24  2  0  0  0  0
 24 25  1  0  0  0  0
 24 34  1  0  0  0  0
 25 26  2  0  0  0  0
 25 47  1  0  0  0  0
 26 27  1  0  0  0  0
 26 48  1  0  0  0  0
 27 28  1  0  0  0  0
 27 34  1  0  0  0  0
 28 29  1  0  0  0  0
 28 49  1  0  0  0  0
 28 50  1  0  0  0  0
 29 30  1  0  0  0  0
 29 51  1  0  0  0  0
 29 52  1  0  0  0  0
 30 31  1  0  0  0  0
 31 32  1  0  0  0  0
 31 53  1  0  0  0  0
 31 54  1  0  0  0  0
 32 33  1  0  0  0  0
 32 55  1  0  0  0  0
 32 56  1  0  0  0  0
 33 57  1  0  0  0  0
 35 36  1  0  0  0  0
 35 58  1  0  0  0  0
 36 37  1  0  0  0  0
M  END
$$$$
