CHEMBL3128224
 OpenBabel04072215363D

 63 67  0  0  0  0  0  0  0  0999 V2000
   12.1147  -12.1480   -6.1647 C   0  0  0  0  0  0  0  0  0  0  0  0
   11.0785  -12.2984   -5.2033 O   0  0  0  0  0  0  0  0  0  0  0  0
   10.7556  -11.1983   -4.4602 C   0  0  0  0  0  0  0  0  0  0  0  0
   11.3825   -9.9491   -4.5194 C   0  0  0  0  0  0  0  0  0  0  0  0
   10.9541   -8.9023   -3.6916 C   0  0  0  0  0  0  0  0  0  0  0  0
    9.8877   -9.1072   -2.8097 C   0  0  0  0  0  0  0  0  0  0  0  0
    9.3843   -7.8186   -1.6889 S   0  0  0  0  0  0  0  0  0  0  0  0
    8.7627   -8.4390   -0.5361 O   0  0  0  0  0  0  0  0  0  0  0  0
   10.5095   -6.9173   -1.5308 O   0  0  0  0  0  0  0  0  0  0  0  0
    8.2273   -6.9642   -2.5381 N   0  0  0  0  0  0  0  0  0  0  0  0
    7.0340   -7.5702   -2.9910 C   0  0  0  0  0  0  0  0  0  0  0  0
    5.9386   -7.6885   -2.1403 C   0  0  0  0  0  0  0  0  0  0  0  0
    4.7488   -8.2429   -2.6170 C   0  0  0  0  0  0  0  0  0  0  0  0
    4.6505   -8.6557   -3.9490 C   0  0  0  0  0  0  0  0  0  0  0  0
    5.7352   -8.4959   -4.8245 C   0  0  0  0  0  0  0  0  0  0  0  0
    5.6142   -8.8524   -6.2898 C   0  0  0  0  0  0  0  0  0  0  0  0
    5.9612  -10.2457   -6.4914 N   0  0  0  0  0  0  0  0  0  0  0  0
    5.9309  -10.6776   -7.8197 C   0  0  0  0  0  0  0  0  0  0  0  0
    6.1673   -9.8078   -8.8325 N   0  0  0  0  0  0  0  0  0  0  0  0
    6.1530  -10.2623  -10.1015 C   0  0  0  0  0  0  0  0  0  0  0  0
    5.9088  -11.5101  -10.5314 N   0  0  0  0  0  0  0  0  0  0  0  0
    5.6824  -12.3543   -9.5076 C   0  0  0  0  0  0  0  0  0  0  0  0
    5.6796  -12.0146   -8.1645 C   0  0  0  0  0  0  0  0  0  0  0  0
    5.3920  -13.2236   -7.5022 C   0  0  0  0  0  0  0  0  0  0  0  0
    5.2164  -14.2496   -8.3402 N   0  0  0  0  0  0  0  0  0  0  0  0
    5.4230  -13.6992   -9.5645 N   0  0  0  0  0  0  0  0  0  0  0  0
    5.2812  -14.5503  -10.7338 C   0  0  0  0  0  0  0  0  0  0  0  0
    6.1612  -14.1836  -11.9267 C   0  0  0  0  0  0  0  0  0  0  0  0
    6.0012  -15.1541  -13.0720 C   0  0  0  0  0  0  0  0  0  0  0  0
    5.0428  -14.9191  -14.0683 C   0  0  0  0  0  0  0  0  0  0  0  0
    4.8973  -15.8089  -15.1331 C   0  0  0  0  0  0  0  0  0  0  0  0
    5.7025  -16.9433  -15.2083 C   0  0  0  0  0  0  0  0  0  0  0  0
    6.6516  -17.1905  -14.2177 C   0  0  0  0  0  0  0  0  0  0  0  0
    6.8001  -16.3014  -13.1519 C   0  0  0  0  0  0  0  0  0  0  0  0
    6.9373   -7.9714   -4.3240 C   0  0  0  0  0  0  0  0  0  0  0  0
    9.2685  -10.3546   -2.7337 C   0  0  0  0  0  0  0  0  0  0  0  0
    9.7022  -11.3902   -3.5637 C   0  0  0  0  0  0  0  0  0  0  0  0
   12.2062  -13.0932   -6.7091 H   0  0  0  0  0  0  0  0  0  0  0  0
   13.0749  -11.9489   -5.6775 H   0  0  0  0  0  0  0  0  0  0  0  0
   11.8706  -11.3682   -6.8934 H   0  0  0  0  0  0  0  0  0  0  0  0
   12.2162   -9.7640   -5.1898 H   0  0  0  0  0  0  0  0  0  0  0  0
   11.4642   -7.9446   -3.7337 H   0  0  0  0  0  0  0  0  0  0  0  0
    8.4769   -6.0271   -2.8435 H   0  0  0  0  0  0  0  0  0  0  0  0
    5.9976   -7.3413   -1.1113 H   0  0  0  0  0  0  0  0  0  0  0  0
    3.8915   -8.3369   -1.9540 H   0  0  0  0  0  0  0  0  0  0  0  0
    3.7136   -9.0795   -4.3050 H   0  0  0  0  0  0  0  0  0  0  0  0
    6.2690   -8.1850   -6.8648 H   0  0  0  0  0  0  0  0  0  0  0  0
    4.5853   -8.6589   -6.6203 H   0  0  0  0  0  0  0  0  0  0  0  0
    5.4940  -10.8829   -5.8578 H   0  0  0  0  0  0  0  0  0  0  0  0
    6.3677   -9.5271  -10.8718 H   0  0  0  0  0  0  0  0  0  0  0  0
    5.2942  -13.3970   -6.4386 H   0  0  0  0  0  0  0  0  0  0  0  0
    4.2181  -14.5348  -11.0021 H   0  0  0  0  0  0  0  0  0  0  0  0
    5.5204  -15.5713  -10.4066 H   0  0  0  0  0  0  0  0  0  0  0  0
    7.2159  -14.1411  -11.6254 H   0  0  0  0  0  0  0  0  0  0  0  0
    5.9146  -13.1850  -12.3033 H   0  0  0  0  0  0  0  0  0  0  0  0
    4.4098  -14.0352  -14.0269 H   0  0  0  0  0  0  0  0  0  0  0  0
    4.1583  -15.6145  -15.9062 H   0  0  0  0  0  0  0  0  0  0  0  0
    5.5914  -17.6344  -16.0396 H   0  0  0  0  0  0  0  0  0  0  0  0
    7.2798  -18.0754  -14.2774 H   0  0  0  0  0  0  0  0  0  0  0  0
    7.5486  -16.5068  -12.3898 H   0  0  0  0  0  0  0  0  0  0  0  0
    7.7938   -7.8670   -4.9858 H   0  0  0  0  0  0  0  0  0  0  0  0
    8.4538  -10.5325   -2.0319 H   0  0  0  0  0  0  0  0  0  0  0  0
    9.2207  -12.3652   -3.5015 H   0  0  0  0  0  0  0  0  0  0  0  0
  1  2  1  0  0  0  0
  1 38  1  0  0  0  0
  1 39  1  0  0  0  0
  1 40  1  0  0  0  0
  2  3  1  0  0  0  0
  3  4  1  0  0  0  0
  3 37  2  0  0  0  0
  4  5  2  0  0  0  0
  4 41  1  0  0  0  0
  5  6  1  0  0  0  0
  5 42  1  0  0  0  0
  6  7  1  0  0  0  0
  6 36  2  0  0  0  0
  7  8  2  0  0  0  0
  7  9  2  0  0  0  0
  7 10  1  0  0  0  0
 10 11  1  0  0  0  0
 10 43  1  0  0  0  0
 11 12  1  0  0  0  0
 11 35  2  0  0  0  0
 12 13  2  0  0  0  0
 12 44  1  0  0  0  0
 13 14  1  0  0  0  0
 13 45  1  0  0  0  0
 14 15  2  0  0  0  0
 14 46  1  0  0  0  0
 15 16  1  0  0  0  0
 15 35  1  0  0  0  0
 16 17  1  0  0  0  0
 16 47  1  0  0  0  0
 16 48  1  0  0  0  0
 17 18  1  0  0  0  0
 17 49  1  0  0  0  0
 18 19  1  0  0  0  0
 18 23  2  0  0  0  0
 19 20  2  0  0  0  0
 20 21  1  0  0  0  0
 20 50  1  0  0  0  0
 21 22  2  0  0  0  0
 22 23  1  0  0  0  0
 22 26  1  0  0  0  0
 23 24  1  0  0  0  0
 24 25  2  0  0  0  0
 24 51  1  0  0  0  0
 25 26  1  0  0  0  0
 26 27  1  0  0  0  0
 27 28  1  0  0  0  0
 27 52  1  0  0  0  0
 27 53  1  0  0  0  0
 28 29  1  0  0  0  0
 28 54  1  0  0  0  0
 28 55  1  0  0  0  0
 29 30  1  0  0  0  0
 29 34  2  0  0  0  0
 30 31  2  0  0  0  0
 30 56  1  0  0  0  0
 31 32  1  0  0  0  0
 31 57  1  0  0  0  0
 32 33  2  0  0  0  0
 32 58  1  0  0  0  0
 33 34  1  0  0  0  0
 33 59  1  0  0  0  0
 34 60  1  0  0  0  0
 35 61  1  0  0  0  0
 36 37  1  0  0  0  0
 36 62  1  0  0  0  0
 37 63  1  0  0  0  0
M  END
$$$$
