CHEMBL3814311
 OpenBabel04072215373D

 52 55  0  0  0  0  0  0  0  0999 V2000
   -6.0383   -0.3729    0.5897 N   0  0  0  0  0  0  0  0  0  0  0  0
   -4.9813    0.5232    0.7289 C   0  0  0  0  0  0  0  0  0  0  0  0
   -4.5553    0.6914    1.9941 N   0  0  0  0  0  0  0  0  0  0  0  0
   -3.4571    1.4397    2.1612 C   0  0  0  0  0  0  0  0  0  0  0  0
   -2.7602    2.0346    1.1980 N   0  0  0  0  0  0  0  0  0  0  0  0
   -3.2559    1.9046   -0.0493 C   0  0  0  0  0  0  0  0  0  0  0  0
   -2.6224    2.5948   -1.0726 O   0  0  0  0  0  0  0  0  0  0  0  0
   -1.9278    3.7449   -0.7633 C   0  0  0  0  0  0  0  0  0  0  0  0
   -0.7464    3.9465   -1.4706 C   0  0  0  0  0  0  0  0  0  0  0  0
   -0.0317    5.1390   -1.3206 C   0  0  0  0  0  0  0  0  0  0  0  0
   -0.4853    6.1571   -0.4737 C   0  0  0  0  0  0  0  0  0  0  0  0
    0.1533    7.4180   -0.3967 N   0  0  0  0  0  0  0  0  0  0  0  0
    1.0025    7.9237   -1.3673 C   0  0  0  0  0  0  0  0  0  0  0  0
    1.3248    7.3842   -2.4185 O   0  0  0  0  0  0  0  0  0  0  0  0
    1.5938    9.2651   -1.0817 C   0  0  0  0  0  0  0  0  0  0  0  0
    2.8560    9.2381   -0.2759 C   0  0  0  0  0  0  0  0  0  0  0  0
    2.8260    9.6728    0.8662 O   0  0  0  0  0  0  0  0  0  0  0  0
    3.9290    8.6934   -0.9536 N   0  0  0  0  0  0  0  0  0  0  0  0
    5.2619    8.6141   -0.5046 C   0  0  0  0  0  0  0  0  0  0  0  0
    5.6866    9.1099    0.7321 C   0  0  0  0  0  0  0  0  0  0  0  0
    7.0366    9.0720    1.0884 C   0  0  0  0  0  0  0  0  0  0  0  0
    7.9622    8.5302    0.2091 C   0  0  0  0  0  0  0  0  0  0  0  0
    9.2601    8.5218    0.5390 F   0  0  0  0  0  0  0  0  0  0  0  0
    7.5593    8.0027   -1.0110 C   0  0  0  0  0  0  0  0  0  0  0  0
    6.2074    8.0406   -1.3671 C   0  0  0  0  0  0  0  0  0  0  0  0
    0.7055   10.5041   -0.9973 C   0  0  0  0  0  0  0  0  0  0  0  0
    1.5241   10.2866   -2.2277 C   0  0  0  0  0  0  0  0  0  0  0  0
   -1.6327    5.9285    0.2883 C   0  0  0  0  0  0  0  0  0  0  0  0
   -2.3654    4.7475    0.1088 C   0  0  0  0  0  0  0  0  0  0  0  0
   -3.5360    4.6334    0.7553 F   0  0  0  0  0  0  0  0  0  0  0  0
   -4.3398    1.1033   -0.3558 C   0  0  0  0  0  0  0  0  0  0  0  0
   -4.7731    0.8756   -1.7441 C   0  0  0  0  0  0  0  0  0  0  0  0
   -5.9973    0.5547   -2.0374 N   0  0  0  0  0  0  0  0  0  0  0  0
   -6.1062    0.3572   -3.4181 O   0  0  0  0  0  0  0  0  0  0  0  0
   -6.4515   -0.5556    1.4974 H   0  0  0  0  0  0  0  0  0  0  0  0
   -6.6986   -0.0757   -0.1281 H   0  0  0  0  0  0  0  0  0  0  0  0
   -3.1006    1.5622    3.1823 H   0  0  0  0  0  0  0  0  0  0  0  0
   -0.3783    3.1899   -2.1585 H   0  0  0  0  0  0  0  0  0  0  0  0
    0.8900    5.2426   -1.8858 H   0  0  0  0  0  0  0  0  0  0  0  0
   -0.1108    8.0361    0.3646 H   0  0  0  0  0  0  0  0  0  0  0  0
    3.7368    8.3235   -1.8808 H   0  0  0  0  0  0  0  0  0  0  0  0
    4.9927    9.5429    1.4448 H   0  0  0  0  0  0  0  0  0  0  0  0
    7.3636    9.4744    2.0412 H   0  0  0  0  0  0  0  0  0  0  0  0
    8.3000    7.5753   -1.6794 H   0  0  0  0  0  0  0  0  0  0  0  0
    5.9111    7.6269   -2.3281 H   0  0  0  0  0  0  0  0  0  0  0  0
    1.0106   11.3154   -0.3423 H   0  0  0  0  0  0  0  0  0  0  0  0
   -0.3686   10.3936   -1.0821 H   0  0  0  0  0  0  0  0  0  0  0  0
    2.3808   10.9286   -2.3999 H   0  0  0  0  0  0  0  0  0  0  0  0
    1.0037   10.0048   -3.1383 H   0  0  0  0  0  0  0  0  0  0  0  0
   -2.0205    6.6737    0.9757 H   0  0  0  0  0  0  0  0  0  0  0  0
   -4.0128    0.9773   -2.5400 H   0  0  0  0  0  0  0  0  0  0  0  0
   -7.0398    0.0903   -3.5217 H   0  0  0  0  0  0  0  0  0  0  0  0
  1  2  1  0  0  0  0
  1 35  1  0  0  0  0
  1 36  1  0  0  0  0
  2  3  1  0  0  0  0
  2 31  2  0  0  0  0
  3  4  2  0  0  0  0
  4  5  1  0  0  0  0
  4 37  1  0  0  0  0
  5  6  2  0  0  0  0
  6  7  1  0  0  0  0
  6 31  1  0  0  0  0
  7  8  1  0  0  0  0
  8  9  1  0  0  0  0
  8 29  2  0  0  0  0
  9 10  2  0  0  0  0
  9 38  1  0  0  0  0
 10 11  1  0  0  0  0
 10 39  1  0  0  0  0
 11 12  1  0  0  0  0
 11 28  2  0  0  0  0
 12 13  1  0  0  0  0
 12 40  1  0  0  0  0
 13 14  2  0  0  0  0
 13 15  1  0  0  0  0
 15 16  1  0  0  0  0
 15 26  1  0  0  0  0
 15 27  1  0  0  0  0
 16 17  2  0  0  0  0
 16 18  1  0  0  0  0
 18 19  1  0  0  0  0
 18 41  1  0  0  0  0
 19 20  1  0  0  0  0
 19 25  2  0  0  0  0
 20 21  2  0  0  0  0
 20 42  1  0  0  0  0
 21 22  1  0  0  0  0
 21 43  1  0  0  0  0
 22 23  1  0  0  0  0
 22 24  2  0  0  0  0
 24 25  1  0  0  0  0
 24 44  1  0  0  0  0
 25 45  1  0  0  0  0
 26 27  1  0  0  0  0
 26 46  1  0  0  0  0
 26 47  1  0  0  0  0
 27 48  1  0  0  0  0
 27 49  1  0  0  0  0
 28 29  1  0  0  0  0
 28 50  1  0  0  0  0
 29 30  1  0  0  0  0
 31 32  1  0  0  0  0
 32 33  2  0  0  0  0
 32 51  1  0  0  0  0
 33 34  1  0  0  0  0
 34 52  1  0  0  0  0
M  END
$$$$
