CHEMBL410186
 OpenBabel04072215383D

 49 52  0  0  1  0  0  0  0  0999 V2000
    1.6417    1.1575   -0.7493 C   0  0  0  0  0  0  0  0  0  0  0  0
    3.0520    0.9795   -0.7101 O   0  0  0  0  0  0  0  0  0  0  0  0
    3.5536   -0.0049   -1.5181 C   0  0  0  0  0  0  0  0  0  0  0  0
    2.9583   -0.4608   -2.7105 C   0  0  0  0  0  0  0  0  0  0  0  0
    3.5582   -1.4691   -3.4822 C   0  0  0  0  0  0  0  0  0  0  0  0
    4.7517   -2.0074   -3.0376 C   0  0  0  0  0  0  0  0  0  0  0  0
    5.3374   -1.5304   -1.8605 C   0  0  0  0  0  0  0  0  0  0  0  0
    4.7729   -0.5351   -1.0938 C   0  0  0  0  0  0  0  0  0  0  0  0
    6.5280   -2.1965   -1.5937 N   0  0  0  0  0  0  0  0  0  0  0  0
    6.8045   -3.1504   -2.5589 C   0  0  0  0  0  0  0  0  0  0  0  0
    7.7549   -3.9072   -2.5553 O   0  0  0  0  0  0  0  0  0  0  0  0
    5.6658   -3.0412   -3.5489 C   0  0  0  0  0  0  0  0  0  0  0  0
    5.5162   -3.7269   -4.6905 C   0  0  0  0  0  0  0  0  0  0  0  0
    6.5117   -4.6063   -5.1657 C   0  0  0  0  0  0  0  0  0  0  0  0
    7.6778   -4.3884   -5.8665 C   0  0  0  0  0  0  0  0  0  0  0  0
    8.3132   -5.6386   -6.0781 C   0  0  0  0  0  0  0  0  0  0  0  0
    7.5490   -6.5684   -5.3976 C   0  0  0  0  0  0  0  0  0  0  0  0
    6.4423   -5.9456   -4.8784 N   0  0  0  0  0  0  0  0  0  0  0  0
    7.8892   -7.9998   -5.1855 C   0  0  0  0  0  0  0  0  0  0  0  0
    9.3974   -8.1964   -5.4114 C   0  0  0  0  0  0  0  0  0  0  0  0
    9.8701   -7.5171   -6.7097 C   0  0  0  0  0  0  0  0  0  0  0  0
    9.6348   -5.9737   -6.7270 C   0  0  3  0  0  0  0  0  0  0  0  0
    9.7874   -5.4679   -8.1811 C   0  0  0  0  0  0  0  0  0  0  0  0
    9.6646   -3.9527   -8.3380 C   0  0  0  0  0  0  0  0  0  0  0  0
    9.9111   -3.4644   -9.7426 C   0  0  0  0  0  0  0  0  0  0  0  0
   10.2146   -4.1582  -10.6980 O   0  0  0  0  0  0  0  0  0  0  0  0
    9.7262   -2.1239   -9.8442 O   0  0  0  0  0  0  0  0  0  0  0  0
    1.3729    1.8531    0.0515 H   0  0  0  0  0  0  0  0  0  0  0  0
    1.1186    0.2133   -0.5629 H   0  0  0  0  0  0  0  0  0  0  0  0
    1.3258    1.6048   -1.6963 H   0  0  0  0  0  0  0  0  0  0  0  0
    2.0290   -0.0289   -3.0702 H   0  0  0  0  0  0  0  0  0  0  0  0
    3.0947   -1.8004   -4.4035 H   0  0  0  0  0  0  0  0  0  0  0  0
    5.2470   -0.1795   -0.1863 H   0  0  0  0  0  0  0  0  0  0  0  0
    7.1250   -2.0464   -0.7963 H   0  0  0  0  0  0  0  0  0  0  0  0
    4.6636   -3.5484   -5.3399 H   0  0  0  0  0  0  0  0  0  0  0  0
    8.0289   -3.4078   -6.1506 H   0  0  0  0  0  0  0  0  0  0  0  0
    5.7395   -6.3876   -4.3026 H   0  0  0  0  0  0  0  0  0  0  0  0
    7.3225   -8.6163   -5.8925 H   0  0  0  0  0  0  0  0  0  0  0  0
    7.6233   -8.3209   -4.1723 H   0  0  0  0  0  0  0  0  0  0  0  0
    9.6219   -9.2687   -5.4479 H   0  0  0  0  0  0  0  0  0  0  0  0
    9.9583   -7.7807   -4.5643 H   0  0  0  0  0  0  0  0  0  0  0  0
    9.3410   -7.9851   -7.5508 H   0  0  0  0  0  0  0  0  0  0  0  0
   10.9375   -7.7217   -6.8592 H   0  0  0  0  0  0  0  0  0  0  0  0
   10.4204   -5.5135   -6.1113 H   0  0  0  0  0  0  0  0  0  0  0  0
    9.0442   -5.9543   -8.8264 H   0  0  0  0  0  0  0  0  0  0  0  0
   10.7711   -5.7806   -8.5575 H   0  0  0  0  0  0  0  0  0  0  0  0
   10.3672   -3.4466   -7.6676 H   0  0  0  0  0  0  0  0  0  0  0  0
    8.6426   -3.6434   -8.1163 H   0  0  0  0  0  0  0  0  0  0  0  0
    9.4623   -1.7035   -9.0032 H   0  0  0  0  0  0  0  0  0  0  0  0
  1  2  1  0  0  0  0
  1 28  1  0  0  0  0
  1 29  1  0  0  0  0
  1 30  1  0  0  0  0
  2  3  1  0  0  0  0
  3  4  1  0  0  0  0
  3  8  2  0  0  0  0
  4  5  2  0  0  0  0
  4 31  1  0  0  0  0
  5  6  1  0  0  0  0
  5 32  1  0  0  0  0
  6  7  2  0  0  0  0
  6 12  1  0  0  0  0
  7  8  1  0  0  0  0
  7  9  1  0  0  0  0
  8 33  1  0  0  0  0
  9 10  1  0  0  0  0
  9 34  1  0  0  0  0
 10 11  2  0  0  0  0
 10 12  1  0  0  0  0
 12 13  2  0  0  0  0
 13 14  1  0  0  0  0
 13 35  1  0  0  0  0
 14 15  2  0  0  0  0
 14 18  1  0  0  0  0
 15 16  1  0  0  0  0
 15 36  1  0  0  0  0
 16 17  2  0  0  0  0
 16 22  1  0  0  0  0
 17 18  1  0  0  0  0
 17 19  1  0  0  0  0
 18 37  1  0  0  0  0
 19 20  1  0  0  0  0
 19 38  1  0  0  0  0
 19 39  1  0  0  0  0
 20 21  1  0  0  0  0
 20 40  1  0  0  0  0
 20 41  1  0  0  0  0
 21 22  1  0  0  0  0
 21 42  1  0  0  0  0
 21 43  1  0  0  0  0
 22 23  1  0  0  0  0
 22 44  1  0  0  0  0
 23 24  1  0  0  0  0
 23 45  1  0  0  0  0
 23 46  1  0  0  0  0
 24 25  1  0  0  0  0
 24 47  1  0  0  0  0
 24 48  1  0  0  0  0
 25 26  2  0  0  0  0
 25 27  1  0  0  0  0
 27 49  1  0  0  0  0
M  END
$$$$
