CHEMBL3893008
 OpenBabel04072215373D

 60 63  0  0  0  0  0  0  0  0999 V2000
    0.5353    2.5256    3.2510 C   0  0  0  0  0  0  0  0  0  0  0  0
    1.9215    2.8633    3.3430 O   0  0  0  0  0  0  0  0  0  0  0  0
    2.8173    2.0503    2.6845 C   0  0  0  0  0  0  0  0  0  0  0  0
    2.4586    0.8912    1.9928 C   0  0  0  0  0  0  0  0  0  0  0  0
    3.4334    0.1765    1.3026 C   0  0  0  0  0  0  0  0  0  0  0  0
    3.2152   -0.9450    0.5462 O   0  0  0  0  0  0  0  0  0  0  0  0
    1.8888   -1.4602    0.5110 C   0  0  0  0  0  0  0  0  0  0  0  0
    4.7655    0.6201    1.3137 C   0  0  0  0  0  0  0  0  0  0  0  0
    5.1679    1.7815    1.9888 C   0  0  0  0  0  0  0  0  0  0  0  0
    6.4530    2.3664    1.8160 N   0  0  0  0  0  0  0  0  0  0  0  0
    7.0608    2.1960    0.4376 C   0  0  0  0  0  0  0  0  0  0  0  0
    6.2399    2.6482   -0.7790 C   0  0  0  0  0  0  0  0  0  0  0  0
    6.0933    4.1552   -1.0064 C   0  0  0  0  0  0  0  0  0  0  0  0
    7.3562    4.7796   -1.1747 O   0  0  0  0  0  0  0  0  0  0  0  0
    7.5571    2.4328    2.7573 C   0  0  0  0  0  0  0  0  0  0  0  0
    8.4175    3.5135    2.5717 C   0  0  0  0  0  0  0  0  0  0  0  0
    9.7415    3.4273    2.9547 C   0  0  0  0  0  0  0  0  0  0  0  0
   10.2111    2.3745    3.6904 C   0  0  0  0  0  0  0  0  0  0  0  0
   11.5432    2.3419    3.8327 N   0  0  0  0  0  0  0  0  0  0  0  0
   12.0323    1.4875    4.7420 C   0  0  0  0  0  0  0  0  0  0  0  0
   11.2058    0.7570    5.5752 C   0  0  0  0  0  0  0  0  0  0  0  0
   11.7719    0.4729    6.8975 C   0  0  0  0  0  0  0  0  0  0  0  0
   12.1470   -0.6943    7.6000 C   0  0  0  0  0  0  0  0  0  0  0  0
   12.7469   -0.4357    8.7779 N   0  0  0  0  0  0  0  0  0  0  0  0
   12.7680    0.9112    8.8415 N   0  0  0  0  0  0  0  0  0  0  0  0
   13.0185    1.6231   10.0854 C   0  0  0  0  0  0  0  0  0  0  0  0
   14.2073    1.1732   10.9304 C   0  0  0  0  0  0  0  0  0  0  0  0
   15.4488    1.5462   10.3405 O   0  0  0  0  0  0  0  0  0  0  0  0
   12.2956    1.4866    7.6918 C   0  0  0  0  0  0  0  0  0  0  0  0
    9.8536    0.6527    5.3092 N   0  0  0  0  0  0  0  0  0  0  0  0
    9.3212    1.4458    4.2802 C   0  0  0  0  0  0  0  0  0  0  0  0
    7.9760    1.4509    3.7081 C   0  0  0  0  0  0  0  0  0  0  0  0
    4.1612    2.4753    2.7001 C   0  0  0  0  0  0  0  0  0  0  0  0
   -0.0473    3.3297    3.7139 H   0  0  0  0  0  0  0  0  0  0  0  0
    0.3189    1.6022    3.8004 H   0  0  0  0  0  0  0  0  0  0  0  0
    0.1984    2.4460    2.2098 H   0  0  0  0  0  0  0  0  0  0  0  0
    1.4298    0.5563    1.9774 H   0  0  0  0  0  0  0  0  0  0  0  0
    1.9006   -2.3714   -0.0961 H   0  0  0  0  0  0  0  0  0  0  0  0
    1.2012   -0.7530    0.0328 H   0  0  0  0  0  0  0  0  0  0  0  0
    1.5434   -1.7323    1.5125 H   0  0  0  0  0  0  0  0  0  0  0  0
    5.4813    0.0475    0.7318 H   0  0  0  0  0  0  0  0  0  0  0  0
    7.3318    1.1325    0.3062 H   0  0  0  0  0  0  0  0  0  0  0  0
    8.0199    2.7149    0.3472 H   0  0  0  0  0  0  0  0  0  0  0  0
    5.2525    2.1912   -0.8105 H   0  0  0  0  0  0  0  0  0  0  0  0
    6.7860    2.2700   -1.6566 H   0  0  0  0  0  0  0  0  0  0  0  0
    5.5388    4.6509   -0.2040 H   0  0  0  0  0  0  0  0  0  0  0  0
    5.5410    4.3150   -1.9342 H   0  0  0  0  0  0  0  0  0  0  0  0
    7.7135    4.9728   -0.2941 H   0  0  0  0  0  0  0  0  0  0  0  0
    8.0952    4.3716    1.9876 H   0  0  0  0  0  0  0  0  0  0  0  0
   10.4361    4.2032    2.6410 H   0  0  0  0  0  0  0  0  0  0  0  0
   13.1092    1.5144    4.8740 H   0  0  0  0  0  0  0  0  0  0  0  0
   12.0304   -1.7295    7.3049 H   0  0  0  0  0  0  0  0  0  0  0  0
   12.0984    1.5176   10.6695 H   0  0  0  0  0  0  0  0  0  0  0  0
   13.1416    2.6829    9.8275 H   0  0  0  0  0  0  0  0  0  0  0  0
   14.2085    0.0989   11.1364 H   0  0  0  0  0  0  0  0  0  0  0  0
   14.1594    1.6898   11.8956 H   0  0  0  0  0  0  0  0  0  0  0  0
   15.7213    0.8060    9.7699 H   0  0  0  0  0  0  0  0  0  0  0  0
   12.3274    2.5602    7.5555 H   0  0  0  0  0  0  0  0  0  0  0  0
    7.3066    0.6461    3.9859 H   0  0  0  0  0  0  0  0  0  0  0  0
    4.4103    3.4049    3.2042 H   0  0  0  0  0  0  0  0  0  0  0  0
  1  2  1  0  0  0  0
  1 34  1  0  0  0  0
  1 35  1  0  0  0  0
  1 36  1  0  0  0  0
  2  3  1  0  0  0  0
  3  4  1  0  0  0  0
  3 33  2  0  0  0  0
  4  5  2  0  0  0  0
  4 37  1  0  0  0  0
  5  6  1  0  0  0  0
  5  8  1  0  0  0  0
  6  7  1  0  0  0  0
  7 38  1  0  0  0  0
  7 39  1  0  0  0  0
  7 40  1  0  0  0  0
  8  9  2  0  0  0  0
  8 41  1  0  0  0  0
  9 10  1  0  0  0  0
  9 33  1  0  0  0  0
 10 11  1  0  0  0  0
 10 15  1  0  0  0  0
 11 12  1  0  0  0  0
 11 42  1  0  0  0  0
 11 43  1  0  0  0  0
 12 13  1  0  0  0  0
 12 44  1  0  0  0  0
 12 45  1  0  0  0  0
 13 14  1  0  0  0  0
 13 46  1  0  0  0  0
 13 47  1  0  0  0  0
 14 48  1  0  0  0  0
 15 16  1  0  0  0  0
 15 32  2  0  0  0  0
 16 17  2  0  0  0  0
 16 49  1  0  0  0  0
 17 18  1  0  0  0  0
 17 50  1  0  0  0  0
 18 19  1  0  0  0  0
 18 31  2  0  0  0  0
 19 20  2  0  0  0  0
 20 21  1  0  0  0  0
 20 51  1  0  0  0  0
 21 22  1  0  0  0  0
 21 30  2  0  0  0  0
 22 23  1  0  0  0  0
 22 29  2  0  0  0  0
 23 24  2  0  0  0  0
 23 52  1  0  0  0  0
 24 25  1  0  0  0  0
 25 26  1  0  0  0  0
 25 29  1  0  0  0  0
 26 27  1  0  0  0  0
 26 53  1  0  0  0  0
 26 54  1  0  0  0  0
 27 28  1  0  0  0  0
 27 55  1  0  0  0  0
 27 56  1  0  0  0  0
 28 57  1  0  0  0  0
 29 58  1  0  0  0  0
 30 31  1  0  0  0  0
 31 32  1  0  0  0  0
 32 59  1  0  0  0  0
 33 60  1  0  0  0  0
M  END
$$$$
