CHEMBL4641639
 OpenBabel04072215383D

 77 82  0  0  0  0  0  0  0  0999 V2000
    1.2259    1.4462    0.3976 C   0  0  0  0  0  0  0  0  0  0  0  0
    2.6290    1.1873    0.2995 O   0  0  0  0  0  0  0  0  0  0  0  0
    3.0913    0.3421    1.2532 C   0  0  0  0  0  0  0  0  0  0  0  0
    2.4142   -0.2004    2.1124 O   0  0  0  0  0  0  0  0  0  0  0  0
    4.5681    0.1779    1.1585 C   0  0  0  0  0  0  0  0  0  0  0  0
    5.3555    0.8045    0.1660 C   0  0  0  0  0  0  0  0  0  0  0  0
    6.7597    0.6827    0.1637 C   0  0  0  0  0  0  0  0  0  0  0  0
    7.3668   -0.0535    1.1680 C   0  0  0  0  0  0  0  0  0  0  0  0
    6.5597   -0.6877    2.1225 C   0  0  0  0  0  0  0  0  0  0  0  0
    5.1823   -0.6032    2.1404 C   0  0  0  0  0  0  0  0  0  0  0  0
    7.3304   -1.3443    3.0702 N   0  0  0  0  0  0  0  0  0  0  0  0
    8.6768   -1.1327    2.8541 C   0  0  0  0  0  0  0  0  0  0  0  0
    9.5607   -1.3694    3.6560 O   0  0  0  0  0  0  0  0  0  0  0  0
    8.7616   -0.3931    1.5324 C   0  0  0  0  0  0  0  0  0  0  0  0
    9.9518   -0.1683    0.9293 C   0  0  0  0  0  0  0  0  0  0  0  0
   11.1877   -0.7412    1.2534 N   0  0  0  0  0  0  0  0  0  0  0  0
   11.3225   -2.1510    1.4102 C   0  0  0  0  0  0  0  0  0  0  0  0
   10.6559   -3.0366    0.5673 C   0  0  0  0  0  0  0  0  0  0  0  0
   10.7121   -4.4117    0.7913 C   0  0  0  0  0  0  0  0  0  0  0  0
   11.4992   -4.9578    1.8167 C   0  0  0  0  0  0  0  0  0  0  0  0
   11.4817   -6.3821    1.9905 N   0  0  0  0  0  0  0  0  0  0  0  0
   11.4694   -7.0283    3.2170 C   0  0  0  0  0  0  0  0  0  0  0  0
   11.4705   -8.3898    3.0308 C   0  0  0  0  0  0  0  0  0  0  0  0
   11.4267   -8.6122    1.6449 C   0  0  0  0  0  0  0  0  0  0  0  0
   11.4393   -7.3805    1.0067 C   0  0  0  0  0  0  0  0  0  0  0  0
   11.5456   -7.1630   -0.4729 C   0  0  0  0  0  0  0  0  0  0  0  0
   12.6598   -6.2801   -0.8136 N   0  0  0  0  0  0  0  0  0  0  0  0
   13.9676   -6.8594   -0.4717 C   0  0  0  0  0  0  0  0  0  0  0  0
   15.1231   -5.8972   -0.8154 C   0  0  0  0  0  0  0  0  0  0  0  0
   15.1455   -5.4443   -2.2210 N   0  0  0  0  0  0  0  0  0  0  0  0
   15.5484   -6.5197   -3.1197 C   0  0  0  0  0  0  0  0  0  0  0  0
   13.8101   -4.9136   -2.5672 C   0  0  0  0  0  0  0  0  0  0  0  0
   12.6229   -5.8448   -2.2164 C   0  0  0  0  0  0  0  0  0  0  0  0
   12.2560   -4.0844    2.6287 C   0  0  0  0  0  0  0  0  0  0  0  0
   13.2157   -4.4996    3.7123 C   0  0  0  0  0  0  0  0  0  0  0  0
   12.1489   -2.6878    2.4063 C   0  0  0  0  0  0  0  0  0  0  0  0
   10.0604    0.8081   -0.1735 C   0  0  0  0  0  0  0  0  0  0  0  0
   10.3180    2.1526    0.1406 C   0  0  0  0  0  0  0  0  0  0  0  0
   10.4740    3.0962   -0.8740 C   0  0  0  0  0  0  0  0  0  0  0  0
   10.3733    2.7025   -2.2098 C   0  0  0  0  0  0  0  0  0  0  0  0
   10.1180    1.3719   -2.5305 C   0  0  0  0  0  0  0  0  0  0  0  0
    9.9711    0.4220   -1.5165 C   0  0  0  0  0  0  0  0  0  0  0  0
    0.9227    2.0210   -0.4814 H   0  0  0  0  0  0  0  0  0  0  0  0
    1.0174    2.0422    1.2921 H   0  0  0  0  0  0  0  0  0  0  0  0
    0.6519    0.5138    0.4138 H   0  0  0  0  0  0  0  0  0  0  0  0
    4.8840    1.4091   -0.6076 H   0  0  0  0  0  0  0  0  0  0  0  0
    7.3342    1.1839   -0.6081 H   0  0  0  0  0  0  0  0  0  0  0  0
    4.6006   -1.1006    2.9101 H   0  0  0  0  0  0  0  0  0  0  0  0
    6.9856   -1.7833    3.9114 H   0  0  0  0  0  0  0  0  0  0  0  0
   11.5939   -0.2696    2.0588 H   0  0  0  0  0  0  0  0  0  0  0  0
   10.0522   -2.6663   -0.2544 H   0  0  0  0  0  0  0  0  0  0  0  0
   10.0881   -5.0347    0.1630 H   0  0  0  0  0  0  0  0  0  0  0  0
   11.4388   -6.4611    4.1363 H   0  0  0  0  0  0  0  0  0  0  0  0
   11.4897   -9.1382    3.8120 H   0  0  0  0  0  0  0  0  0  0  0  0
   11.4281   -9.5728    1.1446 H   0  0  0  0  0  0  0  0  0  0  0  0
   10.5933   -6.7623   -0.8420 H   0  0  0  0  0  0  0  0  0  0  0  0
   11.6622   -8.1271   -0.9867 H   0  0  0  0  0  0  0  0  0  0  0  0
   14.1084   -7.8196   -0.9842 H   0  0  0  0  0  0  0  0  0  0  0  0
   14.0293   -7.0607    0.6039 H   0  0  0  0  0  0  0  0  0  0  0  0
   16.0791   -6.3656   -0.5527 H   0  0  0  0  0  0  0  0  0  0  0  0
   15.0430   -5.0108   -0.1711 H   0  0  0  0  0  0  0  0  0  0  0  0
   16.5391   -6.8978   -2.8440 H   0  0  0  0  0  0  0  0  0  0  0  0
   15.6306   -6.1466   -4.1463 H   0  0  0  0  0  0  0  0  0  0  0  0
   14.8559   -7.3689   -3.1258 H   0  0  0  0  0  0  0  0  0  0  0  0
   13.7725   -4.6547   -3.6325 H   0  0  0  0  0  0  0  0  0  0  0  0
   13.6762   -3.9647   -2.0304 H   0  0  0  0  0  0  0  0  0  0  0  0
   12.6224   -6.7115   -2.8893 H   0  0  0  0  0  0  0  0  0  0  0  0
   11.6952   -5.2901   -2.4040 H   0  0  0  0  0  0  0  0  0  0  0  0
   13.4991   -5.5521    3.6663 H   0  0  0  0  0  0  0  0  0  0  0  0
   12.7848   -4.2860    4.6966 H   0  0  0  0  0  0  0  0  0  0  0  0
   14.1542   -3.9415    3.6148 H   0  0  0  0  0  0  0  0  0  0  0  0
   12.7005   -2.0102    3.0559 H   0  0  0  0  0  0  0  0  0  0  0  0
   10.4169    2.4637    1.1769 H   0  0  0  0  0  0  0  0  0  0  0  0
   10.6940    4.1309   -0.6234 H   0  0  0  0  0  0  0  0  0  0  0  0
   10.5082    3.4373   -2.9967 H   0  0  0  0  0  0  0  0  0  0  0  0
   10.0584    1.0630   -3.5711 H   0  0  0  0  0  0  0  0  0  0  0  0
    9.8032   -0.6188   -1.7808 H   0  0  0  0  0  0  0  0  0  0  0  0
  1  2  1  0  0  0  0
  1 43  1  0  0  0  0
  1 44  1  0  0  0  0
  1 45  1  0  0  0  0
  2  3  1  0  0  0  0
  3  4  2  0  0  0  0
  3  5  1  0  0  0  0
  5  6  1  0  0  0  0
  5 10  2  0  0  0  0
  6  7  2  0  0  0  0
  6 46  1  0  0  0  0
  7  8  1  0  0  0  0
  7 47  1  0  0  0  0
  8  9  2  0  0  0  0
  8 14  1  0  0  0  0
  9 10  1  0  0  0  0
  9 11  1  0  0  0  0
 10 48  1  0  0  0  0
 11 12  1  0  0  0  0
 11 49  1  0  0  0  0
 12 13  2  0  0  0  0
 12 14  1  0  0  0  0
 14 15  2  0  0  0  0
 15 16  1  0  0  0  0
 15 37  1  0  0  0  0
 16 17  1  0  0  0  0
 16 50  1  0  0  0  0
 17 18  1  0  0  0  0
 17 36  2  0  0  0  0
 18 19  2  0  0  0  0
 18 51  1  0  0  0  0
 19 20  1  0  0  0  0
 19 52  1  0  0  0  0
 20 21  1  0  0  0  0
 20 34  2  0  0  0  0
 21 22  1  0  0  0  0
 21 25  1  0  0  0  0
 22 23  2  0  0  0  0
 22 53  1  0  0  0  0
 23 24  1  0  0  0  0
 23 54  1  0  0  0  0
 24 25  2  0  0  0  0
 24 55  1  0  0  0  0
 25 26  1  0  0  0  0
 26 27  1  0  0  0  0
 26 56  1  0  0  0  0
 26 57  1  0  0  0  0
 27 28  1  0  0  0  0
 27 33  1  0  0  0  0
 28 29  1  0  0  0  0
 28 58  1  0  0  0  0
 28 59  1  0  0  0  0
 29 30  1  0  0  0  0
 29 60  1  0  0  0  0
 29 61  1  0  0  0  0
 30 31  1  0  0  0  0
 30 32  1  0  0  0  0
 31 62  1  0  0  0  0
 31 63  1  0  0  0  0
 31 64  1  0  0  0  0
 32 33  1  0  0  0  0
 32 65  1  0  0  0  0
 32 66  1  0  0  0  0
 33 67  1  0  0  0  0
 33 68  1  0  0  0  0
 34 35  1  0  0  0  0
 34 36  1  0  0  0  0
 35 69  1  0  0  0  0
 35 70  1  0  0  0  0
 35 71  1  0  0  0  0
 36 72  1  0  0  0  0
 37 38  1  0  0  0  0
 37 42  2  0  0  0  0
 38 39  2  0  0  0  0
 38 73  1  0  0  0  0
 39 40  1  0  0  0  0
 39 74  1  0  0  0  0
 40 41  2  0  0  0  0
 40 75  1  0  0  0  0
 41 42  1  0  0  0  0
 41 76  1  0  0  0  0
 42 77  1  0  0  0  0
M  END
$$$$
