CHEMBL4454848
 OpenBabel04072215383D

 53 56  0  0  0  0  0  0  0  0999 V2000
   -0.6549   -5.9702    2.3027 C   0  0  0  0  0  0  0  0  0  0  0  0
    0.5240   -5.6239    3.0211 O   0  0  0  0  0  0  0  0  0  0  0  0
    1.6740   -5.4670    2.2836 C   0  0  0  0  0  0  0  0  0  0  0  0
    1.6446   -5.1353    0.9174 C   0  0  0  0  0  0  0  0  0  0  0  0
    2.8135   -4.9108    0.1796 C   0  0  0  0  0  0  0  0  0  0  0  0
    2.7963   -4.6012   -1.3101 C   0  0  0  0  0  0  0  0  0  0  0  0
    1.4351   -4.2794   -1.9530 C   0  0  0  0  0  0  0  0  0  0  0  0
    0.7919   -3.2770   -1.6555 O   0  0  0  0  0  0  0  0  0  0  0  0
    0.9934   -5.2579   -2.8352 N   0  0  0  0  0  0  0  0  0  0  0  0
   -0.2697   -5.2524   -3.4797 C   0  0  0  0  0  0  0  0  0  0  0  0
   -0.9568   -6.4774   -3.4689 C   0  0  0  0  0  0  0  0  0  0  0  0
   -2.2101   -6.6223   -4.0624 C   0  0  0  0  0  0  0  0  0  0  0  0
   -2.7058   -5.4982   -4.7044 C   0  0  0  0  0  0  0  0  0  0  0  0
   -3.8895   -5.4249   -5.3452 O   0  0  0  0  0  0  0  0  0  0  0  0
   -3.9613   -4.1339   -5.7995 C   0  0  0  0  0  0  0  0  0  0  0  0
   -5.2434   -3.8177   -6.4442 C   0  0  0  0  0  0  0  0  0  0  0  0
   -6.3702   -4.6249   -6.1742 C   0  0  0  0  0  0  0  0  0  0  0  0
   -7.6213   -4.3554   -6.7334 C   0  0  0  0  0  0  0  0  0  0  0  0
   -7.7655   -3.2680   -7.5850 C   0  0  0  0  0  0  0  0  0  0  0  0
   -9.3106   -2.9166   -8.2556 Cl  0  0  0  0  0  0  0  0  0  0  0  0
   -6.6654   -2.4615   -7.8870 C   0  0  0  0  0  0  0  0  0  0  0  0
   -5.4091   -2.7331   -7.3165 C   0  0  0  0  0  0  0  0  0  0  0  0
   -2.8823   -3.4096   -5.5267 N   0  0  0  0  0  0  0  0  0  0  0  0
   -2.0748   -4.2696   -4.7853 C   0  0  0  0  0  0  0  0  0  0  0  0
   -0.8225   -4.1242   -4.1358 C   0  0  0  0  0  0  0  0  0  0  0  0
    4.0434   -5.0135    0.8584 C   0  0  0  0  0  0  0  0  0  0  0  0
    4.0961   -5.3167    2.2321 C   0  0  0  0  0  0  0  0  0  0  0  0
    5.2764   -5.4531    2.9239 O   0  0  0  0  0  0  0  0  0  0  0  0
    6.3100   -4.5432    2.5677 C   0  0  0  0  0  0  0  0  0  0  0  0
    2.9091   -5.5786    2.9507 C   0  0  0  0  0  0  0  0  0  0  0  0
    3.0797   -5.8592    4.2866 O   0  0  0  0  0  0  0  0  0  0  0  0
    2.1615   -6.7679    4.8815 C   0  0  0  0  0  0  0  0  0  0  0  0
   -1.4350   -6.2086    3.0313 H   0  0  0  0  0  0  0  0  0  0  0  0
   -0.4921   -6.8590    1.6823 H   0  0  0  0  0  0  0  0  0  0  0  0
   -1.0141   -5.1287    1.7031 H   0  0  0  0  0  0  0  0  0  0  0  0
    0.6901   -5.0028    0.4219 H   0  0  0  0  0  0  0  0  0  0  0  0
    3.2526   -5.4527   -1.8287 H   0  0  0  0  0  0  0  0  0  0  0  0
    3.4355   -3.7297   -1.4976 H   0  0  0  0  0  0  0  0  0  0  0  0
    1.4131   -6.1715   -2.7085 H   0  0  0  0  0  0  0  0  0  0  0  0
   -0.5460   -7.3330   -2.9374 H   0  0  0  0  0  0  0  0  0  0  0  0
   -2.7748   -7.5455   -4.0179 H   0  0  0  0  0  0  0  0  0  0  0  0
   -6.2860   -5.4799   -5.5058 H   0  0  0  0  0  0  0  0  0  0  0  0
   -8.4693   -4.9914   -6.4919 H   0  0  0  0  0  0  0  0  0  0  0  0
   -6.7847   -1.6197   -8.5632 H   0  0  0  0  0  0  0  0  0  0  0  0
   -4.5656   -2.0935   -7.5661 H   0  0  0  0  0  0  0  0  0  0  0  0
   -0.2955   -3.1768   -4.1812 H   0  0  0  0  0  0  0  0  0  0  0  0
    4.9658   -4.8692    0.3065 H   0  0  0  0  0  0  0  0  0  0  0  0
    7.0204   -4.4989    3.4004 H   0  0  0  0  0  0  0  0  0  0  0  0
    5.9302   -3.5293    2.4013 H   0  0  0  0  0  0  0  0  0  0  0  0
    6.8515   -4.9077    1.6898 H   0  0  0  0  0  0  0  0  0  0  0  0
    2.6302   -7.1729    5.7850 H   0  0  0  0  0  0  0  0  0  0  0  0
    1.9296   -7.6137    4.2252 H   0  0  0  0  0  0  0  0  0  0  0  0
    1.2543   -6.2494    5.2047 H   0  0  0  0  0  0  0  0  0  0  0  0
  1  2  1  0  0  0  0
  1 33  1  0  0  0  0
  1 34  1  0  0  0  0
  1 35  1  0  0  0  0
  2  3  1  0  0  0  0
  3  4  1  0  0  0  0
  3 30  2  0  0  0  0
  4  5  2  0  0  0  0
  4 36  1  0  0  0  0
  5  6  1  0  0  0  0
  5 26  1  0  0  0  0
  6  7  1  0  0  0  0
  6 37  1  0  0  0  0
  6 38  1  0  0  0  0
  7  8  2  0  0  0  0
  7  9  1  0  0  0  0
  9 10  1  0  0  0  0
  9 39  1  0  0  0  0
 10 11  1  0  0  0  0
 10 25  2  0  0  0  0
 11 12  2  0  0  0  0
 11 40  1  0  0  0  0
 12 13  1  0  0  0  0
 12 41  1  0  0  0  0
 13 14  1  0  0  0  0
 13 24  2  0  0  0  0
 14 15  1  0  0  0  0
 15 16  1  0  0  0  0
 15 23  2  0  0  0  0
 16 17  1  0  0  0  0
 16 22  2  0  0  0  0
 17 18  2  0  0  0  0
 17 42  1  0  0  0  0
 18 19  1  0  0  0  0
 18 43  1  0  0  0  0
 19 20  1  0  0  0  0
 19 21  2  0  0  0  0
 21 22  1  0  0  0  0
 21 44  1  0  0  0  0
 22 45  1  0  0  0  0
 23 24  1  0  0  0  0
 24 25  1  0  0  0  0
 25 46  1  0  0  0  0
 26 27  2  0  0  0  0
 26 47  1  0  0  0  0
 27 28  1  0  0  0  0
 27 30  1  0  0  0  0
 28 29  1  0  0  0  0
 29 48  1  0  0  0  0
 29 49  1  0  0  0  0
 29 50  1  0  0  0  0
 30 31  1  0  0  0  0
 31 32  1  0  0  0  0
 32 51  1  0  0  0  0
 32 52  1  0  0  0  0
 32 53  1  0  0  0  0
M  END
$$$$
