CHEMBL3907102
 OpenBabel04072215373D

 51 54  0  0  0  0  0  0  0  0999 V2000
    2.4837    1.3310   -0.0493 O   0  0  0  0  0  0  0  0  0  0  0  0
    2.1156    0.3145    0.5255 C   0  0  0  0  0  0  0  0  0  0  0  0
    0.7840   -0.0107    0.7450 N   0  0  0  0  0  0  0  0  0  0  0  0
   -0.3297    0.7906    0.3902 C   0  0  0  0  0  0  0  0  0  0  0  0
   -0.2484    1.9055   -0.4496 C   0  0  0  0  0  0  0  0  0  0  0  0
   -1.3660    2.7046   -0.6972 C   0  0  0  0  0  0  0  0  0  0  0  0
   -2.5901    2.3891   -0.1184 C   0  0  0  0  0  0  0  0  0  0  0  0
   -2.7103    1.2567    0.6975 C   0  0  0  0  0  0  0  0  0  0  0  0
   -4.0306    0.8965    1.3291 C   0  0  0  0  0  0  0  0  0  0  0  0
   -5.0352    1.7685    1.0370 F   0  0  0  0  0  0  0  0  0  0  0  0
   -4.4744   -0.3300    0.9377 F   0  0  0  0  0  0  0  0  0  0  0  0
   -3.9597    0.8501    2.6885 F   0  0  0  0  0  0  0  0  0  0  0  0
   -1.5743    0.4577    0.9376 C   0  0  0  0  0  0  0  0  0  0  0  0
    2.9757   -0.6350    1.0604 N   0  0  0  0  0  0  0  0  0  0  0  0
    4.3917   -0.5464    1.1003 C   0  0  0  0  0  0  0  0  0  0  0  0
    5.1018    0.5777    0.6702 C   0  0  0  0  0  0  0  0  0  0  0  0
    6.4995    0.6037    0.6859 C   0  0  0  0  0  0  0  0  0  0  0  0
    7.2190   -0.4775    1.1892 C   0  0  0  0  0  0  0  0  0  0  0  0
    8.5961   -0.5379    1.1932 O   0  0  0  0  0  0  0  0  0  0  0  0
    9.3062    0.6280    1.4677 C   0  0  0  0  0  0  0  0  0  0  0  0
   10.5888    0.7143    0.9628 C   0  0  0  0  0  0  0  0  0  0  0  0
   11.2694    1.8800    1.2460 C   0  0  0  0  0  0  0  0  0  0  0  0
   12.5910    2.0237    0.7838 N   0  0  0  0  0  0  0  0  0  0  0  0
   13.3309    3.1834    0.9164 C   0  0  0  0  0  0  0  0  0  0  0  0
   12.9367    4.2632    1.3367 O   0  0  0  0  0  0  0  0  0  0  0  0
   14.7557    3.1226    0.4690 C   0  0  0  0  0  0  0  0  0  0  0  0
   15.0953    2.7045   -0.9413 C   0  0  0  0  0  0  0  0  0  0  0  0
   15.5642    1.8758    0.2215 C   0  0  0  0  0  0  0  0  0  0  0  0
   10.7129    2.8617    1.9668 N   0  0  0  0  0  0  0  0  0  0  0  0
    9.4753    2.6702    2.4255 C   0  0  0  0  0  0  0  0  0  0  0  0
    8.7373    1.5789    2.2284 N   0  0  0  0  0  0  0  0  0  0  0  0
    6.5116   -1.5949    1.6317 C   0  0  0  0  0  0  0  0  0  0  0  0
    7.1724   -2.6658    2.0983 F   0  0  0  0  0  0  0  0  0  0  0  0
    5.1122   -1.6370    1.5936 C   0  0  0  0  0  0  0  0  0  0  0  0
    0.5990   -0.7917    1.3551 H   0  0  0  0  0  0  0  0  0  0  0  0
    0.6786    2.1930   -0.9360 H   0  0  0  0  0  0  0  0  0  0  0  0
   -1.2688    3.5788   -1.3371 H   0  0  0  0  0  0  0  0  0  0  0  0
   -3.4478    3.0325   -0.3077 H   0  0  0  0  0  0  0  0  0  0  0  0
   -1.6752   -0.4127    1.5833 H   0  0  0  0  0  0  0  0  0  0  0  0
    2.5680   -1.5048    1.3751 H   0  0  0  0  0  0  0  0  0  0  0  0
    4.6084    1.4726    0.3055 H   0  0  0  0  0  0  0  0  0  0  0  0
    7.0007    1.4912    0.3093 H   0  0  0  0  0  0  0  0  0  0  0  0
   11.0068   -0.0865    0.3700 H   0  0  0  0  0  0  0  0  0  0  0  0
   13.0158    1.2352    0.3262 H   0  0  0  0  0  0  0  0  0  0  0  0
   15.3266    3.9609    0.8679 H   0  0  0  0  0  0  0  0  0  0  0  0
   15.8192    3.3149   -1.4712 H   0  0  0  0  0  0  0  0  0  0  0  0
   14.3101    2.3095   -1.5744 H   0  0  0  0  0  0  0  0  0  0  0  0
   16.6214    1.9163    0.4703 H   0  0  0  0  0  0  0  0  0  0  0  0
   15.1303    0.8987    0.3780 H   0  0  0  0  0  0  0  0  0  0  0  0
    9.0363    3.4744    3.0047 H   0  0  0  0  0  0  0  0  0  0  0  0
    4.6162   -2.5340    1.9494 H   0  0  0  0  0  0  0  0  0  0  0  0
  1  2  2  0  0  0  0
  2  3  1  0  0  0  0
  2 14  1  0  0  0  0
  3  4  1  0  0  0  0
  3 35  1  0  0  0  0
  4  5  1  0  0  0  0
  4 13  2  0  0  0  0
  5  6  2  0  0  0  0
  5 36  1  0  0  0  0
  6  7  1  0  0  0  0
  6 37  1  0  0  0  0
  7  8  2  0  0  0  0
  7 38  1  0  0  0  0
  8  9  1  0  0  0  0
  8 13  1  0  0  0  0
  9 10  1  0  0  0  0
  9 11  1  0  0  0  0
  9 12  1  0  0  0  0
 13 39  1  0  0  0  0
 14 15  1  0  0  0  0
 14 40  1  0  0  0  0
 15 16  1  0  0  0  0
 15 34  2  0  0  0  0
 16 17  2  0  0  0  0
 16 41  1  0  0  0  0
 17 18  1  0  0  0  0
 17 42  1  0  0  0  0
 18 19  1  0  0  0  0
 18 32  2  0  0  0  0
 19 20  1  0  0  0  0
 20 21  1  0  0  0  0
 20 31  2  0  0  0  0
 21 22  2  0  0  0  0
 21 43  1  0  0  0  0
 22 23  1  0  0  0  0
 22 29  1  0  0  0  0
 23 24  1  0  0  0  0
 23 44  1  0  0  0  0
 24 25  2  0  0  0  0
 24 26  1  0  0  0  0
 26 27  1  0  0  0  0
 26 28  1  0  0  0  0
 26 45  1  0  0  0  0
 27 28  1  0  0  0  0
 27 46  1  0  0  0  0
 27 47  1  0  0  0  0
 28 48  1  0  0  0  0
 28 49  1  0  0  0  0
 29 30  2  0  0  0  0
 30 31  1  0  0  0  0
 30 50  1  0  0  0  0
 32 33  1  0  0  0  0
 32 34  1  0  0  0  0
 34 51  1  0  0  0  0
M  END
$$$$
