CHEMBL3656039
 OpenBabel04072215373D

 48 51  0  0  0  0  0  0  0  0999 V2000
    2.3899   -0.6491    0.2602 C   0  0  0  0  0  0  0  0  0  0  0  0
    1.0076   -0.2877   -0.1503 C   0  0  0  0  0  0  0  0  0  0  0  0
    0.5613    0.9985   -0.5631 C   0  0  0  0  0  0  0  0  0  0  0  0
   -0.7738    0.8748   -0.8581 C   0  0  0  0  0  0  0  0  0  0  0  0
   -1.1900   -0.3998   -0.6598 O   0  0  0  0  0  0  0  0  0  0  0  0
   -0.1078   -1.1178   -0.2180 C   0  0  0  0  0  0  0  0  0  0  0  0
   -0.2784   -2.5319    0.0909 C   0  0  0  0  0  0  0  0  0  0  0  0
    0.6392   -3.2005    0.5503 O   0  0  0  0  0  0  0  0  0  0  0  0
   -1.5442   -3.0240   -0.2220 N   0  0  0  0  0  0  0  0  0  0  0  0
   -1.9957   -4.3523   -0.0579 C   0  0  0  0  0  0  0  0  0  0  0  0
   -1.3136   -5.2870    0.7266 C   0  0  0  0  0  0  0  0  0  0  0  0
   -1.7291   -6.6168    0.7811 C   0  0  0  0  0  0  0  0  0  0  0  0
   -2.8472   -7.0250    0.0649 C   0  0  0  0  0  0  0  0  0  0  0  0
   -3.6161   -6.0838   -0.6223 C   0  0  0  0  0  0  0  0  0  0  0  0
   -4.7828   -6.3927   -1.2910 O   0  0  0  0  0  0  0  0  0  0  0  0
   -5.5885   -7.4127   -0.8304 C   0  0  0  0  0  0  0  0  0  0  0  0
   -5.7584   -7.7405    0.5122 C   0  0  0  0  0  0  0  0  0  0  0  0
   -6.5717   -8.8157    0.8270 C   0  0  0  0  0  0  0  0  0  0  0  0
   -7.2588   -9.5356   -0.0862 N   0  0  0  0  0  0  0  0  0  0  0  0
   -7.1277   -9.1581   -1.3803 C   0  0  0  0  0  0  0  0  0  0  0  0
   -7.9319   -9.9277   -2.3246 C   0  0  0  0  0  0  0  0  0  0  0  0
   -8.0563   -9.8411   -3.6970 C   0  0  0  0  0  0  0  0  0  0  0  0
   -9.0227  -10.7891   -4.1430 C   0  0  0  0  0  0  0  0  0  0  0  0
   -9.4466  -10.9608   -5.5268 C   0  0  0  0  0  0  0  0  0  0  0  0
  -10.3927  -11.9097   -5.7606 N   0  0  0  0  0  0  0  0  0  0  0  0
   -8.9960  -10.2909   -6.4515 O   0  0  0  0  0  0  0  0  0  0  0  0
   -9.4420  -11.4618   -3.0063 C   0  0  0  0  0  0  0  0  0  0  0  0
   -8.7674  -10.9461   -1.9264 N   0  0  0  0  0  0  0  0  0  0  0  0
   -6.3118   -8.1099   -1.7916 C   0  0  0  0  0  0  0  0  0  0  0  0
   -3.1723   -4.7536   -0.7060 C   0  0  0  0  0  0  0  0  0  0  0  0
    3.0681    0.2023    0.1348 H   0  0  0  0  0  0  0  0  0  0  0  0
    2.7768   -1.4719   -0.3494 H   0  0  0  0  0  0  0  0  0  0  0  0
    2.4192   -0.9464    1.3130 H   0  0  0  0  0  0  0  0  0  0  0  0
    1.1494    1.9033   -0.6362 H   0  0  0  0  0  0  0  0  0  0  0  0
   -1.5275    1.5681   -1.2048 H   0  0  0  0  0  0  0  0  0  0  0  0
   -2.1503   -2.3738   -0.7102 H   0  0  0  0  0  0  0  0  0  0  0  0
   -0.4449   -5.0102    1.3143 H   0  0  0  0  0  0  0  0  0  0  0  0
   -1.1707   -7.3320    1.3795 H   0  0  0  0  0  0  0  0  0  0  0  0
   -3.1159   -8.0772    0.0762 H   0  0  0  0  0  0  0  0  0  0  0  0
   -5.2567   -7.1966    1.3035 H   0  0  0  0  0  0  0  0  0  0  0  0
   -6.6899   -9.1353    1.8583 H   0  0  0  0  0  0  0  0  0  0  0  0
   -7.5275   -9.1499   -4.3426 H   0  0  0  0  0  0  0  0  0  0  0  0
  -10.8049  -12.4639   -5.0278 H   0  0  0  0  0  0  0  0  0  0  0  0
  -10.7134  -12.0204   -6.7094 H   0  0  0  0  0  0  0  0  0  0  0  0
  -10.1599  -12.2564   -2.8598 H   0  0  0  0  0  0  0  0  0  0  0  0
   -8.8634  -11.2378   -0.9611 H   0  0  0  0  0  0  0  0  0  0  0  0
   -6.2336   -7.8349   -2.8362 H   0  0  0  0  0  0  0  0  0  0  0  0
   -3.7467   -4.0494   -1.3055 H   0  0  0  0  0  0  0  0  0  0  0  0
  1  2  1  0  0  0  0
  1 31  1  0  0  0  0
  1 32  1  0  0  0  0
  1 33  1  0  0  0  0
  2  3  1  0  0  0  0
  2  6  2  0  0  0  0
  3  4  2  0  0  0  0
  3 34  1  0  0  0  0
  4  5  1  0  0  0  0
  4 35  1  0  0  0  0
  5  6  1  0  0  0  0
  6  7  1  0  0  0  0
  7  8  2  0  0  0  0
  7  9  1  0  0  0  0
  9 10  1  0  0  0  0
  9 36  1  0  0  0  0
 10 11  1  0  0  0  0
 10 30  2  0  0  0  0
 11 12  2  0  0  0  0
 11 37  1  0  0  0  0
 12 13  1  0  0  0  0
 12 38  1  0  0  0  0
 13 14  2  0  0  0  0
 13 39  1  0  0  0  0
 14 15  1  0  0  0  0
 14 30  1  0  0  0  0
 15 16  1  0  0  0  0
 16 17  1  0  0  0  0
 16 29  2  0  0  0  0
 17 18  2  0  0  0  0
 17 40  1  0  0  0  0
 18 19  1  0  0  0  0
 18 41  1  0  0  0  0
 19 20  2  0  0  0  0
 20 21  1  0  0  0  0
 20 29  1  0  0  0  0
 21 22  2  0  0  0  0
 21 28  1  0  0  0  0
 22 23  1  0  0  0  0
 22 42  1  0  0  0  0
 23 24  1  0  0  0  0
 23 27  2  0  0  0  0
 24 25  1  0  0  0  0
 24 26  2  0  0  0  0
 25 43  1  0  0  0  0
 25 44  1  0  0  0  0
 27 28  1  0  0  0  0
 27 45  1  0  0  0  0
 28 46  1  0  0  0  0
 29 47  1  0  0  0  0
 30 48  1  0  0  0  0
M  END
$$$$
