CHEMBL4465698
 OpenBabel04072215383D

 45 49  0  0  0  0  0  0  0  0999 V2000
    2.2271   -1.1064   -0.4372 O   0  0  0  0  0  0  0  0  0  0  0  0
    2.2033    0.0179    0.0515 C   0  0  0  0  0  0  0  0  0  0  0  0
    1.4661    0.3810    1.1592 N   0  0  0  0  0  0  0  0  0  0  0  0
    0.7729   -0.5685    1.8563 C   0  0  0  0  0  0  0  0  0  0  0  0
    0.9005   -1.8628    1.7742 N   0  0  0  0  0  0  0  0  0  0  0  0
    0.0058   -2.4748    2.6170 C   0  0  0  0  0  0  0  0  0  0  0  0
   -0.1292   -3.8650    2.7861 C   0  0  0  0  0  0  0  0  0  0  0  0
   -1.0808   -4.3608    3.6788 C   0  0  0  0  0  0  0  0  0  0  0  0
   -1.9025   -3.4832    4.3796 C   0  0  0  0  0  0  0  0  0  0  0  0
   -3.0695   -4.1198    5.4748 Cl  0  0  0  0  0  0  0  0  0  0  0  0
   -1.7961   -2.0961    4.2259 C   0  0  0  0  0  0  0  0  0  0  0  0
   -0.8157   -1.6106    3.3459 C   0  0  0  0  0  0  0  0  0  0  0  0
   -0.3761    0.0194    2.9658 S   0  0  0  0  0  0  0  0  0  0  0  0
    2.9454    1.1047   -0.5738 C   0  0  0  0  0  0  0  0  0  0  0  0
    2.7231    2.4567   -0.4118 C   0  0  0  0  0  0  0  0  0  0  0  0
    3.5641    3.1201   -1.2711 N   0  0  0  0  0  0  0  0  0  0  0  0
    3.6553    4.5250   -1.4619 C   0  0  0  0  0  0  0  0  0  0  0  0
    2.8906    5.4028   -0.6788 C   0  0  0  0  0  0  0  0  0  0  0  0
    3.0139    6.7812   -0.8472 C   0  0  0  0  0  0  0  0  0  0  0  0
    3.8863    7.2907   -1.8049 C   0  0  0  0  0  0  0  0  0  0  0  0
    4.6355    6.4244   -2.6008 C   0  0  0  0  0  0  0  0  0  0  0  0
    4.5257    5.0428   -2.4309 C   0  0  0  0  0  0  0  0  0  0  0  0
    4.3496    2.2624   -1.9539 N   0  0  0  0  0  0  0  0  0  0  0  0
    4.0163    1.0342   -1.5222 C   0  0  0  0  0  0  0  0  0  0  0  0
    4.7392   -0.1390   -2.0358 C   0  0  0  0  0  0  0  0  0  0  0  0
    5.0131   -1.2458   -1.2162 C   0  0  0  0  0  0  0  0  0  0  0  0
    5.6833   -2.3630   -1.7205 C   0  0  0  0  0  0  0  0  0  0  0  0
    6.1110   -2.3659   -3.0407 C   0  0  0  0  0  0  0  0  0  0  0  0
    6.7575   -3.4353   -3.5226 F   0  0  0  0  0  0  0  0  0  0  0  0
    5.8810   -1.2724   -3.8659 C   0  0  0  0  0  0  0  0  0  0  0  0
    5.1975   -0.1605   -3.3642 C   0  0  0  0  0  0  0  0  0  0  0  0
    1.3593    1.3391    1.4453 H   0  0  0  0  0  0  0  0  0  0  0  0
    0.5152   -4.5338    2.2229 H   0  0  0  0  0  0  0  0  0  0  0  0
   -1.1682   -5.4355    3.8169 H   0  0  0  0  0  0  0  0  0  0  0  0
   -2.4405   -1.4180    4.7756 H   0  0  0  0  0  0  0  0  0  0  0  0
    2.0087    2.9877    0.1940 H   0  0  0  0  0  0  0  0  0  0  0  0
    2.1996    5.0557    0.0811 H   0  0  0  0  0  0  0  0  0  0  0  0
    2.4313    7.4552   -0.2243 H   0  0  0  0  0  0  0  0  0  0  0  0
    3.9834    8.3657   -1.9297 H   0  0  0  0  0  0  0  0  0  0  0  0
    5.3116    6.8254   -3.3517 H   0  0  0  0  0  0  0  0  0  0  0  0
    5.1236    4.3849   -3.0600 H   0  0  0  0  0  0  0  0  0  0  0  0
    4.6953   -1.2668   -0.1769 H   0  0  0  0  0  0  0  0  0  0  0  0
    5.8629   -3.2274   -1.0897 H   0  0  0  0  0  0  0  0  0  0  0  0
    6.2319   -1.2894   -4.8923 H   0  0  0  0  0  0  0  0  0  0  0  0
    5.0227    0.6927   -4.0165 H   0  0  0  0  0  0  0  0  0  0  0  0
  1  2  2  0  0  0  0
  2  3  1  0  0  0  0
  2 14  1  0  0  0  0
  3  4  1  0  0  0  0
  3 32  1  0  0  0  0
  4  5  2  0  0  0  0
  4 13  1  0  0  0  0
  5  6  1  0  0  0  0
  6  7  1  0  0  0  0
  6 12  2  0  0  0  0
  7  8  2  0  0  0  0
  7 33  1  0  0  0  0
  8  9  1  0  0  0  0
  8 34  1  0  0  0  0
  9 10  1  0  0  0  0
  9 11  2  0  0  0  0
 11 12  1  0  0  0  0
 11 35  1  0  0  0  0
 12 13  1  0  0  0  0
 14 15  2  0  0  0  0
 14 24  1  0  0  0  0
 15 16  1  0  0  0  0
 15 36  1  0  0  0  0
 16 17  1  0  0  0  0
 16 23  1  0  0  0  0
 17 18  1  0  0  0  0
 17 22  2  0  0  0  0
 18 19  2  0  0  0  0
 18 37  1  0  0  0  0
 19 20  1  0  0  0  0
 19 38  1  0  0  0  0
 20 21  2  0  0  0  0
 20 39  1  0  0  0  0
 21 22  1  0  0  0  0
 21 40  1  0  0  0  0
 22 41  1  0  0  0  0
 23 24  2  0  0  0  0
 24 25  1  0  0  0  0
 25 26  1  0  0  0  0
 25 31  2  0  0  0  0
 26 27  2  0  0  0  0
 26 42  1  0  0  0  0
 27 28  1  0  0  0  0
 27 43  1  0  0  0  0
 28 29  1  0  0  0  0
 28 30  2  0  0  0  0
 30 31  1  0  0  0  0
 30 44  1  0  0  0  0
 31 45  1  0  0  0  0
M  END
$$$$
