CHEMBL1984044
 OpenBabel04072215363D

 50 52  0  0  0  0  0  0  0  0999 V2000
    1.1494    0.4389    0.1470 C   0  0  0  0  0  0  0  0  0  0  0  0
    2.6434    0.1879   -0.0730 C   0  0  0  0  0  0  0  0  0  0  0  0
    3.0753    0.1975   -1.4861 N   0  0  0  0  0  0  0  0  0  0  0  0
    2.6798    1.4163   -2.2093 C   0  0  0  0  0  0  0  0  0  0  0  0
    3.3492    2.7123   -1.7631 C   0  0  0  0  0  0  0  0  0  0  0  0
    4.5226   -0.1309   -1.5882 C   0  0  0  0  0  0  0  0  0  0  0  0
    5.0723   -0.2297   -3.0331 C   0  0  0  0  0  0  0  0  0  0  0  0
    6.4588   -0.6163   -3.0468 O   0  0  0  0  0  0  0  0  0  0  0  0
    7.0585   -0.6553   -4.2858 C   0  0  0  0  0  0  0  0  0  0  0  0
    6.6457    0.0559   -5.4150 C   0  0  0  0  0  0  0  0  0  0  0  0
    7.3351   -0.0565   -6.6387 C   0  0  0  0  0  0  0  0  0  0  0  0
    8.4504   -0.8885   -6.7676 C   0  0  0  0  0  0  0  0  0  0  0  0
    9.0912   -1.0853   -8.0828 C   0  0  0  0  0  0  0  0  0  0  0  0
    9.2508   -0.2192   -9.0783 N   0  0  0  0  0  0  0  0  0  0  0  0
    9.7981   -0.9331  -10.1504 C   0  0  0  0  0  0  0  0  0  0  0  0
   10.1801   -0.5670  -11.4682 C   0  0  0  0  0  0  0  0  0  0  0  0
   10.1437    0.8172  -12.0008 C   0  0  0  0  0  0  0  0  0  0  0  0
    9.8313    1.8212  -11.1380 N   0  0  0  0  0  0  0  0  0  0  0  0
   10.4237    1.0647  -13.1735 O   0  0  0  0  0  0  0  0  0  0  0  0
   10.6454   -1.5760  -12.3416 C   0  0  0  0  0  0  0  0  0  0  0  0
   10.7587   -2.9019  -11.9300 C   0  0  0  0  0  0  0  0  0  0  0  0
   10.4275   -3.2724  -10.6284 C   0  0  0  0  0  0  0  0  0  0  0  0
    9.9558   -2.2678   -9.7787 C   0  0  0  0  0  0  0  0  0  0  0  0
    9.5541   -2.3207   -8.4713 N   0  0  0  0  0  0  0  0  0  0  0  0
    8.8795   -1.5788   -5.6198 C   0  0  0  0  0  0  0  0  0  0  0  0
    8.1974   -1.4554   -4.3934 C   0  0  0  0  0  0  0  0  0  0  0  0
    0.8786    0.2060    1.1828 H   0  0  0  0  0  0  0  0  0  0  0  0
    0.5346   -0.1887   -0.5066 H   0  0  0  0  0  0  0  0  0  0  0  0
    0.8834    1.4874   -0.0249 H   0  0  0  0  0  0  0  0  0  0  0  0
    2.8627   -0.8002    0.3496 H   0  0  0  0  0  0  0  0  0  0  0  0
    3.2109    0.9160    0.5190 H   0  0  0  0  0  0  0  0  0  0  0  0
    1.5924    1.5422   -2.1512 H   0  0  0  0  0  0  0  0  0  0  0  0
    2.8565    1.2776   -3.2824 H   0  0  0  0  0  0  0  0  0  0  0  0
    3.3062    2.8503   -0.6793 H   0  0  0  0  0  0  0  0  0  0  0  0
    2.8387    3.5669   -2.2199 H   0  0  0  0  0  0  0  0  0  0  0  0
    4.3973    2.7466   -2.0751 H   0  0  0  0  0  0  0  0  0  0  0  0
    4.6996   -1.0992   -1.1005 H   0  0  0  0  0  0  0  0  0  0  0  0
    5.1245    0.5947   -1.0255 H   0  0  0  0  0  0  0  0  0  0  0  0
    4.9710    0.7539   -3.4949 H   0  0  0  0  0  0  0  0  0  0  0  0
    4.4939   -0.9758   -3.5908 H   0  0  0  0  0  0  0  0  0  0  0  0
    5.7902    0.7212   -5.3876 H   0  0  0  0  0  0  0  0  0  0  0  0
    6.9700    0.4974   -7.5016 H   0  0  0  0  0  0  0  0  0  0  0  0
    9.5949    1.6375  -10.1668 H   0  0  0  0  0  0  0  0  0  0  0  0
    9.8606    2.7711  -11.4805 H   0  0  0  0  0  0  0  0  0  0  0  0
   10.9303   -1.3154  -13.3611 H   0  0  0  0  0  0  0  0  0  0  0  0
   11.1159   -3.6527  -12.6326 H   0  0  0  0  0  0  0  0  0  0  0  0
   10.5249   -4.3023  -10.3001 H   0  0  0  0  0  0  0  0  0  0  0  0
    9.5278   -3.1541   -7.9043 H   0  0  0  0  0  0  0  0  0  0  0  0
    9.7547   -2.2237   -5.6538 H   0  0  0  0  0  0  0  0  0  0  0  0
    8.5550   -2.0036   -3.5238 H   0  0  0  0  0  0  0  0  0  0  0  0
  1  2  1  0  0  0  0
  1 27  1  0  0  0  0
  1 28  1  0  0  0  0
  1 29  1  0  0  0  0
  2  3  1  0  0  0  0
  2 30  1  0  0  0  0
  2 31  1  0  0  0  0
  3  4  1  0  0  0  0
  3  6  1  0  0  0  0
  4  5  1  0  0  0  0
  4 32  1  0  0  0  0
  4 33  1  0  0  0  0
  5 34  1  0  0  0  0
  5 35  1  0  0  0  0
  5 36  1  0  0  0  0
  6  7  1  0  0  0  0
  6 37  1  0  0  0  0
  6 38  1  0  0  0  0
  7  8  1  0  0  0  0
  7 39  1  0  0  0  0
  7 40  1  0  0  0  0
  8  9  1  0  0  0  0
  9 10  1  0  0  0  0
  9 26  2  0  0  0  0
 10 11  2  0  0  0  0
 10 41  1  0  0  0  0
 11 12  1  0  0  0  0
 11 42  1  0  0  0  0
 12 13  1  0  0  0  0
 12 25  2  0  0  0  0
 13 14  2  0  0  0  0
 13 24  1  0  0  0  0
 14 15  1  0  0  0  0
 15 16  1  0  0  0  0
 15 23  2  0  0  0  0
 16 17  1  0  0  0  0
 16 20  2  0  0  0  0
 17 18  1  0  0  0  0
 17 19  2  0  0  0  0
 18 43  1  0  0  0  0
 18 44  1  0  0  0  0
 20 21  1  0  0  0  0
 20 45  1  0  0  0  0
 21 22  2  0  0  0  0
 21 46  1  0  0  0  0
 22 23  1  0  0  0  0
 22 47  1  0  0  0  0
 23 24  1  0  0  0  0
 24 48  1  0  0  0  0
 25 26  1  0  0  0  0
 25 49  1  0  0  0  0
 26 50  1  0  0  0  0
M  END
$$$$
