CHEMBL4636995
 OpenBabel04072215383D

 59 63  0  0  0  0  0  0  0  0999 V2000
    2.6676    0.9603    1.4736 C   0  0  0  0  0  0  0  0  0  0  0  0
    2.6406    0.0660    0.3653 O   0  0  0  0  0  0  0  0  0  0  0  0
    3.2008    0.5254   -0.7979 C   0  0  0  0  0  0  0  0  0  0  0  0
    4.2438    1.4565   -0.8113 C   0  0  0  0  0  0  0  0  0  0  0  0
    4.8403    1.8522   -2.0136 C   0  0  0  0  0  0  0  0  0  0  0  0
    4.4216    1.3287   -3.2407 C   0  0  0  0  0  0  0  0  0  0  0  0
    5.0683    1.7332   -4.4887 C   0  0  0  0  0  0  0  0  0  0  0  0
    5.3350    1.0028   -5.6634 C   0  0  0  0  0  0  0  0  0  0  0  0
    6.0228    1.6929   -6.5776 N   0  0  0  0  0  0  0  0  0  0  0  0
    6.2058    2.9233   -6.0075 N   0  0  0  0  0  0  0  0  0  0  0  0
    6.9285    4.0321   -6.5567 C   0  0  0  0  0  0  0  0  0  0  0  0
    7.4298    3.7928   -7.8446 N   0  0  0  0  0  0  0  0  0  0  0  0
    7.0774    5.1733   -5.8160 C   0  0  0  0  0  0  0  0  0  0  0  0
    7.7780    6.3361   -6.3266 C   0  0  0  0  0  0  0  0  0  0  0  0
    8.6433    6.3623   -7.3420 N   0  0  0  0  0  0  0  0  0  0  0  0
    9.0914    7.6496   -7.6070 C   0  0  0  0  0  0  0  0  0  0  0  0
    8.6243    8.6262   -6.7633 C   0  0  0  0  0  0  0  0  0  0  0  0
    7.5173    7.9376   -5.6665 S   0  0  0  0  0  0  0  0  0  0  0  0
    6.4554    5.0732   -4.4451 C   0  0  0  0  0  0  0  0  0  0  0  0
    6.6948    6.1060   -3.5860 O   0  0  0  0  0  0  0  0  0  0  0  0
    6.3620    5.8450   -2.1863 C   0  0  0  0  0  0  0  0  0  0  0  0
    4.8757    6.0407   -1.9063 C   0  0  0  0  0  0  0  0  0  0  0  0
    4.5303    7.4205   -1.3864 C   0  0  0  0  0  0  0  0  0  0  0  0
    5.2925    7.7494   -0.1873 N   0  0  0  0  0  0  0  0  0  0  0  0
    4.8942    9.0793    0.2920 C   0  0  0  0  0  0  0  0  0  0  0  0
    6.7424    7.6754   -0.3536 C   0  0  0  0  0  0  0  0  0  0  0  0
    7.3197    6.5879   -1.2623 C   0  0  0  0  0  0  0  0  0  0  0  0
    5.7534    4.0860   -3.9828 N   0  0  0  0  0  0  0  0  0  0  0  0
    5.6327    2.9741   -4.7435 C   0  0  0  0  0  0  0  0  0  0  0  0
    3.3968    0.3726   -3.2236 C   0  0  0  0  0  0  0  0  0  0  0  0
    2.7748   -0.0223   -2.0201 C   0  0  0  0  0  0  0  0  0  0  0  0
    1.8062   -0.9815   -2.1939 O   0  0  0  0  0  0  0  0  0  0  0  0
    0.6977   -0.9383   -1.3006 C   0  0  0  0  0  0  0  0  0  0  0  0
    2.0468    0.5310    2.2660 H   0  0  0  0  0  0  0  0  0  0  0  0
    2.2446    1.9349    1.2063 H   0  0  0  0  0  0  0  0  0  0  0  0
    3.6800    1.0661    1.8754 H   0  0  0  0  0  0  0  0  0  0  0  0
    4.6494    1.8728    0.1056 H   0  0  0  0  0  0  0  0  0  0  0  0
    5.6640    2.5590   -1.9656 H   0  0  0  0  0  0  0  0  0  0  0  0
    5.0805   -0.0277   -5.8766 H   0  0  0  0  0  0  0  0  0  0  0  0
    7.4291    2.7886   -8.0582 H   0  0  0  0  0  0  0  0  0  0  0  0
    8.3259    4.2488   -8.0233 H   0  0  0  0  0  0  0  0  0  0  0  0
    9.7744    7.8268   -8.4317 H   0  0  0  0  0  0  0  0  0  0  0  0
    8.8549    9.6836   -6.7571 H   0  0  0  0  0  0  0  0  0  0  0  0
    6.5948    4.7882   -2.0038 H   0  0  0  0  0  0  0  0  0  0  0  0
    4.5647    5.2981   -1.1597 H   0  0  0  0  0  0  0  0  0  0  0  0
    4.2712    5.8563   -2.8021 H   0  0  0  0  0  0  0  0  0  0  0  0
    3.4633    7.4056   -1.1235 H   0  0  0  0  0  0  0  0  0  0  0  0
    4.6583    8.1692   -2.1766 H   0  0  0  0  0  0  0  0  0  0  0  0
    3.8494    9.0663    0.6211 H   0  0  0  0  0  0  0  0  0  0  0  0
    4.9945    9.8435   -0.4899 H   0  0  0  0  0  0  0  0  0  0  0  0
    5.4959    9.3942    1.1514 H   0  0  0  0  0  0  0  0  0  0  0  0
    7.1585    7.4985    0.6493 H   0  0  0  0  0  0  0  0  0  0  0  0
    7.1585    8.6380   -0.6748 H   0  0  0  0  0  0  0  0  0  0  0  0
    7.7735    5.8313   -0.6059 H   0  0  0  0  0  0  0  0  0  0  0  0
    8.1541    7.0066   -1.8390 H   0  0  0  0  0  0  0  0  0  0  0  0
    3.0498   -0.0780   -4.1503 H   0  0  0  0  0  0  0  0  0  0  0  0
   -0.1231   -1.4952   -1.7663 H   0  0  0  0  0  0  0  0  0  0  0  0
    0.3483    0.0860   -1.1299 H   0  0  0  0  0  0  0  0  0  0  0  0
    0.9336   -1.4432   -0.3598 H   0  0  0  0  0  0  0  0  0  0  0  0
  1  2  1  0  0  0  0
  1 34  1  0  0  0  0
  1 35  1  0  0  0  0
  1 36  1  0  0  0  0
  2  3  1  0  0  0  0
  3  4  1  0  0  0  0
  3 31  2  0  0  0  0
  4  5  2  0  0  0  0
  4 37  1  0  0  0  0
  5  6  1  0  0  0  0
  5 38  1  0  0  0  0
  6  7  1  0  0  0  0
  6 30  2  0  0  0  0
  7  8  1  0  0  0  0
  7 29  2  0  0  0  0
  8  9  2  0  0  0  0
  8 39  1  0  0  0  0
  9 10  1  0  0  0  0
 10 11  1  0  0  0  0
 10 29  1  0  0  0  0
 11 12  1  0  0  0  0
 11 13  2  0  0  0  0
 12 40  1  0  0  0  0
 12 41  1  0  0  0  0
 13 14  1  0  0  0  0
 13 19  1  0  0  0  0
 14 15  2  0  0  0  0
 14 18  1  0  0  0  0
 15 16  1  0  0  0  0
 16 17  2  0  0  0  0
 16 42  1  0  0  0  0
 17 18  1  0  0  0  0
 17 43  1  0  0  0  0
 19 20  1  0  0  0  0
 19 28  2  0  0  0  0
 20 21  1  0  0  0  0
 21 22  1  0  0  0  0
 21 27  1  0  0  0  0
 21 44  1  0  0  0  0
 22 23  1  0  0  0  0
 22 45  1  0  0  0  0
 22 46  1  0  0  0  0
 23 24  1  0  0  0  0
 23 47  1  0  0  0  0
 23 48  1  0  0  0  0
 24 25  1  0  0  0  0
 24 26  1  0  0  0  0
 25 49  1  0  0  0  0
 25 50  1  0  0  0  0
 25 51  1  0  0  0  0
 26 27  1  0  0  0  0
 26 52  1  0  0  0  0
 26 53  1  0  0  0  0
 27 54  1  0  0  0  0
 27 55  1  0  0  0  0
 28 29  1  0  0  0  0
 30 31  1  0  0  0  0
 30 56  1  0  0  0  0
 31 32  1  0  0  0  0
 32 33  1  0  0  0  0
 33 57  1  0  0  0  0
 33 58  1  0  0  0  0
 33 59  1  0  0  0  0
M  END
$$$$
