CHEMBL3982058
 OpenBabel04072215373D

 54 57  0  0  0  0  0  0  0  0999 V2000
    2.5458    0.0287   -0.2444 C   0  0  0  0  0  0  0  0  0  0  0  0
    1.0469    0.0245   -0.1387 C   0  0  0  0  0  0  0  0  0  0  0  0
    0.3999    1.2747   -0.0820 C   0  0  0  0  0  0  0  0  0  0  0  0
   -0.9916    1.3880   -0.0105 C   0  0  0  0  0  0  0  0  0  0  0  0
   -1.6428    2.6464   -0.0257 N   0  0  0  0  0  0  0  0  0  0  0  0
   -1.0987    3.7889   -0.5855 C   0  0  0  0  0  0  0  0  0  0  0  0
   -0.0884    3.8129   -1.2833 O   0  0  0  0  0  0  0  0  0  0  0  0
   -1.8072    4.9265   -0.2300 N   0  0  0  0  0  0  0  0  0  0  0  0
   -1.4000    6.2039   -0.6869 C   0  0  0  0  0  0  0  0  0  0  0  0
   -1.3359    7.2578    0.2259 C   0  0  0  0  0  0  0  0  0  0  0  0
   -0.8629    8.5066   -0.1817 C   0  0  0  0  0  0  0  0  0  0  0  0
   -0.5052    8.7235   -1.5138 C   0  0  0  0  0  0  0  0  0  0  0  0
   -0.6115    7.6903   -2.4551 C   0  0  0  0  0  0  0  0  0  0  0  0
   -0.2747    7.9182   -3.9078 C   0  0  0  0  0  0  0  0  0  0  0  0
    0.0738    9.2076   -4.1854 F   0  0  0  0  0  0  0  0  0  0  0  0
    0.7625    7.1530   -4.3438 F   0  0  0  0  0  0  0  0  0  0  0  0
   -1.3225    7.6380   -4.7332 F   0  0  0  0  0  0  0  0  0  0  0  0
   -1.0464    6.4259   -2.0239 C   0  0  0  0  0  0  0  0  0  0  0  0
   -1.7485    0.2253    0.1059 C   0  0  0  0  0  0  0  0  0  0  0  0
   -1.1193   -1.0272    0.0909 C   0  0  0  0  0  0  0  0  0  0  0  0
    0.2718   -1.1429   -0.0713 C   0  0  0  0  0  0  0  0  0  0  0  0
    0.9010   -2.3793   -0.0819 O   0  0  0  0  0  0  0  0  0  0  0  0
    0.2910   -3.4132   -0.7923 C   0  0  0  0  0  0  0  0  0  0  0  0
    0.5427   -4.7154   -0.3975 C   0  0  0  0  0  0  0  0  0  0  0  0
   -0.0748   -5.7113   -1.1389 C   0  0  0  0  0  0  0  0  0  0  0  0
    0.1961   -7.0636   -0.8445 N   0  0  0  0  0  0  0  0  0  0  0  0
   -0.3904   -8.1263   -1.5046 C   0  0  0  0  0  0  0  0  0  0  0  0
   -1.3451   -8.0855   -2.2683 O   0  0  0  0  0  0  0  0  0  0  0  0
    0.1945   -9.4834   -1.2538 C   0  0  0  0  0  0  0  0  0  0  0  0
    0.2201  -10.0709    0.1356 C   0  0  0  0  0  0  0  0  0  0  0  0
    1.5081   -9.7744   -0.5776 C   0  0  0  0  0  0  0  0  0  0  0  0
   -0.8824   -5.4195   -2.1647 N   0  0  0  0  0  0  0  0  0  0  0  0
   -1.0456   -4.1340   -2.4736 C   0  0  0  0  0  0  0  0  0  0  0  0
   -0.4771   -3.1075   -1.8478 N   0  0  0  0  0  0  0  0  0  0  0  0
    2.9038    0.9978   -0.6171 H   0  0  0  0  0  0  0  0  0  0  0  0
    2.9005   -0.7261   -0.9509 H   0  0  0  0  0  0  0  0  0  0  0  0
    2.9973   -0.1344    0.7383 H   0  0  0  0  0  0  0  0  0  0  0  0
    1.0157    2.1721   -0.0978 H   0  0  0  0  0  0  0  0  0  0  0  0
   -2.6484    2.6467    0.0785 H   0  0  0  0  0  0  0  0  0  0  0  0
   -2.2019    4.8857    0.6991 H   0  0  0  0  0  0  0  0  0  0  0  0
   -1.5888    7.1068    1.2714 H   0  0  0  0  0  0  0  0  0  0  0  0
   -0.7596    9.3110    0.5425 H   0  0  0  0  0  0  0  0  0  0  0  0
   -0.1432    9.7052   -1.8157 H   0  0  0  0  0  0  0  0  0  0  0  0
   -1.1100    5.6125   -2.7470 H   0  0  0  0  0  0  0  0  0  0  0  0
   -2.8308    0.2622    0.1781 H   0  0  0  0  0  0  0  0  0  0  0  0
   -1.7364   -1.9178    0.1740 H   0  0  0  0  0  0  0  0  0  0  0  0
    1.1820   -4.9230    0.4474 H   0  0  0  0  0  0  0  0  0  0  0  0
    0.8888   -7.2592   -0.1380 H   0  0  0  0  0  0  0  0  0  0  0  0
   -0.0665  -10.1738   -2.0545 H   0  0  0  0  0  0  0  0  0  0  0  0
   -0.0844  -11.1064    0.2390 H   0  0  0  0  0  0  0  0  0  0  0  0
   -0.0648   -9.4447    0.9732 H   0  0  0  0  0  0  0  0  0  0  0  0
    2.0805  -10.6205   -0.9525 H   0  0  0  0  0  0  0  0  0  0  0  0
    2.1334   -8.9719   -0.2130 H   0  0  0  0  0  0  0  0  0  0  0  0
   -1.7007   -3.9144   -3.3140 H   0  0  0  0  0  0  0  0  0  0  0  0
  1  2  1  0  0  0  0
  1 35  1  0  0  0  0
  1 36  1  0  0  0  0
  1 37  1  0  0  0  0
  2  3  1  0  0  0  0
  2 21  2  0  0  0  0
  3  4  2  0  0  0  0
  3 38  1  0  0  0  0
  4  5  1  0  0  0  0
  4 19  1  0  0  0  0
  5  6  1  0  0  0  0
  5 39  1  0  0  0  0
  6  7  2  0  0  0  0
  6  8  1  0  0  0  0
  8  9  1  0  0  0  0
  8 40  1  0  0  0  0
  9 10  1  0  0  0  0
  9 18  2  0  0  0  0
 10 11  2  0  0  0  0
 10 41  1  0  0  0  0
 11 12  1  0  0  0  0
 11 42  1  0  0  0  0
 12 13  2  0  0  0  0
 12 43  1  0  0  0  0
 13 14  1  0  0  0  0
 13 18  1  0  0  0  0
 14 15  1  0  0  0  0
 14 16  1  0  0  0  0
 14 17  1  0  0  0  0
 18 44  1  0  0  0  0
 19 20  2  0  0  0  0
 19 45  1  0  0  0  0
 20 21  1  0  0  0  0
 20 46  1  0  0  0  0
 21 22  1  0  0  0  0
 22 23  1  0  0  0  0
 23 24  1  0  0  0  0
 23 34  2  0  0  0  0
 24 25  2  0  0  0  0
 24 47  1  0  0  0  0
 25 26  1  0  0  0  0
 25 32  1  0  0  0  0
 26 27  1  0  0  0  0
 26 48  1  0  0  0  0
 27 28  2  0  0  0  0
 27 29  1  0  0  0  0
 29 30  1  0  0  0  0
 29 31  1  0  0  0  0
 29 49  1  0  0  0  0
 30 31  1  0  0  0  0
 30 50  1  0  0  0  0
 30 51  1  0  0  0  0
 31 52  1  0  0  0  0
 31 53  1  0  0  0  0
 32 33  2  0  0  0  0
 33 34  1  0  0  0  0
 33 54  1  0  0  0  0
M  END
$$$$
