CHEMBL4079937
 OpenBabel04072215383D

 52 55  0  0  0  0  0  0  0  0999 V2000
    2.9658   -0.8797    0.9771 C   0  0  0  0  0  0  0  0  0  0  0  0
    2.5916    0.2643    1.8031 N   0  0  0  0  0  0  0  0  0  0  0  0
    3.4099    0.3297    3.0230 C   0  0  0  0  0  0  0  0  0  0  0  0
    4.8806    0.5851    2.7636 C   0  0  0  0  0  0  0  0  0  0  0  0
    5.2680    1.7116    2.0639 C   0  0  0  0  0  0  0  0  0  0  0  0
    6.6232    1.9355    1.9568 C   0  0  0  0  0  0  0  0  0  0  0  0
    7.1599    3.0602    1.3660 O   0  0  0  0  0  0  0  0  0  0  0  0
    6.5054    4.2707    1.4541 C   0  0  0  0  0  0  0  0  0  0  0  0
    5.7343    4.6851    2.5414 C   0  0  0  0  0  0  0  0  0  0  0  0
    5.0332    5.9023    2.5209 C   0  0  0  0  0  0  0  0  0  0  0  0
    5.1823    6.7375    1.3998 C   0  0  0  0  0  0  0  0  0  0  0  0
    6.0118    6.3655    0.3299 C   0  0  0  0  0  0  0  0  0  0  0  0
    5.9503    7.3920   -0.6433 C   0  0  0  0  0  0  0  0  0  0  0  0
    5.0301    8.3091   -0.2091 C   0  0  0  0  0  0  0  0  0  0  0  0
    4.5532    7.9335    1.0361 N   0  0  0  0  0  0  0  0  0  0  0  0
    3.4993    8.6112    1.6796 C   0  0  0  0  0  0  0  0  0  0  0  0
    2.5271    8.9117    1.0006 O   0  0  0  0  0  0  0  0  0  0  0  0
    3.8404    9.0040    2.9556 N   0  0  0  0  0  0  0  0  0  0  0  0
    2.9833    9.8094    3.7006 C   0  0  0  0  0  0  0  0  0  0  0  0
    3.3550   10.6412    4.7901 C   0  0  0  0  0  0  0  0  0  0  0  0
    2.1858   11.2613    5.1782 C   0  0  0  0  0  0  0  0  0  0  0  0
    1.8154   12.2665    6.2199 C   0  0  0  0  0  0  0  0  0  0  0  0
    1.1364   13.4941    5.6059 C   0  0  0  0  0  0  0  0  0  0  0  0
    0.9086   11.6413    7.2812 C   0  0  0  0  0  0  0  0  0  0  0  0
    1.1732   10.8017    4.3975 O   0  0  0  0  0  0  0  0  0  0  0  0
    1.6675    9.9053    3.4795 N   0  0  0  0  0  0  0  0  0  0  0  0
    6.6842    5.1267    0.3651 C   0  0  0  0  0  0  0  0  0  0  0  0
    7.5415    1.0497    2.3847 N   0  0  0  0  0  0  0  0  0  0  0  0
    7.0624   -0.0438    2.9905 C   0  0  0  0  0  0  0  0  0  0  0  0
    5.7717   -0.3131    3.2340 N   0  0  0  0  0  0  0  0  0  0  0  0
    2.3304   -0.9033    0.0871 H   0  0  0  0  0  0  0  0  0  0  0  0
    2.8332   -1.8228    1.5164 H   0  0  0  0  0  0  0  0  0  0  0  0
    4.0008   -0.8096    0.6273 H   0  0  0  0  0  0  0  0  0  0  0  0
    1.6155    0.1603    2.0788 H   0  0  0  0  0  0  0  0  0  0  0  0
    3.2819   -0.5814    3.6202 H   0  0  0  0  0  0  0  0  0  0  0  0
    3.0385    1.1567    3.6422 H   0  0  0  0  0  0  0  0  0  0  0  0
    4.5289    2.3837    1.6480 H   0  0  0  0  0  0  0  0  0  0  0  0
    5.6334    4.0493    3.4184 H   0  0  0  0  0  0  0  0  0  0  0  0
    4.3640    6.1539    3.3391 H   0  0  0  0  0  0  0  0  0  0  0  0
    6.4753    7.4248   -1.5892 H   0  0  0  0  0  0  0  0  0  0  0  0
    4.6509    9.2114   -0.6726 H   0  0  0  0  0  0  0  0  0  0  0  0
    4.8037    8.9390    3.2625 H   0  0  0  0  0  0  0  0  0  0  0  0
    4.3358   10.8041    5.2088 H   0  0  0  0  0  0  0  0  0  0  0  0
    2.7329   12.6065    6.7168 H   0  0  0  0  0  0  0  0  0  0  0  0
    0.2156   13.2272    5.0734 H   0  0  0  0  0  0  0  0  0  0  0  0
    1.7984   13.9961    4.8922 H   0  0  0  0  0  0  0  0  0  0  0  0
    0.8694   14.2205    6.3823 H   0  0  0  0  0  0  0  0  0  0  0  0
   -0.0387   11.2966    6.8503 H   0  0  0  0  0  0  0  0  0  0  0  0
    0.6731   12.3662    8.0683 H   0  0  0  0  0  0  0  0  0  0  0  0
    1.3927   10.7790    7.7523 H   0  0  0  0  0  0  0  0  0  0  0  0
    7.3062    4.8204   -0.4725 H   0  0  0  0  0  0  0  0  0  0  0  0
    7.7869   -0.7802    3.3210 H   0  0  0  0  0  0  0  0  0  0  0  0
  1  2  1  0  0  0  0
  1 31  1  0  0  0  0
  1 32  1  0  0  0  0
  1 33  1  0  0  0  0
  2  3  1  0  0  0  0
  2 34  1  0  0  0  0
  3  4  1  0  0  0  0
  3 35  1  0  0  0  0
  3 36  1  0  0  0  0
  4  5  1  0  0  0  0
  4 30  2  0  0  0  0
  5  6  2  0  0  0  0
  5 37  1  0  0  0  0
  6  7  1  0  0  0  0
  6 28  1  0  0  0  0
  7  8  1  0  0  0  0
  8  9  1  0  0  0  0
  8 27  2  0  0  0  0
  9 10  2  0  0  0  0
  9 38  1  0  0  0  0
 10 11  1  0  0  0  0
 10 39  1  0  0  0  0
 11 12  2  0  0  0  0
 11 15  1  0  0  0  0
 12 13  1  0  0  0  0
 12 27  1  0  0  0  0
 13 14  2  0  0  0  0
 13 40  1  0  0  0  0
 14 15  1  0  0  0  0
 14 41  1  0  0  0  0
 15 16  1  0  0  0  0
 16 17  2  0  0  0  0
 16 18  1  0  0  0  0
 18 19  1  0  0  0  0
 18 42  1  0  0  0  0
 19 20  1  0  0  0  0
 19 26  2  0  0  0  0
 20 21  2  0  0  0  0
 20 43  1  0  0  0  0
 21 22  1  0  0  0  0
 21 25  1  0  0  0  0
 22 23  1  0  0  0  0
 22 24  1  0  0  0  0
 22 44  1  0  0  0  0
 23 45  1  0  0  0  0
 23 46  1  0  0  0  0
 23 47  1  0  0  0  0
 24 48  1  0  0  0  0
 24 49  1  0  0  0  0
 24 50  1  0  0  0  0
 25 26  1  0  0  0  0
 27 51  1  0  0  0  0
 28 29  2  0  0  0  0
 29 30  1  0  0  0  0
 29 52  1  0  0  0  0
M  END
$$$$
