CHEMBL465130
 OpenBabel04072215383D

 59 63  0  0  0  0  0  0  0  0999 V2000
    0.9151   -9.2569   -1.2778 C   0  0  0  0  0  0  0  0  0  0  0  0
    0.0164   -8.1557   -1.6464 N   0  0  0  0  0  0  0  0  0  0  0  0
    0.0509   -6.8399   -1.1643 C   0  0  0  0  0  0  0  0  0  0  0  0
   -0.7646   -5.9855   -1.5222 O   0  0  0  0  0  0  0  0  0  0  0  0
    1.1245   -6.4590   -0.1753 C   0  0  0  0  0  0  0  0  0  0  0  0
    1.7192   -5.0784   -0.3826 C   0  0  0  0  0  0  0  0  0  0  0  0
    1.0975   -4.0472   -0.1232 O   0  0  0  0  0  0  0  0  0  0  0  0
    3.0546   -4.9681   -0.7009 N   0  0  0  0  0  0  0  0  0  0  0  0
    3.9357   -6.0008   -1.0352 C   0  0  0  0  0  0  0  0  0  0  0  0
    5.1315   -6.1188   -0.3290 C   0  0  0  0  0  0  0  0  0  0  0  0
    5.9847   -7.1946   -0.5889 C   0  0  0  0  0  0  0  0  0  0  0  0
    5.6751   -8.1270   -1.5863 C   0  0  0  0  0  0  0  0  0  0  0  0
    6.6099   -9.1231   -1.7412 O   0  0  0  0  0  0  0  0  0  0  0  0
    6.2769  -10.3022   -2.3642 C   0  0  0  0  0  0  0  0  0  0  0  0
    5.1444  -11.0424   -2.0373 C   0  0  0  0  0  0  0  0  0  0  0  0
    4.9097  -12.2224   -2.7147 C   0  0  0  0  0  0  0  0  0  0  0  0
    5.7055  -12.7539   -3.6614 N   0  0  0  0  0  0  0  0  0  0  0  0
    6.8434  -12.0575   -3.9358 C   0  0  0  0  0  0  0  0  0  0  0  0
    7.8372  -12.4374   -4.8896 C   0  0  0  0  0  0  0  0  0  0  0  0
    8.8932  -11.5542   -4.9232 C   0  0  0  0  0  0  0  0  0  0  0  0
   10.0733  -11.6902   -5.8224 C   0  0  0  0  0  0  0  0  0  0  0  0
   11.1787  -10.8679   -5.7950 C   0  0  0  0  0  0  0  0  0  0  0  0
   11.9887  -11.3290   -6.7925 N   0  0  0  0  0  0  0  0  0  0  0  0
   13.2757  -10.7946   -7.1477 C   0  0  0  0  0  0  0  0  0  0  0  0
   11.3515  -12.3768   -7.3891 C   0  0  0  0  0  0  0  0  0  0  0  0
   10.1984  -12.6315   -6.8119 N   0  0  0  0  0  0  0  0  0  0  0  0
    8.6879  -10.2762   -3.8174 S   0  0  0  0  0  0  0  0  0  0  0  0
    7.1624  -10.8619   -3.2969 C   0  0  0  0  0  0  0  0  0  0  0  0
    4.5180   -7.9389   -2.3458 C   0  0  0  0  0  0  0  0  0  0  0  0
    4.1995   -8.7551   -3.3601 F   0  0  0  0  0  0  0  0  0  0  0  0
    3.6394   -6.8962   -2.0624 C   0  0  0  0  0  0  0  0  0  0  0  0
   -1.0603   -8.5385   -2.5089 C   0  0  0  0  0  0  0  0  0  0  0  0
   -0.7931   -9.1604   -3.7343 C   0  0  0  0  0  0  0  0  0  0  0  0
   -1.8390   -9.5096   -4.5914 C   0  0  0  0  0  0  0  0  0  0  0  0
   -3.1597   -9.2723   -4.2151 C   0  0  0  0  0  0  0  0  0  0  0  0
   -3.4364   -8.6778   -2.9858 C   0  0  0  0  0  0  0  0  0  0  0  0
   -2.3905   -8.3012   -2.1405 C   0  0  0  0  0  0  0  0  0  0  0  0
    1.7255   -8.9662   -0.6156 H   0  0  0  0  0  0  0  0  0  0  0  0
    1.3666   -9.6969   -2.1713 H   0  0  0  0  0  0  0  0  0  0  0  0
    0.3282  -10.0194   -0.7538 H   0  0  0  0  0  0  0  0  0  0  0  0
    1.9257   -7.1834   -0.1058 H   0  0  0  0  0  0  0  0  0  0  0  0
    0.6659   -6.4633    0.8207 H   0  0  0  0  0  0  0  0  0  0  0  0
    3.4382   -4.0658   -0.4387 H   0  0  0  0  0  0  0  0  0  0  0  0
    5.3786   -5.4251    0.4711 H   0  0  0  0  0  0  0  0  0  0  0  0
    6.8936   -7.3141   -0.0022 H   0  0  0  0  0  0  0  0  0  0  0  0
    4.4453  -10.6985   -1.2834 H   0  0  0  0  0  0  0  0  0  0  0  0
    4.0138  -12.8027   -2.5016 H   0  0  0  0  0  0  0  0  0  0  0  0
    7.7732  -13.3258   -5.5106 H   0  0  0  0  0  0  0  0  0  0  0  0
   11.4489  -10.0296   -5.1687 H   0  0  0  0  0  0  0  0  0  0  0  0
   13.5630  -10.0283   -6.4244 H   0  0  0  0  0  0  0  0  0  0  0  0
   13.2053  -10.3538   -8.1461 H   0  0  0  0  0  0  0  0  0  0  0  0
   14.0075  -11.6063   -7.1330 H   0  0  0  0  0  0  0  0  0  0  0  0
   11.7675  -12.9135   -8.2378 H   0  0  0  0  0  0  0  0  0  0  0  0
    2.7489   -6.7808   -2.6739 H   0  0  0  0  0  0  0  0  0  0  0  0
    0.2281   -9.3195   -4.0678 H   0  0  0  0  0  0  0  0  0  0  0  0
   -1.6207   -9.9494   -5.5609 H   0  0  0  0  0  0  0  0  0  0  0  0
   -3.9728   -9.5388   -4.8852 H   0  0  0  0  0  0  0  0  0  0  0  0
   -4.4653   -8.4936   -2.6881 H   0  0  0  0  0  0  0  0  0  0  0  0
   -2.6250   -7.8332   -1.1876 H   0  0  0  0  0  0  0  0  0  0  0  0
  1  2  1  0  0  0  0
  1 38  1  0  0  0  0
  1 39  1  0  0  0  0
  1 40  1  0  0  0  0
  2  3  1  0  0  0  0
  2 32  1  0  0  0  0
  3  4  2  0  0  0  0
  3  5  1  0  0  0  0
  5  6  1  0  0  0  0
  5 41  1  0  0  0  0
  5 42  1  0  0  0  0
  6  7  2  0  0  0  0
  6  8  1  0  0  0  0
  8  9  1  0  0  0  0
  8 43  1  0  0  0  0
  9 10  1  0  0  0  0
  9 31  2  0  0  0  0
 10 11  2  0  0  0  0
 10 44  1  0  0  0  0
 11 12  1  0  0  0  0
 11 45  1  0  0  0  0
 12 13  1  0  0  0  0
 12 29  2  0  0  0  0
 13 14  1  0  0  0  0
 14 15  1  0  0  0  0
 14 28  2  0  0  0  0
 15 16  2  0  0  0  0
 15 46  1  0  0  0  0
 16 17  1  0  0  0  0
 16 47  1  0  0  0  0
 17 18  2  0  0  0  0
 18 19  1  0  0  0  0
 18 28  1  0  0  0  0
 19 20  2  0  0  0  0
 19 48  1  0  0  0  0
 20 21  1  0  0  0  0
 20 27  1  0  0  0  0
 21 22  2  0  0  0  0
 21 26  1  0  0  0  0
 22 23  1  0  0  0  0
 22 49  1  0  0  0  0
 23 24  1  0  0  0  0
 23 25  1  0  0  0  0
 24 50  1  0  0  0  0
 24 51  1  0  0  0  0
 24 52  1  0  0  0  0
 25 26  2  0  0  0  0
 25 53  1  0  0  0  0
 27 28  1  0  0  0  0
 29 30  1  0  0  0  0
 29 31  1  0  0  0  0
 31 54  1  0  0  0  0
 32 33  1  0  0  0  0
 32 37  2  0  0  0  0
 33 34  2  0  0  0  0
 33 55  1  0  0  0  0
 34 35  1  0  0  0  0
 34 56  1  0  0  0  0
 35 36  2  0  0  0  0
 35 57  1  0  0  0  0
 36 37  1  0  0  0  0
 36 58  1  0  0  0  0
 37 59  1  0  0  0  0
M  END
$$$$
