CHEMBL3690467
 OpenBabel04072215373D

 49 52  0  0  0  0  0  0  0  0999 V2000
    2.2742   -0.1863   -1.1944 C   0  0  0  0  0  0  0  0  0  0  0  0
    0.9159   -0.0697   -0.5667 C   0  0  0  0  0  0  0  0  0  0  0  0
    0.2665    1.1687   -0.5296 C   0  0  0  0  0  0  0  0  0  0  0  0
   -0.9961    1.2724    0.0412 C   0  0  0  0  0  0  0  0  0  0  0  0
   -1.5727    0.1287    0.5650 C   0  0  0  0  0  0  0  0  0  0  0  0
   -0.9751   -1.0819    0.5668 N   0  0  0  0  0  0  0  0  0  0  0  0
    0.2535   -1.1673    0.0025 C   0  0  0  0  0  0  0  0  0  0  0  0
    0.8865   -2.4987    0.0670 C   0  0  0  0  0  0  0  0  0  0  0  0
    1.7817   -2.8729    1.1542 C   0  0  0  0  0  0  0  0  0  0  0  0
    2.4649   -4.0260    1.0861 C   0  0  0  0  0  0  0  0  0  0  0  0
    2.2603   -4.9043    0.0166 N   0  0  0  0  0  0  0  0  0  0  0  0
    2.7967   -6.1647   -0.2657 C   0  0  0  0  0  0  0  0  0  0  0  0
    3.7003   -6.9674    0.5760 C   0  0  0  0  0  0  0  0  0  0  0  0
    3.6299   -6.8814    1.9724 C   0  0  0  0  0  0  0  0  0  0  0  0
    4.4564   -7.6476    2.7811 C   0  0  0  0  0  0  0  0  0  0  0  0
    5.3081   -8.5829    2.2067 C   0  0  0  0  0  0  0  0  0  0  0  0
    5.3500   -8.7697    0.8258 C   0  0  0  0  0  0  0  0  0  0  0  0
    6.1161   -9.8076    0.2231 N   0  0  0  0  0  0  0  0  0  0  0  0
    6.8264  -10.7705    0.9087 C   0  0  0  0  0  0  0  0  0  0  0  0
    6.9225  -10.8833    2.1287 O   0  0  0  0  0  0  0  0  0  0  0  0
    7.5147  -11.6387    0.1000 N   0  0  0  0  0  0  0  0  0  0  0  0
    8.2952  -12.7042    0.7519 C   0  0  0  0  0  0  0  0  0  0  0  0
    7.5297  -13.9734    1.1616 C   0  0  0  0  0  0  0  0  0  0  0  0
    6.2372  -13.9497    0.7671 F   0  0  0  0  0  0  0  0  0  0  0  0
    8.0987  -15.0579    0.5747 F   0  0  0  0  0  0  0  0  0  0  0  0
    7.5601  -14.1840    2.4952 F   0  0  0  0  0  0  0  0  0  0  0  0
    4.5781   -7.9219    0.0101 C   0  0  0  0  0  0  0  0  0  0  0  0
    2.2030   -6.5099   -1.4721 C   0  0  0  0  0  0  0  0  0  0  0  0
    1.3464   -5.5484   -1.9306 N   0  0  0  0  0  0  0  0  0  0  0  0
    1.3754   -4.6009   -1.0222 C   0  0  0  0  0  0  0  0  0  0  0  0
    0.6878   -3.3511   -0.9656 C   0  0  0  0  0  0  0  0  0  0  0  0
    2.5842    0.7604   -1.6495 H   0  0  0  0  0  0  0  0  0  0  0  0
    2.2655   -0.9375   -1.9907 H   0  0  0  0  0  0  0  0  0  0  0  0
    3.0245   -0.4553   -0.4446 H   0  0  0  0  0  0  0  0  0  0  0  0
    0.7398    2.0546   -0.9458 H   0  0  0  0  0  0  0  0  0  0  0  0
   -1.5181    2.2222    0.0742 H   0  0  0  0  0  0  0  0  0  0  0  0
   -2.5616    0.1583    1.0136 H   0  0  0  0  0  0  0  0  0  0  0  0
    1.8831   -2.1989    2.0001 H   0  0  0  0  0  0  0  0  0  0  0  0
    3.1685   -4.2948    1.8607 H   0  0  0  0  0  0  0  0  0  0  0  0
    2.9102   -6.2478    2.4731 H   0  0  0  0  0  0  0  0  0  0  0  0
    4.4083   -7.5547    3.8627 H   0  0  0  0  0  0  0  0  0  0  0  0
    5.8994   -9.1703    2.8949 H   0  0  0  0  0  0  0  0  0  0  0  0
    6.0729   -9.8905   -0.7774 H   0  0  0  0  0  0  0  0  0  0  0  0
    7.1733  -11.8007   -0.8358 H   0  0  0  0  0  0  0  0  0  0  0  0
    8.7735  -12.2880    1.6461 H   0  0  0  0  0  0  0  0  0  0  0  0
    9.0995  -12.9641    0.0579 H   0  0  0  0  0  0  0  0  0  0  0  0
    4.6339   -8.0189   -1.0715 H   0  0  0  0  0  0  0  0  0  0  0  0
    2.3334   -7.4337   -2.0223 H   0  0  0  0  0  0  0  0  0  0  0  0
    0.0306   -3.1042   -1.7928 H   0  0  0  0  0  0  0  0  0  0  0  0
  1  2  1  0  0  0  0
  1 32  1  0  0  0  0
  1 33  1  0  0  0  0
  1 34  1  0  0  0  0
  2  3  1  0  0  0  0
  2  7  2  0  0  0  0
  3  4  2  0  0  0  0
  3 35  1  0  0  0  0
  4  5  1  0  0  0  0
  4 36  1  0  0  0  0
  5  6  2  0  0  0  0
  5 37  1  0  0  0  0
  6  7  1  0  0  0  0
  7  8  1  0  0  0  0
  8  9  1  0  0  0  0
  8 31  2  0  0  0  0
  9 10  2  0  0  0  0
  9 38  1  0  0  0  0
 10 11  1  0  0  0  0
 10 39  1  0  0  0  0
 11 12  1  0  0  0  0
 11 30  1  0  0  0  0
 12 13  1  0  0  0  0
 12 28  2  0  0  0  0
 13 14  1  0  0  0  0
 13 27  2  0  0  0  0
 14 15  2  0  0  0  0
 14 40  1  0  0  0  0
 15 16  1  0  0  0  0
 15 41  1  0  0  0  0
 16 17  2  0  0  0  0
 16 42  1  0  0  0  0
 17 18  1  0  0  0  0
 17 27  1  0  0  0  0
 18 19  1  0  0  0  0
 18 43  1  0  0  0  0
 19 20  2  0  0  0  0
 19 21  1  0  0  0  0
 21 22  1  0  0  0  0
 21 44  1  0  0  0  0
 22 23  1  0  0  0  0
 22 45  1  0  0  0  0
 22 46  1  0  0  0  0
 23 24  1  0  0  0  0
 23 25  1  0  0  0  0
 23 26  1  0  0  0  0
 27 47  1  0  0  0  0
 28 29  1  0  0  0  0
 28 48  1  0  0  0  0
 29 30  2  0  0  0  0
 30 31  1  0  0  0  0
 31 49  1  0  0  0  0
M  END
$$$$
