CHEMBL4536596
 OpenBabel04072215383D

 49 53  0  0  0  0  0  0  0  0999 V2000
    2.3689   -0.0466    1.3035 C   0  0  0  0  0  0  0  0  0  0  0  0
    3.2873    0.3788    0.2980 O   0  0  0  0  0  0  0  0  0  0  0  0
    3.6391   -0.5989   -0.5928 C   0  0  0  0  0  0  0  0  0  0  0  0
    2.7983   -1.6359   -0.9888 C   0  0  0  0  0  0  0  0  0  0  0  0
    3.2646   -2.6177   -1.8620 C   0  0  0  0  0  0  0  0  0  0  0  0
    4.5845   -2.5973   -2.3234 C   0  0  0  0  0  0  0  0  0  0  0  0
    5.0998   -3.7065   -3.1252 C   0  0  0  0  0  0  0  0  0  0  0  0
    5.9187   -3.4581   -4.1572 N   0  0  0  0  0  0  0  0  0  0  0  0
    6.1568   -4.6506   -4.7404 N   0  0  0  0  0  0  0  0  0  0  0  0
    6.9507   -4.7276   -5.9277 C   0  0  0  0  0  0  0  0  0  0  0  0
    7.5125   -3.5560   -6.4642 C   0  0  0  0  0  0  0  0  0  0  0  0
    8.2692   -3.5947   -7.6397 C   0  0  0  0  0  0  0  0  0  0  0  0
    8.4720   -4.8063   -8.2936 C   0  0  0  0  0  0  0  0  0  0  0  0
    7.9255   -5.9762   -7.7685 C   0  0  0  0  0  0  0  0  0  0  0  0
    7.1691   -5.9443   -6.5887 C   0  0  0  0  0  0  0  0  0  0  0  0
    5.5321   -5.6736   -4.0511 C   0  0  0  0  0  0  0  0  0  0  0  0
    4.8351   -5.1082   -2.9863 C   0  0  0  0  0  0  0  0  0  0  0  0
    4.0243   -5.7917   -1.9535 C   0  0  0  0  0  0  0  0  0  0  0  0
    3.8451   -5.3019   -0.8460 O   0  0  0  0  0  0  0  0  0  0  0  0
    3.5468   -7.0115   -2.3672 N   0  0  0  0  0  0  0  0  0  0  0  0
    2.7580   -7.8403   -1.6084 C   0  0  0  0  0  0  0  0  0  0  0  0
    2.0902   -7.6542   -0.4981 N   0  0  0  0  0  0  0  0  0  0  0  0
    1.4988   -8.8602   -0.1072 C   0  0  0  0  0  0  0  0  0  0  0  0
    0.6870   -9.0929    1.0290 C   0  0  0  0  0  0  0  0  0  0  0  0
    0.2492  -10.3960    1.3256 C   0  0  0  0  0  0  0  0  0  0  0  0
    0.6060  -11.4600    0.5048 C   0  0  0  0  0  0  0  0  0  0  0  0
    0.1255  -13.0627    0.9141 Cl  0  0  0  0  0  0  0  0  0  0  0  0
    1.3572  -11.2551   -0.6509 C   0  0  0  0  0  0  0  0  0  0  0  0
    1.7792   -9.9475   -0.9408 C   0  0  0  0  0  0  0  0  0  0  0  0
    2.6761   -9.3993   -2.2995 S   0  0  0  0  0  0  0  0  0  0  0  0
    5.3969   -1.5043   -1.9941 C   0  0  0  0  0  0  0  0  0  0  0  0
    4.9210   -0.5069   -1.1362 C   0  0  0  0  0  0  0  0  0  0  0  0
    2.2971    0.7476    2.0516 H   0  0  0  0  0  0  0  0  0  0  0  0
    2.7223   -0.9536    1.8085 H   0  0  0  0  0  0  0  0  0  0  0  0
    1.3673   -0.1967    0.8878 H   0  0  0  0  0  0  0  0  0  0  0  0
    1.7789   -1.7201   -0.6298 H   0  0  0  0  0  0  0  0  0  0  0  0
    2.5854   -3.4167   -2.1445 H   0  0  0  0  0  0  0  0  0  0  0  0
    7.3687   -2.5908   -5.9760 H   0  0  0  0  0  0  0  0  0  0  0  0
    8.6952   -2.6785   -8.0425 H   0  0  0  0  0  0  0  0  0  0  0  0
    9.0550   -4.8391   -9.2110 H   0  0  0  0  0  0  0  0  0  0  0  0
    8.0860   -6.9195   -8.2844 H   0  0  0  0  0  0  0  0  0  0  0  0
    6.7625   -6.8831   -6.2284 H   0  0  0  0  0  0  0  0  0  0  0  0
    5.6555   -6.6990   -4.3559 H   0  0  0  0  0  0  0  0  0  0  0  0
    3.8287   -7.3842   -3.2561 H   0  0  0  0  0  0  0  0  0  0  0  0
    0.4168   -8.2683    1.6831 H   0  0  0  0  0  0  0  0  0  0  0  0
   -0.3590  -10.5731    2.2109 H   0  0  0  0  0  0  0  0  0  0  0  0
    1.6257  -12.0804   -1.3025 H   0  0  0  0  0  0  0  0  0  0  0  0
    6.4108   -1.4362   -2.3828 H   0  0  0  0  0  0  0  0  0  0  0  0
    5.5651    0.3257   -0.8666 H   0  0  0  0  0  0  0  0  0  0  0  0
  1  2  1  0  0  0  0
  1 33  1  0  0  0  0
  1 34  1  0  0  0  0
  1 35  1  0  0  0  0
  2  3  1  0  0  0  0
  3  4  1  0  0  0  0
  3 32  2  0  0  0  0
  4  5  2  0  0  0  0
  4 36  1  0  0  0  0
  5  6  1  0  0  0  0
  5 37  1  0  0  0  0
  6  7  1  0  0  0  0
  6 31  2  0  0  0  0
  7  8  2  0  0  0  0
  7 17  1  0  0  0  0
  8  9  1  0  0  0  0
  9 10  1  0  0  0  0
  9 16  1  0  0  0  0
 10 11  1  0  0  0  0
 10 15  2  0  0  0  0
 11 12  2  0  0  0  0
 11 38  1  0  0  0  0
 12 13  1  0  0  0  0
 12 39  1  0  0  0  0
 13 14  2  0  0  0  0
 13 40  1  0  0  0  0
 14 15  1  0  0  0  0
 14 41  1  0  0  0  0
 15 42  1  0  0  0  0
 16 17  2  0  0  0  0
 16 43  1  0  0  0  0
 17 18  1  0  0  0  0
 18 19  2  0  0  0  0
 18 20  1  0  0  0  0
 20 21  1  0  0  0  0
 20 44  1  0  0  0  0
 21 22  2  0  0  0  0
 21 30  1  0  0  0  0
 22 23  1  0  0  0  0
 23 24  1  0  0  0  0
 23 29  2  0  0  0  0
 24 25  2  0  0  0  0
 24 45  1  0  0  0  0
 25 26  1  0  0  0  0
 25 46  1  0  0  0  0
 26 27  1  0  0  0  0
 26 28  2  0  0  0  0
 28 29  1  0  0  0  0
 28 47  1  0  0  0  0
 29 30  1  0  0  0  0
 31 32  1  0  0  0  0
 31 48  1  0  0  0  0
 32 49  1  0  0  0  0
M  END
$$$$
