CHEMBL1093099
 OpenBabel04072215363D

 35 38  0  0  0  0  0  0  0  0999 V2000
    1.1327    0.1567   -0.1185 N   0  0  0  0  0  0  0  0  0  0  0  0
    2.5121    0.1107   -0.0689 C   0  0  0  0  0  0  0  0  0  0  0  0
    3.0717   -1.1035   -0.0741 N   0  0  0  0  0  0  0  0  0  0  0  0
    4.4188   -1.2243   -0.0599 C   0  0  0  0  0  0  0  0  0  0  0  0
    4.8965   -2.5178   -0.1255 N   0  0  0  0  0  0  0  0  0  0  0  0
    5.2088   -0.0614    0.0048 C   0  0  0  0  0  0  0  0  0  0  0  0
    4.4867    1.1221    0.0360 C   0  0  0  0  0  0  0  0  0  0  0  0
    3.1571    1.2737    0.0147 N   0  0  0  0  0  0  0  0  0  0  0  0
    5.3570    2.1654    0.0800 N   0  0  0  0  0  0  0  0  0  0  0  0
    6.6524    1.7119    0.0677 C   0  0  0  0  0  0  0  0  0  0  0  0
    7.8397    2.4565    0.0709 C   0  0  0  0  0  0  0  0  0  0  0  0
    9.0465    1.7635    0.0555 C   0  0  0  0  0  0  0  0  0  0  0  0
    9.0618    0.3746    0.0656 C   0  0  0  0  0  0  0  0  0  0  0  0
    7.8659   -0.3663    0.0803 C   0  0  0  0  0  0  0  0  0  0  0  0
    7.9721   -2.1359    0.1182 S   0  0  0  0  0  0  0  0  0  0  0  0
    8.0073   -2.5359    1.8614 C   0  0  0  0  0  0  0  0  0  0  0  0
    7.4383   -1.7344    2.8576 C   0  0  0  0  0  0  0  0  0  0  0  0
    7.4786   -2.1278    4.1984 C   0  0  0  0  0  0  0  0  0  0  0  0
    8.0788   -3.3322    4.5561 C   0  0  0  0  0  0  0  0  0  0  0  0
    8.6308   -4.1489    3.5732 C   0  0  0  0  0  0  0  0  0  0  0  0
    8.5916   -3.7540    2.2334 C   0  0  0  0  0  0  0  0  0  0  0  0
    6.6110    0.3061    0.0486 C   0  0  0  0  0  0  0  0  0  0  0  0
    0.7535   -0.7194    0.2121 H   0  0  0  0  0  0  0  0  0  0  0  0
    0.7952    1.0085    0.3052 H   0  0  0  0  0  0  0  0  0  0  0  0
    4.2009   -3.2062    0.1317 H   0  0  0  0  0  0  0  0  0  0  0  0
    5.8455   -2.6666    0.1891 H   0  0  0  0  0  0  0  0  0  0  0  0
    5.0705    3.1321    0.0975 H   0  0  0  0  0  0  0  0  0  0  0  0
    7.8271    3.5428    0.0735 H   0  0  0  0  0  0  0  0  0  0  0  0
    9.9845    2.3141    0.0391 H   0  0  0  0  0  0  0  0  0  0  0  0
   10.0208   -0.1403    0.0610 H   0  0  0  0  0  0  0  0  0  0  0  0
    6.9470   -0.7965    2.6188 H   0  0  0  0  0  0  0  0  0  0  0  0
    7.0360   -1.4924    4.9616 H   0  0  0  0  0  0  0  0  0  0  0  0
    8.1109   -3.6357    5.5995 H   0  0  0  0  0  0  0  0  0  0  0  0
    9.0903   -5.0952    3.8468 H   0  0  0  0  0  0  0  0  0  0  0  0
    9.0216   -4.4117    1.4806 H   0  0  0  0  0  0  0  0  0  0  0  0
  1  2  1  0  0  0  0
  1 23  1  0  0  0  0
  1 24  1  0  0  0  0
  2  3  1  0  0  0  0
  2  8  2  0  0  0  0
  3  4  2  0  0  0  0
  4  5  1  0  0  0  0
  4  6  1  0  0  0  0
  5 25  1  0  0  0  0
  5 26  1  0  0  0  0
  6  7  2  0  0  0  0
  6 22  1  0  0  0  0
  7  8  1  0  0  0  0
  7  9  1  0  0  0  0
  9 10  1  0  0  0  0
  9 27  1  0  0  0  0
 10 11  1  0  0  0  0
 10 22  2  0  0  0  0
 11 12  2  0  0  0  0
 11 28  1  0  0  0  0
 12 13  1  0  0  0  0
 12 29  1  0  0  0  0
 13 14  2  0  0  0  0
 13 30  1  0  0  0  0
 14 15  1  0  0  0  0
 14 22  1  0  0  0  0
 15 16  1  0  0  0  0
 16 17  1  0  0  0  0
 16 21  2  0  0  0  0
 17 18  2  0  0  0  0
 17 31  1  0  0  0  0
 18 19  1  0  0  0  0
 18 32  1  0  0  0  0
 19 20  2  0  0  0  0
 19 33  1  0  0  0  0
 20 21  1  0  0  0  0
 20 34  1  0  0  0  0
 21 35  1  0  0  0  0
M  END
$$$$
