CHEMBL1681960
 OpenBabel04072215363D

 40 41  0  0  0  0  0  0  0  0999 V2000
    6.8080   -0.5109   -2.4668 C   0  0  0  0  0  0  0  0  0  0  0  0
    5.8288   -1.0166   -1.5396 N   0  0  0  0  0  0  0  0  0  0  0  0
    5.7224   -0.4943   -0.2680 C   0  0  0  0  0  0  0  0  0  0  0  0
    6.4277    0.4219    0.1448 O   0  0  0  0  0  0  0  0  0  0  0  0
    4.6368   -1.1332    0.5733 C   0  0  0  0  0  0  0  0  0  0  0  0
    5.1297   -2.2675    1.4357 C   0  0  0  0  0  0  0  0  0  0  0  0
    5.7377   -1.9913    2.6653 C   0  0  0  0  0  0  0  0  0  0  0  0
    6.1061   -3.0298    3.5201 C   0  0  0  0  0  0  0  0  0  0  0  0
    5.8367   -4.3530    3.1690 C   0  0  0  0  0  0  0  0  0  0  0  0
    6.1004   -5.4116    4.0156 O   0  0  0  0  0  0  0  0  0  0  0  0
    5.6414   -5.3141    5.3316 C   0  0  0  0  0  0  0  0  0  0  0  0
    4.6957   -4.3909    5.6183 N   0  0  0  0  0  0  0  0  0  0  0  0
    4.3264   -4.3021    6.8971 C   0  0  0  0  0  0  0  0  0  0  0  0
    4.7759   -5.0706    7.8937 N   0  0  0  0  0  0  0  0  0  0  0  0
    5.6794   -6.0129    7.5706 C   0  0  0  0  0  0  0  0  0  0  0  0
    5.9887   -6.8824    8.6118 N   0  0  0  0  0  0  0  0  0  0  0  0
    6.1654   -6.1747    6.2784 C   0  0  0  0  0  0  0  0  0  0  0  0
    7.2146   -7.1483    5.9296 C   0  0  0  0  0  0  0  0  0  0  0  0
    7.8543   -7.8207    6.8364 N   0  0  0  0  0  0  0  0  0  0  0  0
    8.7846   -8.6672    6.2221 O   0  0  0  0  0  0  0  0  0  0  0  0
    9.3676   -9.4886    7.2290 C   0  0  0  0  0  0  0  0  0  0  0  0
    5.3193   -4.6452    1.9070 C   0  0  0  0  0  0  0  0  0  0  0  0
    4.9669   -3.6040    1.0414 C   0  0  0  0  0  0  0  0  0  0  0  0
    6.7508   -1.0925   -3.3896 H   0  0  0  0  0  0  0  0  0  0  0  0
    7.8052   -0.5982   -2.0279 H   0  0  0  0  0  0  0  0  0  0  0  0
    6.5933    0.5409   -2.6750 H   0  0  0  0  0  0  0  0  0  0  0  0
    5.3201   -1.8578   -1.7752 H   0  0  0  0  0  0  0  0  0  0  0  0
    3.8222   -1.4769   -0.0734 H   0  0  0  0  0  0  0  0  0  0  0  0
    4.1891   -0.3518    1.2035 H   0  0  0  0  0  0  0  0  0  0  0  0
    5.9019   -0.9631    2.9805 H   0  0  0  0  0  0  0  0  0  0  0  0
    6.5522   -2.7916    4.4812 H   0  0  0  0  0  0  0  0  0  0  0  0
    3.6003   -3.5375    7.1502 H   0  0  0  0  0  0  0  0  0  0  0  0
    5.6642   -6.5087    9.4959 H   0  0  0  0  0  0  0  0  0  0  0  0
    6.9607   -7.1889    8.5931 H   0  0  0  0  0  0  0  0  0  0  0  0
    7.4621   -7.2810    4.8614 H   0  0  0  0  0  0  0  0  0  0  0  0
   10.0919  -10.1575    6.7576 H   0  0  0  0  0  0  0  0  0  0  0  0
    8.5964  -10.0926    7.7185 H   0  0  0  0  0  0  0  0  0  0  0  0
    9.8859   -8.8692    7.9677 H   0  0  0  0  0  0  0  0  0  0  0  0
    5.1593   -5.6770    1.6050 H   0  0  0  0  0  0  0  0  0  0  0  0
    4.5335   -3.8469    0.0740 H   0  0  0  0  0  0  0  0  0  0  0  0
  1  2  1  0  0  0  0
  1 24  1  0  0  0  0
  1 25  1  0  0  0  0
  1 26  1  0  0  0  0
  2  3  1  0  0  0  0
  2 27  1  0  0  0  0
  3  4  2  0  0  0  0
  3  5  1  0  0  0  0
  5  6  1  0  0  0  0
  5 28  1  0  0  0  0
  5 29  1  0  0  0  0
  6  7  1  0  0  0  0
  6 23  2  0  0  0  0
  7  8  2  0  0  0  0
  7 30  1  0  0  0  0
  8  9  1  0  0  0  0
  8 31  1  0  0  0  0
  9 10  1  0  0  0  0
  9 22  2  0  0  0  0
 10 11  1  0  0  0  0
 11 12  1  0  0  0  0
 11 17  2  0  0  0  0
 12 13  2  0  0  0  0
 13 14  1  0  0  0  0
 13 32  1  0  0  0  0
 14 15  2  0  0  0  0
 15 16  1  0  0  0  0
 15 17  1  0  0  0  0
 16 33  1  0  0  0  0
 16 34  1  0  0  0  0
 17 18  1  0  0  0  0
 18 19  2  0  0  0  0
 18 35  1  0  0  0  0
 19 20  1  0  0  0  0
 20 21  1  0  0  0  0
 21 36  1  0  0  0  0
 21 37  1  0  0  0  0
 21 38  1  0  0  0  0
 22 23  1  0  0  0  0
 22 39  1  0  0  0  0
 23 40  1  0  0  0  0
M  END
$$$$
