CHEMBL3896720
 OpenBabel04072215373D

 60 64  0  0  0  0  0  0  0  0999 V2000
    0.5244    3.3241    2.2829 C   0  0  0  0  0  0  0  0  0  0  0  0
    1.8836    3.7663    2.1838 O   0  0  0  0  0  0  0  0  0  0  0  0
    2.8330    2.8226    1.8561 C   0  0  0  0  0  0  0  0  0  0  0  0
    2.5390    1.4750    1.6438 C   0  0  0  0  0  0  0  0  0  0  0  0
    3.5468    0.6041    1.2419 C   0  0  0  0  0  0  0  0  0  0  0  0
    3.3789   -0.7233    0.9486 O   0  0  0  0  0  0  0  0  0  0  0  0
    2.1129   -1.2993    1.2519 C   0  0  0  0  0  0  0  0  0  0  0  0
    4.8506    1.0828    1.0592 C   0  0  0  0  0  0  0  0  0  0  0  0
    5.2092    2.4256    1.2759 C   0  0  0  0  0  0  0  0  0  0  0  0
    6.4907    2.9191    0.8961 N   0  0  0  0  0  0  0  0  0  0  0  0
    7.1033    2.2627   -0.3416 C   0  0  0  0  0  0  0  0  0  0  0  0
    6.2947    2.3363   -1.6537 C   0  0  0  0  0  0  0  0  0  0  0  0
    6.9722    1.6065   -2.7368 N   0  0  0  0  0  0  0  0  0  0  0  0
    6.7065    0.3091   -3.1044 C   0  0  0  0  0  0  0  0  0  0  0  0
    7.5430   -0.0325   -4.1429 C   0  0  0  0  0  0  0  0  0  0  0  0
    8.3429    1.0997   -4.4258 C   0  0  0  0  0  0  0  0  0  0  0  0
    7.9628    2.0991   -3.5526 C   0  0  0  0  0  0  0  0  0  0  0  0
    7.5569    3.5306    1.6668 C   0  0  0  0  0  0  0  0  0  0  0  0
    8.2468    4.5272    0.9740 C   0  0  0  0  0  0  0  0  0  0  0  0
    9.5651    4.7686    1.2515 C   0  0  0  0  0  0  0  0  0  0  0  0
   10.2099    4.2165    2.3359 C   0  0  0  0  0  0  0  0  0  0  0  0
   11.5218    4.4250    2.3339 N   0  0  0  0  0  0  0  0  0  0  0  0
   12.1683    4.1859    3.4734 C   0  0  0  0  0  0  0  0  0  0  0  0
   11.5037    3.8301    4.6370 C   0  0  0  0  0  0  0  0  0  0  0  0
   12.1953    4.2406    5.8609 C   0  0  0  0  0  0  0  0  0  0  0  0
   12.9409    3.5354    6.8351 C   0  0  0  0  0  0  0  0  0  0  0  0
   13.6518    4.3355    7.6418 N   0  0  0  0  0  0  0  0  0  0  0  0
   13.3873    5.5726    7.1852 N   0  0  0  0  0  0  0  0  0  0  0  0
   13.8878    6.7419    7.8747 C   0  0  0  0  0  0  0  0  0  0  0  0
   12.6156    5.5553    6.0572 C   0  0  0  0  0  0  0  0  0  0  0  0
   10.1720    3.4235    4.5723 N   0  0  0  0  0  0  0  0  0  0  0  0
    9.4801    3.5569    3.3493 C   0  0  0  0  0  0  0  0  0  0  0  0
    8.1347    3.1270    2.9145 C   0  0  0  0  0  0  0  0  0  0  0  0
    4.1658    3.2862    1.6898 C   0  0  0  0  0  0  0  0  0  0  0  0
   -0.1183    4.1985    2.4401 H   0  0  0  0  0  0  0  0  0  0  0  0
    0.3905    2.6581    3.1433 H   0  0  0  0  0  0  0  0  0  0  0  0
    0.1795    2.8390    1.3612 H   0  0  0  0  0  0  0  0  0  0  0  0
    1.5307    1.1040    1.7632 H   0  0  0  0  0  0  0  0  0  0  0  0
    2.1763   -2.3722    1.0488 H   0  0  0  0  0  0  0  0  0  0  0  0
    1.3271   -0.8851    0.6110 H   0  0  0  0  0  0  0  0  0  0  0  0
    1.8657   -1.1744    2.3115 H   0  0  0  0  0  0  0  0  0  0  0  0
    5.5890    0.3631    0.7171 H   0  0  0  0  0  0  0  0  0  0  0  0
    7.3689    1.2245   -0.1027 H   0  0  0  0  0  0  0  0  0  0  0  0
    8.0654    2.7281   -0.5915 H   0  0  0  0  0  0  0  0  0  0  0  0
    6.1761    3.3698   -2.0014 H   0  0  0  0  0  0  0  0  0  0  0  0
    5.2941    1.9016   -1.5680 H   0  0  0  0  0  0  0  0  0  0  0  0
    5.9451   -0.2666   -2.6026 H   0  0  0  0  0  0  0  0  0  0  0  0
    7.5754   -0.9922   -4.6477 H   0  0  0  0  0  0  0  0  0  0  0  0
    9.1074    1.1769   -5.1906 H   0  0  0  0  0  0  0  0  0  0  0  0
    8.3265    3.1128   -3.4541 H   0  0  0  0  0  0  0  0  0  0  0  0
    7.8026    4.9873    0.0978 H   0  0  0  0  0  0  0  0  0  0  0  0
   10.1453    5.4007    0.5794 H   0  0  0  0  0  0  0  0  0  0  0  0
   13.2268    4.4141    3.4641 H   0  0  0  0  0  0  0  0  0  0  0  0
   13.0428    2.4661    6.9706 H   0  0  0  0  0  0  0  0  0  0  0  0
   14.2121    6.4661    8.8823 H   0  0  0  0  0  0  0  0  0  0  0  0
   13.0758    7.4718    7.9458 H   0  0  0  0  0  0  0  0  0  0  0  0
   14.7261    7.1681    7.3154 H   0  0  0  0  0  0  0  0  0  0  0  0
   12.4464    6.4612    5.4895 H   0  0  0  0  0  0  0  0  0  0  0  0
    7.5910    2.4385    3.5572 H   0  0  0  0  0  0  0  0  0  0  0  0
    4.3583    4.3501    1.8106 H   0  0  0  0  0  0  0  0  0  0  0  0
  1  2  1  0  0  0  0
  1 35  1  0  0  0  0
  1 36  1  0  0  0  0
  1 37  1  0  0  0  0
  2  3  1  0  0  0  0
  3  4  1  0  0  0  0
  3 34  2  0  0  0  0
  4  5  2  0  0  0  0
  4 38  1  0  0  0  0
  5  6  1  0  0  0  0
  5  8  1  0  0  0  0
  6  7  1  0  0  0  0
  7 39  1  0  0  0  0
  7 40  1  0  0  0  0
  7 41  1  0  0  0  0
  8  9  2  0  0  0  0
  8 42  1  0  0  0  0
  9 10  1  0  0  0  0
  9 34  1  0  0  0  0
 10 11  1  0  0  0  0
 10 18  1  0  0  0  0
 11 12  1  0  0  0  0
 11 43  1  0  0  0  0
 11 44  1  0  0  0  0
 12 13  1  0  0  0  0
 12 45  1  0  0  0  0
 12 46  1  0  0  0  0
 13 14  1  0  0  0  0
 13 17  1  0  0  0  0
 14 15  2  0  0  0  0
 14 47  1  0  0  0  0
 15 16  1  0  0  0  0
 15 48  1  0  0  0  0
 16 17  2  0  0  0  0
 16 49  1  0  0  0  0
 17 50  1  0  0  0  0
 18 19  1  0  0  0  0
 18 33  2  0  0  0  0
 19 20  2  0  0  0  0
 19 51  1  0  0  0  0
 20 21  1  0  0  0  0
 20 52  1  0  0  0  0
 21 22  1  0  0  0  0
 21 32  2  0  0  0  0
 22 23  2  0  0  0  0
 23 24  1  0  0  0  0
 23 53  1  0  0  0  0
 24 25  1  0  0  0  0
 24 31  2  0  0  0  0
 25 26  1  0  0  0  0
 25 30  2  0  0  0  0
 26 27  2  0  0  0  0
 26 54  1  0  0  0  0
 27 28  1  0  0  0  0
 28 29  1  0  0  0  0
 28 30  1  0  0  0  0
 29 55  1  0  0  0  0
 29 56  1  0  0  0  0
 29 57  1  0  0  0  0
 30 58  1  0  0  0  0
 31 32  1  0  0  0  0
 32 33  1  0  0  0  0
 33 59  1  0  0  0  0
 34 60  1  0  0  0  0
M  END
$$$$
