CHEMBL1978167
 OpenBabel04072215363D

 31 34  0  0  0  0  0  0  0  0999 V2000
    2.4457    1.2267    0.0233 C   0  0  0  0  0  0  0  0  0  0  0  0
    1.5257    0.1109    0.0386 N   0  0  0  0  0  0  0  0  0  0  0  0
    1.8972   -1.2061    0.0506 C   0  0  0  0  0  0  0  0  0  0  0  0
    0.7540   -1.9739   -0.0124 C   0  0  0  0  0  0  0  0  0  0  0  0
    0.7787   -3.4641   -0.0607 C   0  0  0  0  0  0  0  0  0  0  0  0
    1.8986   -4.2812   -0.0339 C   0  0  0  0  0  0  0  0  0  0  0  0
    1.4501   -5.6223   -0.0520 C   0  0  0  0  0  0  0  0  0  0  0  0
    2.1422   -6.7912   -0.0010 N   0  0  0  0  0  0  0  0  0  0  0  0
    1.3354   -7.8791   -0.0136 C   0  0  0  0  0  0  0  0  0  0  0  0
    2.1591   -9.5861    0.1031 Br  0  0  0  0  0  0  0  0  0  0  0  0
   -0.0544   -7.8127   -0.0892 C   0  0  0  0  0  0  0  0  0  0  0  0
   -0.7658   -6.6561   -0.1534 N   0  0  0  0  0  0  0  0  0  0  0  0
    0.0612   -5.5909   -0.1225 C   0  0  0  0  0  0  0  0  0  0  0  0
   -0.3208   -4.2817   -0.1434 N   0  0  0  0  0  0  0  0  0  0  0  0
   -0.3662   -1.0813   -0.0144 C   0  0  0  0  0  0  0  0  0  0  0  0
   -1.7725   -1.2274   -0.0409 C   0  0  0  0  0  0  0  0  0  0  0  0
   -2.6004   -0.0984   -0.0425 C   0  0  0  0  0  0  0  0  0  0  0  0
   -2.0549    1.1774   -0.0151 C   0  0  0  0  0  0  0  0  0  0  0  0
   -0.6712    1.3604    0.0165 C   0  0  0  0  0  0  0  0  0  0  0  0
    0.1520    0.2214    0.0166 C   0  0  0  0  0  0  0  0  0  0  0  0
    3.4739    0.8558    0.0392 H   0  0  0  0  0  0  0  0  0  0  0  0
    2.2602    1.8434    0.9065 H   0  0  0  0  0  0  0  0  0  0  0  0
    2.2750    1.7987   -0.8918 H   0  0  0  0  0  0  0  0  0  0  0  0
    2.9409   -1.4854    0.0852 H   0  0  0  0  0  0  0  0  0  0  0  0
    2.9289   -3.9624    0.0176 H   0  0  0  0  0  0  0  0  0  0  0  0
   -0.6592   -8.7141   -0.0956 H   0  0  0  0  0  0  0  0  0  0  0  0
   -1.2828   -3.9900   -0.1959 H   0  0  0  0  0  0  0  0  0  0  0  0
   -2.2418   -2.2027   -0.0566 H   0  0  0  0  0  0  0  0  0  0  0  0
   -3.6798   -0.2247   -0.0647 H   0  0  0  0  0  0  0  0  0  0  0  0
   -2.7104    2.0449   -0.0178 H   0  0  0  0  0  0  0  0  0  0  0  0
   -0.2525    2.3613    0.0399 H   0  0  0  0  0  0  0  0  0  0  0  0
  1  2  1  0  0  0  0
  1 21  1  0  0  0  0
  1 22  1  0  0  0  0
  1 23  1  0  0  0  0
  2  3  1  0  0  0  0
  2 20  1  0  0  0  0
  3  4  2  0  0  0  0
  3 24  1  0  0  0  0
  4  5  1  0  0  0  0
  4 15  1  0  0  0  0
  5  6  2  0  0  0  0
  5 14  1  0  0  0  0
  6  7  1  0  0  0  0
  6 25  1  0  0  0  0
  7  8  1  0  0  0  0
  7 13  2  0  0  0  0
  8  9  2  0  0  0  0
  9 10  1  0  0  0  0
  9 11  1  0  0  0  0
 11 12  2  0  0  0  0
 11 26  1  0  0  0  0
 12 13  1  0  0  0  0
 13 14  1  0  0  0  0
 14 27  1  0  0  0  0
 15 16  1  0  0  0  0
 15 20  2  0  0  0  0
 16 17  2  0  0  0  0
 16 28  1  0  0  0  0
 17 18  1  0  0  0  0
 17 29  1  0  0  0  0
 18 19  2  0  0  0  0
 18 30  1  0  0  0  0
 19 20  1  0  0  0  0
 19 31  1  0  0  0  0
M  END
$$$$
