CHEMBL88606
 OpenBabel04072215383D

 36 39  0  0  0  0  0  0  0  0999 V2000
    1.3337   -0.0807   -1.7188 O   0  0  0  0  0  0  0  0  0  0  0  0
    2.4904   -0.2271   -1.3729 C   0  0  0  0  0  0  0  0  0  0  0  0
    3.5345    0.6504   -1.6236 N   0  0  0  0  0  0  0  0  0  0  0  0
    4.7476    0.1375   -1.1812 C   0  0  0  0  0  0  0  0  0  0  0  0
    5.9899    0.7253   -1.2952 C   0  0  0  0  0  0  0  0  0  0  0  0
    7.0839    0.0171   -0.7887 C   0  0  0  0  0  0  0  0  0  0  0  0
    6.9045   -1.2431   -0.1913 C   0  0  0  0  0  0  0  0  0  0  0  0
    8.4064   -2.1763    0.4827 Br  0  0  0  0  0  0  0  0  0  0  0  0
    5.6393   -1.8215   -0.0829 C   0  0  0  0  0  0  0  0  0  0  0  0
    4.5622   -1.1143   -0.5864 C   0  0  0  0  0  0  0  0  0  0  0  0
    3.1201   -1.3945   -0.6504 C   0  0  0  0  0  0  0  0  0  0  0  0
    2.5642   -2.4815   -0.0915 C   0  0  0  0  0  0  0  0  0  0  0  0
    1.1893   -2.8057   -0.0108 C   0  0  0  0  0  0  0  0  0  0  0  0
    0.4922   -3.5450    0.9306 C   0  0  0  0  0  0  0  0  0  0  0  0
   -0.8681   -3.5586    0.5495 C   0  0  0  0  0  0  0  0  0  0  0  0
   -0.9550   -2.8765   -0.6440 C   0  0  0  0  0  0  0  0  0  0  0  0
    0.2873   -2.4125   -0.9724 N   0  0  0  0  0  0  0  0  0  0  0  0
   -2.1880   -2.6503   -1.4387 C   0  0  0  0  0  0  0  0  0  0  0  0
   -3.4129   -2.8498   -0.5290 C   0  0  0  0  0  0  0  0  0  0  0  0
   -3.2936   -4.1286    0.3256 C   0  0  0  0  0  0  0  0  0  0  0  0
   -2.0599   -4.1113    1.2498 C   0  0  0  0  0  0  0  0  0  0  0  0
    3.4020    1.5279   -2.1023 H   0  0  0  0  0  0  0  0  0  0  0  0
    6.1219    1.6956   -1.7595 H   0  0  0  0  0  0  0  0  0  0  0  0
    8.0794    0.4488   -0.8634 H   0  0  0  0  0  0  0  0  0  0  0  0
    5.5095   -2.7947    0.3796 H   0  0  0  0  0  0  0  0  0  0  0  0
    3.2142   -3.1841    0.4258 H   0  0  0  0  0  0  0  0  0  0  0  0
    0.9171   -3.9887    1.8218 H   0  0  0  0  0  0  0  0  0  0  0  0
    0.4932   -1.8018   -1.7567 H   0  0  0  0  0  0  0  0  0  0  0  0
   -2.2201   -3.3750   -2.2618 H   0  0  0  0  0  0  0  0  0  0  0  0
   -2.2006   -1.6468   -1.8765 H   0  0  0  0  0  0  0  0  0  0  0  0
   -4.3197   -2.8923   -1.1417 H   0  0  0  0  0  0  0  0  0  0  0  0
   -3.5144   -1.9841    0.1386 H   0  0  0  0  0  0  0  0  0  0  0  0
   -3.2300   -4.9953   -0.3446 H   0  0  0  0  0  0  0  0  0  0  0  0
   -4.1977   -4.2582    0.9307 H   0  0  0  0  0  0  0  0  0  0  0  0
   -1.8564   -5.1226    1.6189 H   0  0  0  0  0  0  0  0  0  0  0  0
   -2.2722   -3.4801    2.1218 H   0  0  0  0  0  0  0  0  0  0  0  0
  1  2  2  0  0  0  0
  2  3  1  0  0  0  0
  2 11  1  0  0  0  0
  3  4  1  0  0  0  0
  3 22  1  0  0  0  0
  4  5  1  0  0  0  0
  4 10  2  0  0  0  0
  5  6  2  0  0  0  0
  5 23  1  0  0  0  0
  6  7  1  0  0  0  0
  6 24  1  0  0  0  0
  7  8  1  0  0  0  0
  7  9  2  0  0  0  0
  9 10  1  0  0  0  0
  9 25  1  0  0  0  0
 10 11  1  0  0  0  0
 11 12  2  0  0  0  0
 12 13  1  0  0  0  0
 12 26  1  0  0  0  0
 13 14  2  0  0  0  0
 13 17  1  0  0  0  0
 14 15  1  0  0  0  0
 14 27  1  0  0  0  0
 15 16  2  0  0  0  0
 15 21  1  0  0  0  0
 16 17  1  0  0  0  0
 16 18  1  0  0  0  0
 17 28  1  0  0  0  0
 18 19  1  0  0  0  0
 18 29  1  0  0  0  0
 18 30  1  0  0  0  0
 19 20  1  0  0  0  0
 19 31  1  0  0  0  0
 19 32  1  0  0  0  0
 20 21  1  0  0  0  0
 20 33  1  0  0  0  0
 20 34  1  0  0  0  0
 21 35  1  0  0  0  0
 21 36  1  0  0  0  0
M  END
$$$$
