CHEMBL240455
 OpenBabel04072215363D

 43 45  0  0  0  0  0  0  0  0999 V2000
   -2.1120   -0.0111   -0.0451 C   0  0  0  0  0  0  0  0  0  0  0  0
   -0.6679   -0.1203   -0.0129 N   0  0  0  0  0  0  0  0  0  0  0  0
    0.0569    1.0135    0.0297 N   0  0  0  0  0  0  0  0  0  0  0  0
    1.3110    0.5746    0.0559 C   0  0  0  0  0  0  0  0  0  0  0  0
    1.3968   -0.8377    0.0463 C   0  0  0  0  0  0  0  0  0  0  0  0
    2.5786   -1.5024    0.0562 N   0  0  0  0  0  0  0  0  0  0  0  0
    2.8345   -2.7594   -0.6315 C   0  0  0  0  0  0  0  0  0  0  0  0
    3.3729   -3.7936    0.3346 C   0  0  0  0  0  0  0  0  0  0  0  0
    3.6036   -3.5179    1.6908 C   0  0  0  0  0  0  0  0  0  0  0  0
    4.0456   -4.5333    2.5218 C   0  0  0  0  0  0  0  0  0  0  0  0
    4.2755   -5.7926    2.1009 N   0  0  0  0  0  0  0  0  0  0  0  0
    4.0729   -6.0419    0.7893 C   0  0  0  0  0  0  0  0  0  0  0  0
    3.6289   -5.0920   -0.1192 C   0  0  0  0  0  0  0  0  0  0  0  0
    0.0857   -1.2828    0.0337 C   0  0  0  0  0  0  0  0  0  0  0  0
   -0.5504   -2.5835    0.0129 C   0  0  0  0  0  0  0  0  0  0  0  0
   -1.6150   -2.7272   -0.5835 O   0  0  0  0  0  0  0  0  0  0  0  0
    0.0829   -3.5971    0.7173 N   0  0  0  0  0  0  0  0  0  0  0  0
   -0.3498   -4.9462    0.8205 C   0  0  0  0  0  0  0  0  0  0  0  0
   -1.5133   -5.4220    0.2118 C   0  0  0  0  0  0  0  0  0  0  0  0
   -1.9330   -6.7447    0.3719 C   0  0  0  0  0  0  0  0  0  0  0  0
   -1.1875   -7.6438    1.1364 C   0  0  0  0  0  0  0  0  0  0  0  0
   -1.6789   -9.0547    1.3447 C   0  0  0  0  0  0  0  0  0  0  0  0
   -2.8896   -9.2973    0.7651 F   0  0  0  0  0  0  0  0  0  0  0  0
   -0.8307   -9.9893    0.8354 F   0  0  0  0  0  0  0  0  0  0  0  0
   -1.8338   -9.3629    2.6620 F   0  0  0  0  0  0  0  0  0  0  0  0
    0.0063   -7.1917    1.7147 C   0  0  0  0  0  0  0  0  0  0  0  0
    0.4116   -5.8535    1.5677 C   0  0  0  0  0  0  0  0  0  0  0  0
   -2.3981    1.0411    0.0341 H   0  0  0  0  0  0  0  0  0  0  0  0
   -2.5233   -0.5647    0.8027 H   0  0  0  0  0  0  0  0  0  0  0  0
   -2.4704   -0.4111   -0.9963 H   0  0  0  0  0  0  0  0  0  0  0  0
    2.1139    1.2998    0.0615 H   0  0  0  0  0  0  0  0  0  0  0  0
    3.4285   -0.9386    0.0880 H   0  0  0  0  0  0  0  0  0  0  0  0
    3.5881   -2.5814   -1.4083 H   0  0  0  0  0  0  0  0  0  0  0  0
    1.9430   -3.1449   -1.1371 H   0  0  0  0  0  0  0  0  0  0  0  0
    3.4209   -2.5350    2.1145 H   0  0  0  0  0  0  0  0  0  0  0  0
    4.2116   -4.3547    3.5806 H   0  0  0  0  0  0  0  0  0  0  0  0
    4.2693   -7.0646    0.4797 H   0  0  0  0  0  0  0  0  0  0  0  0
    3.4672   -5.3731   -1.1554 H   0  0  0  0  0  0  0  0  0  0  0  0
    0.9242   -3.3387    1.2213 H   0  0  0  0  0  0  0  0  0  0  0  0
   -2.1501   -4.7907   -0.3961 H   0  0  0  0  0  0  0  0  0  0  0  0
   -2.8623   -7.0563   -0.1027 H   0  0  0  0  0  0  0  0  0  0  0  0
    0.6236   -7.8757    2.2974 H   0  0  0  0  0  0  0  0  0  0  0  0
    1.3317   -5.5456    2.0559 H   0  0  0  0  0  0  0  0  0  0  0  0
  1  2  1  0  0  0  0
  1 28  1  0  0  0  0
  1 29  1  0  0  0  0
  1 30  1  0  0  0  0
  2  3  1  0  0  0  0
  2 14  1  0  0  0  0
  3  4  2  0  0  0  0
  4  5  1  0  0  0  0
  4 31  1  0  0  0  0
  5  6  1  0  0  0  0
  5 14  2  0  0  0  0
  6  7  1  0  0  0  0
  6 32  1  0  0  0  0
  7  8  1  0  0  0  0
  7 33  1  0  0  0  0
  7 34  1  0  0  0  0
  8  9  1  0  0  0  0
  8 13  2  0  0  0  0
  9 10  2  0  0  0  0
  9 35  1  0  0  0  0
 10 11  1  0  0  0  0
 10 36  1  0  0  0  0
 11 12  2  0  0  0  0
 12 13  1  0  0  0  0
 12 37  1  0  0  0  0
 13 38  1  0  0  0  0
 14 15  1  0  0  0  0
 15 16  2  0  0  0  0
 15 17  1  0  0  0  0
 17 18  1  0  0  0  0
 17 39  1  0  0  0  0
 18 19  1  0  0  0  0
 18 27  2  0  0  0  0
 19 20  2  0  0  0  0
 19 40  1  0  0  0  0
 20 21  1  0  0  0  0
 20 41  1  0  0  0  0
 21 22  1  0  0  0  0
 21 26  2  0  0  0  0
 22 23  1  0  0  0  0
 22 24  1  0  0  0  0
 22 25  1  0  0  0  0
 26 27  1  0  0  0  0
 26 42  1  0  0  0  0
 27 43  1  0  0  0  0
M  END
$$$$
