CHEMBL4078084
 OpenBabel04072215383D

 43 46  0  0  0  0  0  0  0  0999 V2000
   -3.4170    3.1174    1.9391 C   0  0  0  0  0  0  0  0  0  0  0  0
   -3.0224    1.7165    1.6369 C   0  0  0  0  0  0  0  0  0  0  0  0
   -3.8187    0.7504    2.1248 N   0  0  0  0  0  0  0  0  0  0  0  0
   -3.2633   -0.3793    1.6725 N   0  0  0  0  0  0  0  0  0  0  0  0
   -2.1421   -0.1885    0.9303 C   0  0  0  0  0  0  0  0  0  0  0  0
   -1.4378   -1.1827    0.3619 N   0  0  0  0  0  0  0  0  0  0  0  0
   -0.3713   -0.7403   -0.3216 C   0  0  0  0  0  0  0  0  0  0  0  0
    0.0032    0.5894   -0.4368 C   0  0  0  0  0  0  0  0  0  0  0  0
   -0.7548    1.6187    0.1737 C   0  0  0  0  0  0  0  0  0  0  0  0
   -0.3334    3.0311    0.0437 C   0  0  0  0  0  0  0  0  0  0  0  0
    0.2858    3.4985   -1.1288 C   0  0  0  0  0  0  0  0  0  0  0  0
    0.7230    4.8239   -1.2591 C   0  0  0  0  0  0  0  0  0  0  0  0
    0.5053    5.7520   -0.2430 C   0  0  0  0  0  0  0  0  0  0  0  0
    0.8756    7.1120   -0.3404 N   0  0  0  0  0  0  0  0  0  0  0  0
    1.2085    7.7613   -1.5064 C   0  0  0  0  0  0  0  0  0  0  0  0
    1.1520    7.2972   -2.6361 O   0  0  0  0  0  0  0  0  0  0  0  0
    1.5864    9.0712   -1.2894 N   0  0  0  0  0  0  0  0  0  0  0  0
    2.0286    9.7951   -2.4604 C   0  0  0  0  0  0  0  0  0  0  0  0
    2.3671   11.1934   -2.1272 C   0  0  0  0  0  0  0  0  0  0  0  0
    1.8562   12.4045   -2.5434 C   0  0  0  0  0  0  0  0  0  0  0  0
    2.6794   13.4026   -1.9720 C   0  0  0  0  0  0  0  0  0  0  0  0
    3.6278   12.7383   -1.2306 C   0  0  0  0  0  0  0  0  0  0  0  0
    3.4400   11.3975   -1.3103 O   0  0  0  0  0  0  0  0  0  0  0  0
   -0.0865    5.3071    0.9365 C   0  0  0  0  0  0  0  0  0  0  0  0
   -0.4553    3.9597    1.0850 C   0  0  0  0  0  0  0  0  0  0  0  0
   -1.9088    1.1877    0.8917 C   0  0  0  0  0  0  0  0  0  0  0  0
   -4.4561    3.1695    2.2851 H   0  0  0  0  0  0  0  0  0  0  0  0
   -3.3361    3.7555    1.0556 H   0  0  0  0  0  0  0  0  0  0  0  0
   -2.8063    3.5248    2.7498 H   0  0  0  0  0  0  0  0  0  0  0  0
   -3.6933   -1.2663    1.8956 H   0  0  0  0  0  0  0  0  0  0  0  0
    0.2187   -1.5186   -0.8002 H   0  0  0  0  0  0  0  0  0  0  0  0
    0.9037    0.8160   -1.0009 H   0  0  0  0  0  0  0  0  0  0  0  0
    0.4553    2.8370   -1.9765 H   0  0  0  0  0  0  0  0  0  0  0  0
    1.2381    5.0927   -2.1765 H   0  0  0  0  0  0  0  0  0  0  0  0
    0.6923    7.7017    0.4584 H   0  0  0  0  0  0  0  0  0  0  0  0
    2.0992    9.2562   -0.4387 H   0  0  0  0  0  0  0  0  0  0  0  0
    1.2297    9.7627   -3.2113 H   0  0  0  0  0  0  0  0  0  0  0  0
    2.9048    9.2858   -2.8769 H   0  0  0  0  0  0  0  0  0  0  0  0
    1.0157   12.5442   -3.2103 H   0  0  0  0  0  0  0  0  0  0  0  0
    2.6015   14.4735   -2.0978 H   0  0  0  0  0  0  0  0  0  0  0  0
    4.4683   13.0587   -0.6310 H   0  0  0  0  0  0  0  0  0  0  0  0
   -0.2746    5.9905    1.7599 H   0  0  0  0  0  0  0  0  0  0  0  0
   -0.8265    3.6438    2.0532 H   0  0  0  0  0  0  0  0  0  0  0  0
  1  2  1  0  0  0  0
  1 27  1  0  0  0  0
  1 28  1  0  0  0  0
  1 29  1  0  0  0  0
  2  3  2  0  0  0  0
  2 26  1  0  0  0  0
  3  4  1  0  0  0  0
  4  5  1  0  0  0  0
  4 30  1  0  0  0  0
  5  6  1  0  0  0  0
  5 26  2  0  0  0  0
  6  7  2  0  0  0  0
  7  8  1  0  0  0  0
  7 31  1  0  0  0  0
  8  9  2  0  0  0  0
  8 32  1  0  0  0  0
  9 10  1  0  0  0  0
  9 26  1  0  0  0  0
 10 11  1  0  0  0  0
 10 25  2  0  0  0  0
 11 12  2  0  0  0  0
 11 33  1  0  0  0  0
 12 13  1  0  0  0  0
 12 34  1  0  0  0  0
 13 14  1  0  0  0  0
 13 24  2  0  0  0  0
 14 15  1  0  0  0  0
 14 35  1  0  0  0  0
 15 16  2  0  0  0  0
 15 17  1  0  0  0  0
 17 18  1  0  0  0  0
 17 36  1  0  0  0  0
 18 19  1  0  0  0  0
 18 37  1  0  0  0  0
 18 38  1  0  0  0  0
 19 20  2  0  0  0  0
 19 23  1  0  0  0  0
 20 21  1  0  0  0  0
 20 39  1  0  0  0  0
 21 22  2  0  0  0  0
 21 40  1  0  0  0  0
 22 23  1  0  0  0  0
 22 41  1  0  0  0  0
 24 25  1  0  0  0  0
 24 42  1  0  0  0  0
 25 43  1  0  0  0  0
M  END
$$$$
