CHEMBL190443
 OpenBabel04072215363D

 90 93  0  0  1  0  0  0  0  0999 V2000
    0.7701    0.0466   -0.1547 C   0  0  0  0  0  0  0  0  0  0  0  0
    2.1789   -0.0543    0.0384 O   0  0  0  0  0  0  0  0  0  0  0  0
    2.9418    0.2163   -1.0672 C   0  0  0  0  0  0  0  0  0  0  0  0
    2.5883    1.1149   -2.0765 C   0  0  0  0  0  0  0  0  0  0  0  0
    3.4420    1.3128   -3.1613 C   0  0  0  0  0  0  0  0  0  0  0  0
    3.2026    2.1618   -4.2078 O   0  0  0  0  0  0  0  0  0  0  0  0
    2.4448    3.3224   -3.8837 C   0  0  0  0  0  0  0  0  0  0  0  0
    4.6292    0.5873   -3.2513 C   0  0  0  0  0  0  0  0  0  0  0  0
    5.0131   -0.2991   -2.2321 C   0  0  0  0  0  0  0  0  0  0  0  0
    6.3028   -1.1052   -2.3617 C   0  0  3  0  0  0  0  0  0  0  0  0
    7.5378   -0.1845   -2.4383 C   0  0  0  0  0  0  0  0  0  0  0  0
    8.3012   -0.2438   -3.7265 C   0  0  0  0  0  0  0  0  0  0  0  0
    9.3822    0.5899   -3.9636 C   0  0  0  0  0  0  0  0  0  0  0  0
   10.1449    0.5508   -5.0815 N   0  0  0  0  0  0  0  0  0  0  0  0
    9.8411   -0.3563   -6.0321 C   0  0  0  0  0  0  0  0  0  0  0  0
   10.6870   -0.4677   -7.1660 N   0  0  0  0  0  0  0  0  0  0  0  0
   12.1449   -0.5663   -6.9807 C   0  0  0  0  0  0  0  0  0  0  0  0
   12.6610   -0.8453   -5.5712 C   0  0  0  0  0  0  0  0  0  0  0  0
   14.1684   -1.0964   -5.4947 C   0  0  0  0  0  0  0  0  0  0  0  0
   14.5369   -1.3088   -4.0215 C   0  0  0  0  0  0  0  0  0  0  0  0
   16.0123   -1.5788   -3.7840 C   0  0  0  0  0  0  0  0  0  0  0  0
   16.7779   -0.4562   -4.2061 O   0  0  0  0  0  0  0  0  0  0  0  0
   18.1657   -0.6587   -3.9509 C   0  0  0  0  0  0  0  0  0  0  0  0
   18.9424    0.5444   -4.4141 C   0  0  0  0  0  0  0  0  0  0  0  0
   19.7367    1.2717   -3.5157 C   0  0  0  0  0  0  0  0  0  0  0  0
   20.4824    2.3655   -3.9564 C   0  0  0  0  0  0  0  0  0  0  0  0
   20.4408    2.7429   -5.2985 C   0  0  0  0  0  0  0  0  0  0  0  0
   19.6513    2.0278   -6.1962 C   0  0  0  0  0  0  0  0  0  0  0  0
   18.9043    0.9383   -5.7583 C   0  0  0  0  0  0  0  0  0  0  0  0
   10.2533   -0.3393   -8.4817 C   0  0  0  0  0  0  0  0  0  0  0  0
    8.8122   -0.0067   -8.7927 C   0  0  0  0  0  0  0  0  0  0  0  0
   11.0367   -0.4404   -9.4353 O   0  0  0  0  0  0  0  0  0  0  0  0
    8.7764   -1.2329   -5.8714 C   0  0  0  0  0  0  0  0  0  0  0  0
    7.9934   -1.1680   -4.7138 C   0  0  0  0  0  0  0  0  0  0  0  0
    6.9280   -2.0591   -4.6017 N   0  0  0  0  0  0  0  0  0  0  0  0
    6.1765   -2.0581   -3.5471 C   0  0  0  0  0  0  0  0  0  0  0  0
    5.1132   -2.9461   -3.4686 N   0  0  0  0  0  0  0  0  0  0  0  0
    4.4711   -3.6378   -4.4739 C   0  0  0  0  0  0  0  0  0  0  0  0
    3.6071   -4.4606   -4.1902 O   0  0  0  0  0  0  0  0  0  0  0  0
    4.8179   -3.2654   -5.7391 N   0  0  0  0  0  0  0  0  0  0  0  0
    4.2550   -3.7738   -6.9899 C   0  0  0  0  0  0  0  0  0  0  0  0
    2.7510   -3.4707   -7.0751 C   0  0  0  0  0  0  0  0  0  0  0  0
    4.9585   -3.0530   -8.1557 C   0  0  0  0  0  0  0  0  0  0  0  0
    4.5059   -5.2812   -7.1262 C   0  0  0  0  0  0  0  0  0  0  0  0
    4.1642   -0.4605   -1.1289 C   0  0  0  0  0  0  0  0  0  0  0  0
    0.2812   -0.3729    0.7297 H   0  0  0  0  0  0  0  0  0  0  0  0
    0.4449   -0.5352   -1.0248 H   0  0  0  0  0  0  0  0  0  0  0  0
    0.4545    1.0910   -0.2408 H   0  0  0  0  0  0  0  0  0  0  0  0
    1.6537    1.6578   -2.0200 H   0  0  0  0  0  0  0  0  0  0  0  0
    2.5328    4.0227   -4.7196 H   0  0  0  0  0  0  0  0  0  0  0  0
    2.8364    3.8192   -2.9887 H   0  0  0  0  0  0  0  0  0  0  0  0
    1.3857    3.0754   -3.7646 H   0  0  0  0  0  0  0  0  0  0  0  0
    5.2548    0.7218   -4.1327 H   0  0  0  0  0  0  0  0  0  0  0  0
    6.4032   -1.7287   -1.4610 H   0  0  0  0  0  0  0  0  0  0  0  0
    8.2249   -0.4696   -1.6301 H   0  0  0  0  0  0  0  0  0  0  0  0
    7.2629    0.8605   -2.2394 H   0  0  0  0  0  0  0  0  0  0  0  0
    9.6904    1.3361   -3.2346 H   0  0  0  0  0  0  0  0  0  0  0  0
   12.5977    0.3491   -7.3813 H   0  0  0  0  0  0  0  0  0  0  0  0
   12.4816   -1.3869   -7.6309 H   0  0  0  0  0  0  0  0  0  0  0  0
   12.1353   -1.7122   -5.1526 H   0  0  0  0  0  0  0  0  0  0  0  0
   12.4495    0.0161   -4.9309 H   0  0  0  0  0  0  0  0  0  0  0  0
   14.7130   -0.2386   -5.9077 H   0  0  0  0  0  0  0  0  0  0  0  0
   14.4421   -1.9771   -6.0875 H   0  0  0  0  0  0  0  0  0  0  0  0
   13.9564   -2.1481   -3.6202 H   0  0  0  0  0  0  0  0  0  0  0  0
   14.2476   -0.4119   -3.4590 H   0  0  0  0  0  0  0  0  0  0  0  0
   16.3302   -2.4755   -4.3268 H   0  0  0  0  0  0  0  0  0  0  0  0
   16.1696   -1.7408   -2.7107 H   0  0  0  0  0  0  0  0  0  0  0  0
   18.5204   -1.5449   -4.4903 H   0  0  0  0  0  0  0  0  0  0  0  0
   18.3160   -0.8236   -2.8774 H   0  0  0  0  0  0  0  0  0  0  0  0
   19.7769    0.9916   -2.4663 H   0  0  0  0  0  0  0  0  0  0  0  0
   21.0935    2.9240   -3.2529 H   0  0  0  0  0  0  0  0  0  0  0  0
   21.0225    3.5958   -5.6397 H   0  0  0  0  0  0  0  0  0  0  0  0
   19.6138    2.3289   -7.2430 H   0  0  0  0  0  0  0  0  0  0  0  0
   18.2840    0.3958   -6.4682 H   0  0  0  0  0  0  0  0  0  0  0  0
    8.1584    0.0868   -7.9300 H   0  0  0  0  0  0  0  0  0  0  0  0
    8.4151   -0.7868   -9.4493 H   0  0  0  0  0  0  0  0  0  0  0  0
    8.7871    0.9510   -9.3223 H   0  0  0  0  0  0  0  0  0  0  0  0
    8.5664   -1.9977   -6.6117 H   0  0  0  0  0  0  0  0  0  0  0  0
    4.6675   -3.0948   -2.5737 H   0  0  0  0  0  0  0  0  0  0  0  0
    5.6433   -2.6724   -5.7868 H   0  0  0  0  0  0  0  0  0  0  0  0
    2.5669   -2.3897   -7.0626 H   0  0  0  0  0  0  0  0  0  0  0  0
    2.1948   -3.9030   -6.2378 H   0  0  0  0  0  0  0  0  0  0  0  0
    2.3191   -3.8723   -7.9988 H   0  0  0  0  0  0  0  0  0  0  0  0
    4.8235   -1.9666   -8.0888 H   0  0  0  0  0  0  0  0  0  0  0  0
    4.5675   -3.3825   -9.1245 H   0  0  0  0  0  0  0  0  0  0  0  0
    6.0383   -3.2439   -8.1447 H   0  0  0  0  0  0  0  0  0  0  0  0
    4.0307   -5.8495   -6.3207 H   0  0  0  0  0  0  0  0  0  0  0  0
    5.5789   -5.5036   -7.0937 H   0  0  0  0  0  0  0  0  0  0  0  0
    4.1127   -5.6625   -8.0751 H   0  0  0  0  0  0  0  0  0  0  0  0
    4.4243   -1.1411   -0.3207 H   0  0  0  0  0  0  0  0  0  0  0  0
  1  2  1  0  0  0  0
  1 46  1  0  0  0  0
  1 47  1  0  0  0  0
  1 48  1  0  0  0  0
  2  3  1  0  0  0  0
  3  4  1  0  0  0  0
  3 45  2  0  0  0  0
  4  5  2  0  0  0  0
  4 49  1  0  0  0  0
  5  6  1  0  0  0  0
  5  8  1  0  0  0  0
  6  7  1  0  0  0  0
  7 50  1  0  0  0  0
  7 51  1  0  0  0  0
  7 52  1  0  0  0  0
  8  9  2  0  0  0  0
  8 53  1  0  0  0  0
  9 10  1  0  0  0  0
  9 45  1  0  0  0  0
 10 11  1  0  0  0  0
 10 36  1  0  0  0  0
 10 54  1  0  0  0  0
 11 12  1  0  0  0  0
 11 55  1  0  0  0  0
 11 56  1  0  0  0  0
 12 13  1  0  0  0  0
 12 34  2  0  0  0  0
 13 14  2  0  0  0  0
 13 57  1  0  0  0  0
 14 15  1  0  0  0  0
 15 16  1  0  0  0  0
 15 33  2  0  0  0  0
 16 17  1  0  0  0  0
 16 30  1  0  0  0  0
 17 18  1  0  0  0  0
 17 58  1  0  0  0  0
 17 59  1  0  0  0  0
 18 19  1  0  0  0  0
 18 60  1  0  0  0  0
 18 61  1  0  0  0  0
 19 20  1  0  0  0  0
 19 62  1  0  0  0  0
 19 63  1  0  0  0  0
 20 21  1  0  0  0  0
 20 64  1  0  0  0  0
 20 65  1  0  0  0  0
 21 22  1  0  0  0  0
 21 66  1  0  0  0  0
 21 67  1  0  0  0  0
 22 23  1  0  0  0  0
 23 24  1  0  0  0  0
 23 68  1  0  0  0  0
 23 69  1  0  0  0  0
 24 25  1  0  0  0  0
 24 29  2  0  0  0  0
 25 26  2  0  0  0  0
 25 70  1  0  0  0  0
 26 27  1  0  0  0  0
 26 71  1  0  0  0  0
 27 28  2  0  0  0  0
 27 72  1  0  0  0  0
 28 29  1  0  0  0  0
 28 73  1  0  0  0  0
 29 74  1  0  0  0  0
 30 31  1  0  0  0  0
 30 32  2  0  0  0  0
 31 75  1  0  0  0  0
 31 76  1  0  0  0  0
 31 77  1  0  0  0  0
 33 34  1  0  0  0  0
 33 78  1  0  0  0  0
 34 35  1  0  0  0  0
 35 36  2  0  0  0  0
 36 37  1  0  0  0  0
 37 38  1  0  0  0  0
 37 79  1  0  0  0  0
 38 39  2  0  0  0  0
 38 40  1  0  0  0  0
 40 41  1  0  0  0  0
 40 80  1  0  0  0  0
 41 42  1  0  0  0  0
 41 43  1  0  0  0  0
 41 44  1  0  0  0  0
 42 81  1  0  0  0  0
 42 82  1  0  0  0  0
 42 83  1  0  0  0  0
 43 84  1  0  0  0  0
 43 85  1  0  0  0  0
 43 86  1  0  0  0  0
 44 87  1  0  0  0  0
 44 88  1  0  0  0  0
 44 89  1  0  0  0  0
 45 90  1  0  0  0  0
M  END
$$$$
