CHEMBL4172155
 OpenBabel04072215383D

 63 68  0  0  0  0  0  0  0  0999 V2000
    1.0733   -0.1820    0.8930 C   0  0  0  0  0  0  0  0  0  0  0  0
    2.4986   -0.1890    0.9230 O   0  0  0  0  0  0  0  0  0  0  0  0
    3.0397   -1.2482    0.2855 C   0  0  0  0  0  0  0  0  0  0  0  0
    2.4246   -2.1678   -0.2420 O   0  0  0  0  0  0  0  0  0  0  0  0
    4.5165   -1.1724    0.2975 C   0  0  0  0  0  0  0  0  0  0  0  0
    5.2378   -0.1323    0.9270 C   0  0  0  0  0  0  0  0  0  0  0  0
    6.6461   -0.1601    0.9938 C   0  0  0  0  0  0  0  0  0  0  0  0
    7.3162   -1.2509    0.4624 C   0  0  0  0  0  0  0  0  0  0  0  0
    6.5657   -2.2287   -0.2129 C   0  0  0  0  0  0  0  0  0  0  0  0
    5.1936   -2.2202   -0.3194 C   0  0  0  0  0  0  0  0  0  0  0  0
    7.3643   -3.2798   -0.6344 N   0  0  0  0  0  0  0  0  0  0  0  0
    8.6211   -3.1664   -0.0798 C   0  0  0  0  0  0  0  0  0  0  0  0
    9.3628   -4.1066    0.1487 O   0  0  0  0  0  0  0  0  0  0  0  0
    8.7218   -1.7386    0.4258 C   0  0  0  0  0  0  0  0  0  0  0  0
    9.9070   -1.1368    0.7070 C   0  0  0  0  0  0  0  0  0  0  0  0
   11.1999   -1.5521    0.3679 N   0  0  0  0  0  0  0  0  0  0  0  0
   11.8635   -1.2810   -0.8686 C   0  0  0  0  0  0  0  0  0  0  0  0
   11.3472   -0.3714   -1.8137 C   0  0  0  0  0  0  0  0  0  0  0  0
   11.8688   -0.2931   -3.1038 C   0  0  0  0  0  0  0  0  0  0  0  0
   12.9759   -1.0694   -3.4168 C   0  0  0  0  0  0  0  0  0  0  0  0
   13.6069   -1.8815   -2.4666 C   0  0  0  0  0  0  0  0  0  0  0  0
   13.0727   -1.9688   -1.1778 C   0  0  0  0  0  0  0  0  0  0  0  0
   14.6829   -2.5527   -3.0886 N   0  0  0  0  0  0  0  0  0  0  0  0
   15.6029   -3.4533   -2.5387 C   0  0  0  0  0  0  0  0  0  0  0  0
   15.5886   -3.7680   -1.3794 O   0  0  0  0  0  0  0  0  0  0  0  0
   16.6452   -4.0059   -3.5201 C   0  0  0  0  0  0  0  0  0  0  0  0
   17.6203   -4.9353   -2.9690 N   0  0  0  0  0  0  0  0  0  0  0  0
   17.5228   -5.8233   -1.9452 C   0  0  0  0  0  0  0  0  0  0  0  0
   18.6332   -6.5206   -1.8555 N   0  0  0  0  0  0  0  0  0  0  0  0
   19.3874   -6.0323   -2.8793 C   0  0  0  0  0  0  0  0  0  0  0  0
   18.8046   -5.0801   -3.6106 N   0  0  0  0  0  0  0  0  0  0  0  0
   14.6585   -2.2644   -4.5260 C   0  0  0  0  0  0  0  0  0  0  0  0
   13.6306   -1.1672   -4.7550 C   0  0  0  0  0  0  0  0  0  0  0  0
    9.9523    0.0600    1.5898 C   0  0  0  0  0  0  0  0  0  0  0  0
   10.0684   -0.1157    2.9811 C   0  0  0  0  0  0  0  0  0  0  0  0
   10.1355    0.9844    3.8451 C   0  0  0  0  0  0  0  0  0  0  0  0
   10.1164    2.2762    3.3256 C   0  0  0  0  0  0  0  0  0  0  0  0
   10.0341    2.4637    1.9471 C   0  0  0  0  0  0  0  0  0  0  0  0
    9.9443    1.3637    1.0856 C   0  0  0  0  0  0  0  0  0  0  0  0
    0.7345    0.8114    1.1945 H   0  0  0  0  0  0  0  0  0  0  0  0
    0.6877   -0.9205    1.5998 H   0  0  0  0  0  0  0  0  0  0  0  0
    0.6977   -0.3793   -0.1160 H   0  0  0  0  0  0  0  0  0  0  0  0
    4.7015    0.6880    1.4016 H   0  0  0  0  0  0  0  0  0  0  0  0
    7.1640    0.6475    1.4990 H   0  0  0  0  0  0  0  0  0  0  0  0
    4.6616   -3.0362   -0.7986 H   0  0  0  0  0  0  0  0  0  0  0  0
    7.0164   -4.1562   -0.9937 H   0  0  0  0  0  0  0  0  0  0  0  0
   11.4889   -2.4390    0.7798 H   0  0  0  0  0  0  0  0  0  0  0  0
   10.4476    0.1906   -1.5899 H   0  0  0  0  0  0  0  0  0  0  0  0
   11.3764    0.3080   -3.8635 H   0  0  0  0  0  0  0  0  0  0  0  0
   13.4775   -2.6540   -0.4409 H   0  0  0  0  0  0  0  0  0  0  0  0
   17.2333   -3.1687   -3.9209 H   0  0  0  0  0  0  0  0  0  0  0  0
   16.1505   -4.5466   -4.3373 H   0  0  0  0  0  0  0  0  0  0  0  0
   16.6595   -5.9268   -1.3014 H   0  0  0  0  0  0  0  0  0  0  0  0
   20.3854   -6.3849   -3.1035 H   0  0  0  0  0  0  0  0  0  0  0  0
   14.3865   -3.1918   -5.0382 H   0  0  0  0  0  0  0  0  0  0  0  0
   15.6535   -1.9702   -4.8573 H   0  0  0  0  0  0  0  0  0  0  0  0
   12.9326   -1.4554   -5.5452 H   0  0  0  0  0  0  0  0  0  0  0  0
   14.1228   -0.2273   -5.0172 H   0  0  0  0  0  0  0  0  0  0  0  0
   10.1265   -1.1150    3.4117 H   0  0  0  0  0  0  0  0  0  0  0  0
   10.2073    0.8328    4.9194 H   0  0  0  0  0  0  0  0  0  0  0  0
   10.1773    3.1343    3.9920 H   0  0  0  0  0  0  0  0  0  0  0  0
   10.0477    3.4722    1.5404 H   0  0  0  0  0  0  0  0  0  0  0  0
    9.8865    1.5392    0.0186 H   0  0  0  0  0  0  0  0  0  0  0  0
  1  2  1  0  0  0  0
  1 40  1  0  0  0  0
  1 41  1  0  0  0  0
  1 42  1  0  0  0  0
  2  3  1  0  0  0  0
  3  4  2  0  0  0  0
  3  5  1  0  0  0  0
  5  6  1  0  0  0  0
  5 10  2  0  0  0  0
  6  7  2  0  0  0  0
  6 43  1  0  0  0  0
  7  8  1  0  0  0  0
  7 44  1  0  0  0  0
  8  9  2  0  0  0  0
  8 14  1  0  0  0  0
  9 10  1  0  0  0  0
  9 11  1  0  0  0  0
 10 45  1  0  0  0  0
 11 12  1  0  0  0  0
 11 46  1  0  0  0  0
 12 13  2  0  0  0  0
 12 14  1  0  0  0  0
 14 15  2  0  0  0  0
 15 16  1  0  0  0  0
 15 34  1  0  0  0  0
 16 17  1  0  0  0  0
 16 47  1  0  0  0  0
 17 18  1  0  0  0  0
 17 22  2  0  0  0  0
 18 19  2  0  0  0  0
 18 48  1  0  0  0  0
 19 20  1  0  0  0  0
 19 49  1  0  0  0  0
 20 21  2  0  0  0  0
 20 33  1  0  0  0  0
 21 22  1  0  0  0  0
 21 23  1  0  0  0  0
 22 50  1  0  0  0  0
 23 24  1  0  0  0  0
 23 32  1  0  0  0  0
 24 25  2  0  0  0  0
 24 26  1  0  0  0  0
 26 27  1  0  0  0  0
 26 51  1  0  0  0  0
 26 52  1  0  0  0  0
 27 28  1  0  0  0  0
 27 31  1  0  0  0  0
 28 29  2  0  0  0  0
 28 53  1  0  0  0  0
 29 30  1  0  0  0  0
 30 31  2  0  0  0  0
 30 54  1  0  0  0  0
 32 33  1  0  0  0  0
 32 55  1  0  0  0  0
 32 56  1  0  0  0  0
 33 57  1  0  0  0  0
 33 58  1  0  0  0  0
 34 35  1  0  0  0  0
 34 39  2  0  0  0  0
 35 36  2  0  0  0  0
 35 59  1  0  0  0  0
 36 37  1  0  0  0  0
 36 60  1  0  0  0  0
 37 38  2  0  0  0  0
 37 61  1  0  0  0  0
 38 39  1  0  0  0  0
 38 62  1  0  0  0  0
 39 63  1  0  0  0  0
M  END
$$$$
