CHEMBL3976026
 OpenBabel04072215373D

 55 59  0  0  1  0  0  0  0  0999 V2000
  -11.0488  -14.7396   -8.7601 C   0  0  0  0  0  0  0  0  0  0  0  0
  -11.6441  -13.4630   -8.2405 C   0  0  0  0  0  0  0  0  0  0  0  0
  -12.7867  -13.5423   -7.4337 C   0  0  0  0  0  0  0  0  0  0  0  0
  -13.3890  -12.3887   -6.9671 C   0  0  0  0  0  0  0  0  0  0  0  0
  -12.8496  -11.1528   -7.2945 C   0  0  0  0  0  0  0  0  0  0  0  0
  -11.6658  -11.0267   -8.0308 C   0  0  0  0  0  0  0  0  0  0  0  0
  -11.0652   -9.7290   -8.2627 N   0  0  0  0  0  0  0  0  0  0  0  0
  -11.3096   -8.6645   -7.3940 C   0  0  0  0  0  0  0  0  0  0  0  0
  -11.9082   -8.8387   -6.3399 O   0  0  0  0  0  0  0  0  0  0  0  0
  -10.8525   -7.4237   -7.8076 N   0  0  0  0  0  0  0  0  0  0  0  0
  -11.1151   -6.2265   -7.0484 C   0  0  0  0  0  0  0  0  0  0  0  0
  -11.5028   -6.2761   -5.7111 C   0  0  0  0  0  0  0  0  0  0  0  0
  -11.9473   -5.1580   -5.0087 C   0  0  0  0  0  0  0  0  0  0  0  0
  -11.9434   -3.8976   -5.5928 C   0  0  0  0  0  0  0  0  0  0  0  0
  -12.4047   -2.7381   -4.7140 C   0  0  3  0  0  0  0  0  0  0  0  0
  -11.8630   -1.3632   -5.1435 C   0  0  0  0  0  0  0  0  0  0  0  0
  -12.7857   -0.7094   -6.0977 N   0  0  0  0  0  0  0  0  0  0  0  0
  -13.9901   -0.6477   -5.6337 C   0  0  0  0  0  0  0  0  0  0  0  0
  -15.1175   -0.0901   -6.3398 C   0  0  0  0  0  0  0  0  0  0  0  0
  -15.5126   -0.6600   -7.5399 C   0  0  0  0  0  0  0  0  0  0  0  0
  -16.7286   -0.2728   -8.0820 C   0  0  0  0  0  0  0  0  0  0  0  0
  -17.4670    0.7467   -7.4671 C   0  0  0  0  0  0  0  0  0  0  0  0
  -17.1131    1.2153   -6.1945 C   0  0  0  0  0  0  0  0  0  0  0  0
  -16.0172    0.6324   -5.5748 C   0  0  0  0  0  0  0  0  0  0  0  0
  -15.9894    0.4063   -4.1758 N   0  0  0  0  0  0  0  0  0  0  0  0
  -15.4365   -0.8028   -3.7204 C   0  0  0  0  0  0  0  0  0  0  0  0
  -15.8979   -1.3693   -2.7338 O   0  0  0  0  0  0  0  0  0  0  0  0
  -14.3793   -1.2863   -4.4845 N   0  0  0  0  0  0  0  0  0  0  0  0
  -13.9425   -2.6707   -4.5398 C   0  0  0  0  0  0  0  0  0  0  0  0
  -11.4586   -3.8025   -6.9120 C   0  0  0  0  0  0  0  0  0  0  0  0
  -11.0400   -4.9533   -7.6367 C   0  0  0  0  0  0  0  0  0  0  0  0
  -11.0770  -12.2004   -8.5362 C   0  0  0  0  0  0  0  0  0  0  0  0
  -11.6519  -15.6058   -8.4589 H   0  0  0  0  0  0  0  0  0  0  0  0
  -10.0416  -14.8879   -8.3616 H   0  0  0  0  0  0  0  0  0  0  0  0
  -11.0229  -14.7302   -9.8533 H   0  0  0  0  0  0  0  0  0  0  0  0
  -13.2229  -14.5031   -7.1715 H   0  0  0  0  0  0  0  0  0  0  0  0
  -14.2761  -12.4359   -6.3442 H   0  0  0  0  0  0  0  0  0  0  0  0
  -13.3882  -10.2811   -6.9338 H   0  0  0  0  0  0  0  0  0  0  0  0
  -10.2327   -9.7226   -8.8230 H   0  0  0  0  0  0  0  0  0  0  0  0
  -10.5935   -7.3108   -8.7913 H   0  0  0  0  0  0  0  0  0  0  0  0
  -11.4937   -7.1996   -5.1454 H   0  0  0  0  0  0  0  0  0  0  0  0
  -12.2885   -5.2977   -3.9855 H   0  0  0  0  0  0  0  0  0  0  0  0
  -11.9847   -2.9208   -3.7149 H   0  0  0  0  0  0  0  0  0  0  0  0
  -11.7373   -0.7238   -4.2561 H   0  0  0  0  0  0  0  0  0  0  0  0
  -10.8672   -1.4376   -5.5917 H   0  0  0  0  0  0  0  0  0  0  0  0
  -14.9389   -1.4832   -7.9589 H   0  0  0  0  0  0  0  0  0  0  0  0
  -17.1093   -0.7833   -8.9623 H   0  0  0  0  0  0  0  0  0  0  0  0
  -18.3762    1.1024   -7.9448 H   0  0  0  0  0  0  0  0  0  0  0  0
  -17.7639    1.9122   -5.6770 H   0  0  0  0  0  0  0  0  0  0  0  0
  -16.7685    0.7439   -3.6225 H   0  0  0  0  0  0  0  0  0  0  0  0
  -14.4126   -3.0834   -5.4509 H   0  0  0  0  0  0  0  0  0  0  0  0
  -14.3325   -3.2704   -3.7131 H   0  0  0  0  0  0  0  0  0  0  0  0
  -11.4006   -2.8326   -7.4079 H   0  0  0  0  0  0  0  0  0  0  0  0
  -10.6784   -4.8174   -8.6515 H   0  0  0  0  0  0  0  0  0  0  0  0
  -10.1707  -12.1547   -9.1328 H   0  0  0  0  0  0  0  0  0  0  0  0
  1  2  1  0  0  0  0
  1 33  1  0  0  0  0
  1 34  1  0  0  0  0
  1 35  1  0  0  0  0
  2  3  1  0  0  0  0
  2 32  2  0  0  0  0
  3  4  2  0  0  0  0
  3 36  1  0  0  0  0
  4  5  1  0  0  0  0
  4 37  1  0  0  0  0
  5  6  2  0  0  0  0
  5 38  1  0  0  0  0
  6  7  1  0  0  0  0
  6 32  1  0  0  0  0
  7  8  1  0  0  0  0
  7 39  1  0  0  0  0
  8  9  2  0  0  0  0
  8 10  1  0  0  0  0
 10 11  1  0  0  0  0
 10 40  1  0  0  0  0
 11 12  1  0  0  0  0
 11 31  2  0  0  0  0
 12 13  2  0  0  0  0
 12 41  1  0  0  0  0
 13 14  1  0  0  0  0
 13 42  1  0  0  0  0
 14 15  1  0  0  0  0
 14 30  2  0  0  0  0
 15 16  1  0  0  0  0
 15 29  1  0  0  0  0
 15 43  1  0  0  0  0
 16 17  1  0  0  0  0
 16 44  1  0  0  0  0
 16 45  1  0  0  0  0
 17 18  2  0  0  0  0
 18 19  1  0  0  0  0
 18 28  1  0  0  0  0
 19 20  1  0  0  0  0
 19 24  2  0  0  0  0
 20 21  2  0  0  0  0
 20 46  1  0  0  0  0
 21 22  1  0  0  0  0
 21 47  1  0  0  0  0
 22 23  2  0  0  0  0
 22 48  1  0  0  0  0
 23 24  1  0  0  0  0
 23 49  1  0  0  0  0
 24 25  1  0  0  0  0
 25 26  1  0  0  0  0
 25 50  1  0  0  0  0
 26 27  2  0  0  0  0
 26 28  1  0  0  0  0
 28 29  1  0  0  0  0
 29 51  1  0  0  0  0
 29 52  1  0  0  0  0
 30 31  1  0  0  0  0
 30 53  1  0  0  0  0
 31 54  1  0  0  0  0
 32 55  1  0  0  0  0
M  END
$$$$
