CHEMBL3916953
 OpenBabel04072215373D

 73 76  0  0  1  0  0  0  0  0999 V2000
    3.6506    3.6382   -0.9856 C   0  0  0  0  0  0  0  0  0  0  0  0
    2.6939    2.7600   -0.3821 O   0  0  0  0  0  0  0  0  0  0  0  0
    2.9860    1.4256   -0.5313 C   0  0  0  0  0  0  0  0  0  0  0  0
    3.6250    0.9756   -1.6924 C   0  0  0  0  0  0  0  0  0  0  0  0
    4.1459   -0.3336   -1.7815 C   0  0  0  0  0  0  0  0  0  0  0  0
    4.9384   -0.7910   -2.8595 C   0  0  0  0  0  0  0  0  0  0  0  0
    5.1965    0.0737   -3.9620 N   0  0  0  0  0  0  0  0  0  0  0  0
    6.3143    0.0204   -4.8262 C   0  0  0  0  0  0  0  0  0  0  0  0
    6.1859    0.4041   -6.1673 C   0  0  0  0  0  0  0  0  0  0  0  0
    7.2943    0.4001   -7.0244 C   0  0  0  0  0  0  0  0  0  0  0  0
    8.5568    0.0416   -6.5449 C   0  0  0  0  0  0  0  0  0  0  0  0
    9.8785    0.0632   -7.6563 Cl  0  0  0  0  0  0  0  0  0  0  0  0
    8.7106   -0.2997   -5.1996 C   0  0  0  0  0  0  0  0  0  0  0  0
   10.2441   -0.7206   -4.5199 Cl  0  0  0  0  0  0  0  0  0  0  0  0
    7.5937   -0.3025   -4.3500 C   0  0  0  0  0  0  0  0  0  0  0  0
    5.4737   -2.0195   -2.8642 N   0  0  0  0  0  0  0  0  0  0  0  0
    5.1963   -2.7946   -1.8074 C   0  0  0  0  0  0  0  0  0  0  0  0
    4.4633   -2.4576   -0.7462 N   0  0  0  0  0  0  0  0  0  0  0  0
    3.9527   -1.2189   -0.7214 C   0  0  0  0  0  0  0  0  0  0  0  0
    3.2027   -0.7896    0.3778 C   0  0  0  0  0  0  0  0  0  0  0  0
    2.6682    0.5095    0.4814 C   0  0  0  0  0  0  0  0  0  0  0  0
    1.8934    0.7117    1.6080 O   0  0  0  0  0  0  0  0  0  0  0  0
    1.0518    1.8675    1.5924 C   0  0  0  0  0  0  0  0  0  0  0  0
   -0.0593    1.8442    2.6452 C   0  0  0  0  0  0  0  0  0  0  0  0
   -1.0130    0.6366    2.6670 C   0  0  3  0  0  0  0  0  0  0  0  0
   -1.7609    0.2661    1.3604 C   0  0  0  0  0  0  0  0  0  0  0  0
   -2.9833    1.0478    1.0870 N   0  0  0  0  0  0  0  0  0  0  0  0
   -3.5724    1.0304   -0.1860 C   0  0  0  0  0  0  0  0  0  0  0  0
   -4.6830    1.4956   -0.4064 O   0  0  0  0  0  0  0  0  0  0  0  0
   -2.8408    0.4109   -1.1662 O   0  0  0  0  0  0  0  0  0  0  0  0
   -3.5255    0.0826   -2.4216 C   0  0  0  0  0  0  0  0  0  0  0  0
   -4.1076    1.3015   -3.1683 C   0  0  0  0  0  0  0  0  0  0  0  0
   -2.4720   -0.5357   -3.3627 C   0  0  0  0  0  0  0  0  0  0  0  0
   -4.6137   -0.9696   -2.1417 C   0  0  0  0  0  0  0  0  0  0  0  0
   -3.8635    1.3031    2.2815 C   0  0  0  0  0  0  0  0  0  0  0  0
   -4.9034    2.4337    2.0788 C   0  0  0  0  0  0  0  0  0  0  0  0
   -4.6343    0.0194    2.6669 C   0  0  0  0  0  0  0  0  0  0  0  0
   -2.9810    1.7387    3.4769 C   0  0  0  0  0  0  0  0  0  0  0  0
   -1.9432    0.7934    3.7617 O   0  0  0  0  0  0  0  0  0  0  0  0
    3.6356    4.5905   -0.4517 H   0  0  0  0  0  0  0  0  0  0  0  0
    3.3697    3.8238   -2.0277 H   0  0  0  0  0  0  0  0  0  0  0  0
    4.6771    3.2493   -0.9306 H   0  0  0  0  0  0  0  0  0  0  0  0
    3.7839    1.6556   -2.5221 H   0  0  0  0  0  0  0  0  0  0  0  0
    4.3228    0.2532   -4.4471 H   0  0  0  0  0  0  0  0  0  0  0  0
    5.2209    0.6988   -6.5718 H   0  0  0  0  0  0  0  0  0  0  0  0
    7.1646    0.6844   -8.0667 H   0  0  0  0  0  0  0  0  0  0  0  0
    7.7277   -0.5504   -3.3010 H   0  0  0  0  0  0  0  0  0  0  0  0
    5.6111   -3.7977   -1.8251 H   0  0  0  0  0  0  0  0  0  0  0  0
    3.0474   -1.4879    1.2002 H   0  0  0  0  0  0  0  0  0  0  0  0
    0.5772    1.9909    0.6166 H   0  0  0  0  0  0  0  0  0  0  0  0
    1.6725    2.7411    1.8181 H   0  0  0  0  0  0  0  0  0  0  0  0
   -0.6252    2.7744    2.5271 H   0  0  0  0  0  0  0  0  0  0  0  0
    0.3989    1.9140    3.6426 H   0  0  0  0  0  0  0  0  0  0  0  0
   -0.3987   -0.2307    2.9397 H   0  0  0  0  0  0  0  0  0  0  0  0
   -2.1100   -0.7706    1.4679 H   0  0  0  0  0  0  0  0  0  0  0  0
   -1.0866    0.2755    0.5001 H   0  0  0  0  0  0  0  0  0  0  0  0
   -3.3288    2.0391   -3.3885 H   0  0  0  0  0  0  0  0  0  0  0  0
   -4.8953    1.8208   -2.6194 H   0  0  0  0  0  0  0  0  0  0  0  0
   -4.5602    0.9916   -4.1195 H   0  0  0  0  0  0  0  0  0  0  0  0
   -1.5420    0.0428   -3.3490 H   0  0  0  0  0  0  0  0  0  0  0  0
   -2.8335   -0.5776   -4.3982 H   0  0  0  0  0  0  0  0  0  0  0  0
   -2.2146   -1.5580   -3.0664 H   0  0  0  0  0  0  0  0  0  0  0  0
   -5.2420   -0.7017   -1.2870 H   0  0  0  0  0  0  0  0  0  0  0  0
   -4.1619   -1.9340   -1.8828 H   0  0  0  0  0  0  0  0  0  0  0  0
   -5.2681   -1.1177   -3.0057 H   0  0  0  0  0  0  0  0  0  0  0  0
   -5.7619    2.1051    1.4825 H   0  0  0  0  0  0  0  0  0  0  0  0
   -4.4571    3.3067    1.5908 H   0  0  0  0  0  0  0  0  0  0  0  0
   -5.3289    2.7601    3.0349 H   0  0  0  0  0  0  0  0  0  0  0  0
   -5.2417   -0.3501    1.8332 H   0  0  0  0  0  0  0  0  0  0  0  0
   -5.3086    0.2075    3.5119 H   0  0  0  0  0  0  0  0  0  0  0  0
   -3.9606   -0.7905    2.9660 H   0  0  0  0  0  0  0  0  0  0  0  0
   -3.5894    1.8317    4.3846 H   0  0  0  0  0  0  0  0  0  0  0  0
   -2.5508    2.7306    3.2987 H   0  0  0  0  0  0  0  0  0  0  0  0
  1  2  1  0  0  0  0
  1 40  1  0  0  0  0
  1 41  1  0  0  0  0
  1 42  1  0  0  0  0
  2  3  1  0  0  0  0
  3  4  1  0  0  0  0
  3 21  2  0  0  0  0
  4  5  2  0  0  0  0
  4 43  1  0  0  0  0
  5  6  1  0  0  0  0
  5 19  1  0  0  0  0
  6  7  1  0  0  0  0
  6 16  2  0  0  0  0
  7  8  1  0  0  0  0
  7 44  1  0  0  0  0
  8  9  1  0  0  0  0
  8 15  2  0  0  0  0
  9 10  2  0  0  0  0
  9 45  1  0  0  0  0
 10 11  1  0  0  0  0
 10 46  1  0  0  0  0
 11 12  1  0  0  0  0
 11 13  2  0  0  0  0
 13 14  1  0  0  0  0
 13 15  1  0  0  0  0
 15 47  1  0  0  0  0
 16 17  1  0  0  0  0
 17 18  2  0  0  0  0
 17 48  1  0  0  0  0
 18 19  1  0  0  0  0
 19 20  2  0  0  0  0
 20 21  1  0  0  0  0
 20 49  1  0  0  0  0
 21 22  1  0  0  0  0
 22 23  1  0  0  0  0
 23 24  1  0  0  0  0
 23 50  1  0  0  0  0
 23 51  1  0  0  0  0
 24 25  1  0  0  0  0
 24 52  1  0  0  0  0
 24 53  1  0  0  0  0
 25 26  1  0  0  0  0
 25 39  1  0  0  0  0
 25 54  1  0  0  0  0
 26 27  1  0  0  0  0
 26 55  1  0  0  0  0
 26 56  1  0  0  0  0
 27 28  1  0  0  0  0
 27 35  1  0  0  0  0
 28 29  2  0  0  0  0
 28 30  1  0  0  0  0
 30 31  1  0  0  0  0
 31 32  1  0  0  0  0
 31 33  1  0  0  0  0
 31 34  1  0  0  0  0
 32 57  1  0  0  0  0
 32 58  1  0  0  0  0
 32 59  1  0  0  0  0
 33 60  1  0  0  0  0
 33 61  1  0  0  0  0
 33 62  1  0  0  0  0
 34 63  1  0  0  0  0
 34 64  1  0  0  0  0
 34 65  1  0  0  0  0
 35 36  1  0  0  0  0
 35 37  1  0  0  0  0
 35 38  1  0  0  0  0
 36 66  1  0  0  0  0
 36 67  1  0  0  0  0
 36 68  1  0  0  0  0
 37 69  1  0  0  0  0
 37 70  1  0  0  0  0
 37 71  1  0  0  0  0
 38 39  1  0  0  0  0
 38 72  1  0  0  0  0
 38 73  1  0  0  0  0
M  END
$$$$
