CHEMBL3896476
 OpenBabel04072215373D

 34 36  0  0  0  0  0  0  0  0999 V2000
    3.6115    0.6049    1.1194 S   0  0  0  0  0  0  0  0  0  0  0  0
    2.5674    0.1035   -0.0900 C   0  0  0  0  0  0  0  0  0  0  0  0
    3.1301   -0.5142   -1.1788 N   0  0  0  0  0  0  0  0  0  0  0  0
    2.3795   -1.3030   -2.0836 N   0  0  0  0  0  0  0  0  0  0  0  0
    3.2606   -2.1538   -2.8365 C   0  0  0  0  0  0  0  0  0  0  0  0
    4.6008   -2.0671   -2.6171 N   0  0  0  0  0  0  0  0  0  0  0  0
    5.4832   -2.8246   -3.3228 N   0  0  0  0  0  0  0  0  0  0  0  0
    5.0127   -3.6878   -4.2390 C   0  0  0  0  0  0  0  0  0  0  0  0
    3.6600   -3.8486   -4.5044 C   0  0  0  0  0  0  0  0  0  0  0  0
    3.2116   -4.7787   -5.4582 C   0  0  0  0  0  0  0  0  0  0  0  0
    1.8499   -4.9403   -5.6996 C   0  0  0  0  0  0  0  0  0  0  0  0
    0.9246   -4.1737   -4.9990 C   0  0  0  0  0  0  0  0  0  0  0  0
    1.3606   -3.2417   -4.0532 C   0  0  0  0  0  0  0  0  0  0  0  0
    2.7382   -3.0585   -3.7859 C   0  0  0  0  0  0  0  0  0  0  0  0
    1.1928    0.2132   -0.1280 N   0  0  0  0  0  0  0  0  0  0  0  0
    0.3743    1.0884    0.6194 C   0  0  0  0  0  0  0  0  0  0  0  0
    0.7982    2.3695    0.9911 C   0  0  0  0  0  0  0  0  0  0  0  0
   -0.0247    3.2037    1.7517 C   0  0  0  0  0  0  0  0  0  0  0  0
   -1.2883    2.7647    2.1280 C   0  0  0  0  0  0  0  0  0  0  0  0
   -2.2885    3.7746    3.0966 Cl  0  0  0  0  0  0  0  0  0  0  0  0
   -1.7457    1.5128    1.7202 C   0  0  0  0  0  0  0  0  0  0  0  0
   -0.9216    0.6818    0.9496 C   0  0  0  0  0  0  0  0  0  0  0  0
    4.1346   -0.7121   -1.1442 H   0  0  0  0  0  0  0  0  0  0  0  0
    1.9025   -0.7075   -2.7657 H   0  0  0  0  0  0  0  0  0  0  0  0
    5.7770   -4.2594   -4.7548 H   0  0  0  0  0  0  0  0  0  0  0  0
    3.9210   -5.3924   -6.0111 H   0  0  0  0  0  0  0  0  0  0  0  0
    1.5099   -5.6722   -6.4305 H   0  0  0  0  0  0  0  0  0  0  0  0
   -0.1393   -4.3040   -5.1818 H   0  0  0  0  0  0  0  0  0  0  0  0
    0.6116   -2.6706   -3.5097 H   0  0  0  0  0  0  0  0  0  0  0  0
    0.7527   -0.5849   -0.5697 H   0  0  0  0  0  0  0  0  0  0  0  0
    1.7643    2.7548    0.6780 H   0  0  0  0  0  0  0  0  0  0  0  0
    0.3338    4.1870    2.0437 H   0  0  0  0  0  0  0  0  0  0  0  0
   -2.7368    1.1737    2.0101 H   0  0  0  0  0  0  0  0  0  0  0  0
   -1.2922   -0.2965    0.6565 H   0  0  0  0  0  0  0  0  0  0  0  0
  1  2  2  0  0  0  0
  2  3  1  0  0  0  0
  2 15  1  0  0  0  0
  3  4  1  0  0  0  0
  3 23  1  0  0  0  0
  4  5  1  0  0  0  0
  4 24  1  0  0  0  0
  5  6  1  0  0  0  0
  5 14  2  0  0  0  0
  6  7  2  0  0  0  0
  7  8  1  0  0  0  0
  8  9  2  0  0  0  0
  8 25  1  0  0  0  0
  9 10  1  0  0  0  0
  9 14  1  0  0  0  0
 10 11  2  0  0  0  0
 10 26  1  0  0  0  0
 11 12  1  0  0  0  0
 11 27  1  0  0  0  0
 12 13  2  0  0  0  0
 12 28  1  0  0  0  0
 13 14  1  0  0  0  0
 13 29  1  0  0  0  0
 15 16  1  0  0  0  0
 15 30  1  0  0  0  0
 16 17  1  0  0  0  0
 16 22  2  0  0  0  0
 17 18  2  0  0  0  0
 17 31  1  0  0  0  0
 18 19  1  0  0  0  0
 18 32  1  0  0  0  0
 19 20  1  0  0  0  0
 19 21  2  0  0  0  0
 21 22  1  0  0  0  0
 21 33  1  0  0  0  0
 22 34  1  0  0  0  0
M  END
$$$$
