CHEMBL4436951
 OpenBabel04072215383D

 52 56  0  0  0  0  0  0  0  0999 V2000
    1.2011    0.6766    0.6022 O   0  0  0  0  0  0  0  0  0  0  0  0
    2.2445    0.1896    0.1900 C   0  0  0  0  0  0  0  0  0  0  0  0
    2.7745    0.4438   -1.0630 N   0  0  0  0  0  0  0  0  0  0  0  0
    2.1687    1.2517   -2.0553 C   0  0  0  0  0  0  0  0  0  0  0  0
    1.0990    2.1217   -1.8140 C   0  0  0  0  0  0  0  0  0  0  0  0
    0.4988    2.8424   -2.8545 C   0  0  0  0  0  0  0  0  0  0  0  0
    0.9826    2.7386   -4.1578 C   0  0  0  0  0  0  0  0  0  0  0  0
    0.3495    3.4301   -5.2125 N   0  0  0  0  0  0  0  0  0  0  0  0
    1.0016    3.9221   -6.3611 C   0  0  0  0  0  0  0  0  0  0  0  0
    2.3365    4.1555   -6.3067 N   0  0  0  0  0  0  0  0  0  0  0  0
    2.9740    4.6009   -7.3933 C   0  0  0  0  0  0  0  0  0  0  0  0
    2.4475    4.8463   -8.5902 N   0  0  0  0  0  0  0  0  0  0  0  0
    1.1251    4.6128   -8.6239 C   0  0  0  0  0  0  0  0  0  0  0  0
    0.2669    4.8352  -10.0785 S   0  0  0  0  0  0  0  0  0  0  0  0
   -1.1936    4.3748   -9.3513 C   0  0  0  0  0  0  0  0  0  0  0  0
   -1.0476    4.0627   -8.0111 C   0  0  0  0  0  0  0  0  0  0  0  0
    0.3243    4.1795   -7.5728 C   0  0  0  0  0  0  0  0  0  0  0  0
   -2.2526    3.6245   -7.2323 C   0  0  0  0  0  0  0  0  0  0  0  0
   -3.5327    4.0319   -7.9838 C   0  0  0  0  0  0  0  0  0  0  0  0
   -3.4623    3.6199   -9.3576 O   0  0  0  0  0  0  0  0  0  0  0  0
   -2.4832    4.3635  -10.1088 C   0  0  0  0  0  0  0  0  0  0  0  0
    2.0525    1.8624   -4.3936 C   0  0  0  0  0  0  0  0  0  0  0  0
    2.6545    1.1421   -3.3570 C   0  0  0  0  0  0  0  0  0  0  0  0
    3.0159   -0.7180    0.9053 N   0  0  0  0  0  0  0  0  0  0  0  0
    2.6717   -1.2884    2.1554 C   0  0  0  0  0  0  0  0  0  0  0  0
    1.4824   -1.0176    2.8264 C   0  0  0  0  0  0  0  0  0  0  0  0
    1.2055   -1.5980    4.0637 C   0  0  0  0  0  0  0  0  0  0  0  0
    2.1015   -2.4932    4.6456 C   0  0  0  0  0  0  0  0  0  0  0  0
    1.6620   -3.1140    6.1923 Cl  0  0  0  0  0  0  0  0  0  0  0  0
    3.2808   -2.8327    3.9764 C   0  0  0  0  0  0  0  0  0  0  0  0
    4.2606   -3.8652    4.4686 C   0  0  0  0  0  0  0  0  0  0  0  0
    3.9409   -4.5130    5.6176 F   0  0  0  0  0  0  0  0  0  0  0  0
    4.4453   -4.8513    3.5414 F   0  0  0  0  0  0  0  0  0  0  0  0
    5.4989   -3.3335    4.6773 F   0  0  0  0  0  0  0  0  0  0  0  0
    3.5656   -2.1973    2.7384 C   0  0  0  0  0  0  0  0  0  0  0  0
    3.5457   -0.1300   -1.3677 H   0  0  0  0  0  0  0  0  0  0  0  0
    0.6982    2.2716   -0.8161 H   0  0  0  0  0  0  0  0  0  0  0  0
   -0.3407    3.4913   -2.6186 H   0  0  0  0  0  0  0  0  0  0  0  0
   -0.3450    4.0959   -4.8962 H   0  0  0  0  0  0  0  0  0  0  0  0
    4.0387    4.7788   -7.2807 H   0  0  0  0  0  0  0  0  0  0  0  0
   -2.2635    4.0644   -6.2309 H   0  0  0  0  0  0  0  0  0  0  0  0
   -2.2221    2.5328   -7.1330 H   0  0  0  0  0  0  0  0  0  0  0  0
   -3.6980    5.1159   -7.9397 H   0  0  0  0  0  0  0  0  0  0  0  0
   -4.4021    3.5453   -7.5308 H   0  0  0  0  0  0  0  0  0  0  0  0
   -2.8539    5.3825  -10.2647 H   0  0  0  0  0  0  0  0  0  0  0  0
   -2.3742    3.8755  -11.0825 H   0  0  0  0  0  0  0  0  0  0  0  0
    2.4280    1.7248   -5.4047 H   0  0  0  0  0  0  0  0  0  0  0  0
    3.4816    0.4816   -3.6000 H   0  0  0  0  0  0  0  0  0  0  0  0
    3.9175   -0.9568    0.5223 H   0  0  0  0  0  0  0  0  0  0  0  0
    0.7273   -0.3501    2.4254 H   0  0  0  0  0  0  0  0  0  0  0  0
    0.2720   -1.3416    4.5612 H   0  0  0  0  0  0  0  0  0  0  0  0
    4.4970   -2.4466    2.2296 H   0  0  0  0  0  0  0  0  0  0  0  0
  1  2  2  0  0  0  0
  2  3  1  0  0  0  0
  2 24  1  0  0  0  0
  3  4  1  0  0  0  0
  3 36  1  0  0  0  0
  4  5  1  0  0  0  0
  4 23  2  0  0  0  0
  5  6  2  0  0  0  0
  5 37  1  0  0  0  0
  6  7  1  0  0  0  0
  6 38  1  0  0  0  0
  7  8  1  0  0  0  0
  7 22  2  0  0  0  0
  8  9  1  0  0  0  0
  8 39  1  0  0  0  0
  9 10  1  0  0  0  0
  9 17  2  0  0  0  0
 10 11  2  0  0  0  0
 11 12  1  0  0  0  0
 11 40  1  0  0  0  0
 12 13  2  0  0  0  0
 13 14  1  0  0  0  0
 13 17  1  0  0  0  0
 14 15  1  0  0  0  0
 15 16  2  0  0  0  0
 15 21  1  0  0  0  0
 16 17  1  0  0  0  0
 16 18  1  0  0  0  0
 18 19  1  0  0  0  0
 18 41  1  0  0  0  0
 18 42  1  0  0  0  0
 19 20  1  0  0  0  0
 19 43  1  0  0  0  0
 19 44  1  0  0  0  0
 20 21  1  0  0  0  0
 21 45  1  0  0  0  0
 21 46  1  0  0  0  0
 22 23  1  0  0  0  0
 22 47  1  0  0  0  0
 23 48  1  0  0  0  0
 24 25  1  0  0  0  0
 24 49  1  0  0  0  0
 25 26  1  0  0  0  0
 25 35  2  0  0  0  0
 26 27  2  0  0  0  0
 26 50  1  0  0  0  0
 27 28  1  0  0  0  0
 27 51  1  0  0  0  0
 28 29  1  0  0  0  0
 28 30  2  0  0  0  0
 30 31  1  0  0  0  0
 30 35  1  0  0  0  0
 31 32  1  0  0  0  0
 31 33  1  0  0  0  0
 31 34  1  0  0  0  0
 35 52  1  0  0  0  0
M  END
$$$$
