CHEMBL485642
 OpenBabel04072215383D

 67 70  0  0  0  0  0  0  0  0999 V2000
    1.5923   -2.4646   -2.9516 C   0  0  0  0  0  0  0  0  0  0  0  0
    2.8686   -1.9782   -2.5224 O   0  0  0  0  0  0  0  0  0  0  0  0
    3.6869   -1.6086   -3.5403 C   0  0  0  0  0  0  0  0  0  0  0  0
    3.4053   -1.6450   -4.7324 O   0  0  0  0  0  0  0  0  0  0  0  0
    5.0244   -1.1794   -3.0313 C   0  0  0  0  0  0  0  0  0  0  0  0
    5.3486   -1.1361   -1.6582 C   0  0  0  0  0  0  0  0  0  0  0  0
    6.6473   -0.7913   -1.2257 C   0  0  0  0  0  0  0  0  0  0  0  0
    7.6203   -0.5121   -2.1756 C   0  0  0  0  0  0  0  0  0  0  0  0
    7.2640   -0.5429   -3.5283 C   0  0  0  0  0  0  0  0  0  0  0  0
    5.9963   -0.8506   -3.9836 C   0  0  0  0  0  0  0  0  0  0  0  0
    8.3678   -0.2703   -4.3379 N   0  0  0  0  0  0  0  0  0  0  0  0
    9.5143   -0.0938   -3.5789 C   0  0  0  0  0  0  0  0  0  0  0  0
   10.6508   -0.0069   -3.9981 O   0  0  0  0  0  0  0  0  0  0  0  0
    9.0424   -0.1444   -2.1399 C   0  0  0  0  0  0  0  0  0  0  0  0
    9.9037    0.1629   -1.1281 C   0  0  0  0  0  0  0  0  0  0  0  0
   11.2299    0.6425   -1.1950 N   0  0  0  0  0  0  0  0  0  0  0  0
   11.5452    2.0159   -1.4834 C   0  0  0  0  0  0  0  0  0  0  0  0
   10.6075    2.9028   -2.0167 C   0  0  0  0  0  0  0  0  0  0  0  0
   10.9838    4.1834   -2.4192 C   0  0  0  0  0  0  0  0  0  0  0  0
   12.2943    4.6325   -2.2323 C   0  0  0  0  0  0  0  0  0  0  0  0
   13.2594    3.7958   -1.6698 C   0  0  0  0  0  0  0  0  0  0  0  0
   14.6282    4.2886   -1.2735 C   0  0  0  0  0  0  0  0  0  0  0  0
   15.1226    3.7577   -0.2740 O   0  0  0  0  0  0  0  0  0  0  0  0
   15.3166    5.3265   -1.9392 N   0  0  0  0  0  0  0  0  0  0  0  0
   15.1110    5.7597   -3.3165 C   0  0  0  0  0  0  0  0  0  0  0  0
   16.5875    5.7841   -1.3333 C   0  0  0  0  0  0  0  0  0  0  0  0
   17.8165    4.9317   -1.7385 C   0  0  0  0  0  0  0  0  0  0  0  0
   19.1246    5.4213   -1.2358 N   0  0  0  0  0  0  0  0  0  0  0  0
   19.1788    5.4388    0.2272 C   0  0  0  0  0  0  0  0  0  0  0  0
   20.1992    4.5589   -1.7462 C   0  0  0  0  0  0  0  0  0  0  0  0
   12.8657    2.4835   -1.2993 C   0  0  0  0  0  0  0  0  0  0  0  0
    9.5300   -0.1642    0.2599 C   0  0  0  0  0  0  0  0  0  0  0  0
    9.8637   -1.4366    0.7494 C   0  0  0  0  0  0  0  0  0  0  0  0
    9.6170   -1.7677    2.0827 C   0  0  0  0  0  0  0  0  0  0  0  0
    9.0342   -0.8291    2.9277 C   0  0  0  0  0  0  0  0  0  0  0  0
    8.6944    0.4396    2.4457 C   0  0  0  0  0  0  0  0  0  0  0  0
    8.9471    0.7746    1.1135 C   0  0  0  0  0  0  0  0  0  0  0  0
    0.9515   -2.5647   -2.0712 H   0  0  0  0  0  0  0  0  0  0  0  0
    1.7042   -3.4511   -3.4136 H   0  0  0  0  0  0  0  0  0  0  0  0
    1.1133   -1.7666   -3.6458 H   0  0  0  0  0  0  0  0  0  0  0  0
    4.6001   -1.3828   -0.9092 H   0  0  0  0  0  0  0  0  0  0  0  0
    6.8615   -0.7716   -0.1613 H   0  0  0  0  0  0  0  0  0  0  0  0
    5.7654   -0.8657   -5.0438 H   0  0  0  0  0  0  0  0  0  0  0  0
    8.3771   -0.3196   -5.3411 H   0  0  0  0  0  0  0  0  0  0  0  0
   11.7367    0.1089   -1.9160 H   0  0  0  0  0  0  0  0  0  0  0  0
    9.5663    2.6152   -2.1361 H   0  0  0  0  0  0  0  0  0  0  0  0
   10.2423    4.8436   -2.8601 H   0  0  0  0  0  0  0  0  0  0  0  0
   12.5125    5.6629   -2.4878 H   0  0  0  0  0  0  0  0  0  0  0  0
   14.1171    5.5633   -3.7026 H   0  0  0  0  0  0  0  0  0  0  0  0
   15.8196    5.2319   -3.9591 H   0  0  0  0  0  0  0  0  0  0  0  0
   15.3022    6.8378   -3.3804 H   0  0  0  0  0  0  0  0  0  0  0  0
   16.4661    5.7760   -0.2447 H   0  0  0  0  0  0  0  0  0  0  0  0
   16.7438    6.8313   -1.6223 H   0  0  0  0  0  0  0  0  0  0  0  0
   17.8670    4.9345   -2.8344 H   0  0  0  0  0  0  0  0  0  0  0  0
   17.6548    3.8908   -1.4355 H   0  0  0  0  0  0  0  0  0  0  0  0
   18.4890    6.1826    0.6383 H   0  0  0  0  0  0  0  0  0  0  0  0
   20.1757    5.7369    0.5723 H   0  0  0  0  0  0  0  0  0  0  0  0
   18.9460    4.4611    0.6621 H   0  0  0  0  0  0  0  0  0  0  0  0
   20.2212    4.5719   -2.8399 H   0  0  0  0  0  0  0  0  0  0  0  0
   20.0866    3.5206   -1.4141 H   0  0  0  0  0  0  0  0  0  0  0  0
   21.1781    4.9189   -1.4113 H   0  0  0  0  0  0  0  0  0  0  0  0
   13.5906    1.8308   -0.8095 H   0  0  0  0  0  0  0  0  0  0  0  0
   10.3503   -2.1621    0.1035 H   0  0  0  0  0  0  0  0  0  0  0  0
    9.9061   -2.7455    2.4599 H   0  0  0  0  0  0  0  0  0  0  0  0
    8.8608   -1.0759    3.9718 H   0  0  0  0  0  0  0  0  0  0  0  0
    8.2604    1.1745    3.1171 H   0  0  0  0  0  0  0  0  0  0  0  0
    8.7149    1.7768    0.7547 H   0  0  0  0  0  0  0  0  0  0  0  0
  1  2  1  0  0  0  0
  1 38  1  0  0  0  0
  1 39  1  0  0  0  0
  1 40  1  0  0  0  0
  2  3  1  0  0  0  0
  3  4  2  0  0  0  0
  3  5  1  0  0  0  0
  5  6  1  0  0  0  0
  5 10  2  0  0  0  0
  6  7  2  0  0  0  0
  6 41  1  0  0  0  0
  7  8  1  0  0  0  0
  7 42  1  0  0  0  0
  8  9  2  0  0  0  0
  8 14  1  0  0  0  0
  9 10  1  0  0  0  0
  9 11  1  0  0  0  0
 10 43  1  0  0  0  0
 11 12  1  0  0  0  0
 11 44  1  0  0  0  0
 12 13  2  0  0  0  0
 12 14  1  0  0  0  0
 14 15  2  0  0  0  0
 15 16  1  0  0  0  0
 15 32  1  0  0  0  0
 16 17  1  0  0  0  0
 16 45  1  0  0  0  0
 17 18  1  0  0  0  0
 17 31  2  0  0  0  0
 18 19  2  0  0  0  0
 18 46  1  0  0  0  0
 19 20  1  0  0  0  0
 19 47  1  0  0  0  0
 20 21  2  0  0  0  0
 20 48  1  0  0  0  0
 21 22  1  0  0  0  0
 21 31  1  0  0  0  0
 22 23  2  0  0  0  0
 22 24  1  0  0  0  0
 24 25  1  0  0  0  0
 24 26  1  0  0  0  0
 25 49  1  0  0  0  0
 25 50  1  0  0  0  0
 25 51  1  0  0  0  0
 26 27  1  0  0  0  0
 26 52  1  0  0  0  0
 26 53  1  0  0  0  0
 27 28  1  0  0  0  0
 27 54  1  0  0  0  0
 27 55  1  0  0  0  0
 28 29  1  0  0  0  0
 28 30  1  0  0  0  0
 29 56  1  0  0  0  0
 29 57  1  0  0  0  0
 29 58  1  0  0  0  0
 30 59  1  0  0  0  0
 30 60  1  0  0  0  0
 30 61  1  0  0  0  0
 31 62  1  0  0  0  0
 32 33  1  0  0  0  0
 32 37  2  0  0  0  0
 33 34  2  0  0  0  0
 33 63  1  0  0  0  0
 34 35  1  0  0  0  0
 34 64  1  0  0  0  0
 35 36  2  0  0  0  0
 35 65  1  0  0  0  0
 36 37  1  0  0  0  0
 36 66  1  0  0  0  0
 37 67  1  0  0  0  0
M  END
$$$$
