CHEMBL496494
 OpenBabel04072215383D

 53 56  0  0  0  0  0  0  0  0999 V2000
    0.9625    0.2887    0.1104 C   0  0  0  0  0  0  0  0  0  0  0  0
    2.4637    0.1761    0.1531 C   0  0  0  0  0  0  0  0  0  0  0  0
    3.2229    1.4095    0.1128 C   0  0  0  0  0  0  0  0  0  0  0  0
    4.5610    1.3811    0.1556 C   0  0  0  0  0  0  0  0  0  0  0  0
    5.2738    0.1952    0.2644 N   0  0  0  0  0  0  0  0  0  0  0  0
    6.7029    0.1868    0.2228 C   0  0  0  0  0  0  0  0  0  0  0  0
    7.3649    0.8970   -0.7785 C   0  0  0  0  0  0  0  0  0  0  0  0
    8.7415    0.7433   -0.9601 C   0  0  0  0  0  0  0  0  0  0  0  0
    9.5030   -0.0940   -0.1277 C   0  0  0  0  0  0  0  0  0  0  0  0
   10.9937   -0.3691   -0.3816 C   0  0  0  0  0  0  0  0  0  0  0  0
   11.5192    0.2954   -1.6738 C   0  0  0  0  0  0  0  0  0  0  0  0
   11.8313    0.1601    0.7981 C   0  0  0  0  0  0  0  0  0  0  0  0
   11.2325   -1.8895   -0.5299 C   0  0  0  0  0  0  0  0  0  0  0  0
    8.8371   -0.7213    0.9402 C   0  0  0  0  0  0  0  0  0  0  0  0
    7.4544   -0.5968    1.1033 C   0  0  0  0  0  0  0  0  0  0  0  0
    4.6174   -1.0466    0.3131 C   0  0  0  0  0  0  0  0  0  0  0  0
    5.1760   -2.1437    0.3677 O   0  0  0  0  0  0  0  0  0  0  0  0
    3.1141   -1.0046    0.2413 C   0  0  0  0  0  0  0  0  0  0  0  0
    2.3883   -2.2697    0.3624 C   0  0  0  0  0  0  0  0  0  0  0  0
    1.9372   -2.6411    1.6318 C   0  0  0  0  0  0  0  0  0  0  0  0
    1.3997   -3.9041    1.8347 C   0  0  0  0  0  0  0  0  0  0  0  0
    1.3699   -4.8292    0.8128 C   0  0  0  0  0  0  0  0  0  0  0  0
    1.0459   -6.0741    1.1339 N   0  0  0  0  0  0  0  0  0  0  0  0
    1.2168   -6.9997    0.1938 C   0  0  0  0  0  0  0  0  0  0  0  0
    1.3468   -8.2835    0.7124 N   0  0  0  0  0  0  0  0  0  0  0  0
    1.5216   -6.7609   -1.0834 N   0  0  0  0  0  0  0  0  0  0  0  0
    1.7733   -5.4778   -1.4029 C   0  0  0  0  0  0  0  0  0  0  0  0
    1.7858   -4.4540   -0.4695 C   0  0  0  0  0  0  0  0  0  0  0  0
    2.2655   -3.1546   -0.7131 C   0  0  0  0  0  0  0  0  0  0  0  0
    0.6286    1.3289    0.0256 H   0  0  0  0  0  0  0  0  0  0  0  0
    0.5177   -0.1196    1.0219 H   0  0  0  0  0  0  0  0  0  0  0  0
    0.5606   -0.2501   -0.7551 H   0  0  0  0  0  0  0  0  0  0  0  0
    2.6991    2.3590    0.0459 H   0  0  0  0  0  0  0  0  0  0  0  0
    5.1353    2.3016    0.1433 H   0  0  0  0  0  0  0  0  0  0  0  0
    6.8086    1.4934   -1.4960 H   0  0  0  0  0  0  0  0  0  0  0  0
    9.1847    1.2615   -1.8050 H   0  0  0  0  0  0  0  0  0  0  0  0
   11.4379    1.3877   -1.6261 H   0  0  0  0  0  0  0  0  0  0  0  0
   10.9624   -0.0490   -2.5541 H   0  0  0  0  0  0  0  0  0  0  0  0
   12.5746    0.0572   -1.8451 H   0  0  0  0  0  0  0  0  0  0  0  0
   11.6985    1.2409    0.9238 H   0  0  0  0  0  0  0  0  0  0  0  0
   12.8991   -0.0295    0.6375 H   0  0  0  0  0  0  0  0  0  0  0  0
   11.5573   -0.3175    1.7455 H   0  0  0  0  0  0  0  0  0  0  0  0
   10.6335   -2.3062   -1.3486 H   0  0  0  0  0  0  0  0  0  0  0  0
   10.9763   -2.4435    0.3798 H   0  0  0  0  0  0  0  0  0  0  0  0
   12.2859   -2.1032   -0.7463 H   0  0  0  0  0  0  0  0  0  0  0  0
    9.3779   -1.3551    1.6399 H   0  0  0  0  0  0  0  0  0  0  0  0
    6.9704   -1.1355    1.9154 H   0  0  0  0  0  0  0  0  0  0  0  0
    2.0677   -1.9767    2.4818 H   0  0  0  0  0  0  0  0  0  0  0  0
    1.0896   -4.1999    2.8332 H   0  0  0  0  0  0  0  0  0  0  0  0
    2.1288   -8.1598    1.3578 H   0  0  0  0  0  0  0  0  0  0  0  0
    0.5610   -8.3860    1.3463 H   0  0  0  0  0  0  0  0  0  0  0  0
    2.0459   -5.3141   -2.4412 H   0  0  0  0  0  0  0  0  0  0  0  0
    2.6424   -2.8815   -1.6976 H   0  0  0  0  0  0  0  0  0  0  0  0
  1  2  1  0  0  0  0
  1 30  1  0  0  0  0
  1 31  1  0  0  0  0
  1 32  1  0  0  0  0
  2  3  1  0  0  0  0
  2 18  2  0  0  0  0
  3  4  2  0  0  0  0
  3 33  1  0  0  0  0
  4  5  1  0  0  0  0
  4 34  1  0  0  0  0
  5  6  1  0  0  0  0
  5 16  1  0  0  0  0
  6  7  1  0  0  0  0
  6 15  2  0  0  0  0
  7  8  2  0  0  0  0
  7 35  1  0  0  0  0
  8  9  1  0  0  0  0
  8 36  1  0  0  0  0
  9 10  1  0  0  0  0
  9 14  2  0  0  0  0
 10 11  1  0  0  0  0
 10 12  1  0  0  0  0
 10 13  1  0  0  0  0
 11 37  1  0  0  0  0
 11 38  1  0  0  0  0
 11 39  1  0  0  0  0
 12 40  1  0  0  0  0
 12 41  1  0  0  0  0
 12 42  1  0  0  0  0
 13 43  1  0  0  0  0
 13 44  1  0  0  0  0
 13 45  1  0  0  0  0
 14 15  1  0  0  0  0
 14 46  1  0  0  0  0
 15 47  1  0  0  0  0
 16 17  2  0  0  0  0
 16 18  1  0  0  0  0
 18 19  1  0  0  0  0
 19 20  1  0  0  0  0
 19 29  2  0  0  0  0
 20 21  2  0  0  0  0
 20 48  1  0  0  0  0
 21 22  1  0  0  0  0
 21 49  1  0  0  0  0
 22 23  1  0  0  0  0
 22 28  2  0  0  0  0
 23 24  2  0  0  0  0
 24 25  1  0  0  0  0
 24 26  1  0  0  0  0
 25 50  1  0  0  0  0
 25 51  1  0  0  0  0
 26 27  2  0  0  0  0
 27 28  1  0  0  0  0
 27 52  1  0  0  0  0
 28 29  1  0  0  0  0
 29 53  1  0  0  0  0
M  END
$$$$
