CHEMBL3946103
 OpenBabel04072215373D

 61 65  0  0  0  0  0  0  0  0999 V2000
    2.7871    3.0056   -2.2895 C   0  0  0  0  0  0  0  0  0  0  0  0
    3.8529    2.2498   -1.6793 N   0  0  0  0  0  0  0  0  0  0  0  0
    3.9771    0.8974   -1.9240 C   0  0  0  0  0  0  0  0  0  0  0  0
    3.2226    0.2780   -2.6626 O   0  0  0  0  0  0  0  0  0  0  0  0
    5.1339    0.2087   -1.2839 C   0  0  0  0  0  0  0  0  0  0  0  0
    5.6691    0.6307   -0.0777 C   0  0  0  0  0  0  0  0  0  0  0  0
    6.7275   -0.0879    0.4476 C   0  0  0  0  0  0  0  0  0  0  0  0
    7.2044    0.2471    1.6541 F   0  0  0  0  0  0  0  0  0  0  0  0
    7.3080   -1.1626   -0.2389 C   0  0  0  0  0  0  0  0  0  0  0  0
    6.8354   -1.5927   -1.4912 C   0  0  0  0  0  0  0  0  0  0  0  0
    7.4322   -2.6625   -2.2269 N   0  0  0  0  0  0  0  0  0  0  0  0
    8.8254   -3.0698   -1.8829 C   0  0  0  0  0  0  0  0  0  0  0  0
    9.8502   -2.5094   -2.8431 C   0  0  0  0  0  0  0  0  0  0  0  0
   11.2809   -2.9821   -2.7220 C   0  0  0  0  0  0  0  0  0  0  0  0
   10.9373   -1.5570   -2.4019 C   0  0  0  0  0  0  0  0  0  0  0  0
    6.9101   -3.3411   -3.3746 C   0  0  0  0  0  0  0  0  0  0  0  0
    6.2090   -2.6825   -4.3903 C   0  0  0  0  0  0  0  0  0  0  0  0
    5.5663   -3.3786   -5.4195 C   0  0  0  0  0  0  0  0  0  0  0  0
    5.7214   -4.7416   -5.5595 C   0  0  0  0  0  0  0  0  0  0  0  0
    5.1435   -5.3707   -6.5985 N   0  0  0  0  0  0  0  0  0  0  0  0
    5.4350   -6.6851   -6.7323 C   0  0  0  0  0  0  0  0  0  0  0  0
    6.2699   -7.3622   -5.8570 C   0  0  0  0  0  0  0  0  0  0  0  0
    6.6665   -8.7353   -6.0827 C   0  0  0  0  0  0  0  0  0  0  0  0
    6.3923   -9.6241   -7.1467 C   0  0  0  0  0  0  0  0  0  0  0  0
    6.9911  -10.8083   -7.0003 N   0  0  0  0  0  0  0  0  0  0  0  0
    7.6653  -10.6812   -5.8369 N   0  0  0  0  0  0  0  0  0  0  0  0
    8.4704  -11.7828   -5.3280 C   0  0  0  0  0  0  0  0  0  0  0  0
    7.6129  -13.0201   -5.0649 C   0  0  0  0  0  0  0  0  0  0  0  0
    9.6406  -12.0999   -6.2587 C   0  0  0  0  0  0  0  0  0  0  0  0
    7.4966   -9.4592   -5.2534 C   0  0  0  0  0  0  0  0  0  0  0  0
    6.8015   -6.7400   -4.7753 N   0  0  0  0  0  0  0  0  0  0  0  0
    6.5293   -5.4285   -4.6285 C   0  0  0  0  0  0  0  0  0  0  0  0
    7.0637   -4.7309   -3.5461 C   0  0  0  0  0  0  0  0  0  0  0  0
    5.6724   -0.9242   -1.9265 C   0  0  0  0  0  0  0  0  0  0  0  0
    2.8814    4.0522   -1.9905 H   0  0  0  0  0  0  0  0  0  0  0  0
    1.8274    2.6059   -1.9506 H   0  0  0  0  0  0  0  0  0  0  0  0
    2.8506    2.9203   -3.3780 H   0  0  0  0  0  0  0  0  0  0  0  0
    4.6070    2.7559   -1.2378 H   0  0  0  0  0  0  0  0  0  0  0  0
    5.2526    1.4571    0.4853 H   0  0  0  0  0  0  0  0  0  0  0  0
    8.1064   -1.6656    0.2920 H   0  0  0  0  0  0  0  0  0  0  0  0
    8.9313   -4.1582   -1.8760 H   0  0  0  0  0  0  0  0  0  0  0  0
    9.1201   -2.8049   -0.8671 H   0  0  0  0  0  0  0  0  0  0  0  0
    9.4659   -2.4009   -3.8565 H   0  0  0  0  0  0  0  0  0  0  0  0
   11.8283   -3.1844   -3.6359 H   0  0  0  0  0  0  0  0  0  0  0  0
   11.5508   -3.6325   -1.8981 H   0  0  0  0  0  0  0  0  0  0  0  0
   11.2758   -0.7996   -3.1011 H   0  0  0  0  0  0  0  0  0  0  0  0
   10.9817   -1.2472   -1.3647 H   0  0  0  0  0  0  0  0  0  0  0  0
    6.1500   -1.5989   -4.4241 H   0  0  0  0  0  0  0  0  0  0  0  0
    4.9580   -2.8355   -6.1385 H   0  0  0  0  0  0  0  0  0  0  0  0
    4.9815   -7.1638   -7.5920 H   0  0  0  0  0  0  0  0  0  0  0  0
    5.7891   -9.4640   -8.0315 H   0  0  0  0  0  0  0  0  0  0  0  0
    8.8833  -11.4467   -4.3684 H   0  0  0  0  0  0  0  0  0  0  0  0
    7.1395  -13.3855   -5.9821 H   0  0  0  0  0  0  0  0  0  0  0  0
    6.8157  -12.7914   -4.3490 H   0  0  0  0  0  0  0  0  0  0  0  0
    8.2185  -13.8324   -4.6500 H   0  0  0  0  0  0  0  0  0  0  0  0
    9.2961  -12.4340   -7.2440 H   0  0  0  0  0  0  0  0  0  0  0  0
   10.2693  -12.8896   -5.8354 H   0  0  0  0  0  0  0  0  0  0  0  0
   10.2683  -11.2148   -6.4097 H   0  0  0  0  0  0  0  0  0  0  0  0
    7.9820   -9.1996   -4.3196 H   0  0  0  0  0  0  0  0  0  0  0  0
    7.6028   -5.3292   -2.8182 H   0  0  0  0  0  0  0  0  0  0  0  0
    5.1178   -1.2599   -2.7919 H   0  0  0  0  0  0  0  0  0  0  0  0
  1  2  1  0  0  0  0
  1 35  1  0  0  0  0
  1 36  1  0  0  0  0
  1 37  1  0  0  0  0
  2  3  1  0  0  0  0
  2 38  1  0  0  0  0
  3  4  2  0  0  0  0
  3  5  1  0  0  0  0
  5  6  1  0  0  0  0
  5 34  2  0  0  0  0
  6  7  2  0  0  0  0
  6 39  1  0  0  0  0
  7  8  1  0  0  0  0
  7  9  1  0  0  0  0
  9 10  2  0  0  0  0
  9 40  1  0  0  0  0
 10 11  1  0  0  0  0
 10 34  1  0  0  0  0
 11 12  1  0  0  0  0
 11 16  1  0  0  0  0
 12 13  1  0  0  0  0
 12 41  1  0  0  0  0
 12 42  1  0  0  0  0
 13 14  1  0  0  0  0
 13 15  1  0  0  0  0
 13 43  1  0  0  0  0
 14 15  1  0  0  0  0
 14 44  1  0  0  0  0
 14 45  1  0  0  0  0
 15 46  1  0  0  0  0
 15 47  1  0  0  0  0
 16 17  1  0  0  0  0
 16 33  2  0  0  0  0
 17 18  2  0  0  0  0
 17 48  1  0  0  0  0
 18 19  1  0  0  0  0
 18 49  1  0  0  0  0
 19 20  1  0  0  0  0
 19 32  2  0  0  0  0
 20 21  2  0  0  0  0
 21 22  1  0  0  0  0
 21 50  1  0  0  0  0
 22 23  1  0  0  0  0
 22 31  2  0  0  0  0
 23 24  1  0  0  0  0
 23 30  2  0  0  0  0
 24 25  2  0  0  0  0
 24 51  1  0  0  0  0
 25 26  1  0  0  0  0
 26 27  1  0  0  0  0
 26 30  1  0  0  0  0
 27 28  1  0  0  0  0
 27 29  1  0  0  0  0
 27 52  1  0  0  0  0
 28 53  1  0  0  0  0
 28 54  1  0  0  0  0
 28 55  1  0  0  0  0
 29 56  1  0  0  0  0
 29 57  1  0  0  0  0
 29 58  1  0  0  0  0
 30 59  1  0  0  0  0
 31 32  1  0  0  0  0
 32 33  1  0  0  0  0
 33 60  1  0  0  0  0
 34 61  1  0  0  0  0
M  END
$$$$
