CHEMBL3931154
 OpenBabel04072215373D

 77 81  0  0  0  0  0  0  0  0999 V2000
    1.1717   -0.1368    0.0548 C   0  0  0  0  0  0  0  0  0  0  0  0
    2.3194    0.6962   -0.0979 O   0  0  0  0  0  0  0  0  0  0  0  0
    3.0226    0.9988    1.0425 C   0  0  0  0  0  0  0  0  0  0  0  0
    2.5822    0.7725    2.3366 C   0  0  0  0  0  0  0  0  0  0  0  0
    3.3899    1.1450    3.4112 C   0  0  0  0  0  0  0  0  0  0  0  0
    3.0603    1.0008    4.7323 O   0  0  0  0  0  0  0  0  0  0  0  0
    1.9004    0.2282    5.0162 C   0  0  0  0  0  0  0  0  0  0  0  0
    4.6518    1.7176    3.1844 C   0  0  0  0  0  0  0  0  0  0  0  0
    5.1712    1.8957    1.9002 C   0  0  0  0  0  0  0  0  0  0  0  0
    6.4760    2.4197    1.7085 N   0  0  0  0  0  0  0  0  0  0  0  0
    7.0850    2.2886    0.3225 C   0  0  0  0  0  0  0  0  0  0  0  0
    8.0044    1.0471    0.2789 C   0  0  0  0  0  0  0  0  0  0  0  0
    8.7956    0.7197   -0.9323 N   0  0  0  0  0  0  0  0  0  0  0  0
    9.6794    1.8252   -1.3301 C   0  0  0  0  0  0  0  0  0  0  0  0
   10.7193    1.4239   -2.3861 C   0  0  0  0  0  0  0  0  0  0  0  0
   11.5432    0.1698   -2.0295 C   0  0  0  0  0  0  0  0  0  0  0  0
   12.7722    0.3972   -1.0821 C   0  0  0  0  0  0  0  0  0  0  0  0
   12.5211    1.0322    0.2885 C   0  0  0  0  0  0  0  0  0  0  0  0
   13.5566   -0.9069   -0.8638 C   0  0  0  0  0  0  0  0  0  0  0  0
   13.6849    1.2694   -1.7749 O   0  0  0  0  0  0  0  0  0  0  0  0
   10.5550   -0.9357   -1.6380 C   0  0  0  0  0  0  0  0  0  0  0  0
    9.5535   -0.4996   -0.5844 C   0  0  0  0  0  0  0  0  0  0  0  0
    7.5392    2.6746    2.6636 C   0  0  0  0  0  0  0  0  0  0  0  0
    8.3343    3.7925    2.3861 C   0  0  0  0  0  0  0  0  0  0  0  0
    9.6468    3.8042    2.7741 C   0  0  0  0  0  0  0  0  0  0  0  0
   10.1888    2.8247    3.5652 C   0  0  0  0  0  0  0  0  0  0  0  0
   11.5112    2.8665    3.6699 N   0  0  0  0  0  0  0  0  0  0  0  0
   12.0798    2.0543    4.5733 C   0  0  0  0  0  0  0  0  0  0  0  0
   11.3192    1.2657    5.4223 C   0  0  0  0  0  0  0  0  0  0  0  0
   12.0075    0.7951    6.6204 C   0  0  0  0  0  0  0  0  0  0  0  0
   12.0121    1.3575    7.9235 C   0  0  0  0  0  0  0  0  0  0  0  0
   12.9646    0.8448    8.7117 N   0  0  0  0  0  0  0  0  0  0  0  0
   13.5842   -0.0427    7.9163 N   0  0  0  0  0  0  0  0  0  0  0  0
   14.5304   -0.9855    8.4685 C   0  0  0  0  0  0  0  0  0  0  0  0
   13.1482    0.0090    6.6192 C   0  0  0  0  0  0  0  0  0  0  0  0
    9.9611    1.1138    5.2225 N   0  0  0  0  0  0  0  0  0  0  0  0
    9.3626    1.8639    4.2066 C   0  0  0  0  0  0  0  0  0  0  0  0
    8.0260    1.7794    3.6597 C   0  0  0  0  0  0  0  0  0  0  0  0
    4.2845    1.5872    0.8386 C   0  0  0  0  0  0  0  0  0  0  0  0
    0.8494   -0.4606   -0.9404 H   0  0  0  0  0  0  0  0  0  0  0  0
    0.3451    0.4203    0.5083 H   0  0  0  0  0  0  0  0  0  0  0  0
    1.3983   -1.0401    0.6327 H   0  0  0  0  0  0  0  0  0  0  0  0
    1.6091    0.3334    2.5074 H   0  0  0  0  0  0  0  0  0  0  0  0
    1.8354    0.1100    6.1009 H   0  0  0  0  0  0  0  0  0  0  0  0
    1.9713   -0.7726    4.5751 H   0  0  0  0  0  0  0  0  0  0  0  0
    0.9953    0.7447    4.6793 H   0  0  0  0  0  0  0  0  0  0  0  0
    5.2268    2.0266    4.0523 H   0  0  0  0  0  0  0  0  0  0  0  0
    7.6470    3.1958    0.0677 H   0  0  0  0  0  0  0  0  0  0  0  0
    6.3522    2.2303   -0.4842 H   0  0  0  0  0  0  0  0  0  0  0  0
    7.3684    0.1843    0.5135 H   0  0  0  0  0  0  0  0  0  0  0  0
    8.7241    1.1327    1.0989 H   0  0  0  0  0  0  0  0  0  0  0  0
   10.1785    2.2606   -0.4616 H   0  0  0  0  0  0  0  0  0  0  0  0
    9.0717    2.6294   -1.7642 H   0  0  0  0  0  0  0  0  0  0  0  0
   11.3711    2.2733   -2.6151 H   0  0  0  0  0  0  0  0  0  0  0  0
   10.1792    1.2106   -3.3208 H   0  0  0  0  0  0  0  0  0  0  0  0
   11.9913   -0.1562   -2.9814 H   0  0  0  0  0  0  0  0  0  0  0  0
   11.8909    0.4192    0.9341 H   0  0  0  0  0  0  0  0  0  0  0  0
   12.1012    2.0365    0.2064 H   0  0  0  0  0  0  0  0  0  0  0  0
   13.4725    1.1762    0.8175 H   0  0  0  0  0  0  0  0  0  0  0  0
   12.9887   -1.6419   -0.2860 H   0  0  0  0  0  0  0  0  0  0  0  0
   14.4906   -0.7121   -0.3221 H   0  0  0  0  0  0  0  0  0  0  0  0
   13.8486   -1.3546   -1.8201 H   0  0  0  0  0  0  0  0  0  0  0  0
   13.3220    2.1705   -1.7552 H   0  0  0  0  0  0  0  0  0  0  0  0
   11.0690   -1.8401   -1.3004 H   0  0  0  0  0  0  0  0  0  0  0  0
    9.9943   -1.2349   -2.5341 H   0  0  0  0  0  0  0  0  0  0  0  0
   10.0734   -0.3769    0.3704 H   0  0  0  0  0  0  0  0  0  0  0  0
    8.8409   -1.3208   -0.4360 H   0  0  0  0  0  0  0  0  0  0  0  0
    7.9627    4.5756    1.7292 H   0  0  0  0  0  0  0  0  0  0  0  0
   10.3060    4.5953    2.4002 H   0  0  0  0  0  0  0  0  0  0  0  0
   13.1548    2.1125    4.6492 H   0  0  0  0  0  0  0  0  0  0  0  0
   11.3941    2.1531    8.3221 H   0  0  0  0  0  0  0  0  0  0  0  0
   14.6437   -0.8175    9.5437 H   0  0  0  0  0  0  0  0  0  0  0  0
   15.4947   -0.8743    7.9665 H   0  0  0  0  0  0  0  0  0  0  0  0
   14.1258   -1.9870    8.2980 H   0  0  0  0  0  0  0  0  0  0  0  0
   13.6717   -0.5209    5.8372 H   0  0  0  0  0  0  0  0  0  0  0  0
    7.4148    0.9265    3.9718 H   0  0  0  0  0  0  0  0  0  0  0  0
    4.5239    1.8003   -0.1973 H   0  0  0  0  0  0  0  0  0  0  0  0
  1  2  1  0  0  0  0
  1 40  1  0  0  0  0
  1 41  1  0  0  0  0
  1 42  1  0  0  0  0
  2  3  1  0  0  0  0
  3  4  1  0  0  0  0
  3 39  2  0  0  0  0
  4  5  2  0  0  0  0
  4 43  1  0  0  0  0
  5  6  1  0  0  0  0
  5  8  1  0  0  0  0
  6  7  1  0  0  0  0
  7 44  1  0  0  0  0
  7 45  1  0  0  0  0
  7 46  1  0  0  0  0
  8  9  2  0  0  0  0
  8 47  1  0  0  0  0
  9 10  1  0  0  0  0
  9 39  1  0  0  0  0
 10 11  1  0  0  0  0
 10 23  1  0  0  0  0
 11 12  1  0  0  0  0
 11 48  1  0  0  0  0
 11 49  1  0  0  0  0
 12 13  1  0  0  0  0
 12 50  1  0  0  0  0
 12 51  1  0  0  0  0
 13 14  1  0  0  0  0
 13 22  1  0  0  0  0
 14 15  1  0  0  0  0
 14 52  1  0  0  0  0
 14 53  1  0  0  0  0
 15 16  1  0  0  0  0
 15 54  1  0  0  0  0
 15 55  1  0  0  0  0
 16 17  1  0  0  0  0
 16 21  1  0  0  0  0
 16 56  1  0  0  0  0
 17 18  1  0  0  0  0
 17 19  1  0  0  0  0
 17 20  1  0  0  0  0
 18 57  1  0  0  0  0
 18 58  1  0  0  0  0
 18 59  1  0  0  0  0
 19 60  1  0  0  0  0
 19 61  1  0  0  0  0
 19 62  1  0  0  0  0
 20 63  1  0  0  0  0
 21 22  1  0  0  0  0
 21 64  1  0  0  0  0
 21 65  1  0  0  0  0
 22 66  1  0  0  0  0
 22 67  1  0  0  0  0
 23 24  1  0  0  0  0
 23 38  2  0  0  0  0
 24 25  2  0  0  0  0
 24 68  1  0  0  0  0
 25 26  1  0  0  0  0
 25 69  1  0  0  0  0
 26 27  1  0  0  0  0
 26 37  2  0  0  0  0
 27 28  2  0  0  0  0
 28 29  1  0  0  0  0
 28 70  1  0  0  0  0
 29 30  1  0  0  0  0
 29 36  2  0  0  0  0
 30 31  1  0  0  0  0
 30 35  2  0  0  0  0
 31 32  2  0  0  0  0
 31 71  1  0  0  0  0
 32 33  1  0  0  0  0
 33 34  1  0  0  0  0
 33 35  1  0  0  0  0
 34 72  1  0  0  0  0
 34 73  1  0  0  0  0
 34 74  1  0  0  0  0
 35 75  1  0  0  0  0
 36 37  1  0  0  0  0
 37 38  1  0  0  0  0
 38 76  1  0  0  0  0
 39 77  1  0  0  0  0
M  END
$$$$
