CHEMBL521887
 OpenBabel04072215383D

 64 68  0  0  0  0  0  0  0  0999 V2000
   -4.1312   -4.6543    3.1508 C   0  0  0  0  0  0  0  0  0  0  0  0
   -3.8035   -3.4618    2.2924 C   0  0  0  0  0  0  0  0  0  0  0  0
   -4.8258   -2.5129    2.1296 C   0  0  0  0  0  0  0  0  0  0  0  0
   -4.6566   -1.3772    1.3402 C   0  0  0  0  0  0  0  0  0  0  0  0
   -3.4384   -1.1139    0.7296 C   0  0  0  0  0  0  0  0  0  0  0  0
   -3.1879    0.0547   -0.0392 N   0  0  0  0  0  0  0  0  0  0  0  0
   -4.0677    1.1123   -0.2381 C   0  0  0  0  0  0  0  0  0  0  0  0
   -5.2082    1.2036    0.2243 O   0  0  0  0  0  0  0  0  0  0  0  0
   -3.5766    2.2531   -1.0669 C   0  0  0  0  0  0  0  0  0  0  0  0
   -2.6437    2.0790   -2.0926 C   0  0  0  0  0  0  0  0  0  0  0  0
   -2.2410    3.1723   -2.8674 C   0  0  0  0  0  0  0  0  0  0  0  0
   -2.7941    4.4486   -2.6669 C   0  0  0  0  0  0  0  0  0  0  0  0
   -2.4637    5.5659   -3.6401 C   0  0  0  0  0  0  0  0  0  0  0  0
   -2.8398    5.1974   -5.0107 N   0  0  0  0  0  0  0  0  0  0  0  0
   -4.2915    4.9733   -5.1571 C   0  0  0  0  0  0  0  0  0  0  0  0
   -4.6490    4.5244   -6.5897 C   0  0  0  0  0  0  0  0  0  0  0  0
   -4.2035    5.4493   -7.6495 N   0  0  0  0  0  0  0  0  0  0  0  0
   -5.0191    6.6600   -7.6704 C   0  0  0  0  0  0  0  0  0  0  0  0
   -2.7718    5.7573   -7.4469 C   0  0  0  0  0  0  0  0  0  0  0  0
   -2.3816    6.1801   -6.0056 C   0  0  0  0  0  0  0  0  0  0  0  0
   -3.7402    4.5996   -1.6382 C   0  0  0  0  0  0  0  0  0  0  0  0
   -4.1269    3.5308   -0.8569 C   0  0  0  0  0  0  0  0  0  0  0  0
   -2.4166   -2.0683    0.8681 C   0  0  0  0  0  0  0  0  0  0  0  0
   -2.5868   -3.2880    1.5936 C   0  0  0  0  0  0  0  0  0  0  0  0
   -1.5834   -4.3812    1.4156 C   0  0  0  0  0  0  0  0  0  0  0  0
   -1.0547   -4.5857    0.1237 C   0  0  0  0  0  0  0  0  0  0  0  0
   -0.3426   -5.7324   -0.2082 C   0  0  0  0  0  0  0  0  0  0  0  0
   -0.0176   -6.6406    0.7816 C   0  0  0  0  0  0  0  0  0  0  0  0
    0.6875   -7.7879    0.4492 C   0  0  0  0  0  0  0  0  0  0  0  0
    1.6816   -8.0744    1.3486 C   0  0  0  0  0  0  0  0  0  0  0  0
    1.5470   -7.8432    2.6695 N   0  0  0  0  0  0  0  0  0  0  0  0
    0.4986   -7.0620    3.0395 C   0  0  0  0  0  0  0  0  0  0  0  0
   -0.2663   -6.3338    2.1222 C   0  0  0  0  0  0  0  0  0  0  0  0
   -1.1472   -5.2643    2.4228 C   0  0  0  0  0  0  0  0  0  0  0  0
   -5.0747   -4.5060    3.6912 H   0  0  0  0  0  0  0  0  0  0  0  0
   -3.3870   -4.7903    3.9378 H   0  0  0  0  0  0  0  0  0  0  0  0
   -4.2302   -5.5583    2.5435 H   0  0  0  0  0  0  0  0  0  0  0  0
   -5.7963   -2.6625    2.6006 H   0  0  0  0  0  0  0  0  0  0  0  0
   -5.5099   -0.7186    1.2298 H   0  0  0  0  0  0  0  0  0  0  0  0
   -2.2521    0.1527   -0.4035 H   0  0  0  0  0  0  0  0  0  0  0  0
   -2.2570    1.1006   -2.3485 H   0  0  0  0  0  0  0  0  0  0  0  0
   -1.5395    3.0214   -3.6823 H   0  0  0  0  0  0  0  0  0  0  0  0
   -1.3790    5.7277   -3.5822 H   0  0  0  0  0  0  0  0  0  0  0  0
   -2.9385    6.5067   -3.3335 H   0  0  0  0  0  0  0  0  0  0  0  0
   -4.8516    5.8781   -4.8889 H   0  0  0  0  0  0  0  0  0  0  0  0
   -4.6317    4.1766   -4.4871 H   0  0  0  0  0  0  0  0  0  0  0  0
   -5.7301    4.3527   -6.6613 H   0  0  0  0  0  0  0  0  0  0  0  0
   -4.1851    3.5453   -6.7729 H   0  0  0  0  0  0  0  0  0  0  0  0
   -6.0750    6.4065   -7.8170 H   0  0  0  0  0  0  0  0  0  0  0  0
   -4.7307    7.2951   -8.5156 H   0  0  0  0  0  0  0  0  0  0  0  0
   -4.9389    7.2555   -6.7557 H   0  0  0  0  0  0  0  0  0  0  0  0
   -2.4481    6.5257   -8.1595 H   0  0  0  0  0  0  0  0  0  0  0  0
   -2.1984    4.8568   -7.7070 H   0  0  0  0  0  0  0  0  0  0  0  0
   -2.7917    7.1748   -5.7891 H   0  0  0  0  0  0  0  0  0  0  0  0
   -1.2889    6.2651   -5.9634 H   0  0  0  0  0  0  0  0  0  0  0  0
   -4.2199    5.5823   -1.4998 H   0  0  0  0  0  0  0  0  0  0  0  0
   -4.8895    3.6715   -0.0925 H   0  0  0  0  0  0  0  0  0  0  0  0
   -1.4716   -1.8883    0.3602 H   0  0  0  0  0  0  0  0  0  0  0  0
   -1.2188   -3.8642   -0.6721 H   0  0  0  0  0  0  0  0  0  0  0  0
    0.0061   -5.8737   -1.2272 H   0  0  0  0  0  0  0  0  0  0  0  0
   -0.0187   -8.6528    0.4106 H   0  0  0  0  0  0  0  0  0  0  0  0
    2.6858   -8.2743    0.9788 H   0  0  0  0  0  0  0  0  0  0  0  0
    0.4021   -6.9218    4.1104 H   0  0  0  0  0  0  0  0  0  0  0  0
   -1.4244   -5.1103    3.4613 H   0  0  0  0  0  0  0  0  0  0  0  0
  1  2  1  0  0  0  0
  1 35  1  0  0  0  0
  1 36  1  0  0  0  0
  1 37  1  0  0  0  0
  2  3  1  0  0  0  0
  2 24  2  0  0  0  0
  3  4  2  0  0  0  0
  3 38  1  0  0  0  0
  4  5  1  0  0  0  0
  4 39  1  0  0  0  0
  5  6  1  0  0  0  0
  5 23  2  0  0  0  0
  6  7  1  0  0  0  0
  6 40  1  0  0  0  0
  7  8  2  0  0  0  0
  7  9  1  0  0  0  0
  9 10  1  0  0  0  0
  9 22  2  0  0  0  0
 10 11  2  0  0  0  0
 10 41  1  0  0  0  0
 11 12  1  0  0  0  0
 11 42  1  0  0  0  0
 12 13  1  0  0  0  0
 12 21  2  0  0  0  0
 13 14  1  0  0  0  0
 13 43  1  0  0  0  0
 13 44  1  0  0  0  0
 14 15  1  0  0  0  0
 14 20  1  0  0  0  0
 15 16  1  0  0  0  0
 15 45  1  0  0  0  0
 15 46  1  0  0  0  0
 16 17  1  0  0  0  0
 16 47  1  0  0  0  0
 16 48  1  0  0  0  0
 17 18  1  0  0  0  0
 17 19  1  0  0  0  0
 18 49  1  0  0  0  0
 18 50  1  0  0  0  0
 18 51  1  0  0  0  0
 19 20  1  0  0  0  0
 19 52  1  0  0  0  0
 19 53  1  0  0  0  0
 20 54  1  0  0  0  0
 20 55  1  0  0  0  0
 21 22  1  0  0  0  0
 21 56  1  0  0  0  0
 22 57  1  0  0  0  0
 23 24  1  0  0  0  0
 23 58  1  0  0  0  0
 24 25  1  0  0  0  0
 25 26  1  0  0  0  0
 25 34  2  0  0  0  0
 26 27  2  0  0  0  0
 26 59  1  0  0  0  0
 27 28  1  0  0  0  0
 27 60  1  0  0  0  0
 28 29  1  0  0  0  0
 28 33  2  0  0  0  0
 29 30  2  0  0  0  0
 29 61  1  0  0  0  0
 30 31  1  0  0  0  0
 30 62  1  0  0  0  0
 31 32  2  0  0  0  0
 32 33  1  0  0  0  0
 32 63  1  0  0  0  0
 33 34  1  0  0  0  0
 34 64  1  0  0  0  0
M  END
$$$$
