CHEMBL4439297
 OpenBabel04072215383D

 49 52  0  0  0  0  0  0  0  0999 V2000
    2.4900    0.4427   -1.8862 C   0  0  0  0  0  0  0  0  0  0  0  0
    2.7095    0.0571   -0.5369 O   0  0  0  0  0  0  0  0  0  0  0  0
    3.3150   -1.1462   -0.3303 C   0  0  0  0  0  0  0  0  0  0  0  0
    3.7180   -2.0528   -1.3128 C   0  0  0  0  0  0  0  0  0  0  0  0
    4.3462   -3.2525   -0.9577 C   0  0  0  0  0  0  0  0  0  0  0  0
    4.5675   -3.5536    0.3900 C   0  0  0  0  0  0  0  0  0  0  0  0
    5.2276   -4.7904    0.8511 C   0  0  0  0  0  0  0  0  0  0  0  0
    5.8560   -4.7396    1.9063 O   0  0  0  0  0  0  0  0  0  0  0  0
    5.1132   -5.9062    0.0426 N   0  0  0  0  0  0  0  0  0  0  0  0
    5.6576   -7.1735    0.3257 C   0  0  0  0  0  0  0  0  0  0  0  0
    6.1147   -7.5519    1.5799 C   0  0  0  0  0  0  0  0  0  0  0  0
    6.7041   -8.7925    1.7693 C   0  0  0  0  0  0  0  0  0  0  0  0
    6.8409   -9.6738    0.6936 C   0  0  0  0  0  0  0  0  0  0  0  0
    7.5309  -10.9586    0.9334 C   0  0  0  0  0  0  0  0  0  0  0  0
    7.5595  -11.4320    2.0801 O   0  0  0  0  0  0  0  0  0  0  0  0
    8.1692  -11.5134   -0.2046 N   0  0  0  0  0  0  0  0  0  0  0  0
    9.0914  -12.5091    0.0061 N   0  0  0  0  0  0  0  0  0  0  0  0
    8.6484  -13.5263    0.6799 C   0  0  0  0  0  0  0  0  0  0  0  0
    7.2208  -14.0870    0.7907 C   0  0  0  0  0  0  0  0  0  0  0  0
    6.3511  -14.0034   -0.0493 O   0  0  0  0  0  0  0  0  0  0  0  0
    7.1787  -14.7106    2.0225 N   0  0  0  0  0  0  0  0  0  0  0  0
    8.3535  -14.4417    2.7226 C   0  0  0  0  0  0  0  0  0  0  0  0
    8.4931  -14.3097    4.0890 C   0  0  0  0  0  0  0  0  0  0  0  0
    9.6888  -13.7394    4.5544 C   0  0  0  0  0  0  0  0  0  0  0  0
   10.7312  -13.4095    3.6679 C   0  0  0  0  0  0  0  0  0  0  0  0
   11.8432  -12.8378    4.1473 F   0  0  0  0  0  0  0  0  0  0  0  0
   10.5881  -13.5440    2.2973 C   0  0  0  0  0  0  0  0  0  0  0  0
    9.3606  -13.9987    1.8631 C   0  0  0  0  0  0  0  0  0  0  0  0
    6.3037   -9.3493   -0.5480 C   0  0  0  0  0  0  0  0  0  0  0  0
    5.7223   -8.0979   -0.7381 C   0  0  0  0  0  0  0  0  0  0  0  0
    4.1752   -2.6407    1.3753 C   0  0  0  0  0  0  0  0  0  0  0  0
    3.5518   -1.4499    1.0161 C   0  0  0  0  0  0  0  0  0  0  0  0
    2.0159    1.4278   -1.8765 H   0  0  0  0  0  0  0  0  0  0  0  0
    1.8078   -0.2533   -2.3862 H   0  0  0  0  0  0  0  0  0  0  0  0
    3.4358    0.5305   -2.4307 H   0  0  0  0  0  0  0  0  0  0  0  0
    3.5655   -1.8501   -2.3696 H   0  0  0  0  0  0  0  0  0  0  0  0
    4.6887   -3.9102   -1.7499 H   0  0  0  0  0  0  0  0  0  0  0  0
    4.6473   -5.8024   -0.8460 H   0  0  0  0  0  0  0  0  0  0  0  0
    6.0225   -6.8979    2.4431 H   0  0  0  0  0  0  0  0  0  0  0  0
    7.0697   -9.0664    2.7622 H   0  0  0  0  0  0  0  0  0  0  0  0
    8.4422  -10.8618   -0.9335 H   0  0  0  0  0  0  0  0  0  0  0  0
    6.3597  -15.1824    2.3755 H   0  0  0  0  0  0  0  0  0  0  0  0
    7.6537  -14.4461    4.7638 H   0  0  0  0  0  0  0  0  0  0  0  0
    9.7939  -13.4600    5.5998 H   0  0  0  0  0  0  0  0  0  0  0  0
   11.3277  -13.1563    1.6095 H   0  0  0  0  0  0  0  0  0  0  0  0
    6.3588  -10.0379   -1.3874 H   0  0  0  0  0  0  0  0  0  0  0  0
    5.3396   -7.8403   -1.7250 H   0  0  0  0  0  0  0  0  0  0  0  0
    4.3573   -2.8518    2.4299 H   0  0  0  0  0  0  0  0  0  0  0  0
    3.2567   -0.7434    1.7886 H   0  0  0  0  0  0  0  0  0  0  0  0
  1  2  1  0  0  0  0
  1 33  1  0  0  0  0
  1 34  1  0  0  0  0
  1 35  1  0  0  0  0
  2  3  1  0  0  0  0
  3  4  1  0  0  0  0
  3 32  2  0  0  0  0
  4  5  2  0  0  0  0
  4 36  1  0  0  0  0
  5  6  1  0  0  0  0
  5 37  1  0  0  0  0
  6  7  1  0  0  0  0
  6 31  2  0  0  0  0
  7  8  2  0  0  0  0
  7  9  1  0  0  0  0
  9 10  1  0  0  0  0
  9 38  1  0  0  0  0
 10 11  1  0  0  0  0
 10 30  2  0  0  0  0
 11 12  2  0  0  0  0
 11 39  1  0  0  0  0
 12 13  1  0  0  0  0
 12 40  1  0  0  0  0
 13 14  1  0  0  0  0
 13 29  2  0  0  0  0
 14 15  2  0  0  0  0
 14 16  1  0  0  0  0
 16 17  1  0  0  0  0
 16 41  1  0  0  0  0
 17 18  2  0  0  0  0
 18 19  1  0  0  0  0
 18 28  1  0  0  0  0
 19 20  2  0  0  0  0
 19 21  1  0  0  0  0
 21 22  1  0  0  0  0
 21 42  1  0  0  0  0
 22 23  1  0  0  0  0
 22 28  2  0  0  0  0
 23 24  2  0  0  0  0
 23 43  1  0  0  0  0
 24 25  1  0  0  0  0
 24 44  1  0  0  0  0
 25 26  1  0  0  0  0
 25 27  2  0  0  0  0
 27 28  1  0  0  0  0
 27 45  1  0  0  0  0
 29 30  1  0  0  0  0
 29 46  1  0  0  0  0
 30 47  1  0  0  0  0
 31 32  1  0  0  0  0
 31 48  1  0  0  0  0
 32 49  1  0  0  0  0
M  END
$$$$
