CHEMBL205610
 OpenBabel04072215363D

 46 49  0  0  0  0  0  0  0  0999 V2000
    2.7173   -0.7061   -0.7928 O   0  0  0  0  0  0  0  0  0  0  0  0
    2.1131   -0.2279    0.1591 C   0  0  0  0  0  0  0  0  0  0  0  0
    0.7438   -0.2533    0.3700 N   0  0  0  0  0  0  0  0  0  0  0  0
   -0.2209   -0.8985   -0.4352 C   0  0  0  0  0  0  0  0  0  0  0  0
    0.0993   -1.7588   -1.4848 C   0  0  0  0  0  0  0  0  0  0  0  0
   -0.9029   -2.3579   -2.2623 C   0  0  0  0  0  0  0  0  0  0  0  0
   -2.2482   -2.1015   -1.9976 C   0  0  0  0  0  0  0  0  0  0  0  0
   -3.3056   -2.5720   -2.7182 O   0  0  0  0  0  0  0  0  0  0  0  0
   -3.1528   -3.8361   -3.3562 C   0  0  0  0  0  0  0  0  0  0  0  0
   -2.2003   -3.7720   -4.3179 F   0  0  0  0  0  0  0  0  0  0  0  0
   -2.7752   -4.7661   -2.4445 F   0  0  0  0  0  0  0  0  0  0  0  0
   -4.6887   -4.3106   -4.0926 Cl  0  0  0  0  0  0  0  0  0  0  0  0
   -2.5729   -1.2418   -0.9476 C   0  0  0  0  0  0  0  0  0  0  0  0
   -1.5715   -0.6616   -0.1607 C   0  0  0  0  0  0  0  0  0  0  0  0
    2.9067    0.4588    1.2162 C   0  0  0  0  0  0  0  0  0  0  0  0
    2.6275    0.1166    2.5527 C   0  0  0  0  0  0  0  0  0  0  0  0
    3.4114    0.6141    3.5912 C   0  0  0  0  0  0  0  0  0  0  0  0
    4.4930    1.4379    3.3042 C   0  0  0  0  0  0  0  0  0  0  0  0
    4.7745    1.7891    1.9827 C   0  0  0  0  0  0  0  0  0  0  0  0
    3.9825    1.3211    0.9134 C   0  0  0  0  0  0  0  0  0  0  0  0
    4.3254    1.7946   -0.4844 C   0  0  0  0  0  0  0  0  0  0  0  0
    3.6847    3.0716   -0.8090 N   0  0  0  0  0  0  0  0  0  0  0  0
    4.2014    4.3019   -0.4730 C   0  0  0  0  0  0  0  0  0  0  0  0
    3.3914    5.2741   -1.0113 C   0  0  0  0  0  0  0  0  0  0  0  0
    2.3473    4.6215   -1.7188 C   0  0  0  0  0  0  0  0  0  0  0  0
    1.2565    5.0745   -2.4731 C   0  0  0  0  0  0  0  0  0  0  0  0
    0.4060    4.1980   -3.0595 N   0  0  0  0  0  0  0  0  0  0  0  0
    0.6422    2.8770   -2.9190 C   0  0  0  0  0  0  0  0  0  0  0  0
    1.6985    2.3300   -2.2064 C   0  0  0  0  0  0  0  0  0  0  0  0
    2.5553    3.2429   -1.5879 C   0  0  0  0  0  0  0  0  0  0  0  0
    0.3843    0.2999    1.1385 H   0  0  0  0  0  0  0  0  0  0  0  0
    1.1289   -1.9960   -1.7333 H   0  0  0  0  0  0  0  0  0  0  0  0
   -0.5804   -2.9946   -3.0785 H   0  0  0  0  0  0  0  0  0  0  0  0
   -3.6168   -1.0213   -0.7336 H   0  0  0  0  0  0  0  0  0  0  0  0
   -1.8685   -0.0008    0.6524 H   0  0  0  0  0  0  0  0  0  0  0  0
    1.8242   -0.5764    2.7944 H   0  0  0  0  0  0  0  0  0  0  0  0
    3.1944    0.3382    4.6200 H   0  0  0  0  0  0  0  0  0  0  0  0
    5.1263    1.8037    4.1092 H   0  0  0  0  0  0  0  0  0  0  0  0
    5.6324    2.4319    1.7896 H   0  0  0  0  0  0  0  0  0  0  0  0
    4.0903    1.0799   -1.2735 H   0  0  0  0  0  0  0  0  0  0  0  0
    5.4082    1.9618   -0.5649 H   0  0  0  0  0  0  0  0  0  0  0  0
    5.1082    4.3885    0.1134 H   0  0  0  0  0  0  0  0  0  0  0  0
    3.5421    6.3423   -0.9229 H   0  0  0  0  0  0  0  0  0  0  0  0
    1.0452    6.1262   -2.6289 H   0  0  0  0  0  0  0  0  0  0  0  0
   -0.0710    2.2283   -3.4211 H   0  0  0  0  0  0  0  0  0  0  0  0
    1.8355    1.2589   -2.1548 H   0  0  0  0  0  0  0  0  0  0  0  0
  1  2  2  0  0  0  0
  2  3  1  0  0  0  0
  2 15  1  0  0  0  0
  3  4  1  0  0  0  0
  3 31  1  0  0  0  0
  4  5  1  0  0  0  0
  4 14  2  0  0  0  0
  5  6  2  0  0  0  0
  5 32  1  0  0  0  0
  6  7  1  0  0  0  0
  6 33  1  0  0  0  0
  7  8  1  0  0  0  0
  7 13  2  0  0  0  0
  8  9  1  0  0  0  0
  9 10  1  0  0  0  0
  9 11  1  0  0  0  0
  9 12  1  0  0  0  0
 13 14  1  0  0  0  0
 13 34  1  0  0  0  0
 14 35  1  0  0  0  0
 15 16  1  0  0  0  0
 15 20  2  0  0  0  0
 16 17  2  0  0  0  0
 16 36  1  0  0  0  0
 17 18  1  0  0  0  0
 17 37  1  0  0  0  0
 18 19  2  0  0  0  0
 18 38  1  0  0  0  0
 19 20  1  0  0  0  0
 19 39  1  0  0  0  0
 20 21  1  0  0  0  0
 21 22  1  0  0  0  0
 21 40  1  0  0  0  0
 21 41  1  0  0  0  0
 22 23  1  0  0  0  0
 22 30  1  0  0  0  0
 23 24  2  0  0  0  0
 23 42  1  0  0  0  0
 24 25  1  0  0  0  0
 24 43  1  0  0  0  0
 25 26  1  0  0  0  0
 25 30  2  0  0  0  0
 26 27  2  0  0  0  0
 26 44  1  0  0  0  0
 27 28  1  0  0  0  0
 28 29  2  0  0  0  0
 28 45  1  0  0  0  0
 29 30  1  0  0  0  0
 29 46  1  0  0  0  0
M  END
$$$$
