CHEMBL1096737
 OpenBabel04072215363D

 42 45  0  0  0  0  0  0  0  0999 V2000
   -0.2852    1.4347   -2.3737 F   0  0  0  0  0  0  0  0  0  0  0  0
   -0.9371    0.4150   -1.7983 C   0  0  0  0  0  0  0  0  0  0  0  0
   -2.1883    0.6522   -1.2455 C   0  0  0  0  0  0  0  0  0  0  0  0
   -2.8886   -0.4005   -0.6565 C   0  0  0  0  0  0  0  0  0  0  0  0
   -2.3516   -1.6981   -0.6169 C   0  0  0  0  0  0  0  0  0  0  0  0
   -3.0533   -2.7738   -0.0283 N   0  0  0  0  0  0  0  0  0  0  0  0
   -4.4550   -2.8883    0.0148 C   0  0  0  0  0  0  0  0  0  0  0  0
   -5.1936   -2.3789   -1.0095 N   0  0  0  0  0  0  0  0  0  0  0  0
   -6.5339   -2.4421   -0.9551 C   0  0  0  0  0  0  0  0  0  0  0  0
   -7.2892   -2.9495    0.0256 N   0  0  0  0  0  0  0  0  0  0  0  0
   -6.5343   -3.4583    1.0063 C   0  0  0  0  0  0  0  0  0  0  0  0
   -7.0371   -4.0228    2.1428 N   0  0  0  0  0  0  0  0  0  0  0  0
   -6.0152   -4.4704    2.9491 C   0  0  0  0  0  0  0  0  0  0  0  0
   -6.2484   -5.1182    4.2836 C   0  0  0  0  0  0  0  0  0  0  0  0
   -7.5658   -5.8964    4.3717 C   0  0  0  0  0  0  0  0  0  0  0  0
   -7.7690   -6.5413    5.7195 C   0  0  0  0  0  0  0  0  0  0  0  0
   -8.3672   -5.8258    6.7662 C   0  0  0  0  0  0  0  0  0  0  0  0
   -8.5827   -6.4327    8.0043 C   0  0  0  0  0  0  0  0  0  0  0  0
   -8.1961   -7.7557    8.2091 C   0  0  0  0  0  0  0  0  0  0  0  0
   -7.5831   -8.4689    7.1806 C   0  0  0  0  0  0  0  0  0  0  0  0
   -7.3662   -7.8640    5.9417 C   0  0  0  0  0  0  0  0  0  0  0  0
   -4.8298   -4.1558    2.3004 C   0  0  0  0  0  0  0  0  0  0  0  0
   -5.1503   -3.4958    1.0763 C   0  0  0  0  0  0  0  0  0  0  0  0
   -1.0727   -1.9123   -1.1471 C   0  0  0  0  0  0  0  0  0  0  0  0
   -0.3757   -0.8606   -1.7517 C   0  0  0  0  0  0  0  0  0  0  0  0
    1.3232   -1.1856   -2.5148 Br  0  0  0  0  0  0  0  0  0  0  0  0
   -2.6176    1.6479   -1.2816 H   0  0  0  0  0  0  0  0  0  0  0  0
   -3.8691   -0.1994   -0.2298 H   0  0  0  0  0  0  0  0  0  0  0  0
   -2.6028   -3.1224    0.8092 H   0  0  0  0  0  0  0  0  0  0  0  0
   -7.0635   -2.0212   -1.8039 H   0  0  0  0  0  0  0  0  0  0  0  0
   -8.0275   -4.0793    2.3315 H   0  0  0  0  0  0  0  0  0  0  0  0
   -6.2222   -4.3375    5.0544 H   0  0  0  0  0  0  0  0  0  0  0  0
   -5.4111   -5.7957    4.4970 H   0  0  0  0  0  0  0  0  0  0  0  0
   -7.6069   -6.6640    3.5877 H   0  0  0  0  0  0  0  0  0  0  0  0
   -8.4199   -5.2341    4.1791 H   0  0  0  0  0  0  0  0  0  0  0  0
   -8.6792   -4.7939    6.6215 H   0  0  0  0  0  0  0  0  0  0  0  0
   -9.0577   -5.8753    8.8074 H   0  0  0  0  0  0  0  0  0  0  0  0
   -8.3734   -8.2314    9.1701 H   0  0  0  0  0  0  0  0  0  0  0  0
   -7.2788   -9.4998    7.3414 H   0  0  0  0  0  0  0  0  0  0  0  0
   -6.8906   -8.4355    5.1478 H   0  0  0  0  0  0  0  0  0  0  0  0
   -3.8382   -4.3651    2.6815 H   0  0  0  0  0  0  0  0  0  0  0  0
   -0.6427   -2.9105   -1.1278 H   0  0  0  0  0  0  0  0  0  0  0  0
  1  2  1  0  0  0  0
  2  3  1  0  0  0  0
  2 25  2  0  0  0  0
  3  4  2  0  0  0  0
  3 27  1  0  0  0  0
  4  5  1  0  0  0  0
  4 28  1  0  0  0  0
  5  6  1  0  0  0  0
  5 24  2  0  0  0  0
  6  7  1  0  0  0  0
  6 29  1  0  0  0  0
  7  8  1  0  0  0  0
  7 23  2  0  0  0  0
  8  9  2  0  0  0  0
  9 10  1  0  0  0  0
  9 30  1  0  0  0  0
 10 11  2  0  0  0  0
 11 12  1  0  0  0  0
 11 23  1  0  0  0  0
 12 13  1  0  0  0  0
 12 31  1  0  0  0  0
 13 14  1  0  0  0  0
 13 22  2  0  0  0  0
 14 15  1  0  0  0  0
 14 32  1  0  0  0  0
 14 33  1  0  0  0  0
 15 16  1  0  0  0  0
 15 34  1  0  0  0  0
 15 35  1  0  0  0  0
 16 17  1  0  0  0  0
 16 21  2  0  0  0  0
 17 18  2  0  0  0  0
 17 36  1  0  0  0  0
 18 19  1  0  0  0  0
 18 37  1  0  0  0  0
 19 20  2  0  0  0  0
 19 38  1  0  0  0  0
 20 21  1  0  0  0  0
 20 39  1  0  0  0  0
 21 40  1  0  0  0  0
 22 23  1  0  0  0  0
 22 41  1  0  0  0  0
 24 25  1  0  0  0  0
 24 42  1  0  0  0  0
 25 26  1  0  0  0  0
M  END
$$$$
