CHEMBL3681287
 OpenBabel04072215373D

 46 50  0  0  0  0  0  0  0  0999 V2000
    1.7938    0.0575    0.3691 C   0  0  0  0  0  0  0  0  0  0  0  0
    3.2879    0.0250    0.0980 C   0  0  0  0  0  0  0  0  0  0  0  0
    3.5830    0.4371   -1.2940 C   0  0  0  0  0  0  0  0  0  0  0  0
    3.8141    1.6640   -1.7253 N   0  0  0  0  0  0  0  0  0  0  0  0
    3.9231    1.5554   -3.0886 C   0  0  0  0  0  0  0  0  0  0  0  0
    4.1552    2.5604   -4.0389 C   0  0  0  0  0  0  0  0  0  0  0  0
    4.2204    2.1841   -5.3875 C   0  0  0  0  0  0  0  0  0  0  0  0
    4.5413    3.1268   -6.3935 N   0  0  0  0  0  0  0  0  0  0  0  0
    4.0658    2.9181   -7.6476 N   0  0  0  0  0  0  0  0  0  0  0  0
    4.5533    3.9270   -8.3551 C   0  0  0  0  0  0  0  0  0  0  0  0
    5.3890    4.7938   -7.6109 C   0  0  0  0  0  0  0  0  0  0  0  0
    6.1144    5.9709   -8.0860 C   0  0  0  0  0  0  0  0  0  0  0  0
    7.2164    6.2858   -7.6505 O   0  0  0  0  0  0  0  0  0  0  0  0
    5.4357    6.6826   -9.1405 C   0  0  0  0  0  0  0  0  0  0  0  0
    4.0758    6.7198   -9.3722 C   0  0  0  0  0  0  0  0  0  0  0  0
    3.8610    7.4294  -10.5546 C   0  0  0  0  0  0  0  0  0  0  0  0
    2.6967    7.7349  -11.2722 C   0  0  0  0  0  0  0  0  0  0  0  0
    2.6326    9.1125  -11.4225 C   0  0  0  0  0  0  0  0  0  0  0  0
    3.7739    9.8094  -11.8087 C   0  0  0  0  0  0  0  0  0  0  0  0
    5.0460    9.2350  -11.6606 C   0  0  0  0  0  0  0  0  0  0  0  0
    5.0476    8.1083  -10.8343 C   0  0  0  0  0  0  0  0  0  0  0  0
    6.0279    7.5162  -10.0669 N   0  0  0  0  0  0  0  0  0  0  0  0
    5.3724    4.2567   -6.3331 C   0  0  0  0  0  0  0  0  0  0  0  0
    6.0579    4.6608   -5.2284 N   0  0  0  0  0  0  0  0  0  0  0  0
    4.0062    0.8482   -5.7748 C   0  0  0  0  0  0  0  0  0  0  0  0
    3.7998   -0.1654   -4.8338 C   0  0  0  0  0  0  0  0  0  0  0  0
    3.7744    0.2385   -3.5101 C   0  0  0  0  0  0  0  0  0  0  0  0
    3.5896   -0.4623   -2.3374 N   0  0  0  0  0  0  0  0  0  0  0  0
    1.5891   -0.2182    1.4076 H   0  0  0  0  0  0  0  0  0  0  0  0
    1.2589   -0.6430   -0.2823 H   0  0  0  0  0  0  0  0  0  0  0  0
    1.3797    1.0567    0.1924 H   0  0  0  0  0  0  0  0  0  0  0  0
    3.6831   -0.9779    0.2914 H   0  0  0  0  0  0  0  0  0  0  0  0
    3.8030    0.7092    0.7847 H   0  0  0  0  0  0  0  0  0  0  0  0
    4.2368    3.5879   -3.7049 H   0  0  0  0  0  0  0  0  0  0  0  0
    4.2810    3.9887   -9.4022 H   0  0  0  0  0  0  0  0  0  0  0  0
    3.2981    6.2639   -8.7712 H   0  0  0  0  0  0  0  0  0  0  0  0
    2.7483    7.2351  -12.2627 H   0  0  0  0  0  0  0  0  0  0  0  0
    1.8300    9.6485  -10.9097 H   0  0  0  0  0  0  0  0  0  0  0  0
    3.6836   10.8616  -12.0594 H   0  0  0  0  0  0  0  0  0  0  0  0
    5.9402    9.8029  -11.8847 H   0  0  0  0  0  0  0  0  0  0  0  0
    7.0094    7.7636  -10.0717 H   0  0  0  0  0  0  0  0  0  0  0  0
    6.8181    5.3317   -5.3592 H   0  0  0  0  0  0  0  0  0  0  0  0
    6.2779    3.9970   -4.4865 H   0  0  0  0  0  0  0  0  0  0  0  0
    4.0484    0.5658   -6.8277 H   0  0  0  0  0  0  0  0  0  0  0  0
    3.6746   -1.1968   -5.1410 H   0  0  0  0  0  0  0  0  0  0  0  0
    3.4436   -1.4591   -2.2671 H   0  0  0  0  0  0  0  0  0  0  0  0
  1  2  1  0  0  0  0
  1 29  1  0  0  0  0
  1 30  1  0  0  0  0
  1 31  1  0  0  0  0
  2  3  1  0  0  0  0
  2 32  1  0  0  0  0
  2 33  1  0  0  0  0
  3  4  2  0  0  0  0
  3 28  1  0  0  0  0
  4  5  1  0  0  0  0
  5  6  1  0  0  0  0
  5 27  2  0  0  0  0
  6  7  2  0  0  0  0
  6 34  1  0  0  0  0
  7  8  1  0  0  0  0
  7 25  1  0  0  0  0
  8  9  1  0  0  0  0
  8 23  1  0  0  0  0
  9 10  2  0  0  0  0
 10 11  1  0  0  0  0
 10 35  1  0  0  0  0
 11 12  1  0  0  0  0
 11 23  2  0  0  0  0
 12 13  2  0  0  0  0
 12 14  1  0  0  0  0
 14 15  2  0  0  0  0
 14 22  1  0  0  0  0
 15 16  1  0  0  0  0
 15 36  1  0  0  0  0
 16 17  1  0  0  0  0
 16 21  2  0  0  0  0
 17 18  2  0  0  0  0
 17 37  1  0  0  0  0
 18 19  1  0  0  0  0
 18 38  1  0  0  0  0
 19 20  2  0  0  0  0
 19 39  1  0  0  0  0
 20 21  1  0  0  0  0
 20 40  1  0  0  0  0
 21 22  1  0  0  0  0
 22 41  1  0  0  0  0
 23 24  1  0  0  0  0
 24 42  1  0  0  0  0
 24 43  1  0  0  0  0
 25 26  2  0  0  0  0
 25 44  1  0  0  0  0
 26 27  1  0  0  0  0
 26 45  1  0  0  0  0
 27 28  1  0  0  0  0
 28 46  1  0  0  0  0
M  END
$$$$
