CHEMBL3781696
 OpenBabel04072215373D

 54 58  0  0  0  0  0  0  0  0999 V2000
    1.6488    0.7523    0.9763 C   0  0  0  0  0  0  0  0  0  0  0  0
    2.3642   -0.0212    0.0198 O   0  0  0  0  0  0  0  0  0  0  0  0
    2.9784    0.6661   -0.9898 C   0  0  0  0  0  0  0  0  0  0  0  0
    2.9653    2.0470   -1.1617 C   0  0  0  0  0  0  0  0  0  0  0  0
    3.6268    2.6289   -2.2517 C   0  0  0  0  0  0  0  0  0  0  0  0
    4.3229    1.8511   -3.1973 C   0  0  0  0  0  0  0  0  0  0  0  0
    5.0253    2.4619   -4.3438 C   0  0  0  0  0  0  0  0  0  0  0  0
    5.6091    3.7217   -4.2792 C   0  0  0  0  0  0  0  0  0  0  0  0
    6.2560    4.2950   -5.3170 N   0  0  0  0  0  0  0  0  0  0  0  0
    6.3308    3.5637   -6.4476 C   0  0  0  0  0  0  0  0  0  0  0  0
    7.0000    4.0562   -7.5502 C   0  0  0  0  0  0  0  0  0  0  0  0
    7.1649    3.4089   -8.7253 N   0  0  0  0  0  0  0  0  0  0  0  0
    6.6141    2.1831   -8.7927 C   0  0  0  0  0  0  0  0  0  0  0  0
    5.8994    1.5709   -7.7604 C   0  0  0  0  0  0  0  0  0  0  0  0
    5.3967    0.2552   -7.9019 N   0  0  0  0  0  0  0  0  0  0  0  0
    5.9290   -0.8254   -8.6228 C   0  0  0  0  0  0  0  0  0  0  0  0
    7.3000   -0.9585   -8.8630 C   0  0  0  0  0  0  0  0  0  0  0  0
    7.8050   -1.9882   -9.6697 C   0  0  0  0  0  0  0  0  0  0  0  0
    6.9613   -2.9117  -10.2902 C   0  0  0  0  0  0  0  0  0  0  0  0
    7.4331   -3.9223  -11.1032 N   0  0  0  0  0  0  0  0  0  0  0  0
    8.7627   -4.5301  -10.9436 C   0  0  0  0  0  0  0  0  0  0  0  0
    9.6460   -4.2463  -12.1668 C   0  0  0  0  0  0  0  0  0  0  0  0
    9.0013   -4.6485  -13.3872 O   0  0  0  0  0  0  0  0  0  0  0  0
    7.7659   -3.9324  -13.5510 C   0  0  0  0  0  0  0  0  0  0  0  0
    6.7864   -4.2077  -12.3955 C   0  0  0  0  0  0  0  0  0  0  0  0
    5.5874   -2.7772  -10.0322 C   0  0  0  0  0  0  0  0  0  0  0  0
    5.0779   -1.7608   -9.2086 C   0  0  0  0  0  0  0  0  0  0  0  0
    5.7557    2.2745   -6.5527 C   0  0  0  0  0  0  0  0  0  0  0  0
    5.0972    1.7330   -5.4898 N   0  0  0  0  0  0  0  0  0  0  0  0
    4.3259    0.4602   -3.0016 C   0  0  0  0  0  0  0  0  0  0  0  0
    3.6645   -0.1225   -1.9131 C   0  0  0  0  0  0  0  0  0  0  0  0
    1.2011    0.0641    1.6993 H   0  0  0  0  0  0  0  0  0  0  0  0
    0.8351    1.3135    0.5045 H   0  0  0  0  0  0  0  0  0  0  0  0
    2.3230    1.4197    1.5236 H   0  0  0  0  0  0  0  0  0  0  0  0
    2.4454    2.7049   -0.4732 H   0  0  0  0  0  0  0  0  0  0  0  0
    3.5686    3.7108   -2.3538 H   0  0  0  0  0  0  0  0  0  0  0  0
    5.5939    4.3184   -3.3727 H   0  0  0  0  0  0  0  0  0  0  0  0
    7.4536    5.0426   -7.5062 H   0  0  0  0  0  0  0  0  0  0  0  0
    6.7476    1.6843   -9.7502 H   0  0  0  0  0  0  0  0  0  0  0  0
    4.6154    0.0461   -7.2831 H   0  0  0  0  0  0  0  0  0  0  0  0
    8.0067   -0.2693   -8.4084 H   0  0  0  0  0  0  0  0  0  0  0  0
    8.8776   -2.0221   -9.8309 H   0  0  0  0  0  0  0  0  0  0  0  0
    8.6150   -5.6139  -10.8620 H   0  0  0  0  0  0  0  0  0  0  0  0
    9.2700   -4.2166  -10.0251 H   0  0  0  0  0  0  0  0  0  0  0  0
   10.5793   -4.8130  -12.0872 H   0  0  0  0  0  0  0  0  0  0  0  0
    9.9051   -3.1834  -12.2345 H   0  0  0  0  0  0  0  0  0  0  0  0
    7.3211   -4.2547  -14.4979 H   0  0  0  0  0  0  0  0  0  0  0  0
    7.9870   -2.8614  -13.6344 H   0  0  0  0  0  0  0  0  0  0  0  0
    6.5023   -5.2663  -12.4044 H   0  0  0  0  0  0  0  0  0  0  0  0
    5.8791   -3.6162  -12.5592 H   0  0  0  0  0  0  0  0  0  0  0  0
    4.8858   -3.4904  -10.4575 H   0  0  0  0  0  0  0  0  0  0  0  0
    4.0036   -1.6972   -9.0549 H   0  0  0  0  0  0  0  0  0  0  0  0
    4.8555   -0.1859   -3.7000 H   0  0  0  0  0  0  0  0  0  0  0  0
    3.6857   -1.2028   -1.7892 H   0  0  0  0  0  0  0  0  0  0  0  0
  1  2  1  0  0  0  0
  1 32  1  0  0  0  0
  1 33  1  0  0  0  0
  1 34  1  0  0  0  0
  2  3  1  0  0  0  0
  3  4  1  0  0  0  0
  3 31  2  0  0  0  0
  4  5  2  0  0  0  0
  4 35  1  0  0  0  0
  5  6  1  0  0  0  0
  5 36  1  0  0  0  0
  6  7  1  0  0  0  0
  6 30  2  0  0  0  0
  7  8  1  0  0  0  0
  7 29  2  0  0  0  0
  8  9  2  0  0  0  0
  8 37  1  0  0  0  0
  9 10  1  0  0  0  0
 10 11  1  0  0  0  0
 10 28  2  0  0  0  0
 11 12  2  0  0  0  0
 11 38  1  0  0  0  0
 12 13  1  0  0  0  0
 13 14  2  0  0  0  0
 13 39  1  0  0  0  0
 14 15  1  0  0  0  0
 14 28  1  0  0  0  0
 15 16  1  0  0  0  0
 15 40  1  0  0  0  0
 16 17  1  0  0  0  0
 16 27  2  0  0  0  0
 17 18  2  0  0  0  0
 17 41  1  0  0  0  0
 18 19  1  0  0  0  0
 18 42  1  0  0  0  0
 19 20  1  0  0  0  0
 19 26  2  0  0  0  0
 20 21  1  0  0  0  0
 20 25  1  0  0  0  0
 21 22  1  0  0  0  0
 21 43  1  0  0  0  0
 21 44  1  0  0  0  0
 22 23  1  0  0  0  0
 22 45  1  0  0  0  0
 22 46  1  0  0  0  0
 23 24  1  0  0  0  0
 24 25  1  0  0  0  0
 24 47  1  0  0  0  0
 24 48  1  0  0  0  0
 25 49  1  0  0  0  0
 25 50  1  0  0  0  0
 26 27  1  0  0  0  0
 26 51  1  0  0  0  0
 27 52  1  0  0  0  0
 28 29  1  0  0  0  0
 30 31  1  0  0  0  0
 30 53  1  0  0  0  0
 31 54  1  0  0  0  0
M  END
$$$$
