CHEMBL373798
 OpenBabel04072215373D

 43 46  0  0  0  0  0  0  0  0999 V2000
   -1.0806    2.1180   -3.1900 N   0  0  0  0  0  0  0  0  0  0  0  0
   -1.3555    1.0062   -2.4935 C   0  0  0  0  0  0  0  0  0  0  0  0
   -1.7442   -0.0930   -3.1345 N   0  0  0  0  0  0  0  0  0  0  0  0
   -1.9337   -0.9791   -2.1565 N   0  0  0  0  0  0  0  0  0  0  0  0
   -1.6808   -0.5044   -0.8997 C   0  0  0  0  0  0  0  0  0  0  0  0
   -1.7769   -1.1450    0.3373 C   0  0  0  0  0  0  0  0  0  0  0  0
   -1.4333   -0.4103    1.4639 C   0  0  0  0  0  0  0  0  0  0  0  0
   -1.0109    0.9137    1.3491 C   0  0  0  0  0  0  0  0  0  0  0  0
   -0.9193    1.5774    0.0983 C   0  0  0  0  0  0  0  0  0  0  0  0
   -0.4498    2.9764    0.0321 C   0  0  0  0  0  0  0  0  0  0  0  0
    0.4787    3.3796   -0.9293 C   0  0  0  0  0  0  0  0  0  0  0  0
    0.8597    4.7171   -1.0639 C   0  0  0  0  0  0  0  0  0  0  0  0
    0.3906    5.6928   -0.1867 C   0  0  0  0  0  0  0  0  0  0  0  0
    0.7717    7.0510   -0.2850 N   0  0  0  0  0  0  0  0  0  0  0  0
    1.3945    7.6216   -1.3803 C   0  0  0  0  0  0  0  0  0  0  0  0
    1.5449    7.0801   -2.4687 O   0  0  0  0  0  0  0  0  0  0  0  0
    1.8877    8.8900   -1.0880 N   0  0  0  0  0  0  0  0  0  0  0  0
    2.5892    9.6292   -2.0704 C   0  0  0  0  0  0  0  0  0  0  0  0
    3.7787   10.2692   -1.7088 C   0  0  0  0  0  0  0  0  0  0  0  0
    4.5479   10.9151   -2.6839 C   0  0  0  0  0  0  0  0  0  0  0  0
    4.1070   10.9700   -4.0030 C   0  0  0  0  0  0  0  0  0  0  0  0
    2.8966   10.3722   -4.3456 C   0  0  0  0  0  0  0  0  0  0  0  0
    2.4684   10.4316   -5.6120 F   0  0  0  0  0  0  0  0  0  0  0  0
    2.1378    9.7008   -3.3938 C   0  0  0  0  0  0  0  0  0  0  0  0
   -0.4526    5.2945    0.8501 C   0  0  0  0  0  0  0  0  0  0  0  0
   -0.8801    3.9588    0.9465 C   0  0  0  0  0  0  0  0  0  0  0  0
   -1.2757    0.8270   -1.0679 C   0  0  0  0  0  0  0  0  0  0  0  0
   -1.3010    2.1009   -4.1792 H   0  0  0  0  0  0  0  0  0  0  0  0
   -1.1499    3.0369   -2.7708 H   0  0  0  0  0  0  0  0  0  0  0  0
   -2.2405   -1.9123   -2.4102 H   0  0  0  0  0  0  0  0  0  0  0  0
   -2.0943   -2.1787    0.4186 H   0  0  0  0  0  0  0  0  0  0  0  0
   -1.4802   -0.8762    2.4467 H   0  0  0  0  0  0  0  0  0  0  0  0
   -0.7249    1.4385    2.2582 H   0  0  0  0  0  0  0  0  0  0  0  0
    0.9077    2.6570   -1.6206 H   0  0  0  0  0  0  0  0  0  0  0  0
    1.5389    4.9480   -1.8796 H   0  0  0  0  0  0  0  0  0  0  0  0
    0.3978    7.6895    0.4027 H   0  0  0  0  0  0  0  0  0  0  0  0
    2.1970    9.0003   -0.1331 H   0  0  0  0  0  0  0  0  0  0  0  0
    4.1562   10.2128   -0.6921 H   0  0  0  0  0  0  0  0  0  0  0  0
    5.5035   11.3592   -2.4146 H   0  0  0  0  0  0  0  0  0  0  0  0
    4.6956   11.4595   -4.7716 H   0  0  0  0  0  0  0  0  0  0  0  0
    1.2127    9.2312   -3.7021 H   0  0  0  0  0  0  0  0  0  0  0  0
   -0.8101    6.0113    1.5877 H   0  0  0  0  0  0  0  0  0  0  0  0
   -1.5668    3.6938    1.7487 H   0  0  0  0  0  0  0  0  0  0  0  0
  1  2  1  0  0  0  0
  1 28  1  0  0  0  0
  1 29  1  0  0  0  0
  2  3  2  0  0  0  0
  2 27  1  0  0  0  0
  3  4  1  0  0  0  0
  4  5  1  0  0  0  0
  4 30  1  0  0  0  0
  5  6  1  0  0  0  0
  5 27  2  0  0  0  0
  6  7  2  0  0  0  0
  6 31  1  0  0  0  0
  7  8  1  0  0  0  0
  7 32  1  0  0  0  0
  8  9  2  0  0  0  0
  8 33  1  0  0  0  0
  9 10  1  0  0  0  0
  9 27  1  0  0  0  0
 10 11  1  0  0  0  0
 10 26  2  0  0  0  0
 11 12  2  0  0  0  0
 11 34  1  0  0  0  0
 12 13  1  0  0  0  0
 12 35  1  0  0  0  0
 13 14  1  0  0  0  0
 13 25  2  0  0  0  0
 14 15  1  0  0  0  0
 14 36  1  0  0  0  0
 15 16  2  0  0  0  0
 15 17  1  0  0  0  0
 17 18  1  0  0  0  0
 17 37  1  0  0  0  0
 18 19  1  0  0  0  0
 18 24  2  0  0  0  0
 19 20  2  0  0  0  0
 19 38  1  0  0  0  0
 20 21  1  0  0  0  0
 20 39  1  0  0  0  0
 21 22  2  0  0  0  0
 21 40  1  0  0  0  0
 22 23  1  0  0  0  0
 22 24  1  0  0  0  0
 24 41  1  0  0  0  0
 25 26  1  0  0  0  0
 25 42  1  0  0  0  0
 26 43  1  0  0  0  0
M  END
$$$$
