CHEMBL3671510
 OpenBabel04072215373D

 58 60  0  0  0  0  0  0  0  0999 V2000
    3.2279   -1.7758   -3.6585 C   0  0  0  0  0  0  0  0  0  0  0  0
    3.2982   -0.5587   -3.1062 C   0  0  0  0  0  0  0  0  0  0  0  0
    3.5466   -0.4349   -1.6434 C   0  0  0  0  0  0  0  0  0  0  0  0
    3.1156   -1.2547   -0.8383 O   0  0  0  0  0  0  0  0  0  0  0  0
    4.3429    0.6093   -1.2278 N   0  0  0  0  0  0  0  0  0  0  0  0
    5.1277    1.3643   -2.1194 C   0  0  0  0  0  0  0  0  0  0  0  0
    6.2005    0.7240   -2.7405 C   0  0  0  0  0  0  0  0  0  0  0  0
    6.7987    1.2926   -3.8895 C   0  0  0  0  0  0  0  0  0  0  0  0
    7.8188    0.6703   -4.6335 C   0  0  0  0  0  0  0  0  0  0  0  0
    8.2463   -0.6244   -4.2734 N   0  0  0  0  0  0  0  0  0  0  0  0
    9.5314   -1.1895   -4.4068 C   0  0  0  0  0  0  0  0  0  0  0  0
   10.6883   -0.4030   -4.3780 C   0  0  0  0  0  0  0  0  0  0  0  0
   11.9509   -0.9934   -4.2672 C   0  0  0  0  0  0  0  0  0  0  0  0
   12.0638   -2.3811   -4.1969 C   0  0  0  0  0  0  0  0  0  0  0  0
   13.7581   -3.1654   -3.9037 Br  0  0  0  0  0  0  0  0  0  0  0  0
   10.9352   -3.1877   -4.2912 C   0  0  0  0  0  0  0  0  0  0  0  0
    9.6844   -2.5846   -4.3881 C   0  0  0  0  0  0  0  0  0  0  0  0
    8.5919   -3.3647   -4.4324 F   0  0  0  0  0  0  0  0  0  0  0  0
    8.3667    1.2561   -5.7117 N   0  0  0  0  0  0  0  0  0  0  0  0
    7.8616    2.4395   -6.0694 C   0  0  0  0  0  0  0  0  0  0  0  0
    6.8801    3.1052   -5.4473 N   0  0  0  0  0  0  0  0  0  0  0  0
    6.3578    2.5316   -4.3572 C   0  0  0  0  0  0  0  0  0  0  0  0
    5.3394    3.1895   -3.6687 C   0  0  0  0  0  0  0  0  0  0  0  0
    4.7291    2.6382   -2.5348 C   0  0  0  0  0  0  0  0  0  0  0  0
    3.7433    3.4136   -1.9675 O   0  0  0  0  0  0  0  0  0  0  0  0
    3.5893    3.2525   -0.5512 C   0  0  0  0  0  0  0  0  0  0  0  0
    3.1222    4.5485    0.1180 C   0  0  0  0  0  0  0  0  0  0  0  0
    3.1282    4.4195    1.5723 N   0  0  0  0  0  0  0  0  0  0  0  0
    4.2979    4.5720    2.2690 C   0  0  0  0  0  0  0  0  0  0  0  0
    5.3776    4.8080    1.7423 O   0  0  0  0  0  0  0  0  0  0  0  0
    4.1152    4.4276    3.6209 N   0  0  0  0  0  0  0  0  0  0  0  0
    5.2418    4.5792    4.5371 C   0  0  0  0  0  0  0  0  0  0  0  0
    4.7446    4.9376    5.9332 C   0  0  0  0  0  0  0  0  0  0  0  0
    6.1137    3.3254    4.5832 C   0  0  0  0  0  0  0  0  0  0  0  0
    3.1207   -1.8942   -4.7311 H   0  0  0  0  0  0  0  0  0  0  0  0
    3.2934   -2.6753   -3.0526 H   0  0  0  0  0  0  0  0  0  0  0  0
    3.2525    0.3372   -3.7130 H   0  0  0  0  0  0  0  0  0  0  0  0
    4.7589    0.3829   -0.3303 H   0  0  0  0  0  0  0  0  0  0  0  0
    6.5317   -0.2434   -2.3736 H   0  0  0  0  0  0  0  0  0  0  0  0
    7.5032   -1.3065   -4.3898 H   0  0  0  0  0  0  0  0  0  0  0  0
   10.6156    0.6822   -4.3914 H   0  0  0  0  0  0  0  0  0  0  0  0
   12.8291   -0.3571   -4.2003 H   0  0  0  0  0  0  0  0  0  0  0  0
   11.0052   -4.2695   -4.2537 H   0  0  0  0  0  0  0  0  0  0  0  0
    8.2845    2.9045   -6.9537 H   0  0  0  0  0  0  0  0  0  0  0  0
    5.0007    4.1552   -4.0365 H   0  0  0  0  0  0  0  0  0  0  0  0
    4.5330    2.9500   -0.0808 H   0  0  0  0  0  0  0  0  0  0  0  0
    2.8293    2.4832   -0.3662 H   0  0  0  0  0  0  0  0  0  0  0  0
    2.1059    4.8006   -0.2006 H   0  0  0  0  0  0  0  0  0  0  0  0
    3.7681    5.3847   -0.1772 H   0  0  0  0  0  0  0  0  0  0  0  0
    2.2811    4.6421    2.0727 H   0  0  0  0  0  0  0  0  0  0  0  0
    3.3854    3.7810    3.8862 H   0  0  0  0  0  0  0  0  0  0  0  0
    5.8553    5.4101    4.1667 H   0  0  0  0  0  0  0  0  0  0  0  0
    4.1498    4.1267    6.3670 H   0  0  0  0  0  0  0  0  0  0  0  0
    4.1140    5.8329    5.9037 H   0  0  0  0  0  0  0  0  0  0  0  0
    5.5867    5.1394    6.6034 H   0  0  0  0  0  0  0  0  0  0  0  0
    5.5599    2.4688    4.9834 H   0  0  0  0  0  0  0  0  0  0  0  0
    6.9892    3.4905    5.2198 H   0  0  0  0  0  0  0  0  0  0  0  0
    6.4731    3.0495    3.5861 H   0  0  0  0  0  0  0  0  0  0  0  0
  1  2  2  0  0  0  0
  1 35  1  0  0  0  0
  1 36  1  0  0  0  0
  2  3  1  0  0  0  0
  2 37  1  0  0  0  0
  3  4  2  0  0  0  0
  3  5  1  0  0  0  0
  5  6  1  0  0  0  0
  5 38  1  0  0  0  0
  6  7  1  0  0  0  0
  6 24  2  0  0  0  0
  7  8  2  0  0  0  0
  7 39  1  0  0  0  0
  8  9  1  0  0  0  0
  8 22  1  0  0  0  0
  9 10  1  0  0  0  0
  9 19  2  0  0  0  0
 10 11  1  0  0  0  0
 10 40  1  0  0  0  0
 11 12  1  0  0  0  0
 11 17  2  0  0  0  0
 12 13  2  0  0  0  0
 12 41  1  0  0  0  0
 13 14  1  0  0  0  0
 13 42  1  0  0  0  0
 14 15  1  0  0  0  0
 14 16  2  0  0  0  0
 16 17  1  0  0  0  0
 16 43  1  0  0  0  0
 17 18  1  0  0  0  0
 19 20  1  0  0  0  0
 20 21  2  0  0  0  0
 20 44  1  0  0  0  0
 21 22  1  0  0  0  0
 22 23  2  0  0  0  0
 23 24  1  0  0  0  0
 23 45  1  0  0  0  0
 24 25  1  0  0  0  0
 25 26  1  0  0  0  0
 26 27  1  0  0  0  0
 26 46  1  0  0  0  0
 26 47  1  0  0  0  0
 27 28  1  0  0  0  0
 27 48  1  0  0  0  0
 27 49  1  0  0  0  0
 28 29  1  0  0  0  0
 28 50  1  0  0  0  0
 29 30  2  0  0  0  0
 29 31  1  0  0  0  0
 31 32  1  0  0  0  0
 31 51  1  0  0  0  0
 32 33  1  0  0  0  0
 32 34  1  0  0  0  0
 32 52  1  0  0  0  0
 33 53  1  0  0  0  0
 33 54  1  0  0  0  0
 33 55  1  0  0  0  0
 34 56  1  0  0  0  0
 34 57  1  0  0  0  0
 34 58  1  0  0  0  0
M  END
$$$$
