CHEMBL387313
 OpenBabel04072215373D

 34 36  0  0  0  0  0  0  0  0999 V2000
    1.0793   -0.8240    0.4569 C   0  0  0  0  0  0  0  0  0  0  0  0
    2.4343   -0.4443    0.2258 O   0  0  0  0  0  0  0  0  0  0  0  0
    2.9856   -0.0497    1.4492 N   0  0  0  0  0  0  0  0  0  0  0  0
    4.2309    0.2817    1.2961 C   0  0  0  0  0  0  0  0  0  0  0  0
    5.0393    0.7244    2.4465 C   0  0  0  0  0  0  0  0  0  0  0  0
    4.7040    0.3792    3.7524 C   0  0  0  0  0  0  0  0  0  0  0  0
    3.6993   -0.5377    4.0577 N   0  0  0  0  0  0  0  0  0  0  0  0
    5.3992    0.8023    4.8203 N   0  0  0  0  0  0  0  0  0  0  0  0
    6.4386    1.6047    4.5747 C   0  0  0  0  0  0  0  0  0  0  0  0
    6.8436    2.0075    3.3693 N   0  0  0  0  0  0  0  0  0  0  0  0
    6.1566    1.5254    2.3079 C   0  0  0  0  0  0  0  0  0  0  0  0
    6.5923    1.8863    1.0305 O   0  0  0  0  0  0  0  0  0  0  0  0
    7.9089    2.3015    0.9065 C   0  0  0  0  0  0  0  0  0  0  0  0
    8.9638    1.6147    1.5126 C   0  0  0  0  0  0  0  0  0  0  0  0
   10.2781    2.0881    1.4425 C   0  0  0  0  0  0  0  0  0  0  0  0
   10.5076    3.2379    0.6858 C   0  0  0  0  0  0  0  0  0  0  0  0
   11.6785    3.9280    0.4615 N   0  0  0  0  0  0  0  0  0  0  0  0
   11.4520    4.9810   -0.3826 C   0  0  0  0  0  0  0  0  0  0  0  0
   10.1086    4.9896   -0.6874 C   0  0  0  0  0  0  0  0  0  0  0  0
    9.4930    3.9062   -0.0009 C   0  0  0  0  0  0  0  0  0  0  0  0
    8.1660    3.4261    0.1081 C   0  0  0  0  0  0  0  0  0  0  0  0
    0.6201   -1.0898   -0.4986 H   0  0  0  0  0  0  0  0  0  0  0  0
    0.5215    0.0098    0.8960 H   0  0  0  0  0  0  0  0  0  0  0  0
    1.0357   -1.6919    1.1234 H   0  0  0  0  0  0  0  0  0  0  0  0
    4.7102    0.2562    0.3019 H   0  0  0  0  0  0  0  0  0  0  0  0
    2.8656   -0.3853    3.4888 H   0  0  0  0  0  0  0  0  0  0  0  0
    3.5357   -0.5459    5.0582 H   0  0  0  0  0  0  0  0  0  0  0  0
    7.0161    1.9432    5.4278 H   0  0  0  0  0  0  0  0  0  0  0  0
    8.7723    0.7184    2.0957 H   0  0  0  0  0  0  0  0  0  0  0  0
   11.0791    1.5804    1.9680 H   0  0  0  0  0  0  0  0  0  0  0  0
   12.5727    3.6819    0.8637 H   0  0  0  0  0  0  0  0  0  0  0  0
   12.2614    5.6309   -0.6869 H   0  0  0  0  0  0  0  0  0  0  0  0
    9.6212    5.7097   -1.3349 H   0  0  0  0  0  0  0  0  0  0  0  0
    7.3576    3.9417   -0.4008 H   0  0  0  0  0  0  0  0  0  0  0  0
  1  2  1  0  0  0  0
  1 22  1  0  0  0  0
  1 23  1  0  0  0  0
  1 24  1  0  0  0  0
  2  3  1  0  0  0  0
  3  4  2  0  0  0  0
  4  5  1  0  0  0  0
  4 25  1  0  0  0  0
  5  6  1  0  0  0  0
  5 11  2  0  0  0  0
  6  7  1  0  0  0  0
  6  8  2  0  0  0  0
  7 26  1  0  0  0  0
  7 27  1  0  0  0  0
  8  9  1  0  0  0  0
  9 10  2  0  0  0  0
  9 28  1  0  0  0  0
 10 11  1  0  0  0  0
 11 12  1  0  0  0  0
 12 13  1  0  0  0  0
 13 14  1  0  0  0  0
 13 21  2  0  0  0  0
 14 15  2  0  0  0  0
 14 29  1  0  0  0  0
 15 16  1  0  0  0  0
 15 30  1  0  0  0  0
 16 17  1  0  0  0  0
 16 20  2  0  0  0  0
 17 18  1  0  0  0  0
 17 31  1  0  0  0  0
 18 19  2  0  0  0  0
 18 32  1  0  0  0  0
 19 20  1  0  0  0  0
 19 33  1  0  0  0  0
 20 21  1  0  0  0  0
 21 34  1  0  0  0  0
M  END
$$$$
