CHEMBL430155
 OpenBabel04072215383D

 58 61  0  0  0  0  0  0  0  0999 V2000
    2.5302    0.3830    0.0117 C   0  0  0  0  0  0  0  0  0  0  0  0
    1.0733    0.0900   -0.0106 C   0  0  0  0  0  0  0  0  0  0  0  0
    0.6157   -1.2048   -0.0333 N   0  0  0  0  0  0  0  0  0  0  0  0
   -0.7537   -1.2278   -0.0133 C   0  0  0  0  0  0  0  0  0  0  0  0
   -1.3967   -2.4884    0.0251 C   0  0  0  0  0  0  0  0  0  0  0  0
   -1.7565   -3.1588   -1.0804 C   0  0  0  0  0  0  0  0  0  0  0  0
   -1.5503   -2.7324   -2.5190 C   0  0  0  0  0  0  0  0  0  0  0  0
   -1.0576   -1.7137   -2.9592 O   0  0  0  0  0  0  0  0  0  0  0  0
   -2.0429   -3.7828   -3.2732 N   0  0  0  0  0  0  0  0  0  0  0  0
   -2.5389   -4.8050   -2.4733 C   0  0  0  0  0  0  0  0  0  0  0  0
   -3.0938   -5.9908   -2.9121 C   0  0  0  0  0  0  0  0  0  0  0  0
   -3.5416   -6.8856   -1.9410 C   0  0  0  0  0  0  0  0  0  0  0  0
   -3.4266   -6.5738   -0.5732 C   0  0  0  0  0  0  0  0  0  0  0  0
   -2.8540   -5.3640   -0.1515 C   0  0  0  0  0  0  0  0  0  0  0  0
   -2.4050   -4.4808   -1.1197 C   0  0  0  0  0  0  0  0  0  0  0  0
   -1.1977    0.0833   -0.0190 C   0  0  0  0  0  0  0  0  0  0  0  0
   -2.6153    0.5389   -0.0213 C   0  0  0  0  0  0  0  0  0  0  0  0
   -0.0310    0.9303   -0.0189 C   0  0  0  0  0  0  0  0  0  0  0  0
   -0.0283    2.4334    0.0272 C   0  0  0  0  0  0  0  0  0  0  0  0
    0.5896    3.1179   -1.1991 C   0  0  0  0  0  0  0  0  0  0  0  0
    0.4625    4.6449   -1.0627 C   0  0  0  0  0  0  0  0  0  0  0  0
    1.0902    5.4282   -2.1409 N   0  0  0  0  0  0  0  0  0  0  0  0
    0.5294    5.1263   -3.4719 C   0  0  0  0  0  0  0  0  0  0  0  0
    1.1062    6.0396   -4.5826 C   0  0  0  0  0  0  0  0  0  0  0  0
    0.9780    7.4884   -4.3322 N   0  0  0  0  0  0  0  0  0  0  0  0
   -0.4019    7.9410   -4.4912 C   0  0  0  0  0  0  0  0  0  0  0  0
    1.4984    7.7816   -2.9829 C   0  0  0  0  0  0  0  0  0  0  0  0
    0.9452    6.8743   -1.8573 C   0  0  0  0  0  0  0  0  0  0  0  0
    3.1250   -0.5359    0.0492 H   0  0  0  0  0  0  0  0  0  0  0  0
    2.7850    0.9844    0.8898 H   0  0  0  0  0  0  0  0  0  0  0  0
    2.8293    0.9312   -0.8861 H   0  0  0  0  0  0  0  0  0  0  0  0
    1.2070   -2.0238   -0.0591 H   0  0  0  0  0  0  0  0  0  0  0  0
   -1.5955   -2.9044    1.0086 H   0  0  0  0  0  0  0  0  0  0  0  0
   -2.0296   -3.7703   -4.2809 H   0  0  0  0  0  0  0  0  0  0  0  0
   -3.1792   -6.2229   -3.9673 H   0  0  0  0  0  0  0  0  0  0  0  0
   -3.9860   -7.8318   -2.2428 H   0  0  0  0  0  0  0  0  0  0  0  0
   -3.7903   -7.2856    0.1659 H   0  0  0  0  0  0  0  0  0  0  0  0
   -2.7753   -5.1401    0.9058 H   0  0  0  0  0  0  0  0  0  0  0  0
   -3.3147   -0.3026   -0.0034 H   0  0  0  0  0  0  0  0  0  0  0  0
   -2.8223    1.1291   -0.9197 H   0  0  0  0  0  0  0  0  0  0  0  0
   -2.8168    1.1599    0.8576 H   0  0  0  0  0  0  0  0  0  0  0  0
    0.5007    2.7517    0.9340 H   0  0  0  0  0  0  0  0  0  0  0  0
   -1.0601    2.7906    0.1366 H   0  0  0  0  0  0  0  0  0  0  0  0
    0.0792    2.7642   -2.1020 H   0  0  0  0  0  0  0  0  0  0  0  0
    1.6468    2.8494   -1.2973 H   0  0  0  0  0  0  0  0  0  0  0  0
    0.9453    4.9299   -0.1178 H   0  0  0  0  0  0  0  0  0  0  0  0
   -0.5983    4.9100   -0.9708 H   0  0  0  0  0  0  0  0  0  0  0  0
   -0.5650    5.2150   -3.4563 H   0  0  0  0  0  0  0  0  0  0  0  0
    0.7686    4.0939   -3.7503 H   0  0  0  0  0  0  0  0  0  0  0  0
    0.6462    5.7820   -5.5447 H   0  0  0  0  0  0  0  0  0  0  0  0
    2.1745    5.8115   -4.6995 H   0  0  0  0  0  0  0  0  0  0  0  0
   -0.7555    7.7343   -5.5077 H   0  0  0  0  0  0  0  0  0  0  0  0
   -0.4638    9.0266   -4.3567 H   0  0  0  0  0  0  0  0  0  0  0  0
   -1.0991    7.4728   -3.7892 H   0  0  0  0  0  0  0  0  0  0  0  0
    1.3148    8.8330   -2.7291 H   0  0  0  0  0  0  0  0  0  0  0  0
    2.5911    7.6734   -3.0112 H   0  0  0  0  0  0  0  0  0  0  0  0
   -0.1105    7.1242   -1.6866 H   0  0  0  0  0  0  0  0  0  0  0  0
    1.4845    7.1172   -0.9336 H   0  0  0  0  0  0  0  0  0  0  0  0
  1  2  1  0  0  0  0
  1 29  1  0  0  0  0
  1 30  1  0  0  0  0
  1 31  1  0  0  0  0
  2  3  1  0  0  0  0
  2 18  2  0  0  0  0
  3  4  1  0  0  0  0
  3 32  1  0  0  0  0
  4  5  1  0  0  0  0
  4 16  2  0  0  0  0
  5  6  2  0  0  0  0
  5 33  1  0  0  0  0
  6  7  1  0  0  0  0
  6 15  1  0  0  0  0
  7  8  2  0  0  0  0
  7  9  1  0  0  0  0
  9 10  1  0  0  0  0
  9 34  1  0  0  0  0
 10 11  1  0  0  0  0
 10 15  2  0  0  0  0
 11 12  2  0  0  0  0
 11 35  1  0  0  0  0
 12 13  1  0  0  0  0
 12 36  1  0  0  0  0
 13 14  2  0  0  0  0
 13 37  1  0  0  0  0
 14 15  1  0  0  0  0
 14 38  1  0  0  0  0
 16 17  1  0  0  0  0
 16 18  1  0  0  0  0
 17 39  1  0  0  0  0
 17 40  1  0  0  0  0
 17 41  1  0  0  0  0
 18 19  1  0  0  0  0
 19 20  1  0  0  0  0
 19 42  1  0  0  0  0
 19 43  1  0  0  0  0
 20 21  1  0  0  0  0
 20 44  1  0  0  0  0
 20 45  1  0  0  0  0
 21 22  1  0  0  0  0
 21 46  1  0  0  0  0
 21 47  1  0  0  0  0
 22 23  1  0  0  0  0
 22 28  1  0  0  0  0
 23 24  1  0  0  0  0
 23 48  1  0  0  0  0
 23 49  1  0  0  0  0
 24 25  1  0  0  0  0
 24 50  1  0  0  0  0
 24 51  1  0  0  0  0
 25 26  1  0  0  0  0
 25 27  1  0  0  0  0
 26 52  1  0  0  0  0
 26 53  1  0  0  0  0
 26 54  1  0  0  0  0
 27 28  1  0  0  0  0
 27 55  1  0  0  0  0
 27 56  1  0  0  0  0
 28 57  1  0  0  0  0
 28 58  1  0  0  0  0
M  END
$$$$
