CHEMBL3760069
 OpenBabel04072215373D

 47 49  0  0  0  0  0  0  0  0999 V2000
    2.4612    1.3218    1.2068 C   0  0  0  0  0  0  0  0  0  0  0  0
    2.3395    0.2536    0.2643 O   0  0  0  0  0  0  0  0  0  0  0  0
    2.9373   -0.9201    0.6445 C   0  0  0  0  0  0  0  0  0  0  0  0
    4.0688   -0.9183    1.4730 C   0  0  0  0  0  0  0  0  0  0  0  0
    4.6090   -2.0762    1.9943 C   0  0  0  0  0  0  0  0  0  0  0  0
    5.6349   -1.9441    2.8375 N   0  0  0  0  0  0  0  0  0  0  0  0
    6.1364   -3.0689    3.3419 C   0  0  0  0  0  0  0  0  0  0  0  0
    5.7292   -4.2988    3.0408 N   0  0  0  0  0  0  0  0  0  0  0  0
    4.7082   -4.4227    2.1652 C   0  0  0  0  0  0  0  0  0  0  0  0
    4.3538   -5.7312    1.7472 N   0  0  0  0  0  0  0  0  0  0  0  0
    5.1881   -6.8547    1.9599 C   0  0  0  0  0  0  0  0  0  0  0  0
    6.5621   -6.7881    1.6783 C   0  0  0  0  0  0  0  0  0  0  0  0
    7.4125   -7.8486    1.9922 C   0  0  0  0  0  0  0  0  0  0  0  0
    6.8952   -9.0042    2.5724 C   0  0  0  0  0  0  0  0  0  0  0  0
    5.5240   -9.1083    2.8131 C   0  0  0  0  0  0  0  0  0  0  0  0
    4.6842   -8.0410    2.5005 C   0  0  0  0  0  0  0  0  0  0  0  0
    3.3708   -8.1443    2.7623 F   0  0  0  0  0  0  0  0  0  0  0  0
    4.0553   -3.3050    1.6226 C   0  0  0  0  0  0  0  0  0  0  0  0
    2.9471   -3.3260    0.7329 C   0  0  0  0  0  0  0  0  0  0  0  0
    2.3974   -2.1420    0.2257 C   0  0  0  0  0  0  0  0  0  0  0  0
    1.3048   -2.3292   -0.5853 O   0  0  0  0  0  0  0  0  0  0  0  0
    1.1910   -1.4414   -1.7007 C   0  0  0  0  0  0  0  0  0  0  0  0
    0.1006   -1.9548   -2.6497 C   0  0  0  0  0  0  0  0  0  0  0  0
   -0.0779   -1.0035   -3.8323 C   0  0  0  0  0  0  0  0  0  0  0  0
   -1.1753   -1.4188   -4.7888 C   0  0  0  0  0  0  0  0  0  0  0  0
   -1.8689   -2.4249   -4.6717 O   0  0  0  0  0  0  0  0  0  0  0  0
   -1.3237   -0.5433   -5.8432 N   0  0  0  0  0  0  0  0  0  0  0  0
   -2.3988   -0.8007   -6.7237 O   0  0  0  0  0  0  0  0  0  0  0  0
    1.6366    2.0198    1.0388 H   0  0  0  0  0  0  0  0  0  0  0  0
    3.4013    1.8598    1.0457 H   0  0  0  0  0  0  0  0  0  0  0  0
    2.3881    0.9731    2.2442 H   0  0  0  0  0  0  0  0  0  0  0  0
    4.5508    0.0142    1.7536 H   0  0  0  0  0  0  0  0  0  0  0  0
    6.9511   -2.9778    4.0513 H   0  0  0  0  0  0  0  0  0  0  0  0
    3.3783   -5.9310    1.9528 H   0  0  0  0  0  0  0  0  0  0  0  0
    6.9818   -5.8846    1.2403 H   0  0  0  0  0  0  0  0  0  0  0  0
    8.4789   -7.7563    1.7995 H   0  0  0  0  0  0  0  0  0  0  0  0
    7.5623   -9.8187    2.8412 H   0  0  0  0  0  0  0  0  0  0  0  0
    5.1104  -10.0037    3.2633 H   0  0  0  0  0  0  0  0  0  0  0  0
    2.5047   -4.2745    0.4355 H   0  0  0  0  0  0  0  0  0  0  0  0
    2.1463   -1.3824   -2.2374 H   0  0  0  0  0  0  0  0  0  0  0  0
    0.8871   -0.4478   -1.3627 H   0  0  0  0  0  0  0  0  0  0  0  0
   -0.8423   -2.0607   -2.0984 H   0  0  0  0  0  0  0  0  0  0  0  0
    0.3511   -2.9636   -3.0007 H   0  0  0  0  0  0  0  0  0  0  0  0
    0.8578   -0.9373   -4.3986 H   0  0  0  0  0  0  0  0  0  0  0  0
   -0.3224    0.0009   -3.4612 H   0  0  0  0  0  0  0  0  0  0  0  0
   -0.9880    0.4163   -5.8156 H   0  0  0  0  0  0  0  0  0  0  0  0
   -2.7774   -1.6342   -6.3526 H   0  0  0  0  0  0  0  0  0  0  0  0
  1  2  1  0  0  0  0
  1 29  1  0  0  0  0
  1 30  1  0  0  0  0
  1 31  1  0  0  0  0
  2  3  1  0  0  0  0
  3  4  1  0  0  0  0
  3 20  2  0  0  0  0
  4  5  2  0  0  0  0
  4 32  1  0  0  0  0
  5  6  1  0  0  0  0
  5 18  1  0  0  0  0
  6  7  2  0  0  0  0
  7  8  1  0  0  0  0
  7 33  1  0  0  0  0
  8  9  2  0  0  0  0
  9 10  1  0  0  0  0
  9 18  1  0  0  0  0
 10 11  1  0  0  0  0
 10 34  1  0  0  0  0
 11 12  1  0  0  0  0
 11 16  2  0  0  0  0
 12 13  2  0  0  0  0
 12 35  1  0  0  0  0
 13 14  1  0  0  0  0
 13 36  1  0  0  0  0
 14 15  2  0  0  0  0
 14 37  1  0  0  0  0
 15 16  1  0  0  0  0
 15 38  1  0  0  0  0
 16 17  1  0  0  0  0
 18 19  2  0  0  0  0
 19 20  1  0  0  0  0
 19 39  1  0  0  0  0
 20 21  1  0  0  0  0
 21 22  1  0  0  0  0
 22 23  1  0  0  0  0
 22 40  1  0  0  0  0
 22 41  1  0  0  0  0
 23 24  1  0  0  0  0
 23 42  1  0  0  0  0
 23 43  1  0  0  0  0
 24 25  1  0  0  0  0
 24 44  1  0  0  0  0
 24 45  1  0  0  0  0
 25 26  2  0  0  0  0
 25 27  1  0  0  0  0
 27 28  1  0  0  0  0
 27 46  1  0  0  0  0
 28 47  1  0  0  0  0
M  END
$$$$
