CHEMBL3765306
 OpenBabel04072215373D

 67 71  0  0  1  0  0  0  0  0999 V2000
    1.5318   -3.6019    1.0987 C   0  0  0  0  0  0  0  0  0  0  0  0
    2.9275   -3.0863    1.4129 C   0  0  0  0  0  0  0  0  0  0  0  0
    3.4633   -3.0534    2.6170 N   0  3  0  0  0  0  0  0  0  0  0  0
    2.7508   -3.5547    3.7685 C   0  0  0  0  0  0  0  0  0  0  0  0
    2.5553   -2.6917    4.8647 C   0  0  0  0  0  0  0  0  0  0  0  0
    1.8064   -3.0834    5.9689 C   0  0  0  0  0  0  0  0  0  0  0  0
    1.2489   -4.3589    6.0156 C   0  0  0  0  0  0  0  0  0  0  0  0
    1.4502   -5.2489    4.9557 C   0  0  0  0  0  0  0  0  0  0  0  0
    2.1975   -4.8540    3.8305 C   0  0  0  0  0  0  0  0  0  0  0  0
    4.6849   -2.4342    2.8249 C   0  0  0  0  0  0  0  0  0  0  0  0
    5.1970   -2.4392    3.9382 O   0  0  0  0  0  0  0  0  0  0  0  0
    5.3705   -1.6145    1.7444 C   0  0  3  0  0  0  0  0  0  0  0  0
    6.8733   -1.7577    1.6117 C   0  0  0  0  0  0  0  0  0  0  0  0
    7.4758   -2.6721    2.1560 O   0  0  0  0  0  0  0  0  0  0  0  0
    7.5428   -0.7483    0.9762 N   0  0  0  0  0  0  0  0  0  0  0  0
    8.9555   -0.6539    0.8307 C   0  0  0  0  0  0  0  0  0  0  0  0
    9.5510    0.6071    0.9599 C   0  0  0  0  0  0  0  0  0  0  0  0
   10.9301    0.7548    0.8480 C   0  0  0  0  0  0  0  0  0  0  0  0
   11.7502   -0.3555    0.5671 C   0  0  0  0  0  0  0  0  0  0  0  0
   13.1014   -0.2221    0.4435 O   0  0  0  0  0  0  0  0  0  0  0  0
   13.8528    0.7044    1.0961 C   0  0  0  0  0  0  0  0  0  0  0  0
   13.5268    1.1226    2.4125 C   0  0  0  0  0  0  0  0  0  0  0  0
   14.2861    2.0973    3.0639 C   0  0  0  0  0  0  0  0  0  0  0  0
   15.3650    2.6374    2.3840 C   0  0  0  0  0  0  0  0  0  0  0  0
   16.1861    3.5955    2.8469 N   0  0  0  0  0  0  0  0  0  0  0  0
   17.0571    3.7956    1.8300 C   0  0  0  0  0  0  0  0  0  0  0  0
   18.1117    4.7531    1.8521 N   0  0  0  0  0  0  0  0  0  0  0  0
   18.3525    5.5865    2.9096 C   0  0  0  0  0  0  0  0  0  0  0  0
   17.6606    5.5308    3.9182 O   0  0  0  0  0  0  0  0  0  0  0  0
   19.4897    6.5836    2.8306 C   0  0  0  0  0  0  0  0  0  0  0  0
   19.7956    7.5016    4.0137 C   0  0  0  0  0  0  0  0  0  0  0  0
   18.8975    7.9847    2.8922 C   0  0  0  0  0  0  0  0  0  0  0  0
   16.7592    2.9446    0.7705 C   0  0  0  0  0  0  0  0  0  0  0  0
   15.6826    2.2273    1.1422 N   0  0  0  0  0  0  0  0  0  0  0  0
   14.9813    1.2735    0.4658 C   0  0  0  0  0  0  0  0  0  0  0  0
   11.1508   -1.6131    0.3900 C   0  0  0  0  0  0  0  0  0  0  0  0
   11.9128   -2.6919    0.0827 F   0  0  0  0  0  0  0  0  0  0  0  0
    9.7634   -1.7667    0.5408 C   0  0  0  0  0  0  0  0  0  0  0  0
    4.7364   -1.7833    0.3988 C   0  0  0  0  0  0  0  0  0  0  0  0
    3.6189   -2.4852    0.2471 C   0  0  0  0  0  0  0  0  0  0  0  0
    1.6084   -0.0785    2.8045 Cl  0  0  0  0  0  0  0  0  0  0  0  0
    0.9261   -3.9144    1.9643 H   0  0  0  0  0  0  0  0  0  0  0  0
    1.5841   -4.4341    0.3695 H   0  0  0  0  0  0  0  0  0  0  0  0
    0.9521   -2.7754    0.6331 H   0  0  0  0  0  0  0  0  0  0  0  0
    2.9562   -1.6871    4.8418 H   0  0  0  0  0  0  0  0  0  0  0  0
    1.6484   -2.3856    6.7816 H   0  0  0  0  0  0  0  0  0  0  0  0
    0.6586   -4.6528    6.8739 H   0  0  0  0  0  0  0  0  0  0  0  0
    1.0153   -6.2387    5.0024 H   0  0  0  0  0  0  0  0  0  0  0  0
    2.3305   -5.5572    3.0192 H   0  0  0  0  0  0  0  0  0  0  0  0
    5.2232   -0.5649    2.0759 H   0  0  0  0  0  0  0  0  0  0  0  0
    6.9926    0.0720    0.6737 H   0  0  0  0  0  0  0  0  0  0  0  0
    8.9438    1.4774    1.1804 H   0  0  0  0  0  0  0  0  0  0  0  0
   11.3531    1.7428    0.9742 H   0  0  0  0  0  0  0  0  0  0  0  0
   12.6803    0.6920    2.9306 H   0  0  0  0  0  0  0  0  0  0  0  0
   14.0335    2.4230    4.0658 H   0  0  0  0  0  0  0  0  0  0  0  0
   18.7113    4.8277    1.0186 H   0  0  0  0  0  0  0  0  0  0  0  0
   20.1128    6.5938    1.9101 H   0  0  0  0  0  0  0  0  0  0  0  0
   20.8868    7.7017    3.9570 H   0  0  0  0  0  0  0  0  0  0  0  0
   19.3482    7.0466    4.9237 H   0  0  0  0  0  0  0  0  0  0  0  0
   19.4594    8.8342    2.4388 H   0  0  0  0  0  0  0  0  0  0  0  0
   17.9352    8.2026    3.4104 H   0  0  0  0  0  0  0  0  0  0  0  0
   17.2677    2.8730   -0.1818 H   0  0  0  0  0  0  0  0  0  0  0  0
   15.2670    0.9784   -0.5350 H   0  0  0  0  0  0  0  0  0  0  0  0
    9.3191   -2.7425    0.3986 H   0  0  0  0  0  0  0  0  0  0  0  0
    5.1749   -1.2980   -0.4680 H   0  0  0  0  0  0  0  0  0  0  0  0
    3.1746   -2.5555   -0.7411 H   0  0  0  0  0  0  0  0  0  0  0  0
    0.8615   -0.8353    1.9362 H   0  0  0  0  0  0  0  0  0  0  0  0
  1  2  1  0  0  0  0
  1 42  1  0  0  0  0
  1 43  1  0  0  0  0
  1 44  1  0  0  0  0
  2  3  2  0  0  0  0
  2 40  1  0  0  0  0
  3  4  1  0  0  0  0
  3 10  1  0  0  0  0
  4  5  1  0  0  0  0
  4  9  2  0  0  0  0
  5  6  2  0  0  0  0
  5 45  1  0  0  0  0
  6  7  1  0  0  0  0
  6 46  1  0  0  0  0
  7  8  2  0  0  0  0
  7 47  1  0  0  0  0
  8  9  1  0  0  0  0
  8 48  1  0  0  0  0
  9 49  1  0  0  0  0
 10 11  2  0  0  0  0
 10 12  1  0  0  0  0
 12 13  1  0  0  0  0
 12 39  1  0  0  0  0
 12 50  1  0  0  0  0
 13 14  2  0  0  0  0
 13 15  1  0  0  0  0
 15 16  1  0  0  0  0
 15 51  1  0  0  0  0
 16 17  1  0  0  0  0
 16 38  2  0  0  0  0
 17 18  2  0  0  0  0
 17 52  1  0  0  0  0
 18 19  1  0  0  0  0
 18 53  1  0  0  0  0
 19 20  1  0  0  0  0
 19 36  2  0  0  0  0
 20 21  1  0  0  0  0
 21 22  1  0  0  0  0
 21 35  2  0  0  0  0
 22 23  2  0  0  0  0
 22 54  1  0  0  0  0
 23 24  1  0  0  0  0
 23 55  1  0  0  0  0
 24 25  2  0  0  0  0
 24 34  1  0  0  0  0
 25 26  1  0  0  0  0
 26 27  1  0  0  0  0
 26 33  2  0  0  0  0
 27 28  1  0  0  0  0
 27 56  1  0  0  0  0
 28 29  2  0  0  0  0
 28 30  1  0  0  0  0
 30 31  1  0  0  0  0
 30 32  1  0  0  0  0
 30 57  1  0  0  0  0
 31 32  1  0  0  0  0
 31 58  1  0  0  0  0
 31 59  1  0  0  0  0
 32 60  1  0  0  0  0
 32 61  1  0  0  0  0
 33 34  1  0  0  0  0
 33 62  1  0  0  0  0
 34 35  1  0  0  0  0
 35 63  1  0  0  0  0
 36 37  1  0  0  0  0
 36 38  1  0  0  0  0
 38 64  1  0  0  0  0
 39 40  2  0  0  0  0
 39 65  1  0  0  0  0
 40 66  1  0  0  0  0
 41 67  1  0  0  0  0
M  CHG  1   3   1
M  END
$$$$
