CHEMBL3690453
 OpenBabel04072215373D

 49 52  0  0  0  0  0  0  0  0999 V2000
    1.8583    1.0568    1.7292 C   0  0  0  0  0  0  0  0  0  0  0  0
    1.6600   -0.1206    0.9490 O   0  0  0  0  0  0  0  0  0  0  0  0
    2.6372   -1.0656    1.1740 C   0  0  0  0  0  0  0  0  0  0  0  0
    2.5581   -2.2689    0.4889 C   0  0  0  0  0  0  0  0  0  0  0  0
    3.4640   -3.2609    0.6554 N   0  0  0  0  0  0  0  0  0  0  0  0
    4.4561   -2.9843    1.5349 C   0  0  0  0  0  0  0  0  0  0  0  0
    4.5607   -1.7692    2.2159 C   0  0  0  0  0  0  0  0  0  0  0  0
    5.6431   -1.4567    3.1761 C   0  0  0  0  0  0  0  0  0  0  0  0
    5.4383   -0.5432    4.3115 C   0  0  0  0  0  0  0  0  0  0  0  0
    6.4425   -0.2900    5.1694 C   0  0  0  0  0  0  0  0  0  0  0  0
    7.6935   -0.8626    4.9526 N   0  0  0  0  0  0  0  0  0  0  0  0
    8.8924   -0.7673    5.6540 C   0  0  0  0  0  0  0  0  0  0  0  0
    9.1982    0.0267    6.8526 C   0  0  0  0  0  0  0  0  0  0  0  0
   10.1552   -0.4863    7.7428 C   0  0  0  0  0  0  0  0  0  0  0  0
   10.5613    0.2406    8.8512 C   0  0  0  0  0  0  0  0  0  0  0  0
   10.0284    1.5025    9.0806 C   0  0  0  0  0  0  0  0  0  0  0  0
    9.1082    2.0733    8.1984 C   0  0  0  0  0  0  0  0  0  0  0  0
    8.6355    3.4100    8.3521 N   0  0  0  0  0  0  0  0  0  0  0  0
    9.0914    4.3053    9.2881 C   0  0  0  0  0  0  0  0  0  0  0  0
    9.9676    4.1133   10.1237 O   0  0  0  0  0  0  0  0  0  0  0  0
    8.4379    5.5163    9.2784 N   0  0  0  0  0  0  0  0  0  0  0  0
    8.8754    6.5359   10.2458 C   0  0  0  0  0  0  0  0  0  0  0  0
   10.1275    7.3509    9.8792 C   0  0  0  0  0  0  0  0  0  0  0  0
   10.5862    7.0691    8.6427 F   0  0  0  0  0  0  0  0  0  0  0  0
    9.8269    8.6774    9.8938 F   0  0  0  0  0  0  0  0  0  0  0  0
   11.1368    7.1685   10.7557 F   0  0  0  0  0  0  0  0  0  0  0  0
    8.6718    1.3113    7.0992 C   0  0  0  0  0  0  0  0  0  0  0  0
    9.7466   -1.6209    4.9642 C   0  0  0  0  0  0  0  0  0  0  0  0
    9.1508   -2.1990    3.8831 N   0  0  0  0  0  0  0  0  0  0  0  0
    7.9368   -1.7291    3.8855 C   0  0  0  0  0  0  0  0  0  0  0  0
    6.8670   -1.9945    2.9848 C   0  0  0  0  0  0  0  0  0  0  0  0
    3.6321   -0.7978    2.0481 N   0  0  0  0  0  0  0  0  0  0  0  0
    1.0579    1.7630    1.4881 H   0  0  0  0  0  0  0  0  0  0  0  0
    2.8117    1.5399    1.4856 H   0  0  0  0  0  0  0  0  0  0  0  0
    1.7956    0.8356    2.8011 H   0  0  0  0  0  0  0  0  0  0  0  0
    1.7598   -2.4703   -0.2150 H   0  0  0  0  0  0  0  0  0  0  0  0
    5.1689   -3.7892    1.6818 H   0  0  0  0  0  0  0  0  0  0  0  0
    4.4587   -0.0927    4.4442 H   0  0  0  0  0  0  0  0  0  0  0  0
    6.3053    0.3479    6.0292 H   0  0  0  0  0  0  0  0  0  0  0  0
   10.6153   -1.4582    7.5774 H   0  0  0  0  0  0  0  0  0  0  0  0
   11.3138   -0.1566    9.5269 H   0  0  0  0  0  0  0  0  0  0  0  0
   10.3860    2.0199    9.9626 H   0  0  0  0  0  0  0  0  0  0  0  0
    7.9922    3.7493    7.6543 H   0  0  0  0  0  0  0  0  0  0  0  0
    7.9749    5.8174    8.4335 H   0  0  0  0  0  0  0  0  0  0  0  0
    9.0609    6.0386   11.2080 H   0  0  0  0  0  0  0  0  0  0  0  0
    8.0247    7.2053   10.3993 H   0  0  0  0  0  0  0  0  0  0  0  0
    7.9610    1.7473    6.4049 H   0  0  0  0  0  0  0  0  0  0  0  0
   10.7813   -1.8399    5.1968 H   0  0  0  0  0  0  0  0  0  0  0  0
    7.1082   -2.6509    2.1548 H   0  0  0  0  0  0  0  0  0  0  0  0
  1  2  1  0  0  0  0
  1 33  1  0  0  0  0
  1 34  1  0  0  0  0
  1 35  1  0  0  0  0
  2  3  1  0  0  0  0
  3  4  1  0  0  0  0
  3 32  2  0  0  0  0
  4  5  2  0  0  0  0
  4 36  1  0  0  0  0
  5  6  1  0  0  0  0
  6  7  2  0  0  0  0
  6 37  1  0  0  0  0
  7  8  1  0  0  0  0
  7 32  1  0  0  0  0
  8  9  1  0  0  0  0
  8 31  2  0  0  0  0
  9 10  2  0  0  0  0
  9 38  1  0  0  0  0
 10 11  1  0  0  0  0
 10 39  1  0  0  0  0
 11 12  1  0  0  0  0
 11 30  1  0  0  0  0
 12 13  1  0  0  0  0
 12 28  2  0  0  0  0
 13 14  1  0  0  0  0
 13 27  2  0  0  0  0
 14 15  2  0  0  0  0
 14 40  1  0  0  0  0
 15 16  1  0  0  0  0
 15 41  1  0  0  0  0
 16 17  2  0  0  0  0
 16 42  1  0  0  0  0
 17 18  1  0  0  0  0
 17 27  1  0  0  0  0
 18 19  1  0  0  0  0
 18 43  1  0  0  0  0
 19 20  2  0  0  0  0
 19 21  1  0  0  0  0
 21 22  1  0  0  0  0
 21 44  1  0  0  0  0
 22 23  1  0  0  0  0
 22 45  1  0  0  0  0
 22 46  1  0  0  0  0
 23 24  1  0  0  0  0
 23 25  1  0  0  0  0
 23 26  1  0  0  0  0
 27 47  1  0  0  0  0
 28 29  1  0  0  0  0
 28 48  1  0  0  0  0
 29 30  2  0  0  0  0
 30 31  1  0  0  0  0
 31 49  1  0  0  0  0
M  END
$$$$
