CHEMBL401860
 OpenBabel04072215373D

 58 62  0  0  0  0  0  0  0  0999 V2000
    0.0760   -6.9092    6.9149 C   0  0  0  0  0  0  0  0  0  0  0  0
    0.6367   -7.2239    5.6440 O   0  0  0  0  0  0  0  0  0  0  0  0
    1.8687   -6.6999    5.3657 C   0  0  0  0  0  0  0  0  0  0  0  0
    2.6312   -5.9144    6.2229 C   0  0  0  0  0  0  0  0  0  0  0  0
    3.8825   -5.4380    5.8128 C   0  0  0  0  0  0  0  0  0  0  0  0
    4.3683   -5.6646    4.5159 C   0  0  0  0  0  0  0  0  0  0  0  0
    5.5767   -4.9844    4.0274 C   0  0  0  0  0  0  0  0  0  0  0  0
    6.3194   -5.6854    3.1201 O   0  0  0  0  0  0  0  0  0  0  0  0
    7.3927   -4.9200    2.7791 C   0  0  0  0  0  0  0  0  0  0  0  0
    8.3303   -5.3405    1.9187 N   0  0  0  0  0  0  0  0  0  0  0  0
    9.2824   -4.4188    1.7456 C   0  0  0  0  0  0  0  0  0  0  0  0
    9.3621   -3.1989    2.3060 N   0  0  0  0  0  0  0  0  0  0  0  0
    8.3862   -2.8038    3.1464 C   0  0  0  0  0  0  0  0  0  0  0  0
    8.5042   -1.5234    3.6443 N   0  0  0  0  0  0  0  0  0  0  0  0
    7.3473   -3.7005    3.4416 C   0  0  0  0  0  0  0  0  0  0  0  0
    6.1723   -3.7429    4.2549 C   0  0  0  0  0  0  0  0  0  0  0  0
    5.6487   -2.7591    5.1878 C   0  0  0  0  0  0  0  0  0  0  0  0
    4.2957   -2.4140    5.1697 C   0  0  0  0  0  0  0  0  0  0  0  0
    3.7528   -1.6263    6.1842 C   0  0  0  0  0  0  0  0  0  0  0  0
    4.5637   -1.1013    7.1904 C   0  0  0  0  0  0  0  0  0  0  0  0
    4.0663   -0.3165    8.2534 N   0  0  0  0  0  0  0  0  0  0  0  0
    2.7373   -0.1764    8.5809 C   0  0  0  0  0  0  0  0  0  0  0  0
    1.7947   -0.7539    8.0451 O   0  0  0  0  0  0  0  0  0  0  0  0
    2.5576    0.7226    9.6223 N   0  0  0  0  0  0  0  0  0  0  0  0
    1.2360    0.9958   10.0612 C   0  0  0  0  0  0  0  0  0  0  0  0
    0.8431    2.3413   10.0407 C   0  0  0  0  0  0  0  0  0  0  0  0
    1.7378    3.2824    9.6981 F   0  0  0  0  0  0  0  0  0  0  0  0
   -0.4679    2.7212   10.2979 C   0  0  0  0  0  0  0  0  0  0  0  0
   -1.4119    1.7473   10.6022 C   0  0  0  0  0  0  0  0  0  0  0  0
   -1.0260    0.4071   10.6774 C   0  0  0  0  0  0  0  0  0  0  0  0
    0.3062    0.0078   10.4306 C   0  0  0  0  0  0  0  0  0  0  0  0
    0.6344   -1.4550   10.6324 C   0  0  0  0  0  0  0  0  0  0  0  0
    1.9548   -1.7868   10.5953 F   0  0  0  0  0  0  0  0  0  0  0  0
    0.2175   -1.8786   11.8672 F   0  0  0  0  0  0  0  0  0  0  0  0
   -0.0012   -2.2771    9.7510 F   0  0  0  0  0  0  0  0  0  0  0  0
    5.9340   -1.3686    7.1560 C   0  0  0  0  0  0  0  0  0  0  0  0
    6.4685   -2.2196    6.1832 C   0  0  0  0  0  0  0  0  0  0  0  0
    3.6099   -6.4875    3.6745 C   0  0  0  0  0  0  0  0  0  0  0  0
    2.3765   -7.0036    4.1001 C   0  0  0  0  0  0  0  0  0  0  0  0
   -0.8539   -7.4764    7.0210 H   0  0  0  0  0  0  0  0  0  0  0  0
   -0.1708   -5.8440    6.9811 H   0  0  0  0  0  0  0  0  0  0  0  0
    0.7375   -7.2125    7.7333 H   0  0  0  0  0  0  0  0  0  0  0  0
    2.2830   -5.6330    7.2114 H   0  0  0  0  0  0  0  0  0  0  0  0
    4.4510   -4.8428    6.5234 H   0  0  0  0  0  0  0  0  0  0  0  0
   10.0934   -4.6845    1.0743 H   0  0  0  0  0  0  0  0  0  0  0  0
    9.4222   -1.1163    3.5268 H   0  0  0  0  0  0  0  0  0  0  0  0
    7.9241   -1.2144    4.4054 H   0  0  0  0  0  0  0  0  0  0  0  0
    3.6213   -2.8183    4.4169 H   0  0  0  0  0  0  0  0  0  0  0  0
    2.6789   -1.4697    6.1622 H   0  0  0  0  0  0  0  0  0  0  0  0
    4.7288   -0.0136    8.9492 H   0  0  0  0  0  0  0  0  0  0  0  0
    3.1474    1.5431    9.5267 H   0  0  0  0  0  0  0  0  0  0  0  0
   -0.7484    3.7674   10.2329 H   0  0  0  0  0  0  0  0  0  0  0  0
   -2.4468    2.0263   10.7859 H   0  0  0  0  0  0  0  0  0  0  0  0
   -1.7737   -0.3447   10.9341 H   0  0  0  0  0  0  0  0  0  0  0  0
    6.5999   -0.9600    7.9091 H   0  0  0  0  0  0  0  0  0  0  0  0
    7.5236   -2.4800    6.2357 H   0  0  0  0  0  0  0  0  0  0  0  0
    3.9537   -6.7124    2.6669 H   0  0  0  0  0  0  0  0  0  0  0  0
    1.7952   -7.6288    3.4264 H   0  0  0  0  0  0  0  0  0  0  0  0
  1  2  1  0  0  0  0
  1 40  1  0  0  0  0
  1 41  1  0  0  0  0
  1 42  1  0  0  0  0
  2  3  1  0  0  0  0
  3  4  1  0  0  0  0
  3 39  2  0  0  0  0
  4  5  2  0  0  0  0
  4 43  1  0  0  0  0
  5  6  1  0  0  0  0
  5 44  1  0  0  0  0
  6  7  1  0  0  0  0
  6 38  2  0  0  0  0
  7  8  1  0  0  0  0
  7 16  2  0  0  0  0
  8  9  1  0  0  0  0
  9 10  1  0  0  0  0
  9 15  2  0  0  0  0
 10 11  2  0  0  0  0
 11 12  1  0  0  0  0
 11 45  1  0  0  0  0
 12 13  2  0  0  0  0
 13 14  1  0  0  0  0
 13 15  1  0  0  0  0
 14 46  1  0  0  0  0
 14 47  1  0  0  0  0
 15 16  1  0  0  0  0
 16 17  1  0  0  0  0
 17 18  1  0  0  0  0
 17 37  2  0  0  0  0
 18 19  2  0  0  0  0
 18 48  1  0  0  0  0
 19 20  1  0  0  0  0
 19 49  1  0  0  0  0
 20 21  1  0  0  0  0
 20 36  2  0  0  0  0
 21 22  1  0  0  0  0
 21 50  1  0  0  0  0
 22 23  2  0  0  0  0
 22 24  1  0  0  0  0
 24 25  1  0  0  0  0
 24 51  1  0  0  0  0
 25 26  1  0  0  0  0
 25 31  2  0  0  0  0
 26 27  1  0  0  0  0
 26 28  2  0  0  0  0
 28 29  1  0  0  0  0
 28 52  1  0  0  0  0
 29 30  2  0  0  0  0
 29 53  1  0  0  0  0
 30 31  1  0  0  0  0
 30 54  1  0  0  0  0
 31 32  1  0  0  0  0
 32 33  1  0  0  0  0
 32 34  1  0  0  0  0
 32 35  1  0  0  0  0
 36 37  1  0  0  0  0
 36 55  1  0  0  0  0
 37 56  1  0  0  0  0
 38 39  1  0  0  0  0
 38 57  1  0  0  0  0
 39 58  1  0  0  0  0
M  END
$$$$
