CHEMBL3899067
 OpenBabel04072215373D

 47 50  0  0  0  0  0  0  0  0999 V2000
    1.9230    1.6813   -1.5118 C   0  0  0  0  0  0  0  0  0  0  0  0
    3.4099    1.7107   -1.7342 C   0  0  0  0  0  0  0  0  0  0  0  0
    3.9704    2.7596   -2.0464 O   0  0  0  0  0  0  0  0  0  0  0  0
    4.0090    0.4771   -1.5384 N   0  0  0  0  0  0  0  0  0  0  0  0
    5.3900    0.1913   -1.6282 C   0  0  0  0  0  0  0  0  0  0  0  0
    6.3736    1.1799   -1.7050 C   0  0  0  0  0  0  0  0  0  0  0  0
    7.7147    0.8362   -1.8623 C   0  0  0  0  0  0  0  0  0  0  0  0
    8.0972   -0.5042   -1.9113 C   0  0  0  0  0  0  0  0  0  0  0  0
    7.1415   -1.5106   -1.7608 C   0  0  0  0  0  0  0  0  0  0  0  0
    7.5295   -3.2520   -1.7688 S   0  0  0  0  0  0  0  0  0  0  0  0
    9.2448   -3.3495   -1.2928 C   0  0  0  0  0  0  0  0  0  0  0  0
    9.6584   -3.2216    0.0416 C   0  0  0  0  0  0  0  0  0  0  0  0
   11.0234   -3.3261    0.4117 C   0  0  0  0  0  0  0  0  0  0  0  0
   11.9429   -3.7253   -0.5693 C   0  0  0  0  0  0  0  0  0  0  0  0
   13.3613   -3.9427   -0.7571 C   0  0  0  0  0  0  0  0  0  0  0  0
   14.3804   -2.9410   -1.0385 C   0  0  0  0  0  0  0  0  0  0  0  0
   14.0869   -1.7141   -1.5096 C   0  0  0  0  0  0  0  0  0  0  0  0
   14.7427   -1.1343   -2.7115 C   0  0  0  0  0  0  0  0  0  0  0  0
   15.0145   -1.9386   -3.8394 C   0  0  0  0  0  0  0  0  0  0  0  0
   15.3567   -1.3607   -5.0736 C   0  0  0  0  0  0  0  0  0  0  0  0
   15.4561    0.0206   -5.1786 C   0  0  0  0  0  0  0  0  0  0  0  0
   15.2035    0.8220   -4.0785 C   0  0  0  0  0  0  0  0  0  0  0  0
   14.8515    0.2485   -2.8447 C   0  0  0  0  0  0  0  0  0  0  0  0
   13.4734   -5.0219   -1.5507 N   0  0  0  0  0  0  0  0  0  0  0  0
   12.4286   -4.8407   -2.3765 N   0  0  0  0  0  0  0  0  0  0  0  0
   11.4401   -4.0656   -1.8197 C   0  0  0  0  0  0  0  0  0  0  0  0
   10.1630   -3.7340   -2.2768 C   0  0  0  0  0  0  0  0  0  0  0  0
    5.7877   -1.1511   -1.6331 C   0  0  0  0  0  0  0  0  0  0  0  0
    1.4815    2.6085   -1.8981 H   0  0  0  0  0  0  0  0  0  0  0  0
    1.7137    1.6114   -0.4383 H   0  0  0  0  0  0  0  0  0  0  0  0
    1.4662    0.8401   -2.0387 H   0  0  0  0  0  0  0  0  0  0  0  0
    3.3918   -0.3164   -1.4102 H   0  0  0  0  0  0  0  0  0  0  0  0
    6.1242    2.2351   -1.6488 H   0  0  0  0  0  0  0  0  0  0  0  0
    8.4627    1.6208   -1.9460 H   0  0  0  0  0  0  0  0  0  0  0  0
    9.1471   -0.7370   -2.0661 H   0  0  0  0  0  0  0  0  0  0  0  0
    8.9140   -3.0595    0.8194 H   0  0  0  0  0  0  0  0  0  0  0  0
   11.3185   -3.2245    1.4504 H   0  0  0  0  0  0  0  0  0  0  0  0
   15.3339   -3.3896   -1.3394 H   0  0  0  0  0  0  0  0  0  0  0  0
   13.1318   -1.2531   -1.2847 H   0  0  0  0  0  0  0  0  0  0  0  0
   14.9002   -3.0184   -3.7936 H   0  0  0  0  0  0  0  0  0  0  0  0
   15.5241   -1.9955   -5.9380 H   0  0  0  0  0  0  0  0  0  0  0  0
   15.6770    0.4718   -6.1516 H   0  0  0  0  0  0  0  0  0  0  0  0
   15.2589    1.9083   -4.1714 H   0  0  0  0  0  0  0  0  0  0  0  0
   14.6129    0.9043   -2.0081 H   0  0  0  0  0  0  0  0  0  0  0  0
   12.3900   -5.3452   -3.2385 H   0  0  0  0  0  0  0  0  0  0  0  0
    9.8701   -3.8949   -3.3075 H   0  0  0  0  0  0  0  0  0  0  0  0
    5.0391   -1.9379   -1.5586 H   0  0  0  0  0  0  0  0  0  0  0  0
  1  2  1  0  0  0  0
  1 29  1  0  0  0  0
  1 30  1  0  0  0  0
  1 31  1  0  0  0  0
  2  3  2  0  0  0  0
  2  4  1  0  0  0  0
  4  5  1  0  0  0  0
  4 32  1  0  0  0  0
  5  6  1  0  0  0  0
  5 28  2  0  0  0  0
  6  7  2  0  0  0  0
  6 33  1  0  0  0  0
  7  8  1  0  0  0  0
  7 34  1  0  0  0  0
  8  9  2  0  0  0  0
  8 35  1  0  0  0  0
  9 10  1  0  0  0  0
  9 28  1  0  0  0  0
 10 11  1  0  0  0  0
 11 12  1  0  0  0  0
 11 27  2  0  0  0  0
 12 13  2  0  0  0  0
 12 36  1  0  0  0  0
 13 14  1  0  0  0  0
 13 37  1  0  0  0  0
 14 15  1  0  0  0  0
 14 26  2  0  0  0  0
 15 16  1  0  0  0  0
 15 24  2  0  0  0  0
 16 17  2  0  0  0  0
 16 38  1  0  0  0  0
 17 18  1  0  0  0  0
 17 39  1  0  0  0  0
 18 19  1  0  0  0  0
 18 23  2  0  0  0  0
 19 20  2  0  0  0  0
 19 40  1  0  0  0  0
 20 21  1  0  0  0  0
 20 41  1  0  0  0  0
 21 22  2  0  0  0  0
 21 42  1  0  0  0  0
 22 23  1  0  0  0  0
 22 43  1  0  0  0  0
 23 44  1  0  0  0  0
 24 25  1  0  0  0  0
 25 26  1  0  0  0  0
 25 45  1  0  0  0  0
 26 27  1  0  0  0  0
 27 46  1  0  0  0  0
 28 47  1  0  0  0  0
M  END
$$$$
