CHEMBL2023226
 OpenBabel04072215363D

 52 56  0  0  0  0  0  0  0  0999 V2000
   -2.1253    1.0385    1.0060 C   0  0  0  0  0  0  0  0  0  0  0  0
   -0.6929    0.8994    1.1285 N   0  0  0  0  0  0  0  0  0  0  0  0
   -0.0095    0.2150    2.0870 C   0  0  0  0  0  0  0  0  0  0  0  0
    1.3309    0.3299    1.7719 C   0  0  0  0  0  0  0  0  0  0  0  0
    2.4106   -0.2519    2.5436 C   0  0  0  0  0  0  0  0  0  0  0  0
    2.3344   -0.3635    3.9196 C   0  0  0  0  0  0  0  0  0  0  0  0
    3.2997   -0.8647    4.7039 N   0  0  0  0  0  0  0  0  0  0  0  0
    4.4510   -1.3016    4.1591 C   0  0  0  0  0  0  0  0  0  0  0  0
    5.3626   -1.7422    5.1062 N   0  0  0  0  0  0  0  0  0  0  0  0
    4.6489   -1.2749    2.7433 C   0  0  0  0  0  0  0  0  0  0  0  0
    5.7707   -1.7122    1.8880 C   0  0  0  0  0  0  0  0  0  0  0  0
    7.0403   -2.3503    2.2616 C   0  0  0  0  0  0  0  0  0  0  0  0
    7.0693   -3.2936    3.2820 C   0  0  0  0  0  0  0  0  0  0  0  0
    8.2761   -3.8198    3.7341 C   0  0  0  0  0  0  0  0  0  0  0  0
    9.4770   -3.5383    3.0817 C   0  0  0  0  0  0  0  0  0  0  0  0
   10.6998   -4.1277    3.4759 N   0  0  0  0  0  0  0  0  0  0  0  0
   10.7763   -5.2758    4.2439 C   0  0  0  0  0  0  0  0  0  0  0  0
    9.8137   -5.9736    4.5467 O   0  0  0  0  0  0  0  0  0  0  0  0
   12.0700   -5.5360    4.6761 N   0  0  0  0  0  0  0  0  0  0  0  0
   12.2678   -6.6368    5.5452 C   0  0  0  0  0  0  0  0  0  0  0  0
   11.7199   -7.8916    5.2492 C   0  0  0  0  0  0  0  0  0  0  0  0
   11.7463   -8.9098    6.1994 C   0  0  0  0  0  0  0  0  0  0  0  0
   12.3281   -8.6786    7.4420 C   0  0  0  0  0  0  0  0  0  0  0  0
   12.9229   -7.4460    7.7193 C   0  0  0  0  0  0  0  0  0  0  0  0
   12.9183   -6.4298    6.7612 C   0  0  0  0  0  0  0  0  0  0  0  0
    9.4579   -2.6485    2.0083 C   0  0  0  0  0  0  0  0  0  0  0  0
    8.2502   -2.0491    1.6109 C   0  0  0  0  0  0  0  0  0  0  0  0
    5.5077   -1.4963    0.5518 C   0  0  0  0  0  0  0  0  0  0  0  0
    3.9929   -0.8093    0.2749 S   0  0  0  0  0  0  0  0  0  0  0  0
    3.6022   -0.7400    1.9589 C   0  0  0  0  0  0  0  0  0  0  0  0
    1.3284    1.1496    0.6205 C   0  0  0  0  0  0  0  0  0  0  0  0
    0.1055    1.4939    0.2213 N   0  0  0  0  0  0  0  0  0  0  0  0
   -2.6078    0.6157    1.8884 H   0  0  0  0  0  0  0  0  0  0  0  0
   -2.4411    0.4999    0.1085 H   0  0  0  0  0  0  0  0  0  0  0  0
   -2.3651    2.1014    0.9195 H   0  0  0  0  0  0  0  0  0  0  0  0
   -0.5260   -0.2982    2.8870 H   0  0  0  0  0  0  0  0  0  0  0  0
    1.4597   -0.0216    4.4673 H   0  0  0  0  0  0  0  0  0  0  0  0
    5.0359   -1.5008    6.0352 H   0  0  0  0  0  0  0  0  0  0  0  0
    6.3270   -1.5145    4.9077 H   0  0  0  0  0  0  0  0  0  0  0  0
    6.1577   -3.6283    3.7717 H   0  0  0  0  0  0  0  0  0  0  0  0
    8.2303   -4.4577    4.6117 H   0  0  0  0  0  0  0  0  0  0  0  0
   11.5323   -3.8777    2.9624 H   0  0  0  0  0  0  0  0  0  0  0  0
   12.5992   -4.7018    4.8860 H   0  0  0  0  0  0  0  0  0  0  0  0
   11.2213   -8.0688    4.2983 H   0  0  0  0  0  0  0  0  0  0  0  0
   11.2786   -9.8661    5.9776 H   0  0  0  0  0  0  0  0  0  0  0  0
   12.3001   -9.4540    8.2034 H   0  0  0  0  0  0  0  0  0  0  0  0
   13.3541   -7.2637    8.7000 H   0  0  0  0  0  0  0  0  0  0  0  0
   13.3402   -5.4619    7.0139 H   0  0  0  0  0  0  0  0  0  0  0  0
   10.3656   -2.4158    1.4584 H   0  0  0  0  0  0  0  0  0  0  0  0
    8.2740   -1.3507    0.7773 H   0  0  0  0  0  0  0  0  0  0  0  0
    6.1326   -1.7311   -0.2994 H   0  0  0  0  0  0  0  0  0  0  0  0
    2.1723    1.5181    0.0469 H   0  0  0  0  0  0  0  0  0  0  0  0
  1  2  1  0  0  0  0
  1 33  1  0  0  0  0
  1 34  1  0  0  0  0
  1 35  1  0  0  0  0
  2  3  1  0  0  0  0
  2 32  1  0  0  0  0
  3  4  2  0  0  0  0
  3 36  1  0  0  0  0
  4  5  1  0  0  0  0
  4 31  1  0  0  0  0
  5  6  1  0  0  0  0
  5 30  2  0  0  0  0
  6  7  2  0  0  0  0
  6 37  1  0  0  0  0
  7  8  1  0  0  0  0
  8  9  1  0  0  0  0
  8 10  2  0  0  0  0
  9 38  1  0  0  0  0
  9 39  1  0  0  0  0
 10 11  1  0  0  0  0
 10 30  1  0  0  0  0
 11 12  1  0  0  0  0
 11 28  2  0  0  0  0
 12 13  1  0  0  0  0
 12 27  2  0  0  0  0
 13 14  2  0  0  0  0
 13 40  1  0  0  0  0
 14 15  1  0  0  0  0
 14 41  1  0  0  0  0
 15 16  1  0  0  0  0
 15 26  2  0  0  0  0
 16 17  1  0  0  0  0
 16 42  1  0  0  0  0
 17 18  2  0  0  0  0
 17 19  1  0  0  0  0
 19 20  1  0  0  0  0
 19 43  1  0  0  0  0
 20 21  1  0  0  0  0
 20 25  2  0  0  0  0
 21 22  2  0  0  0  0
 21 44  1  0  0  0  0
 22 23  1  0  0  0  0
 22 45  1  0  0  0  0
 23 24  2  0  0  0  0
 23 46  1  0  0  0  0
 24 25  1  0  0  0  0
 24 47  1  0  0  0  0
 25 48  1  0  0  0  0
 26 27  1  0  0  0  0
 26 49  1  0  0  0  0
 27 50  1  0  0  0  0
 28 29  1  0  0  0  0
 28 51  1  0  0  0  0
 29 30  1  0  0  0  0
 31 32  2  0  0  0  0
 31 52  1  0  0  0  0
M  END
$$$$
