CHEMBL203404
 OpenBabel04072215363D

 38 40  0  0  0  0  0  0  0  0999 V2000
    1.3057    0.7797   -0.2189 C   0  0  0  0  0  0  0  0  0  0  0  0
    2.5231   -0.1047   -0.1273 C   0  0  0  0  0  0  0  0  0  0  0  0
    2.8976   -0.5316    0.9649 O   0  0  0  0  0  0  0  0  0  0  0  0
    3.1578   -0.4211   -1.3132 N   0  0  0  0  0  0  0  0  0  0  0  0
    2.7903    0.0876   -2.6446 C   0  0  0  0  0  0  0  0  0  0  0  0
    2.6406   -1.0549   -3.6682 C   0  0  0  0  0  0  0  0  0  0  0  0
    3.8303   -1.8953   -3.6350 N   0  0  0  0  0  0  0  0  0  0  0  0
    4.5125   -2.2306   -4.7725 C   0  0  0  0  0  0  0  0  0  0  0  0
    5.5927   -3.0145   -4.6483 N   0  0  0  0  0  0  0  0  0  0  0  0
    6.2584   -3.3383   -5.7620 C   0  0  0  0  0  0  0  0  0  0  0  0
    5.8961   -2.8955   -7.0009 C   0  0  0  0  0  0  0  0  0  0  0  0
    4.8047   -2.0583   -7.0639 C   0  0  0  0  0  0  0  0  0  0  0  0
    4.3703   -1.4957   -8.2743 N   0  0  0  0  0  0  0  0  0  0  0  0
    5.1745   -1.1907   -9.3188 C   0  0  0  0  0  0  0  0  0  0  0  0
    6.4706   -1.4161   -9.3797 N   0  0  0  0  0  0  0  0  0  0  0  0
    7.0103   -0.9232  -10.5437 C   0  0  0  0  0  0  0  0  0  0  0  0
    6.1070   -0.3328  -11.3960 C   0  0  0  0  0  0  0  0  0  0  0  0
    6.4286    0.2702  -12.6399 C   0  0  0  0  0  0  0  0  0  0  0  0
    6.7078    0.7699  -13.6519 N   0  0  0  0  0  0  0  0  0  0  0  0
    4.5375   -0.4121  -10.7222 S   0  0  0  0  0  0  0  0  0  0  0  0
    4.0964   -1.7481   -5.9603 N   0  0  0  0  0  0  0  0  0  0  0  0
    4.2018   -2.4399   -2.3253 C   0  0  0  0  0  0  0  0  0  0  0  0
    4.3447   -1.2902   -1.3076 C   0  0  0  0  0  0  0  0  0  0  0  0
    0.9333    0.9939    0.7855 H   0  0  0  0  0  0  0  0  0  0  0  0
    0.5187    0.2647   -0.7769 H   0  0  0  0  0  0  0  0  0  0  0  0
    1.5588    1.7300   -0.6961 H   0  0  0  0  0  0  0  0  0  0  0  0
    3.5990    0.7618   -2.9523 H   0  0  0  0  0  0  0  0  0  0  0  0
    1.8683    0.6706   -2.6183 H   0  0  0  0  0  0  0  0  0  0  0  0
    2.4355   -0.6182   -4.6508 H   0  0  0  0  0  0  0  0  0  0  0  0
    1.7727   -1.6710   -3.4011 H   0  0  0  0  0  0  0  0  0  0  0  0
    7.1207   -3.9832   -5.6302 H   0  0  0  0  0  0  0  0  0  0  0  0
    6.4563   -3.2010   -7.8725 H   0  0  0  0  0  0  0  0  0  0  0  0
    3.5183   -0.9650   -8.1394 H   0  0  0  0  0  0  0  0  0  0  0  0
    8.0780   -1.0184  -10.7044 H   0  0  0  0  0  0  0  0  0  0  0  0
    5.1298   -3.0217   -2.3325 H   0  0  0  0  0  0  0  0  0  0  0  0
    3.4042   -3.1179   -1.9959 H   0  0  0  0  0  0  0  0  0  0  0  0
    5.1997   -0.6583   -1.5791 H   0  0  0  0  0  0  0  0  0  0  0  0
    4.5372   -1.6965   -0.3099 H   0  0  0  0  0  0  0  0  0  0  0  0
  1  2  1  0  0  0  0
  1 24  1  0  0  0  0
  1 25  1  0  0  0  0
  1 26  1  0  0  0  0
  2  3  2  0  0  0  0
  2  4  1  0  0  0  0
  4  5  1  0  0  0  0
  4 23  1  0  0  0  0
  5  6  1  0  0  0  0
  5 27  1  0  0  0  0
  5 28  1  0  0  0  0
  6  7  1  0  0  0  0
  6 29  1  0  0  0  0
  6 30  1  0  0  0  0
  7  8  1  0  0  0  0
  7 22  1  0  0  0  0
  8  9  1  0  0  0  0
  8 21  2  0  0  0  0
  9 10  2  0  0  0  0
 10 11  1  0  0  0  0
 10 31  1  0  0  0  0
 11 12  2  0  0  0  0
 11 32  1  0  0  0  0
 12 13  1  0  0  0  0
 12 21  1  0  0  0  0
 13 14  1  0  0  0  0
 13 33  1  0  0  0  0
 14 15  2  0  0  0  0
 14 20  1  0  0  0  0
 15 16  1  0  0  0  0
 16 17  2  0  0  0  0
 16 34  1  0  0  0  0
 17 18  1  0  0  0  0
 17 20  1  0  0  0  0
 18 19  3  0  0  0  0
 22 23  1  0  0  0  0
 22 35  1  0  0  0  0
 22 36  1  0  0  0  0
 23 37  1  0  0  0  0
 23 38  1  0  0  0  0
M  END
$$$$
