CHEMBL403823
 OpenBabel04072215373D

 69 74  0  0  0  0  0  0  0  0999 V2000
    0.9041   -0.1149    0.2404 C   0  0  0  0  0  0  0  0  0  0  0  0
    2.3974   -0.0937   -0.0188 C   0  0  0  0  0  0  0  0  0  0  0  0
    3.0730   -1.0311   -0.6142 N   0  0  0  0  0  0  0  0  0  0  0  0
    2.2630   -2.1211   -0.9472 O   0  0  0  0  0  0  0  0  0  0  0  0
    3.0501   -3.1241   -1.5988 C   0  0  0  0  0  0  0  0  0  0  0  0
    3.6302   -4.0985   -0.5787 C   0  0  0  0  0  0  0  0  0  0  0  0
    2.1219   -3.8547   -2.5608 C   0  0  0  0  0  0  0  0  0  0  0  0
    3.1211    1.1268    0.4186 C   0  0  0  0  0  0  0  0  0  0  0  0
    2.6581    1.8492    1.5125 C   0  0  0  0  0  0  0  0  0  0  0  0
    3.2507    3.0531    1.8655 C   0  0  0  0  0  0  0  0  0  0  0  0
    4.3720    3.4877    1.1532 C   0  0  0  0  0  0  0  0  0  0  0  0
    4.9437    2.6850    0.1469 C   0  0  0  0  0  0  0  0  0  0  0  0
    4.2674    1.5283   -0.2790 C   0  0  0  0  0  0  0  0  0  0  0  0
    6.1430    3.3358   -0.0731 C   0  0  0  0  0  0  0  0  0  0  0  0
    7.2127    2.9824   -0.8927 C   0  0  0  0  0  0  0  0  0  0  0  0
    8.4319    3.9521   -0.8304 C   0  0  0  0  0  0  0  0  0  0  0  0
    8.2625    5.2990   -0.0192 C   0  0  0  0  0  0  0  0  0  0  0  0
    6.9675    5.5292   -0.4683 C   0  0  0  0  0  0  0  0  0  0  0  0
    6.0706    4.6565    0.2059 C   0  0  0  0  0  0  0  0  0  0  0  0
    5.1662    4.6283    1.2843 N   0  0  0  0  0  0  0  0  0  0  0  0
    5.2798    5.4915    2.4597 C   0  0  0  0  0  0  0  0  0  0  0  0
    4.8157    5.1438    3.8670 C   0  0  0  0  0  0  0  0  0  0  0  0
    5.5249    3.9074    4.3940 C   0  0  0  0  0  0  0  0  0  0  0  0
    5.1137    6.3390    4.7935 C   0  0  0  0  0  0  0  0  0  0  0  0
    6.8954    6.9143   -0.9944 C   0  0  0  0  0  0  0  0  0  0  0  0
    6.4597    7.4397    0.2818 C   0  0  0  0  0  0  0  0  0  0  0  0
    7.6709    7.5945    1.0134 C   0  0  0  0  0  0  0  0  0  0  0  0
    7.4807    8.6400    1.7626 N   0  0  0  0  0  0  0  0  0  0  0  0
    8.6955    9.0034    1.9109 N   0  0  0  0  0  0  0  0  0  0  0  0
    8.6756   10.3923    2.3614 C   0  0  0  0  0  0  0  0  0  0  0  0
    9.4704    7.7976    1.7475 C   0  0  0  0  0  0  0  0  0  0  0  0
    8.9483    6.6408    0.9425 C   0  0  0  0  0  0  0  0  0  0  0  0
    8.9254    3.6629   -2.2513 C   0  0  0  0  0  0  0  0  0  0  0  0
    9.6551    4.2673   -3.0331 O   0  0  0  0  0  0  0  0  0  0  0  0
    8.2367    2.5013   -2.7565 N   0  0  0  0  0  0  0  0  0  0  0  0
    7.0282    2.1498   -2.0810 C   0  0  0  0  0  0  0  0  0  0  0  0
    0.4111   -0.9905   -0.1810 H   0  0  0  0  0  0  0  0  0  0  0  0
    0.4623    0.7759   -0.2193 H   0  0  0  0  0  0  0  0  0  0  0  0
    0.6969   -0.0988    1.3139 H   0  0  0  0  0  0  0  0  0  0  0  0
    3.8551   -2.6433   -2.1691 H   0  0  0  0  0  0  0  0  0  0  0  0
    2.8392   -4.5100    0.0573 H   0  0  0  0  0  0  0  0  0  0  0  0
    4.3396   -3.5938    0.0858 H   0  0  0  0  0  0  0  0  0  0  0  0
    4.1562   -4.9223   -1.0706 H   0  0  0  0  0  0  0  0  0  0  0  0
    1.2600   -4.2696   -2.0260 H   0  0  0  0  0  0  0  0  0  0  0  0
    2.6383   -4.6677   -3.0797 H   0  0  0  0  0  0  0  0  0  0  0  0
    1.7215   -3.1616   -3.3085 H   0  0  0  0  0  0  0  0  0  0  0  0
    1.8318    1.4958    2.1210 H   0  0  0  0  0  0  0  0  0  0  0  0
    2.8465    3.5971    2.7056 H   0  0  0  0  0  0  0  0  0  0  0  0
    4.6026    0.9471   -1.1312 H   0  0  0  0  0  0  0  0  0  0  0  0
    4.6445    6.3506    2.2418 H   0  0  0  0  0  0  0  0  0  0  0  0
    6.3460    5.7620    2.5188 H   0  0  0  0  0  0  0  0  0  0  0  0
    3.7287    5.0261    3.8551 H   0  0  0  0  0  0  0  0  0  0  0  0
    6.5683    4.1306    4.6378 H   0  0  0  0  0  0  0  0  0  0  0  0
    5.5426    3.0950    3.6654 H   0  0  0  0  0  0  0  0  0  0  0  0
    5.0239    3.5466    5.2952 H   0  0  0  0  0  0  0  0  0  0  0  0
    6.1917    6.4706    4.9416 H   0  0  0  0  0  0  0  0  0  0  0  0
    4.6483    6.1882    5.7715 H   0  0  0  0  0  0  0  0  0  0  0  0
    4.7250    7.2794    4.3829 H   0  0  0  0  0  0  0  0  0  0  0  0
    6.2671    7.1132   -1.8458 H   0  0  0  0  0  0  0  0  0  0  0  0
    7.9198    7.2582   -1.2988 H   0  0  0  0  0  0  0  0  0  0  0  0
    6.1210    6.7384    0.9895 H   0  0  0  0  0  0  0  0  0  0  0  0
    5.6446    8.1471    0.2825 H   0  0  0  0  0  0  0  0  0  0  0  0
    7.9343   10.9298    1.7192 H   0  0  0  0  0  0  0  0  0  0  0  0
    9.5983   10.9549    2.2750 H   0  0  0  0  0  0  0  0  0  0  0  0
    8.2124   10.4602    3.3597 H   0  0  0  0  0  0  0  0  0  0  0  0
   10.3834    7.8627    2.3108 H   0  0  0  0  0  0  0  0  0  0  0  0
    8.3142    2.2486   -3.7365 H   0  0  0  0  0  0  0  0  0  0  0  0
    6.9056    1.0752   -1.9104 H   0  0  0  0  0  0  0  0  0  0  0  0
    6.1743    2.5000   -2.6915 H   0  0  0  0  0  0  0  0  0  0  0  0
  1  2  1  0  0  0  0
  1 37  1  0  0  0  0
  1 38  1  0  0  0  0
  1 39  1  0  0  0  0
  2  3  2  0  0  0  0
  2  8  1  0  0  0  0
  3  4  1  0  0  0  0
  4  5  1  0  0  0  0
  5  6  1  0  0  0  0
  5  7  1  0  0  0  0
  5 40  1  0  0  0  0
  6 41  1  0  0  0  0
  6 42  1  0  0  0  0
  6 43  1  0  0  0  0
  7 44  1  0  0  0  0
  7 45  1  0  0  0  0
  7 46  1  0  0  0  0
  8  9  1  0  0  0  0
  8 13  2  0  0  0  0
  9 10  2  0  0  0  0
  9 47  1  0  0  0  0
 10 11  1  0  0  0  0
 10 48  1  0  0  0  0
 11 12  2  0  0  0  0
 11 20  1  0  0  0  0
 12 13  1  0  0  0  0
 12 14  1  0  0  0  0
 13 49  1  0  0  0  0
 14 15  1  0  0  0  0
 14 19  2  0  0  0  0
 15 16  2  0  0  0  0
 15 36  1  0  0  0  0
 16 17  1  0  0  0  0
 16 33  1  0  0  0  0
 17 18  2  0  0  0  0
 17 32  1  0  0  0  0
 18 19  1  0  0  0  0
 18 25  1  0  0  0  0
 19 20  1  0  0  0  0
 20 21  1  0  0  0  0
 21 22  1  0  0  0  0
 21 50  1  0  0  0  0
 21 51  1  0  0  0  0
 22 23  1  0  0  0  0
 22 24  1  0  0  0  0
 22 52  1  0  0  0  0
 23 53  1  0  0  0  0
 23 54  1  0  0  0  0
 23 55  1  0  0  0  0
 24 56  1  0  0  0  0
 24 57  1  0  0  0  0
 24 58  1  0  0  0  0
 25 26  1  0  0  0  0
 25 59  1  0  0  0  0
 25 60  1  0  0  0  0
 26 27  1  0  0  0  0
 26 61  1  0  0  0  0
 26 62  1  0  0  0  0
 27 28  2  0  0  0  0
 27 32  1  0  0  0  0
 28 29  1  0  0  0  0
 29 30  1  0  0  0  0
 29 31  1  0  0  0  0
 30 63  1  0  0  0  0
 30 64  1  0  0  0  0
 30 65  1  0  0  0  0
 31 32  2  0  0  0  0
 31 66  1  0  0  0  0
 33 34  2  0  0  0  0
 33 35  1  0  0  0  0
 35 36  1  0  0  0  0
 35 67  1  0  0  0  0
 36 68  1  0  0  0  0
 36 69  1  0  0  0  0
M  END
$$$$
