CHEMBL3926927
 OpenBabel04072215373D

 45 47  0  0  0  0  0  0  0  0999 V2000
    1.9610   -0.9041   -4.0175 C   0  0  0  0  0  0  0  0  0  0  0  0
    3.3218   -0.8510   -3.5594 N   0  0  0  0  0  0  0  0  0  0  0  0
    3.6528   -1.0885   -2.2431 C   0  0  0  0  0  0  0  0  0  0  0  0
    2.8372   -1.3931   -1.3796 O   0  0  0  0  0  0  0  0  0  0  0  0
    5.1128   -0.9671   -1.9283 C   0  0  0  0  0  0  0  0  0  0  0  0
    5.5491   -1.2296   -0.6378 C   0  0  0  0  0  0  0  0  0  0  0  0
    6.9193   -1.2252   -0.4003 C   0  0  0  0  0  0  0  0  0  0  0  0
    7.5053   -1.5173    0.8124 O   0  0  0  0  0  0  0  0  0  0  0  0
    6.9248   -2.4302    1.6613 C   0  0  0  0  0  0  0  0  0  0  0  0
    6.2065   -3.5566    1.2482 C   0  0  0  0  0  0  0  0  0  0  0  0
    5.6109   -4.4021    2.1899 C   0  0  0  0  0  0  0  0  0  0  0  0
    5.7744   -4.1568    3.5576 C   0  0  0  0  0  0  0  0  0  0  0  0
    5.1375   -5.0037    4.6044 C   0  0  0  0  0  0  0  0  0  0  0  0
    5.6754   -5.1324    5.6987 O   0  0  0  0  0  0  0  0  0  0  0  0
    3.8236   -5.6326    4.2901 C   0  0  0  0  0  0  0  0  0  0  0  0
    3.2272   -6.4198    5.1973 C   0  0  0  0  0  0  0  0  0  0  0  0
    1.9500   -7.0739    4.9161 C   0  0  0  0  0  0  0  0  0  0  0  0
    1.9355   -8.3506    4.3441 C   0  0  0  0  0  0  0  0  0  0  0  0
    0.7211   -8.9838    4.0688 C   0  0  0  0  0  0  0  0  0  0  0  0
   -0.4836   -8.3446    4.3592 C   0  0  0  0  0  0  0  0  0  0  0  0
   -0.4760   -7.0706    4.9249 C   0  0  0  0  0  0  0  0  0  0  0  0
    0.7391   -6.4344    5.2021 C   0  0  0  0  0  0  0  0  0  0  0  0
    6.5835   -3.0896    3.9701 C   0  0  0  0  0  0  0  0  0  0  0  0
    7.1493   -2.2277    3.0255 C   0  0  0  0  0  0  0  0  0  0  0  0
    7.7870   -0.8510   -1.4238 C   0  0  0  0  0  0  0  0  0  0  0  0
    7.2553   -0.5647   -2.6712 C   0  0  0  0  0  0  0  0  0  0  0  0
    5.9384   -0.6347   -2.9608 N   0  0  0  0  0  0  0  0  0  0  0  0
    1.9354   -0.6747   -5.0847 H   0  0  0  0  0  0  0  0  0  0  0  0
    1.3674   -0.1728   -3.4619 H   0  0  0  0  0  0  0  0  0  0  0  0
    1.5569   -1.9044   -3.8379 H   0  0  0  0  0  0  0  0  0  0  0  0
    4.0831   -0.6178   -4.1918 H   0  0  0  0  0  0  0  0  0  0  0  0
    4.8291   -1.4556    0.1406 H   0  0  0  0  0  0  0  0  0  0  0  0
    6.0826   -3.7846    0.1930 H   0  0  0  0  0  0  0  0  0  0  0  0
    5.0402   -5.2535    1.8303 H   0  0  0  0  0  0  0  0  0  0  0  0
    3.3557   -5.4310    3.3348 H   0  0  0  0  0  0  0  0  0  0  0  0
    3.6715   -6.6213    6.1688 H   0  0  0  0  0  0  0  0  0  0  0  0
    2.8674   -8.8630    4.1189 H   0  0  0  0  0  0  0  0  0  0  0  0
    0.7170   -9.9780    3.6294 H   0  0  0  0  0  0  0  0  0  0  0  0
   -1.4285   -8.8390    4.1459 H   0  0  0  0  0  0  0  0  0  0  0  0
   -1.4136   -6.5713    5.1531 H   0  0  0  0  0  0  0  0  0  0  0  0
    0.7305   -5.4409    5.6445 H   0  0  0  0  0  0  0  0  0  0  0  0
    6.7641   -2.9176    5.0296 H   0  0  0  0  0  0  0  0  0  0  0  0
    7.7613   -1.3913    3.3586 H   0  0  0  0  0  0  0  0  0  0  0  0
    8.8564   -0.7884   -1.2521 H   0  0  0  0  0  0  0  0  0  0  0  0
    7.8993   -0.2688   -3.4955 H   0  0  0  0  0  0  0  0  0  0  0  0
  1  2  1  0  0  0  0
  1 28  1  0  0  0  0
  1 29  1  0  0  0  0
  1 30  1  0  0  0  0
  2  3  1  0  0  0  0
  2 31  1  0  0  0  0
  3  4  2  0  0  0  0
  3  5  1  0  0  0  0
  5  6  1  0  0  0  0
  5 27  2  0  0  0  0
  6  7  2  0  0  0  0
  6 32  1  0  0  0  0
  7  8  1  0  0  0  0
  7 25  1  0  0  0  0
  8  9  1  0  0  0  0
  9 10  1  0  0  0  0
  9 24  2  0  0  0  0
 10 11  2  0  0  0  0
 10 33  1  0  0  0  0
 11 12  1  0  0  0  0
 11 34  1  0  0  0  0
 12 13  1  0  0  0  0
 12 23  2  0  0  0  0
 13 14  2  0  0  0  0
 13 15  1  0  0  0  0
 15 16  2  0  0  0  0
 15 35  1  0  0  0  0
 16 17  1  0  0  0  0
 16 36  1  0  0  0  0
 17 18  1  0  0  0  0
 17 22  2  0  0  0  0
 18 19  2  0  0  0  0
 18 37  1  0  0  0  0
 19 20  1  0  0  0  0
 19 38  1  0  0  0  0
 20 21  2  0  0  0  0
 20 39  1  0  0  0  0
 21 22  1  0  0  0  0
 21 40  1  0  0  0  0
 22 41  1  0  0  0  0
 23 24  1  0  0  0  0
 23 42  1  0  0  0  0
 24 43  1  0  0  0  0
 25 26  2  0  0  0  0
 25 44  1  0  0  0  0
 26 27  1  0  0  0  0
 26 45  1  0  0  0  0
M  END
$$$$
