CHEMBL4289577
 OpenBabel04072215383D

 55 60  0  0  0  0  0  0  0  0999 V2000
    0.9610    0.2530    0.4859 O   0  0  0  0  0  0  0  0  0  0  0  0
    2.1211    0.1672    0.0901 C   0  0  0  0  0  0  0  0  0  0  0  0
    2.7407    1.0378   -0.7763 N   0  0  0  0  0  0  0  0  0  0  0  0
    2.1630    2.1572   -1.3959 C   0  0  0  0  0  0  0  0  0  0  0  0
    0.9359    2.7037   -1.0138 C   0  0  0  0  0  0  0  0  0  0  0  0
    0.3556    3.7296   -1.7618 C   0  0  0  0  0  0  0  0  0  0  0  0
    1.0041    4.2204   -2.8925 C   0  0  0  0  0  0  0  0  0  0  0  0
    0.3082    5.1619   -3.6114 O   0  0  0  0  0  0  0  0  0  0  0  0
    0.4168    5.1896   -4.9827 C   0  0  0  0  0  0  0  0  0  0  0  0
    0.6890    4.0753   -5.7850 C   0  0  0  0  0  0  0  0  0  0  0  0
    0.8752    4.2537   -7.1487 C   0  0  0  0  0  0  0  0  0  0  0  0
    0.7426    5.4193   -7.8175 N   0  0  0  0  0  0  0  0  0  0  0  0
    0.3813    6.4393   -7.0173 C   0  0  0  0  0  0  0  0  0  0  0  0
    0.1402    7.7122   -7.4505 N   0  0  0  0  0  0  0  0  0  0  0  0
   -0.2332    8.5031   -6.3939 C   0  0  0  0  0  0  0  0  0  0  0  0
   -0.1993    7.7246   -5.2558 C   0  0  0  0  0  0  0  0  0  0  0  0
    0.1930    6.4113   -5.6410 C   0  0  0  0  0  0  0  0  0  0  0  0
    2.2891    3.7612   -3.1891 C   0  0  0  0  0  0  0  0  0  0  0  0
    2.9943    4.2697   -4.2100 F   0  0  0  0  0  0  0  0  0  0  0  0
    2.8599    2.7211   -2.4644 C   0  0  0  0  0  0  0  0  0  0  0  0
    2.9711   -0.9838    0.5329 C   0  0  0  0  0  0  0  0  0  0  0  0
    2.5346   -1.6597    1.6015 C   0  0  0  0  0  0  0  0  0  0  0  0
    3.2573   -2.8278    2.0787 C   0  0  0  0  0  0  0  0  0  0  0  0
    2.7586   -3.5558    3.1663 C   0  0  0  0  0  0  0  0  0  0  0  0
    3.4129   -4.7131    3.5666 C   0  0  0  0  0  0  0  0  0  0  0  0
    4.5418   -5.0929    2.8639 C   0  0  0  0  0  0  0  0  0  0  0  0
    5.0514   -4.3964    1.8278 N   0  0  0  0  0  0  0  0  0  0  0  0
    4.4155   -3.2650    1.4371 C   0  0  0  0  0  0  0  0  0  0  0  0
    4.8869   -2.5181    0.3129 N   0  0  0  0  0  0  0  0  0  0  0  0
    6.0697   -2.9669   -0.3431 C   0  0  0  0  0  0  0  0  0  0  0  0
    7.2624   -3.1572    0.3714 C   0  0  0  0  0  0  0  0  0  0  0  0
    8.4312   -3.5333   -0.2929 C   0  0  0  0  0  0  0  0  0  0  0  0
    8.4045   -3.7371   -1.6673 C   0  0  0  0  0  0  0  0  0  0  0  0
    9.5255   -4.1055   -2.3010 F   0  0  0  0  0  0  0  0  0  0  0  0
    7.2353   -3.5576   -2.3947 C   0  0  0  0  0  0  0  0  0  0  0  0
    6.0716   -3.1570   -1.7356 C   0  0  0  0  0  0  0  0  0  0  0  0
    4.2258   -1.3895   -0.1602 C   0  0  0  0  0  0  0  0  0  0  0  0
    4.6355   -0.6857   -1.0906 O   0  0  0  0  0  0  0  0  0  0  0  0
    3.6659    0.7633   -1.1151 H   0  0  0  0  0  0  0  0  0  0  0  0
    0.3971    2.3445   -0.1424 H   0  0  0  0  0  0  0  0  0  0  0  0
   -0.6149    4.1225   -1.4703 H   0  0  0  0  0  0  0  0  0  0  0  0
    0.8016    3.0822   -5.3662 H   0  0  0  0  0  0  0  0  0  0  0  0
    1.1647    3.4079   -7.7679 H   0  0  0  0  0  0  0  0  0  0  0  0
    0.2228    7.9958   -8.4159 H   0  0  0  0  0  0  0  0  0  0  0  0
   -0.4852    9.5440   -6.5425 H   0  0  0  0  0  0  0  0  0  0  0  0
   -0.4433    8.0549   -4.2539 H   0  0  0  0  0  0  0  0  0  0  0  0
    3.8275    2.3408   -2.7783 H   0  0  0  0  0  0  0  0  0  0  0  0
    1.6229   -1.3760    2.1200 H   0  0  0  0  0  0  0  0  0  0  0  0
    1.8615   -3.2398    3.6889 H   0  0  0  0  0  0  0  0  0  0  0  0
    3.0419   -5.3071    4.3919 H   0  0  0  0  0  0  0  0  0  0  0  0
    5.0805   -6.0007    3.1238 H   0  0  0  0  0  0  0  0  0  0  0  0
    7.2968   -2.9812    1.4435 H   0  0  0  0  0  0  0  0  0  0  0  0
    9.3598   -3.6609    0.2529 H   0  0  0  0  0  0  0  0  0  0  0  0
    7.2358   -3.7239   -3.4670 H   0  0  0  0  0  0  0  0  0  0  0  0
    5.1620   -3.0162   -2.3149 H   0  0  0  0  0  0  0  0  0  0  0  0
  1  2  2  0  0  0  0
  2  3  1  0  0  0  0
  2 21  1  0  0  0  0
  3  4  1  0  0  0  0
  3 39  1  0  0  0  0
  4  5  1  0  0  0  0
  4 20  2  0  0  0  0
  5  6  2  0  0  0  0
  5 40  1  0  0  0  0
  6  7  1  0  0  0  0
  6 41  1  0  0  0  0
  7  8  1  0  0  0  0
  7 18  2  0  0  0  0
  8  9  1  0  0  0  0
  9 10  1  0  0  0  0
  9 17  2  0  0  0  0
 10 11  2  0  0  0  0
 10 42  1  0  0  0  0
 11 12  1  0  0  0  0
 11 43  1  0  0  0  0
 12 13  2  0  0  0  0
 13 14  1  0  0  0  0
 13 17  1  0  0  0  0
 14 15  1  0  0  0  0
 14 44  1  0  0  0  0
 15 16  2  0  0  0  0
 15 45  1  0  0  0  0
 16 17  1  0  0  0  0
 16 46  1  0  0  0  0
 18 19  1  0  0  0  0
 18 20  1  0  0  0  0
 20 47  1  0  0  0  0
 21 22  2  0  0  0  0
 21 37  1  0  0  0  0
 22 23  1  0  0  0  0
 22 48  1  0  0  0  0
 23 24  1  0  0  0  0
 23 28  2  0  0  0  0
 24 25  2  0  0  0  0
 24 49  1  0  0  0  0
 25 26  1  0  0  0  0
 25 50  1  0  0  0  0
 26 27  2  0  0  0  0
 26 51  1  0  0  0  0
 27 28  1  0  0  0  0
 28 29  1  0  0  0  0
 29 30  1  0  0  0  0
 29 37  1  0  0  0  0
 30 31  1  0  0  0  0
 30 36  2  0  0  0  0
 31 32  2  0  0  0  0
 31 52  1  0  0  0  0
 32 33  1  0  0  0  0
 32 53  1  0  0  0  0
 33 34  1  0  0  0  0
 33 35  2  0  0  0  0
 35 36  1  0  0  0  0
 35 54  1  0  0  0  0
 36 55  1  0  0  0  0
 37 38  2  0  0  0  0
M  END
$$$$
