CHEMBL382112
 OpenBabel04072215373D

 60 63  0  0  0  0  0  0  0  0999 V2000
    2.5573   -0.3761   -0.3560 C   0  0  0  0  0  0  0  0  0  0  0  0
    1.0778   -0.2605   -0.5755 C   0  0  0  0  0  0  0  0  0  0  0  0
    0.5423    0.9436   -1.0453 C   0  0  0  0  0  0  0  0  0  0  0  0
   -0.8243    1.0600   -1.2431 C   0  0  0  0  0  0  0  0  0  0  0  0
   -1.6592   -0.0236   -0.9770 C   0  0  0  0  0  0  0  0  0  0  0  0
   -1.1594   -1.2393   -0.4938 C   0  0  0  0  0  0  0  0  0  0  0  0
   -1.9841   -2.3648   -0.2011 N   0  0  0  0  0  0  0  0  0  0  0  0
   -3.3670   -2.3347   -0.2003 C   0  0  0  0  0  0  0  0  0  0  0  0
   -4.0208   -1.3109   -0.3701 O   0  0  0  0  0  0  0  0  0  0  0  0
   -3.9582   -3.5775    0.0041 N   0  0  0  0  0  0  0  0  0  0  0  0
   -5.3614   -3.7736   -0.1260 C   0  0  0  0  0  0  0  0  0  0  0  0
   -6.1364   -2.8862   -0.8757 C   0  0  0  0  0  0  0  0  0  0  0  0
   -7.5255   -2.9105   -0.8182 C   0  0  0  0  0  0  0  0  0  0  0  0
   -8.2063   -3.9438   -0.1801 C   0  0  0  0  0  0  0  0  0  0  0  0
   -9.6857   -3.9506   -0.1490 C   0  0  0  0  0  0  0  0  0  0  0  0
  -10.4558   -3.5441   -1.2528 C   0  0  0  0  0  0  0  0  0  0  0  0
  -10.0930   -3.0527   -2.6454 C   0  0  0  0  0  0  0  0  0  0  0  0
   -9.2919   -4.0729   -3.4456 C   0  0  0  0  0  0  0  0  0  0  0  0
   -8.8066   -3.5060   -4.7693 C   0  0  0  0  0  0  0  0  0  0  0  0
   -9.0773   -2.3526   -5.1040 O   0  0  0  0  0  0  0  0  0  0  0  0
   -8.0478   -4.3556   -5.5668 N   0  0  0  0  0  0  0  0  0  0  0  0
   -7.6746   -5.7207   -5.2211 C   0  0  0  0  0  0  0  0  0  0  0  0
   -7.5665   -3.8759   -6.8527 C   0  0  0  0  0  0  0  0  0  0  0  0
  -12.1363   -3.6006   -0.9098 S   0  0  0  0  0  0  0  0  0  0  0  0
  -11.8822   -4.1604    0.6616 C   0  0  0  0  0  0  0  0  0  0  0  0
  -12.9496   -4.3956    1.4418 N   0  0  0  0  0  0  0  0  0  0  0  0
  -12.6118   -4.8317    2.6497 C   0  0  0  0  0  0  0  0  0  0  0  0
  -11.3753   -5.0254    3.1193 N   0  0  0  0  0  0  0  0  0  0  0  0
  -10.3262   -4.7595    2.3172 C   0  0  0  0  0  0  0  0  0  0  0  0
   -9.0886   -4.9433    2.9244 N   0  0  0  0  0  0  0  0  0  0  0  0
  -10.5432   -4.3145    0.9912 C   0  0  0  0  0  0  0  0  0  0  0  0
   -7.4214   -4.9419    0.4206 C   0  0  0  0  0  0  0  0  0  0  0  0
   -6.0136   -4.8362    0.4918 C   0  0  0  0  0  0  0  0  0  0  0  0
    0.2243   -1.3521   -0.3071 C   0  0  0  0  0  0  0  0  0  0  0  0
    3.0676    0.5661   -0.5862 H   0  0  0  0  0  0  0  0  0  0  0  0
    2.9756   -1.1502   -1.0054 H   0  0  0  0  0  0  0  0  0  0  0  0
    2.7685   -0.6187    0.6896 H   0  0  0  0  0  0  0  0  0  0  0  0
    1.1821    1.7988   -1.2536 H   0  0  0  0  0  0  0  0  0  0  0  0
   -1.2515    1.9900   -1.6121 H   0  0  0  0  0  0  0  0  0  0  0  0
   -2.7121    0.1392   -1.1755 H   0  0  0  0  0  0  0  0  0  0  0  0
   -1.5267   -3.2168    0.0662 H   0  0  0  0  0  0  0  0  0  0  0  0
   -3.4511   -4.2486    0.5646 H   0  0  0  0  0  0  0  0  0  0  0  0
   -5.6930   -2.1078   -1.4936 H   0  0  0  0  0  0  0  0  0  0  0  0
   -8.0388   -2.0822   -1.2903 H   0  0  0  0  0  0  0  0  0  0  0  0
   -9.5742   -2.0896   -2.5768 H   0  0  0  0  0  0  0  0  0  0  0  0
  -11.0019   -2.8160   -3.2158 H   0  0  0  0  0  0  0  0  0  0  0  0
   -9.9239   -4.9460   -3.6482 H   0  0  0  0  0  0  0  0  0  0  0  0
   -8.4135   -4.4006   -2.8870 H   0  0  0  0  0  0  0  0  0  0  0  0
   -8.0446   -6.0374   -4.2459 H   0  0  0  0  0  0  0  0  0  0  0  0
   -6.5831   -5.7936   -5.2155 H   0  0  0  0  0  0  0  0  0  0  0  0
   -8.0807   -6.3956   -5.9799 H   0  0  0  0  0  0  0  0  0  0  0  0
   -7.8691   -2.8457   -7.0555 H   0  0  0  0  0  0  0  0  0  0  0  0
   -7.9695   -4.5209   -7.6390 H   0  0  0  0  0  0  0  0  0  0  0  0
   -6.4738   -3.9317   -6.8632 H   0  0  0  0  0  0  0  0  0  0  0  0
  -13.4274   -5.0481    3.3316 H   0  0  0  0  0  0  0  0  0  0  0  0
   -9.2285   -5.0706    3.9219 H   0  0  0  0  0  0  0  0  0  0  0  0
   -8.4154   -4.2265    2.6815 H   0  0  0  0  0  0  0  0  0  0  0  0
   -7.8927   -5.8034    0.8912 H   0  0  0  0  0  0  0  0  0  0  0  0
   -5.4612   -5.5715    1.0670 H   0  0  0  0  0  0  0  0  0  0  0  0
    0.6566   -2.2772    0.0633 H   0  0  0  0  0  0  0  0  0  0  0  0
  1  2  1  0  0  0  0
  1 35  1  0  0  0  0
  1 36  1  0  0  0  0
  1 37  1  0  0  0  0
  2  3  1  0  0  0  0
  2 34  2  0  0  0  0
  3  4  2  0  0  0  0
  3 38  1  0  0  0  0
  4  5  1  0  0  0  0
  4 39  1  0  0  0  0
  5  6  2  0  0  0  0
  5 40  1  0  0  0  0
  6  7  1  0  0  0  0
  6 34  1  0  0  0  0
  7  8  1  0  0  0  0
  7 41  1  0  0  0  0
  8  9  2  0  0  0  0
  8 10  1  0  0  0  0
 10 11  1  0  0  0  0
 10 42  1  0  0  0  0
 11 12  1  0  0  0  0
 11 33  2  0  0  0  0
 12 13  2  0  0  0  0
 12 43  1  0  0  0  0
 13 14  1  0  0  0  0
 13 44  1  0  0  0  0
 14 15  1  0  0  0  0
 14 32  2  0  0  0  0
 15 16  2  0  0  0  0
 15 31  1  0  0  0  0
 16 17  1  0  0  0  0
 16 24  1  0  0  0  0
 17 18  1  0  0  0  0
 17 45  1  0  0  0  0
 17 46  1  0  0  0  0
 18 19  1  0  0  0  0
 18 47  1  0  0  0  0
 18 48  1  0  0  0  0
 19 20  2  0  0  0  0
 19 21  1  0  0  0  0
 21 22  1  0  0  0  0
 21 23  1  0  0  0  0
 22 49  1  0  0  0  0
 22 50  1  0  0  0  0
 22 51  1  0  0  0  0
 23 52  1  0  0  0  0
 23 53  1  0  0  0  0
 23 54  1  0  0  0  0
 24 25  1  0  0  0  0
 25 26  1  0  0  0  0
 25 31  2  0  0  0  0
 26 27  2  0  0  0  0
 27 28  1  0  0  0  0
 27 55  1  0  0  0  0
 28 29  2  0  0  0  0
 29 30  1  0  0  0  0
 29 31  1  0  0  0  0
 30 56  1  0  0  0  0
 30 57  1  0  0  0  0
 32 33  1  0  0  0  0
 32 58  1  0  0  0  0
 33 59  1  0  0  0  0
 34 60  1  0  0  0  0
M  END
$$$$
