CHEMBL3622956
 OpenBabel04072215363D

 55 59  0  0  0  0  0  0  0  0999 V2000
    2.3041   -1.4551   -1.4255 C   0  0  0  0  0  0  0  0  0  0  0  0
    2.8486   -0.2017   -0.8412 C   0  0  0  0  0  0  0  0  0  0  0  0
    4.1500    0.0919   -0.9747 N   0  0  0  0  0  0  0  0  0  0  0  0
    4.3196    1.2102   -0.2256 N   0  0  0  0  0  0  0  0  0  0  0  0
    5.5329    1.9535   -0.1800 C   0  0  0  0  0  0  0  0  0  0  0  0
    6.5642    1.6158   -1.0253 C   0  0  0  0  0  0  0  0  0  0  0  0
    7.6702    2.4207   -0.9352 C   0  0  0  0  0  0  0  0  0  0  0  0
    7.7761    3.4568   -0.0791 N   0  0  0  0  0  0  0  0  0  0  0  0
    6.7163    3.7284    0.6977 C   0  0  0  0  0  0  0  0  0  0  0  0
    6.8579    4.8128    1.5609 N   0  0  0  0  0  0  0  0  0  0  0  0
    5.9170    5.6882    2.1286 C   0  0  0  0  0  0  0  0  0  0  0  0
    4.5437    5.6079    1.8892 C   0  0  0  0  0  0  0  0  0  0  0  0
    3.6280    6.5058    2.4617 C   0  0  0  0  0  0  0  0  0  0  0  0
    4.1253    7.4989    3.3071 C   0  0  0  0  0  0  0  0  0  0  0  0
    5.4803    7.5922    3.6162 C   0  0  0  0  0  0  0  0  0  0  0  0
    6.3737    6.6618    3.0350 C   0  0  0  0  0  0  0  0  0  0  0  0
    5.6313    8.6938    4.5029 C   0  0  0  0  0  0  0  0  0  0  0  0
    7.1164    9.1995    5.1704 Cl  0  0  0  0  0  0  0  0  0  0  0  0
    4.3947    9.2839    4.6858 C   0  0  0  0  0  0  0  0  0  0  0  0
    4.0264   10.5007    5.4603 C   0  0  0  0  0  0  0  0  0  0  0  0
    3.4818    8.5284    3.9830 N   0  0  0  0  0  0  0  0  0  0  0  0
    2.0517    8.7501    3.9138 C   0  0  0  0  0  0  0  0  0  0  0  0
    5.5915    3.0056    0.6728 N   0  0  0  0  0  0  0  0  0  0  0  0
    3.1714    1.5293    0.4595 C   0  0  0  0  0  0  0  0  0  0  0  0
    2.1489    0.7692   -0.0678 C   0  0  0  0  0  0  0  0  0  0  0  0
    0.6851    0.8174    0.2296 C   0  0  0  0  0  0  0  0  0  0  0  0
    0.0448    2.0945   -0.1593 N   0  0  0  0  0  0  0  0  0  0  0  0
    0.4463    3.3023    0.6154 C   0  0  0  0  0  0  0  0  0  0  0  0
   -0.5876    2.9464    1.7024 C   0  0  0  0  0  0  0  0  0  0  0  0
   -0.1169    2.1797    2.8379 O   0  0  0  0  0  0  0  0  0  0  0  0
   -1.2799    2.1783    0.5440 C   0  0  0  0  0  0  0  0  0  0  0  0
    3.1035   -2.1194   -1.7672 H   0  0  0  0  0  0  0  0  0  0  0  0
    1.6435   -1.2382   -2.2689 H   0  0  0  0  0  0  0  0  0  0  0  0
    1.7305   -2.0017   -0.6672 H   0  0  0  0  0  0  0  0  0  0  0  0
    6.5079    0.7993   -1.7328 H   0  0  0  0  0  0  0  0  0  0  0  0
    8.5324    2.2612   -1.5763 H   0  0  0  0  0  0  0  0  0  0  0  0
    7.7889    5.1925    1.4514 H   0  0  0  0  0  0  0  0  0  0  0  0
    4.1454    4.8609    1.2091 H   0  0  0  0  0  0  0  0  0  0  0  0
    2.5718    6.4262    2.2280 H   0  0  0  0  0  0  0  0  0  0  0  0
    7.4300    6.7226    3.2839 H   0  0  0  0  0  0  0  0  0  0  0  0
    4.9035   10.9758    5.9100 H   0  0  0  0  0  0  0  0  0  0  0  0
    3.3324   10.2515    6.2690 H   0  0  0  0  0  0  0  0  0  0  0  0
    3.5544   11.2411    4.8054 H   0  0  0  0  0  0  0  0  0  0  0  0
    1.7729    9.6412    4.4783 H   0  0  0  0  0  0  0  0  0  0  0  0
    1.5503    7.8776    4.3414 H   0  0  0  0  0  0  0  0  0  0  0  0
    1.7702    8.8821    2.8657 H   0  0  0  0  0  0  0  0  0  0  0  0
    3.1947    2.3171    1.1961 H   0  0  0  0  0  0  0  0  0  0  0  0
    0.5253    0.5178    1.2688 H   0  0  0  0  0  0  0  0  0  0  0  0
    0.1894    0.0445   -0.3735 H   0  0  0  0  0  0  0  0  0  0  0  0
    0.1970    4.2372    0.0936 H   0  0  0  0  0  0  0  0  0  0  0  0
    1.4752    3.4050    0.9416 H   0  0  0  0  0  0  0  0  0  0  0  0
   -1.1614    3.8052    2.0724 H   0  0  0  0  0  0  0  0  0  0  0  0
    0.8536    2.1404    2.7460 H   0  0  0  0  0  0  0  0  0  0  0  0
   -2.0123    2.7914    0.0024 H   0  0  0  0  0  0  0  0  0  0  0  0
   -1.7612    1.2284    0.7970 H   0  0  0  0  0  0  0  0  0  0  0  0
  1  2  1  0  0  0  0
  1 32  1  0  0  0  0
  1 33  1  0  0  0  0
  1 34  1  0  0  0  0
  2  3  2  0  0  0  0
  2 25  1  0  0  0  0
  3  4  1  0  0  0  0
  4  5  1  0  0  0  0
  4 24  1  0  0  0  0
  5  6  1  0  0  0  0
  5 23  2  0  0  0  0
  6  7  2  0  0  0  0
  6 35  1  0  0  0  0
  7  8  1  0  0  0  0
  7 36  1  0  0  0  0
  8  9  2  0  0  0  0
  9 10  1  0  0  0  0
  9 23  1  0  0  0  0
 10 11  1  0  0  0  0
 10 37  1  0  0  0  0
 11 12  1  0  0  0  0
 11 16  2  0  0  0  0
 12 13  2  0  0  0  0
 12 38  1  0  0  0  0
 13 14  1  0  0  0  0
 13 39  1  0  0  0  0
 14 15  2  0  0  0  0
 14 21  1  0  0  0  0
 15 16  1  0  0  0  0
 15 17  1  0  0  0  0
 16 40  1  0  0  0  0
 17 18  1  0  0  0  0
 17 19  2  0  0  0  0
 19 20  1  0  0  0  0
 19 21  1  0  0  0  0
 20 41  1  0  0  0  0
 20 42  1  0  0  0  0
 20 43  1  0  0  0  0
 21 22  1  0  0  0  0
 22 44  1  0  0  0  0
 22 45  1  0  0  0  0
 22 46  1  0  0  0  0
 24 25  2  0  0  0  0
 24 47  1  0  0  0  0
 25 26  1  0  0  0  0
 26 27  1  0  0  0  0
 26 48  1  0  0  0  0
 26 49  1  0  0  0  0
 27 28  1  0  0  0  0
 27 31  1  0  0  0  0
 28 29  1  0  0  0  0
 28 50  1  0  0  0  0
 28 51  1  0  0  0  0
 29 30  1  0  0  0  0
 29 31  1  0  0  0  0
 29 52  1  0  0  0  0
 30 53  1  0  0  0  0
 31 54  1  0  0  0  0
 31 55  1  0  0  0  0
M  END
$$$$
