CHEMBL598626
 OpenBabel04072215383D

 60 64  0  0  0  0  0  0  0  0999 V2000
    3.0029   -0.1000   -2.2829 C   0  0  0  0  0  0  0  0  0  0  0  0
    2.3029   -0.7749   -1.0903 C   0  0  0  0  0  0  0  0  0  0  0  0
    1.9851    0.3189   -0.0441 C   0  0  0  0  0  0  0  0  0  0  0  0
    0.9533   -1.3364   -1.6017 C   0  0  0  0  0  0  0  0  0  0  0  0
    3.1577   -1.8839   -0.4560 C   0  0  0  0  0  0  0  0  0  0  0  0
    4.5196   -2.2615   -0.6903 C   0  0  0  0  0  0  0  0  0  0  0  0
    4.7651   -3.3318    0.1656 C   0  0  0  0  0  0  0  0  0  0  0  0
    5.8477   -4.2169    0.2284 N   0  0  0  0  0  0  0  0  0  0  0  0
    7.2183   -3.8115    0.1219 C   0  0  0  0  0  0  0  0  0  0  0  0
    7.4755   -2.6366   -0.0809 O   0  0  0  0  0  0  0  0  0  0  0  0
    8.2891   -4.8463    0.3799 C   0  0  0  0  0  0  0  0  0  0  0  0
    9.6092   -4.3781    0.4927 C   0  0  0  0  0  0  0  0  0  0  0  0
   10.6715   -5.2690    0.6761 C   0  0  0  0  0  0  0  0  0  0  0  0
   10.4423   -6.6466    0.7213 C   0  0  0  0  0  0  0  0  0  0  0  0
    9.1445   -7.1452    0.6090 C   0  0  0  0  0  0  0  0  0  0  0  0
    8.8960   -8.4879    0.3491 O   0  0  0  0  0  0  0  0  0  0  0  0
    9.1759   -9.4316    1.3066 C   0  0  0  0  0  0  0  0  0  0  0  0
   10.4571   -9.7903    1.7397 C   0  0  0  0  0  0  0  0  0  0  0  0
   10.6504  -10.7894    2.7316 C   0  0  0  0  0  0  0  0  0  0  0  0
    9.5707  -11.4558    3.3119 C   0  0  0  0  0  0  0  0  0  0  0  0
    8.3665  -11.2681    2.6864 C   0  0  0  0  0  0  0  0  0  0  0  0
    7.2452  -12.0907    2.7145 N   0  0  0  0  0  0  0  0  0  0  0  0
    6.4043  -11.7174    1.6575 C   0  0  0  0  0  0  0  0  0  0  0  0
    5.4471  -12.3413    1.2349 O   0  0  0  0  0  0  0  0  0  0  0  0
    6.9327  -10.5370    1.1129 N   0  0  0  0  0  0  0  0  0  0  0  0
    8.1743  -10.2950    1.7035 C   0  0  0  0  0  0  0  0  0  0  0  0
    8.0646   -6.2401    0.4636 C   0  0  0  0  0  0  0  0  0  0  0  0
    3.6096   -3.4333    0.9392 N   0  0  0  0  0  0  0  0  0  0  0  0
    3.4496   -4.1758    2.1400 C   0  0  0  0  0  0  0  0  0  0  0  0
    4.5553   -4.4680    2.9559 C   0  0  0  0  0  0  0  0  0  0  0  0
    4.3772   -5.1668    4.1503 C   0  0  0  0  0  0  0  0  0  0  0  0
    3.1040   -5.5758    4.5353 C   0  0  0  0  0  0  0  0  0  0  0  0
    2.0010   -5.2773    3.7342 C   0  0  0  0  0  0  0  0  0  0  0  0
    2.1676   -4.5669    2.5445 C   0  0  0  0  0  0  0  0  0  0  0  0
    2.5991   -2.6735    0.4638 N   0  0  0  0  0  0  0  0  0  0  0  0
    2.3739    0.6883   -2.7156 H   0  0  0  0  0  0  0  0  0  0  0  0
    3.2180   -0.8215   -3.0790 H   0  0  0  0  0  0  0  0  0  0  0  0
    3.9478    0.3655   -1.9822 H   0  0  0  0  0  0  0  0  0  0  0  0
    1.3740    1.1199   -0.4793 H   0  0  0  0  0  0  0  0  0  0  0  0
    2.9014    0.7750    0.3473 H   0  0  0  0  0  0  0  0  0  0  0  0
    1.4272   -0.0860    0.8080 H   0  0  0  0  0  0  0  0  0  0  0  0
    0.3411   -0.5463   -2.0542 H   0  0  0  0  0  0  0  0  0  0  0  0
    0.3588   -1.7755   -0.7921 H   0  0  0  0  0  0  0  0  0  0  0  0
    1.1050   -2.1127   -2.3594 H   0  0  0  0  0  0  0  0  0  0  0  0
    5.1948   -1.8626   -1.4285 H   0  0  0  0  0  0  0  0  0  0  0  0
    5.6240   -5.1553    0.5398 H   0  0  0  0  0  0  0  0  0  0  0  0
    9.8325   -3.3141    0.4111 H   0  0  0  0  0  0  0  0  0  0  0  0
   11.6913   -4.8899    0.7320 H   0  0  0  0  0  0  0  0  0  0  0  0
   11.3029   -7.3036    0.7794 H   0  0  0  0  0  0  0  0  0  0  0  0
   11.3416   -9.3742    1.2688 H   0  0  0  0  0  0  0  0  0  0  0  0
   11.6615  -11.0962    2.9989 H   0  0  0  0  0  0  0  0  0  0  0  0
    9.7048  -12.1653    4.1194 H   0  0  0  0  0  0  0  0  0  0  0  0
    7.1741  -12.9856    3.1757 H   0  0  0  0  0  0  0  0  0  0  0  0
    6.6245  -10.1589    0.2323 H   0  0  0  0  0  0  0  0  0  0  0  0
    7.0708   -6.6617    0.3622 H   0  0  0  0  0  0  0  0  0  0  0  0
    5.5511   -4.0996    2.7337 H   0  0  0  0  0  0  0  0  0  0  0  0
    5.2269   -5.3663    4.7998 H   0  0  0  0  0  0  0  0  0  0  0  0
    2.9639   -6.1113    5.4726 H   0  0  0  0  0  0  0  0  0  0  0  0
    1.0066   -5.5916    4.0417 H   0  0  0  0  0  0  0  0  0  0  0  0
    1.2928   -4.3387    1.9376 H   0  0  0  0  0  0  0  0  0  0  0  0
  1  2  1  0  0  0  0
  1 36  1  0  0  0  0
  1 37  1  0  0  0  0
  1 38  1  0  0  0  0
  2  3  1  0  0  0  0
  2  4  1  0  0  0  0
  2  5  1  0  0  0  0
  3 39  1  0  0  0  0
  3 40  1  0  0  0  0
  3 41  1  0  0  0  0
  4 42  1  0  0  0  0
  4 43  1  0  0  0  0
  4 44  1  0  0  0  0
  5  6  1  0  0  0  0
  5 35  2  0  0  0  0
  6  7  2  0  0  0  0
  6 45  1  0  0  0  0
  7  8  1  0  0  0  0
  7 28  1  0  0  0  0
  8  9  1  0  0  0  0
  8 46  1  0  0  0  0
  9 10  2  0  0  0  0
  9 11  1  0  0  0  0
 11 12  1  0  0  0  0
 11 27  2  0  0  0  0
 12 13  2  0  0  0  0
 12 47  1  0  0  0  0
 13 14  1  0  0  0  0
 13 48  1  0  0  0  0
 14 15  2  0  0  0  0
 14 49  1  0  0  0  0
 15 16  1  0  0  0  0
 15 27  1  0  0  0  0
 16 17  1  0  0  0  0
 17 18  1  0  0  0  0
 17 26  2  0  0  0  0
 18 19  2  0  0  0  0
 18 50  1  0  0  0  0
 19 20  1  0  0  0  0
 19 51  1  0  0  0  0
 20 21  2  0  0  0  0
 20 52  1  0  0  0  0
 21 22  1  0  0  0  0
 21 26  1  0  0  0  0
 22 23  1  0  0  0  0
 22 53  1  0  0  0  0
 23 24  2  0  0  0  0
 23 25  1  0  0  0  0
 25 26  1  0  0  0  0
 25 54  1  0  0  0  0
 27 55  1  0  0  0  0
 28 29  1  0  0  0  0
 28 35  1  0  0  0  0
 29 30  1  0  0  0  0
 29 34  2  0  0  0  0
 30 31  2  0  0  0  0
 30 56  1  0  0  0  0
 31 32  1  0  0  0  0
 31 57  1  0  0  0  0
 32 33  2  0  0  0  0
 32 58  1  0  0  0  0
 33 34  1  0  0  0  0
 33 59  1  0  0  0  0
 34 60  1  0  0  0  0
M  END
$$$$
