CHEMBL149073
 OpenBabel04072215363D

 44 46  0  0  0  0  0  0  0  0999 V2000
    2.5083    0.4168    0.0063 C   0  0  0  0  0  0  0  0  0  0  0  0
    1.0518    0.1118    0.0265 C   0  0  0  0  0  0  0  0  0  0  0  0
    0.6037   -1.1863    0.0232 N   0  0  0  0  0  0  0  0  0  0  0  0
   -0.7657   -1.2195    0.0402 C   0  0  0  0  0  0  0  0  0  0  0  0
   -1.4031   -2.4848    0.0849 C   0  0  0  0  0  0  0  0  0  0  0  0
   -1.7753   -3.1636   -1.0114 C   0  0  0  0  0  0  0  0  0  0  0  0
   -1.5784   -2.7426   -2.4525 C   0  0  0  0  0  0  0  0  0  0  0  0
   -1.0854   -1.7270   -2.8984 O   0  0  0  0  0  0  0  0  0  0  0  0
   -2.0781   -3.7937   -3.2021 N   0  0  0  0  0  0  0  0  0  0  0  0
   -2.5721   -4.8123   -2.3954 C   0  0  0  0  0  0  0  0  0  0  0  0
   -3.1171   -6.0000   -2.8335 C   0  0  0  0  0  0  0  0  0  0  0  0
   -3.5545   -6.8982   -1.8596 C   0  0  0  0  0  0  0  0  0  0  0  0
   -3.4468   -6.5892   -0.4848 C   0  0  0  0  0  0  0  0  0  0  0  0
   -3.9180   -7.6247    0.4729 C   0  0  0  0  0  0  0  0  0  0  0  0
   -3.8862   -8.8172    0.2201 O   0  0  0  0  0  0  0  0  0  0  0  0
   -4.4231   -7.1279    1.6186 O   0  0  0  0  0  0  0  0  0  0  0  0
   -2.8663   -5.3735   -0.0639 C   0  0  0  0  0  0  0  0  0  0  0  0
   -2.4303   -4.4852   -1.0401 C   0  0  0  0  0  0  0  0  0  0  0  0
   -1.2200    0.0899    0.0037 C   0  0  0  0  0  0  0  0  0  0  0  0
   -2.6428    0.5245   -0.0571 C   0  0  0  0  0  0  0  0  0  0  0  0
   -0.0581    0.9453    0.0093 C   0  0  0  0  0  0  0  0  0  0  0  0
   -0.0424    2.4519   -0.0440 C   0  0  0  0  0  0  0  0  0  0  0  0
   -0.6616    3.0927    1.1951 C   0  0  0  0  0  0  0  0  0  0  0  0
   -0.6461    4.5978    1.1266 C   0  0  0  0  0  0  0  0  0  0  0  0
   -0.1591    5.2666    0.2306 O   0  0  0  0  0  0  0  0  0  0  0  0
   -1.2586    5.1601    2.1978 O   0  0  0  0  0  0  0  0  0  0  0  0
    3.1112   -0.4978   -0.0038 H   0  0  0  0  0  0  0  0  0  0  0  0
    2.7897    0.9937    0.8929 H   0  0  0  0  0  0  0  0  0  0  0  0
    2.7689    0.9980   -0.8840 H   0  0  0  0  0  0  0  0  0  0  0  0
    1.2025   -1.9999   -0.0135 H   0  0  0  0  0  0  0  0  0  0  0  0
   -1.5918   -2.8906    1.0743 H   0  0  0  0  0  0  0  0  0  0  0  0
   -2.0623   -3.7846   -4.2111 H   0  0  0  0  0  0  0  0  0  0  0  0
   -3.1933   -6.2419   -3.8876 H   0  0  0  0  0  0  0  0  0  0  0  0
   -3.9778   -7.8548   -2.1686 H   0  0  0  0  0  0  0  0  0  0  0  0
   -4.5863   -6.1683    1.6271 H   0  0  0  0  0  0  0  0  0  0  0  0
   -2.7330   -5.1464    0.9884 H   0  0  0  0  0  0  0  0  0  0  0  0
   -3.3240   -0.3271   -0.1425 H   0  0  0  0  0  0  0  0  0  0  0  0
   -2.8079    1.1764   -0.9206 H   0  0  0  0  0  0  0  0  0  0  0  0
   -2.9184    1.0668    0.8512 H   0  0  0  0  0  0  0  0  0  0  0  0
   -0.5713    2.7812   -0.9475 H   0  0  0  0  0  0  0  0  0  0  0  0
    0.9901    2.8094   -0.1546 H   0  0  0  0  0  0  0  0  0  0  0  0
   -0.1189    2.7803    2.0939 H   0  0  0  0  0  0  0  0  0  0  0  0
   -1.7074    2.7917    1.2955 H   0  0  0  0  0  0  0  0  0  0  0  0
   -1.6080    4.5088    2.8361 H   0  0  0  0  0  0  0  0  0  0  0  0
  1  2  1  0  0  0  0
  1 27  1  0  0  0  0
  1 28  1  0  0  0  0
  1 29  1  0  0  0  0
  2  3  1  0  0  0  0
  2 21  2  0  0  0  0
  3  4  1  0  0  0  0
  3 30  1  0  0  0  0
  4  5  1  0  0  0  0
  4 19  2  0  0  0  0
  5  6  2  0  0  0  0
  5 31  1  0  0  0  0
  6  7  1  0  0  0  0
  6 18  1  0  0  0  0
  7  8  2  0  0  0  0
  7  9  1  0  0  0  0
  9 10  1  0  0  0  0
  9 32  1  0  0  0  0
 10 11  1  0  0  0  0
 10 18  2  0  0  0  0
 11 12  2  0  0  0  0
 11 33  1  0  0  0  0
 12 13  1  0  0  0  0
 12 34  1  0  0  0  0
 13 14  1  0  0  0  0
 13 17  2  0  0  0  0
 14 15  2  0  0  0  0
 14 16  1  0  0  0  0
 16 35  1  0  0  0  0
 17 18  1  0  0  0  0
 17 36  1  0  0  0  0
 19 20  1  0  0  0  0
 19 21  1  0  0  0  0
 20 37  1  0  0  0  0
 20 38  1  0  0  0  0
 20 39  1  0  0  0  0
 21 22  1  0  0  0  0
 22 23  1  0  0  0  0
 22 40  1  0  0  0  0
 22 41  1  0  0  0  0
 23 24  1  0  0  0  0
 23 42  1  0  0  0  0
 23 43  1  0  0  0  0
 24 25  2  0  0  0  0
 24 26  1  0  0  0  0
 26 44  1  0  0  0  0
M  END
$$$$
