CHEMBL219729
 OpenBabel04072215363D

 37 39  0  0  0  0  0  0  0  0999 V2000
    9.1212   -0.1828    7.7174 C   0  0  0  0  0  0  0  0  0  0  0  0
    8.4479    0.5129    6.6702 O   0  0  0  0  0  0  0  0  0  0  0  0
    7.7986   -0.4373    5.8750 N   0  0  0  0  0  0  0  0  0  0  0  0
    7.1396    0.1486    4.9219 C   0  0  0  0  0  0  0  0  0  0  0  0
    6.3569   -0.6465    3.9578 C   0  0  0  0  0  0  0  0  0  0  0  0
    5.8979   -1.9237    4.2650 C   0  0  0  0  0  0  0  0  0  0  0  0
    5.9965   -2.4748    5.5419 N   0  0  0  0  0  0  0  0  0  0  0  0
    5.2118   -2.6835    3.3949 N   0  0  0  0  0  0  0  0  0  0  0  0
    5.0072   -2.1607    2.1821 C   0  0  0  0  0  0  0  0  0  0  0  0
    5.4142   -0.9605    1.7734 N   0  0  0  0  0  0  0  0  0  0  0  0
    6.0558   -0.1920    2.6884 C   0  0  0  0  0  0  0  0  0  0  0  0
    6.4242    1.1018    2.3074 O   0  0  0  0  0  0  0  0  0  0  0  0
    5.7462    1.6437    1.2242 C   0  0  0  0  0  0  0  0  0  0  0  0
    4.3546    1.5840    1.1323 C   0  0  0  0  0  0  0  0  0  0  0  0
    3.6861    1.9972   -0.0207 C   0  0  0  0  0  0  0  0  0  0  0  0
    4.4505    2.5408   -1.0597 C   0  0  0  0  0  0  0  0  0  0  0  0
    5.8330    2.7213   -0.9504 C   0  0  0  0  0  0  0  0  0  0  0  0
    6.2586    3.3619   -2.1516 C   0  0  0  0  0  0  0  0  0  0  0  0
    5.1586    3.4981   -2.9738 C   0  0  0  0  0  0  0  0  0  0  0  0
    4.0823    2.9632   -2.3209 N   0  0  0  0  0  0  0  0  0  0  0  0
    2.7626    2.8032   -2.8904 C   0  0  0  0  0  0  0  0  0  0  0  0
    6.4950    2.2654    0.2144 C   0  0  0  0  0  0  0  0  0  0  0  0
    9.7000    0.5363    8.3021 H   0  0  0  0  0  0  0  0  0  0  0  0
    9.8053   -0.9292    7.2998 H   0  0  0  0  0  0  0  0  0  0  0  0
    8.3957   -0.6722    8.3758 H   0  0  0  0  0  0  0  0  0  0  0  0
    7.1585    1.2448    4.7992 H   0  0  0  0  0  0  0  0  0  0  0  0
    6.9112   -2.2970    5.9589 H   0  0  0  0  0  0  0  0  0  0  0  0
    5.7224   -3.4515    5.5184 H   0  0  0  0  0  0  0  0  0  0  0  0
    4.4423   -2.7582    1.4747 H   0  0  0  0  0  0  0  0  0  0  0  0
    3.7708    1.1468    1.9385 H   0  0  0  0  0  0  0  0  0  0  0  0
    2.6123    1.8717   -0.1064 H   0  0  0  0  0  0  0  0  0  0  0  0
    7.2643    3.6730   -2.3968 H   0  0  0  0  0  0  0  0  0  0  0  0
    5.0689    3.9127   -3.9693 H   0  0  0  0  0  0  0  0  0  0  0  0
    2.7243    3.2805   -3.8728 H   0  0  0  0  0  0  0  0  0  0  0  0
    2.0322    3.2676   -2.2235 H   0  0  0  0  0  0  0  0  0  0  0  0
    2.5641    1.7327   -2.9927 H   0  0  0  0  0  0  0  0  0  0  0  0
    7.5727    2.3599    0.3002 H   0  0  0  0  0  0  0  0  0  0  0  0
  1  2  1  0  0  0  0
  1 23  1  0  0  0  0
  1 24  1  0  0  0  0
  1 25  1  0  0  0  0
  2  3  1  0  0  0  0
  3  4  2  0  0  0  0
  4  5  1  0  0  0  0
  4 26  1  0  0  0  0
  5  6  1  0  0  0  0
  5 11  2  0  0  0  0
  6  7  1  0  0  0  0
  6  8  2  0  0  0  0
  7 27  1  0  0  0  0
  7 28  1  0  0  0  0
  8  9  1  0  0  0  0
  9 10  2  0  0  0  0
  9 29  1  0  0  0  0
 10 11  1  0  0  0  0
 11 12  1  0  0  0  0
 12 13  1  0  0  0  0
 13 14  1  0  0  0  0
 13 22  2  0  0  0  0
 14 15  2  0  0  0  0
 14 30  1  0  0  0  0
 15 16  1  0  0  0  0
 15 31  1  0  0  0  0
 16 17  2  0  0  0  0
 16 20  1  0  0  0  0
 17 18  1  0  0  0  0
 17 22  1  0  0  0  0
 18 19  2  0  0  0  0
 18 32  1  0  0  0  0
 19 20  1  0  0  0  0
 19 33  1  0  0  0  0
 20 21  1  0  0  0  0
 21 34  1  0  0  0  0
 21 35  1  0  0  0  0
 21 36  1  0  0  0  0
 22 37  1  0  0  0  0
M  END
$$$$
