CHEMBL2071201
 OpenBabel04072215363D

 43 46  0  0  1  0  0  0  0  0999 V2000
    9.0664   -3.5477   -0.4805 C   0  0  0  0  0  0  0  0  0  0  0  0
    8.5443   -4.1717    0.7096 N   0  0  0  0  0  0  0  0  0  0  0  0
    9.1597   -5.1106    1.4928 C   0  0  0  0  0  0  0  0  0  0  0  0
    8.2407   -5.4515    2.4538 C   0  0  0  0  0  0  0  0  0  0  0  0
    8.4005   -6.3844    3.4143 N   0  0  0  0  0  0  0  0  0  0  0  0
    7.4112   -7.1984    3.9761 C   0  0  0  0  0  0  0  0  0  0  0  0
    7.8059   -8.1295    4.8485 N   0  0  0  0  0  0  0  0  0  0  0  0
    6.8531   -8.9793    5.2890 C   0  0  0  0  0  0  0  0  0  0  0  0
    5.5392   -8.9562    4.8674 C   0  0  0  0  0  0  0  0  0  0  0  0
    4.3309  -10.2847    5.4426 Br  0  0  0  0  0  0  0  0  0  0  0  0
    5.2129   -7.9844    3.9419 C   0  0  0  0  0  0  0  0  0  0  0  0
    3.9110   -7.8681    3.4122 N   0  0  0  0  0  0  0  0  0  0  0  0
    3.8204   -7.0597    2.1837 C   0  0  1  0  0  0  0  0  0  0  0  0
    4.4094   -7.6957    0.8749 C   0  0  1  0  0  0  0  0  0  0  0  0
    4.8117   -9.1630    0.9484 C   0  0  0  0  0  0  0  0  0  0  0  0
    6.1028   -9.3986    1.3204 N   0  0  0  0  0  0  0  0  0  0  0  0
    4.0700  -10.1067    0.7125 O   0  0  0  0  0  0  0  0  0  0  0  0
    3.2388   -7.5169   -0.1256 C   0  0  2  0  0  0  0  0  0  0  0  0
    2.9762   -6.0344   -0.3108 C   0  0  0  0  0  0  0  0  0  0  0  0
    2.4012   -5.5880    0.8175 C   0  0  0  0  0  0  0  0  0  0  0  0
    2.3396   -6.7612    1.7771 C   0  0  1  0  0  0  0  0  0  0  0  0
    2.0260   -7.8503    0.7524 C   0  0  0  0  0  0  0  0  0  0  0  0
    6.1501   -7.1112    3.5210 N   0  0  0  0  0  0  0  0  0  0  0  0
    7.1253   -4.6249    2.1963 C   0  0  0  0  0  0  0  0  0  0  0  0
    7.3099   -3.8467    1.1279 N   0  0  0  0  0  0  0  0  0  0  0  0
   10.0296   -3.9935   -0.7341 H   0  0  0  0  0  0  0  0  0  0  0  0
    9.1840   -2.4786   -0.2854 H   0  0  0  0  0  0  0  0  0  0  0  0
    8.3556   -3.7125   -1.2970 H   0  0  0  0  0  0  0  0  0  0  0  0
   10.1527   -5.4731    1.2708 H   0  0  0  0  0  0  0  0  0  0  0  0
    9.3073   -6.7689    3.6470 H   0  0  0  0  0  0  0  0  0  0  0  0
    7.2060   -9.7246    5.9967 H   0  0  0  0  0  0  0  0  0  0  0  0
    3.4466   -8.7717    3.3497 H   0  0  0  0  0  0  0  0  0  0  0  0
    4.2944   -6.0877    2.3713 H   0  0  0  0  0  0  0  0  0  0  0  0
    5.2846   -7.1190    0.5418 H   0  0  0  0  0  0  0  0  0  0  0  0
    6.6742   -8.6607    1.7134 H   0  0  0  0  0  0  0  0  0  0  0  0
    6.3824  -10.3609    1.4592 H   0  0  0  0  0  0  0  0  0  0  0  0
    3.3006   -8.0850   -1.0555 H   0  0  0  0  0  0  0  0  0  0  0  0
    3.2504   -5.4427   -1.1718 H   0  0  0  0  0  0  0  0  0  0  0  0
    2.1240   -4.5701    1.0470 H   0  0  0  0  0  0  0  0  0  0  0  0
    1.6111   -6.6616    2.5825 H   0  0  0  0  0  0  0  0  0  0  0  0
    1.0711   -7.7032    0.2291 H   0  0  0  0  0  0  0  0  0  0  0  0
    2.0303   -8.8568    1.1779 H   0  0  0  0  0  0  0  0  0  0  0  0
    6.1952   -4.5561    2.7431 H   0  0  0  0  0  0  0  0  0  0  0  0
  1  2  1  0  0  0  0
  1 26  1  0  0  0  0
  1 27  1  0  0  0  0
  1 28  1  0  0  0  0
  2  3  1  0  0  0  0
  2 25  1  0  0  0  0
  3  4  2  0  0  0  0
  3 29  1  0  0  0  0
  4  5  1  0  0  0  0
  4 24  1  0  0  0  0
  5  6  1  0  0  0  0
  5 30  1  0  0  0  0
  6  7  1  0  0  0  0
  6 23  2  0  0  0  0
  7  8  2  0  0  0  0
  8  9  1  0  0  0  0
  8 31  1  0  0  0  0
  9 10  1  0  0  0  0
  9 11  2  0  0  0  0
 11 12  1  0  0  0  0
 11 23  1  0  0  0  0
 12 32  1  0  0  0  0
 13 14  1  0  0  0  0
 13 21  1  0  0  0  0
 13 12  1  0  0  0  0
 13 33  1  1  0  0  0
 14 15  1  0  0  0  0
 14 18  1  0  0  0  0
 14 34  1  6  0  0  0
 15 16  1  0  0  0  0
 15 17  2  0  0  0  0
 16 35  1  0  0  0  0
 16 36  1  0  0  0  0
 18 19  1  0  0  0  0
 18 22  1  0  0  0  0
 18 37  1  6  0  0  0
 19 20  2  0  0  0  0
 19 38  1  0  0  0  0
 20 21  1  0  0  0  0
 20 39  1  0  0  0  0
 21 22  1  0  0  0  0
 21 40  1  1  0  0  0
 22 41  1  0  0  0  0
 22 42  1  0  0  0  0
 24 25  2  0  0  0  0
 24 43  1  0  0  0  0
M  END
$$$$
