CHEMBL3955685
 OpenBabel04072215373D

 65 67  0  0  0  0  0  0  0  0999 V2000
    2.7926    0.6041   -2.6021 C   0  0  0  0  0  0  0  0  0  0  0  0
    3.7234    0.1516   -1.6947 O   0  0  0  0  0  0  0  0  0  0  0  0
    3.8742   -1.1288   -1.2735 C   0  0  0  0  0  0  0  0  0  0  0  0
    2.9488   -2.1446   -1.5493 C   0  0  0  0  0  0  0  0  0  0  0  0
    3.1881   -3.4445   -1.1028 C   0  0  0  0  0  0  0  0  0  0  0  0
    4.3762   -3.7711   -0.4004 C   0  0  0  0  0  0  0  0  0  0  0  0
    4.5756   -5.0323    0.0824 O   0  0  0  0  0  0  0  0  0  0  0  0
    3.6598   -6.0727   -0.0076 C   0  0  0  0  0  0  0  0  0  0  0  0
    5.3301   -2.7451   -0.1473 C   0  0  0  0  0  0  0  0  0  0  0  0
    6.5451   -2.9724    0.5935 N   0  0  0  0  0  0  0  0  0  0  0  0
    6.9424   -1.9650    1.6361 C   0  0  0  0  0  0  0  0  0  0  0  0
    5.9573   -1.8414    2.8423 C   0  0  0  0  0  0  0  0  0  0  0  0
    6.4765   -0.9317    3.9009 N   0  0  0  0  0  0  0  0  0  0  0  0
    5.4816   -0.6200    4.9649 C   0  0  0  0  0  0  0  0  0  0  0  0
    5.0736   -1.8728    5.7573 C   0  0  0  0  0  0  0  0  0  0  0  0
    6.0218    0.4205    5.9732 C   0  0  0  0  0  0  0  0  0  0  0  0
    7.5192   -4.0336    0.3362 C   0  0  0  0  0  0  0  0  0  0  0  0
    8.0581   -4.5767    1.4971 C   0  0  0  0  0  0  0  0  0  0  0  0
    9.1926   -5.3062    1.4883 C   0  0  0  0  0  0  0  0  0  0  0  0
    9.8405   -5.5816    0.3256 C   0  0  0  0  0  0  0  0  0  0  0  0
   11.0391   -6.1313    0.4710 N   0  0  0  0  0  0  0  0  0  0  0  0
   11.7772   -6.5089   -0.5527 C   0  0  0  0  0  0  0  0  0  0  0  0
   11.2717   -6.4678   -1.8528 C   0  0  0  0  0  0  0  0  0  0  0  0
   12.0746   -7.3976   -2.7989 C   0  0  0  0  0  0  0  0  0  0  0  0
   13.1546   -8.1958   -2.3583 C   0  0  0  0  0  0  0  0  0  0  0  0
   13.5385   -9.0459   -3.3088 N   0  0  0  0  0  0  0  0  0  0  0  0
   12.7791   -8.8390   -4.3616 N   0  0  0  0  0  0  0  0  0  0  0  0
   12.8869   -9.7316   -5.5134 C   0  0  0  0  0  0  0  0  0  0  0  0
   11.9130   -7.8283   -4.1288 C   0  0  0  0  0  0  0  0  0  0  0  0
   10.0496   -5.7825   -2.0542 N   0  0  0  0  0  0  0  0  0  0  0  0
    9.3270   -5.2746   -0.9495 C   0  0  0  0  0  0  0  0  0  0  0  0
    8.1098   -4.4442   -0.9525 C   0  0  0  0  0  0  0  0  0  0  0  0
    5.0266   -1.4318   -0.5601 C   0  0  0  0  0  0  0  0  0  0  0  0
   -0.9656   -1.4726   -0.2127 Cl  0  0  0  0  0  0  0  0  0  0  0  0
    2.9894    1.6777   -2.8030 H   0  0  0  0  0  0  0  0  0  0  0  0
    1.7630    0.4915   -2.2052 H   0  0  0  0  0  0  0  0  0  0  0  0
    2.9047    0.0473   -3.5572 H   0  0  0  0  0  0  0  0  0  0  0  0
    2.0382   -1.9352   -2.0959 H   0  0  0  0  0  0  0  0  0  0  0  0
    2.4296   -4.1888   -1.3115 H   0  0  0  0  0  0  0  0  0  0  0  0
    4.0519   -6.9682    0.5152 H   0  0  0  0  0  0  0  0  0  0  0  0
    3.4751   -6.3350   -1.0713 H   0  0  0  0  0  0  0  0  0  0  0  0
    2.6932   -5.7946    0.4744 H   0  0  0  0  0  0  0  0  0  0  0  0
    7.1024   -0.9700    1.1840 H   0  0  0  0  0  0  0  0  0  0  0  0
    7.9458   -2.1957    2.0657 H   0  0  0  0  0  0  0  0  0  0  0  0
    5.8358   -2.8494    3.2765 H   0  0  0  0  0  0  0  0  0  0  0  0
    4.9856   -1.4695    2.4691 H   0  0  0  0  0  0  0  0  0  0  0  0
    6.7520   -0.0165    3.4555 H   0  0  0  0  0  0  0  0  0  0  0  0
    4.5729   -0.1779    4.4998 H   0  0  0  0  0  0  0  0  0  0  0  0
    5.9589   -2.3303    6.2489 H   0  0  0  0  0  0  0  0  0  0  0  0
    4.5829   -2.6200    5.1060 H   0  0  0  0  0  0  0  0  0  0  0  0
    4.3359   -1.6003    6.5449 H   0  0  0  0  0  0  0  0  0  0  0  0
    6.9176    0.0428    6.5126 H   0  0  0  0  0  0  0  0  0  0  0  0
    5.2420    0.6494    6.7374 H   0  0  0  0  0  0  0  0  0  0  0  0
    6.2778    1.3778    5.4741 H   0  0  0  0  0  0  0  0  0  0  0  0
    7.6322   -4.3588    2.4629 H   0  0  0  0  0  0  0  0  0  0  0  0
    9.6178   -5.6295    2.4259 H   0  0  0  0  0  0  0  0  0  0  0  0
   12.7105   -6.9277   -0.2669 H   0  0  0  0  0  0  0  0  0  0  0  0
   13.6321   -8.2609   -1.3941 H   0  0  0  0  0  0  0  0  0  0  0  0
   13.6116  -10.5596   -5.2864 H   0  0  0  0  0  0  0  0  0  0  0  0
   13.2380   -9.1846   -6.3990 H   0  0  0  0  0  0  0  0  0  0  0  0
   11.9021  -10.2052   -5.6921 H   0  0  0  0  0  0  0  0  0  0  0  0
   11.1516   -7.5009   -4.8333 H   0  0  0  0  0  0  0  0  0  0  0  0
    7.7052   -4.0628   -1.8887 H   0  0  0  0  0  0  0  0  0  0  0  0
    5.7067   -0.6220   -0.3656 H   0  0  0  0  0  0  0  0  0  0  0  0
    0.3426   -1.8913   -0.1669 H   0  0  0  0  0  0  0  0  0  0  0  0
  1  2  1  0  0  0  0
  1 35  1  0  0  0  0
  1 36  1  0  0  0  0
  1 37  1  0  0  0  0
  2  3  1  0  0  0  0
  3  4  1  0  0  0  0
  3 33  2  0  0  0  0
  4  5  2  0  0  0  0
  4 38  1  0  0  0  0
  5  6  1  0  0  0  0
  5 39  1  0  0  0  0
  6  7  1  0  0  0  0
  6  9  2  0  0  0  0
  7  8  1  0  0  0  0
  8 40  1  0  0  0  0
  8 41  1  0  0  0  0
  8 42  1  0  0  0  0
  9 10  1  0  0  0  0
  9 33  1  0  0  0  0
 10 11  1  0  0  0  0
 10 17  1  0  0  0  0
 11 12  1  0  0  0  0
 11 43  1  0  0  0  0
 11 44  1  0  0  0  0
 12 13  1  0  0  0  0
 12 45  1  0  0  0  0
 12 46  1  0  0  0  0
 13 14  1  0  0  0  0
 13 47  1  0  0  0  0
 14 15  1  0  0  0  0
 14 16  1  0  0  0  0
 14 48  1  0  0  0  0
 15 49  1  0  0  0  0
 15 50  1  0  0  0  0
 15 51  1  0  0  0  0
 16 52  1  0  0  0  0
 16 53  1  0  0  0  0
 16 54  1  0  0  0  0
 17 18  1  0  0  0  0
 17 32  2  0  0  0  0
 18 19  2  0  0  0  0
 18 55  1  0  0  0  0
 19 20  1  0  0  0  0
 19 56  1  0  0  0  0
 20 21  1  0  0  0  0
 20 31  2  0  0  0  0
 21 22  2  0  0  0  0
 22 23  1  0  0  0  0
 22 57  1  0  0  0  0
 23 24  1  0  0  0  0
 23 30  2  0  0  0  0
 24 25  1  0  0  0  0
 24 29  2  0  0  0  0
 25 26  2  0  0  0  0
 25 58  1  0  0  0  0
 26 27  1  0  0  0  0
 27 28  1  0  0  0  0
 27 29  1  0  0  0  0
 28 59  1  0  0  0  0
 28 60  1  0  0  0  0
 28 61  1  0  0  0  0
 29 62  1  0  0  0  0
 30 31  1  0  0  0  0
 31 32  1  0  0  0  0
 32 63  1  0  0  0  0
 33 64  1  0  0  0  0
 34 65  1  0  0  0  0
M  END
$$$$
