CHEMBL3970862
 OpenBabel04072215373D

 51 54  0  0  0  0  0  0  0  0999 V2000
    1.1041   -0.6807   -1.6886 O   0  0  0  0  0  0  0  0  0  0  0  0
    2.2993   -0.9073   -1.8658 C   0  0  0  0  0  0  0  0  0  0  0  0
    2.8879   -1.2617   -3.0470 N   0  0  0  0  0  0  0  0  0  0  0  0
    2.3104   -1.4159   -4.3128 C   0  0  0  0  0  0  0  0  0  0  0  0
    1.0254   -0.9847   -4.6324 C   0  0  0  0  0  0  0  0  0  0  0  0
    0.5181   -1.1816   -5.9179 C   0  0  0  0  0  0  0  0  0  0  0  0
    1.2914   -1.8153   -6.8907 C   0  0  0  0  0  0  0  0  0  0  0  0
    2.5910   -2.2443   -6.5925 C   0  0  0  0  0  0  0  0  0  0  0  0
    3.4501   -2.9235   -7.6275 C   0  0  0  0  0  0  0  0  0  0  0  0
    2.8486   -3.0461   -8.8436 F   0  0  0  0  0  0  0  0  0  0  0  0
    4.6159   -2.2559   -7.8552 F   0  0  0  0  0  0  0  0  0  0  0  0
    3.8113   -4.1853   -7.2621 F   0  0  0  0  0  0  0  0  0  0  0  0
    3.0928   -2.0318   -5.2980 C   0  0  0  0  0  0  0  0  0  0  0  0
    3.1327   -0.8487   -0.7783 N   0  0  0  0  0  0  0  0  0  0  0  0
    4.5229   -0.9809   -0.7381 C   0  0  0  0  0  0  0  0  0  0  0  0
    5.1522   -0.9183    0.4976 C   0  0  0  0  0  0  0  0  0  0  0  0
    6.5434   -1.0180    0.5499 C   0  0  0  0  0  0  0  0  0  0  0  0
    7.2731   -1.1134   -0.6334 C   0  0  0  0  0  0  0  0  0  0  0  0
    8.6417   -1.1739   -0.7135 O   0  0  0  0  0  0  0  0  0  0  0  0
    9.3971   -0.4260    0.1629 C   0  0  0  0  0  0  0  0  0  0  0  0
    8.9987    0.8095    0.6641 C   0  0  0  0  0  0  0  0  0  0  0  0
    9.8235    1.4225    1.5779 C   0  0  0  0  0  0  0  0  0  0  0  0
   11.0051    0.9116    1.9603 N   0  0  0  0  0  0  0  0  0  0  0  0
   11.4234   -0.2444    1.4203 C   0  0  0  0  0  0  0  0  0  0  0  0
   12.6797   -0.7625    1.7743 N   0  0  0  0  0  0  0  0  0  0  0  0
   13.5205   -0.1639    2.6903 C   0  0  0  0  0  0  0  0  0  0  0  0
   13.3144    0.8488    3.3422 O   0  0  0  0  0  0  0  0  0  0  0  0
   14.8344   -0.8613    2.8477 C   0  0  0  0  0  0  0  0  0  0  0  0
   15.7503   -0.4933    3.9982 C   0  0  0  0  0  0  0  0  0  0  0  0
   16.1048   -0.0782    2.6006 C   0  0  0  0  0  0  0  0  0  0  0  0
   10.6450   -0.9469    0.5093 C   0  0  0  0  0  0  0  0  0  0  0  0
    6.5615   -1.2022   -1.8170 C   0  0  0  0  0  0  0  0  0  0  0  0
    5.2105   -1.1518   -1.8914 N   0  0  0  0  0  0  0  0  0  0  0  0
    3.8763   -1.4862   -2.9563 H   0  0  0  0  0  0  0  0  0  0  0  0
    0.4044   -0.4727   -3.9031 H   0  0  0  0  0  0  0  0  0  0  0  0
   -0.4845   -0.8358   -6.1570 H   0  0  0  0  0  0  0  0  0  0  0  0
    0.8741   -1.9686   -7.8845 H   0  0  0  0  0  0  0  0  0  0  0  0
    4.0992   -2.3731   -5.0577 H   0  0  0  0  0  0  0  0  0  0  0  0
    2.6394   -0.6511    0.0801 H   0  0  0  0  0  0  0  0  0  0  0  0
    4.5872   -0.7960    1.4158 H   0  0  0  0  0  0  0  0  0  0  0  0
    7.0398   -0.9944    1.5161 H   0  0  0  0  0  0  0  0  0  0  0  0
    8.0673    1.2847    0.3819 H   0  0  0  0  0  0  0  0  0  0  0  0
    9.5547    2.3640    2.0467 H   0  0  0  0  0  0  0  0  0  0  0  0
   12.9831   -1.6031    1.3177 H   0  0  0  0  0  0  0  0  0  0  0  0
   14.8417   -1.9081    2.5677 H   0  0  0  0  0  0  0  0  0  0  0  0
   16.3334   -1.2794    4.4620 H   0  0  0  0  0  0  0  0  0  0  0  0
   15.4280    0.2800    4.6896 H   0  0  0  0  0  0  0  0  0  0  0  0
   16.9300   -0.5814    2.1132 H   0  0  0  0  0  0  0  0  0  0  0  0
   16.0187    0.9768    2.3578 H   0  0  0  0  0  0  0  0  0  0  0  0
   10.9800   -1.8821    0.0769 H   0  0  0  0  0  0  0  0  0  0  0  0
    7.0714   -1.3068   -2.7708 H   0  0  0  0  0  0  0  0  0  0  0  0
  1  2  2  0  0  0  0
  2  3  1  0  0  0  0
  2 14  1  0  0  0  0
  3  4  1  0  0  0  0
  3 34  1  0  0  0  0
  4  5  1  0  0  0  0
  4 13  2  0  0  0  0
  5  6  2  0  0  0  0
  5 35  1  0  0  0  0
  6  7  1  0  0  0  0
  6 36  1  0  0  0  0
  7  8  2  0  0  0  0
  7 37  1  0  0  0  0
  8  9  1  0  0  0  0
  8 13  1  0  0  0  0
  9 10  1  0  0  0  0
  9 11  1  0  0  0  0
  9 12  1  0  0  0  0
 13 38  1  0  0  0  0
 14 15  1  0  0  0  0
 14 39  1  0  0  0  0
 15 16  1  0  0  0  0
 15 33  2  0  0  0  0
 16 17  2  0  0  0  0
 16 40  1  0  0  0  0
 17 18  1  0  0  0  0
 17 41  1  0  0  0  0
 18 19  1  0  0  0  0
 18 32  2  0  0  0  0
 19 20  1  0  0  0  0
 20 21  1  0  0  0  0
 20 31  2  0  0  0  0
 21 22  2  0  0  0  0
 21 42  1  0  0  0  0
 22 23  1  0  0  0  0
 22 43  1  0  0  0  0
 23 24  2  0  0  0  0
 24 25  1  0  0  0  0
 24 31  1  0  0  0  0
 25 26  1  0  0  0  0
 25 44  1  0  0  0  0
 26 27  2  0  0  0  0
 26 28  1  0  0  0  0
 28 29  1  0  0  0  0
 28 30  1  0  0  0  0
 28 45  1  0  0  0  0
 29 30  1  0  0  0  0
 29 46  1  0  0  0  0
 29 47  1  0  0  0  0
 30 48  1  0  0  0  0
 30 49  1  0  0  0  0
 31 50  1  0  0  0  0
 32 33  1  0  0  0  0
 32 51  1  0  0  0  0
M  END
$$$$
