CHEMBL1974328
 OpenBabel04072215363D

 49 51  0  0  1  0  0  0  0  0999 V2000
    2.0267   -0.7756   -2.7427 C   0  0  0  0  0  0  0  0  0  0  0  0
    0.7311   -0.5065   -2.0357 C   0  0  0  0  0  0  0  0  0  0  0  0
    0.1770    0.7772   -2.0398 C   0  0  0  0  0  0  0  0  0  0  0  0
   -1.0358    1.0173   -1.4036 C   0  0  0  0  0  0  0  0  0  0  0  0
   -1.7081   -0.0249   -0.7665 C   0  0  0  0  0  0  0  0  0  0  0  0
   -1.1847   -1.3257   -0.7628 C   0  0  0  0  0  0  0  0  0  0  0  0
   -1.8616   -2.4105   -0.1549 N   0  0  0  0  0  0  0  0  0  0  0  0
   -3.2665   -2.5176   -0.0767 C   0  0  0  0  0  0  0  0  0  0  0  0
   -3.9964   -1.9725   -1.0916 N   0  0  0  0  0  0  0  0  0  0  0  0
   -5.3341   -1.9094   -0.9782 C   0  0  0  0  0  0  0  0  0  0  0  0
   -6.0673   -1.3726   -2.0172 N   0  0  0  0  0  0  0  0  0  0  0  0
   -5.5590   -1.4895   -3.3872 C   0  0  3  0  0  0  0  0  0  0  0  0
   -6.5905   -2.2668   -4.2264 C   0  0  0  0  0  0  0  0  0  0  0  0
   -6.1826   -2.3678   -5.6928 C   0  0  0  0  0  0  0  0  0  0  0  0
   -5.9473   -0.9912   -6.2996 C   0  0  0  0  0  0  0  0  0  0  0  0
   -4.9091   -0.2075   -5.5012 C   0  0  0  0  0  0  0  0  0  0  0  0
   -5.2960   -0.0886   -4.0182 C   0  0  3  0  0  0  0  0  0  0  0  0
   -4.2456    0.6710   -3.3181 N   0  0  0  0  0  0  0  0  0  0  0  0
   -5.9506   -2.4555    0.1475 C   0  0  0  0  0  0  0  0  0  0  0  0
   -5.2877   -3.0741    1.1605 N   0  0  0  0  0  0  0  0  0  0  0  0
   -3.9273   -3.1073    1.0102 C   0  0  0  0  0  0  0  0  0  0  0  0
   -3.1653   -3.7770    2.1076 C   0  0  0  0  0  0  0  0  0  0  0  0
   -3.8949   -4.2899    3.1435 N   0  0  0  0  0  0  0  0  0  0  0  0
   -1.9339   -3.8768    2.0961 O   0  0  0  0  0  0  0  0  0  0  0  0
    0.0553   -1.5457   -1.3753 C   0  0  0  0  0  0  0  0  0  0  0  0
    2.4240    0.1334   -3.2070 H   0  0  0  0  0  0  0  0  0  0  0  0
    1.8799   -1.5168   -3.5348 H   0  0  0  0  0  0  0  0  0  0  0  0
    2.7749   -1.1433   -2.0339 H   0  0  0  0  0  0  0  0  0  0  0  0
    0.6835    1.5978   -2.5423 H   0  0  0  0  0  0  0  0  0  0  0  0
   -1.4706    2.0137   -1.4131 H   0  0  0  0  0  0  0  0  0  0  0  0
   -2.6660    0.1918   -0.3001 H   0  0  0  0  0  0  0  0  0  0  0  0
   -1.4110   -2.7169    0.7132 H   0  0  0  0  0  0  0  0  0  0  0  0
   -6.9959   -1.0110   -1.8520 H   0  0  0  0  0  0  0  0  0  0  0  0
   -4.6176   -2.0542   -3.3976 H   0  0  0  0  0  0  0  0  0  0  0  0
   -7.5703   -1.7753   -4.1591 H   0  0  0  0  0  0  0  0  0  0  0  0
   -6.7248   -3.2811   -3.8285 H   0  0  0  0  0  0  0  0  0  0  0  0
   -6.9629   -2.8914   -6.2574 H   0  0  0  0  0  0  0  0  0  0  0  0
   -5.2685   -2.9683   -5.7782 H   0  0  0  0  0  0  0  0  0  0  0  0
   -6.8916   -0.4330   -6.3243 H   0  0  0  0  0  0  0  0  0  0  0  0
   -5.6136   -1.0988   -7.3382 H   0  0  0  0  0  0  0  0  0  0  0  0
   -4.7990    0.7900   -5.9447 H   0  0  0  0  0  0  0  0  0  0  0  0
   -3.9354   -0.7067   -5.5997 H   0  0  0  0  0  0  0  0  0  0  0  0
   -6.2167    0.5033   -3.9489 H   0  0  0  0  0  0  0  0  0  0  0  0
   -3.3714    0.1400   -3.3686 H   0  0  0  0  0  0  0  0  0  0  0  0
   -4.4634    0.6645   -2.3204 H   0  0  0  0  0  0  0  0  0  0  0  0
   -7.0295   -2.4380    0.2467 H   0  0  0  0  0  0  0  0  0  0  0  0
   -4.9079   -4.2500    3.1234 H   0  0  0  0  0  0  0  0  0  0  0  0
   -3.4207   -4.7718    3.8977 H   0  0  0  0  0  0  0  0  0  0  0  0
    0.4717   -2.5501   -1.3889 H   0  0  0  0  0  0  0  0  0  0  0  0
  1  2  1  0  0  0  0
  1 26  1  0  0  0  0
  1 27  1  0  0  0  0
  1 28  1  0  0  0  0
  2  3  1  0  0  0  0
  2 25  2  0  0  0  0
  3  4  2  0  0  0  0
  3 29  1  0  0  0  0
  4  5  1  0  0  0  0
  4 30  1  0  0  0  0
  5  6  2  0  0  0  0
  5 31  1  0  0  0  0
  6  7  1  0  0  0  0
  6 25  1  0  0  0  0
  7  8  1  0  0  0  0
  7 32  1  0  0  0  0
  8  9  1  0  0  0  0
  8 21  2  0  0  0  0
  9 10  2  0  0  0  0
 10 11  1  0  0  0  0
 10 19  1  0  0  0  0
 11 12  1  0  0  0  0
 11 33  1  0  0  0  0
 12 13  1  0  0  0  0
 12 17  1  0  0  0  0
 12 34  1  0  0  0  0
 13 14  1  0  0  0  0
 13 35  1  0  0  0  0
 13 36  1  0  0  0  0
 14 15  1  0  0  0  0
 14 37  1  0  0  0  0
 14 38  1  0  0  0  0
 15 16  1  0  0  0  0
 15 39  1  0  0  0  0
 15 40  1  0  0  0  0
 16 17  1  0  0  0  0
 16 41  1  0  0  0  0
 16 42  1  0  0  0  0
 17 18  1  0  0  0  0
 17 43  1  0  0  0  0
 18 44  1  0  0  0  0
 18 45  1  0  0  0  0
 19 20  2  0  0  0  0
 19 46  1  0  0  0  0
 20 21  1  0  0  0  0
 21 22  1  0  0  0  0
 22 23  1  0  0  0  0
 22 24  2  0  0  0  0
 23 47  1  0  0  0  0
 23 48  1  0  0  0  0
 25 49  1  0  0  0  0
M  END
$$$$
