CHEMBL3983575
 OpenBabel04072215373D

 65 69  0  0  0  0  0  0  0  0999 V2000
    2.6618    1.0696   -0.6538 O   0  0  0  0  0  0  0  0  0  0  0  0
    2.2394    0.1561    0.0433 C   0  0  0  0  0  0  0  0  0  0  0  0
    0.8935   -0.1037    0.2505 N   0  0  0  0  0  0  0  0  0  0  0  0
   -0.1850    0.6464   -0.2800 C   0  0  0  0  0  0  0  0  0  0  0  0
   -0.0534    1.5703   -1.3252 C   0  0  0  0  0  0  0  0  0  0  0  0
   -1.1304    2.3367   -1.7955 C   0  0  0  0  0  0  0  0  0  0  0  0
   -1.0101    3.1844   -2.8735 N   0  0  0  0  0  0  0  0  0  0  0  0
   -0.1355    2.8804   -4.0148 C   0  0  0  0  0  0  0  0  0  0  0  0
    0.9359    3.9659   -4.1637 C   0  0  0  0  0  0  0  0  0  0  0  0
    0.3428    5.2736   -4.2611 O   0  0  0  0  0  0  0  0  0  0  0  0
   -0.4213    5.5620   -3.0767 C   0  0  0  0  0  0  0  0  0  0  0  0
   -1.5593    4.5466   -2.8655 C   0  0  0  0  0  0  0  0  0  0  0  0
   -2.3622    2.1675   -1.1604 C   0  0  0  0  0  0  0  0  0  0  0  0
   -2.5471    1.2024   -0.1593 C   0  0  0  0  0  0  0  0  0  0  0  0
   -3.9171    0.9456    0.4055 C   0  0  0  0  0  0  0  0  0  0  0  0
   -4.8914    1.7318   -0.1298 F   0  0  0  0  0  0  0  0  0  0  0  0
   -4.3219   -0.3396    0.2018 F   0  0  0  0  0  0  0  0  0  0  0  0
   -3.9736    1.1434    1.7519 F   0  0  0  0  0  0  0  0  0  0  0  0
   -1.4488    0.4432    0.2741 C   0  0  0  0  0  0  0  0  0  0  0  0
    3.0457   -0.7239    0.7553 N   0  0  0  0  0  0  0  0  0  0  0  0
    4.4530   -0.6408    0.8896 C   0  0  0  0  0  0  0  0  0  0  0  0
    5.2125    0.3952    0.3392 C   0  0  0  0  0  0  0  0  0  0  0  0
    6.5952    0.4593    0.5222 C   0  0  0  0  0  0  0  0  0  0  0  0
    7.2620   -0.5456    1.2213 C   0  0  0  0  0  0  0  0  0  0  0  0
    8.6294   -0.5520    1.4134 O   0  0  0  0  0  0  0  0  0  0  0  0
    9.4511   -0.0748    0.4081 C   0  0  0  0  0  0  0  0  0  0  0  0
    9.1492   -0.2077   -0.9455 C   0  0  0  0  0  0  0  0  0  0  0  0
   10.0203    0.3432   -1.8567 C   0  0  0  0  0  0  0  0  0  0  0  0
   11.1611    0.9509   -1.5061 N   0  0  0  0  0  0  0  0  0  0  0  0
   11.4908    1.0281   -0.2072 C   0  0  0  0  0  0  0  0  0  0  0  0
   12.7114    1.6248    0.1482 N   0  0  0  0  0  0  0  0  0  0  0  0
   13.6042    2.1482   -0.7714 C   0  0  0  0  0  0  0  0  0  0  0  0
   13.4882    2.2112   -1.9829 O   0  0  0  0  0  0  0  0  0  0  0  0
   14.8688    2.6503   -0.1455 C   0  0  0  0  0  0  0  0  0  0  0  0
   15.9000    3.3916   -0.9723 C   0  0  0  0  0  0  0  0  0  0  0  0
   16.1681    1.9811   -0.5383 C   0  0  0  0  0  0  0  0  0  0  0  0
   10.6578    0.5246    0.7876 C   0  0  0  0  0  0  0  0  0  0  0  0
    6.5048   -1.5660    1.7968 C   0  0  0  0  0  0  0  0  0  0  0  0
    7.1045   -2.5234    2.5204 F   0  0  0  0  0  0  0  0  0  0  0  0
    5.1138   -1.6222    1.6354 C   0  0  0  0  0  0  0  0  0  0  0  0
    0.6657   -0.7554    0.9846 H   0  0  0  0  0  0  0  0  0  0  0  0
    0.9112    1.7205   -1.7972 H   0  0  0  0  0  0  0  0  0  0  0  0
   -0.7635    2.8691   -4.9143 H   0  0  0  0  0  0  0  0  0  0  0  0
    0.3282    1.8903   -3.9485 H   0  0  0  0  0  0  0  0  0  0  0  0
    1.5104    3.7933   -5.0790 H   0  0  0  0  0  0  0  0  0  0  0  0
    1.6348    3.9518   -3.3192 H   0  0  0  0  0  0  0  0  0  0  0  0
   -0.8378    6.5678   -3.1894 H   0  0  0  0  0  0  0  0  0  0  0  0
    0.2562    5.5753   -2.2144 H   0  0  0  0  0  0  0  0  0  0  0  0
   -2.2811    4.6300   -3.6865 H   0  0  0  0  0  0  0  0  0  0  0  0
   -2.0813    4.7874   -1.9326 H   0  0  0  0  0  0  0  0  0  0  0  0
   -3.2184    2.7460   -1.5039 H   0  0  0  0  0  0  0  0  0  0  0  0
   -1.5970   -0.3011    1.0534 H   0  0  0  0  0  0  0  0  0  0  0  0
    2.5955   -1.5193    1.1819 H   0  0  0  0  0  0  0  0  0  0  0  0
    4.7686    1.1930   -0.2467 H   0  0  0  0  0  0  0  0  0  0  0  0
    7.1288    1.2994    0.0860 H   0  0  0  0  0  0  0  0  0  0  0  0
    8.2486   -0.6926   -1.3008 H   0  0  0  0  0  0  0  0  0  0  0  0
    9.8211    0.3168   -2.9230 H   0  0  0  0  0  0  0  0  0  0  0  0
   12.9572    1.6402    1.1250 H   0  0  0  0  0  0  0  0  0  0  0  0
   14.7763    2.9863    0.8810 H   0  0  0  0  0  0  0  0  0  0  0  0
   16.4681    4.1847   -0.4987 H   0  0  0  0  0  0  0  0  0  0  0  0
   15.6964    3.5684   -2.0229 H   0  0  0  0  0  0  0  0  0  0  0  0
   16.9143    1.8208    0.2299 H   0  0  0  0  0  0  0  0  0  0  0  0
   16.1442    1.2158   -1.3036 H   0  0  0  0  0  0  0  0  0  0  0  0
   10.9173    0.5912    1.8391 H   0  0  0  0  0  0  0  0  0  0  0  0
    4.5747   -2.4389    2.1057 H   0  0  0  0  0  0  0  0  0  0  0  0
  1  2  2  0  0  0  0
  2  3  1  0  0  0  0
  2 20  1  0  0  0  0
  3  4  1  0  0  0  0
  3 41  1  0  0  0  0
  4  5  1  0  0  0  0
  4 19  2  0  0  0  0
  5  6  2  0  0  0  0
  5 42  1  0  0  0  0
  6  7  1  0  0  0  0
  6 13  1  0  0  0  0
  7  8  1  0  0  0  0
  7 12  1  0  0  0  0
  8  9  1  0  0  0  0
  8 43  1  0  0  0  0
  8 44  1  0  0  0  0
  9 10  1  0  0  0  0
  9 45  1  0  0  0  0
  9 46  1  0  0  0  0
 10 11  1  0  0  0  0
 11 12  1  0  0  0  0
 11 47  1  0  0  0  0
 11 48  1  0  0  0  0
 12 49  1  0  0  0  0
 12 50  1  0  0  0  0
 13 14  2  0  0  0  0
 13 51  1  0  0  0  0
 14 15  1  0  0  0  0
 14 19  1  0  0  0  0
 15 16  1  0  0  0  0
 15 17  1  0  0  0  0
 15 18  1  0  0  0  0
 19 52  1  0  0  0  0
 20 21  1  0  0  0  0
 20 53  1  0  0  0  0
 21 22  1  0  0  0  0
 21 40  2  0  0  0  0
 22 23  2  0  0  0  0
 22 54  1  0  0  0  0
 23 24  1  0  0  0  0
 23 55  1  0  0  0  0
 24 25  1  0  0  0  0
 24 38  2  0  0  0  0
 25 26  1  0  0  0  0
 26 27  1  0  0  0  0
 26 37  2  0  0  0  0
 27 28  2  0  0  0  0
 27 56  1  0  0  0  0
 28 29  1  0  0  0  0
 28 57  1  0  0  0  0
 29 30  2  0  0  0  0
 30 31  1  0  0  0  0
 30 37  1  0  0  0  0
 31 32  1  0  0  0  0
 31 58  1  0  0  0  0
 32 33  2  0  0  0  0
 32 34  1  0  0  0  0
 34 35  1  0  0  0  0
 34 36  1  0  0  0  0
 34 59  1  0  0  0  0
 35 36  1  0  0  0  0
 35 60  1  0  0  0  0
 35 61  1  0  0  0  0
 36 62  1  0  0  0  0
 36 63  1  0  0  0  0
 37 64  1  0  0  0  0
 38 39  1  0  0  0  0
 38 40  1  0  0  0  0
 40 65  1  0  0  0  0
M  END
$$$$
