CHEMBL3694699
 OpenBabel04072215373D

 45 48  0  0  0  0  0  0  0  0999 V2000
    2.5388    0.6472   -1.2562 O   0  0  0  0  0  0  0  0  0  0  0  0
    2.1696    0.5022   -0.1000 C   0  0  0  0  0  0  0  0  0  0  0  0
    0.8355    0.3385    0.2084 N   0  0  0  0  0  0  0  0  0  0  0  0
   -0.1540    0.4764   -0.8701 C   0  0  0  0  0  0  0  0  0  0  0  0
   -0.5243    1.9193   -1.2447 C   0  0  0  0  0  0  0  0  0  0  0  0
    0.0993    2.8237   -0.4546 F   0  0  0  0  0  0  0  0  0  0  0  0
   -0.2338    2.2086   -2.5290 F   0  0  0  0  0  0  0  0  0  0  0  0
   -1.8573    2.1105   -1.0774 F   0  0  0  0  0  0  0  0  0  0  0  0
    2.9633    0.4257    1.0227 N   0  0  0  0  0  0  0  0  0  0  0  0
    4.3756    0.5140    1.0550 C   0  0  0  0  0  0  0  0  0  0  0  0
    5.1295    0.9778   -0.0238 C   0  0  0  0  0  0  0  0  0  0  0  0
    6.5196    0.9775    0.0463 C   0  0  0  0  0  0  0  0  0  0  0  0
    7.4429    1.5608   -1.2845 Cl  0  0  0  0  0  0  0  0  0  0  0  0
    7.1729    0.5044    1.1801 C   0  0  0  0  0  0  0  0  0  0  0  0
    6.4444    0.0545    2.2916 C   0  0  0  0  0  0  0  0  0  0  0  0
    7.1836   -0.4199    3.4728 C   0  0  0  0  0  0  0  0  0  0  0  0
    8.3954    0.0424    3.9711 C   0  0  0  0  0  0  0  0  0  0  0  0
    8.8231   -0.6691    5.0547 N   0  0  0  0  0  0  0  0  0  0  0  0
    7.9046   -1.5881    5.2434 C   0  0  0  0  0  0  0  0  0  0  0  0
    7.8303   -2.6211    6.2226 C   0  0  0  0  0  0  0  0  0  0  0  0
    6.7834   -3.4816    6.2589 C   0  0  0  0  0  0  0  0  0  0  0  0
    6.7298   -4.5326    7.3142 C   0  0  0  0  0  0  0  0  0  0  0  0
    7.7675   -4.6521    8.1656 N   0  0  0  0  0  0  0  0  0  0  0  0
    7.6600   -5.5977    9.1182 C   0  0  0  0  0  0  0  0  0  0  0  0
    6.5666   -6.4179    9.2538 C   0  0  0  0  0  0  0  0  0  0  0  0
    5.5646   -6.2234    8.3353 C   0  0  0  0  0  0  0  0  0  0  0  0
    5.6187   -5.2959    7.3606 N   0  0  0  0  0  0  0  0  0  0  0  0
    5.7277   -3.3429    5.2412 C   0  0  0  0  0  0  0  0  0  0  0  0
    5.8026   -2.3856    4.3023 C   0  0  0  0  0  0  0  0  0  0  0  0
    6.8752   -1.4935    4.3061 N   0  0  0  0  0  0  0  0  0  0  0  0
    5.0401    0.1029    2.2251 C   0  0  0  0  0  0  0  0  0  0  0  0
    0.5524    0.6734    1.1190 H   0  0  0  0  0  0  0  0  0  0  0  0
   -1.0484   -0.0576   -0.5338 H   0  0  0  0  0  0  0  0  0  0  0  0
    0.2179   -0.0452   -1.7601 H   0  0  0  0  0  0  0  0  0  0  0  0
    2.5107    0.0783    1.8549 H   0  0  0  0  0  0  0  0  0  0  0  0
    4.6598    1.3554   -0.9262 H   0  0  0  0  0  0  0  0  0  0  0  0
    8.2604    0.4893    1.1900 H   0  0  0  0  0  0  0  0  0  0  0  0
    8.9892    0.8640    3.5889 H   0  0  0  0  0  0  0  0  0  0  0  0
    8.6487   -2.6772    6.9340 H   0  0  0  0  0  0  0  0  0  0  0  0
    8.5078   -5.6749    9.7931 H   0  0  0  0  0  0  0  0  0  0  0  0
    6.4985   -7.1656   10.0312 H   0  0  0  0  0  0  0  0  0  0  0  0
    4.6590   -6.8227    8.3556 H   0  0  0  0  0  0  0  0  0  0  0  0
    4.8971   -4.0426    5.2622 H   0  0  0  0  0  0  0  0  0  0  0  0
    5.0522   -2.2901    3.5324 H   0  0  0  0  0  0  0  0  0  0  0  0
    4.4523   -0.1847    3.0927 H   0  0  0  0  0  0  0  0  0  0  0  0
  1  2  2  0  0  0  0
  2  3  1  0  0  0  0
  2  9  1  0  0  0  0
  3  4  1  0  0  0  0
  3 32  1  0  0  0  0
  4  5  1  0  0  0  0
  4 33  1  0  0  0  0
  4 34  1  0  0  0  0
  5  6  1  0  0  0  0
  5  7  1  0  0  0  0
  5  8  1  0  0  0  0
  9 10  1  0  0  0  0
  9 35  1  0  0  0  0
 10 11  1  0  0  0  0
 10 31  2  0  0  0  0
 11 12  2  0  0  0  0
 11 36  1  0  0  0  0
 12 13  1  0  0  0  0
 12 14  1  0  0  0  0
 14 15  2  0  0  0  0
 14 37  1  0  0  0  0
 15 16  1  0  0  0  0
 15 31  1  0  0  0  0
 16 17  2  0  0  0  0
 16 30  1  0  0  0  0
 17 18  1  0  0  0  0
 17 38  1  0  0  0  0
 18 19  2  0  0  0  0
 19 20  1  0  0  0  0
 19 30  1  0  0  0  0
 20 21  2  0  0  0  0
 20 39  1  0  0  0  0
 21 22  1  0  0  0  0
 21 28  1  0  0  0  0
 22 23  1  0  0  0  0
 22 27  2  0  0  0  0
 23 24  2  0  0  0  0
 24 25  1  0  0  0  0
 24 40  1  0  0  0  0
 25 26  2  0  0  0  0
 25 41  1  0  0  0  0
 26 27  1  0  0  0  0
 26 42  1  0  0  0  0
 28 29  2  0  0  0  0
 28 43  1  0  0  0  0
 29 30  1  0  0  0  0
 29 44  1  0  0  0  0
 31 45  1  0  0  0  0
M  END
$$$$
