CHEMBL198701
 OpenBabel04072215363D

 67 70  0  0  0  0  0  0  0  0999 V2000
    1.6985   -0.9253   -2.9714 C   0  0  0  0  0  0  0  0  0  0  0  0
    2.2982   -1.9229   -3.7916 O   0  0  0  0  0  0  0  0  0  0  0  0
    3.6551   -1.7450   -3.9478 C   0  0  0  0  0  0  0  0  0  0  0  0
    4.3259   -2.7402   -4.6393 C   0  0  0  0  0  0  0  0  0  0  0  0
    5.7031   -2.6262   -4.7860 C   0  0  0  0  0  0  0  0  0  0  0  0
    6.3578   -1.5134   -4.2616 C   0  0  0  0  0  0  0  0  0  0  0  0
    8.0863   -1.5027   -4.3297 Cl  0  0  0  0  0  0  0  0  0  0  0  0
    5.5959   -0.5192   -3.6255 C   0  0  0  0  0  0  0  0  0  0  0  0
    6.1483    0.6456   -3.0847 N   0  0  0  0  0  0  0  0  0  0  0  0
    6.9881    1.5625   -3.7568 C   0  0  0  0  0  0  0  0  0  0  0  0
    7.1340    1.4196   -5.0912 N   0  0  0  0  0  0  0  0  0  0  0  0
    7.9349    2.2849   -5.7097 C   0  0  0  0  0  0  0  0  0  0  0  0
    8.5725    3.3027   -5.1340 N   0  0  0  0  0  0  0  0  0  0  0  0
    8.4132    3.4421   -3.8177 C   0  0  0  0  0  0  0  0  0  0  0  0
    9.0656    4.5045   -3.2287 C   0  0  0  0  0  0  0  0  0  0  0  0
    9.0134    4.7273   -1.8591 C   0  0  0  0  0  0  0  0  0  0  0  0
    9.7066    5.8201   -1.4367 O   0  0  0  0  0  0  0  0  0  0  0  0
   10.1217    5.8387   -0.0726 C   0  0  0  0  0  0  0  0  0  0  0  0
   11.5893    6.2643   -0.0609 C   0  0  0  0  0  0  0  0  0  0  0  0
   12.1859    6.2424    1.2833 N   0  0  0  0  0  0  0  0  0  0  0  0
   11.5627    7.2168    2.2071 C   0  0  0  0  0  0  0  0  0  0  0  0
   11.8380    8.6865    1.8491 C   0  0  0  0  0  0  0  0  0  0  0  0
   13.2786    8.9341    1.7253 N   0  0  0  0  0  0  0  0  0  0  0  0
   13.7991   10.0737    2.3049 C   0  0  0  0  0  0  0  0  0  0  0  0
   15.2776   10.3487    2.2207 C   0  0  0  0  0  0  0  0  0  0  0  0
   13.0897   10.8650    2.9336 O   0  0  0  0  0  0  0  0  0  0  0  0
   13.9856    7.9844    0.8557 C   0  0  0  0  0  0  0  0  0  0  0  0
   13.6355    6.5232    1.2062 C   0  0  0  0  0  0  0  0  0  0  0  0
    8.2697    3.8817   -1.0502 C   0  0  0  0  0  0  0  0  0  0  0  0
    7.5582    2.8244   -1.6155 C   0  0  0  0  0  0  0  0  0  0  0  0
    6.7773    1.9773   -0.8651 O   0  0  0  0  0  0  0  0  0  0  0  0
    6.2976    2.4111    0.4157 C   0  0  0  0  0  0  0  0  0  0  0  0
    5.2921    3.5504    0.2525 C   0  0  0  0  0  0  0  0  0  0  0  0
    5.6058    1.2135    1.0670 C   0  0  0  0  0  0  0  0  0  0  0  0
    7.6317    2.5858   -3.0252 C   0  0  0  0  0  0  0  0  0  0  0  0
    4.2584   -0.6499   -3.4372 N   0  0  0  0  0  0  0  0  0  0  0  0
    0.6273   -1.1422   -2.9105 H   0  0  0  0  0  0  0  0  0  0  0  0
    1.8115    0.0724   -3.4098 H   0  0  0  0  0  0  0  0  0  0  0  0
    2.1037   -0.9562   -1.9541 H   0  0  0  0  0  0  0  0  0  0  0  0
    3.7925   -3.6003   -5.0274 H   0  0  0  0  0  0  0  0  0  0  0  0
    6.2657   -3.4065   -5.2908 H   0  0  0  0  0  0  0  0  0  0  0  0
    5.4091    1.1585   -2.6146 H   0  0  0  0  0  0  0  0  0  0  0  0
    8.0881    2.1454   -6.7725 H   0  0  0  0  0  0  0  0  0  0  0  0
    9.6474    5.1795   -3.8535 H   0  0  0  0  0  0  0  0  0  0  0  0
   10.0565    4.8678    0.4284 H   0  0  0  0  0  0  0  0  0  0  0  0
    9.4830    6.5567    0.4516 H   0  0  0  0  0  0  0  0  0  0  0  0
   11.6847    7.2356   -0.5599 H   0  0  0  0  0  0  0  0  0  0  0  0
   12.1327    5.5561   -0.7027 H   0  0  0  0  0  0  0  0  0  0  0  0
   11.9597    7.0214    3.2128 H   0  0  0  0  0  0  0  0  0  0  0  0
   10.4850    7.0465    2.2934 H   0  0  0  0  0  0  0  0  0  0  0  0
   11.3857    9.3275    2.6135 H   0  0  0  0  0  0  0  0  0  0  0  0
   11.3712    8.9543    0.8939 H   0  0  0  0  0  0  0  0  0  0  0  0
   15.8288    9.7227    1.5259 H   0  0  0  0  0  0  0  0  0  0  0  0
   15.7080   10.2200    3.2181 H   0  0  0  0  0  0  0  0  0  0  0  0
   15.4163   11.3839    1.8970 H   0  0  0  0  0  0  0  0  0  0  0  0
   15.0666    8.0932    0.9106 H   0  0  0  0  0  0  0  0  0  0  0  0
   13.6943    8.2160   -0.1759 H   0  0  0  0  0  0  0  0  0  0  0  0
   14.0742    6.2857    2.1841 H   0  0  0  0  0  0  0  0  0  0  0  0
   14.1171    5.8430    0.4929 H   0  0  0  0  0  0  0  0  0  0  0  0
    8.2262    4.0618    0.0149 H   0  0  0  0  0  0  0  0  0  0  0  0
    7.1266    2.6939    1.0736 H   0  0  0  0  0  0  0  0  0  0  0  0
    4.4826    3.2540   -0.4234 H   0  0  0  0  0  0  0  0  0  0  0  0
    5.7541    4.4369   -0.1918 H   0  0  0  0  0  0  0  0  0  0  0  0
    4.8644    3.8447    1.2150 H   0  0  0  0  0  0  0  0  0  0  0  0
    4.7727    0.8575    0.4512 H   0  0  0  0  0  0  0  0  0  0  0  0
    5.2223    1.4712    2.0597 H   0  0  0  0  0  0  0  0  0  0  0  0
    6.3034    0.3752    1.1719 H   0  0  0  0  0  0  0  0  0  0  0  0
  1  2  1  0  0  0  0
  1 37  1  0  0  0  0
  1 38  1  0  0  0  0
  1 39  1  0  0  0  0
  2  3  1  0  0  0  0
  3  4  1  0  0  0  0
  3 36  2  0  0  0  0
  4  5  2  0  0  0  0
  4 40  1  0  0  0  0
  5  6  1  0  0  0  0
  5 41  1  0  0  0  0
  6  7  1  0  0  0  0
  6  8  2  0  0  0  0
  8  9  1  0  0  0  0
  8 36  1  0  0  0  0
  9 10  1  0  0  0  0
  9 42  1  0  0  0  0
 10 11  1  0  0  0  0
 10 35  2  0  0  0  0
 11 12  2  0  0  0  0
 12 13  1  0  0  0  0
 12 43  1  0  0  0  0
 13 14  2  0  0  0  0
 14 15  1  0  0  0  0
 14 35  1  0  0  0  0
 15 16  2  0  0  0  0
 15 44  1  0  0  0  0
 16 17  1  0  0  0  0
 16 29  1  0  0  0  0
 17 18  1  0  0  0  0
 18 19  1  0  0  0  0
 18 45  1  0  0  0  0
 18 46  1  0  0  0  0
 19 20  1  0  0  0  0
 19 47  1  0  0  0  0
 19 48  1  0  0  0  0
 20 21  1  0  0  0  0
 20 28  1  0  0  0  0
 21 22  1  0  0  0  0
 21 49  1  0  0  0  0
 21 50  1  0  0  0  0
 22 23  1  0  0  0  0
 22 51  1  0  0  0  0
 22 52  1  0  0  0  0
 23 24  1  0  0  0  0
 23 27  1  0  0  0  0
 24 25  1  0  0  0  0
 24 26  2  0  0  0  0
 25 53  1  0  0  0  0
 25 54  1  0  0  0  0
 25 55  1  0  0  0  0
 27 28  1  0  0  0  0
 27 56  1  0  0  0  0
 27 57  1  0  0  0  0
 28 58  1  0  0  0  0
 28 59  1  0  0  0  0
 29 30  2  0  0  0  0
 29 60  1  0  0  0  0
 30 31  1  0  0  0  0
 30 35  1  0  0  0  0
 31 32  1  0  0  0  0
 32 33  1  0  0  0  0
 32 34  1  0  0  0  0
 32 61  1  0  0  0  0
 33 62  1  0  0  0  0
 33 63  1  0  0  0  0
 33 64  1  0  0  0  0
 34 65  1  0  0  0  0
 34 66  1  0  0  0  0
 34 67  1  0  0  0  0
M  END
$$$$
