CHEMBL67003
 OpenBabel04072215383D

 70 76  0  0  0  0  0  0  0  0999 V2000
   -2.3995   -0.8357    0.3022 C   0  0  0  0  0  0  0  0  0  0  0  0
   -1.0620   -0.2040    0.1340 C   0  0  0  0  0  0  0  0  0  0  0  0
   -0.8475    1.1968    0.0743 C   0  0  0  0  0  0  0  0  0  0  0  0
    0.5125    1.4314    0.0173 C   0  0  0  0  0  0  0  0  0  0  0  0
    1.1580    2.7278    0.0451 C   0  0  0  0  0  0  0  0  0  0  0  0
    0.5916    3.7138   -0.4306 O   0  0  0  0  0  0  0  0  0  0  0  0
    2.3843    2.8592    0.6870 N   0  0  0  0  0  0  0  0  0  0  0  0
    3.1379    1.8177    1.3884 C   0  0  0  0  0  0  0  0  0  0  0  0
    3.6558    2.3004    2.7443 C   0  0  0  0  0  0  0  0  0  0  0  0
    4.3761    3.5323    2.6291 O   0  0  0  0  0  0  0  0  0  0  0  0
    3.5310    4.5523    2.0747 C   0  0  0  0  0  0  0  0  0  0  0  0
    3.0562    4.1654    0.6714 C   0  0  0  0  0  0  0  0  0  0  0  0
    1.0995    0.1966   -0.1552 N   0  0  0  0  0  0  0  0  0  0  0  0
    0.1863   -0.8147    0.0332 C   0  0  0  0  0  0  0  0  0  0  0  0
    0.5563   -2.1903    0.0681 C   0  0  0  0  0  0  0  0  0  0  0  0
    1.7657   -2.7800    0.0085 C   0  0  0  0  0  0  0  0  0  0  0  0
    3.1517   -2.1871   -0.0521 C   0  0  0  0  0  0  0  0  0  0  0  0
    3.4556   -1.0121   -0.1233 O   0  0  0  0  0  0  0  0  0  0  0  0
    4.0201   -3.2611    0.0028 N   0  0  0  0  0  0  0  0  0  0  0  0
    3.3407   -4.4662    0.0606 C   0  0  0  0  0  0  0  0  0  0  0  0
    3.9501   -5.6507    0.1151 N   0  0  0  0  0  0  0  0  0  0  0  0
    3.0967   -6.6799    0.1596 C   0  0  0  0  0  0  0  0  0  0  0  0
    1.7552   -6.5909    0.1485 N   0  0  0  0  0  0  0  0  0  0  0  0
    1.1981   -5.3612    0.0827 C   0  0  0  0  0  0  0  0  0  0  0  0
   -0.1981   -5.2428    0.0256 N   0  0  0  0  0  0  0  0  0  0  0  0
   -1.1229   -6.1133    0.6260 C   0  0  0  0  0  0  0  0  0  0  0  0
   -2.4082   -6.2095    0.0823 C   0  0  0  0  0  0  0  0  0  0  0  0
   -3.3848   -7.0163    0.6652 C   0  0  0  0  0  0  0  0  0  0  0  0
   -3.0337   -7.7035    1.8300 C   0  0  0  0  0  0  0  0  0  0  0  0
   -1.7811   -7.6050    2.4201 C   0  0  0  0  0  0  0  0  0  0  0  0
   -1.8508   -8.4231    3.5686 C   0  0  0  0  0  0  0  0  0  0  0  0
   -3.0460   -8.9985    3.7181 N   0  0  0  0  0  0  0  0  0  0  0  0
   -3.7406   -8.5596    2.6417 N   0  0  0  0  0  0  0  0  0  0  0  0
   -5.1408   -8.9239    2.4742 C   0  0  0  0  0  0  0  0  0  0  0  0
   -5.3466  -10.0426    1.4806 C   0  0  0  0  0  0  0  0  0  0  0  0
   -4.5568  -11.2028    1.4981 C   0  0  0  0  0  0  0  0  0  0  0  0
   -4.8074  -12.2471    0.6063 C   0  0  0  0  0  0  0  0  0  0  0  0
   -5.8569  -12.1513   -0.3045 C   0  0  0  0  0  0  0  0  0  0  0  0
   -6.6529  -11.0087   -0.3300 C   0  0  0  0  0  0  0  0  0  0  0  0
   -6.4014   -9.9616    0.5576 C   0  0  0  0  0  0  0  0  0  0  0  0
   -0.8131   -6.7893    1.8206 C   0  0  0  0  0  0  0  0  0  0  0  0
    1.9801   -4.2390    0.0446 C   0  0  0  0  0  0  0  0  0  0  0  0
   -3.1909   -0.0768    0.2841 H   0  0  0  0  0  0  0  0  0  0  0  0
   -2.4618   -1.3568    1.2622 H   0  0  0  0  0  0  0  0  0  0  0  0
   -2.6015   -1.5458   -0.5047 H   0  0  0  0  0  0  0  0  0  0  0  0
   -1.6019    1.9730    0.1316 H   0  0  0  0  0  0  0  0  0  0  0  0
    3.9768    1.5563    0.7337 H   0  0  0  0  0  0  0  0  0  0  0  0
    2.5390    0.9300    1.5777 H   0  0  0  0  0  0  0  0  0  0  0  0
    4.3311    1.5489    3.1655 H   0  0  0  0  0  0  0  0  0  0  0  0
    2.8253    2.4341    3.4479 H   0  0  0  0  0  0  0  0  0  0  0  0
    4.1127    5.4777    2.0331 H   0  0  0  0  0  0  0  0  0  0  0  0
    2.6814    4.7174    2.7486 H   0  0  0  0  0  0  0  0  0  0  0  0
    3.9177    4.0593    0.0024 H   0  0  0  0  0  0  0  0  0  0  0  0
    2.4120    4.9530    0.2693 H   0  0  0  0  0  0  0  0  0  0  0  0
    2.0927    0.0591   -0.3103 H   0  0  0  0  0  0  0  0  0  0  0  0
   -0.3084   -2.8364    0.1888 H   0  0  0  0  0  0  0  0  0  0  0  0
    5.0258   -3.1993   -0.0048 H   0  0  0  0  0  0  0  0  0  0  0  0
    3.5144   -7.6810    0.2025 H   0  0  0  0  0  0  0  0  0  0  0  0
   -0.4881   -4.9060   -0.8863 H   0  0  0  0  0  0  0  0  0  0  0  0
   -2.6659   -5.6586   -0.8178 H   0  0  0  0  0  0  0  0  0  0  0  0
   -4.3659   -7.1114    0.2106 H   0  0  0  0  0  0  0  0  0  0  0  0
   -1.0782   -8.6144    4.3024 H   0  0  0  0  0  0  0  0  0  0  0  0
   -5.6529   -8.0124    2.1412 H   0  0  0  0  0  0  0  0  0  0  0  0
   -5.5483   -9.1942    3.4532 H   0  0  0  0  0  0  0  0  0  0  0  0
   -3.7381  -11.3061    2.2095 H   0  0  0  0  0  0  0  0  0  0  0  0
   -4.1865  -13.1392    0.6296 H   0  0  0  0  0  0  0  0  0  0  0  0
   -6.0576  -12.9701   -0.9902 H   0  0  0  0  0  0  0  0  0  0  0  0
   -7.4761  -10.9366   -1.0360 H   0  0  0  0  0  0  0  0  0  0  0  0
   -7.0420   -9.0827    0.5263 H   0  0  0  0  0  0  0  0  0  0  0  0
    0.1631   -6.6851    2.2862 H   0  0  0  0  0  0  0  0  0  0  0  0
  1  2  1  0  0  0  0
  1 43  1  0  0  0  0
  1 44  1  0  0  0  0
  1 45  1  0  0  0  0
  2  3  1  0  0  0  0
  2 14  2  0  0  0  0
  3  4  2  0  0  0  0
  3 46  1  0  0  0  0
  4  5  1  0  0  0  0
  4 13  1  0  0  0  0
  5  6  2  0  0  0  0
  5  7  1  0  0  0  0
  7  8  1  0  0  0  0
  7 12  1  0  0  0  0
  8  9  1  0  0  0  0
  8 47  1  0  0  0  0
  8 48  1  0  0  0  0
  9 10  1  0  0  0  0
  9 49  1  0  0  0  0
  9 50  1  0  0  0  0
 10 11  1  0  0  0  0
 11 12  1  0  0  0  0
 11 51  1  0  0  0  0
 11 52  1  0  0  0  0
 12 53  1  0  0  0  0
 12 54  1  0  0  0  0
 13 14  1  0  0  0  0
 13 55  1  0  0  0  0
 14 15  1  0  0  0  0
 15 16  2  0  0  0  0
 15 56  1  0  0  0  0
 16 17  1  0  0  0  0
 16 42  1  0  0  0  0
 17 18  2  0  0  0  0
 17 19  1  0  0  0  0
 19 20  1  0  0  0  0
 19 57  1  0  0  0  0
 20 21  1  0  0  0  0
 20 42  2  0  0  0  0
 21 22  2  0  0  0  0
 22 23  1  0  0  0  0
 22 58  1  0  0  0  0
 23 24  2  0  0  0  0
 24 25  1  0  0  0  0
 24 42  1  0  0  0  0
 25 26  1  0  0  0  0
 25 59  1  0  0  0  0
 26 27  1  0  0  0  0
 26 41  2  0  0  0  0
 27 28  2  0  0  0  0
 27 60  1  0  0  0  0
 28 29  1  0  0  0  0
 28 61  1  0  0  0  0
 29 30  2  0  0  0  0
 29 33  1  0  0  0  0
 30 31  1  0  0  0  0
 30 41  1  0  0  0  0
 31 32  2  0  0  0  0
 31 62  1  0  0  0  0
 32 33  1  0  0  0  0
 33 34  1  0  0  0  0
 34 35  1  0  0  0  0
 34 63  1  0  0  0  0
 34 64  1  0  0  0  0
 35 36  1  0  0  0  0
 35 40  2  0  0  0  0
 36 37  2  0  0  0  0
 36 65  1  0  0  0  0
 37 38  1  0  0  0  0
 37 66  1  0  0  0  0
 38 39  2  0  0  0  0
 38 67  1  0  0  0  0
 39 40  1  0  0  0  0
 39 68  1  0  0  0  0
 40 69  1  0  0  0  0
 41 70  1  0  0  0  0
M  END
$$$$
