CHEMBL249175
 OpenBabel04072215363D

 33 36  0  0  0  0  0  0  0  0999 V2000
    0.8546   -0.1498    0.0246 C   0  0  0  0  0  0  0  0  0  0  0  0
    2.2965   -0.0449    0.0340 N   0  0  0  0  0  0  0  0  0  0  0  0
    2.9844    1.1384    0.0295 C   0  0  0  0  0  0  0  0  0  0  0  0
    4.3270    0.8580    0.1285 C   0  0  0  0  0  0  0  0  0  0  0  0
    5.3903    1.8105    0.1882 C   0  0  0  0  0  0  0  0  0  0  0  0
    5.4106    3.0444    0.7171 C   0  0  0  0  0  0  0  0  0  0  0  0
    4.3367    3.8381    1.3654 C   0  0  0  0  0  0  0  0  0  0  0  0
    3.2357    3.5023    1.7483 O   0  0  0  0  0  0  0  0  0  0  0  0
    4.8988    5.0990    1.4689 N   0  0  0  0  0  0  0  0  0  0  0  0
    6.2209    5.1813    1.1095 N   0  0  0  0  0  0  0  0  0  0  0  0
    6.5694    3.9850    0.6972 C   0  0  0  0  0  0  0  0  0  0  0  0
    7.9204    3.6671    0.3498 C   0  0  0  0  0  0  0  0  0  0  0  0
    8.6555    2.4988    0.4458 C   0  0  0  0  0  0  0  0  0  0  0  0
    9.9715    2.5820    0.0235 N   0  0  0  0  0  0  0  0  0  0  0  0
   10.2762    3.8052   -0.3727 N   0  0  0  0  0  0  0  0  0  0  0  0
    8.9944    4.8711   -0.2382 S   0  0  0  0  0  0  0  0  0  0  0  0
    4.4641   -0.5687    0.0870 C   0  0  0  0  0  0  0  0  0  0  0  0
    5.5615   -1.4567    0.0935 C   0  0  0  0  0  0  0  0  0  0  0  0
    5.3234   -2.8311    0.0617 C   0  0  0  0  0  0  0  0  0  0  0  0
    6.3667   -3.6726    0.0628 F   0  0  0  0  0  0  0  0  0  0  0  0
    4.0366   -3.3490    0.0328 C   0  0  0  0  0  0  0  0  0  0  0  0
    2.9330   -2.4947    0.0245 C   0  0  0  0  0  0  0  0  0  0  0  0
    3.1714   -1.1091    0.0459 C   0  0  0  0  0  0  0  0  0  0  0  0
    0.4139    0.8510    0.0249 H   0  0  0  0  0  0  0  0  0  0  0  0
    0.5420   -0.6880    0.9243 H   0  0  0  0  0  0  0  0  0  0  0  0
    0.5512   -0.6874   -0.8762 H   0  0  0  0  0  0  0  0  0  0  0  0
    2.4479    2.0766   -0.0207 H   0  0  0  0  0  0  0  0  0  0  0  0
    6.2976    1.4493   -0.2855 H   0  0  0  0  0  0  0  0  0  0  0  0
    4.4292    5.8838    1.9053 H   0  0  0  0  0  0  0  0  0  0  0  0
    8.3052    1.5510    0.8323 H   0  0  0  0  0  0  0  0  0  0  0  0
    6.5835   -1.0982    0.1193 H   0  0  0  0  0  0  0  0  0  0  0  0
    3.8965   -4.4255    0.0148 H   0  0  0  0  0  0  0  0  0  0  0  0
    1.9252   -2.8966    0.0019 H   0  0  0  0  0  0  0  0  0  0  0  0
  1  2  1  0  0  0  0
  1 24  1  0  0  0  0
  1 25  1  0  0  0  0
  1 26  1  0  0  0  0
  2  3  1  0  0  0  0
  2 23  1  0  0  0  0
  3  4  2  0  0  0  0
  3 27  1  0  0  0  0
  4  5  1  0  0  0  0
  4 17  1  0  0  0  0
  5  6  2  0  0  0  0
  5 28  1  0  0  0  0
  6  7  1  0  0  0  0
  6 11  1  0  0  0  0
  7  8  2  0  0  0  0
  7  9  1  0  0  0  0
  9 10  1  0  0  0  0
  9 29  1  0  0  0  0
 10 11  2  0  0  0  0
 11 12  1  0  0  0  0
 12 13  2  0  0  0  0
 12 16  1  0  0  0  0
 13 14  1  0  0  0  0
 13 30  1  0  0  0  0
 14 15  2  0  0  0  0
 15 16  1  0  0  0  0
 17 18  1  0  0  0  0
 17 23  2  0  0  0  0
 18 19  2  0  0  0  0
 18 31  1  0  0  0  0
 19 20  1  0  0  0  0
 19 21  1  0  0  0  0
 21 22  2  0  0  0  0
 21 32  1  0  0  0  0
 22 23  1  0  0  0  0
 22 33  1  0  0  0  0
M  END
$$$$
