CHEMBL3633295
 OpenBabel04072215373D

 46 49  0  0  0  0  0  0  0  0999 V2000
    1.9532   -0.3631    2.6710 C   0  0  0  0  0  0  0  0  0  0  0  0
    0.5663   -0.1861    2.1384 C   0  0  0  0  0  0  0  0  0  0  0  0
   -0.0220    1.0768    2.1173 C   0  0  0  0  0  0  0  0  0  0  0  0
   -1.3174    1.2491    1.6245 C   0  0  0  0  0  0  0  0  0  0  0  0
   -2.0590    0.1742    1.1239 C   0  0  0  0  0  0  0  0  0  0  0  0
   -3.3761    0.3078    0.6100 N   0  0  0  0  0  0  0  0  0  0  0  0
   -4.0194    1.5023    0.3675 C   0  0  0  0  0  0  0  0  0  0  0  0
   -3.4998    2.6081    0.4856 O   0  0  0  0  0  0  0  0  0  0  0  0
   -5.3510    1.3390    0.0005 N   0  0  0  0  0  0  0  0  0  0  0  0
   -6.1533    2.4767   -0.2778 C   0  0  0  0  0  0  0  0  0  0  0  0
   -5.6513    3.5670   -0.9908 C   0  0  0  0  0  0  0  0  0  0  0  0
   -6.3937    4.7372   -1.1001 C   0  0  0  0  0  0  0  0  0  0  0  0
   -7.6426    4.8266   -0.4846 C   0  0  0  0  0  0  0  0  0  0  0  0
   -8.2080    3.7284    0.1901 C   0  0  0  0  0  0  0  0  0  0  0  0
   -9.5658    3.8085    0.7744 C   0  0  0  0  0  0  0  0  0  0  0  0
  -10.5966    4.5304    0.1212 C   0  0  0  0  0  0  0  0  0  0  0  0
  -11.9230    4.4958    0.5493 C   0  0  0  0  0  0  0  0  0  0  0  0
  -12.3000    3.6973    1.6236 C   0  0  0  0  0  0  0  0  0  0  0  0
  -11.2807    3.0257    2.3025 C   0  0  0  0  0  0  0  0  0  0  0  0
  -11.3340    2.1633    3.3638 N   0  0  0  0  0  0  0  0  0  0  0  0
  -10.1378    1.8211    3.8555 N   0  0  0  0  0  0  0  0  0  0  0  0
   -9.2789    2.4129    3.0314 C   0  0  0  0  0  0  0  0  0  0  0  0
   -7.9537    2.3693    3.2529 N   0  0  0  0  0  0  0  0  0  0  0  0
   -9.9290    3.1099    1.9615 C   0  0  0  0  0  0  0  0  0  0  0  0
   -7.4536    2.5359    0.2307 C   0  0  0  0  0  0  0  0  0  0  0  0
   -1.4745   -1.0969    1.1518 C   0  0  0  0  0  0  0  0  0  0  0  0
   -0.1767   -1.2766    1.6532 C   0  0  0  0  0  0  0  0  0  0  0  0
    2.3726    0.5908    3.0110 H   0  0  0  0  0  0  0  0  0  0  0  0
    2.6129   -0.7561    1.8923 H   0  0  0  0  0  0  0  0  0  0  0  0
    1.9475   -1.0449    3.5261 H   0  0  0  0  0  0  0  0  0  0  0  0
    0.5154    1.9471    2.4846 H   0  0  0  0  0  0  0  0  0  0  0  0
   -1.7145    2.2602    1.6559 H   0  0  0  0  0  0  0  0  0  0  0  0
   -3.8169   -0.5248    0.2478 H   0  0  0  0  0  0  0  0  0  0  0  0
   -5.8172    0.5625    0.4494 H   0  0  0  0  0  0  0  0  0  0  0  0
   -4.6645    3.5263   -1.4457 H   0  0  0  0  0  0  0  0  0  0  0  0
   -5.9844    5.5871   -1.6399 H   0  0  0  0  0  0  0  0  0  0  0  0
   -8.1716    5.7746   -0.5469 H   0  0  0  0  0  0  0  0  0  0  0  0
  -10.3719    5.1114   -0.7715 H   0  0  0  0  0  0  0  0  0  0  0  0
  -12.6755    5.0670    0.0101 H   0  0  0  0  0  0  0  0  0  0  0  0
  -13.3386    3.6206    1.9262 H   0  0  0  0  0  0  0  0  0  0  0  0
  -12.1620    1.7863    3.8094 H   0  0  0  0  0  0  0  0  0  0  0  0
   -7.6794    2.0791    4.1858 H   0  0  0  0  0  0  0  0  0  0  0  0
   -7.3728    3.1213    2.8931 H   0  0  0  0  0  0  0  0  0  0  0  0
   -7.8633    1.6587    0.7257 H   0  0  0  0  0  0  0  0  0  0  0  0
   -2.0107   -1.9640    0.7830 H   0  0  0  0  0  0  0  0  0  0  0  0
    0.2624   -2.2717    1.6639 H   0  0  0  0  0  0  0  0  0  0  0  0
  1  2  1  0  0  0  0
  1 28  1  0  0  0  0
  1 29  1  0  0  0  0
  1 30  1  0  0  0  0
  2  3  1  0  0  0  0
  2 27  2  0  0  0  0
  3  4  2  0  0  0  0
  3 31  1  0  0  0  0
  4  5  1  0  0  0  0
  4 32  1  0  0  0  0
  5  6  1  0  0  0  0
  5 26  2  0  0  0  0
  6  7  1  0  0  0  0
  6 33  1  0  0  0  0
  7  8  2  0  0  0  0
  7  9  1  0  0  0  0
  9 10  1  0  0  0  0
  9 34  1  0  0  0  0
 10 11  1  0  0  0  0
 10 25  2  0  0  0  0
 11 12  2  0  0  0  0
 11 35  1  0  0  0  0
 12 13  1  0  0  0  0
 12 36  1  0  0  0  0
 13 14  2  0  0  0  0
 13 37  1  0  0  0  0
 14 15  1  0  0  0  0
 14 25  1  0  0  0  0
 15 16  1  0  0  0  0
 15 24  2  0  0  0  0
 16 17  2  0  0  0  0
 16 38  1  0  0  0  0
 17 18  1  0  0  0  0
 17 39  1  0  0  0  0
 18 19  2  0  0  0  0
 18 40  1  0  0  0  0
 19 20  1  0  0  0  0
 19 24  1  0  0  0  0
 20 21  1  0  0  0  0
 20 41  1  0  0  0  0
 21 22  2  0  0  0  0
 22 23  1  0  0  0  0
 22 24  1  0  0  0  0
 23 42  1  0  0  0  0
 23 43  1  0  0  0  0
 25 44  1  0  0  0  0
 26 27  1  0  0  0  0
 26 45  1  0  0  0  0
 27 46  1  0  0  0  0
M  END
$$$$
