CHEMBL2016919
 OpenBabel04072215363D

 54 58  0  0  0  0  0  0  0  0999 V2000
    1.1907    0.4467    0.1813 O   0  0  0  0  0  0  0  0  0  0  0  0
    2.3448    0.0351    0.0344 C   0  0  0  0  0  0  0  0  0  0  0  0
    2.9792   -0.8833    1.0949 C   0  0  0  0  0  0  0  0  0  0  0  0
    4.1192   -0.2153    1.7657 N   0  0  0  0  0  0  0  0  0  0  0  0
    3.6590    0.9734    2.5075 C   0  0  0  0  0  0  0  0  0  0  0  0
    4.8116    1.6722    3.2296 C   0  0  0  0  0  0  0  0  0  0  0  0
    5.5540    0.7092    4.1459 C   0  0  0  0  0  0  0  0  0  0  0  0
    5.9906   -0.5224    3.3636 C   0  0  0  0  0  0  0  0  0  0  0  0
    4.8028   -1.1683    2.6506 C   0  0  0  0  0  0  0  0  0  0  0  0
    3.1280    0.3849   -1.0759 N   0  0  0  0  0  0  0  0  0  0  0  0
    2.4826    1.3001   -2.0442 C   0  0  0  0  0  0  0  0  0  0  0  0
    3.3075    1.8182   -3.2398 C   0  0  0  0  0  0  0  0  0  0  0  0
    4.4256    0.9166   -3.5424 C   0  0  0  0  0  0  0  0  0  0  0  0
    5.2415    1.0061   -4.6310 N   0  0  0  0  0  0  0  0  0  0  0  0
    6.0794   -0.0172   -4.5313 C   0  0  0  0  0  0  0  0  0  0  0  0
    7.0911   -0.4534   -5.4227 C   0  0  0  0  0  0  0  0  0  0  0  0
    7.3588    0.3157   -6.4919 C   0  0  0  0  0  0  0  0  0  0  0  0
    8.2767   -0.1315   -7.5303 C   0  0  0  0  0  0  0  0  0  0  0  0
    8.5116    0.6441   -8.6639 C   0  0  0  0  0  0  0  0  0  0  0  0
    9.3148    0.1384   -9.6774 C   0  0  0  0  0  0  0  0  0  0  0  0
    9.5185    0.8691  -10.7806 F   0  0  0  0  0  0  0  0  0  0  0  0
    9.8964   -1.1224   -9.5739 C   0  0  0  0  0  0  0  0  0  0  0  0
    9.6899   -1.8902   -8.4277 C   0  0  0  0  0  0  0  0  0  0  0  0
    8.8785   -1.3934   -7.4097 C   0  0  0  0  0  0  0  0  0  0  0  0
    8.6436   -2.1594   -6.2625 N   0  0  0  0  0  0  0  0  0  0  0  0
    7.8045   -1.7656   -5.2445 C   0  0  0  0  0  0  0  0  0  0  0  0
    7.6451   -2.4669   -4.2532 O   0  0  0  0  0  0  0  0  0  0  0  0
    5.8218   -0.7390   -3.3862 N   0  0  0  0  0  0  0  0  0  0  0  0
    4.7784   -0.1378   -2.7514 C   0  0  0  0  0  0  0  0  0  0  0  0
    4.1503   -0.5739   -1.5072 C   0  0  0  0  0  0  0  0  0  0  0  0
    3.3025   -1.8094    0.6057 H   0  0  0  0  0  0  0  0  0  0  0  0
    2.2037   -1.1695    1.8161 H   0  0  0  0  0  0  0  0  0  0  0  0
    2.8834    0.6999    3.2345 H   0  0  0  0  0  0  0  0  0  0  0  0
    3.2176    1.7038    1.8194 H   0  0  0  0  0  0  0  0  0  0  0  0
    4.4237    2.5145    3.8137 H   0  0  0  0  0  0  0  0  0  0  0  0
    5.5092    2.0886    2.4918 H   0  0  0  0  0  0  0  0  0  0  0  0
    4.8971    0.4069    4.9708 H   0  0  0  0  0  0  0  0  0  0  0  0
    6.4242    1.2046    4.5892 H   0  0  0  0  0  0  0  0  0  0  0  0
    6.4541   -1.2473    4.0418 H   0  0  0  0  0  0  0  0  0  0  0  0
    6.7537   -0.2385    2.6275 H   0  0  0  0  0  0  0  0  0  0  0  0
    4.1069   -1.5786    3.3942 H   0  0  0  0  0  0  0  0  0  0  0  0
    5.1816   -2.0106    2.0584 H   0  0  0  0  0  0  0  0  0  0  0  0
    2.1195    2.1706   -1.4794 H   0  0  0  0  0  0  0  0  0  0  0  0
    1.5892    0.7863   -2.4187 H   0  0  0  0  0  0  0  0  0  0  0  0
    3.6932    2.8227   -3.0340 H   0  0  0  0  0  0  0  0  0  0  0  0
    2.6478    1.9030   -4.1125 H   0  0  0  0  0  0  0  0  0  0  0  0
    6.8441    1.2622   -6.6398 H   0  0  0  0  0  0  0  0  0  0  0  0
    8.0609    1.6259   -8.7812 H   0  0  0  0  0  0  0  0  0  0  0  0
   10.5012   -1.4997  -10.3937 H   0  0  0  0  0  0  0  0  0  0  0  0
   10.1439   -2.8742   -8.3517 H   0  0  0  0  0  0  0  0  0  0  0  0
    9.0943   -3.0549   -6.1447 H   0  0  0  0  0  0  0  0  0  0  0  0
    6.3104   -1.5867   -3.1152 H   0  0  0  0  0  0  0  0  0  0  0  0
    4.9073   -0.6793   -0.7247 H   0  0  0  0  0  0  0  0  0  0  0  0
    3.6619   -1.5438   -1.6556 H   0  0  0  0  0  0  0  0  0  0  0  0
  1  2  2  0  0  0  0
  2  3  1  0  0  0  0
  2 10  1  0  0  0  0
  3  4  1  0  0  0  0
  3 31  1  0  0  0  0
  3 32  1  0  0  0  0
  4  5  1  0  0  0  0
  4  9  1  0  0  0  0
  5  6  1  0  0  0  0
  5 33  1  0  0  0  0
  5 34  1  0  0  0  0
  6  7  1  0  0  0  0
  6 35  1  0  0  0  0
  6 36  1  0  0  0  0
  7  8  1  0  0  0  0
  7 37  1  0  0  0  0
  7 38  1  0  0  0  0
  8  9  1  0  0  0  0
  8 39  1  0  0  0  0
  8 40  1  0  0  0  0
  9 41  1  0  0  0  0
  9 42  1  0  0  0  0
 10 11  1  0  0  0  0
 10 30  1  0  0  0  0
 11 12  1  0  0  0  0
 11 43  1  0  0  0  0
 11 44  1  0  0  0  0
 12 13  1  0  0  0  0
 12 45  1  0  0  0  0
 12 46  1  0  0  0  0
 13 14  1  0  0  0  0
 13 29  2  0  0  0  0
 14 15  2  0  0  0  0
 15 16  1  0  0  0  0
 15 28  1  0  0  0  0
 16 17  2  0  0  0  0
 16 26  1  0  0  0  0
 17 18  1  0  0  0  0
 17 47  1  0  0  0  0
 18 19  1  0  0  0  0
 18 24  2  0  0  0  0
 19 20  2  0  0  0  0
 19 48  1  0  0  0  0
 20 21  1  0  0  0  0
 20 22  1  0  0  0  0
 22 23  2  0  0  0  0
 22 49  1  0  0  0  0
 23 24  1  0  0  0  0
 23 50  1  0  0  0  0
 24 25  1  0  0  0  0
 25 26  1  0  0  0  0
 25 51  1  0  0  0  0
 26 27  2  0  0  0  0
 28 29  1  0  0  0  0
 28 52  1  0  0  0  0
 29 30  1  0  0  0  0
 30 53  1  0  0  0  0
 30 54  1  0  0  0  0
M  END
$$$$
