CHEMBL2036869
 OpenBabel04072215363D

 39 42  0  0  0  0  0  0  0  0999 V2000
   -1.7091   -0.9028    2.6141 C   0  0  0  0  0  0  0  0  0  0  0  0
   -1.2702   -0.6994    1.2529 N   0  0  0  0  0  0  0  0  0  0  0  0
   -1.9568   -0.9060    0.0664 C   0  0  0  0  0  0  0  0  0  0  0  0
   -3.3258   -1.4156   -0.0709 C   0  0  0  0  0  0  0  0  0  0  0  0
   -4.1199   -1.0756   -1.1387 C   0  0  0  0  0  0  0  0  0  0  0  0
   -5.3970   -1.5813   -1.1089 C   0  0  0  0  0  0  0  0  0  0  0  0
   -5.8666   -2.3715   -0.1219 N   0  0  0  0  0  0  0  0  0  0  0  0
   -5.0025   -2.7001    0.8459 C   0  0  0  0  0  0  0  0  0  0  0  0
   -5.4522   -3.5230    1.8757 N   0  0  0  0  0  0  0  0  0  0  0  0
   -4.6907   -4.4021    2.6620 C   0  0  0  0  0  0  0  0  0  0  0  0
   -5.1271   -4.7343    3.9515 C   0  0  0  0  0  0  0  0  0  0  0  0
   -4.3454   -5.5415    4.7867 C   0  0  0  0  0  0  0  0  0  0  0  0
   -3.1298   -6.0338    4.3240 C   0  0  0  0  0  0  0  0  0  0  0  0
   -2.3306   -6.8162    5.1012 O   0  0  0  0  0  0  0  0  0  0  0  0
   -2.6844   -5.7345    3.0468 C   0  0  0  0  0  0  0  0  0  0  0  0
   -3.4587   -4.9175    2.2245 C   0  0  0  0  0  0  0  0  0  0  0  0
   -3.7460   -2.2375    0.8996 N   0  0  0  0  0  0  0  0  0  0  0  0
   -1.2037   -0.5324   -0.9601 N   0  0  0  0  0  0  0  0  0  0  0  0
   -0.0210   -0.0845   -0.4341 C   0  0  0  0  0  0  0  0  0  0  0  0
    1.1145    0.4201   -1.0849 C   0  0  0  0  0  0  0  0  0  0  0  0
    2.1976    0.8574   -0.3118 C   0  0  0  0  0  0  0  0  0  0  0  0
    2.1532    0.7891    1.0814 C   0  0  0  0  0  0  0  0  0  0  0  0
    1.0347    0.2742    1.7452 C   0  0  0  0  0  0  0  0  0  0  0  0
   -0.0363   -0.1573    0.9510 C   0  0  0  0  0  0  0  0  0  0  0  0
   -2.6959   -1.3483    2.6817 H   0  0  0  0  0  0  0  0  0  0  0  0
   -1.7373    0.0720    3.1092 H   0  0  0  0  0  0  0  0  0  0  0  0
   -0.9887   -1.5570    3.1136 H   0  0  0  0  0  0  0  0  0  0  0  0
   -3.7673   -0.4405   -1.9398 H   0  0  0  0  0  0  0  0  0  0  0  0
   -6.1057   -1.3545   -1.8998 H   0  0  0  0  0  0  0  0  0  0  0  0
   -6.4288   -3.7508    1.7620 H   0  0  0  0  0  0  0  0  0  0  0  0
   -6.0633   -4.3307    4.3293 H   0  0  0  0  0  0  0  0  0  0  0  0
   -4.6949   -5.7616    5.7900 H   0  0  0  0  0  0  0  0  0  0  0  0
   -2.7547   -6.9299    5.9664 H   0  0  0  0  0  0  0  0  0  0  0  0
   -1.7376   -6.1247    2.6867 H   0  0  0  0  0  0  0  0  0  0  0  0
   -3.0921   -4.6957    1.2257 H   0  0  0  0  0  0  0  0  0  0  0  0
    1.1409    0.4742   -2.1671 H   0  0  0  0  0  0  0  0  0  0  0  0
    3.0797    1.2586   -0.8046 H   0  0  0  0  0  0  0  0  0  0  0  0
    3.0022    1.1423    1.6628 H   0  0  0  0  0  0  0  0  0  0  0  0
    1.0049    0.2213    2.8283 H   0  0  0  0  0  0  0  0  0  0  0  0
  1  2  1  0  0  0  0
  1 25  1  0  0  0  0
  1 26  1  0  0  0  0
  1 27  1  0  0  0  0
  2  3  1  0  0  0  0
  2 24  1  0  0  0  0
  3  4  1  0  0  0  0
  3 18  2  0  0  0  0
  4  5  1  0  0  0  0
  4 17  2  0  0  0  0
  5  6  2  0  0  0  0
  5 28  1  0  0  0  0
  6  7  1  0  0  0  0
  6 29  1  0  0  0  0
  7  8  2  0  0  0  0
  8  9  1  0  0  0  0
  8 17  1  0  0  0  0
  9 10  1  0  0  0  0
  9 30  1  0  0  0  0
 10 11  1  0  0  0  0
 10 16  2  0  0  0  0
 11 12  2  0  0  0  0
 11 31  1  0  0  0  0
 12 13  1  0  0  0  0
 12 32  1  0  0  0  0
 13 14  1  0  0  0  0
 13 15  2  0  0  0  0
 14 33  1  0  0  0  0
 15 16  1  0  0  0  0
 15 34  1  0  0  0  0
 16 35  1  0  0  0  0
 18 19  1  0  0  0  0
 19 20  1  0  0  0  0
 19 24  2  0  0  0  0
 20 21  2  0  0  0  0
 20 36  1  0  0  0  0
 21 22  1  0  0  0  0
 21 37  1  0  0  0  0
 22 23  2  0  0  0  0
 22 38  1  0  0  0  0
 23 24  1  0  0  0  0
 23 39  1  0  0  0  0
M  END
$$$$
