CHEMBL377300
 OpenBabel04072215373D

 46 49  0  0  1  0  0  0  0  0999 V2000
    2.5336   -0.7656    2.6223 C   0  0  0  0  0  0  0  0  0  0  0  0
    3.8154   -0.6765    1.8827 C   0  0  0  0  0  0  0  0  0  0  0  0
    4.6845   -1.6599    1.4568 C   0  0  0  0  0  0  0  0  0  0  0  0
    5.6592   -1.0471    0.6218 C   0  0  0  0  0  0  0  0  0  0  0  0
    6.6986   -1.5302   -0.1917 C   0  0  0  0  0  0  0  0  0  0  0  0
    6.9477   -2.8472   -0.2655 F   0  0  0  0  0  0  0  0  0  0  0  0
    7.4111   -0.6342   -0.9936 C   0  0  0  0  0  0  0  0  0  0  0  0
    8.2557   -1.2014   -1.9736 O   0  0  0  0  0  0  0  0  0  0  0  0
    9.4087   -0.5590   -2.3788 C   0  0  0  0  0  0  0  0  0  0  0  0
   10.0937    0.2634   -1.6601 N   0  0  0  0  0  0  0  0  0  0  0  0
   11.2126    0.8013   -2.2436 C   0  0  0  0  0  0  0  0  0  0  0  0
   11.6323    0.6042   -3.4554 N   0  0  0  0  0  0  0  0  0  0  0  0
   10.8846   -0.2490   -4.1714 N   0  0  0  0  0  0  0  0  0  0  0  0
   11.1104   -0.6141   -5.4632 C   0  0  0  0  0  0  0  0  0  0  0  0
   10.1715   -1.5623   -5.8038 C   0  0  0  0  0  0  0  0  0  0  0  0
   10.0891   -2.2297   -6.9808 O   0  0  0  0  0  0  0  0  0  0  0  0
   11.3136   -2.2109   -7.7354 C   0  0  0  0  0  0  0  0  0  0  0  0
   11.3172   -3.3340   -8.7758 C   0  0  1  0  0  0  0  0  0  0  0  0
   11.0670   -4.7031   -8.1528 C   0  0  0  0  0  0  0  0  0  0  0  0
   10.3224   -3.0953   -9.7737 O   0  0  0  0  0  0  0  0  0  0  0  0
    9.2799   -1.7143   -4.7042 C   0  0  0  0  0  0  0  0  0  0  0  0
    8.0762   -2.5861   -4.6147 C   0  0  0  0  0  0  0  0  0  0  0  0
    9.7814   -0.8908   -3.7049 C   0  0  0  0  0  0  0  0  0  0  0  0
    7.1399    0.7340   -0.9662 C   0  0  0  0  0  0  0  0  0  0  0  0
    6.1443    1.2418   -0.1256 C   0  0  0  0  0  0  0  0  0  0  0  0
    5.4030    0.3255    0.6314 C   0  0  0  0  0  0  0  0  0  0  0  0
    4.3187    0.5274    1.4547 N   0  0  0  0  0  0  0  0  0  0  0  0
    2.2809   -1.8069    2.8453 H   0  0  0  0  0  0  0  0  0  0  0  0
    1.7222   -0.3489    2.0150 H   0  0  0  0  0  0  0  0  0  0  0  0
    2.5826   -0.2109    3.5634 H   0  0  0  0  0  0  0  0  0  0  0  0
    4.5830   -2.7216    1.6433 H   0  0  0  0  0  0  0  0  0  0  0  0
   11.8048    1.4781   -1.6021 H   0  0  0  0  0  0  0  0  0  0  0  0
   11.9364   -0.1791   -6.0038 H   0  0  0  0  0  0  0  0  0  0  0  0
   12.1774   -2.3654   -7.0766 H   0  0  0  0  0  0  0  0  0  0  0  0
   11.3951   -1.2410   -8.2406 H   0  0  0  0  0  0  0  0  0  0  0  0
   12.2867   -3.3399   -9.2859 H   0  0  0  0  0  0  0  0  0  0  0  0
   10.0733   -4.7582   -7.6994 H   0  0  0  0  0  0  0  0  0  0  0  0
   11.8174   -4.9277   -7.3884 H   0  0  0  0  0  0  0  0  0  0  0  0
   11.1059   -5.4813   -8.9211 H   0  0  0  0  0  0  0  0  0  0  0  0
    9.4809   -2.9714   -9.2988 H   0  0  0  0  0  0  0  0  0  0  0  0
    7.8883   -3.1202   -5.5491 H   0  0  0  0  0  0  0  0  0  0  0  0
    7.1880   -1.9861   -4.3872 H   0  0  0  0  0  0  0  0  0  0  0  0
    8.1998   -3.3274   -3.8178 H   0  0  0  0  0  0  0  0  0  0  0  0
    7.6678    1.4203   -1.6222 H   0  0  0  0  0  0  0  0  0  0  0  0
    5.9185    2.3036   -0.1129 H   0  0  0  0  0  0  0  0  0  0  0  0
    3.8990    1.4297    1.6343 H   0  0  0  0  0  0  0  0  0  0  0  0
  1  2  1  0  0  0  0
  1 28  1  0  0  0  0
  1 29  1  0  0  0  0
  1 30  1  0  0  0  0
  2  3  2  0  0  0  0
  2 27  1  0  0  0  0
  3  4  1  0  0  0  0
  3 31  1  0  0  0  0
  4  5  1  0  0  0  0
  4 26  2  0  0  0  0
  5  6  1  0  0  0  0
  5  7  2  0  0  0  0
  7  8  1  0  0  0  0
  7 24  1  0  0  0  0
  8  9  1  0  0  0  0
  9 10  2  0  0  0  0
  9 23  1  0  0  0  0
 10 11  1  0  0  0  0
 11 12  2  0  0  0  0
 11 32  1  0  0  0  0
 12 13  1  0  0  0  0
 13 14  1  0  0  0  0
 13 23  1  0  0  0  0
 14 15  2  0  0  0  0
 14 33  1  0  0  0  0
 15 16  1  0  0  0  0
 15 21  1  0  0  0  0
 16 17  1  0  0  0  0
 17 18  1  0  0  0  0
 17 34  1  0  0  0  0
 17 35  1  0  0  0  0
 18 19  1  0  0  0  0
 18 20  1  0  0  0  0
 18 36  1  6  0  0  0
 19 37  1  0  0  0  0
 19 38  1  0  0  0  0
 19 39  1  0  0  0  0
 20 40  1  0  0  0  0
 21 22  1  0  0  0  0
 21 23  2  0  0  0  0
 22 41  1  0  0  0  0
 22 42  1  0  0  0  0
 22 43  1  0  0  0  0
 24 25  2  0  0  0  0
 24 44  1  0  0  0  0
 25 26  1  0  0  0  0
 25 45  1  0  0  0  0
 26 27  1  0  0  0  0
 27 46  1  0  0  0  0
M  END
$$$$
