CHEMBL3133756
 OpenBabel04072215363D

 78 82  0  0  0  0  0  0  0  0999 V2000
    0.7023    0.0545    0.1754 O   0  0  0  0  0  0  0  0  0  0  0  0
    1.9025    0.1269   -0.0576 C   0  0  0  0  0  0  0  0  0  0  0  0
    2.4320    0.6639   -1.2222 N   0  0  0  0  0  0  0  0  0  0  0  0
    1.6631    1.1610   -2.3084 C   0  0  0  0  0  0  0  0  0  0  0  0
    0.2921    1.4186   -2.2226 C   0  0  0  0  0  0  0  0  0  0  0  0
   -0.4367    1.7954   -3.3458 C   0  0  0  0  0  0  0  0  0  0  0  0
    0.2091    1.9584   -4.5649 C   0  0  0  0  0  0  0  0  0  0  0  0
    1.5972    1.8126   -4.6701 C   0  0  0  0  0  0  0  0  0  0  0  0
    2.2794    1.9547   -5.9005 N   0  0  0  0  0  0  0  0  0  0  0  0
    1.8883    2.7350   -7.0204 C   0  0  0  0  0  0  0  0  0  0  0  0
    0.8585    3.5966   -6.8929 N   0  0  0  0  0  0  0  0  0  0  0  0
    0.4905    4.2875   -7.9708 C   0  0  0  0  0  0  0  0  0  0  0  0
    1.0699    4.2251   -9.1641 N   0  0  0  0  0  0  0  0  0  0  0  0
    2.0691    3.3563   -9.2836 C   0  0  0  0  0  0  0  0  0  0  0  0
    2.6072    3.2282  -10.5389 C   0  0  0  0  0  0  0  0  0  0  0  0
    3.5719    2.2663  -10.8306 C   0  0  0  0  0  0  0  0  0  0  0  0
    4.0176    2.0019  -12.0941 O   0  0  0  0  0  0  0  0  0  0  0  0
    3.2376    2.6070  -13.1332 C   0  0  0  0  0  0  0  0  0  0  0  0
    3.7117    2.0400  -14.4490 C   0  0  0  0  0  0  0  0  0  0  0  0
    3.0568    2.7498  -15.6328 C   0  0  0  0  0  0  0  0  0  0  0  0
    3.5197    2.1825  -16.9070 N   0  0  0  0  0  0  0  0  0  0  0  0
    4.9713    2.3574  -17.1261 C   0  0  0  0  0  0  0  0  0  0  0  0
    5.4020    3.8010  -17.4825 C   0  0  0  0  0  0  0  0  0  0  0  0
    4.6864    4.3773  -18.6477 N   0  0  0  0  0  0  0  0  0  0  0  0
    5.1796    3.7394  -19.8919 C   0  0  0  0  0  0  0  0  0  0  0  0
    4.5672    4.3172  -21.1758 C   0  0  0  0  0  0  0  0  0  0  0  0
    4.7104    5.7332  -21.2060 O   0  0  0  0  0  0  0  0  0  0  0  0
    3.2318    4.2002  -18.4337 C   0  0  0  0  0  0  0  0  0  0  0  0
    2.7905    2.7663  -18.0515 C   0  0  0  0  0  0  0  0  0  0  0  0
    4.1030    1.4916   -9.8070 C   0  0  0  0  0  0  0  0  0  0  0  0
    3.6065    1.6371   -8.5120 C   0  0  0  0  0  0  0  0  0  0  0  0
    2.5528    2.5543   -8.2457 C   0  0  0  0  0  0  0  0  0  0  0  0
    2.3089    1.3794   -3.5341 C   0  0  0  0  0  0  0  0  0  0  0  0
    2.8806   -0.3500    0.8023 N   0  0  0  0  0  0  0  0  0  0  0  0
    2.6426   -1.0416    2.0192 C   0  0  0  0  0  0  0  0  0  0  0  0
    1.3708   -1.3702    2.4859 C   0  0  0  0  0  0  0  0  0  0  0  0
    1.1947   -2.0353    3.7013 C   0  0  0  0  0  0  0  0  0  0  0  0
    2.2988   -2.4140    4.4719 C   0  0  0  0  0  0  0  0  0  0  0  0
    1.9419   -3.2043    5.9588 Cl  0  0  0  0  0  0  0  0  0  0  0  0
    3.5862   -2.1338    4.0183 C   0  0  0  0  0  0  0  0  0  0  0  0
    4.8374   -2.5621    4.7391 C   0  0  0  0  0  0  0  0  0  0  0  0
    4.6731   -3.2341    5.9067 F   0  0  0  0  0  0  0  0  0  0  0  0
    5.6037   -3.3786    3.9575 F   0  0  0  0  0  0  0  0  0  0  0  0
    5.6381   -1.4990    5.0390 F   0  0  0  0  0  0  0  0  0  0  0  0
    3.7428   -1.4329    2.7919 C   0  0  0  0  0  0  0  0  0  0  0  0
    3.4159    0.5256   -1.3928 H   0  0  0  0  0  0  0  0  0  0  0  0
   -0.2592    1.3257   -1.2934 H   0  0  0  0  0  0  0  0  0  0  0  0
   -1.5095    1.9500   -3.2712 H   0  0  0  0  0  0  0  0  0  0  0  0
   -0.3978    2.2069   -5.4307 H   0  0  0  0  0  0  0  0  0  0  0  0
    3.2828    2.0191   -5.7780 H   0  0  0  0  0  0  0  0  0  0  0  0
   -0.3651    4.9451   -7.8758 H   0  0  0  0  0  0  0  0  0  0  0  0
    2.2070    3.8838  -11.3043 H   0  0  0  0  0  0  0  0  0  0  0  0
    3.4060    3.6911  -13.1240 H   0  0  0  0  0  0  0  0  0  0  0  0
    2.1695    2.3837  -13.0095 H   0  0  0  0  0  0  0  0  0  0  0  0
    3.5040    0.9636  -14.4831 H   0  0  0  0  0  0  0  0  0  0  0  0
    4.7991    2.1486  -14.4592 H   0  0  0  0  0  0  0  0  0  0  0  0
    3.2359    3.8303  -15.5714 H   0  0  0  0  0  0  0  0  0  0  0  0
    1.9691    2.6116  -15.5517 H   0  0  0  0  0  0  0  0  0  0  0  0
    5.2655    1.6752  -17.9319 H   0  0  0  0  0  0  0  0  0  0  0  0
    5.5612    2.0091  -16.2742 H   0  0  0  0  0  0  0  0  0  0  0  0
    6.4854    3.8201  -17.6544 H   0  0  0  0  0  0  0  0  0  0  0  0
    5.2378    4.4557  -16.6167 H   0  0  0  0  0  0  0  0  0  0  0  0
    5.0371    2.6541  -19.8913 H   0  0  0  0  0  0  0  0  0  0  0  0
    6.2606    3.9256  -19.9449 H   0  0  0  0  0  0  0  0  0  0  0  0
    3.5048    4.0728  -21.2620 H   0  0  0  0  0  0  0  0  0  0  0  0
    5.0744    3.9002  -22.0512 H   0  0  0  0  0  0  0  0  0  0  0  0
    4.5512    6.0273  -20.2874 H   0  0  0  0  0  0  0  0  0  0  0  0
    2.6643    4.5337  -19.3081 H   0  0  0  0  0  0  0  0  0  0  0  0
    2.9288    4.8885  -17.6337 H   0  0  0  0  0  0  0  0  0  0  0  0
    2.9401    2.1058  -18.9147 H   0  0  0  0  0  0  0  0  0  0  0  0
    1.7096    2.7539  -17.8634 H   0  0  0  0  0  0  0  0  0  0  0  0
    4.8735    0.7543  -10.0222 H   0  0  0  0  0  0  0  0  0  0  0  0
    4.0072    1.0024   -7.7257 H   0  0  0  0  0  0  0  0  0  0  0  0
    3.3748    1.1944   -3.6217 H   0  0  0  0  0  0  0  0  0  0  0  0
    3.8400   -0.1361    0.5751 H   0  0  0  0  0  0  0  0  0  0  0  0
    0.4673   -1.1282    1.9352 H   0  0  0  0  0  0  0  0  0  0  0  0
    0.1811   -2.2589    4.0281 H   0  0  0  0  0  0  0  0  0  0  0  0
    4.7523   -1.2063    2.4499 H   0  0  0  0  0  0  0  0  0  0  0  0
  1  2  2  0  0  0  0
  2  3  1  0  0  0  0
  2 34  1  0  0  0  0
  3  4  1  0  0  0  0
  3 46  1  0  0  0  0
  4  5  1  0  0  0  0
  4 33  2  0  0  0  0
  5  6  2  0  0  0  0
  5 47  1  0  0  0  0
  6  7  1  0  0  0  0
  6 48  1  0  0  0  0
  7  8  2  0  0  0  0
  7 49  1  0  0  0  0
  8  9  1  0  0  0  0
  8 33  1  0  0  0  0
  9 10  1  0  0  0  0
  9 50  1  0  0  0  0
 10 11  1  0  0  0  0
 10 32  2  0  0  0  0
 11 12  2  0  0  0  0
 12 13  1  0  0  0  0
 12 51  1  0  0  0  0
 13 14  2  0  0  0  0
 14 15  1  0  0  0  0
 14 32  1  0  0  0  0
 15 16  2  0  0  0  0
 15 52  1  0  0  0  0
 16 17  1  0  0  0  0
 16 30  1  0  0  0  0
 17 18  1  0  0  0  0
 18 19  1  0  0  0  0
 18 53  1  0  0  0  0
 18 54  1  0  0  0  0
 19 20  1  0  0  0  0
 19 55  1  0  0  0  0
 19 56  1  0  0  0  0
 20 21  1  0  0  0  0
 20 57  1  0  0  0  0
 20 58  1  0  0  0  0
 21 22  1  0  0  0  0
 21 29  1  0  0  0  0
 22 23  1  0  0  0  0
 22 59  1  0  0  0  0
 22 60  1  0  0  0  0
 23 24  1  0  0  0  0
 23 61  1  0  0  0  0
 23 62  1  0  0  0  0
 24 25  1  0  0  0  0
 24 28  1  0  0  0  0
 25 26  1  0  0  0  0
 25 63  1  0  0  0  0
 25 64  1  0  0  0  0
 26 27  1  0  0  0  0
 26 65  1  0  0  0  0
 26 66  1  0  0  0  0
 27 67  1  0  0  0  0
 28 29  1  0  0  0  0
 28 68  1  0  0  0  0
 28 69  1  0  0  0  0
 29 70  1  0  0  0  0
 29 71  1  0  0  0  0
 30 31  2  0  0  0  0
 30 72  1  0  0  0  0
 31 32  1  0  0  0  0
 31 73  1  0  0  0  0
 33 74  1  0  0  0  0
 34 35  1  0  0  0  0
 34 75  1  0  0  0  0
 35 36  1  0  0  0  0
 35 45  2  0  0  0  0
 36 37  2  0  0  0  0
 36 76  1  0  0  0  0
 37 38  1  0  0  0  0
 37 77  1  0  0  0  0
 38 39  1  0  0  0  0
 38 40  2  0  0  0  0
 40 41  1  0  0  0  0
 40 45  1  0  0  0  0
 41 42  1  0  0  0  0
 41 43  1  0  0  0  0
 41 44  1  0  0  0  0
 45 78  1  0  0  0  0
M  END
$$$$
