CHEMBL3648102
 OpenBabel04072215373D

 43 44  0  0  1  0  0  0  0  0999 V2000
    1.5788    1.6401   -2.6036 C   0  0  0  0  0  0  0  0  0  0  0  0
    3.0048    1.6895   -2.0594 C   0  0  3  0  0  0  0  0  0  0  0  0
    3.5334    2.9523   -2.4750 O   0  0  0  0  0  0  0  0  0  0  0  0
    3.0831    1.5096   -0.5211 C   0  0  3  0  0  0  0  0  0  0  0  0
    2.4921    0.1611   -0.0829 C   0  0  0  0  0  0  0  0  0  0  0  0
    4.8206    1.5318    0.1120 S   0  0  0  0  0  0  0  0  0  0  0  0
    5.3908    3.1613   -0.3804 C   0  0  0  0  0  0  0  0  0  0  0  0
    4.6954    4.2109    0.1394 N   0  0  0  0  0  0  0  0  0  0  0  0
    5.1876    5.4410   -0.0896 C   0  0  0  0  0  0  0  0  0  0  0  0
    4.5394    6.5259    0.5000 N   0  0  0  0  0  0  0  0  0  0  0  0
    5.0816    7.7670    0.8765 C   0  0  0  0  0  0  0  0  0  0  0  0
    4.2534    8.8947    0.9491 C   0  0  0  0  0  0  0  0  0  0  0  0
    4.7865   10.1671    1.1974 C   0  0  0  0  0  0  0  0  0  0  0  0
    6.1613   10.3189    1.3911 C   0  0  0  0  0  0  0  0  0  0  0  0
    6.8504   11.9549    1.5891 S   0  0  3  0  0  0  0  0  0  0  0  0
    7.6042   11.9094    3.1991 C   0  0  0  0  0  0  0  0  0  0  0  0
    7.9679   12.0742    0.5353 N   0  0  0  0  0  0  0  0  0  0  0  0
    5.7352   12.8691    1.7091 O   0  0  0  0  0  0  0  0  0  0  0  0
    7.0013    9.2088    1.3567 C   0  0  0  0  0  0  0  0  0  0  0  0
    6.4581    7.9487    1.0912 C   0  0  0  0  0  0  0  0  0  0  0  0
    6.2619    5.6740   -0.8601 N   0  0  0  0  0  0  0  0  0  0  0  0
    6.8937    4.6180   -1.3962 C   0  0  0  0  0  0  0  0  0  0  0  0
    6.5181    3.3191   -1.1705 C   0  0  0  0  0  0  0  0  0  0  0  0
    7.5421    1.9261   -1.9296 Br  0  0  0  0  0  0  0  0  0  0  0  0
    1.5806    1.8582   -3.6776 H   0  0  0  0  0  0  0  0  0  0  0  0
    0.9555    2.4077   -2.1312 H   0  0  0  0  0  0  0  0  0  0  0  0
    1.1084    0.6645   -2.4612 H   0  0  0  0  0  0  0  0  0  0  0  0
    3.5960    0.9116   -2.5569 H   0  0  0  0  0  0  0  0  0  0  0  0
    3.0805    3.6496   -1.9663 H   0  0  0  0  0  0  0  0  0  0  0  0
    2.5430    2.3184   -0.0169 H   0  0  0  0  0  0  0  0  0  0  0  0
    3.0293   -0.6825   -0.5346 H   0  0  0  0  0  0  0  0  0  0  0  0
    1.4410    0.0692   -0.3729 H   0  0  0  0  0  0  0  0  0  0  0  0
    2.5215    0.0391    1.0061 H   0  0  0  0  0  0  0  0  0  0  0  0
    3.6679    6.2619    0.9316 H   0  0  0  0  0  0  0  0  0  0  0  0
    3.1868    8.8035    0.7564 H   0  0  0  0  0  0  0  0  0  0  0  0
    4.1255   11.0317    1.2001 H   0  0  0  0  0  0  0  0  0  0  0  0
    8.3941   11.1573    3.2242 H   0  0  0  0  0  0  0  0  0  0  0  0
    6.8358   11.6874    3.9419 H   0  0  0  0  0  0  0  0  0  0  0  0
    8.0252   12.8984    3.3985 H   0  0  0  0  0  0  0  0  0  0  0  0
    8.7726   11.4769    0.7116 H   0  0  0  0  0  0  0  0  0  0  0  0
    8.0741    9.2976    1.4889 H   0  0  0  0  0  0  0  0  0  0  0  0
    7.1351    7.0981    1.0450 H   0  0  0  0  0  0  0  0  0  0  0  0
    7.7494    4.8714   -2.0169 H   0  0  0  0  0  0  0  0  0  0  0  0
  1  2  1  0  0  0  0
  1 25  1  0  0  0  0
  1 26  1  0  0  0  0
  1 27  1  0  0  0  0
  2  3  1  0  0  0  0
  2  4  1  0  0  0  0
  2 28  1  0  0  0  0
  3 29  1  0  0  0  0
  4  5  1  0  0  0  0
  4  6  1  0  0  0  0
  4 30  1  0  0  0  0
  5 31  1  0  0  0  0
  5 32  1  0  0  0  0
  5 33  1  0  0  0  0
  6  7  1  0  0  0  0
  7  8  1  0  0  0  0
  7 23  2  0  0  0  0
  8  9  2  0  0  0  0
  9 10  1  0  0  0  0
  9 21  1  0  0  0  0
 10 11  1  0  0  0  0
 10 34  1  0  0  0  0
 11 12  1  0  0  0  0
 11 20  2  0  0  0  0
 12 13  2  0  0  0  0
 12 35  1  0  0  0  0
 13 14  1  0  0  0  0
 13 36  1  0  0  0  0
 14 15  1  0  0  0  0
 14 19  2  0  0  0  0
 15 16  1  0  0  0  0
 15 17  2  0  0  0  0
 15 18  2  0  0  0  0
 16 37  1  0  0  0  0
 16 38  1  0  0  0  0
 16 39  1  0  0  0  0
 17 40  1  0  0  0  0
 19 20  1  0  0  0  0
 19 41  1  0  0  0  0
 20 42  1  0  0  0  0
 21 22  2  0  0  0  0
 22 23  1  0  0  0  0
 22 43  1  0  0  0  0
 23 24  1  0  0  0  0
M  END
$$$$
