CHEMBL1241776
 OpenBabel04072215363D

 39 42  0  0  0  0  0  0  0  0999 V2000
    1.5076    0.8432    0.6507 C   0  0  0  0  0  0  0  0  0  0  0  0
    2.6496   -0.1016    0.2535 C   0  0  0  0  0  0  0  0  0  0  0  0
    3.7387    0.6762   -0.4850 C   0  0  0  0  0  0  0  0  0  0  0  0
    3.1835   -0.8608    1.3848 N   0  0  0  0  0  0  0  0  0  0  0  0
    3.8499   -0.2376    2.3758 N   0  0  0  0  0  0  0  0  0  0  0  0
    4.0049   -1.1711    3.3446 C   0  0  0  0  0  0  0  0  0  0  0  0
    4.3682   -0.6974    4.7037 C   0  0  0  0  0  0  0  0  0  0  0  0
    3.7648    0.5215    5.0508 C   0  0  0  0  0  0  0  0  0  0  0  0
    3.9383    1.1107    6.2898 C   0  0  0  0  0  0  0  0  0  0  0  0
    4.7473    0.5128    7.2390 C   0  0  0  0  0  0  0  0  0  0  0  0
    4.8898    1.1990    8.4506 N   0  0  0  0  0  0  0  0  0  0  0  0
    5.7113    0.7139    9.3116 C   0  0  0  0  0  0  0  0  0  0  0  0
    6.4100   -0.4358    9.1235 N   0  0  0  0  0  0  0  0  0  0  0  0
    6.2566   -1.2455    8.0108 C   0  0  0  0  0  0  0  0  0  0  0  0
    6.7853   -2.3386    7.9297 O   0  0  0  0  0  0  0  0  0  0  0  0
    5.3812   -0.6957    6.9314 C   0  0  0  0  0  0  0  0  0  0  0  0
    5.1960   -1.3209    5.6629 C   0  0  0  0  0  0  0  0  0  0  0  0
    3.5485   -2.4443    2.8826 C   0  0  0  0  0  0  0  0  0  0  0  0
    3.3990   -3.7497    3.3600 C   0  0  0  0  0  0  0  0  0  0  0  0
    3.7715   -4.1722    4.6312 N   0  0  0  0  0  0  0  0  0  0  0  0
    2.8295   -4.6770    2.5643 N   0  0  0  0  0  0  0  0  0  0  0  0
    2.3940   -4.3067    1.3436 C   0  0  0  0  0  0  0  0  0  0  0  0
    2.4378   -3.0860    0.7954 N   0  0  0  0  0  0  0  0  0  0  0  0
    3.0310   -2.1997    1.6143 C   0  0  0  0  0  0  0  0  0  0  0  0
    1.1069    1.3524   -0.2351 H   0  0  0  0  0  0  0  0  0  0  0  0
    1.8404    1.6166    1.3517 H   0  0  0  0  0  0  0  0  0  0  0  0
    0.6807    0.2980    1.1178 H   0  0  0  0  0  0  0  0  0  0  0  0
    2.2342   -0.8347   -0.4480 H   0  0  0  0  0  0  0  0  0  0  0  0
    4.1842    1.4493    0.1505 H   0  0  0  0  0  0  0  0  0  0  0  0
    3.3236    1.1720   -1.3700 H   0  0  0  0  0  0  0  0  0  0  0  0
    4.5384    0.0072   -0.8174 H   0  0  0  0  0  0  0  0  0  0  0  0
    3.1358    1.0420    4.3304 H   0  0  0  0  0  0  0  0  0  0  0  0
    3.4525    2.0539    6.5115 H   0  0  0  0  0  0  0  0  0  0  0  0
    5.8914    1.2210   10.2765 H   0  0  0  0  0  0  0  0  0  0  0  0
    7.0192   -0.7725    9.8586 H   0  0  0  0  0  0  0  0  0  0  0  0
    5.7169   -2.2541    5.4474 H   0  0  0  0  0  0  0  0  0  0  0  0
    3.6377   -3.4810    5.3546 H   0  0  0  0  0  0  0  0  0  0  0  0
    3.3610   -5.0789    4.8231 H   0  0  0  0  0  0  0  0  0  0  0  0
    1.9456   -5.0880    0.7361 H   0  0  0  0  0  0  0  0  0  0  0  0
  1  2  1  0  0  0  0
  1 25  1  0  0  0  0
  1 26  1  0  0  0  0
  1 27  1  0  0  0  0
  2  3  1  0  0  0  0
  2  4  1  0  0  0  0
  2 28  1  0  0  0  0
  3 29  1  0  0  0  0
  3 30  1  0  0  0  0
  3 31  1  0  0  0  0
  4  5  1  0  0  0  0
  4 24  1  0  0  0  0
  5  6  2  0  0  0  0
  6  7  1  0  0  0  0
  6 18  1  0  0  0  0
  7  8  1  0  0  0  0
  7 17  2  0  0  0  0
  8  9  2  0  0  0  0
  8 32  1  0  0  0  0
  9 10  1  0  0  0  0
  9 33  1  0  0  0  0
 10 11  1  0  0  0  0
 10 16  2  0  0  0  0
 11 12  2  0  0  0  0
 12 13  1  0  0  0  0
 12 34  1  0  0  0  0
 13 14  1  0  0  0  0
 13 35  1  0  0  0  0
 14 15  2  0  0  0  0
 14 16  1  0  0  0  0
 16 17  1  0  0  0  0
 17 36  1  0  0  0  0
 18 19  1  0  0  0  0
 18 24  2  0  0  0  0
 19 20  1  0  0  0  0
 19 21  2  0  0  0  0
 20 37  1  0  0  0  0
 20 38  1  0  0  0  0
 21 22  1  0  0  0  0
 22 23  2  0  0  0  0
 22 39  1  0  0  0  0
 23 24  1  0  0  0  0
M  END
$$$$
