CHEMBL202892
 OpenBabel04072215363D

 49 53  0  0  0  0  0  0  0  0999 V2000
    2.1318    0.0238    0.0071 C   0  0  0  0  0  0  0  0  0  0  0  0
    0.6952   -0.0985    0.0555 N   0  0  0  0  0  0  0  0  0  0  0  0
   -0.1721    0.9533    0.1215 C   0  0  0  0  0  0  0  0  0  0  0  0
   -1.4202    0.5508    0.1735 N   0  0  0  0  0  0  0  0  0  0  0  0
   -1.3538   -0.8120    0.0953 C   0  0  0  0  0  0  0  0  0  0  0  0
   -2.4674   -1.5627    0.0548 N   0  0  0  0  0  0  0  0  0  0  0  0
   -3.7000   -1.1298    0.6871 C   0  0  0  0  0  0  0  0  0  0  0  0
   -4.0639   -2.0862    1.8026 C   0  0  0  0  0  0  0  0  0  0  0  0
   -3.2165   -2.2500    2.9039 C   0  0  0  0  0  0  0  0  0  0  0  0
   -3.5910   -3.1236    3.9111 C   0  0  0  0  0  0  0  0  0  0  0  0
   -4.7396   -3.8332    3.9035 N   0  0  0  0  0  0  0  0  0  0  0  0
   -5.5484   -3.6584    2.8382 C   0  0  0  0  0  0  0  0  0  0  0  0
   -5.2611   -2.8108    1.7739 C   0  0  0  0  0  0  0  0  0  0  0  0
   -0.0530   -1.2566    0.0497 C   0  0  0  0  0  0  0  0  0  0  0  0
    0.4808   -2.5816    0.0145 C   0  0  0  0  0  0  0  0  0  0  0  0
    1.7667   -2.8616   -0.0941 N   0  0  0  0  0  0  0  0  0  0  0  0
    1.8785   -4.2316   -0.1314 N   0  0  0  0  0  0  0  0  0  0  0  0
    0.6597   -4.7082   -0.0212 C   0  0  0  0  0  0  0  0  0  0  0  0
    0.2075   -5.9692   -0.0223 N   0  0  0  0  0  0  0  0  0  0  0  0
    1.0092   -7.0162   -0.6145 C   0  0  0  0  0  0  0  0  0  0  0  0
    0.2485   -7.6745   -1.7467 C   0  0  0  0  0  0  0  0  0  0  0  0
    0.4002   -7.2141   -3.0755 C   0  0  0  0  0  0  0  0  0  0  0  0
   -0.2906   -7.8109   -4.1351 C   0  0  0  0  0  0  0  0  0  0  0  0
   -1.1423   -8.8490   -3.8363 C   0  0  0  0  0  0  0  0  0  0  0  0
   -1.3119   -9.2986   -2.5479 C   0  0  0  0  0  0  0  0  0  0  0  0
   -0.6366   -8.7366   -1.4852 C   0  0  0  0  0  0  0  0  0  0  0  0
   -2.2001  -10.3258   -2.4684 O   0  0  0  0  0  0  0  0  0  0  0  0
   -2.6057  -10.4405   -3.8489 C   0  0  0  0  0  0  0  0  0  0  0  0
   -1.9005   -9.5411   -4.7297 O   0  0  0  0  0  0  0  0  0  0  0  0
   -0.2809   -3.7259    0.0906 O   0  0  0  0  0  0  0  0  0  0  0  0
    2.4092    1.0820    0.0094 H   0  0  0  0  0  0  0  0  0  0  0  0
    2.4937   -0.4401   -0.9130 H   0  0  0  0  0  0  0  0  0  0  0  0
    2.5545   -0.4618    0.8894 H   0  0  0  0  0  0  0  0  0  0  0  0
    0.1551    1.9873    0.1226 H   0  0  0  0  0  0  0  0  0  0  0  0
   -2.4099   -2.5622   -0.1103 H   0  0  0  0  0  0  0  0  0  0  0  0
   -4.4924   -1.1168   -0.0699 H   0  0  0  0  0  0  0  0  0  0  0  0
   -3.6459   -0.1148    1.1019 H   0  0  0  0  0  0  0  0  0  0  0  0
   -2.2801   -1.7064    2.9732 H   0  0  0  0  0  0  0  0  0  0  0  0
   -2.9639   -3.2822    4.7836 H   0  0  0  0  0  0  0  0  0  0  0  0
   -6.4706   -4.2336    2.8591 H   0  0  0  0  0  0  0  0  0  0  0  0
   -5.9583   -2.7207    0.9543 H   0  0  0  0  0  0  0  0  0  0  0  0
   -0.7888   -6.1353    0.0424 H   0  0  0  0  0  0  0  0  0  0  0  0
    1.2445   -7.7661    0.1494 H   0  0  0  0  0  0  0  0  0  0  0  0
    1.9752   -6.6565   -0.9914 H   0  0  0  0  0  0  0  0  0  0  0  0
    1.0753   -6.3820   -3.2884 H   0  0  0  0  0  0  0  0  0  0  0  0
   -0.1675   -7.4656   -5.1545 H   0  0  0  0  0  0  0  0  0  0  0  0
   -0.7874   -9.1133   -0.4789 H   0  0  0  0  0  0  0  0  0  0  0  0
   -3.6786  -10.2246   -3.9163 H   0  0  0  0  0  0  0  0  0  0  0  0
   -2.4341  -11.4696   -4.1833 H   0  0  0  0  0  0  0  0  0  0  0  0
  1  2  1  0  0  0  0
  1 31  1  0  0  0  0
  1 32  1  0  0  0  0
  1 33  1  0  0  0  0
  2  3  1  0  0  0  0
  2 14  1  0  0  0  0
  3  4  2  0  0  0  0
  3 34  1  0  0  0  0
  4  5  1  0  0  0  0
  5  6  1  0  0  0  0
  5 14  2  0  0  0  0
  6  7  1  0  0  0  0
  6 35  1  0  0  0  0
  7  8  1  0  0  0  0
  7 36  1  0  0  0  0
  7 37  1  0  0  0  0
  8  9  1  0  0  0  0
  8 13  2  0  0  0  0
  9 10  2  0  0  0  0
  9 38  1  0  0  0  0
 10 11  1  0  0  0  0
 10 39  1  0  0  0  0
 11 12  2  0  0  0  0
 12 13  1  0  0  0  0
 12 40  1  0  0  0  0
 13 41  1  0  0  0  0
 14 15  1  0  0  0  0
 15 16  2  0  0  0  0
 15 30  1  0  0  0  0
 16 17  1  0  0  0  0
 17 18  2  0  0  0  0
 18 19  1  0  0  0  0
 18 30  1  0  0  0  0
 19 20  1  0  0  0  0
 19 42  1  0  0  0  0
 20 21  1  0  0  0  0
 20 43  1  0  0  0  0
 20 44  1  0  0  0  0
 21 22  1  0  0  0  0
 21 26  2  0  0  0  0
 22 23  2  0  0  0  0
 22 45  1  0  0  0  0
 23 24  1  0  0  0  0
 23 46  1  0  0  0  0
 24 25  2  0  0  0  0
 24 29  1  0  0  0  0
 25 26  1  0  0  0  0
 25 27  1  0  0  0  0
 26 47  1  0  0  0  0
 27 28  1  0  0  0  0
 28 29  1  0  0  0  0
 28 48  1  0  0  0  0
 28 49  1  0  0  0  0
M  END
$$$$
