CHEMBL233208
 OpenBabel04072215363D

 61 64  0  0  0  0  0  0  0  0999 V2000
    4.8826    1.1182    0.0681 C   0  0  0  0  0  0  0  0  0  0  0  0
    6.0324    0.3532    0.7459 C   0  0  0  0  0  0  0  0  0  0  0  0
    7.3184    0.4729   -0.0940 C   0  0  0  0  0  0  0  0  0  0  0  0
    6.2920    1.0255    2.0336 N   0  0  0  0  0  0  0  0  0  0  0  0
    5.6640   -1.1231    0.9225 C   0  0  0  0  0  0  0  0  0  0  0  0
    5.3558   -1.9269   -0.1869 C   0  0  0  0  0  0  0  0  0  0  0  0
    5.0424   -3.2854   -0.0384 C   0  0  0  0  0  0  0  0  0  0  0  0
    5.0348   -3.9100    1.2206 C   0  0  0  0  0  0  0  0  0  0  0  0
    4.7461   -5.3604    1.3446 C   0  0  0  0  0  0  0  0  0  0  0  0
    5.1760   -6.0882    0.2692 N   0  0  0  0  0  0  0  0  0  0  0  0
    5.0568   -7.4214    0.3110 C   0  0  0  0  0  0  0  0  0  0  0  0
    5.5187   -8.1541   -0.7815 N   0  0  0  0  0  0  0  0  0  0  0  0
    5.9917   -9.4765   -0.7643 C   0  0  0  0  0  0  0  0  0  0  0  0
    5.8453  -10.2997   -1.8849 C   0  0  0  0  0  0  0  0  0  0  0  0
    6.1470  -11.6690   -1.8079 C   0  0  0  0  0  0  0  0  0  0  0  0
    6.6178  -12.2256   -0.6110 C   0  0  0  0  0  0  0  0  0  0  0  0
    6.7593  -13.7117   -0.4109 C   0  0  0  0  0  0  0  0  0  0  0  0
    7.7435  -14.4171   -1.3521 C   0  0  0  0  0  0  0  0  0  0  0  0
    7.8880  -15.8396   -0.9921 N   0  0  0  0  0  0  0  0  0  0  0  0
    8.8783  -16.5314   -1.8279 C   0  0  0  0  0  0  0  0  0  0  0  0
    8.0787  -17.4478   -2.7341 C   0  0  0  0  0  0  0  0  0  0  0  0
    6.9261  -17.8592   -1.8473 C   0  0  0  0  0  0  0  0  0  0  0  0
    6.6166  -16.5812   -1.0902 C   0  0  0  0  0  0  0  0  0  0  0  0
    6.8349  -11.3870    0.4816 C   0  0  0  0  0  0  0  0  0  0  0  0
    6.5238  -10.0356    0.4030 C   0  0  0  0  0  0  0  0  0  0  0  0
    4.5070   -8.0701    1.3469 N   0  0  0  0  0  0  0  0  0  0  0  0
    4.0542   -7.3394    2.3774 C   0  0  0  0  0  0  0  0  0  0  0  0
    4.1307   -5.9695    2.4320 C   0  0  0  0  0  0  0  0  0  0  0  0
    3.4161   -5.1844    3.7848 Cl  0  0  0  0  0  0  0  0  0  0  0  0
    5.3719   -3.1051    2.3187 C   0  0  0  0  0  0  0  0  0  0  0  0
    5.6490   -1.7406    2.1791 C   0  0  0  0  0  0  0  0  0  0  0  0
    5.1046    2.1895   -0.0110 H   0  0  0  0  0  0  0  0  0  0  0  0
    3.9460    1.0120    0.6292 H   0  0  0  0  0  0  0  0  0  0  0  0
    4.6972    0.7579   -0.9500 H   0  0  0  0  0  0  0  0  0  0  0  0
    7.6251    1.5188   -0.2107 H   0  0  0  0  0  0  0  0  0  0  0  0
    7.1886    0.0616   -1.1011 H   0  0  0  0  0  0  0  0  0  0  0  0
    8.1510   -0.0693    0.3731 H   0  0  0  0  0  0  0  0  0  0  0  0
    6.4911    2.0100    1.8688 H   0  0  0  0  0  0  0  0  0  0  0  0
    7.1423    0.6370    2.4399 H   0  0  0  0  0  0  0  0  0  0  0  0
    5.3613   -1.5106   -1.1920 H   0  0  0  0  0  0  0  0  0  0  0  0
    4.8174   -3.8645   -0.9332 H   0  0  0  0  0  0  0  0  0  0  0  0
    5.8318   -7.5645   -1.5383 H   0  0  0  0  0  0  0  0  0  0  0  0
    5.4200   -9.9004   -2.8034 H   0  0  0  0  0  0  0  0  0  0  0  0
    5.9461  -12.2985   -2.6707 H   0  0  0  0  0  0  0  0  0  0  0  0
    5.7520  -14.1362   -0.4987 H   0  0  0  0  0  0  0  0  0  0  0  0
    7.0750  -13.9077    0.6230 H   0  0  0  0  0  0  0  0  0  0  0  0
    8.7211  -13.9248   -1.2635 H   0  0  0  0  0  0  0  0  0  0  0  0
    7.4255  -14.3107   -2.3970 H   0  0  0  0  0  0  0  0  0  0  0  0
    9.5127  -17.1367   -1.1674 H   0  0  0  0  0  0  0  0  0  0  0  0
    9.5406  -15.8656   -2.3899 H   0  0  0  0  0  0  0  0  0  0  0  0
    8.6576  -18.3042   -3.0881 H   0  0  0  0  0  0  0  0  0  0  0  0
    7.7074  -16.8907   -3.6033 H   0  0  0  0  0  0  0  0  0  0  0  0
    7.2390  -18.6473   -1.1521 H   0  0  0  0  0  0  0  0  0  0  0  0
    6.0659  -18.2189   -2.4183 H   0  0  0  0  0  0  0  0  0  0  0  0
    6.2143  -16.7903   -0.0939 H   0  0  0  0  0  0  0  0  0  0  0  0
    5.8567  -16.0261   -1.6537 H   0  0  0  0  0  0  0  0  0  0  0  0
    7.1954  -11.7856    1.4262 H   0  0  0  0  0  0  0  0  0  0  0  0
    6.6741   -9.4272    1.2907 H   0  0  0  0  0  0  0  0  0  0  0  0
    3.6125   -7.9192    3.1820 H   0  0  0  0  0  0  0  0  0  0  0  0
    5.4504   -3.5188    3.3200 H   0  0  0  0  0  0  0  0  0  0  0  0
    5.8608   -1.1728    3.0826 H   0  0  0  0  0  0  0  0  0  0  0  0
  1  2  1  0  0  0  0
  1 32  1  0  0  0  0
  1 33  1  0  0  0  0
  1 34  1  0  0  0  0
  2  3  1  0  0  0  0
  2  4  1  0  0  0  0
  2  5  1  0  0  0  0
  3 35  1  0  0  0  0
  3 36  1  0  0  0  0
  3 37  1  0  0  0  0
  4 38  1  0  0  0  0
  4 39  1  0  0  0  0
  5  6  1  0  0  0  0
  5 31  2  0  0  0  0
  6  7  2  0  0  0  0
  6 40  1  0  0  0  0
  7  8  1  0  0  0  0
  7 41  1  0  0  0  0
  8  9  1  0  0  0  0
  8 30  2  0  0  0  0
  9 10  1  0  0  0  0
  9 28  2  0  0  0  0
 10 11  2  0  0  0  0
 11 12  1  0  0  0  0
 11 26  1  0  0  0  0
 12 13  1  0  0  0  0
 12 42  1  0  0  0  0
 13 14  1  0  0  0  0
 13 25  2  0  0  0  0
 14 15  2  0  0  0  0
 14 43  1  0  0  0  0
 15 16  1  0  0  0  0
 15 44  1  0  0  0  0
 16 17  1  0  0  0  0
 16 24  2  0  0  0  0
 17 18  1  0  0  0  0
 17 45  1  0  0  0  0
 17 46  1  0  0  0  0
 18 19  1  0  0  0  0
 18 47  1  0  0  0  0
 18 48  1  0  0  0  0
 19 20  1  0  0  0  0
 19 23  1  0  0  0  0
 20 21  1  0  0  0  0
 20 49  1  0  0  0  0
 20 50  1  0  0  0  0
 21 22  1  0  0  0  0
 21 51  1  0  0  0  0
 21 52  1  0  0  0  0
 22 23  1  0  0  0  0
 22 53  1  0  0  0  0
 22 54  1  0  0  0  0
 23 55  1  0  0  0  0
 23 56  1  0  0  0  0
 24 25  1  0  0  0  0
 24 57  1  0  0  0  0
 25 58  1  0  0  0  0
 26 27  2  0  0  0  0
 27 28  1  0  0  0  0
 27 59  1  0  0  0  0
 28 29  1  0  0  0  0
 30 31  1  0  0  0  0
 30 60  1  0  0  0  0
 31 61  1  0  0  0  0
M  END
$$$$
