CHEMBL203167
 OpenBabel04072215363D

 44 48  0  0  0  0  0  0  0  0999 V2000
    2.6249    0.9739    0.1316 O   0  0  0  0  0  0  0  0  0  0  0  0
    2.0831   -0.0962   -0.1118 C   0  0  0  0  0  0  0  0  0  0  0  0
    0.7354   -0.2918   -0.4044 N   0  0  0  0  0  0  0  0  0  0  0  0
   -0.2747    0.6937   -0.4680 C   0  0  0  0  0  0  0  0  0  0  0  0
   -0.0301    2.0497   -0.1957 C   0  0  0  0  0  0  0  0  0  0  0  0
   -1.0383    3.0062   -0.2931 C   0  0  0  0  0  0  0  0  0  0  0  0
   -2.2894    2.5790   -0.6416 C   0  0  0  0  0  0  0  0  0  0  0  0
   -2.5642    1.2518   -0.8850 C   0  0  0  0  0  0  0  0  0  0  0  0
   -1.5783    0.2839   -0.8172 C   0  0  0  0  0  0  0  0  0  0  0  0
   -3.8763    1.0471   -1.1838 O   0  0  0  0  0  0  0  0  0  0  0  0
   -4.4067    2.3807   -1.0099 C   0  0  0  0  0  0  0  0  0  0  0  0
   -3.3866    3.3691   -0.7737 O   0  0  0  0  0  0  0  0  0  0  0  0
    2.9320   -1.3260   -0.1300 C   0  0  0  0  0  0  0  0  0  0  0  0
    2.6465   -2.2995   -1.1085 C   0  0  0  0  0  0  0  0  0  0  0  0
    3.4010   -3.4656   -1.2009 C   0  0  0  0  0  0  0  0  0  0  0  0
    4.4922   -3.6455   -0.3637 C   0  0  0  0  0  0  0  0  0  0  0  0
    4.8074   -2.6783    0.5894 C   0  0  0  0  0  0  0  0  0  0  0  0
    4.0262   -1.5137    0.7469 C   0  0  0  0  0  0  0  0  0  0  0  0
    4.4013   -0.5869    1.8918 C   0  0  0  0  0  0  0  0  0  0  0  0
    3.6937   -0.9381    3.1451 N   0  0  0  0  0  0  0  0  0  0  0  0
    2.5360   -0.2504    3.5329 C   0  0  0  0  0  0  0  0  0  0  0  0
    1.8886   -0.4125    4.6959 C   0  0  0  0  0  0  0  0  0  0  0  0
    2.4806   -1.3798    5.6306 C   0  0  0  0  0  0  0  0  0  0  0  0
    2.1419   -1.7274    6.8311 N   0  0  0  0  0  0  0  0  0  0  0  0
    3.1266   -2.6462    7.1791 C   0  0  0  0  0  0  0  0  0  0  0  0
    4.0421   -2.9128    6.2876 N   0  0  0  0  0  0  0  0  0  0  0  0
    3.6871   -2.1123    5.2435 C   0  0  0  0  0  0  0  0  0  0  0  0
    4.2305   -1.8675    4.0492 C   0  0  0  0  0  0  0  0  0  0  0  0
    0.4282   -1.2391   -0.5902 H   0  0  0  0  0  0  0  0  0  0  0  0
    0.9588    2.4027    0.0973 H   0  0  0  0  0  0  0  0  0  0  0  0
   -0.8326    4.0542   -0.0942 H   0  0  0  0  0  0  0  0  0  0  0  0
   -1.8250   -0.7499   -1.0259 H   0  0  0  0  0  0  0  0  0  0  0  0
   -5.0864    2.3800   -0.1496 H   0  0  0  0  0  0  0  0  0  0  0  0
   -4.9727    2.6596   -1.9050 H   0  0  0  0  0  0  0  0  0  0  0  0
    1.8440   -2.1590   -1.8284 H   0  0  0  0  0  0  0  0  0  0  0  0
    3.1412   -4.2244   -1.9338 H   0  0  0  0  0  0  0  0  0  0  0  0
    5.0995   -4.5441   -0.4454 H   0  0  0  0  0  0  0  0  0  0  0  0
    5.6703   -2.8466    1.2319 H   0  0  0  0  0  0  0  0  0  0  0  0
    4.2719    0.4712    1.6467 H   0  0  0  0  0  0  0  0  0  0  0  0
    5.4836   -0.6716    2.0696 H   0  0  0  0  0  0  0  0  0  0  0  0
    2.1848    0.4779    2.8057 H   0  0  0  0  0  0  0  0  0  0  0  0
    1.0019    0.1321    4.9856 H   0  0  0  0  0  0  0  0  0  0  0  0
    3.1207   -3.1128    8.1777 H   0  0  0  0  0  0  0  0  0  0  0  0
    5.1400   -2.3688    3.7379 H   0  0  0  0  0  0  0  0  0  0  0  0
  1  2  2  0  0  0  0
  2  3  1  0  0  0  0
  2 13  1  0  0  0  0
  3  4  1  0  0  0  0
  3 29  1  0  0  0  0
  4  5  1  0  0  0  0
  4  9  2  0  0  0  0
  5  6  2  0  0  0  0
  5 30  1  0  0  0  0
  6  7  1  0  0  0  0
  6 31  1  0  0  0  0
  7  8  2  0  0  0  0
  7 12  1  0  0  0  0
  8  9  1  0  0  0  0
  8 10  1  0  0  0  0
  9 32  1  0  0  0  0
 10 11  1  0  0  0  0
 11 12  1  0  0  0  0
 11 33  1  0  0  0  0
 11 34  1  0  0  0  0
 13 14  1  0  0  0  0
 13 18  2  0  0  0  0
 14 15  2  0  0  0  0
 14 35  1  0  0  0  0
 15 16  1  0  0  0  0
 15 36  1  0  0  0  0
 16 17  2  0  0  0  0
 16 37  1  0  0  0  0
 17 18  1  0  0  0  0
 17 38  1  0  0  0  0
 18 19  1  0  0  0  0
 19 20  1  0  0  0  0
 19 39  1  0  0  0  0
 19 40  1  0  0  0  0
 20 21  1  0  0  0  0
 20 28  1  0  0  0  0
 21 22  2  0  0  0  0
 21 41  1  0  0  0  0
 22 23  1  0  0  0  0
 22 42  1  0  0  0  0
 23 24  2  0  0  0  0
 23 27  1  0  0  0  0
 24 25  1  0  0  0  0
 25 26  2  0  0  0  0
 25 43  1  0  0  0  0
 26 27  1  0  0  0  0
 27 28  2  0  0  0  0
 28 44  1  0  0  0  0
M  END
$$$$
