CHEMBL1761939
 OpenBabel04072215363D

 51 54  0  0  0  0  0  0  0  0999 V2000
    9.3807    5.4157   -1.9168 C   0  0  0  0  0  0  0  0  0  0  0  0
    9.4490    5.9095   -0.5769 O   0  0  0  0  0  0  0  0  0  0  0  0
    8.4676    5.4616    0.2703 C   0  0  0  0  0  0  0  0  0  0  0  0
    7.8600    4.2100    0.0758 C   0  0  0  0  0  0  0  0  0  0  0  0
    6.8050    3.7633    0.8537 C   0  0  0  0  0  0  0  0  0  0  0  0
    6.2278    2.6059    0.5150 N   0  0  0  0  0  0  0  0  0  0  0  0
    5.1622    2.2318    1.2278 C   0  0  0  0  0  0  0  0  0  0  0  0
    4.6523    2.8905    2.2670 N   0  0  0  0  0  0  0  0  0  0  0  0
    5.3049    4.0155    2.6379 C   0  0  0  0  0  0  0  0  0  0  0  0
    4.8558    4.6848    3.7843 O   0  0  0  0  0  0  0  0  0  0  0  0
    4.1632    3.9291    4.7099 C   0  0  0  0  0  0  0  0  0  0  0  0
    4.5848    2.6571    5.0875 C   0  0  0  0  0  0  0  0  0  0  0  0
    3.7869    1.8674    5.9123 C   0  0  0  0  0  0  0  0  0  0  0  0
    2.5855    2.3422    6.4342 C   0  0  0  0  0  0  0  0  0  0  0  0
    1.6983    1.5296    7.1926 N   0  0  0  0  0  0  0  0  0  0  0  0
    1.9217    0.2062    7.5346 C   0  0  0  0  0  0  0  0  0  0  0  0
    2.9617   -0.4135    7.3314 O   0  0  0  0  0  0  0  0  0  0  0  0
    0.8027   -0.3954    8.1025 N   0  0  0  0  0  0  0  0  0  0  0  0
    0.8710   -1.7548    8.5063 C   0  0  0  0  0  0  0  0  0  0  0  0
    1.9701   -2.2391    9.2335 C   0  0  0  0  0  0  0  0  0  0  0  0
    2.0801   -3.5961    9.5366 C   0  0  0  0  0  0  0  0  0  0  0  0
    1.0934   -4.4727    9.1052 C   0  0  0  0  0  0  0  0  0  0  0  0
    1.2343   -5.7806    9.3670 F   0  0  0  0  0  0  0  0  0  0  0  0
   -0.0141   -3.9988    8.4020 C   0  0  0  0  0  0  0  0  0  0  0  0
   -1.2133   -5.0939    7.8262 Cl  0  0  0  0  0  0  0  0  0  0  0  0
   -0.1442   -2.6338    8.1243 C   0  0  0  0  0  0  0  0  0  0  0  0
    2.2247    3.6688    6.1536 C   0  0  0  0  0  0  0  0  0  0  0  0
    3.0143    4.4606    5.2948 C   0  0  0  0  0  0  0  0  0  0  0  0
    6.3859    4.5432    1.9305 C   0  0  0  0  0  0  0  0  0  0  0  0
    7.0526    5.7599    2.2016 C   0  0  0  0  0  0  0  0  0  0  0  0
    8.0694    6.2428    1.3615 C   0  0  0  0  0  0  0  0  0  0  0  0
    8.5156    7.4762    1.7553 O   0  0  0  0  0  0  0  0  0  0  0  0
    9.3729    8.2252    0.9117 C   0  0  0  0  0  0  0  0  0  0  0  0
    9.8955    6.1250   -2.5712 H   0  0  0  0  0  0  0  0  0  0  0  0
    8.3491    5.3299   -2.2830 H   0  0  0  0  0  0  0  0  0  0  0  0
    9.9003    4.4539   -1.9876 H   0  0  0  0  0  0  0  0  0  0  0  0
    8.1910    3.5493   -0.7209 H   0  0  0  0  0  0  0  0  0  0  0  0
    4.6767    1.3066    0.9420 H   0  0  0  0  0  0  0  0  0  0  0  0
    5.5036    2.2319    4.6923 H   0  0  0  0  0  0  0  0  0  0  0  0
    4.1405    0.8562    6.0813 H   0  0  0  0  0  0  0  0  0  0  0  0
    0.8611    1.9644    7.5524 H   0  0  0  0  0  0  0  0  0  0  0  0
   -0.0769   -0.0821    7.7181 H   0  0  0  0  0  0  0  0  0  0  0  0
    2.7641   -1.5641    9.5487 H   0  0  0  0  0  0  0  0  0  0  0  0
    2.9411   -3.9735   10.0799 H   0  0  0  0  0  0  0  0  0  0  0  0
   -0.9940   -2.2846    7.5454 H   0  0  0  0  0  0  0  0  0  0  0  0
    1.3170    4.0996    6.5656 H   0  0  0  0  0  0  0  0  0  0  0  0
    2.7058    5.4764    5.0593 H   0  0  0  0  0  0  0  0  0  0  0  0
    6.7488    6.3637    3.0552 H   0  0  0  0  0  0  0  0  0  0  0  0
    9.2769    9.2761    1.2067 H   0  0  0  0  0  0  0  0  0  0  0  0
    9.0947    8.1807   -0.1449 H   0  0  0  0  0  0  0  0  0  0  0  0
   10.4147    7.9310    1.0728 H   0  0  0  0  0  0  0  0  0  0  0  0
  1  2  1  0  0  0  0
  1 34  1  0  0  0  0
  1 35  1  0  0  0  0
  1 36  1  0  0  0  0
  2  3  1  0  0  0  0
  3  4  1  0  0  0  0
  3 31  2  0  0  0  0
  4  5  2  0  0  0  0
  4 37  1  0  0  0  0
  5  6  1  0  0  0  0
  5 29  1  0  0  0  0
  6  7  2  0  0  0  0
  7  8  1  0  0  0  0
  7 38  1  0  0  0  0
  8  9  2  0  0  0  0
  9 10  1  0  0  0  0
  9 29  1  0  0  0  0
 10 11  1  0  0  0  0
 11 12  1  0  0  0  0
 11 28  2  0  0  0  0
 12 13  2  0  0  0  0
 12 39  1  0  0  0  0
 13 14  1  0  0  0  0
 13 40  1  0  0  0  0
 14 15  1  0  0  0  0
 14 27  2  0  0  0  0
 15 16  1  0  0  0  0
 15 41  1  0  0  0  0
 16 17  2  0  0  0  0
 16 18  1  0  0  0  0
 18 19  1  0  0  0  0
 18 42  1  0  0  0  0
 19 20  1  0  0  0  0
 19 26  2  0  0  0  0
 20 21  2  0  0  0  0
 20 43  1  0  0  0  0
 21 22  1  0  0  0  0
 21 44  1  0  0  0  0
 22 23  1  0  0  0  0
 22 24  2  0  0  0  0
 24 25  1  0  0  0  0
 24 26  1  0  0  0  0
 26 45  1  0  0  0  0
 27 28  1  0  0  0  0
 27 46  1  0  0  0  0
 28 47  1  0  0  0  0
 29 30  2  0  0  0  0
 30 31  1  0  0  0  0
 30 48  1  0  0  0  0
 31 32  1  0  0  0  0
 32 33  1  0  0  0  0
 33 49  1  0  0  0  0
 33 50  1  0  0  0  0
 33 51  1  0  0  0  0
M  END
$$$$
