CHEMBL3969414
 OpenBabel04072215373D

 62 65  0  0  1  0  0  0  0  0999 V2000
    7.8882    0.0189   -5.3711 C   0  0  0  0  0  0  0  0  0  0  0  0
    7.1086   -1.1783   -5.5626 O   0  0  0  0  0  0  0  0  0  0  0  0
    7.1145   -2.0023   -4.4600 C   0  0  0  0  0  0  0  0  0  0  0  0
    8.2749   -2.1946   -3.7202 C   0  0  0  0  0  0  0  0  0  0  0  0
    8.2296   -2.8757   -2.5154 C   0  0  0  0  0  0  0  0  0  0  0  0
    9.3200   -3.1219   -1.7243 O   0  0  0  0  0  0  0  0  0  0  0  0
   10.5675   -2.6740   -2.2533 C   0  0  0  0  0  0  0  0  0  0  0  0
    6.9954   -3.3197   -2.0337 C   0  0  0  0  0  0  0  0  0  0  0  0
    5.8051   -3.1908   -2.7806 C   0  0  0  0  0  0  0  0  0  0  0  0
    4.5561   -3.5039   -2.1892 N   0  0  0  0  0  0  0  0  0  0  0  0
    4.3900   -3.0290   -0.7237 C   0  0  0  0  0  0  0  0  0  0  0  0
    4.5543   -1.5682   -0.1817 C   0  0  2  0  0  0  0  0  0  0  0  0
    4.0010   -1.6360    1.1951 O   0  0  0  0  0  0  0  0  0  0  0  0
    3.9333   -0.3619   -0.9019 C   0  0  0  0  0  0  0  0  0  0  0  0
    2.9550   -0.6550   -1.7671 F   0  0  0  0  0  0  0  0  0  0  0  0
    3.3685    0.4578    0.0420 F   0  0  0  0  0  0  0  0  0  0  0  0
    4.8559    0.3953   -1.5334 F   0  0  0  0  0  0  0  0  0  0  0  0
    3.3617   -4.1317   -2.7498 C   0  0  0  0  0  0  0  0  0  0  0  0
    2.2198   -3.4467   -2.4739 C   0  0  0  0  0  0  0  0  0  0  0  0
    1.0450   -4.0621   -2.5904 C   0  0  0  0  0  0  0  0  0  0  0  0
    0.9448   -5.3960   -2.8914 C   0  0  0  0  0  0  0  0  0  0  0  0
    0.0378   -5.7317   -2.1097 N   0  0  0  0  0  0  0  0  0  0  0  0
   -1.0383   -6.0030   -2.7280 C   0  0  0  0  0  0  0  0  0  0  0  0
   -1.0441   -7.0473   -3.5457 C   0  0  0  0  0  0  0  0  0  0  0  0
   -2.5846   -7.5823   -3.3559 C   0  0  0  0  0  0  0  0  0  0  0  0
   -3.2295   -8.8416   -3.0979 C   0  0  0  0  0  0  0  0  0  0  0  0
   -4.5045   -8.7822   -2.6390 N   0  0  0  0  0  0  0  0  0  0  0  0
   -4.7771   -7.4662   -2.4364 N   0  0  0  0  0  0  0  0  0  0  0  0
   -6.1056   -7.0415   -1.8642 C   0  0  0  0  0  0  0  0  0  0  0  0
   -6.1540   -6.2677   -0.5122 C   0  0  0  0  0  0  0  0  0  0  0  0
   -7.0158   -6.2527   -2.8322 C   0  0  0  0  0  0  0  0  0  0  0  0
   -3.6793   -6.7287   -2.8981 C   0  0  0  0  0  0  0  0  0  0  0  0
    0.3681   -7.3283   -3.9555 N   0  0  0  0  0  0  0  0  0  0  0  0
    1.6416   -6.2908   -3.6070 C   0  0  0  0  0  0  0  0  0  0  0  0
    3.1253   -5.4737   -3.3909 C   0  0  0  0  0  0  0  0  0  0  0  0
    5.9168   -2.6248   -4.0646 C   0  0  0  0  0  0  0  0  0  0  0  0
    7.7308    0.6855   -6.2238 H   0  0  0  0  0  0  0  0  0  0  0  0
    8.9635   -0.1921   -5.3393 H   0  0  0  0  0  0  0  0  0  0  0  0
    7.5844    0.5547   -4.4619 H   0  0  0  0  0  0  0  0  0  0  0  0
    9.2103   -1.8109   -4.1032 H   0  0  0  0  0  0  0  0  0  0  0  0
   11.3628   -2.9638   -1.5637 H   0  0  0  0  0  0  0  0  0  0  0  0
   10.5782   -1.5807   -2.3380 H   0  0  0  0  0  0  0  0  0  0  0  0
   10.7790   -3.1428   -3.2224 H   0  0  0  0  0  0  0  0  0  0  0  0
    6.9812   -3.8040   -1.0614 H   0  0  0  0  0  0  0  0  0  0  0  0
    5.0639   -3.6398   -0.1085 H   0  0  0  0  0  0  0  0  0  0  0  0
    3.4157   -3.3514   -0.3405 H   0  0  0  0  0  0  0  0  0  0  0  0
    5.6131   -1.3356   -0.0115 H   0  0  0  0  0  0  0  0  0  0  0  0
    3.5421   -0.7905    1.3870 H   0  0  0  0  0  0  0  0  0  0  0  0
    2.1590   -2.5453   -1.8731 H   0  0  0  0  0  0  0  0  0  0  0  0
    0.1601   -3.6041   -2.1114 H   0  0  0  0  0  0  0  0  0  0  0  0
   -1.8613   -5.4240   -2.3949 H   0  0  0  0  0  0  0  0  0  0  0  0
   -2.8014   -9.8201   -3.2141 H   0  0  0  0  0  0  0  0  0  0  0  0
   -6.6382   -7.9853   -1.6600 H   0  0  0  0  0  0  0  0  0  0  0  0
   -5.6532   -5.2974   -0.5734 H   0  0  0  0  0  0  0  0  0  0  0  0
   -5.7411   -6.8392    0.3230 H   0  0  0  0  0  0  0  0  0  0  0  0
   -7.2000   -6.0424   -0.2204 H   0  0  0  0  0  0  0  0  0  0  0  0
   -6.5791   -5.2819   -3.0835 H   0  0  0  0  0  0  0  0  0  0  0  0
   -8.0019   -6.0381   -2.3814 H   0  0  0  0  0  0  0  0  0  0  0  0
   -7.2142   -6.8118   -3.7484 H   0  0  0  0  0  0  0  0  0  0  0  0
   -3.7507   -5.6567   -2.7601 H   0  0  0  0  0  0  0  0  0  0  0  0
    4.0514   -6.0200   -3.6342 H   0  0  0  0  0  0  0  0  0  0  0  0
    5.0627   -2.5840   -4.7339 H   0  0  0  0  0  0  0  0  0  0  0  0
  1  2  1  0  0  0  0
  1 37  1  0  0  0  0
  1 38  1  0  0  0  0
  1 39  1  0  0  0  0
  2  3  1  0  0  0  0
  3  4  1  0  0  0  0
  3 36  2  0  0  0  0
  4  5  2  0  0  0  0
  4 40  1  0  0  0  0
  5  6  1  0  0  0  0
  5  8  1  0  0  0  0
  6  7  1  0  0  0  0
  7 41  1  0  0  0  0
  7 42  1  0  0  0  0
  7 43  1  0  0  0  0
  8  9  2  0  0  0  0
  8 44  1  0  0  0  0
  9 10  1  0  0  0  0
  9 36  1  0  0  0  0
 10 11  1  0  0  0  0
 10 18  1  0  0  0  0
 11 45  1  0  0  0  0
 11 46  1  0  0  0  0
 12 14  1  0  0  0  0
 12 13  1  0  0  0  0
 12 11  1  0  0  0  0
 12 47  1  1  0  0  0
 13 48  1  0  0  0  0
 14 15  1  0  0  0  0
 14 16  1  0  0  0  0
 14 17  1  0  0  0  0
 18 19  1  0  0  0  0
 18 35  2  0  0  0  0
 19 20  2  0  0  0  0
 19 49  1  0  0  0  0
 20 21  1  0  0  0  0
 20 50  1  0  0  0  0
 21 22  1  0  0  0  0
 21 34  2  0  0  0  0
 22 23  2  0  0  0  0
 23 24  1  0  0  0  0
 23 51  1  0  0  0  0
 24 25  1  0  0  0  0
 24 33  2  0  0  0  0
 25 26  1  0  0  0  0
 25 32  2  0  0  0  0
 26 27  2  0  0  0  0
 26 52  1  0  0  0  0
 27 28  1  0  0  0  0
 28 29  1  0  0  0  0
 28 32  1  0  0  0  0
 29 30  1  0  0  0  0
 29 31  1  0  0  0  0
 29 53  1  0  0  0  0
 30 54  1  0  0  0  0
 30 55  1  0  0  0  0
 30 56  1  0  0  0  0
 31 57  1  0  0  0  0
 31 58  1  0  0  0  0
 31 59  1  0  0  0  0
 32 60  1  0  0  0  0
 33 34  1  0  0  0  0
 34 35  1  0  0  0  0
 35 61  1  0  0  0  0
 36 62  1  0  0  0  0
M  END
$$$$
