CHEMBL3893058
 OpenBabel04072215373D

 66 71  0  0  1  0  0  0  0  0999 V2000
   -3.0289    4.1572    3.2481 C   0  0  0  0  0  0  0  0  0  0  0  0
   -1.9227    3.5238    2.6106 O   0  0  0  0  0  0  0  0  0  0  0  0
   -0.6842    4.0745    2.8360 C   0  0  0  0  0  0  0  0  0  0  0  0
   -0.4786    5.1903    3.6410 C   0  0  0  0  0  0  0  0  0  0  0  0
    0.8173    5.7054    3.8514 C   0  0  0  0  0  0  0  0  0  0  0  0
    1.0845    6.8143    4.6670 C   0  0  0  0  0  0  0  0  0  0  0  0
    0.0130    7.4186    5.3771 N   0  0  0  0  0  0  0  0  0  0  0  0
    0.0698    8.7111    5.9529 C   0  0  0  0  0  0  0  0  0  0  0  0
    0.5629    9.7698    5.2005 C   0  0  0  0  0  0  0  0  0  0  0  0
    0.6596   11.0432    5.7497 C   0  0  0  0  0  0  0  0  0  0  0  0
    0.2944   11.3358    7.0797 C   0  0  0  0  0  0  0  0  0  0  0  0
    0.4576   12.6490    7.4979 N   0  0  0  0  0  0  0  0  0  0  0  0
   -0.3516   13.3017    8.5354 C   0  0  0  0  0  0  0  0  0  0  0  0
   -0.6646   14.7617    8.1274 C   0  0  0  0  0  0  0  0  0  0  0  0
    0.5385   15.5518    7.7841 N   0  0  0  0  0  0  0  0  0  0  0  0
    0.1538   16.8907    7.3437 C   0  0  0  0  0  0  0  0  0  0  0  0
    1.2962   14.8483    6.7280 C   0  0  0  0  0  0  0  0  0  0  0  0
    1.6786   13.4096    7.1513 C   0  0  0  0  0  0  0  0  0  0  0  0
   -0.2432   10.2564    7.8327 C   0  0  0  0  0  0  0  0  0  0  0  0
   -0.6562   10.4310    9.5205 Cl  0  0  0  0  0  0  0  0  0  0  0  0
   -0.3774    8.9674    7.2591 C   0  0  0  0  0  0  0  0  0  0  0  0
   -1.0733    7.6328    8.1456 Cl  0  0  0  0  0  0  0  0  0  0  0  0
    2.3255    7.3116    4.7985 N   0  0  0  0  0  0  0  0  0  0  0  0
    3.3013    6.6842    4.1376 C   0  0  0  0  0  0  0  0  0  0  0  0
    3.1558    5.6069    3.3536 N   0  0  0  0  0  0  0  0  0  0  0  0
    1.9169    5.1272    3.2147 C   0  0  0  0  0  0  0  0  0  0  0  0
    1.6986    4.0166    2.4048 C   0  0  0  0  0  0  0  0  0  0  0  0
    0.4189    3.4606    2.2317 C   0  0  0  0  0  0  0  0  0  0  0  0
    0.1758    2.3408    1.4750 O   0  0  0  0  0  0  0  0  0  0  0  0
    1.2345    1.3831    1.3384 C   0  0  1  0  0  0  0  0  0  0  0  0
    1.6468    0.7588    2.6751 C   0  0  0  0  0  0  0  0  0  0  0  0
    1.5730   -0.6711    2.5721 O   0  0  0  0  0  0  0  0  0  0  0  0
    1.3815   -1.0055    1.1987 C   0  0  2  0  0  0  0  0  0  0  0  0
    2.6882   -1.1553    0.4482 C   0  0  1  0  0  0  0  0  0  0  0  0
    3.0767   -2.4533    0.4176 F   0  0  0  0  0  0  0  0  0  0  0  0
    2.3362   -0.6677   -0.9398 C   0  0  0  0  0  0  0  0  0  0  0  0
    1.2070    0.2173   -0.8280 O   0  0  0  0  0  0  0  0  0  0  0  0
    0.7353    0.1843    0.5303 C   0  0  2  0  0  0  0  0  0  0  0  0
   -3.9445    3.6448    2.9419 H   0  0  0  0  0  0  0  0  0  0  0  0
   -3.1206    5.2049    2.9395 H   0  0  0  0  0  0  0  0  0  0  0  0
   -2.9474    4.0757    4.3379 H   0  0  0  0  0  0  0  0  0  0  0  0
   -1.3110    5.6967    4.1139 H   0  0  0  0  0  0  0  0  0  0  0  0
   -0.3854    6.7433    6.0275 H   0  0  0  0  0  0  0  0  0  0  0  0
    0.8777    9.6129    4.1712 H   0  0  0  0  0  0  0  0  0  0  0  0
    1.0169   11.8303    5.0898 H   0  0  0  0  0  0  0  0  0  0  0  0
    0.1892   13.2888    9.4895 H   0  0  0  0  0  0  0  0  0  0  0  0
   -1.3217   12.8130    8.6632 H   0  0  0  0  0  0  0  0  0  0  0  0
   -1.1942   15.2408    8.9585 H   0  0  0  0  0  0  0  0  0  0  0  0
   -1.3517   14.7359    7.2705 H   0  0  0  0  0  0  0  0  0  0  0  0
   -0.3816   17.4133    8.1441 H   0  0  0  0  0  0  0  0  0  0  0  0
   -0.4895   16.8680    6.4571 H   0  0  0  0  0  0  0  0  0  0  0  0
    1.0409   17.4890    7.1127 H   0  0  0  0  0  0  0  0  0  0  0  0
    2.2168   15.3991    6.5033 H   0  0  0  0  0  0  0  0  0  0  0  0
    0.7065   14.7995    5.8015 H   0  0  0  0  0  0  0  0  0  0  0  0
    2.3408   13.4414    8.0257 H   0  0  0  0  0  0  0  0  0  0  0  0
    2.2663   12.9547    6.3467 H   0  0  0  0  0  0  0  0  0  0  0  0
    4.3020    7.0802    4.2515 H   0  0  0  0  0  0  0  0  0  0  0  0
    2.5675    3.6019    1.9044 H   0  0  0  0  0  0  0  0  0  0  0  0
    2.0826    1.8426    0.8168 H   0  0  0  0  0  0  0  0  0  0  0  0
    1.0311    1.0767    3.5213 H   0  0  0  0  0  0  0  0  0  0  0  0
    2.6891    1.0107    2.8996 H   0  0  0  0  0  0  0  0  0  0  0  0
    0.7794   -1.9173    1.1215 H   0  0  0  0  0  0  0  0  0  0  0  0
    3.4977   -0.5686    0.8956 H   0  0  0  0  0  0  0  0  0  0  0  0
    2.0668   -1.4971   -1.6015 H   0  0  0  0  0  0  0  0  0  0  0  0
    3.1666   -0.1227   -1.3984 H   0  0  0  0  0  0  0  0  0  0  0  0
   -0.3583    0.1251    0.5281 H   0  0  0  0  0  0  0  0  0  0  0  0
  1  2  1  0  0  0  0
  1 39  1  0  0  0  0
  1 40  1  0  0  0  0
  1 41  1  0  0  0  0
  2  3  1  0  0  0  0
  3  4  1  0  0  0  0
  3 28  2  0  0  0  0
  4  5  2  0  0  0  0
  4 42  1  0  0  0  0
  5  6  1  0  0  0  0
  5 26  1  0  0  0  0
  6  7  1  0  0  0  0
  6 23  2  0  0  0  0
  7  8  1  0  0  0  0
  7 43  1  0  0  0  0
  8  9  1  0  0  0  0
  8 21  2  0  0  0  0
  9 10  2  0  0  0  0
  9 44  1  0  0  0  0
 10 11  1  0  0  0  0
 10 45  1  0  0  0  0
 11 12  1  0  0  0  0
 11 19  2  0  0  0  0
 12 13  1  0  0  0  0
 12 18  1  0  0  0  0
 13 14  1  0  0  0  0
 13 46  1  0  0  0  0
 13 47  1  0  0  0  0
 14 15  1  0  0  0  0
 14 48  1  0  0  0  0
 14 49  1  0  0  0  0
 15 16  1  0  0  0  0
 15 17  1  0  0  0  0
 16 50  1  0  0  0  0
 16 51  1  0  0  0  0
 16 52  1  0  0  0  0
 17 18  1  0  0  0  0
 17 53  1  0  0  0  0
 17 54  1  0  0  0  0
 18 55  1  0  0  0  0
 18 56  1  0  0  0  0
 19 20  1  0  0  0  0
 19 21  1  0  0  0  0
 21 22  1  0  0  0  0
 23 24  1  0  0  0  0
 24 25  2  0  0  0  0
 24 57  1  0  0  0  0
 25 26  1  0  0  0  0
 26 27  2  0  0  0  0
 27 28  1  0  0  0  0
 27 58  1  0  0  0  0
 28 29  1  0  0  0  0
 30 31  1  0  0  0  0
 30 38  1  0  0  0  0
 30 29  1  0  0  0  0
 30 59  1  6  0  0  0
 31 32  1  0  0  0  0
 31 60  1  0  0  0  0
 31 61  1  0  0  0  0
 32 33  1  0  0  0  0
 33 34  1  0  0  0  0
 33 38  1  0  0  0  0
 33 62  1  6  0  0  0
 34 35  1  0  0  0  0
 34 36  1  0  0  0  0
 34 63  1  1  0  0  0
 36 37  1  0  0  0  0
 36 64  1  0  0  0  0
 36 65  1  0  0  0  0
 37 38  1  0  0  0  0
 38 66  1  1  0  0  0
M  END
$$$$
