CHEMBL3947363
 OpenBabel04072215373D

 52 55  0  0  0  0  0  0  0  0999 V2000
    1.0868   -0.1504   -0.8720 O   0  0  0  0  0  0  0  0  0  0  0  0
    2.1745   -0.0677   -0.3156 C   0  0  0  0  0  0  0  0  0  0  0  0
    2.7318   -1.0837    0.4482 N   0  0  0  0  0  0  0  0  0  0  0  0
    2.1262   -2.3300    0.7356 C   0  0  0  0  0  0  0  0  0  0  0  0
    0.9870   -2.8159    0.0833 C   0  0  0  0  0  0  0  0  0  0  0  0
    0.3636   -3.9996    0.5022 C   0  0  0  0  0  0  0  0  0  0  0  0
    0.8846   -4.7259    1.5697 C   0  0  0  0  0  0  0  0  0  0  0  0
    0.1731   -5.8432    1.9499 O   0  0  0  0  0  0  0  0  0  0  0  0
    0.0932   -6.1787    3.2860 C   0  0  0  0  0  0  0  0  0  0  0  0
    0.1445   -5.2585    4.3269 C   0  0  0  0  0  0  0  0  0  0  0  0
    0.1592   -5.7485    5.6141 C   0  0  0  0  0  0  0  0  0  0  0  0
    0.0567   -7.0559    5.9118 N   0  0  0  0  0  0  0  0  0  0  0  0
   -0.0741   -7.9363    4.9086 C   0  0  0  0  0  0  0  0  0  0  0  0
   -0.2152   -9.3043    5.1952 N   0  0  0  0  0  0  0  0  0  0  0  0
   -0.1273   -9.8433    6.4613 C   0  0  0  0  0  0  0  0  0  0  0  0
    0.1196   -9.2640    7.5094 O   0  0  0  0  0  0  0  0  0  0  0  0
   -0.3796  -11.3174    6.4980 C   0  0  0  0  0  0  0  0  0  0  0  0
   -1.5296  -11.8324    7.3346 C   0  0  0  0  0  0  0  0  0  0  0  0
   -0.1187  -12.1105    7.7610 C   0  0  0  0  0  0  0  0  0  0  0  0
   -0.0760   -7.5349    3.5764 C   0  0  0  0  0  0  0  0  0  0  0  0
    2.0886   -4.3023    2.1373 C   0  0  0  0  0  0  0  0  0  0  0  0
    2.6850   -5.0139    3.1052 F   0  0  0  0  0  0  0  0  0  0  0  0
    2.6943   -3.1069    1.7461 C   0  0  0  0  0  0  0  0  0  0  0  0
    2.9824    1.0608   -0.3413 N   0  0  0  0  0  0  0  0  0  0  0  0
    2.6529    2.3097   -0.9217 C   0  0  0  0  0  0  0  0  0  0  0  0
    1.4128    2.5977   -1.4874 C   0  0  0  0  0  0  0  0  0  0  0  0
    1.1570    3.8461   -2.0598 C   0  0  0  0  0  0  0  0  0  0  0  0
    2.1336    4.8428   -2.0677 C   0  0  0  0  0  0  0  0  0  0  0  0
    1.7007    6.3337   -2.8142 Cl  0  0  0  0  0  0  0  0  0  0  0  0
    3.3823    4.5965   -1.4892 C   0  0  0  0  0  0  0  0  0  0  0  0
    4.4924    5.6117   -1.4094 C   0  0  0  0  0  0  0  0  0  0  0  0
    4.2834    6.8007   -2.0294 F   0  0  0  0  0  0  0  0  0  0  0  0
    4.7960    5.9231   -0.1151 F   0  0  0  0  0  0  0  0  0  0  0  0
    5.6530    5.1266   -1.9404 F   0  0  0  0  0  0  0  0  0  0  0  0
    3.6238    3.3193   -0.9161 C   0  0  0  0  0  0  0  0  0  0  0  0
    3.5444   -0.8425    0.9963 H   0  0  0  0  0  0  0  0  0  0  0  0
    0.5416   -2.2916   -0.7576 H   0  0  0  0  0  0  0  0  0  0  0  0
   -0.5382   -4.3348   -0.0036 H   0  0  0  0  0  0  0  0  0  0  0  0
    0.2172   -4.1914    4.1624 H   0  0  0  0  0  0  0  0  0  0  0  0
    0.2706   -5.0898    6.4699 H   0  0  0  0  0  0  0  0  0  0  0  0
   -0.3859   -9.9246    4.4212 H   0  0  0  0  0  0  0  0  0  0  0  0
   -0.1731  -11.8458    5.5722 H   0  0  0  0  0  0  0  0  0  0  0  0
   -2.1177  -12.6540    6.9460 H   0  0  0  0  0  0  0  0  0  0  0  0
   -2.0947  -11.1178    7.9257 H   0  0  0  0  0  0  0  0  0  0  0  0
    0.2552  -13.1223    7.6626 H   0  0  0  0  0  0  0  0  0  0  0  0
    0.2610  -11.5843    8.6318 H   0  0  0  0  0  0  0  0  0  0  0  0
   -0.1775   -8.2494    2.7678 H   0  0  0  0  0  0  0  0  0  0  0  0
    3.5926   -2.7955    2.2690 H   0  0  0  0  0  0  0  0  0  0  0  0
    3.9212    0.9595    0.0127 H   0  0  0  0  0  0  0  0  0  0  0  0
    0.6034    1.8756   -1.5096 H   0  0  0  0  0  0  0  0  0  0  0  0
    0.1796    4.0266   -2.5029 H   0  0  0  0  0  0  0  0  0  0  0  0
    4.5972    3.1339   -0.4606 H   0  0  0  0  0  0  0  0  0  0  0  0
  1  2  2  0  0  0  0
  2  3  1  0  0  0  0
  2 24  1  0  0  0  0
  3  4  1  0  0  0  0
  3 36  1  0  0  0  0
  4  5  1  0  0  0  0
  4 23  2  0  0  0  0
  5  6  2  0  0  0  0
  5 37  1  0  0  0  0
  6  7  1  0  0  0  0
  6 38  1  0  0  0  0
  7  8  1  0  0  0  0
  7 21  2  0  0  0  0
  8  9  1  0  0  0  0
  9 10  1  0  0  0  0
  9 20  2  0  0  0  0
 10 11  2  0  0  0  0
 10 39  1  0  0  0  0
 11 12  1  0  0  0  0
 11 40  1  0  0  0  0
 12 13  2  0  0  0  0
 13 14  1  0  0  0  0
 13 20  1  0  0  0  0
 14 15  1  0  0  0  0
 14 41  1  0  0  0  0
 15 16  2  0  0  0  0
 15 17  1  0  0  0  0
 17 18  1  0  0  0  0
 17 19  1  0  0  0  0
 17 42  1  0  0  0  0
 18 19  1  0  0  0  0
 18 43  1  0  0  0  0
 18 44  1  0  0  0  0
 19 45  1  0  0  0  0
 19 46  1  0  0  0  0
 20 47  1  0  0  0  0
 21 22  1  0  0  0  0
 21 23  1  0  0  0  0
 23 48  1  0  0  0  0
 24 25  1  0  0  0  0
 24 49  1  0  0  0  0
 25 26  1  0  0  0  0
 25 35  2  0  0  0  0
 26 27  2  0  0  0  0
 26 50  1  0  0  0  0
 27 28  1  0  0  0  0
 27 51  1  0  0  0  0
 28 29  1  0  0  0  0
 28 30  2  0  0  0  0
 30 31  1  0  0  0  0
 30 35  1  0  0  0  0
 31 32  1  0  0  0  0
 31 33  1  0  0  0  0
 31 34  1  0  0  0  0
 35 52  1  0  0  0  0
M  END
$$$$
