CHEMBL4465866
 OpenBabel04072215393D

120130  0  0  1  0  0  0  0  0999 V2000
    1.1090   -4.3937   -1.6504 C   0  0  0  0  0  0  0  0  0  0  0  0
    0.8959   -5.3139   -0.6079 O   0  0  0  0  0  0  0  0  0  0  0  0
    2.0366   -6.0623   -0.1485 C   0  0  2  0  0  0  0  0  0  0  0  0
    2.7977   -5.4094    0.9829 C   0  0  2  0  0  0  0  0  0  0  0  0
    2.7040   -3.9325    0.8819 N   0  0  0  0  0  0  0  0  0  0  0  0
    1.4746   -3.1873    1.2245 C   0  0  0  0  0  0  0  0  0  0  0  0
    1.4841   -1.8138    0.5531 C   0  0  0  0  0  0  0  0  0  0  0  0
    0.1923   -1.2606    0.5843 O   0  0  0  0  0  0  0  0  0  0  0  0
    0.1004   -0.1049   -0.2337 C   0  0  0  0  0  0  0  0  0  0  0  0
    0.3265   -0.3337   -1.7545 C   0  0  0  0  0  0  0  0  0  0  0  0
    1.7021   -0.5386   -2.0404 O   0  0  0  0  0  0  0  0  0  0  0  0
    1.8867   -0.9121   -3.3900 C   0  0  0  0  0  0  0  0  0  0  0  0
    3.3240   -1.4009   -3.6162 C   0  0  0  0  0  0  0  0  0  0  0  0
    3.5521   -2.6444   -2.9994 O   0  0  0  0  0  0  0  0  0  0  0  0
    4.8405   -3.1057   -3.3704 C   0  0  0  0  0  0  0  0  0  0  0  0
    5.1611   -4.3521   -2.5906 C   0  0  0  0  0  0  0  0  0  0  0  0
    5.0428   -4.0927   -1.1679 N   0  0  0  0  0  0  0  0  0  0  0  0
    5.9009   -3.2985   -0.3533 C   0  0  0  0  0  0  0  0  0  0  0  0
    6.8445   -2.8105   -0.9698 O   0  0  0  0  0  0  0  0  0  0  0  0
    5.8786   -2.8813    1.1841 C   0  0  0  0  0  0  0  0  0  0  0  0
    4.7720   -3.1175    2.2845 C   0  0  0  0  0  0  0  0  0  0  0  0
    3.9133   -3.1071    3.5756 C   0  0  0  0  0  0  0  0  0  0  0  0
    3.3526   -4.1087    4.2670 N   0  3  0  0  0  0  0  0  0  0  0  0
    2.1654   -3.5001    4.7403 C   0  0  0  0  0  0  0  0  0  0  0  0
    0.9802   -4.1185    4.5990 C   0  0  0  0  0  0  0  0  0  0  0  0
    0.9679   -5.4958    4.0428 C   0  0  0  0  0  0  0  0  0  0  0  0
    0.0117   -6.0542    3.2099 C   0  0  0  0  0  0  0  0  0  0  0  0
   -1.0234   -5.3225    2.4209 C   0  0  0  0  0  0  0  0  0  0  0  0
    0.4025   -7.3364    2.9245 C   0  0  0  0  0  0  0  0  0  0  0  0
    1.6511   -7.4939    3.4910 C   0  0  0  0  0  0  0  0  0  0  0  0
    2.4284   -8.7602    3.2788 C   0  0  0  0  0  0  0  0  0  0  0  0
    2.0330   -6.3220    4.0992 N   0  0  0  0  0  0  0  0  0  0  0  0
    3.4144   -5.6986    4.5089 B   0  5  0  0  0  0  0  0  0  0  0  0
    3.6072   -5.9478    5.9265 F   0  0  0  0  0  0  0  0  0  0  0  0
    4.5167   -6.3712    3.8903 F   0  0  0  0  0  0  0  0  0  0  0  0
    2.2291   -2.0654    4.7410 C   0  0  0  0  0  0  0  0  0  0  0  0
    3.2994   -1.8074    3.9403 C   0  0  0  0  0  0  0  0  0  0  0  0
    4.2087   -6.0919    1.0695 C   0  0  0  0  0  0  0  0  0  0  0  0
    4.3264   -7.5577    0.7150 C   0  0  1  0  0  0  0  0  0  0  0  0
    3.1144   -8.2246    0.1944 O   0  0  0  0  0  0  0  0  0  0  0  0
    2.4837   -7.4646   -0.8282 C   0  0  1  0  0  0  0  0  0  0  0  0
    1.0083   -7.6528   -1.4804 C   0  0  0  0  0  0  0  0  0  0  0  0
    3.3155   -7.7495   -1.9823 N   0  0  0  0  0  0  0  0  0  0  0  0
    3.0158   -8.7563   -2.8512 C   0  0  0  0  0  0  0  0  0  0  0  0
    2.1427   -9.8327   -2.5963 C   0  0  0  0  0  0  0  0  0  0  0  0
    1.8368  -10.7085   -3.6051 C   0  0  0  0  0  0  0  0  0  0  0  0
    2.4397  -10.5327   -4.8618 C   0  0  0  0  0  0  0  0  0  0  0  0
    3.4456   -9.5401   -5.0593 C   0  0  0  0  0  0  0  0  0  0  0  0
    3.7466   -8.6874   -3.9905 C   0  0  0  0  0  0  0  0  0  0  0  0
    4.8080   -7.8745   -3.6322 C   0  0  0  0  0  0  0  0  0  0  0  0
    6.0201   -7.6335   -4.2000 C   0  0  0  0  0  0  0  0  0  0  0  0
    7.1298   -7.5032   -3.3577 C   0  0  0  0  0  0  0  0  0  0  0  0
    6.9335   -7.6351   -1.9422 C   0  0  0  0  0  0  0  0  0  0  0  0
    7.6792   -7.9805   -0.8128 C   0  0  0  0  0  0  0  0  0  0  0  0
    8.9413   -8.5648   -0.6436 C   0  0  0  0  0  0  0  0  0  0  0  0
    9.3605   -8.8813    0.6717 C   0  0  0  0  0  0  0  0  0  0  0  0
    8.5783   -8.5104    1.7850 C   0  0  0  0  0  0  0  0  0  0  0  0
    7.2980   -7.9790    1.5965 C   0  0  0  0  0  0  0  0  0  0  0  0
    6.8361   -7.8272    0.2846 C   0  0  0  0  0  0  0  0  0  0  0  0
    5.5577   -7.6117   -0.1163 N   0  0  0  0  0  0  0  0  0  0  0  0
    5.6379   -7.5091   -1.4459 C   0  0  0  0  0  0  0  0  0  0  0  0
    4.5881   -7.5620   -2.3180 C   0  0  0  0  0  0  0  0  0  0  0  0
    8.2442   -7.3384   -4.2780 C   0  0  0  0  0  0  0  0  0  0  0  0
    9.4002   -7.1103   -3.9656 O   0  0  0  0  0  0  0  0  0  0  0  0
    7.8027   -7.3499   -5.5630 N   0  0  0  0  0  0  0  0  0  0  0  0
    6.3789   -7.5971   -5.6259 C   0  0  0  0  0  0  0  0  0  0  0  0
    0.3807   -3.5683   -1.4970 H   0  0  0  0  0  0  0  0  0  0  0  0
    0.8621   -4.8022   -2.6431 H   0  0  0  0  0  0  0  0  0  0  0  0
    2.1178   -3.9871   -1.6624 H   0  0  0  0  0  0  0  0  0  0  0  0
    1.4394   -6.6515    0.5915 H   0  0  0  0  0  0  0  0  0  0  0  0
    2.3680   -5.6074    1.9465 H   0  0  0  0  0  0  0  0  0  0  0  0
    3.1507   -3.4596    0.0913 H   0  0  0  0  0  0  0  0  0  0  0  0
    0.5798   -3.6562    0.8393 H   0  0  0  0  0  0  0  0  0  0  0  0
    1.3614   -3.0843    2.3020 H   0  0  0  0  0  0  0  0  0  0  0  0
    2.2540   -1.1416    0.9890 H   0  0  0  0  0  0  0  0  0  0  0  0
    1.7391   -2.0525   -0.4792 H   0  0  0  0  0  0  0  0  0  0  0  0
   -0.9494    0.2394   -0.1218 H   0  0  0  0  0  0  0  0  0  0  0  0
    0.7458    0.7093    0.1586 H   0  0  0  0  0  0  0  0  0  0  0  0
   -0.0068    0.5893   -2.2769 H   0  0  0  0  0  0  0  0  0  0  0  0
   -0.3062   -1.1947   -2.0721 H   0  0  0  0  0  0  0  0  0  0  0  0
    1.7475   -0.0126   -4.0255 H   0  0  0  0  0  0  0  0  0  0  0  0
    1.1914   -1.7231   -3.7103 H   0  0  0  0  0  0  0  0  0  0  0  0
    4.0249   -0.6427   -3.2023 H   0  0  0  0  0  0  0  0  0  0  0  0
    3.4593   -1.5077   -4.7152 H   0  0  0  0  0  0  0  0  0  0  0  0
    4.8666   -3.3786   -4.4496 H   0  0  0  0  0  0  0  0  0  0  0  0
    5.6210   -2.3629   -3.1201 H   0  0  0  0  0  0  0  0  0  0  0  0
    4.3847   -5.0917   -2.9209 H   0  0  0  0  0  0  0  0  0  0  0  0
    6.1489   -4.7927   -2.8320 H   0  0  0  0  0  0  0  0  0  0  0  0
    4.2327   -4.6268   -0.9055 H   0  0  0  0  0  0  0  0  0  0  0  0
    6.8121   -3.2746    1.6152 H   0  0  0  0  0  0  0  0  0  0  0  0
    5.9578   -1.7705    1.1489 H   0  0  0  0  0  0  0  0  0  0  0  0
    4.7106   -4.1265    2.2062 H   0  0  0  0  0  0  0  0  0  0  0  0
    4.0675   -2.4721    1.7432 H   0  0  0  0  0  0  0  0  0  0  0  0
    0.0601   -3.5490    4.6717 H   0  0  0  0  0  0  0  0  0  0  0  0
   -1.1597   -4.2583    2.7083 H   0  0  0  0  0  0  0  0  0  0  0  0
   -0.5269   -5.2692    1.4393 H   0  0  0  0  0  0  0  0  0  0  0  0
   -1.9166   -5.8912    2.1085 H   0  0  0  0  0  0  0  0  0  0  0  0
   -0.0991   -8.0313    2.2592 H   0  0  0  0  0  0  0  0  0  0  0  0
    1.8311   -9.6288    3.6292 H   0  0  0  0  0  0  0  0  0  0  0  0
    3.4180   -8.7547    3.7666 H   0  0  0  0  0  0  0  0  0  0  0  0
    2.5366   -8.9629    2.2120 H   0  0  0  0  0  0  0  0  0  0  0  0
    1.4994   -1.3403    5.0720 H   0  0  0  0  0  0  0  0  0  0  0  0
    3.5682   -0.8332    3.5575 H   0  0  0  0  0  0  0  0  0  0  0  0
    4.9896   -5.5607    0.5607 H   0  0  0  0  0  0  0  0  0  0  0  0
    4.9005   -5.9933    1.8924 H   0  0  0  0  0  0  0  0  0  0  0  0
    4.5601   -8.0658    1.6717 H   0  0  0  0  0  0  0  0  0  0  0  0
    0.1079   -7.5738   -0.8492 H   0  0  0  0  0  0  0  0  0  0  0  0
    1.0342   -6.8386   -2.2347 H   0  0  0  0  0  0  0  0  0  0  0  0
    0.6812   -8.1669   -2.3893 H   0  0  0  0  0  0  0  0  0  0  0  0
    1.6851   -9.9795   -1.6161 H   0  0  0  0  0  0  0  0  0  0  0  0
    1.1230  -11.5003   -3.3878 H   0  0  0  0  0  0  0  0  0  0  0  0
    2.1624  -11.2184   -5.6386 H   0  0  0  0  0  0  0  0  0  0  0  0
    3.9865   -9.5016   -5.9850 H   0  0  0  0  0  0  0  0  0  0  0  0
    9.5338   -8.8747   -1.4944 H   0  0  0  0  0  0  0  0  0  0  0  0
   10.2864   -9.4177    0.8425 H   0  0  0  0  0  0  0  0  0  0  0  0
    8.9314   -8.6946    2.7940 H   0  0  0  0  0  0  0  0  0  0  0  0
    6.6817   -7.7409    2.4531 H   0  0  0  0  0  0  0  0  0  0  0  0
    8.3869   -7.1865   -6.3954 H   0  0  0  0  0  0  0  0  0  0  0  0
    5.8393   -6.7380   -6.0939 H   0  0  0  0  0  0  0  0  0  0  0  0
    6.1376   -8.5409   -6.1485 H   0  0  0  0  0  0  0  0  0  0  0  0
  1  2  1  0  0  0  0
  1 67  1  0  0  0  0
  1 68  1  0  0  0  0
  1 69  1  0  0  0  0
  2  3  1  0  0  0  0
  3  4  1  0  0  0  0
  3 41  1  0  0  0  0
  3 70  1  1  0  0  0
  4  5  1  0  0  0  0
  4 38  1  0  0  0  0
  4 71  1  1  0  0  0
  5  6  1  0  0  0  0
  5 72  1  0  0  0  0
  6  7  1  0  0  0  0
  6 73  1  0  0  0  0
  6 74  1  0  0  0  0
  7  8  1  0  0  0  0
  7 75  1  0  0  0  0
  7 76  1  0  0  0  0
  8  9  1  0  0  0  0
  9 10  1  0  0  0  0
  9 77  1  0  0  0  0
  9 78  1  0  0  0  0
 10 11  1  0  0  0  0
 10 79  1  0  0  0  0
 10 80  1  0  0  0  0
 11 12  1  0  0  0  0
 12 13  1  0  0  0  0
 12 81  1  0  0  0  0
 12 82  1  0  0  0  0
 13 14  1  0  0  0  0
 13 83  1  0  0  0  0
 13 84  1  0  0  0  0
 14 15  1  0  0  0  0
 15 16  1  0  0  0  0
 15 85  1  0  0  0  0
 15 86  1  0  0  0  0
 16 17  1  0  0  0  0
 16 87  1  0  0  0  0
 16 88  1  0  0  0  0
 17 18  1  0  0  0  0
 17 89  1  0  0  0  0
 18 19  2  0  0  0  0
 18 20  1  0  0  0  0
 20 21  1  0  0  0  0
 20 90  1  0  0  0  0
 20 91  1  0  0  0  0
 21 22  1  0  0  0  0
 21 92  1  0  0  0  0
 21 93  1  0  0  0  0
 22 23  2  0  0  0  0
 22 37  1  0  0  0  0
 23 24  1  0  0  0  0
 23 33  1  0  0  0  0
 24 25  2  0  0  0  0
 24 36  1  0  0  0  0
 25 26  1  0  0  0  0
 25 94  1  0  0  0  0
 26 27  2  0  0  0  0
 26 32  1  0  0  0  0
 27 28  1  0  0  0  0
 27 29  1  0  0  0  0
 28 95  1  0  0  0  0
 28 96  1  0  0  0  0
 28 97  1  0  0  0  0
 29 30  2  0  0  0  0
 29 98  1  0  0  0  0
 30 31  1  0  0  0  0
 30 32  1  0  0  0  0
 31 99  1  0  0  0  0
 31100  1  0  0  0  0
 31101  1  0  0  0  0
 32 33  1  0  0  0  0
 33 34  1  0  0  0  0
 33 35  1  0  0  0  0
 36 37  2  0  0  0  0
 36102  1  0  0  0  0
 37103  1  0  0  0  0
 38 39  1  0  0  0  0
 38104  1  0  0  0  0
 38105  1  0  0  0  0
 39 40  1  0  0  0  0
 39 60  1  0  0  0  0
 39106  1  1  0  0  0
 40 41  1  0  0  0  0
 41 42  1  6  0  0  0
 41 43  1  0  0  0  0
 42107  1  0  0  0  0
 42108  1  0  0  0  0
 42109  1  0  0  0  0
 43 44  1  0  0  0  0
 43 62  1  0  0  0  0
 44 45  1  0  0  0  0
 44 49  2  0  0  0  0
 45 46  2  0  0  0  0
 45110  1  0  0  0  0
 46 47  1  0  0  0  0
 46111  1  0  0  0  0
 47 48  2  0  0  0  0
 47112  1  0  0  0  0
 48 49  1  0  0  0  0
 48113  1  0  0  0  0
 49 50  1  0  0  0  0
 50 51  1  0  0  0  0
 50 62  2  0  0  0  0
 51 52  2  0  0  0  0
 51 66  1  0  0  0  0
 52 53  1  0  0  0  0
 52 63  1  0  0  0  0
 53 54  1  0  0  0  0
 53 61  2  0  0  0  0
 54 55  1  0  0  0  0
 54 59  2  0  0  0  0
 55 56  2  0  0  0  0
 55114  1  0  0  0  0
 56 57  1  0  0  0  0
 56115  1  0  0  0  0
 57 58  2  0  0  0  0
 57116  1  0  0  0  0
 58 59  1  0  0  0  0
 58117  1  0  0  0  0
 59 60  1  0  0  0  0
 60 61  1  0  0  0  0
 61 62  1  0  0  0  0
 63 64  2  0  0  0  0
 63 65  1  0  0  0  0
 65 66  1  0  0  0  0
 65118  1  0  0  0  0
 66119  1  0  0  0  0
 66120  1  0  0  0  0
M  CHG  2  23   1  33  -1
M  END
$$$$
