CHEMBL327029
 OpenBabel04072215363D

 33 36  0  0  0  0  0  0  0  0999 V2000
    2.7621    0.4596    0.9094 O   0  0  0  0  0  0  0  0  0  0  0  0
    2.4703    0.3338   -0.2813 C   0  0  0  0  0  0  0  0  0  0  0  0
    1.4672    1.2683   -0.8991 C   0  0  0  0  0  0  0  0  0  0  0  0
    0.9656    0.9693   -2.1095 C   0  0  0  0  0  0  0  0  0  0  0  0
    0.2136   -0.3105   -2.1088 C   0  0  0  0  0  0  0  0  0  0  0  0
   -1.1839   -0.2930   -2.1451 C   0  0  0  0  0  0  0  0  0  0  0  0
   -1.8893   -1.4946   -2.0991 C   0  0  0  0  0  0  0  0  0  0  0  0
   -1.2040   -2.7075   -2.0343 C   0  0  0  0  0  0  0  0  0  0  0  0
    0.1938   -2.7307   -1.9983 C   0  0  0  0  0  0  0  0  0  0  0  0
    0.9182   -1.5321   -2.0102 C   0  0  0  0  0  0  0  0  0  0  0  0
    2.3940   -1.5674   -1.8969 C   0  0  0  0  0  0  0  0  0  0  0  0
    3.1164   -0.7321   -1.1246 C   0  0  0  0  0  0  0  0  0  0  0  0
    4.5315   -0.8868   -1.0284 C   0  0  0  0  0  0  0  0  0  0  0  0
    5.4352   -1.2591   -1.9178 N   0  0  0  0  0  0  0  0  0  0  0  0
    6.6525   -1.1623   -1.2778 C   0  0  0  0  0  0  0  0  0  0  0  0
    7.9503   -1.3929   -1.7583 C   0  0  0  0  0  0  0  0  0  0  0  0
    9.0321   -1.2405   -0.8778 C   0  0  0  0  0  0  0  0  0  0  0  0
    8.8274   -0.8639    0.4526 C   0  0  0  0  0  0  0  0  0  0  0  0
    7.5429   -0.6109    0.9447 C   0  0  0  0  0  0  0  0  0  0  0  0
    6.4884   -0.7695    0.0445 C   0  0  0  0  0  0  0  0  0  0  0  0
    5.1386   -0.5972    0.1753 N   0  0  0  0  0  0  0  0  0  0  0  0
    0.7940    1.6018   -0.1113 H   0  0  0  0  0  0  0  0  0  0  0  0
    1.6605    0.9283   -2.9555 H   0  0  0  0  0  0  0  0  0  0  0  0
   -1.7243    0.6493   -2.1916 H   0  0  0  0  0  0  0  0  0  0  0  0
   -2.9767   -1.4835   -2.1079 H   0  0  0  0  0  0  0  0  0  0  0  0
   -1.7611   -3.6434   -1.9994 H   0  0  0  0  0  0  0  0  0  0  0  0
    0.7054   -3.6873   -1.9265 H   0  0  0  0  0  0  0  0  0  0  0  0
    2.8916   -2.3501   -2.4570 H   0  0  0  0  0  0  0  0  0  0  0  0
    8.1070   -1.6812   -2.7913 H   0  0  0  0  0  0  0  0  0  0  0  0
   10.0431   -1.4209   -1.2354 H   0  0  0  0  0  0  0  0  0  0  0  0
    9.6820   -0.7617    1.1188 H   0  0  0  0  0  0  0  0  0  0  0  0
    7.3800   -0.3102    1.9737 H   0  0  0  0  0  0  0  0  0  0  0  0
    4.6501   -0.2808    1.0056 H   0  0  0  0  0  0  0  0  0  0  0  0
  1  2  2  0  0  0  0
  2  3  1  0  0  0  0
  2 12  1  0  0  0  0
  3  4  2  0  0  0  0
  3 22  1  0  0  0  0
  4  5  1  0  0  0  0
  4 23  1  0  0  0  0
  5  6  1  0  0  0  0
  5 10  2  0  0  0  0
  6  7  2  0  0  0  0
  6 24  1  0  0  0  0
  7  8  1  0  0  0  0
  7 25  1  0  0  0  0
  8  9  2  0  0  0  0
  8 26  1  0  0  0  0
  9 10  1  0  0  0  0
  9 27  1  0  0  0  0
 10 11  1  0  0  0  0
 11 12  2  0  0  0  0
 11 28  1  0  0  0  0
 12 13  1  0  0  0  0
 13 14  2  0  0  0  0
 13 21  1  0  0  0  0
 14 15  1  0  0  0  0
 15 16  1  0  0  0  0
 15 20  2  0  0  0  0
 16 17  2  0  0  0  0
 16 29  1  0  0  0  0
 17 18  1  0  0  0  0
 17 30  1  0  0  0  0
 18 19  2  0  0  0  0
 18 31  1  0  0  0  0
 19 20  1  0  0  0  0
 19 32  1  0  0  0  0
 20 21  1  0  0  0  0
 21 33  1  0  0  0  0
M  END
$$$$
