CHEMBL1994555
 OpenBabel04072215363D

 35 37  0  0  0  0  0  0  0  0999 V2000
    0.9811    0.0303   -0.4157 C   0  0  0  0  0  0  0  0  0  0  0  0
    2.4716   -0.0483   -0.1195 C   0  0  0  0  0  0  0  0  0  0  0  0
    2.9575   -1.3946    0.3353 C   0  0  0  0  0  0  0  0  0  0  0  0
    4.0308   -1.6700    1.1978 C   0  0  0  0  0  0  0  0  0  0  0  0
    5.0252   -0.7902    1.8283 C   0  0  0  0  0  0  0  0  0  0  0  0
    5.5667   -1.0835    3.0875 C   0  0  0  0  0  0  0  0  0  0  0  0
    6.5667   -0.2730    3.6416 C   0  0  0  0  0  0  0  0  0  0  0  0
    7.0468    0.8417    2.9440 C   0  0  0  0  0  0  0  0  0  0  0  0
    8.1223    1.6599    3.5695 C   0  0  0  0  0  0  0  0  0  0  0  0
    9.1029    2.4019    2.6956 C   0  0  0  0  0  0  0  0  0  0  0  0
    8.2115    1.6972    4.7939 O   0  0  0  0  0  0  0  0  0  0  0  0
    6.4930    1.1606    1.7041 C   0  0  0  0  0  0  0  0  0  0  0  0
    5.4930    0.3489    1.1570 C   0  0  0  0  0  0  0  0  0  0  0  0
    4.0852   -3.0487    1.3508 N   0  0  0  0  0  0  0  0  0  0  0  0
    3.1218   -3.6519    0.5871 C   0  0  0  0  0  0  0  0  0  0  0  0
    2.9044   -4.9807    0.4894 N   0  0  0  0  0  0  0  0  0  0  0  0
    1.8755   -5.2393   -0.3556 C   0  0  0  0  0  0  0  0  0  0  0  0
    1.1575   -4.2632   -1.0328 C   0  0  0  0  0  0  0  0  0  0  0  0
    1.4008   -2.9413   -0.9210 N   0  0  0  0  0  0  0  0  0  0  0  0
    2.4184   -2.6513   -0.0669 C   0  0  0  0  0  0  0  0  0  0  0  0
    0.6916    1.0620   -0.6365 H   0  0  0  0  0  0  0  0  0  0  0  0
    0.3899   -0.3200    0.4368 H   0  0  0  0  0  0  0  0  0  0  0  0
    0.7132   -0.5691   -1.2909 H   0  0  0  0  0  0  0  0  0  0  0  0
    2.6887    0.6969    0.6547 H   0  0  0  0  0  0  0  0  0  0  0  0
    3.0298    0.2432   -1.0180 H   0  0  0  0  0  0  0  0  0  0  0  0
    5.2204   -1.9392    3.6619 H   0  0  0  0  0  0  0  0  0  0  0  0
    6.9778   -0.5208    4.6192 H   0  0  0  0  0  0  0  0  0  0  0  0
    8.9912    2.1697    1.6353 H   0  0  0  0  0  0  0  0  0  0  0  0
   10.1153    2.1066    2.9872 H   0  0  0  0  0  0  0  0  0  0  0  0
    8.9774    3.4777    2.8430 H   0  0  0  0  0  0  0  0  0  0  0  0
    6.8120    2.0365    1.1454 H   0  0  0  0  0  0  0  0  0  0  0  0
    5.0942    0.6168    0.1821 H   0  0  0  0  0  0  0  0  0  0  0  0
    4.7561   -3.5578    1.8978 H   0  0  0  0  0  0  0  0  0  0  0  0
    1.6279   -6.2874   -0.4819 H   0  0  0  0  0  0  0  0  0  0  0  0
    0.3432   -4.5265   -1.6988 H   0  0  0  0  0  0  0  0  0  0  0  0
  1  2  1  0  0  0  0
  1 21  1  0  0  0  0
  1 22  1  0  0  0  0
  1 23  1  0  0  0  0
  2  3  1  0  0  0  0
  2 24  1  0  0  0  0
  2 25  1  0  0  0  0
  3  4  2  0  0  0  0
  3 20  1  0  0  0  0
  4  5  1  0  0  0  0
  4 14  1  0  0  0  0
  5  6  1  0  0  0  0
  5 13  2  0  0  0  0
  6  7  2  0  0  0  0
  6 26  1  0  0  0  0
  7  8  1  0  0  0  0
  7 27  1  0  0  0  0
  8  9  1  0  0  0  0
  8 12  2  0  0  0  0
  9 10  1  0  0  0  0
  9 11  2  0  0  0  0
 10 28  1  0  0  0  0
 10 29  1  0  0  0  0
 10 30  1  0  0  0  0
 12 13  1  0  0  0  0
 12 31  1  0  0  0  0
 13 32  1  0  0  0  0
 14 15  1  0  0  0  0
 14 33  1  0  0  0  0
 15 16  1  0  0  0  0
 15 20  2  0  0  0  0
 16 17  2  0  0  0  0
 17 18  1  0  0  0  0
 17 34  1  0  0  0  0
 18 19  2  0  0  0  0
 18 35  1  0  0  0  0
 19 20  1  0  0  0  0
M  END
$$$$
