CHEMBL1085294
 OpenBabel04072215363D

 67 73  0  0  1  0  0  0  0  0999 V2000
    3.3942   -1.6835    0.2176 C   0  0  0  0  0  0  0  0  0  0  0  0
    3.0395   -0.1927    0.2428 C   0  0  0  0  0  0  0  0  0  0  0  0
    1.5062   -0.0525    0.2001 C   0  0  0  0  0  0  0  0  0  0  0  0
    3.6341    0.5416    1.4767 C   0  0  0  0  0  0  0  0  0  0  0  0
    5.0916    0.6717    1.4723 N   0  0  0  0  0  0  0  0  0  0  0  0
    5.7962    1.6900    0.7913 C   0  0  0  0  0  0  0  0  0  0  0  0
    5.3587    2.8077    0.0588 C   0  0  0  0  0  0  0  0  0  0  0  0
    6.3328    3.6803   -0.4677 C   0  0  0  0  0  0  0  0  0  0  0  0
    7.7084    3.4692   -0.2912 C   0  0  0  0  0  0  0  0  0  0  0  0
    8.7755    4.4766   -0.7173 C   0  0  3  0  0  0  0  0  0  0  0  0
    8.4785    5.3474   -1.9388 C   0  0  0  0  0  0  0  0  0  0  0  0
    8.5255    4.5285   -3.2212 C   0  0  0  0  0  0  0  0  0  0  0  0
    9.8401    3.7686   -3.3327 C   0  0  0  0  0  0  0  0  0  0  0  0
   10.2257    3.0640   -2.0403 C   0  0  0  0  0  0  0  0  0  0  0  0
   10.0819    3.8890   -0.8842 O   0  0  0  0  0  0  0  0  0  0  0  0
    8.1112    2.3290    0.4151 C   0  0  0  0  0  0  0  0  0  0  0  0
    7.1622    1.4321    0.9297 C   0  0  0  0  0  0  0  0  0  0  0  0
    7.1867    0.2160    1.5707 C   0  0  0  0  0  0  0  0  0  0  0  0
    8.2891   -0.6483    1.6114 C   0  0  0  0  0  0  0  0  0  0  0  0
    7.9731   -1.9880    1.9391 C   0  0  0  0  0  0  0  0  0  0  0  0
    6.6778   -2.3933    2.3295 C   0  0  0  0  0  0  0  0  0  0  0  0
    5.9486   -1.3240    2.9306 C   0  0  0  0  0  0  0  0  0  0  0  0
    5.9935   -0.1854    2.0991 C   0  0  0  0  0  0  0  0  0  0  0  0
    6.4274   -1.2224    4.4601 C   0  0  0  0  0  0  0  0  0  0  0  0
    6.9221   -2.5557    5.1599 C   0  0  0  0  0  0  0  0  0  0  0  0
    6.6189   -3.7320    4.3075 C   0  0  0  0  0  0  0  0  0  0  0  0
    6.4918   -3.6744    2.9424 C   0  0  0  0  0  0  0  0  0  0  0  0
    5.9514   -4.9070    2.5693 C   0  0  0  0  0  0  0  0  0  0  0  0
    5.9416   -5.7670    3.5966 N   0  0  0  0  0  0  0  0  0  0  0  0
    6.4716   -5.0519    4.6188 N   0  0  0  0  0  0  0  0  0  0  0  0
    6.9193   -5.7412    5.8029 C   0  0  0  0  0  0  0  0  0  0  0  0
    9.2134   -2.7248    1.9682 C   0  0  0  0  0  0  0  0  0  0  0  0
    9.5076   -3.8745    2.2640 O   0  0  0  0  0  0  0  0  0  0  0  0
   10.1826   -1.7788    1.6378 N   0  0  0  0  0  0  0  0  0  0  0  0
    9.7085   -0.4400    1.3553 C   0  0  0  0  0  0  0  0  0  0  0  0
    2.9566   -2.1634   -0.6651 H   0  0  0  0  0  0  0  0  0  0  0  0
    2.9962   -2.1932    1.1014 H   0  0  0  0  0  0  0  0  0  0  0  0
    4.4805   -1.8406    0.1667 H   0  0  0  0  0  0  0  0  0  0  0  0
    3.4363    0.2643   -0.6727 H   0  0  0  0  0  0  0  0  0  0  0  0
    1.0396   -0.5163    1.0746 H   0  0  0  0  0  0  0  0  0  0  0  0
    1.0981   -0.5362   -0.6930 H   0  0  0  0  0  0  0  0  0  0  0  0
    1.2060    1.0007    0.1700 H   0  0  0  0  0  0  0  0  0  0  0  0
    3.3423    0.0355    2.4026 H   0  0  0  0  0  0  0  0  0  0  0  0
    3.2273    1.5579    1.5280 H   0  0  0  0  0  0  0  0  0  0  0  0
    4.3044    3.0057   -0.1007 H   0  0  0  0  0  0  0  0  0  0  0  0
    5.9747    4.5508   -1.0113 H   0  0  0  0  0  0  0  0  0  0  0  0
    8.8787    5.1524    0.1421 H   0  0  0  0  0  0  0  0  0  0  0  0
    9.2554    6.1215   -2.0031 H   0  0  0  0  0  0  0  0  0  0  0  0
    7.5226    5.8718   -1.8479 H   0  0  0  0  0  0  0  0  0  0  0  0
    8.4091    5.1912   -4.0853 H   0  0  0  0  0  0  0  0  0  0  0  0
    7.6872    3.8233   -3.2428 H   0  0  0  0  0  0  0  0  0  0  0  0
   10.6317    4.4804   -3.5945 H   0  0  0  0  0  0  0  0  0  0  0  0
    9.7844    3.0379   -4.1471 H   0  0  0  0  0  0  0  0  0  0  0  0
   11.2808    2.7706   -2.0928 H   0  0  0  0  0  0  0  0  0  0  0  0
    9.6548    2.1392   -1.9105 H   0  0  0  0  0  0  0  0  0  0  0  0
    9.1674    2.1485    0.5794 H   0  0  0  0  0  0  0  0  0  0  0  0
    5.6428   -0.7450    5.0538 H   0  0  0  0  0  0  0  0  0  0  0  0
    7.2889   -0.5335    4.4822 H   0  0  0  0  0  0  0  0  0  0  0  0
    6.4750   -2.6434    6.1542 H   0  0  0  0  0  0  0  0  0  0  0  0
    8.0115   -2.5033    5.3060 H   0  0  0  0  0  0  0  0  0  0  0  0
    5.5492   -5.2148    1.6141 H   0  0  0  0  0  0  0  0  0  0  0  0
    6.5796   -6.7807    5.7679 H   0  0  0  0  0  0  0  0  0  0  0  0
    6.5108   -5.2406    6.6811 H   0  0  0  0  0  0  0  0  0  0  0  0
    8.0134   -5.7184    5.8136 H   0  0  0  0  0  0  0  0  0  0  0  0
   11.1575   -2.0296    1.7102 H   0  0  0  0  0  0  0  0  0  0  0  0
    9.9303   -0.1913    0.3172 H   0  0  0  0  0  0  0  0  0  0  0  0
   10.1576    0.2636    2.0602 H   0  0  0  0  0  0  0  0  0  0  0  0
  1  2  1  0  0  0  0
  1 36  1  0  0  0  0
  1 37  1  0  0  0  0
  1 38  1  0  0  0  0
  2  3  1  0  0  0  0
  2  4  1  0  0  0  0
  2 39  1  0  0  0  0
  3 40  1  0  0  0  0
  3 41  1  0  0  0  0
  3 42  1  0  0  0  0
  4  5  1  0  0  0  0
  4 43  1  0  0  0  0
  4 44  1  0  0  0  0
  5  6  1  0  0  0  0
  5 23  1  0  0  0  0
  6  7  1  0  0  0  0
  6 17  2  0  0  0  0
  7  8  2  0  0  0  0
  7 45  1  0  0  0  0
  8  9  1  0  0  0  0
  8 46  1  0  0  0  0
  9 10  1  0  0  0  0
  9 16  2  0  0  0  0
 10 11  1  0  0  0  0
 10 15  1  0  0  0  0
 10 47  1  0  0  0  0
 11 12  1  0  0  0  0
 11 48  1  0  0  0  0
 11 49  1  0  0  0  0
 12 13  1  0  0  0  0
 12 50  1  0  0  0  0
 12 51  1  0  0  0  0
 13 14  1  0  0  0  0
 13 52  1  0  0  0  0
 13 53  1  0  0  0  0
 14 15  1  0  0  0  0
 14 54  1  0  0  0  0
 14 55  1  0  0  0  0
 16 17  1  0  0  0  0
 16 56  1  0  0  0  0
 17 18  1  0  0  0  0
 18 19  1  0  0  0  0
 18 23  2  0  0  0  0
 19 20  2  0  0  0  0
 19 35  1  0  0  0  0
 20 21  1  0  0  0  0
 20 32  1  0  0  0  0
 21 22  2  0  0  0  0
 21 27  1  0  0  0  0
 22 23  1  0  0  0  0
 22 24  1  0  0  0  0
 24 25  1  0  0  0  0
 24 57  1  0  0  0  0
 24 58  1  0  0  0  0
 25 26  1  0  0  0  0
 25 59  1  0  0  0  0
 25 60  1  0  0  0  0
 26 27  2  0  0  0  0
 26 30  1  0  0  0  0
 27 28  1  0  0  0  0
 28 29  2  0  0  0  0
 28 61  1  0  0  0  0
 29 30  1  0  0  0  0
 30 31  1  0  0  0  0
 31 62  1  0  0  0  0
 31 63  1  0  0  0  0
 31 64  1  0  0  0  0
 32 33  2  0  0  0  0
 32 34  1  0  0  0  0
 34 35  1  0  0  0  0
 34 65  1  0  0  0  0
 35 66  1  0  0  0  0
 35 67  1  0  0  0  0
M  END
$$$$
