CHEMBL3952789
 OpenBabel04072215373D

 61 65  0  0  0  0  0  0  0  0999 V2000
    1.4115   -0.0328    0.6653 C   0  0  0  0  0  0  0  0  0  0  0  0
    2.0011    0.2046   -0.6096 O   0  0  0  0  0  0  0  0  0  0  0  0
    2.7413    1.3368   -0.7044 C   0  0  0  0  0  0  0  0  0  0  0  0
    2.5152    2.4516    0.0004 C   0  0  0  0  0  0  0  0  0  0  0  0
    3.3904    3.5296   -0.1155 C   0  0  0  0  0  0  0  0  0  0  0  0
    3.2096    4.6778    0.5980 O   0  0  0  0  0  0  0  0  0  0  0  0
    2.5716    4.4609    1.8520 C   0  0  0  0  0  0  0  0  0  0  0  0
    4.5346    3.4848   -0.9334 C   0  0  0  0  0  0  0  0  0  0  0  0
    4.8770    2.3466   -1.6273 C   0  0  0  0  0  0  0  0  0  0  0  0
    6.1000    2.2658   -2.4308 N   0  0  0  0  0  0  0  0  0  0  0  0
    6.7347    0.8454   -2.5463 C   0  0  0  0  0  0  0  0  0  0  0  0
    7.1141    0.3062   -1.1767 C   0  0  0  0  0  0  0  0  0  0  0  0
    7.4396   -0.1563   -0.0019 C   0  0  0  0  0  0  0  0  0  0  0  0
    7.8405   -0.7602    1.3059 C   0  0  0  0  0  0  0  0  0  0  0  0
    8.5370   -1.9585    1.3920 C   0  0  0  0  0  0  0  0  0  0  0  0
    8.6811   -2.6024    2.6409 C   0  0  0  0  0  0  0  0  0  0  0  0
    9.1951   -3.9408    2.7276 C   0  0  0  0  0  0  0  0  0  0  0  0
    9.5886   -5.0302    2.8126 N   0  0  0  0  0  0  0  0  0  0  0  0
    8.3099   -1.9447    3.8046 C   0  0  0  0  0  0  0  0  0  0  0  0
    7.8080   -0.6737    3.6544 C   0  0  0  0  0  0  0  0  0  0  0  0
    7.4731   -0.1294    2.4472 N   0  0  0  0  0  0  0  0  0  0  0  0
    7.0832    3.3655   -2.4613 C   0  0  0  0  0  0  0  0  0  0  0  0
    7.7652    3.4728   -3.6317 C   0  0  0  0  0  0  0  0  0  0  0  0
    8.7383    4.3994   -3.6687 C   0  0  0  0  0  0  0  0  0  0  0  0
    9.1932    5.1422   -2.5927 C   0  0  0  0  0  0  0  0  0  0  0  0
   10.4431    4.9657   -2.6931 N   0  0  0  0  0  0  0  0  0  0  0  0
   10.9674    5.8982   -3.4098 C   0  0  0  0  0  0  0  0  0  0  0  0
   11.1013    7.0101   -2.7562 C   0  0  0  0  0  0  0  0  0  0  0  0
   12.4916    7.6890   -3.6945 C   0  0  0  0  0  0  0  0  0  0  0  0
   13.0839    7.6342   -5.1365 C   0  0  0  0  0  0  0  0  0  0  0  0
   13.8128    8.7094   -5.5834 N   0  0  0  0  0  0  0  0  0  0  0  0
   13.6897    9.6445   -4.6324 N   0  0  0  0  0  0  0  0  0  0  0  0
   14.3069   11.0015   -4.7968 C   0  0  0  0  0  0  0  0  0  0  0  0
   12.8689    9.1099   -3.5800 C   0  0  0  0  0  0  0  0  0  0  0  0
   10.0066    6.8943   -1.5520 N   0  0  0  0  0  0  0  0  0  0  0  0
    8.7982    5.6050   -1.4661 C   0  0  0  0  0  0  0  0  0  0  0  0
    7.5853    4.3259   -1.3501 C   0  0  0  0  0  0  0  0  0  0  0  0
    3.8212    1.4140   -1.5626 C   0  0  0  0  0  0  0  0  0  0  0  0
    0.9235   -1.0131    0.6567 H   0  0  0  0  0  0  0  0  0  0  0  0
    0.6545    0.7286    0.8778 H   0  0  0  0  0  0  0  0  0  0  0  0
    2.1555   -0.0779    1.4598 H   0  0  0  0  0  0  0  0  0  0  0  0
    1.6299    2.4653    0.6024 H   0  0  0  0  0  0  0  0  0  0  0  0
    2.5033    5.4217    2.3501 H   0  0  0  0  0  0  0  0  0  0  0  0
    3.1536    3.7826    2.4938 H   0  0  0  0  0  0  0  0  0  0  0  0
    1.5550    4.0724    1.7058 H   0  0  0  0  0  0  0  0  0  0  0  0
    5.1384    4.3722   -1.0538 H   0  0  0  0  0  0  0  0  0  0  0  0
    7.5797    0.7765   -3.2389 H   0  0  0  0  0  0  0  0  0  0  0  0
    5.9067    0.2402   -2.9337 H   0  0  0  0  0  0  0  0  0  0  0  0
    8.9610   -2.4013    0.5023 H   0  0  0  0  0  0  0  0  0  0  0  0
    8.4226   -2.3881    4.7909 H   0  0  0  0  0  0  0  0  0  0  0  0
    7.6740   -0.0415    4.5331 H   0  0  0  0  0  0  0  0  0  0  0  0
    7.7865    2.7828   -4.4633 H   0  0  0  0  0  0  0  0  0  0  0  0
    9.4350    4.3743   -4.4956 H   0  0  0  0  0  0  0  0  0  0  0  0
   11.3269    5.6349   -4.3721 H   0  0  0  0  0  0  0  0  0  0  0  0
   13.0402    6.8969   -5.9401 H   0  0  0  0  0  0  0  0  0  0  0  0
   15.0069   11.0849   -5.6554 H   0  0  0  0  0  0  0  0  0  0  0  0
   14.8917   11.2701   -3.9054 H   0  0  0  0  0  0  0  0  0  0  0  0
   13.5452   11.7814   -4.9534 H   0  0  0  0  0  0  0  0  0  0  0  0
   12.5971    9.8680   -2.8686 H   0  0  0  0  0  0  0  0  0  0  0  0
    6.9383    4.1246   -0.4568 H   0  0  0  0  0  0  0  0  0  0  0  0
    3.5669    0.8557   -2.4345 H   0  0  0  0  0  0  0  0  0  0  0  0
  1  2  1  0  0  0  0
  1 39  1  0  0  0  0
  1 40  1  0  0  0  0
  1 41  1  0  0  0  0
  2  3  1  0  0  0  0
  3  4  1  0  0  0  0
  3 38  2  0  0  0  0
  4  5  2  0  0  0  0
  4 42  1  0  0  0  0
  5  6  1  0  0  0  0
  5  8  1  0  0  0  0
  6  7  1  0  0  0  0
  7 43  1  0  0  0  0
  7 44  1  0  0  0  0
  7 45  1  0  0  0  0
  8  9  2  0  0  0  0
  8 46  1  0  0  0  0
  9 10  1  0  0  0  0
  9 38  1  0  0  0  0
 10 11  1  0  0  0  0
 10 22  1  0  0  0  0
 11 12  1  0  0  0  0
 11 47  1  0  0  0  0
 11 48  1  0  0  0  0
 12 13  3  0  0  0  0
 13 14  1  0  0  0  0
 14 15  1  0  0  0  0
 14 21  2  0  0  0  0
 15 16  2  0  0  0  0
 15 49  1  0  0  0  0
 16 17  1  0  0  0  0
 16 19  1  0  0  0  0
 17 18  3  0  0  0  0
 19 20  2  0  0  0  0
 19 50  1  0  0  0  0
 20 21  1  0  0  0  0
 20 51  1  0  0  0  0
 22 23  1  0  0  0  0
 22 37  2  0  0  0  0
 23 24  2  0  0  0  0
 23 52  1  0  0  0  0
 24 25  1  0  0  0  0
 24 53  1  0  0  0  0
 25 26  1  0  0  0  0
 25 36  2  0  0  0  0
 26 27  2  0  0  0  0
 27 28  1  0  0  0  0
 27 54  1  0  0  0  0
 28 29  1  0  0  0  0
 28 35  2  0  0  0  0
 29 30  1  0  0  0  0
 29 34  2  0  0  0  0
 30 31  2  0  0  0  0
 30 55  1  0  0  0  0
 31 32  1  0  0  0  0
 32 33  1  0  0  0  0
 32 34  1  0  0  0  0
 33 56  1  0  0  0  0
 33 57  1  0  0  0  0
 33 58  1  0  0  0  0
 34 59  1  0  0  0  0
 35 36  1  0  0  0  0
 36 37  1  0  0  0  0
 37 60  1  0  0  0  0
 38 61  1  0  0  0  0
M  END
$$$$
