CHEMBL4173458
 OpenBabel04072215383D

 57 61  0  0  0  0  0  0  0  0999 V2000
    4.6824    2.8276    4.0650 C   0  0  0  0  0  0  0  0  0  0  0  0
    5.1488    2.0637    2.9511 N   0  0  0  0  0  0  0  0  0  0  0  0
    5.2168    2.6214    1.7078 N   0  0  0  0  0  0  0  0  0  0  0  0
    5.7229    1.6373    0.9490 C   0  0  0  0  0  0  0  0  0  0  0  0
    5.9525    0.4579    1.6748 C   0  0  0  0  0  0  0  0  0  0  0  0
    6.4571   -0.8167    1.4511 C   0  0  0  0  0  0  0  0  0  0  0  0
    6.8900   -1.1888    0.1808 O   0  0  0  0  0  0  0  0  0  0  0  0
    7.9623   -2.0502    0.1092 C   0  0  0  0  0  0  0  0  0  0  0  0
    8.0534   -2.8972   -1.0038 C   0  0  0  0  0  0  0  0  0  0  0  0
    9.0955   -3.8281   -1.1257 C   0  0  0  0  0  0  0  0  0  0  0  0
   10.0293   -3.8647   -0.0849 C   0  0  0  0  0  0  0  0  0  0  0  0
    9.9892   -2.9959    0.9901 C   0  0  0  0  0  0  0  0  0  0  0  0
    8.9658   -2.0587    1.0861 C   0  0  0  0  0  0  0  0  0  0  0  0
   11.0240   -3.2168    1.8414 N   0  0  0  0  0  0  0  0  0  0  0  0
   11.7152   -4.2208    1.3495 C   0  0  0  0  0  0  0  0  0  0  0  0
   12.8405   -4.7663    1.8728 N   0  0  0  0  0  0  0  0  0  0  0  0
   13.7843   -4.0955    2.6936 C   0  0  0  0  0  0  0  0  0  0  0  0
   13.6667   -2.7550    3.0584 C   0  0  0  0  0  0  0  0  0  0  0  0
   14.7089   -2.0747    3.6946 C   0  0  0  0  0  0  0  0  0  0  0  0
   15.9131   -2.7115    4.0339 C   0  0  0  0  0  0  0  0  0  0  0  0
   17.0763   -1.9506    4.6937 C   0  0  0  0  0  0  0  0  0  0  0  0
   16.7102   -0.4658    4.9089 C   0  0  0  0  0  0  0  0  0  0  0  0
   17.4208   -2.5779    6.0608 C   0  0  0  0  0  0  0  0  0  0  0  0
   18.3580   -1.9875    3.8302 C   0  0  0  0  0  0  0  0  0  0  0  0
   16.0003   -4.0813    3.7469 C   0  0  0  0  0  0  0  0  0  0  0  0
   14.9520   -4.7599    3.0964 C   0  0  0  0  0  0  0  0  0  0  0  0
   11.1170   -4.6706    0.1845 N   0  0  0  0  0  0  0  0  0  0  0  0
   11.4659   -5.7798   -0.6673 C   0  0  0  0  0  0  0  0  0  0  0  0
    6.5001   -1.6952    2.4853 N   0  0  0  0  0  0  0  0  0  0  0  0
    6.1135   -1.2680    3.7026 C   0  0  0  0  0  0  0  0  0  0  0  0
    5.6416   -0.0566    4.0416 N   0  0  0  0  0  0  0  0  0  0  0  0
    5.5810    0.7599    2.9766 C   0  0  0  0  0  0  0  0  0  0  0  0
    4.4224    3.8396    3.7285 H   0  0  0  0  0  0  0  0  0  0  0  0
    5.4812    2.8885    4.8071 H   0  0  0  0  0  0  0  0  0  0  0  0
    3.7991    2.3413    4.4828 H   0  0  0  0  0  0  0  0  0  0  0  0
    5.8946    1.8244   -0.0997 H   0  0  0  0  0  0  0  0  0  0  0  0
    7.3011   -2.8552   -1.7886 H   0  0  0  0  0  0  0  0  0  0  0  0
    9.1603   -4.4978   -1.9766 H   0  0  0  0  0  0  0  0  0  0  0  0
    8.9456   -1.3983    1.9433 H   0  0  0  0  0  0  0  0  0  0  0  0
   13.0992   -5.7170    1.6627 H   0  0  0  0  0  0  0  0  0  0  0  0
   12.7776   -2.1785    2.8224 H   0  0  0  0  0  0  0  0  0  0  0  0
   14.5361   -1.0180    3.8797 H   0  0  0  0  0  0  0  0  0  0  0  0
   15.8506   -0.3652    5.5835 H   0  0  0  0  0  0  0  0  0  0  0  0
   16.4494    0.0140    3.9559 H   0  0  0  0  0  0  0  0  0  0  0  0
   17.5364    0.1061    5.3385 H   0  0  0  0  0  0  0  0  0  0  0  0
   16.5719   -2.5362    6.7513 H   0  0  0  0  0  0  0  0  0  0  0  0
   18.2621   -2.0545    6.5309 H   0  0  0  0  0  0  0  0  0  0  0  0
   17.7160   -3.6294    5.9633 H   0  0  0  0  0  0  0  0  0  0  0  0
   18.2008   -1.5325    2.8465 H   0  0  0  0  0  0  0  0  0  0  0  0
   18.7228   -3.0088    3.6746 H   0  0  0  0  0  0  0  0  0  0  0  0
   19.1700   -1.4329    4.3205 H   0  0  0  0  0  0  0  0  0  0  0  0
   16.8986   -4.6396    4.0009 H   0  0  0  0  0  0  0  0  0  0  0  0
   15.0828   -5.8157    2.8774 H   0  0  0  0  0  0  0  0  0  0  0  0
   12.1244   -6.4802   -0.1571 H   0  0  0  0  0  0  0  0  0  0  0  0
   11.9299   -5.3909   -1.5785 H   0  0  0  0  0  0  0  0  0  0  0  0
   10.5388   -6.3007   -0.9301 H   0  0  0  0  0  0  0  0  0  0  0  0
    6.1964   -1.9939    4.5080 H   0  0  0  0  0  0  0  0  0  0  0  0
  1  2  1  0  0  0  0
  1 33  1  0  0  0  0
  1 34  1  0  0  0  0
  1 35  1  0  0  0  0
  2  3  1  0  0  0  0
  2 32  1  0  0  0  0
  3  4  2  0  0  0  0
  4  5  1  0  0  0  0
  4 36  1  0  0  0  0
  5  6  1  0  0  0  0
  5 32  2  0  0  0  0
  6  7  1  0  0  0  0
  6 29  2  0  0  0  0
  7  8  1  0  0  0  0
  8  9  1  0  0  0  0
  8 13  2  0  0  0  0
  9 10  2  0  0  0  0
  9 37  1  0  0  0  0
 10 11  1  0  0  0  0
 10 38  1  0  0  0  0
 11 12  2  0  0  0  0
 11 27  1  0  0  0  0
 12 13  1  0  0  0  0
 12 14  1  0  0  0  0
 13 39  1  0  0  0  0
 14 15  2  0  0  0  0
 15 16  1  0  0  0  0
 15 27  1  0  0  0  0
 16 17  1  0  0  0  0
 16 40  1  0  0  0  0
 17 18  1  0  0  0  0
 17 26  2  0  0  0  0
 18 19  2  0  0  0  0
 18 41  1  0  0  0  0
 19 20  1  0  0  0  0
 19 42  1  0  0  0  0
 20 21  1  0  0  0  0
 20 25  2  0  0  0  0
 21 22  1  0  0  0  0
 21 23  1  0  0  0  0
 21 24  1  0  0  0  0
 22 43  1  0  0  0  0
 22 44  1  0  0  0  0
 22 45  1  0  0  0  0
 23 46  1  0  0  0  0
 23 47  1  0  0  0  0
 23 48  1  0  0  0  0
 24 49  1  0  0  0  0
 24 50  1  0  0  0  0
 24 51  1  0  0  0  0
 25 26  1  0  0  0  0
 25 52  1  0  0  0  0
 26 53  1  0  0  0  0
 27 28  1  0  0  0  0
 28 54  1  0  0  0  0
 28 55  1  0  0  0  0
 28 56  1  0  0  0  0
 29 30  1  0  0  0  0
 30 31  2  0  0  0  0
 30 57  1  0  0  0  0
 31 32  1  0  0  0  0
M  END
$$$$
