CHEMBL3706831
 OpenBabel04072215373D

 52 55  0  0  1  0  0  0  0  0999 V2000
    0.9818   -0.0697   -0.9636 C   0  0  0  0  0  0  0  0  0  0  0  0
    2.2247   -0.1823   -0.2996 O   0  0  0  0  0  0  0  0  0  0  0  0
    2.7061   -1.5278   -0.2143 C   0  0  0  0  0  0  0  0  0  0  0  0
    4.0094   -1.4278    0.5629 C   0  0  0  0  0  0  0  0  0  0  0  0
    4.6867   -2.6572    0.7227 O   0  0  0  0  0  0  0  0  0  0  0  0
    6.0433   -2.6047    0.9362 C   0  0  0  0  0  0  0  0  0  0  0  0
    6.6523   -3.8294    0.5738 C   0  0  0  0  0  0  0  0  0  0  0  0
    8.0267   -4.0518    0.6081 C   0  0  0  0  0  0  0  0  0  0  0  0
    8.5195   -5.2303    0.2086 N   0  0  0  0  0  0  0  0  0  0  0  0
    9.8490   -5.3729    0.2581 C   0  0  0  0  0  0  0  0  0  0  0  0
   10.7233   -4.4577    0.6818 N   0  0  0  0  0  0  0  0  0  0  0  0
   10.2276   -3.2662    1.0716 C   0  0  0  0  0  0  0  0  0  0  0  0
   11.1240   -2.2352    1.4659 N   0  0  0  0  0  0  0  0  0  0  0  0
   12.5056   -2.2847    1.3871 C   0  0  0  0  0  0  0  0  0  0  0  0
   13.2175   -2.9706    0.4816 C   0  0  0  0  0  0  0  0  0  0  0  0
   14.6759   -3.0574    0.4990 C   0  0  0  0  0  0  0  0  0  0  0  0
   15.2484   -3.5993   -0.4405 O   0  0  0  0  0  0  0  0  0  0  0  0
   15.4133   -2.5083    1.6890 C   0  0  0  0  0  0  0  0  0  0  0  0
   16.7097   -2.9830    1.7622 N   0  0  0  0  0  0  0  0  0  0  0  0
   17.8597   -2.1343    2.0260 C   0  0  0  0  0  0  0  0  0  0  0  0
   17.3717   -3.1200    3.0552 C   0  0  3  0  0  0  0  0  0  0  0  0
   18.0515   -4.4241    3.3088 C   0  0  0  0  0  0  0  0  0  0  0  0
   14.7310   -1.6898    2.5091 C   0  0  0  0  0  0  0  0  0  0  0  0
   13.2763   -1.4682    2.3799 C   0  0  0  0  0  0  0  0  0  0  0  0
   12.6920   -0.6775    3.1153 O   0  0  0  0  0  0  0  0  0  0  0  0
    8.8439   -3.0091    1.0448 C   0  0  0  0  0  0  0  0  0  0  0  0
    8.2528   -1.7823    1.4075 C   0  0  0  0  0  0  0  0  0  0  0  0
    6.8666   -1.5628    1.3784 C   0  0  0  0  0  0  0  0  0  0  0  0
    6.6042   -0.2579    1.6746 O   0  0  0  0  0  0  0  0  0  0  0  0
    5.5420    0.1156    2.5331 C   0  0  0  0  0  0  0  0  0  0  0  0
    0.7175    0.9914   -0.9941 H   0  0  0  0  0  0  0  0  0  0  0  0
    0.2055   -0.6066   -0.4128 H   0  0  0  0  0  0  0  0  0  0  0  0
    1.0598   -0.4410   -1.9882 H   0  0  0  0  0  0  0  0  0  0  0  0
    2.8680   -1.9507   -1.2108 H   0  0  0  0  0  0  0  0  0  0  0  0
    1.9864   -2.1572    0.3230 H   0  0  0  0  0  0  0  0  0  0  0  0
    3.7056   -1.0844    1.5516 H   0  0  0  0  0  0  0  0  0  0  0  0
    4.6407   -0.6846    0.0650 H   0  0  0  0  0  0  0  0  0  0  0  0
    6.0200   -4.6385    0.2055 H   0  0  0  0  0  0  0  0  0  0  0  0
   10.2574   -6.3205   -0.0817 H   0  0  0  0  0  0  0  0  0  0  0  0
   10.8182   -1.7509    2.3105 H   0  0  0  0  0  0  0  0  0  0  0  0
   12.7487   -3.5430   -0.3113 H   0  0  0  0  0  0  0  0  0  0  0  0
   17.6557   -1.0816    2.1444 H   0  0  0  0  0  0  0  0  0  0  0  0
   18.7018   -2.3981    1.3962 H   0  0  0  0  0  0  0  0  0  0  0  0
   16.9035   -2.7113    3.9407 H   0  0  0  0  0  0  0  0  0  0  0  0
   18.2492   -4.9696    2.3793 H   0  0  0  0  0  0  0  0  0  0  0  0
   17.4122   -5.0572    3.9333 H   0  0  0  0  0  0  0  0  0  0  0  0
   19.0009   -4.2751    3.8300 H   0  0  0  0  0  0  0  0  0  0  0  0
   15.1888   -1.2091    3.3634 H   0  0  0  0  0  0  0  0  0  0  0  0
    8.8872   -0.9459    1.6967 H   0  0  0  0  0  0  0  0  0  0  0  0
    5.9154    0.8184    3.2837 H   0  0  0  0  0  0  0  0  0  0  0  0
    5.0717   -0.7203    3.0571 H   0  0  0  0  0  0  0  0  0  0  0  0
    4.8213    0.6813    1.9325 H   0  0  0  0  0  0  0  0  0  0  0  0
  1  2  1  0  0  0  0
  1 31  1  0  0  0  0
  1 32  1  0  0  0  0
  1 33  1  0  0  0  0
  2  3  1  0  0  0  0
  3  4  1  0  0  0  0
  3 34  1  0  0  0  0
  3 35  1  0  0  0  0
  4  5  1  0  0  0  0
  4 36  1  0  0  0  0
  4 37  1  0  0  0  0
  5  6  1  0  0  0  0
  6  7  1  0  0  0  0
  6 28  2  0  0  0  0
  7  8  2  0  0  0  0
  7 38  1  0  0  0  0
  8  9  1  0  0  0  0
  8 26  1  0  0  0  0
  9 10  2  0  0  0  0
 10 11  1  0  0  0  0
 10 39  1  0  0  0  0
 11 12  2  0  0  0  0
 12 13  1  0  0  0  0
 12 26  1  0  0  0  0
 13 14  1  0  0  0  0
 13 40  1  0  0  0  0
 14 15  2  0  0  0  0
 14 24  1  0  0  0  0
 15 16  1  0  0  0  0
 15 41  1  0  0  0  0
 16 17  2  0  0  0  0
 16 18  1  0  0  0  0
 18 19  1  0  0  0  0
 18 23  2  0  0  0  0
 19 20  1  0  0  0  0
 19 21  1  0  0  0  0
 20 21  1  0  0  0  0
 20 42  1  0  0  0  0
 20 43  1  0  0  0  0
 21 22  1  0  0  0  0
 21 44  1  0  0  0  0
 22 45  1  0  0  0  0
 22 46  1  0  0  0  0
 22 47  1  0  0  0  0
 23 24  1  0  0  0  0
 23 48  1  0  0  0  0
 24 25  2  0  0  0  0
 26 27  2  0  0  0  0
 27 28  1  0  0  0  0
 27 49  1  0  0  0  0
 28 29  1  0  0  0  0
 29 30  1  0  0  0  0
 30 50  1  0  0  0  0
 30 51  1  0  0  0  0
 30 52  1  0  0  0  0
M  END
$$$$
