CHEMBL3676355
 OpenBabel04072215373D

 58 60  0  0  0  0  0  0  0  0999 V2000
    3.6483    4.0060    0.4720 C   0  0  0  0  0  0  0  0  0  0  0  0
    3.6019    2.9204    1.2529 C   0  0  0  0  0  0  0  0  0  0  0  0
    3.6750    1.5718    0.6318 C   0  0  0  0  0  0  0  0  0  0  0  0
    3.2043    1.3349   -0.4748 O   0  0  0  0  0  0  0  0  0  0  0  0
    4.3628    0.5939    1.3200 N   0  0  0  0  0  0  0  0  0  0  0  0
    5.1788    0.8770    2.4287 C   0  0  0  0  0  0  0  0  0  0  0  0
    6.3618    1.5843    2.2024 C   0  0  0  0  0  0  0  0  0  0  0  0
    7.0752    2.1433    3.2768 C   0  0  0  0  0  0  0  0  0  0  0  0
    8.2205    2.9446    3.1401 C   0  0  0  0  0  0  0  0  0  0  0  0
    8.6673    3.3272    1.8331 N   0  0  0  0  0  0  0  0  0  0  0  0
    9.9684    3.8441    1.5997 C   0  0  0  0  0  0  0  0  0  0  0  0
   11.0871    3.1636    2.0963 C   0  0  0  0  0  0  0  0  0  0  0  0
   12.3588    3.7360    2.0356 C   0  0  0  0  0  0  0  0  0  0  0  0
   13.6588    2.8489    2.7461 Cl  0  0  0  0  0  0  0  0  0  0  0  0
   12.5261    4.9921    1.4432 C   0  0  0  0  0  0  0  0  0  0  0  0
   14.1848    5.9161    1.4713 Br  0  0  0  0  0  0  0  0  0  0  0  0
   11.4364    5.6335    0.8463 C   0  0  0  0  0  0  0  0  0  0  0  0
   10.1719    5.0532    0.9253 C   0  0  0  0  0  0  0  0  0  0  0  0
    9.1257    5.6971    0.3837 F   0  0  0  0  0  0  0  0  0  0  0  0
    8.9016    3.4093    4.2031 N   0  0  0  0  0  0  0  0  0  0  0  0
    8.4094    3.1000    5.4130 C   0  0  0  0  0  0  0  0  0  0  0  0
    7.3020    2.3935    5.6506 N   0  0  0  0  0  0  0  0  0  0  0  0
    6.6444    1.9142    4.5924 C   0  0  0  0  0  0  0  0  0  0  0  0
    5.4896    1.1550    4.7973 C   0  0  0  0  0  0  0  0  0  0  0  0
    4.7568    0.6032    3.7391 C   0  0  0  0  0  0  0  0  0  0  0  0
    3.6675   -0.1459    4.1164 O   0  0  0  0  0  0  0  0  0  0  0  0
    3.3281   -1.2282    3.2411 C   0  0  0  0  0  0  0  0  0  0  0  0
    2.7384   -2.4233    4.0042 C   0  0  0  0  0  0  0  0  0  0  0  0
    2.5073   -3.5682    3.1335 N   0  0  0  0  0  0  0  0  0  0  0  0
    3.5416   -4.3841    2.7169 C   0  0  0  0  0  0  0  0  0  0  0  0
    4.6742   -4.3210    3.1916 O   0  0  0  0  0  0  0  0  0  0  0  0
    3.1706   -5.4023    1.6251 C   0  0  0  0  0  0  0  0  0  0  0  0
    2.1814   -4.8560    0.6588 N   0  0  0  0  0  0  0  0  0  0  0  0
    2.7459   -3.7359   -0.1046 C   0  0  0  0  0  0  0  0  0  0  0  0
    1.7921   -5.9139   -0.2897 C   0  0  0  0  0  0  0  0  0  0  0  0
    3.6862    4.9990    0.9069 H   0  0  0  0  0  0  0  0  0  0  0  0
    3.6684    3.9274   -0.6117 H   0  0  0  0  0  0  0  0  0  0  0  0
    3.5998    3.0067    2.3321 H   0  0  0  0  0  0  0  0  0  0  0  0
    4.7401   -0.0596    0.6425 H   0  0  0  0  0  0  0  0  0  0  0  0
    6.7072    1.7371    1.1810 H   0  0  0  0  0  0  0  0  0  0  0  0
    7.9583    3.9226    1.4064 H   0  0  0  0  0  0  0  0  0  0  0  0
   10.9492    2.1989    2.5794 H   0  0  0  0  0  0  0  0  0  0  0  0
   11.5491    6.5961    0.3575 H   0  0  0  0  0  0  0  0  0  0  0  0
    8.9649    3.4618    6.2718 H   0  0  0  0  0  0  0  0  0  0  0  0
    5.1521    0.9902    5.8186 H   0  0  0  0  0  0  0  0  0  0  0  0
    4.2097   -1.5846    2.6954 H   0  0  0  0  0  0  0  0  0  0  0  0
    2.5780   -0.8693    2.5261 H   0  0  0  0  0  0  0  0  0  0  0  0
    1.7814   -2.1521    4.4646 H   0  0  0  0  0  0  0  0  0  0  0  0
    3.4167   -2.7206    4.8138 H   0  0  0  0  0  0  0  0  0  0  0  0
    1.6670   -3.6131    2.5606 H   0  0  0  0  0  0  0  0  0  0  0  0
    2.7514   -6.2743    2.1421 H   0  0  0  0  0  0  0  0  0  0  0  0
    4.0904   -5.7153    1.1129 H   0  0  0  0  0  0  0  0  0  0  0  0
    3.0581   -2.9154    0.5511 H   0  0  0  0  0  0  0  0  0  0  0  0
    1.9812   -3.3138   -0.7682 H   0  0  0  0  0  0  0  0  0  0  0  0
    3.6080   -4.0318   -0.7104 H   0  0  0  0  0  0  0  0  0  0  0  0
    1.3791   -6.7813    0.2375 H   0  0  0  0  0  0  0  0  0  0  0  0
    2.6335   -6.2528   -0.9030 H   0  0  0  0  0  0  0  0  0  0  0  0
    1.0052   -5.5490   -0.9594 H   0  0  0  0  0  0  0  0  0  0  0  0
  1  2  2  0  0  0  0
  1 36  1  0  0  0  0
  1 37  1  0  0  0  0
  2  3  1  0  0  0  0
  2 38  1  0  0  0  0
  3  4  2  0  0  0  0
  3  5  1  0  0  0  0
  5  6  1  0  0  0  0
  5 39  1  0  0  0  0
  6  7  1  0  0  0  0
  6 25  2  0  0  0  0
  7  8  2  0  0  0  0
  7 40  1  0  0  0  0
  8  9  1  0  0  0  0
  8 23  1  0  0  0  0
  9 10  1  0  0  0  0
  9 20  2  0  0  0  0
 10 11  1  0  0  0  0
 10 41  1  0  0  0  0
 11 12  1  0  0  0  0
 11 18  2  0  0  0  0
 12 13  2  0  0  0  0
 12 42  1  0  0  0  0
 13 14  1  0  0  0  0
 13 15  1  0  0  0  0
 15 16  1  0  0  0  0
 15 17  2  0  0  0  0
 17 18  1  0  0  0  0
 17 43  1  0  0  0  0
 18 19  1  0  0  0  0
 20 21  1  0  0  0  0
 21 22  2  0  0  0  0
 21 44  1  0  0  0  0
 22 23  1  0  0  0  0
 23 24  2  0  0  0  0
 24 25  1  0  0  0  0
 24 45  1  0  0  0  0
 25 26  1  0  0  0  0
 26 27  1  0  0  0  0
 27 28  1  0  0  0  0
 27 46  1  0  0  0  0
 27 47  1  0  0  0  0
 28 29  1  0  0  0  0
 28 48  1  0  0  0  0
 28 49  1  0  0  0  0
 29 30  1  0  0  0  0
 29 50  1  0  0  0  0
 30 31  2  0  0  0  0
 30 32  1  0  0  0  0
 32 33  1  0  0  0  0
 32 51  1  0  0  0  0
 32 52  1  0  0  0  0
 33 34  1  0  0  0  0
 33 35  1  0  0  0  0
 34 53  1  0  0  0  0
 34 54  1  0  0  0  0
 34 55  1  0  0  0  0
 35 56  1  0  0  0  0
 35 57  1  0  0  0  0
 35 58  1  0  0  0  0
M  END
$$$$
