CHEMBL385478
 OpenBabel04072215373D

 41 44  0  0  0  0  0  0  0  0999 V2000
    3.3867    1.5510    2.0425 C   0  0  0  0  0  0  0  0  0  0  0  0
    2.3327    2.4350    1.8592 C   0  0  0  0  0  0  0  0  0  0  0  0
    1.1935    2.1716    1.1842 N   0  0  0  0  0  0  0  0  0  0  0  0
    1.1583    0.9226    0.6868 C   0  0  0  0  0  0  0  0  0  0  0  0
    0.1151    0.4182   -0.0373 N   0  0  0  0  0  0  0  0  0  0  0  0
    0.3851   -0.8797   -0.3969 C   0  0  0  0  0  0  0  0  0  0  0  0
    1.6307   -1.2275    0.1115 C   0  0  0  0  0  0  0  0  0  0  0  0
    2.2340   -2.5515   -0.0552 C   0  0  0  0  0  0  0  0  0  0  0  0
    1.9034   -3.3437   -1.1343 C   0  0  0  0  0  0  0  0  0  0  0  0
    2.4954   -4.5781   -1.1676 C   0  0  0  0  0  0  0  0  0  0  0  0
    3.3517   -5.0120   -0.2302 N   0  0  0  0  0  0  0  0  0  0  0  0
    3.6315   -4.1776    0.7815 C   0  0  0  0  0  0  0  0  0  0  0  0
    4.4987   -4.5820    1.7844 N   0  0  0  0  0  0  0  0  0  0  0  0
    4.5822   -6.0131    2.0772 C   0  0  0  0  0  0  0  0  0  0  0  0
    3.2575   -6.5583    2.6397 C   0  0  0  0  0  0  0  0  0  0  0  0
    3.3761   -8.0267    3.0465 C   0  0  0  0  0  0  0  0  0  0  0  0
    4.5011   -8.2382    4.0519 C   0  0  0  0  0  0  0  0  0  0  0  0
    5.8265   -7.7131    3.5114 C   0  0  0  0  0  0  0  0  0  0  0  0
    5.7238   -6.2472    3.0853 C   0  0  0  0  0  0  0  0  0  0  0  0
    3.0997   -2.9521    0.9028 N   0  0  0  0  0  0  0  0  0  0  0  0
    2.1250   -0.0707    0.7972 C   0  0  0  0  0  0  0  0  0  0  0  0
    3.2961    0.2675    1.5022 C   0  0  0  0  0  0  0  0  0  0  0  0
    4.2688    1.8514    2.5986 H   0  0  0  0  0  0  0  0  0  0  0  0
    2.3844    3.4379    2.2777 H   0  0  0  0  0  0  0  0  0  0  0  0
   -0.7173    0.9446   -0.2538 H   0  0  0  0  0  0  0  0  0  0  0  0
   -0.3441   -1.4367   -0.9685 H   0  0  0  0  0  0  0  0  0  0  0  0
    1.2263   -3.0294   -1.9157 H   0  0  0  0  0  0  0  0  0  0  0  0
    2.2916   -5.2784   -1.9711 H   0  0  0  0  0  0  0  0  0  0  0  0
    4.3810   -3.9563    2.5715 H   0  0  0  0  0  0  0  0  0  0  0  0
    4.8408   -6.5644    1.1629 H   0  0  0  0  0  0  0  0  0  0  0  0
    2.4569   -6.4697    1.8967 H   0  0  0  0  0  0  0  0  0  0  0  0
    2.9436   -5.9631    3.5067 H   0  0  0  0  0  0  0  0  0  0  0  0
    3.5629   -8.6390    2.1554 H   0  0  0  0  0  0  0  0  0  0  0  0
    2.4277   -8.3695    3.4751 H   0  0  0  0  0  0  0  0  0  0  0  0
    4.5920   -9.3051    4.2868 H   0  0  0  0  0  0  0  0  0  0  0  0
    4.2563   -7.7246    4.9899 H   0  0  0  0  0  0  0  0  0  0  0  0
    6.1357   -8.3221    2.6528 H   0  0  0  0  0  0  0  0  0  0  0  0
    6.6039   -7.8240    4.2758 H   0  0  0  0  0  0  0  0  0  0  0  0
    6.6789   -5.9321    2.6473 H   0  0  0  0  0  0  0  0  0  0  0  0
    5.5721   -5.6252    3.9774 H   0  0  0  0  0  0  0  0  0  0  0  0
    4.1021   -0.4511    1.6230 H   0  0  0  0  0  0  0  0  0  0  0  0
  1  2  1  0  0  0  0
  1 22  2  0  0  0  0
  1 23  1  0  0  0  0
  2  3  2  0  0  0  0
  2 24  1  0  0  0  0
  3  4  1  0  0  0  0
  4  5  1  0  0  0  0
  4 21  2  0  0  0  0
  5  6  1  0  0  0  0
  5 25  1  0  0  0  0
  6  7  2  0  0  0  0
  6 26  1  0  0  0  0
  7  8  1  0  0  0  0
  7 21  1  0  0  0  0
  8  9  1  0  0  0  0
  8 20  2  0  0  0  0
  9 10  2  0  0  0  0
  9 27  1  0  0  0  0
 10 11  1  0  0  0  0
 10 28  1  0  0  0  0
 11 12  2  0  0  0  0
 12 13  1  0  0  0  0
 12 20  1  0  0  0  0
 13 14  1  0  0  0  0
 13 29  1  0  0  0  0
 14 15  1  0  0  0  0
 14 19  1  0  0  0  0
 14 30  1  0  0  0  0
 15 16  1  0  0  0  0
 15 31  1  0  0  0  0
 15 32  1  0  0  0  0
 16 17  1  0  0  0  0
 16 33  1  0  0  0  0
 16 34  1  0  0  0  0
 17 18  1  0  0  0  0
 17 35  1  0  0  0  0
 17 36  1  0  0  0  0
 18 19  1  0  0  0  0
 18 37  1  0  0  0  0
 18 38  1  0  0  0  0
 19 39  1  0  0  0  0
 19 40  1  0  0  0  0
 21 22  1  0  0  0  0
 22 41  1  0  0  0  0
M  END
$$$$
