CHEMBL3586071
 OpenBabel04072215363D

 47 49  0  0  0  0  0  0  0  0999 V2000
    1.7600    2.3454   -2.7448 C   0  0  0  0  0  0  0  0  0  0  0  0
    3.0482    2.1327   -2.1441 N   0  0  0  0  0  0  0  0  0  0  0  0
    3.5705    0.8697   -1.9660 C   0  0  0  0  0  0  0  0  0  0  0  0
    2.9948   -0.1596   -2.3012 O   0  0  0  0  0  0  0  0  0  0  0  0
    4.9297    0.8375   -1.3305 C   0  0  0  0  0  0  0  0  0  0  0  0
    5.5790   -0.3797   -1.1730 C   0  0  0  0  0  0  0  0  0  0  0  0
    6.8839   -0.4153   -0.6510 C   0  0  0  0  0  0  0  0  0  0  0  0
    7.6400   -1.6891   -0.5860 C   0  0  0  0  0  0  0  0  0  0  0  0
    7.4428   -2.6573   -1.5799 C   0  0  0  0  0  0  0  0  0  0  0  0
    8.1122   -3.8813   -1.5626 C   0  0  0  0  0  0  0  0  0  0  0  0
    9.0394   -4.1831   -0.5700 C   0  0  0  0  0  0  0  0  0  0  0  0
    9.7344   -5.4171   -0.5253 N   0  0  0  0  0  0  0  0  0  0  0  0
    9.6806   -6.4012   -1.4996 C   0  0  0  0  0  0  0  0  0  0  0  0
    9.1157   -6.3012   -2.5835 O   0  0  0  0  0  0  0  0  0  0  0  0
   10.2980   -7.5794   -1.0919 N   0  0  0  0  0  0  0  0  0  0  0  0
   10.3071   -8.7120   -1.9407 C   0  0  0  0  0  0  0  0  0  0  0  0
    9.9903   -9.9540   -1.4032 C   0  0  0  0  0  0  0  0  0  0  0  0
    9.9115  -11.0686   -2.2412 C   0  0  0  0  0  0  0  0  0  0  0  0
   10.1872  -10.9635   -3.6129 C   0  0  0  0  0  0  0  0  0  0  0  0
   10.0785  -12.4233   -4.5258 Cl  0  0  0  0  0  0  0  0  0  0  0  0
   10.5302   -9.7303   -4.1706 C   0  0  0  0  0  0  0  0  0  0  0  0
   10.8309   -9.5033   -5.6289 C   0  0  0  0  0  0  0  0  0  0  0  0
   10.7964  -10.5967   -6.4379 F   0  0  0  0  0  0  0  0  0  0  0  0
    9.9736   -8.6067   -6.1981 F   0  0  0  0  0  0  0  0  0  0  0  0
   12.0778   -8.9693   -5.8101 F   0  0  0  0  0  0  0  0  0  0  0  0
   10.5851   -8.6080   -3.3122 C   0  0  0  0  0  0  0  0  0  0  0  0
    9.2666   -3.2286    0.4262 C   0  0  0  0  0  0  0  0  0  0  0  0
    8.5729   -2.0010    0.4201 C   0  0  0  0  0  0  0  0  0  0  0  0
    7.4398    0.8089   -0.2644 C   0  0  0  0  0  0  0  0  0  0  0  0
    6.7075    1.9795   -0.4384 C   0  0  0  0  0  0  0  0  0  0  0  0
    5.4686    2.0321   -0.9718 N   0  0  0  0  0  0  0  0  0  0  0  0
    1.5545    3.4175   -2.7701 H   0  0  0  0  0  0  0  0  0  0  0  0
    0.9980    1.8310   -2.1529 H   0  0  0  0  0  0  0  0  0  0  0  0
    1.7614    1.9394   -3.7603 H   0  0  0  0  0  0  0  0  0  0  0  0
    3.6249    2.9133   -1.8413 H   0  0  0  0  0  0  0  0  0  0  0  0
    5.0676   -1.2881   -1.4813 H   0  0  0  0  0  0  0  0  0  0  0  0
    6.7602   -2.4827   -2.4091 H   0  0  0  0  0  0  0  0  0  0  0  0
    7.8653   -4.5693   -2.3618 H   0  0  0  0  0  0  0  0  0  0  0  0
   10.4154   -5.5374    0.2118 H   0  0  0  0  0  0  0  0  0  0  0  0
   10.2331   -7.7600   -0.1002 H   0  0  0  0  0  0  0  0  0  0  0  0
    9.7341  -10.0635   -0.3535 H   0  0  0  0  0  0  0  0  0  0  0  0
    9.6123  -12.0258   -1.8189 H   0  0  0  0  0  0  0  0  0  0  0  0
   10.8420   -7.6360   -3.7371 H   0  0  0  0  0  0  0  0  0  0  0  0
    9.9783   -3.4153    1.2264 H   0  0  0  0  0  0  0  0  0  0  0  0
    8.7662   -1.2923    1.2240 H   0  0  0  0  0  0  0  0  0  0  0  0
    8.4465    0.8718    0.1368 H   0  0  0  0  0  0  0  0  0  0  0  0
    7.1290    2.9410   -0.1562 H   0  0  0  0  0  0  0  0  0  0  0  0
  1  2  1  0  0  0  0
  1 32  1  0  0  0  0
  1 33  1  0  0  0  0
  1 34  1  0  0  0  0
  2  3  1  0  0  0  0
  2 35  1  0  0  0  0
  3  4  2  0  0  0  0
  3  5  1  0  0  0  0
  5  6  1  0  0  0  0
  5 31  2  0  0  0  0
  6  7  2  0  0  0  0
  6 36  1  0  0  0  0
  7  8  1  0  0  0  0
  7 29  1  0  0  0  0
  8  9  1  0  0  0  0
  8 28  2  0  0  0  0
  9 10  2  0  0  0  0
  9 37  1  0  0  0  0
 10 11  1  0  0  0  0
 10 38  1  0  0  0  0
 11 12  1  0  0  0  0
 11 27  2  0  0  0  0
 12 13  1  0  0  0  0
 12 39  1  0  0  0  0
 13 14  2  0  0  0  0
 13 15  1  0  0  0  0
 15 16  1  0  0  0  0
 15 40  1  0  0  0  0
 16 17  1  0  0  0  0
 16 26  2  0  0  0  0
 17 18  2  0  0  0  0
 17 41  1  0  0  0  0
 18 19  1  0  0  0  0
 18 42  1  0  0  0  0
 19 20  1  0  0  0  0
 19 21  2  0  0  0  0
 21 22  1  0  0  0  0
 21 26  1  0  0  0  0
 22 23  1  0  0  0  0
 22 24  1  0  0  0  0
 22 25  1  0  0  0  0
 26 43  1  0  0  0  0
 27 28  1  0  0  0  0
 27 44  1  0  0  0  0
 28 45  1  0  0  0  0
 29 30  2  0  0  0  0
 29 46  1  0  0  0  0
 30 31  1  0  0  0  0
 30 47  1  0  0  0  0
M  END
$$$$
