CHEMBL2022379
 OpenBabel04072215363D

 69 74  0  0  1  0  0  0  0  0999 V2000
    1.0510    0.1631    0.4241 C   0  0  0  0  0  0  0  0  0  0  0  0
    2.5500    0.1533    0.4570 C   0  0  0  0  0  0  0  0  0  0  0  0
    3.2320    1.2929    0.2701 C   0  0  0  0  0  0  0  0  0  0  0  0
    4.6109    1.2548    0.2412 N   0  0  0  0  0  0  0  0  0  0  0  0
    5.5667    2.2290    0.1021 C   0  0  0  0  0  0  0  0  0  0  0  0
    5.3674    3.7035    0.0214 C   0  0  0  0  0  0  0  0  0  0  0  0
    4.1932    4.4745    0.1699 C   0  0  0  0  0  0  0  0  0  0  0  0
    4.3982    5.7762   -0.0374 N   0  0  0  0  0  0  0  0  0  0  0  0
    5.7166    5.8477   -0.2791 N   0  0  0  0  0  0  0  0  0  0  0  0
    6.2942    7.1261   -0.6205 C   0  0  0  0  0  0  0  0  0  0  0  0
    7.0891    7.0164   -1.8924 C   0  0  0  0  0  0  0  0  0  0  0  0
    8.3192    6.9913   -1.8532 O   0  0  0  0  0  0  0  0  0  0  0  0
    6.3301    6.9781   -3.0574 N   0  0  0  0  0  0  0  0  0  0  0  0
    6.9551    6.9579   -4.3206 C   0  0  0  0  0  0  0  0  0  0  0  0
    8.0424    6.1253   -4.5781 C   0  0  0  0  0  0  0  0  0  0  0  0
    8.6907    6.2550   -5.7913 C   0  0  0  0  0  0  0  0  0  0  0  0
    8.3310    7.1478   -6.7363 N   0  0  0  0  0  0  0  0  0  0  0  0
    7.2566    7.9209   -6.4664 C   0  0  0  0  0  0  0  0  0  0  0  0
    6.5141    7.8372   -5.3010 C   0  0  0  0  0  0  0  0  0  0  0  0
    6.3516    4.6371   -0.2034 C   0  0  0  0  0  0  0  0  0  0  0  0
    6.7633    1.5292    0.0462 C   0  0  0  0  0  0  0  0  0  0  0  0
    6.5645    0.1684    0.2016 N   0  0  0  0  0  0  0  0  0  0  0  0
    5.2593    0.0478    0.3431 C   0  0  0  0  0  0  0  0  0  0  0  0
    4.4774   -1.1587    0.6116 C   0  0  0  0  0  0  0  0  0  0  0  0
    5.0756   -2.3926    0.7863 N   0  0  0  0  0  0  0  0  0  0  0  0
    4.6837   -3.3848    1.6310 C   0  0  0  0  0  0  0  0  0  0  0  0
    3.9122   -3.3166    2.7811 C   0  0  0  0  0  0  0  0  0  0  0  0
    3.9030   -4.5698    3.4881 C   0  0  0  0  0  0  0  0  0  0  0  0
    3.4209   -4.7995    4.9069 C   0  0  0  0  0  0  0  0  0  0  0  0
    1.9699   -5.0335    5.0622 N   0  0  0  0  0  0  0  0  0  0  0  0
    1.6384   -5.3171    6.4749 C   0  0  0  0  0  0  0  0  0  0  0  0
    2.0725   -6.7016    6.9801 C   0  0  0  0  0  0  0  0  0  0  0  0
    1.6537   -7.8358    6.0474 C   0  0  0  0  0  0  0  0  0  0  0  0
    1.9422   -7.5118    4.5770 C   0  0  3  0  0  0  0  0  0  0  0  0
    1.3080   -8.5611    3.6636 C   0  0  0  0  0  0  0  0  0  0  0  0
    1.4272   -6.1088    4.2184 C   0  0  0  0  0  0  0  0  0  0  0  0
    4.5146   -5.5769    2.8559 N   0  0  0  0  0  0  0  0  0  0  0  0
    5.1971   -5.0119    1.4595 S   0  0  0  0  0  0  0  0  0  0  0  0
    3.1635   -1.0626    0.6793 N   0  0  0  0  0  0  0  0  0  0  0  0
    0.6540    1.1357    0.7387 H   0  0  0  0  0  0  0  0  0  0  0  0
    0.6374   -0.5958    1.0903 H   0  0  0  0  0  0  0  0  0  0  0  0
    0.7021   -0.0332   -0.5962 H   0  0  0  0  0  0  0  0  0  0  0  0
    2.7317    2.2227    0.0852 H   0  0  0  0  0  0  0  0  0  0  0  0
    3.1884    4.1756    0.4162 H   0  0  0  0  0  0  0  0  0  0  0  0
    6.9434    7.4286    0.2069 H   0  0  0  0  0  0  0  0  0  0  0  0
    5.4992    7.8726   -0.7284 H   0  0  0  0  0  0  0  0  0  0  0  0
    5.3811    7.3348   -3.0095 H   0  0  0  0  0  0  0  0  0  0  0  0
    8.3831    5.3906   -3.8577 H   0  0  0  0  0  0  0  0  0  0  0  0
    9.5503    5.6373   -6.0346 H   0  0  0  0  0  0  0  0  0  0  0  0
    7.0176    8.6566   -7.2290 H   0  0  0  0  0  0  0  0  0  0  0  0
    5.6802    8.5090   -5.1401 H   0  0  0  0  0  0  0  0  0  0  0  0
    7.4192    4.5532   -0.3575 H   0  0  0  0  0  0  0  0  0  0  0  0
    7.7631    1.9280   -0.0793 H   0  0  0  0  0  0  0  0  0  0  0  0
    5.9699   -2.4924    0.3159 H   0  0  0  0  0  0  0  0  0  0  0  0
    3.4789   -2.4002    3.1587 H   0  0  0  0  0  0  0  0  0  0  0  0
    3.6777   -3.8960    5.4771 H   0  0  0  0  0  0  0  0  0  0  0  0
    4.0126   -5.6119    5.3458 H   0  0  0  0  0  0  0  0  0  0  0  0
    0.5510   -5.2261    6.5984 H   0  0  0  0  0  0  0  0  0  0  0  0
    2.0664   -4.5447    7.1269 H   0  0  0  0  0  0  0  0  0  0  0  0
    1.6321   -6.8787    7.9711 H   0  0  0  0  0  0  0  0  0  0  0  0
    3.1585   -6.7277    7.1208 H   0  0  0  0  0  0  0  0  0  0  0  0
    0.5831   -8.0333    6.1837 H   0  0  0  0  0  0  0  0  0  0  0  0
    2.1788   -8.7552    6.3346 H   0  0  0  0  0  0  0  0  0  0  0  0
    3.0266   -7.5498    4.4194 H   0  0  0  0  0  0  0  0  0  0  0  0
    0.2197   -8.5932    3.7876 H   0  0  0  0  0  0  0  0  0  0  0  0
    1.7046   -9.5577    3.8837 H   0  0  0  0  0  0  0  0  0  0  0  0
    1.5210   -8.3381    2.6128 H   0  0  0  0  0  0  0  0  0  0  0  0
    0.3326   -6.0951    4.3249 H   0  0  0  0  0  0  0  0  0  0  0  0
    1.6005   -5.8897    3.1587 H   0  0  0  0  0  0  0  0  0  0  0  0
  1  2  1  0  0  0  0
  1 40  1  0  0  0  0
  1 41  1  0  0  0  0
  1 42  1  0  0  0  0
  2  3  2  0  0  0  0
  2 39  1  0  0  0  0
  3  4  1  0  0  0  0
  3 43  1  0  0  0  0
  4  5  1  0  0  0  0
  4 23  1  0  0  0  0
  5  6  1  0  0  0  0
  5 21  2  0  0  0  0
  6  7  1  0  0  0  0
  6 20  2  0  0  0  0
  7  8  2  0  0  0  0
  7 44  1  0  0  0  0
  8  9  1  0  0  0  0
  9 10  1  0  0  0  0
  9 20  1  0  0  0  0
 10 11  1  0  0  0  0
 10 45  1  0  0  0  0
 10 46  1  0  0  0  0
 11 12  2  0  0  0  0
 11 13  1  0  0  0  0
 13 14  1  0  0  0  0
 13 47  1  0  0  0  0
 14 15  1  0  0  0  0
 14 19  2  0  0  0  0
 15 16  2  0  0  0  0
 15 48  1  0  0  0  0
 16 17  1  0  0  0  0
 16 49  1  0  0  0  0
 17 18  2  0  0  0  0
 18 19  1  0  0  0  0
 18 50  1  0  0  0  0
 19 51  1  0  0  0  0
 20 52  1  0  0  0  0
 21 22  1  0  0  0  0
 21 53  1  0  0  0  0
 22 23  2  0  0  0  0
 23 24  1  0  0  0  0
 24 25  1  0  0  0  0
 24 39  2  0  0  0  0
 25 26  1  0  0  0  0
 25 54  1  0  0  0  0
 26 27  2  0  0  0  0
 26 38  1  0  0  0  0
 27 28  1  0  0  0  0
 27 55  1  0  0  0  0
 28 29  1  0  0  0  0
 28 37  2  0  0  0  0
 29 30  1  0  0  0  0
 29 56  1  0  0  0  0
 29 57  1  0  0  0  0
 30 31  1  0  0  0  0
 30 36  1  0  0  0  0
 31 32  1  0  0  0  0
 31 58  1  0  0  0  0
 31 59  1  0  0  0  0
 32 33  1  0  0  0  0
 32 60  1  0  0  0  0
 32 61  1  0  0  0  0
 33 34  1  0  0  0  0
 33 62  1  0  0  0  0
 33 63  1  0  0  0  0
 34 35  1  0  0  0  0
 34 36  1  0  0  0  0
 34 64  1  0  0  0  0
 35 65  1  0  0  0  0
 35 66  1  0  0  0  0
 35 67  1  0  0  0  0
 36 68  1  0  0  0  0
 36 69  1  0  0  0  0
 37 38  1  0  0  0  0
M  END
$$$$
