CHEMBL1779202
 OpenBabel04072215363D

 59 64  0  0  1  0  0  0  0  0999 V2000
    0.9345    0.1108   -0.2113 C   0  0  0  0  0  0  0  0  0  0  0  0
    2.4771    0.1177   -0.1763 C   0  0  0  0  0  0  0  0  0  0  0  0
    3.0473    0.1459   -1.6122 C   0  0  0  0  0  0  0  0  0  0  0  0
    3.0036   -1.1544    0.5242 C   0  0  0  0  0  0  0  0  0  0  0  0
    2.6615   -2.4298    0.0340 C   0  0  0  0  0  0  0  0  0  0  0  0
    3.1542   -3.6092    0.6227 C   0  0  0  0  0  0  0  0  0  0  0  0
    2.5764   -4.9500    0.1851 C   0  0  3  0  0  0  0  0  0  0  0  0
    1.0771   -5.0332    0.5251 C   0  0  0  0  0  0  0  0  0  0  0  0
    0.8201   -5.2883    2.0123 C   0  0  0  0  0  0  0  0  0  0  0  0
    1.5145   -6.4781    2.5431 N   0  0  3  0  0  0  0  0  0  0  0  0
    1.2935   -6.4905    4.0161 C   0  0  0  0  0  0  0  0  0  0  0  0
    1.9890   -7.6451    4.7573 C   0  0  0  0  0  0  0  0  0  0  0  0
    0.7289   -8.0346    5.3746 O   0  0  0  0  0  0  0  0  0  0  0  0
    0.0162   -7.2890    4.3457 C   0  0  0  0  0  0  0  0  0  0  0  0
    2.9514   -6.4642    2.2352 C   0  0  0  0  0  0  0  0  0  0  0  0
    3.2609   -6.2024    0.7510 C   0  0  0  0  0  0  0  0  0  0  0  0
    4.1104   -3.4916    1.6316 C   0  0  0  0  0  0  0  0  0  0  0  0
    4.4166   -2.2577    2.1802 C   0  0  0  0  0  0  0  0  0  0  0  0
    3.8499   -1.0995    1.6543 C   0  0  0  0  0  0  0  0  0  0  0  0
    4.2001    0.1674    2.3410 C   0  0  0  0  0  0  0  0  0  0  0  0
    4.8479    0.1708    3.3820 O   0  0  0  0  0  0  0  0  0  0  0  0
    3.7307    1.3681    1.7009 C   0  0  0  0  0  0  0  0  0  0  0  0
    2.9496    1.3468    0.5635 C   0  0  0  0  0  0  0  0  0  0  0  0
    2.6995    2.6494    0.2127 N   0  0  0  0  0  0  0  0  0  0  0  0
    3.3277    3.5005    1.0980 C   0  0  0  0  0  0  0  0  0  0  0  0
    3.3785    4.8974    1.1340 C   0  0  0  0  0  0  0  0  0  0  0  0
    4.1181    5.4887    2.1717 C   0  0  0  0  0  0  0  0  0  0  0  0
    4.1873    6.9189    2.2431 C   0  0  0  0  0  0  0  0  0  0  0  0
    4.2398    8.0730    2.2880 N   0  0  0  0  0  0  0  0  0  0  0  0
    4.7808    4.7214    3.1259 C   0  0  0  0  0  0  0  0  0  0  0  0
    4.7160    3.3280    3.0757 C   0  0  0  0  0  0  0  0  0  0  0  0
    3.9785    2.7143    2.0475 C   0  0  0  0  0  0  0  0  0  0  0  0
    0.5318   -0.7669   -0.7287 H   0  0  0  0  0  0  0  0  0  0  0  0
    0.5401    0.9930   -0.7291 H   0  0  0  0  0  0  0  0  0  0  0  0
    0.5162    0.1117    0.8029 H   0  0  0  0  0  0  0  0  0  0  0  0
    2.7329   -0.7249   -2.1987 H   0  0  0  0  0  0  0  0  0  0  0  0
    4.1453    0.1478   -1.5996 H   0  0  0  0  0  0  0  0  0  0  0  0
    2.7251    1.0374   -2.1618 H   0  0  0  0  0  0  0  0  0  0  0  0
    1.9834   -2.5176   -0.8145 H   0  0  0  0  0  0  0  0  0  0  0  0
    2.6844   -4.9857   -0.9086 H   0  0  0  0  0  0  0  0  0  0  0  0
    0.6231   -5.8433   -0.0580 H   0  0  0  0  0  0  0  0  0  0  0  0
    0.5492   -4.1173    0.2306 H   0  0  0  0  0  0  0  0  0  0  0  0
   -0.2600   -5.4395    2.1337 H   0  0  0  0  0  0  0  0  0  0  0  0
    1.0734   -4.3828    2.5815 H   0  0  0  0  0  0  0  0  0  0  0  0
    1.3720   -5.5282    4.5373 H   0  0  0  0  0  0  0  0  0  0  0  0
    2.7189   -7.3252    5.5077 H   0  0  0  0  0  0  0  0  0  0  0  0
    2.3981   -8.4750    4.1749 H   0  0  0  0  0  0  0  0  0  0  0  0
   -0.8044   -6.7029    4.7682 H   0  0  0  0  0  0  0  0  0  0  0  0
   -0.3720   -7.9716    3.5817 H   0  0  0  0  0  0  0  0  0  0  0  0
    3.3822   -7.4455    2.4643 H   0  0  0  0  0  0  0  0  0  0  0  0
    3.4744   -5.7585    2.8865 H   0  0  0  0  0  0  0  0  0  0  0  0
    2.9126   -7.0708    0.1752 H   0  0  0  0  0  0  0  0  0  0  0  0
    4.3457   -6.1552    0.5914 H   0  0  0  0  0  0  0  0  0  0  0  0
    4.6233   -4.3474    2.0508 H   0  0  0  0  0  0  0  0  0  0  0  0
    5.0942   -2.2081    3.0312 H   0  0  0  0  0  0  0  0  0  0  0  0
    2.1561    2.9531   -0.5846 H   0  0  0  0  0  0  0  0  0  0  0  0
    2.8683    5.4982    0.3877 H   0  0  0  0  0  0  0  0  0  0  0  0
    5.3573    5.1879    3.9228 H   0  0  0  0  0  0  0  0  0  0  0  0
    5.2331    2.7236    3.8178 H   0  0  0  0  0  0  0  0  0  0  0  0
  1  2  1  0  0  0  0
  1 33  1  0  0  0  0
  1 34  1  0  0  0  0
  1 35  1  0  0  0  0
  2  3  1  0  0  0  0
  2  4  1  0  0  0  0
  2 23  1  0  0  0  0
  3 36  1  0  0  0  0
  3 37  1  0  0  0  0
  3 38  1  0  0  0  0
  4  5  1  0  0  0  0
  4 19  2  0  0  0  0
  5  6  2  0  0  0  0
  5 39  1  0  0  0  0
  6  7  1  0  0  0  0
  6 17  1  0  0  0  0
  7  8  1  0  0  0  0
  7 16  1  0  0  0  0
  7 40  1  0  0  0  0
  8  9  1  0  0  0  0
  8 41  1  0  0  0  0
  8 42  1  0  0  0  0
  9 10  1  0  0  0  0
  9 43  1  0  0  0  0
  9 44  1  0  0  0  0
 10 11  1  0  0  0  0
 10 15  1  0  0  0  0
 11 12  1  0  0  0  0
 11 14  1  0  0  0  0
 11 45  1  0  0  0  0
 12 13  1  0  0  0  0
 12 46  1  0  0  0  0
 12 47  1  0  0  0  0
 13 14  1  0  0  0  0
 14 48  1  0  0  0  0
 14 49  1  0  0  0  0
 15 16  1  0  0  0  0
 15 50  1  0  0  0  0
 15 51  1  0  0  0  0
 16 52  1  0  0  0  0
 16 53  1  0  0  0  0
 17 18  2  0  0  0  0
 17 54  1  0  0  0  0
 18 19  1  0  0  0  0
 18 55  1  0  0  0  0
 19 20  1  0  0  0  0
 20 21  2  0  0  0  0
 20 22  1  0  0  0  0
 22 23  2  0  0  0  0
 22 32  1  0  0  0  0
 23 24  1  0  0  0  0
 24 25  1  0  0  0  0
 24 56  1  0  0  0  0
 25 26  1  0  0  0  0
 25 32  2  0  0  0  0
 26 27  2  0  0  0  0
 26 57  1  0  0  0  0
 27 28  1  0  0  0  0
 27 30  1  0  0  0  0
 28 29  3  0  0  0  0
 30 31  2  0  0  0  0
 30 58  1  0  0  0  0
 31 32  1  0  0  0  0
 31 59  1  0  0  0  0
M  END
$$$$
