CHEMBL178507
 OpenBabel04072215363D

 43 45  0  0  0  0  0  0  0  0999 V2000
    1.1752   -1.8249    2.5142 C   0  0  0  0  0  0  0  0  0  0  0  0
    2.6712   -1.5920    2.4158 C   0  0  0  0  0  0  0  0  0  0  0  0
    3.2043   -1.5462    0.7180 S   0  0  0  0  0  0  0  0  0  0  0  0
    2.8889   -2.8230    0.0994 O   0  0  0  0  0  0  0  0  0  0  0  0
    2.7427   -0.3076    0.1282 O   0  0  0  0  0  0  0  0  0  0  0  0
    4.9742   -1.4440    0.8316 C   0  0  0  0  0  0  0  0  0  0  0  0
    5.6202   -0.2132    0.7600 C   0  0  0  0  0  0  0  0  0  0  0  0
    7.0189   -0.1689    0.7395 C   0  0  0  0  0  0  0  0  0  0  0  0
    7.7718   -1.3517    0.7855 C   0  0  0  0  0  0  0  0  0  0  0  0
    9.1440   -1.3950    0.7220 O   0  0  0  0  0  0  0  0  0  0  0  0
    9.8361   -0.2008    1.0730 C   0  0  0  0  0  0  0  0  0  0  0  0
    7.1144   -2.5966    0.8784 C   0  0  0  0  0  0  0  0  0  0  0  0
    7.8483   -3.8006    0.9642 N   0  0  0  0  0  0  0  0  0  0  0  0
    7.4795   -4.8436    1.7262 C   0  0  0  0  0  0  0  0  0  0  0  0
    6.7026   -4.8603    2.7899 N   0  0  0  0  0  0  0  0  0  0  0  0
    6.6680   -6.1754    3.1569 C   0  0  0  0  0  0  0  0  0  0  0  0
    7.4102   -6.9368    2.2822 C   0  0  0  0  0  0  0  0  0  0  0  0
    7.6982   -8.3582    2.1488 C   0  0  0  0  0  0  0  0  0  0  0  0
    7.1563   -9.2736    3.0684 C   0  0  0  0  0  0  0  0  0  0  0  0
    7.4136  -10.6429    2.9617 C   0  0  0  0  0  0  0  0  0  0  0  0
    8.2174  -11.1181    1.9297 C   0  0  0  0  0  0  0  0  0  0  0  0
    8.7565  -10.2218    1.0095 C   0  0  0  0  0  0  0  0  0  0  0  0
    9.7476  -10.8121   -0.2680 Cl  0  0  0  0  0  0  0  0  0  0  0  0
    8.5017   -8.8524    1.1125 C   0  0  0  0  0  0  0  0  0  0  0  0
    7.9592   -6.0735    1.3645 O   0  0  0  0  0  0  0  0  0  0  0  0
    5.7107   -2.6243    0.8905 C   0  0  0  0  0  0  0  0  0  0  0  0
    0.8531   -1.8126    3.5595 H   0  0  0  0  0  0  0  0  0  0  0  0
    0.9005   -2.7944    2.0854 H   0  0  0  0  0  0  0  0  0  0  0  0
    0.6180   -1.0532    1.9733 H   0  0  0  0  0  0  0  0  0  0  0  0
    3.2114   -2.3982    2.9207 H   0  0  0  0  0  0  0  0  0  0  0  0
    2.9408   -0.6349    2.8716 H   0  0  0  0  0  0  0  0  0  0  0  0
    5.0505    0.7104    0.6935 H   0  0  0  0  0  0  0  0  0  0  0  0
    7.4915    0.8048    0.6607 H   0  0  0  0  0  0  0  0  0  0  0  0
   10.9073   -0.4254    1.0847 H   0  0  0  0  0  0  0  0  0  0  0  0
    9.5550    0.1394    2.0757 H   0  0  0  0  0  0  0  0  0  0  0  0
    9.6768    0.5873    0.3301 H   0  0  0  0  0  0  0  0  0  0  0  0
    8.4991   -3.9391    0.2023 H   0  0  0  0  0  0  0  0  0  0  0  0
    6.1051   -6.5013    4.0194 H   0  0  0  0  0  0  0  0  0  0  0  0
    6.5217   -8.9341    3.8845 H   0  0  0  0  0  0  0  0  0  0  0  0
    6.9858  -11.3347    3.6834 H   0  0  0  0  0  0  0  0  0  0  0  0
    8.4181  -12.1830    1.8475 H   0  0  0  0  0  0  0  0  0  0  0  0
    8.9316   -8.1743    0.3792 H   0  0  0  0  0  0  0  0  0  0  0  0
    5.1942   -3.5824    0.9220 H   0  0  0  0  0  0  0  0  0  0  0  0
  1  2  1  0  0  0  0
  1 27  1  0  0  0  0
  1 28  1  0  0  0  0
  1 29  1  0  0  0  0
  2  3  1  0  0  0  0
  2 30  1  0  0  0  0
  2 31  1  0  0  0  0
  3  4  2  0  0  0  0
  3  5  2  0  0  0  0
  3  6  1  0  0  0  0
  6  7  1  0  0  0  0
  6 26  2  0  0  0  0
  7  8  2  0  0  0  0
  7 32  1  0  0  0  0
  8  9  1  0  0  0  0
  8 33  1  0  0  0  0
  9 10  1  0  0  0  0
  9 12  2  0  0  0  0
 10 11  1  0  0  0  0
 11 34  1  0  0  0  0
 11 35  1  0  0  0  0
 11 36  1  0  0  0  0
 12 13  1  0  0  0  0
 12 26  1  0  0  0  0
 13 14  1  0  0  0  0
 13 37  1  0  0  0  0
 14 15  2  0  0  0  0
 14 25  1  0  0  0  0
 15 16  1  0  0  0  0
 16 17  2  0  0  0  0
 16 38  1  0  0  0  0
 17 18  1  0  0  0  0
 17 25  1  0  0  0  0
 18 19  1  0  0  0  0
 18 24  2  0  0  0  0
 19 20  2  0  0  0  0
 19 39  1  0  0  0  0
 20 21  1  0  0  0  0
 20 40  1  0  0  0  0
 21 22  2  0  0  0  0
 21 41  1  0  0  0  0
 22 23  1  0  0  0  0
 22 24  1  0  0  0  0
 24 42  1  0  0  0  0
 26 43  1  0  0  0  0
M  END
$$$$
