CHEMBL3931393
 OpenBabel04072215373D

 61 64  0  0  1  0  0  0  0  0999 V2000
    2.6541    0.4683    0.0582 C   0  0  0  0  0  0  0  0  0  0  0  0
    3.8378   -0.3449    0.5798 C   0  0  0  0  0  0  0  0  0  0  0  0
    3.4666   -1.3822    1.6700 C   0  0  3  0  0  0  0  0  0  0  0  0
    2.8910   -0.6718    2.9044 C   0  0  0  0  0  0  0  0  0  0  0  0
    4.6994   -2.2348    2.1117 C   0  0  0  0  0  0  0  0  0  0  0  0
    5.1762   -3.1461    1.0508 N   0  0  0  0  0  0  0  0  0  0  0  0
    6.3025   -3.9532    1.5026 C   0  0  0  0  0  0  0  0  0  0  0  0
    4.0539   -4.0244    0.6466 C   0  0  0  0  0  0  0  0  0  0  0  0
    2.8599   -3.1784    0.1822 C   0  0  3  0  0  0  0  0  0  0  0  0
    1.6500   -4.0448   -0.1375 C   0  0  0  0  0  0  0  0  0  0  0  0
    1.9106   -4.9828   -1.1633 O   0  0  0  0  0  0  0  0  0  0  0  0
    1.1738   -6.1368   -1.1808 C   0  0  0  0  0  0  0  0  0  0  0  0
    1.8998   -7.1921   -1.7809 C   0  0  0  0  0  0  0  0  0  0  0  0
    1.4132   -8.4904   -1.9013 C   0  0  0  0  0  0  0  0  0  0  0  0
    2.1779   -9.4493   -2.4413 N   0  0  0  0  0  0  0  0  0  0  0  0
    1.6407  -10.6782   -2.5129 C   0  0  0  0  0  0  0  0  0  0  0  0
    0.4098  -11.0244   -2.1239 N   0  0  0  0  0  0  0  0  0  0  0  0
   -0.3538  -10.0473   -1.6069 C   0  0  0  0  0  0  0  0  0  0  0  0
   -1.7075  -10.3247   -1.2576 N   0  0  0  0  0  0  0  0  0  0  0  0
   -2.2910  -11.6039   -1.1749 C   0  0  0  0  0  0  0  0  0  0  0  0
   -1.6608  -12.6434   -0.4821 C   0  0  0  0  0  0  0  0  0  0  0  0
   -2.2357  -13.9130   -0.4198 C   0  0  0  0  0  0  0  0  0  0  0  0
   -3.4555  -14.1609   -1.0525 C   0  0  0  0  0  0  0  0  0  0  0  0
   -4.0928  -15.7621   -0.9744 Cl  0  0  0  0  0  0  0  0  0  0  0  0
   -4.1102  -13.1216   -1.7225 C   0  0  0  0  0  0  0  0  0  0  0  0
   -5.6262  -13.3455   -2.5220 Cl  0  0  0  0  0  0  0  0  0  0  0  0
   -3.5338  -11.8476   -1.7701 C   0  0  0  0  0  0  0  0  0  0  0  0
    0.1232   -8.7359   -1.4404 C   0  0  0  0  0  0  0  0  0  0  0  0
   -0.6117   -7.6953   -0.8247 C   0  0  0  0  0  0  0  0  0  0  0  0
   -0.1095   -6.3920   -0.6919 C   0  0  0  0  0  0  0  0  0  0  0  0
   -0.9532   -5.6145    0.0415 O   0  0  0  0  0  0  0  0  0  0  0  0
   -1.2824   -4.3056   -0.3962 C   0  0  0  0  0  0  0  0  0  0  0  0
    2.4241   -2.2603    1.2044 O   0  0  0  0  0  0  0  0  0  0  0  0
    2.9748    1.0996   -0.7766 H   0  0  0  0  0  0  0  0  0  0  0  0
    2.2522    1.1322    0.8295 H   0  0  0  0  0  0  0  0  0  0  0  0
    1.8454   -0.1754   -0.3013 H   0  0  0  0  0  0  0  0  0  0  0  0
    4.5950    0.3434    0.9717 H   0  0  0  0  0  0  0  0  0  0  0  0
    4.2939   -0.8428   -0.2833 H   0  0  0  0  0  0  0  0  0  0  0  0
    3.5979    0.0579    3.3164 H   0  0  0  0  0  0  0  0  0  0  0  0
    2.6446   -1.3937    3.6875 H   0  0  0  0  0  0  0  0  0  0  0  0
    1.9510   -0.1580    2.6703 H   0  0  0  0  0  0  0  0  0  0  0  0
    4.4224   -2.8313    2.9919 H   0  0  0  0  0  0  0  0  0  0  0  0
    5.5105   -1.5620    2.4136 H   0  0  0  0  0  0  0  0  0  0  0  0
    7.1427   -3.3087    1.7894 H   0  0  0  0  0  0  0  0  0  0  0  0
    6.6602   -4.5934    0.6867 H   0  0  0  0  0  0  0  0  0  0  0  0
    6.0455   -4.5906    2.3541 H   0  0  0  0  0  0  0  0  0  0  0  0
    3.7514   -4.6589    1.4904 H   0  0  0  0  0  0  0  0  0  0  0  0
    4.3748   -4.6806   -0.1701 H   0  0  0  0  0  0  0  0  0  0  0  0
    3.1320   -2.6237   -0.7209 H   0  0  0  0  0  0  0  0  0  0  0  0
    0.9112   -3.3357   -0.5106 H   0  0  0  0  0  0  0  0  0  0  0  0
    1.2900   -4.5202    0.7832 H   0  0  0  0  0  0  0  0  0  0  0  0
    2.9118   -6.9963   -2.1372 H   0  0  0  0  0  0  0  0  0  0  0  0
    2.2585  -11.4623   -2.9353 H   0  0  0  0  0  0  0  0  0  0  0  0
   -2.3008   -9.6663   -1.7534 H   0  0  0  0  0  0  0  0  0  0  0  0
   -0.7097  -12.4632    0.0165 H   0  0  0  0  0  0  0  0  0  0  0  0
   -1.7204  -14.7036    0.1180 H   0  0  0  0  0  0  0  0  0  0  0  0
   -4.0511  -11.0500   -2.2996 H   0  0  0  0  0  0  0  0  0  0  0  0
   -1.5949   -7.9024   -0.4036 H   0  0  0  0  0  0  0  0  0  0  0  0
   -2.3714   -4.1964   -0.4210 H   0  0  0  0  0  0  0  0  0  0  0  0
   -0.8884   -4.0507   -1.3845 H   0  0  0  0  0  0  0  0  0  0  0  0
   -0.9331   -3.6065    0.3696 H   0  0  0  0  0  0  0  0  0  0  0  0
  1  2  1  0  0  0  0
  1 34  1  0  0  0  0
  1 35  1  0  0  0  0
  1 36  1  0  0  0  0
  2  3  1  0  0  0  0
  2 37  1  0  0  0  0
  2 38  1  0  0  0  0
  3  4  1  0  0  0  0
  3  5  1  0  0  0  0
  3 33  1  0  0  0  0
  4 39  1  0  0  0  0
  4 40  1  0  0  0  0
  4 41  1  0  0  0  0
  5  6  1  0  0  0  0
  5 42  1  0  0  0  0
  5 43  1  0  0  0  0
  6  7  1  0  0  0  0
  6  8  1  0  0  0  0
  7 44  1  0  0  0  0
  7 45  1  0  0  0  0
  7 46  1  0  0  0  0
  8  9  1  0  0  0  0
  8 47  1  0  0  0  0
  8 48  1  0  0  0  0
  9 10  1  0  0  0  0
  9 33  1  0  0  0  0
  9 49  1  0  0  0  0
 10 11  1  0  0  0  0
 10 50  1  0  0  0  0
 10 51  1  0  0  0  0
 11 12  1  0  0  0  0
 12 13  1  0  0  0  0
 12 30  2  0  0  0  0
 13 14  2  0  0  0  0
 13 52  1  0  0  0  0
 14 15  1  0  0  0  0
 14 28  1  0  0  0  0
 15 16  2  0  0  0  0
 16 17  1  0  0  0  0
 16 53  1  0  0  0  0
 17 18  2  0  0  0  0
 18 19  1  0  0  0  0
 18 28  1  0  0  0  0
 19 20  1  0  0  0  0
 19 54  1  0  0  0  0
 20 21  1  0  0  0  0
 20 27  2  0  0  0  0
 21 22  2  0  0  0  0
 21 55  1  0  0  0  0
 22 23  1  0  0  0  0
 22 56  1  0  0  0  0
 23 24  1  0  0  0  0
 23 25  2  0  0  0  0
 25 26  1  0  0  0  0
 25 27  1  0  0  0  0
 27 57  1  0  0  0  0
 28 29  2  0  0  0  0
 29 30  1  0  0  0  0
 29 58  1  0  0  0  0
 30 31  1  0  0  0  0
 31 32  1  0  0  0  0
 32 59  1  0  0  0  0
 32 60  1  0  0  0  0
 32 61  1  0  0  0  0
M  END
$$$$
