CHEMBL3810135
 OpenBabel04072215373D

 52 56  0  0  0  0  0  0  0  0999 V2000
    6.4343   -1.4763   -2.9057 C   0  0  0  0  0  0  0  0  0  0  0  0
    6.0995   -1.0023   -1.4802 C   0  0  0  0  0  0  0  0  0  0  0  0
    7.3910   -0.8842   -0.6552 C   0  0  0  0  0  0  0  0  0  0  0  0
    5.4500    0.3926   -1.5706 C   0  0  0  0  0  0  0  0  0  0  0  0
    5.1849   -2.0110   -0.8498 C   0  0  0  0  0  0  0  0  0  0  0  0
    5.2920   -3.3664   -0.5915 C   0  0  0  0  0  0  0  0  0  0  0  0
    4.0343   -3.7349   -0.0561 C   0  0  0  0  0  0  0  0  0  0  0  0
    3.6750   -5.0212    0.2915 N   0  0  0  0  0  0  0  0  0  0  0  0
    2.5651   -5.2940    1.0573 C   0  0  0  0  0  0  0  0  0  0  0  0
    1.7441   -4.5419    1.5600 O   0  0  0  0  0  0  0  0  0  0  0  0
    2.5083   -6.6748    1.3600 N   0  0  0  0  0  0  0  0  0  0  0  0
    3.0432   -7.6058    0.5117 N   0  0  0  0  0  0  0  0  0  0  0  0
    2.6981   -8.7743    1.0719 C   0  0  0  0  0  0  0  0  0  0  0  0
    2.1468   -8.6190    2.3610 C   0  0  0  0  0  0  0  0  0  0  0  0
    1.7785   -9.4797    3.4150 C   0  0  0  0  0  0  0  0  0  0  0  0
    1.3790   -8.9162    4.6368 C   0  0  0  0  0  0  0  0  0  0  0  0
    1.1747   -9.8144    5.6718 O   0  0  0  0  0  0  0  0  0  0  0  0
    1.2944   -9.3163    6.9593 C   0  0  0  0  0  0  0  0  0  0  0  0
    2.3732   -8.5653    7.2766 N   0  0  0  0  0  0  0  0  0  0  0  0
    2.2878   -7.8647    8.4253 C   0  0  0  0  0  0  0  0  0  0  0  0
    1.2351   -7.8265    9.2605 N   0  0  0  0  0  0  0  0  0  0  0  0
    0.2311   -8.6368    8.9025 C   0  0  0  0  0  0  0  0  0  0  0  0
    0.2292   -9.4473    7.7936 C   0  0  0  0  0  0  0  0  0  0  0  0
   -1.0618  -10.1579    7.6897 C   0  0  0  0  0  0  0  0  0  0  0  0
   -2.0124   -9.2696    8.4095 N   0  0  0  0  0  0  0  0  0  0  0  0
   -1.1675   -8.6298    9.4694 C   0  0  0  0  0  0  0  0  0  0  0  0
    1.2087   -7.5327    4.7498 C   0  0  0  0  0  0  0  0  0  0  0  0
    1.5219   -6.6722    3.6979 C   0  0  0  0  0  0  0  0  0  0  0  0
    2.0115   -7.2494    2.5212 C   0  0  0  0  0  0  0  0  0  0  0  0
    3.2475   -2.6620    0.0531 N   0  0  0  0  0  0  0  0  0  0  0  0
    3.9554   -1.5959   -0.4482 O   0  0  0  0  0  0  0  0  0  0  0  0
    7.1203   -0.7850   -3.4058 H   0  0  0  0  0  0  0  0  0  0  0  0
    5.5269   -1.5517   -3.5179 H   0  0  0  0  0  0  0  0  0  0  0  0
    6.9050   -2.4668   -2.8997 H   0  0  0  0  0  0  0  0  0  0  0  0
    8.0997   -0.1954   -1.1284 H   0  0  0  0  0  0  0  0  0  0  0  0
    7.8933   -1.8524   -0.5467 H   0  0  0  0  0  0  0  0  0  0  0  0
    7.1845   -0.5075    0.3543 H   0  0  0  0  0  0  0  0  0  0  0  0
    6.1276    1.1094   -2.0546 H   0  0  0  0  0  0  0  0  0  0  0  0
    5.2080    0.7910   -0.5787 H   0  0  0  0  0  0  0  0  0  0  0  0
    4.5242    0.3723   -2.1555 H   0  0  0  0  0  0  0  0  0  0  0  0
    6.1521   -3.9886   -0.7718 H   0  0  0  0  0  0  0  0  0  0  0  0
    4.3071   -5.7866    0.0808 H   0  0  0  0  0  0  0  0  0  0  0  0
    2.9140   -9.6996    0.5509 H   0  0  0  0  0  0  0  0  0  0  0  0
    1.8725  -10.5566    3.3179 H   0  0  0  0  0  0  0  0  0  0  0  0
    3.1359   -7.2354    8.6745 H   0  0  0  0  0  0  0  0  0  0  0  0
   -1.0064  -11.1205    8.2164 H   0  0  0  0  0  0  0  0  0  0  0  0
   -1.3795  -10.3386    6.6600 H   0  0  0  0  0  0  0  0  0  0  0  0
   -2.2502   -8.5249    7.7479 H   0  0  0  0  0  0  0  0  0  0  0  0
   -1.2191   -9.2207   10.3879 H   0  0  0  0  0  0  0  0  0  0  0  0
   -1.5112   -7.6087    9.6577 H   0  0  0  0  0  0  0  0  0  0  0  0
    0.8698   -7.0759    5.6791 H   0  0  0  0  0  0  0  0  0  0  0  0
    1.4492   -5.5933    3.8207 H   0  0  0  0  0  0  0  0  0  0  0  0
  1  2  1  0  0  0  0
  1 32  1  0  0  0  0
  1 33  1  0  0  0  0
  1 34  1  0  0  0  0
  2  3  1  0  0  0  0
  2  4  1  0  0  0  0
  2  5  1  0  0  0  0
  3 35  1  0  0  0  0
  3 36  1  0  0  0  0
  3 37  1  0  0  0  0
  4 38  1  0  0  0  0
  4 39  1  0  0  0  0
  4 40  1  0  0  0  0
  5  6  2  0  0  0  0
  5 31  1  0  0  0  0
  6  7  1  0  0  0  0
  6 41  1  0  0  0  0
  7  8  1  0  0  0  0
  7 30  2  0  0  0  0
  8  9  1  0  0  0  0
  8 42  1  0  0  0  0
  9 10  2  0  0  0  0
  9 11  1  0  0  0  0
 11 12  1  0  0  0  0
 11 29  1  0  0  0  0
 12 13  2  0  0  0  0
 13 14  1  0  0  0  0
 13 43  1  0  0  0  0
 14 15  1  0  0  0  0
 14 29  2  0  0  0  0
 15 16  2  0  0  0  0
 15 44  1  0  0  0  0
 16 17  1  0  0  0  0
 16 27  1  0  0  0  0
 17 18  1  0  0  0  0
 18 19  1  0  0  0  0
 18 23  2  0  0  0  0
 19 20  2  0  0  0  0
 20 21  1  0  0  0  0
 20 45  1  0  0  0  0
 21 22  2  0  0  0  0
 22 23  1  0  0  0  0
 22 26  1  0  0  0  0
 23 24  1  0  0  0  0
 24 25  1  0  0  0  0
 24 46  1  0  0  0  0
 24 47  1  0  0  0  0
 25 26  1  0  0  0  0
 25 48  1  0  0  0  0
 26 49  1  0  0  0  0
 26 50  1  0  0  0  0
 27 28  2  0  0  0  0
 27 51  1  0  0  0  0
 28 29  1  0  0  0  0
 28 52  1  0  0  0  0
 30 31  1  0  0  0  0
M  END
$$$$
