CHEMBL4568087
 OpenBabel04072215383D

 53 57  0  0  1  0  0  0  0  0999 V2000
   14.2098  -17.2658    0.7905 C   0  0  0  0  0  0  0  0  0  0  0  0
   13.4383  -16.0683    1.0287 N   0  0  0  0  0  0  0  0  0  0  0  0
   12.5102  -15.8456    2.0122 C   0  0  0  0  0  0  0  0  0  0  0  0
   12.0572  -14.5514    1.8348 C   0  0  0  0  0  0  0  0  0  0  0  0
   11.0728  -13.8497    2.5965 C   0  0  0  0  0  0  0  0  0  0  0  0
   11.0273  -12.3415    2.5892 C   0  0  0  0  0  0  0  0  0  0  0  0
   10.1255  -11.5697    3.1255 N   0  0  0  0  0  0  0  0  0  0  0  0
    9.1154  -12.2017    3.8005 C   0  0  0  0  0  0  0  0  0  0  0  0
    7.9334  -11.7609    4.3772 C   0  0  0  0  0  0  0  0  0  0  0  0
    7.2679  -10.4363    4.3797 C   0  0  0  0  0  0  0  0  0  0  0  0
    6.0631  -10.1643    4.9989 C   0  0  0  0  0  0  0  0  0  0  0  0
    5.4676   -8.5979    4.6449 S   0  0  0  0  0  0  0  0  0  0  0  0
    6.7958   -8.2403    3.6209 C   0  0  0  0  0  0  0  0  0  0  0  0
    6.8441   -7.0157    2.8034 C   0  0  0  0  0  0  0  0  0  0  0  0
    7.7584   -6.7850    2.0175 O   0  0  0  0  0  0  0  0  0  0  0  0
    5.7573   -6.1461    2.8902 N   0  0  0  0  0  0  0  0  0  0  0  0
    5.5172   -5.0155    1.9637 C   0  0  2  0  0  0  0  0  0  0  0  0
    4.6537   -3.9145    2.6051 C   0  0  0  0  0  0  0  0  0  0  0  0
    3.2251   -4.3759    2.9027 C   0  0  0  0  0  0  0  0  0  0  0  0
    2.5381   -5.0420    1.7086 C   0  0  0  0  0  0  0  0  0  0  0  0
    3.4261   -6.0475    0.9677 C   0  0  0  0  0  0  0  0  0  0  0  0
    4.7976   -5.4349    0.6454 C   0  0  2  0  0  0  0  0  0  0  0  0
    5.5945   -6.3246   -0.2022 N   0  0  0  0  0  0  0  0  0  0  0  0
    7.7300   -9.2769    3.6657 C   0  0  0  0  0  0  0  0  0  0  0  0
    7.3741  -12.9308    4.9562 C   0  0  0  0  0  0  0  0  0  0  0  0
    8.0989  -14.0276    4.7287 N   0  0  0  0  0  0  0  0  0  0  0  0
    9.1337  -13.5980    3.9675 N   0  0  0  0  0  0  0  0  0  0  0  0
   10.1003  -14.3925    3.3495 C   0  0  0  0  0  0  0  0  0  0  0  0
   12.7673  -14.0990    0.7008 C   0  0  0  0  0  0  0  0  0  0  0  0
   13.6109  -15.0125    0.2170 N   0  0  0  0  0  0  0  0  0  0  0  0
   13.9008  -18.0463    1.4885 H   0  0  0  0  0  0  0  0  0  0  0  0
   15.2672  -17.0282    0.9363 H   0  0  0  0  0  0  0  0  0  0  0  0
   14.0333  -17.5938   -0.2380 H   0  0  0  0  0  0  0  0  0  0  0  0
   12.2702  -16.6161    2.7351 H   0  0  0  0  0  0  0  0  0  0  0  0
   11.8696  -11.8483    2.0766 H   0  0  0  0  0  0  0  0  0  0  0  0
    5.4628  -10.8188    5.6162 H   0  0  0  0  0  0  0  0  0  0  0  0
    4.9826   -6.4693    3.4572 H   0  0  0  0  0  0  0  0  0  0  0  0
    6.4946   -4.5865    1.7101 H   0  0  0  0  0  0  0  0  0  0  0  0
    4.5993   -3.0636    1.9098 H   0  0  0  0  0  0  0  0  0  0  0  0
    5.1224   -3.5360    3.5195 H   0  0  0  0  0  0  0  0  0  0  0  0
    2.6264   -3.5140    3.2236 H   0  0  0  0  0  0  0  0  0  0  0  0
    3.2391   -5.0728    3.7475 H   0  0  0  0  0  0  0  0  0  0  0  0
    2.2202   -4.2647    1.0019 H   0  0  0  0  0  0  0  0  0  0  0  0
    1.6226   -5.5407    2.0493 H   0  0  0  0  0  0  0  0  0  0  0  0
    2.9163   -6.3544    0.0461 H   0  0  0  0  0  0  0  0  0  0  0  0
    3.5401   -6.9526    1.5767 H   0  0  0  0  0  0  0  0  0  0  0  0
    4.6155   -4.5305    0.0468 H   0  0  0  0  0  0  0  0  0  0  0  0
    6.1850   -6.9125    0.3919 H   0  0  0  0  0  0  0  0  0  0  0  0
    6.2831   -5.7539   -0.6993 H   0  0  0  0  0  0  0  0  0  0  0  0
    8.6676   -9.2317    3.1221 H   0  0  0  0  0  0  0  0  0  0  0  0
    6.4587  -13.0344    5.5098 H   0  0  0  0  0  0  0  0  0  0  0  0
    9.9680  -15.4595    3.4778 H   0  0  0  0  0  0  0  0  0  0  0  0
   12.7033  -13.1454    0.1932 H   0  0  0  0  0  0  0  0  0  0  0  0
  1  2  1  0  0  0  0
  1 31  1  0  0  0  0
  1 32  1  0  0  0  0
  1 33  1  0  0  0  0
  2  3  1  0  0  0  0
  2 30  1  0  0  0  0
  3  4  2  0  0  0  0
  3 34  1  0  0  0  0
  4  5  1  0  0  0  0
  4 29  1  0  0  0  0
  5  6  1  0  0  0  0
  5 28  2  0  0  0  0
  6  7  2  0  0  0  0
  6 35  1  0  0  0  0
  7  8  1  0  0  0  0
  8  9  2  0  0  0  0
  8 27  1  0  0  0  0
  9 10  1  0  0  0  0
  9 25  1  0  0  0  0
 10 11  2  0  0  0  0
 10 24  1  0  0  0  0
 11 12  1  0  0  0  0
 11 36  1  0  0  0  0
 12 13  1  0  0  0  0
 13 14  1  0  0  0  0
 13 24  2  0  0  0  0
 14 15  2  0  0  0  0
 14 16  1  0  0  0  0
 16 37  1  0  0  0  0
 17 18  1  0  0  0  0
 17 22  1  0  0  0  0
 17 16  1  0  0  0  0
 17 38  1  6  0  0  0
 18 19  1  0  0  0  0
 18 39  1  0  0  0  0
 18 40  1  0  0  0  0
 19 20  1  0  0  0  0
 19 41  1  0  0  0  0
 19 42  1  0  0  0  0
 20 21  1  0  0  0  0
 20 43  1  0  0  0  0
 20 44  1  0  0  0  0
 21 22  1  0  0  0  0
 21 45  1  0  0  0  0
 21 46  1  0  0  0  0
 22 23  1  0  0  0  0
 22 47  1  6  0  0  0
 23 48  1  0  0  0  0
 23 49  1  0  0  0  0
 24 50  1  0  0  0  0
 25 26  2  0  0  0  0
 25 51  1  0  0  0  0
 26 27  1  0  0  0  0
 27 28  1  0  0  0  0
 28 52  1  0  0  0  0
 29 30  2  0  0  0  0
 29 53  1  0  0  0  0
M  END
$$$$
