CHEMBL3961872
 OpenBabel04072215373D

 58 62  0  0  0  0  0  0  0  0999 V2000
    0.7534   -0.2913   -0.0726 C   0  0  0  0  0  0  0  0  0  0  0  0
    1.9440   -0.7604    0.5651 O   0  0  0  0  0  0  0  0  0  0  0  0
    2.8191   -1.4902   -0.2034 C   0  0  0  0  0  0  0  0  0  0  0  0
    2.5848   -1.9081   -1.5004 C   0  0  0  0  0  0  0  0  0  0  0  0
    3.5547   -2.6458   -2.1772 C   0  0  0  0  0  0  0  0  0  0  0  0
    3.4818   -3.0519   -3.4828 O   0  0  0  0  0  0  0  0  0  0  0  0
    2.1836   -3.1416   -4.0438 C   0  0  0  0  0  0  0  0  0  0  0  0
    4.7670   -2.9761   -1.5605 C   0  0  0  0  0  0  0  0  0  0  0  0
    5.0847   -2.5267   -0.2881 C   0  0  0  0  0  0  0  0  0  0  0  0
    6.3605   -2.7874    0.2684 N   0  0  0  0  0  0  0  0  0  0  0  0
    6.7525   -1.8690    1.4494 C   0  0  0  0  0  0  0  0  0  0  0  0
    6.4350   -2.1453    2.9444 C   0  0  0  0  0  0  0  0  0  0  0  0
    5.4783   -2.9748    3.5072 C   0  0  0  0  0  0  0  0  0  0  0  0
    5.6132   -2.9975    5.2228 S   0  0  0  0  0  0  0  0  0  0  0  0
    6.9390   -1.9105    5.1323 C   0  0  0  0  0  0  0  0  0  0  0  0
    7.6943   -1.5298    6.3692 C   0  0  0  0  0  0  0  0  0  0  0  0
    7.2401   -1.5106    3.9110 N   0  0  0  0  0  0  0  0  0  0  0  0
    7.3467   -3.8134   -0.0050 C   0  0  0  0  0  0  0  0  0  0  0  0
    7.7149   -4.4476    1.1468 C   0  0  0  0  0  0  0  0  0  0  0  0
    8.9201   -5.0223    1.2349 C   0  0  0  0  0  0  0  0  0  0  0  0
    9.6753   -5.3393    0.1600 C   0  0  0  0  0  0  0  0  0  0  0  0
   10.6538   -5.9491    0.7480 N   0  0  0  0  0  0  0  0  0  0  0  0
   11.1695   -6.9736    0.1228 C   0  0  0  0  0  0  0  0  0  0  0  0
   11.2735   -7.0171   -1.2311 C   0  0  0  0  0  0  0  0  0  0  0  0
   12.6716   -7.6526   -1.4489 C   0  0  0  0  0  0  0  0  0  0  0  0
   13.7467   -7.2210   -0.5420 C   0  0  0  0  0  0  0  0  0  0  0  0
   14.5626   -8.1788   -0.1094 N   0  0  0  0  0  0  0  0  0  0  0  0
   14.1340   -9.2780   -0.7353 N   0  0  0  0  0  0  0  0  0  0  0  0
   14.8310  -10.5163   -0.4133 C   0  0  0  0  0  0  0  0  0  0  0  0
   12.9959   -9.0319   -1.5132 C   0  0  0  0  0  0  0  0  0  0  0  0
   10.4291   -6.1118   -1.9556 N   0  0  0  0  0  0  0  0  0  0  0  0
    9.3720   -5.2681   -1.1676 C   0  0  0  0  0  0  0  0  0  0  0  0
    8.0851   -4.2830   -1.2109 C   0  0  0  0  0  0  0  0  0  0  0  0
    4.0593   -1.8074    0.3899 C   0  0  0  0  0  0  0  0  0  0  0  0
    0.2047    0.3326    0.6390 H   0  0  0  0  0  0  0  0  0  0  0  0
    0.0991   -1.1257   -0.3508 H   0  0  0  0  0  0  0  0  0  0  0  0
    0.9881    0.3320   -0.9428 H   0  0  0  0  0  0  0  0  0  0  0  0
    1.6627   -1.6379   -1.9984 H   0  0  0  0  0  0  0  0  0  0  0  0
    2.3014   -3.4515   -5.0856 H   0  0  0  0  0  0  0  0  0  0  0  0
    1.6642   -2.1795   -4.0499 H   0  0  0  0  0  0  0  0  0  0  0  0
    1.5977   -3.9060   -3.5217 H   0  0  0  0  0  0  0  0  0  0  0  0
    5.4754   -3.5685   -2.1209 H   0  0  0  0  0  0  0  0  0  0  0  0
    6.3925   -0.8523    1.2418 H   0  0  0  0  0  0  0  0  0  0  0  0
    7.8467   -1.7582    1.4155 H   0  0  0  0  0  0  0  0  0  0  0  0
    4.7429   -3.5973    3.0196 H   0  0  0  0  0  0  0  0  0  0  0  0
    7.2907   -1.9936    7.2773 H   0  0  0  0  0  0  0  0  0  0  0  0
    7.6875   -0.4452    6.5191 H   0  0  0  0  0  0  0  0  0  0  0  0
    8.7376   -1.8516    6.2768 H   0  0  0  0  0  0  0  0  0  0  0  0
    7.2006   -4.3410    2.0827 H   0  0  0  0  0  0  0  0  0  0  0  0
    9.2756   -5.3486    2.2110 H   0  0  0  0  0  0  0  0  0  0  0  0
   11.7119   -7.6032    0.8066 H   0  0  0  0  0  0  0  0  0  0  0  0
   13.7814   -6.2873    0.0110 H   0  0  0  0  0  0  0  0  0  0  0  0
   15.5861  -10.3209    0.3661 H   0  0  0  0  0  0  0  0  0  0  0  0
   15.3544  -10.8789   -1.3002 H   0  0  0  0  0  0  0  0  0  0  0  0
   14.1379  -11.2647   -0.0206 H   0  0  0  0  0  0  0  0  0  0  0  0
   12.5072   -9.8797   -1.9742 H   0  0  0  0  0  0  0  0  0  0  0  0
    7.7452   -3.9441   -2.1952 H   0  0  0  0  0  0  0  0  0  0  0  0
    4.1862   -1.4578    1.4097 H   0  0  0  0  0  0  0  0  0  0  0  0
  1  2  1  0  0  0  0
  1 35  1  0  0  0  0
  1 36  1  0  0  0  0
  1 37  1  0  0  0  0
  2  3  1  0  0  0  0
  3  4  1  0  0  0  0
  3 34  2  0  0  0  0
  4  5  2  0  0  0  0
  4 38  1  0  0  0  0
  5  6  1  0  0  0  0
  5  8  1  0  0  0  0
  6  7  1  0  0  0  0
  7 39  1  0  0  0  0
  7 40  1  0  0  0  0
  7 41  1  0  0  0  0
  8  9  2  0  0  0  0
  8 42  1  0  0  0  0
  9 10  1  0  0  0  0
  9 34  1  0  0  0  0
 10 11  1  0  0  0  0
 10 18  1  0  0  0  0
 11 12  1  0  0  0  0
 11 43  1  0  0  0  0
 11 44  1  0  0  0  0
 12 13  2  0  0  0  0
 12 17  1  0  0  0  0
 13 14  1  0  0  0  0
 13 45  1  0  0  0  0
 14 15  1  0  0  0  0
 15 16  1  0  0  0  0
 15 17  2  0  0  0  0
 16 46  1  0  0  0  0
 16 47  1  0  0  0  0
 16 48  1  0  0  0  0
 18 19  1  0  0  0  0
 18 33  2  0  0  0  0
 19 20  2  0  0  0  0
 19 49  1  0  0  0  0
 20 21  1  0  0  0  0
 20 50  1  0  0  0  0
 21 22  1  0  0  0  0
 21 32  2  0  0  0  0
 22 23  2  0  0  0  0
 23 24  1  0  0  0  0
 23 51  1  0  0  0  0
 24 25  1  0  0  0  0
 24 31  2  0  0  0  0
 25 26  1  0  0  0  0
 25 30  2  0  0  0  0
 26 27  2  0  0  0  0
 26 52  1  0  0  0  0
 27 28  1  0  0  0  0
 28 29  1  0  0  0  0
 28 30  1  0  0  0  0
 29 53  1  0  0  0  0
 29 54  1  0  0  0  0
 29 55  1  0  0  0  0
 30 56  1  0  0  0  0
 31 32  1  0  0  0  0
 32 33  1  0  0  0  0
 33 57  1  0  0  0  0
 34 58  1  0  0  0  0
M  END
$$$$
