CHEMBL4471270
 OpenBabel04072215383D

 51 54  0  0  0  0  0  0  0  0999 V2000
    0.5674    0.9039   -0.6955 C   0  0  0  0  0  0  0  0  0  0  0  0
    1.9644    0.8984   -0.9820 O   0  0  0  0  0  0  0  0  0  0  0  0
    2.5996    2.1109   -0.9321 C   0  0  0  0  0  0  0  0  0  0  0  0
    1.9747    3.3343   -0.6691 C   0  0  0  0  0  0  0  0  0  0  0  0
    2.7148    4.5103   -0.6417 C   0  0  0  0  0  0  0  0  0  0  0  0
    4.0946    4.4638   -0.8508 C   0  0  0  0  0  0  0  0  0  0  0  0
    4.7504    3.2458   -1.0663 C   0  0  0  0  0  0  0  0  0  0  0  0
    6.1527    3.1537   -1.2094 N   0  0  0  0  0  0  0  0  0  0  0  0
    7.0295    4.0863   -0.6654 C   0  0  0  0  0  0  0  0  0  0  0  0
    6.6866    4.9848    0.0997 O   0  0  0  0  0  0  0  0  0  0  0  0
    8.3324    3.9088   -1.0994 N   0  0  0  0  0  0  0  0  0  0  0  0
    9.3465    4.7932   -0.6407 C   0  0  0  0  0  0  0  0  0  0  0  0
    9.4256    5.1526    0.7143 C   0  0  0  0  0  0  0  0  0  0  0  0
   10.3144    6.1391    1.1407 C   0  0  0  0  0  0  0  0  0  0  0  0
   11.1104    6.7876    0.2061 C   0  0  0  0  0  0  0  0  0  0  0  0
   11.9791    7.9012    0.6500 C   0  0  0  0  0  0  0  0  0  0  0  0
   12.7379    7.7434    1.6016 O   0  0  0  0  0  0  0  0  0  0  0  0
   11.8538    9.0513   -0.1115 N   0  0  0  0  0  0  0  0  0  0  0  0
   12.9989    9.7343   -0.4088 N   0  0  0  0  0  0  0  0  0  0  0  0
   12.9228   10.5923   -1.3746 C   0  0  0  0  0  0  0  0  0  0  0  0
   11.6916   11.1314   -2.1084 C   0  0  0  0  0  0  0  0  0  0  0  0
   10.5554   11.1211   -1.6872 O   0  0  0  0  0  0  0  0  0  0  0  0
   12.1523   11.5002   -3.3522 N   0  0  0  0  0  0  0  0  0  0  0  0
   13.4834   11.1155   -3.4892 C   0  0  0  0  0  0  0  0  0  0  0  0
   14.1194   10.7288   -4.6488 C   0  0  0  0  0  0  0  0  0  0  0  0
   15.3792   10.1233   -4.5147 C   0  0  0  0  0  0  0  0  0  0  0  0
   16.0090   10.0175   -3.2557 C   0  0  0  0  0  0  0  0  0  0  0  0
   17.7089    9.2010   -3.1250 Br  0  0  0  0  0  0  0  0  0  0  0  0
   15.3504   10.3912   -2.0905 C   0  0  0  0  0  0  0  0  0  0  0  0
   14.0616   10.8562   -2.2482 C   0  0  0  0  0  0  0  0  0  0  0  0
   11.0962    6.3819   -1.1395 C   0  0  0  0  0  0  0  0  0  0  0  0
   10.2302    5.3636   -1.5573 C   0  0  0  0  0  0  0  0  0  0  0  0
    3.9770    2.0691   -1.1488 C   0  0  0  0  0  0  0  0  0  0  0  0
    0.2149   -0.1319   -0.7137 H   0  0  0  0  0  0  0  0  0  0  0  0
    0.0141    1.4582   -1.4604 H   0  0  0  0  0  0  0  0  0  0  0  0
    0.3654    1.3025    0.3039 H   0  0  0  0  0  0  0  0  0  0  0  0
    0.9096    3.4093   -0.4761 H   0  0  0  0  0  0  0  0  0  0  0  0
    2.2363    5.4617   -0.4436 H   0  0  0  0  0  0  0  0  0  0  0  0
    4.6416    5.4062   -0.8363 H   0  0  0  0  0  0  0  0  0  0  0  0
    6.5456    2.2513   -1.4000 H   0  0  0  0  0  0  0  0  0  0  0  0
    8.4165    3.5864   -2.0535 H   0  0  0  0  0  0  0  0  0  0  0  0
    8.7663    4.6936    1.4478 H   0  0  0  0  0  0  0  0  0  0  0  0
   10.3479    6.4253    2.1894 H   0  0  0  0  0  0  0  0  0  0  0  0
   11.0940    9.1006   -0.7923 H   0  0  0  0  0  0  0  0  0  0  0  0
   11.5674   11.9145   -4.0637 H   0  0  0  0  0  0  0  0  0  0  0  0
   13.6039   10.7171   -5.6043 H   0  0  0  0  0  0  0  0  0  0  0  0
   15.8449    9.6663   -5.3865 H   0  0  0  0  0  0  0  0  0  0  0  0
   15.7581   10.2069   -1.1020 H   0  0  0  0  0  0  0  0  0  0  0  0
   11.7485    6.8617   -1.8645 H   0  0  0  0  0  0  0  0  0  0  0  0
   10.2038    5.0894   -2.6087 H   0  0  0  0  0  0  0  0  0  0  0  0
    4.4556    1.1092   -1.3411 H   0  0  0  0  0  0  0  0  0  0  0  0
  1  2  1  0  0  0  0
  1 34  1  0  0  0  0
  1 35  1  0  0  0  0
  1 36  1  0  0  0  0
  2  3  1  0  0  0  0
  3  4  1  0  0  0  0
  3 33  2  0  0  0  0
  4  5  2  0  0  0  0
  4 37  1  0  0  0  0
  5  6  1  0  0  0  0
  5 38  1  0  0  0  0
  6  7  2  0  0  0  0
  6 39  1  0  0  0  0
  7  8  1  0  0  0  0
  7 33  1  0  0  0  0
  8  9  1  0  0  0  0
  8 40  1  0  0  0  0
  9 10  2  0  0  0  0
  9 11  1  0  0  0  0
 11 12  1  0  0  0  0
 11 41  1  0  0  0  0
 12 13  1  0  0  0  0
 12 32  2  0  0  0  0
 13 14  2  0  0  0  0
 13 42  1  0  0  0  0
 14 15  1  0  0  0  0
 14 43  1  0  0  0  0
 15 16  1  0  0  0  0
 15 31  2  0  0  0  0
 16 17  2  0  0  0  0
 16 18  1  0  0  0  0
 18 19  1  0  0  0  0
 18 44  1  0  0  0  0
 19 20  2  0  0  0  0
 20 21  1  0  0  0  0
 20 30  1  0  0  0  0
 21 22  2  0  0  0  0
 21 23  1  0  0  0  0
 23 24  1  0  0  0  0
 23 45  1  0  0  0  0
 24 25  1  0  0  0  0
 24 30  2  0  0  0  0
 25 26  2  0  0  0  0
 25 46  1  0  0  0  0
 26 27  1  0  0  0  0
 26 47  1  0  0  0  0
 27 28  1  0  0  0  0
 27 29  2  0  0  0  0
 29 30  1  0  0  0  0
 29 48  1  0  0  0  0
 31 32  1  0  0  0  0
 31 49  1  0  0  0  0
 32 50  1  0  0  0  0
 33 51  1  0  0  0  0
M  END
$$$$
