CHEMBL2322136
 OpenBabel04072215363D

 37 40  0  0  0  0  0  0  0  0999 V2000
    1.1050   -0.0805   -0.0586 C   0  0  0  0  0  0  0  0  0  0  0  0
    2.5480   -0.1411   -0.0730 N   0  0  0  0  0  0  0  0  0  0  0  0
    3.2637    1.0114   -0.0644 N   0  0  0  0  0  0  0  0  0  0  0  0
    4.5505    0.6125   -0.0668 C   0  0  0  0  0  0  0  0  0  0  0  0
    5.6765    1.6011   -0.0404 C   0  0  0  0  0  0  0  0  0  0  0  0
    6.0808    1.9567    1.4007 C   0  0  0  0  0  0  0  0  0  0  0  0
    7.2783    2.9028    1.4159 C   0  0  0  0  0  0  0  0  0  0  0  0
    7.0081    4.1557    0.5867 C   0  0  0  0  0  0  0  0  0  0  0  0
    6.6089    3.8054   -0.8440 C   0  0  0  0  0  0  0  0  0  0  0  0
    5.4085    2.8613   -0.8773 C   0  0  0  0  0  0  0  0  0  0  0  0
    4.5973   -0.7810   -0.0700 C   0  0  0  0  0  0  0  0  0  0  0  0
    5.6536   -1.7052   -0.0589 C   0  0  0  0  0  0  0  0  0  0  0  0
    7.0404   -1.5638   -0.0509 C   0  0  0  0  0  0  0  0  0  0  0  0
    7.5327   -2.8569   -0.0395 C   0  0  0  0  0  0  0  0  0  0  0  0
    6.4637   -3.7306   -0.0383 N   0  0  0  0  0  0  0  0  0  0  0  0
    5.2879   -3.0286   -0.0511 C   0  0  0  0  0  0  0  0  0  0  0  0
    4.0485   -3.5461   -0.0532 N   0  0  0  0  0  0  0  0  0  0  0  0
    3.0401   -2.6385   -0.0624 C   0  0  0  0  0  0  0  0  0  0  0  0
    3.3155   -1.2782   -0.0707 C   0  0  0  0  0  0  0  0  0  0  0  0
    0.7809    0.9638   -0.0542 H   0  0  0  0  0  0  0  0  0  0  0  0
    0.7489   -0.5823    0.8445 H   0  0  0  0  0  0  0  0  0  0  0  0
    0.7275   -0.5823   -0.9525 H   0  0  0  0  0  0  0  0  0  0  0  0
    6.5422    1.1231   -0.5115 H   0  0  0  0  0  0  0  0  0  0  0  0
    6.3375    1.0473    1.9579 H   0  0  0  0  0  0  0  0  0  0  0  0
    5.2391    2.4196    1.9318 H   0  0  0  0  0  0  0  0  0  0  0  0
    8.1584    2.3824    1.0159 H   0  0  0  0  0  0  0  0  0  0  0  0
    7.5182    3.1841    2.4480 H   0  0  0  0  0  0  0  0  0  0  0  0
    7.9015    4.7890    0.5747 H   0  0  0  0  0  0  0  0  0  0  0  0
    6.2058    4.7364    1.0572 H   0  0  0  0  0  0  0  0  0  0  0  0
    7.4575    3.3318   -1.3539 H   0  0  0  0  0  0  0  0  0  0  0  0
    6.3741    4.7201   -1.3993 H   0  0  0  0  0  0  0  0  0  0  0  0
    5.2014    2.5781   -1.9171 H   0  0  0  0  0  0  0  0  0  0  0  0
    4.5205    3.3910   -0.5112 H   0  0  0  0  0  0  0  0  0  0  0  0
    7.6467   -0.6696   -0.0521 H   0  0  0  0  0  0  0  0  0  0  0  0
    8.5470   -3.2318   -0.0335 H   0  0  0  0  0  0  0  0  0  0  0  0
    6.5147   -4.7403   -0.0308 H   0  0  0  0  0  0  0  0  0  0  0  0
    2.0335   -3.0408   -0.0568 H   0  0  0  0  0  0  0  0  0  0  0  0
  1  2  1  0  0  0  0
  1 20  1  0  0  0  0
  1 21  1  0  0  0  0
  1 22  1  0  0  0  0
  2  3  1  0  0  0  0
  2 19  1  0  0  0  0
  3  4  2  0  0  0  0
  4  5  1  0  0  0  0
  4 11  1  0  0  0  0
  5  6  1  0  0  0  0
  5 10  1  0  0  0  0
  5 23  1  0  0  0  0
  6  7  1  0  0  0  0
  6 24  1  0  0  0  0
  6 25  1  0  0  0  0
  7  8  1  0  0  0  0
  7 26  1  0  0  0  0
  7 27  1  0  0  0  0
  8  9  1  0  0  0  0
  8 28  1  0  0  0  0
  8 29  1  0  0  0  0
  9 10  1  0  0  0  0
  9 30  1  0  0  0  0
  9 31  1  0  0  0  0
 10 32  1  0  0  0  0
 10 33  1  0  0  0  0
 11 12  1  0  0  0  0
 11 19  2  0  0  0  0
 12 13  1  0  0  0  0
 12 16  2  0  0  0  0
 13 14  2  0  0  0  0
 13 34  1  0  0  0  0
 14 15  1  0  0  0  0
 14 35  1  0  0  0  0
 15 16  1  0  0  0  0
 15 36  1  0  0  0  0
 16 17  1  0  0  0  0
 17 18  2  0  0  0  0
 18 19  1  0  0  0  0
 18 37  1  0  0  0  0
M  END
$$$$
