CHEMBL1076477
 OpenBabel04072215353D

 80 85  0  0  0  0  0  0  0  0999 V2000
    0.0353   -1.6658    2.8800 C   0  0  0  0  0  0  0  0  0  0  0  0
    0.7823   -0.6728    2.0276 C   0  0  0  0  0  0  0  0  0  0  0  0
    0.7780    0.6729    2.3971 C   0  0  0  0  0  0  0  0  0  0  0  0
    1.4622    1.6166    1.6343 C   0  0  0  0  0  0  0  0  0  0  0  0
    2.1791    1.2359    0.4971 C   0  0  0  0  0  0  0  0  0  0  0  0
    2.8895    2.1558   -0.3102 N   0  0  0  0  0  0  0  0  0  0  0  0
    2.9859    3.5254   -0.1137 C   0  0  0  0  0  0  0  0  0  0  0  0
    2.4406    4.1774    0.7651 O   0  0  0  0  0  0  0  0  0  0  0  0
    3.8165    4.2793   -1.0958 C   0  0  0  0  0  0  0  0  0  0  0  0
    4.9504    3.7334   -1.7052 C   0  0  0  0  0  0  0  0  0  0  0  0
    5.7245    4.5183   -2.5647 C   0  0  0  0  0  0  0  0  0  0  0  0
    5.3674    5.8439   -2.8246 C   0  0  0  0  0  0  0  0  0  0  0  0
    4.2281    6.4051   -2.2318 C   0  0  0  0  0  0  0  0  0  0  0  0
    3.8085    7.8264   -2.5232 C   0  0  0  0  0  0  0  0  0  0  0  0
    4.6364    8.4666   -3.3946 F   0  0  0  0  0  0  0  0  0  0  0  0
    2.5655    7.8945   -3.0754 F   0  0  0  0  0  0  0  0  0  0  0  0
    3.7677    8.6040   -1.4072 F   0  0  0  0  0  0  0  0  0  0  0  0
    3.4660    5.6145   -1.3570 C   0  0  0  0  0  0  0  0  0  0  0  0
    2.1740   -0.1148    0.1117 C   0  0  0  0  0  0  0  0  0  0  0  0
    1.4733   -1.0727    0.8574 C   0  0  0  0  0  0  0  0  0  0  0  0
    1.2275   -2.3798    0.3871 N   0  0  0  0  0  0  0  0  0  0  0  0
    1.9227   -3.1625   -0.4886 C   0  0  0  0  0  0  0  0  0  0  0  0
    1.2240   -3.9643   -1.2823 N   0  0  0  0  0  0  0  0  0  0  0  0
    1.3927   -5.1880   -0.6806 C   0  0  0  0  0  0  0  0  0  0  0  0
    0.5932   -6.3371   -0.7290 C   0  0  0  0  0  0  0  0  0  0  0  0
    0.8924   -7.3857    0.1497 C   0  0  0  0  0  0  0  0  0  0  0  0
    2.0003   -7.3252    1.0022 C   0  0  0  0  0  0  0  0  0  0  0  0
    2.8658   -6.2258    0.9940 C   0  0  0  0  0  0  0  0  0  0  0  0
    2.5101   -5.1672    0.1515 C   0  0  0  0  0  0  0  0  0  0  0  0
    3.0431   -3.9056   -0.0967 N   0  0  0  0  0  0  0  0  0  0  0  0
    4.4134   -3.5682   -0.2530 C   0  0  0  0  0  0  0  0  0  0  0  0
    5.2974   -4.5683   -0.6457 C   0  0  0  0  0  0  0  0  0  0  0  0
    6.6283   -4.2279   -0.8092 C   0  0  0  0  0  0  0  0  0  0  0  0
    7.5139   -5.2130   -1.2813 N   0  0  0  0  0  0  0  0  0  0  0  0
    8.9370   -4.9474   -1.0486 C   0  0  0  0  0  0  0  0  0  0  0  0
    9.8328   -5.9063   -1.8780 C   0  0  0  0  0  0  0  0  0  0  0  0
    9.6990   -5.7662   -3.3442 N   0  0  0  0  0  0  0  0  0  0  0  0
   10.1090   -4.4299   -3.8221 C   0  0  0  0  0  0  0  0  0  0  0  0
    9.9470   -4.3053   -5.3543 C   0  0  0  0  0  0  0  0  0  0  0  0
   10.6832   -5.3129   -6.1398 N   0  0  0  0  0  0  0  0  0  0  0  0
   12.1140   -5.0251   -6.1796 C   0  0  0  0  0  0  0  0  0  0  0  0
   10.4040   -6.6564   -5.5917 C   0  0  0  0  0  0  0  0  0  0  0  0
   10.5157   -6.7827   -4.0493 C   0  0  0  0  0  0  0  0  0  0  0  0
    7.0530   -2.9814   -0.5638 N   0  0  0  0  0  0  0  0  0  0  0  0
    6.1215   -2.0765   -0.2200 C   0  0  0  0  0  0  0  0  0  0  0  0
    4.8030   -2.2914   -0.0890 N   0  0  0  0  0  0  0  0  0  0  0  0
   -0.4088   -1.1855    3.7599 H   0  0  0  0  0  0  0  0  0  0  0  0
    0.7183   -2.4410    3.2434 H   0  0  0  0  0  0  0  0  0  0  0  0
   -0.7789   -2.1310    2.3154 H   0  0  0  0  0  0  0  0  0  0  0  0
    0.2254    1.0056    3.2740 H   0  0  0  0  0  0  0  0  0  0  0  0
    1.3994    2.6486    1.9588 H   0  0  0  0  0  0  0  0  0  0  0  0
    3.3296    1.7593   -1.1307 H   0  0  0  0  0  0  0  0  0  0  0  0
    5.2724    2.7176   -1.4950 H   0  0  0  0  0  0  0  0  0  0  0  0
    6.6178    4.1015   -3.0257 H   0  0  0  0  0  0  0  0  0  0  0  0
    5.9886    6.4420   -3.4911 H   0  0  0  0  0  0  0  0  0  0  0  0
    2.5901    6.0449   -0.8687 H   0  0  0  0  0  0  0  0  0  0  0  0
    2.6790   -0.4262   -0.7972 H   0  0  0  0  0  0  0  0  0  0  0  0
    0.2457   -2.3913    0.1049 H   0  0  0  0  0  0  0  0  0  0  0  0
   -0.2826   -6.3656   -1.3650 H   0  0  0  0  0  0  0  0  0  0  0  0
    0.2304   -8.2486    0.1898 H   0  0  0  0  0  0  0  0  0  0  0  0
    2.1834   -8.1423    1.6979 H   0  0  0  0  0  0  0  0  0  0  0  0
    3.7153   -6.1679    1.6680 H   0  0  0  0  0  0  0  0  0  0  0  0
    4.9775   -5.5815   -0.8587 H   0  0  0  0  0  0  0  0  0  0  0  0
    7.3359   -5.3918   -2.2718 H   0  0  0  0  0  0  0  0  0  0  0  0
    9.1478   -5.1139    0.0139 H   0  0  0  0  0  0  0  0  0  0  0  0
    9.2107   -3.9115   -1.2741 H   0  0  0  0  0  0  0  0  0  0  0  0
    9.5607   -6.9340   -1.6029 H   0  0  0  0  0  0  0  0  0  0  0  0
   10.8776   -5.7597   -1.5745 H   0  0  0  0  0  0  0  0  0  0  0  0
   11.1476   -4.2176   -3.5354 H   0  0  0  0  0  0  0  0  0  0  0  0
    9.4835   -3.6530   -3.3726 H   0  0  0  0  0  0  0  0  0  0  0  0
   10.2279   -3.2939   -5.6724 H   0  0  0  0  0  0  0  0  0  0  0  0
    8.8798   -4.4024   -5.5954 H   0  0  0  0  0  0  0  0  0  0  0  0
   12.2905   -4.0264   -6.5955 H   0  0  0  0  0  0  0  0  0  0  0  0
   12.6239   -5.7301   -6.8455 H   0  0  0  0  0  0  0  0  0  0  0  0
   12.5947   -5.0739   -5.1976 H   0  0  0  0  0  0  0  0  0  0  0  0
   11.0505   -7.4018   -6.0721 H   0  0  0  0  0  0  0  0  0  0  0  0
    9.3800   -6.9262   -5.8821 H   0  0  0  0  0  0  0  0  0  0  0  0
   11.5710   -6.7025   -3.7552 H   0  0  0  0  0  0  0  0  0  0  0  0
   10.1787   -7.7872   -3.7663 H   0  0  0  0  0  0  0  0  0  0  0  0
    6.4738   -1.0671   -0.0308 H   0  0  0  0  0  0  0  0  0  0  0  0
  1  2  1  0  0  0  0
  1 47  1  0  0  0  0
  1 48  1  0  0  0  0
  1 49  1  0  0  0  0
  2  3  1  0  0  0  0
  2 20  2  0  0  0  0
  3  4  2  0  0  0  0
  3 50  1  0  0  0  0
  4  5  1  0  0  0  0
  4 51  1  0  0  0  0
  5  6  1  0  0  0  0
  5 19  2  0  0  0  0
  6  7  1  0  0  0  0
  6 52  1  0  0  0  0
  7  8  2  0  0  0  0
  7  9  1  0  0  0  0
  9 10  1  0  0  0  0
  9 18  2  0  0  0  0
 10 11  2  0  0  0  0
 10 53  1  0  0  0  0
 11 12  1  0  0  0  0
 11 54  1  0  0  0  0
 12 13  2  0  0  0  0
 12 55  1  0  0  0  0
 13 14  1  0  0  0  0
 13 18  1  0  0  0  0
 14 15  1  0  0  0  0
 14 16  1  0  0  0  0
 14 17  1  0  0  0  0
 18 56  1  0  0  0  0
 19 20  1  0  0  0  0
 19 57  1  0  0  0  0
 20 21  1  0  0  0  0
 21 22  1  0  0  0  0
 21 58  1  0  0  0  0
 22 23  2  0  0  0  0
 22 30  1  0  0  0  0
 23 24  1  0  0  0  0
 24 25  1  0  0  0  0
 24 29  2  0  0  0  0
 25 26  2  0  0  0  0
 25 59  1  0  0  0  0
 26 27  1  0  0  0  0
 26 60  1  0  0  0  0
 27 28  2  0  0  0  0
 27 61  1  0  0  0  0
 28 29  1  0  0  0  0
 28 62  1  0  0  0  0
 29 30  1  0  0  0  0
 30 31  1  0  0  0  0
 31 32  1  0  0  0  0
 31 46  2  0  0  0  0
 32 33  2  0  0  0  0
 32 63  1  0  0  0  0
 33 34  1  0  0  0  0
 33 44  1  0  0  0  0
 34 35  1  0  0  0  0
 34 64  1  0  0  0  0
 35 36  1  0  0  0  0
 35 65  1  0  0  0  0
 35 66  1  0  0  0  0
 36 37  1  0  0  0  0
 36 67  1  0  0  0  0
 36 68  1  0  0  0  0
 37 38  1  0  0  0  0
 37 43  1  0  0  0  0
 38 39  1  0  0  0  0
 38 69  1  0  0  0  0
 38 70  1  0  0  0  0
 39 40  1  0  0  0  0
 39 71  1  0  0  0  0
 39 72  1  0  0  0  0
 40 41  1  0  0  0  0
 40 42  1  0  0  0  0
 41 73  1  0  0  0  0
 41 74  1  0  0  0  0
 41 75  1  0  0  0  0
 42 43  1  0  0  0  0
 42 76  1  0  0  0  0
 42 77  1  0  0  0  0
 43 78  1  0  0  0  0
 43 79  1  0  0  0  0
 44 45  2  0  0  0  0
 45 46  1  0  0  0  0
 45 80  1  0  0  0  0
M  END
$$$$
