CHEMBL2036866
 OpenBabel04072215363D

 43 46  0  0  0  0  0  0  0  0999 V2000
   10.6761    2.1921   -2.7389 C   0  0  0  0  0  0  0  0  0  0  0  0
   10.4330    3.4757   -2.1851 O   0  0  0  0  0  0  0  0  0  0  0  0
    9.1883    3.7107   -1.6659 C   0  0  0  0  0  0  0  0  0  0  0  0
    8.1429    2.7850   -1.6285 C   0  0  0  0  0  0  0  0  0  0  0  0
    6.9023    3.1384   -1.0821 C   0  0  0  0  0  0  0  0  0  0  0  0
    6.6721    4.4316   -0.6043 C   0  0  0  0  0  0  0  0  0  0  0  0
    5.4110    4.7527   -0.0704 N   0  0  0  0  0  0  0  0  0  0  0  0
    4.8129    6.0163   -0.1100 C   0  0  0  0  0  0  0  0  0  0  0  0
    5.0631    6.8414   -1.1391 N   0  0  0  0  0  0  0  0  0  0  0  0
    4.4632    8.0397   -1.1356 C   0  0  0  0  0  0  0  0  0  0  0  0
    3.6248    8.4524   -0.1358 C   0  0  0  0  0  0  0  0  0  0  0  0
    3.4278    7.5512    0.8874 C   0  0  0  0  0  0  0  0  0  0  0  0
    2.5688    7.9021    2.0313 C   0  0  0  0  0  0  0  0  0  0  0  0
    1.9346    9.0606    2.1560 N   0  0  0  0  0  0  0  0  0  0  0  0
    1.2573    9.0085    3.3454 C   0  0  0  0  0  0  0  0  0  0  0  0
    0.4382    9.9757    3.9492 C   0  0  0  0  0  0  0  0  0  0  0  0
   -0.1522    9.6850    5.1849 C   0  0  0  0  0  0  0  0  0  0  0  0
    0.0660    8.4558    5.8065 C   0  0  0  0  0  0  0  0  0  0  0  0
    0.8798    7.4812    5.2177 C   0  0  0  0  0  0  0  0  0  0  0  0
    1.4641    7.7915    3.9824 C   0  0  0  0  0  0  0  0  0  0  0  0
    2.3034    7.1048    3.1328 N   0  0  0  0  0  0  0  0  0  0  0  0
    2.8102    5.7744    3.3746 C   0  0  0  0  0  0  0  0  0  0  0  0
    4.0079    6.3324    0.9099 N   0  0  0  0  0  0  0  0  0  0  0  0
    7.7330    5.3437   -0.6020 C   0  0  0  0  0  0  0  0  0  0  0  0
    8.9718    4.9869   -1.1343 C   0  0  0  0  0  0  0  0  0  0  0  0
    9.9931    5.9009   -1.1365 O   0  0  0  0  0  0  0  0  0  0  0  0
   11.7082    2.1749   -3.1014 H   0  0  0  0  0  0  0  0  0  0  0  0
   10.0194    1.9986   -3.5936 H   0  0  0  0  0  0  0  0  0  0  0  0
   10.5775    1.4110   -1.9783 H   0  0  0  0  0  0  0  0  0  0  0  0
    8.2535    1.7818   -2.0255 H   0  0  0  0  0  0  0  0  0  0  0  0
    6.0976    2.4066   -1.0745 H   0  0  0  0  0  0  0  0  0  0  0  0
    5.2586    4.3657    0.8529 H   0  0  0  0  0  0  0  0  0  0  0  0
    4.6910    8.6747   -1.9861 H   0  0  0  0  0  0  0  0  0  0  0  0
    3.1537    9.4266   -0.1500 H   0  0  0  0  0  0  0  0  0  0  0  0
    0.2713   10.9287    3.4602 H   0  0  0  0  0  0  0  0  0  0  0  0
   -0.7878   10.4269    5.6631 H   0  0  0  0  0  0  0  0  0  0  0  0
   -0.4021    8.2500    6.7668 H   0  0  0  0  0  0  0  0  0  0  0  0
    1.0417    6.5298    5.7117 H   0  0  0  0  0  0  0  0  0  0  0  0
    2.4811    5.4125    4.3500 H   0  0  0  0  0  0  0  0  0  0  0  0
    3.9024    5.8069    3.3723 H   0  0  0  0  0  0  0  0  0  0  0  0
    2.4226    5.1069    2.6007 H   0  0  0  0  0  0  0  0  0  0  0  0
    7.5849    6.3385   -0.1937 H   0  0  0  0  0  0  0  0  0  0  0  0
    9.6670    6.7346   -0.7634 H   0  0  0  0  0  0  0  0  0  0  0  0
  1  2  1  0  0  0  0
  1 27  1  0  0  0  0
  1 28  1  0  0  0  0
  1 29  1  0  0  0  0
  2  3  1  0  0  0  0
  3  4  1  0  0  0  0
  3 25  2  0  0  0  0
  4  5  2  0  0  0  0
  4 30  1  0  0  0  0
  5  6  1  0  0  0  0
  5 31  1  0  0  0  0
  6  7  1  0  0  0  0
  6 24  2  0  0  0  0
  7  8  1  0  0  0  0
  7 32  1  0  0  0  0
  8  9  1  0  0  0  0
  8 23  2  0  0  0  0
  9 10  2  0  0  0  0
 10 11  1  0  0  0  0
 10 33  1  0  0  0  0
 11 12  2  0  0  0  0
 11 34  1  0  0  0  0
 12 13  1  0  0  0  0
 12 23  1  0  0  0  0
 13 14  2  0  0  0  0
 13 21  1  0  0  0  0
 14 15  1  0  0  0  0
 15 16  1  0  0  0  0
 15 20  2  0  0  0  0
 16 17  2  0  0  0  0
 16 35  1  0  0  0  0
 17 18  1  0  0  0  0
 17 36  1  0  0  0  0
 18 19  2  0  0  0  0
 18 37  1  0  0  0  0
 19 20  1  0  0  0  0
 19 38  1  0  0  0  0
 20 21  1  0  0  0  0
 21 22  1  0  0  0  0
 22 39  1  0  0  0  0
 22 40  1  0  0  0  0
 22 41  1  0  0  0  0
 24 25  1  0  0  0  0
 24 42  1  0  0  0  0
 25 26  1  0  0  0  0
 26 43  1  0  0  0  0
M  END
$$$$
