CHEMBL3236669
 OpenBabel04072215363D

 34 38  0  0  0  0  0  0  0  0999 V2000
    0.8364   -0.0263   -0.1275 O   0  0  0  0  0  0  0  0  0  0  0  0
    2.0163   -0.0906    0.1927 C   0  0  0  0  0  0  0  0  0  0  0  0
    2.7685   -1.4442    0.1535 C   0  0  0  0  0  0  0  0  0  0  0  0
    2.3532   -2.3390   -0.5248 O   0  0  0  0  0  0  0  0  0  0  0  0
    3.9776   -1.5373    0.9314 C   0  0  0  0  0  0  0  0  0  0  0  0
    4.5781   -0.3925    1.4296 C   0  0  0  0  0  0  0  0  0  0  0  0
    5.5424   -0.7379    2.3122 O   0  0  0  0  0  0  0  0  0  0  0  0
    5.6676   -2.0880    2.2121 C   0  0  0  0  0  0  0  0  0  0  0  0
    6.5631   -2.8550    2.9199 C   0  0  0  0  0  0  0  0  0  0  0  0
    6.8714   -4.0561    2.3093 C   0  0  0  0  0  0  0  0  0  0  0  0
    8.1913   -4.4241    2.2497 O   0  0  0  0  0  0  0  0  0  0  0  0
    5.9619   -4.6902    1.4749 C   0  0  0  0  0  0  0  0  0  0  0  0
    6.1746   -5.9764    1.0787 O   0  0  0  0  0  0  0  0  0  0  0  0
    4.8421   -4.0070    1.0066 C   0  0  0  0  0  0  0  0  0  0  0  0
    4.7866   -2.6329    1.2763 C   0  0  0  0  0  0  0  0  0  0  0  0
    4.1037    0.9002    1.0848 C   0  0  0  0  0  0  0  0  0  0  0  0
    4.7942    2.0724    1.0154 O   0  0  0  0  0  0  0  0  0  0  0  0
    3.9267    2.9938    0.4879 C   0  0  0  0  0  0  0  0  0  0  0  0
    4.2488    4.2812    0.0510 C   0  0  0  0  0  0  0  0  0  0  0  0
    3.1794    5.0115   -0.4584 C   0  0  0  0  0  0  0  0  0  0  0  0
    3.4003    6.1581   -1.1671 O   0  0  0  0  0  0  0  0  0  0  0  0
    1.8605    4.5530   -0.3723 C   0  0  0  0  0  0  0  0  0  0  0  0
    0.8354    5.3835   -0.7232 O   0  0  0  0  0  0  0  0  0  0  0  0
    1.5716    3.2558    0.0169 C   0  0  0  0  0  0  0  0  0  0  0  0
    2.6476    2.4393    0.3826 C   0  0  0  0  0  0  0  0  0  0  0  0
    2.8372    1.0642    0.5396 C   0  0  0  0  0  0  0  0  0  0  0  0
    6.8072   -2.6484    3.9537 H   0  0  0  0  0  0  0  0  0  0  0  0
    8.6645   -3.6094    2.0005 H   0  0  0  0  0  0  0  0  0  0  0  0
    6.9623   -6.2761    1.5738 H   0  0  0  0  0  0  0  0  0  0  0  0
    4.1291   -4.4933    0.3513 H   0  0  0  0  0  0  0  0  0  0  0  0
    5.2693    4.6432    0.0386 H   0  0  0  0  0  0  0  0  0  0  0  0
    2.8829    6.0314   -1.9912 H   0  0  0  0  0  0  0  0  0  0  0  0
    1.1454    6.2926   -0.5381 H   0  0  0  0  0  0  0  0  0  0  0  0
    0.5514    2.8819    0.0022 H   0  0  0  0  0  0  0  0  0  0  0  0
  1  2  2  0  0  0  0
  2  3  1  0  0  0  0
  2 26  1  0  0  0  0
  3  4  2  0  0  0  0
  3  5  1  0  0  0  0
  5  6  2  0  0  0  0
  5 15  1  0  0  0  0
  6  7  1  0  0  0  0
  6 16  1  0  0  0  0
  7  8  1  0  0  0  0
  8  9  1  0  0  0  0
  8 15  2  0  0  0  0
  9 10  2  0  0  0  0
  9 27  1  0  0  0  0
 10 11  1  0  0  0  0
 10 12  1  0  0  0  0
 11 28  1  0  0  0  0
 12 13  1  0  0  0  0
 12 14  2  0  0  0  0
 13 29  1  0  0  0  0
 14 15  1  0  0  0  0
 14 30  1  0  0  0  0
 16 17  1  0  0  0  0
 16 26  2  0  0  0  0
 17 18  1  0  0  0  0
 18 19  1  0  0  0  0
 18 25  2  0  0  0  0
 19 20  2  0  0  0  0
 19 31  1  0  0  0  0
 20 21  1  0  0  0  0
 20 22  1  0  0  0  0
 21 32  1  0  0  0  0
 22 23  1  0  0  0  0
 22 24  2  0  0  0  0
 23 33  1  0  0  0  0
 24 25  1  0  0  0  0
 24 34  1  0  0  0  0
 25 26  1  0  0  0  0
M  END
$$$$
