CHEMBL2023477
 OpenBabel04072215363D

 59 62  0  0  0  0  0  0  0  0999 V2000
    3.1524    0.2482   -1.1087 C   0  0  0  0  0  0  0  0  0  0  0  0
    2.3243   -0.2558   -0.0669 O   0  0  0  0  0  0  0  0  0  0  0  0
    2.9658   -0.3897    1.1375 C   0  0  0  0  0  0  0  0  0  0  0  0
    2.4398   -1.4916    1.7910 C   0  0  0  0  0  0  0  0  0  0  0  0
    3.0899   -2.1833    2.7430 C   0  0  0  0  0  0  0  0  0  0  0  0
    2.3428   -3.2926    3.0806 O   0  0  0  0  0  0  0  0  0  0  0  0
    1.6916   -4.4404    2.2851 C   0  0  0  0  0  0  0  0  0  0  0  0
    0.6088   -4.9772    1.0200 C   0  0  0  0  0  0  0  0  0  0  0  0
   -0.3352   -6.0506    1.0429 C   0  0  0  0  0  0  0  0  0  0  0  0
    0.1065   -5.8438    2.2120 N   0  0  0  0  0  0  0  0  0  0  0  0
    0.2401   -5.8727    3.4751 C   0  0  0  0  0  0  0  0  0  0  0  0
   -0.5148   -6.6490    4.2541 C   0  0  0  0  0  0  0  0  0  0  0  0
   -0.2056   -6.8733    5.5052 C   0  0  0  0  0  0  0  0  0  0  0  0
   -0.8659   -7.7786    6.1425 O   0  0  0  0  0  0  0  0  0  0  0  0
   -1.2479   -8.8995    5.3462 C   0  0  0  0  0  0  0  0  0  0  0  0
    0.7914   -5.9732    6.0025 C   0  0  0  0  0  0  0  0  0  0  0  0
    1.0842   -5.9605    7.3467 O   0  0  0  0  0  0  0  0  0  0  0  0
   -0.0317   -6.2865    8.1925 C   0  0  0  0  0  0  0  0  0  0  0  0
    1.5407   -5.0905    5.1166 C   0  0  0  0  0  0  0  0  0  0  0  0
    1.2882   -5.0720    3.6559 C   0  0  0  0  0  0  0  0  0  0  0  0
    4.2947   -1.5430    3.2242 C   0  0  0  0  0  0  0  0  0  0  0  0
    4.8051   -0.3140    2.5772 C   0  0  0  0  0  0  0  0  0  0  0  0
    4.0669    0.3590    1.5859 C   0  0  0  0  0  0  0  0  0  0  0  0
    4.4303    1.7435    1.0022 C   0  0  0  0  0  0  0  0  0  0  0  0
    5.1802    2.8026    1.8937 C   0  0  0  0  0  0  0  0  0  0  0  0
    5.8063    3.6284    1.2196 O   0  0  0  0  0  0  0  0  0  0  0  0
    4.9975    2.9641    3.2659 N   0  0  0  0  0  0  0  0  0  0  0  0
    5.7279    3.9839    3.9651 C   0  0  0  0  0  0  0  0  0  0  0  0
    6.7957    4.5882    3.4165 N   0  0  0  0  0  0  0  0  0  0  0  0
    7.2818    5.5124    4.2943 O   0  0  0  0  0  0  0  0  0  0  0  0
    6.5466    5.5106    5.4300 C   0  0  0  0  0  0  0  0  0  0  0  0
    7.0152    6.4927    6.4675 C   0  0  0  0  0  0  0  0  0  0  0  0
    5.5447    4.5386    5.2940 C   0  0  0  0  0  0  0  0  0  0  0  0
    4.5280    4.1865    6.3175 C   0  0  0  0  0  0  0  0  0  0  0  0
    2.7399   -0.0592   -2.0749 H   0  0  0  0  0  0  0  0  0  0  0  0
    4.1929   -0.0858   -1.0351 H   0  0  0  0  0  0  0  0  0  0  0  0
    3.0895    1.3278   -1.0670 H   0  0  0  0  0  0  0  0  0  0  0  0
    1.5059   -1.9236    1.4604 H   0  0  0  0  0  0  0  0  0  0  0  0
    0.6928   -4.8704   -0.0527 H   0  0  0  0  0  0  0  0  0  0  0  0
   -0.9711   -6.8945    1.3701 H   0  0  0  0  0  0  0  0  0  0  0  0
   -1.2075   -7.2352    3.6047 H   0  0  0  0  0  0  0  0  0  0  0  0
   -1.7433   -9.5946    6.0004 H   0  0  0  0  0  0  0  0  0  0  0  0
   -0.3799   -9.4134    4.9166 H   0  0  0  0  0  0  0  0  0  0  0  0
   -1.9879   -8.6361    4.5814 H   0  0  0  0  0  0  0  0  0  0  0  0
    0.2501   -6.1920    9.2446 H   0  0  0  0  0  0  0  0  0  0  0  0
   -0.3475   -7.3326    8.1021 H   0  0  0  0  0  0  0  0  0  0  0  0
   -0.8776   -5.6036    8.0300 H   0  0  0  0  0  0  0  0  0  0  0  0
    2.3785   -4.5385    5.5232 H   0  0  0  0  0  0  0  0  0  0  0  0
    4.9372   -1.8727    4.0564 H   0  0  0  0  0  0  0  0  0  0  0  0
    5.7921    0.1005    2.8299 H   0  0  0  0  0  0  0  0  0  0  0  0
    3.5200    2.2033    0.5678 H   0  0  0  0  0  0  0  0  0  0  0  0
    5.0991    1.5791    0.1088 H   0  0  0  0  0  0  0  0  0  0  0  0
    4.3410    2.3563    3.7432 H   0  0  0  0  0  0  0  0  0  0  0  0
    7.8840    7.0886    6.1396 H   0  0  0  0  0  0  0  0  0  0  0  0
    7.3291    5.9966    7.3931 H   0  0  0  0  0  0  0  0  0  0  0  0
    6.2367    7.2189    6.7229 H   0  0  0  0  0  0  0  0  0  0  0  0
    4.6448    4.7869    7.2286 H   0  0  0  0  0  0  0  0  0  0  0  0
    4.6265    3.1388    6.6141 H   0  0  0  0  0  0  0  0  0  0  0  0
    3.5087    4.3471    5.9516 H   0  0  0  0  0  0  0  0  0  0  0  0
  1  2  1  0  0  0  0
  1 35  1  0  0  0  0
  1 36  1  0  0  0  0
  1 37  1  0  0  0  0
  2  3  1  0  0  0  0
  3  4  1  0  0  0  0
  3 23  2  0  0  0  0
  4  5  2  0  0  0  0
  4 38  1  0  0  0  0
  5  6  1  0  0  0  0
  5 21  1  0  0  0  0
  6  7  1  0  0  0  0
  7  8  1  0  0  0  0
  7 20  2  0  0  0  0
  8  9  2  0  0  0  0
  8 39  1  0  0  0  0
  9 10  1  0  0  0  0
  9 40  1  0  0  0  0
 10 11  2  0  0  0  0
 11 12  1  0  0  0  0
 11 20  1  0  0  0  0
 12 13  2  0  0  0  0
 12 41  1  0  0  0  0
 13 14  1  0  0  0  0
 13 16  1  0  0  0  0
 14 15  1  0  0  0  0
 15 42  1  0  0  0  0
 15 43  1  0  0  0  0
 15 44  1  0  0  0  0
 16 17  1  0  0  0  0
 16 19  2  0  0  0  0
 17 18  1  0  0  0  0
 18 45  1  0  0  0  0
 18 46  1  0  0  0  0
 18 47  1  0  0  0  0
 19 20  1  0  0  0  0
 19 48  1  0  0  0  0
 21 22  2  0  0  0  0
 21 49  1  0  0  0  0
 22 23  1  0  0  0  0
 22 50  1  0  0  0  0
 23 24  1  0  0  0  0
 24 25  1  0  0  0  0
 24 51  1  0  0  0  0
 24 52  1  0  0  0  0
 25 26  2  0  0  0  0
 25 27  1  0  0  0  0
 27 28  1  0  0  0  0
 27 53  1  0  0  0  0
 28 29  2  0  0  0  0
 28 33  1  0  0  0  0
 29 30  1  0  0  0  0
 30 31  1  0  0  0  0
 31 32  1  0  0  0  0
 31 33  2  0  0  0  0
 32 54  1  0  0  0  0
 32 55  1  0  0  0  0
 32 56  1  0  0  0  0
 33 34  1  0  0  0  0
 34 57  1  0  0  0  0
 34 58  1  0  0  0  0
 34 59  1  0  0  0  0
M  END
$$$$
