CHEMBL212964
 OpenBabel04072215363D

 51 54  0  0  0  0  0  0  0  0999 V2000
    1.1026    0.3831    0.5981 C   0  0  0  0  0  0  0  0  0  0  0  0
    2.2223    0.0835   -0.2625 N   0  0  0  0  0  0  0  0  0  0  0  0
    2.9007    1.1908   -0.7459 C   0  0  0  0  0  0  0  0  0  0  0  0
    3.4831    1.0275   -1.9386 N   0  0  0  0  0  0  0  0  0  0  0  0
    4.2046    2.0642   -2.3990 C   0  0  0  0  0  0  0  0  0  0  0  0
    4.3528    3.2623   -1.7230 C   0  0  0  0  0  0  0  0  0  0  0  0
    5.1396    4.3354   -2.1941 C   0  0  0  0  0  0  0  0  0  0  0  0
    5.1864    5.5688   -1.5291 C   0  0  0  0  0  0  0  0  0  0  0  0
    5.9747    6.7311   -2.0402 C   0  0  0  0  0  0  0  0  0  0  0  0
    6.6193    7.5878   -1.1034 C   0  0  0  0  0  0  0  0  0  0  0  0
    7.3303    8.7265   -1.5063 C   0  0  0  0  0  0  0  0  0  0  0  0
    7.8804    9.7322   -0.5557 C   0  0  0  0  0  0  0  0  0  0  0  0
    7.9157   10.8990   -0.9440 O   0  0  0  0  0  0  0  0  0  0  0  0
    8.3520    9.2730    0.6651 N   0  0  0  0  0  0  0  0  0  0  0  0
    8.9182   10.0933    1.6742 C   0  0  0  0  0  0  0  0  0  0  0  0
    8.7677   11.4836    1.7005 C   0  0  0  0  0  0  0  0  0  0  0  0
    9.3909   12.2584    2.6798 C   0  0  0  0  0  0  0  0  0  0  0  0
   10.1751   11.6509    3.6536 C   0  0  0  0  0  0  0  0  0  0  0  0
   10.3259   10.2576    3.6678 C   0  0  0  0  0  0  0  0  0  0  0  0
   11.1956    9.5942    4.7060 C   0  0  0  0  0  0  0  0  0  0  0  0
   11.8045   10.4723    5.5518 F   0  0  0  0  0  0  0  0  0  0  0  0
   10.4981    8.7352    5.4989 F   0  0  0  0  0  0  0  0  0  0  0  0
   12.1984    8.8590    4.1498 F   0  0  0  0  0  0  0  0  0  0  0  0
    9.6743    9.4841    2.6838 C   0  0  0  0  0  0  0  0  0  0  0  0
    7.4515    9.0100   -2.8657 C   0  0  0  0  0  0  0  0  0  0  0  0
    6.8523    8.1857   -3.8087 C   0  0  0  0  0  0  0  0  0  0  0  0
    6.0907    7.0677   -3.4199 C   0  0  0  0  0  0  0  0  0  0  0  0
    5.4183    6.3148   -4.5430 C   0  0  0  0  0  0  0  0  0  0  0  0
    4.4554    5.6448   -0.3299 C   0  0  0  0  0  0  0  0  0  0  0  0
    3.7313    4.5474    0.1679 C   0  0  0  0  0  0  0  0  0  0  0  0
    3.6608    3.3479   -0.5207 C   0  0  0  0  0  0  0  0  0  0  0  0
    2.9505    2.3244   -0.0305 N   0  0  0  0  0  0  0  0  0  0  0  0
    0.6055   -0.5506    0.8792 H   0  0  0  0  0  0  0  0  0  0  0  0
    0.3646    1.0161    0.0925 H   0  0  0  0  0  0  0  0  0  0  0  0
    1.4256    0.8699    1.5245 H   0  0  0  0  0  0  0  0  0  0  0  0
    2.0261   -0.5066   -1.0630 H   0  0  0  0  0  0  0  0  0  0  0  0
    4.6667    1.8983   -3.3681 H   0  0  0  0  0  0  0  0  0  0  0  0
    5.7259    4.1700   -3.0911 H   0  0  0  0  0  0  0  0  0  0  0  0
    6.5225    7.3853   -0.0399 H   0  0  0  0  0  0  0  0  0  0  0  0
    8.4488    8.2729    0.7839 H   0  0  0  0  0  0  0  0  0  0  0  0
    8.1589   12.0051    0.9678 H   0  0  0  0  0  0  0  0  0  0  0  0
    9.2693   13.3388    2.6670 H   0  0  0  0  0  0  0  0  0  0  0  0
   10.6722   12.2719    4.3974 H   0  0  0  0  0  0  0  0  0  0  0  0
    9.8011    8.4030    2.6982 H   0  0  0  0  0  0  0  0  0  0  0  0
    7.9911    9.8956   -3.1980 H   0  0  0  0  0  0  0  0  0  0  0  0
    6.9518    8.4490   -4.8609 H   0  0  0  0  0  0  0  0  0  0  0  0
    5.4482    6.8826   -5.4805 H   0  0  0  0  0  0  0  0  0  0  0  0
    4.3622    6.1378   -4.3207 H   0  0  0  0  0  0  0  0  0  0  0  0
    5.9360    5.3737   -4.7451 H   0  0  0  0  0  0  0  0  0  0  0  0
    4.4287    6.5644    0.2516 H   0  0  0  0  0  0  0  0  0  0  0  0
    3.2033    4.6408    1.1145 H   0  0  0  0  0  0  0  0  0  0  0  0
  1  2  1  0  0  0  0
  1 33  1  0  0  0  0
  1 34  1  0  0  0  0
  1 35  1  0  0  0  0
  2  3  1  0  0  0  0
  2 36  1  0  0  0  0
  3  4  1  0  0  0  0
  3 32  2  0  0  0  0
  4  5  2  0  0  0  0
  5  6  1  0  0  0  0
  5 37  1  0  0  0  0
  6  7  1  0  0  0  0
  6 31  2  0  0  0  0
  7  8  2  0  0  0  0
  7 38  1  0  0  0  0
  8  9  1  0  0  0  0
  8 29  1  0  0  0  0
  9 10  1  0  0  0  0
  9 27  2  0  0  0  0
 10 11  2  0  0  0  0
 10 39  1  0  0  0  0
 11 12  1  0  0  0  0
 11 25  1  0  0  0  0
 12 13  2  0  0  0  0
 12 14  1  0  0  0  0
 14 15  1  0  0  0  0
 14 40  1  0  0  0  0
 15 16  1  0  0  0  0
 15 24  2  0  0  0  0
 16 17  2  0  0  0  0
 16 41  1  0  0  0  0
 17 18  1  0  0  0  0
 17 42  1  0  0  0  0
 18 19  2  0  0  0  0
 18 43  1  0  0  0  0
 19 20  1  0  0  0  0
 19 24  1  0  0  0  0
 20 21  1  0  0  0  0
 20 22  1  0  0  0  0
 20 23  1  0  0  0  0
 24 44  1  0  0  0  0
 25 26  2  0  0  0  0
 25 45  1  0  0  0  0
 26 27  1  0  0  0  0
 26 46  1  0  0  0  0
 27 28  1  0  0  0  0
 28 47  1  0  0  0  0
 28 48  1  0  0  0  0
 28 49  1  0  0  0  0
 29 30  2  0  0  0  0
 29 50  1  0  0  0  0
 30 31  1  0  0  0  0
 30 51  1  0  0  0  0
 31 32  1  0  0  0  0
M  END
$$$$
