CHEMBL258141
 OpenBabel04072215363D

 42 45  0  0  0  0  0  0  0  0999 V2000
    1.3882   -0.2544   -1.8870 N   0  0  0  0  0  0  0  0  0  0  0  0
    2.6982   -0.3031   -1.5907 C   0  0  0  0  0  0  0  0  0  0  0  0
    3.5097    0.6829   -1.9679 N   0  0  0  0  0  0  0  0  0  0  0  0
    4.6958    0.3238   -1.4553 N   0  0  0  0  0  0  0  0  0  0  0  0
    4.6728   -0.8555   -0.7764 C   0  0  0  0  0  0  0  0  0  0  0  0
    5.7320   -1.4034   -0.1541 N   0  0  0  0  0  0  0  0  0  0  0  0
    5.4391   -2.5730    0.4391 C   0  0  0  0  0  0  0  0  0  0  0  0
    4.1950   -3.1877    0.4222 C   0  0  0  0  0  0  0  0  0  0  0  0
    3.0967   -2.5827   -0.2322 C   0  0  0  0  0  0  0  0  0  0  0  0
    1.7587   -3.2033   -0.1937 C   0  0  0  0  0  0  0  0  0  0  0  0
    1.3115   -3.8300    0.9789 C   0  0  0  0  0  0  0  0  0  0  0  0
    0.0369   -4.3924    1.0711 C   0  0  0  0  0  0  0  0  0  0  0  0
   -0.8634   -4.3046    0.0094 C   0  0  0  0  0  0  0  0  0  0  0  0
   -2.1968   -4.7655    0.1087 N   0  0  0  0  0  0  0  0  0  0  0  0
   -2.8514   -4.9729    1.3104 C   0  0  0  0  0  0  0  0  0  0  0  0
   -2.4159   -4.6515    2.4114 O   0  0  0  0  0  0  0  0  0  0  0  0
   -4.0593   -5.6393    1.1367 N   0  0  0  0  0  0  0  0  0  0  0  0
   -4.8026   -5.9954    2.2876 C   0  0  0  0  0  0  0  0  0  0  0  0
   -5.0711   -5.0573    3.2931 C   0  0  0  0  0  0  0  0  0  0  0  0
   -5.6516   -5.4685    4.4863 C   0  0  0  0  0  0  0  0  0  0  0  0
   -5.8769   -4.5696    5.4554 F   0  0  0  0  0  0  0  0  0  0  0  0
   -5.9690   -6.7992    4.7026 C   0  0  0  0  0  0  0  0  0  0  0  0
   -5.7392   -7.7136    3.6813 C   0  0  0  0  0  0  0  0  0  0  0  0
   -6.0156   -9.0075    3.8885 F   0  0  0  0  0  0  0  0  0  0  0  0
   -5.1891   -7.3227    2.4621 C   0  0  0  0  0  0  0  0  0  0  0  0
   -0.4216   -3.7452   -1.1878 C   0  0  0  0  0  0  0  0  0  0  0  0
    0.8815   -3.2278   -1.2908 C   0  0  0  0  0  0  0  0  0  0  0  0
    3.3662   -1.3375   -0.8611 C   0  0  0  0  0  0  0  0  0  0  0  0
    1.0701    0.6350   -2.2586 H   0  0  0  0  0  0  0  0  0  0  0  0
    0.7267   -0.6661   -1.2409 H   0  0  0  0  0  0  0  0  0  0  0  0
    5.4971    0.9291   -1.5845 H   0  0  0  0  0  0  0  0  0  0  0  0
    6.2693   -3.0367    0.9665 H   0  0  0  0  0  0  0  0  0  0  0  0
    4.0856   -4.1412    0.9305 H   0  0  0  0  0  0  0  0  0  0  0  0
    1.9458   -3.8866    1.8608 H   0  0  0  0  0  0  0  0  0  0  0  0
   -0.2202   -4.8916    2.0001 H   0  0  0  0  0  0  0  0  0  0  0  0
   -2.7843   -4.6753   -0.7099 H   0  0  0  0  0  0  0  0  0  0  0  0
   -4.0317   -6.3208    0.3906 H   0  0  0  0  0  0  0  0  0  0  0  0
   -4.8007   -4.0104    3.1730 H   0  0  0  0  0  0  0  0  0  0  0  0
   -6.3741   -7.1198    5.6544 H   0  0  0  0  0  0  0  0  0  0  0  0
   -4.9855   -8.0822    1.7138 H   0  0  0  0  0  0  0  0  0  0  0  0
   -1.0816   -3.6727   -2.0468 H   0  0  0  0  0  0  0  0  0  0  0  0
    1.1948   -2.8166   -2.2499 H   0  0  0  0  0  0  0  0  0  0  0  0
  1  2  1  0  0  0  0
  1 29  1  0  0  0  0
  1 30  1  0  0  0  0
  2  3  2  0  0  0  0
  2 28  1  0  0  0  0
  3  4  1  0  0  0  0
  4  5  1  0  0  0  0
  4 31  1  0  0  0  0
  5  6  1  0  0  0  0
  5 28  2  0  0  0  0
  6  7  2  0  0  0  0
  7  8  1  0  0  0  0
  7 32  1  0  0  0  0
  8  9  2  0  0  0  0
  8 33  1  0  0  0  0
  9 10  1  0  0  0  0
  9 28  1  0  0  0  0
 10 11  1  0  0  0  0
 10 27  2  0  0  0  0
 11 12  2  0  0  0  0
 11 34  1  0  0  0  0
 12 13  1  0  0  0  0
 12 35  1  0  0  0  0
 13 14  1  0  0  0  0
 13 26  2  0  0  0  0
 14 15  1  0  0  0  0
 14 36  1  0  0  0  0
 15 16  2  0  0  0  0
 15 17  1  0  0  0  0
 17 18  1  0  0  0  0
 17 37  1  0  0  0  0
 18 19  1  0  0  0  0
 18 25  2  0  0  0  0
 19 20  2  0  0  0  0
 19 38  1  0  0  0  0
 20 21  1  0  0  0  0
 20 22  1  0  0  0  0
 22 23  2  0  0  0  0
 22 39  1  0  0  0  0
 23 24  1  0  0  0  0
 23 25  1  0  0  0  0
 25 40  1  0  0  0  0
 26 27  1  0  0  0  0
 26 41  1  0  0  0  0
 27 42  1  0  0  0  0
M  END
$$$$
