CHEMBL250228
 OpenBabel04072215363D

 39 41  0  0  0  0  0  0  0  0999 V2000
    2.6862   -1.0405    0.2030 O   0  0  0  0  0  0  0  0  0  0  0  0
    2.1246   -0.0093   -0.1653 C   0  0  0  0  0  0  0  0  0  0  0  0
    0.7802    0.3096    0.0137 N   0  0  0  0  0  0  0  0  0  0  0  0
   -0.2098   -0.4789    0.6336 C   0  0  0  0  0  0  0  0  0  0  0  0
    0.0490   -1.7040    1.2639 C   0  0  0  0  0  0  0  0  0  0  0  0
   -1.0006   -2.4710    1.7748 C   0  0  0  0  0  0  0  0  0  0  0  0
   -2.3088   -2.0108    1.6864 C   0  0  0  0  0  0  0  0  0  0  0  0
   -3.6015   -2.9935    2.2622 Cl  0  0  0  0  0  0  0  0  0  0  0  0
   -2.5846   -0.7753    1.1142 C   0  0  0  0  0  0  0  0  0  0  0  0
   -1.5341   -0.0072    0.5962 C   0  0  0  0  0  0  0  0  0  0  0  0
    2.9177    1.0129   -0.9215 C   0  0  0  0  0  0  0  0  0  0  0  0
    2.5774    2.3734   -0.8051 C   0  0  0  0  0  0  0  0  0  0  0  0
    3.2577    3.3203   -1.5560 C   0  0  0  0  0  0  0  0  0  0  0  0
    4.2805    2.8824   -2.3690 C   0  0  0  0  0  0  0  0  0  0  0  0
    4.6731    1.5926   -2.4515 N   0  0  0  0  0  0  0  0  0  0  0  0
    4.0098    0.6490   -1.7337 C   0  0  0  0  0  0  0  0  0  0  0  0
    4.3698   -0.6773   -1.9647 N   0  0  0  0  0  0  0  0  0  0  0  0
    5.7459   -0.9702   -2.3544 C   0  0  0  0  0  0  0  0  0  0  0  0
    6.6707   -1.2023   -1.1740 C   0  0  0  0  0  0  0  0  0  0  0  0
    6.4835   -2.2914   -0.3162 C   0  0  0  0  0  0  0  0  0  0  0  0
    7.3650   -2.4765    0.7409 C   0  0  0  0  0  0  0  0  0  0  0  0
    8.4193   -1.6731    0.9900 N   0  0  0  0  0  0  0  0  0  0  0  0
    8.5976   -0.6335    0.1500 C   0  0  0  0  0  0  0  0  0  0  0  0
    7.7665   -0.3630   -0.9339 C   0  0  0  0  0  0  0  0  0  0  0  0
    0.4276    1.1211   -0.4585 H   0  0  0  0  0  0  0  0  0  0  0  0
    1.0570   -2.0936    1.3516 H   0  0  0  0  0  0  0  0  0  0  0  0
   -0.7810   -3.4339    2.2366 H   0  0  0  0  0  0  0  0  0  0  0  0
   -3.6029   -0.4066    1.0535 H   0  0  0  0  0  0  0  0  0  0  0  0
   -1.7692    0.9539    0.1474 H   0  0  0  0  0  0  0  0  0  0  0  0
    1.8013    2.7118   -0.1255 H   0  0  0  0  0  0  0  0  0  0  0  0
    3.0001    4.3731   -1.5070 H   0  0  0  0  0  0  0  0  0  0  0  0
    4.8314    3.5709   -3.0022 H   0  0  0  0  0  0  0  0  0  0  0  0
    3.9535   -1.3352   -1.3058 H   0  0  0  0  0  0  0  0  0  0  0  0
    6.1686   -0.2152   -3.0277 H   0  0  0  0  0  0  0  0  0  0  0  0
    5.7318   -1.8955   -2.9450 H   0  0  0  0  0  0  0  0  0  0  0  0
    5.6634   -2.9853   -0.4634 H   0  0  0  0  0  0  0  0  0  0  0  0
    7.2364   -3.3018    1.4340 H   0  0  0  0  0  0  0  0  0  0  0  0
    9.4510   -0.0031    0.3731 H   0  0  0  0  0  0  0  0  0  0  0  0
    7.9789    0.4900   -1.5703 H   0  0  0  0  0  0  0  0  0  0  0  0
  1  2  2  0  0  0  0
  2  3  1  0  0  0  0
  2 11  1  0  0  0  0
  3  4  1  0  0  0  0
  3 25  1  0  0  0  0
  4  5  1  0  0  0  0
  4 10  2  0  0  0  0
  5  6  2  0  0  0  0
  5 26  1  0  0  0  0
  6  7  1  0  0  0  0
  6 27  1  0  0  0  0
  7  8  1  0  0  0  0
  7  9  2  0  0  0  0
  9 10  1  0  0  0  0
  9 28  1  0  0  0  0
 10 29  1  0  0  0  0
 11 12  1  0  0  0  0
 11 16  2  0  0  0  0
 12 13  2  0  0  0  0
 12 30  1  0  0  0  0
 13 14  1  0  0  0  0
 13 31  1  0  0  0  0
 14 15  2  0  0  0  0
 14 32  1  0  0  0  0
 15 16  1  0  0  0  0
 16 17  1  0  0  0  0
 17 18  1  0  0  0  0
 17 33  1  0  0  0  0
 18 19  1  0  0  0  0
 18 34  1  0  0  0  0
 18 35  1  0  0  0  0
 19 20  1  0  0  0  0
 19 24  2  0  0  0  0
 20 21  2  0  0  0  0
 20 36  1  0  0  0  0
 21 22  1  0  0  0  0
 21 37  1  0  0  0  0
 22 23  2  0  0  0  0
 23 24  1  0  0  0  0
 23 38  1  0  0  0  0
 24 39  1  0  0  0  0
M  END
$$$$
