CHEMBL82069
 OpenBabel04072215383D

 56 60  0  0  0  0  0  0  0  0999 V2000
   -5.4934    4.4617    0.5718 C   0  0  0  0  0  0  0  0  0  0  0  0
   -5.8836    3.9519   -0.6515 C   0  0  0  0  0  0  0  0  0  0  0  0
   -5.4648    2.6881   -1.0324 C   0  0  0  0  0  0  0  0  0  0  0  0
   -4.6192    1.9619   -0.1770 C   0  0  0  0  0  0  0  0  0  0  0  0
   -3.9870    0.8459   -0.7583 N   0  0  0  0  0  0  0  0  0  0  0  0
   -3.5963    0.8977   -2.0851 C   0  0  0  0  0  0  0  0  0  0  0  0
   -3.6689   -0.2531   -2.6770 N   0  0  0  0  0  0  0  0  0  0  0  0
   -4.2331   -1.0573   -1.7357 C   0  0  0  0  0  0  0  0  0  0  0  0
   -4.8789   -2.2639   -1.9429 C   0  0  0  0  0  0  0  0  0  0  0  0
   -5.4756   -2.9374   -0.8903 C   0  0  0  0  0  0  0  0  0  0  0  0
   -6.2359   -4.1562   -1.1726 C   0  0  0  0  0  0  0  0  0  0  0  0
   -7.3424   -4.4823   -0.4126 C   0  0  0  0  0  0  0  0  0  0  0  0
   -7.9098   -5.7534   -0.4875 C   0  0  0  0  0  0  0  0  0  0  0  0
   -7.3725   -6.6482   -1.4048 C   0  0  0  0  0  0  0  0  0  0  0  0
   -7.8412   -7.9559   -1.4478 O   0  0  0  0  0  0  0  0  0  0  0  0
   -6.8018   -8.8419   -1.9257 C   0  0  0  0  0  0  0  0  0  0  0  0
   -7.2918  -10.2962   -2.0019 C   0  0  0  0  0  0  0  0  0  0  0  0
   -6.2490  -11.2406   -2.4726 N   0  0  0  0  0  0  0  0  0  0  0  0
   -5.0656  -11.2550   -1.5960 C   0  0  0  0  0  0  0  0  0  0  0  0
   -3.9872  -12.2076   -2.1097 C   0  0  0  0  0  0  0  0  0  0  0  0
   -4.5336  -13.6147   -2.2834 C   0  0  0  0  0  0  0  0  0  0  0  0
   -5.7911  -13.5872   -3.1436 C   0  0  0  0  0  0  0  0  0  0  0  0
   -6.8188  -12.5896   -2.6053 C   0  0  0  0  0  0  0  0  0  0  0  0
   -6.3948   -6.3155   -2.2610 N   0  0  0  0  0  0  0  0  0  0  0  0
   -5.8417   -5.0897   -2.1380 C   0  0  0  0  0  0  0  0  0  0  0  0
   -5.3217   -2.4274    0.4254 C   0  0  0  0  0  0  0  0  0  0  0  0
   -4.7067   -1.1777    0.6605 C   0  0  0  0  0  0  0  0  0  0  0  0
   -4.2500   -0.4832   -0.4636 C   0  0  0  0  0  0  0  0  0  0  0  0
   -4.2557    2.4340    1.0762 C   0  0  0  0  0  0  0  0  0  0  0  0
   -4.7030    3.7073    1.4465 C   0  0  0  0  0  0  0  0  0  0  0  0
   -5.8002    5.4690    0.8475 H   0  0  0  0  0  0  0  0  0  0  0  0
   -6.4625    4.5522   -1.3595 H   0  0  0  0  0  0  0  0  0  0  0  0
   -5.7332    2.3091   -2.0174 H   0  0  0  0  0  0  0  0  0  0  0  0
   -3.4719    1.8461   -2.5941 H   0  0  0  0  0  0  0  0  0  0  0  0
   -4.9904   -2.5970   -2.9793 H   0  0  0  0  0  0  0  0  0  0  0  0
   -7.7163   -3.7822    0.3407 H   0  0  0  0  0  0  0  0  0  0  0  0
   -8.6838   -6.0009    0.2224 H   0  0  0  0  0  0  0  0  0  0  0  0
   -5.9714   -8.7900   -1.2104 H   0  0  0  0  0  0  0  0  0  0  0  0
   -6.4558   -8.5588   -2.9302 H   0  0  0  0  0  0  0  0  0  0  0  0
   -8.1418  -10.3221   -2.6979 H   0  0  0  0  0  0  0  0  0  0  0  0
   -7.6896  -10.5998   -1.0253 H   0  0  0  0  0  0  0  0  0  0  0  0
   -5.3484  -11.5268   -0.5709 H   0  0  0  0  0  0  0  0  0  0  0  0
   -4.5945  -10.2680   -1.5582 H   0  0  0  0  0  0  0  0  0  0  0  0
   -3.1424  -12.2178   -1.4108 H   0  0  0  0  0  0  0  0  0  0  0  0
   -3.6006  -11.8396   -3.0691 H   0  0  0  0  0  0  0  0  0  0  0  0
   -4.7679  -14.0390   -1.2996 H   0  0  0  0  0  0  0  0  0  0  0  0
   -3.7745  -14.2574   -2.7418 H   0  0  0  0  0  0  0  0  0  0  0  0
   -6.2336  -14.5884   -3.1785 H   0  0  0  0  0  0  0  0  0  0  0  0
   -5.5228  -13.3178   -4.1731 H   0  0  0  0  0  0  0  0  0  0  0  0
   -7.1988  -12.9419   -1.6378 H   0  0  0  0  0  0  0  0  0  0  0  0
   -7.6664  -12.5663   -3.3006 H   0  0  0  0  0  0  0  0  0  0  0  0
   -4.9992   -4.9332   -2.7876 H   0  0  0  0  0  0  0  0  0  0  0  0
   -5.7130   -2.9646    1.2727 H   0  0  0  0  0  0  0  0  0  0  0  0
   -4.6555   -0.7585    1.6595 H   0  0  0  0  0  0  0  0  0  0  0  0
   -3.5780    1.8854    1.7200 H   0  0  0  0  0  0  0  0  0  0  0  0
   -4.4085    4.1286    2.4037 H   0  0  0  0  0  0  0  0  0  0  0  0
  1  2  1  0  0  0  0
  1 30  2  0  0  0  0
  1 31  1  0  0  0  0
  2  3  2  0  0  0  0
  2 32  1  0  0  0  0
  3  4  1  0  0  0  0
  3 33  1  0  0  0  0
  4  5  1  0  0  0  0
  4 29  2  0  0  0  0
  5  6  1  0  0  0  0
  5 28  1  0  0  0  0
  6  7  2  0  0  0  0
  6 34  1  0  0  0  0
  7  8  1  0  0  0  0
  8  9  1  0  0  0  0
  8 28  2  0  0  0  0
  9 10  2  0  0  0  0
  9 35  1  0  0  0  0
 10 11  1  0  0  0  0
 10 26  1  0  0  0  0
 11 12  1  0  0  0  0
 11 25  2  0  0  0  0
 12 13  2  0  0  0  0
 12 36  1  0  0  0  0
 13 14  1  0  0  0  0
 13 37  1  0  0  0  0
 14 15  1  0  0  0  0
 14 24  2  0  0  0  0
 15 16  1  0  0  0  0
 16 17  1  0  0  0  0
 16 38  1  0  0  0  0
 16 39  1  0  0  0  0
 17 18  1  0  0  0  0
 17 40  1  0  0  0  0
 17 41  1  0  0  0  0
 18 19  1  0  0  0  0
 18 23  1  0  0  0  0
 19 20  1  0  0  0  0
 19 42  1  0  0  0  0
 19 43  1  0  0  0  0
 20 21  1  0  0  0  0
 20 44  1  0  0  0  0
 20 45  1  0  0  0  0
 21 22  1  0  0  0  0
 21 46  1  0  0  0  0
 21 47  1  0  0  0  0
 22 23  1  0  0  0  0
 22 48  1  0  0  0  0
 22 49  1  0  0  0  0
 23 50  1  0  0  0  0
 23 51  1  0  0  0  0
 24 25  1  0  0  0  0
 25 52  1  0  0  0  0
 26 27  2  0  0  0  0
 26 53  1  0  0  0  0
 27 28  1  0  0  0  0
 27 54  1  0  0  0  0
 29 30  1  0  0  0  0
 29 55  1  0  0  0  0
 30 56  1  0  0  0  0
M  END
$$$$
