CHEMBL256824
 OpenBabel04072215363D

 48 51  0  0  0  0  0  0  0  0999 V2000
    2.6678    5.0246    1.5109 C   0  0  0  0  0  0  0  0  0  0  0  0
    3.8946    4.3106    1.2477 N   0  0  0  0  0  0  0  0  0  0  0  0
    5.0602    4.8763    1.5722 N   0  0  0  0  0  0  0  0  0  0  0  0
    5.9687    3.9827    1.1968 C   0  0  0  0  0  0  0  0  0  0  0  0
    7.2712    4.2463    1.3659 N   0  0  0  0  0  0  0  0  0  0  0  0
    5.3924    2.7898    0.6411 C   0  0  0  0  0  0  0  0  0  0  0  0
    5.8123    1.5357    0.1185 C   0  0  0  0  0  0  0  0  0  0  0  0
    7.2227    1.1088    0.0452 C   0  0  0  0  0  0  0  0  0  0  0  0
    8.1180    1.3805    1.0833 C   0  0  0  0  0  0  0  0  0  0  0  0
    9.4835    1.1079    0.9720 C   0  0  0  0  0  0  0  0  0  0  0  0
    9.9932    0.4355   -0.1345 C   0  0  0  0  0  0  0  0  0  0  0  0
   11.3708    0.1579   -0.2793 N   0  0  0  0  0  0  0  0  0  0  0  0
   12.2985    0.1883    0.7505 C   0  0  0  0  0  0  0  0  0  0  0  0
   12.0256    0.2500    1.9442 O   0  0  0  0  0  0  0  0  0  0  0  0
   13.6000    0.1938    0.2686 N   0  0  0  0  0  0  0  0  0  0  0  0
   14.6980    0.2051    1.1591 C   0  0  0  0  0  0  0  0  0  0  0  0
   15.7324    1.1160    0.9428 C   0  0  0  0  0  0  0  0  0  0  0  0
   16.8145    1.1576    1.8230 C   0  0  0  0  0  0  0  0  0  0  0  0
   16.8953    0.2461    2.8737 C   0  0  0  0  0  0  0  0  0  0  0  0
   17.9685    0.2956    3.6728 F   0  0  0  0  0  0  0  0  0  0  0  0
   15.9000   -0.7031    3.0824 C   0  0  0  0  0  0  0  0  0  0  0  0
   16.0330   -1.7451    4.1528 C   0  0  0  0  0  0  0  0  0  0  0  0
   17.2229   -1.7411    4.8141 F   0  0  0  0  0  0  0  0  0  0  0  0
   15.0743   -1.6440    5.1143 F   0  0  0  0  0  0  0  0  0  0  0  0
   15.9111   -3.0068    3.6445 F   0  0  0  0  0  0  0  0  0  0  0  0
   14.7761   -0.6906    2.2353 C   0  0  0  0  0  0  0  0  0  0  0  0
    9.1058    0.0637   -1.1464 C   0  0  0  0  0  0  0  0  0  0  0  0
    7.7411    0.4025   -1.0587 C   0  0  0  0  0  0  0  0  0  0  0  0
    4.7661    0.7123   -0.3246 C   0  0  0  0  0  0  0  0  0  0  0  0
    3.4430    1.0054   -0.2991 N   0  0  0  0  0  0  0  0  0  0  0  0
    3.0544    2.1886    0.2094 C   0  0  0  0  0  0  0  0  0  0  0  0
    4.0134    3.0695    0.6784 C   0  0  0  0  0  0  0  0  0  0  0  0
    2.8961    5.9807    1.9897 H   0  0  0  0  0  0  0  0  0  0  0  0
    2.0485    4.4175    2.1752 H   0  0  0  0  0  0  0  0  0  0  0  0
    2.1600    5.1997    0.5590 H   0  0  0  0  0  0  0  0  0  0  0  0
    7.5089    5.1720    1.7022 H   0  0  0  0  0  0  0  0  0  0  0  0
    7.9760    3.8285    0.7724 H   0  0  0  0  0  0  0  0  0  0  0  0
    7.7729    1.8496    2.0034 H   0  0  0  0  0  0  0  0  0  0  0  0
   10.1252    1.4582    1.7742 H   0  0  0  0  0  0  0  0  0  0  0  0
   11.6689   -0.2964   -1.1331 H   0  0  0  0  0  0  0  0  0  0  0  0
   13.7109    0.7156   -0.5900 H   0  0  0  0  0  0  0  0  0  0  0  0
   15.6844    1.8351    0.1302 H   0  0  0  0  0  0  0  0  0  0  0  0
   17.6028    1.8938    1.6961 H   0  0  0  0  0  0  0  0  0  0  0  0
   13.9746   -1.4100    2.4049 H   0  0  0  0  0  0  0  0  0  0  0  0
    9.4478   -0.4937   -2.0151 H   0  0  0  0  0  0  0  0  0  0  0  0
    7.0885    0.1091   -1.8800 H   0  0  0  0  0  0  0  0  0  0  0  0
    4.9748   -0.2761   -0.7252 H   0  0  0  0  0  0  0  0  0  0  0  0
    1.9888    2.3903    0.2288 H   0  0  0  0  0  0  0  0  0  0  0  0
  1  2  1  0  0  0  0
  1 33  1  0  0  0  0
  1 34  1  0  0  0  0
  1 35  1  0  0  0  0
  2  3  1  0  0  0  0
  2 32  1  0  0  0  0
  3  4  2  0  0  0  0
  4  5  1  0  0  0  0
  4  6  1  0  0  0  0
  5 36  1  0  0  0  0
  5 37  1  0  0  0  0
  6  7  1  0  0  0  0
  6 32  2  0  0  0  0
  7  8  1  0  0  0  0
  7 29  2  0  0  0  0
  8  9  1  0  0  0  0
  8 28  2  0  0  0  0
  9 10  2  0  0  0  0
  9 38  1  0  0  0  0
 10 11  1  0  0  0  0
 10 39  1  0  0  0  0
 11 12  1  0  0  0  0
 11 27  2  0  0  0  0
 12 13  1  0  0  0  0
 12 40  1  0  0  0  0
 13 14  2  0  0  0  0
 13 15  1  0  0  0  0
 15 16  1  0  0  0  0
 15 41  1  0  0  0  0
 16 17  1  0  0  0  0
 16 26  2  0  0  0  0
 17 18  2  0  0  0  0
 17 42  1  0  0  0  0
 18 19  1  0  0  0  0
 18 43  1  0  0  0  0
 19 20  1  0  0  0  0
 19 21  2  0  0  0  0
 21 22  1  0  0  0  0
 21 26  1  0  0  0  0
 22 23  1  0  0  0  0
 22 24  1  0  0  0  0
 22 25  1  0  0  0  0
 26 44  1  0  0  0  0
 27 28  1  0  0  0  0
 27 45  1  0  0  0  0
 28 46  1  0  0  0  0
 29 30  1  0  0  0  0
 29 47  1  0  0  0  0
 30 31  2  0  0  0  0
 31 32  1  0  0  0  0
 31 48  1  0  0  0  0
M  END
$$$$
