CHEMBL4093021
 OpenBabel04072215383D

 76 82  0  0  1  0  0  0  0  0999 V2000
   -3.6202   15.9058   -3.6380 C   0  0  0  0  0  0  0  0  0  0  0  0
   -3.0794   14.4607   -3.6660 C   0  0  0  0  0  0  0  0  0  0  0  0
   -4.1305   13.5593   -2.9812 C   0  0  0  0  0  0  0  0  0  0  0  0
   -2.9392   14.0382   -5.1410 C   0  0  0  0  0  0  0  0  0  0  0  0
   -1.7338   14.3688   -2.9314 C   0  0  0  0  0  0  0  0  0  0  0  0
   -0.9810   15.3606   -2.3319 C   0  0  0  0  0  0  0  0  0  0  0  0
    0.1672   14.8689   -1.6345 C   0  0  0  0  0  0  0  0  0  0  0  0
    1.0161   15.6453   -0.9196 N   0  0  0  0  0  0  0  0  0  0  0  0
    1.9718   14.9766   -0.2756 C   0  0  0  0  0  0  0  0  0  0  0  0
    2.1679   13.6510   -0.2575 N   0  0  0  0  0  0  0  0  0  0  0  0
    1.3467   12.8672   -1.0159 C   0  0  0  0  0  0  0  0  0  0  0  0
    1.5380   11.4598   -1.0144 N   0  0  0  0  0  0  0  0  0  0  0  0
    0.8439   10.6626   -1.8341 N   0  0  0  0  0  0  0  0  0  0  0  0
    1.2527    9.4426   -1.5158 C   0  0  0  0  0  0  0  0  0  0  0  0
    0.7991    8.2977   -2.0591 N   0  0  0  0  0  0  0  0  0  0  0  0
   -0.0138    8.1440   -3.2008 C   0  0  0  0  0  0  0  0  0  0  0  0
   -0.8462    7.0373   -3.3182 C   0  0  0  0  0  0  0  0  0  0  0  0
   -1.7199    6.9035   -4.4120 C   0  0  0  0  0  0  0  0  0  0  0  0
   -1.8249    7.8671   -5.4380 C   0  0  0  0  0  0  0  0  0  0  0  0
   -2.6374    7.6088   -6.5344 N   0  0  0  0  0  0  0  0  0  0  0  0
   -3.9392    6.9300   -6.4143 C   0  0  0  0  0  0  0  0  0  0  0  0
   -4.1181    5.8939   -7.5552 C   0  0  0  0  0  0  0  0  0  0  0  0
   -3.9272    6.4258   -8.9329 N   0  0  0  0  0  0  0  0  0  0  0  0
   -4.9901    7.3677   -9.3138 C   0  0  3  0  0  0  0  0  0  0  0  0
   -6.3843    6.7069   -9.4799 C   0  0  0  0  0  0  0  0  0  0  0  0
   -6.8898    7.2745  -10.8203 C   0  0  3  0  0  0  0  0  0  0  0  0
   -6.1479    6.5549  -11.9581 C   0  0  0  0  0  0  0  0  0  0  0  0
   -4.7310    7.1355  -11.8597 C   0  0  0  0  0  0  0  0  0  0  0  0
   -4.8330    8.1095  -10.6724 C   0  0  3  0  0  0  0  0  0  0  0  0
   -6.2495    8.6601  -10.8573 C   0  0  0  0  0  0  0  0  0  0  0  0
   -2.5822    7.0486   -8.9631 C   0  0  0  0  0  0  0  0  0  0  0  0
   -2.3159    8.1190   -7.8787 C   0  0  0  0  0  0  0  0  0  0  0  0
   -1.0187    9.0139   -5.2665 C   0  0  0  0  0  0  0  0  0  0  0  0
   -1.1110   10.4262   -6.2793 Cl  0  0  0  0  0  0  0  0  0  0  0  0
   -0.1270    9.1288   -4.1878 C   0  0  0  0  0  0  0  0  0  0  0  0
    2.1703    9.4028   -0.5082 N   0  0  0  0  0  0  0  0  0  0  0  0
    2.3688   10.6673   -0.2230 C   0  0  0  0  0  0  0  0  0  0  0  0
    3.2023   11.1391    0.7253 N   0  0  0  0  0  0  0  0  0  0  0  0
    0.3046   13.4874   -1.7329 C   0  0  0  0  0  0  0  0  0  0  0  0
   -0.9431   12.8611   -2.7469 S   0  0  0  0  0  0  0  0  0  0  0  0
   -4.5860   15.9787   -4.1511 H   0  0  0  0  0  0  0  0  0  0  0  0
   -2.9324   16.6005   -4.1340 H   0  0  0  0  0  0  0  0  0  0  0  0
   -3.7678   16.2570   -2.6098 H   0  0  0  0  0  0  0  0  0  0  0  0
   -5.1071   13.6486   -3.4714 H   0  0  0  0  0  0  0  0  0  0  0  0
   -4.2600   13.8310   -1.9270 H   0  0  0  0  0  0  0  0  0  0  0  0
   -3.8524   12.4998   -3.0165 H   0  0  0  0  0  0  0  0  0  0  0  0
   -3.8976   14.1270   -5.6671 H   0  0  0  0  0  0  0  0  0  0  0  0
   -2.6165   12.9969   -5.2407 H   0  0  0  0  0  0  0  0  0  0  0  0
   -2.2104   14.6639   -5.6685 H   0  0  0  0  0  0  0  0  0  0  0  0
   -1.2527   16.4084   -2.3323 H   0  0  0  0  0  0  0  0  0  0  0  0
    2.6655   15.5747    0.3076 H   0  0  0  0  0  0  0  0  0  0  0  0
    1.0917    7.4367   -1.6165 H   0  0  0  0  0  0  0  0  0  0  0  0
   -0.8433    6.2615   -2.5553 H   0  0  0  0  0  0  0  0  0  0  0  0
   -2.3032    5.9879   -4.4588 H   0  0  0  0  0  0  0  0  0  0  0  0
   -4.7375    7.6807   -6.4517 H   0  0  0  0  0  0  0  0  0  0  0  0
   -4.0716    6.4136   -5.4589 H   0  0  0  0  0  0  0  0  0  0  0  0
   -5.0935    5.4046   -7.4617 H   0  0  0  0  0  0  0  0  0  0  0  0
   -3.3787    5.0943   -7.4033 H   0  0  0  0  0  0  0  0  0  0  0  0
   -5.0865    8.1476   -8.5477 H   0  0  0  0  0  0  0  0  0  0  0  0
   -7.0384    7.0091   -8.6538 H   0  0  0  0  0  0  0  0  0  0  0  0
   -6.3526    5.6116   -9.4980 H   0  0  0  0  0  0  0  0  0  0  0  0
   -7.9761    7.2531  -10.9250 H   0  0  0  0  0  0  0  0  0  0  0  0
   -6.5911    6.7998  -12.9301 H   0  0  0  0  0  0  0  0  0  0  0  0
   -6.1551    5.4662  -11.8458 H   0  0  0  0  0  0  0  0  0  0  0  0
   -4.4946    7.6843  -12.7795 H   0  0  0  0  0  0  0  0  0  0  0  0
   -3.9715    6.3603  -11.7275 H   0  0  0  0  0  0  0  0  0  0  0  0
   -4.0534    8.8747  -10.6677 H   0  0  0  0  0  0  0  0  0  0  0  0
   -6.3877    9.1798  -11.8111 H   0  0  0  0  0  0  0  0  0  0  0  0
   -6.5723    9.3094  -10.0365 H   0  0  0  0  0  0  0  0  0  0  0  0
   -2.3672    7.4693   -9.9513 H   0  0  0  0  0  0  0  0  0  0  0  0
   -1.8417    6.2469   -8.8351 H   0  0  0  0  0  0  0  0  0  0  0  0
   -2.9085    9.0183   -8.0848 H   0  0  0  0  0  0  0  0  0  0  0  0
   -1.2539    8.3703   -7.9678 H   0  0  0  0  0  0  0  0  0  0  0  0
    0.4930   10.0206   -4.1369 H   0  0  0  0  0  0  0  0  0  0  0  0
    3.5451   10.4937    1.4261 H   0  0  0  0  0  0  0  0  0  0  0  0
    3.1292   12.1111    1.0227 H   0  0  0  0  0  0  0  0  0  0  0  0
  1  2  1  0  0  0  0
  1 41  1  0  0  0  0
  1 42  1  0  0  0  0
  1 43  1  0  0  0  0
  2  3  1  0  0  0  0
  2  4  1  0  0  0  0
  2  5  1  0  0  0  0
  3 44  1  0  0  0  0
  3 45  1  0  0  0  0
  3 46  1  0  0  0  0
  4 47  1  0  0  0  0
  4 48  1  0  0  0  0
  4 49  1  0  0  0  0
  5  6  2  0  0  0  0
  5 40  1  0  0  0  0
  6  7  1  0  0  0  0
  6 50  1  0  0  0  0
  7  8  1  0  0  0  0
  7 39  2  0  0  0  0
  8  9  2  0  0  0  0
  9 10  1  0  0  0  0
  9 51  1  0  0  0  0
 10 11  2  0  0  0  0
 11 12  1  0  0  0  0
 11 39  1  0  0  0  0
 12 13  1  0  0  0  0
 12 37  1  0  0  0  0
 13 14  2  0  0  0  0
 14 15  1  0  0  0  0
 14 36  1  0  0  0  0
 15 16  1  0  0  0  0
 15 52  1  0  0  0  0
 16 17  1  0  0  0  0
 16 35  2  0  0  0  0
 17 18  2  0  0  0  0
 17 53  1  0  0  0  0
 18 19  1  0  0  0  0
 18 54  1  0  0  0  0
 19 20  1  0  0  0  0
 19 33  2  0  0  0  0
 20 21  1  0  0  0  0
 20 32  1  0  0  0  0
 21 22  1  0  0  0  0
 21 55  1  0  0  0  0
 21 56  1  0  0  0  0
 22 23  1  0  0  0  0
 22 57  1  0  0  0  0
 22 58  1  0  0  0  0
 23 24  1  0  0  0  0
 23 31  1  0  0  0  0
 24 25  1  0  0  0  0
 24 29  1  0  0  0  0
 24 59  1  0  0  0  0
 25 26  1  0  0  0  0
 25 60  1  0  0  0  0
 25 61  1  0  0  0  0
 26 27  1  0  0  0  0
 26 30  1  0  0  0  0
 26 62  1  0  0  0  0
 27 28  1  0  0  0  0
 27 63  1  0  0  0  0
 27 64  1  0  0  0  0
 28 29  1  0  0  0  0
 28 65  1  0  0  0  0
 28 66  1  0  0  0  0
 29 30  1  0  0  0  0
 29 67  1  0  0  0  0
 30 68  1  0  0  0  0
 30 69  1  0  0  0  0
 31 32  1  0  0  0  0
 31 70  1  0  0  0  0
 31 71  1  0  0  0  0
 32 72  1  0  0  0  0
 32 73  1  0  0  0  0
 33 34  1  0  0  0  0
 33 35  1  0  0  0  0
 35 74  1  0  0  0  0
 36 37  2  0  0  0  0
 37 38  1  0  0  0  0
 38 75  1  0  0  0  0
 38 76  1  0  0  0  0
 39 40  1  0  0  0  0
M  END
$$$$
