CHEMBL3902353
 OpenBabel04072215373D

 75 78  0  0  1  0  0  0  0  0999 V2000
    1.3809    0.6214    5.1798 C   0  0  0  0  0  0  0  0  0  0  0  0
    2.6686    1.0478    4.9089 O   0  0  0  0  0  0  0  0  0  0  0  0
    3.2784    1.0178    3.6899 C   0  0  0  0  0  0  0  0  0  0  0  0
    2.5838    0.6167    2.5345 C   0  0  0  0  0  0  0  0  0  0  0  0
    3.2026    0.6409    1.2945 C   0  0  0  0  0  0  0  0  0  0  0  0
    2.4646    0.2916    0.2021 O   0  0  0  0  0  0  0  0  0  0  0  0
    2.7631    0.5486   -1.1255 C   0  0  0  0  0  0  0  0  0  0  0  0
    4.5449    1.0401    1.2133 C   0  0  0  0  0  0  0  0  0  0  0  0
    5.2975    1.4408    2.3674 C   0  0  0  0  0  0  0  0  0  0  0  0
    6.6608    1.9514    2.2630 N   0  0  0  0  0  0  0  0  0  0  0  0
    7.2255    2.2723    0.8982 C   0  0  0  0  0  0  0  0  0  0  0  0
    8.5811    1.5861    0.7968 C   0  0  0  0  0  0  0  0  0  0  0  0
    9.4746    1.6904   -0.4486 C   0  0  0  0  0  0  0  0  0  0  0  0
   10.7727    0.9826   -0.2341 N   0  0  0  0  0  0  0  0  0  0  0  0
   10.6698   -0.4604    0.1225 C   0  0  1  0  0  0  0  0  0  0  0  0
   10.6652   -1.3313   -1.1227 C   0  0  0  0  0  0  0  0  0  0  0  0
   11.8056   -0.7552    1.1140 C   0  0  0  0  0  0  0  0  0  0  0  0
   12.7211    0.4374    0.9790 C   0  0  0  0  0  0  0  0  0  0  0  0
   11.7179    1.5573    0.7548 C   0  0  1  0  0  0  0  0  0  0  0  0
   12.4096    2.8405    0.2842 C   0  0  0  0  0  0  0  0  0  0  0  0
    7.5707    2.3163    3.3808 C   0  0  0  0  0  0  0  0  0  0  0  0
    8.1261    3.5801    3.1999 C   0  0  0  0  0  0  0  0  0  0  0  0
    9.2496    3.9683    3.8178 C   0  0  0  0  0  0  0  0  0  0  0  0
    9.8654    3.1801    4.7327 C   0  0  0  0  0  0  0  0  0  0  0  0
   11.0398    3.6456    5.1158 N   0  0  0  0  0  0  0  0  0  0  0  0
   11.7658    3.0695    6.0320 C   0  0  0  0  0  0  0  0  0  0  0  0
   11.2886    1.9765    6.7500 C   0  0  0  0  0  0  0  0  0  0  0  0
   12.1788    1.7380    8.0288 C   0  0  0  0  0  0  0  0  0  0  0  0
   13.1452    2.7001    8.4306 C   0  0  0  0  0  0  0  0  0  0  0  0
   13.7402    2.3698    9.5670 N   0  0  0  0  0  0  0  0  0  0  0  0
   13.2374    1.2287    9.9704 N   0  0  0  0  0  0  0  0  0  0  0  0
   13.7000    0.6791   11.2468 C   0  0  0  0  0  0  0  0  0  0  0  0
   12.2830    0.7836    9.0711 C   0  0  0  0  0  0  0  0  0  0  0  0
   10.0906    1.3594    6.2746 N   0  0  0  0  0  0  0  0  0  0  0  0
    9.3586    1.9549    5.2032 C   0  0  0  0  0  0  0  0  0  0  0  0
    8.1518    1.4715    4.4671 C   0  0  0  0  0  0  0  0  0  0  0  0
    4.6241    1.4187    3.6000 C   0  0  0  0  0  0  0  0  0  0  0  0
    0.4212   -2.4083   -0.2728 Cl  0  0  0  0  0  0  0  0  0  0  0  0
    1.1370    0.8471    6.2367 H   0  0  0  0  0  0  0  0  0  0  0  0
    1.3065   -0.4752    5.0200 H   0  0  0  0  0  0  0  0  0  0  0  0
    0.6398    1.1475    4.5372 H   0  0  0  0  0  0  0  0  0  0  0  0
    1.5448    0.3105    2.5774 H   0  0  0  0  0  0  0  0  0  0  0  0
    1.9885    0.0839   -1.7730 H   0  0  0  0  0  0  0  0  0  0  0  0
    3.7430    0.1194   -1.4152 H   0  0  0  0  0  0  0  0  0  0  0  0
    2.7496    1.6441   -1.3124 H   0  0  0  0  0  0  0  0  0  0  0  0
    4.9472    1.0202    0.2276 H   0  0  0  0  0  0  0  0  0  0  0  0
    7.3321    3.3600    0.7231 H   0  0  0  0  0  0  0  0  0  0  0  0
    6.6318    1.9821    0.0318 H   0  0  0  0  0  0  0  0  0  0  0  0
    8.3112    0.5465    0.9962 H   0  0  0  0  0  0  0  0  0  0  0  0
    9.1944    1.9945    1.5966 H   0  0  0  0  0  0  0  0  0  0  0  0
    9.6762    2.7557   -0.7041 H   0  0  0  0  0  0  0  0  0  0  0  0
    8.9553    1.2529   -1.3292 H   0  0  0  0  0  0  0  0  0  0  0  0
    9.7541   -0.7541    0.6515 H   0  0  0  0  0  0  0  0  0  0  0  0
   11.5935   -1.2043   -1.7091 H   0  0  0  0  0  0  0  0  0  0  0  0
    9.7830   -1.0661   -1.7469 H   0  0  0  0  0  0  0  0  0  0  0  0
   10.5491   -2.3942   -0.8157 H   0  0  0  0  0  0  0  0  0  0  0  0
   12.2934   -1.7472    1.0099 H   0  0  0  0  0  0  0  0  0  0  0  0
   11.3734   -0.6938    2.1410 H   0  0  0  0  0  0  0  0  0  0  0  0
   13.3339    0.3109    0.0622 H   0  0  0  0  0  0  0  0  0  0  0  0
   13.3855    0.5878    1.8601 H   0  0  0  0  0  0  0  0  0  0  0  0
   11.2229    1.7547    1.7277 H   0  0  0  0  0  0  0  0  0  0  0  0
   12.9809    2.6574   -0.6496 H   0  0  0  0  0  0  0  0  0  0  0  0
   13.1173    3.1873    1.0702 H   0  0  0  0  0  0  0  0  0  0  0  0
   11.6740    3.6513    0.1102 H   0  0  0  0  0  0  0  0  0  0  0  0
    7.7569    4.2757    2.4745 H   0  0  0  0  0  0  0  0  0  0  0  0
    9.6948    4.9115    3.5375 H   0  0  0  0  0  0  0  0  0  0  0  0
   12.6874    3.5579    6.1933 H   0  0  0  0  0  0  0  0  0  0  0  0
   13.4197    3.6453    7.9998 H   0  0  0  0  0  0  0  0  0  0  0  0
   14.4459    1.3794   11.7106 H   0  0  0  0  0  0  0  0  0  0  0  0
   14.2088   -0.2925   11.1080 H   0  0  0  0  0  0  0  0  0  0  0  0
   12.8553    0.6057   11.9578 H   0  0  0  0  0  0  0  0  0  0  0  0
   11.7368   -0.1333    9.2175 H   0  0  0  0  0  0  0  0  0  0  0  0
    7.7528    0.4768    4.6534 H   0  0  0  0  0  0  0  0  0  0  0  0
    5.1328    1.7448    4.4948 H   0  0  0  0  0  0  0  0  0  0  0  0
    1.7445   -2.0861   -0.4531 H   0  0  0  0  0  0  0  0  0  0  0  0
  1  2  1  0  0  0  0
  1 39  1  0  0  0  0
  1 40  1  0  0  0  0
  1 41  1  0  0  0  0
  2  3  1  0  0  0  0
  3  4  1  0  0  0  0
  3 37  2  0  0  0  0
  4  5  2  0  0  0  0
  4 42  1  0  0  0  0
  5  6  1  0  0  0  0
  5  8  1  0  0  0  0
  6  7  1  0  0  0  0
  7 43  1  0  0  0  0
  7 44  1  0  0  0  0
  7 45  1  0  0  0  0
  8  9  2  0  0  0  0
  8 46  1  0  0  0  0
  9 10  1  0  0  0  0
  9 37  1  0  0  0  0
 10 11  1  0  0  0  0
 10 21  1  0  0  0  0
 11 12  1  0  0  0  0
 11 47  1  0  0  0  0
 11 48  1  0  0  0  0
 12 13  1  0  0  0  0
 12 49  1  0  0  0  0
 12 50  1  0  0  0  0
 13 14  1  0  0  0  0
 13 51  1  0  0  0  0
 13 52  1  0  0  0  0
 14 15  1  0  0  0  0
 14 19  1  0  0  0  0
 15 16  1  0  0  0  0
 15 17  1  0  0  0  0
 15 53  1  1  0  0  0
 16 54  1  0  0  0  0
 16 55  1  0  0  0  0
 16 56  1  0  0  0  0
 17 18  1  0  0  0  0
 17 57  1  0  0  0  0
 17 58  1  0  0  0  0
 18 19  1  0  0  0  0
 18 59  1  0  0  0  0
 18 60  1  0  0  0  0
 19 20  1  0  0  0  0
 19 61  1  1  0  0  0
 20 62  1  0  0  0  0
 20 63  1  0  0  0  0
 20 64  1  0  0  0  0
 21 22  1  0  0  0  0
 21 36  2  0  0  0  0
 22 23  2  0  0  0  0
 22 65  1  0  0  0  0
 23 24  1  0  0  0  0
 23 66  1  0  0  0  0
 24 25  1  0  0  0  0
 24 35  2  0  0  0  0
 25 26  2  0  0  0  0
 26 27  1  0  0  0  0
 26 67  1  0  0  0  0
 27 28  1  0  0  0  0
 27 34  2  0  0  0  0
 28 29  1  0  0  0  0
 28 33  2  0  0  0  0
 29 30  2  0  0  0  0
 29 68  1  0  0  0  0
 30 31  1  0  0  0  0
 31 32  1  0  0  0  0
 31 33  1  0  0  0  0
 32 69  1  0  0  0  0
 32 70  1  0  0  0  0
 32 71  1  0  0  0  0
 33 72  1  0  0  0  0
 34 35  1  0  0  0  0
 35 36  1  0  0  0  0
 36 73  1  0  0  0  0
 37 74  1  0  0  0  0
 38 75  1  0  0  0  0
M  END
$$$$
