CHEMBL4551158
 OpenBabel04072215383D

 69 73  0  0  0  0  0  0  0  0999 V2000
    1.6855    4.9223   -9.7098 C   0  0  0  0  0  0  0  0  0  0  0  0
    2.1763    5.2804   -8.4040 O   0  0  0  0  0  0  0  0  0  0  0  0
    2.3082    4.5210   -7.2699 C   0  0  0  0  0  0  0  0  0  0  0  0
    3.2220    5.0477   -6.4028 C   0  0  0  0  0  0  0  0  0  0  0  0
    3.3473    4.6812   -4.8761 C   0  0  0  0  0  0  0  0  0  0  0  0
    3.2261    3.6410   -3.9252 C   0  0  0  0  0  0  0  0  0  0  0  0
    4.3423    4.3220   -2.7690 C   0  0  0  0  0  0  0  0  0  0  0  0
    4.7635    4.0561   -1.1992 C   0  0  0  0  0  0  0  0  0  0  0  0
    3.8964    3.9278   -0.0378 C   0  0  0  0  0  0  0  0  0  0  0  0
    3.5379    2.6905    0.8452 C   0  0  0  0  0  0  0  0  0  0  0  0
    2.8474    1.6605    0.3132 C   0  0  0  0  0  0  0  0  0  0  0  0
    2.2972    2.0269   -0.8684 C   0  0  0  0  0  0  0  0  0  0  0  0
    2.3376    0.9557   -1.8848 O   0  0  0  0  0  0  0  0  0  0  0  0
    3.1986   -0.3360   -1.7940 C   0  0  0  0  0  0  0  0  0  0  0  0
    2.1364    3.5228   -1.1138 C   0  0  0  0  0  0  0  0  0  0  0  0
    2.9424    4.6087   -0.6814 C   0  0  0  0  0  0  0  0  0  0  0  0
    3.2464    5.8133   -1.5776 N   0  0  0  0  0  0  0  0  0  0  0  0
    4.1637    5.6481   -2.6007 C   0  0  0  0  0  0  0  0  0  0  0  0
    4.7776    6.5784   -3.4757 N   0  0  0  0  0  0  0  0  0  0  0  0
    4.5130    7.9404   -3.5452 C   0  0  0  0  0  0  0  0  0  0  0  0
    5.5706    8.8083   -3.6841 C   0  0  0  0  0  0  0  0  0  0  0  0
    5.3612   10.1783   -3.6067 C   0  0  0  0  0  0  0  0  0  0  0  0
    4.0983   10.7153   -3.4472 C   0  0  0  0  0  0  0  0  0  0  0  0
    3.9021   12.1162   -3.3780 N   0  0  0  0  0  0  0  0  0  0  0  0
    4.9833   13.0430   -3.3856 C   0  0  0  0  0  0  0  0  0  0  0  0
    6.1961   12.8152   -3.4704 O   0  0  0  0  0  0  0  0  0  0  0  0
    4.6373   14.4950   -3.1095 C   0  0  0  0  0  0  0  0  0  0  0  0
    3.9489   14.6219   -1.8218 N   0  0  0  0  0  0  0  0  0  0  0  0
    4.8341   14.1876   -0.7186 C   0  0  0  0  0  0  0  0  0  0  0  0
    4.0618   14.1941    0.5934 C   0  0  0  0  0  0  0  0  0  0  0  0
    3.4984   15.5772    0.8883 C   0  0  0  0  0  0  0  0  0  0  0  0
    2.7097   16.0992   -0.3078 C   0  0  0  0  0  0  0  0  0  0  0  0
    3.5319   16.0165   -1.5956 C   0  0  0  0  0  0  0  0  0  0  0  0
    3.0055    9.8357   -3.3699 C   0  0  0  0  0  0  0  0  0  0  0  0
    3.2326    8.4564   -3.3509 C   0  0  0  0  0  0  0  0  0  0  0  0
    2.2564    3.0775   -4.9575 C   0  0  0  0  0  0  0  0  0  0  0  0
    1.7827    3.5124   -6.6056 C   0  0  0  0  0  0  0  0  0  0  0  0
    1.8290    5.7790  -10.4110 H   0  0  0  0  0  0  0  0  0  0  0  0
    0.6194    4.6996   -9.6897 H   0  0  0  0  0  0  0  0  0  0  0  0
    2.2354    4.1006  -10.1766 H   0  0  0  0  0  0  0  0  0  0  0  0
    3.8438    5.8582   -6.7228 H   0  0  0  0  0  0  0  0  0  0  0  0
    2.9077    5.5684   -4.3440 H   0  0  0  0  0  0  0  0  0  0  0  0
    5.2601    5.1034   -0.7686 H   0  0  0  0  0  0  0  0  0  0  0  0
    3.3961    2.7665    1.9540 H   0  0  0  0  0  0  0  0  0  0  0  0
    2.3379    0.7752    0.7791 H   0  0  0  0  0  0  0  0  0  0  0  0
    2.6064   -1.2546   -2.0355 H   0  0  0  0  0  0  0  0  0  0  0  0
    3.7158   -0.5611   -0.8430 H   0  0  0  0  0  0  0  0  0  0  0  0
    3.9847   -0.3242   -2.5744 H   0  0  0  0  0  0  0  0  0  0  0  0
    1.5622    3.9395   -1.9159 H   0  0  0  0  0  0  0  0  0  0  0  0
    5.5340    6.2883   -4.1131 H   0  0  0  0  0  0  0  0  0  0  0  0
    6.6001    8.4602   -3.7622 H   0  0  0  0  0  0  0  0  0  0  0  0
    6.2756   10.7446   -3.6435 H   0  0  0  0  0  0  0  0  0  0  0  0
    2.9844   12.4600   -3.0836 H   0  0  0  0  0  0  0  0  0  0  0  0
    4.0420   14.8471   -3.9414 H   0  0  0  0  0  0  0  0  0  0  0  0
    5.5995   15.0337   -3.1346 H   0  0  0  0  0  0  0  0  0  0  0  0
    5.7277   14.8264   -0.6389 H   0  0  0  0  0  0  0  0  0  0  0  0
    5.1929   13.1633   -0.8855 H   0  0  0  0  0  0  0  0  0  0  0  0
    4.7176   13.8749    1.4094 H   0  0  0  0  0  0  0  0  0  0  0  0
    3.2397   13.4695    0.5327 H   0  0  0  0  0  0  0  0  0  0  0  0
    4.3218   16.2671    1.1087 H   0  0  0  0  0  0  0  0  0  0  0  0
    2.8578   15.5395    1.7752 H   0  0  0  0  0  0  0  0  0  0  0  0
    2.4118   17.1364   -0.1284 H   0  0  0  0  0  0  0  0  0  0  0  0
    1.7874   15.5139   -0.4191 H   0  0  0  0  0  0  0  0  0  0  0  0
    4.3976   16.6899   -1.5258 H   0  0  0  0  0  0  0  0  0  0  0  0
    2.9055   16.3641   -2.4221 H   0  0  0  0  0  0  0  0  0  0  0  0
    1.9763   10.1807   -3.3210 H   0  0  0  0  0  0  0  0  0  0  0  0
    2.4089    7.7627   -3.1734 H   0  0  0  0  0  0  0  0  0  0  0  0
    1.5813    2.3021   -4.7023 H   0  0  0  0  0  0  0  0  0  0  0  0
    0.8266    3.1633   -6.9675 H   0  0  0  0  0  0  0  0  0  0  0  0
  1  2  1  0  0  0  0
  1 38  1  0  0  0  0
  1 39  1  0  0  0  0
  1 40  1  0  0  0  0
  2  3  1  0  0  0  0
  3  4  1  0  0  0  0
  3 37  2  0  0  0  0
  4  5  2  0  0  0  0
  4 41  1  0  0  0  0
  5  6  1  0  0  0  0
  5 42  1  0  0  0  0
  6  7  1  0  0  0  0
  6 36  2  0  0  0  0
  7  8  1  0  0  0  0
  7 18  2  0  0  0  0
  8  9  2  0  0  0  0
  8 43  1  0  0  0  0
  9 10  1  0  0  0  0
  9 16  1  0  0  0  0
 10 11  2  0  0  0  0
 10 44  1  0  0  0  0
 11 12  1  0  0  0  0
 11 45  1  0  0  0  0
 12 13  1  0  0  0  0
 12 15  2  0  0  0  0
 13 14  1  0  0  0  0
 14 46  1  0  0  0  0
 14 47  1  0  0  0  0
 14 48  1  0  0  0  0
 15 16  1  0  0  0  0
 15 49  1  0  0  0  0
 16 17  2  0  0  0  0
 17 18  1  0  0  0  0
 18 19  1  0  0  0  0
 19 20  1  0  0  0  0
 19 50  1  0  0  0  0
 20 21  1  0  0  0  0
 20 35  2  0  0  0  0
 21 22  2  0  0  0  0
 21 51  1  0  0  0  0
 22 23  1  0  0  0  0
 22 52  1  0  0  0  0
 23 24  1  0  0  0  0
 23 34  2  0  0  0  0
 24 25  1  0  0  0  0
 24 53  1  0  0  0  0
 25 26  2  0  0  0  0
 25 27  1  0  0  0  0
 27 28  1  0  0  0  0
 27 54  1  0  0  0  0
 27 55  1  0  0  0  0
 28 29  1  0  0  0  0
 28 33  1  0  0  0  0
 29 30  1  0  0  0  0
 29 56  1  0  0  0  0
 29 57  1  0  0  0  0
 30 31  1  0  0  0  0
 30 58  1  0  0  0  0
 30 59  1  0  0  0  0
 31 32  1  0  0  0  0
 31 60  1  0  0  0  0
 31 61  1  0  0  0  0
 32 33  1  0  0  0  0
 32 62  1  0  0  0  0
 32 63  1  0  0  0  0
 33 64  1  0  0  0  0
 33 65  1  0  0  0  0
 34 35  1  0  0  0  0
 34 66  1  0  0  0  0
 35 67  1  0  0  0  0
 36 37  1  0  0  0  0
 36 68  1  0  0  0  0
 37 69  1  0  0  0  0
M  END
$$$$
