CHEMBL1681947
 OpenBabel04072215363D

 46 48  0  0  0  0  0  0  0  0999 V2000
    9.6184    7.2133    2.6116 C   0  0  0  0  0  0  0  0  0  0  0  0
    9.0157    6.4623    1.5593 O   0  0  0  0  0  0  0  0  0  0  0  0
    7.9558    5.7312    2.1079 N   0  0  0  0  0  0  0  0  0  0  0  0
    7.3487    5.0566    1.1807 C   0  0  0  0  0  0  0  0  0  0  0  0
    6.1616    4.2463    1.4982 C   0  0  0  0  0  0  0  0  0  0  0  0
    5.3289    4.5659    2.5662 C   0  0  0  0  0  0  0  0  0  0  0  0
    5.5104    5.7002    3.3566 N   0  0  0  0  0  0  0  0  0  0  0  0
    4.2109    3.8760    2.8493 N   0  0  0  0  0  0  0  0  0  0  0  0
    3.9452    2.8246    2.0723 C   0  0  0  0  0  0  0  0  0  0  0  0
    4.7035    2.3916    1.0647 N   0  0  0  0  0  0  0  0  0  0  0  0
    5.7969    3.1327    0.7660 C   0  0  0  0  0  0  0  0  0  0  0  0
    6.5994    2.7052   -0.2978 O   0  0  0  0  0  0  0  0  0  0  0  0
    6.0028    1.9012   -1.2524 C   0  0  0  0  0  0  0  0  0  0  0  0
    4.7453    2.1983   -1.7755 C   0  0  0  0  0  0  0  0  0  0  0  0
    4.1428    1.3498   -2.6991 C   0  0  0  0  0  0  0  0  0  0  0  0
    4.7787    0.1932   -3.1611 C   0  0  0  0  0  0  0  0  0  0  0  0
    4.1206   -0.7048   -4.0561 N   0  0  0  0  0  0  0  0  0  0  0  0
    2.7568   -0.7159   -4.2948 C   0  0  0  0  0  0  0  0  0  0  0  0
    1.9474    0.0506   -3.7692 O   0  0  0  0  0  0  0  0  0  0  0  0
    2.3563   -1.7097   -5.1627 N   0  0  0  0  0  0  0  0  0  0  0  0
    0.9697   -1.8402   -5.4867 C   0  0  0  0  0  0  0  0  0  0  0  0
    0.2113   -0.7250   -5.8748 C   0  0  0  0  0  0  0  0  0  0  0  0
   -1.1506   -0.8531   -6.1608 C   0  0  0  0  0  0  0  0  0  0  0  0
   -1.7704   -2.0964   -6.0545 C   0  0  0  0  0  0  0  0  0  0  0  0
   -1.0291   -3.2119   -5.6597 C   0  0  0  0  0  0  0  0  0  0  0  0
    0.3371   -3.0871   -5.3882 C   0  0  0  0  0  0  0  0  0  0  0  0
    1.2006   -4.4779   -4.8313 Cl  0  0  0  0  0  0  0  0  0  0  0  0
    6.0821   -0.0544   -2.6982 C   0  0  0  0  0  0  0  0  0  0  0  0
    6.9593   -1.4471   -3.2347 Cl  0  0  0  0  0  0  0  0  0  0  0  0
    6.6949    0.7925   -1.7475 C   0  0  0  0  0  0  0  0  0  0  0  0
   10.4833    7.7482    2.2115 H   0  0  0  0  0  0  0  0  0  0  0  0
    9.9561    6.5424    3.4083 H   0  0  0  0  0  0  0  0  0  0  0  0
    8.9082    7.9425    3.0166 H   0  0  0  0  0  0  0  0  0  0  0  0
    7.6990    5.0739    0.1334 H   0  0  0  0  0  0  0  0  0  0  0  0
    6.4938    5.8463    3.5836 H   0  0  0  0  0  0  0  0  0  0  0  0
    4.8914    5.6641    4.1565 H   0  0  0  0  0  0  0  0  0  0  0  0
    3.0257    2.2854    2.2678 H   0  0  0  0  0  0  0  0  0  0  0  0
    4.1865    3.0659   -1.4358 H   0  0  0  0  0  0  0  0  0  0  0  0
    3.1530    1.6423   -3.0364 H   0  0  0  0  0  0  0  0  0  0  0  0
    4.6837   -1.4438   -4.4476 H   0  0  0  0  0  0  0  0  0  0  0  0
    2.8443   -2.5889   -5.0540 H   0  0  0  0  0  0  0  0  0  0  0  0
    0.6698    0.2589   -5.9461 H   0  0  0  0  0  0  0  0  0  0  0  0
   -1.7280    0.0221   -6.4505 H   0  0  0  0  0  0  0  0  0  0  0  0
   -2.8324   -2.1936   -6.2665 H   0  0  0  0  0  0  0  0  0  0  0  0
   -1.5268   -4.1712   -5.5467 H   0  0  0  0  0  0  0  0  0  0  0  0
    7.6926    0.5688   -1.3779 H   0  0  0  0  0  0  0  0  0  0  0  0
  1  2  1  0  0  0  0
  1 31  1  0  0  0  0
  1 32  1  0  0  0  0
  1 33  1  0  0  0  0
  2  3  1  0  0  0  0
  3  4  2  0  0  0  0
  4  5  1  0  0  0  0
  4 34  1  0  0  0  0
  5  6  1  0  0  0  0
  5 11  2  0  0  0  0
  6  7  1  0  0  0  0
  6  8  2  0  0  0  0
  7 35  1  0  0  0  0
  7 36  1  0  0  0  0
  8  9  1  0  0  0  0
  9 10  2  0  0  0  0
  9 37  1  0  0  0  0
 10 11  1  0  0  0  0
 11 12  1  0  0  0  0
 12 13  1  0  0  0  0
 13 14  1  0  0  0  0
 13 30  2  0  0  0  0
 14 15  2  0  0  0  0
 14 38  1  0  0  0  0
 15 16  1  0  0  0  0
 15 39  1  0  0  0  0
 16 17  1  0  0  0  0
 16 28  2  0  0  0  0
 17 18  1  0  0  0  0
 17 40  1  0  0  0  0
 18 19  2  0  0  0  0
 18 20  1  0  0  0  0
 20 21  1  0  0  0  0
 20 41  1  0  0  0  0
 21 22  1  0  0  0  0
 21 26  2  0  0  0  0
 22 23  2  0  0  0  0
 22 42  1  0  0  0  0
 23 24  1  0  0  0  0
 23 43  1  0  0  0  0
 24 25  2  0  0  0  0
 24 44  1  0  0  0  0
 25 26  1  0  0  0  0
 25 45  1  0  0  0  0
 26 27  1  0  0  0  0
 28 29  1  0  0  0  0
 28 30  1  0  0  0  0
 30 46  1  0  0  0  0
M  END
$$$$
