CHEMBL3628537
 OpenBabel04072215363D

 38 41  0  0  0  0  0  0  0  0999 V2000
    9.8013    4.6531    5.5151 C   0  0  0  0  0  0  0  0  0  0  0  0
    9.0589    4.1790    4.3912 O   0  0  0  0  0  0  0  0  0  0  0  0
    8.2730    3.0782    4.6229 C   0  0  0  0  0  0  0  0  0  0  0  0
    8.0932    2.4626    5.8584 C   0  0  0  0  0  0  0  0  0  0  0  0
    7.2872    1.3315    5.9712 C   0  0  0  0  0  0  0  0  0  0  0  0
    6.6589    0.7681    4.8582 C   0  0  0  0  0  0  0  0  0  0  0  0
    5.8731   -0.3763    4.9630 N   0  0  0  0  0  0  0  0  0  0  0  0
    5.2442   -1.0013    6.0385 C   0  0  0  0  0  0  0  0  0  0  0  0
    4.6845   -2.1840    5.7473 N   0  0  0  0  0  0  0  0  0  0  0  0
    3.7925   -2.6760    6.6191 C   0  0  0  0  0  0  0  0  0  0  0  0
    3.4175   -1.9998    7.7482 C   0  0  0  0  0  0  0  0  0  0  0  0
    4.1621   -0.8730    8.0712 C   0  0  0  0  0  0  0  0  0  0  0  0
    5.0876   -0.3767    7.2238 N   0  0  0  0  0  0  0  0  0  0  0  0
    3.7000   -0.0294    9.1824 C   0  0  0  0  0  0  0  0  0  0  0  0
    4.4655    0.2511   10.3177 C   0  0  0  0  0  0  0  0  0  0  0  0
    3.9251    1.0231   11.3564 C   0  0  0  0  0  0  0  0  0  0  0  0
    2.6660    1.6138   11.2209 C   0  0  0  0  0  0  0  0  0  0  0  0
    1.8679    1.2953   10.1279 C   0  0  0  0  0  0  0  0  0  0  0  0
    2.3442    0.3703    9.2005 C   0  0  0  0  0  0  0  0  0  0  0  0
    1.1353   -0.6797    8.3440 S   0  0  0  0  0  0  0  0  0  0  0  0
    2.1365   -2.2412    8.4817 C   0  0  0  0  0  0  0  0  0  0  0  0
    6.8035    1.4250    3.6284 C   0  0  0  0  0  0  0  0  0  0  0  0
    7.6093    2.5685    3.5085 C   0  0  0  0  0  0  0  0  0  0  0  0
   10.3953    5.5071    5.1825 H   0  0  0  0  0  0  0  0  0  0  0  0
   10.4917    3.8863    5.8921 H   0  0  0  0  0  0  0  0  0  0  0  0
    9.1288    4.9960    6.3099 H   0  0  0  0  0  0  0  0  0  0  0  0
    8.5672    2.8234    6.7631 H   0  0  0  0  0  0  0  0  0  0  0  0
    7.1753    0.8734    6.9478 H   0  0  0  0  0  0  0  0  0  0  0  0
    5.7050   -0.9068    4.1154 H   0  0  0  0  0  0  0  0  0  0  0  0
    3.3190   -3.6070    6.3254 H   0  0  0  0  0  0  0  0  0  0  0  0
    5.4490   -0.1970   10.4410 H   0  0  0  0  0  0  0  0  0  0  0  0
    4.4800    1.1569   12.2823 H   0  0  0  0  0  0  0  0  0  0  0  0
    2.2732    2.2579   12.0035 H   0  0  0  0  0  0  0  0  0  0  0  0
    0.8547    1.6811   10.0579 H   0  0  0  0  0  0  0  0  0  0  0  0
    1.5736   -3.0786    8.0681 H   0  0  0  0  0  0  0  0  0  0  0  0
    2.3342   -2.4583    9.5427 H   0  0  0  0  0  0  0  0  0  0  0  0
    6.2837    1.0662    2.7402 H   0  0  0  0  0  0  0  0  0  0  0  0
    7.7205    3.0574    2.5434 H   0  0  0  0  0  0  0  0  0  0  0  0
  1  2  1  0  0  0  0
  1 24  1  0  0  0  0
  1 25  1  0  0  0  0
  1 26  1  0  0  0  0
  2  3  1  0  0  0  0
  3  4  1  0  0  0  0
  3 23  2  0  0  0  0
  4  5  2  0  0  0  0
  4 27  1  0  0  0  0
  5  6  1  0  0  0  0
  5 28  1  0  0  0  0
  6  7  1  0  0  0  0
  6 22  2  0  0  0  0
  7  8  1  0  0  0  0
  7 29  1  0  0  0  0
  8  9  1  0  0  0  0
  8 13  2  0  0  0  0
  9 10  2  0  0  0  0
 10 11  1  0  0  0  0
 10 30  1  0  0  0  0
 11 12  2  0  0  0  0
 11 21  1  0  0  0  0
 12 13  1  0  0  0  0
 12 14  1  0  0  0  0
 14 15  1  0  0  0  0
 14 19  2  0  0  0  0
 15 16  2  0  0  0  0
 15 31  1  0  0  0  0
 16 17  1  0  0  0  0
 16 32  1  0  0  0  0
 17 18  2  0  0  0  0
 17 33  1  0  0  0  0
 18 19  1  0  0  0  0
 18 34  1  0  0  0  0
 19 20  1  0  0  0  0
 20 21  1  0  0  0  0
 21 35  1  0  0  0  0
 21 36  1  0  0  0  0
 22 23  1  0  0  0  0
 22 37  1  0  0  0  0
 23 38  1  0  0  0  0
M  END
$$$$
