CHEMBL4437475
 OpenBabel04072215383D

 45 48  0  0  0  0  0  0  0  0999 V2000
    1.1318   -0.4358    0.1927 O   0  0  0  0  0  0  0  0  0  0  0  0
    2.2831   -0.0387    0.0479 C   0  0  0  0  0  0  0  0  0  0  0  0
    2.8708    1.0413    0.6956 N   0  0  0  0  0  0  0  0  0  0  0  0
    2.2439    1.8251    1.6951 C   0  0  0  0  0  0  0  0  0  0  0  0
    1.0996    1.4046    2.3659 C   0  0  0  0  0  0  0  0  0  0  0  0
    0.4799    2.2227    3.3145 C   0  0  0  0  0  0  0  0  0  0  0  0
    0.9917    3.4807    3.6466 C   0  0  0  0  0  0  0  0  0  0  0  0
    0.4123    4.2738    4.6648 N   0  0  0  0  0  0  0  0  0  0  0  0
   -0.4002    3.8475    5.7446 C   0  0  0  0  0  0  0  0  0  0  0  0
   -0.1084    2.6125    6.3545 C   0  0  0  0  0  0  0  0  0  0  0  0
   -0.9408    2.0819    7.3217 C   0  0  0  0  0  0  0  0  0  0  0  0
   -2.0426    2.8347    7.7351 C   0  0  0  0  0  0  0  0  0  0  0  0
   -2.9730    2.1977    8.6410 N   0  3  0  0  0  0  0  0  0  0  0  0
   -2.5269    1.8207    9.7295 O   0  0  0  0  0  0  0  0  0  0  0  0
   -4.1216    1.9904    8.2192 O   0  5  0  0  0  0  0  0  0  0  0  0
   -2.3254    4.1153    7.2712 C   0  0  0  0  0  0  0  0  0  0  0  0
   -3.3267    4.8421    7.8167 N   0  0  0  0  0  0  0  0  0  0  0  0
   -3.5967    6.0418    7.2971 C   0  0  0  0  0  0  0  0  0  0  0  0
   -2.9901    6.5741    6.2398 N   0  0  0  0  0  0  0  0  0  0  0  0
   -1.9849    5.8393    5.7423 C   0  0  0  0  0  0  0  0  0  0  0  0
   -1.4480    6.4135    4.6318 O   0  0  0  0  0  0  0  0  0  0  0  0
   -1.5283    4.6075    6.2247 C   0  0  0  0  0  0  0  0  0  0  0  0
    2.1580    3.8953    2.9901 C   0  0  0  0  0  0  0  0  0  0  0  0
    2.7864    3.0710    2.0331 C   0  0  0  0  0  0  0  0  0  0  0  0
    3.1125   -0.7434   -0.9645 C   0  0  0  0  0  0  0  0  0  0  0  0
    2.4591   -1.2689   -2.0914 C   0  0  0  0  0  0  0  0  0  0  0  0
    3.1659   -2.0116   -3.0384 C   0  0  0  0  0  0  0  0  0  0  0  0
    4.5273   -2.2395   -2.8537 C   0  0  0  0  0  0  0  0  0  0  0  0
    5.3961   -3.1795   -4.0025 Cl  0  0  0  0  0  0  0  0  0  0  0  0
    5.1857   -1.7263   -1.7336 C   0  0  0  0  0  0  0  0  0  0  0  0
    4.4803   -0.9757   -0.7847 C   0  0  0  0  0  0  0  0  0  0  0  0
    3.7489    1.3870    0.3314 H   0  0  0  0  0  0  0  0  0  0  0  0
    0.6562    0.4301    2.1876 H   0  0  0  0  0  0  0  0  0  0  0  0
   -0.4291    1.8514    3.7778 H   0  0  0  0  0  0  0  0  0  0  0  0
    0.2904    5.2546    4.4038 H   0  0  0  0  0  0  0  0  0  0  0  0
    0.7665    2.0423    6.0447 H   0  0  0  0  0  0  0  0  0  0  0  0
   -0.7425    1.0954    7.7300 H   0  0  0  0  0  0  0  0  0  0  0  0
   -4.3766    6.6209    7.7812 H   0  0  0  0  0  0  0  0  0  0  0  0
   -2.0991    7.1279    4.4897 H   0  0  0  0  0  0  0  0  0  0  0  0
    2.6046    4.8561    3.2334 H   0  0  0  0  0  0  0  0  0  0  0  0
    3.6909    3.4326    1.5510 H   0  0  0  0  0  0  0  0  0  0  0  0
    1.3890   -1.1138   -2.2221 H   0  0  0  0  0  0  0  0  0  0  0  0
    2.6451   -2.4204   -3.9005 H   0  0  0  0  0  0  0  0  0  0  0  0
    6.2435   -1.9294   -1.5854 H   0  0  0  0  0  0  0  0  0  0  0  0
    4.9980   -0.6270    0.1050 H   0  0  0  0  0  0  0  0  0  0  0  0
  1  2  2  0  0  0  0
  2  3  1  0  0  0  0
  2 25  1  0  0  0  0
  3  4  1  0  0  0  0
  3 32  1  0  0  0  0
  4  5  1  0  0  0  0
  4 24  2  0  0  0  0
  5  6  2  0  0  0  0
  5 33  1  0  0  0  0
  6  7  1  0  0  0  0
  6 34  1  0  0  0  0
  7  8  1  0  0  0  0
  7 23  2  0  0  0  0
  8  9  1  0  0  0  0
  8 35  1  0  0  0  0
  9 10  1  0  0  0  0
  9 22  2  0  0  0  0
 10 11  2  0  0  0  0
 10 36  1  0  0  0  0
 11 12  1  0  0  0  0
 11 37  1  0  0  0  0
 12 13  1  0  0  0  0
 12 16  2  0  0  0  0
 13 14  2  0  0  0  0
 13 15  1  0  0  0  0
 16 17  1  0  0  0  0
 16 22  1  0  0  0  0
 17 18  2  0  0  0  0
 18 19  1  0  0  0  0
 18 38  1  0  0  0  0
 19 20  2  0  0  0  0
 20 21  1  0  0  0  0
 20 22  1  0  0  0  0
 21 39  1  0  0  0  0
 23 24  1  0  0  0  0
 23 40  1  0  0  0  0
 24 41  1  0  0  0  0
 25 26  1  0  0  0  0
 25 31  2  0  0  0  0
 26 27  2  0  0  0  0
 26 42  1  0  0  0  0
 27 28  1  0  0  0  0
 27 43  1  0  0  0  0
 28 29  1  0  0  0  0
 28 30  2  0  0  0  0
 30 31  1  0  0  0  0
 30 44  1  0  0  0  0
 31 45  1  0  0  0  0
M  CHG  2  13   1  15  -1
M  END
$$$$
