CHEMBL218425
 OpenBabel04072215363D

 50 53  0  0  0  0  0  0  0  0999 V2000
    2.4426    0.4298   -0.7068 C   0  0  0  0  0  0  0  0  0  0  0  0
    1.0040    0.2352   -0.3116 C   0  0  0  0  0  0  0  0  0  0  0  0
    0.1981    1.3797   -0.1949 C   0  0  0  0  0  0  0  0  0  0  0  0
   -1.1775    1.2730    0.0081 C   0  0  0  0  0  0  0  0  0  0  0  0
   -1.7786    0.0168    0.1090 C   0  0  0  0  0  0  0  0  0  0  0  0
   -3.2657   -0.0482    0.1784 C   0  0  0  0  0  0  0  0  0  0  0  0
   -3.9020    0.8348   -0.3798 O   0  0  0  0  0  0  0  0  0  0  0  0
   -3.7928   -1.0958    0.9197 N   0  0  0  0  0  0  0  0  0  0  0  0
   -5.1671   -1.3450    1.1302 C   0  0  0  0  0  0  0  0  0  0  0  0
   -6.1825   -0.7877    0.3500 C   0  0  0  0  0  0  0  0  0  0  0  0
   -7.5258   -1.0382    0.6418 C   0  0  0  0  0  0  0  0  0  0  0  0
   -7.8687   -1.8446    1.7225 C   0  0  0  0  0  0  0  0  0  0  0  0
   -6.8695   -2.4293    2.5112 C   0  0  0  0  0  0  0  0  0  0  0  0
   -7.2224   -3.2721    3.7107 C   0  0  0  0  0  0  0  0  0  0  0  0
   -8.5615   -3.3574    3.9462 F   0  0  0  0  0  0  0  0  0  0  0  0
   -6.7806   -4.5550    3.5971 F   0  0  0  0  0  0  0  0  0  0  0  0
   -6.6739   -2.7902    4.8613 F   0  0  0  0  0  0  0  0  0  0  0  0
   -5.5194   -2.1952    2.1874 C   0  0  0  0  0  0  0  0  0  0  0  0
   -0.9806   -1.1286    0.0664 C   0  0  0  0  0  0  0  0  0  0  0  0
    0.4077   -1.0239   -0.1011 C   0  0  0  0  0  0  0  0  0  0  0  0
    1.0553   -2.2381   -0.1929 O   0  0  0  0  0  0  0  0  0  0  0  0
    2.2346   -2.4527    0.5123 C   0  0  0  0  0  0  0  0  0  0  0  0
    2.5232   -1.6144    1.5435 N   0  0  0  0  0  0  0  0  0  0  0  0
    3.7132   -1.7672    2.1556 C   0  0  0  0  0  0  0  0  0  0  0  0
    4.6081   -2.7650    1.8345 C   0  0  0  0  0  0  0  0  0  0  0  0
    4.2553   -3.6600    0.8269 C   0  0  0  0  0  0  0  0  0  0  0  0
    3.0461   -3.5268    0.1150 C   0  0  0  0  0  0  0  0  0  0  0  0
    2.7247   -4.4840   -0.9695 C   0  0  0  0  0  0  0  0  0  0  0  0
    2.0000   -4.1639   -2.1050 C   0  0  0  0  0  0  0  0  0  0  0  0
    1.8265   -5.1611   -3.0397 C   0  0  0  0  0  0  0  0  0  0  0  0
    2.3218   -6.4007   -2.9049 N   0  0  0  0  0  0  0  0  0  0  0  0
    3.0115   -6.6221   -1.7808 C   0  0  0  0  0  0  0  0  0  0  0  0
    3.2406   -5.7277   -0.8064 N   0  0  0  0  0  0  0  0  0  0  0  0
    2.6228    1.4587   -1.0399 H   0  0  0  0  0  0  0  0  0  0  0  0
    2.7006   -0.2241   -1.5452 H   0  0  0  0  0  0  0  0  0  0  0  0
    3.1258    0.2589    0.1248 H   0  0  0  0  0  0  0  0  0  0  0  0
    0.6364    2.3723   -0.3011 H   0  0  0  0  0  0  0  0  0  0  0  0
   -1.7835    2.1768    0.0520 H   0  0  0  0  0  0  0  0  0  0  0  0
   -3.1462   -1.6244    1.4880 H   0  0  0  0  0  0  0  0  0  0  0  0
   -5.9585   -0.1532   -0.5033 H   0  0  0  0  0  0  0  0  0  0  0  0
   -8.3021   -0.5876    0.0274 H   0  0  0  0  0  0  0  0  0  0  0  0
   -8.9218   -2.0069    1.9534 H   0  0  0  0  0  0  0  0  0  0  0  0
   -4.7456   -2.6511    2.8032 H   0  0  0  0  0  0  0  0  0  0  0  0
   -1.4299   -2.1197    0.1059 H   0  0  0  0  0  0  0  0  0  0  0  0
    3.9419   -1.0289    2.9190 H   0  0  0  0  0  0  0  0  0  0  0  0
    5.5575   -2.8502    2.3514 H   0  0  0  0  0  0  0  0  0  0  0  0
    4.9461   -4.4652    0.5797 H   0  0  0  0  0  0  0  0  0  0  0  0
    1.5931   -3.1808   -2.2943 H   0  0  0  0  0  0  0  0  0  0  0  0
    1.2737   -4.9766   -3.9565 H   0  0  0  0  0  0  0  0  0  0  0  0
    3.4287   -7.6140   -1.6468 H   0  0  0  0  0  0  0  0  0  0  0  0
  1  2  1  0  0  0  0
  1 34  1  0  0  0  0
  1 35  1  0  0  0  0
  1 36  1  0  0  0  0
  2  3  1  0  0  0  0
  2 20  2  0  0  0  0
  3  4  2  0  0  0  0
  3 37  1  0  0  0  0
  4  5  1  0  0  0  0
  4 38  1  0  0  0  0
  5  6  1  0  0  0  0
  5 19  2  0  0  0  0
  6  7  2  0  0  0  0
  6  8  1  0  0  0  0
  8  9  1  0  0  0  0
  8 39  1  0  0  0  0
  9 10  1  0  0  0  0
  9 18  2  0  0  0  0
 10 11  2  0  0  0  0
 10 40  1  0  0  0  0
 11 12  1  0  0  0  0
 11 41  1  0  0  0  0
 12 13  2  0  0  0  0
 12 42  1  0  0  0  0
 13 14  1  0  0  0  0
 13 18  1  0  0  0  0
 14 15  1  0  0  0  0
 14 16  1  0  0  0  0
 14 17  1  0  0  0  0
 18 43  1  0  0  0  0
 19 20  1  0  0  0  0
 19 44  1  0  0  0  0
 20 21  1  0  0  0  0
 21 22  1  0  0  0  0
 22 23  1  0  0  0  0
 22 27  2  0  0  0  0
 23 24  2  0  0  0  0
 24 25  1  0  0  0  0
 24 45  1  0  0  0  0
 25 26  2  0  0  0  0
 25 46  1  0  0  0  0
 26 27  1  0  0  0  0
 26 47  1  0  0  0  0
 27 28  1  0  0  0  0
 28 29  1  0  0  0  0
 28 33  2  0  0  0  0
 29 30  2  0  0  0  0
 29 48  1  0  0  0  0
 30 31  1  0  0  0  0
 30 49  1  0  0  0  0
 31 32  2  0  0  0  0
 32 33  1  0  0  0  0
 32 50  1  0  0  0  0
M  END
$$$$
