CHEMBL426887
 OpenBabel04072215383D

 46 49  0  0  0  0  0  0  0  0999 V2000
   -1.0818    2.1026   -3.1786 N   0  0  0  0  0  0  0  0  0  0  0  0
   -1.3604    0.9908   -2.4819 C   0  0  0  0  0  0  0  0  0  0  0  0
   -1.7488   -0.1066   -3.1254 N   0  0  0  0  0  0  0  0  0  0  0  0
   -1.9402   -0.9947   -2.1505 N   0  0  0  0  0  0  0  0  0  0  0  0
   -1.6829   -0.5241   -0.8939 C   0  0  0  0  0  0  0  0  0  0  0  0
   -1.7723   -1.1727    0.3405 C   0  0  0  0  0  0  0  0  0  0  0  0
   -1.4253   -0.4425    1.4706 C   0  0  0  0  0  0  0  0  0  0  0  0
   -1.0098    0.8832    1.3606 C   0  0  0  0  0  0  0  0  0  0  0  0
   -0.9248    1.5531    0.1139 C   0  0  0  0  0  0  0  0  0  0  0  0
   -0.4634    2.9536    0.0554 C   0  0  0  0  0  0  0  0  0  0  0  0
    0.4509    3.3679   -0.9139 C   0  0  0  0  0  0  0  0  0  0  0  0
    0.8204    4.7066   -1.0481 C   0  0  0  0  0  0  0  0  0  0  0  0
    0.3749    5.6745   -0.1557 C   0  0  0  0  0  0  0  0  0  0  0  0
    0.7295    7.0424   -0.2569 N   0  0  0  0  0  0  0  0  0  0  0  0
    1.4407    7.6038   -1.2967 C   0  0  0  0  0  0  0  0  0  0  0  0
    1.8967    7.0117   -2.2646 O   0  0  0  0  0  0  0  0  0  0  0  0
    1.5719    8.9693   -1.1797 N   0  0  0  0  0  0  0  0  0  0  0  0
    2.2563    9.6732   -2.2530 C   0  0  0  0  0  0  0  0  0  0  0  0
    2.3901   11.1709   -1.9966 C   0  0  0  0  0  0  0  0  0  0  0  0
    2.5197   11.8115   -3.3779 C   0  0  0  0  0  0  0  0  0  0  0  0
    2.0731   10.7647   -4.3930 C   0  0  0  0  0  0  0  0  0  0  0  0
    1.4875    9.6256   -3.5788 C   0  0  0  0  0  0  0  0  0  0  0  0
   -0.4629    5.2703    0.8889 C   0  0  0  0  0  0  0  0  0  0  0  0
   -0.8855    3.9296    0.9773 C   0  0  0  0  0  0  0  0  0  0  0  0
   -1.2805    0.8060   -1.0560 C   0  0  0  0  0  0  0  0  0  0  0  0
   -1.2951    2.0845   -4.1692 H   0  0  0  0  0  0  0  0  0  0  0  0
   -1.1532    3.0212   -2.7596 H   0  0  0  0  0  0  0  0  0  0  0  0
   -2.2487   -1.9252   -2.4084 H   0  0  0  0  0  0  0  0  0  0  0  0
   -2.0893   -2.2079    0.4187 H   0  0  0  0  0  0  0  0  0  0  0  0
   -1.4693   -0.9136    2.4502 H   0  0  0  0  0  0  0  0  0  0  0  0
   -0.7221    1.4038    2.2727 H   0  0  0  0  0  0  0  0  0  0  0  0
    0.8761    2.6528   -1.6167 H   0  0  0  0  0  0  0  0  0  0  0  0
    1.4676    4.9389   -1.8888 H   0  0  0  0  0  0  0  0  0  0  0  0
    0.3260    7.6811    0.4068 H   0  0  0  0  0  0  0  0  0  0  0  0
    1.7554    9.2914   -0.2398 H   0  0  0  0  0  0  0  0  0  0  0  0
    3.2515    9.2319   -2.3823 H   0  0  0  0  0  0  0  0  0  0  0  0
    3.2537   11.3964   -1.3624 H   0  0  0  0  0  0  0  0  0  0  0  0
    1.5012   11.5621   -1.4877 H   0  0  0  0  0  0  0  0  0  0  0  0
    3.5547   12.1101   -3.5778 H   0  0  0  0  0  0  0  0  0  0  0  0
    1.9016   12.7129   -3.4421 H   0  0  0  0  0  0  0  0  0  0  0  0
    2.9372   10.4100   -4.9677 H   0  0  0  0  0  0  0  0  0  0  0  0
    1.3457   11.1635   -5.1067 H   0  0  0  0  0  0  0  0  0  0  0  0
    1.5986    8.6705   -4.1018 H   0  0  0  0  0  0  0  0  0  0  0  0
    0.4161    9.7864   -3.4112 H   0  0  0  0  0  0  0  0  0  0  0  0
   -0.8146    5.9797    1.6297 H   0  0  0  0  0  0  0  0  0  0  0  0
   -1.5641    3.6590    1.7871 H   0  0  0  0  0  0  0  0  0  0  0  0
  1  2  1  0  0  0  0
  1 26  1  0  0  0  0
  1 27  1  0  0  0  0
  2  3  2  0  0  0  0
  2 25  1  0  0  0  0
  3  4  1  0  0  0  0
  4  5  1  0  0  0  0
  4 28  1  0  0  0  0
  5  6  1  0  0  0  0
  5 25  2  0  0  0  0
  6  7  2  0  0  0  0
  6 29  1  0  0  0  0
  7  8  1  0  0  0  0
  7 30  1  0  0  0  0
  8  9  2  0  0  0  0
  8 31  1  0  0  0  0
  9 10  1  0  0  0  0
  9 25  1  0  0  0  0
 10 11  1  0  0  0  0
 10 24  2  0  0  0  0
 11 12  2  0  0  0  0
 11 32  1  0  0  0  0
 12 13  1  0  0  0  0
 12 33  1  0  0  0  0
 13 14  1  0  0  0  0
 13 23  2  0  0  0  0
 14 15  1  0  0  0  0
 14 34  1  0  0  0  0
 15 16  2  0  0  0  0
 15 17  1  0  0  0  0
 17 18  1  0  0  0  0
 17 35  1  0  0  0  0
 18 19  1  0  0  0  0
 18 22  1  0  0  0  0
 18 36  1  0  0  0  0
 19 20  1  0  0  0  0
 19 37  1  0  0  0  0
 19 38  1  0  0  0  0
 20 21  1  0  0  0  0
 20 39  1  0  0  0  0
 20 40  1  0  0  0  0
 21 22  1  0  0  0  0
 21 41  1  0  0  0  0
 21 42  1  0  0  0  0
 22 43  1  0  0  0  0
 22 44  1  0  0  0  0
 23 24  1  0  0  0  0
 23 45  1  0  0  0  0
 24 46  1  0  0  0  0
M  END
$$$$
