CHEMBL4473548
 OpenBabel04072215383D

 67 72  0  0  1  0  0  0  0  0999 V2000
    3.1446    0.4113    0.9784 C   0  0  0  0  0  0  0  0  0  0  0  0
    2.3207   -0.4927    0.0679 C   0  0  2  0  0  0  0  0  0  0  0  0
    2.1141   -1.9033    0.6887 C   0  0  0  0  0  0  0  0  0  0  0  0
    2.2706   -2.8859   -0.3932 N   0  0  0  0  0  0  0  0  0  0  0  0
    2.0168   -4.2537   -0.3462 C   0  0  0  0  0  0  0  0  0  0  0  0
    2.2594   -5.0148   -1.2844 O   0  0  0  0  0  0  0  0  0  0  0  0
    1.4072   -4.8378    0.9381 C   0  0  0  0  0  0  0  0  0  0  0  0
    1.0667   -6.3333    0.7130 C   0  0  0  0  0  0  0  0  0  0  0  0
    0.4675   -7.1468    1.8670 C   0  0  0  0  0  0  0  0  0  0  0  0
   -0.8783   -6.6541    2.3902 C   0  0  0  0  0  0  0  0  0  0  0  0
   -1.2448   -5.4995    2.1693 O   0  0  0  0  0  0  0  0  0  0  0  0
   -1.6314   -7.5084    3.1802 N   0  0  0  0  0  0  0  0  0  0  0  0
   -2.9495   -7.0709    3.6770 C   0  0  0  0  0  0  0  0  0  0  0  0
   -3.9532   -7.9012    2.8594 C   0  0  1  0  0  0  0  0  0  0  0  0
   -4.1493   -7.2099    1.4986 C   0  0  0  0  0  0  0  0  0  0  0  0
   -3.1598   -9.2052    2.8776 C   0  0  0  0  0  0  0  0  0  0  0  0
   -1.7854   -8.8992    2.9750 C   0  0  0  0  0  0  0  0  0  0  0  0
   -0.8165   -9.8669    3.1714 C   0  0  0  0  0  0  0  0  0  0  0  0
   -1.2571  -11.1720    3.3557 C   0  0  0  0  0  0  0  0  0  0  0  0
   -0.3368  -12.1537    3.6485 O   0  0  0  0  0  0  0  0  0  0  0  0
   -2.6361  -11.5180    3.3569 C   0  0  0  0  0  0  0  0  0  0  0  0
   -3.0694  -12.8119    3.7168 C   0  0  0  0  0  0  0  0  0  0  0  0
   -4.4196  -13.1310    3.7999 C   0  0  0  0  0  0  0  0  0  0  0  0
   -5.3743  -12.1783    3.4646 C   0  0  0  0  0  0  0  0  0  0  0  0
   -4.9771  -10.8830    3.1001 C   0  0  0  0  0  0  0  0  0  0  0  0
   -3.6181  -10.5214    3.0700 C   0  0  0  0  0  0  0  0  0  0  0  0
    2.8019   -2.2009   -1.5166 C   0  0  0  0  0  0  0  0  0  0  0  0
    3.1683   -2.7559   -2.7312 C   0  0  0  0  0  0  0  0  0  0  0  0
    3.6252   -1.9196   -3.7403 C   0  0  0  0  0  0  0  0  0  0  0  0
    3.9674   -2.4786   -4.9521 O   0  0  0  0  0  0  0  0  0  0  0  0
    3.7379   -0.5276   -3.5584 C   0  0  0  0  0  0  0  0  0  0  0  0
    4.1796    0.3002   -4.6198 C   0  0  0  0  0  0  0  0  0  0  0  0
    4.2940    1.6752   -4.4704 C   0  0  0  0  0  0  0  0  0  0  0  0
    3.9601    2.2574   -3.2538 C   0  0  0  0  0  0  0  0  0  0  0  0
    3.5049    1.4600   -2.1988 C   0  0  0  0  0  0  0  0  0  0  0  0
    3.3767    0.0525   -2.3172 C   0  0  0  0  0  0  0  0  0  0  0  0
    2.9044   -0.8186   -1.2937 C   0  0  0  0  0  0  0  0  0  0  0  0
    2.8040    0.3397    2.0171 H   0  0  0  0  0  0  0  0  0  0  0  0
    3.0326    1.4634    0.7005 H   0  0  0  0  0  0  0  0  0  0  0  0
    4.2118    0.1708    0.9434 H   0  0  0  0  0  0  0  0  0  0  0  0
    1.3341   -0.0385   -0.0916 H   0  0  0  0  0  0  0  0  0  0  0  0
    1.1244   -1.9964    1.1484 H   0  0  0  0  0  0  0  0  0  0  0  0
    2.8668   -2.1329    1.4535 H   0  0  0  0  0  0  0  0  0  0  0  0
    0.5066   -4.2684    1.1734 H   0  0  0  0  0  0  0  0  0  0  0  0
    2.1268   -4.7342    1.7551 H   0  0  0  0  0  0  0  0  0  0  0  0
    1.9943   -6.8483    0.4213 H   0  0  0  0  0  0  0  0  0  0  0  0
    0.3944   -6.4157   -0.1511 H   0  0  0  0  0  0  0  0  0  0  0  0
    1.1641   -7.1826    2.7100 H   0  0  0  0  0  0  0  0  0  0  0  0
    0.3484   -8.1658    1.4809 H   0  0  0  0  0  0  0  0  0  0  0  0
   -3.0982   -5.9899    3.6286 H   0  0  0  0  0  0  0  0  0  0  0  0
   -3.0025   -7.3668    4.7366 H   0  0  0  0  0  0  0  0  0  0  0  0
   -4.9065   -7.9779    3.3898 H   0  0  0  0  0  0  0  0  0  0  0  0
   -3.9069   -6.1386    1.5597 H   0  0  0  0  0  0  0  0  0  0  0  0
   -5.1985   -7.2503    1.1899 H   0  0  0  0  0  0  0  0  0  0  0  0
   -3.5392   -7.6377    0.6978 H   0  0  0  0  0  0  0  0  0  0  0  0
    0.2192   -9.6016    3.3161 H   0  0  0  0  0  0  0  0  0  0  0  0
    0.5550  -11.7721    3.6110 H   0  0  0  0  0  0  0  0  0  0  0  0
   -2.3356  -13.5720    3.9899 H   0  0  0  0  0  0  0  0  0  0  0  0
   -4.7235  -14.1209    4.1365 H   0  0  0  0  0  0  0  0  0  0  0  0
   -6.4305  -12.4252    3.5353 H   0  0  0  0  0  0  0  0  0  0  0  0
   -5.7510  -10.1603    2.8567 H   0  0  0  0  0  0  0  0  0  0  0  0
    3.0961   -3.8185   -2.9136 H   0  0  0  0  0  0  0  0  0  0  0  0
    3.7902   -3.4370   -4.9109 H   0  0  0  0  0  0  0  0  0  0  0  0
    4.4391   -0.1414   -5.5804 H   0  0  0  0  0  0  0  0  0  0  0  0
    4.6387    2.2888   -5.2976 H   0  0  0  0  0  0  0  0  0  0  0  0
    4.0545    3.3341   -3.1295 H   0  0  0  0  0  0  0  0  0  0  0  0
    3.2544    1.9701   -1.2797 H   0  0  0  0  0  0  0  0  0  0  0  0
  1 38  1  0  0  0  0
  1 39  1  0  0  0  0
  1 40  1  0  0  0  0
  2  3  1  0  0  0  0
  2 37  1  0  0  0  0
  2  1  1  0  0  0  0
  2 41  1  6  0  0  0
  3  4  1  0  0  0  0
  3 42  1  0  0  0  0
  3 43  1  0  0  0  0
  4  5  1  0  0  0  0
  4 27  1  0  0  0  0
  5  6  2  0  0  0  0
  5  7  1  0  0  0  0
  7  8  1  0  0  0  0
  7 44  1  0  0  0  0
  7 45  1  0  0  0  0
  8  9  1  0  0  0  0
  8 46  1  0  0  0  0
  8 47  1  0  0  0  0
  9 10  1  0  0  0  0
  9 48  1  0  0  0  0
  9 49  1  0  0  0  0
 10 11  2  0  0  0  0
 10 12  1  0  0  0  0
 12 13  1  0  0  0  0
 12 17  1  0  0  0  0
 13 14  1  0  0  0  0
 13 50  1  0  0  0  0
 13 51  1  0  0  0  0
 14 15  1  0  0  0  0
 14 16  1  0  0  0  0
 14 52  1  1  0  0  0
 15 53  1  0  0  0  0
 15 54  1  0  0  0  0
 15 55  1  0  0  0  0
 16 17  1  0  0  0  0
 16 26  2  0  0  0  0
 17 18  2  0  0  0  0
 18 19  1  0  0  0  0
 18 56  1  0  0  0  0
 19 20  1  0  0  0  0
 19 21  2  0  0  0  0
 20 57  1  0  0  0  0
 21 22  1  0  0  0  0
 21 26  1  0  0  0  0
 22 23  2  0  0  0  0
 22 58  1  0  0  0  0
 23 24  1  0  0  0  0
 23 59  1  0  0  0  0
 24 25  2  0  0  0  0
 24 60  1  0  0  0  0
 25 26  1  0  0  0  0
 25 61  1  0  0  0  0
 27 28  1  0  0  0  0
 27 37  2  0  0  0  0
 28 29  2  0  0  0  0
 28 62  1  0  0  0  0
 29 30  1  0  0  0  0
 29 31  1  0  0  0  0
 30 63  1  0  0  0  0
 31 32  1  0  0  0  0
 31 36  2  0  0  0  0
 32 33  2  0  0  0  0
 32 64  1  0  0  0  0
 33 34  1  0  0  0  0
 33 65  1  0  0  0  0
 34 35  2  0  0  0  0
 34 66  1  0  0  0  0
 35 36  1  0  0  0  0
 35 67  1  0  0  0  0
 36 37  1  0  0  0  0
M  END
$$$$
