CHEMBL193609
 OpenBabel04072215363D

 50 53  0  0  0  0  0  0  0  0999 V2000
    8.0738   -0.4041   -3.8181 C   0  0  0  0  0  0  0  0  0  0  0  0
    7.8035   -0.4069   -2.3257 C   0  0  0  0  0  0  0  0  0  0  0  0
    6.4476    0.6715   -1.9150 S   0  0  0  0  0  0  0  0  0  0  0  0
    6.7942    2.0267   -2.3096 O   0  0  0  0  0  0  0  0  0  0  0  0
    5.2213    0.0574   -2.3844 O   0  0  0  0  0  0  0  0  0  0  0  0
    6.4067    0.6351   -0.1405 C   0  0  0  0  0  0  0  0  0  0  0  0
    5.5572   -0.2417    0.5306 C   0  0  0  0  0  0  0  0  0  0  0  0
    5.4644   -0.1794    1.9248 C   0  0  0  0  0  0  0  0  0  0  0  0
    6.2107    0.7629    2.6461 C   0  0  0  0  0  0  0  0  0  0  0  0
    6.1447    0.9223    4.0089 O   0  0  0  0  0  0  0  0  0  0  0  0
    5.6537   -0.1842    4.7584 C   0  0  0  0  0  0  0  0  0  0  0  0
    7.0838    1.6365    1.9626 C   0  0  0  0  0  0  0  0  0  0  0  0
    7.8699    2.5669    2.6739 N   0  0  0  0  0  0  0  0  0  0  0  0
    9.1217    2.9080    2.3300 C   0  0  0  0  0  0  0  0  0  0  0  0
   10.0120    2.2316    1.6332 N   0  0  0  0  0  0  0  0  0  0  0  0
   11.1056    3.0530    1.6040 C   0  0  0  0  0  0  0  0  0  0  0  0
   10.8356    4.2310    2.2640 C   0  0  0  0  0  0  0  0  0  0  0  0
   11.5697    5.4584    2.5360 C   0  0  0  0  0  0  0  0  0  0  0  0
   10.9646    6.5321    3.2005 C   0  0  0  0  0  0  0  0  0  0  0  0
   11.6802    7.6984    3.4668 C   0  0  0  0  0  0  0  0  0  0  0  0
   13.0179    7.7988    3.0854 C   0  0  0  0  0  0  0  0  0  0  0  0
   13.6631    6.7378    2.4339 C   0  0  0  0  0  0  0  0  0  0  0  0
   15.1076    6.8209    2.1519 C   0  0  0  0  0  0  0  0  0  0  0  0
   16.0877    7.4407    2.9101 C   0  0  0  0  0  0  0  0  0  0  0  0
   17.3964    7.2780    2.3732 C   0  0  0  0  0  0  0  0  0  0  0  0
   17.3820    6.5537    1.2046 C   0  0  0  0  0  0  0  0  0  0  0  0
   15.7979    6.0955    0.7546 S   0  0  0  0  0  0  0  0  0  0  0  0
   12.9163    5.5816    2.1477 C   0  0  0  0  0  0  0  0  0  0  0  0
    9.5573    4.1301    2.7567 O   0  0  0  0  0  0  0  0  0  0  0  0
    7.1706    1.5603    0.5645 C   0  0  0  0  0  0  0  0  0  0  0  0
    8.8896   -1.0917   -4.0609 H   0  0  0  0  0  0  0  0  0  0  0  0
    8.3579    0.5953   -4.1634 H   0  0  0  0  0  0  0  0  0  0  0  0
    7.1873   -0.7102   -4.3826 H   0  0  0  0  0  0  0  0  0  0  0  0
    8.6872   -0.0630   -1.7818 H   0  0  0  0  0  0  0  0  0  0  0  0
    7.5386   -1.4133   -1.9875 H   0  0  0  0  0  0  0  0  0  0  0  0
    4.9471   -0.9560   -0.0179 H   0  0  0  0  0  0  0  0  0  0  0  0
    4.7816   -0.8626    2.4182 H   0  0  0  0  0  0  0  0  0  0  0  0
    5.7583    0.0583    5.8205 H   0  0  0  0  0  0  0  0  0  0  0  0
    6.2420   -1.0865    4.5614 H   0  0  0  0  0  0  0  0  0  0  0  0
    4.5900   -0.3561    4.5665 H   0  0  0  0  0  0  0  0  0  0  0  0
    7.3354    3.1748    3.2808 H   0  0  0  0  0  0  0  0  0  0  0  0
   12.0180    2.7557    1.1067 H   0  0  0  0  0  0  0  0  0  0  0  0
    9.9276    6.4689    3.5236 H   0  0  0  0  0  0  0  0  0  0  0  0
   11.1993    8.5234    3.9860 H   0  0  0  0  0  0  0  0  0  0  0  0
   13.5556    8.7168    3.3121 H   0  0  0  0  0  0  0  0  0  0  0  0
   15.8795    7.9655    3.8347 H   0  0  0  0  0  0  0  0  0  0  0  0
   18.2997    7.6647    2.8288 H   0  0  0  0  0  0  0  0  0  0  0  0
   18.2270    6.2728    0.5908 H   0  0  0  0  0  0  0  0  0  0  0  0
   13.4023    4.7484    1.6452 H   0  0  0  0  0  0  0  0  0  0  0  0
    7.8080    2.2593    0.0258 H   0  0  0  0  0  0  0  0  0  0  0  0
  1  2  1  0  0  0  0
  1 31  1  0  0  0  0
  1 32  1  0  0  0  0
  1 33  1  0  0  0  0
  2  3  1  0  0  0  0
  2 34  1  0  0  0  0
  2 35  1  0  0  0  0
  3  4  2  0  0  0  0
  3  5  2  0  0  0  0
  3  6  1  0  0  0  0
  6  7  1  0  0  0  0
  6 30  2  0  0  0  0
  7  8  2  0  0  0  0
  7 36  1  0  0  0  0
  8  9  1  0  0  0  0
  8 37  1  0  0  0  0
  9 10  1  0  0  0  0
  9 12  2  0  0  0  0
 10 11  1  0  0  0  0
 11 38  1  0  0  0  0
 11 39  1  0  0  0  0
 11 40  1  0  0  0  0
 12 13  1  0  0  0  0
 12 30  1  0  0  0  0
 13 14  1  0  0  0  0
 13 41  1  0  0  0  0
 14 15  2  0  0  0  0
 14 29  1  0  0  0  0
 15 16  1  0  0  0  0
 16 17  2  0  0  0  0
 16 42  1  0  0  0  0
 17 18  1  0  0  0  0
 17 29  1  0  0  0  0
 18 19  1  0  0  0  0
 18 28  2  0  0  0  0
 19 20  2  0  0  0  0
 19 43  1  0  0  0  0
 20 21  1  0  0  0  0
 20 44  1  0  0  0  0
 21 22  2  0  0  0  0
 21 45  1  0  0  0  0
 22 23  1  0  0  0  0
 22 28  1  0  0  0  0
 23 24  2  0  0  0  0
 23 27  1  0  0  0  0
 24 25  1  0  0  0  0
 24 46  1  0  0  0  0
 25 26  2  0  0  0  0
 25 47  1  0  0  0  0
 26 27  1  0  0  0  0
 26 48  1  0  0  0  0
 28 49  1  0  0  0  0
 30 50  1  0  0  0  0
M  END
$$$$
