CHEMBL176705
 OpenBabel04072215363D

 40 43  0  0  0  0  0  0  0  0999 V2000
    2.0141    0.1123   -1.1504 C   0  0  0  0  0  0  0  0  0  0  0  0
    3.0564   -0.4277   -0.3454 O   0  0  0  0  0  0  0  0  0  0  0  0
    3.5053    0.3507    0.6849 C   0  0  0  0  0  0  0  0  0  0  0  0
    2.9529    1.5616    1.0931 C   0  0  0  0  0  0  0  0  0  0  0  0
    3.5145    2.2643    2.1640 C   0  0  0  0  0  0  0  0  0  0  0  0
    4.6879    1.8194    2.7848 C   0  0  0  0  0  0  0  0  0  0  0  0
    5.3523    2.6631    3.7741 C   0  0  0  0  0  0  0  0  0  0  0  0
    5.9278    2.1583    4.9263 C   0  0  0  0  0  0  0  0  0  0  0  0
    6.3988    3.2037    5.7040 N   0  0  0  0  0  0  0  0  0  0  0  0
    7.0413    3.0640    6.9752 C   0  0  0  0  0  0  0  0  0  0  0  0
    7.7356    1.8881    7.2942 C   0  0  0  0  0  0  0  0  0  0  0  0
    8.4000    1.7745    8.5201 C   0  0  0  0  0  0  0  0  0  0  0  0
    8.3557    2.8178    9.4435 C   0  0  0  0  0  0  0  0  0  0  0  0
    7.6484    3.9782    9.1434 C   0  0  0  0  0  0  0  0  0  0  0  0
    6.9997    4.1058    7.9135 C   0  0  0  0  0  0  0  0  0  0  0  0
    6.1520    4.3889    5.0162 C   0  0  0  0  0  0  0  0  0  0  0  0
    6.4993    5.6261    5.4292 N   0  0  0  0  0  0  0  0  0  0  0  0
    6.1945    6.5762    4.5454 C   0  0  0  0  0  0  0  0  0  0  0  0
    5.6257    6.4208    3.3451 N   0  0  0  0  0  0  0  0  0  0  0  0
    5.3187    5.1760    2.9316 C   0  0  0  0  0  0  0  0  0  0  0  0
    4.8073    5.1038    1.6582 N   0  0  0  0  0  0  0  0  0  0  0  0
    5.5555    4.0844    3.7930 C   0  0  0  0  0  0  0  0  0  0  0  0
    5.2082    0.5766    2.4079 C   0  0  0  0  0  0  0  0  0  0  0  0
    4.6119   -0.1543    1.3733 C   0  0  0  0  0  0  0  0  0  0  0  0
    1.7254   -0.6497   -1.8804 H   0  0  0  0  0  0  0  0  0  0  0  0
    2.3623    0.9931   -1.7014 H   0  0  0  0  0  0  0  0  0  0  0  0
    1.1258    0.3454   -0.5545 H   0  0  0  0  0  0  0  0  0  0  0  0
    2.0881    1.9945    0.6009 H   0  0  0  0  0  0  0  0  0  0  0  0
    3.0345    3.1866    2.4881 H   0  0  0  0  0  0  0  0  0  0  0  0
    5.9784    1.1402    5.2905 H   0  0  0  0  0  0  0  0  0  0  0  0
    7.8240    1.0667    6.5890 H   0  0  0  0  0  0  0  0  0  0  0  0
    8.9660    0.8756    8.7510 H   0  0  0  0  0  0  0  0  0  0  0  0
    8.8731    2.7290   10.3956 H   0  0  0  0  0  0  0  0  0  0  0  0
    7.6006    4.7899    9.8656 H   0  0  0  0  0  0  0  0  0  0  0  0
    6.4394    5.0189    7.7295 H   0  0  0  0  0  0  0  0  0  0  0  0
    6.4454    7.5928    4.8277 H   0  0  0  0  0  0  0  0  0  0  0  0
    4.5543    5.9835    1.2367 H   0  0  0  0  0  0  0  0  0  0  0  0
    4.5370    4.2330    1.2330 H   0  0  0  0  0  0  0  0  0  0  0  0
    6.0903    0.1676    2.8951 H   0  0  0  0  0  0  0  0  0  0  0  0
    5.0289   -1.1166    1.0846 H   0  0  0  0  0  0  0  0  0  0  0  0
  1  2  1  0  0  0  0
  1 25  1  0  0  0  0
  1 26  1  0  0  0  0
  1 27  1  0  0  0  0
  2  3  1  0  0  0  0
  3  4  1  0  0  0  0
  3 24  2  0  0  0  0
  4  5  2  0  0  0  0
  4 28  1  0  0  0  0
  5  6  1  0  0  0  0
  5 29  1  0  0  0  0
  6  7  1  0  0  0  0
  6 23  2  0  0  0  0
  7  8  2  0  0  0  0
  7 22  1  0  0  0  0
  8  9  1  0  0  0  0
  8 30  1  0  0  0  0
  9 10  1  0  0  0  0
  9 16  1  0  0  0  0
 10 11  1  0  0  0  0
 10 15  2  0  0  0  0
 11 12  2  0  0  0  0
 11 31  1  0  0  0  0
 12 13  1  0  0  0  0
 12 32  1  0  0  0  0
 13 14  2  0  0  0  0
 13 33  1  0  0  0  0
 14 15  1  0  0  0  0
 14 34  1  0  0  0  0
 15 35  1  0  0  0  0
 16 17  1  0  0  0  0
 16 22  2  0  0  0  0
 17 18  2  0  0  0  0
 18 19  1  0  0  0  0
 18 36  1  0  0  0  0
 19 20  2  0  0  0  0
 20 21  1  0  0  0  0
 20 22  1  0  0  0  0
 21 37  1  0  0  0  0
 21 38  1  0  0  0  0
 23 24  1  0  0  0  0
 23 39  1  0  0  0  0
 24 40  1  0  0  0  0
M  END
$$$$
