CHEMBL3978617
 OpenBabel04072215373D

 53 56  0  0  0  0  0  0  0  0999 V2000
    1.0305    0.8966   -4.1784 C   0  0  0  0  0  0  0  0  0  0  0  0
    1.7712   -0.3295   -4.1795 O   0  0  0  0  0  0  0  0  0  0  0  0
    2.6520   -0.5065   -3.1333 C   0  0  0  0  0  0  0  0  0  0  0  0
    2.4761    0.1570   -1.9269 C   0  0  0  0  0  0  0  0  0  0  0  0
    3.4576    0.1081   -0.9471 C   0  0  0  0  0  0  0  0  0  0  0  0
    3.2059    0.9860    0.0779 O   0  0  0  0  0  0  0  0  0  0  0  0
    3.4107    0.5037    1.4008 C   0  0  0  0  0  0  0  0  0  0  0  0
    4.6325   -0.6485   -1.1613 C   0  0  0  0  0  0  0  0  0  0  0  0
    5.9971   -0.2719   -0.1434 Cl  0  0  0  0  0  0  0  0  0  0  0  0
    4.7854   -1.5149   -2.2975 C   0  0  0  0  0  0  0  0  0  0  0  0
    5.9036   -2.4261   -2.4276 N   0  0  0  0  0  0  0  0  0  0  0  0
    6.3624   -3.1561   -1.2048 C   0  0  0  0  0  0  0  0  0  0  0  0
    7.8709   -2.9514   -0.9133 C   0  0  0  0  0  0  0  0  0  0  0  0
    8.2559   -3.6728    0.2554 O   0  0  0  0  0  0  0  0  0  0  0  0
    6.6165   -2.8050   -3.6082 C   0  0  0  0  0  0  0  0  0  0  0  0
    6.9199   -1.8611   -4.5866 C   0  0  0  0  0  0  0  0  0  0  0  0
    7.6917   -2.2079   -5.7052 C   0  0  0  0  0  0  0  0  0  0  0  0
    8.2142   -3.4850   -5.8574 C   0  0  0  0  0  0  0  0  0  0  0  0
    8.9903   -3.7622   -6.9222 N   0  0  0  0  0  0  0  0  0  0  0  0
    9.5189   -5.0090   -6.9685 C   0  0  0  0  0  0  0  0  0  0  0  0
    9.2969   -5.9653   -5.9889 C   0  0  0  0  0  0  0  0  0  0  0  0
    9.9665   -7.2564   -6.0230 C   0  0  0  0  0  0  0  0  0  0  0  0
   10.8642   -7.8046   -6.9700 C   0  0  0  0  0  0  0  0  0  0  0  0
   11.3115   -9.0143   -6.6267 N   0  0  0  0  0  0  0  0  0  0  0  0
   10.7074   -9.2495   -5.4492 N   0  0  0  0  0  0  0  0  0  0  0  0
   10.9825  -10.4723   -4.7338 C   0  0  0  0  0  0  0  0  0  0  0  0
    9.8886   -8.2320   -5.0474 C   0  0  0  0  0  0  0  0  0  0  0  0
    8.4863   -5.6974   -4.9348 N   0  0  0  0  0  0  0  0  0  0  0  0
    7.9444   -4.4576   -4.8787 C   0  0  0  0  0  0  0  0  0  0  0  0
    7.1206   -4.1102   -3.8030 C   0  0  0  0  0  0  0  0  0  0  0  0
    3.7562   -1.3911   -3.2946 C   0  0  0  0  0  0  0  0  0  0  0  0
    3.7506   -2.3424   -4.7583 Cl  0  0  0  0  0  0  0  0  0  0  0  0
    0.6420    1.0715   -5.1864 H   0  0  0  0  0  0  0  0  0  0  0  0
    1.6561    1.7599   -3.9180 H   0  0  0  0  0  0  0  0  0  0  0  0
    0.1736    0.8238   -3.4996 H   0  0  0  0  0  0  0  0  0  0  0  0
    1.5988    0.7693   -1.7383 H   0  0  0  0  0  0  0  0  0  0  0  0
    2.6350    0.9424    2.0374 H   0  0  0  0  0  0  0  0  0  0  0  0
    4.3709    0.8680    1.7745 H   0  0  0  0  0  0  0  0  0  0  0  0
    3.3402   -0.5856    1.4828 H   0  0  0  0  0  0  0  0  0  0  0  0
    6.1502   -4.2290   -1.2967 H   0  0  0  0  0  0  0  0  0  0  0  0
    5.7863   -2.8977   -0.3094 H   0  0  0  0  0  0  0  0  0  0  0  0
    8.1116   -1.8970   -0.7583 H   0  0  0  0  0  0  0  0  0  0  0  0
    8.5092   -3.2999   -1.7314 H   0  0  0  0  0  0  0  0  0  0  0  0
    9.1518   -3.3671    0.4856 H   0  0  0  0  0  0  0  0  0  0  0  0
    6.5749   -0.8346   -4.4891 H   0  0  0  0  0  0  0  0  0  0  0  0
    7.9074   -1.4553   -6.4558 H   0  0  0  0  0  0  0  0  0  0  0  0
   10.1447   -5.2000   -7.8305 H   0  0  0  0  0  0  0  0  0  0  0  0
   11.2241   -7.3731   -7.8949 H   0  0  0  0  0  0  0  0  0  0  0  0
   11.6485  -11.1026   -5.3303 H   0  0  0  0  0  0  0  0  0  0  0  0
   10.0374  -10.9908   -4.5578 H   0  0  0  0  0  0  0  0  0  0  0  0
   11.4658  -10.2162   -3.7880 H   0  0  0  0  0  0  0  0  0  0  0  0
    9.3421   -8.2753   -4.1148 H   0  0  0  0  0  0  0  0  0  0  0  0
    6.9197   -4.9031   -3.0937 H   0  0  0  0  0  0  0  0  0  0  0  0
  1  2  1  0  0  0  0
  1 33  1  0  0  0  0
  1 34  1  0  0  0  0
  1 35  1  0  0  0  0
  2  3  1  0  0  0  0
  3  4  1  0  0  0  0
  3 31  2  0  0  0  0
  4  5  2  0  0  0  0
  4 36  1  0  0  0  0
  5  6  1  0  0  0  0
  5  8  1  0  0  0  0
  6  7  1  0  0  0  0
  7 37  1  0  0  0  0
  7 38  1  0  0  0  0
  7 39  1  0  0  0  0
  8  9  1  0  0  0  0
  8 10  2  0  0  0  0
 10 11  1  0  0  0  0
 10 31  1  0  0  0  0
 11 12  1  0  0  0  0
 11 15  1  0  0  0  0
 12 13  1  0  0  0  0
 12 40  1  0  0  0  0
 12 41  1  0  0  0  0
 13 14  1  0  0  0  0
 13 42  1  0  0  0  0
 13 43  1  0  0  0  0
 14 44  1  0  0  0  0
 15 16  1  0  0  0  0
 15 30  2  0  0  0  0
 16 17  2  0  0  0  0
 16 45  1  0  0  0  0
 17 18  1  0  0  0  0
 17 46  1  0  0  0  0
 18 19  1  0  0  0  0
 18 29  2  0  0  0  0
 19 20  2  0  0  0  0
 20 21  1  0  0  0  0
 20 47  1  0  0  0  0
 21 22  1  0  0  0  0
 21 28  2  0  0  0  0
 22 23  1  0  0  0  0
 22 27  2  0  0  0  0
 23 24  2  0  0  0  0
 23 48  1  0  0  0  0
 24 25  1  0  0  0  0
 25 26  1  0  0  0  0
 25 27  1  0  0  0  0
 26 49  1  0  0  0  0
 26 50  1  0  0  0  0
 26 51  1  0  0  0  0
 27 52  1  0  0  0  0
 28 29  1  0  0  0  0
 29 30  1  0  0  0  0
 30 53  1  0  0  0  0
 31 32  1  0  0  0  0
M  END
$$$$
