CHEMBL1253838
 OpenBabel04072215363D

 54 57  0  0  0  0  0  0  0  0999 V2000
    3.1554   -3.4539    0.7437 C   0  0  0  0  0  0  0  0  0  0  0  0
    3.5837   -2.1652    0.3153 O   0  0  0  0  0  0  0  0  0  0  0  0
    3.5069   -1.2199    1.3826 C   0  0  0  0  0  0  0  0  0  0  0  0
    4.1177    0.1044    0.9337 C   0  0  0  0  0  0  0  0  0  0  0  0
    4.0393    1.1303    1.9596 N   0  0  0  0  0  0  0  0  0  0  0  0
    3.2381    2.2449    1.8596 C   0  0  0  0  0  0  0  0  0  0  0  0
    3.2805    2.9087    3.0660 C   0  0  0  0  0  0  0  0  0  0  0  0
    4.1693    2.1997    3.9023 C   0  0  0  0  0  0  0  0  0  0  0  0
    4.5051    2.4635    5.1812 N   0  0  0  0  0  0  0  0  0  0  0  0
    5.4115    1.6192    5.6797 C   0  0  0  0  0  0  0  0  0  0  0  0
    6.0063    0.5928    5.0529 N   0  0  0  0  0  0  0  0  0  0  0  0
    5.6276    0.3054    3.7856 C   0  0  0  0  0  0  0  0  0  0  0  0
    6.2015   -0.7834    3.1287 O   0  0  0  0  0  0  0  0  0  0  0  0
    6.5587   -1.8758    3.8911 C   0  0  0  0  0  0  0  0  0  0  0  0
    5.8413   -2.2770    5.0209 C   0  0  0  0  0  0  0  0  0  0  0  0
    6.2746   -3.3524    5.7942 C   0  0  0  0  0  0  0  0  0  0  0  0
    7.3961   -4.1002    5.4324 C   0  0  0  0  0  0  0  0  0  0  0  0
    7.8846   -5.1655    6.2433 N   0  0  0  0  0  0  0  0  0  0  0  0
    7.2769   -5.6652    7.3823 C   0  0  0  0  0  0  0  0  0  0  0  0
    6.1590   -5.3543    7.7790 O   0  0  0  0  0  0  0  0  0  0  0  0
    8.1023   -6.5380    8.0783 N   0  0  0  0  0  0  0  0  0  0  0  0
    7.6546   -7.1430    9.2779 C   0  0  0  0  0  0  0  0  0  0  0  0
    8.5070   -7.1634   10.3853 C   0  0  0  0  0  0  0  0  0  0  0  0
    8.0591   -7.6837   11.5993 C   0  0  0  0  0  0  0  0  0  0  0  0
    6.7824   -8.2387   11.7026 C   0  0  0  0  0  0  0  0  0  0  0  0
    5.9343   -8.2756   10.5876 C   0  0  0  0  0  0  0  0  0  0  0  0
    4.5683   -8.9118   10.6650 C   0  0  0  0  0  0  0  0  0  0  0  0
    4.3036   -9.4805   11.8769 F   0  0  0  0  0  0  0  0  0  0  0  0
    3.5520   -8.0337   10.4408 F   0  0  0  0  0  0  0  0  0  0  0  0
    4.4090   -9.9110    9.7515 F   0  0  0  0  0  0  0  0  0  0  0  0
    6.3759   -7.7058    9.3817 C   0  0  0  0  0  0  0  0  0  0  0  0
    8.0627   -3.7412    4.2504 C   0  0  0  0  0  0  0  0  0  0  0  0
    9.4327   -4.6501    3.6944 Cl  0  0  0  0  0  0  0  0  0  0  0  0
    7.6453   -2.6417    3.4793 C   0  0  0  0  0  0  0  0  0  0  0  0
    4.6829    1.1258    3.1790 C   0  0  0  0  0  0  0  0  0  0  0  0
    3.2136   -4.1381   -0.1063 H   0  0  0  0  0  0  0  0  0  0  0  0
    2.1195   -3.4155    1.0954 H   0  0  0  0  0  0  0  0  0  0  0  0
    3.8084   -3.8278    1.5388 H   0  0  0  0  0  0  0  0  0  0  0  0
    4.0373   -1.6209    2.2496 H   0  0  0  0  0  0  0  0  0  0  0  0
    2.4582   -1.0798    1.6699 H   0  0  0  0  0  0  0  0  0  0  0  0
    3.5839    0.4680    0.0464 H   0  0  0  0  0  0  0  0  0  0  0  0
    5.1666   -0.0044    0.6394 H   0  0  0  0  0  0  0  0  0  0  0  0
    2.6832    2.4652    0.9559 H   0  0  0  0  0  0  0  0  0  0  0  0
    2.7345    3.8067    3.3229 H   0  0  0  0  0  0  0  0  0  0  0  0
    5.6917    1.7714    6.7176 H   0  0  0  0  0  0  0  0  0  0  0  0
    4.9566   -1.7387    5.3498 H   0  0  0  0  0  0  0  0  0  0  0  0
    5.7058   -3.5512    6.6957 H   0  0  0  0  0  0  0  0  0  0  0  0
    8.6918   -5.6625    5.8876 H   0  0  0  0  0  0  0  0  0  0  0  0
    9.0856   -6.3120    8.0306 H   0  0  0  0  0  0  0  0  0  0  0  0
    9.4942   -6.7164   10.3348 H   0  0  0  0  0  0  0  0  0  0  0  0
    8.7014   -7.6432   12.4760 H   0  0  0  0  0  0  0  0  0  0  0  0
    6.4528   -8.6453   12.6575 H   0  0  0  0  0  0  0  0  0  0  0  0
    5.7091   -7.7131    8.5177 H   0  0  0  0  0  0  0  0  0  0  0  0
    8.1785   -2.3722    2.5710 H   0  0  0  0  0  0  0  0  0  0  0  0
  1  2  1  0  0  0  0
  1 36  1  0  0  0  0
  1 37  1  0  0  0  0
  1 38  1  0  0  0  0
  2  3  1  0  0  0  0
  3  4  1  0  0  0  0
  3 39  1  0  0  0  0
  3 40  1  0  0  0  0
  4  5  1  0  0  0  0
  4 41  1  0  0  0  0
  4 42  1  0  0  0  0
  5  6  1  0  0  0  0
  5 35  1  0  0  0  0
  6  7  2  0  0  0  0
  6 43  1  0  0  0  0
  7  8  1  0  0  0  0
  7 44  1  0  0  0  0
  8  9  1  0  0  0  0
  8 35  2  0  0  0  0
  9 10  2  0  0  0  0
 10 11  1  0  0  0  0
 10 45  1  0  0  0  0
 11 12  2  0  0  0  0
 12 13  1  0  0  0  0
 12 35  1  0  0  0  0
 13 14  1  0  0  0  0
 14 15  1  0  0  0  0
 14 34  2  0  0  0  0
 15 16  2  0  0  0  0
 15 46  1  0  0  0  0
 16 17  1  0  0  0  0
 16 47  1  0  0  0  0
 17 18  1  0  0  0  0
 17 32  2  0  0  0  0
 18 19  1  0  0  0  0
 18 48  1  0  0  0  0
 19 20  2  0  0  0  0
 19 21  1  0  0  0  0
 21 22  1  0  0  0  0
 21 49  1  0  0  0  0
 22 23  1  0  0  0  0
 22 31  2  0  0  0  0
 23 24  2  0  0  0  0
 23 50  1  0  0  0  0
 24 25  1  0  0  0  0
 24 51  1  0  0  0  0
 25 26  2  0  0  0  0
 25 52  1  0  0  0  0
 26 27  1  0  0  0  0
 26 31  1  0  0  0  0
 27 28  1  0  0  0  0
 27 29  1  0  0  0  0
 27 30  1  0  0  0  0
 31 53  1  0  0  0  0
 32 33  1  0  0  0  0
 32 34  1  0  0  0  0
 34 54  1  0  0  0  0
M  END
$$$$
