CHEMBL1682545
 OpenBabel04072215363D

 33 36  0  0  0  0  0  0  0  0999 V2000
    0.9558    0.1065    1.9500 C   0  0  0  0  0  0  0  0  0  0  0  0
    0.1589   -1.0314    1.8937 C   0  0  0  0  0  0  0  0  0  0  0  0
   -1.0629   -0.9933    1.2162 C   0  0  0  0  0  0  0  0  0  0  0  0
   -1.4979    0.1674    0.5600 C   0  0  0  0  0  0  0  0  0  0  0  0
   -2.7244    0.2580   -0.1335 N   0  0  0  0  0  0  0  0  0  0  0  0
   -3.6734   -0.7038   -0.2162 C   0  0  0  0  0  0  0  0  0  0  0  0
   -3.9438   -1.6105    0.6959 N   0  0  0  0  0  0  0  0  0  0  0  0
   -4.9376   -2.4707    0.2742 C   0  0  0  0  0  0  0  0  0  0  0  0
   -5.4066   -3.5473    1.1422 C   0  0  0  0  0  0  0  0  0  0  0  0
   -5.2669   -3.4075    2.5333 C   0  0  0  0  0  0  0  0  0  0  0  0
   -5.7206   -4.3879    3.4268 C   0  0  0  0  0  0  0  0  0  0  0  0
   -6.3332   -5.5095    2.8700 C   0  0  0  0  0  0  0  0  0  0  0  0
   -6.8828   -6.6270    3.4434 N   0  0  0  0  0  0  0  0  0  0  0  0
   -7.4236   -7.4875    2.5597 N   0  0  0  0  0  0  0  0  0  0  0  0
   -7.1812   -6.9116    1.3788 C   0  0  0  0  0  0  0  0  0  0  0  0
   -6.4923   -5.6848    1.5013 C   0  0  0  0  0  0  0  0  0  0  0  0
   -6.0002   -4.7073    0.6164 C   0  0  0  0  0  0  0  0  0  0  0  0
   -5.4436   -2.1897   -0.9770 C   0  0  0  0  0  0  0  0  0  0  0  0
   -4.6822   -0.7919   -1.6152 S   0  0  0  0  0  0  0  0  0  0  0  0
   -0.6925    1.3121    0.6598 C   0  0  0  0  0  0  0  0  0  0  0  0
    0.5284    1.2805    1.3413 C   0  0  0  0  0  0  0  0  0  0  0  0
    1.9075    0.0749    2.4749 H   0  0  0  0  0  0  0  0  0  0  0  0
    0.4756   -1.9522    2.3738 H   0  0  0  0  0  0  0  0  0  0  0  0
   -1.6544   -1.9041    1.1935 H   0  0  0  0  0  0  0  0  0  0  0  0
   -2.7069    0.9436   -0.8782 H   0  0  0  0  0  0  0  0  0  0  0  0
   -4.8019   -2.5102    2.9395 H   0  0  0  0  0  0  0  0  0  0  0  0
   -5.6093   -4.2599    4.4990 H   0  0  0  0  0  0  0  0  0  0  0  0
   -6.9230   -6.8610    4.4270 H   0  0  0  0  0  0  0  0  0  0  0  0
   -7.5246   -7.3993    0.4763 H   0  0  0  0  0  0  0  0  0  0  0  0
   -6.0901   -4.8654   -0.4531 H   0  0  0  0  0  0  0  0  0  0  0  0
   -6.2231   -2.6938   -1.5300 H   0  0  0  0  0  0  0  0  0  0  0  0
   -1.0131    2.2480    0.2078 H   0  0  0  0  0  0  0  0  0  0  0  0
    1.1416    2.1755    1.3981 H   0  0  0  0  0  0  0  0  0  0  0  0
  1  2  1  0  0  0  0
  1 21  2  0  0  0  0
  1 22  1  0  0  0  0
  2  3  2  0  0  0  0
  2 23  1  0  0  0  0
  3  4  1  0  0  0  0
  3 24  1  0  0  0  0
  4  5  1  0  0  0  0
  4 20  2  0  0  0  0
  5  6  1  0  0  0  0
  5 25  1  0  0  0  0
  6  7  2  0  0  0  0
  6 19  1  0  0  0  0
  7  8  1  0  0  0  0
  8  9  1  0  0  0  0
  8 18  2  0  0  0  0
  9 10  1  0  0  0  0
  9 17  2  0  0  0  0
 10 11  2  0  0  0  0
 10 26  1  0  0  0  0
 11 12  1  0  0  0  0
 11 27  1  0  0  0  0
 12 13  1  0  0  0  0
 12 16  2  0  0  0  0
 13 14  1  0  0  0  0
 13 28  1  0  0  0  0
 14 15  2  0  0  0  0
 15 16  1  0  0  0  0
 15 29  1  0  0  0  0
 16 17  1  0  0  0  0
 17 30  1  0  0  0  0
 18 19  1  0  0  0  0
 18 31  1  0  0  0  0
 20 21  1  0  0  0  0
 20 32  1  0  0  0  0
 21 33  1  0  0  0  0
M  END
$$$$
