CHEMBL1762530
 OpenBabel04072215363D

 70 74  0  0  0  0  0  0  0  0999 V2000
    1.8751   -6.3623   -0.1403 C   0  0  0  0  0  0  0  0  0  0  0  0
    0.6166   -5.7799   -0.7288 C   0  0  0  0  0  0  0  0  0  0  0  0
   -0.1904   -6.6655   -1.4799 C   0  0  0  0  0  0  0  0  0  0  0  0
   -1.4146   -6.2672   -2.0098 C   0  0  0  0  0  0  0  0  0  0  0  0
   -1.8496   -4.9598   -1.8298 C   0  0  0  0  0  0  0  0  0  0  0  0
   -3.1784   -4.5054   -2.3716 C   0  0  0  0  0  0  0  0  0  0  0  0
   -4.0258   -4.0751   -1.3125 O   0  0  0  0  0  0  0  0  0  0  0  0
   -1.0209   -4.0615   -1.1297 C   0  0  0  0  0  0  0  0  0  0  0  0
    0.2139   -4.4343   -0.5415 C   0  0  0  0  0  0  0  0  0  0  0  0
    0.9497   -3.5189    0.2596 N   0  0  0  0  0  0  0  0  0  0  0  0
    0.2166   -2.4092    0.8920 C   0  0  0  0  0  0  0  0  0  0  0  0
    2.3643   -3.2933    0.2583 C   0  0  0  0  0  0  0  0  0  0  0  0
    2.9712   -2.8170    1.4159 C   0  0  0  0  0  0  0  0  0  0  0  0
    4.3164   -2.5732    1.3711 C   0  0  0  0  0  0  0  0  0  0  0  0
    5.0532   -2.8159    0.2910 N   0  0  0  0  0  0  0  0  0  0  0  0
    4.4318   -3.3041   -0.7935 C   0  0  0  0  0  0  0  0  0  0  0  0
    5.1976   -3.5598   -1.9319 N   0  0  0  0  0  0  0  0  0  0  0  0
    6.5681   -3.8705   -2.0073 C   0  0  0  0  0  0  0  0  0  0  0  0
    7.2477   -4.4824   -0.9428 C   0  0  0  0  0  0  0  0  0  0  0  0
    8.6242   -4.7296   -0.9602 C   0  0  0  0  0  0  0  0  0  0  0  0
    9.2612   -5.3374    0.1010 N   0  0  0  0  0  0  0  0  0  0  0  0
    8.6371   -6.4030    0.8969 C   0  0  0  0  0  0  0  0  0  0  0  0
    8.7007   -6.0417    2.3870 C   0  0  0  0  0  0  0  0  0  0  0  0
   10.0523   -5.7772    2.8045 O   0  0  0  0  0  0  0  0  0  0  0  0
   10.5970   -4.6786    2.0511 C   0  0  0  0  0  0  0  0  0  0  0  0
   10.6130   -4.9663    0.5374 C   0  0  0  0  0  0  0  0  0  0  0  0
    9.3186   -4.3106   -2.1034 C   0  0  0  0  0  0  0  0  0  0  0  0
    8.6975   -3.6991   -3.2116 C   0  0  0  0  0  0  0  0  0  0  0  0
    9.4476   -3.3059   -4.3046 N   0  0  0  0  0  0  0  0  0  0  0  0
    9.0802   -2.1862   -5.1816 C   0  0  0  0  0  0  0  0  0  0  0  0
    8.8209   -2.6948   -6.6059 C   0  0  0  0  0  0  0  0  0  0  0  0
    9.9510   -3.4257   -7.1146 O   0  0  0  0  0  0  0  0  0  0  0  0
   10.2236   -4.5623   -6.2773 C   0  0  0  0  0  0  0  0  0  0  0  0
   10.5343   -4.1505   -4.8275 C   0  0  0  0  0  0  0  0  0  0  0  0
    7.3105   -3.4955   -3.1343 C   0  0  0  0  0  0  0  0  0  0  0  0
    3.1047   -3.5288   -0.8500 N   0  0  0  0  0  0  0  0  0  0  0  0
    1.8202   -7.4571   -0.1041 H   0  0  0  0  0  0  0  0  0  0  0  0
    2.0219   -6.0320    0.8916 H   0  0  0  0  0  0  0  0  0  0  0  0
    2.7414   -6.1043   -0.7541 H   0  0  0  0  0  0  0  0  0  0  0  0
    0.1291   -7.6950   -1.6320 H   0  0  0  0  0  0  0  0  0  0  0  0
   -2.0176   -6.9869   -2.5581 H   0  0  0  0  0  0  0  0  0  0  0  0
   -3.6934   -5.3158   -2.8984 H   0  0  0  0  0  0  0  0  0  0  0  0
   -3.0424   -3.6787   -3.0751 H   0  0  0  0  0  0  0  0  0  0  0  0
   -3.9740   -4.7549   -0.6184 H   0  0  0  0  0  0  0  0  0  0  0  0
   -1.3764   -3.0357   -1.0616 H   0  0  0  0  0  0  0  0  0  0  0  0
   -0.8716   -2.4798    0.8215 H   0  0  0  0  0  0  0  0  0  0  0  0
    0.5179   -1.4457    0.4619 H   0  0  0  0  0  0  0  0  0  0  0  0
    0.3999   -2.3860    1.9720 H   0  0  0  0  0  0  0  0  0  0  0  0
    2.4364   -2.6503    2.3397 H   0  0  0  0  0  0  0  0  0  0  0  0
    4.8520   -2.1715    2.2255 H   0  0  0  0  0  0  0  0  0  0  0  0
    4.6239   -3.7925   -2.7279 H   0  0  0  0  0  0  0  0  0  0  0  0
    6.6808   -4.7490   -0.0562 H   0  0  0  0  0  0  0  0  0  0  0  0
    9.2085   -7.3241    0.7266 H   0  0  0  0  0  0  0  0  0  0  0  0
    7.6038   -6.6168    0.6062 H   0  0  0  0  0  0  0  0  0  0  0  0
    8.3272   -6.8769    2.9877 H   0  0  0  0  0  0  0  0  0  0  0  0
    8.0804   -5.1650    2.6082 H   0  0  0  0  0  0  0  0  0  0  0  0
   11.6174   -4.5072    2.4080 H   0  0  0  0  0  0  0  0  0  0  0  0
   10.0112   -3.7776    2.2705 H   0  0  0  0  0  0  0  0  0  0  0  0
   11.2890   -5.8036    0.3284 H   0  0  0  0  0  0  0  0  0  0  0  0
   10.9970   -4.0793    0.0225 H   0  0  0  0  0  0  0  0  0  0  0  0
   10.3938   -4.4611   -2.1330 H   0  0  0  0  0  0  0  0  0  0  0  0
    9.9309   -1.4932   -5.2030 H   0  0  0  0  0  0  0  0  0  0  0  0
    8.2229   -1.6126   -4.8157 H   0  0  0  0  0  0  0  0  0  0  0  0
    8.6485   -1.8476   -7.2770 H   0  0  0  0  0  0  0  0  0  0  0  0
    7.9345   -3.3387   -6.6419 H   0  0  0  0  0  0  0  0  0  0  0  0
   11.0834   -5.0889   -6.7035 H   0  0  0  0  0  0  0  0  0  0  0  0
    9.3642   -5.2425   -6.3147 H   0  0  0  0  0  0  0  0  0  0  0  0
   11.4628   -3.5683   -4.8014 H   0  0  0  0  0  0  0  0  0  0  0  0
   10.6939   -5.0610   -4.2402 H   0  0  0  0  0  0  0  0  0  0  0  0
    6.7843   -3.0249   -3.9581 H   0  0  0  0  0  0  0  0  0  0  0  0
  1  2  1  0  0  0  0
  1 37  1  0  0  0  0
  1 38  1  0  0  0  0
  1 39  1  0  0  0  0
  2  3  1  0  0  0  0
  2  9  2  0  0  0  0
  3  4  2  0  0  0  0
  3 40  1  0  0  0  0
  4  5  1  0  0  0  0
  4 41  1  0  0  0  0
  5  6  1  0  0  0  0
  5  8  2  0  0  0  0
  6  7  1  0  0  0  0
  6 42  1  0  0  0  0
  6 43  1  0  0  0  0
  7 44  1  0  0  0  0
  8  9  1  0  0  0  0
  8 45  1  0  0  0  0
  9 10  1  0  0  0  0
 10 11  1  0  0  0  0
 10 12  1  0  0  0  0
 11 46  1  0  0  0  0
 11 47  1  0  0  0  0
 11 48  1  0  0  0  0
 12 13  1  0  0  0  0
 12 36  2  0  0  0  0
 13 14  2  0  0  0  0
 13 49  1  0  0  0  0
 14 15  1  0  0  0  0
 14 50  1  0  0  0  0
 15 16  2  0  0  0  0
 16 17  1  0  0  0  0
 16 36  1  0  0  0  0
 17 18  1  0  0  0  0
 17 51  1  0  0  0  0
 18 19  1  0  0  0  0
 18 35  2  0  0  0  0
 19 20  2  0  0  0  0
 19 52  1  0  0  0  0
 20 21  1  0  0  0  0
 20 27  1  0  0  0  0
 21 22  1  0  0  0  0
 21 26  1  0  0  0  0
 22 23  1  0  0  0  0
 22 53  1  0  0  0  0
 22 54  1  0  0  0  0
 23 24  1  0  0  0  0
 23 55  1  0  0  0  0
 23 56  1  0  0  0  0
 24 25  1  0  0  0  0
 25 26  1  0  0  0  0
 25 57  1  0  0  0  0
 25 58  1  0  0  0  0
 26 59  1  0  0  0  0
 26 60  1  0  0  0  0
 27 28  2  0  0  0  0
 27 61  1  0  0  0  0
 28 29  1  0  0  0  0
 28 35  1  0  0  0  0
 29 30  1  0  0  0  0
 29 34  1  0  0  0  0
 30 31  1  0  0  0  0
 30 62  1  0  0  0  0
 30 63  1  0  0  0  0
 31 32  1  0  0  0  0
 31 64  1  0  0  0  0
 31 65  1  0  0  0  0
 32 33  1  0  0  0  0
 33 34  1  0  0  0  0
 33 66  1  0  0  0  0
 33 67  1  0  0  0  0
 34 68  1  0  0  0  0
 34 69  1  0  0  0  0
 35 70  1  0  0  0  0
M  END
$$$$
