CHEMBL402002
 OpenBabel04072215373D

 39 41  0  0  0  0  0  0  0  0999 V2000
    0.9989   -0.2129    0.1075 O   0  0  0  0  0  0  0  0  0  0  0  0
    2.1868    0.0530   -0.0463 C   0  0  0  0  0  0  0  0  0  0  0  0
    2.7217    0.8595   -1.0287 N   0  0  0  0  0  0  0  0  0  0  0  0
    2.0083    1.5244   -2.0481 C   0  0  0  0  0  0  0  0  0  0  0  0
    0.6376    1.3657   -2.2653 C   0  0  0  0  0  0  0  0  0  0  0  0
   -0.0095    2.0514   -3.2975 C   0  0  0  0  0  0  0  0  0  0  0  0
    0.7147    2.9043   -4.1196 C   0  0  0  0  0  0  0  0  0  0  0  0
   -0.0831    3.7466   -5.3896 Cl  0  0  0  0  0  0  0  0  0  0  0  0
    2.0808    3.0776   -3.9190 C   0  0  0  0  0  0  0  0  0  0  0  0
    2.7277    2.3881   -2.8856 C   0  0  0  0  0  0  0  0  0  0  0  0
    3.1452   -0.5641    0.9138 C   0  0  0  0  0  0  0  0  0  0  0  0
    2.8088   -1.8721    1.3213 C   0  0  0  0  0  0  0  0  0  0  0  0
    3.6163   -2.5791    2.2082 C   0  0  0  0  0  0  0  0  0  0  0  0
    4.7729   -1.9875    2.6967 C   0  0  0  0  0  0  0  0  0  0  0  0
    5.1126   -0.6855    2.3094 C   0  0  0  0  0  0  0  0  0  0  0  0
    4.2997    0.0537    1.4287 C   0  0  0  0  0  0  0  0  0  0  0  0
    4.8626    1.7204    1.0525 S   0  0  0  0  0  0  0  0  0  0  0  0
    3.4924    2.7052    1.7600 C   0  0  0  0  0  0  0  0  0  0  0  0
    3.7618    4.1910    1.7256 C   0  0  0  0  0  0  0  0  0  0  0  0
    2.9994    5.0345    0.9089 C   0  0  0  0  0  0  0  0  0  0  0  0
    3.2247    6.4032    0.9624 C   0  0  0  0  0  0  0  0  0  0  0  0
    4.1513    6.9815    1.7540 N   0  0  0  0  0  0  0  0  0  0  0  0
    4.8879    6.1549    2.5251 C   0  0  0  0  0  0  0  0  0  0  0  0
    4.7331    4.7746    2.5467 C   0  0  0  0  0  0  0  0  0  0  0  0
    3.7231    1.0282   -0.9895 H   0  0  0  0  0  0  0  0  0  0  0  0
    0.0335    0.6993   -1.6568 H   0  0  0  0  0  0  0  0  0  0  0  0
   -1.0762    1.9041   -3.4478 H   0  0  0  0  0  0  0  0  0  0  0  0
    2.6496    3.7449   -4.5615 H   0  0  0  0  0  0  0  0  0  0  0  0
    3.7948    2.5376   -2.7486 H   0  0  0  0  0  0  0  0  0  0  0  0
    1.9062   -2.3477    0.9386 H   0  0  0  0  0  0  0  0  0  0  0  0
    3.3388   -3.5866    2.5100 H   0  0  0  0  0  0  0  0  0  0  0  0
    5.4115   -2.5375    3.3848 H   0  0  0  0  0  0  0  0  0  0  0  0
    6.0247   -0.2521    2.7162 H   0  0  0  0  0  0  0  0  0  0  0  0
    3.3119    2.3998    2.7963 H   0  0  0  0  0  0  0  0  0  0  0  0
    2.5776    2.4932    1.1998 H   0  0  0  0  0  0  0  0  0  0  0  0
    2.2279    4.6451    0.2521 H   0  0  0  0  0  0  0  0  0  0  0  0
    2.6396    7.0909    0.3577 H   0  0  0  0  0  0  0  0  0  0  0  0
    5.6234    6.6460    3.1552 H   0  0  0  0  0  0  0  0  0  0  0  0
    5.3564    4.1752    3.2019 H   0  0  0  0  0  0  0  0  0  0  0  0
  1  2  2  0  0  0  0
  2  3  1  0  0  0  0
  2 11  1  0  0  0  0
  3  4  1  0  0  0  0
  3 25  1  0  0  0  0
  4  5  1  0  0  0  0
  4 10  2  0  0  0  0
  5  6  2  0  0  0  0
  5 26  1  0  0  0  0
  6  7  1  0  0  0  0
  6 27  1  0  0  0  0
  7  8  1  0  0  0  0
  7  9  2  0  0  0  0
  9 10  1  0  0  0  0
  9 28  1  0  0  0  0
 10 29  1  0  0  0  0
 11 12  1  0  0  0  0
 11 16  2  0  0  0  0
 12 13  2  0  0  0  0
 12 30  1  0  0  0  0
 13 14  1  0  0  0  0
 13 31  1  0  0  0  0
 14 15  2  0  0  0  0
 14 32  1  0  0  0  0
 15 16  1  0  0  0  0
 15 33  1  0  0  0  0
 16 17  1  0  0  0  0
 17 18  1  0  0  0  0
 18 19  1  0  0  0  0
 18 34  1  0  0  0  0
 18 35  1  0  0  0  0
 19 20  1  0  0  0  0
 19 24  2  0  0  0  0
 20 21  2  0  0  0  0
 20 36  1  0  0  0  0
 21 22  1  0  0  0  0
 21 37  1  0  0  0  0
 22 23  2  0  0  0  0
 23 24  1  0  0  0  0
 23 38  1  0  0  0  0
 24 39  1  0  0  0  0
M  END
$$$$
