CHEMBL3694682
 OpenBabel04072215373D

 51 54  0  0  0  0  0  0  0  0999 V2000
    1.1440    1.5398   -0.3760 C   0  0  0  0  0  0  0  0  0  0  0  0
    2.5686    1.4496   -0.3906 O   0  0  0  0  0  0  0  0  0  0  0  0
    3.0676    0.4683   -1.1811 C   0  0  0  0  0  0  0  0  0  0  0  0
    2.4228   -0.3259   -1.8403 O   0  0  0  0  0  0  0  0  0  0  0  0
    4.5348    0.4954   -1.1454 C   0  0  0  0  0  0  0  0  0  0  0  0
    5.2808   -0.3848   -1.8981 C   0  0  0  0  0  0  0  0  0  0  0  0
    6.6363   -0.3927   -1.9113 N   0  0  0  0  0  0  0  0  0  0  0  0
    7.2568    0.5203   -1.1357 C   0  0  0  0  0  0  0  0  0  0  0  0
    8.7441    0.5785   -1.1196 C   0  0  0  0  0  0  0  0  0  0  0  0
    9.4760    1.5437   -0.2805 C   0  0  0  0  0  0  0  0  0  0  0  0
   10.8188    1.5796   -0.2882 C   0  0  0  0  0  0  0  0  0  0  0  0
   11.5276    0.7110   -1.1165 N   0  0  0  0  0  0  0  0  0  0  0  0
   12.8930    0.5581   -1.3373 C   0  0  0  0  0  0  0  0  0  0  0  0
   14.0173    1.2940   -0.7301 C   0  0  0  0  0  0  0  0  0  0  0  0
   15.2031    0.5806   -0.4899 C   0  0  0  0  0  0  0  0  0  0  0  0
   16.3246    1.2055    0.0389 C   0  0  0  0  0  0  0  0  0  0  0  0
   16.2863    2.5633    0.3321 C   0  0  0  0  0  0  0  0  0  0  0  0
   15.1446    3.3255    0.0745 C   0  0  0  0  0  0  0  0  0  0  0  0
   15.1039    4.7280    0.3069 N   0  0  0  0  0  0  0  0  0  0  0  0
   16.1808    5.5147    0.6649 C   0  0  0  0  0  0  0  0  0  0  0  0
   17.3432    5.1557    0.8061 O   0  0  0  0  0  0  0  0  0  0  0  0
   15.8384    6.8253    0.9160 N   0  0  0  0  0  0  0  0  0  0  0  0
   16.9241    7.7554    1.2691 C   0  0  0  0  0  0  0  0  0  0  0  0
   17.8260    8.2251    0.1144 C   0  0  0  0  0  0  0  0  0  0  0  0
   17.3532    7.8420   -1.0935 F   0  0  0  0  0  0  0  0  0  0  0  0
   17.8789    9.5820    0.0989 F   0  0  0  0  0  0  0  0  0  0  0  0
   19.0941    7.7803    0.2338 F   0  0  0  0  0  0  0  0  0  0  0  0
   14.0047    2.6766   -0.4461 C   0  0  0  0  0  0  0  0  0  0  0  0
   12.9584   -0.5094   -2.2272 C   0  0  0  0  0  0  0  0  0  0  0  0
   11.7285   -0.9858   -2.5738 N   0  0  0  0  0  0  0  0  0  0  0  0
   10.8790   -0.2386   -1.9095 C   0  0  0  0  0  0  0  0  0  0  0  0
    9.4553   -0.2794   -1.8881 C   0  0  0  0  0  0  0  0  0  0  0  0
    6.6121    1.4176   -0.3624 N   0  0  0  0  0  0  0  0  0  0  0  0
    5.2622    1.3829   -0.3849 C   0  0  0  0  0  0  0  0  0  0  0  0
    0.8739    2.4054    0.2353 H   0  0  0  0  0  0  0  0  0  0  0  0
    0.7109    0.6434    0.0769 H   0  0  0  0  0  0  0  0  0  0  0  0
    0.7570    1.6956   -1.3873 H   0  0  0  0  0  0  0  0  0  0  0  0
    4.8130   -1.1317   -2.5369 H   0  0  0  0  0  0  0  0  0  0  0  0
    8.9040    2.2170    0.3513 H   0  0  0  0  0  0  0  0  0  0  0  0
   11.3740    2.2606    0.3392 H   0  0  0  0  0  0  0  0  0  0  0  0
   15.2745   -0.4810   -0.7169 H   0  0  0  0  0  0  0  0  0  0  0  0
   17.2369    0.6420    0.2151 H   0  0  0  0  0  0  0  0  0  0  0  0
   17.1851    2.9927    0.7603 H   0  0  0  0  0  0  0  0  0  0  0  0
   14.2267    5.1948    0.1372 H   0  0  0  0  0  0  0  0  0  0  0  0
   15.0383    7.2052    0.4315 H   0  0  0  0  0  0  0  0  0  0  0  0
   17.5526    7.2755    2.0302 H   0  0  0  0  0  0  0  0  0  0  0  0
   16.4511    8.6191    1.7455 H   0  0  0  0  0  0  0  0  0  0  0  0
   13.1199    3.2636   -0.6723 H   0  0  0  0  0  0  0  0  0  0  0  0
   13.8521   -0.9615   -2.6398 H   0  0  0  0  0  0  0  0  0  0  0  0
    8.9796   -1.0257   -2.5177 H   0  0  0  0  0  0  0  0  0  0  0  0
    4.7865    2.1254    0.2505 H   0  0  0  0  0  0  0  0  0  0  0  0
  1  2  1  0  0  0  0
  1 35  1  0  0  0  0
  1 36  1  0  0  0  0
  1 37  1  0  0  0  0
  2  3  1  0  0  0  0
  3  4  2  0  0  0  0
  3  5  1  0  0  0  0
  5  6  1  0  0  0  0
  5 34  2  0  0  0  0
  6  7  2  0  0  0  0
  6 38  1  0  0  0  0
  7  8  1  0  0  0  0
  8  9  1  0  0  0  0
  8 33  2  0  0  0  0
  9 10  1  0  0  0  0
  9 32  2  0  0  0  0
 10 11  2  0  0  0  0
 10 39  1  0  0  0  0
 11 12  1  0  0  0  0
 11 40  1  0  0  0  0
 12 13  1  0  0  0  0
 12 31  1  0  0  0  0
 13 14  1  0  0  0  0
 13 29  2  0  0  0  0
 14 15  1  0  0  0  0
 14 28  2  0  0  0  0
 15 16  2  0  0  0  0
 15 41  1  0  0  0  0
 16 17  1  0  0  0  0
 16 42  1  0  0  0  0
 17 18  2  0  0  0  0
 17 43  1  0  0  0  0
 18 19  1  0  0  0  0
 18 28  1  0  0  0  0
 19 20  1  0  0  0  0
 19 44  1  0  0  0  0
 20 21  2  0  0  0  0
 20 22  1  0  0  0  0
 22 23  1  0  0  0  0
 22 45  1  0  0  0  0
 23 24  1  0  0  0  0
 23 46  1  0  0  0  0
 23 47  1  0  0  0  0
 24 25  1  0  0  0  0
 24 26  1  0  0  0  0
 24 27  1  0  0  0  0
 28 48  1  0  0  0  0
 29 30  1  0  0  0  0
 29 49  1  0  0  0  0
 30 31  2  0  0  0  0
 31 32  1  0  0  0  0
 32 50  1  0  0  0  0
 33 34  1  0  0  0  0
 34 51  1  0  0  0  0
M  END
$$$$
