CHEMBL2000104
 OpenBabel04072215363D

 37 39  0  0  0  0  0  0  0  0999 V2000
    1.0553   -0.0934   -0.1085 C   0  0  0  0  0  0  0  0  0  0  0  0
    2.5654   -0.0818    0.0502 C   0  0  0  0  0  0  0  0  0  0  0  0
    3.0562    0.9897    1.3884 S   0  0  0  0  0  0  0  0  0  0  0  0
    2.6354    2.3416    1.0594 O   0  0  0  0  0  0  0  0  0  0  0  0
    2.6577    0.3732    2.6388 O   0  0  0  0  0  0  0  0  0  0  0  0
    4.8344    0.9691    1.3579 C   0  0  0  0  0  0  0  0  0  0  0  0
    5.5438    2.1235    1.0334 C   0  0  0  0  0  0  0  0  0  0  0  0
    6.9445    2.1112    1.0730 C   0  0  0  0  0  0  0  0  0  0  0  0
    7.6681    0.9639    1.4600 C   0  0  0  0  0  0  0  0  0  0  0  0
    9.1501    0.9698    1.4929 C   0  0  0  0  0  0  0  0  0  0  0  0
    9.8825    2.1060    1.8646 C   0  0  0  0  0  0  0  0  0  0  0  0
   11.2278    2.2112    1.8980 N   0  0  0  0  0  0  0  0  0  0  0  0
   11.9630    1.1335    1.5694 C   0  0  0  0  0  0  0  0  0  0  0  0
   11.3353   -0.0571    1.2037 C   0  0  0  0  0  0  0  0  0  0  0  0
   12.1272   -1.5297    0.7923 S   0  0  0  0  0  0  0  0  0  0  0  0
   10.6609   -2.3393    0.4988 C   0  0  0  0  0  0  0  0  0  0  0  0
   10.5961   -3.7389    0.1158 C   0  0  0  0  0  0  0  0  0  0  0  0
   11.7840   -4.3962   -0.0379 N   0  0  0  0  0  0  0  0  0  0  0  0
    9.5459   -4.3496   -0.0654 O   0  0  0  0  0  0  0  0  0  0  0  0
    9.5889   -1.4886    0.6728 C   0  0  0  0  0  0  0  0  0  0  0  0
    9.9398   -0.1668    1.1381 C   0  0  0  0  0  0  0  0  0  0  0  0
    6.9108   -0.1626    1.8361 C   0  0  0  0  0  0  0  0  0  0  0  0
    5.5123   -0.1779    1.7622 C   0  0  0  0  0  0  0  0  0  0  0  0
    0.7555   -0.7698   -0.9146 H   0  0  0  0  0  0  0  0  0  0  0  0
    0.6780    0.9068   -0.3463 H   0  0  0  0  0  0  0  0  0  0  0  0
    0.5639   -0.4213    0.8137 H   0  0  0  0  0  0  0  0  0  0  0  0
    3.0403    0.2804   -0.8664 H   0  0  0  0  0  0  0  0  0  0  0  0
    2.9287   -1.0902    0.2721 H   0  0  0  0  0  0  0  0  0  0  0  0
    5.0254    3.0424    0.7655 H   0  0  0  0  0  0  0  0  0  0  0  0
    7.4631    3.0299    0.8013 H   0  0  0  0  0  0  0  0  0  0  0  0
    9.3773    3.0202    2.1701 H   0  0  0  0  0  0  0  0  0  0  0  0
   13.0409    1.2430    1.6090 H   0  0  0  0  0  0  0  0  0  0  0  0
   12.6724   -3.9433    0.1206 H   0  0  0  0  0  0  0  0  0  0  0  0
   11.7564   -5.3758   -0.2824 H   0  0  0  0  0  0  0  0  0  0  0  0
    8.5768   -1.8303    0.4917 H   0  0  0  0  0  0  0  0  0  0  0  0
    7.4001   -1.0539    2.2235 H   0  0  0  0  0  0  0  0  0  0  0  0
    4.9714   -1.0748    2.0553 H   0  0  0  0  0  0  0  0  0  0  0  0
  1  2  1  0  0  0  0
  1 24  1  0  0  0  0
  1 25  1  0  0  0  0
  1 26  1  0  0  0  0
  2  3  1  0  0  0  0
  2 27  1  0  0  0  0
  2 28  1  0  0  0  0
  3  4  2  0  0  0  0
  3  5  2  0  0  0  0
  3  6  1  0  0  0  0
  6  7  1  0  0  0  0
  6 23  2  0  0  0  0
  7  8  2  0  0  0  0
  7 29  1  0  0  0  0
  8  9  1  0  0  0  0
  8 30  1  0  0  0  0
  9 10  1  0  0  0  0
  9 22  2  0  0  0  0
 10 11  1  0  0  0  0
 10 21  2  0  0  0  0
 11 12  2  0  0  0  0
 11 31  1  0  0  0  0
 12 13  1  0  0  0  0
 13 14  2  0  0  0  0
 13 32  1  0  0  0  0
 14 15  1  0  0  0  0
 14 21  1  0  0  0  0
 15 16  1  0  0  0  0
 16 17  1  0  0  0  0
 16 20  2  0  0  0  0
 17 18  1  0  0  0  0
 17 19  2  0  0  0  0
 18 33  1  0  0  0  0
 18 34  1  0  0  0  0
 20 21  1  0  0  0  0
 20 35  1  0  0  0  0
 22 23  1  0  0  0  0
 22 36  1  0  0  0  0
 23 37  1  0  0  0  0
M  END
$$$$
