CHEMBL3919791
 OpenBabel04072215373D

 53 56  0  0  0  0  0  0  0  0999 V2000
    6.9343    2.9901   -2.0538 C   0  0  0  0  0  0  0  0  0  0  0  0
    6.2811    1.8751   -1.4647 O   0  0  0  0  0  0  0  0  0  0  0  0
    5.0650    2.0935   -0.8712 C   0  0  0  0  0  0  0  0  0  0  0  0
    4.4355    3.3411   -0.7653 C   0  0  0  0  0  0  0  0  0  0  0  0
    3.1694    3.4899   -0.1576 C   0  0  0  0  0  0  0  0  0  0  0  0
    2.4990    4.8137   -0.0819 C   0  0  0  0  0  0  0  0  0  0  0  0
    1.6939    5.1657    1.0185 C   0  0  0  0  0  0  0  0  0  0  0  0
    1.0283    6.4023    1.1035 C   0  0  0  0  0  0  0  0  0  0  0  0
    1.1811    7.3333    0.0602 C   0  0  0  0  0  0  0  0  0  0  0  0
    0.7187    8.6526   -0.2414 C   0  0  0  0  0  0  0  0  0  0  0  0
   -0.1212    9.4527    0.6073 C   0  0  0  0  0  0  0  0  0  0  0  0
   -0.5020   10.7091    0.3215 C   0  0  0  0  0  0  0  0  0  0  0  0
   -1.2707   11.5871    1.2142 C   0  0  0  0  0  0  0  0  0  0  0  0
   -1.1771   11.4792    2.6044 C   0  0  0  0  0  0  0  0  0  0  0  0
   -1.8568   12.3691    3.4387 C   0  0  0  0  0  0  0  0  0  0  0  0
   -2.6403   13.3950    2.9104 C   0  0  0  0  0  0  0  0  0  0  0  0
   -3.3412   14.3119    3.7161 N   0  0  0  0  0  0  0  0  0  0  0  0
   -3.3901   14.3457    5.1006 C   0  0  0  0  0  0  0  0  0  0  0  0
   -2.8487   13.5656    5.8786 O   0  0  0  0  0  0  0  0  0  0  0  0
   -4.2616   15.4816    5.6410 C   0  0  0  0  0  0  0  0  0  0  0  0
   -4.2996   16.6280    4.7107 N   0  0  0  0  0  0  0  0  0  0  0  0
   -2.7204   13.5255    1.5209 C   0  0  0  0  0  0  0  0  0  0  0  0
   -2.0398   12.6296    0.6811 C   0  0  0  0  0  0  0  0  0  0  0  0
    1.2025    9.0807   -1.4166 N   0  0  0  0  0  0  0  0  0  0  0  0
    1.9624    8.0684   -1.8485 N   0  0  0  0  0  0  0  0  0  0  0  0
    1.9874    6.9860   -1.0157 C   0  0  0  0  0  0  0  0  0  0  0  0
    2.6444    5.7543   -1.1216 C   0  0  0  0  0  0  0  0  0  0  0  0
    2.5619    2.3324    0.3603 C   0  0  0  0  0  0  0  0  0  0  0  0
    3.1839    1.0838    0.2815 C   0  0  0  0  0  0  0  0  0  0  0  0
    4.4255    0.9705   -0.3367 C   0  0  0  0  0  0  0  0  0  0  0  0
    5.0306   -0.2546   -0.4276 O   0  0  0  0  0  0  0  0  0  0  0  0
    7.8794    2.6396   -2.4796 H   0  0  0  0  0  0  0  0  0  0  0  0
    7.1716    3.7509   -1.3031 H   0  0  0  0  0  0  0  0  0  0  0  0
    6.3381    3.4120   -2.8702 H   0  0  0  0  0  0  0  0  0  0  0  0
    4.9305    4.2267   -1.1489 H   0  0  0  0  0  0  0  0  0  0  0  0
    1.5742    4.4743    1.8513 H   0  0  0  0  0  0  0  0  0  0  0  0
    0.4114    6.6250    1.9690 H   0  0  0  0  0  0  0  0  0  0  0  0
   -0.4297    8.9965    1.5406 H   0  0  0  0  0  0  0  0  0  0  0  0
   -0.2033   11.1525   -0.6276 H   0  0  0  0  0  0  0  0  0  0  0  0
   -0.5558   10.7201    3.0696 H   0  0  0  0  0  0  0  0  0  0  0  0
   -1.7332   12.2323    4.5079 H   0  0  0  0  0  0  0  0  0  0  0  0
   -3.8770   15.0465    3.2602 H   0  0  0  0  0  0  0  0  0  0  0  0
   -3.8419   15.8066    6.5986 H   0  0  0  0  0  0  0  0  0  0  0  0
   -5.2717   15.0933    5.8028 H   0  0  0  0  0  0  0  0  0  0  0  0
   -3.3370   16.9310    4.5443 H   0  0  0  0  0  0  0  0  0  0  0  0
   -4.7341   17.4085    5.2084 H   0  0  0  0  0  0  0  0  0  0  0  0
   -3.3058   14.3209    1.0681 H   0  0  0  0  0  0  0  0  0  0  0  0
   -2.1117   12.7582   -0.3968 H   0  0  0  0  0  0  0  0  0  0  0  0
    2.4513    8.1815   -2.7284 H   0  0  0  0  0  0  0  0  0  0  0  0
    3.2414    5.5362   -2.0016 H   0  0  0  0  0  0  0  0  0  0  0  0
    1.5790    2.3854    0.8242 H   0  0  0  0  0  0  0  0  0  0  0  0
    2.6819    0.2172    0.6998 H   0  0  0  0  0  0  0  0  0  0  0  0
    4.4606   -0.9219   -0.0160 H   0  0  0  0  0  0  0  0  0  0  0  0
  1  2  1  0  0  0  0
  1 32  1  0  0  0  0
  1 33  1  0  0  0  0
  1 34  1  0  0  0  0
  2  3  1  0  0  0  0
  3  4  1  0  0  0  0
  3 30  2  0  0  0  0
  4  5  2  0  0  0  0
  4 35  1  0  0  0  0
  5  6  1  0  0  0  0
  5 28  1  0  0  0  0
  6  7  1  0  0  0  0
  6 27  2  0  0  0  0
  7  8  2  0  0  0  0
  7 36  1  0  0  0  0
  8  9  1  0  0  0  0
  8 37  1  0  0  0  0
  9 10  1  0  0  0  0
  9 26  2  0  0  0  0
 10 11  1  0  0  0  0
 10 24  2  0  0  0  0
 11 12  2  0  0  0  0
 11 38  1  0  0  0  0
 12 13  1  0  0  0  0
 12 39  1  0  0  0  0
 13 14  1  0  0  0  0
 13 23  2  0  0  0  0
 14 15  2  0  0  0  0
 14 40  1  0  0  0  0
 15 16  1  0  0  0  0
 15 41  1  0  0  0  0
 16 17  1  0  0  0  0
 16 22  2  0  0  0  0
 17 18  1  0  0  0  0
 17 42  1  0  0  0  0
 18 19  2  0  0  0  0
 18 20  1  0  0  0  0
 20 21  1  0  0  0  0
 20 43  1  0  0  0  0
 20 44  1  0  0  0  0
 21 45  1  0  0  0  0
 21 46  1  0  0  0  0
 22 23  1  0  0  0  0
 22 47  1  0  0  0  0
 23 48  1  0  0  0  0
 24 25  1  0  0  0  0
 25 26  1  0  0  0  0
 25 49  1  0  0  0  0
 26 27  1  0  0  0  0
 27 50  1  0  0  0  0
 28 29  2  0  0  0  0
 28 51  1  0  0  0  0
 29 30  1  0  0  0  0
 29 52  1  0  0  0  0
 30 31  1  0  0  0  0
 31 53  1  0  0  0  0
M  END
$$$$
