CHEMBL4103383
 OpenBabel04072215383D

 55 60  0  0  0  0  0  0  0  0999 V2000
    2.8721    1.0937   -0.1373 O   0  0  0  0  0  0  0  0  0  0  0  0
    2.2359    0.0835    0.1207 C   0  0  0  0  0  0  0  0  0  0  0  0
    0.9064   -0.0910    0.4281 N   0  0  0  0  0  0  0  0  0  0  0  0
   -0.0072    0.9350    0.3510 C   0  0  0  0  0  0  0  0  0  0  0  0
   -1.2197    0.9558    1.0718 C   0  0  0  0  0  0  0  0  0  0  0  0
   -1.7881    2.1666    0.7504 C   0  0  0  0  0  0  0  0  0  0  0  0
   -2.9954    2.9003    1.2228 C   0  0  0  0  0  0  0  0  0  0  0  0
   -2.8375    3.2771    2.7025 C   0  0  0  0  0  0  0  0  0  0  0  0
   -4.1338    3.8239    3.2750 C   0  0  0  0  0  0  0  0  0  0  0  0
   -5.1996    2.9015    3.0604 O   0  0  0  0  0  0  0  0  0  0  0  0
   -5.4643    2.7055    1.6731 C   0  0  0  0  0  0  0  0  0  0  0  0
   -4.2637    2.0721    0.9890 C   0  0  0  0  0  0  0  0  0  0  0  0
   -1.0021    2.7972   -0.1578 O   0  0  0  0  0  0  0  0  0  0  0  0
    0.1169    2.0284   -0.4041 N   0  0  0  0  0  0  0  0  0  0  0  0
    2.9297   -1.1229    0.3186 N   0  0  0  0  0  0  0  0  0  0  0  0
    4.1338   -1.2335    0.9916 C   0  0  0  0  0  0  0  0  0  0  0  0
    4.4456   -2.5682    1.1267 C   0  0  0  0  0  0  0  0  0  0  0  0
    3.4609   -3.3166    0.4208 C   0  0  0  0  0  0  0  0  0  0  0  0
    3.2782   -4.6896    0.1670 C   0  0  0  0  0  0  0  0  0  0  0  0
    2.2037   -5.0893   -0.6375 C   0  0  0  0  0  0  0  0  0  0  0  0
    2.0171   -6.4386   -0.7801 O   0  0  0  0  0  0  0  0  0  0  0  0
    1.7097   -6.9542   -2.0335 C   0  0  0  0  0  0  0  0  0  0  0  0
    1.8406   -6.2211   -3.1592 N   0  0  0  0  0  0  0  0  0  0  0  0
    1.7536   -6.8967   -4.3242 C   0  0  0  0  0  0  0  0  0  0  0  0
    1.6236   -8.2269   -4.4688 N   0  0  0  0  0  0  0  0  0  0  0  0
    1.5087   -8.8836   -3.3093 C   0  0  0  0  0  0  0  0  0  0  0  0
    1.4788   -8.2919   -2.0718 C   0  0  0  0  0  0  0  0  0  0  0  0
    1.4026   -9.3218   -1.0160 C   0  0  0  0  0  0  0  0  0  0  0  0
    2.0542  -10.4982   -1.6428 N   0  0  0  0  0  0  0  0  0  0  0  0
    1.6997  -10.3658   -3.0954 C   0  0  0  0  0  0  0  0  0  0  0  0
    1.3142   -4.1612   -1.1628 C   0  0  0  0  0  0  0  0  0  0  0  0
    1.4791   -2.8016   -0.9219 C   0  0  0  0  0  0  0  0  0  0  0  0
    2.5384   -2.3971   -0.0930 C   0  0  0  0  0  0  0  0  0  0  0  0
    0.6211   -0.9203    0.9332 H   0  0  0  0  0  0  0  0  0  0  0  0
   -1.5947    0.2410    1.7870 H   0  0  0  0  0  0  0  0  0  0  0  0
   -3.0933    3.8323    0.6479 H   0  0  0  0  0  0  0  0  0  0  0  0
   -2.0313    4.0103    2.8271 H   0  0  0  0  0  0  0  0  0  0  0  0
   -2.5511    2.3881    3.2797 H   0  0  0  0  0  0  0  0  0  0  0  0
   -4.3911    4.7941    2.8350 H   0  0  0  0  0  0  0  0  0  0  0  0
   -4.0281    3.9673    4.3551 H   0  0  0  0  0  0  0  0  0  0  0  0
   -5.7339    3.6619    1.2108 H   0  0  0  0  0  0  0  0  0  0  0  0
   -6.3300    2.0410    1.5893 H   0  0  0  0  0  0  0  0  0  0  0  0
   -4.4565    1.9617   -0.0852 H   0  0  0  0  0  0  0  0  0  0  0  0
   -4.1256    1.0615    1.3947 H   0  0  0  0  0  0  0  0  0  0  0  0
    4.6188   -0.3406    1.3674 H   0  0  0  0  0  0  0  0  0  0  0  0
    5.3082   -2.9552    1.6549 H   0  0  0  0  0  0  0  0  0  0  0  0
    3.9735   -5.4139    0.5678 H   0  0  0  0  0  0  0  0  0  0  0  0
    1.8281   -6.3105   -5.2346 H   0  0  0  0  0  0  0  0  0  0  0  0
    0.3546   -9.5663   -0.7985 H   0  0  0  0  0  0  0  0  0  0  0  0
    1.8950   -9.0324   -0.0841 H   0  0  0  0  0  0  0  0  0  0  0  0
    3.0609  -10.3158   -1.5828 H   0  0  0  0  0  0  0  0  0  0  0  0
    0.7785  -10.9170   -3.3009 H   0  0  0  0  0  0  0  0  0  0  0  0
    2.5174  -10.7450   -3.7150 H   0  0  0  0  0  0  0  0  0  0  0  0
    0.4872   -4.4875   -1.7877 H   0  0  0  0  0  0  0  0  0  0  0  0
    0.8075   -2.0887   -1.3893 H   0  0  0  0  0  0  0  0  0  0  0  0
  1  2  2  0  0  0  0
  2  3  1  0  0  0  0
  2 15  1  0  0  0  0
  3  4  1  0  0  0  0
  3 34  1  0  0  0  0
  4  5  1  0  0  0  0
  4 14  2  0  0  0  0
  5  6  2  0  0  0  0
  5 35  1  0  0  0  0
  6  7  1  0  0  0  0
  6 13  1  0  0  0  0
  7  8  1  0  0  0  0
  7 12  1  0  0  0  0
  7 36  1  0  0  0  0
  8  9  1  0  0  0  0
  8 37  1  0  0  0  0
  8 38  1  0  0  0  0
  9 10  1  0  0  0  0
  9 39  1  0  0  0  0
  9 40  1  0  0  0  0
 10 11  1  0  0  0  0
 11 12  1  0  0  0  0
 11 41  1  0  0  0  0
 11 42  1  0  0  0  0
 12 43  1  0  0  0  0
 12 44  1  0  0  0  0
 13 14  1  0  0  0  0
 15 16  1  0  0  0  0
 15 33  1  0  0  0  0
 16 17  2  0  0  0  0
 16 45  1  0  0  0  0
 17 18  1  0  0  0  0
 17 46  1  0  0  0  0
 18 19  1  0  0  0  0
 18 33  2  0  0  0  0
 19 20  2  0  0  0  0
 19 47  1  0  0  0  0
 20 21  1  0  0  0  0
 20 31  1  0  0  0  0
 21 22  1  0  0  0  0
 22 23  1  0  0  0  0
 22 27  2  0  0  0  0
 23 24  2  0  0  0  0
 24 25  1  0  0  0  0
 24 48  1  0  0  0  0
 25 26  2  0  0  0  0
 26 27  1  0  0  0  0
 26 30  1  0  0  0  0
 27 28  1  0  0  0  0
 28 29  1  0  0  0  0
 28 49  1  0  0  0  0
 28 50  1  0  0  0  0
 29 30  1  0  0  0  0
 29 51  1  0  0  0  0
 30 52  1  0  0  0  0
 30 53  1  0  0  0  0
 31 32  2  0  0  0  0
 31 54  1  0  0  0  0
 32 33  1  0  0  0  0
 32 55  1  0  0  0  0
M  END
$$$$
