CHEMBL4644695
 OpenBabel04072215383D

 72 75  0  0  0  0  0  0  0  0999 V2000
   -3.1252   -4.3776   -3.9554 C   0  0  0  0  0  0  0  0  0  0  0  0
   -1.9941   -3.4614   -3.5168 C   0  0  0  0  0  0  0  0  0  0  0  0
   -0.7145   -3.9053   -4.0863 N   0  0  0  0  0  0  0  0  0  0  0  0
    0.7028   -3.1662   -3.5033 S   0  0  0  0  0  0  0  0  0  0  0  0
    0.4720   -2.9845   -2.0900 O   0  0  0  0  0  0  0  0  0  0  0  0
    1.8036   -3.9629   -4.0070 O   0  0  0  0  0  0  0  0  0  0  0  0
    0.7615   -1.5981   -4.3758 C   0  0  0  0  0  0  0  0  0  0  0  0
    0.8418   -1.7175   -5.7807 C   0  0  0  0  0  0  0  0  0  0  0  0
    0.8182   -0.5917   -6.6050 C   0  0  0  0  0  0  0  0  0  0  0  0
    0.6992    0.6760   -6.0458 C   0  0  0  0  0  0  0  0  0  0  0  0
    0.6603    0.7996   -4.6636 C   0  0  0  0  0  0  0  0  0  0  0  0
    0.7443   -0.3176   -3.7988 C   0  0  0  0  0  0  0  0  0  0  0  0
    0.7722    0.0320   -2.4517 N   0  0  0  0  0  0  0  0  0  0  0  0
    1.4574   -0.5338   -1.3884 C   0  0  0  0  0  0  0  0  0  0  0  0
    2.6303   -1.1267   -1.5568 N   0  0  0  0  0  0  0  0  0  0  0  0
    3.0917   -1.7138   -0.4536 C   0  0  0  0  0  0  0  0  0  0  0  0
    2.4863   -1.7277    0.7254 N   0  0  0  0  0  0  0  0  0  0  0  0
    1.3141   -1.1033    0.7675 C   0  0  0  0  0  0  0  0  0  0  0  0
    0.4839   -1.1185    1.8756 N   0  0  0  0  0  0  0  0  0  0  0  0
    0.5968   -1.7568    3.1049 C   0  0  0  0  0  0  0  0  0  0  0  0
    1.8112   -2.1663    3.6263 C   0  0  0  0  0  0  0  0  0  0  0  0
    1.8695   -2.8419    4.8422 C   0  0  0  0  0  0  0  0  0  0  0  0
    0.7236   -3.1191    5.6121 C   0  0  0  0  0  0  0  0  0  0  0  0
    0.8433   -3.8694    6.7806 N   0  0  0  0  0  0  0  0  0  0  0  0
   -0.1099   -4.9779    7.0101 C   0  0  0  0  0  0  0  0  0  0  0  0
   -0.2321   -5.2022    8.5400 C   0  0  0  0  0  0  0  0  0  0  0  0
    1.0757   -5.5719    9.1275 N   0  0  0  0  0  0  0  0  0  0  0  0
    0.9607   -5.7962   10.5630 C   0  0  0  0  0  0  0  0  0  0  0  0
    2.0442   -4.4869    8.8524 C   0  0  0  0  0  0  0  0  0  0  0  0
    2.1738   -4.1686    7.3479 C   0  0  0  0  0  0  0  0  0  0  0  0
   -0.4906   -2.5654    5.1383 C   0  0  0  0  0  0  0  0  0  0  0  0
   -1.7161   -2.5045    5.7675 O   0  0  0  0  0  0  0  0  0  0  0  0
   -1.7125   -2.3936    7.1829 C   0  0  0  0  0  0  0  0  0  0  0  0
   -2.4152   -1.1548    7.7048 C   0  0  0  0  0  0  0  0  0  0  0  0
   -2.3420   -1.2615    9.1308 O   0  0  0  0  0  0  0  0  0  0  0  0
   -2.9061   -0.1552    9.8030 C   0  0  0  0  0  0  0  0  0  0  0  0
   -0.5465   -1.9542    3.8770 C   0  0  0  0  0  0  0  0  0  0  0  0
    0.7903   -0.4425   -0.2523 N   0  0  0  0  0  0  0  0  0  0  0  0
   -4.0804   -3.9959   -3.5784 H   0  0  0  0  0  0  0  0  0  0  0  0
   -2.9956   -5.3921   -3.5621 H   0  0  0  0  0  0  0  0  0  0  0  0
   -3.1927   -4.4449   -5.0457 H   0  0  0  0  0  0  0  0  0  0  0  0
   -1.9498   -3.4875   -2.4237 H   0  0  0  0  0  0  0  0  0  0  0  0
   -2.2036   -2.4388   -3.8421 H   0  0  0  0  0  0  0  0  0  0  0  0
   -0.6804   -4.1279   -5.0781 H   0  0  0  0  0  0  0  0  0  0  0  0
    0.9504   -2.6974   -6.2406 H   0  0  0  0  0  0  0  0  0  0  0  0
    0.8998   -0.7027   -7.6833 H   0  0  0  0  0  0  0  0  0  0  0  0
    0.6716    1.5556   -6.6733 H   0  0  0  0  0  0  0  0  0  0  0  0
    0.6190    1.8021   -4.2365 H   0  0  0  0  0  0  0  0  0  0  0  0
   -0.0824    0.4348   -2.0931 H   0  0  0  0  0  0  0  0  0  0  0  0
    4.0301   -2.2455   -0.5359 H   0  0  0  0  0  0  0  0  0  0  0  0
   -0.4458   -0.8509    1.5855 H   0  0  0  0  0  0  0  0  0  0  0  0
    2.7420   -1.9794    3.0994 H   0  0  0  0  0  0  0  0  0  0  0  0
    2.8591   -3.1633    5.1523 H   0  0  0  0  0  0  0  0  0  0  0  0
    0.2517   -5.8920    6.5232 H   0  0  0  0  0  0  0  0  0  0  0  0
   -1.1022   -4.7963    6.5909 H   0  0  0  0  0  0  0  0  0  0  0  0
   -0.9714   -5.9880    8.7248 H   0  0  0  0  0  0  0  0  0  0  0  0
   -0.6058   -4.2859    9.0205 H   0  0  0  0  0  0  0  0  0  0  0  0
    0.2275   -6.5825   10.7696 H   0  0  0  0  0  0  0  0  0  0  0  0
    0.6648   -4.8925   11.1074 H   0  0  0  0  0  0  0  0  0  0  0  0
    1.9196   -6.1437   10.9623 H   0  0  0  0  0  0  0  0  0  0  0  0
    3.0338   -4.7673    9.2307 H   0  0  0  0  0  0  0  0  0  0  0  0
    1.7424   -3.5660    9.3715 H   0  0  0  0  0  0  0  0  0  0  0  0
    2.6266   -5.0176    6.8185 H   0  0  0  0  0  0  0  0  0  0  0  0
    2.8480   -3.3084    7.2666 H   0  0  0  0  0  0  0  0  0  0  0  0
   -0.7182   -2.3795    7.6313 H   0  0  0  0  0  0  0  0  0  0  0  0
   -2.2527   -3.2623    7.5773 H   0  0  0  0  0  0  0  0  0  0  0  0
   -3.4589   -1.1253    7.3739 H   0  0  0  0  0  0  0  0  0  0  0  0
   -1.9072   -0.2500    7.3546 H   0  0  0  0  0  0  0  0  0  0  0  0
   -2.8050   -0.3367   10.8776 H   0  0  0  0  0  0  0  0  0  0  0  0
   -3.9671   -0.0653    9.5606 H   0  0  0  0  0  0  0  0  0  0  0  0
   -2.3678    0.7613    9.5511 H   0  0  0  0  0  0  0  0  0  0  0  0
   -1.5136   -1.6129    3.5112 H   0  0  0  0  0  0  0  0  0  0  0  0
  1  2  1  0  0  0  0
  1 39  1  0  0  0  0
  1 40  1  0  0  0  0
  1 41  1  0  0  0  0
  2  3  1  0  0  0  0
  2 42  1  0  0  0  0
  2 43  1  0  0  0  0
  3  4  1  0  0  0  0
  3 44  1  0  0  0  0
  4  5  2  0  0  0  0
  4  6  2  0  0  0  0
  4  7  1  0  0  0  0
  7  8  1  0  0  0  0
  7 12  2  0  0  0  0
  8  9  2  0  0  0  0
  8 45  1  0  0  0  0
  9 10  1  0  0  0  0
  9 46  1  0  0  0  0
 10 11  2  0  0  0  0
 10 47  1  0  0  0  0
 11 12  1  0  0  0  0
 11 48  1  0  0  0  0
 12 13  1  0  0  0  0
 13 14  1  0  0  0  0
 13 49  1  0  0  0  0
 14 15  1  0  0  0  0
 14 38  2  0  0  0  0
 15 16  2  0  0  0  0
 16 17  1  0  0  0  0
 16 50  1  0  0  0  0
 17 18  2  0  0  0  0
 18 19  1  0  0  0  0
 18 38  1  0  0  0  0
 19 20  1  0  0  0  0
 19 51  1  0  0  0  0
 20 21  1  0  0  0  0
 20 37  2  0  0  0  0
 21 22  2  0  0  0  0
 21 52  1  0  0  0  0
 22 23  1  0  0  0  0
 22 53  1  0  0  0  0
 23 24  1  0  0  0  0
 23 31  2  0  0  0  0
 24 25  1  0  0  0  0
 24 30  1  0  0  0  0
 25 26  1  0  0  0  0
 25 54  1  0  0  0  0
 25 55  1  0  0  0  0
 26 27  1  0  0  0  0
 26 56  1  0  0  0  0
 26 57  1  0  0  0  0
 27 28  1  0  0  0  0
 27 29  1  0  0  0  0
 28 58  1  0  0  0  0
 28 59  1  0  0  0  0
 28 60  1  0  0  0  0
 29 30  1  0  0  0  0
 29 61  1  0  0  0  0
 29 62  1  0  0  0  0
 30 63  1  0  0  0  0
 30 64  1  0  0  0  0
 31 32  1  0  0  0  0
 31 37  1  0  0  0  0
 32 33  1  0  0  0  0
 33 34  1  0  0  0  0
 33 65  1  0  0  0  0
 33 66  1  0  0  0  0
 34 35  1  0  0  0  0
 34 67  1  0  0  0  0
 34 68  1  0  0  0  0
 35 36  1  0  0  0  0
 36 69  1  0  0  0  0
 36 70  1  0  0  0  0
 36 71  1  0  0  0  0
 37 72  1  0  0  0  0
M  END
$$$$
