CHEMBL2113178
 OpenBabel04072215363D

 43 45  0  0  0  0  0  0  0  0999 V2000
    1.1969   -2.2992   -1.9442 C   0  0  0  0  0  0  0  0  0  0  0  0
    2.1015   -2.3943   -0.8502 O   0  0  0  0  0  0  0  0  0  0  0  0
    3.1685   -1.4595   -1.0013 C   0  0  0  0  0  0  0  0  0  0  0  0
    4.0921   -1.4714    0.2096 C   0  0  0  0  0  0  0  0  0  0  0  0
    4.7651   -2.7145    0.3506 O   0  0  0  0  0  0  0  0  0  0  0  0
    6.1210   -2.7331    0.5201 C   0  0  0  0  0  0  0  0  0  0  0  0
    6.6796   -3.9131   -0.0277 C   0  0  0  0  0  0  0  0  0  0  0  0
    8.0447   -4.1878   -0.0436 C   0  0  0  0  0  0  0  0  0  0  0  0
    8.5012   -5.2989   -0.6355 N   0  0  0  0  0  0  0  0  0  0  0  0
    9.8275   -5.4866   -0.6341 C   0  0  0  0  0  0  0  0  0  0  0  0
   10.7332   -4.6821   -0.0712 N   0  0  0  0  0  0  0  0  0  0  0  0
   10.2581   -3.5841    0.5429 C   0  0  0  0  0  0  0  0  0  0  0  0
   11.1772   -2.7136    1.2009 N   0  0  0  0  0  0  0  0  0  0  0  0
   12.5506   -2.8421    1.0517 C   0  0  0  0  0  0  0  0  0  0  0  0
   13.1958   -2.9060   -0.1257 C   0  0  0  0  0  0  0  0  0  0  0  0
   14.6502   -3.0829   -0.2222 C   0  0  0  0  0  0  0  0  0  0  0  0
   15.2178   -3.1034   -1.3055 O   0  0  0  0  0  0  0  0  0  0  0  0
   15.4055   -3.2477    1.0289 C   0  0  0  0  0  0  0  0  0  0  0  0
   14.8030   -3.1435    2.2157 C   0  0  0  0  0  0  0  0  0  0  0  0
   13.3534   -2.8789    2.3179 C   0  0  0  0  0  0  0  0  0  0  0  0
   12.8156   -2.7135    3.4081 O   0  0  0  0  0  0  0  0  0  0  0  0
    8.8929   -3.2638    0.5598 C   0  0  0  0  0  0  0  0  0  0  0  0
    8.3504   -2.0806    1.1127 C   0  0  0  0  0  0  0  0  0  0  0  0
    6.9753   -1.7993    1.1090 C   0  0  0  0  0  0  0  0  0  0  0  0
    6.7450   -0.5554    1.6164 O   0  0  0  0  0  0  0  0  0  0  0  0
    5.6190   -0.2782    2.4302 C   0  0  0  0  0  0  0  0  0  0  0  0
    0.4404   -3.0808   -1.8417 H   0  0  0  0  0  0  0  0  0  0  0  0
    1.7231   -2.4391   -2.8939 H   0  0  0  0  0  0  0  0  0  0  0  0
    0.6991   -1.3244   -1.9337 H   0  0  0  0  0  0  0  0  0  0  0  0
    2.7434   -0.4528   -1.0900 H   0  0  0  0  0  0  0  0  0  0  0  0
    3.7373   -1.6995   -1.9048 H   0  0  0  0  0  0  0  0  0  0  0  0
    3.4888   -1.3290    1.1123 H   0  0  0  0  0  0  0  0  0  0  0  0
    4.7876   -0.6455    0.0581 H   0  0  0  0  0  0  0  0  0  0  0  0
    6.0137   -4.6371   -0.4991 H   0  0  0  0  0  0  0  0  0  0  0  0
   10.2032   -6.3738   -1.1325 H   0  0  0  0  0  0  0  0  0  0  0  0
   10.9361   -2.6665    2.1939 H   0  0  0  0  0  0  0  0  0  0  0  0
   12.6598   -2.8541   -1.0640 H   0  0  0  0  0  0  0  0  0  0  0  0
   16.4663   -3.4513    0.9291 H   0  0  0  0  0  0  0  0  0  0  0  0
   15.3431   -3.2503    3.1477 H   0  0  0  0  0  0  0  0  0  0  0  0
    9.0217   -1.3351    1.5373 H   0  0  0  0  0  0  0  0  0  0  0  0
    5.9605    0.2237    3.3404 H   0  0  0  0  0  0  0  0  0  0  0  0
    5.0422   -1.1592    2.7173 H   0  0  0  0  0  0  0  0  0  0  0  0
    4.9939    0.4505    1.9020 H   0  0  0  0  0  0  0  0  0  0  0  0
  1  2  1  0  0  0  0
  1 27  1  0  0  0  0
  1 28  1  0  0  0  0
  1 29  1  0  0  0  0
  2  3  1  0  0  0  0
  3  4  1  0  0  0  0
  3 30  1  0  0  0  0
  3 31  1  0  0  0  0
  4  5  1  0  0  0  0
  4 32  1  0  0  0  0
  4 33  1  0  0  0  0
  5  6  1  0  0  0  0
  6  7  1  0  0  0  0
  6 24  2  0  0  0  0
  7  8  2  0  0  0  0
  7 34  1  0  0  0  0
  8  9  1  0  0  0  0
  8 22  1  0  0  0  0
  9 10  2  0  0  0  0
 10 11  1  0  0  0  0
 10 35  1  0  0  0  0
 11 12  2  0  0  0  0
 12 13  1  0  0  0  0
 12 22  1  0  0  0  0
 13 14  1  0  0  0  0
 13 36  1  0  0  0  0
 14 15  2  0  0  0  0
 14 20  1  0  0  0  0
 15 16  1  0  0  0  0
 15 37  1  0  0  0  0
 16 17  2  0  0  0  0
 16 18  1  0  0  0  0
 18 19  2  0  0  0  0
 18 38  1  0  0  0  0
 19 20  1  0  0  0  0
 19 39  1  0  0  0  0
 20 21  2  0  0  0  0
 22 23  2  0  0  0  0
 23 24  1  0  0  0  0
 23 40  1  0  0  0  0
 24 25  1  0  0  0  0
 25 26  1  0  0  0  0
 26 41  1  0  0  0  0
 26 42  1  0  0  0  0
 26 43  1  0  0  0  0
M  END
$$$$
