CHEMBL3702612
 OpenBabel04072215373D

 54 57  0  0  0  0  0  0  0  0999 V2000
    1.1645   -0.5493   -0.3323 C   0  0  0  0  0  0  0  0  0  0  0  0
    2.5511   -0.0512    0.0908 C   0  0  0  0  0  0  0  0  0  0  0  0
    3.5415   -1.2157    0.0629 C   0  0  0  0  0  0  0  0  0  0  0  0
    2.9763    1.1714   -0.7100 C   0  0  0  0  0  0  0  0  0  0  0  0
    2.5932    2.4277   -0.2409 C   0  0  0  0  0  0  0  0  0  0  0  0
    2.8996    3.5968   -0.9482 C   0  0  0  0  0  0  0  0  0  0  0  0
    3.6012    3.5494   -2.1496 C   0  0  0  0  0  0  0  0  0  0  0  0
    3.8859    4.7071   -2.9252 N   0  0  0  0  0  0  0  0  0  0  0  0
    3.4918    5.9996   -2.6071 C   0  0  0  0  0  0  0  0  0  0  0  0
    2.8962    6.3525   -1.5956 O   0  0  0  0  0  0  0  0  0  0  0  0
    3.8157    7.0745   -3.5860 C   0  0  0  0  0  0  0  0  0  0  0  0
    3.9521    6.8397   -4.9520 C   0  0  0  0  0  0  0  0  0  0  0  0
    4.1500    7.9183   -5.8104 C   0  0  0  0  0  0  0  0  0  0  0  0
    4.2013    9.2239   -5.3067 C   0  0  0  0  0  0  0  0  0  0  0  0
    4.0588    9.4969   -3.9385 C   0  0  0  0  0  0  0  0  0  0  0  0
    4.0653   10.7906   -3.4547 N   0  0  0  0  0  0  0  0  0  0  0  0
    3.3250   11.1795   -2.2498 C   0  0  0  0  0  0  0  0  0  0  0  0
    4.2985   11.5338   -1.1293 C   0  0  0  0  0  0  0  0  0  0  0  0
    5.3966   12.4470   -1.6100 C   0  0  0  0  0  0  0  0  0  0  0  0
    6.0703   13.1425   -0.6633 N   0  0  0  0  0  0  0  0  0  0  0  0
    7.0515   13.9486   -1.0808 C   0  0  0  0  0  0  0  0  0  0  0  0
    7.7272   14.6883   -0.1335 N   0  0  0  0  0  0  0  0  0  0  0  0
    7.4461   14.0764   -2.3493 N   0  0  0  0  0  0  0  0  0  0  0  0
    6.7604   13.3648   -3.2628 C   0  0  0  0  0  0  0  0  0  0  0  0
    5.7116   12.5249   -2.9554 C   0  0  0  0  0  0  0  0  0  0  0  0
    4.9405   11.8132   -4.0266 C   0  0  0  0  0  0  0  0  0  0  0  0
    3.8770    8.3936   -3.0971 C   0  0  0  0  0  0  0  0  0  0  0  0
    4.0245    2.2990   -2.6137 C   0  0  0  0  0  0  0  0  0  0  0  0
    3.7069    1.1213   -1.9068 C   0  0  0  0  0  0  0  0  0  0  0  0
    0.8675   -1.4155    0.2716 H   0  0  0  0  0  0  0  0  0  0  0  0
    1.1503   -0.8543   -1.3840 H   0  0  0  0  0  0  0  0  0  0  0  0
    0.3990    0.2218   -0.1932 H   0  0  0  0  0  0  0  0  0  0  0  0
    2.4787    0.2584    1.1434 H   0  0  0  0  0  0  0  0  0  0  0  0
    3.6736   -1.6177   -0.9462 H   0  0  0  0  0  0  0  0  0  0  0  0
    3.1791   -2.0354    0.6946 H   0  0  0  0  0  0  0  0  0  0  0  0
    4.5201   -0.9093    0.4454 H   0  0  0  0  0  0  0  0  0  0  0  0
    2.0443    2.5325    0.6943 H   0  0  0  0  0  0  0  0  0  0  0  0
    2.5570    4.5287   -0.5132 H   0  0  0  0  0  0  0  0  0  0  0  0
    4.4163    4.5545   -3.7692 H   0  0  0  0  0  0  0  0  0  0  0  0
    3.8538    5.8463   -5.3738 H   0  0  0  0  0  0  0  0  0  0  0  0
    4.2246    7.7532   -6.8827 H   0  0  0  0  0  0  0  0  0  0  0  0
    4.2977   10.0396   -6.0193 H   0  0  0  0  0  0  0  0  0  0  0  0
    2.6208   10.4105   -1.9126 H   0  0  0  0  0  0  0  0  0  0  0  0
    2.7034   12.0518   -2.4929 H   0  0  0  0  0  0  0  0  0  0  0  0
    4.7596   10.6213   -0.7336 H   0  0  0  0  0  0  0  0  0  0  0  0
    3.7487   12.0136   -0.3115 H   0  0  0  0  0  0  0  0  0  0  0  0
    7.6720   14.2329    0.7655 H   0  0  0  0  0  0  0  0  0  0  0  0
    8.6440   14.9284   -0.4828 H   0  0  0  0  0  0  0  0  0  0  0  0
    7.0911   13.5071   -4.2878 H   0  0  0  0  0  0  0  0  0  0  0  0
    5.6577   11.3831   -4.7362 H   0  0  0  0  0  0  0  0  0  0  0  0
    4.3279   12.5461   -4.5654 H   0  0  0  0  0  0  0  0  0  0  0  0
    3.7780    8.5427   -2.0232 H   0  0  0  0  0  0  0  0  0  0  0  0
    4.5973    2.2107   -3.5329 H   0  0  0  0  0  0  0  0  0  0  0  0
    4.0382    0.1701   -2.3138 H   0  0  0  0  0  0  0  0  0  0  0  0
  1  2  1  0  0  0  0
  1 30  1  0  0  0  0
  1 31  1  0  0  0  0
  1 32  1  0  0  0  0
  2  3  1  0  0  0  0
  2  4  1  0  0  0  0
  2 33  1  0  0  0  0
  3 34  1  0  0  0  0
  3 35  1  0  0  0  0
  3 36  1  0  0  0  0
  4  5  1  0  0  0  0
  4 29  2  0  0  0  0
  5  6  2  0  0  0  0
  5 37  1  0  0  0  0
  6  7  1  0  0  0  0
  6 38  1  0  0  0  0
  7  8  1  0  0  0  0
  7 28  2  0  0  0  0
  8  9  1  0  0  0  0
  8 39  1  0  0  0  0
  9 10  2  0  0  0  0
  9 11  1  0  0  0  0
 11 12  1  0  0  0  0
 11 27  2  0  0  0  0
 12 13  2  0  0  0  0
 12 40  1  0  0  0  0
 13 14  1  0  0  0  0
 13 41  1  0  0  0  0
 14 15  2  0  0  0  0
 14 42  1  0  0  0  0
 15 16  1  0  0  0  0
 15 27  1  0  0  0  0
 16 17  1  0  0  0  0
 16 26  1  0  0  0  0
 17 18  1  0  0  0  0
 17 43  1  0  0  0  0
 17 44  1  0  0  0  0
 18 19  1  0  0  0  0
 18 45  1  0  0  0  0
 18 46  1  0  0  0  0
 19 20  1  0  0  0  0
 19 25  2  0  0  0  0
 20 21  2  0  0  0  0
 21 22  1  0  0  0  0
 21 23  1  0  0  0  0
 22 47  1  0  0  0  0
 22 48  1  0  0  0  0
 23 24  2  0  0  0  0
 24 25  1  0  0  0  0
 24 49  1  0  0  0  0
 25 26  1  0  0  0  0
 26 50  1  0  0  0  0
 26 51  1  0  0  0  0
 27 52  1  0  0  0  0
 28 29  1  0  0  0  0
 28 53  1  0  0  0  0
 29 54  1  0  0  0  0
M  END
$$$$
