CHEMBL4465496
 OpenBabel04072215383D

 57 60  0  0  0  0  0  0  0  0999 V2000
    1.1370    0.4939   -0.2096 O   0  0  0  0  0  0  0  0  0  0  0  0
    2.2267   -0.0183    0.0338 C   0  0  0  0  0  0  0  0  0  0  0  0
    2.9232    0.1917    1.3802 C   0  0  0  0  0  0  0  0  0  0  0  0
    1.7171    0.4022    2.7377 S   0  0  0  0  0  0  0  0  0  0  0  0
    2.7223    0.9427    4.0914 C   0  0  0  0  0  0  0  0  0  0  0  0
    4.2601    0.2950    4.3428 S   0  0  0  0  0  0  0  0  0  0  0  0
    2.1403    1.9089    4.9219 N   0  0  0  0  0  0  0  0  0  0  0  0
    0.6792    2.1139    5.0946 C   0  0  0  0  0  0  0  0  0  0  0  0
    0.2875    3.6017    4.9938 C   0  0  0  0  0  0  0  0  0  0  0  0
    1.1190    4.3851    5.9061 N   0  0  0  0  0  0  0  0  0  0  0  0
    0.5832    5.3567    6.7082 C   0  0  0  0  0  0  0  0  0  0  0  0
   -0.7521    5.4942    6.7588 N   0  0  0  0  0  0  0  0  0  0  0  0
   -1.2612    6.4139    7.6003 C   0  0  0  0  0  0  0  0  0  0  0  0
   -0.4924    7.2145    8.4024 C   0  0  0  0  0  0  0  0  0  0  0  0
    0.8575    7.0172    8.2852 C   0  0  0  0  0  0  0  0  0  0  0  0
    1.4077    6.1079    7.4584 N   0  0  0  0  0  0  0  0  0  0  0  0
    2.5630    4.2222    5.7742 C   0  0  0  0  0  0  0  0  0  0  0  0
    2.9277    2.7261    5.8772 C   0  0  0  0  0  0  0  0  0  0  0  0
    2.9858   -0.7779   -0.8671 N   0  0  0  0  0  0  0  0  0  0  0  0
    2.6233   -1.1323   -2.1959 C   0  0  0  0  0  0  0  0  0  0  0  0
    1.3953   -0.7760   -2.7552 C   0  0  0  0  0  0  0  0  0  0  0  0
    1.0575   -1.1718   -4.0444 C   0  0  0  0  0  0  0  0  0  0  0  0
    1.9630   -1.8947   -4.8111 C   0  0  0  0  0  0  0  0  0  0  0  0
    3.2291   -2.2139   -4.3186 C   0  0  0  0  0  0  0  0  0  0  0  0
    4.2033   -2.8489   -5.1318 N   0  0  0  0  0  0  0  0  0  0  0  0
    4.1438   -2.9647   -6.5189 C   0  0  0  0  0  0  0  0  0  0  0  0
    3.2374   -2.5691   -7.2474 O   0  0  0  0  0  0  0  0  0  0  0  0
    5.3360   -3.5931   -7.1698 C   0  0  0  0  0  0  0  0  0  0  0  0
    5.3653   -3.6953   -8.5600 C   0  0  0  0  0  0  0  0  0  0  0  0
    6.4841   -4.2566   -9.1642 C   0  0  0  0  0  0  0  0  0  0  0  0
    7.5342   -4.6951   -8.3665 C   0  0  0  0  0  0  0  0  0  0  0  0
    7.4151   -4.5575   -6.9897 C   0  0  0  0  0  0  0  0  0  0  0  0
    6.3426   -4.0144   -6.3602 N   0  0  0  0  0  0  0  0  0  0  0  0
    3.5387   -1.8647   -2.9882 C   0  0  0  0  0  0  0  0  0  0  0  0
    3.5479    1.0862    1.2878 H   0  0  0  0  0  0  0  0  0  0  0  0
    3.5485   -0.6786    1.5961 H   0  0  0  0  0  0  0  0  0  0  0  0
    0.4402    1.7510    6.1045 H   0  0  0  0  0  0  0  0  0  0  0  0
    0.0762    1.5196    4.4079 H   0  0  0  0  0  0  0  0  0  0  0  0
   -0.7846    3.6879    5.2017 H   0  0  0  0  0  0  0  0  0  0  0  0
    0.4504    3.9544    3.9680 H   0  0  0  0  0  0  0  0  0  0  0  0
   -2.3447    6.4812    7.6090 H   0  0  0  0  0  0  0  0  0  0  0  0
   -0.9177    7.9439    9.0754 H   0  0  0  0  0  0  0  0  0  0  0  0
    1.5648    7.5953    8.8719 H   0  0  0  0  0  0  0  0  0  0  0  0
    3.1381    4.7667    6.5312 H   0  0  0  0  0  0  0  0  0  0  0  0
    2.8755    4.6057    4.7946 H   0  0  0  0  0  0  0  0  0  0  0  0
    2.7030    2.3535    6.8847 H   0  0  0  0  0  0  0  0  0  0  0  0
    4.0022    2.6250    5.7142 H   0  0  0  0  0  0  0  0  0  0  0  0
    3.8902   -1.1081   -0.5535 H   0  0  0  0  0  0  0  0  0  0  0  0
    0.6573   -0.1917   -2.2183 H   0  0  0  0  0  0  0  0  0  0  0  0
    0.0887   -0.9081   -4.4582 H   0  0  0  0  0  0  0  0  0  0  0  0
    1.6357   -2.2001   -5.7994 H   0  0  0  0  0  0  0  0  0  0  0  0
    5.0798   -3.1478   -4.7133 H   0  0  0  0  0  0  0  0  0  0  0  0
    4.5327   -3.3353   -9.1629 H   0  0  0  0  0  0  0  0  0  0  0  0
    6.5344   -4.3385  -10.2442 H   0  0  0  0  0  0  0  0  0  0  0  0
    8.4203   -5.1362   -8.8134 H   0  0  0  0  0  0  0  0  0  0  0  0
    8.2126   -4.9001   -6.3373 H   0  0  0  0  0  0  0  0  0  0  0  0
    4.5091   -2.1348   -2.5812 H   0  0  0  0  0  0  0  0  0  0  0  0
  1  2  2  0  0  0  0
  2  3  1  0  0  0  0
  2 19  1  0  0  0  0
  3  4  1  0  0  0  0
  3 35  1  0  0  0  0
  3 36  1  0  0  0  0
  4  5  1  0  0  0  0
  5  6  2  0  0  0  0
  5  7  1  0  0  0  0
  7  8  1  0  0  0  0
  7 18  1  0  0  0  0
  8  9  1  0  0  0  0
  8 37  1  0  0  0  0
  8 38  1  0  0  0  0
  9 10  1  0  0  0  0
  9 39  1  0  0  0  0
  9 40  1  0  0  0  0
 10 11  1  0  0  0  0
 10 17  1  0  0  0  0
 11 12  1  0  0  0  0
 11 16  2  0  0  0  0
 12 13  2  0  0  0  0
 13 14  1  0  0  0  0
 13 41  1  0  0  0  0
 14 15  2  0  0  0  0
 14 42  1  0  0  0  0
 15 16  1  0  0  0  0
 15 43  1  0  0  0  0
 17 18  1  0  0  0  0
 17 44  1  0  0  0  0
 17 45  1  0  0  0  0
 18 46  1  0  0  0  0
 18 47  1  0  0  0  0
 19 20  1  0  0  0  0
 19 48  1  0  0  0  0
 20 21  1  0  0  0  0
 20 34  2  0  0  0  0
 21 22  2  0  0  0  0
 21 49  1  0  0  0  0
 22 23  1  0  0  0  0
 22 50  1  0  0  0  0
 23 24  2  0  0  0  0
 23 51  1  0  0  0  0
 24 25  1  0  0  0  0
 24 34  1  0  0  0  0
 25 26  1  0  0  0  0
 25 52  1  0  0  0  0
 26 27  2  0  0  0  0
 26 28  1  0  0  0  0
 28 29  1  0  0  0  0
 28 33  2  0  0  0  0
 29 30  2  0  0  0  0
 29 53  1  0  0  0  0
 30 31  1  0  0  0  0
 30 54  1  0  0  0  0
 31 32  2  0  0  0  0
 31 55  1  0  0  0  0
 32 33  1  0  0  0  0
 32 56  1  0  0  0  0
 34 57  1  0  0  0  0
M  END
$$$$
