CHEMBL4455006
 OpenBabel04072215383D

 75 80  0  0  0  0  0  0  0  0999 V2000
    6.5086   -6.5289    0.8869 O   0  0  0  0  0  0  0  0  0  0  0  0
    6.4199   -7.5222    0.1784 C   0  0  0  0  0  0  0  0  0  0  0  0
    5.2318   -8.0410   -0.2948 N   0  0  0  0  0  0  0  0  0  0  0  0
    3.9592   -7.5174    0.0396 C   0  0  0  0  0  0  0  0  0  0  0  0
    3.7747   -6.2357    0.5689 C   0  0  0  0  0  0  0  0  0  0  0  0
    2.5142   -5.8026    0.9653 C   0  0  0  0  0  0  0  0  0  0  0  0
    1.4146   -6.6353    0.8032 C   0  0  0  0  0  0  0  0  0  0  0  0
    0.2299   -6.1271    1.2637 O   0  0  0  0  0  0  0  0  0  0  0  0
   -0.9207   -6.4073    0.5520 C   0  0  0  0  0  0  0  0  0  0  0  0
   -0.7997   -6.6129   -0.7804 N   0  0  0  0  0  0  0  0  0  0  0  0
   -1.9251   -6.9137   -1.4152 C   0  0  0  0  0  0  0  0  0  0  0  0
   -3.1263   -7.0083   -0.8528 N   0  0  0  0  0  0  0  0  0  0  0  0
   -3.2073   -6.7508    0.4539 C   0  0  0  0  0  0  0  0  0  0  0  0
   -4.4584   -6.8414    1.0199 C   0  0  0  0  0  0  0  0  0  0  0  0
   -4.7050   -6.5810    2.3708 C   0  0  0  0  0  0  0  0  0  0  0  0
   -5.9622   -6.6584    2.9236 O   0  0  0  0  0  0  0  0  0  0  0  0
   -6.9958   -7.0755    2.0222 C   0  0  0  0  0  0  0  0  0  0  0  0
   -8.3362   -7.1270    2.7305 C   0  0  0  0  0  0  0  0  0  0  0  0
   -8.3200   -8.1588    3.8566 C   0  0  0  0  0  0  0  0  0  0  0  0
   -9.6341   -8.3173    4.4993 N   0  0  0  0  0  0  0  0  0  0  0  0
  -10.1121   -7.0929    5.1803 C   0  0  0  0  0  0  0  0  0  0  0  0
   -9.3543   -6.7467    6.4734 C   0  0  0  0  0  0  0  0  0  0  0  0
   -9.3363   -7.8485    7.3905 O   0  0  0  0  0  0  0  0  0  0  0  0
   -8.7920   -9.0215    6.7734 C   0  0  0  0  0  0  0  0  0  0  0  0
   -9.5845   -9.4001    5.5101 C   0  0  0  0  0  0  0  0  0  0  0  0
   -3.6339   -6.2165    3.1946 C   0  0  0  0  0  0  0  0  0  0  0  0
   -2.3396   -6.1664    2.6526 C   0  0  0  0  0  0  0  0  0  0  0  0
   -2.1256   -6.4215    1.2633 C   0  0  0  0  0  0  0  0  0  0  0  0
   -1.2377   -5.8569    3.4229 O   0  0  0  0  0  0  0  0  0  0  0  0
   -1.4997   -5.9341    4.8262 C   0  0  0  0  0  0  0  0  0  0  0  0
   -2.8082   -5.2420    5.1467 C   0  0  0  0  0  0  0  0  0  0  0  0
   -3.8962   -5.9280    4.5144 O   0  0  0  0  0  0  0  0  0  0  0  0
    1.5728   -7.9161    0.2696 C   0  0  0  0  0  0  0  0  0  0  0  0
    2.8378   -8.3358   -0.1268 C   0  0  0  0  0  0  0  0  0  0  0  0
    2.9831   -9.5682   -0.6413 F   0  0  0  0  0  0  0  0  0  0  0  0
    7.5134   -8.2775   -0.1962 N   0  0  0  0  0  0  0  0  0  0  0  0
    8.7972   -8.1284    0.3821 C   0  0  0  0  0  0  0  0  0  0  0  0
    8.9899   -7.5417    1.6398 C   0  0  0  0  0  0  0  0  0  0  0  0
   10.2670   -7.4207    2.2065 C   0  0  0  0  0  0  0  0  0  0  0  0
   10.4346   -6.7945    3.5710 C   0  0  0  0  0  0  0  0  0  0  0  0
    9.2726   -6.3343    4.1133 F   0  0  0  0  0  0  0  0  0  0  0  0
   10.9414   -7.6737    4.4792 F   0  0  0  0  0  0  0  0  0  0  0  0
   11.2864   -5.7331    3.5596 F   0  0  0  0  0  0  0  0  0  0  0  0
   11.3693   -7.9110    1.4927 C   0  0  0  0  0  0  0  0  0  0  0  0
   11.1901   -8.5089    0.2416 C   0  0  0  0  0  0  0  0  0  0  0  0
    9.9104   -8.6186   -0.2997 C   0  0  0  0  0  0  0  0  0  0  0  0
    9.7553   -9.1964   -1.5010 F   0  0  0  0  0  0  0  0  0  0  0  0
    5.2392   -8.9884   -0.6516 H   0  0  0  0  0  0  0  0  0  0  0  0
    4.5936   -5.5365    0.6966 H   0  0  0  0  0  0  0  0  0  0  0  0
    2.3955   -4.8135    1.4003 H   0  0  0  0  0  0  0  0  0  0  0  0
   -1.8576   -7.1189   -2.4785 H   0  0  0  0  0  0  0  0  0  0  0  0
   -5.2578   -7.1184    0.3351 H   0  0  0  0  0  0  0  0  0  0  0  0
   -6.7670   -8.0724    1.6232 H   0  0  0  0  0  0  0  0  0  0  0  0
   -7.0841   -6.3510    1.2035 H   0  0  0  0  0  0  0  0  0  0  0  0
   -9.1136   -7.3805    1.9997 H   0  0  0  0  0  0  0  0  0  0  0  0
   -8.5472   -6.1278    3.1222 H   0  0  0  0  0  0  0  0  0  0  0  0
   -7.5367   -7.9021    4.5772 H   0  0  0  0  0  0  0  0  0  0  0  0
   -8.0365   -9.1249    3.4162 H   0  0  0  0  0  0  0  0  0  0  0  0
  -11.1667   -7.2602    5.4339 H   0  0  0  0  0  0  0  0  0  0  0  0
  -10.1171   -6.2303    4.5070 H   0  0  0  0  0  0  0  0  0  0  0  0
   -9.8613   -5.9164    6.9759 H   0  0  0  0  0  0  0  0  0  0  0  0
   -8.3262   -6.4273    6.2683 H   0  0  0  0  0  0  0  0  0  0  0  0
   -8.8514   -9.8360    7.5016 H   0  0  0  0  0  0  0  0  0  0  0  0
   -7.7294   -8.8585    6.5593 H   0  0  0  0  0  0  0  0  0  0  0  0
  -10.6186   -9.6247    5.8012 H   0  0  0  0  0  0  0  0  0  0  0  0
   -9.1838  -10.3201    5.0686 H   0  0  0  0  0  0  0  0  0  0  0  0
   -0.6691   -5.4450    5.3469 H   0  0  0  0  0  0  0  0  0  0  0  0
   -1.5130   -6.9894    5.1241 H   0  0  0  0  0  0  0  0  0  0  0  0
   -2.8027   -4.1984    4.8074 H   0  0  0  0  0  0  0  0  0  0  0  0
   -2.9852   -5.2464    6.2275 H   0  0  0  0  0  0  0  0  0  0  0  0
    0.7315   -8.5899    0.1536 H   0  0  0  0  0  0  0  0  0  0  0  0
    7.4652   -8.7682   -1.0800 H   0  0  0  0  0  0  0  0  0  0  0  0
    8.1439   -7.1797    2.2210 H   0  0  0  0  0  0  0  0  0  0  0  0
   12.3696   -7.8348    1.9164 H   0  0  0  0  0  0  0  0  0  0  0  0
   12.0411   -8.8923   -0.3130 H   0  0  0  0  0  0  0  0  0  0  0  0
  1  2  2  0  0  0  0
  2  3  1  0  0  0  0
  2 36  1  0  0  0  0
  3  4  1  0  0  0  0
  3 48  1  0  0  0  0
  4  5  1  0  0  0  0
  4 34  2  0  0  0  0
  5  6  2  0  0  0  0
  5 49  1  0  0  0  0
  6  7  1  0  0  0  0
  6 50  1  0  0  0  0
  7  8  1  0  0  0  0
  7 33  2  0  0  0  0
  8  9  1  0  0  0  0
  9 10  1  0  0  0  0
  9 28  2  0  0  0  0
 10 11  2  0  0  0  0
 11 12  1  0  0  0  0
 11 51  1  0  0  0  0
 12 13  2  0  0  0  0
 13 14  1  0  0  0  0
 13 28  1  0  0  0  0
 14 15  2  0  0  0  0
 14 52  1  0  0  0  0
 15 16  1  0  0  0  0
 15 26  1  0  0  0  0
 16 17  1  0  0  0  0
 17 18  1  0  0  0  0
 17 53  1  0  0  0  0
 17 54  1  0  0  0  0
 18 19  1  0  0  0  0
 18 55  1  0  0  0  0
 18 56  1  0  0  0  0
 19 20  1  0  0  0  0
 19 57  1  0  0  0  0
 19 58  1  0  0  0  0
 20 21  1  0  0  0  0
 20 25  1  0  0  0  0
 21 22  1  0  0  0  0
 21 59  1  0  0  0  0
 21 60  1  0  0  0  0
 22 23  1  0  0  0  0
 22 61  1  0  0  0  0
 22 62  1  0  0  0  0
 23 24  1  0  0  0  0
 24 25  1  0  0  0  0
 24 63  1  0  0  0  0
 24 64  1  0  0  0  0
 25 65  1  0  0  0  0
 25 66  1  0  0  0  0
 26 27  2  0  0  0  0
 26 32  1  0  0  0  0
 27 28  1  0  0  0  0
 27 29  1  0  0  0  0
 29 30  1  0  0  0  0
 30 31  1  0  0  0  0
 30 67  1  0  0  0  0
 30 68  1  0  0  0  0
 31 32  1  0  0  0  0
 31 69  1  0  0  0  0
 31 70  1  0  0  0  0
 33 34  1  0  0  0  0
 33 71  1  0  0  0  0
 34 35  1  0  0  0  0
 36 37  1  0  0  0  0
 36 72  1  0  0  0  0
 37 38  1  0  0  0  0
 37 46  2  0  0  0  0
 38 39  2  0  0  0  0
 38 73  1  0  0  0  0
 39 40  1  0  0  0  0
 39 44  1  0  0  0  0
 40 41  1  0  0  0  0
 40 42  1  0  0  0  0
 40 43  1  0  0  0  0
 44 45  2  0  0  0  0
 44 74  1  0  0  0  0
 45 46  1  0  0  0  0
 45 75  1  0  0  0  0
 46 47  1  0  0  0  0
M  END
$$$$
