CHEMBL1242756
 OpenBabel04072215363D

 33 36  0  0  0  0  0  0  0  0999 V2000
    1.2057    0.0334   -0.1609 C   0  0  0  0  0  0  0  0  0  0  0  0
    2.6401    0.0390   -0.3079 N   0  0  0  0  0  0  0  0  0  0  0  0
    3.3004    1.2054   -0.3698 N   0  0  0  0  0  0  0  0  0  0  0  0
    4.6037    0.8643   -0.2896 C   0  0  0  0  0  0  0  0  0  0  0  0
    5.5857    1.9315   -0.0557 C   0  0  0  0  0  0  0  0  0  0  0  0
    5.1977    2.9735    0.7980 C   0  0  0  0  0  0  0  0  0  0  0  0
    6.0820    3.9913    1.1506 C   0  0  0  0  0  0  0  0  0  0  0  0
    7.3727    4.0155    0.6712 C   0  0  0  0  0  0  0  0  0  0  0  0
    8.1729    5.0117    1.0808 N   0  0  0  0  0  0  0  0  0  0  0  0
    9.4347    5.0386    0.6128 C   0  0  0  0  0  0  0  0  0  0  0  0
    9.9493    4.1011   -0.2584 C   0  0  0  0  0  0  0  0  0  0  0  0
    9.1116    3.0640   -0.6790 C   0  0  0  0  0  0  0  0  0  0  0  0
    7.7858    2.9952   -0.2162 C   0  0  0  0  0  0  0  0  0  0  0  0
    6.8810    1.9662   -0.5898 C   0  0  0  0  0  0  0  0  0  0  0  0
    4.7570   -0.5598   -0.2825 C   0  0  0  0  0  0  0  0  0  0  0  0
    5.7713   -1.5226   -0.2014 C   0  0  0  0  0  0  0  0  0  0  0  0
    7.1336   -1.2537   -0.1563 N   0  0  0  0  0  0  0  0  0  0  0  0
    5.4288   -2.8282   -0.1296 N   0  0  0  0  0  0  0  0  0  0  0  0
    4.1237   -3.1580   -0.1207 C   0  0  0  0  0  0  0  0  0  0  0  0
    3.0694   -2.3341   -0.1875 N   0  0  0  0  0  0  0  0  0  0  0  0
    3.4570   -1.0514   -0.2733 C   0  0  0  0  0  0  0  0  0  0  0  0
    0.8389    1.0625   -0.1151 H   0  0  0  0  0  0  0  0  0  0  0  0
    0.9553   -0.4817    0.7714 H   0  0  0  0  0  0  0  0  0  0  0  0
    0.7681   -0.4827   -1.0177 H   0  0  0  0  0  0  0  0  0  0  0  0
    4.1895    2.9976    1.2087 H   0  0  0  0  0  0  0  0  0  0  0  0
    5.7485    4.7770    1.8221 H   0  0  0  0  0  0  0  0  0  0  0  0
   10.0394    5.8668    0.9749 H   0  0  0  0  0  0  0  0  0  0  0  0
   10.9728    4.1747   -0.6021 H   0  0  0  0  0  0  0  0  0  0  0  0
    9.5040    2.3134   -1.3603 H   0  0  0  0  0  0  0  0  0  0  0  0
    7.2015    1.1987   -1.2930 H   0  0  0  0  0  0  0  0  0  0  0  0
    7.3693   -0.4288    0.3797 H   0  0  0  0  0  0  0  0  0  0  0  0
    7.6277   -2.0946    0.1267 H   0  0  0  0  0  0  0  0  0  0  0  0
    3.8994   -4.2174   -0.0372 H   0  0  0  0  0  0  0  0  0  0  0  0
  1  2  1  0  0  0  0
  1 22  1  0  0  0  0
  1 23  1  0  0  0  0
  1 24  1  0  0  0  0
  2  3  1  0  0  0  0
  2 21  1  0  0  0  0
  3  4  2  0  0  0  0
  4  5  1  0  0  0  0
  4 15  1  0  0  0  0
  5  6  1  0  0  0  0
  5 14  2  0  0  0  0
  6  7  2  0  0  0  0
  6 25  1  0  0  0  0
  7  8  1  0  0  0  0
  7 26  1  0  0  0  0
  8  9  1  0  0  0  0
  8 13  2  0  0  0  0
  9 10  2  0  0  0  0
 10 11  1  0  0  0  0
 10 27  1  0  0  0  0
 11 12  2  0  0  0  0
 11 28  1  0  0  0  0
 12 13  1  0  0  0  0
 12 29  1  0  0  0  0
 13 14  1  0  0  0  0
 14 30  1  0  0  0  0
 15 16  1  0  0  0  0
 15 21  2  0  0  0  0
 16 17  1  0  0  0  0
 16 18  2  0  0  0  0
 17 31  1  0  0  0  0
 17 32  1  0  0  0  0
 18 19  1  0  0  0  0
 19 20  2  0  0  0  0
 19 33  1  0  0  0  0
 20 21  1  0  0  0  0
M  END
$$$$
