CHEMBL4238493
 OpenBabel04072215383D

 46 49  0  0  0  0  0  0  0  0999 V2000
    0.9896    0.4873   -0.2385 C   0  0  0  0  0  0  0  0  0  0  0  0
    2.2979    0.0348    0.1064 O   0  0  0  0  0  0  0  0  0  0  0  0
    2.9708   -0.6706   -0.8614 C   0  0  0  0  0  0  0  0  0  0  0  0
    2.6346   -0.5557   -2.2090 C   0  0  0  0  0  0  0  0  0  0  0  0
    3.2994   -1.2673   -3.2163 C   0  0  0  0  0  0  0  0  0  0  0  0
    2.9178   -1.1516   -4.5547 N   0  0  0  0  0  0  0  0  0  0  0  0
    2.1260   -0.2200   -5.2366 C   0  0  0  0  0  0  0  0  0  0  0  0
    1.8182   -0.5786   -6.4960 N   0  0  0  0  0  0  0  0  0  0  0  0
    1.3505    0.3786   -7.3122 C   0  0  0  0  0  0  0  0  0  0  0  0
    1.2182    1.6883   -6.9259 C   0  0  0  0  0  0  0  0  0  0  0  0
    1.3923    1.9404   -5.5748 C   0  0  0  0  0  0  0  0  0  0  0  0
    1.8364    0.9933   -4.7212 N   0  0  0  0  0  0  0  0  0  0  0  0
    1.3670    3.3425   -5.1240 C   0  0  0  0  0  0  0  0  0  0  0  0
    0.4774    3.8374   -4.1635 C   0  0  0  0  0  0  0  0  0  0  0  0
    0.4568    5.2095   -3.8640 C   0  0  0  0  0  0  0  0  0  0  0  0
    1.3906    6.0731   -4.4332 C   0  0  0  0  0  0  0  0  0  0  0  0
    1.3830    7.7455   -4.0226 Cl  0  0  0  0  0  0  0  0  0  0  0  0
    2.2605    5.6222   -5.4184 C   0  0  0  0  0  0  0  0  0  0  0  0
    2.1430    4.2972   -5.8373 C   0  0  0  0  0  0  0  0  0  0  0  0
    2.6002    3.9185   -7.5524 S   0  0  0  0  0  0  0  0  0  0  0  0
    1.1272    2.8353   -7.8720 C   0  0  0  0  0  0  0  0  0  0  0  0
    4.3915   -2.0587   -2.8404 C   0  0  0  0  0  0  0  0  0  0  0  0
    4.7825   -2.1613   -1.4948 C   0  0  0  0  0  0  0  0  0  0  0  0
    5.8124   -2.9664   -1.0674 O   0  0  0  0  0  0  0  0  0  0  0  0
    6.9509   -3.0272   -1.9188 C   0  0  0  0  0  0  0  0  0  0  0  0
    4.0481   -1.4905   -0.4935 C   0  0  0  0  0  0  0  0  0  0  0  0
    4.5127   -1.6617    0.7915 O   0  0  0  0  0  0  0  0  0  0  0  0
    3.5395   -1.6544    1.8258 C   0  0  0  0  0  0  0  0  0  0  0  0
    0.5155    0.8634    0.6706 H   0  0  0  0  0  0  0  0  0  0  0  0
    0.3707   -0.3317   -0.6230 H   0  0  0  0  0  0  0  0  0  0  0  0
    1.0343    1.3180   -0.9516 H   0  0  0  0  0  0  0  0  0  0  0  0
    1.8198    0.0885   -2.5145 H   0  0  0  0  0  0  0  0  0  0  0  0
    3.1622   -1.9080   -5.1728 H   0  0  0  0  0  0  0  0  0  0  0  0
    1.1665    0.0631   -8.3358 H   0  0  0  0  0  0  0  0  0  0  0  0
   -0.2648    3.1793   -3.7183 H   0  0  0  0  0  0  0  0  0  0  0  0
   -0.3115    5.6029   -3.2000 H   0  0  0  0  0  0  0  0  0  0  0  0
    2.9334    6.3068   -5.9210 H   0  0  0  0  0  0  0  0  0  0  0  0
    1.1430    2.5082   -8.9181 H   0  0  0  0  0  0  0  0  0  0  0  0
    0.2074    3.4040   -7.7065 H   0  0  0  0  0  0  0  0  0  0  0  0
    4.9375   -2.6076   -3.6042 H   0  0  0  0  0  0  0  0  0  0  0  0
    7.7873   -3.4191   -1.3293 H   0  0  0  0  0  0  0  0  0  0  0  0
    7.2396   -2.0376   -2.2881 H   0  0  0  0  0  0  0  0  0  0  0  0
    6.7774   -3.7208   -2.7465 H   0  0  0  0  0  0  0  0  0  0  0  0
    3.9716   -2.1600    2.6960 H   0  0  0  0  0  0  0  0  0  0  0  0
    2.6315   -2.2016    1.5451 H   0  0  0  0  0  0  0  0  0  0  0  0
    3.3106   -0.6307    2.1381 H   0  0  0  0  0  0  0  0  0  0  0  0
  1  2  1  0  0  0  0
  1 29  1  0  0  0  0
  1 30  1  0  0  0  0
  1 31  1  0  0  0  0
  2  3  1  0  0  0  0
  3  4  1  0  0  0  0
  3 26  2  0  0  0  0
  4  5  2  0  0  0  0
  4 32  1  0  0  0  0
  5  6  1  0  0  0  0
  5 22  1  0  0  0  0
  6  7  1  0  0  0  0
  6 33  1  0  0  0  0
  7  8  1  0  0  0  0
  7 12  2  0  0  0  0
  8  9  2  0  0  0  0
  9 10  1  0  0  0  0
  9 34  1  0  0  0  0
 10 11  2  0  0  0  0
 10 21  1  0  0  0  0
 11 12  1  0  0  0  0
 11 13  1  0  0  0  0
 13 14  1  0  0  0  0
 13 19  2  0  0  0  0
 14 15  2  0  0  0  0
 14 35  1  0  0  0  0
 15 16  1  0  0  0  0
 15 36  1  0  0  0  0
 16 17  1  0  0  0  0
 16 18  2  0  0  0  0
 18 19  1  0  0  0  0
 18 37  1  0  0  0  0
 19 20  1  0  0  0  0
 20 21  1  0  0  0  0
 21 38  1  0  0  0  0
 21 39  1  0  0  0  0
 22 23  2  0  0  0  0
 22 40  1  0  0  0  0
 23 24  1  0  0  0  0
 23 26  1  0  0  0  0
 24 25  1  0  0  0  0
 25 41  1  0  0  0  0
 25 42  1  0  0  0  0
 25 43  1  0  0  0  0
 26 27  1  0  0  0  0
 27 28  1  0  0  0  0
 28 44  1  0  0  0  0
 28 45  1  0  0  0  0
 28 46  1  0  0  0  0
M  END
$$$$
