CHEMBL220057
 OpenBabel04072215363D

 46 49  0  0  0  0  0  0  0  0999 V2000
    2.4276   -0.3583    1.0860 C   0  0  0  0  0  0  0  0  0  0  0  0
    0.9298   -0.2608    1.1002 C   0  0  0  0  0  0  0  0  0  0  0  0
    0.3280    0.9449    1.4807 C   0  0  0  0  0  0  0  0  0  0  0  0
   -1.0557    1.0516    1.5073 C   0  0  0  0  0  0  0  0  0  0  0  0
   -1.8409   -0.0450    1.1649 C   0  0  0  0  0  0  0  0  0  0  0  0
   -1.2704   -1.2662    0.7644 C   0  0  0  0  0  0  0  0  0  0  0  0
   -2.0578   -2.3952    0.4075 N   0  0  0  0  0  0  0  0  0  0  0  0
   -3.4329   -2.3796    0.2294 C   0  0  0  0  0  0  0  0  0  0  0  0
   -4.1284   -1.3696    0.2634 O   0  0  0  0  0  0  0  0  0  0  0  0
   -3.9745   -3.6480    0.0381 N   0  0  0  0  0  0  0  0  0  0  0  0
   -5.3775   -3.7924   -0.1469 C   0  0  0  0  0  0  0  0  0  0  0  0
   -6.1096   -2.9031   -0.9417 C   0  0  0  0  0  0  0  0  0  0  0  0
   -7.5096   -2.9514   -0.9883 C   0  0  0  0  0  0  0  0  0  0  0  0
   -8.2246   -3.9069   -0.2574 C   0  0  0  0  0  0  0  0  0  0  0  0
   -9.7051   -3.9408   -0.2544 C   0  0  0  0  0  0  0  0  0  0  0  0
  -10.4712   -3.6953   -1.4195 C   0  0  0  0  0  0  0  0  0  0  0  0
  -11.8581   -3.8717   -1.4514 C   0  0  0  0  0  0  0  0  0  0  0  0
  -12.5396   -4.3825   -0.3486 C   0  0  0  0  0  0  0  0  0  0  0  0
  -11.7883   -4.5937    0.8088 C   0  0  0  0  0  0  0  0  0  0  0  0
  -12.1247   -5.1390    2.0183 N   0  0  0  0  0  0  0  0  0  0  0  0
  -11.1929   -4.9838    2.9686 N   0  0  0  0  0  0  0  0  0  0  0  0
  -10.1743   -4.4306    2.3170 C   0  0  0  0  0  0  0  0  0  0  0  0
   -9.0511   -4.0473    2.9359 N   0  0  0  0  0  0  0  0  0  0  0  0
  -10.4311   -4.2938    0.9165 C   0  0  0  0  0  0  0  0  0  0  0  0
   -7.4613   -4.8594    0.4530 C   0  0  0  0  0  0  0  0  0  0  0  0
   -6.0594   -4.8031    0.5201 C   0  0  0  0  0  0  0  0  0  0  0  0
    0.1297   -1.3572    0.7467 C   0  0  0  0  0  0  0  0  0  0  0  0
    2.8895    0.5835    1.4025 H   0  0  0  0  0  0  0  0  0  0  0  0
    2.7862   -0.5756    0.0761 H   0  0  0  0  0  0  0  0  0  0  0  0
    2.7680   -1.1358    1.7769 H   0  0  0  0  0  0  0  0  0  0  0  0
    0.9266    1.8086    1.7496 H   0  0  0  0  0  0  0  0  0  0  0  0
   -1.5320    1.9837    1.7958 H   0  0  0  0  0  0  0  0  0  0  0  0
   -2.9160    0.1003    1.2256 H   0  0  0  0  0  0  0  0  0  0  0  0
   -1.5656   -3.2225    0.1087 H   0  0  0  0  0  0  0  0  0  0  0  0
   -3.5040   -4.3974    0.5250 H   0  0  0  0  0  0  0  0  0  0  0  0
   -5.6012   -2.1303   -1.5148 H   0  0  0  0  0  0  0  0  0  0  0  0
   -8.0278   -2.2045   -1.5855 H   0  0  0  0  0  0  0  0  0  0  0  0
   -9.9777   -3.3825   -2.3379 H   0  0  0  0  0  0  0  0  0  0  0  0
  -12.4074   -3.6478   -2.3637 H   0  0  0  0  0  0  0  0  0  0  0  0
  -13.6062   -4.5787   -0.3859 H   0  0  0  0  0  0  0  0  0  0  0  0
  -12.9776   -5.6301    2.2584 H   0  0  0  0  0  0  0  0  0  0  0  0
   -8.9787   -4.1317    3.9409 H   0  0  0  0  0  0  0  0  0  0  0  0
   -8.3554   -3.4605    2.4876 H   0  0  0  0  0  0  0  0  0  0  0  0
   -7.9639   -5.6472    1.0148 H   0  0  0  0  0  0  0  0  0  0  0  0
   -5.5404   -5.5108    1.1594 H   0  0  0  0  0  0  0  0  0  0  0  0
    0.6063   -2.2920    0.4551 H   0  0  0  0  0  0  0  0  0  0  0  0
  1  2  1  0  0  0  0
  1 28  1  0  0  0  0
  1 29  1  0  0  0  0
  1 30  1  0  0  0  0
  2  3  1  0  0  0  0
  2 27  2  0  0  0  0
  3  4  2  0  0  0  0
  3 31  1  0  0  0  0
  4  5  1  0  0  0  0
  4 32  1  0  0  0  0
  5  6  2  0  0  0  0
  5 33  1  0  0  0  0
  6  7  1  0  0  0  0
  6 27  1  0  0  0  0
  7  8  1  0  0  0  0
  7 34  1  0  0  0  0
  8  9  2  0  0  0  0
  8 10  1  0  0  0  0
 10 11  1  0  0  0  0
 10 35  1  0  0  0  0
 11 12  1  0  0  0  0
 11 26  2  0  0  0  0
 12 13  2  0  0  0  0
 12 36  1  0  0  0  0
 13 14  1  0  0  0  0
 13 37  1  0  0  0  0
 14 15  1  0  0  0  0
 14 25  2  0  0  0  0
 15 16  1  0  0  0  0
 15 24  2  0  0  0  0
 16 17  2  0  0  0  0
 16 38  1  0  0  0  0
 17 18  1  0  0  0  0
 17 39  1  0  0  0  0
 18 19  2  0  0  0  0
 18 40  1  0  0  0  0
 19 20  1  0  0  0  0
 19 24  1  0  0  0  0
 20 21  1  0  0  0  0
 20 41  1  0  0  0  0
 21 22  2  0  0  0  0
 22 23  1  0  0  0  0
 22 24  1  0  0  0  0
 23 42  1  0  0  0  0
 23 43  1  0  0  0  0
 25 26  1  0  0  0  0
 25 44  1  0  0  0  0
 26 45  1  0  0  0  0
 27 46  1  0  0  0  0
M  END
$$$$
