CHEMBL3644034
 OpenBabel04072215373D

 48 49  0  0  1  0  0  0  0  0999 V2000
    4.2252   -0.6442   -0.8306 C   0  0  0  0  0  0  0  0  0  0  0  0
    3.9325    0.7867   -0.3616 C   0  0  1  0  0  0  0  0  0  0  0  0
    2.6089    1.1989   -0.7761 O   0  0  0  0  0  0  0  0  0  0  0  0
    2.3954    1.4139   -2.1253 C   0  0  0  0  0  0  0  0  0  0  0  0
    3.4556    1.5705   -2.9548 N   0  0  0  0  0  0  0  0  0  0  0  0
    3.1945    1.6438   -4.2721 C   0  0  0  0  0  0  0  0  0  0  0  0
    4.2479    1.8766   -5.1605 N   0  0  0  0  0  0  0  0  0  0  0  0
    4.2549    1.6883   -6.5534 C   0  0  0  0  0  0  0  0  0  0  0  0
    4.8688    2.6153   -7.4098 C   0  0  0  0  0  0  0  0  0  0  0  0
    4.7727    2.4820   -8.8045 C   0  0  0  0  0  0  0  0  0  0  0  0
    4.0670    1.4045   -9.3536 C   0  0  0  0  0  0  0  0  0  0  0  0
    3.8336    1.2815  -11.1100 S   0  0  0  0  0  0  0  0  0  0  0  0
    5.2167    0.3296  -11.6705 C   0  0  0  0  0  0  0  0  0  0  0  0
    2.6301    0.4919  -11.3388 O   0  0  0  0  0  0  0  0  0  0  0  0
    3.9533    2.6164  -11.6614 O   0  0  0  0  0  0  0  0  0  0  0  0
    3.4508    0.4754   -8.5219 C   0  0  0  0  0  0  0  0  0  0  0  0
    3.5440    0.6270   -7.1369 C   0  0  0  0  0  0  0  0  0  0  0  0
    1.9522    1.5516   -4.7705 N   0  0  0  0  0  0  0  0  0  0  0  0
    0.9296    1.4784   -3.9093 C   0  0  0  0  0  0  0  0  0  0  0  0
    1.0887    1.4423   -2.5484 C   0  0  0  0  0  0  0  0  0  0  0  0
   -0.1121    1.4619   -1.6822 C   0  0  0  0  0  0  0  0  0  0  0  0
    0.1174    1.4709   -0.3420 F   0  0  0  0  0  0  0  0  0  0  0  0
   -0.8793    2.5658   -1.9229 F   0  0  0  0  0  0  0  0  0  0  0  0
   -0.9341    0.3995   -1.9124 F   0  0  0  0  0  0  0  0  0  0  0  0
    3.9897    0.9136    1.2009 C   0  0  0  0  0  0  0  0  0  0  0  0
    2.9791    0.0165    1.9314 C   0  0  0  0  0  0  0  0  0  0  0  0
    5.3931    0.6442    1.7545 C   0  0  0  0  0  0  0  0  0  0  0  0
    3.6724    2.2716    1.5529 O   0  0  0  0  0  0  0  0  0  0  0  0
    4.2603   -0.7071   -1.9219 H   0  0  0  0  0  0  0  0  0  0  0  0
    3.4381   -1.3357   -0.5127 H   0  0  0  0  0  0  0  0  0  0  0  0
    5.1860   -1.0054   -0.4560 H   0  0  0  0  0  0  0  0  0  0  0  0
    4.6672    1.4881   -0.7794 H   0  0  0  0  0  0  0  0  0  0  0  0
    5.0260    2.3444   -4.7249 H   0  0  0  0  0  0  0  0  0  0  0  0
    5.3860    3.4825   -7.0020 H   0  0  0  0  0  0  0  0  0  0  0  0
    5.2153    3.2380   -9.4499 H   0  0  0  0  0  0  0  0  0  0  0  0
    5.2047   -0.6470  -11.1844 H   0  0  0  0  0  0  0  0  0  0  0  0
    6.1374    0.8700  -11.4425 H   0  0  0  0  0  0  0  0  0  0  0  0
    5.1224    0.2028  -12.7523 H   0  0  0  0  0  0  0  0  0  0  0  0
    2.8671   -0.3480   -8.9270 H   0  0  0  0  0  0  0  0  0  0  0  0
    3.0377   -0.0965   -6.5033 H   0  0  0  0  0  0  0  0  0  0  0  0
   -0.0539    1.4601   -4.3741 H   0  0  0  0  0  0  0  0  0  0  0  0
    3.1673   -1.0472    1.7548 H   0  0  0  0  0  0  0  0  0  0  0  0
    1.9506    0.2454    1.6352 H   0  0  0  0  0  0  0  0  0  0  0  0
    3.0289    0.1850    3.0145 H   0  0  0  0  0  0  0  0  0  0  0  0
    5.6795   -0.4086    1.6685 H   0  0  0  0  0  0  0  0  0  0  0  0
    5.4517    0.9207    2.8146 H   0  0  0  0  0  0  0  0  0  0  0  0
    6.1414    1.2537    1.2371 H   0  0  0  0  0  0  0  0  0  0  0  0
    2.7891    2.4551    1.1821 H   0  0  0  0  0  0  0  0  0  0  0  0
  1  2  1  0  0  0  0
  1 29  1  0  0  0  0
  1 30  1  0  0  0  0
  1 31  1  0  0  0  0
  2  3  1  0  0  0  0
  2 25  1  0  0  0  0
  2 32  1  6  0  0  0
  3  4  1  0  0  0  0
  4  5  1  0  0  0  0
  4 20  2  0  0  0  0
  5  6  2  0  0  0  0
  6  7  1  0  0  0  0
  6 18  1  0  0  0  0
  7  8  1  0  0  0  0
  7 33  1  0  0  0  0
  8  9  1  0  0  0  0
  8 17  2  0  0  0  0
  9 10  2  0  0  0  0
  9 34  1  0  0  0  0
 10 11  1  0  0  0  0
 10 35  1  0  0  0  0
 11 12  1  0  0  0  0
 11 16  2  0  0  0  0
 12 13  1  0  0  0  0
 12 14  2  0  0  0  0
 12 15  2  0  0  0  0
 13 36  1  0  0  0  0
 13 37  1  0  0  0  0
 13 38  1  0  0  0  0
 16 17  1  0  0  0  0
 16 39  1  0  0  0  0
 17 40  1  0  0  0  0
 18 19  2  0  0  0  0
 19 20  1  0  0  0  0
 19 41  1  0  0  0  0
 20 21  1  0  0  0  0
 21 22  1  0  0  0  0
 21 23  1  0  0  0  0
 21 24  1  0  0  0  0
 25 26  1  0  0  0  0
 25 27  1  0  0  0  0
 25 28  1  0  0  0  0
 26 42  1  0  0  0  0
 26 43  1  0  0  0  0
 26 44  1  0  0  0  0
 27 45  1  0  0  0  0
 27 46  1  0  0  0  0
 27 47  1  0  0  0  0
 28 48  1  0  0  0  0
M  END
$$$$
