CHEMBL474538
 OpenBabel04072215383D

 47 51  0  0  0  0  0  0  0  0999 V2000
    1.3524    0.4490   -0.2503 N   0  0  0  0  0  0  0  0  0  0  0  0
    2.7323    0.3499   -0.1917 C   0  0  0  0  0  0  0  0  0  0  0  0
    3.2205   -0.8875   -0.1088 N   0  0  0  0  0  0  0  0  0  0  0  0
    4.5472   -1.1097   -0.0562 C   0  0  0  0  0  0  0  0  0  0  0  0
    5.1025   -2.3948    0.0024 N   0  0  0  0  0  0  0  0  0  0  0  0
    4.5901   -3.5822    0.5498 C   0  0  0  0  0  0  0  0  0  0  0  0
    3.3153   -3.6762    1.1083 C   0  0  0  0  0  0  0  0  0  0  0  0
    2.8416   -4.8860    1.6479 C   0  0  0  0  0  0  0  0  0  0  0  0
    3.6424   -6.0144    1.6242 C   0  0  0  0  0  0  0  0  0  0  0  0
    4.9040   -5.9386    1.0451 C   0  0  0  0  0  0  0  0  0  0  0  0
    6.0089   -7.4785    1.0072 Br  0  0  0  0  0  0  0  0  0  0  0  0
    5.3742   -4.7428    0.5065 C   0  0  0  0  0  0  0  0  0  0  0  0
    5.3783    0.0222   -0.0865 C   0  0  0  0  0  0  0  0  0  0  0  0
    6.7774    0.2697   -0.0761 C   0  0  0  0  0  0  0  0  0  0  0  0
    6.9715    1.6338   -0.1783 C   0  0  0  0  0  0  0  0  0  0  0  0
    8.2395    2.3801   -0.4292 C   0  0  0  0  0  0  0  0  0  0  0  0
    8.9201    3.0261    0.7398 C   0  0  0  0  0  0  0  0  0  0  0  0
    8.6464    4.3862    0.9676 C   0  0  0  0  0  0  0  0  0  0  0  0
    9.4877    5.1527    1.7645 C   0  0  0  0  0  0  0  0  0  0  0  0
   10.6744    4.5997    2.2311 C   0  0  0  0  0  0  0  0  0  0  0  0
   10.9144    3.2269    2.0997 C   0  0  0  0  0  0  0  0  0  0  0  0
   12.0807    2.6745    2.6325 C   0  0  0  0  0  0  0  0  0  0  0  0
   12.0897    1.3409    3.0138 C   0  0  0  0  0  0  0  0  0  0  0  0
   11.0704    0.5066    2.5782 C   0  0  0  0  0  0  0  0  0  0  0  0
   10.0940    1.0030    1.7040 C   0  0  0  0  0  0  0  0  0  0  0  0
    9.9566    2.3948    1.4817 C   0  0  0  0  0  0  0  0  0  0  0  0
    5.7196    2.2202   -0.1596 N   0  0  0  0  0  0  0  0  0  0  0  0
    4.7540    1.2542   -0.1434 C   0  0  0  0  0  0  0  0  0  0  0  0
    3.4381    1.4859   -0.1824 N   0  0  0  0  0  0  0  0  0  0  0  0
    0.9518   -0.4100    0.1015 H   0  0  0  0  0  0  0  0  0  0  0  0
    1.0514    1.3120    0.1774 H   0  0  0  0  0  0  0  0  0  0  0  0
    6.1094   -2.3937   -0.0991 H   0  0  0  0  0  0  0  0  0  0  0  0
    2.6625   -2.8091    1.1494 H   0  0  0  0  0  0  0  0  0  0  0  0
    1.8474   -4.9194    2.0885 H   0  0  0  0  0  0  0  0  0  0  0  0
    3.2737   -6.9401    2.0483 H   0  0  0  0  0  0  0  0  0  0  0  0
    6.3622   -4.7143    0.0547 H   0  0  0  0  0  0  0  0  0  0  0  0
    7.5609   -0.4730   -0.0802 H   0  0  0  0  0  0  0  0  0  0  0  0
    8.0396    3.1356   -1.2000 H   0  0  0  0  0  0  0  0  0  0  0  0
    8.9591    1.7015   -0.9356 H   0  0  0  0  0  0  0  0  0  0  0  0
    7.7937    4.8652    0.4941 H   0  0  0  0  0  0  0  0  0  0  0  0
    9.2457    6.1894    1.9825 H   0  0  0  0  0  0  0  0  0  0  0  0
   11.3572    5.2196    2.8085 H   0  0  0  0  0  0  0  0  0  0  0  0
   12.9638    3.2883    2.7945 H   0  0  0  0  0  0  0  0  0  0  0  0
   12.8808    0.9688    3.6586 H   0  0  0  0  0  0  0  0  0  0  0  0
   11.0545   -0.5336    2.8936 H   0  0  0  0  0  0  0  0  0  0  0  0
    9.3769    0.3033    1.2892 H   0  0  0  0  0  0  0  0  0  0  0  0
    5.5337    3.2057   -0.2016 H   0  0  0  0  0  0  0  0  0  0  0  0
  1  2  1  0  0  0  0
  1 30  1  0  0  0  0
  1 31  1  0  0  0  0
  2  3  1  0  0  0  0
  2 29  2  0  0  0  0
  3  4  2  0  0  0  0
  4  5  1  0  0  0  0
  4 13  1  0  0  0  0
  5  6  1  0  0  0  0
  5 32  1  0  0  0  0
  6  7  1  0  0  0  0
  6 12  2  0  0  0  0
  7  8  2  0  0  0  0
  7 33  1  0  0  0  0
  8  9  1  0  0  0  0
  8 34  1  0  0  0  0
  9 10  2  0  0  0  0
  9 35  1  0  0  0  0
 10 11  1  0  0  0  0
 10 12  1  0  0  0  0
 12 36  1  0  0  0  0
 13 14  1  0  0  0  0
 13 28  2  0  0  0  0
 14 15  2  0  0  0  0
 14 37  1  0  0  0  0
 15 16  1  0  0  0  0
 15 27  1  0  0  0  0
 16 17  1  0  0  0  0
 16 38  1  0  0  0  0
 16 39  1  0  0  0  0
 17 18  1  0  0  0  0
 17 26  2  0  0  0  0
 18 19  2  0  0  0  0
 18 40  1  0  0  0  0
 19 20  1  0  0  0  0
 19 41  1  0  0  0  0
 20 21  2  0  0  0  0
 20 42  1  0  0  0  0
 21 22  1  0  0  0  0
 21 26  1  0  0  0  0
 22 23  2  0  0  0  0
 22 43  1  0  0  0  0
 23 24  1  0  0  0  0
 23 44  1  0  0  0  0
 24 25  2  0  0  0  0
 24 45  1  0  0  0  0
 25 26  1  0  0  0  0
 25 46  1  0  0  0  0
 27 28  1  0  0  0  0
 27 47  1  0  0  0  0
 28 29  1  0  0  0  0
M  END
$$$$
