CHEMBL3740910
 OpenBabel04072215373D

 62 66  0  0  0  0  0  0  0  0999 V2000
    3.0058    0.8564   -0.4551 O   0  0  0  0  0  0  0  0  0  0  0  0
    2.4883   -0.1837   -0.0638 C   0  0  0  0  0  0  0  0  0  0  0  0
    1.1532   -0.5283   -0.2528 N   0  0  0  0  0  0  0  0  0  0  0  0
    0.1587    0.2977   -0.8461 C   0  0  0  0  0  0  0  0  0  0  0  0
    0.4561    1.5204   -1.4642 C   0  0  0  0  0  0  0  0  0  0  0  0
   -0.5481    2.3736   -1.9291 C   0  0  0  0  0  0  0  0  0  0  0  0
   -1.8949    2.0255   -1.8134 C   0  0  0  0  0  0  0  0  0  0  0  0
   -2.9733    3.0137   -2.2238 C   0  0  0  0  0  0  0  0  0  0  0  0
   -3.3848    3.0680   -3.6277 N   0  0  0  0  0  0  0  0  0  0  0  0
   -3.9934    1.8479   -4.1491 C   0  0  0  0  0  0  0  0  0  0  0  0
   -2.8961    1.1606   -4.9358 C   0  0  0  0  0  0  0  0  0  0  0  0
   -2.0811    2.3091   -5.4998 C   0  0  0  0  0  0  0  0  0  0  0  0
   -2.3688    3.4971   -4.5879 C   0  0  0  0  0  0  0  0  0  0  0  0
   -2.2004    0.7773   -1.2532 C   0  0  0  0  0  0  0  0  0  0  0  0
   -1.1830   -0.0779   -0.7772 C   0  0  0  0  0  0  0  0  0  0  0  0
    3.2011   -1.1269    0.6755 N   0  0  0  0  0  0  0  0  0  0  0  0
    4.6115   -1.0254    0.8416 C   0  0  0  0  0  0  0  0  0  0  0  0
    5.4140   -0.6821   -0.2441 C   0  0  0  0  0  0  0  0  0  0  0  0
    6.8026   -0.7693   -0.1486 C   0  0  0  0  0  0  0  0  0  0  0  0
    7.4365   -1.1387    1.0241 C   0  0  0  0  0  0  0  0  0  0  0  0
    8.7594   -1.2993    0.9769 N   0  0  0  0  0  0  0  0  0  0  0  0
    9.3674   -1.6226    2.1180 C   0  0  0  0  0  0  0  0  0  0  0  0
    8.7906   -1.6757    3.3163 N   0  0  0  0  0  0  0  0  0  0  0  0
    7.4623   -1.4539    3.3637 C   0  0  0  0  0  0  0  0  0  0  0  0
    6.8901   -1.1579    4.6444 N   0  0  0  0  0  0  0  0  0  0  0  0
    7.5363   -1.3720    5.9023 C   0  0  0  0  0  0  0  0  0  0  0  0
    8.2404   -2.5513    6.1752 C   0  0  0  0  0  0  0  0  0  0  0  0
    8.7839   -2.7994    7.4407 C   0  0  0  0  0  0  0  0  0  0  0  0
    8.6236   -1.8772    8.4668 C   0  0  0  0  0  0  0  0  0  0  0  0
    7.9177   -0.6888    8.2368 C   0  0  0  0  0  0  0  0  0  0  0  0
    7.7415    0.3234    9.3453 C   0  0  0  0  0  0  0  0  0  0  0  0
    8.2526   -0.0794   10.5423 F   0  0  0  0  0  0  0  0  0  0  0  0
    8.3428    1.5146    9.0694 F   0  0  0  0  0  0  0  0  0  0  0  0
    6.4324    0.6133    9.5815 F   0  0  0  0  0  0  0  0  0  0  0  0
    7.3673   -0.4531    6.9571 C   0  0  0  0  0  0  0  0  0  0  0  0
    6.6733   -1.3092    2.1880 C   0  0  0  0  0  0  0  0  0  0  0  0
    5.2378   -1.3150    2.0655 C   0  0  0  0  0  0  0  0  0  0  0  0
    0.8510   -1.4337    0.0755 H   0  0  0  0  0  0  0  0  0  0  0  0
    1.4779    1.8609   -1.6062 H   0  0  0  0  0  0  0  0  0  0  0  0
   -0.2577    3.3320   -2.3506 H   0  0  0  0  0  0  0  0  0  0  0  0
   -2.6386    4.0241   -1.9219 H   0  0  0  0  0  0  0  0  0  0  0  0
   -3.8591    2.8434   -1.6063 H   0  0  0  0  0  0  0  0  0  0  0  0
   -4.8036    2.1349   -4.8322 H   0  0  0  0  0  0  0  0  0  0  0  0
   -4.4391    1.2048   -3.3838 H   0  0  0  0  0  0  0  0  0  0  0  0
   -3.2939    0.5148   -5.7243 H   0  0  0  0  0  0  0  0  0  0  0  0
   -2.2718    0.5439   -4.2810 H   0  0  0  0  0  0  0  0  0  0  0  0
   -2.4062    2.5346   -6.5226 H   0  0  0  0  0  0  0  0  0  0  0  0
   -1.0155    2.0612   -5.5319 H   0  0  0  0  0  0  0  0  0  0  0  0
   -2.7742    4.3204   -5.1887 H   0  0  0  0  0  0  0  0  0  0  0  0
   -1.4546    3.8871   -4.1326 H   0  0  0  0  0  0  0  0  0  0  0  0
   -3.2369    0.4633   -1.1473 H   0  0  0  0  0  0  0  0  0  0  0  0
   -1.4765   -1.0265   -0.3192 H   0  0  0  0  0  0  0  0  0  0  0  0
    2.6834   -1.6502    1.3651 H   0  0  0  0  0  0  0  0  0  0  0  0
    4.9810   -0.3991   -1.2012 H   0  0  0  0  0  0  0  0  0  0  0  0
    7.4057   -0.5499   -1.0273 H   0  0  0  0  0  0  0  0  0  0  0  0
   10.4294   -1.8347    2.0688 H   0  0  0  0  0  0  0  0  0  0  0  0
    6.6089   -0.1796    4.5833 H   0  0  0  0  0  0  0  0  0  0  0  0
    8.3754   -3.2965    5.3950 H   0  0  0  0  0  0  0  0  0  0  0  0
    9.3313   -3.7231    7.6214 H   0  0  0  0  0  0  0  0  0  0  0  0
    9.0437   -2.0886    9.4501 H   0  0  0  0  0  0  0  0  0  0  0  0
    6.8137    0.4703    6.7907 H   0  0  0  0  0  0  0  0  0  0  0  0
    4.6371   -1.5505    2.9410 H   0  0  0  0  0  0  0  0  0  0  0  0
  1  2  2  0  0  0  0
  2  3  1  0  0  0  0
  2 16  1  0  0  0  0
  3  4  1  0  0  0  0
  3 38  1  0  0  0  0
  4  5  1  0  0  0  0
  4 15  2  0  0  0  0
  5  6  2  0  0  0  0
  5 39  1  0  0  0  0
  6  7  1  0  0  0  0
  6 40  1  0  0  0  0
  7  8  1  0  0  0  0
  7 14  2  0  0  0  0
  8  9  1  0  0  0  0
  8 41  1  0  0  0  0
  8 42  1  0  0  0  0
  9 10  1  0  0  0  0
  9 13  1  0  0  0  0
 10 11  1  0  0  0  0
 10 43  1  0  0  0  0
 10 44  1  0  0  0  0
 11 12  1  0  0  0  0
 11 45  1  0  0  0  0
 11 46  1  0  0  0  0
 12 13  1  0  0  0  0
 12 47  1  0  0  0  0
 12 48  1  0  0  0  0
 13 49  1  0  0  0  0
 13 50  1  0  0  0  0
 14 15  1  0  0  0  0
 14 51  1  0  0  0  0
 15 52  1  0  0  0  0
 16 17  1  0  0  0  0
 16 53  1  0  0  0  0
 17 18  1  0  0  0  0
 17 37  2  0  0  0  0
 18 19  2  0  0  0  0
 18 54  1  0  0  0  0
 19 20  1  0  0  0  0
 19 55  1  0  0  0  0
 20 21  1  0  0  0  0
 20 36  2  0  0  0  0
 21 22  2  0  0  0  0
 22 23  1  0  0  0  0
 22 56  1  0  0  0  0
 23 24  2  0  0  0  0
 24 25  1  0  0  0  0
 24 36  1  0  0  0  0
 25 26  1  0  0  0  0
 25 57  1  0  0  0  0
 26 27  1  0  0  0  0
 26 35  2  0  0  0  0
 27 28  2  0  0  0  0
 27 58  1  0  0  0  0
 28 29  1  0  0  0  0
 28 59  1  0  0  0  0
 29 30  2  0  0  0  0
 29 60  1  0  0  0  0
 30 31  1  0  0  0  0
 30 35  1  0  0  0  0
 31 32  1  0  0  0  0
 31 33  1  0  0  0  0
 31 34  1  0  0  0  0
 35 61  1  0  0  0  0
 36 37  1  0  0  0  0
 37 62  1  0  0  0  0
M  END
$$$$
