CHEMBL1271838
 OpenBabel04072215363D

 35 37  0  0  0  0  0  0  0  0999 V2000
   -1.7305   -1.5923   -0.0130 C   0  0  0  0  0  0  0  0  0  0  0  0
   -0.4827   -0.7593   -0.1069 C   0  0  0  0  0  0  0  0  0  0  0  0
    0.7641   -1.3604   -0.2986 C   0  0  0  0  0  0  0  0  0  0  0  0
    1.9203   -0.5820   -0.3696 C   0  0  0  0  0  0  0  0  0  0  0  0
    1.8500    0.8106   -0.2468 C   0  0  0  0  0  0  0  0  0  0  0  0
    0.6139    1.4412   -0.0640 C   0  0  0  0  0  0  0  0  0  0  0  0
    0.4699    2.9253    0.0897 C   0  0  0  0  0  0  0  0  0  0  0  0
   -0.6581    3.3505    0.3389 O   0  0  0  0  0  0  0  0  0  0  0  0
    1.5784    3.7393   -0.0973 N   0  0  0  0  0  0  0  0  0  0  0  0
    1.5549    5.1538    0.0244 C   0  0  0  0  0  0  0  0  0  0  0  0
    0.5266    5.8720    0.6268 C   0  0  0  0  0  0  0  0  0  0  0  0
    0.4641    7.2245    0.6960 N   0  0  0  0  0  0  0  0  0  0  0  0
    1.4538    7.9249    0.1335 C   0  0  0  0  0  0  0  0  0  0  0  0
    1.3744    9.3087    0.1397 C   0  0  0  0  0  0  0  0  0  0  0  0
    2.3646   10.0994   -0.4441 C   0  0  0  0  0  0  0  0  0  0  0  0
    3.4662    9.4958   -1.0396 C   0  0  0  0  0  0  0  0  0  0  0  0
    3.5726    8.1041   -1.0520 C   0  0  0  0  0  0  0  0  0  0  0  0
    2.5668    7.3064   -0.4749 C   0  0  0  0  0  0  0  0  0  0  0  0
    2.6122    5.8978   -0.4994 C   0  0  0  0  0  0  0  0  0  0  0  0
   -0.5487    0.6385    0.0035 C   0  0  0  0  0  0  0  0  0  0  0  0
   -1.8081    1.1621    0.1813 O   0  0  0  0  0  0  0  0  0  0  0  0
   -1.5091   -2.6610   -0.0954 H   0  0  0  0  0  0  0  0  0  0  0  0
   -2.4223   -1.3299   -0.8196 H   0  0  0  0  0  0  0  0  0  0  0  0
   -2.2225   -1.4295    0.9522 H   0  0  0  0  0  0  0  0  0  0  0  0
    0.8438   -2.4421   -0.3895 H   0  0  0  0  0  0  0  0  0  0  0  0
    2.8830   -1.0684   -0.5139 H   0  0  0  0  0  0  0  0  0  0  0  0
    2.7827    1.3610   -0.2856 H   0  0  0  0  0  0  0  0  0  0  0  0
    2.4248    3.3404   -0.4759 H   0  0  0  0  0  0  0  0  0  0  0  0
   -0.3153    5.3916    1.1124 H   0  0  0  0  0  0  0  0  0  0  0  0
    0.5104    9.7806    0.6024 H   0  0  0  0  0  0  0  0  0  0  0  0
    2.2662   11.1817   -0.4331 H   0  0  0  0  0  0  0  0  0  0  0  0
    4.2375   10.1084   -1.4994 H   0  0  0  0  0  0  0  0  0  0  0  0
    4.4364    7.6467   -1.5278 H   0  0  0  0  0  0  0  0  0  0  0  0
    3.4564    5.4008   -0.9689 H   0  0  0  0  0  0  0  0  0  0  0  0
   -1.7236    2.1373    0.2793 H   0  0  0  0  0  0  0  0  0  0  0  0
  1  2  1  0  0  0  0
  1 22  1  0  0  0  0
  1 23  1  0  0  0  0
  1 24  1  0  0  0  0
  2  3  1  0  0  0  0
  2 20  2  0  0  0  0
  3  4  2  0  0  0  0
  3 25  1  0  0  0  0
  4  5  1  0  0  0  0
  4 26  1  0  0  0  0
  5  6  2  0  0  0  0
  5 27  1  0  0  0  0
  6  7  1  0  0  0  0
  6 20  1  0  0  0  0
  7  8  2  0  0  0  0
  7  9  1  0  0  0  0
  9 10  1  0  0  0  0
  9 28  1  0  0  0  0
 10 11  1  0  0  0  0
 10 19  2  0  0  0  0
 11 12  2  0  0  0  0
 11 29  1  0  0  0  0
 12 13  1  0  0  0  0
 13 14  1  0  0  0  0
 13 18  2  0  0  0  0
 14 15  2  0  0  0  0
 14 30  1  0  0  0  0
 15 16  1  0  0  0  0
 15 31  1  0  0  0  0
 16 17  2  0  0  0  0
 16 32  1  0  0  0  0
 17 18  1  0  0  0  0
 17 33  1  0  0  0  0
 18 19  1  0  0  0  0
 19 34  1  0  0  0  0
 20 21  1  0  0  0  0
 21 35  1  0  0  0  0
M  END
$$$$
