CHEMBL3943475
 OpenBabel04072215373D

 60 63  0  0  0  0  0  0  0  0999 V2000
   12.6034   -0.5815   -7.5084 C   0  0  0  0  0  0  0  0  0  0  0  0
   14.2140    0.0493   -7.0579 S   0  0  0  0  0  0  0  0  0  0  0  0
   15.1966   -0.8614   -7.5968 O   0  0  0  0  0  0  0  0  0  0  0  0
   14.2530    1.4653   -7.3569 O   0  0  0  0  0  0  0  0  0  0  0  0
   14.2825   -0.1498   -5.3874 N   0  0  0  0  0  0  0  0  0  0  0  0
   13.3560    0.5417   -4.5633 C   0  0  0  0  0  0  0  0  0  0  0  0
   12.1260   -0.0440   -4.2882 C   0  0  0  0  0  0  0  0  0  0  0  0
   11.1712    0.5936   -3.4934 C   0  0  0  0  0  0  0  0  0  0  0  0
    9.8824    0.0357   -3.2751 N   0  0  0  0  0  0  0  0  0  0  0  0
    9.3435   -1.0167   -4.0028 C   0  0  0  0  0  0  0  0  0  0  0  0
    9.9046   -1.5786   -4.9439 O   0  0  0  0  0  0  0  0  0  0  0  0
    8.0634   -1.3609   -3.5997 N   0  0  0  0  0  0  0  0  0  0  0  0
    7.3849   -2.4283   -4.2461 C   0  0  0  0  0  0  0  0  0  0  0  0
    6.0827   -2.2202   -4.7017 C   0  0  0  0  0  0  0  0  0  0  0  0
    5.4125   -3.2218   -5.4203 C   0  0  0  0  0  0  0  0  0  0  0  0
    6.0452   -4.4411   -5.6972 C   0  0  0  0  0  0  0  0  0  0  0  0
    5.4549   -5.4692   -6.4088 O   0  0  0  0  0  0  0  0  0  0  0  0
    4.6337   -5.1745   -7.4804 C   0  0  0  0  0  0  0  0  0  0  0  0
    4.8272   -4.0821   -8.3164 C   0  0  0  0  0  0  0  0  0  0  0  0
    3.9043   -3.8645   -9.3147 C   0  0  0  0  0  0  0  0  0  0  0  0
    2.8623   -4.6866   -9.5520 N   0  0  0  0  0  0  0  0  0  0  0  0
    2.7172   -5.7887   -8.7988 C   0  0  0  0  0  0  0  0  0  0  0  0
    1.6684   -6.6853   -9.0828 N   0  0  0  0  0  0  0  0  0  0  0  0
    0.7175   -6.4733  -10.0612 C   0  0  0  0  0  0  0  0  0  0  0  0
    0.5882   -5.4832  -10.7696 O   0  0  0  0  0  0  0  0  0  0  0  0
   -0.2812   -7.5660  -10.2731 C   0  0  0  0  0  0  0  0  0  0  0  0
   -1.2989   -7.8564   -9.1952 C   0  0  0  0  0  0  0  0  0  0  0  0
   -0.3137   -8.9132   -9.6026 C   0  0  0  0  0  0  0  0  0  0  0  0
    3.5881   -6.0691   -7.7520 C   0  0  0  0  0  0  0  0  0  0  0  0
    7.3192   -4.6618   -5.1754 C   0  0  0  0  0  0  0  0  0  0  0  0
    7.9263   -5.8476   -5.3616 F   0  0  0  0  0  0  0  0  0  0  0  0
    7.9935   -3.6691   -4.4636 C   0  0  0  0  0  0  0  0  0  0  0  0
   11.5167    1.8105   -2.8900 C   0  0  0  0  0  0  0  0  0  0  0  0
   12.7785    2.4020   -3.1333 C   0  0  0  0  0  0  0  0  0  0  0  0
   13.2072    3.6727   -2.4394 C   0  0  0  0  0  0  0  0  0  0  0  0
   12.2634    4.1731   -1.5941 F   0  0  0  0  0  0  0  0  0  0  0  0
   14.3233    3.4904   -1.6786 F   0  0  0  0  0  0  0  0  0  0  0  0
   13.5046    4.6778   -3.3067 F   0  0  0  0  0  0  0  0  0  0  0  0
   13.6781    1.7725   -4.0122 C   0  0  0  0  0  0  0  0  0  0  0  0
   12.5538   -0.6140   -8.5995 H   0  0  0  0  0  0  0  0  0  0  0  0
   11.8286    0.0894   -7.1348 H   0  0  0  0  0  0  0  0  0  0  0  0
   12.4884   -1.5914   -7.1108 H   0  0  0  0  0  0  0  0  0  0  0  0
   14.4673   -1.1235   -5.1361 H   0  0  0  0  0  0  0  0  0  0  0  0
   11.9434   -1.0280   -4.7008 H   0  0  0  0  0  0  0  0  0  0  0  0
    9.2942    0.4808   -2.5854 H   0  0  0  0  0  0  0  0  0  0  0  0
    7.4907   -0.5814   -3.3082 H   0  0  0  0  0  0  0  0  0  0  0  0
    5.5910   -1.2586   -4.5657 H   0  0  0  0  0  0  0  0  0  0  0  0
    4.4092   -3.0210   -5.7830 H   0  0  0  0  0  0  0  0  0  0  0  0
    5.6588   -3.3970   -8.1980 H   0  0  0  0  0  0  0  0  0  0  0  0
    3.9640   -3.0016   -9.9672 H   0  0  0  0  0  0  0  0  0  0  0  0
    1.6188   -7.5223   -8.5293 H   0  0  0  0  0  0  0  0  0  0  0  0
   -0.6654   -7.5530  -11.2928 H   0  0  0  0  0  0  0  0  0  0  0  0
   -2.3336   -7.9631   -9.5059 H   0  0  0  0  0  0  0  0  0  0  0  0
   -1.1793   -7.3831   -8.2278 H   0  0  0  0  0  0  0  0  0  0  0  0
   -0.6892   -9.7468  -10.1904 H   0  0  0  0  0  0  0  0  0  0  0  0
    0.4497   -9.2048   -8.8963 H   0  0  0  0  0  0  0  0  0  0  0  0
    3.4721   -6.9593   -7.1403 H   0  0  0  0  0  0  0  0  0  0  0  0
    8.9930   -3.8795   -4.0902 H   0  0  0  0  0  0  0  0  0  0  0  0
   10.8128    2.3186   -2.2326 H   0  0  0  0  0  0  0  0  0  0  0  0
   14.6460    2.2241   -4.2273 H   0  0  0  0  0  0  0  0  0  0  0  0
  1  2  1  0  0  0  0
  1 40  1  0  0  0  0
  1 41  1  0  0  0  0
  1 42  1  0  0  0  0
  2  3  2  0  0  0  0
  2  4  2  0  0  0  0
  2  5  1  0  0  0  0
  5  6  1  0  0  0  0
  5 43  1  0  0  0  0
  6  7  1  0  0  0  0
  6 39  2  0  0  0  0
  7  8  2  0  0  0  0
  7 44  1  0  0  0  0
  8  9  1  0  0  0  0
  8 33  1  0  0  0  0
  9 10  1  0  0  0  0
  9 45  1  0  0  0  0
 10 11  2  0  0  0  0
 10 12  1  0  0  0  0
 12 13  1  0  0  0  0
 12 46  1  0  0  0  0
 13 14  1  0  0  0  0
 13 32  2  0  0  0  0
 14 15  2  0  0  0  0
 14 47  1  0  0  0  0
 15 16  1  0  0  0  0
 15 48  1  0  0  0  0
 16 17  1  0  0  0  0
 16 30  2  0  0  0  0
 17 18  1  0  0  0  0
 18 19  1  0  0  0  0
 18 29  2  0  0  0  0
 19 20  2  0  0  0  0
 19 49  1  0  0  0  0
 20 21  1  0  0  0  0
 20 50  1  0  0  0  0
 21 22  2  0  0  0  0
 22 23  1  0  0  0  0
 22 29  1  0  0  0  0
 23 24  1  0  0  0  0
 23 51  1  0  0  0  0
 24 25  2  0  0  0  0
 24 26  1  0  0  0  0
 26 27  1  0  0  0  0
 26 28  1  0  0  0  0
 26 52  1  0  0  0  0
 27 28  1  0  0  0  0
 27 53  1  0  0  0  0
 27 54  1  0  0  0  0
 28 55  1  0  0  0  0
 28 56  1  0  0  0  0
 29 57  1  0  0  0  0
 30 31  1  0  0  0  0
 30 32  1  0  0  0  0
 32 58  1  0  0  0  0
 33 34  2  0  0  0  0
 33 59  1  0  0  0  0
 34 35  1  0  0  0  0
 34 39  1  0  0  0  0
 35 36  1  0  0  0  0
 35 37  1  0  0  0  0
 35 38  1  0  0  0  0
 39 60  1  0  0  0  0
M  END
$$$$
