CHEMBL328106
 OpenBabel04072215363D

 36 38  0  0  0  0  0  0  0  0999 V2000
    3.3692   -0.6960    0.9558 C   0  0  0  0  0  0  0  0  0  0  0  0
    2.5140    0.1071    0.1364 O   0  0  0  0  0  0  0  0  0  0  0  0
    3.1441    0.8095   -0.8561 C   0  0  0  0  0  0  0  0  0  0  0  0
    4.2830    0.2916   -1.4997 C   0  0  0  0  0  0  0  0  0  0  0  0
    5.0338    1.0336   -2.3996 C   0  0  0  0  0  0  0  0  0  0  0  0
    6.1635    0.5057   -2.8787 N   0  0  0  0  0  0  0  0  0  0  0  0
    6.8891    1.2858   -3.6841 C   0  0  0  0  0  0  0  0  0  0  0  0
    6.5902    2.5300   -4.0499 N   0  0  0  0  0  0  0  0  0  0  0  0
    5.4434    3.0548   -3.5752 C   0  0  0  0  0  0  0  0  0  0  0  0
    5.0871    4.3942   -3.9007 N   0  0  0  0  0  0  0  0  0  0  0  0
    5.7244    5.2671   -4.8076 C   0  0  0  0  0  0  0  0  0  0  0  0
    6.4374    4.8102   -5.9207 C   0  0  0  0  0  0  0  0  0  0  0  0
    7.0579    5.7015   -6.7970 C   0  0  0  0  0  0  0  0  0  0  0  0
    6.9287    7.0694   -6.5933 C   0  0  0  0  0  0  0  0  0  0  0  0
    7.7991    8.2757   -7.7570 Br  0  0  0  0  0  0  0  0  0  0  0  0
    6.1601    7.5514   -5.5380 C   0  0  0  0  0  0  0  0  0  0  0  0
    5.5512    6.6520   -4.6568 C   0  0  0  0  0  0  0  0  0  0  0  0
    4.5942    2.3156   -2.7338 C   0  0  0  0  0  0  0  0  0  0  0  0
    3.3712    2.7836   -2.2037 C   0  0  0  0  0  0  0  0  0  0  0  0
    2.6512    2.0552   -1.2523 C   0  0  0  0  0  0  0  0  0  0  0  0
    1.5512    2.7435   -0.8293 O   0  0  0  0  0  0  0  0  0  0  0  0
    0.7528    2.2274    0.2209 C   0  0  0  0  0  0  0  0  0  0  0  0
    3.0109   -0.6324    1.9873 H   0  0  0  0  0  0  0  0  0  0  0  0
    4.4148   -0.3639    0.9645 H   0  0  0  0  0  0  0  0  0  0  0  0
    3.3088   -1.7392    0.6304 H   0  0  0  0  0  0  0  0  0  0  0  0
    4.6332   -0.7136   -1.2774 H   0  0  0  0  0  0  0  0  0  0  0  0
    7.8152    0.8731   -4.0702 H   0  0  0  0  0  0  0  0  0  0  0  0
    4.8304    4.8797   -3.0501 H   0  0  0  0  0  0  0  0  0  0  0  0
    6.5317    3.7464   -6.1166 H   0  0  0  0  0  0  0  0  0  0  0  0
    7.6401    5.3078   -7.6248 H   0  0  0  0  0  0  0  0  0  0  0  0
    6.0347    8.6192   -5.3862 H   0  0  0  0  0  0  0  0  0  0  0  0
    4.9500    7.0490   -3.8417 H   0  0  0  0  0  0  0  0  0  0  0  0
    2.9748    3.7484   -2.5131 H   0  0  0  0  0  0  0  0  0  0  0  0
    0.0579    3.0231    0.5119 H   0  0  0  0  0  0  0  0  0  0  0  0
    1.3447    1.9877    1.1076 H   0  0  0  0  0  0  0  0  0  0  0  0
    0.1577    1.3774   -0.1236 H   0  0  0  0  0  0  0  0  0  0  0  0
  1  2  1  0  0  0  0
  1 23  1  0  0  0  0
  1 24  1  0  0  0  0
  1 25  1  0  0  0  0
  2  3  1  0  0  0  0
  3  4  1  0  0  0  0
  3 20  2  0  0  0  0
  4  5  2  0  0  0  0
  4 26  1  0  0  0  0
  5  6  1  0  0  0  0
  5 18  1  0  0  0  0
  6  7  2  0  0  0  0
  7  8  1  0  0  0  0
  7 27  1  0  0  0  0
  8  9  2  0  0  0  0
  9 10  1  0  0  0  0
  9 18  1  0  0  0  0
 10 11  1  0  0  0  0
 10 28  1  0  0  0  0
 11 12  1  0  0  0  0
 11 17  2  0  0  0  0
 12 13  2  0  0  0  0
 12 29  1  0  0  0  0
 13 14  1  0  0  0  0
 13 30  1  0  0  0  0
 14 15  1  0  0  0  0
 14 16  2  0  0  0  0
 16 17  1  0  0  0  0
 16 31  1  0  0  0  0
 17 32  1  0  0  0  0
 18 19  2  0  0  0  0
 19 20  1  0  0  0  0
 19 33  1  0  0  0  0
 20 21  1  0  0  0  0
 21 22  1  0  0  0  0
 22 34  1  0  0  0  0
 22 35  1  0  0  0  0
 22 36  1  0  0  0  0
M  END
$$$$
