CHEMBL596988
 OpenBabel04072215383D

 40 43  0  0  0  0  0  0  0  0999 V2000
    7.7623    3.4813   -8.2092 C   0  0  0  0  0  0  0  0  0  0  0  0
    7.0597    2.5787   -7.3624 O   0  0  0  0  0  0  0  0  0  0  0  0
    6.5541    3.1029   -6.2046 C   0  0  0  0  0  0  0  0  0  0  0  0
    6.6811    4.4269   -5.7892 C   0  0  0  0  0  0  0  0  0  0  0  0
    6.0938    4.8466   -4.5924 C   0  0  0  0  0  0  0  0  0  0  0  0
    5.3565    3.9595   -3.8008 C   0  0  0  0  0  0  0  0  0  0  0  0
    4.7742    4.3524   -2.5813 N   0  0  0  0  0  0  0  0  0  0  0  0
    4.2523    5.6194   -2.3059 C   0  0  0  0  0  0  0  0  0  0  0  0
    4.3980    6.0600   -1.0493 N   0  0  0  0  0  0  0  0  0  0  0  0
    3.8959    7.2743   -0.7723 C   0  0  0  0  0  0  0  0  0  0  0  0
    3.2495    8.0625   -1.6968 C   0  0  0  0  0  0  0  0  0  0  0  0
    3.1520    7.5443   -2.9732 C   0  0  0  0  0  0  0  0  0  0  0  0
    3.6375    6.3244   -3.2751 N   0  0  0  0  0  0  0  0  0  0  0  0
    2.5195    8.2872   -4.0766 C   0  0  0  0  0  0  0  0  0  0  0  0
    1.7177    7.6159   -5.0027 C   0  0  0  0  0  0  0  0  0  0  0  0
    1.0851    8.1952   -6.0542 N   0  0  0  0  0  0  0  0  0  0  0  0
    1.3021    9.5086   -6.2454 C   0  0  0  0  0  0  0  0  0  0  0  0
    2.1161   10.2706   -5.4313 C   0  0  0  0  0  0  0  0  0  0  0  0
    2.6881    9.6685   -4.3072 C   0  0  0  0  0  0  0  0  0  0  0  0
    3.4067   10.5359   -3.4581 N   0  0  0  0  0  0  0  0  0  0  0  0
    3.4882   10.4838   -2.0927 C   0  0  0  0  0  0  0  0  0  0  0  0
    4.1160   11.3538   -1.4834 O   0  0  0  0  0  0  0  0  0  0  0  0
    2.7156    9.4102   -1.3688 C   0  0  0  0  0  0  0  0  0  0  0  0
    5.2838    2.6207   -4.1923 C   0  0  0  0  0  0  0  0  0  0  0  0
    5.8602    2.2007   -5.3963 C   0  0  0  0  0  0  0  0  0  0  0  0
    8.0797    2.9312   -9.0999 H   0  0  0  0  0  0  0  0  0  0  0  0
    8.6618    3.8615   -7.7133 H   0  0  0  0  0  0  0  0  0  0  0  0
    7.1162    4.3024   -8.5388 H   0  0  0  0  0  0  0  0  0  0  0  0
    7.2229    5.1643   -6.3707 H   0  0  0  0  0  0  0  0  0  0  0  0
    6.2126    5.8849   -4.2924 H   0  0  0  0  0  0  0  0  0  0  0  0
    5.3328    4.0864   -1.7782 H   0  0  0  0  0  0  0  0  0  0  0  0
    4.0383    7.6036    0.2545 H   0  0  0  0  0  0  0  0  0  0  0  0
    1.5399    6.5451   -4.9125 H   0  0  0  0  0  0  0  0  0  0  0  0
    0.7761    9.9522   -7.0860 H   0  0  0  0  0  0  0  0  0  0  0  0
    2.2388   11.3284   -5.6371 H   0  0  0  0  0  0  0  0  0  0  0  0
    3.7619   11.4061   -3.8395 H   0  0  0  0  0  0  0  0  0  0  0  0
    1.6519    9.4802   -1.6349 H   0  0  0  0  0  0  0  0  0  0  0  0
    2.7669    9.6028   -0.2911 H   0  0  0  0  0  0  0  0  0  0  0  0
    4.7408    1.9038   -3.5832 H   0  0  0  0  0  0  0  0  0  0  0  0
    5.7577    1.1644   -5.7078 H   0  0  0  0  0  0  0  0  0  0  0  0
  1  2  1  0  0  0  0
  1 26  1  0  0  0  0
  1 27  1  0  0  0  0
  1 28  1  0  0  0  0
  2  3  1  0  0  0  0
  3  4  1  0  0  0  0
  3 25  2  0  0  0  0
  4  5  2  0  0  0  0
  4 29  1  0  0  0  0
  5  6  1  0  0  0  0
  5 30  1  0  0  0  0
  6  7  1  0  0  0  0
  6 24  2  0  0  0  0
  7  8  1  0  0  0  0
  7 31  1  0  0  0  0
  8  9  1  0  0  0  0
  8 13  2  0  0  0  0
  9 10  2  0  0  0  0
 10 11  1  0  0  0  0
 10 32  1  0  0  0  0
 11 12  2  0  0  0  0
 11 23  1  0  0  0  0
 12 13  1  0  0  0  0
 12 14  1  0  0  0  0
 14 15  1  0  0  0  0
 14 19  2  0  0  0  0
 15 16  2  0  0  0  0
 15 33  1  0  0  0  0
 16 17  1  0  0  0  0
 17 18  2  0  0  0  0
 17 34  1  0  0  0  0
 18 19  1  0  0  0  0
 18 35  1  0  0  0  0
 19 20  1  0  0  0  0
 20 21  1  0  0  0  0
 20 36  1  0  0  0  0
 21 22  2  0  0  0  0
 21 23  1  0  0  0  0
 23 37  1  0  0  0  0
 23 38  1  0  0  0  0
 24 25  1  0  0  0  0
 24 39  1  0  0  0  0
 25 40  1  0  0  0  0
M  END
$$$$
