CHEMBL571278
 OpenBabel04072215383D

 58 62  0  0  0  0  0  0  0  0999 V2000
   -2.8018    0.1795   -2.2226 C   0  0  0  0  0  0  0  0  0  0  0  0
   -1.7676    0.7994   -2.2672 C   0  0  0  0  0  0  0  0  0  0  0  0
   -0.5408    1.5244   -2.3383 C   0  0  0  0  0  0  0  0  0  0  0  0
   -0.1634    2.1300   -3.5367 C   0  0  0  0  0  0  0  0  0  0  0  0
    1.0398    2.8268   -3.6113 C   0  0  0  0  0  0  0  0  0  0  0  0
    1.8637    2.9126   -2.4880 C   0  0  0  0  0  0  0  0  0  0  0  0
    1.5048    2.3056   -1.2766 C   0  0  0  0  0  0  0  0  0  0  0  0
    2.2960    2.4454   -0.1187 N   0  0  0  0  0  0  0  0  0  0  0  0
    3.7127    2.5104   -0.0507 C   0  0  0  0  0  0  0  0  0  0  0  0
    4.4333    2.0029   -1.0754 N   0  0  0  0  0  0  0  0  0  0  0  0
    5.7714    2.0571   -0.9883 C   0  0  0  0  0  0  0  0  0  0  0  0
    6.4508    2.6545    0.0588 C   0  0  0  0  0  0  0  0  0  0  0  0
    5.7333    3.2274    1.1294 C   0  0  0  0  0  0  0  0  0  0  0  0
    6.3631    3.9084    2.2314 C   0  0  0  0  0  0  0  0  0  0  0  0
    7.7616    4.1106    2.1914 N   0  0  0  0  0  0  0  0  0  0  0  0
    8.7519    4.1163    3.1913 C   0  0  0  0  0  0  0  0  0  0  0  0
    8.5237    3.4014    4.3229 N   0  0  0  0  0  0  0  0  0  0  0  0
    9.4012    3.4960    5.3411 C   0  0  0  0  0  0  0  0  0  0  0  0
   10.5651    4.2274    5.2765 C   0  0  0  0  0  0  0  0  0  0  0  0
   10.8230    4.9294    4.1062 C   0  0  0  0  0  0  0  0  0  0  0  0
    9.8929    4.9397    3.0446 C   0  0  0  0  0  0  0  0  0  0  0  0
   10.0629    5.8785    1.9085 C   0  0  0  0  0  0  0  0  0  0  0  0
   10.6252    7.1319    2.0945 C   0  0  0  0  0  0  0  0  0  0  0  0
   10.6187    8.0166    1.0388 C   0  0  0  0  0  0  0  0  0  0  0  0
   11.1842    9.2762    1.1111 N   0  0  0  0  0  0  0  0  0  0  0  0
   11.1075   10.0874    2.3085 C   0  0  0  0  0  0  0  0  0  0  0  0
   10.1268    7.6661   -0.1559 N   0  0  0  0  0  0  0  0  0  0  0  0
    9.6322    6.4242   -0.2653 C   0  0  0  0  0  0  0  0  0  0  0  0
    9.5639    5.5041    0.7098 N   0  0  0  0  0  0  0  0  0  0  0  0
    5.5679    4.3750    3.3037 C   0  0  0  0  0  0  0  0  0  0  0  0
    6.0951    5.1081    4.5071 C   0  0  0  0  0  0  0  0  0  0  0  0
    4.1834    4.1777    3.2696 C   0  0  0  0  0  0  0  0  0  0  0  0
    3.5705    3.5879    2.1738 C   0  0  0  0  0  0  0  0  0  0  0  0
    4.3219    3.1027    1.0874 C   0  0  0  0  0  0  0  0  0  0  0  0
    0.2821    1.6234   -1.2105 C   0  0  0  0  0  0  0  0  0  0  0  0
   -3.7109   -0.3698   -2.1935 H   0  0  0  0  0  0  0  0  0  0  0  0
   -0.8010    2.0637   -4.4145 H   0  0  0  0  0  0  0  0  0  0  0  0
    1.3399    3.3058   -4.5390 H   0  0  0  0  0  0  0  0  0  0  0  0
    2.7949    3.4701   -2.5606 H   0  0  0  0  0  0  0  0  0  0  0  0
    1.9419    1.9313    0.6772 H   0  0  0  0  0  0  0  0  0  0  0  0
    6.3033    1.5898   -1.8113 H   0  0  0  0  0  0  0  0  0  0  0  0
    7.5358    2.6456    0.0421 H   0  0  0  0  0  0  0  0  0  0  0  0
    8.1341    4.3795    1.2818 H   0  0  0  0  0  0  0  0  0  0  0  0
    9.1204    2.9610    6.2428 H   0  0  0  0  0  0  0  0  0  0  0  0
   11.2442    4.2708    6.1204 H   0  0  0  0  0  0  0  0  0  0  0  0
   11.7457    5.5021    4.0456 H   0  0  0  0  0  0  0  0  0  0  0  0
   11.0387    7.4191    3.0493 H   0  0  0  0  0  0  0  0  0  0  0  0
   10.9644    9.7700    0.2485 H   0  0  0  0  0  0  0  0  0  0  0  0
   11.0613    9.5146    3.2388 H   0  0  0  0  0  0  0  0  0  0  0  0
   10.2382   10.7513    2.2728 H   0  0  0  0  0  0  0  0  0  0  0  0
   12.0062   10.7103    2.3658 H   0  0  0  0  0  0  0  0  0  0  0  0
    9.2433    6.1398   -1.2374 H   0  0  0  0  0  0  0  0  0  0  0  0
    6.9765    5.7117    4.2781 H   0  0  0  0  0  0  0  0  0  0  0  0
    6.3116    4.4013    5.3127 H   0  0  0  0  0  0  0  0  0  0  0  0
    5.3477    5.8188    4.8799 H   0  0  0  0  0  0  0  0  0  0  0  0
    3.5624    4.5207    4.0950 H   0  0  0  0  0  0  0  0  0  0  0  0
    2.4878    3.5185    2.1791 H   0  0  0  0  0  0  0  0  0  0  0  0
   -0.0291    1.1520   -0.2823 H   0  0  0  0  0  0  0  0  0  0  0  0
  1  2  3  0  0  0  0
  1 36  1  0  0  0  0
  2  3  1  0  0  0  0
  3  4  1  0  0  0  0
  3 35  2  0  0  0  0
  4  5  2  0  0  0  0
  4 37  1  0  0  0  0
  5  6  1  0  0  0  0
  5 38  1  0  0  0  0
  6  7  2  0  0  0  0
  6 39  1  0  0  0  0
  7  8  1  0  0  0  0
  7 35  1  0  0  0  0
  8  9  1  0  0  0  0
  8 40  1  0  0  0  0
  9 10  1  0  0  0  0
  9 34  2  0  0  0  0
 10 11  2  0  0  0  0
 11 12  1  0  0  0  0
 11 41  1  0  0  0  0
 12 13  2  0  0  0  0
 12 42  1  0  0  0  0
 13 14  1  0  0  0  0
 13 34  1  0  0  0  0
 14 15  1  0  0  0  0
 14 30  2  0  0  0  0
 15 16  1  0  0  0  0
 15 43  1  0  0  0  0
 16 17  1  0  0  0  0
 16 21  2  0  0  0  0
 17 18  2  0  0  0  0
 18 19  1  0  0  0  0
 18 44  1  0  0  0  0
 19 20  2  0  0  0  0
 19 45  1  0  0  0  0
 20 21  1  0  0  0  0
 20 46  1  0  0  0  0
 21 22  1  0  0  0  0
 22 23  1  0  0  0  0
 22 29  2  0  0  0  0
 23 24  2  0  0  0  0
 23 47  1  0  0  0  0
 24 25  1  0  0  0  0
 24 27  1  0  0  0  0
 25 26  1  0  0  0  0
 25 48  1  0  0  0  0
 26 49  1  0  0  0  0
 26 50  1  0  0  0  0
 26 51  1  0  0  0  0
 27 28  2  0  0  0  0
 28 29  1  0  0  0  0
 28 52  1  0  0  0  0
 30 31  1  0  0  0  0
 30 32  1  0  0  0  0
 31 53  1  0  0  0  0
 31 54  1  0  0  0  0
 31 55  1  0  0  0  0
 32 33  2  0  0  0  0
 32 56  1  0  0  0  0
 33 34  1  0  0  0  0
 33 57  1  0  0  0  0
 35 58  1  0  0  0  0
M  END
$$$$
