CHEMBL3937092
 OpenBabel04072215373D

 62 65  0  0  1  0  0  0  0  0999 V2000
    2.3759   -0.9904    1.4007 C   0  0  0  0  0  0  0  0  0  0  0  0
    1.6900   -2.2808    0.9583 C   0  0  0  0  0  0  0  0  0  0  0  0
    1.0670   -3.0403    2.0530 N   0  0  0  0  0  0  0  0  0  0  0  0
    0.4449   -4.2849    1.5443 C   0  0  0  0  0  0  0  0  0  0  0  0
   -0.9014   -4.0839    0.8037 C   0  0  0  0  0  0  0  0  0  0  0  0
   -1.9218   -3.3371    1.5726 N   0  0  0  0  0  0  0  0  0  0  0  0
   -2.5061   -4.1408    2.6689 C   0  0  0  0  0  0  0  0  0  0  0  0
   -3.2169   -5.4194    2.2233 C   0  0  0  0  0  0  0  0  0  0  0  0
   -1.2900   -2.0477    2.0351 C   0  0  3  0  0  0  0  0  0  0  0  0
   -2.2240   -1.2185    2.9291 C   0  0  0  0  0  0  0  0  0  0  0  0
   -1.7532    0.1164    3.2194 O   0  0  0  0  0  0  0  0  0  0  0  0
   -2.5342    0.7911    4.1396 C   0  0  0  0  0  0  0  0  0  0  0  0
   -3.4780    0.0945    4.9368 C   0  0  0  0  0  0  0  0  0  0  0  0
   -4.3241    0.7001    5.8410 C   0  0  0  0  0  0  0  0  0  0  0  0
   -5.1858   -0.0630    6.5223 N   0  0  0  0  0  0  0  0  0  0  0  0
   -5.9970    0.5723    7.3750 C   0  0  0  0  0  0  0  0  0  0  0  0
   -6.0191    1.8881    7.5862 N   0  0  0  0  0  0  0  0  0  0  0  0
   -5.1529    2.6376    6.8798 C   0  0  0  0  0  0  0  0  0  0  0  0
   -5.1683    4.0452    7.0360 N   0  0  0  0  0  0  0  0  0  0  0  0
   -5.8240    4.7020    8.0877 C   0  0  0  0  0  0  0  0  0  0  0  0
   -5.6293    4.2786    9.4075 C   0  0  0  0  0  0  0  0  0  0  0  0
   -6.3469    4.8550   10.4557 C   0  0  0  0  0  0  0  0  0  0  0  0
   -7.2639    5.8710   10.1845 C   0  0  0  0  0  0  0  0  0  0  0  0
   -8.1654    6.5012   11.5169 Cl  0  0  0  0  0  0  0  0  0  0  0  0
   -7.4367    6.3288    8.8766 C   0  0  0  0  0  0  0  0  0  0  0  0
   -8.5511    7.5879    8.4729 Cl  0  0  0  0  0  0  0  0  0  0  0  0
   -6.7102    5.7532    7.8294 C   0  0  0  0  0  0  0  0  0  0  0  0
   -4.2383    2.0751    5.9835 C   0  0  0  0  0  0  0  0  0  0  0  0
   -3.2668    2.7881    5.2518 C   0  0  0  0  0  0  0  0  0  0  0  0
   -2.4165    2.1724    4.3229 C   0  0  0  0  0  0  0  0  0  0  0  0
   -1.6295    3.1194    3.7528 O   0  0  0  0  0  0  0  0  0  0  0  0
   -0.6769    2.8623    2.7449 C   0  0  0  0  0  0  0  0  0  0  0  0
    0.0511   -2.2712    2.7957 C   0  0  0  0  0  0  0  0  0  0  0  0
    2.9217   -0.5549    0.5575 H   0  0  0  0  0  0  0  0  0  0  0  0
    3.0923   -1.1754    2.2075 H   0  0  0  0  0  0  0  0  0  0  0  0
    1.6566   -0.2370    1.7366 H   0  0  0  0  0  0  0  0  0  0  0  0
    2.4641   -2.9133    0.5064 H   0  0  0  0  0  0  0  0  0  0  0  0
    0.9736   -2.0406    0.1656 H   0  0  0  0  0  0  0  0  0  0  0  0
    0.2843   -4.9570    2.3969 H   0  0  0  0  0  0  0  0  0  0  0  0
    1.1446   -4.8156    0.8871 H   0  0  0  0  0  0  0  0  0  0  0  0
   -1.2865   -5.0537    0.4718 H   0  0  0  0  0  0  0  0  0  0  0  0
   -0.7218   -3.5346   -0.1290 H   0  0  0  0  0  0  0  0  0  0  0  0
   -3.2809   -3.5519    3.1731 H   0  0  0  0  0  0  0  0  0  0  0  0
   -1.7610   -4.4012    3.4284 H   0  0  0  0  0  0  0  0  0  0  0  0
   -3.9745   -5.2077    1.4620 H   0  0  0  0  0  0  0  0  0  0  0  0
   -3.7267   -5.8759    3.0799 H   0  0  0  0  0  0  0  0  0  0  0  0
   -2.5210   -6.1669    1.8331 H   0  0  0  0  0  0  0  0  0  0  0  0
   -1.0844   -1.4421    1.1430 H   0  0  0  0  0  0  0  0  0  0  0  0
   -2.2741   -1.7831    3.8633 H   0  0  0  0  0  0  0  0  0  0  0  0
   -3.2131   -1.1436    2.4577 H   0  0  0  0  0  0  0  0  0  0  0  0
   -3.6144   -0.9782    4.8868 H   0  0  0  0  0  0  0  0  0  0  0  0
   -6.6928   -0.0357    7.9350 H   0  0  0  0  0  0  0  0  0  0  0  0
   -5.3251    4.4805    6.1256 H   0  0  0  0  0  0  0  0  0  0  0  0
   -4.9302    3.4722    9.6206 H   0  0  0  0  0  0  0  0  0  0  0  0
   -6.1948    4.4881   11.4632 H   0  0  0  0  0  0  0  0  0  0  0  0
   -6.8655    6.0970    6.8110 H   0  0  0  0  0  0  0  0  0  0  0  0
   -3.1627    3.8616    5.4071 H   0  0  0  0  0  0  0  0  0  0  0  0
   -0.6569    3.7545    2.1071 H   0  0  0  0  0  0  0  0  0  0  0  0
   -0.9067    2.0134    2.1040 H   0  0  0  0  0  0  0  0  0  0  0  0
    0.3155    2.7725    3.1961 H   0  0  0  0  0  0  0  0  0  0  0  0
   -0.1515   -2.8153    3.7286 H   0  0  0  0  0  0  0  0  0  0  0  0
    0.4577   -1.3144    3.1385 H   0  0  0  0  0  0  0  0  0  0  0  0
  1  2  1  0  0  0  0
  1 34  1  0  0  0  0
  1 35  1  0  0  0  0
  1 36  1  0  0  0  0
  2  3  1  0  0  0  0
  2 37  1  0  0  0  0
  2 38  1  0  0  0  0
  3  4  1  0  0  0  0
  3 33  1  0  0  0  0
  4  5  1  0  0  0  0
  4 39  1  0  0  0  0
  4 40  1  0  0  0  0
  5  6  1  0  0  0  0
  5 41  1  0  0  0  0
  5 42  1  0  0  0  0
  6  7  1  0  0  0  0
  6  9  1  0  0  0  0
  7  8  1  0  0  0  0
  7 43  1  0  0  0  0
  7 44  1  0  0  0  0
  8 45  1  0  0  0  0
  8 46  1  0  0  0  0
  8 47  1  0  0  0  0
  9 10  1  0  0  0  0
  9 33  1  0  0  0  0
  9 48  1  0  0  0  0
 10 11  1  0  0  0  0
 10 49  1  0  0  0  0
 10 50  1  0  0  0  0
 11 12  1  0  0  0  0
 12 13  1  0  0  0  0
 12 30  2  0  0  0  0
 13 14  2  0  0  0  0
 13 51  1  0  0  0  0
 14 15  1  0  0  0  0
 14 28  1  0  0  0  0
 15 16  2  0  0  0  0
 16 17  1  0  0  0  0
 16 52  1  0  0  0  0
 17 18  2  0  0  0  0
 18 19  1  0  0  0  0
 18 28  1  0  0  0  0
 19 20  1  0  0  0  0
 19 53  1  0  0  0  0
 20 21  1  0  0  0  0
 20 27  2  0  0  0  0
 21 22  2  0  0  0  0
 21 54  1  0  0  0  0
 22 23  1  0  0  0  0
 22 55  1  0  0  0  0
 23 24  1  0  0  0  0
 23 25  2  0  0  0  0
 25 26  1  0  0  0  0
 25 27  1  0  0  0  0
 27 56  1  0  0  0  0
 28 29  2  0  0  0  0
 29 30  1  0  0  0  0
 29 57  1  0  0  0  0
 30 31  1  0  0  0  0
 31 32  1  0  0  0  0
 32 58  1  0  0  0  0
 32 59  1  0  0  0  0
 32 60  1  0  0  0  0
 33 61  1  0  0  0  0
 33 62  1  0  0  0  0
M  END
$$$$
