CHEMBL1923983
 OpenBabel04072215363D

 49 52  0  0  0  0  0  0  0  0999 V2000
    3.4274    0.7674    0.8570 C   0  0  0  0  0  0  0  0  0  0  0  0
    2.5745    0.1760   -0.1509 N   0  0  0  0  0  0  0  0  0  0  0  0
    3.1759   -0.8849   -0.8463 C   0  0  0  0  0  0  0  0  0  0  0  0
    4.1110   -1.6715   -0.2126 N   0  0  0  0  0  0  0  0  0  0  0  0
    4.6705   -2.6477   -0.9457 C   0  0  0  0  0  0  0  0  0  0  0  0
    5.6193   -3.5521   -0.5602 N   0  0  0  0  0  0  0  0  0  0  0  0
    5.9623   -4.3795   -1.6215 C   0  0  0  0  0  0  0  0  0  0  0  0
    6.9815   -5.4213   -1.4838 C   0  0  0  0  0  0  0  0  0  0  0  0
    7.3336   -6.2321   -2.5566 C   0  0  0  0  0  0  0  0  0  0  0  0
    8.3160   -7.1951   -2.3722 C   0  0  0  0  0  0  0  0  0  0  0  0
    8.9220   -7.3153   -1.1284 C   0  0  0  0  0  0  0  0  0  0  0  0
    8.5374   -6.4556   -0.1000 C   0  0  0  0  0  0  0  0  0  0  0  0
    9.2401   -6.5437    1.2404 C   0  0  0  0  0  0  0  0  0  0  0  0
    8.6062   -7.4618    2.1629 N   0  0  0  0  0  0  0  0  0  0  0  0
    8.9560   -8.7915    2.2375 C   0  0  0  0  0  0  0  0  0  0  0  0
    9.8512   -9.2996    1.5683 O   0  0  0  0  0  0  0  0  0  0  0  0
    8.1321   -9.5866    3.2562 C   0  0  0  0  0  0  0  0  0  0  0  0
    6.7256   -9.4800    3.0690 O   0  0  0  0  0  0  0  0  0  0  0  0
    6.2997  -10.1297    1.8748 C   0  0  0  0  0  0  0  0  0  0  0  0
    7.5611   -5.5163   -0.2588 N   0  0  0  0  0  0  0  0  0  0  0  0
    5.1810   -3.9917   -2.7130 C   0  0  0  0  0  0  0  0  0  0  0  0
    4.3894   -2.9169   -2.2591 C   0  0  0  0  0  0  0  0  0  0  0  0
    3.4611   -2.1564   -2.8924 C   0  0  0  0  0  0  0  0  0  0  0  0
    2.8304   -1.1352   -2.2112 C   0  0  0  0  0  0  0  0  0  0  0  0
    1.9483   -0.5029   -3.0690 N   0  0  0  0  0  0  0  0  0  0  0  0
    2.0474   -1.1579   -4.2113 C   0  0  0  0  0  0  0  0  0  0  0  0
    2.9805   -2.1680   -4.1460 N   0  0  0  0  0  0  0  0  0  0  0  0
    3.3342   -3.0137   -5.2556 C   0  0  0  0  0  0  0  0  0  0  0  0
    2.9336    1.6471    1.2807 H   0  0  0  0  0  0  0  0  0  0  0  0
    4.3851    1.0934    0.4353 H   0  0  0  0  0  0  0  0  0  0  0  0
    3.6130    0.0694    1.6808 H   0  0  0  0  0  0  0  0  0  0  0  0
    2.1712    0.8241   -0.8259 H   0  0  0  0  0  0  0  0  0  0  0  0
    6.0282   -3.6061    0.3618 H   0  0  0  0  0  0  0  0  0  0  0  0
    6.8631   -6.1245   -3.5264 H   0  0  0  0  0  0  0  0  0  0  0  0
    8.6134   -7.8392   -3.1943 H   0  0  0  0  0  0  0  0  0  0  0  0
    9.6956   -8.0611   -0.9668 H   0  0  0  0  0  0  0  0  0  0  0  0
    9.2413   -5.5577    1.7160 H   0  0  0  0  0  0  0  0  0  0  0  0
   10.2871   -6.8360    1.0937 H   0  0  0  0  0  0  0  0  0  0  0  0
    7.7517   -7.1681    2.6231 H   0  0  0  0  0  0  0  0  0  0  0  0
    8.3653   -9.1907    4.2512 H   0  0  0  0  0  0  0  0  0  0  0  0
    8.4405  -10.6383    3.2451 H   0  0  0  0  0  0  0  0  0  0  0  0
    5.2084  -10.0865    1.8307 H   0  0  0  0  0  0  0  0  0  0  0  0
    6.6079  -11.1801    1.8712 H   0  0  0  0  0  0  0  0  0  0  0  0
    6.6996   -9.6171    0.9950 H   0  0  0  0  0  0  0  0  0  0  0  0
    5.2069   -4.4378   -3.6958 H   0  0  0  0  0  0  0  0  0  0  0  0
    1.4799   -0.9431   -5.1073 H   0  0  0  0  0  0  0  0  0  0  0  0
    2.7152   -2.7621   -6.1215 H   0  0  0  0  0  0  0  0  0  0  0  0
    3.1577   -4.0553   -4.9784 H   0  0  0  0  0  0  0  0  0  0  0  0
    4.3853   -2.8434   -5.5021 H   0  0  0  0  0  0  0  0  0  0  0  0
  1  2  1  0  0  0  0
  1 29  1  0  0  0  0
  1 30  1  0  0  0  0
  1 31  1  0  0  0  0
  2  3  1  0  0  0  0
  2 32  1  0  0  0  0
  3  4  1  0  0  0  0
  3 24  2  0  0  0  0
  4  5  2  0  0  0  0
  5  6  1  0  0  0  0
  5 22  1  0  0  0  0
  6  7  1  0  0  0  0
  6 33  1  0  0  0  0
  7  8  1  0  0  0  0
  7 21  2  0  0  0  0
  8  9  1  0  0  0  0
  8 20  2  0  0  0  0
  9 10  2  0  0  0  0
  9 34  1  0  0  0  0
 10 11  1  0  0  0  0
 10 35  1  0  0  0  0
 11 12  2  0  0  0  0
 11 36  1  0  0  0  0
 12 13  1  0  0  0  0
 12 20  1  0  0  0  0
 13 14  1  0  0  0  0
 13 37  1  0  0  0  0
 13 38  1  0  0  0  0
 14 15  1  0  0  0  0
 14 39  1  0  0  0  0
 15 16  2  0  0  0  0
 15 17  1  0  0  0  0
 17 18  1  0  0  0  0
 17 40  1  0  0  0  0
 17 41  1  0  0  0  0
 18 19  1  0  0  0  0
 19 42  1  0  0  0  0
 19 43  1  0  0  0  0
 19 44  1  0  0  0  0
 21 22  1  0  0  0  0
 21 45  1  0  0  0  0
 22 23  2  0  0  0  0
 23 24  1  0  0  0  0
 23 27  1  0  0  0  0
 24 25  1  0  0  0  0
 25 26  2  0  0  0  0
 26 27  1  0  0  0  0
 26 46  1  0  0  0  0
 27 28  1  0  0  0  0
 28 47  1  0  0  0  0
 28 48  1  0  0  0  0
 28 49  1  0  0  0  0
M  END
$$$$
