CHEMBL1988300
 OpenBabel04072215363D

 45 49  0  0  0  0  0  0  0  0999 V2000
    2.3754   -0.0507   -0.1902 N   0  0  0  0  0  0  0  0  0  0  0  0
    1.0011    0.0347   -0.0320 C   0  0  0  0  0  0  0  0  0  0  0  0
    0.2748    1.0555   -0.6626 C   0  0  0  0  0  0  0  0  0  0  0  0
   -1.1254    1.0628   -0.6493 C   0  0  0  0  0  0  0  0  0  0  0  0
   -1.8318    0.0130   -0.0767 C   0  0  0  0  0  0  0  0  0  0  0  0
   -3.2980    0.0043   -0.0394 C   0  0  0  0  0  0  0  0  0  0  0  0
   -3.9953    0.6132   -1.0672 C   0  0  0  0  0  0  0  0  0  0  0  0
   -5.6706    0.5345   -0.8699 S   0  0  0  0  0  0  0  0  0  0  0  0
   -5.5391   -0.3468    0.6158 C   0  0  0  0  0  0  0  0  0  0  0  0
   -6.6085   -0.8078    1.4281 C   0  0  0  0  0  0  0  0  0  0  0  0
   -8.0190   -0.6079    1.0337 C   0  0  0  0  0  0  0  0  0  0  0  0
   -9.0489   -0.4802    1.8715 C   0  0  0  0  0  0  0  0  0  0  0  0
  -10.3728   -0.3127    1.3766 C   0  0  0  0  0  0  0  0  0  0  0  0
  -10.8426   -0.2762    0.1449 N   0  0  0  0  0  0  0  0  0  0  0  0
  -12.2070   -0.1462    0.2638 C   0  0  0  0  0  0  0  0  0  0  0  0
  -13.1986   -0.0914   -0.7272 C   0  0  0  0  0  0  0  0  0  0  0  0
  -14.5359    0.0551   -0.3320 C   0  0  0  0  0  0  0  0  0  0  0  0
  -14.8774    0.1462    1.0196 C   0  0  0  0  0  0  0  0  0  0  0  0
  -13.9027    0.0802    2.0216 C   0  0  0  0  0  0  0  0  0  0  0  0
  -12.5796   -0.0711    1.5989 C   0  0  0  0  0  0  0  0  0  0  0  0
  -11.3970   -0.1812    2.2824 N   0  0  0  0  0  0  0  0  0  0  0  0
   -6.2183   -1.4939    2.5626 C   0  0  0  0  0  0  0  0  0  0  0  0
   -4.9554   -1.7192    2.9418 N   0  0  0  0  0  0  0  0  0  0  0  0
   -3.9427   -1.2669    2.1820 C   0  0  0  0  0  0  0  0  0  0  0  0
   -2.6904   -1.5647    2.7034 N   0  0  0  0  0  0  0  0  0  0  0  0
   -4.2030   -0.5653    0.9705 C   0  0  0  0  0  0  0  0  0  0  0  0
   -1.0895   -1.0565    0.4385 C   0  0  0  0  0  0  0  0  0  0  0  0
    0.2980   -1.0187    0.5267 C   0  0  0  0  0  0  0  0  0  0  0  0
    2.8379    0.8332   -0.3612 H   0  0  0  0  0  0  0  0  0  0  0  0
    2.8432   -0.6252    0.5000 H   0  0  0  0  0  0  0  0  0  0  0  0
    0.7928    1.8528   -1.1739 H   0  0  0  0  0  0  0  0  0  0  0  0
   -1.6412    1.8925   -1.1287 H   0  0  0  0  0  0  0  0  0  0  0  0
   -3.5942    1.1067   -1.9432 H   0  0  0  0  0  0  0  0  0  0  0  0
   -8.2096   -0.5641   -0.0420 H   0  0  0  0  0  0  0  0  0  0  0  0
   -8.9031   -0.5040    2.9510 H   0  0  0  0  0  0  0  0  0  0  0  0
  -12.9277   -0.1647   -1.7741 H   0  0  0  0  0  0  0  0  0  0  0  0
  -15.3149    0.0999   -1.0896 H   0  0  0  0  0  0  0  0  0  0  0  0
  -15.9220    0.2691    1.2989 H   0  0  0  0  0  0  0  0  0  0  0  0
  -14.1692    0.1447    3.0709 H   0  0  0  0  0  0  0  0  0  0  0  0
  -11.3021   -0.1800    3.2861 H   0  0  0  0  0  0  0  0  0  0  0  0
   -6.9407   -1.9197    3.2509 H   0  0  0  0  0  0  0  0  0  0  0  0
   -2.6749   -1.9797    3.6175 H   0  0  0  0  0  0  0  0  0  0  0  0
   -1.9243   -0.9765    2.4661 H   0  0  0  0  0  0  0  0  0  0  0  0
   -1.5760   -1.9538    0.8068 H   0  0  0  0  0  0  0  0  0  0  0  0
    0.8117   -1.8515    0.9987 H   0  0  0  0  0  0  0  0  0  0  0  0
  1  2  1  0  0  0  0
  1 29  1  0  0  0  0
  1 30  1  0  0  0  0
  2  3  1  0  0  0  0
  2 28  2  0  0  0  0
  3  4  2  0  0  0  0
  3 31  1  0  0  0  0
  4  5  1  0  0  0  0
  4 32  1  0  0  0  0
  5  6  1  0  0  0  0
  5 27  2  0  0  0  0
  6  7  2  0  0  0  0
  6 26  1  0  0  0  0
  7  8  1  0  0  0  0
  7 33  1  0  0  0  0
  8  9  1  0  0  0  0
  9 10  1  0  0  0  0
  9 26  2  0  0  0  0
 10 11  1  0  0  0  0
 10 22  2  0  0  0  0
 11 12  2  3  0  0  0
 11 34  1  0  0  0  0
 12 13  1  0  0  0  0
 12 35  1  0  0  0  0
 13 14  2  0  0  0  0
 13 21  1  0  0  0  0
 14 15  1  0  0  0  0
 15 16  1  0  0  0  0
 15 20  2  0  0  0  0
 16 17  2  0  0  0  0
 16 36  1  0  0  0  0
 17 18  1  0  0  0  0
 17 37  1  0  0  0  0
 18 19  2  0  0  0  0
 18 38  1  0  0  0  0
 19 20  1  0  0  0  0
 19 39  1  0  0  0  0
 20 21  1  0  0  0  0
 21 40  1  0  0  0  0
 22 23  1  0  0  0  0
 22 41  1  0  0  0  0
 23 24  2  0  0  0  0
 24 25  1  0  0  0  0
 24 26  1  0  0  0  0
 25 42  1  0  0  0  0
 25 43  1  0  0  0  0
 27 28  1  0  0  0  0
 27 44  1  0  0  0  0
 28 45  1  0  0  0  0
M  END
$$$$
