CHEMBL3703195
 OpenBabel04072215373D

 54 57  0  0  0  0  0  0  0  0999 V2000
    5.7914   -1.0973    0.5184 C   0  0  0  0  0  0  0  0  0  0  0  0
    4.4533   -0.5698    0.0845 C   0  0  0  0  0  0  0  0  0  0  0  0
    3.2686   -1.2237    0.0014 C   0  0  0  0  0  0  0  0  0  0  0  0
    2.9000   -2.6568    0.1207 C   0  0  0  0  0  0  0  0  0  0  0  0
    3.7822   -3.4909    0.3356 O   0  0  0  0  0  0  0  0  0  0  0  0
    1.5676   -2.9518   -0.1235 N   0  0  0  0  0  0  0  0  0  0  0  0
    0.9851   -4.2450   -0.1151 C   0  0  0  0  0  0  0  0  0  0  0  0
    1.6022   -5.3598    0.4637 C   0  0  0  0  0  0  0  0  0  0  0  0
    1.0431   -6.6373    0.3528 C   0  0  0  0  0  0  0  0  0  0  0  0
   -0.1532   -6.8193   -0.3350 C   0  0  0  0  0  0  0  0  0  0  0  0
   -0.5944   -8.1215   -0.4213 O   0  0  0  0  0  0  0  0  0  0  0  0
   -1.2887   -8.5457   -1.5297 C   0  0  0  0  0  0  0  0  0  0  0  0
   -1.1453   -7.9964   -2.8021 C   0  0  0  0  0  0  0  0  0  0  0  0
   -1.9607   -8.4583   -3.8169 C   0  0  0  0  0  0  0  0  0  0  0  0
   -2.8433   -9.4693   -3.6677 N   0  0  0  0  0  0  0  0  0  0  0  0
   -2.9083  -10.0355   -2.4300 C   0  0  0  0  0  0  0  0  0  0  0  0
   -3.8675  -11.1726   -2.2659 C   0  0  0  0  0  0  0  0  0  0  0  0
   -4.5797  -11.5106   -3.3860 N   0  0  0  0  0  0  0  0  0  0  0  0
   -4.0173  -11.7691   -1.2082 O   0  0  0  0  0  0  0  0  0  0  0  0
   -2.1548   -9.6136   -1.3416 C   0  0  0  0  0  0  0  0  0  0  0  0
   -0.8211   -5.6914   -0.8252 C   0  0  0  0  0  0  0  0  0  0  0  0
   -2.0046   -5.7991   -1.4472 F   0  0  0  0  0  0  0  0  0  0  0  0
   -0.2588   -4.4173   -0.7279 C   0  0  0  0  0  0  0  0  0  0  0  0
    2.2704   -0.1541   -0.2323 C   0  0  0  0  0  0  0  0  0  0  0  0
    1.0722   -0.3739   -0.3709 O   0  0  0  0  0  0  0  0  0  0  0  0
    2.9528    1.0585   -0.2841 N   0  0  0  0  0  0  0  0  0  0  0  0
    2.3300    2.2517   -0.6832 C   0  0  0  0  0  0  0  0  0  0  0  0
    1.2529    2.6986    0.0944 C   0  0  0  0  0  0  0  0  0  0  0  0
    0.5589    3.8591   -0.2392 C   0  0  0  0  0  0  0  0  0  0  0  0
    0.9139    4.5670   -1.3832 C   0  0  0  0  0  0  0  0  0  0  0  0
    1.9657    4.1136   -2.1834 C   0  0  0  0  0  0  0  0  0  0  0  0
    2.6869    2.9645   -1.8291 C   0  0  0  0  0  0  0  0  0  0  0  0
    4.3231    0.7846   -0.2929 N   0  0  0  0  0  0  0  0  0  0  0  0
    5.2851    1.8297    0.0371 C   0  0  0  0  0  0  0  0  0  0  0  0
    5.8176   -2.1773    0.6782 H   0  0  0  0  0  0  0  0  0  0  0  0
    6.0820   -0.6320    1.4738 H   0  0  0  0  0  0  0  0  0  0  0  0
    6.5677   -0.8485   -0.2124 H   0  0  0  0  0  0  0  0  0  0  0  0
    0.9654   -2.1910   -0.4479 H   0  0  0  0  0  0  0  0  0  0  0  0
    2.5317   -5.2650    1.0164 H   0  0  0  0  0  0  0  0  0  0  0  0
    1.5597   -7.4868    0.7931 H   0  0  0  0  0  0  0  0  0  0  0  0
   -0.4525   -7.1871   -3.0034 H   0  0  0  0  0  0  0  0  0  0  0  0
   -1.9287   -7.9999   -4.8007 H   0  0  0  0  0  0  0  0  0  0  0  0
   -4.4387  -10.9848   -4.2445 H   0  0  0  0  0  0  0  0  0  0  0  0
   -5.2512  -12.2562   -3.3436 H   0  0  0  0  0  0  0  0  0  0  0  0
   -2.2549  -10.1005   -0.3759 H   0  0  0  0  0  0  0  0  0  0  0  0
   -0.7957   -3.5856   -1.1787 H   0  0  0  0  0  0  0  0  0  0  0  0
    0.9580    2.1444    0.9829 H   0  0  0  0  0  0  0  0  0  0  0  0
   -0.2624    4.1968    0.3873 H   0  0  0  0  0  0  0  0  0  0  0  0
    0.3591    5.4620   -1.6562 H   0  0  0  0  0  0  0  0  0  0  0  0
    2.2055    4.6513   -3.0996 H   0  0  0  0  0  0  0  0  0  0  0  0
    3.4697    2.6028   -2.4898 H   0  0  0  0  0  0  0  0  0  0  0  0
    4.9222    2.8331   -0.2034 H   0  0  0  0  0  0  0  0  0  0  0  0
    6.1991    1.6792   -0.5496 H   0  0  0  0  0  0  0  0  0  0  0  0
    5.5543    1.8167    1.0986 H   0  0  0  0  0  0  0  0  0  0  0  0
  1  2  1  0  0  0  0
  1 35  1  0  0  0  0
  1 36  1  0  0  0  0
  1 37  1  0  0  0  0
  2  3  2  0  0  0  0
  2 33  1  0  0  0  0
  3  4  1  0  0  0  0
  3 24  1  0  0  0  0
  4  5  2  0  0  0  0
  4  6  1  0  0  0  0
  6  7  1  0  0  0  0
  6 38  1  0  0  0  0
  7  8  1  0  0  0  0
  7 23  2  0  0  0  0
  8  9  2  0  0  0  0
  8 39  1  0  0  0  0
  9 10  1  0  0  0  0
  9 40  1  0  0  0  0
 10 11  1  0  0  0  0
 10 21  2  0  0  0  0
 11 12  1  0  0  0  0
 12 13  1  0  0  0  0
 12 20  2  0  0  0  0
 13 14  2  0  0  0  0
 13 41  1  0  0  0  0
 14 15  1  0  0  0  0
 14 42  1  0  0  0  0
 15 16  2  0  0  0  0
 16 17  1  0  0  0  0
 16 20  1  0  0  0  0
 17 18  1  0  0  0  0
 17 19  2  0  0  0  0
 18 43  1  0  0  0  0
 18 44  1  0  0  0  0
 20 45  1  0  0  0  0
 21 22  1  0  0  0  0
 21 23  1  0  0  0  0
 23 46  1  0  0  0  0
 24 25  2  0  0  0  0
 24 26  1  0  0  0  0
 26 27  1  0  0  0  0
 26 33  1  0  0  0  0
 27 28  1  0  0  0  0
 27 32  2  0  0  0  0
 28 29  2  0  0  0  0
 28 47  1  0  0  0  0
 29 30  1  0  0  0  0
 29 48  1  0  0  0  0
 30 31  2  0  0  0  0
 30 49  1  0  0  0  0
 31 32  1  0  0  0  0
 31 50  1  0  0  0  0
 32 51  1  0  0  0  0
 33 34  1  0  0  0  0
 34 52  1  0  0  0  0
 34 53  1  0  0  0  0
 34 54  1  0  0  0  0
M  END
$$$$
