CHEMBL427709
 OpenBabel04072215383D

 36 39  0  0  0  0  0  0  0  0999 V2000
    0.9770    0.0157    0.0937 C   0  0  0  0  0  0  0  0  0  0  0  0
    2.4776    0.0685    0.1144 C   0  0  0  0  0  0  0  0  0  0  0  0
    3.1400    1.2986    0.0892 C   0  0  0  0  0  0  0  0  0  0  0  0
    4.5346    1.3702    0.0868 C   0  0  0  0  0  0  0  0  0  0  0  0
    5.2604    0.1710    0.1056 C   0  0  0  0  0  0  0  0  0  0  0  0
    4.6381   -1.0835    0.1449 C   0  0  0  0  0  0  0  0  0  0  0  0
    3.2229   -1.1238    0.1507 C   0  0  0  0  0  0  0  0  0  0  0  0
    5.6782   -2.0685    0.1727 C   0  0  0  0  0  0  0  0  0  0  0  0
    5.5236   -3.4917    0.1970 C   0  0  0  0  0  0  0  0  0  0  0  0
    6.3551   -4.4186    0.7022 C   0  0  0  0  0  0  0  0  0  0  0  0
    7.6572   -4.2575    1.3975 C   0  0  0  0  0  0  0  0  0  0  0  0
    8.1557   -3.2796    1.9127 O   0  0  0  0  0  0  0  0  0  0  0  0
    8.1823   -5.5386    1.3715 N   0  0  0  0  0  0  0  0  0  0  0  0
    7.3219   -6.5114    0.9249 N   0  0  0  0  0  0  0  0  0  0  0  0
    6.2197   -5.8956    0.5658 C   0  0  0  0  0  0  0  0  0  0  0  0
    5.0524   -6.6099    0.1541 C   0  0  0  0  0  0  0  0  0  0  0  0
    3.7045   -6.3412    0.3004 C   0  0  0  0  0  0  0  0  0  0  0  0
    2.8449   -7.3018   -0.2061 N   0  0  0  0  0  0  0  0  0  0  0  0
    3.5083   -8.3206   -0.7241 N   0  0  0  0  0  0  0  0  0  0  0  0
    5.1677   -8.1463   -0.6028 S   0  0  0  0  0  0  0  0  0  0  0  0
    6.8749   -1.3980    0.0676 C   0  0  0  0  0  0  0  0  0  0  0  0
    6.6183   -0.0561    0.0899 N   0  0  0  0  0  0  0  0  0  0  0  0
    7.6364    0.9705    0.0819 C   0  0  0  0  0  0  0  0  0  0  0  0
    0.5396    1.0204    0.0883 H   0  0  0  0  0  0  0  0  0  0  0  0
    0.6030   -0.5060    0.9801 H   0  0  0  0  0  0  0  0  0  0  0  0
    0.6317   -0.5027   -0.8062 H   0  0  0  0  0  0  0  0  0  0  0  0
    2.5715    2.2257    0.0655 H   0  0  0  0  0  0  0  0  0  0  0  0
    5.0340    2.3342    0.0627 H   0  0  0  0  0  0  0  0  0  0  0  0
    2.7089   -2.0804    0.1743 H   0  0  0  0  0  0  0  0  0  0  0  0
    4.6274   -3.8303   -0.3129 H   0  0  0  0  0  0  0  0  0  0  0  0
    9.0646   -5.7861    1.8055 H   0  0  0  0  0  0  0  0  0  0  0  0
    3.2745   -5.4749    0.7856 H   0  0  0  0  0  0  0  0  0  0  0  0
    7.8956   -1.7553    0.0023 H   0  0  0  0  0  0  0  0  0  0  0  0
    8.6259    0.5050    0.0897 H   0  0  0  0  0  0  0  0  0  0  0  0
    7.5128    1.5858    0.9767 H   0  0  0  0  0  0  0  0  0  0  0  0
    7.5163    1.5700   -0.8238 H   0  0  0  0  0  0  0  0  0  0  0  0
  1  2  1  0  0  0  0
  1 24  1  0  0  0  0
  1 25  1  0  0  0  0
  1 26  1  0  0  0  0
  2  3  1  0  0  0  0
  2  7  2  0  0  0  0
  3  4  2  0  0  0  0
  3 27  1  0  0  0  0
  4  5  1  0  0  0  0
  4 28  1  0  0  0  0
  5  6  2  0  0  0  0
  5 22  1  0  0  0  0
  6  7  1  0  0  0  0
  6  8  1  0  0  0  0
  7 29  1  0  0  0  0
  8  9  1  0  0  0  0
  8 21  2  0  0  0  0
  9 10  2  0  0  0  0
  9 30  1  0  0  0  0
 10 11  1  0  0  0  0
 10 15  1  0  0  0  0
 11 12  2  0  0  0  0
 11 13  1  0  0  0  0
 13 14  1  0  0  0  0
 13 31  1  0  0  0  0
 14 15  2  0  0  0  0
 15 16  1  0  0  0  0
 16 17  2  0  0  0  0
 16 20  1  0  0  0  0
 17 18  1  0  0  0  0
 17 32  1  0  0  0  0
 18 19  2  0  0  0  0
 19 20  1  0  0  0  0
 21 22  1  0  0  0  0
 21 33  1  0  0  0  0
 22 23  1  0  0  0  0
 23 34  1  0  0  0  0
 23 35  1  0  0  0  0
 23 36  1  0  0  0  0
M  END
$$$$
