CHEMBL1688246
 OpenBabel04072215363D

 44 47  0  0  0  0  0  0  0  0999 V2000
    8.1823   -3.0405   -0.1480 F   0  0  0  0  0  0  0  0  0  0  0  0
    6.8633   -2.9499    0.1797 C   0  0  0  0  0  0  0  0  0  0  0  0
    6.8244   -2.8999    1.5407 F   0  0  0  0  0  0  0  0  0  0  0  0
    6.4507   -1.7284   -0.2545 F   0  0  0  0  0  0  0  0  0  0  0  0
    6.0308   -4.0803   -0.3715 C   0  0  0  0  0  0  0  0  0  0  0  0
    6.5742   -5.0398   -1.2353 C   0  0  0  0  0  0  0  0  0  0  0  0
    5.7959   -6.1061   -1.6898 C   0  0  0  0  0  0  0  0  0  0  0  0
    4.4753   -6.2405   -1.2599 C   0  0  0  0  0  0  0  0  0  0  0  0
    3.9188   -5.3005   -0.3838 C   0  0  0  0  0  0  0  0  0  0  0  0
    2.5908   -5.4726    0.1803 C   0  0  0  0  0  0  0  0  0  0  0  0
    1.7361   -4.5312    0.5230 N   0  0  0  0  0  0  0  0  0  0  0  0
    0.6536   -5.1278    1.1231 N   0  0  0  0  0  0  0  0  0  0  0  0
    0.8799   -6.4248    1.1839 C   0  0  0  0  0  0  0  0  0  0  0  0
    0.0044   -7.4501    1.7321 C   0  0  0  0  0  0  0  0  0  0  0  0
   -1.3774   -7.2770    1.5711 C   0  0  0  0  0  0  0  0  0  0  0  0
   -2.2600   -8.2564    1.9961 C   0  0  0  0  0  0  0  0  0  0  0  0
   -1.7246   -9.3856    2.5778 C   0  0  0  0  0  0  0  0  0  0  0  0
   -0.4021   -9.5648    2.7950 N   0  0  0  0  0  0  0  0  0  0  0  0
    0.4610   -8.5947    2.4149 C   0  0  0  0  0  0  0  0  0  0  0  0
    1.8385   -8.7715    2.6832 N   0  0  0  0  0  0  0  0  0  0  0  0
    2.1397   -9.7491    3.7432 C   0  0  0  0  0  0  0  0  0  0  0  0
    2.3632   -9.0604    5.0770 C   0  0  0  0  0  0  0  0  0  0  0  0
    1.3741   -8.2647    5.6668 C   0  0  0  0  0  0  0  0  0  0  0  0
    1.6242   -7.6848    6.9017 C   0  0  0  0  0  0  0  0  0  0  0  0
    2.7736   -7.8500    7.5881 N   0  0  0  0  0  0  0  0  0  0  0  0
    3.7139   -8.6258    7.0172 C   0  0  0  0  0  0  0  0  0  0  0  0
    3.5587   -9.2406    5.7834 C   0  0  0  0  0  0  0  0  0  0  0  0
    2.0720   -6.6802    0.5625 N   0  0  0  0  0  0  0  0  0  0  0  0
    4.6893   -4.2027    0.0191 C   0  0  0  0  0  0  0  0  0  0  0  0
    7.6140   -4.9693   -1.5521 H   0  0  0  0  0  0  0  0  0  0  0  0
    6.2243   -6.8439   -2.3642 H   0  0  0  0  0  0  0  0  0  0  0  0
    3.8903   -7.0838   -1.6200 H   0  0  0  0  0  0  0  0  0  0  0  0
   -1.7617   -6.3755    1.0933 H   0  0  0  0  0  0  0  0  0  0  0  0
   -3.3281   -8.1451    1.8544 H   0  0  0  0  0  0  0  0  0  0  0  0
   -2.3606  -10.2052    2.8991 H   0  0  0  0  0  0  0  0  0  0  0  0
    2.2406   -7.8751    2.9536 H   0  0  0  0  0  0  0  0  0  0  0  0
    3.0665  -10.2575    3.4487 H   0  0  0  0  0  0  0  0  0  0  0  0
    1.4015  -10.5506    3.8639 H   0  0  0  0  0  0  0  0  0  0  0  0
    0.4163   -8.0980    5.1853 H   0  0  0  0  0  0  0  0  0  0  0  0
    0.8803   -7.0590    7.3870 H   0  0  0  0  0  0  0  0  0  0  0  0
    4.6231   -8.7566    7.5938 H   0  0  0  0  0  0  0  0  0  0  0  0
    4.3590   -9.8589    5.3862 H   0  0  0  0  0  0  0  0  0  0  0  0
    2.5070   -7.5868    0.4789 H   0  0  0  0  0  0  0  0  0  0  0  0
    4.2518   -3.4564    0.6856 H   0  0  0  0  0  0  0  0  0  0  0  0
  1  2  1  0  0  0  0
  2  3  1  0  0  0  0
  2  4  1  0  0  0  0
  2  5  1  0  0  0  0
  5  6  1  0  0  0  0
  5 29  2  0  0  0  0
  6  7  2  0  0  0  0
  6 30  1  0  0  0  0
  7  8  1  0  0  0  0
  7 31  1  0  0  0  0
  8  9  2  0  0  0  0
  8 32  1  0  0  0  0
  9 10  1  0  0  0  0
  9 29  1  0  0  0  0
 10 11  2  0  0  0  0
 10 28  1  0  0  0  0
 11 12  1  0  0  0  0
 12 13  2  0  0  0  0
 13 14  1  0  0  0  0
 13 28  1  0  0  0  0
 14 15  1  0  0  0  0
 14 19  2  0  0  0  0
 15 16  2  0  0  0  0
 15 33  1  0  0  0  0
 16 17  1  0  0  0  0
 16 34  1  0  0  0  0
 17 18  2  0  0  0  0
 17 35  1  0  0  0  0
 18 19  1  0  0  0  0
 19 20  1  0  0  0  0
 20 21  1  0  0  0  0
 20 36  1  0  0  0  0
 21 22  1  0  0  0  0
 21 37  1  0  0  0  0
 21 38  1  0  0  0  0
 22 23  1  0  0  0  0
 22 27  2  0  0  0  0
 23 24  2  0  0  0  0
 23 39  1  0  0  0  0
 24 25  1  0  0  0  0
 24 40  1  0  0  0  0
 25 26  2  0  0  0  0
 26 27  1  0  0  0  0
 26 41  1  0  0  0  0
 27 42  1  0  0  0  0
 28 43  1  0  0  0  0
 29 44  1  0  0  0  0
M  END
$$$$
