CHEMBL240209
 OpenBabel04072215363D

 46 48  0  0  0  0  0  0  0  0999 V2000
   -2.0981   -0.0342   -0.0316 C   0  0  0  0  0  0  0  0  0  0  0  0
   -0.6519   -0.1351   -0.0068 N   0  0  0  0  0  0  0  0  0  0  0  0
    0.0693    1.0010    0.0306 N   0  0  0  0  0  0  0  0  0  0  0  0
    1.3261    0.5686    0.0271 C   0  0  0  0  0  0  0  0  0  0  0  0
    1.4208   -0.8441   -0.0029 C   0  0  0  0  0  0  0  0  0  0  0  0
    2.6049   -1.5140   -0.0565 N   0  0  0  0  0  0  0  0  0  0  0  0
    2.7751   -2.8112   -0.6875 C   0  0  0  0  0  0  0  0  0  0  0  0
    3.8818   -2.8689   -1.7080 C   0  0  0  0  0  0  0  0  0  0  0  0
    4.5954   -4.0675   -1.8481 C   0  0  0  0  0  0  0  0  0  0  0  0
    5.5203   -4.1870   -2.8698 C   0  0  0  0  0  0  0  0  0  0  0  0
    5.7867   -3.2039   -3.7509 N   0  0  0  0  0  0  0  0  0  0  0  0
    5.0866   -2.0570   -3.6106 C   0  0  0  0  0  0  0  0  0  0  0  0
    4.1334   -1.8441   -2.6238 C   0  0  0  0  0  0  0  0  0  0  0  0
    0.1070   -1.2937    0.0355 C   0  0  0  0  0  0  0  0  0  0  0  0
   -0.5181   -2.6017    0.0618 C   0  0  0  0  0  0  0  0  0  0  0  0
   -1.5968   -2.7840   -0.4937 O   0  0  0  0  0  0  0  0  0  0  0  0
    0.1755   -3.6000    0.7383 N   0  0  0  0  0  0  0  0  0  0  0  0
   -0.2512   -4.9420    0.8884 C   0  0  0  0  0  0  0  0  0  0  0  0
   -1.5788   -5.3287    0.7136 C   0  0  0  0  0  0  0  0  0  0  0  0
   -1.9787   -6.6517    0.8984 C   0  0  0  0  0  0  0  0  0  0  0  0
   -1.0587   -7.6508    1.2504 C   0  0  0  0  0  0  0  0  0  0  0  0
   -1.5797   -9.0544    1.4894 C   0  0  0  0  0  0  0  0  0  0  0  0
   -2.9354   -9.1495    1.3722 F   0  0  0  0  0  0  0  0  0  0  0  0
   -1.0741   -9.9615    0.6143 F   0  0  0  0  0  0  0  0  0  0  0  0
   -1.2948   -9.5010    2.7417 F   0  0  0  0  0  0  0  0  0  0  0  0
    0.3026   -7.2926    1.3875 C   0  0  0  0  0  0  0  0  0  0  0  0
    1.3987   -8.3087    1.6581 C   0  0  0  0  0  0  0  0  0  0  0  0
    0.9749   -9.5823    1.8462 F   0  0  0  0  0  0  0  0  0  0  0  0
    2.2920   -8.3663    0.6302 F   0  0  0  0  0  0  0  0  0  0  0  0
    2.1282   -7.9928    2.7626 F   0  0  0  0  0  0  0  0  0  0  0  0
    0.6816   -5.9295    1.2344 C   0  0  0  0  0  0  0  0  0  0  0  0
   -2.3913    1.0159    0.0504 H   0  0  0  0  0  0  0  0  0  0  0  0
   -2.5042   -0.5921    0.8145 H   0  0  0  0  0  0  0  0  0  0  0  0
   -2.4579   -0.4352   -0.9827 H   0  0  0  0  0  0  0  0  0  0  0  0
    2.1202    1.3034    0.0173 H   0  0  0  0  0  0  0  0  0  0  0  0
    3.4726   -0.9801   -0.0057 H   0  0  0  0  0  0  0  0  0  0  0  0
    1.8677   -3.1518   -1.1923 H   0  0  0  0  0  0  0  0  0  0  0  0
    3.0118   -3.5164    0.1176 H   0  0  0  0  0  0  0  0  0  0  0  0
    4.4101   -4.9143   -1.1931 H   0  0  0  0  0  0  0  0  0  0  0  0
    6.0735   -5.1108   -3.0172 H   0  0  0  0  0  0  0  0  0  0  0  0
    5.3085   -1.2932   -4.3509 H   0  0  0  0  0  0  0  0  0  0  0  0
    3.5849   -0.9080   -2.5985 H   0  0  0  0  0  0  0  0  0  0  0  0
    1.0776   -3.3388    1.1172 H   0  0  0  0  0  0  0  0  0  0  0  0
   -2.3566   -4.6123    0.4674 H   0  0  0  0  0  0  0  0  0  0  0  0
   -3.0347   -6.8913    0.7710 H   0  0  0  0  0  0  0  0  0  0  0  0
    1.7327   -5.6659    1.3547 H   0  0  0  0  0  0  0  0  0  0  0  0
  1  2  1  0  0  0  0
  1 32  1  0  0  0  0
  1 33  1  0  0  0  0
  1 34  1  0  0  0  0
  2  3  1  0  0  0  0
  2 14  1  0  0  0  0
  3  4  2  0  0  0  0
  4  5  1  0  0  0  0
  4 35  1  0  0  0  0
  5  6  1  0  0  0  0
  5 14  2  0  0  0  0
  6  7  1  0  0  0  0
  6 36  1  0  0  0  0
  7  8  1  0  0  0  0
  7 37  1  0  0  0  0
  7 38  1  0  0  0  0
  8  9  1  0  0  0  0
  8 13  2  0  0  0  0
  9 10  2  0  0  0  0
  9 39  1  0  0  0  0
 10 11  1  0  0  0  0
 10 40  1  0  0  0  0
 11 12  2  0  0  0  0
 12 13  1  0  0  0  0
 12 41  1  0  0  0  0
 13 42  1  0  0  0  0
 14 15  1  0  0  0  0
 15 16  2  0  0  0  0
 15 17  1  0  0  0  0
 17 18  1  0  0  0  0
 17 43  1  0  0  0  0
 18 19  1  0  0  0  0
 18 31  2  0  0  0  0
 19 20  2  0  0  0  0
 19 44  1  0  0  0  0
 20 21  1  0  0  0  0
 20 45  1  0  0  0  0
 21 22  1  0  0  0  0
 21 26  2  0  0  0  0
 22 23  1  0  0  0  0
 22 24  1  0  0  0  0
 22 25  1  0  0  0  0
 26 27  1  0  0  0  0
 26 31  1  0  0  0  0
 27 28  1  0  0  0  0
 27 29  1  0  0  0  0
 27 30  1  0  0  0  0
 31 46  1  0  0  0  0
M  END
$$$$
