CHEMBL599844
 OpenBabel04072215383D

 37 40  0  0  0  0  0  0  0  0999 V2000
    1.1074   -0.5215    0.5011 O   0  0  0  0  0  0  0  0  0  0  0  0
    2.2487   -0.2188    0.1515 C   0  0  0  0  0  0  0  0  0  0  0  0
    2.9389   -0.9289   -0.9881 C   0  0  0  0  0  0  0  0  0  0  0  0
    4.1864   -1.5825   -0.5144 C   0  0  0  0  0  0  0  0  0  0  0  0
    4.3301   -2.9488   -0.4392 C   0  0  0  0  0  0  0  0  0  0  0  0
    5.4274   -3.5566    0.0421 N   0  0  0  0  0  0  0  0  0  0  0  0
    6.4331   -2.7639    0.4317 C   0  0  0  0  0  0  0  0  0  0  0  0
    7.5597   -3.3959    0.9467 N   0  0  0  0  0  0  0  0  0  0  0  0
    8.9050   -2.9932    0.8721 C   0  0  0  0  0  0  0  0  0  0  0  0
    9.3370   -2.1028   -0.1244 C   0  0  0  0  0  0  0  0  0  0  0  0
   10.6666   -1.6901   -0.2028 C   0  0  0  0  0  0  0  0  0  0  0  0
   11.5922   -2.1453    0.7303 C   0  0  0  0  0  0  0  0  0  0  0  0
   11.1871   -3.0212    1.7368 C   0  0  0  0  0  0  0  0  0  0  0  0
    9.8558   -3.4468    1.8032 C   0  0  0  0  0  0  0  0  0  0  0  0
    9.4118   -4.5291    3.0782 Cl  0  0  0  0  0  0  0  0  0  0  0  0
    6.3871   -1.4214    0.3729 N   0  0  0  0  0  0  0  0  0  0  0  0
    5.2582   -0.8347   -0.0757 C   0  0  0  0  0  0  0  0  0  0  0  0
    5.2376    0.6421   -0.0497 C   0  0  0  0  0  0  0  0  0  0  0  0
    6.3896    1.3520   -0.4487 C   0  0  0  0  0  0  0  0  0  0  0  0
    6.4345    2.7482   -0.4297 C   0  0  0  0  0  0  0  0  0  0  0  0
    5.3487    3.4695    0.0500 C   0  0  0  0  0  0  0  0  0  0  0  0
    4.2122    2.7961    0.4898 C   0  0  0  0  0  0  0  0  0  0  0  0
    4.1259    1.3988    0.3903 C   0  0  0  0  0  0  0  0  0  0  0  0
    2.8750    0.8502    0.7338 N   0  0  0  0  0  0  0  0  0  0  0  0
    3.1525   -0.2142   -1.7935 H   0  0  0  0  0  0  0  0  0  0  0  0
    2.2479   -1.6653   -1.4136 H   0  0  0  0  0  0  0  0  0  0  0  0
    3.5419   -3.6221   -0.7658 H   0  0  0  0  0  0  0  0  0  0  0  0
    7.4139   -4.3951    1.0075 H   0  0  0  0  0  0  0  0  0  0  0  0
    8.6378   -1.7380   -0.8723 H   0  0  0  0  0  0  0  0  0  0  0  0
   10.9728   -1.0120   -0.9951 H   0  0  0  0  0  0  0  0  0  0  0  0
   12.6260   -1.8160    0.6753 H   0  0  0  0  0  0  0  0  0  0  0  0
   11.9107   -3.3652    2.4714 H   0  0  0  0  0  0  0  0  0  0  0  0
    7.2686    0.8058   -0.7893 H   0  0  0  0  0  0  0  0  0  0  0  0
    7.3221    3.2681   -0.7811 H   0  0  0  0  0  0  0  0  0  0  0  0
    5.3786    4.5560    0.0693 H   0  0  0  0  0  0  0  0  0  0  0  0
    3.3672    3.3796    0.8487 H   0  0  0  0  0  0  0  0  0  0  0  0
    2.2572    1.3917    1.3278 H   0  0  0  0  0  0  0  0  0  0  0  0
  1  2  2  0  0  0  0
  2  3  1  0  0  0  0
  2 24  1  0  0  0  0
  3  4  1  0  0  0  0
  3 25  1  0  0  0  0
  3 26  1  0  0  0  0
  4  5  1  0  0  0  0
  4 17  2  0  0  0  0
  5  6  2  0  0  0  0
  5 27  1  0  0  0  0
  6  7  1  0  0  0  0
  7  8  1  0  0  0  0
  7 16  2  0  0  0  0
  8  9  1  0  0  0  0
  8 28  1  0  0  0  0
  9 10  1  0  0  0  0
  9 14  2  0  0  0  0
 10 11  2  0  0  0  0
 10 29  1  0  0  0  0
 11 12  1  0  0  0  0
 11 30  1  0  0  0  0
 12 13  2  0  0  0  0
 12 31  1  0  0  0  0
 13 14  1  0  0  0  0
 13 32  1  0  0  0  0
 14 15  1  0  0  0  0
 16 17  1  0  0  0  0
 17 18  1  0  0  0  0
 18 19  1  0  0  0  0
 18 23  2  0  0  0  0
 19 20  2  0  0  0  0
 19 33  1  0  0  0  0
 20 21  1  0  0  0  0
 20 34  1  0  0  0  0
 21 22  2  0  0  0  0
 21 35  1  0  0  0  0
 22 23  1  0  0  0  0
 22 36  1  0  0  0  0
 23 24  1  0  0  0  0
 24 37  1  0  0  0  0
M  END
$$$$
