CHEMBL401857
 OpenBabel04072215373D

 56 60  0  0  0  0  0  0  0  0999 V2000
    1.1239   -0.4280    0.6263 C   0  0  0  0  0  0  0  0  0  0  0  0
    2.4703   -0.0360    0.0208 C   0  0  0  0  0  0  0  0  0  0  0  0
    2.6356   -0.4461   -1.4393 C   0  0  0  0  0  0  0  0  0  0  0  0
    2.8783    1.4018    0.2638 C   0  0  0  0  0  0  0  0  0  0  0  0
    4.0879    1.8028    0.9419 C   0  0  0  0  0  0  0  0  0  0  0  0
    5.1851    0.9444    1.4954 C   0  0  0  0  0  0  0  0  0  0  0  0
    5.2485   -0.3675    1.3436 N   0  0  0  0  0  0  0  0  0  0  0  0
    6.3580   -0.8094    2.0222 N   0  0  0  0  0  0  0  0  0  0  0  0
    6.9099    0.2615    2.5459 C   0  0  0  0  0  0  0  0  0  0  0  0
    8.0765    0.3484    3.4627 C   0  0  0  0  0  0  0  0  0  0  0  0
    9.3588    0.4211    2.7571 N   0  0  0  0  0  0  0  0  0  0  0  0
    6.2403    1.4159    2.2404 O   0  0  0  0  0  0  0  0  0  0  0  0
    4.0907    3.1736    1.0373 C   0  0  0  0  0  0  0  0  0  0  0  0
    2.9702    3.6425    0.4175 N   0  0  0  0  0  0  0  0  0  0  0  0
    2.6509    4.9397    0.3226 N   0  0  0  0  0  0  0  0  0  0  0  0
    1.5344    5.1622   -0.2927 C   0  0  0  0  0  0  0  0  0  0  0  0
    0.7090    4.2190   -0.8324 N   0  0  0  0  0  0  0  0  0  0  0  0
    1.0099    2.9527   -0.7595 C   0  0  0  0  0  0  0  0  0  0  0  0
    0.1605    2.0293   -1.3298 N   0  0  0  0  0  0  0  0  0  0  0  0
   -1.2292    2.2220   -1.4750 C   0  0  0  0  0  0  0  0  0  0  0  0
   -1.9681    2.9214   -0.5119 C   0  0  0  0  0  0  0  0  0  0  0  0
   -3.3412    3.1535   -0.6678 C   0  0  0  0  0  0  0  0  0  0  0  0
   -4.0182    3.9628    0.3800 C   0  0  0  0  0  0  0  0  0  0  0  0
   -3.3698    4.3755    1.3382 O   0  0  0  0  0  0  0  0  0  0  0  0
   -5.3608    4.2283    0.2183 N   0  0  0  0  0  0  0  0  0  0  0  0
   -6.0786    5.0245    1.1605 C   0  0  0  0  0  0  0  0  0  0  0  0
   -6.7306    4.3846    2.3542 C   0  0  0  0  0  0  0  0  0  0  0  0
   -7.5755    4.9538    1.2525 C   0  0  0  0  0  0  0  0  0  0  0  0
   -3.9831    2.6380   -1.7942 C   0  0  0  0  0  0  0  0  0  0  0  0
   -5.2955    2.8347   -1.9915 F   0  0  0  0  0  0  0  0  0  0  0  0
   -3.2791    1.9067   -2.7490 C   0  0  0  0  0  0  0  0  0  0  0  0
   -1.9129    1.7050   -2.5804 C   0  0  0  0  0  0  0  0  0  0  0  0
   -1.2352    1.0145   -3.5097 F   0  0  0  0  0  0  0  0  0  0  0  0
    2.2341    2.5980   -0.0793 C   0  0  0  0  0  0  0  0  0  0  0  0
    0.9587   -1.5059    0.5119 H   0  0  0  0  0  0  0  0  0  0  0  0
    0.2748    0.0790    0.1719 H   0  0  0  0  0  0  0  0  0  0  0  0
    1.1067   -0.2092    1.7007 H   0  0  0  0  0  0  0  0  0  0  0  0
    3.1636   -0.6807    0.5642 H   0  0  0  0  0  0  0  0  0  0  0  0
    2.0662    0.1804   -2.1254 H   0  0  0  0  0  0  0  0  0  0  0  0
    2.3274   -1.4854   -1.5922 H   0  0  0  0  0  0  0  0  0  0  0  0
    3.6884   -0.3654   -1.7351 H   0  0  0  0  0  0  0  0  0  0  0  0
    8.0784   -0.5370    4.1087 H   0  0  0  0  0  0  0  0  0  0  0  0
    7.9724    1.2237    4.1115 H   0  0  0  0  0  0  0  0  0  0  0  0
    9.4709   -0.4248    2.1966 H   0  0  0  0  0  0  0  0  0  0  0  0
   10.1101    0.4049    3.4445 H   0  0  0  0  0  0  0  0  0  0  0  0
    4.7933    3.8635    1.4836 H   0  0  0  0  0  0  0  0  0  0  0  0
    1.2064    6.2069   -0.4062 H   0  0  0  0  0  0  0  0  0  0  0  0
    0.5675    1.4618   -2.0625 H   0  0  0  0  0  0  0  0  0  0  0  0
   -1.4645    3.3027    0.3766 H   0  0  0  0  0  0  0  0  0  0  0  0
   -5.8481    3.8915   -0.6063 H   0  0  0  0  0  0  0  0  0  0  0  0
   -5.6203    5.9985    1.3246 H   0  0  0  0  0  0  0  0  0  0  0  0
   -6.6756    4.9193    3.2955 H   0  0  0  0  0  0  0  0  0  0  0  0
   -6.6689    3.3075    2.4538 H   0  0  0  0  0  0  0  0  0  0  0  0
   -8.1096    5.8765    1.4488 H   0  0  0  0  0  0  0  0  0  0  0  0
   -8.1045    4.2590    0.6129 H   0  0  0  0  0  0  0  0  0  0  0  0
   -3.7863    1.5096   -3.6212 H   0  0  0  0  0  0  0  0  0  0  0  0
  1  2  1  0  0  0  0
  1 35  1  0  0  0  0
  1 36  1  0  0  0  0
  1 37  1  0  0  0  0
  2  3  1  0  0  0  0
  2  4  1  0  0  0  0
  2 38  1  0  0  0  0
  3 39  1  0  0  0  0
  3 40  1  0  0  0  0
  3 41  1  0  0  0  0
  4  5  1  0  0  0  0
  4 34  2  0  0  0  0
  5  6  1  0  0  0  0
  5 13  2  0  0  0  0
  6  7  2  0  0  0  0
  6 12  1  0  0  0  0
  7  8  1  0  0  0  0
  8  9  2  0  0  0  0
  9 10  1  0  0  0  0
  9 12  1  0  0  0  0
 10 11  1  0  0  0  0
 10 42  1  0  0  0  0
 10 43  1  0  0  0  0
 11 44  1  0  0  0  0
 11 45  1  0  0  0  0
 13 14  1  0  0  0  0
 13 46  1  0  0  0  0
 14 15  1  0  0  0  0
 14 34  1  0  0  0  0
 15 16  2  0  0  0  0
 16 17  1  0  0  0  0
 16 47  1  0  0  0  0
 17 18  2  0  0  0  0
 18 19  1  0  0  0  0
 18 34  1  0  0  0  0
 19 20  1  0  0  0  0
 19 48  1  0  0  0  0
 20 21  1  0  0  0  0
 20 32  2  0  0  0  0
 21 22  2  0  0  0  0
 21 49  1  0  0  0  0
 22 23  1  0  0  0  0
 22 29  1  0  0  0  0
 23 24  2  0  0  0  0
 23 25  1  0  0  0  0
 25 26  1  0  0  0  0
 25 50  1  0  0  0  0
 26 27  1  0  0  0  0
 26 28  1  0  0  0  0
 26 51  1  0  0  0  0
 27 28  1  0  0  0  0
 27 52  1  0  0  0  0
 27 53  1  0  0  0  0
 28 54  1  0  0  0  0
 28 55  1  0  0  0  0
 29 30  1  0  0  0  0
 29 31  2  0  0  0  0
 31 32  1  0  0  0  0
 31 56  1  0  0  0  0
 32 33  1  0  0  0  0
M  END
$$$$
