CHEMBL392330
 OpenBabel04072215373D

 38 40  0  0  0  0  0  0  0  0999 V2000
    2.1152   -1.0891   -0.4906 O   0  0  0  0  0  0  0  0  0  0  0  0
    2.0638    0.0400   -0.0123 C   0  0  0  0  0  0  0  0  0  0  0  0
    1.2591    0.3859    1.0658 N   0  0  0  0  0  0  0  0  0  0  0  0
    0.3482   -0.4658    1.7450 C   0  0  0  0  0  0  0  0  0  0  0  0
    0.3689   -1.8555    1.6134 C   0  0  0  0  0  0  0  0  0  0  0  0
   -0.5862   -2.6548    2.2452 C   0  0  0  0  0  0  0  0  0  0  0  0
   -1.5849   -2.0727    3.0230 C   0  0  0  0  0  0  0  0  0  0  0  0
   -2.7548   -3.1200    3.7402 Cl  0  0  0  0  0  0  0  0  0  0  0  0
   -1.6012   -0.6847    3.1909 C   0  0  0  0  0  0  0  0  0  0  0  0
   -2.8103    0.1084    4.1397 Cl  0  0  0  0  0  0  0  0  0  0  0  0
   -0.6276    0.1135    2.5671 C   0  0  0  0  0  0  0  0  0  0  0  0
    2.8200    1.1365   -0.5938 C   0  0  0  0  0  0  0  0  0  0  0  0
    2.6082    2.5045   -0.4787 C   0  0  0  0  0  0  0  0  0  0  0  0
    3.5486    3.1112   -1.3203 C   0  0  0  0  0  0  0  0  0  0  0  0
    4.3385    2.2206   -1.9100 N   0  0  0  0  0  0  0  0  0  0  0  0
    3.8812    1.0198   -1.4798 N   0  0  0  0  0  0  0  0  0  0  0  0
    4.4942   -0.1702   -2.0710 C   0  0  0  0  0  0  0  0  0  0  0  0
    6.0203   -0.2180   -1.8883 C   0  0  0  0  0  0  0  0  0  0  0  0
    6.7708   -1.3442   -2.5757 C   0  0  0  0  0  0  0  0  0  0  0  0
    8.1118   -1.1300   -2.9295 C   0  0  0  0  0  0  0  0  0  0  0  0
    8.8254   -2.1430   -3.5558 C   0  0  0  0  0  0  0  0  0  0  0  0
    8.3079   -3.3551   -3.8376 N   0  0  0  0  0  0  0  0  0  0  0  0
    7.0267   -3.5586   -3.4671 C   0  0  0  0  0  0  0  0  0  0  0  0
    6.2318   -2.6056   -2.8371 C   0  0  0  0  0  0  0  0  0  0  0  0
    1.2501    1.3566    1.3498 H   0  0  0  0  0  0  0  0  0  0  0  0
    1.1336   -2.3629    1.0315 H   0  0  0  0  0  0  0  0  0  0  0  0
   -0.5416   -3.7334    2.1143 H   0  0  0  0  0  0  0  0  0  0  0  0
   -0.6694    1.1923    2.7034 H   0  0  0  0  0  0  0  0  0  0  0  0
    1.8371    3.0098    0.0842 H   0  0  0  0  0  0  0  0  0  0  0  0
    3.6814    4.1622   -1.5406 H   0  0  0  0  0  0  0  0  0  0  0  0
    4.2362   -0.1404   -3.1370 H   0  0  0  0  0  0  0  0  0  0  0  0
    4.0412   -1.0628   -1.6442 H   0  0  0  0  0  0  0  0  0  0  0  0
    6.2595   -0.2526   -0.8182 H   0  0  0  0  0  0  0  0  0  0  0  0
    6.4383    0.7226   -2.2711 H   0  0  0  0  0  0  0  0  0  0  0  0
    8.6010   -0.1822   -2.7287 H   0  0  0  0  0  0  0  0  0  0  0  0
    9.8589   -1.9965   -3.8549 H   0  0  0  0  0  0  0  0  0  0  0  0
    6.6384   -4.5487   -3.6980 H   0  0  0  0  0  0  0  0  0  0  0  0
    5.2149   -2.8711   -2.5652 H   0  0  0  0  0  0  0  0  0  0  0  0
  1  2  2  0  0  0  0
  2  3  1  0  0  0  0
  2 12  1  0  0  0  0
  3  4  1  0  0  0  0
  3 25  1  0  0  0  0
  4  5  1  0  0  0  0
  4 11  2  0  0  0  0
  5  6  2  0  0  0  0
  5 26  1  0  0  0  0
  6  7  1  0  0  0  0
  6 27  1  0  0  0  0
  7  8  1  0  0  0  0
  7  9  2  0  0  0  0
  9 10  1  0  0  0  0
  9 11  1  0  0  0  0
 11 28  1  0  0  0  0
 12 13  2  0  0  0  0
 12 16  1  0  0  0  0
 13 14  1  0  0  0  0
 13 29  1  0  0  0  0
 14 15  2  0  0  0  0
 14 30  1  0  0  0  0
 15 16  1  0  0  0  0
 16 17  1  0  0  0  0
 17 18  1  0  0  0  0
 17 31  1  0  0  0  0
 17 32  1  0  0  0  0
 18 19  1  0  0  0  0
 18 33  1  0  0  0  0
 18 34  1  0  0  0  0
 19 20  1  0  0  0  0
 19 24  2  0  0  0  0
 20 21  2  0  0  0  0
 20 35  1  0  0  0  0
 21 22  1  0  0  0  0
 21 36  1  0  0  0  0
 22 23  2  0  0  0  0
 23 24  1  0  0  0  0
 23 37  1  0  0  0  0
 24 38  1  0  0  0  0
M  END
$$$$
