CHEMBL194057
 OpenBabel04072215363D

 47 50  0  0  0  0  0  0  0  0999 V2000
    2.2043    0.0847    0.8031 C   0  0  0  0  0  0  0  0  0  0  0  0
    3.3004    0.6087    0.0617 O   0  0  0  0  0  0  0  0  0  0  0  0
    3.6599   -0.0732   -1.0675 C   0  0  0  0  0  0  0  0  0  0  0  0
    3.0207   -1.1996   -1.5763 C   0  0  0  0  0  0  0  0  0  0  0  0
    3.5168   -1.8312   -2.7221 C   0  0  0  0  0  0  0  0  0  0  0  0
    4.7033   -1.4038   -3.3313 C   0  0  0  0  0  0  0  0  0  0  0  0
    5.3813   -2.2351   -4.3313 C   0  0  0  0  0  0  0  0  0  0  0  0
    6.0246   -1.5330   -5.3124 O   0  0  0  0  0  0  0  0  0  0  0  0
    6.6217   -2.4302   -6.1433 C   0  0  0  0  0  0  0  0  0  0  0  0
    7.3117   -2.0523   -7.2311 N   0  0  0  0  0  0  0  0  0  0  0  0
    7.8106   -3.1147   -7.8776 C   0  0  0  0  0  0  0  0  0  0  0  0
    7.7052   -4.4091   -7.5442 N   0  0  0  0  0  0  0  0  0  0  0  0
    7.0200   -4.7435   -6.4310 C   0  0  0  0  0  0  0  0  0  0  0  0
    6.9937   -6.0827   -6.1204 N   0  0  0  0  0  0  0  0  0  0  0  0
    6.4078   -3.7254   -5.6845 C   0  0  0  0  0  0  0  0  0  0  0  0
    5.5832   -3.6048   -4.5196 C   0  0  0  0  0  0  0  0  0  0  0  0
    4.9583   -4.6255   -3.6950 C   0  0  0  0  0  0  0  0  0  0  0  0
    4.9410   -4.5331   -2.3012 C   0  0  0  0  0  0  0  0  0  0  0  0
    4.1604   -5.4142   -1.5397 C   0  0  0  0  0  0  0  0  0  0  0  0
    3.4399   -6.4690   -2.1223 C   0  0  0  0  0  0  0  0  0  0  0  0
    2.7041   -7.3453   -1.3264 N   0  0  0  0  0  0  0  0  0  0  0  0
    1.8049   -6.7666   -0.3234 C   0  0  0  0  0  0  0  0  0  0  0  0
    2.2438   -8.6206   -1.8708 C   0  0  0  0  0  0  0  0  0  0  0  0
    3.5594   -6.6079   -3.5120 C   0  0  0  0  0  0  0  0  0  0  0  0
    4.2757   -5.6859   -4.2896 C   0  0  0  0  0  0  0  0  0  0  0  0
    5.2979   -0.2272   -2.8584 C   0  0  0  0  0  0  0  0  0  0  0  0
    4.7751    0.4326   -1.7389 C   0  0  0  0  0  0  0  0  0  0  0  0
    2.0356    0.7391    1.6638 H   0  0  0  0  0  0  0  0  0  0  0  0
    2.4272   -0.9178    1.1854 H   0  0  0  0  0  0  0  0  0  0  0  0
    1.2881    0.0837    0.2034 H   0  0  0  0  0  0  0  0  0  0  0  0
    2.1523   -1.6374   -1.0956 H   0  0  0  0  0  0  0  0  0  0  0  0
    2.9945   -2.7119   -3.0890 H   0  0  0  0  0  0  0  0  0  0  0  0
    8.3744   -2.9000   -8.7804 H   0  0  0  0  0  0  0  0  0  0  0  0
    7.3657   -6.7068   -6.8223 H   0  0  0  0  0  0  0  0  0  0  0  0
    6.4742   -6.4429   -5.3374 H   0  0  0  0  0  0  0  0  0  0  0  0
    5.4723   -3.7362   -1.7835 H   0  0  0  0  0  0  0  0  0  0  0  0
    4.1416   -5.2660   -0.4630 H   0  0  0  0  0  0  0  0  0  0  0  0
    2.1051   -5.7799    0.0410 H   0  0  0  0  0  0  0  0  0  0  0  0
    1.7592   -7.4301    0.5470 H   0  0  0  0  0  0  0  0  0  0  0  0
    0.7901   -6.6701   -0.7280 H   0  0  0  0  0  0  0  0  0  0  0  0
    2.9548   -9.0610   -2.5772 H   0  0  0  0  0  0  0  0  0  0  0  0
    1.2695   -8.5127   -2.3610 H   0  0  0  0  0  0  0  0  0  0  0  0
    2.1368   -9.3436   -1.0547 H   0  0  0  0  0  0  0  0  0  0  0  0
    3.0606   -7.4155   -4.0394 H   0  0  0  0  0  0  0  0  0  0  0  0
    4.2637   -5.8015   -5.3710 H   0  0  0  0  0  0  0  0  0  0  0  0
    6.1996    0.1631   -3.3269 H   0  0  0  0  0  0  0  0  0  0  0  0
    5.2690    1.3264   -1.3639 H   0  0  0  0  0  0  0  0  0  0  0  0
  1  2  1  0  0  0  0
  1 28  1  0  0  0  0
  1 29  1  0  0  0  0
  1 30  1  0  0  0  0
  2  3  1  0  0  0  0
  3  4  1  0  0  0  0
  3 27  2  0  0  0  0
  4  5  2  0  0  0  0
  4 31  1  0  0  0  0
  5  6  1  0  0  0  0
  5 32  1  0  0  0  0
  6  7  1  0  0  0  0
  6 26  2  0  0  0  0
  7  8  1  0  0  0  0
  7 16  2  0  0  0  0
  8  9  1  0  0  0  0
  9 10  1  0  0  0  0
  9 15  2  0  0  0  0
 10 11  2  0  0  0  0
 11 12  1  0  0  0  0
 11 33  1  0  0  0  0
 12 13  2  0  0  0  0
 13 14  1  0  0  0  0
 13 15  1  0  0  0  0
 14 34  1  0  0  0  0
 14 35  1  0  0  0  0
 15 16  1  0  0  0  0
 16 17  1  0  0  0  0
 17 18  1  0  0  0  0
 17 25  2  0  0  0  0
 18 19  2  0  0  0  0
 18 36  1  0  0  0  0
 19 20  1  0  0  0  0
 19 37  1  0  0  0  0
 20 21  1  0  0  0  0
 20 24  2  0  0  0  0
 21 22  1  0  0  0  0
 21 23  1  0  0  0  0
 22 38  1  0  0  0  0
 22 39  1  0  0  0  0
 22 40  1  0  0  0  0
 23 41  1  0  0  0  0
 23 42  1  0  0  0  0
 23 43  1  0  0  0  0
 24 25  1  0  0  0  0
 24 44  1  0  0  0  0
 25 45  1  0  0  0  0
 26 27  1  0  0  0  0
 26 46  1  0  0  0  0
 27 47  1  0  0  0  0
M  END
$$$$
