CHEMBL372960
 OpenBabel04072215373D

 53 56  0  0  0  0  0  0  0  0999 V2000
    3.0565   -1.4166   -5.9846 C   0  0  0  0  0  0  0  0  0  0  0  0
    2.8346   -0.3201   -4.9511 C   0  0  0  0  0  0  0  0  0  0  0  0
    3.0319   -0.7448   -3.5095 C   0  0  0  0  0  0  0  0  0  0  0  0
    2.6441   -2.3597   -3.0774 S   0  0  0  0  0  0  0  0  0  0  0  0
    3.2254   -2.1744   -1.5073 C   0  0  0  0  0  0  0  0  0  0  0  0
    3.2482   -3.2469   -0.6992 N   0  0  0  0  0  0  0  0  0  0  0  0
    3.7131   -2.9621    0.5109 C   0  0  0  0  0  0  0  0  0  0  0  0
    4.0946   -1.7653    0.9639 N   0  0  0  0  0  0  0  0  0  0  0  0
    4.0297   -0.7037    0.1369 C   0  0  0  0  0  0  0  0  0  0  0  0
    4.3938    0.4927    0.7338 N   0  0  0  0  0  0  0  0  0  0  0  0
    3.6071   -0.8758   -1.2063 C   0  0  0  0  0  0  0  0  0  0  0  0
    3.4636   -0.0082   -2.3983 C   0  0  0  0  0  0  0  0  0  0  0  0
    3.7794    1.4374   -2.5025 C   0  0  0  0  0  0  0  0  0  0  0  0
    4.8318    1.9736   -1.7622 C   0  0  0  0  0  0  0  0  0  0  0  0
    5.0758    3.3472   -1.7303 C   0  0  0  0  0  0  0  0  0  0  0  0
    4.4037    4.2240   -2.5727 C   0  0  0  0  0  0  0  0  0  0  0  0
    4.7107    5.5982   -2.6458 N   0  0  0  0  0  0  0  0  0  0  0  0
    5.8316    6.1820   -2.0889 C   0  0  0  0  0  0  0  0  0  0  0  0
    6.7353    5.6071   -1.5024 O   0  0  0  0  0  0  0  0  0  0  0  0
    5.8287    7.5541   -2.2197 N   0  0  0  0  0  0  0  0  0  0  0  0
    6.9513    8.3186   -1.6693 C   0  0  0  0  0  0  0  0  0  0  0  0
    6.4662    9.6993   -1.2144 C   0  0  0  0  0  0  0  0  0  0  0  0
    7.6197   10.5890   -0.7592 C   0  0  0  0  0  0  0  0  0  0  0  0
    8.6930   10.7012   -1.8361 C   0  0  0  0  0  0  0  0  0  0  0  0
    9.2207    9.3251   -2.2249 C   0  0  0  0  0  0  0  0  0  0  0  0
    8.0932    8.4062   -2.6893 C   0  0  0  0  0  0  0  0  0  0  0  0
    3.3813    3.7002   -3.3745 C   0  0  0  0  0  0  0  0  0  0  0  0
    3.0531    2.3303   -3.3026 C   0  0  0  0  0  0  0  0  0  0  0  0
    2.9675   -1.0073   -6.9949 H   0  0  0  0  0  0  0  0  0  0  0  0
    2.3113   -2.2135   -5.8922 H   0  0  0  0  0  0  0  0  0  0  0  0
    4.0528   -1.8573   -5.8775 H   0  0  0  0  0  0  0  0  0  0  0  0
    1.8182    0.0772   -5.0686 H   0  0  0  0  0  0  0  0  0  0  0  0
    3.5369    0.4844   -5.1954 H   0  0  0  0  0  0  0  0  0  0  0  0
    3.7782   -3.7867    1.2129 H   0  0  0  0  0  0  0  0  0  0  0  0
    4.4821    0.3927    1.7377 H   0  0  0  0  0  0  0  0  0  0  0  0
    3.8886    1.3076    0.4127 H   0  0  0  0  0  0  0  0  0  0  0  0
    5.4874    1.3471   -1.1669 H   0  0  0  0  0  0  0  0  0  0  0  0
    5.8208    3.6909   -1.0194 H   0  0  0  0  0  0  0  0  0  0  0  0
    4.1138    6.1813   -3.2076 H   0  0  0  0  0  0  0  0  0  0  0  0
    5.3764    7.9283   -3.0338 H   0  0  0  0  0  0  0  0  0  0  0  0
    7.3277    7.7933   -0.7804 H   0  0  0  0  0  0  0  0  0  0  0  0
    5.7522    9.5821   -0.3899 H   0  0  0  0  0  0  0  0  0  0  0  0
    5.9260   10.1908   -2.0298 H   0  0  0  0  0  0  0  0  0  0  0  0
    8.0640   10.1807    0.1576 H   0  0  0  0  0  0  0  0  0  0  0  0
    7.2377   11.5855   -0.5120 H   0  0  0  0  0  0  0  0  0  0  0  0
    9.5176   11.3260   -1.4749 H   0  0  0  0  0  0  0  0  0  0  0  0
    8.2755   11.1987   -2.7201 H   0  0  0  0  0  0  0  0  0  0  0  0
    9.7314    8.8733   -1.3654 H   0  0  0  0  0  0  0  0  0  0  0  0
    9.9663    9.4265   -3.0216 H   0  0  0  0  0  0  0  0  0  0  0  0
    8.5021    7.4063   -2.8839 H   0  0  0  0  0  0  0  0  0  0  0  0
    7.7045    8.7688   -3.6493 H   0  0  0  0  0  0  0  0  0  0  0  0
    2.8409    4.3282   -4.0751 H   0  0  0  0  0  0  0  0  0  0  0  0
    2.2238    1.9884   -3.9135 H   0  0  0  0  0  0  0  0  0  0  0  0
  1  2  1  0  0  0  0
  1 29  1  0  0  0  0
  1 30  1  0  0  0  0
  1 31  1  0  0  0  0
  2  3  1  0  0  0  0
  2 32  1  0  0  0  0
  2 33  1  0  0  0  0
  3  4  1  0  0  0  0
  3 12  2  0  0  0  0
  4  5  1  0  0  0  0
  5  6  1  0  0  0  0
  5 11  2  0  0  0  0
  6  7  2  0  0  0  0
  7  8  1  0  0  0  0
  7 34  1  0  0  0  0
  8  9  2  0  0  0  0
  9 10  1  0  0  0  0
  9 11  1  0  0  0  0
 10 35  1  0  0  0  0
 10 36  1  0  0  0  0
 11 12  1  0  0  0  0
 12 13  1  0  0  0  0
 13 14  1  0  0  0  0
 13 28  2  0  0  0  0
 14 15  2  0  0  0  0
 14 37  1  0  0  0  0
 15 16  1  0  0  0  0
 15 38  1  0  0  0  0
 16 17  1  0  0  0  0
 16 27  2  0  0  0  0
 17 18  1  0  0  0  0
 17 39  1  0  0  0  0
 18 19  2  0  0  0  0
 18 20  1  0  0  0  0
 20 21  1  0  0  0  0
 20 40  1  0  0  0  0
 21 22  1  0  0  0  0
 21 26  1  0  0  0  0
 21 41  1  0  0  0  0
 22 23  1  0  0  0  0
 22 42  1  0  0  0  0
 22 43  1  0  0  0  0
 23 24  1  0  0  0  0
 23 44  1  0  0  0  0
 23 45  1  0  0  0  0
 24 25  1  0  0  0  0
 24 46  1  0  0  0  0
 24 47  1  0  0  0  0
 25 26  1  0  0  0  0
 25 48  1  0  0  0  0
 25 49  1  0  0  0  0
 26 50  1  0  0  0  0
 26 51  1  0  0  0  0
 27 28  1  0  0  0  0
 27 52  1  0  0  0  0
 28 53  1  0  0  0  0
M  END
$$$$
