CHEMBL402048
 OpenBabel04072215373D

 36 39  0  0  0  0  0  0  0  0999 V2000
   -2.2276   -0.3230   -1.2740 C   0  0  0  0  0  0  0  0  0  0  0  0
   -0.9670   -0.1954   -0.5003 C   0  0  0  0  0  0  0  0  0  0  0  0
   -0.4416    1.0796   -0.3152 N   0  0  0  0  0  0  0  0  0  0  0  0
    0.6976    1.0516    0.3526 N   0  0  0  0  0  0  0  0  0  0  0  0
    1.1726   -0.4939    0.7518 S   0  0  0  0  0  0  0  0  0  0  0  0
   -0.2306   -1.2182    0.0854 C   0  0  0  0  0  0  0  0  0  0  0  0
   -0.4475   -2.6327    0.0685 C   0  0  0  0  0  0  0  0  0  0  0  0
   -1.0522   -3.2138   -0.9431 N   0  0  0  0  0  0  0  0  0  0  0  0
   -1.0229   -4.5653   -0.6939 N   0  0  0  0  0  0  0  0  0  0  0  0
   -0.3893   -4.9375    0.4792 C   0  0  0  0  0  0  0  0  0  0  0  0
   -0.2106   -6.0660    0.8899 O   0  0  0  0  0  0  0  0  0  0  0  0
   -0.0389   -3.6310    1.0884 C   0  0  0  0  0  0  0  0  0  0  0  0
    0.4543   -3.4303    2.3181 C   0  0  0  0  0  0  0  0  0  0  0  0
    0.8793   -4.4659    3.1909 C   0  0  0  0  0  0  0  0  0  0  0  0
    0.0848   -5.0910    4.1206 C   0  0  0  0  0  0  0  0  0  0  0  0
    0.8212   -6.1150    4.6615 N   0  0  0  0  0  0  0  0  0  0  0  0
    0.3089   -7.0765    5.6111 C   0  0  0  0  0  0  0  0  0  0  0  0
    2.0976   -6.1265    4.1314 C   0  0  0  0  0  0  0  0  0  0  0  0
    3.1890   -6.9826    4.3536 C   0  0  0  0  0  0  0  0  0  0  0  0
    4.3704   -6.7476    3.6377 C   0  0  0  0  0  0  0  0  0  0  0  0
    4.4671   -5.6896    2.7389 C   0  0  0  0  0  0  0  0  0  0  0  0
    3.3721   -4.8545    2.5245 C   0  0  0  0  0  0  0  0  0  0  0  0
    3.4829   -3.8449    1.6469 F   0  0  0  0  0  0  0  0  0  0  0  0
    2.1649   -5.0711    3.2162 C   0  0  0  0  0  0  0  0  0  0  0  0
   -2.6081    0.6610   -1.5656 H   0  0  0  0  0  0  0  0  0  0  0  0
   -2.9982   -0.8205   -0.6770 H   0  0  0  0  0  0  0  0  0  0  0  0
   -2.0608   -0.9010   -2.1881 H   0  0  0  0  0  0  0  0  0  0  0  0
   -1.3944   -5.2311   -1.3627 H   0  0  0  0  0  0  0  0  0  0  0  0
    0.5898   -2.4272    2.7043 H   0  0  0  0  0  0  0  0  0  0  0  0
   -0.9496   -4.9350    4.3987 H   0  0  0  0  0  0  0  0  0  0  0  0
   -0.7238   -6.8245    5.8666 H   0  0  0  0  0  0  0  0  0  0  0  0
    0.9311   -7.0427    6.5088 H   0  0  0  0  0  0  0  0  0  0  0  0
    0.3436   -8.0665    5.1498 H   0  0  0  0  0  0  0  0  0  0  0  0
    3.1228   -7.8158    5.0455 H   0  0  0  0  0  0  0  0  0  0  0  0
    5.2238   -7.4063    3.7836 H   0  0  0  0  0  0  0  0  0  0  0  0
    5.3860   -5.5113    2.1894 H   0  0  0  0  0  0  0  0  0  0  0  0
  1  2  1  0  0  0  0
  1 25  1  0  0  0  0
  1 26  1  0  0  0  0
  1 27  1  0  0  0  0
  2  3  1  0  0  0  0
  2  6  2  0  0  0  0
  3  4  2  0  0  0  0
  4  5  1  0  0  0  0
  5  6  1  0  0  0  0
  6  7  1  0  0  0  0
  7  8  2  0  0  0  0
  7 12  1  0  0  0  0
  8  9  1  0  0  0  0
  9 10  1  0  0  0  0
  9 28  1  0  0  0  0
 10 11  2  0  0  0  0
 10 12  1  0  0  0  0
 12 13  2  0  0  0  0
 13 14  1  0  0  0  0
 13 29  1  0  0  0  0
 14 15  2  0  0  0  0
 14 24  1  0  0  0  0
 15 16  1  0  0  0  0
 15 30  1  0  0  0  0
 16 17  1  0  0  0  0
 16 18  1  0  0  0  0
 17 31  1  0  0  0  0
 17 32  1  0  0  0  0
 17 33  1  0  0  0  0
 18 19  1  0  0  0  0
 18 24  2  0  0  0  0
 19 20  2  0  0  0  0
 19 34  1  0  0  0  0
 20 21  1  0  0  0  0
 20 35  1  0  0  0  0
 21 22  2  0  0  0  0
 21 36  1  0  0  0  0
 22 23  1  0  0  0  0
 22 24  1  0  0  0  0
M  END
$$$$
