CHEMBL2088097
 OpenBabel04072215363D

 36 38  0  0  0  0  0  0  0  0999 V2000
    1.8692    0.7797    0.7159 C   0  0  0  0  0  0  0  0  0  0  0  0
    1.1994   -0.5171    0.9373 C   0  0  0  0  0  0  0  0  0  0  0  0
   -0.1782   -0.8103    0.8600 C   0  0  0  0  0  0  0  0  0  0  0  0
   -0.2558   -2.1558    1.1216 C   0  0  0  0  0  0  0  0  0  0  0  0
   -1.3753   -3.1276    1.1712 C   0  0  0  0  0  0  0  0  0  0  0  0
   -2.2271   -3.0590   -0.0116 N   0  0  0  0  0  0  0  0  0  0  0  0
   -3.2725   -3.9730   -0.0083 C   0  0  0  0  0  0  0  0  0  0  0  0
   -4.2696   -3.7638   -0.8695 N   0  0  0  0  0  0  0  0  0  0  0  0
   -5.2756   -4.6648   -0.8601 C   0  0  0  0  0  0  0  0  0  0  0  0
   -5.2846   -5.7981   -0.0804 C   0  0  0  0  0  0  0  0  0  0  0  0
   -6.5886   -6.9128   -0.1645 Cl  0  0  0  0  0  0  0  0  0  0  0  0
   -4.1739   -5.9825    0.7244 C   0  0  0  0  0  0  0  0  0  0  0  0
   -3.9709   -7.2037    1.3959 N   0  0  0  0  0  0  0  0  0  0  0  0
   -2.8113   -7.8147    1.7124 C   0  0  0  0  0  0  0  0  0  0  0  0
   -1.5225   -7.4212    1.2783 C   0  0  0  0  0  0  0  0  0  0  0  0
   -0.6632   -8.4096    1.6948 C   0  0  0  0  0  0  0  0  0  0  0  0
    0.7776   -8.6165    1.4418 C   0  0  0  0  0  0  0  0  0  0  0  0
   -1.4401   -9.2724    2.4129 N   0  0  0  0  0  0  0  0  0  0  0  0
   -2.7459   -8.9450    2.4216 N   0  0  0  0  0  0  0  0  0  0  0  0
   -3.2000   -5.0480    0.7782 N   0  0  0  0  0  0  0  0  0  0  0  0
    0.9952   -2.6417    1.3558 O   0  0  0  0  0  0  0  0  0  0  0  0
    1.9156   -1.6106    1.2414 N   0  0  0  0  0  0  0  0  0  0  0  0
    1.1401    1.5590    0.4717 H   0  0  0  0  0  0  0  0  0  0  0  0
    2.5772    0.7080   -0.1156 H   0  0  0  0  0  0  0  0  0  0  0  0
    2.4123    1.0921    1.6128 H   0  0  0  0  0  0  0  0  0  0  0  0
   -1.0018   -0.1493    0.6324 H   0  0  0  0  0  0  0  0  0  0  0  0
   -1.9781   -2.8916    2.0585 H   0  0  0  0  0  0  0  0  0  0  0  0
   -0.9603   -4.1336    1.3112 H   0  0  0  0  0  0  0  0  0  0  0  0
   -1.7066   -3.2389   -0.8644 H   0  0  0  0  0  0  0  0  0  0  0  0
   -6.0897   -4.4425   -1.5422 H   0  0  0  0  0  0  0  0  0  0  0  0
   -4.8209   -7.6488    1.7172 H   0  0  0  0  0  0  0  0  0  0  0  0
   -1.2528   -6.5668    0.6769 H   0  0  0  0  0  0  0  0  0  0  0  0
    1.1782   -7.8114    0.8152 H   0  0  0  0  0  0  0  0  0  0  0  0
    0.9384   -9.5596    0.9098 H   0  0  0  0  0  0  0  0  0  0  0  0
    1.3471   -8.6356    2.3748 H   0  0  0  0  0  0  0  0  0  0  0  0
   -1.1550  -10.1209    2.8914 H   0  0  0  0  0  0  0  0  0  0  0  0
  1  2  1  0  0  0  0
  1 23  1  0  0  0  0
  1 24  1  0  0  0  0
  1 25  1  0  0  0  0
  2  3  1  0  0  0  0
  2 22  2  0  0  0  0
  3  4  2  0  0  0  0
  3 26  1  0  0  0  0
  4  5  1  0  0  0  0
  4 21  1  0  0  0  0
  5  6  1  0  0  0  0
  5 27  1  0  0  0  0
  5 28  1  0  0  0  0
  6  7  1  0  0  0  0
  6 29  1  0  0  0  0
  7  8  1  0  0  0  0
  7 20  2  0  0  0  0
  8  9  2  0  0  0  0
  9 10  1  0  0  0  0
  9 30  1  0  0  0  0
 10 11  1  0  0  0  0
 10 12  2  0  0  0  0
 12 13  1  0  0  0  0
 12 20  1  0  0  0  0
 13 14  1  0  0  0  0
 13 31  1  0  0  0  0
 14 15  1  0  0  0  0
 14 19  2  0  0  0  0
 15 16  2  0  0  0  0
 15 32  1  0  0  0  0
 16 17  1  0  0  0  0
 16 18  1  0  0  0  0
 17 33  1  0  0  0  0
 17 34  1  0  0  0  0
 17 35  1  0  0  0  0
 18 19  1  0  0  0  0
 18 36  1  0  0  0  0
 21 22  1  0  0  0  0
M  END
$$$$
