CHEMBL1254199
 OpenBabel04072215363D

 44 47  0  0  0  0  0  0  0  0999 V2000
    3.2353   -1.2334    0.2763 C   0  0  0  0  0  0  0  0  0  0  0  0
    2.4593    0.0033    0.1905 N   0  0  0  0  0  0  0  0  0  0  0  0
    1.1417   -0.0021    0.7051 C   0  0  0  0  0  0  0  0  0  0  0  0
    0.7206   -0.8885    1.7109 C   0  0  0  0  0  0  0  0  0  0  0  0
   -0.5947   -0.9020    2.1786 C   0  0  0  0  0  0  0  0  0  0  0  0
   -1.5269   -0.0081    1.6611 C   0  0  0  0  0  0  0  0  0  0  0  0
   -1.1295    0.8953    0.6821 C   0  0  0  0  0  0  0  0  0  0  0  0
   -2.3870    2.1197   -0.0227 Br  0  0  0  0  0  0  0  0  0  0  0  0
    0.1836    0.8978    0.2054 C   0  0  0  0  0  0  0  0  0  0  0  0
    3.1983    1.1616   -0.1751 C   0  0  0  0  0  0  0  0  0  0  0  0
    2.8083    2.3796    0.3145 N   0  0  0  0  0  0  0  0  0  0  0  0
    3.5286    3.4852    0.0752 C   0  0  0  0  0  0  0  0  0  0  0  0
    3.0686    4.6552    0.6542 N   0  0  0  0  0  0  0  0  0  0  0  0
    4.6782    3.5546   -0.5998 N   0  0  0  0  0  0  0  0  0  0  0  0
    5.0431    2.3681   -1.1001 C   0  0  0  0  0  0  0  0  0  0  0  0
    6.1933    2.1510   -1.8156 N   0  0  0  0  0  0  0  0  0  0  0  0
    6.2934    0.8187   -2.1373 C   0  0  0  0  0  0  0  0  0  0  0  0
    7.4839    0.1960   -2.7840 C   0  0  0  0  0  0  0  0  0  0  0  0
    8.4712   -0.3308   -1.7652 C   0  0  0  0  0  0  0  0  0  0  0  0
    8.3074   -1.5991   -1.1835 C   0  0  0  0  0  0  0  0  0  0  0  0
    9.2225   -2.0714   -0.2406 C   0  0  0  0  0  0  0  0  0  0  0  0
   10.3072   -1.2826    0.1373 C   0  0  0  0  0  0  0  0  0  0  0  0
   10.4701   -0.0158   -0.4203 C   0  0  0  0  0  0  0  0  0  0  0  0
    9.5566    0.4602   -1.3612 C   0  0  0  0  0  0  0  0  0  0  0  0
    5.1226    0.2207   -1.7214 C   0  0  0  0  0  0  0  0  0  0  0  0
    4.3699    1.1638   -0.9691 C   0  0  0  0  0  0  0  0  0  0  0  0
    2.7069   -2.0796    0.7218 H   0  0  0  0  0  0  0  0  0  0  0  0
    4.1529   -1.0886    0.8595 H   0  0  0  0  0  0  0  0  0  0  0  0
    3.4780   -1.6000   -0.7225 H   0  0  0  0  0  0  0  0  0  0  0  0
    1.4138   -1.5765    2.1840 H   0  0  0  0  0  0  0  0  0  0  0  0
   -0.8878   -1.6068    2.9527 H   0  0  0  0  0  0  0  0  0  0  0  0
   -2.5481   -0.0184    2.0295 H   0  0  0  0  0  0  0  0  0  0  0  0
    0.4627    1.6019   -0.5749 H   0  0  0  0  0  0  0  0  0  0  0  0
    2.4885    4.4155    1.4473 H   0  0  0  0  0  0  0  0  0  0  0  0
    3.8479    5.2744    0.8243 H   0  0  0  0  0  0  0  0  0  0  0  0
    6.8697    2.8734   -2.0150 H   0  0  0  0  0  0  0  0  0  0  0  0
    7.9761    0.9061   -3.4592 H   0  0  0  0  0  0  0  0  0  0  0  0
    7.1558   -0.6383   -3.4181 H   0  0  0  0  0  0  0  0  0  0  0  0
    7.4624   -2.2261   -1.4590 H   0  0  0  0  0  0  0  0  0  0  0  0
    9.0907   -3.0579    0.2021 H   0  0  0  0  0  0  0  0  0  0  0  0
   11.0214   -1.6519    0.8673 H   0  0  0  0  0  0  0  0  0  0  0  0
   11.3116    0.6028   -0.1190 H   0  0  0  0  0  0  0  0  0  0  0  0
    9.6962    1.4521   -1.7805 H   0  0  0  0  0  0  0  0  0  0  0  0
    4.9002   -0.8203   -1.8974 H   0  0  0  0  0  0  0  0  0  0  0  0
  1  2  1  0  0  0  0
  1 27  1  0  0  0  0
  1 28  1  0  0  0  0
  1 29  1  0  0  0  0
  2  3  1  0  0  0  0
  2 10  1  0  0  0  0
  3  4  1  0  0  0  0
  3  9  2  0  0  0  0
  4  5  2  0  0  0  0
  4 30  1  0  0  0  0
  5  6  1  0  0  0  0
  5 31  1  0  0  0  0
  6  7  2  0  0  0  0
  6 32  1  0  0  0  0
  7  8  1  0  0  0  0
  7  9  1  0  0  0  0
  9 33  1  0  0  0  0
 10 11  1  0  0  0  0
 10 26  2  0  0  0  0
 11 12  2  0  0  0  0
 12 13  1  0  0  0  0
 12 14  1  0  0  0  0
 13 34  1  0  0  0  0
 13 35  1  0  0  0  0
 14 15  2  0  0  0  0
 15 16  1  0  0  0  0
 15 26  1  0  0  0  0
 16 17  1  0  0  0  0
 16 36  1  0  0  0  0
 17 18  1  0  0  0  0
 17 25  2  0  0  0  0
 18 19  1  0  0  0  0
 18 37  1  0  0  0  0
 18 38  1  0  0  0  0
 19 20  1  0  0  0  0
 19 24  2  0  0  0  0
 20 21  2  0  0  0  0
 20 39  1  0  0  0  0
 21 22  1  0  0  0  0
 21 40  1  0  0  0  0
 22 23  2  0  0  0  0
 22 41  1  0  0  0  0
 23 24  1  0  0  0  0
 23 42  1  0  0  0  0
 24 43  1  0  0  0  0
 25 26  1  0  0  0  0
 25 44  1  0  0  0  0
M  END
$$$$
