CHEMBL89010
 OpenBabel04072215383D

 39 42  0  0  0  0  0  0  0  0999 V2000
   -2.9746    0.9248   -0.1315 O   0  0  0  0  0  0  0  0  0  0  0  0
   -1.8085    0.5934   -0.0413 C   0  0  0  0  0  0  0  0  0  0  0  0
   -0.7351    1.4587    0.0326 N   0  0  0  0  0  0  0  0  0  0  0  0
    0.4735    0.7811    0.0381 C   0  0  0  0  0  0  0  0  0  0  0  0
    1.7217    1.3680    0.0594 C   0  0  0  0  0  0  0  0  0  0  0  0
    2.8253    0.5184    0.0107 C   0  0  0  0  0  0  0  0  0  0  0  0
    2.6596   -0.8841   -0.0519 C   0  0  0  0  0  0  0  0  0  0  0  0
    3.9057   -1.6892   -0.1728 C   0  0  0  0  0  0  0  0  0  0  0  0
    4.9203   -1.2505   -0.6883 O   0  0  0  0  0  0  0  0  0  0  0  0
    3.8337   -2.9198    0.3698 O   0  0  0  0  0  0  0  0  0  0  0  0
    1.3687   -1.4588   -0.0672 C   0  0  0  0  0  0  0  0  0  0  0  0
    0.2720   -0.6055   -0.0168 C   0  0  0  0  0  0  0  0  0  0  0  0
   -1.1950   -0.7927   -0.0340 C   0  0  0  0  0  0  0  0  0  0  0  0
   -1.8736   -1.9533   -0.0043 C   0  0  0  0  0  0  0  0  0  0  0  0
   -3.2881   -2.0034    0.0852 C   0  0  0  0  0  0  0  0  0  0  0  0
   -4.1662   -2.0279    1.1552 C   0  0  0  0  0  0  0  0  0  0  0  0
   -5.4838   -1.9797    0.6347 C   0  0  0  0  0  0  0  0  0  0  0  0
   -5.3724   -1.9756   -0.7402 C   0  0  0  0  0  0  0  0  0  0  0  0
   -4.0418   -1.9918   -1.0685 N   0  0  0  0  0  0  0  0  0  0  0  0
   -6.5051   -1.9194   -1.7056 C   0  0  0  0  0  0  0  0  0  0  0  0
   -7.7662   -1.3984   -0.9884 C   0  0  0  0  0  0  0  0  0  0  0  0
   -7.9783   -2.0870    0.3736 C   0  0  0  0  0  0  0  0  0  0  0  0
   -6.7956   -1.8614    1.3376 C   0  0  0  0  0  0  0  0  0  0  0  0
   -0.8566    2.4591    0.0311 H   0  0  0  0  0  0  0  0  0  0  0  0
    1.8484    2.4442    0.0923 H   0  0  0  0  0  0  0  0  0  0  0  0
    3.8272    0.9492    0.0050 H   0  0  0  0  0  0  0  0  0  0  0  0
    3.0540   -3.0902    0.9264 H   0  0  0  0  0  0  0  0  0  0  0  0
    1.2282   -2.5296   -0.1621 H   0  0  0  0  0  0  0  0  0  0  0  0
   -1.3476   -2.9019    0.0242 H   0  0  0  0  0  0  0  0  0  0  0  0
   -3.8872   -2.0144    2.2006 H   0  0  0  0  0  0  0  0  0  0  0  0
   -3.6739   -1.9358   -2.0081 H   0  0  0  0  0  0  0  0  0  0  0  0
   -6.6982   -2.9287   -2.0887 H   0  0  0  0  0  0  0  0  0  0  0  0
   -6.2700   -1.2762   -2.5600 H   0  0  0  0  0  0  0  0  0  0  0  0
   -8.6432   -1.5556   -1.6268 H   0  0  0  0  0  0  0  0  0  0  0  0
   -7.6774   -0.3156   -0.8293 H   0  0  0  0  0  0  0  0  0  0  0  0
   -8.1128   -3.1636    0.2078 H   0  0  0  0  0  0  0  0  0  0  0  0
   -8.9015   -1.7197    0.8372 H   0  0  0  0  0  0  0  0  0  0  0  0
   -6.8554   -2.5735    2.1677 H   0  0  0  0  0  0  0  0  0  0  0  0
   -6.8721   -0.8531    1.7637 H   0  0  0  0  0  0  0  0  0  0  0  0
  1  2  2  0  0  0  0
  2  3  1  0  0  0  0
  2 13  1  0  0  0  0
  3  4  1  0  0  0  0
  3 24  1  0  0  0  0
  4  5  1  0  0  0  0
  4 12  2  0  0  0  0
  5  6  2  0  0  0  0
  5 25  1  0  0  0  0
  6  7  1  0  0  0  0
  6 26  1  0  0  0  0
  7  8  1  0  0  0  0
  7 11  2  0  0  0  0
  8  9  2  0  0  0  0
  8 10  1  0  0  0  0
 10 27  1  0  0  0  0
 11 12  1  0  0  0  0
 11 28  1  0  0  0  0
 12 13  1  0  0  0  0
 13 14  2  0  0  0  0
 14 15  1  0  0  0  0
 14 29  1  0  0  0  0
 15 16  2  0  0  0  0
 15 19  1  0  0  0  0
 16 17  1  0  0  0  0
 16 30  1  0  0  0  0
 17 18  2  0  0  0  0
 17 23  1  0  0  0  0
 18 19  1  0  0  0  0
 18 20  1  0  0  0  0
 19 31  1  0  0  0  0
 20 21  1  0  0  0  0
 20 32  1  0  0  0  0
 20 33  1  0  0  0  0
 21 22  1  0  0  0  0
 21 34  1  0  0  0  0
 21 35  1  0  0  0  0
 22 23  1  0  0  0  0
 22 36  1  0  0  0  0
 22 37  1  0  0  0  0
 23 38  1  0  0  0  0
 23 39  1  0  0  0  0
M  END
$$$$
