CHEMBL201511
 OpenBabel04072215363D

 46 49  0  0  0  0  0  0  0  0999 V2000
    0.9884   -0.5330    2.5021 C   0  0  0  0  0  0  0  0  0  0  0  0
    2.1316   -0.1749    1.7284 O   0  0  0  0  0  0  0  0  0  0  0  0
    3.0261   -1.1462    1.4224 C   0  0  0  0  0  0  0  0  0  0  0  0
    2.7029   -2.5225    1.3904 C   0  0  0  0  0  0  0  0  0  0  0  0
    3.6461   -3.4876    1.0052 C   0  0  0  0  0  0  0  0  0  0  0  0
    3.3258   -4.9178    1.0164 C   0  0  0  0  0  0  0  0  0  0  0  0
    2.7082   -5.6771    0.0897 C   0  0  0  0  0  0  0  0  0  0  0  0
    2.1021   -5.2686   -1.1210 C   0  0  0  0  0  0  0  0  0  0  0  0
    2.6250   -4.3481   -2.0069 C   0  0  0  0  0  0  0  0  0  0  0  0
    1.6817   -4.2125   -2.9879 N   0  0  0  0  0  0  0  0  0  0  0  0
    0.4606   -4.5069   -2.4352 C   0  0  0  0  0  0  0  0  0  0  0  0
   -0.8216   -4.0065   -2.6574 C   0  0  0  0  0  0  0  0  0  0  0  0
   -1.8604   -4.6342   -1.9647 C   0  0  0  0  0  0  0  0  0  0  0  0
   -1.6342   -5.7970   -1.2271 C   0  0  0  0  0  0  0  0  0  0  0  0
   -0.3335   -6.2594   -0.9986 C   0  0  0  0  0  0  0  0  0  0  0  0
    0.7380   -5.4957   -1.4957 C   0  0  0  0  0  0  0  0  0  0  0  0
    2.6313   -7.0645    0.6185 C   0  0  0  0  0  0  0  0  0  0  0  0
    2.2013   -8.0443    0.0573 O   0  0  0  0  0  0  0  0  0  0  0  0
    3.1611   -7.0360    1.8635 N   0  0  0  0  0  0  0  0  0  0  0  0
    3.5718   -5.7937    2.1810 C   0  0  0  0  0  0  0  0  0  0  0  0
    4.0411   -5.4408    3.2450 O   0  0  0  0  0  0  0  0  0  0  0  0
    4.9239   -3.0683    0.6159 C   0  0  0  0  0  0  0  0  0  0  0  0
    5.2584   -1.7097    0.6193 C   0  0  0  0  0  0  0  0  0  0  0  0
    6.5049   -1.2481    0.2590 O   0  0  0  0  0  0  0  0  0  0  0  0
    7.1615   -1.9759   -0.7704 C   0  0  0  0  0  0  0  0  0  0  0  0
    4.3310   -0.7538    1.0547 C   0  0  0  0  0  0  0  0  0  0  0  0
    4.7790    0.5587    1.0117 O   0  0  0  0  0  0  0  0  0  0  0  0
    4.3192    1.4470    2.0220 C   0  0  0  0  0  0  0  0  0  0  0  0
    0.4311    0.3819    2.7255 H   0  0  0  0  0  0  0  0  0  0  0  0
    1.2853   -0.9853    3.4543 H   0  0  0  0  0  0  0  0  0  0  0  0
    0.3189   -1.1905    1.9396 H   0  0  0  0  0  0  0  0  0  0  0  0
    1.7014   -2.8512    1.6460 H   0  0  0  0  0  0  0  0  0  0  0  0
    3.5602   -3.8066   -2.0520 H   0  0  0  0  0  0  0  0  0  0  0  0
    1.8750   -4.1867   -3.9809 H   0  0  0  0  0  0  0  0  0  0  0  0
   -0.9898   -3.1117   -3.2467 H   0  0  0  0  0  0  0  0  0  0  0  0
   -2.8626   -4.2145   -2.0082 H   0  0  0  0  0  0  0  0  0  0  0  0
   -2.4695   -6.3155   -0.7646 H   0  0  0  0  0  0  0  0  0  0  0  0
   -0.1667   -7.1303   -0.3723 H   0  0  0  0  0  0  0  0  0  0  0  0
    3.2021   -7.8248    2.4797 H   0  0  0  0  0  0  0  0  0  0  0  0
    5.6594   -3.8189    0.3287 H   0  0  0  0  0  0  0  0  0  0  0  0
    7.9431   -1.3325   -1.1853 H   0  0  0  0  0  0  0  0  0  0  0  0
    6.4787   -2.2396   -1.5858 H   0  0  0  0  0  0  0  0  0  0  0  0
    7.6438   -2.8676   -0.3597 H   0  0  0  0  0  0  0  0  0  0  0  0
    5.0450    2.2635    2.0978 H   0  0  0  0  0  0  0  0  0  0  0  0
    4.2550    0.9720    3.0069 H   0  0  0  0  0  0  0  0  0  0  0  0
    3.3666    1.8992    1.7324 H   0  0  0  0  0  0  0  0  0  0  0  0
  1  2  1  0  0  0  0
  1 29  1  0  0  0  0
  1 30  1  0  0  0  0
  1 31  1  0  0  0  0
  2  3  1  0  0  0  0
  3  4  1  0  0  0  0
  3 26  2  0  0  0  0
  4  5  2  0  0  0  0
  4 32  1  0  0  0  0
  5  6  1  0  0  0  0
  5 22  1  0  0  0  0
  6  7  2  0  0  0  0
  6 20  1  0  0  0  0
  7  8  1  0  0  0  0
  7 17  1  0  0  0  0
  8  9  2  0  0  0  0
  8 16  1  0  0  0  0
  9 10  1  0  0  0  0
  9 33  1  0  0  0  0
 10 11  1  0  0  0  0
 10 34  1  0  0  0  0
 11 12  1  0  0  0  0
 11 16  2  0  0  0  0
 12 13  2  0  0  0  0
 12 35  1  0  0  0  0
 13 14  1  0  0  0  0
 13 36  1  0  0  0  0
 14 15  2  0  0  0  0
 14 37  1  0  0  0  0
 15 16  1  0  0  0  0
 15 38  1  0  0  0  0
 17 18  2  0  0  0  0
 17 19  1  0  0  0  0
 19 20  1  0  0  0  0
 19 39  1  0  0  0  0
 20 21  2  0  0  0  0
 22 23  2  0  0  0  0
 22 40  1  0  0  0  0
 23 24  1  0  0  0  0
 23 26  1  0  0  0  0
 24 25  1  0  0  0  0
 25 41  1  0  0  0  0
 25 42  1  0  0  0  0
 25 43  1  0  0  0  0
 26 27  1  0  0  0  0
 27 28  1  0  0  0  0
 28 44  1  0  0  0  0
 28 45  1  0  0  0  0
 28 46  1  0  0  0  0
M  END
$$$$
