CHEMBL3660274
 OpenBabel04072215373D

 63 66  0  0  0  0  0  0  0  0999 V2000
    2.6392   -2.3450    5.1545 C   0  0  0  0  0  0  0  0  0  0  0  0
    2.9692   -1.0596    4.6405 O   0  0  0  0  0  0  0  0  0  0  0  0
    3.2943   -1.1187    3.2484 C   0  0  0  0  0  0  0  0  0  0  0  0
    3.6298    0.2813    2.7384 C   0  0  0  0  0  0  0  0  0  0  0  0
    4.7657    0.8814    3.4150 N   0  0  0  0  0  0  0  0  0  0  0  0
    5.1751    2.1478    3.0877 C   0  0  0  0  0  0  0  0  0  0  0  0
    4.6565    2.7991    2.1694 O   0  0  0  0  0  0  0  0  0  0  0  0
    6.2553    2.6933    3.8938 C   0  0  0  0  0  0  0  0  0  0  0  0
    6.9073    2.1219    4.9760 C   0  0  0  0  0  0  0  0  0  0  0  0
    7.8602    3.0043    5.4255 N   0  0  0  0  0  0  0  0  0  0  0  0
    7.7738    4.1809    4.7266 C   0  0  0  0  0  0  0  0  0  0  0  0
    8.5167    5.3897    5.0445 C   0  0  0  0  0  0  0  0  0  0  0  0
    8.3557    6.5161    4.2483 C   0  0  0  0  0  0  0  0  0  0  0  0
    9.0516    7.6776    4.5540 C   0  0  0  0  0  0  0  0  0  0  0  0
    8.9520    8.8524    3.8299 O   0  0  0  0  0  0  0  0  0  0  0  0
    7.7620    9.1522    3.1964 C   0  0  0  0  0  0  0  0  0  0  0  0
    6.5306    8.7363    3.6853 C   0  0  0  0  0  0  0  0  0  0  0  0
    5.3687    8.9728    2.9549 C   0  0  0  0  0  0  0  0  0  0  0  0
    5.3830    9.6733    1.7457 C   0  0  0  0  0  0  0  0  0  0  0  0
    4.2133    9.8556    0.9484 N   0  0  0  0  0  0  0  0  0  0  0  0
    2.9529    9.3605    1.2850 C   0  0  0  0  0  0  0  0  0  0  0  0
    2.7034    8.7256    2.2895 O   0  0  0  0  0  0  0  0  0  0  0  0
    1.9611    9.6722    0.3558 N   0  0  0  0  0  0  0  0  0  0  0  0
    0.6366    9.1971    0.6112 C   0  0  0  0  0  0  0  0  0  0  0  0
   -0.0513    9.5871    1.7692 C   0  0  0  0  0  0  0  0  0  0  0  0
   -1.3436    9.1123    2.0465 C   0  0  0  0  0  0  0  0  0  0  0  0
   -2.0668    9.5589    3.2849 C   0  0  0  0  0  0  0  0  0  0  0  0
   -1.9460    8.2159    1.1554 C   0  0  0  0  0  0  0  0  0  0  0  0
   -1.2722    7.8224   -0.0032 C   0  0  0  0  0  0  0  0  0  0  0  0
    0.0025    8.3270   -0.2771 C   0  0  0  0  0  0  0  0  0  0  0  0
    0.6437    7.9107   -1.3801 F   0  0  0  0  0  0  0  0  0  0  0  0
    6.6116   10.1952    1.3146 C   0  0  0  0  0  0  0  0  0  0  0  0
    7.7958    9.9328    2.0377 C   0  0  0  0  0  0  0  0  0  0  0  0
    9.9499    7.6439    5.6119 C   0  0  0  0  0  0  0  0  0  0  0  0
   10.0580    6.4697    6.3478 C   0  0  0  0  0  0  0  0  0  0  0  0
    9.3423    5.3442    6.1072 N   0  0  0  0  0  0  0  0  0  0  0  0
    6.8458    3.9706    3.7222 C   0  0  0  0  0  0  0  0  0  0  0  0
    2.3916   -2.2414    6.2142 H   0  0  0  0  0  0  0  0  0  0  0  0
    3.4927   -3.0232    5.0600 H   0  0  0  0  0  0  0  0  0  0  0  0
    1.7706   -2.7574    4.6318 H   0  0  0  0  0  0  0  0  0  0  0  0
    2.4382   -1.5169    2.6918 H   0  0  0  0  0  0  0  0  0  0  0  0
    4.1519   -1.7872    3.1053 H   0  0  0  0  0  0  0  0  0  0  0  0
    2.7650    0.9462    2.8574 H   0  0  0  0  0  0  0  0  0  0  0  0
    3.8673    0.2455    1.6695 H   0  0  0  0  0  0  0  0  0  0  0  0
    5.0347    0.5305    4.3244 H   0  0  0  0  0  0  0  0  0  0  0  0
    6.7852    1.1655    5.4608 H   0  0  0  0  0  0  0  0  0  0  0  0
    8.5027    2.8487    6.1972 H   0  0  0  0  0  0  0  0  0  0  0  0
    7.6705    6.4757    3.4110 H   0  0  0  0  0  0  0  0  0  0  0  0
    6.4499    8.1750    4.6089 H   0  0  0  0  0  0  0  0  0  0  0  0
    4.4642    8.5672    3.3884 H   0  0  0  0  0  0  0  0  0  0  0  0
    4.3161   10.3368    0.0703 H   0  0  0  0  0  0  0  0  0  0  0  0
    2.2490    9.6509   -0.6145 H   0  0  0  0  0  0  0  0  0  0  0  0
    0.4200   10.2784    2.4665 H   0  0  0  0  0  0  0  0  0  0  0  0
   -1.4558   10.2501    3.8760 H   0  0  0  0  0  0  0  0  0  0  0  0
   -2.3084    8.7014    3.9216 H   0  0  0  0  0  0  0  0  0  0  0  0
   -2.9901   10.0813    3.0146 H   0  0  0  0  0  0  0  0  0  0  0  0
   -2.9394    7.8194    1.3635 H   0  0  0  0  0  0  0  0  0  0  0  0
   -1.7300    7.1152   -0.6880 H   0  0  0  0  0  0  0  0  0  0  0  0
    6.6768   10.7978    0.4132 H   0  0  0  0  0  0  0  0  0  0  0  0
    8.7455   10.3217    1.6778 H   0  0  0  0  0  0  0  0  0  0  0  0
   10.5557    8.5074    5.8543 H   0  0  0  0  0  0  0  0  0  0  0  0
   10.7679    6.3955    7.1677 H   0  0  0  0  0  0  0  0  0  0  0  0
    6.5569    4.6913    2.9660 H   0  0  0  0  0  0  0  0  0  0  0  0
  1  2  1  0  0  0  0
  1 38  1  0  0  0  0
  1 39  1  0  0  0  0
  1 40  1  0  0  0  0
  2  3  1  0  0  0  0
  3  4  1  0  0  0  0
  3 41  1  0  0  0  0
  3 42  1  0  0  0  0
  4  5  1  0  0  0  0
  4 43  1  0  0  0  0
  4 44  1  0  0  0  0
  5  6  1  0  0  0  0
  5 45  1  0  0  0  0
  6  7  2  0  0  0  0
  6  8  1  0  0  0  0
  8  9  2  0  0  0  0
  8 37  1  0  0  0  0
  9 10  1  0  0  0  0
  9 46  1  0  0  0  0
 10 11  1  0  0  0  0
 10 47  1  0  0  0  0
 11 12  1  0  0  0  0
 11 37  2  0  0  0  0
 12 13  1  0  0  0  0
 12 36  2  0  0  0  0
 13 14  2  0  0  0  0
 13 48  1  0  0  0  0
 14 15  1  0  0  0  0
 14 34  1  0  0  0  0
 15 16  1  0  0  0  0
 16 17  1  0  0  0  0
 16 33  2  0  0  0  0
 17 18  2  0  0  0  0
 17 49  1  0  0  0  0
 18 19  1  0  0  0  0
 18 50  1  0  0  0  0
 19 20  1  0  0  0  0
 19 32  2  0  0  0  0
 20 21  1  0  0  0  0
 20 51  1  0  0  0  0
 21 22  2  0  0  0  0
 21 23  1  0  0  0  0
 23 24  1  0  0  0  0
 23 52  1  0  0  0  0
 24 25  1  0  0  0  0
 24 30  2  0  0  0  0
 25 26  2  0  0  0  0
 25 53  1  0  0  0  0
 26 27  1  0  0  0  0
 26 28  1  0  0  0  0
 27 54  1  0  0  0  0
 27 55  1  0  0  0  0
 27 56  1  0  0  0  0
 28 29  2  0  0  0  0
 28 57  1  0  0  0  0
 29 30  1  0  0  0  0
 29 58  1  0  0  0  0
 30 31  1  0  0  0  0
 32 33  1  0  0  0  0
 32 59  1  0  0  0  0
 33 60  1  0  0  0  0
 34 35  2  0  0  0  0
 34 61  1  0  0  0  0
 35 36  1  0  0  0  0
 35 62  1  0  0  0  0
 37 63  1  0  0  0  0
M  END
$$$$
