CHEMBL2113192
 OpenBabel04072215363D

 57 59  0  0  0  0  0  0  0  0999 V2000
    0.8740   -4.9932    2.1322 C   0  0  0  0  0  0  0  0  0  0  0  0
    2.2708   -4.7602    2.1368 O   0  0  0  0  0  0  0  0  0  0  0  0
    2.6291   -3.3781    1.9741 C   0  0  0  0  0  0  0  0  0  0  0  0
    4.1525   -3.3574    1.9881 C   0  0  0  0  0  0  0  0  0  0  0  0
    4.7963   -2.0773    1.8388 O   0  0  0  0  0  0  0  0  0  0  0  0
    6.1833   -2.1465    1.9151 C   0  0  0  0  0  0  0  0  0  0  0  0
    6.8346   -3.3914    2.0966 C   0  0  0  0  0  0  0  0  0  0  0  0
    8.2002   -3.5460    2.2426 C   0  0  0  0  0  0  0  0  0  0  0  0
    8.6825   -4.7789    2.4116 N   0  0  0  0  0  0  0  0  0  0  0  0
   10.0014   -4.8865    2.5597 C   0  0  0  0  0  0  0  0  0  0  0  0
   10.8630   -3.8708    2.5851 N   0  0  0  0  0  0  0  0  0  0  0  0
   10.3576   -2.6296    2.4246 C   0  0  0  0  0  0  0  0  0  0  0  0
   11.2496   -1.5212    2.4747 N   0  0  0  0  0  0  0  0  0  0  0  0
   12.6336   -1.7189    2.4021 C   0  0  0  0  0  0  0  0  0  0  0  0
   13.2068   -2.5123    1.5055 C   0  0  0  0  0  0  0  0  0  0  0  0
   14.6210   -2.8543    1.5489 C   0  0  0  0  0  0  0  0  0  0  0  0
   15.0220   -3.7551    0.8174 O   0  0  0  0  0  0  0  0  0  0  0  0
   15.5022   -2.0863    2.4706 C   0  0  0  0  0  0  0  0  0  0  0  0
   16.8846   -2.2683    2.4549 O   0  0  0  0  0  0  0  0  0  0  0  0
   17.5428   -2.6582    1.2361 C   0  0  0  0  0  0  0  0  0  0  0  0
   17.3306   -1.6718    0.0876 C   0  0  0  0  0  0  0  0  0  0  0  0
   17.8164   -0.4484    0.4407 F   0  0  0  0  0  0  0  0  0  0  0  0
   19.0324   -2.7619    1.5368 C   0  0  0  0  0  0  0  0  0  0  0  0
   19.6926   -3.1902    0.4279 F   0  0  0  0  0  0  0  0  0  0  0  0
   14.9722   -1.2318    3.3651 C   0  0  0  0  0  0  0  0  0  0  0  0
   15.8614   -0.5967    4.2344 O   0  0  0  0  0  0  0  0  0  0  0  0
   15.3736    0.3115    5.2097 C   0  0  0  0  0  0  0  0  0  0  0  0
   13.4794   -1.0018    3.4121 C   0  0  0  0  0  0  0  0  0  0  0  0
   12.9257   -0.2574    4.2130 O   0  0  0  0  0  0  0  0  0  0  0  0
    8.9917   -2.4080    2.2113 C   0  0  0  0  0  0  0  0  0  0  0  0
    8.3865   -1.1602    1.9587 C   0  0  0  0  0  0  0  0  0  0  0  0
    6.9921   -1.0056    1.8258 C   0  0  0  0  0  0  0  0  0  0  0  0
    6.7183    0.3140    1.6506 O   0  0  0  0  0  0  0  0  0  0  0  0
    5.4261    0.8475    1.4771 C   0  0  0  0  0  0  0  0  0  0  0  0
    0.7100   -6.0704    2.2427 H   0  0  0  0  0  0  0  0  0  0  0  0
    0.4354   -4.6724    1.1842 H   0  0  0  0  0  0  0  0  0  0  0  0
    0.3980   -4.4829    2.9732 H   0  0  0  0  0  0  0  0  0  0  0  0
    2.2207   -2.7837    2.7974 H   0  0  0  0  0  0  0  0  0  0  0  0
    2.2416   -2.9964    1.0247 H   0  0  0  0  0  0  0  0  0  0  0  0
    4.4733   -4.0138    1.1671 H   0  0  0  0  0  0  0  0  0  0  0  0
    4.4467   -3.8060    2.9476 H   0  0  0  0  0  0  0  0  0  0  0  0
    6.2905   -4.3318    2.1503 H   0  0  0  0  0  0  0  0  0  0  0  0
   10.4058   -5.8866    2.6700 H   0  0  0  0  0  0  0  0  0  0  0  0
   11.0009   -0.9103    3.2563 H   0  0  0  0  0  0  0  0  0  0  0  0
   12.6256   -3.0342    0.7535 H   0  0  0  0  0  0  0  0  0  0  0  0
   17.2260   -3.6621    0.9362 H   0  0  0  0  0  0  0  0  0  0  0  0
   16.2758   -1.5324   -0.1592 H   0  0  0  0  0  0  0  0  0  0  0  0
   17.8526   -1.9934   -0.8188 H   0  0  0  0  0  0  0  0  0  0  0  0
   19.2142   -3.4875    2.3380 H   0  0  0  0  0  0  0  0  0  0  0  0
   19.4556   -1.8054    1.8547 H   0  0  0  0  0  0  0  0  0  0  0  0
   16.2272    0.6237    5.8232 H   0  0  0  0  0  0  0  0  0  0  0  0
   14.6557   -0.1647    5.8832 H   0  0  0  0  0  0  0  0  0  0  0  0
   14.9624    1.2081    4.7369 H   0  0  0  0  0  0  0  0  0  0  0  0
    9.0148   -0.2757    1.8541 H   0  0  0  0  0  0  0  0  0  0  0  0
    5.4226    1.8187    1.9873 H   0  0  0  0  0  0  0  0  0  0  0  0
    4.6196    0.2546    1.9007 H   0  0  0  0  0  0  0  0  0  0  0  0
    5.2601    1.0478    0.4145 H   0  0  0  0  0  0  0  0  0  0  0  0
  1  2  1  0  0  0  0
  1 35  1  0  0  0  0
  1 36  1  0  0  0  0
  1 37  1  0  0  0  0
  2  3  1  0  0  0  0
  3  4  1  0  0  0  0
  3 38  1  0  0  0  0
  3 39  1  0  0  0  0
  4  5  1  0  0  0  0
  4 40  1  0  0  0  0
  4 41  1  0  0  0  0
  5  6  1  0  0  0  0
  6  7  1  0  0  0  0
  6 32  2  0  0  0  0
  7  8  2  0  0  0  0
  7 42  1  0  0  0  0
  8  9  1  0  0  0  0
  8 30  1  0  0  0  0
  9 10  2  0  0  0  0
 10 11  1  0  0  0  0
 10 43  1  0  0  0  0
 11 12  2  0  0  0  0
 12 13  1  0  0  0  0
 12 30  1  0  0  0  0
 13 14  1  0  0  0  0
 13 44  1  0  0  0  0
 14 15  2  0  0  0  0
 14 28  1  0  0  0  0
 15 16  1  0  0  0  0
 15 45  1  0  0  0  0
 16 17  2  0  0  0  0
 16 18  1  0  0  0  0
 18 19  1  0  0  0  0
 18 25  2  0  0  0  0
 19 20  1  0  0  0  0
 20 21  1  0  0  0  0
 20 23  1  0  0  0  0
 20 46  1  0  0  0  0
 21 22  1  0  0  0  0
 21 47  1  0  0  0  0
 21 48  1  0  0  0  0
 23 24  1  0  0  0  0
 23 49  1  0  0  0  0
 23 50  1  0  0  0  0
 25 26  1  0  0  0  0
 25 28  1  0  0  0  0
 26 27  1  0  0  0  0
 27 51  1  0  0  0  0
 27 52  1  0  0  0  0
 27 53  1  0  0  0  0
 28 29  2  0  0  0  0
 30 31  2  0  0  0  0
 31 32  1  0  0  0  0
 31 54  1  0  0  0  0
 32 33  1  0  0  0  0
 33 34  1  0  0  0  0
 34 55  1  0  0  0  0
 34 56  1  0  0  0  0
 34 57  1  0  0  0  0
M  END
$$$$
