CHEMBL4552065
 OpenBabel04072215383D

 41 43  0  0  0  0  0  0  0  0999 V2000
   -2.1054   -0.0423    0.0438 C   0  0  0  0  0  0  0  0  0  0  0  0
   -0.9274   -0.5838    0.6750 N   0  0  0  0  0  0  0  0  0  0  0  0
    0.0136   -1.3756    0.0900 C   0  0  0  0  0  0  0  0  0  0  0  0
    0.9762   -1.6054    1.0421 C   0  0  0  0  0  0  0  0  0  0  0  0
    2.1433   -2.3406    0.9227 N   0  0  0  0  0  0  0  0  0  0  0  0
    2.5247   -3.0055   -0.2255 C   0  0  0  0  0  0  0  0  0  0  0  0
    1.9096   -3.0551   -1.2859 O   0  0  0  0  0  0  0  0  0  0  0  0
    3.7916   -3.7765   -0.1289 C   0  0  0  0  0  0  0  0  0  0  0  0
    4.8767   -3.3490    0.6472 C   0  0  0  0  0  0  0  0  0  0  0  0
    6.0289   -4.1347    0.7155 C   0  0  0  0  0  0  0  0  0  0  0  0
    6.0935   -5.3412    0.0159 C   0  0  0  0  0  0  0  0  0  0  0  0
    5.0230   -5.7478   -0.7812 C   0  0  0  0  0  0  0  0  0  0  0  0
    5.0911   -6.9885   -1.4698 N   0  0  0  0  0  0  0  0  0  0  0  0
    4.6643   -8.3991   -0.6370 S   0  0  0  0  0  0  0  0  0  0  0  0
    4.8556   -9.4901   -1.5680 O   0  0  0  0  0  0  0  0  0  0  0  0
    5.3060   -8.4015    0.6618 O   0  0  0  0  0  0  0  0  0  0  0  0
    2.9067   -8.2335   -0.3811 C   0  0  0  0  0  0  0  0  0  0  0  0
    2.0254   -8.7323   -1.3480 C   0  0  0  0  0  0  0  0  0  0  0  0
    0.6489   -8.6829   -1.1201 C   0  0  0  0  0  0  0  0  0  0  0  0
    0.1572   -8.1451    0.0696 C   0  0  0  0  0  0  0  0  0  0  0  0
    1.0383   -7.6593    1.0376 C   0  0  0  0  0  0  0  0  0  0  0  0
    2.4174   -7.7097    0.8195 C   0  0  0  0  0  0  0  0  0  0  0  0
    3.8768   -4.9666   -0.8629 C   0  0  0  0  0  0  0  0  0  0  0  0
    0.5030   -0.9176    2.1825 C   0  0  0  0  0  0  0  0  0  0  0  0
   -0.6589   -0.2939    1.9628 N   0  0  0  0  0  0  0  0  0  0  0  0
   -2.1911   -0.4447   -0.9691 H   0  0  0  0  0  0  0  0  0  0  0  0
   -2.0023    1.0447    0.0047 H   0  0  0  0  0  0  0  0  0  0  0  0
   -2.9798   -0.3289    0.6326 H   0  0  0  0  0  0  0  0  0  0  0  0
   -0.0778   -1.6958   -0.9385 H   0  0  0  0  0  0  0  0  0  0  0  0
    2.7013   -2.4243    1.7613 H   0  0  0  0  0  0  0  0  0  0  0  0
    4.8546   -2.4021    1.1795 H   0  0  0  0  0  0  0  0  0  0  0  0
    6.8799   -3.8082    1.3098 H   0  0  0  0  0  0  0  0  0  0  0  0
    6.9900   -5.9549    0.0807 H   0  0  0  0  0  0  0  0  0  0  0  0
    4.7511   -7.0014   -2.4307 H   0  0  0  0  0  0  0  0  0  0  0  0
    2.3978   -9.1811   -2.2662 H   0  0  0  0  0  0  0  0  0  0  0  0
   -0.0412   -9.0791   -1.8618 H   0  0  0  0  0  0  0  0  0  0  0  0
   -0.9158   -8.1179    0.2491 H   0  0  0  0  0  0  0  0  0  0  0  0
    0.6467   -7.2572    1.9693 H   0  0  0  0  0  0  0  0  0  0  0  0
    3.0972   -7.3532    1.5899 H   0  0  0  0  0  0  0  0  0  0  0  0
    3.0356   -5.2805   -1.4776 H   0  0  0  0  0  0  0  0  0  0  0  0
    0.9546   -0.8397    3.1624 H   0  0  0  0  0  0  0  0  0  0  0  0
  1  2  1  0  0  0  0
  1 26  1  0  0  0  0
  1 27  1  0  0  0  0
  1 28  1  0  0  0  0
  2  3  1  0  0  0  0
  2 25  1  0  0  0  0
  3  4  2  0  0  0  0
  3 29  1  0  0  0  0
  4  5  1  0  0  0  0
  4 24  1  0  0  0  0
  5  6  1  0  0  0  0
  5 30  1  0  0  0  0
  6  7  2  0  0  0  0
  6  8  1  0  0  0  0
  8  9  1  0  0  0  0
  8 23  2  0  0  0  0
  9 10  2  0  0  0  0
  9 31  1  0  0  0  0
 10 11  1  0  0  0  0
 10 32  1  0  0  0  0
 11 12  2  0  0  0  0
 11 33  1  0  0  0  0
 12 13  1  0  0  0  0
 12 23  1  0  0  0  0
 13 14  1  0  0  0  0
 13 34  1  0  0  0  0
 14 15  2  0  0  0  0
 14 16  2  0  0  0  0
 14 17  1  0  0  0  0
 17 18  1  0  0  0  0
 17 22  2  0  0  0  0
 18 19  2  0  0  0  0
 18 35  1  0  0  0  0
 19 20  1  0  0  0  0
 19 36  1  0  0  0  0
 20 21  2  0  0  0  0
 20 37  1  0  0  0  0
 21 22  1  0  0  0  0
 21 38  1  0  0  0  0
 22 39  1  0  0  0  0
 23 40  1  0  0  0  0
 24 25  2  0  0  0  0
 24 41  1  0  0  0  0
M  END
$$$$
