CHEMBL4243899
 OpenBabel04072215383D

 51 55  0  0  0  0  0  0  0  0999 V2000
    1.2697   -0.0876   -1.6623 N   0  0  0  0  0  0  0  0  0  0  0  0
    2.5625   -0.2605   -1.3266 C   0  0  0  0  0  0  0  0  0  0  0  0
    3.3957    0.7637   -1.6811 O   0  0  0  0  0  0  0  0  0  0  0  0
    4.6802    0.5217   -1.2240 N   0  0  0  0  0  0  0  0  0  0  0  0
    4.6142   -0.6587   -0.6007 C   0  0  0  0  0  0  0  0  0  0  0  0
    5.6434   -1.2794    0.0344 N   0  0  0  0  0  0  0  0  0  0  0  0
    5.2969   -2.4753    0.5863 C   0  0  0  0  0  0  0  0  0  0  0  0
    6.3958   -3.1918    1.2799 C   0  0  0  0  0  0  0  0  0  0  0  0
    7.4023   -2.4898    1.9674 C   0  0  0  0  0  0  0  0  0  0  0  0
    8.4511   -3.1611    2.6054 C   0  0  0  0  0  0  0  0  0  0  0  0
    8.5143   -4.5514    2.5718 C   0  0  0  0  0  0  0  0  0  0  0  0
    7.5269   -5.2713    1.9088 C   0  0  0  0  0  0  0  0  0  0  0  0
    6.4826   -4.5981    1.2695 C   0  0  0  0  0  0  0  0  0  0  0  0
    3.9953   -3.0410    0.5290 C   0  0  0  0  0  0  0  0  0  0  0  0
    2.8848   -2.4397   -0.1084 C   0  0  0  0  0  0  0  0  0  0  0  0
    1.5505   -3.0383   -0.0724 C   0  0  0  0  0  0  0  0  0  0  0  0
    1.1241   -3.6674    1.1079 C   0  0  0  0  0  0  0  0  0  0  0  0
   -0.1270   -4.2676    1.2082 C   0  0  0  0  0  0  0  0  0  0  0  0
   -1.0314   -4.2084    0.1518 C   0  0  0  0  0  0  0  0  0  0  0  0
   -2.3390   -4.7291    0.2674 N   0  0  0  0  0  0  0  0  0  0  0  0
   -2.9808   -4.9183    1.4800 C   0  0  0  0  0  0  0  0  0  0  0  0
   -2.5652   -4.5186    2.5628 O   0  0  0  0  0  0  0  0  0  0  0  0
   -4.1498   -5.6461    1.3321 N   0  0  0  0  0  0  0  0  0  0  0  0
   -5.0061   -5.8910    2.4292 C   0  0  0  0  0  0  0  0  0  0  0  0
   -5.2613   -4.9052    3.3950 C   0  0  0  0  0  0  0  0  0  0  0  0
   -6.0889   -5.1739    4.4856 C   0  0  0  0  0  0  0  0  0  0  0  0
   -6.6594   -6.4346    4.6226 C   0  0  0  0  0  0  0  0  0  0  0  0
   -6.4054   -7.4078    3.6601 C   0  0  0  0  0  0  0  0  0  0  0  0
   -6.9322   -8.6302    3.8099 F   0  0  0  0  0  0  0  0  0  0  0  0
   -5.6021   -7.1438    2.5542 C   0  0  0  0  0  0  0  0  0  0  0  0
   -0.6171   -3.6338   -1.0500 C   0  0  0  0  0  0  0  0  0  0  0  0
    0.6699   -3.0776   -1.1644 C   0  0  0  0  0  0  0  0  0  0  0  0
    3.2918   -1.2165   -0.6591 C   0  0  0  0  0  0  0  0  0  0  0  0
    0.9937    0.8329   -1.9989 H   0  0  0  0  0  0  0  0  0  0  0  0
    0.5495   -0.5226   -1.0913 H   0  0  0  0  0  0  0  0  0  0  0  0
    7.3763   -1.4014    2.0067 H   0  0  0  0  0  0  0  0  0  0  0  0
    9.2220   -2.5942    3.1209 H   0  0  0  0  0  0  0  0  0  0  0  0
    9.3365   -5.0727    3.0548 H   0  0  0  0  0  0  0  0  0  0  0  0
    7.5719   -6.3569    1.8756 H   0  0  0  0  0  0  0  0  0  0  0  0
    5.7447   -5.1965    0.7399 H   0  0  0  0  0  0  0  0  0  0  0  0
    3.8379   -3.9969    1.0290 H   0  0  0  0  0  0  0  0  0  0  0  0
    1.7620   -3.7023    1.9899 H   0  0  0  0  0  0  0  0  0  0  0  0
   -0.3658   -4.7716    2.1404 H   0  0  0  0  0  0  0  0  0  0  0  0
   -2.9372   -4.6780   -0.5448 H   0  0  0  0  0  0  0  0  0  0  0  0
   -4.1122   -6.3531    0.6113 H   0  0  0  0  0  0  0  0  0  0  0  0
   -4.8169   -3.9150    3.3096 H   0  0  0  0  0  0  0  0  0  0  0  0
   -6.2720   -4.4009    5.2289 H   0  0  0  0  0  0  0  0  0  0  0  0
   -7.2912   -6.6676    5.4726 H   0  0  0  0  0  0  0  0  0  0  0  0
   -5.4117   -7.9408    1.8443 H   0  0  0  0  0  0  0  0  0  0  0  0
   -1.2831   -3.5885   -1.9073 H   0  0  0  0  0  0  0  0  0  0  0  0
    0.9702   -2.6622   -2.1248 H   0  0  0  0  0  0  0  0  0  0  0  0
  1  2  1  0  0  0  0
  1 34  1  0  0  0  0
  1 35  1  0  0  0  0
  2  3  1  0  0  0  0
  2 33  2  0  0  0  0
  3  4  1  0  0  0  0
  4  5  2  0  0  0  0
  5  6  1  0  0  0  0
  5 33  1  0  0  0  0
  6  7  2  0  0  0  0
  7  8  1  0  0  0  0
  7 14  1  0  0  0  0
  8  9  1  0  0  0  0
  8 13  2  0  0  0  0
  9 10  2  0  0  0  0
  9 36  1  0  0  0  0
 10 11  1  0  0  0  0
 10 37  1  0  0  0  0
 11 12  2  0  0  0  0
 11 38  1  0  0  0  0
 12 13  1  0  0  0  0
 12 39  1  0  0  0  0
 13 40  1  0  0  0  0
 14 15  2  0  0  0  0
 14 41  1  0  0  0  0
 15 16  1  0  0  0  0
 15 33  1  0  0  0  0
 16 17  1  0  0  0  0
 16 32  2  0  0  0  0
 17 18  2  0  0  0  0
 17 42  1  0  0  0  0
 18 19  1  0  0  0  0
 18 43  1  0  0  0  0
 19 20  1  0  0  0  0
 19 31  2  0  0  0  0
 20 21  1  0  0  0  0
 20 44  1  0  0  0  0
 21 22  2  0  0  0  0
 21 23  1  0  0  0  0
 23 24  1  0  0  0  0
 23 45  1  0  0  0  0
 24 25  1  0  0  0  0
 24 30  2  0  0  0  0
 25 26  2  0  0  0  0
 25 46  1  0  0  0  0
 26 27  1  0  0  0  0
 26 47  1  0  0  0  0
 27 28  2  0  0  0  0
 27 48  1  0  0  0  0
 28 29  1  0  0  0  0
 28 30  1  0  0  0  0
 30 49  1  0  0  0  0
 31 32  1  0  0  0  0
 31 50  1  0  0  0  0
 32 51  1  0  0  0  0
M  END
$$$$
