CHEMBL3125881
 OpenBabel04072215363D

 64 68  0  0  0  0  0  0  0  0999 V2000
   -1.2355    1.4767    0.1882 C   0  0  0  0  0  0  0  0  0  0  0  0
   -1.0681    0.0465   -0.3761 C   0  0  0  0  0  0  0  0  0  0  0  0
   -2.2329   -0.7899    0.2024 C   0  0  0  0  0  0  0  0  0  0  0  0
    0.2184   -0.4926    0.1405 C   0  0  0  0  0  0  0  0  0  0  0  0
    1.2203   -0.9154    0.5490 N   0  0  0  0  0  0  0  0  0  0  0  0
   -1.0978   -0.0089   -1.9179 C   0  0  0  0  0  0  0  0  0  0  0  0
   -0.9704   -1.2325   -2.6027 C   0  0  0  0  0  0  0  0  0  0  0  0
   -1.0392   -1.2958   -4.0021 C   0  0  0  0  0  0  0  0  0  0  0  0
   -1.2572   -0.1426   -4.7576 C   0  0  0  0  0  0  0  0  0  0  0  0
   -1.3887    1.0813   -4.1067 C   0  0  0  0  0  0  0  0  0  0  0  0
   -1.6432    2.3580   -4.8281 C   0  0  0  0  0  0  0  0  0  0  0  0
   -1.1722    3.3774   -4.3326 O   0  0  0  0  0  0  0  0  0  0  0  0
   -2.4779    2.2914   -5.9405 N   0  0  0  0  0  0  0  0  0  0  0  0
   -2.9200    3.4189   -6.6808 C   0  0  0  0  0  0  0  0  0  0  0  0
   -2.2562    4.6489   -6.6083 C   0  0  0  0  0  0  0  0  0  0  0  0
   -2.7674    5.7752   -7.2390 C   0  0  0  0  0  0  0  0  0  0  0  0
   -3.9537    5.6805   -7.9527 C   0  0  0  0  0  0  0  0  0  0  0  0
   -4.5720    4.4347   -8.1559 C   0  0  0  0  0  0  0  0  0  0  0  0
   -5.6747    4.2720   -9.0014 O   0  0  0  0  0  0  0  0  0  0  0  0
   -5.7575    5.1047  -10.1188 C   0  0  0  0  0  0  0  0  0  0  0  0
   -4.5701    5.5208  -10.7263 C   0  0  0  0  0  0  0  0  0  0  0  0
   -4.5467    6.5948  -11.5886 C   0  0  0  0  0  0  0  0  0  0  0  0
   -5.7513    7.0999  -12.0690 C   0  0  0  0  0  0  0  0  0  0  0  0
   -5.7832    8.1170  -12.9942 N   0  0  0  0  0  0  0  0  0  0  0  0
   -7.0045    8.2959  -13.4148 C   0  0  0  0  0  0  0  0  0  0  0  0
   -7.2316    9.2038  -14.4339 N   0  0  0  0  0  0  0  0  0  0  0  0
   -8.4396    9.6381  -14.9016 C   0  0  0  0  0  0  0  0  0  0  0  0
   -9.5465    9.3223  -14.4742 O   0  0  0  0  0  0  0  0  0  0  0  0
   -8.3999   10.6005  -16.0730 C   0  0  0  0  0  0  0  0  0  0  0  0
   -9.5881   11.4799  -16.4057 C   0  0  0  0  0  0  0  0  0  0  0  0
   -9.2920   10.2886  -17.2619 C   0  0  0  0  0  0  0  0  0  0  0  0
   -8.1828    7.2960  -12.6722 S   0  0  0  0  0  0  0  0  0  0  0  0
   -6.9700    6.5402  -11.6467 C   0  0  0  0  0  0  0  0  0  0  0  0
   -7.0264    5.5503  -10.5970 C   0  0  0  0  0  0  0  0  0  0  0  0
   -8.2998    4.9424  -10.0304 C   0  0  0  0  0  0  0  0  0  0  0  0
   -8.4516    5.1400   -8.6224 O   0  0  0  0  0  0  0  0  0  0  0  0
   -4.0618    3.3047   -7.4990 C   0  0  0  0  0  0  0  0  0  0  0  0
   -1.2707    1.1439   -2.7053 C   0  0  0  0  0  0  0  0  0  0  0  0
   -1.2977    1.4726    1.2832 H   0  0  0  0  0  0  0  0  0  0  0  0
   -2.1554    1.9469   -0.1795 H   0  0  0  0  0  0  0  0  0  0  0  0
   -0.3890    2.1206   -0.0802 H   0  0  0  0  0  0  0  0  0  0  0  0
   -2.2858   -0.6909    1.2945 H   0  0  0  0  0  0  0  0  0  0  0  0
   -2.1276   -1.8603   -0.0084 H   0  0  0  0  0  0  0  0  0  0  0  0
   -3.1972   -0.4609   -0.2039 H   0  0  0  0  0  0  0  0  0  0  0  0
   -0.8029   -2.1604   -2.0554 H   0  0  0  0  0  0  0  0  0  0  0  0
   -0.9209   -2.2551   -4.5022 H   0  0  0  0  0  0  0  0  0  0  0  0
   -1.2877   -0.2106   -5.8408 H   0  0  0  0  0  0  0  0  0  0  0  0
   -2.9621    1.4200   -6.1116 H   0  0  0  0  0  0  0  0  0  0  0  0
   -1.3299    4.7688   -6.0542 H   0  0  0  0  0  0  0  0  0  0  0  0
   -2.2408    6.7234   -7.1691 H   0  0  0  0  0  0  0  0  0  0  0  0
   -4.3362    6.5885   -8.4118 H   0  0  0  0  0  0  0  0  0  0  0  0
   -3.6046    5.1090  -10.4313 H   0  0  0  0  0  0  0  0  0  0  0  0
   -3.6133    7.0375  -11.9142 H   0  0  0  0  0  0  0  0  0  0  0  0
   -6.3726    9.5912  -14.8102 H   0  0  0  0  0  0  0  0  0  0  0  0
   -7.4315   11.0560  -16.2750 H   0  0  0  0  0  0  0  0  0  0  0  0
   -9.4263   12.4521  -16.8561 H   0  0  0  0  0  0  0  0  0  0  0  0
  -10.4813   11.4343  -15.7889 H   0  0  0  0  0  0  0  0  0  0  0  0
   -8.9149   10.4627  -18.2612 H   0  0  0  0  0  0  0  0  0  0  0  0
  -10.0022    9.4681  -17.1945 H   0  0  0  0  0  0  0  0  0  0  0  0
   -8.3173    3.8558  -10.2058 H   0  0  0  0  0  0  0  0  0  0  0  0
   -9.2024    5.3490  -10.4964 H   0  0  0  0  0  0  0  0  0  0  0  0
   -7.5752    5.0703   -8.2070 H   0  0  0  0  0  0  0  0  0  0  0  0
   -4.5704    2.3522   -7.6135 H   0  0  0  0  0  0  0  0  0  0  0  0
   -1.3300    2.1296   -2.2468 H   0  0  0  0  0  0  0  0  0  0  0  0
  1  2  1  0  0  0  0
  1 39  1  0  0  0  0
  1 40  1  0  0  0  0
  1 41  1  0  0  0  0
  2  3  1  0  0  0  0
  2  4  1  0  0  0  0
  2  6  1  0  0  0  0
  3 42  1  0  0  0  0
  3 43  1  0  0  0  0
  3 44  1  0  0  0  0
  4  5  3  0  0  0  0
  6  7  1  0  0  0  0
  6 38  2  0  0  0  0
  7  8  2  0  0  0  0
  7 45  1  0  0  0  0
  8  9  1  0  0  0  0
  8 46  1  0  0  0  0
  9 10  2  0  0  0  0
  9 47  1  0  0  0  0
 10 11  1  0  0  0  0
 10 38  1  0  0  0  0
 11 12  2  0  0  0  0
 11 13  1  0  0  0  0
 13 14  1  0  0  0  0
 13 48  1  0  0  0  0
 14 15  1  0  0  0  0
 14 37  2  0  0  0  0
 15 16  2  0  0  0  0
 15 49  1  0  0  0  0
 16 17  1  0  0  0  0
 16 50  1  0  0  0  0
 17 18  2  0  0  0  0
 17 51  1  0  0  0  0
 18 19  1  0  0  0  0
 18 37  1  0  0  0  0
 19 20  1  0  0  0  0
 20 21  1  0  0  0  0
 20 34  2  0  0  0  0
 21 22  2  0  0  0  0
 21 52  1  0  0  0  0
 22 23  1  0  0  0  0
 22 53  1  0  0  0  0
 23 24  1  0  0  0  0
 23 33  2  0  0  0  0
 24 25  2  0  0  0  0
 25 26  1  0  0  0  0
 25 32  1  0  0  0  0
 26 27  1  0  0  0  0
 26 54  1  0  0  0  0
 27 28  2  0  0  0  0
 27 29  1  0  0  0  0
 29 30  1  0  0  0  0
 29 31  1  0  0  0  0
 29 55  1  0  0  0  0
 30 31  1  0  0  0  0
 30 56  1  0  0  0  0
 30 57  1  0  0  0  0
 31 58  1  0  0  0  0
 31 59  1  0  0  0  0
 32 33  1  0  0  0  0
 33 34  1  0  0  0  0
 34 35  1  0  0  0  0
 35 36  1  0  0  0  0
 35 60  1  0  0  0  0
 35 61  1  0  0  0  0
 36 62  1  0  0  0  0
 37 63  1  0  0  0  0
 38 64  1  0  0  0  0
M  END
$$$$
