CHEMBL3827045
 OpenBabel04072215373D

 59 64  0  0  0  0  0  0  0  0999 V2000
    1.0065   -0.0736    0.0249 O   0  0  0  0  0  0  0  0  0  0  0  0
    2.2196   -0.0328    0.0380 C   0  0  0  0  0  0  0  0  0  0  0  0
    3.1006   -1.1883    0.1104 C   0  0  0  0  0  0  0  0  0  0  0  0
    2.7388   -2.5255    0.1793 C   0  0  0  0  0  0  0  0  0  0  0  0
    3.7729   -3.4427    0.2804 C   0  0  0  0  0  0  0  0  0  0  0  0
    3.5344   -4.7833    0.3329 O   0  0  0  0  0  0  0  0  0  0  0  0
    5.1038   -3.0206    0.3463 C   0  0  0  0  0  0  0  0  0  0  0  0
    5.4262   -1.6550    0.2983 C   0  0  0  0  0  0  0  0  0  0  0  0
    4.4138   -0.7190    0.1363 C   0  0  0  0  0  0  0  0  0  0  0  0
    4.3768    0.7477    0.0116 C   0  0  0  0  0  0  0  0  0  0  0  0
    3.0940    1.1579   -0.0030 C   0  0  0  0  0  0  0  0  0  0  0  0
    2.7345    2.5668   -0.0400 C   0  0  0  0  0  0  0  0  0  0  0  0
    1.4133    3.0303   -0.0539 C   0  0  0  0  0  0  0  0  0  0  0  0
    1.1380    4.4023   -0.0949 C   0  0  0  0  0  0  0  0  0  0  0  0
    2.1872    5.3141   -0.1179 C   0  0  0  0  0  0  0  0  0  0  0  0
    1.9672    6.6567   -0.1671 O   0  0  0  0  0  0  0  0  0  0  0  0
    3.5023    4.8788   -0.0926 C   0  0  0  0  0  0  0  0  0  0  0  0
    3.7743    3.5051   -0.0515 C   0  0  0  0  0  0  0  0  0  0  0  0
    5.1886    3.0501   -0.0298 C   0  0  0  0  0  0  0  0  0  0  0  0
    6.0619    3.9148   -0.0453 O   0  0  0  0  0  0  0  0  0  0  0  0
    5.4318    1.6494   -0.0232 N   0  0  0  0  0  0  0  0  0  0  0  0
    6.8024    1.2755   -0.0289 C   0  0  0  0  0  0  0  0  0  0  0  0
    7.6138    1.7331    1.0082 C   0  0  0  0  0  0  0  0  0  0  0  0
    8.9693    1.4420    1.0148 C   0  0  0  0  0  0  0  0  0  0  0  0
    9.5485    0.6979   -0.0192 C   0  0  0  0  0  0  0  0  0  0  0  0
   10.8919    0.3976   -0.0962 O   0  0  0  0  0  0  0  0  0  0  0  0
   11.6657    1.0604    0.9125 C   0  0  0  0  0  0  0  0  0  0  0  0
   13.1695    0.8304    0.7634 C   0  0  0  0  0  0  0  0  0  0  0  0
   13.9328    1.4316    1.8835 N   0  0  0  0  0  0  0  0  0  0  0  0
   13.7845    2.8938    1.9995 C   0  0  0  0  0  0  0  0  0  0  0  0
   14.7518    3.4499    0.9779 C   0  0  0  0  0  0  0  0  0  0  0  0
   15.9488    2.5317    1.1379 C   0  0  0  0  0  0  0  0  0  0  0  0
   15.3800    1.2252    1.6916 C   0  0  0  0  0  0  0  0  0  0  0  0
    8.7389    0.2325   -1.0578 C   0  0  0  0  0  0  0  0  0  0  0  0
    7.3674    0.5263   -1.0694 C   0  0  0  0  0  0  0  0  0  0  0  0
    1.6951   -2.8153    0.1544 H   0  0  0  0  0  0  0  0  0  0  0  0
    2.5758   -4.9384    0.2893 H   0  0  0  0  0  0  0  0  0  0  0  0
    5.8974   -3.7594    0.4417 H   0  0  0  0  0  0  0  0  0  0  0  0
    6.4684   -1.3783    0.4016 H   0  0  0  0  0  0  0  0  0  0  0  0
    0.5764    2.3348   -0.0323 H   0  0  0  0  0  0  0  0  0  0  0  0
    0.1043    4.7347   -0.1096 H   0  0  0  0  0  0  0  0  0  0  0  0
    1.0102    6.8212   -0.1989 H   0  0  0  0  0  0  0  0  0  0  0  0
    4.3107    5.6064   -0.1098 H   0  0  0  0  0  0  0  0  0  0  0  0
    7.2009    2.3348    1.8140 H   0  0  0  0  0  0  0  0  0  0  0  0
    9.5408    1.8406    1.8459 H   0  0  0  0  0  0  0  0  0  0  0  0
   11.3638    0.6861    1.8989 H   0  0  0  0  0  0  0  0  0  0  0  0
   11.4721    2.1346    0.8266 H   0  0  0  0  0  0  0  0  0  0  0  0
   13.5049    1.1932   -0.2160 H   0  0  0  0  0  0  0  0  0  0  0  0
   13.3408   -0.2542    0.7593 H   0  0  0  0  0  0  0  0  0  0  0  0
   14.0950    3.1970    3.0086 H   0  0  0  0  0  0  0  0  0  0  0  0
   12.7704    3.2780    1.8740 H   0  0  0  0  0  0  0  0  0  0  0  0
   14.9998    4.4996    1.1580 H   0  0  0  0  0  0  0  0  0  0  0  0
   14.3386    3.3690   -0.0347 H   0  0  0  0  0  0  0  0  0  0  0  0
   16.6523    2.9646    1.8591 H   0  0  0  0  0  0  0  0  0  0  0  0
   16.4735    2.3888    0.1889 H   0  0  0  0  0  0  0  0  0  0  0  0
   15.8364    1.0105    2.6652 H   0  0  0  0  0  0  0  0  0  0  0  0
   15.6115    0.3740    1.0418 H   0  0  0  0  0  0  0  0  0  0  0  0
    9.1738   -0.3412   -1.8722 H   0  0  0  0  0  0  0  0  0  0  0  0
    6.7536    0.1868   -1.8994 H   0  0  0  0  0  0  0  0  0  0  0  0
  1  2  2  0  0  0  0
  2  3  1  0  0  0  0
  2 11  1  0  0  0  0
  3  4  1  0  0  0  0
  3  9  2  0  0  0  0
  4  5  2  0  0  0  0
  4 36  1  0  0  0  0
  5  6  1  0  0  0  0
  5  7  1  0  0  0  0
  6 37  1  0  0  0  0
  7  8  2  0  0  0  0
  7 38  1  0  0  0  0
  8  9  1  0  0  0  0
  8 39  1  0  0  0  0
  9 10  1  0  0  0  0
 10 11  2  0  0  0  0
 10 21  1  0  0  0  0
 11 12  1  0  0  0  0
 12 13  1  0  0  0  0
 12 18  2  0  0  0  0
 13 14  2  0  0  0  0
 13 40  1  0  0  0  0
 14 15  1  0  0  0  0
 14 41  1  0  0  0  0
 15 16  1  0  0  0  0
 15 17  2  0  0  0  0
 16 42  1  0  0  0  0
 17 18  1  0  0  0  0
 17 43  1  0  0  0  0
 18 19  1  0  0  0  0
 19 20  2  0  0  0  0
 19 21  1  0  0  0  0
 21 22  1  0  0  0  0
 22 23  1  0  0  0  0
 22 35  2  0  0  0  0
 23 24  2  0  0  0  0
 23 44  1  0  0  0  0
 24 25  1  0  0  0  0
 24 45  1  0  0  0  0
 25 26  1  0  0  0  0
 25 34  2  0  0  0  0
 26 27  1  0  0  0  0
 27 28  1  0  0  0  0
 27 46  1  0  0  0  0
 27 47  1  0  0  0  0
 28 29  1  0  0  0  0
 28 48  1  0  0  0  0
 28 49  1  0  0  0  0
 29 30  1  0  0  0  0
 29 33  1  0  0  0  0
 30 31  1  0  0  0  0
 30 50  1  0  0  0  0
 30 51  1  0  0  0  0
 31 32  1  0  0  0  0
 31 52  1  0  0  0  0
 31 53  1  0  0  0  0
 32 33  1  0  0  0  0
 32 54  1  0  0  0  0
 32 55  1  0  0  0  0
 33 56  1  0  0  0  0
 33 57  1  0  0  0  0
 34 35  1  0  0  0  0
 34 58  1  0  0  0  0
 35 59  1  0  0  0  0
M  END
$$$$
