CHEMBL494267
 OpenBabel04072215383D

 65 69  0  0  0  0  0  0  0  0999 V2000
    0.9219    0.9682   -1.2374 C   0  0  0  0  0  0  0  0  0  0  0  0
    0.3397    0.5458   -2.6087 C   0  0  0  0  0  0  0  0  0  0  0  0
   -1.1524    0.2207   -2.3905 C   0  0  0  0  0  0  0  0  0  0  0  0
    0.4725    1.7651   -3.5462 C   0  0  0  0  0  0  0  0  0  0  0  0
    1.0500   -0.6636   -3.2424 C   0  0  0  0  0  0  0  0  0  0  0  0
    2.1176   -1.3150   -2.6171 C   0  0  0  0  0  0  0  0  0  0  0  0
    2.7715   -2.3988   -3.2232 C   0  0  0  0  0  0  0  0  0  0  0  0
    2.3856   -2.8791   -4.4789 C   0  0  0  0  0  0  0  0  0  0  0  0
    3.0850   -3.9263   -5.1476 N   0  0  0  0  0  0  0  0  0  0  0  0
    3.9683   -4.7814   -4.5188 C   0  0  0  0  0  0  0  0  0  0  0  0
    3.9476   -5.0473   -3.3167 O   0  0  0  0  0  0  0  0  0  0  0  0
    5.0397   -5.4509   -5.3391 C   0  0  0  0  0  0  0  0  0  0  0  0
    4.7888   -6.5340   -6.1607 C   0  0  0  0  0  0  0  0  0  0  0  0
    5.9341   -7.1653   -6.6717 C   0  0  0  0  0  0  0  0  0  0  0  0
    7.2904   -6.7327   -6.3466 C   0  0  0  0  0  0  0  0  0  0  0  0
    7.5646   -5.6137   -5.5130 C   0  0  0  0  0  0  0  0  0  0  0  0
    6.3986   -5.0298   -5.0636 C   0  0  0  0  0  0  0  0  0  0  0  0
    6.5478   -3.9037   -4.1284 C   0  0  0  0  0  0  0  0  0  0  0  0
    7.8034   -3.5319   -3.4364 C   0  0  0  0  0  0  0  0  0  0  0  0
    9.0468   -3.6159   -4.2159 N   0  0  0  0  0  0  0  0  0  0  0  0
   10.1306   -3.3947   -3.1178 C   0  0  0  0  0  0  0  0  0  0  0  0
   11.0981   -2.1968   -2.7313 C   0  0  0  0  0  0  0  0  0  0  0  0
   11.2789   -2.1234   -1.3082 C   0  0  0  0  0  0  0  0  0  0  0  0
   12.2136   -1.2931   -0.7074 C   0  0  0  0  0  0  0  0  0  0  0  0
   13.0375   -0.4944   -1.3892 N   0  0  0  0  0  0  0  0  0  0  0  0
   12.8620   -0.4848   -2.7265 C   0  0  0  0  0  0  0  0  0  0  0  0
   13.7416    0.4134   -3.3374 C   0  0  0  0  0  0  0  0  0  0  0  0
   13.6957    0.6295   -4.7075 C   0  0  0  0  0  0  0  0  0  0  0  0
   12.7574   -0.0247   -5.4491 C   0  0  0  0  0  0  0  0  0  0  0  0
   11.8704   -0.9827   -4.8523 C   0  0  0  0  0  0  0  0  0  0  0  0
   11.9196   -1.2601   -3.4638 C   0  0  0  0  0  0  0  0  0  0  0  0
    8.9879   -5.0135   -4.9920 C   0  0  0  0  0  0  0  0  0  0  0  0
    1.3259   -2.2363   -5.1184 C   0  0  0  0  0  0  0  0  0  0  0  0
    0.6616   -1.1561   -4.5043 C   0  0  0  0  0  0  0  0  0  0  0  0
    0.3872    1.8342   -0.8285 H   0  0  0  0  0  0  0  0  0  0  0  0
    1.9776    1.2532   -1.3188 H   0  0  0  0  0  0  0  0  0  0  0  0
    0.8430    0.1633   -0.4974 H   0  0  0  0  0  0  0  0  0  0  0  0
   -1.6725    1.0542   -1.9031 H   0  0  0  0  0  0  0  0  0  0  0  0
   -1.2738   -0.6639   -1.7533 H   0  0  0  0  0  0  0  0  0  0  0  0
   -1.6738    0.0223   -3.3326 H   0  0  0  0  0  0  0  0  0  0  0  0
   -0.0146    2.6487   -3.1185 H   0  0  0  0  0  0  0  0  0  0  0  0
    0.0169    1.5894   -4.5266 H   0  0  0  0  0  0  0  0  0  0  0  0
    1.5274    2.0149   -3.7149 H   0  0  0  0  0  0  0  0  0  0  0  0
    2.4863   -0.9973   -1.6452 H   0  0  0  0  0  0  0  0  0  0  0  0
    3.6181   -2.8213   -2.6906 H   0  0  0  0  0  0  0  0  0  0  0  0
    2.9212   -4.0306   -6.1400 H   0  0  0  0  0  0  0  0  0  0  0  0
    3.7859   -6.9487   -6.2844 H   0  0  0  0  0  0  0  0  0  0  0  0
    5.7621   -8.0580   -7.2805 H   0  0  0  0  0  0  0  0  0  0  0  0
    8.0891   -7.3562   -6.7407 H   0  0  0  0  0  0  0  0  0  0  0  0
    6.2340   -3.0660   -4.7398 H   0  0  0  0  0  0  0  0  0  0  0  0
    5.9770   -4.2855   -3.2840 H   0  0  0  0  0  0  0  0  0  0  0  0
    7.8555   -4.1373   -2.5111 H   0  0  0  0  0  0  0  0  0  0  0  0
    7.6459   -2.4965   -3.0988 H   0  0  0  0  0  0  0  0  0  0  0  0
   10.5515   -4.3486   -2.7799 H   0  0  0  0  0  0  0  0  0  0  0  0
    9.4793   -3.1489   -2.2628 H   0  0  0  0  0  0  0  0  0  0  0  0
   10.6842   -2.7327   -0.6323 H   0  0  0  0  0  0  0  0  0  0  0  0
   12.3374   -1.2536    0.3700 H   0  0  0  0  0  0  0  0  0  0  0  0
   14.4604    0.9416   -2.7353 H   0  0  0  0  0  0  0  0  0  0  0  0
   14.3989    1.3411   -5.1467 H   0  0  0  0  0  0  0  0  0  0  0  0
   12.6887    0.1757   -6.5105 H   0  0  0  0  0  0  0  0  0  0  0  0
   11.1284   -1.4573   -5.4772 H   0  0  0  0  0  0  0  0  0  0  0  0
    9.4772   -5.7956   -4.3969 H   0  0  0  0  0  0  0  0  0  0  0  0
    9.5609   -4.8311   -5.9075 H   0  0  0  0  0  0  0  0  0  0  0  0
    0.9848   -2.5634   -6.0963 H   0  0  0  0  0  0  0  0  0  0  0  0
   -0.1705   -0.6973   -5.0350 H   0  0  0  0  0  0  0  0  0  0  0  0
  1  2  1  0  0  0  0
  1 35  1  0  0  0  0
  1 36  1  0  0  0  0
  1 37  1  0  0  0  0
  2  3  1  0  0  0  0
  2  4  1  0  0  0  0
  2  5  1  0  0  0  0
  3 38  1  0  0  0  0
  3 39  1  0  0  0  0
  3 40  1  0  0  0  0
  4 41  1  0  0  0  0
  4 42  1  0  0  0  0
  4 43  1  0  0  0  0
  5  6  1  0  0  0  0
  5 34  2  0  0  0  0
  6  7  2  0  0  0  0
  6 44  1  0  0  0  0
  7  8  1  0  0  0  0
  7 45  1  0  0  0  0
  8  9  1  0  0  0  0
  8 33  2  0  0  0  0
  9 10  1  0  0  0  0
  9 46  1  0  0  0  0
 10 11  2  0  0  0  0
 10 12  1  0  0  0  0
 12 13  1  0  0  0  0
 12 17  2  0  0  0  0
 13 14  2  0  0  0  0
 13 47  1  0  0  0  0
 14 15  1  0  0  0  0
 14 48  1  0  0  0  0
 15 16  2  0  0  0  0
 15 49  1  0  0  0  0
 16 17  1  0  0  0  0
 16 32  1  0  0  0  0
 17 18  1  0  0  0  0
 18 19  1  0  0  0  0
 18 50  1  0  0  0  0
 18 51  1  0  0  0  0
 19 20  1  0  0  0  0
 19 52  1  0  0  0  0
 19 53  1  0  0  0  0
 20 21  1  0  0  0  0
 20 32  1  0  0  0  0
 21 22  1  0  0  0  0
 21 54  1  0  0  0  0
 21 55  1  0  0  0  0
 22 23  1  0  0  0  0
 22 31  2  0  0  0  0
 23 24  2  0  0  0  0
 23 56  1  0  0  0  0
 24 25  1  0  0  0  0
 24 57  1  0  0  0  0
 25 26  2  0  0  0  0
 26 27  1  0  0  0  0
 26 31  1  0  0  0  0
 27 28  2  0  0  0  0
 27 58  1  0  0  0  0
 28 29  1  0  0  0  0
 28 59  1  0  0  0  0
 29 30  2  0  0  0  0
 29 60  1  0  0  0  0
 30 31  1  0  0  0  0
 30 61  1  0  0  0  0
 32 62  1  0  0  0  0
 32 63  1  0  0  0  0
 33 34  1  0  0  0  0
 33 64  1  0  0  0  0
 34 65  1  0  0  0  0
M  END
$$$$
