CHEMBL230413
 OpenBabel04072215363D

 58 60  0  0  0  0  0  0  0  0999 V2000
    6.2116   -0.3775   -0.7804 C   0  0  0  0  0  0  0  0  0  0  0  0
    5.1863    0.6385   -0.3065 C   0  0  0  0  0  0  0  0  0  0  0  0
    5.1565    0.6099    1.1243 O   0  0  0  0  0  0  0  0  0  0  0  0
    4.3646   -0.3559    1.6788 C   0  0  0  0  0  0  0  0  0  0  0  0
    3.4817   -0.9485    1.0720 O   0  0  0  0  0  0  0  0  0  0  0  0
    4.7845   -0.6774    3.0472 C   0  0  0  0  0  0  0  0  0  0  0  0
    5.8168   -0.0286    3.6901 C   0  0  0  0  0  0  0  0  0  0  0  0
    6.0438   -0.6293    4.8819 N   0  0  0  0  0  0  0  0  0  0  0  0
    7.0276   -0.2563    5.7097 N   0  0  0  0  0  0  0  0  0  0  0  0
    7.1380   -0.9980    6.7576 C   0  0  0  0  0  0  0  0  0  0  0  0
    6.3669   -2.0795    7.0628 N   0  0  0  0  0  0  0  0  0  0  0  0
    5.3780   -2.4304    6.2857 C   0  0  0  0  0  0  0  0  0  0  0  0
    4.5755   -3.4830    6.6720 N   0  0  0  0  0  0  0  0  0  0  0  0
    4.9705   -4.5017    7.5710 C   0  0  0  0  0  0  0  0  0  0  0  0
    6.2702   -5.0281    7.5056 C   0  0  0  0  0  0  0  0  0  0  0  0
    6.7293   -6.0279    8.3831 C   0  0  0  0  0  0  0  0  0  0  0  0
    8.1554   -6.4644    8.2273 C   0  0  0  0  0  0  0  0  0  0  0  0
    8.4825   -7.6332    8.3911 O   0  0  0  0  0  0  0  0  0  0  0  0
    9.0157   -5.4508    7.8484 N   0  0  0  0  0  0  0  0  0  0  0  0
   10.3877   -5.7731    7.7760 O   0  0  0  0  0  0  0  0  0  0  0  0
   10.6931   -6.0805    6.4165 C   0  0  0  0  0  0  0  0  0  0  0  0
    5.8418   -6.5776    9.3193 C   0  0  0  0  0  0  0  0  0  0  0  0
    6.1694   -7.7005   10.2644 C   0  0  0  0  0  0  0  0  0  0  0  0
    4.5273   -6.0710    9.3660 C   0  0  0  0  0  0  0  0  0  0  0  0
    4.0854   -5.0383    8.5174 C   0  0  0  0  0  0  0  0  0  0  0  0
    2.6871   -4.5117    8.6867 C   0  0  0  0  0  0  0  0  0  0  0  0
    5.1689   -1.6700    5.0711 C   0  0  0  0  0  0  0  0  0  0  0  0
    4.3262   -1.7352    3.9454 C   0  0  0  0  0  0  0  0  0  0  0  0
    3.2177   -2.7003    3.5305 C   0  0  0  0  0  0  0  0  0  0  0  0
    3.7647   -3.8809    2.7244 C   0  0  0  0  0  0  0  0  0  0  0  0
    2.2618   -3.1920    4.6087 C   0  0  0  0  0  0  0  0  0  0  0  0
    6.3022   -0.3709   -1.8688 H   0  0  0  0  0  0  0  0  0  0  0  0
    5.9403   -1.3877   -0.4548 H   0  0  0  0  0  0  0  0  0  0  0  0
    7.1917   -0.1618   -0.3400 H   0  0  0  0  0  0  0  0  0  0  0  0
    4.1984    0.4523   -0.7410 H   0  0  0  0  0  0  0  0  0  0  0  0
    5.4937    1.6450   -0.6074 H   0  0  0  0  0  0  0  0  0  0  0  0
    6.4493    0.7876    3.3689 H   0  0  0  0  0  0  0  0  0  0  0  0
    7.9245   -0.7468    7.4896 H   0  0  0  0  0  0  0  0  0  0  0  0
    3.6041   -3.2113    6.7615 H   0  0  0  0  0  0  0  0  0  0  0  0
    6.9322   -4.6590    6.7245 H   0  0  0  0  0  0  0  0  0  0  0  0
    8.8082   -4.4863    8.0869 H   0  0  0  0  0  0  0  0  0  0  0  0
   11.7766   -6.1861    6.3180 H   0  0  0  0  0  0  0  0  0  0  0  0
   10.3604   -5.2762    5.7506 H   0  0  0  0  0  0  0  0  0  0  0  0
   10.2202   -7.0242    6.1281 H   0  0  0  0  0  0  0  0  0  0  0  0
    7.2362   -7.9040   10.3587 H   0  0  0  0  0  0  0  0  0  0  0  0
    5.6660   -8.6161    9.9341 H   0  0  0  0  0  0  0  0  0  0  0  0
    5.8134   -7.4540   11.2717 H   0  0  0  0  0  0  0  0  0  0  0  0
    3.8314   -6.4932   10.0927 H   0  0  0  0  0  0  0  0  0  0  0  0
    2.1140   -5.1078    9.4040 H   0  0  0  0  0  0  0  0  0  0  0  0
    2.1458   -4.5400    7.7362 H   0  0  0  0  0  0  0  0  0  0  0  0
    2.7220   -3.4823    9.0586 H   0  0  0  0  0  0  0  0  0  0  0  0
    2.5576   -2.1396    2.8579 H   0  0  0  0  0  0  0  0  0  0  0  0
    4.4761   -4.4704    3.3078 H   0  0  0  0  0  0  0  0  0  0  0  0
    4.2756   -3.5409    1.8155 H   0  0  0  0  0  0  0  0  0  0  0  0
    2.9526   -4.5473    2.4089 H   0  0  0  0  0  0  0  0  0  0  0  0
    2.6853   -4.0107    5.1907 H   0  0  0  0  0  0  0  0  0  0  0  0
    1.3601   -3.6098    4.1427 H   0  0  0  0  0  0  0  0  0  0  0  0
    1.9445   -2.3830    5.2729 H   0  0  0  0  0  0  0  0  0  0  0  0
  1  2  1  0  0  0  0
  1 32  1  0  0  0  0
  1 33  1  0  0  0  0
  1 34  1  0  0  0  0
  2  3  1  0  0  0  0
  2 35  1  0  0  0  0
  2 36  1  0  0  0  0
  3  4  1  0  0  0  0
  4  5  2  0  0  0  0
  4  6  1  0  0  0  0
  6  7  2  0  0  0  0
  6 28  1  0  0  0  0
  7  8  1  0  0  0  0
  7 37  1  0  0  0  0
  8  9  1  0  0  0  0
  8 27  1  0  0  0  0
  9 10  2  0  0  0  0
 10 11  1  0  0  0  0
 10 38  1  0  0  0  0
 11 12  2  0  0  0  0
 12 13  1  0  0  0  0
 12 27  1  0  0  0  0
 13 14  1  0  0  0  0
 13 39  1  0  0  0  0
 14 15  1  0  0  0  0
 14 25  2  0  0  0  0
 15 16  2  0  0  0  0
 15 40  1  0  0  0  0
 16 17  1  0  0  0  0
 16 22  1  0  0  0  0
 17 18  2  0  0  0  0
 17 19  1  0  0  0  0
 19 20  1  0  0  0  0
 19 41  1  0  0  0  0
 20 21  1  0  0  0  0
 21 42  1  0  0  0  0
 21 43  1  0  0  0  0
 21 44  1  0  0  0  0
 22 23  1  0  0  0  0
 22 24  2  0  0  0  0
 23 45  1  0  0  0  0
 23 46  1  0  0  0  0
 23 47  1  0  0  0  0
 24 25  1  0  0  0  0
 24 48  1  0  0  0  0
 25 26  1  0  0  0  0
 26 49  1  0  0  0  0
 26 50  1  0  0  0  0
 26 51  1  0  0  0  0
 27 28  2  0  0  0  0
 28 29  1  0  0  0  0
 29 30  1  0  0  0  0
 29 31  1  0  0  0  0
 29 52  1  0  0  0  0
 30 53  1  0  0  0  0
 30 54  1  0  0  0  0
 30 55  1  0  0  0  0
 31 56  1  0  0  0  0
 31 57  1  0  0  0  0
 31 58  1  0  0  0  0
M  END
$$$$
