CHEMBL3828439
 OpenBabel04072215373D

 62 66  0  0  1  0  0  0  0  0999 V2000
    1.9382    0.0348   -9.8349 C   0  0  0  0  0  0  0  0  0  0  0  0
    2.0551   -1.4501  -10.1960 C   0  0  3  0  0  0  0  0  0  0  0  0
    1.1716   -2.2498   -9.3956 O   0  0  0  0  0  0  0  0  0  0  0  0
    1.4700   -2.4548   -8.0761 C   0  0  0  0  0  0  0  0  0  0  0  0
    0.3749   -2.8117   -7.2828 C   0  0  0  0  0  0  0  0  0  0  0  0
    0.5054   -3.0709   -5.9122 C   0  0  0  0  0  0  0  0  0  0  0  0
    1.7922   -2.9892   -5.3760 C   0  0  0  0  0  0  0  0  0  0  0  0
    2.2696   -3.1990   -4.1098 N   0  0  0  0  0  0  0  0  0  0  0  0
    3.6068   -3.0810   -3.9926 N   0  0  0  0  0  0  0  0  0  0  0  0
    3.9947   -2.7278   -5.2285 C   0  0  0  0  0  0  0  0  0  0  0  0
    5.4283   -2.4808   -5.5558 C   0  0  0  0  0  0  0  0  0  0  0  0
    5.8986   -2.0300   -6.7018 N   0  0  0  0  0  0  0  0  0  0  0  0
    7.2613   -1.9750   -6.5401 C   0  0  0  0  0  0  0  0  0  0  0  0
    8.2543   -1.5608   -7.4392 C   0  0  0  0  0  0  0  0  0  0  0  0
    9.6013   -1.6421   -7.0545 C   0  0  0  0  0  0  0  0  0  0  0  0
   10.6429   -1.2818   -7.9506 N   0  0  0  0  0  0  0  0  0  0  0  0
   11.6018   -0.2766   -7.5120 C   0  0  0  0  0  0  0  0  0  0  0  0
   10.8011   -1.7761   -9.2482 C   0  0  0  0  0  0  0  0  0  0  0  0
   11.6986   -1.3548   -9.9912 O   0  0  0  0  0  0  0  0  0  0  0  0
    9.8996   -2.9245   -9.7296 C   0  0  0  0  0  0  0  0  0  0  0  0
    8.7118   -2.4125  -10.4422 N   0  0  0  0  0  0  0  0  0  0  0  0
    9.0649   -1.7376  -11.6910 C   0  0  0  0  0  0  0  0  0  0  0  0
    7.7740   -3.5028  -10.6921 C   0  0  0  0  0  0  0  0  0  0  0  0
    9.9346   -2.0891   -5.7672 C   0  0  0  0  0  0  0  0  0  0  0  0
    8.9574   -2.4953   -4.8496 C   0  0  0  0  0  0  0  0  0  0  0  0
    7.6325   -2.4205   -5.2767 C   0  0  0  0  0  0  0  0  0  0  0  0
    6.4429   -2.7152   -4.6648 N   0  0  0  0  0  0  0  0  0  0  0  0
    2.9063   -2.6553   -6.1358 C   0  0  0  0  0  0  0  0  0  0  0  0
    2.7451   -2.3775   -7.5093 C   0  0  0  0  0  0  0  0  0  0  0  0
    1.7263   -1.7186  -11.6614 C   0  0  0  0  0  0  0  0  0  0  0  0
    2.7158   -2.1735  -12.5556 C   0  0  0  0  0  0  0  0  0  0  0  0
    4.3667   -2.4037  -12.1126 Cl  0  0  0  0  0  0  0  0  0  0  0  0
    2.3865   -2.4457  -13.8826 C   0  0  0  0  0  0  0  0  0  0  0  0
    1.1526   -2.2884  -14.4013 N   0  0  0  0  0  0  0  0  0  0  0  0
    0.2096   -1.8399  -13.5439 C   0  0  0  0  0  0  0  0  0  0  0  0
    0.4356   -1.5490  -12.1976 C   0  0  0  0  0  0  0  0  0  0  0  0
   -0.9204   -0.9896  -11.2878 Cl  0  0  0  0  0  0  0  0  0  0  0  0
    2.4663    0.2389   -8.8966 H   0  0  0  0  0  0  0  0  0  0  0  0
    0.9023    0.3387   -9.6593 H   0  0  0  0  0  0  0  0  0  0  0  0
    2.3713    0.6781  -10.6071 H   0  0  0  0  0  0  0  0  0  0  0  0
    3.0832   -1.7599  -10.0110 H   0  0  0  0  0  0  0  0  0  0  0  0
   -0.6089   -2.8861   -7.7436 H   0  0  0  0  0  0  0  0  0  0  0  0
   -0.3566   -3.3371   -5.3099 H   0  0  0  0  0  0  0  0  0  0  0  0
    1.7337   -3.4454   -3.2854 H   0  0  0  0  0  0  0  0  0  0  0  0
    7.9545   -1.1692   -8.4041 H   0  0  0  0  0  0  0  0  0  0  0  0
   11.4346    0.0354   -6.4778 H   0  0  0  0  0  0  0  0  0  0  0  0
   11.5048    0.5998   -8.1610 H   0  0  0  0  0  0  0  0  0  0  0  0
   12.6155   -0.6753   -7.6171 H   0  0  0  0  0  0  0  0  0  0  0  0
    9.6113   -3.5390   -8.8690 H   0  0  0  0  0  0  0  0  0  0  0  0
   10.4972   -3.5826  -10.3742 H   0  0  0  0  0  0  0  0  0  0  0  0
    9.6927   -0.8596  -11.5090 H   0  0  0  0  0  0  0  0  0  0  0  0
    8.1627   -1.3582  -12.1844 H   0  0  0  0  0  0  0  0  0  0  0  0
    9.5864   -2.4030  -12.3878 H   0  0  0  0  0  0  0  0  0  0  0  0
    7.4594   -3.9703   -9.7522 H   0  0  0  0  0  0  0  0  0  0  0  0
    8.1948   -4.2762  -11.3433 H   0  0  0  0  0  0  0  0  0  0  0  0
    6.8682   -3.1156  -11.1597 H   0  0  0  0  0  0  0  0  0  0  0  0
   10.9806   -2.1667   -5.4761 H   0  0  0  0  0  0  0  0  0  0  0  0
    9.2267   -2.8624   -3.8659 H   0  0  0  0  0  0  0  0  0  0  0  0
    6.3012   -3.0683   -3.7297 H   0  0  0  0  0  0  0  0  0  0  0  0
    3.6322   -2.1427   -8.0847 H   0  0  0  0  0  0  0  0  0  0  0  0
    3.1328   -2.8097  -14.5849 H   0  0  0  0  0  0  0  0  0  0  0  0
   -0.7761   -1.7148  -13.9853 H   0  0  0  0  0  0  0  0  0  0  0  0
  1  2  1  0  0  0  0
  1 38  1  0  0  0  0
  1 39  1  0  0  0  0
  1 40  1  0  0  0  0
  2  3  1  0  0  0  0
  2 30  1  0  0  0  0
  2 41  1  0  0  0  0
  3  4  1  0  0  0  0
  4  5  1  0  0  0  0
  4 29  2  0  0  0  0
  5  6  2  0  0  0  0
  5 42  1  0  0  0  0
  6  7  1  0  0  0  0
  6 43  1  0  0  0  0
  7  8  1  0  0  0  0
  7 28  2  0  0  0  0
  8  9  1  0  0  0  0
  8 44  1  0  0  0  0
  9 10  2  0  0  0  0
 10 11  1  0  0  0  0
 10 28  1  0  0  0  0
 11 12  2  0  0  0  0
 11 27  1  0  0  0  0
 12 13  1  0  0  0  0
 13 14  1  0  0  0  0
 13 26  2  0  0  0  0
 14 15  2  0  0  0  0
 14 45  1  0  0  0  0
 15 16  1  0  0  0  0
 15 24  1  0  0  0  0
 16 17  1  0  0  0  0
 16 18  1  0  0  0  0
 17 46  1  0  0  0  0
 17 47  1  0  0  0  0
 17 48  1  0  0  0  0
 18 19  2  0  0  0  0
 18 20  1  0  0  0  0
 20 21  1  0  0  0  0
 20 49  1  0  0  0  0
 20 50  1  0  0  0  0
 21 22  1  0  0  0  0
 21 23  1  0  0  0  0
 22 51  1  0  0  0  0
 22 52  1  0  0  0  0
 22 53  1  0  0  0  0
 23 54  1  0  0  0  0
 23 55  1  0  0  0  0
 23 56  1  0  0  0  0
 24 25  2  0  0  0  0
 24 57  1  0  0  0  0
 25 26  1  0  0  0  0
 25 58  1  0  0  0  0
 26 27  1  0  0  0  0
 27 59  1  0  0  0  0
 28 29  1  0  0  0  0
 29 60  1  0  0  0  0
 30 31  1  0  0  0  0
 30 36  2  0  0  0  0
 31 32  1  0  0  0  0
 31 33  2  0  0  0  0
 33 34  1  0  0  0  0
 33 61  1  0  0  0  0
 34 35  2  0  0  0  0
 35 36  1  0  0  0  0
 35 62  1  0  0  0  0
 36 37  1  0  0  0  0
M  END
$$$$
