CHEMBL2429872
 OpenBabel04072215363D

 77 80  0  0  0  0  0  0  0  0999 V2000
    4.8023   -1.2849   -2.1390 C   0  0  0  0  0  0  0  0  0  0  0  0
    4.3720   -1.4073   -0.6806 C   0  0  0  0  0  0  0  0  0  0  0  0
    4.7295   -0.2577    0.1712 N   0  0  0  0  0  0  0  0  0  0  0  0
    4.2598    1.0402   -0.3470 C   0  0  0  0  0  0  0  0  0  0  0  0
    2.7471    1.2513   -0.3751 C   0  0  0  0  0  0  0  0  0  0  0  0
    4.2763   -0.4561    1.5686 C   0  0  0  0  0  0  0  0  0  0  0  0
    4.8617   -1.6897    2.2645 C   0  0  0  0  0  0  0  0  0  0  0  0
    6.3057   -1.6725    2.3066 N   0  0  0  0  0  0  0  0  0  0  0  0
    6.9586   -2.7128    2.9189 C   0  0  0  0  0  0  0  0  0  0  0  0
    6.3440   -3.6277    3.4639 O   0  0  0  0  0  0  0  0  0  0  0  0
    8.4175   -2.7086    2.8199 C   0  0  0  0  0  0  0  0  0  0  0  0
    9.3139   -1.6455    2.8208 C   0  0  0  0  0  0  0  0  0  0  0  0
    9.1092   -0.1762    2.9162 C   0  0  0  0  0  0  0  0  0  0  0  0
   10.5966   -2.1706    2.7862 N   0  0  0  0  0  0  0  0  0  0  0  0
   10.5440   -3.5376    2.7583 C   0  0  0  0  0  0  0  0  0  0  0  0
    9.2099   -3.8915    2.7700 C   0  0  0  0  0  0  0  0  0  0  0  0
    8.6879   -5.2831    2.7525 C   0  0  0  0  0  0  0  0  0  0  0  0
    9.7448   -6.3580    2.6169 C   0  0  0  0  0  0  0  0  0  0  0  0
   11.2106   -5.9361    2.7058 C   0  0  0  0  0  0  0  0  0  0  0  0
   11.6319   -4.4604    2.7208 C   0  0  0  0  0  0  0  0  0  0  0  0
   12.9597   -4.1592    2.6866 C   0  0  0  0  0  0  0  0  0  0  0  0
   13.6661   -2.8136    2.6994 C   0  0  0  0  0  0  0  0  0  0  0  0
   13.1918   -1.7036    2.8506 O   0  0  0  0  0  0  0  0  0  0  0  0
   15.0241   -3.0989    2.5094 N   0  0  0  0  0  0  0  0  0  0  0  0
   15.2557   -4.4673    2.3988 C   0  0  0  0  0  0  0  0  0  0  0  0
   16.4665   -5.1170    2.2031 C   0  0  0  0  0  0  0  0  0  0  0  0
   16.4781   -6.5272    2.1650 C   0  0  0  0  0  0  0  0  0  0  0  0
   15.2812   -7.2403    2.3198 C   0  0  0  0  0  0  0  0  0  0  0  0
   15.2062   -9.0185    2.5274 S   0  0  0  0  0  0  0  0  0  0  0  0
   16.3874   -9.3948    3.2860 O   0  0  0  0  0  0  0  0  0  0  0  0
   13.8794   -9.3092    3.0304 O   0  0  0  0  0  0  0  0  0  0  0  0
   15.3439   -9.7602    0.9503 N   0  0  0  0  0  0  0  0  0  0  0  0
   16.6417   -9.3923    0.2763 C   0  0  0  0  0  0  0  0  0  0  0  0
   16.8189   -9.9544   -1.1272 C   0  0  0  0  0  0  0  0  0  0  0  0
   15.2101  -11.2711    1.0574 C   0  0  0  0  0  0  0  0  0  0  0  0
   13.8386  -11.7746    1.4800 C   0  0  0  0  0  0  0  0  0  0  0  0
   14.0959   -6.5449    2.5571 C   0  0  0  0  0  0  0  0  0  0  0  0
   14.0598   -5.1599    2.5484 C   0  0  0  0  0  0  0  0  0  0  0  0
    4.7111   -2.2588   -2.6326 H   0  0  0  0  0  0  0  0  0  0  0  0
    5.8470   -0.9681   -2.2210 H   0  0  0  0  0  0  0  0  0  0  0  0
    4.1729   -0.5788   -2.6886 H   0  0  0  0  0  0  0  0  0  0  0  0
    4.8822   -2.2999   -0.3029 H   0  0  0  0  0  0  0  0  0  0  0  0
    3.2964   -1.6152   -0.6372 H   0  0  0  0  0  0  0  0  0  0  0  0
    4.6638    1.2061   -1.3516 H   0  0  0  0  0  0  0  0  0  0  0  0
    4.7067    1.8394    0.2591 H   0  0  0  0  0  0  0  0  0  0  0  0
    2.2177    0.4059   -0.8232 H   0  0  0  0  0  0  0  0  0  0  0  0
    2.5066    2.1409   -0.9661 H   0  0  0  0  0  0  0  0  0  0  0  0
    2.3509    1.4121    0.6331 H   0  0  0  0  0  0  0  0  0  0  0  0
    3.1834   -0.5287    1.6184 H   0  0  0  0  0  0  0  0  0  0  0  0
    4.5737    0.4209    2.1585 H   0  0  0  0  0  0  0  0  0  0  0  0
    4.5367   -2.6186    1.7816 H   0  0  0  0  0  0  0  0  0  0  0  0
    4.4969   -1.7367    3.2974 H   0  0  0  0  0  0  0  0  0  0  0  0
    6.8025   -1.1515    1.5941 H   0  0  0  0  0  0  0  0  0  0  0  0
    8.0580    0.0850    3.0629 H   0  0  0  0  0  0  0  0  0  0  0  0
    9.4545    0.3171    2.0024 H   0  0  0  0  0  0  0  0  0  0  0  0
    9.6636    0.2345    3.7661 H   0  0  0  0  0  0  0  0  0  0  0  0
   11.4499   -1.6183    2.8135 H   0  0  0  0  0  0  0  0  0  0  0  0
    7.9821   -5.3895    1.9187 H   0  0  0  0  0  0  0  0  0  0  0  0
    8.1216   -5.4685    3.6724 H   0  0  0  0  0  0  0  0  0  0  0  0
    9.5948   -6.8879    1.6666 H   0  0  0  0  0  0  0  0  0  0  0  0
    9.5637   -7.1296    3.3786 H   0  0  0  0  0  0  0  0  0  0  0  0
   11.6693   -6.4006    1.8256 H   0  0  0  0  0  0  0  0  0  0  0  0
   11.5863   -6.3837    3.6348 H   0  0  0  0  0  0  0  0  0  0  0  0
   15.7308   -2.3775    2.4941 H   0  0  0  0  0  0  0  0  0  0  0  0
   17.3956   -4.5621    2.1022 H   0  0  0  0  0  0  0  0  0  0  0  0
   17.4194   -7.0574    2.0474 H   0  0  0  0  0  0  0  0  0  0  0  0
   17.4830   -9.7101    0.9013 H   0  0  0  0  0  0  0  0  0  0  0  0
   16.6776   -8.3062    0.1650 H   0  0  0  0  0  0  0  0  0  0  0  0
   16.8323  -11.0464   -1.1549 H   0  0  0  0  0  0  0  0  0  0  0  0
   17.7852   -9.6268   -1.5279 H   0  0  0  0  0  0  0  0  0  0  0  0
   16.0343   -9.5994   -1.8014 H   0  0  0  0  0  0  0  0  0  0  0  0
   15.9837  -11.6563    1.7309 H   0  0  0  0  0  0  0  0  0  0  0  0
   15.3866  -11.7211    0.0780 H   0  0  0  0  0  0  0  0  0  0  0  0
   13.5842  -11.5177    2.5089 H   0  0  0  0  0  0  0  0  0  0  0  0
   13.8258  -12.8701    1.4403 H   0  0  0  0  0  0  0  0  0  0  0  0
   13.0514  -11.4020    0.8182 H   0  0  0  0  0  0  0  0  0  0  0  0
   13.2306   -7.1393    2.7991 H   0  0  0  0  0  0  0  0  0  0  0  0
  1  2  1  0  0  0  0
  1 39  1  0  0  0  0
  1 40  1  0  0  0  0
  1 41  1  0  0  0  0
  2  3  1  0  0  0  0
  2 42  1  0  0  0  0
  2 43  1  0  0  0  0
  3  4  1  0  0  0  0
  3  6  1  0  0  0  0
  4  5  1  0  0  0  0
  4 44  1  0  0  0  0
  4 45  1  0  0  0  0
  5 46  1  0  0  0  0
  5 47  1  0  0  0  0
  5 48  1  0  0  0  0
  6  7  1  0  0  0  0
  6 49  1  0  0  0  0
  6 50  1  0  0  0  0
  7  8  1  0  0  0  0
  7 51  1  0  0  0  0
  7 52  1  0  0  0  0
  8  9  1  0  0  0  0
  8 53  1  0  0  0  0
  9 10  2  0  0  0  0
  9 11  1  0  0  0  0
 11 12  2  0  0  0  0
 11 16  1  0  0  0  0
 12 13  1  0  0  0  0
 12 14  1  0  0  0  0
 13 54  1  0  0  0  0
 13 55  1  0  0  0  0
 13 56  1  0  0  0  0
 14 15  1  0  0  0  0
 14 57  1  0  0  0  0
 15 16  2  0  0  0  0
 15 20  1  0  0  0  0
 16 17  1  0  0  0  0
 17 18  1  0  0  0  0
 17 58  1  0  0  0  0
 17 59  1  0  0  0  0
 18 19  1  0  0  0  0
 18 60  1  0  0  0  0
 18 61  1  0  0  0  0
 19 20  1  0  0  0  0
 19 62  1  0  0  0  0
 19 63  1  0  0  0  0
 20 21  2  0  0  0  0
 21 22  1  0  0  0  0
 21 38  1  0  0  0  0
 22 23  2  0  0  0  0
 22 24  1  0  0  0  0
 24 25  1  0  0  0  0
 24 64  1  0  0  0  0
 25 26  1  0  0  0  0
 25 38  2  0  0  0  0
 26 27  2  0  0  0  0
 26 65  1  0  0  0  0
 27 28  1  0  0  0  0
 27 66  1  0  0  0  0
 28 29  1  0  0  0  0
 28 37  2  0  0  0  0
 29 30  2  0  0  0  0
 29 31  2  0  0  0  0
 29 32  1  0  0  0  0
 32 33  1  0  0  0  0
 32 35  1  0  0  0  0
 33 34  1  0  0  0  0
 33 67  1  0  0  0  0
 33 68  1  0  0  0  0
 34 69  1  0  0  0  0
 34 70  1  0  0  0  0
 34 71  1  0  0  0  0
 35 36  1  0  0  0  0
 35 72  1  0  0  0  0
 35 73  1  0  0  0  0
 36 74  1  0  0  0  0
 36 75  1  0  0  0  0
 36 76  1  0  0  0  0
 37 38  1  0  0  0  0
 37 77  1  0  0  0  0
M  END
$$$$
