CHEMBL479079
 OpenBabel04072215383D

 52 55  0  0  0  0  0  0  0  0999 V2000
    2.1606    0.5205    0.8207 C   0  0  0  0  0  0  0  0  0  0  0  0
    3.5707    0.6944    0.7292 O   0  0  0  0  0  0  0  0  0  0  0  0
    4.0611    1.3114   -0.3939 C   0  0  0  0  0  0  0  0  0  0  0  0
    3.2594    2.1201   -1.2056 C   0  0  0  0  0  0  0  0  0  0  0  0
    3.7756    2.8292   -2.2992 C   0  0  0  0  0  0  0  0  0  0  0  0
    2.9568    3.6731   -3.0813 N   0  0  0  0  0  0  0  0  0  0  0  0
    1.8284    4.3466   -2.6038 C   0  0  0  0  0  0  0  0  0  0  0  0
    0.8140    4.5597   -3.4495 N   0  0  0  0  0  0  0  0  0  0  0  0
   -0.2629    5.1837   -2.9269 C   0  0  0  0  0  0  0  0  0  0  0  0
   -0.3645    5.6015   -1.6128 C   0  0  0  0  0  0  0  0  0  0  0  0
    0.7242    5.3564   -0.8183 C   0  0  0  0  0  0  0  0  0  0  0  0
    0.7405    5.8086    0.5211 N   0  0  0  0  0  0  0  0  0  0  0  0
    1.9021    6.0419    1.2975 C   0  0  0  0  0  0  0  0  0  0  0  0
    1.8731    6.0263    2.7016 C   0  0  0  0  0  0  0  0  0  0  0  0
    2.9875    6.4475    3.4715 C   0  0  0  0  0  0  0  0  0  0  0  0
    4.1947    6.7606    2.8127 C   0  0  0  0  0  0  0  0  0  0  0  0
    5.4482    7.4103    3.0298 C   0  0  0  0  0  0  0  0  0  0  0  0
    5.7665    8.6175    3.8295 C   0  0  0  0  0  0  0  0  0  0  0  0
    6.3327    7.1247    2.0603 N   0  0  0  0  0  0  0  0  0  0  0  0
    5.5395    6.6702    1.0866 N   0  0  0  0  0  0  0  0  0  0  0  0
    4.2392    6.5783    1.4339 C   0  0  0  0  0  0  0  0  0  0  0  0
    3.1051    6.3702    0.6603 C   0  0  0  0  0  0  0  0  0  0  0  0
    1.8033    4.7371   -1.3215 N   0  0  0  0  0  0  0  0  0  0  0  0
    5.1198    2.6625   -2.6270 C   0  0  0  0  0  0  0  0  0  0  0  0
    5.9545    1.8858   -1.8121 C   0  0  0  0  0  0  0  0  0  0  0  0
    7.2949    1.7132   -2.0736 O   0  0  0  0  0  0  0  0  0  0  0  0
    7.9524    2.8298   -2.6606 C   0  0  0  0  0  0  0  0  0  0  0  0
    5.4301    1.1930   -0.6973 C   0  0  0  0  0  0  0  0  0  0  0  0
    6.3549    0.4947    0.0427 O   0  0  0  0  0  0  0  0  0  0  0  0
    5.9010   -0.6741    0.7102 C   0  0  0  0  0  0  0  0  0  0  0  0
    1.9523   -0.0511    1.7296 H   0  0  0  0  0  0  0  0  0  0  0  0
    1.7832   -0.0544   -0.0325 H   0  0  0  0  0  0  0  0  0  0  0  0
    1.6384    1.4781    0.9166 H   0  0  0  0  0  0  0  0  0  0  0  0
    2.2071    2.2452   -0.9776 H   0  0  0  0  0  0  0  0  0  0  0  0
    2.7349    3.2978   -3.9950 H   0  0  0  0  0  0  0  0  0  0  0  0
   -1.0708    5.3566   -3.6326 H   0  0  0  0  0  0  0  0  0  0  0  0
   -1.2478    6.1150   -1.2543 H   0  0  0  0  0  0  0  0  0  0  0  0
   -0.0526    5.4733    1.0506 H   0  0  0  0  0  0  0  0  0  0  0  0
    0.9759    5.6981    3.2223 H   0  0  0  0  0  0  0  0  0  0  0  0
    2.9227    6.4633    4.5561 H   0  0  0  0  0  0  0  0  0  0  0  0
    5.7194    9.4665    3.1271 H   0  0  0  0  0  0  0  0  0  0  0  0
    6.7906    8.5940    4.2139 H   0  0  0  0  0  0  0  0  0  0  0  0
    5.0586    8.8233    4.6306 H   0  0  0  0  0  0  0  0  0  0  0  0
    5.9437    6.4895    0.1957 H   0  0  0  0  0  0  0  0  0  0  0  0
    3.1726    6.4626   -0.4151 H   0  0  0  0  0  0  0  0  0  0  0  0
    5.5114    3.1741   -3.4995 H   0  0  0  0  0  0  0  0  0  0  0  0
    9.0303    2.6893   -2.5342 H   0  0  0  0  0  0  0  0  0  0  0  0
    7.6786    3.7697   -2.1689 H   0  0  0  0  0  0  0  0  0  0  0  0
    7.7480    2.8757   -3.7350 H   0  0  0  0  0  0  0  0  0  0  0  0
    6.7801   -1.2824    0.9438 H   0  0  0  0  0  0  0  0  0  0  0  0
    5.2397   -1.2785    0.0794 H   0  0  0  0  0  0  0  0  0  0  0  0
    5.4301   -0.4228    1.6651 H   0  0  0  0  0  0  0  0  0  0  0  0
  1  2  1  0  0  0  0
  1 31  1  0  0  0  0
  1 32  1  0  0  0  0
  1 33  1  0  0  0  0
  2  3  1  0  0  0  0
  3  4  1  0  0  0  0
  3 28  2  0  0  0  0
  4  5  2  0  0  0  0
  4 34  1  0  0  0  0
  5  6  1  0  0  0  0
  5 24  1  0  0  0  0
  6  7  1  0  0  0  0
  6 35  1  0  0  0  0
  7  8  1  0  0  0  0
  7 23  2  0  0  0  0
  8  9  2  0  0  0  0
  9 10  1  0  0  0  0
  9 36  1  0  0  0  0
 10 11  2  0  0  0  0
 10 37  1  0  0  0  0
 11 12  1  0  0  0  0
 11 23  1  0  0  0  0
 12 13  1  0  0  0  0
 12 38  1  0  0  0  0
 13 14  1  0  0  0  0
 13 22  2  0  0  0  0
 14 15  2  0  0  0  0
 14 39  1  0  0  0  0
 15 16  1  0  0  0  0
 15 40  1  0  0  0  0
 16 17  1  0  0  0  0
 16 21  2  0  0  0  0
 17 18  1  0  0  0  0
 17 19  2  0  0  0  0
 18 41  1  0  0  0  0
 18 42  1  0  0  0  0
 18 43  1  0  0  0  0
 19 20  1  0  0  0  0
 20 21  1  0  0  0  0
 20 44  1  0  0  0  0
 21 22  1  0  0  0  0
 22 45  1  0  0  0  0
 24 25  2  0  0  0  0
 24 46  1  0  0  0  0
 25 26  1  0  0  0  0
 25 28  1  0  0  0  0
 26 27  1  0  0  0  0
 27 47  1  0  0  0  0
 27 48  1  0  0  0  0
 27 49  1  0  0  0  0
 28 29  1  0  0  0  0
 29 30  1  0  0  0  0
 30 50  1  0  0  0  0
 30 51  1  0  0  0  0
 30 52  1  0  0  0  0
M  END
$$$$
