CHEMBL1240553
 OpenBabel04072215363D

 46 49  0  0  0  0  0  0  0  0999 V2000
    3.8692   -0.9973    0.7492 C   0  0  0  0  0  0  0  0  0  0  0  0
    3.3369    0.3206    0.8335 O   0  0  0  0  0  0  0  0  0  0  0  0
    3.8012    1.2187   -0.0904 C   0  0  0  0  0  0  0  0  0  0  0  0
    4.2911    0.8120   -1.3377 C   0  0  0  0  0  0  0  0  0  0  0  0
    4.7493    1.7540   -2.2553 C   0  0  0  0  0  0  0  0  0  0  0  0
    4.6403    3.1232   -2.0110 C   0  0  0  0  0  0  0  0  0  0  0  0
    5.1193    4.0927   -3.0026 C   0  0  0  0  0  0  0  0  0  0  0  0
    5.6660    5.2557   -2.5919 N   0  0  0  0  0  0  0  0  0  0  0  0
    6.1501    5.8180   -3.7158 N   0  0  0  0  0  0  0  0  0  0  0  0
    6.8811    7.0644   -3.6547 C   0  0  0  0  0  0  0  0  0  0  0  0
    8.1516    7.0057   -2.8040 C   0  0  0  0  0  0  0  0  0  0  0  0
    8.4678    8.4633   -2.4725 C   0  0  0  0  0  0  0  0  0  0  0  0
    7.1874    9.2570   -2.7337 C   0  0  0  0  0  0  0  0  0  0  0  0
    6.1067    8.2241   -3.0270 C   0  0  0  0  0  0  0  0  0  0  0  0
    5.9007    5.0846   -4.8434 C   0  0  0  0  0  0  0  0  0  0  0  0
    6.3023    5.3678   -6.0955 N   0  0  0  0  0  0  0  0  0  0  0  0
    5.9149    4.4244   -6.9614 C   0  0  0  0  0  0  0  0  0  0  0  0
    5.1802    3.3257   -6.7123 N   0  0  0  0  0  0  0  0  0  0  0  0
    4.7820    3.0813   -5.4455 C   0  0  0  0  0  0  0  0  0  0  0  0
    4.0425    1.9287   -5.2620 N   0  0  0  0  0  0  0  0  0  0  0  0
    5.1759    3.9709   -4.4327 C   0  0  0  0  0  0  0  0  0  0  0  0
    4.1328    3.5317   -0.7694 C   0  0  0  0  0  0  0  0  0  0  0  0
    3.7402    2.5990    0.1972 C   0  0  0  0  0  0  0  0  0  0  0  0
    3.2871    3.1397    1.3720 O   0  0  0  0  0  0  0  0  0  0  0  0
    3.7341    2.4756    2.5531 C   0  0  0  0  0  0  0  0  0  0  0  0
    3.5698   -1.5440    1.6480 H   0  0  0  0  0  0  0  0  0  0  0  0
    4.9651   -0.9826    0.7163 H   0  0  0  0  0  0  0  0  0  0  0  0
    3.4581   -1.5344   -0.1123 H   0  0  0  0  0  0  0  0  0  0  0  0
    4.3264   -0.2305   -1.6297 H   0  0  0  0  0  0  0  0  0  0  0  0
    5.2101    1.3809   -3.1681 H   0  0  0  0  0  0  0  0  0  0  0  0
    7.1583    7.3439   -4.6787 H   0  0  0  0  0  0  0  0  0  0  0  0
    8.9774    6.5187   -3.3327 H   0  0  0  0  0  0  0  0  0  0  0  0
    7.9892    6.4479   -1.8729 H   0  0  0  0  0  0  0  0  0  0  0  0
    9.2787    8.8394   -3.1061 H   0  0  0  0  0  0  0  0  0  0  0  0
    8.7945    8.5629   -1.4323 H   0  0  0  0  0  0  0  0  0  0  0  0
    7.3299    9.9098   -3.6029 H   0  0  0  0  0  0  0  0  0  0  0  0
    6.9196    9.8944   -1.8854 H   0  0  0  0  0  0  0  0  0  0  0  0
    5.3343    8.6163   -3.6956 H   0  0  0  0  0  0  0  0  0  0  0  0
    5.6177    7.9252   -2.0923 H   0  0  0  0  0  0  0  0  0  0  0  0
    6.2313    4.5608   -7.9914 H   0  0  0  0  0  0  0  0  0  0  0  0
    3.7989    1.4483   -6.1188 H   0  0  0  0  0  0  0  0  0  0  0  0
    3.4095    1.8639   -4.4769 H   0  0  0  0  0  0  0  0  0  0  0  0
    4.0605    4.5915   -0.5350 H   0  0  0  0  0  0  0  0  0  0  0  0
    3.7158    3.2013    3.3721 H   0  0  0  0  0  0  0  0  0  0  0  0
    4.7622    2.1077    2.4613 H   0  0  0  0  0  0  0  0  0  0  0  0
    3.0488    1.6676    2.8229 H   0  0  0  0  0  0  0  0  0  0  0  0
  1  2  1  0  0  0  0
  1 26  1  0  0  0  0
  1 27  1  0  0  0  0
  1 28  1  0  0  0  0
  2  3  1  0  0  0  0
  3  4  1  0  0  0  0
  3 23  2  0  0  0  0
  4  5  2  0  0  0  0
  4 29  1  0  0  0  0
  5  6  1  0  0  0  0
  5 30  1  0  0  0  0
  6  7  1  0  0  0  0
  6 22  2  0  0  0  0
  7  8  2  0  0  0  0
  7 21  1  0  0  0  0
  8  9  1  0  0  0  0
  9 10  1  0  0  0  0
  9 15  1  0  0  0  0
 10 11  1  0  0  0  0
 10 14  1  0  0  0  0
 10 31  1  0  0  0  0
 11 12  1  0  0  0  0
 11 32  1  0  0  0  0
 11 33  1  0  0  0  0
 12 13  1  0  0  0  0
 12 34  1  0  0  0  0
 12 35  1  0  0  0  0
 13 14  1  0  0  0  0
 13 36  1  0  0  0  0
 13 37  1  0  0  0  0
 14 38  1  0  0  0  0
 14 39  1  0  0  0  0
 15 16  1  0  0  0  0
 15 21  2  0  0  0  0
 16 17  2  0  0  0  0
 17 18  1  0  0  0  0
 17 40  1  0  0  0  0
 18 19  2  0  0  0  0
 19 20  1  0  0  0  0
 19 21  1  0  0  0  0
 20 41  1  0  0  0  0
 20 42  1  0  0  0  0
 22 23  1  0  0  0  0
 22 43  1  0  0  0  0
 23 24  1  0  0  0  0
 24 25  1  0  0  0  0
 25 44  1  0  0  0  0
 25 45  1  0  0  0  0
 25 46  1  0  0  0  0
M  END
$$$$
