CHEMBL273103
 OpenBabel04072215363D

 31 33  0  0  0  0  0  0  0  0999 V2000
    2.4832    0.1171    0.0521 C   0  0  0  0  0  0  0  0  0  0  0  0
    0.9834    0.0749    0.0626 C   0  0  0  0  0  0  0  0  0  0  0  0
    0.2401    1.0894    0.6764 C   0  0  0  0  0  0  0  0  0  0  0  0
   -1.1577    1.0639    0.6429 C   0  0  0  0  0  0  0  0  0  0  0  0
   -1.8325    0.0242   -0.0074 C   0  0  0  0  0  0  0  0  0  0  0  0
   -3.2983    0.0400   -0.1075 C   0  0  0  0  0  0  0  0  0  0  0  0
   -3.9433   -0.5851    0.9478 O   0  0  0  0  0  0  0  0  0  0  0  0
   -5.3172   -0.5991    0.9534 C   0  0  0  0  0  0  0  0  0  0  0  0
   -5.9488   -1.2138    2.0345 C   0  0  0  0  0  0  0  0  0  0  0  0
   -7.3454   -1.2538    2.0965 C   0  0  0  0  0  0  0  0  0  0  0  0
   -8.1114   -0.6829    1.0780 C   0  0  0  0  0  0  0  0  0  0  0  0
   -7.4830   -0.0692   -0.0052 C   0  0  0  0  0  0  0  0  0  0  0  0
   -6.0863   -0.0304   -0.0593 C   0  0  0  0  0  0  0  0  0  0  0  0
   -5.4004    0.6151   -1.1842 C   0  0  0  0  0  0  0  0  0  0  0  0
   -5.9925    1.1345   -2.1244 O   0  0  0  0  0  0  0  0  0  0  0  0
   -3.9199    0.6263   -1.1461 C   0  0  0  0  0  0  0  0  0  0  0  0
   -3.2646    1.2486   -2.1925 O   0  0  0  0  0  0  0  0  0  0  0  0
   -1.0909   -1.0032   -0.6016 C   0  0  0  0  0  0  0  0  0  0  0  0
    0.3070   -0.9771   -0.5672 C   0  0  0  0  0  0  0  0  0  0  0  0
    2.8642    0.9916    0.5899 H   0  0  0  0  0  0  0  0  0  0  0  0
    2.8502    0.1735   -0.9782 H   0  0  0  0  0  0  0  0  0  0  0  0
    2.8927   -0.7772    0.5321 H   0  0  0  0  0  0  0  0  0  0  0  0
    0.7425    1.9174    1.1712 H   0  0  0  0  0  0  0  0  0  0  0  0
   -1.7147    1.8727    1.1093 H   0  0  0  0  0  0  0  0  0  0  0  0
   -5.3576   -1.6601    2.8303 H   0  0  0  0  0  0  0  0  0  0  0  0
   -7.8370   -1.7300    2.9416 H   0  0  0  0  0  0  0  0  0  0  0  0
   -9.1979   -0.7151    1.1290 H   0  0  0  0  0  0  0  0  0  0  0  0
   -8.0776    0.3771   -0.7991 H   0  0  0  0  0  0  0  0  0  0  0  0
   -3.9794    1.5674   -2.7831 H   0  0  0  0  0  0  0  0  0  0  0  0
   -1.5953   -1.8191   -1.1133 H   0  0  0  0  0  0  0  0  0  0  0  0
    0.8658   -1.7749   -1.0513 H   0  0  0  0  0  0  0  0  0  0  0  0
  1  2  1  0  0  0  0
  1 20  1  0  0  0  0
  1 21  1  0  0  0  0
  1 22  1  0  0  0  0
  2  3  1  0  0  0  0
  2 19  2  0  0  0  0
  3  4  2  0  0  0  0
  3 23  1  0  0  0  0
  4  5  1  0  0  0  0
  4 24  1  0  0  0  0
  5  6  1  0  0  0  0
  5 18  2  0  0  0  0
  6  7  1  0  0  0  0
  6 16  2  0  0  0  0
  7  8  1  0  0  0  0
  8  9  1  0  0  0  0
  8 13  2  0  0  0  0
  9 10  2  0  0  0  0
  9 25  1  0  0  0  0
 10 11  1  0  0  0  0
 10 26  1  0  0  0  0
 11 12  2  0  0  0  0
 11 27  1  0  0  0  0
 12 13  1  0  0  0  0
 12 28  1  0  0  0  0
 13 14  1  0  0  0  0
 14 15  2  0  0  0  0
 14 16  1  0  0  0  0
 16 17  1  0  0  0  0
 17 29  1  0  0  0  0
 18 19  1  0  0  0  0
 18 30  1  0  0  0  0
 19 31  1  0  0  0  0
M  END
$$$$
