CHEMBL218110
 OpenBabel04072215363D

 64 67  0  0  1  0  0  0  0  0999 V2000
    0.2557    4.5015   -0.2922 C   0  0  0  0  0  0  0  0  0  0  0  0
    1.0953    3.4640   -0.8903 N   0  0  0  0  0  0  0  0  0  0  0  0
    1.6480    3.9434   -2.1552 C   0  0  0  0  0  0  0  0  0  0  0  0
    2.0680    2.8858    0.0728 C   0  0  2  0  0  0  0  0  0  0  0  0
    3.1441    3.8407    0.6346 C   0  0  0  0  0  0  0  0  0  0  0  0
    4.4120    3.9404   -0.2135 C   0  0  0  0  0  0  0  0  0  0  0  0
    4.9106    2.5617   -0.6439 C   0  0  0  0  0  0  0  0  0  0  0  0
    3.8175    1.8523   -1.3542 N   0  0  0  0  0  0  0  0  0  0  0  0
    4.0835    1.1872   -2.5542 C   0  0  0  0  0  0  0  0  0  0  0  0
    5.1055    1.7346   -3.3796 C   0  0  0  0  0  0  0  0  0  0  0  0
    5.5944    1.1283   -4.5390 C   0  0  0  0  0  0  0  0  0  0  0  0
    5.0518   -0.0708   -4.9707 C   0  0  0  0  0  0  0  0  0  0  0  0
    5.5468   -0.7372   -6.2271 C   0  0  0  0  0  0  0  0  0  0  0  0
    6.5440   -0.0416   -6.8478 F   0  0  0  0  0  0  0  0  0  0  0  0
    6.0454   -1.9831   -6.0116 F   0  0  0  0  0  0  0  0  0  0  0  0
    4.5654   -0.8773   -7.1619 F   0  0  0  0  0  0  0  0  0  0  0  0
    3.9895   -0.6123   -4.2313 C   0  0  0  0  0  0  0  0  0  0  0  0
    3.4657    0.0077   -3.0638 C   0  0  0  0  0  0  0  0  0  0  0  0
    2.2588   -0.5832   -2.5574 N   0  0  0  0  0  0  0  0  0  0  0  0
    2.1698   -1.9507   -2.3063 C   0  0  0  0  0  0  0  0  0  0  0  0
    3.1608   -2.6784   -2.3386 O   0  0  0  0  0  0  0  0  0  0  0  0
    0.8485   -2.5955   -2.0023 C   0  0  0  0  0  0  0  0  0  0  0  0
   -0.3905   -2.1753   -2.5304 C   0  0  0  0  0  0  0  0  0  0  0  0
   -1.5216   -3.0223   -2.4376 C   0  0  0  0  0  0  0  0  0  0  0  0
   -2.8084   -2.6596   -2.9751 C   0  0  0  0  0  0  0  0  0  0  0  0
   -3.9335   -2.4142   -3.3357 C   0  0  0  0  0  0  0  0  0  0  0  0
   -5.2815   -2.0536   -3.6529 C   0  0  0  0  0  0  0  0  0  0  0  0
   -5.8063   -0.8571   -3.2270 C   0  0  0  0  0  0  0  0  0  0  0  0
   -7.0538   -0.4341   -3.5021 N   0  0  0  0  0  0  0  0  0  0  0  0
   -7.8032   -1.2491   -4.2544 C   0  0  0  0  0  0  0  0  0  0  0  0
   -9.0756   -0.8142   -4.5597 N   0  0  0  0  0  0  0  0  0  0  0  0
   -7.4157   -2.4488   -4.6966 N   0  0  0  0  0  0  0  0  0  0  0  0
   -6.1513   -2.8305   -4.3952 C   0  0  0  0  0  0  0  0  0  0  0  0
   -1.4159   -4.2725   -1.8158 C   0  0  0  0  0  0  0  0  0  0  0  0
   -0.2149   -4.6610   -1.2346 C   0  0  0  0  0  0  0  0  0  0  0  0
    0.8941   -3.8224   -1.3148 C   0  0  0  0  0  0  0  0  0  0  0  0
    2.0138   -4.2408   -0.7068 F   0  0  0  0  0  0  0  0  0  0  0  0
    2.7200    1.5604   -0.4280 C   0  0  0  0  0  0  0  0  0  0  0  0
    0.6165    5.5130   -0.5114 H   0  0  0  0  0  0  0  0  0  0  0  0
    0.1811    4.4061    0.7962 H   0  0  0  0  0  0  0  0  0  0  0  0
   -0.7612    4.4079   -0.6880 H   0  0  0  0  0  0  0  0  0  0  0  0
    0.8428    4.3008   -2.8081 H   0  0  0  0  0  0  0  0  0  0  0  0
    2.1434    3.1549   -2.7221 H   0  0  0  0  0  0  0  0  0  0  0  0
    2.3402    4.7794   -2.0203 H   0  0  0  0  0  0  0  0  0  0  0  0
    1.4568    2.5703    0.9311 H   0  0  0  0  0  0  0  0  0  0  0  0
    3.4371    3.4604    1.6231 H   0  0  0  0  0  0  0  0  0  0  0  0
    2.7360    4.8412    0.8149 H   0  0  0  0  0  0  0  0  0  0  0  0
    5.1917    4.4482    0.3670 H   0  0  0  0  0  0  0  0  0  0  0  0
    4.2373    4.5618   -1.0965 H   0  0  0  0  0  0  0  0  0  0  0  0
    5.2038    1.9810    0.2410 H   0  0  0  0  0  0  0  0  0  0  0  0
    5.8384    2.6884   -1.2071 H   0  0  0  0  0  0  0  0  0  0  0  0
    5.5522    2.6968   -3.1413 H   0  0  0  0  0  0  0  0  0  0  0  0
    6.3991    1.6096   -5.0918 H   0  0  0  0  0  0  0  0  0  0  0  0
    3.5256   -1.5246   -4.6050 H   0  0  0  0  0  0  0  0  0  0  0  0
    1.5096    0.0428   -2.3029 H   0  0  0  0  0  0  0  0  0  0  0  0
   -0.4762   -1.2295   -3.0570 H   0  0  0  0  0  0  0  0  0  0  0  0
   -5.2184   -0.1750   -2.6182 H   0  0  0  0  0  0  0  0  0  0  0  0
   -9.3776   -0.1315   -3.8805 H   0  0  0  0  0  0  0  0  0  0  0  0
   -9.6862   -1.5967   -4.7451 H   0  0  0  0  0  0  0  0  0  0  0  0
   -5.8683   -3.8067   -4.7779 H   0  0  0  0  0  0  0  0  0  0  0  0
   -2.2655   -4.9533   -1.7786 H   0  0  0  0  0  0  0  0  0  0  0  0
   -0.1196   -5.6239   -0.7399 H   0  0  0  0  0  0  0  0  0  0  0  0
    3.1196    1.0044    0.4318 H   0  0  0  0  0  0  0  0  0  0  0  0
    1.9208    0.9482   -0.8220 H   0  0  0  0  0  0  0  0  0  0  0  0
  1  2  1  0  0  0  0
  1 39  1  0  0  0  0
  1 40  1  0  0  0  0
  1 41  1  0  0  0  0
  2  3  1  0  0  0  0
  2  4  1  0  0  0  0
  3 42  1  0  0  0  0
  3 43  1  0  0  0  0
  3 44  1  0  0  0  0
  4  5  1  0  0  0  0
  4 38  1  0  0  0  0
  4 45  1  1  0  0  0
  5  6  1  0  0  0  0
  5 46  1  0  0  0  0
  5 47  1  0  0  0  0
  6  7  1  0  0  0  0
  6 48  1  0  0  0  0
  6 49  1  0  0  0  0
  7  8  1  0  0  0  0
  7 50  1  0  0  0  0
  7 51  1  0  0  0  0
  8  9  1  0  0  0  0
  8 38  1  0  0  0  0
  9 10  1  0  0  0  0
  9 18  2  0  0  0  0
 10 11  2  0  0  0  0
 10 52  1  0  0  0  0
 11 12  1  0  0  0  0
 11 53  1  0  0  0  0
 12 13  1  0  0  0  0
 12 17  2  0  0  0  0
 13 14  1  0  0  0  0
 13 15  1  0  0  0  0
 13 16  1  0  0  0  0
 17 18  1  0  0  0  0
 17 54  1  0  0  0  0
 18 19  1  0  0  0  0
 19 20  1  0  0  0  0
 19 55  1  0  0  0  0
 20 21  2  0  0  0  0
 20 22  1  0  0  0  0
 22 23  1  0  0  0  0
 22 36  2  0  0  0  0
 23 24  2  0  0  0  0
 23 56  1  0  0  0  0
 24 25  1  0  0  0  0
 24 34  1  0  0  0  0
 25 26  3  0  0  0  0
 26 27  1  0  0  0  0
 27 28  1  0  0  0  0
 27 33  2  0  0  0  0
 28 29  2  0  0  0  0
 28 57  1  0  0  0  0
 29 30  1  0  0  0  0
 30 31  1  0  0  0  0
 30 32  2  0  0  0  0
 31 58  1  0  0  0  0
 31 59  1  0  0  0  0
 32 33  1  0  0  0  0
 33 60  1  0  0  0  0
 34 35  2  0  0  0  0
 34 61  1  0  0  0  0
 35 36  1  0  0  0  0
 35 62  1  0  0  0  0
 36 37  1  0  0  0  0
 38 63  1  0  0  0  0
 38 64  1  0  0  0  0
M  END
$$$$
