CHEMBL3968233
 OpenBabel04072215373D

 52 55  0  0  1  0  0  0  0  0999 V2000
    3.2077    0.7502   -1.1795 C   0  0  0  0  0  0  0  0  0  0  0  0
    2.4378   -0.2975   -0.5812 O   0  0  0  0  0  0  0  0  0  0  0  0
    3.1339   -1.1122    0.2697 C   0  0  0  0  0  0  0  0  0  0  0  0
    4.1925   -0.6423    1.0565 C   0  0  0  0  0  0  0  0  0  0  0  0
    4.9808   -1.5266    1.8247 C   0  0  0  0  0  0  0  0  0  0  0  0
    6.0945   -1.1631    2.5941 C   0  0  0  0  0  0  0  0  0  0  0  0
    6.4468    0.2108    2.7112 N   0  0  0  0  0  0  0  0  0  0  0  0
    7.7307    0.6161    3.1449 C   0  0  0  0  0  0  0  0  0  0  0  0
    8.8768    0.0825    2.5391 C   0  0  0  0  0  0  0  0  0  0  0  0
   10.1446    0.3624    3.0424 C   0  0  0  0  0  0  0  0  0  0  0  0
   11.4965   -0.3839    2.2697 Cl  0  0  0  0  0  0  0  0  0  0  0  0
   10.2790    1.2110    4.1508 C   0  0  0  0  0  0  0  0  0  0  0  0
   11.8118    1.5371    4.8776 Cl  0  0  0  0  0  0  0  0  0  0  0  0
    9.1485    1.8044    4.7215 C   0  0  0  0  0  0  0  0  0  0  0  0
    7.8891    1.5067    4.2095 C   0  0  0  0  0  0  0  0  0  0  0  0
    6.8059    2.0579    4.7779 F   0  0  0  0  0  0  0  0  0  0  0  0
    6.8617   -2.0743    3.2266 N   0  0  0  0  0  0  0  0  0  0  0  0
    6.5035   -3.3531    3.1103 C   0  0  0  0  0  0  0  0  0  0  0  0
    5.4457   -3.8072    2.4379 N   0  0  0  0  0  0  0  0  0  0  0  0
    4.7069   -2.8950    1.8036 C   0  0  0  0  0  0  0  0  0  0  0  0
    3.6055   -3.3324    1.0919 C   0  0  0  0  0  0  0  0  0  0  0  0
    2.7696   -2.4619    0.3747 C   0  0  0  0  0  0  0  0  0  0  0  0
    1.6115   -2.9014   -0.2423 O   0  0  0  0  0  0  0  0  0  0  0  0
    1.0877   -4.1077    0.3453 C   0  0  0  0  0  0  0  0  0  0  0  0
   -0.3927   -4.3707    0.0356 C   0  0  3  0  0  0  0  0  0  0  0  0
   -1.3204   -3.2360    0.5029 C   0  0  0  0  0  0  0  0  0  0  0  0
   -1.3430   -3.1398    1.9774 N   0  0  0  0  0  0  0  0  0  0  0  0
   -2.1917   -2.0355    2.4092 C   0  0  0  0  0  0  0  0  0  0  0  0
   -1.8038   -4.4272    2.5290 C   0  0  0  0  0  0  0  0  0  0  0  0
   -0.9174   -5.5866    2.0432 C   0  0  0  0  0  0  0  0  0  0  0  0
   -0.8213   -5.6333    0.6078 O   0  0  0  0  0  0  0  0  0  0  0  0
    2.8765    0.8746   -2.2144 H   0  0  0  0  0  0  0  0  0  0  0  0
    4.2855    0.5433   -1.2174 H   0  0  0  0  0  0  0  0  0  0  0  0
    3.0290    1.6882   -0.6433 H   0  0  0  0  0  0  0  0  0  0  0  0
    4.4395    0.4175    1.0583 H   0  0  0  0  0  0  0  0  0  0  0  0
    5.7082    0.6983    3.2181 H   0  0  0  0  0  0  0  0  0  0  0  0
    8.7664   -0.5895    1.6912 H   0  0  0  0  0  0  0  0  0  0  0  0
    9.2318    2.4738    5.5712 H   0  0  0  0  0  0  0  0  0  0  0  0
    7.1277   -4.0898    3.6038 H   0  0  0  0  0  0  0  0  0  0  0  0
    3.4181   -4.4024    1.1166 H   0  0  0  0  0  0  0  0  0  0  0  0
    1.2098   -4.0709    1.4339 H   0  0  0  0  0  0  0  0  0  0  0  0
    1.6608   -4.9635   -0.0329 H   0  0  0  0  0  0  0  0  0  0  0  0
   -0.5024   -4.4715   -1.0506 H   0  0  0  0  0  0  0  0  0  0  0  0
   -2.3353   -3.4390    0.1332 H   0  0  0  0  0  0  0  0  0  0  0  0
   -0.9913   -2.2882    0.0626 H   0  0  0  0  0  0  0  0  0  0  0  0
   -1.8046   -1.0874    2.0188 H   0  0  0  0  0  0  0  0  0  0  0  0
   -2.1844   -1.9516    3.5010 H   0  0  0  0  0  0  0  0  0  0  0  0
   -3.2287   -2.1490    2.0749 H   0  0  0  0  0  0  0  0  0  0  0  0
   -2.8400   -4.6212    2.2249 H   0  0  0  0  0  0  0  0  0  0  0  0
   -1.7750   -4.3982    3.6250 H   0  0  0  0  0  0  0  0  0  0  0  0
   -1.3446   -6.5389    2.3756 H   0  0  0  0  0  0  0  0  0  0  0  0
    0.0852   -5.5297    2.4811 H   0  0  0  0  0  0  0  0  0  0  0  0
  1  2  1  0  0  0  0
  1 32  1  0  0  0  0
  1 33  1  0  0  0  0
  1 34  1  0  0  0  0
  2  3  1  0  0  0  0
  3  4  1  0  0  0  0
  3 22  2  0  0  0  0
  4  5  2  0  0  0  0
  4 35  1  0  0  0  0
  5  6  1  0  0  0  0
  5 20  1  0  0  0  0
  6  7  1  0  0  0  0
  6 17  2  0  0  0  0
  7  8  1  0  0  0  0
  7 36  1  0  0  0  0
  8  9  1  0  0  0  0
  8 15  2  0  0  0  0
  9 10  2  0  0  0  0
  9 37  1  0  0  0  0
 10 11  1  0  0  0  0
 10 12  1  0  0  0  0
 12 13  1  0  0  0  0
 12 14  2  0  0  0  0
 14 15  1  0  0  0  0
 14 38  1  0  0  0  0
 15 16  1  0  0  0  0
 17 18  1  0  0  0  0
 18 19  2  0  0  0  0
 18 39  1  0  0  0  0
 19 20  1  0  0  0  0
 20 21  2  0  0  0  0
 21 22  1  0  0  0  0
 21 40  1  0  0  0  0
 22 23  1  0  0  0  0
 23 24  1  0  0  0  0
 24 25  1  0  0  0  0
 24 41  1  0  0  0  0
 24 42  1  0  0  0  0
 25 26  1  0  0  0  0
 25 31  1  0  0  0  0
 25 43  1  0  0  0  0
 26 27  1  0  0  0  0
 26 44  1  0  0  0  0
 26 45  1  0  0  0  0
 27 28  1  0  0  0  0
 27 29  1  0  0  0  0
 28 46  1  0  0  0  0
 28 47  1  0  0  0  0
 28 48  1  0  0  0  0
 29 30  1  0  0  0  0
 29 49  1  0  0  0  0
 29 50  1  0  0  0  0
 30 31  1  0  0  0  0
 30 51  1  0  0  0  0
 30 52  1  0  0  0  0
M  END
$$$$
