CHEMBL598434
 OpenBabel04072215383D

 38 42  0  0  0  0  0  0  0  0999 V2000
    1.3045   -0.6650    0.6105 O   0  0  0  0  0  0  0  0  0  0  0  0
    2.4751   -0.3747    0.3556 C   0  0  0  0  0  0  0  0  0  0  0  0
    3.1930   -0.9446   -0.8470 C   0  0  0  0  0  0  0  0  0  0  0  0
    4.4093   -1.6845   -0.4061 C   0  0  0  0  0  0  0  0  0  0  0  0
    4.5975   -3.0388   -1.0107 C   0  0  0  0  0  0  0  0  0  0  0  0
    5.7416   -3.6296   -1.1464 N   0  0  0  0  0  0  0  0  0  0  0  0
    6.7375   -3.0885   -0.3988 C   0  0  0  0  0  0  0  0  0  0  0  0
    8.0865   -3.2763   -0.3000 C   0  0  0  0  0  0  0  0  0  0  0  0
    8.1753   -3.3720    1.1163 C   0  0  0  0  0  0  0  0  0  0  0  0
    8.9798   -4.4227    1.7978 C   0  0  0  0  0  0  0  0  0  0  0  0
    9.2759   -4.4360    3.1611 C   0  0  0  0  0  0  0  0  0  0  0  0
   10.1356   -5.4209    3.6950 C   0  0  0  0  0  0  0  0  0  0  0  0
   10.6790   -6.4253    2.8876 C   0  0  0  0  0  0  0  0  0  0  0  0
   10.3037   -6.4973    1.5548 C   0  0  0  0  0  0  0  0  0  0  0  0
    9.4541   -5.5205    1.0297 C   0  0  0  0  0  0  0  0  0  0  0  0
    7.3516   -2.4268    1.6517 N   0  0  0  0  0  0  0  0  0  0  0  0
    6.5083   -2.1228    0.5863 N   0  0  0  0  0  0  0  0  0  0  0  0
    5.4274   -1.2334    0.3719 C   0  0  0  0  0  0  0  0  0  0  0  0
    5.5032    0.2503    0.5070 C   0  0  0  0  0  0  0  0  0  0  0  0
    6.6319    0.9424    0.0475 C   0  0  0  0  0  0  0  0  0  0  0  0
    6.7183    2.2924   -0.1076 N   0  0  0  0  0  0  0  0  0  0  0  0
    5.6426    3.0219    0.2586 C   0  0  0  0  0  0  0  0  0  0  0  0
    4.4894    2.4648    0.7594 C   0  0  0  0  0  0  0  0  0  0  0  0
    4.4027    1.0700    0.8324 C   0  0  0  0  0  0  0  0  0  0  0  0
    3.1149    0.5755    1.1006 N   0  0  0  0  0  0  0  0  0  0  0  0
    3.4445   -0.1420   -1.5501 H   0  0  0  0  0  0  0  0  0  0  0  0
    2.4865   -1.6022   -1.3681 H   0  0  0  0  0  0  0  0  0  0  0  0
    3.6929   -3.5165   -1.4236 H   0  0  0  0  0  0  0  0  0  0  0  0
    8.7285   -3.7556   -1.0197 H   0  0  0  0  0  0  0  0  0  0  0  0
    8.8543   -3.6866    3.8246 H   0  0  0  0  0  0  0  0  0  0  0  0
   10.3941   -5.4018    4.7516 H   0  0  0  0  0  0  0  0  0  0  0  0
   11.3715   -7.1560    3.3006 H   0  0  0  0  0  0  0  0  0  0  0  0
   10.6658   -7.3068    0.9204 H   0  0  0  0  0  0  0  0  0  0  0  0
    9.1542   -5.6479   -0.0094 H   0  0  0  0  0  0  0  0  0  0  0  0
    7.5142    0.4166   -0.3054 H   0  0  0  0  0  0  0  0  0  0  0  0
    5.7348    4.1007    0.0697 H   0  0  0  0  0  0  0  0  0  0  0  0
    3.6506    3.1173    0.9847 H   0  0  0  0  0  0  0  0  0  0  0  0
    2.4746    1.1341    1.6551 H   0  0  0  0  0  0  0  0  0  0  0  0
  1  2  2  0  0  0  0
  2  3  1  0  0  0  0
  2 25  1  0  0  0  0
  3  4  1  0  0  0  0
  3 26  1  0  0  0  0
  3 27  1  0  0  0  0
  4  5  1  0  0  0  0
  4 18  2  0  0  0  0
  5  6  2  0  0  0  0
  5 28  1  0  0  0  0
  6  7  1  0  0  0  0
  7  8  2  0  0  0  0
  7 17  1  0  0  0  0
  8  9  1  0  0  0  0
  8 29  1  0  0  0  0
  9 10  1  0  0  0  0
  9 16  2  0  0  0  0
 10 11  1  0  0  0  0
 10 15  2  0  0  0  0
 11 12  2  0  0  0  0
 11 30  1  0  0  0  0
 12 13  1  0  0  0  0
 12 31  1  0  0  0  0
 13 14  2  0  0  0  0
 13 32  1  0  0  0  0
 14 15  1  0  0  0  0
 14 33  1  0  0  0  0
 15 34  1  0  0  0  0
 16 17  1  0  0  0  0
 17 18  1  0  0  0  0
 18 19  1  0  0  0  0
 19 20  1  0  0  0  0
 19 24  2  0  0  0  0
 20 21  2  0  0  0  0
 20 35  1  0  0  0  0
 21 22  1  0  0  0  0
 22 23  2  0  0  0  0
 22 36  1  0  0  0  0
 23 24  1  0  0  0  0
 23 37  1  0  0  0  0
 24 25  1  0  0  0  0
 25 38  1  0  0  0  0
M  END
$$$$
