CHEMBL3125889
 OpenBabel04072215363D

 57 61  0  0  0  0  0  0  0  0999 V2000
    3.7684   -1.0229    1.0149 N   0  0  0  0  0  0  0  0  0  0  0  0
    3.4381   -0.3268    0.1520 C   0  0  0  0  0  0  0  0  0  0  0  0
    3.0240    0.5125   -0.9358 C   0  0  0  0  0  0  0  0  0  0  0  0
    3.1378    1.9090   -0.9027 C   0  0  0  0  0  0  0  0  0  0  0  0
    3.6776    2.4816    0.2313 O   0  0  0  0  0  0  0  0  0  0  0  0
    4.4688    3.6067    0.1231 C   0  0  0  0  0  0  0  0  0  0  0  0
    4.4928    4.4364    1.2441 C   0  0  0  0  0  0  0  0  0  0  0  0
    5.2773    5.5869    1.2408 C   0  0  0  0  0  0  0  0  0  0  0  0
    6.0424    5.9077    0.1185 C   0  0  0  0  0  0  0  0  0  0  0  0
    6.0441    5.0780   -1.0047 C   0  0  0  0  0  0  0  0  0  0  0  0
    6.7757    5.3704   -2.1746 N   0  0  0  0  0  0  0  0  0  0  0  0
    7.8546    6.2398   -2.2492 C   0  0  0  0  0  0  0  0  0  0  0  0
    8.3924    6.7977   -1.2956 O   0  0  0  0  0  0  0  0  0  0  0  0
    8.3516    6.4878   -3.6638 C   0  0  0  0  0  0  0  0  0  0  0  0
    7.6224    7.6431   -4.3026 C   0  0  0  0  0  0  0  0  0  0  0  0
    7.7111    8.9275   -3.7452 C   0  0  0  0  0  0  0  0  0  0  0  0
    6.9715    9.9847   -4.2765 C   0  0  0  0  0  0  0  0  0  0  0  0
    6.1370    9.7789   -5.3827 C   0  0  0  0  0  0  0  0  0  0  0  0
    5.3135   10.9020   -5.9603 C   0  0  0  0  0  0  0  0  0  0  0  0
    5.4811   12.0921   -5.3195 F   0  0  0  0  0  0  0  0  0  0  0  0
    5.6048   11.1386   -7.2696 F   0  0  0  0  0  0  0  0  0  0  0  0
    3.9771   10.6405   -5.9174 F   0  0  0  0  0  0  0  0  0  0  0  0
    6.0693    8.4979   -5.9531 C   0  0  0  0  0  0  0  0  0  0  0  0
    6.8105    7.4410   -5.4227 C   0  0  0  0  0  0  0  0  0  0  0  0
    5.2633    3.9171   -0.9905 C   0  0  0  0  0  0  0  0  0  0  0  0
    2.6593    2.6836   -1.9641 C   0  0  0  0  0  0  0  0  0  0  0  0
    2.1791    2.0747   -3.1246 C   0  0  0  0  0  0  0  0  0  0  0  0
    2.1004    0.6726   -3.2018 C   0  0  0  0  0  0  0  0  0  0  0  0
    1.6644   -0.0396   -4.3036 N   0  0  0  0  0  0  0  0  0  0  0  0
    1.6811   -1.3133   -4.0308 C   0  0  0  0  0  0  0  0  0  0  0  0
    1.3699   -2.3814   -4.8160 N   0  0  0  0  0  0  0  0  0  0  0  0
    1.1204   -2.2897   -6.1624 C   0  0  0  0  0  0  0  0  0  0  0  0
    1.1068   -1.2995   -6.8748 O   0  0  0  0  0  0  0  0  0  0  0  0
    0.9274   -3.6608   -6.7603 C   0  0  0  0  0  0  0  0  0  0  0  0
   -0.5522   -3.9892   -6.2427 C   0  0  0  0  0  0  0  0  0  0  0  0
   -0.0292   -4.6651   -7.3890 C   0  0  0  0  0  0  0  0  0  0  0  0
    2.1907   -1.7561   -2.4678 S   0  0  0  0  0  0  0  0  0  0  0  0
    2.4920   -0.0937   -2.0953 C   0  0  0  0  0  0  0  0  0  0  0  0
    3.9000    4.1922    2.1222 H   0  0  0  0  0  0  0  0  0  0  0  0
    5.2959    6.2422    2.1076 H   0  0  0  0  0  0  0  0  0  0  0  0
    6.6146    6.8312    0.1414 H   0  0  0  0  0  0  0  0  0  0  0  0
    6.5365    4.8482   -3.0076 H   0  0  0  0  0  0  0  0  0  0  0  0
    8.2517    5.5729   -4.2602 H   0  0  0  0  0  0  0  0  0  0  0  0
    9.4256    6.7056   -3.6176 H   0  0  0  0  0  0  0  0  0  0  0  0
    8.3398    9.1068   -2.8723 H   0  0  0  0  0  0  0  0  0  0  0  0
    7.0407   10.9668   -3.8105 H   0  0  0  0  0  0  0  0  0  0  0  0
    5.4246    8.3184   -6.8124 H   0  0  0  0  0  0  0  0  0  0  0  0
    6.7365    6.4588   -5.8846 H   0  0  0  0  0  0  0  0  0  0  0  0
    5.2939    3.2467   -1.8429 H   0  0  0  0  0  0  0  0  0  0  0  0
    2.6821    3.7685   -1.9192 H   0  0  0  0  0  0  0  0  0  0  0  0
    1.8632    2.6764   -3.9729 H   0  0  0  0  0  0  0  0  0  0  0  0
    1.3894   -3.2893   -4.3796 H   0  0  0  0  0  0  0  0  0  0  0  0
    1.4577   -3.4940   -7.7033 H   0  0  0  0  0  0  0  0  0  0  0  0
   -1.3356   -3.2552   -6.4085 H   0  0  0  0  0  0  0  0  0  0  0  0
   -0.6394   -4.5245   -5.3041 H   0  0  0  0  0  0  0  0  0  0  0  0
   -0.4679   -4.4408   -8.3566 H   0  0  0  0  0  0  0  0  0  0  0  0
    0.2516   -5.7113   -7.2953 H   0  0  0  0  0  0  0  0  0  0  0  0
  1  2  3  0  0  0  0
  2  3  1  0  0  0  0
  3  4  1  0  0  0  0
  3 38  2  0  0  0  0
  4  5  1  0  0  0  0
  4 26  2  0  0  0  0
  5  6  1  0  0  0  0
  6  7  1  0  0  0  0
  6 25  2  0  0  0  0
  7  8  2  0  0  0  0
  7 39  1  0  0  0  0
  8  9  1  0  0  0  0
  8 40  1  0  0  0  0
  9 10  2  0  0  0  0
  9 41  1  0  0  0  0
 10 11  1  0  0  0  0
 10 25  1  0  0  0  0
 11 12  1  0  0  0  0
 11 42  1  0  0  0  0
 12 13  2  0  0  0  0
 12 14  1  0  0  0  0
 14 15  1  0  0  0  0
 14 43  1  0  0  0  0
 14 44  1  0  0  0  0
 15 16  1  0  0  0  0
 15 24  2  0  0  0  0
 16 17  2  0  0  0  0
 16 45  1  0  0  0  0
 17 18  1  0  0  0  0
 17 46  1  0  0  0  0
 18 19  1  0  0  0  0
 18 23  2  0  0  0  0
 19 20  1  0  0  0  0
 19 21  1  0  0  0  0
 19 22  1  0  0  0  0
 23 24  1  0  0  0  0
 23 47  1  0  0  0  0
 24 48  1  0  0  0  0
 25 49  1  0  0  0  0
 26 27  1  0  0  0  0
 26 50  1  0  0  0  0
 27 28  2  0  0  0  0
 27 51  1  0  0  0  0
 28 29  1  0  0  0  0
 28 38  1  0  0  0  0
 29 30  2  0  0  0  0
 30 31  1  0  0  0  0
 30 37  1  0  0  0  0
 31 32  1  0  0  0  0
 31 52  1  0  0  0  0
 32 33  2  0  0  0  0
 32 34  1  0  0  0  0
 34 35  1  0  0  0  0
 34 36  1  0  0  0  0
 34 53  1  0  0  0  0
 35 36  1  0  0  0  0
 35 54  1  0  0  0  0
 35 55  1  0  0  0  0
 36 56  1  0  0  0  0
 36 57  1  0  0  0  0
 37 38  1  0  0  0  0
M  END
$$$$
