CHEMBL3353344
 OpenBabel04072215363D

 53 58  0  0  1  0  0  0  0  0999 V2000
   11.6436   -7.7398   -9.8599 C   0  0  0  0  0  0  0  0  0  0  0  0
   11.7283   -7.4556   -8.3909 C   0  0  0  0  0  0  0  0  0  0  0  0
   10.5902   -7.3447   -7.6125 C   0  0  0  0  0  0  0  0  0  0  0  0
   10.7282   -7.1164   -6.2429 C   0  0  0  0  0  0  0  0  0  0  0  0
   11.9998   -6.9732   -5.6672 C   0  0  0  0  0  0  0  0  0  0  0  0
   12.1487   -6.7855   -4.2078 C   0  0  0  0  0  0  0  0  0  0  0  0
   11.3033   -6.1267   -3.3921 C   0  0  0  0  0  0  0  0  0  0  0  0
   11.5344   -5.9263   -1.9840 C   0  0  0  0  0  0  0  0  0  0  0  0
   12.6450   -6.3341   -1.3502 N   0  0  0  0  0  0  0  0  0  0  0  0
   12.4709   -5.9341   -0.0822 N   0  0  0  0  0  0  0  0  0  0  0  0
   11.2946   -5.2787    0.1511 C   0  0  0  0  0  0  0  0  0  0  0  0
   10.7482   -4.7266    1.3272 C   0  0  0  0  0  0  0  0  0  0  0  0
    9.4878   -4.1127    1.2626 C   0  0  0  0  0  0  0  0  0  0  0  0
    8.7400   -3.6088    2.4804 C   0  0  2  0  0  0  0  0  0  0  0  0
    8.3594   -2.1382    2.5291 C   0  0  0  0  0  0  0  0  0  0  0  0
    9.2245   -2.7178    3.6057 C   0  0  1  0  0  0  0  0  0  0  0  0
    8.6778   -3.0197    4.9909 C   0  0  0  0  0  0  0  0  0  0  0  0
    7.5263   -3.3341    5.2415 O   0  0  0  0  0  0  0  0  0  0  0  0
    9.7242   -2.8885    5.8812 N   0  0  0  0  0  0  0  0  0  0  0  0
   10.8827   -2.4416    5.2454 C   0  0  0  0  0  0  0  0  0  0  0  0
   12.0905   -2.1620    5.8508 C   0  0  0  0  0  0  0  0  0  0  0  0
   13.1021   -1.6556    5.0396 C   0  0  0  0  0  0  0  0  0  0  0  0
   12.8631   -1.4031    3.6762 C   0  0  0  0  0  0  0  0  0  0  0  0
   11.6217   -1.6946    3.0891 C   0  0  0  0  0  0  0  0  0  0  0  0
   10.6315   -2.2678    3.8704 C   0  0  0  0  0  0  0  0  0  0  0  0
    8.8303   -4.0948    0.0143 C   0  0  0  0  0  0  0  0  0  0  0  0
    9.3829   -4.6512   -1.1520 C   0  0  0  0  0  0  0  0  0  0  0  0
   10.6478   -5.2570   -1.0803 C   0  0  0  0  0  0  0  0  0  0  0  0
   13.0997   -7.0895   -6.5315 C   0  0  0  0  0  0  0  0  0  0  0  0
   14.5316   -6.9577   -6.0977 C   0  0  0  0  0  0  0  0  0  0  0  0
   12.9687   -7.3265   -7.8696 N   0  0  0  0  0  0  0  0  0  0  0  0
   10.6061   -7.8099  -10.2011 H   0  0  0  0  0  0  0  0  0  0  0  0
   12.1407   -8.6890  -10.0825 H   0  0  0  0  0  0  0  0  0  0  0  0
   12.1356   -6.9414  -10.4235 H   0  0  0  0  0  0  0  0  0  0  0  0
    9.5994   -7.4508   -8.0477 H   0  0  0  0  0  0  0  0  0  0  0  0
    9.8315   -7.0579   -5.6358 H   0  0  0  0  0  0  0  0  0  0  0  0
   13.0429   -7.2239   -3.7703 H   0  0  0  0  0  0  0  0  0  0  0  0
   10.3998   -5.6856   -3.8004 H   0  0  0  0  0  0  0  0  0  0  0  0
   13.2043   -6.1413    0.5864 H   0  0  0  0  0  0  0  0  0  0  0  0
   11.2780   -4.8087    2.2716 H   0  0  0  0  0  0  0  0  0  0  0  0
    7.9543   -4.3041    2.7853 H   0  0  0  0  0  0  0  0  0  0  0  0
    7.3291   -1.8989    2.7695 H   0  0  0  0  0  0  0  0  0  0  0  0
    8.8071   -1.4634    1.8091 H   0  0  0  0  0  0  0  0  0  0  0  0
    9.6177   -3.0386    6.8723 H   0  0  0  0  0  0  0  0  0  0  0  0
   12.2495   -2.3221    6.9115 H   0  0  0  0  0  0  0  0  0  0  0  0
   14.0781   -1.4360    5.4670 H   0  0  0  0  0  0  0  0  0  0  0  0
   13.6566   -0.9698    3.0701 H   0  0  0  0  0  0  0  0  0  0  0  0
   11.4443   -1.4635    2.0434 H   0  0  0  0  0  0  0  0  0  0  0  0
    7.8306   -3.6649   -0.0457 H   0  0  0  0  0  0  0  0  0  0  0  0
    8.8205   -4.6291   -2.0800 H   0  0  0  0  0  0  0  0  0  0  0  0
   14.6585   -6.6902   -5.0476 H   0  0  0  0  0  0  0  0  0  0  0  0
   15.0196   -6.1727   -6.6899 H   0  0  0  0  0  0  0  0  0  0  0  0
   15.0583   -7.8995   -6.2759 H   0  0  0  0  0  0  0  0  0  0  0  0
  1  2  1  0  0  0  0
  1 32  1  0  0  0  0
  1 33  1  0  0  0  0
  1 34  1  0  0  0  0
  2  3  1  0  0  0  0
  2 31  2  0  0  0  0
  3  4  2  0  0  0  0
  3 35  1  0  0  0  0
  4  5  1  0  0  0  0
  4 36  1  0  0  0  0
  5  6  1  0  0  0  0
  5 29  2  0  0  0  0
  6  7  2  0  0  0  0
  6 37  1  0  0  0  0
  7  8  1  0  0  0  0
  7 38  1  0  0  0  0
  8  9  2  0  0  0  0
  8 28  1  0  0  0  0
  9 10  1  0  0  0  0
 10 11  1  0  0  0  0
 10 39  1  0  0  0  0
 11 12  1  0  0  0  0
 11 28  2  0  0  0  0
 12 13  2  0  0  0  0
 12 40  1  0  0  0  0
 13 26  1  0  0  0  0
 14 15  1  0  0  0  0
 14 16  1  0  0  0  0
 14 13  1  0  0  0  0
 14 41  1  1  0  0  0
 15 16  1  0  0  0  0
 15 42  1  0  0  0  0
 15 43  1  0  0  0  0
 16 17  1  1  0  0  0
 16 25  1  0  0  0  0
 17 18  2  0  0  0  0
 17 19  1  0  0  0  0
 19 20  1  0  0  0  0
 19 44  1  0  0  0  0
 20 21  1  0  0  0  0
 20 25  2  0  0  0  0
 21 22  2  0  0  0  0
 21 45  1  0  0  0  0
 22 23  1  0  0  0  0
 22 46  1  0  0  0  0
 23 24  2  0  0  0  0
 23 47  1  0  0  0  0
 24 25  1  0  0  0  0
 24 48  1  0  0  0  0
 26 27  2  0  0  0  0
 26 49  1  0  0  0  0
 27 28  1  0  0  0  0
 27 50  1  0  0  0  0
 29 30  1  0  0  0  0
 29 31  1  0  0  0  0
 30 51  1  0  0  0  0
 30 52  1  0  0  0  0
 30 53  1  0  0  0  0
M  END
$$$$
