CHEMBL606395
 OpenBabel04072215383D

 45 48  0  0  0  0  0  0  0  0999 V2000
    9.0616   -7.2642    1.2125 C   0  0  0  0  0  0  0  0  0  0  0  0
    8.2802   -6.0819    1.3612 O   0  0  0  0  0  0  0  0  0  0  0  0
    7.6649   -5.6246    0.2263 C   0  0  0  0  0  0  0  0  0  0  0  0
    7.7091   -6.2428   -1.0266 C   0  0  0  0  0  0  0  0  0  0  0  0
    7.0706   -5.6657   -2.1180 C   0  0  0  0  0  0  0  0  0  0  0  0
    6.3938   -4.4520   -2.0087 C   0  0  0  0  0  0  0  0  0  0  0  0
    5.7858   -3.8395   -3.1023 N   0  0  0  0  0  0  0  0  0  0  0  0
    5.3942   -4.3033   -4.3551 C   0  0  0  0  0  0  0  0  0  0  0  0
    4.9396   -3.3333   -5.1637 N   0  0  0  0  0  0  0  0  0  0  0  0
    4.2041   -3.7075   -6.2183 C   0  0  0  0  0  0  0  0  0  0  0  0
    3.8913   -5.0178   -6.4652 C   0  0  0  0  0  0  0  0  0  0  0  0
    4.5580   -5.9619   -5.7086 C   0  0  0  0  0  0  0  0  0  0  0  0
    5.3208   -5.6171   -4.6511 N   0  0  0  0  0  0  0  0  0  0  0  0
    4.2564   -7.3902   -5.9107 C   0  0  0  0  0  0  0  0  0  0  0  0
    5.2080   -8.2739   -6.4400 C   0  0  0  0  0  0  0  0  0  0  0  0
    4.8823   -9.6163   -6.6925 C   0  0  0  0  0  0  0  0  0  0  0  0
    3.6327  -10.1174   -6.3266 C   0  0  0  0  0  0  0  0  0  0  0  0
    3.1920  -11.4003   -6.4992 O   0  0  0  0  0  0  0  0  0  0  0  0
    3.9882  -12.2534   -7.3114 C   0  0  0  0  0  0  0  0  0  0  0  0
    2.6871   -9.2562   -5.7709 C   0  0  0  0  0  0  0  0  0  0  0  0
    2.9565   -7.8881   -5.6814 C   0  0  0  0  0  0  0  0  0  0  0  0
    1.8480   -7.0365   -5.5029 N   0  0  0  0  0  0  0  0  0  0  0  0
    1.6175   -5.8843   -6.2278 C   0  0  0  0  0  0  0  0  0  0  0  0
    0.5570   -5.2737   -6.0869 O   0  0  0  0  0  0  0  0  0  0  0  0
    2.6767   -5.4233   -7.2318 C   0  0  0  0  0  0  0  0  0  0  0  0
    6.2947   -3.8680   -0.7351 C   0  0  0  0  0  0  0  0  0  0  0  0
    6.9311   -4.4486    0.3707 C   0  0  0  0  0  0  0  0  0  0  0  0
    9.5274   -7.4839    2.1763 H   0  0  0  0  0  0  0  0  0  0  0  0
    9.8640   -7.1228    0.4806 H   0  0  0  0  0  0  0  0  0  0  0  0
    8.4281   -8.1170    0.9438 H   0  0  0  0  0  0  0  0  0  0  0  0
    8.2500   -7.1669   -1.1901 H   0  0  0  0  0  0  0  0  0  0  0  0
    7.1456   -6.1701   -3.0795 H   0  0  0  0  0  0  0  0  0  0  0  0
    5.5556   -2.8617   -3.0166 H   0  0  0  0  0  0  0  0  0  0  0  0
    3.7845   -2.8942   -6.8021 H   0  0  0  0  0  0  0  0  0  0  0  0
    6.1956   -7.9073   -6.7155 H   0  0  0  0  0  0  0  0  0  0  0  0
    5.6255  -10.2418   -7.1772 H   0  0  0  0  0  0  0  0  0  0  0  0
    3.4758  -13.2180   -7.3842 H   0  0  0  0  0  0  0  0  0  0  0  0
    4.9671  -12.4302   -6.8563 H   0  0  0  0  0  0  0  0  0  0  0  0
    4.0880  -11.8522   -8.3258 H   0  0  0  0  0  0  0  0  0  0  0  0
    1.7005   -9.6446   -5.5302 H   0  0  0  0  0  0  0  0  0  0  0  0
    1.0215   -7.3965   -5.0392 H   0  0  0  0  0  0  0  0  0  0  0  0
    2.2796   -4.5827   -7.8108 H   0  0  0  0  0  0  0  0  0  0  0  0
    2.8911   -6.2224   -7.9514 H   0  0  0  0  0  0  0  0  0  0  0  0
    5.7189   -2.9575   -0.5844 H   0  0  0  0  0  0  0  0  0  0  0  0
    6.8602   -3.9729    1.3451 H   0  0  0  0  0  0  0  0  0  0  0  0
  1  2  1  0  0  0  0
  1 28  1  0  0  0  0
  1 29  1  0  0  0  0
  1 30  1  0  0  0  0
  2  3  1  0  0  0  0
  3  4  1  0  0  0  0
  3 27  2  0  0  0  0
  4  5  2  0  0  0  0
  4 31  1  0  0  0  0
  5  6  1  0  0  0  0
  5 32  1  0  0  0  0
  6  7  1  0  0  0  0
  6 26  2  0  0  0  0
  7  8  1  0  0  0  0
  7 33  1  0  0  0  0
  8  9  1  0  0  0  0
  8 13  2  0  0  0  0
  9 10  2  0  0  0  0
 10 11  1  0  0  0  0
 10 34  1  0  0  0  0
 11 12  2  0  0  0  0
 11 25  1  0  0  0  0
 12 13  1  0  0  0  0
 12 14  1  0  0  0  0
 14 15  1  0  0  0  0
 14 21  2  0  0  0  0
 15 16  2  0  0  0  0
 15 35  1  0  0  0  0
 16 17  1  0  0  0  0
 16 36  1  0  0  0  0
 17 18  1  0  0  0  0
 17 20  2  0  0  0  0
 18 19  1  0  0  0  0
 19 37  1  0  0  0  0
 19 38  1  0  0  0  0
 19 39  1  0  0  0  0
 20 21  1  0  0  0  0
 20 40  1  0  0  0  0
 21 22  1  0  0  0  0
 22 23  1  0  0  0  0
 22 41  1  0  0  0  0
 23 24  2  0  0  0  0
 23 25  1  0  0  0  0
 25 42  1  0  0  0  0
 25 43  1  0  0  0  0
 26 27  1  0  0  0  0
 26 44  1  0  0  0  0
 27 45  1  0  0  0  0
M  END
$$$$
