CHEMBL260092
 OpenBabel04072215363D

 50 53  0  0  0  0  0  0  0  0999 V2000
    4.2509    1.6238    3.0521 N   0  0  0  0  0  0  0  0  0  0  0  0
    4.8127    1.4015    1.7839 C   0  0  0  0  0  0  0  0  0  0  0  0
    5.6356    0.3480    1.6812 N   0  0  0  0  0  0  0  0  0  0  0  0
    6.1206    0.1108    0.4559 C   0  0  0  0  0  0  0  0  0  0  0  0
    5.8580    0.8105   -0.6564 N   0  0  0  0  0  0  0  0  0  0  0  0
    5.0189    1.8548   -0.5222 C   0  0  0  0  0  0  0  0  0  0  0  0
    4.4482    2.2140    0.7058 C   0  0  0  0  0  0  0  0  0  0  0  0
    3.6158    3.3442    0.9385 N   0  0  0  0  0  0  0  0  0  0  0  0
    2.6521    3.5967    0.1034 C   0  0  0  0  0  0  0  0  0  0  0  0
    1.7904    4.7930    0.3280 C   0  0  0  0  0  0  0  0  0  0  0  0
    1.2502    5.4704   -0.7608 C   0  0  0  0  0  0  0  0  0  0  0  0
    0.4207    6.5726   -0.5627 C   0  0  0  0  0  0  0  0  0  0  0  0
    0.1091    7.0273    0.7199 C   0  0  0  0  0  0  0  0  0  0  0  0
   -0.7385    8.1393    0.9479 N   0  0  0  0  0  0  0  0  0  0  0  0
   -1.4723    8.8021   -0.0253 C   0  0  0  0  0  0  0  0  0  0  0  0
   -1.5625    8.4655   -1.1998 O   0  0  0  0  0  0  0  0  0  0  0  0
   -2.0782    9.9485    0.4728 N   0  0  0  0  0  0  0  0  0  0  0  0
   -2.8566   10.7646   -0.3840 C   0  0  0  0  0  0  0  0  0  0  0  0
   -2.6265   12.1399   -0.3932 C   0  0  0  0  0  0  0  0  0  0  0  0
   -3.3202   12.9562   -1.2881 C   0  0  0  0  0  0  0  0  0  0  0  0
   -4.2847   12.4105   -2.1371 C   0  0  0  0  0  0  0  0  0  0  0  0
   -4.5618   11.0365   -2.1089 C   0  0  0  0  0  0  0  0  0  0  0  0
   -5.6304   10.4364   -2.9886 C   0  0  0  0  0  0  0  0  0  0  0  0
   -6.2879   11.3597   -3.7476 F   0  0  0  0  0  0  0  0  0  0  0  0
   -5.1472    9.5141   -3.8649 F   0  0  0  0  0  0  0  0  0  0  0  0
   -6.5975    9.8000   -2.2691 F   0  0  0  0  0  0  0  0  0  0  0  0
   -3.8266   10.2183   -1.2353 C   0  0  0  0  0  0  0  0  0  0  0  0
    0.6802    6.3675    1.8162 C   0  0  0  0  0  0  0  0  0  0  0  0
    1.5216    5.2567    1.6216 C   0  0  0  0  0  0  0  0  0  0  0  0
    2.3596    2.7138   -1.0975 C   0  0  0  0  0  0  0  0  0  0  0  0
    3.4529    2.8732   -2.1415 C   0  0  0  0  0  0  0  0  0  0  0  0
    4.8096    2.5588   -1.7067 N   0  0  0  0  0  0  0  0  0  0  0  0
    4.7507    1.0638    3.7330 H   0  0  0  0  0  0  0  0  0  0  0  0
    4.2361    2.6218    3.2418 H   0  0  0  0  0  0  0  0  0  0  0  0
    6.7901   -0.7356    0.3527 H   0  0  0  0  0  0  0  0  0  0  0  0
    1.4649    5.1792   -1.7834 H   0  0  0  0  0  0  0  0  0  0  0  0
    0.0406    7.0536   -1.4569 H   0  0  0  0  0  0  0  0  0  0  0  0
   -0.9368    8.3793    1.9066 H   0  0  0  0  0  0  0  0  0  0  0  0
   -1.5352   10.4299    1.1749 H   0  0  0  0  0  0  0  0  0  0  0  0
   -1.8625   12.5816    0.2398 H   0  0  0  0  0  0  0  0  0  0  0  0
   -3.0995   14.0200   -1.3339 H   0  0  0  0  0  0  0  0  0  0  0  0
   -4.8205   13.0641   -2.8243 H   0  0  0  0  0  0  0  0  0  0  0  0
   -4.0197    9.1455   -1.2243 H   0  0  0  0  0  0  0  0  0  0  0  0
    0.4823    6.6974    2.8334 H   0  0  0  0  0  0  0  0  0  0  0  0
    1.9532    4.7493    2.4827 H   0  0  0  0  0  0  0  0  0  0  0  0
    1.3880    2.9575   -1.5394 H   0  0  0  0  0  0  0  0  0  0  0  0
    2.2694    1.6732   -0.7649 H   0  0  0  0  0  0  0  0  0  0  0  0
    3.4628    3.9026   -2.5187 H   0  0  0  0  0  0  0  0  0  0  0  0
    3.2083    2.2341   -2.9988 H   0  0  0  0  0  0  0  0  0  0  0  0
    5.3461    2.0670   -2.4188 H   0  0  0  0  0  0  0  0  0  0  0  0
  1  2  1  0  0  0  0
  1 33  1  0  0  0  0
  1 34  1  0  0  0  0
  2  3  1  0  0  0  0
  2  7  2  0  0  0  0
  3  4  2  0  0  0  0
  4  5  1  0  0  0  0
  4 35  1  0  0  0  0
  5  6  2  0  0  0  0
  6  7  1  0  0  0  0
  6 32  1  0  0  0  0
  7  8  1  0  0  0  0
  8  9  2  0  0  0  0
  9 10  1  0  0  0  0
  9 30  1  0  0  0  0
 10 11  1  0  0  0  0
 10 29  2  0  0  0  0
 11 12  2  0  0  0  0
 11 36  1  0  0  0  0
 12 13  1  0  0  0  0
 12 37  1  0  0  0  0
 13 14  1  0  0  0  0
 13 28  2  0  0  0  0
 14 15  1  0  0  0  0
 14 38  1  0  0  0  0
 15 16  2  0  0  0  0
 15 17  1  0  0  0  0
 17 18  1  0  0  0  0
 17 39  1  0  0  0  0
 18 19  1  0  0  0  0
 18 27  2  0  0  0  0
 19 20  2  0  0  0  0
 19 40  1  0  0  0  0
 20 21  1  0  0  0  0
 20 41  1  0  0  0  0
 21 22  2  0  0  0  0
 21 42  1  0  0  0  0
 22 23  1  0  0  0  0
 22 27  1  0  0  0  0
 23 24  1  0  0  0  0
 23 25  1  0  0  0  0
 23 26  1  0  0  0  0
 27 43  1  0  0  0  0
 28 29  1  0  0  0  0
 28 44  1  0  0  0  0
 29 45  1  0  0  0  0
 30 31  1  0  0  0  0
 30 46  1  0  0  0  0
 30 47  1  0  0  0  0
 31 32  1  0  0  0  0
 31 48  1  0  0  0  0
 31 49  1  0  0  0  0
 32 50  1  0  0  0  0
M  END
$$$$
