CHEMBL3109341
 OpenBabel04072215363D

 60 64  0  0  0  0  0  0  0  0999 V2000
    1.6284    6.1625   -0.9353 C   0  0  0  0  0  0  0  0  0  0  0  0
    2.9988    5.8031   -0.8509 O   0  0  0  0  0  0  0  0  0  0  0  0
    3.2973    5.1735    0.3951 C   0  0  0  0  0  0  0  0  0  0  0  0
    4.7731    4.8157    0.4095 C   0  0  0  0  0  0  0  0  0  0  0  0
    5.0869    4.1658    1.6383 O   0  0  0  0  0  0  0  0  0  0  0  0
    6.4099    3.8425    1.8736 C   0  0  0  0  0  0  0  0  0  0  0  0
    7.4163    4.0083    0.8278 C   0  0  0  0  0  0  0  0  0  0  0  0
    8.6907    3.6787    1.0827 C   0  0  0  0  0  0  0  0  0  0  0  0
    9.0429    3.1881    2.3387 N   0  0  0  0  0  0  0  0  0  0  0  0
   10.2617    2.7602    2.8329 C   0  0  0  0  0  0  0  0  0  0  0  0
   11.5122    2.7066    2.0908 C   0  0  0  0  0  0  0  0  0  0  0  0
   12.4446    1.7221    2.3646 C   0  0  0  0  0  0  0  0  0  0  0  0
   13.6273    1.7317    1.6504 C   0  0  0  0  0  0  0  0  0  0  0  0
   13.8454    2.7131    0.6836 C   0  0  0  0  0  0  0  0  0  0  0  0
   15.0524    2.7099   -0.0171 C   0  0  0  0  0  0  0  0  0  0  0  0
   15.2903    3.6602   -0.9927 C   0  0  0  0  0  0  0  0  0  0  0  0
   14.3260    4.6211   -1.2798 C   0  0  0  0  0  0  0  0  0  0  0  0
   13.1075    4.6561   -0.5794 C   0  0  0  0  0  0  0  0  0  0  0  0
   12.1150    5.5944   -0.8447 O   0  0  0  0  0  0  0  0  0  0  0  0
   12.4619    6.7760   -1.5976 C   0  0  0  0  0  0  0  0  0  0  0  0
   13.1622    7.8094   -0.7177 C   0  0  0  0  0  0  0  0  0  0  0  0
   12.2110    8.4032    0.3208 C   0  0  0  0  0  0  0  0  0  0  0  0
   10.9946    8.9883   -0.2614 N   0  0  0  0  0  0  0  0  0  0  0  0
   10.0698    9.3540    0.8230 C   0  0  0  0  0  0  0  0  0  0  0  0
   10.3061    8.0924   -1.1981 C   0  0  0  0  0  0  0  0  0  0  0  0
   11.2245    7.4303   -2.2195 C   0  0  0  0  0  0  0  0  0  0  0  0
   12.8461    3.6897    0.4248 C   0  0  0  0  0  0  0  0  0  0  0  0
   11.6955    3.6684    1.1500 N   0  0  0  0  0  0  0  0  0  0  0  0
    9.9828    2.3693    4.1332 C   0  0  0  0  0  0  0  0  0  0  0  0
    8.6608    2.5209    4.4482 N   0  0  0  0  0  0  0  0  0  0  0  0
    8.1093    3.0103    3.3597 C   0  0  0  0  0  0  0  0  0  0  0  0
    6.7580    3.3570    3.0823 C   0  0  0  0  0  0  0  0  0  0  0  0
    1.4585    6.6389   -1.9039 H   0  0  0  0  0  0  0  0  0  0  0  0
    1.3726    6.8727   -0.1437 H   0  0  0  0  0  0  0  0  0  0  0  0
    0.9970    5.2720   -0.8654 H   0  0  0  0  0  0  0  0  0  0  0  0
    2.6910    4.2694    0.5184 H   0  0  0  0  0  0  0  0  0  0  0  0
    3.0696    5.8522    1.2258 H   0  0  0  0  0  0  0  0  0  0  0  0
    5.3628    5.7340    0.2940 H   0  0  0  0  0  0  0  0  0  0  0  0
    4.9825    4.1501   -0.4371 H   0  0  0  0  0  0  0  0  0  0  0  0
    7.1690    4.3886   -0.1539 H   0  0  0  0  0  0  0  0  0  0  0  0
    9.4663    3.7854    0.3359 H   0  0  0  0  0  0  0  0  0  0  0  0
   12.2662    0.9561    3.1112 H   0  0  0  0  0  0  0  0  0  0  0  0
   14.3732    0.9666    1.8543 H   0  0  0  0  0  0  0  0  0  0  0  0
   15.8200    1.9674    0.1913 H   0  0  0  0  0  0  0  0  0  0  0  0
   16.2297    3.6537   -1.5363 H   0  0  0  0  0  0  0  0  0  0  0  0
   14.5696    5.3186   -2.0700 H   0  0  0  0  0  0  0  0  0  0  0  0
   13.0860    6.5102   -2.4543 H   0  0  0  0  0  0  0  0  0  0  0  0
   13.5631    8.6119   -1.3497 H   0  0  0  0  0  0  0  0  0  0  0  0
   14.0113    7.3591   -0.1921 H   0  0  0  0  0  0  0  0  0  0  0  0
   12.7538    9.1973    0.8501 H   0  0  0  0  0  0  0  0  0  0  0  0
   11.9645    7.6328    1.0615 H   0  0  0  0  0  0  0  0  0  0  0  0
   10.4877   10.1617    1.4329 H   0  0  0  0  0  0  0  0  0  0  0  0
    9.8574    8.5012    1.4810 H   0  0  0  0  0  0  0  0  0  0  0  0
    9.1133    9.7129    0.4262 H   0  0  0  0  0  0  0  0  0  0  0  0
    9.5800    8.6971   -1.7606 H   0  0  0  0  0  0  0  0  0  0  0  0
    9.7362    7.3192   -0.6710 H   0  0  0  0  0  0  0  0  0  0  0  0
   11.5602    8.1944   -2.9352 H   0  0  0  0  0  0  0  0  0  0  0  0
   10.6482    6.6915   -2.7880 H   0  0  0  0  0  0  0  0  0  0  0  0
   10.6791    1.9764    4.8638 H   0  0  0  0  0  0  0  0  0  0  0  0
    6.0219    3.2185    3.8655 H   0  0  0  0  0  0  0  0  0  0  0  0
  1  2  1  0  0  0  0
  1 33  1  0  0  0  0
  1 34  1  0  0  0  0
  1 35  1  0  0  0  0
  2  3  1  0  0  0  0
  3  4  1  0  0  0  0
  3 36  1  0  0  0  0
  3 37  1  0  0  0  0
  4  5  1  0  0  0  0
  4 38  1  0  0  0  0
  4 39  1  0  0  0  0
  5  6  1  0  0  0  0
  6  7  1  0  0  0  0
  6 32  2  0  0  0  0
  7  8  2  0  0  0  0
  7 40  1  0  0  0  0
  8  9  1  0  0  0  0
  8 41  1  0  0  0  0
  9 10  1  0  0  0  0
  9 31  1  0  0  0  0
 10 11  1  0  0  0  0
 10 29  2  0  0  0  0
 11 12  1  0  0  0  0
 11 28  2  0  0  0  0
 12 13  2  0  0  0  0
 12 42  1  0  0  0  0
 13 14  1  0  0  0  0
 13 43  1  0  0  0  0
 14 15  1  0  0  0  0
 14 27  2  0  0  0  0
 15 16  2  0  0  0  0
 15 44  1  0  0  0  0
 16 17  1  0  0  0  0
 16 45  1  0  0  0  0
 17 18  2  0  0  0  0
 17 46  1  0  0  0  0
 18 19  1  0  0  0  0
 18 27  1  0  0  0  0
 19 20  1  0  0  0  0
 20 21  1  0  0  0  0
 20 26  1  0  0  0  0
 20 47  1  0  0  0  0
 21 22  1  0  0  0  0
 21 48  1  0  0  0  0
 21 49  1  0  0  0  0
 22 23  1  0  0  0  0
 22 50  1  0  0  0  0
 22 51  1  0  0  0  0
 23 24  1  0  0  0  0
 23 25  1  0  0  0  0
 24 52  1  0  0  0  0
 24 53  1  0  0  0  0
 24 54  1  0  0  0  0
 25 26  1  0  0  0  0
 25 55  1  0  0  0  0
 25 56  1  0  0  0  0
 26 57  1  0  0  0  0
 26 58  1  0  0  0  0
 27 28  1  0  0  0  0
 29 30  1  0  0  0  0
 29 59  1  0  0  0  0
 30 31  2  0  0  0  0
 31 32  1  0  0  0  0
 32 60  1  0  0  0  0
M  END
$$$$
