CHEMBL203907
 OpenBabel04072215363D

 36 38  0  0  0  0  0  0  0  0999 V2000
    2.8527    3.1333   -1.2748 N   0  0  0  0  0  0  0  0  0  0  0  0
    3.5630    2.2162   -1.2058 C   0  0  0  0  0  0  0  0  0  0  0  0
    4.4035    1.0794   -1.1405 C   0  0  0  0  0  0  0  0  0  0  0  0
    4.3052   -0.0213   -1.9553 C   0  0  0  0  0  0  0  0  0  0  0  0
    5.2069   -1.0188   -1.6906 N   0  0  0  0  0  0  0  0  0  0  0  0
    5.9655   -0.7217   -0.6551 C   0  0  0  0  0  0  0  0  0  0  0  0
    6.8658   -1.5474   -0.0665 N   0  0  0  0  0  0  0  0  0  0  0  0
    6.7852   -2.9498   -0.1125 C   0  0  0  0  0  0  0  0  0  0  0  0
    6.2069   -3.6152   -1.1750 C   0  0  0  0  0  0  0  0  0  0  0  0
    5.9860   -4.9723   -1.0989 C   0  0  0  0  0  0  0  0  0  0  0  0
    5.2896   -5.6198   -2.1016 N   0  0  0  0  0  0  0  0  0  0  0  0
    4.2640   -4.9415   -2.8956 C   0  0  0  0  0  0  0  0  0  0  0  0
    4.7886   -4.5533   -4.2720 C   0  0  0  0  0  0  0  0  0  0  0  0
    5.4567   -5.6706   -5.0772 C   0  0  0  0  0  0  0  0  0  0  0  0
    5.0789   -7.0485   -4.7399 N   0  0  0  0  0  0  0  0  0  0  0  0
    5.8276   -7.5343   -3.5552 C   0  0  0  0  0  0  0  0  0  0  0  0
    5.2941   -7.0762   -2.1811 C   0  0  0  0  0  0  0  0  0  0  0  0
    6.4567   -5.6551   -0.0458 N   0  0  0  0  0  0  0  0  0  0  0  0
    7.0770   -4.9496    0.9137 C   0  0  0  0  0  0  0  0  0  0  0  0
    7.2596   -3.6204    0.9441 N   0  0  0  0  0  0  0  0  0  0  0  0
    5.6873    0.8632   -0.0286 S   0  0  0  0  0  0  0  0  0  0  0  0
    3.5825   -0.1657   -2.7539 H   0  0  0  0  0  0  0  0  0  0  0  0
    7.2814   -1.2671    0.8138 H   0  0  0  0  0  0  0  0  0  0  0  0
    5.9144   -3.0798   -2.0627 H   0  0  0  0  0  0  0  0  0  0  0  0
    3.8698   -4.0527   -2.3849 H   0  0  0  0  0  0  0  0  0  0  0  0
    3.3877   -5.5923   -3.0171 H   0  0  0  0  0  0  0  0  0  0  0  0
    5.5103   -3.7324   -4.1775 H   0  0  0  0  0  0  0  0  0  0  0  0
    3.9497   -4.1449   -4.8496 H   0  0  0  0  0  0  0  0  0  0  0  0
    6.5471   -5.5515   -5.0492 H   0  0  0  0  0  0  0  0  0  0  0  0
    5.1859   -5.5073   -6.1287 H   0  0  0  0  0  0  0  0  0  0  0  0
    5.3503   -7.6403   -5.5255 H   0  0  0  0  0  0  0  0  0  0  0  0
    6.8893   -7.2693   -3.6452 H   0  0  0  0  0  0  0  0  0  0  0  0
    5.7859   -8.6293   -3.5700 H   0  0  0  0  0  0  0  0  0  0  0  0
    5.9178   -7.5420   -1.4099 H   0  0  0  0  0  0  0  0  0  0  0  0
    4.2786   -7.4627   -2.0260 H   0  0  0  0  0  0  0  0  0  0  0  0
    7.4578   -5.5137    1.7581 H   0  0  0  0  0  0  0  0  0  0  0  0
  1  2  3  0  0  0  0
  2  3  1  0  0  0  0
  3  4  2  0  0  0  0
  3 21  1  0  0  0  0
  4  5  1  0  0  0  0
  4 22  1  0  0  0  0
  5  6  2  0  0  0  0
  6  7  1  0  0  0  0
  6 21  1  0  0  0  0
  7  8  1  0  0  0  0
  7 23  1  0  0  0  0
  8  9  1  0  0  0  0
  8 20  2  0  0  0  0
  9 10  2  0  0  0  0
  9 24  1  0  0  0  0
 10 11  1  0  0  0  0
 10 18  1  0  0  0  0
 11 12  1  0  0  0  0
 11 17  1  0  0  0  0
 12 13  1  0  0  0  0
 12 25  1  0  0  0  0
 12 26  1  0  0  0  0
 13 14  1  0  0  0  0
 13 27  1  0  0  0  0
 13 28  1  0  0  0  0
 14 15  1  0  0  0  0
 14 29  1  0  0  0  0
 14 30  1  0  0  0  0
 15 16  1  0  0  0  0
 15 31  1  0  0  0  0
 16 17  1  0  0  0  0
 16 32  1  0  0  0  0
 16 33  1  0  0  0  0
 17 34  1  0  0  0  0
 17 35  1  0  0  0  0
 18 19  2  0  0  0  0
 19 20  1  0  0  0  0
 19 36  1  0  0  0  0
M  END
$$$$
