CHEMBL3644556
 OpenBabel04072215373D

 79 83  0  0  0  0  0  0  0  0999 V2000
   -1.3105   -3.3647   -7.0751 C   0  0  0  0  0  0  0  0  0  0  0  0
   -0.7939   -1.9837   -7.4873 C   0  0  0  0  0  0  0  0  0  0  0  0
   -0.7416   -1.0431   -6.2821 C   0  0  0  0  0  0  0  0  0  0  0  0
    0.5140   -2.1071   -8.2533 C   0  0  0  0  0  0  0  0  0  0  0  0
    0.4416   -2.3112   -9.6407 C   0  0  0  0  0  0  0  0  0  0  0  0
    1.5960   -2.4397  -10.4020 C   0  0  0  0  0  0  0  0  0  0  0  0
    2.8438   -2.3412   -9.7920 C   0  0  0  0  0  0  0  0  0  0  0  0
    2.9583   -2.1044   -8.4190 C   0  0  0  0  0  0  0  0  0  0  0  0
    4.2134   -1.9191   -7.7803 N   0  0  0  0  0  0  0  0  0  0  0  0
    5.3912   -1.6055   -8.4424 C   0  0  0  0  0  0  0  0  0  0  0  0
    5.4979   -1.3961   -9.6490 O   0  0  0  0  0  0  0  0  0  0  0  0
    6.6328   -1.4568   -7.6306 C   0  0  0  0  0  0  0  0  0  0  0  0
    6.8610   -2.1292   -6.4337 C   0  0  0  0  0  0  0  0  0  0  0  0
    8.1042   -1.9967   -5.8124 C   0  0  0  0  0  0  0  0  0  0  0  0
    9.1164   -1.2115   -6.3917 C   0  0  0  0  0  0  0  0  0  0  0  0
    8.9255   -0.5357   -7.6037 C   0  0  0  0  0  0  0  0  0  0  0  0
    9.9215    0.1972   -8.2180 N   0  0  0  0  0  0  0  0  0  0  0  0
    9.9962    0.3425   -9.6734 C   0  0  0  0  0  0  0  0  0  0  0  0
    9.7480    1.8066  -10.0398 C   0  0  0  0  0  0  0  0  0  0  0  0
   10.5994    2.7598   -9.2262 C   0  0  0  0  0  0  0  0  0  0  0  0
   11.1775    2.2947   -8.0195 C   0  0  0  0  0  0  0  0  0  0  0  0
   12.0008    3.1641   -7.3058 C   0  0  0  0  0  0  0  0  0  0  0  0
   12.2690    4.4313   -7.6770 N   0  0  0  0  0  0  0  0  0  0  0  0
   11.6845    4.8627   -8.8257 C   0  0  0  0  0  0  0  0  0  0  0  0
   10.8390    4.0951   -9.6196 C   0  0  0  0  0  0  0  0  0  0  0  0
   10.3170    4.7537  -10.8537 C   0  0  0  0  0  0  0  0  0  0  0  0
   11.0285    5.5383  -11.4667 O   0  0  0  0  0  0  0  0  0  0  0  0
    9.0231    4.4572  -11.2225 N   0  0  0  0  0  0  0  0  0  0  0  0
    8.3942    4.9923  -12.4261 C   0  0  0  0  0  0  0  0  0  0  0  0
    7.5269    3.9087  -13.0679 C   0  0  0  0  0  0  0  0  0  0  0  0
    6.8045    4.3567  -14.3487 C   0  0  0  0  0  0  0  0  0  0  0  0
    5.9006    3.3046  -14.8470 N   0  0  0  0  0  0  0  0  0  0  0  0
    6.5863    2.0892  -15.3418 C   0  0  0  0  0  0  0  0  0  0  0  0
    7.2165    2.2341  -16.7366 C   0  0  0  0  0  0  0  0  0  0  0  0
    6.2499    2.6588  -17.7033 O   0  0  0  0  0  0  0  0  0  0  0  0
    5.6538    3.8981  -17.3046 C   0  0  0  0  0  0  0  0  0  0  0  0
    4.9967    3.7860  -15.9176 C   0  0  0  0  0  0  0  0  0  0  0  0
   10.9810    0.8858   -7.4860 C   0  0  0  0  0  0  0  0  0  0  0  0
    7.6563   -0.6628   -8.1842 C   0  0  0  0  0  0  0  0  0  0  0  0
    1.7860   -2.0336   -7.6490 C   0  0  0  0  0  0  0  0  0  0  0  0
   -2.2836   -3.2814   -6.5837 H   0  0  0  0  0  0  0  0  0  0  0  0
   -0.6190   -3.8587   -6.3835 H   0  0  0  0  0  0  0  0  0  0  0  0
   -1.4334   -4.0172   -7.9465 H   0  0  0  0  0  0  0  0  0  0  0  0
   -1.5342   -1.5468   -8.1724 H   0  0  0  0  0  0  0  0  0  0  0  0
   -0.0953   -1.4300   -5.4845 H   0  0  0  0  0  0  0  0  0  0  0  0
   -1.7434   -0.9149   -5.8564 H   0  0  0  0  0  0  0  0  0  0  0  0
   -0.3734   -0.0542   -6.5714 H   0  0  0  0  0  0  0  0  0  0  0  0
   -0.5236   -2.3711  -10.1403 H   0  0  0  0  0  0  0  0  0  0  0  0
    1.5325   -2.6057  -11.4745 H   0  0  0  0  0  0  0  0  0  0  0  0
    3.7172   -2.4613  -10.4256 H   0  0  0  0  0  0  0  0  0  0  0  0
    4.2010   -1.8418   -6.7720 H   0  0  0  0  0  0  0  0  0  0  0  0
    6.1175   -2.7892   -5.9991 H   0  0  0  0  0  0  0  0  0  0  0  0
    8.3093   -2.5343   -4.8891 H   0  0  0  0  0  0  0  0  0  0  0  0
   10.0836   -1.1853   -5.8961 H   0  0  0  0  0  0  0  0  0  0  0  0
    9.3009   -0.3099  -10.2139 H   0  0  0  0  0  0  0  0  0  0  0  0
   10.9982    0.0400  -10.0063 H   0  0  0  0  0  0  0  0  0  0  0  0
    8.6943    2.0406   -9.8517 H   0  0  0  0  0  0  0  0  0  0  0  0
    9.9528    1.9286  -11.1091 H   0  0  0  0  0  0  0  0  0  0  0  0
   12.4906    2.8516   -6.3852 H   0  0  0  0  0  0  0  0  0  0  0  0
   11.9276    5.8899   -9.0927 H   0  0  0  0  0  0  0  0  0  0  0  0
    8.4186    4.0143  -10.5448 H   0  0  0  0  0  0  0  0  0  0  0  0
    9.1607    5.3406  -13.1261 H   0  0  0  0  0  0  0  0  0  0  0  0
    7.7892    5.8527  -12.1218 H   0  0  0  0  0  0  0  0  0  0  0  0
    6.7849    3.5663  -12.3346 H   0  0  0  0  0  0  0  0  0  0  0  0
    8.1774    3.0534  -13.2785 H   0  0  0  0  0  0  0  0  0  0  0  0
    7.5260    4.6727  -15.1099 H   0  0  0  0  0  0  0  0  0  0  0  0
    6.2027    5.2400  -14.0924 H   0  0  0  0  0  0  0  0  0  0  0  0
    5.8281    1.2966  -15.3926 H   0  0  0  0  0  0  0  0  0  0  0  0
    7.3354    1.7240  -14.6341 H   0  0  0  0  0  0  0  0  0  0  0  0
    7.6008    1.2621  -17.0652 H   0  0  0  0  0  0  0  0  0  0  0  0
    8.0573    2.9364  -16.7323 H   0  0  0  0  0  0  0  0  0  0  0  0
    4.8935    4.1483  -18.0517 H   0  0  0  0  0  0  0  0  0  0  0  0
    6.4137    4.6873  -17.3280 H   0  0  0  0  0  0  0  0  0  0  0  0
    4.1744    3.0618  -15.9904 H   0  0  0  0  0  0  0  0  0  0  0  0
    4.5340    4.7405  -15.6395 H   0  0  0  0  0  0  0  0  0  0  0  0
   10.7523    0.9560   -6.4165 H   0  0  0  0  0  0  0  0  0  0  0  0
   11.9190    0.3269   -7.6020 H   0  0  0  0  0  0  0  0  0  0  0  0
    7.4344   -0.1271   -9.1052 H   0  0  0  0  0  0  0  0  0  0  0  0
    1.8619   -1.8873   -6.5748 H   0  0  0  0  0  0  0  0  0  0  0  0
  1  2  1  0  0  0  0
  1 41  1  0  0  0  0
  1 42  1  0  0  0  0
  1 43  1  0  0  0  0
  2  3  1  0  0  0  0
  2  4  1  0  0  0  0
  2 44  1  0  0  0  0
  3 45  1  0  0  0  0
  3 46  1  0  0  0  0
  3 47  1  0  0  0  0
  4  5  1  0  0  0  0
  4 40  2  0  0  0  0
  5  6  2  0  0  0  0
  5 48  1  0  0  0  0
  6  7  1  0  0  0  0
  6 49  1  0  0  0  0
  7  8  2  0  0  0  0
  7 50  1  0  0  0  0
  8  9  1  0  0  0  0
  8 40  1  0  0  0  0
  9 10  1  0  0  0  0
  9 51  1  0  0  0  0
 10 11  2  0  0  0  0
 10 12  1  0  0  0  0
 12 13  1  0  0  0  0
 12 39  2  0  0  0  0
 13 14  2  0  0  0  0
 13 52  1  0  0  0  0
 14 15  1  0  0  0  0
 14 53  1  0  0  0  0
 15 16  2  0  0  0  0
 15 54  1  0  0  0  0
 16 17  1  0  0  0  0
 16 39  1  0  0  0  0
 17 18  1  0  0  0  0
 17 38  1  0  0  0  0
 18 19  1  0  0  0  0
 18 55  1  0  0  0  0
 18 56  1  0  0  0  0
 19 20  1  0  0  0  0
 19 57  1  0  0  0  0
 19 58  1  0  0  0  0
 20 21  1  0  0  0  0
 20 25  2  0  0  0  0
 21 22  2  0  0  0  0
 21 38  1  0  0  0  0
 22 23  1  0  0  0  0
 22 59  1  0  0  0  0
 23 24  2  0  0  0  0
 24 25  1  0  0  0  0
 24 60  1  0  0  0  0
 25 26  1  0  0  0  0
 26 27  2  0  0  0  0
 26 28  1  0  0  0  0
 28 29  1  0  0  0  0
 28 61  1  0  0  0  0
 29 30  1  0  0  0  0
 29 62  1  0  0  0  0
 29 63  1  0  0  0  0
 30 31  1  0  0  0  0
 30 64  1  0  0  0  0
 30 65  1  0  0  0  0
 31 32  1  0  0  0  0
 31 66  1  0  0  0  0
 31 67  1  0  0  0  0
 32 33  1  0  0  0  0
 32 37  1  0  0  0  0
 33 34  1  0  0  0  0
 33 68  1  0  0  0  0
 33 69  1  0  0  0  0
 34 35  1  0  0  0  0
 34 70  1  0  0  0  0
 34 71  1  0  0  0  0
 35 36  1  0  0  0  0
 36 37  1  0  0  0  0
 36 72  1  0  0  0  0
 36 73  1  0  0  0  0
 37 74  1  0  0  0  0
 37 75  1  0  0  0  0
 38 76  1  0  0  0  0
 38 77  1  0  0  0  0
 39 78  1  0  0  0  0
 40 79  1  0  0  0  0
M  END
$$$$
