CHEMBL3656049
 OpenBabel04072215373D

 50 53  0  0  0  0  0  0  0  0999 V2000
    1.1172   -0.4414    0.4686 C   0  0  0  0  0  0  0  0  0  0  0  0
    2.4334   -0.9658    0.2853 O   0  0  0  0  0  0  0  0  0  0  0  0
    3.0741   -0.4351   -0.7965 C   0  0  0  0  0  0  0  0  0  0  0  0
    2.5761    0.3851   -1.5559 O   0  0  0  0  0  0  0  0  0  0  0  0
    4.4343   -0.9290   -0.9651 C   0  0  0  0  0  0  0  0  0  0  0  0
    5.1107   -1.8902   -0.2348 C   0  0  0  0  0  0  0  0  0  0  0  0
    6.3774   -2.0174   -0.7513 N   0  0  0  0  0  0  0  0  0  0  0  0
    6.5493   -1.1504   -1.8083 C   0  0  0  0  0  0  0  0  0  0  0  0
    7.8004   -1.0168   -2.5469 C   0  0  0  0  0  0  0  0  0  0  0  0
    7.9130   -0.0996   -3.5841 C   0  0  0  0  0  0  0  0  0  0  0  0
    9.1524    0.1044   -4.1794 C   0  0  0  0  0  0  0  0  0  0  0  0
    9.3849    1.0487   -5.1623 O   0  0  0  0  0  0  0  0  0  0  0  0
    8.6609    2.2295   -5.1590 C   0  0  0  0  0  0  0  0  0  0  0  0
    8.2244    2.8603   -3.9898 C   0  0  0  0  0  0  0  0  0  0  0  0
    7.4179    3.9898   -4.0667 C   0  0  0  0  0  0  0  0  0  0  0  0
    7.1446    4.5681   -5.3045 C   0  0  0  0  0  0  0  0  0  0  0  0
    7.6956    4.0428   -6.4754 C   0  0  0  0  0  0  0  0  0  0  0  0
    7.5727    4.6873   -7.7270 N   0  0  0  0  0  0  0  0  0  0  0  0
    7.1911    6.0114   -7.9541 C   0  0  0  0  0  0  0  0  0  0  0  0
    6.8803    6.7932   -7.0594 O   0  0  0  0  0  0  0  0  0  0  0  0
    7.2375    6.4471   -9.3576 C   0  0  0  0  0  0  0  0  0  0  0  0
    7.5907    5.3305  -10.6177 S   0  0  0  0  0  0  0  0  0  0  0  0
    7.4920    6.5311  -11.8199 C   0  0  0  0  0  0  0  0  0  0  0  0
    7.1771    7.7610  -11.2911 C   0  0  0  0  0  0  0  0  0  0  0  0
    7.0246    7.7292   -9.8629 C   0  0  0  0  0  0  0  0  0  0  0  0
    6.6877    8.9501   -9.0611 C   0  0  0  0  0  0  0  0  0  0  0  0
    8.4178    2.8379   -6.4003 C   0  0  0  0  0  0  0  0  0  0  0  0
   10.2145   -0.7086   -3.8014 C   0  0  0  0  0  0  0  0  0  0  0  0
   10.0019   -1.6339   -2.7877 C   0  0  0  0  0  0  0  0  0  0  0  0
    8.8252   -1.7934   -2.1336 N   0  0  0  0  0  0  0  0  0  0  0  0
    5.3503   -0.4765   -1.9529 C   0  0  0  0  0  0  0  0  0  0  0  0
    0.7468   -0.7808    1.4385 H   0  0  0  0  0  0  0  0  0  0  0  0
    0.4508   -0.8188   -0.3131 H   0  0  0  0  0  0  0  0  0  0  0  0
    1.1224    0.6549    0.4716 H   0  0  0  0  0  0  0  0  0  0  0  0
    4.7968   -2.4909    0.6097 H   0  0  0  0  0  0  0  0  0  0  0  0
    7.1021   -2.6421   -0.4174 H   0  0  0  0  0  0  0  0  0  0  0  0
    7.0514    0.4776   -3.8932 H   0  0  0  0  0  0  0  0  0  0  0  0
    8.4716    2.4671   -3.0082 H   0  0  0  0  0  0  0  0  0  0  0  0
    7.0060    4.4313   -3.1634 H   0  0  0  0  0  0  0  0  0  0  0  0
    6.4988    5.4409   -5.3186 H   0  0  0  0  0  0  0  0  0  0  0  0
    7.9216    4.1916   -8.5368 H   0  0  0  0  0  0  0  0  0  0  0  0
    7.6658    6.2855  -12.8569 H   0  0  0  0  0  0  0  0  0  0  0  0
    7.0648    8.6516  -11.8982 H   0  0  0  0  0  0  0  0  0  0  0  0
    6.6894    9.8454   -9.6908 H   0  0  0  0  0  0  0  0  0  0  0  0
    7.4204    9.1109   -8.2640 H   0  0  0  0  0  0  0  0  0  0  0  0
    5.6906    8.8579   -8.6186 H   0  0  0  0  0  0  0  0  0  0  0  0
    8.8191    2.3767   -7.2998 H   0  0  0  0  0  0  0  0  0  0  0  0
   11.1842   -0.6224   -4.2771 H   0  0  0  0  0  0  0  0  0  0  0  0
   10.8038   -2.2910   -2.4593 H   0  0  0  0  0  0  0  0  0  0  0  0
    5.1333    0.2895   -2.6878 H   0  0  0  0  0  0  0  0  0  0  0  0
  1  2  1  0  0  0  0
  1 32  1  0  0  0  0
  1 33  1  0  0  0  0
  1 34  1  0  0  0  0
  2  3  1  0  0  0  0
  3  4  2  0  0  0  0
  3  5  1  0  0  0  0
  5  6  2  0  0  0  0
  5 31  1  0  0  0  0
  6  7  1  0  0  0  0
  6 35  1  0  0  0  0
  7  8  1  0  0  0  0
  7 36  1  0  0  0  0
  8  9  1  0  0  0  0
  8 31  2  0  0  0  0
  9 10  1  0  0  0  0
  9 30  2  0  0  0  0
 10 11  2  0  0  0  0
 10 37  1  0  0  0  0
 11 12  1  0  0  0  0
 11 28  1  0  0  0  0
 12 13  1  0  0  0  0
 13 14  1  0  0  0  0
 13 27  2  0  0  0  0
 14 15  2  0  0  0  0
 14 38  1  0  0  0  0
 15 16  1  0  0  0  0
 15 39  1  0  0  0  0
 16 17  2  0  0  0  0
 16 40  1  0  0  0  0
 17 18  1  0  0  0  0
 17 27  1  0  0  0  0
 18 19  1  0  0  0  0
 18 41  1  0  0  0  0
 19 20  2  0  0  0  0
 19 21  1  0  0  0  0
 21 22  1  0  0  0  0
 21 25  2  0  0  0  0
 22 23  1  0  0  0  0
 23 24  2  0  0  0  0
 23 42  1  0  0  0  0
 24 25  1  0  0  0  0
 24 43  1  0  0  0  0
 25 26  1  0  0  0  0
 26 44  1  0  0  0  0
 26 45  1  0  0  0  0
 26 46  1  0  0  0  0
 27 47  1  0  0  0  0
 28 29  2  0  0  0  0
 28 48  1  0  0  0  0
 29 30  1  0  0  0  0
 29 49  1  0  0  0  0
 31 50  1  0  0  0  0
M  END
$$$$
