CHEMBL3353362
 OpenBabel04072215363D

 66 72  0  0  1  0  0  0  0  0999 V2000
   -8.7878   -4.6664    6.3431 O   0  0  0  0  0  0  0  0  0  0  0  0
   -8.3336   -4.8282    5.2181 C   0  0  0  0  0  0  0  0  0  0  0  0
   -8.7451   -4.2114    4.0541 N   0  0  0  0  0  0  0  0  0  0  0  0
   -8.0520   -4.6947    2.9453 C   0  0  0  0  0  0  0  0  0  0  0  0
   -8.2676   -4.3343    1.6300 C   0  0  0  0  0  0  0  0  0  0  0  0
   -7.5212   -4.9961    0.6597 C   0  0  0  0  0  0  0  0  0  0  0  0
   -6.6300   -6.0218    1.0287 C   0  0  0  0  0  0  0  0  0  0  0  0
   -6.4393   -6.3721    2.3763 C   0  0  0  0  0  0  0  0  0  0  0  0
   -7.1194   -5.6660    3.3575 C   0  0  0  0  0  0  0  0  0  0  0  0
   -7.1804   -5.7445    4.8604 C   0  0  2  0  0  0  0  0  0  0  0  0
   -6.8884   -7.0078    5.6161 C   0  0  0  0  0  0  0  0  0  0  0  0
   -6.0269   -5.7816    5.8484 C   0  0  1  0  0  0  0  0  0  0  0  0
   -4.5516   -5.8374    5.5262 C   0  0  0  0  0  0  0  0  0  0  0  0
   -3.7153   -6.7308    6.2238 C   0  0  0  0  0  0  0  0  0  0  0  0
   -2.3290   -6.8082    6.0030 C   0  0  0  0  0  0  0  0  0  0  0  0
   -1.7475   -5.9523    5.0526 C   0  0  0  0  0  0  0  0  0  0  0  0
   -0.4446   -5.7411    4.5012 C   0  0  0  0  0  0  0  0  0  0  0  0
    0.7169   -6.5331    4.8033 C   0  0  0  0  0  0  0  0  0  0  0  0
    1.9295   -6.3472    4.2507 C   0  0  0  0  0  0  0  0  0  0  0  0
    3.1035   -7.2073    4.4700 C   0  0  0  0  0  0  0  0  0  0  0  0
    4.0301   -7.3472    3.4274 C   0  0  0  0  0  0  0  0  0  0  0  0
    5.1489   -8.1733    3.5680 C   0  0  0  0  0  0  0  0  0  0  0  0
    5.3688   -8.8743    4.7598 C   0  0  0  0  0  0  0  0  0  0  0  0
    6.5244   -9.8441    4.8836 C   0  0  0  0  0  0  0  0  0  0  0  0
    7.8603   -9.2488    4.6709 N   0  0  0  0  0  0  0  0  0  0  0  0
    8.1684   -8.2657    5.7249 C   0  0  0  0  0  0  0  0  0  0  0  0
    9.6063   -7.7548    5.6688 C   0  0  0  0  0  0  0  0  0  0  0  0
   10.6002   -8.9059    5.6926 C   0  0  0  0  0  0  0  0  0  0  0  0
   10.3029   -9.8498    4.5410 C   0  0  0  0  0  0  0  0  0  0  0  0
    8.8544  -10.3343    4.5832 C   0  0  0  0  0  0  0  0  0  0  0  0
    4.4637   -8.7075    5.8166 C   0  0  0  0  0  0  0  0  0  0  0  0
    3.3487   -7.8773    5.6749 C   0  0  0  0  0  0  0  0  0  0  0  0
   -0.4509   -4.7299    3.6199 N   0  0  0  0  0  0  0  0  0  0  0  0
   -1.7279   -4.3209    3.5961 N   0  0  0  0  0  0  0  0  0  0  0  0
   -2.5660   -5.0328    4.4083 C   0  0  0  0  0  0  0  0  0  0  0  0
   -3.9496   -4.9428    4.6251 C   0  0  0  0  0  0  0  0  0  0  0  0
   -9.5084   -3.5523    4.0284 H   0  0  0  0  0  0  0  0  0  0  0  0
   -8.9931   -3.5767    1.3562 H   0  0  0  0  0  0  0  0  0  0  0  0
   -7.6424   -4.7357   -0.3890 H   0  0  0  0  0  0  0  0  0  0  0  0
   -6.0879   -6.5557    0.2503 H   0  0  0  0  0  0  0  0  0  0  0  0
   -5.7802   -7.1957    2.6339 H   0  0  0  0  0  0  0  0  0  0  0  0
   -6.4549   -7.8476    5.0857 H   0  0  0  0  0  0  0  0  0  0  0  0
   -7.5714   -7.2983    6.4071 H   0  0  0  0  0  0  0  0  0  0  0  0
   -6.2225   -5.2573    6.7866 H   0  0  0  0  0  0  0  0  0  0  0  0
   -4.1513   -7.3827    6.9809 H   0  0  0  0  0  0  0  0  0  0  0  0
   -1.7270   -7.5145    6.5650 H   0  0  0  0  0  0  0  0  0  0  0  0
    0.5692   -7.3616    5.4889 H   0  0  0  0  0  0  0  0  0  0  0  0
    2.0680   -5.5373    3.5361 H   0  0  0  0  0  0  0  0  0  0  0  0
    3.8780   -6.8300    2.4822 H   0  0  0  0  0  0  0  0  0  0  0  0
    5.8471   -8.2780    2.7400 H   0  0  0  0  0  0  0  0  0  0  0  0
    6.3477  -10.6268    4.1328 H   0  0  0  0  0  0  0  0  0  0  0  0
    6.4842  -10.3452    5.8583 H   0  0  0  0  0  0  0  0  0  0  0  0
    7.9773   -8.6840    6.7215 H   0  0  0  0  0  0  0  0  0  0  0  0
    7.5127   -7.3942    5.6085 H   0  0  0  0  0  0  0  0  0  0  0  0
    9.7948   -7.0909    6.5201 H   0  0  0  0  0  0  0  0  0  0  0  0
    9.7538   -7.1593    4.7586 H   0  0  0  0  0  0  0  0  0  0  0  0
   10.5268   -9.4412    6.6473 H   0  0  0  0  0  0  0  0  0  0  0  0
   11.6241   -8.5223    5.6140 H   0  0  0  0  0  0  0  0  0  0  0  0
   10.9791  -10.7103    4.5870 H   0  0  0  0  0  0  0  0  0  0  0  0
   10.4964   -9.3408    3.5892 H   0  0  0  0  0  0  0  0  0  0  0  0
    8.7413  -11.0370    5.4188 H   0  0  0  0  0  0  0  0  0  0  0  0
    8.6690  -10.9004    3.6608 H   0  0  0  0  0  0  0  0  0  0  0  0
    4.6145   -9.2336    6.7568 H   0  0  0  0  0  0  0  0  0  0  0  0
    2.6691   -7.7658    6.5181 H   0  0  0  0  0  0  0  0  0  0  0  0
   -1.9714   -3.5518    2.9839 H   0  0  0  0  0  0  0  0  0  0  0  0
   -4.5443   -4.1931    4.1114 H   0  0  0  0  0  0  0  0  0  0  0  0
  1  2  2  0  0  0  0
  2  3  1  0  0  0  0
  2 10  1  0  0  0  0
  3  4  1  0  0  0  0
  3 37  1  0  0  0  0
  4  5  1  0  0  0  0
  4  9  2  0  0  0  0
  5  6  2  0  0  0  0
  5 38  1  0  0  0  0
  6  7  1  0  0  0  0
  6 39  1  0  0  0  0
  7  8  2  0  0  0  0
  7 40  1  0  0  0  0
  8  9  1  0  0  0  0
  8 41  1  0  0  0  0
 10  9  1  6  0  0  0
 10 11  1  0  0  0  0
 10 12  1  0  0  0  0
 11 12  1  0  0  0  0
 11 42  1  0  0  0  0
 11 43  1  0  0  0  0
 12 13  1  0  0  0  0
 12 44  1  1  0  0  0
 13 14  1  0  0  0  0
 13 36  2  0  0  0  0
 14 15  2  0  0  0  0
 14 45  1  0  0  0  0
 15 16  1  0  0  0  0
 15 46  1  0  0  0  0
 16 17  1  0  0  0  0
 16 35  2  0  0  0  0
 17 18  1  0  0  0  0
 17 33  2  0  0  0  0
 18 19  2  0  0  0  0
 18 47  1  0  0  0  0
 19 20  1  0  0  0  0
 19 48  1  0  0  0  0
 20 21  1  0  0  0  0
 20 32  2  0  0  0  0
 21 22  2  0  0  0  0
 21 49  1  0  0  0  0
 22 23  1  0  0  0  0
 22 50  1  0  0  0  0
 23 24  1  0  0  0  0
 23 31  2  0  0  0  0
 24 25  1  0  0  0  0
 24 51  1  0  0  0  0
 24 52  1  0  0  0  0
 25 26  1  0  0  0  0
 25 30  1  0  0  0  0
 26 27  1  0  0  0  0
 26 53  1  0  0  0  0
 26 54  1  0  0  0  0
 27 28  1  0  0  0  0
 27 55  1  0  0  0  0
 27 56  1  0  0  0  0
 28 29  1  0  0  0  0
 28 57  1  0  0  0  0
 28 58  1  0  0  0  0
 29 30  1  0  0  0  0
 29 59  1  0  0  0  0
 29 60  1  0  0  0  0
 30 61  1  0  0  0  0
 30 62  1  0  0  0  0
 31 32  1  0  0  0  0
 31 63  1  0  0  0  0
 32 64  1  0  0  0  0
 33 34  1  0  0  0  0
 34 35  1  0  0  0  0
 34 65  1  0  0  0  0
 35 36  1  0  0  0  0
 36 66  1  0  0  0  0
M  END
$$$$
