CHEMBL599247
 OpenBabel04072215383D

 39 43  0  0  0  0  0  0  0  0999 V2000
    1.0686    0.0598    0.1277 O   0  0  0  0  0  0  0  0  0  0  0  0
    2.2978    0.0684    0.1093 C   0  0  0  0  0  0  0  0  0  0  0  0
    3.0967   -0.6927   -0.9325 C   0  0  0  0  0  0  0  0  0  0  0  0
    4.3066   -1.3626   -0.3601 C   0  0  0  0  0  0  0  0  0  0  0  0
    4.3668   -2.8239   -0.3138 C   0  0  0  0  0  0  0  0  0  0  0  0
    5.3386   -3.5774    0.1178 N   0  0  0  0  0  0  0  0  0  0  0  0
    6.4436   -2.8733    0.5738 C   0  0  0  0  0  0  0  0  0  0  0  0
    8.0263   -2.8202    1.3550 C   0  0  0  0  0  0  0  0  0  0  0  0
    7.5123   -3.9705    1.1378 C   0  0  0  0  0  0  0  0  0  0  0  0
    8.7197   -5.2021    1.7413 C   0  0  0  0  0  0  0  0  0  0  0  0
    8.2786   -6.4715    2.2454 C   0  0  0  0  0  0  0  0  0  0  0  0
    9.0106   -7.3622    3.1363 C   0  0  0  0  0  0  0  0  0  0  0  0
   10.3615   -7.2161    3.3782 C   0  0  0  0  0  0  0  0  0  0  0  0
   10.9840   -6.2130    2.6534 C   0  0  0  0  0  0  0  0  0  0  0  0
   10.1741   -5.1737    1.9320 C   0  0  0  0  0  0  0  0  0  0  0  0
    7.4315   -2.2558    1.2408 N   0  0  0  0  0  0  0  0  0  0  0  0
    6.4652   -1.5041    0.7036 N   0  0  0  0  0  0  0  0  0  0  0  0
    5.4288   -0.7639    0.1256 C   0  0  0  0  0  0  0  0  0  0  0  0
    5.3649    0.7520    0.1016 C   0  0  0  0  0  0  0  0  0  0  0  0
    6.4352    1.5074   -0.3967 C   0  0  0  0  0  0  0  0  0  0  0  0
    6.3897    2.9069   -0.4460 C   0  0  0  0  0  0  0  0  0  0  0  0
    5.2697    3.5921    0.0065 C   0  0  0  0  0  0  0  0  0  0  0  0
    4.1868    2.8798    0.5120 C   0  0  0  0  0  0  0  0  0  0  0  0
    4.2293    1.4757    0.5477 C   0  0  0  0  0  0  0  0  0  0  0  0
    3.0744    0.7986    0.9876 N   0  0  0  0  0  0  0  0  0  0  0  0
    3.4151   -0.0002   -1.7113 H   0  0  0  0  0  0  0  0  0  0  0  0
    2.4399   -1.4683   -1.3366 H   0  0  0  0  0  0  0  0  0  0  0  0
    3.5187   -3.3452   -0.7622 H   0  0  0  0  0  0  0  0  0  0  0  0
    8.9861   -2.9799    1.8553 H   0  0  0  0  0  0  0  0  0  0  0  0
    7.3120   -6.8445    1.9465 H   0  0  0  0  0  0  0  0  0  0  0  0
    8.4995   -8.1691    3.6713 H   0  0  0  0  0  0  0  0  0  0  0  0
   10.8757   -7.8764    4.0832 H   0  0  0  0  0  0  0  0  0  0  0  0
   12.0902   -6.2195    2.6881 H   0  0  0  0  0  0  0  0  0  0  0  0
   10.8177   -4.3663    1.5866 H   0  0  0  0  0  0  0  0  0  0  0  0
    7.3185    1.0068   -0.7652 H   0  0  0  0  0  0  0  0  0  0  0  0
    7.2387    3.4604   -0.8365 H   0  0  0  0  0  0  0  0  0  0  0  0
    5.2483    4.6780   -0.0367 H   0  0  0  0  0  0  0  0  0  0  0  0
    3.3083    3.4352    0.8338 H   0  0  0  0  0  0  0  0  0  0  0  0
    2.7747    0.9170    1.9471 H   0  0  0  0  0  0  0  0  0  0  0  0
  1  2  2  0  0  0  0
  2  3  1  0  0  0  0
  2 25  1  0  0  0  0
  3  4  1  0  0  0  0
  3 26  1  0  0  0  0
  3 27  1  0  0  0  0
  4  5  1  0  0  0  0
  4 18  2  0  0  0  0
  5  6  2  0  0  0  0
  5 28  1  0  0  0  0
  6  7  1  0  0  0  0
  7  8  2  0  0  0  0
  7 17  1  0  0  0  0
  8  9  1  0  0  0  0
  8 29  1  0  0  0  0
  9 10  1  0  0  0  0
  9 16  2  0  0  0  0
 10 11  1  0  0  0  0
 10 15  2  0  0  0  0
 11 12  2  0  0  0  0
 11 30  1  0  0  0  0
 12 13  1  0  0  0  0
 12 31  1  0  0  0  0
 13 14  2  0  0  0  0
 13 32  1  0  0  0  0
 14 15  1  0  0  0  0
 14 33  1  0  0  0  0
 15 34  1  0  0  0  0
 16 17  1  0  0  0  0
 17 18  1  0  0  0  0
 18 19  1  0  0  0  0
 19 20  1  0  0  0  0
 19 24  2  0  0  0  0
 20 21  2  0  0  0  0
 20 35  1  0  0  0  0
 21 22  1  0  0  0  0
 21 36  1  0  0  0  0
 22 23  2  0  0  0  0
 22 37  1  0  0  0  0
 23 24  1  0  0  0  0
 23 38  1  0  0  0  0
 24 25  1  0  0  0  0
 25 39  1  0  0  0  0
M  END
$$$$
