CHEMBL3895469
 OpenBabel04072215373D

 43 46  0  0  0  0  0  0  0  0999 V2000
    2.7450   -0.0998   -1.3230 C   0  0  0  0  0  0  0  0  0  0  0  0
    1.3396   -0.0457   -0.7872 C   0  0  0  0  0  0  0  0  0  0  0  0
    0.7457   -1.1885   -0.2441 C   0  0  0  0  0  0  0  0  0  0  0  0
   -0.5600   -1.1266    0.2557 C   0  0  0  0  0  0  0  0  0  0  0  0
   -1.2766    0.0686    0.2132 C   0  0  0  0  0  0  0  0  0  0  0  0
   -2.5215    0.0773    0.7161 F   0  0  0  0  0  0  0  0  0  0  0  0
   -0.7228    1.2215   -0.3294 C   0  0  0  0  0  0  0  0  0  0  0  0
   -1.4485    2.5209   -0.4198 C   0  0  0  0  0  0  0  0  0  0  0  0
   -0.8240    3.4502   -0.9327 O   0  0  0  0  0  0  0  0  0  0  0  0
   -2.7404    2.6298    0.1146 N   0  0  0  0  0  0  0  0  0  0  0  0
   -3.4977    3.8386    0.1136 C   0  0  0  0  0  0  0  0  0  0  0  0
   -3.1759    4.8813   -0.7596 C   0  0  0  0  0  0  0  0  0  0  0  0
   -3.8402    6.1031   -0.6957 C   0  0  0  0  0  0  0  0  0  0  0  0
   -4.8234    6.3128    0.2785 C   0  0  0  0  0  0  0  0  0  0  0  0
   -5.1832    5.2906    1.1569 C   0  0  0  0  0  0  0  0  0  0  0  0
   -6.1222    5.5999    2.2219 C   0  0  0  0  0  0  0  0  0  0  0  0
   -6.8676    5.9103    3.1237 C   0  0  0  0  0  0  0  0  0  0  0  0
   -7.7768    6.1721    4.2420 C   0  0  0  0  0  0  0  0  0  0  0  0
   -8.4598    5.0298    4.9135 C   0  0  0  0  0  0  0  0  0  0  0  0
   -9.2696    5.3004    5.9373 C   0  0  0  0  0  0  0  0  0  0  0  0
   -9.4523    6.6395    6.3388 C   0  0  0  0  0  0  0  0  0  0  0  0
  -10.1841    7.1546    7.2996 N   0  0  0  0  0  0  0  0  0  0  0  0
   -9.9768    8.5048    7.2266 C   0  0  0  0  0  0  0  0  0  0  0  0
   -9.1046    8.8100    6.2023 C   0  0  0  0  0  0  0  0  0  0  0  0
   -8.7604    7.6124    5.6266 N   0  0  0  0  0  0  0  0  0  0  0  0
   -7.8978    7.4214    4.5571 N   0  0  0  0  0  0  0  0  0  0  0  0
   -4.5557    4.0290    1.0316 C   0  0  0  0  0  0  0  0  0  0  0  0
    0.6017    1.1495   -0.8268 C   0  0  0  0  0  0  0  0  0  0  0  0
    3.1764   -1.1012   -1.2183 H   0  0  0  0  0  0  0  0  0  0  0  0
    3.3892    0.5958   -0.7758 H   0  0  0  0  0  0  0  0  0  0  0  0
    2.7583    0.1558   -2.3873 H   0  0  0  0  0  0  0  0  0  0  0  0
    1.2897   -2.1286   -0.2058 H   0  0  0  0  0  0  0  0  0  0  0  0
   -1.0183   -2.0168    0.6769 H   0  0  0  0  0  0  0  0  0  0  0  0
   -3.0800    1.8628    0.6847 H   0  0  0  0  0  0  0  0  0  0  0  0
   -2.3982    4.7751   -1.5056 H   0  0  0  0  0  0  0  0  0  0  0  0
   -3.5645    6.8956   -1.3871 H   0  0  0  0  0  0  0  0  0  0  0  0
   -5.2837    7.2948    0.3421 H   0  0  0  0  0  0  0  0  0  0  0  0
   -8.2717    4.0234    4.5600 H   0  0  0  0  0  0  0  0  0  0  0  0
   -9.7940    4.5185    6.4792 H   0  0  0  0  0  0  0  0  0  0  0  0
  -10.4657    9.1842    7.9144 H   0  0  0  0  0  0  0  0  0  0  0  0
   -8.7113    9.7500    5.8472 H   0  0  0  0  0  0  0  0  0  0  0  0
   -4.8506    3.2186    1.6910 H   0  0  0  0  0  0  0  0  0  0  0  0
    1.0637    2.0417   -1.2547 H   0  0  0  0  0  0  0  0  0  0  0  0
  1  2  1  0  0  0  0
  1 29  1  0  0  0  0
  1 30  1  0  0  0  0
  1 31  1  0  0  0  0
  2  3  1  0  0  0  0
  2 28  2  0  0  0  0
  3  4  2  0  0  0  0
  3 32  1  0  0  0  0
  4  5  1  0  0  0  0
  4 33  1  0  0  0  0
  5  6  1  0  0  0  0
  5  7  2  0  0  0  0
  7  8  1  0  0  0  0
  7 28  1  0  0  0  0
  8  9  2  0  0  0  0
  8 10  1  0  0  0  0
 10 11  1  0  0  0  0
 10 34  1  0  0  0  0
 11 12  1  0  0  0  0
 11 27  2  0  0  0  0
 12 13  2  0  0  0  0
 12 35  1  0  0  0  0
 13 14  1  0  0  0  0
 13 36  1  0  0  0  0
 14 15  2  0  0  0  0
 14 37  1  0  0  0  0
 15 16  1  0  0  0  0
 15 27  1  0  0  0  0
 16 17  3  0  0  0  0
 17 18  1  0  0  0  0
 18 19  1  0  0  0  0
 18 26  2  0  0  0  0
 19 20  2  0  0  0  0
 19 38  1  0  0  0  0
 20 21  1  0  0  0  0
 20 39  1  0  0  0  0
 21 22  2  0  0  0  0
 21 25  1  0  0  0  0
 22 23  1  0  0  0  0
 23 24  2  0  0  0  0
 23 40  1  0  0  0  0
 24 25  1  0  0  0  0
 24 41  1  0  0  0  0
 25 26  1  0  0  0  0
 27 42  1  0  0  0  0
 28 43  1  0  0  0  0
M  END
$$$$
