CHEMBL296586
 OpenBabel04072215363D

 31 34  0  0  0  0  0  0  0  0999 V2000
    1.0679   -0.0848   -0.0044 O   0  0  0  0  0  0  0  0  0  0  0  0
    2.2986    0.0107    0.0216 C   0  0  0  0  0  0  0  0  0  0  0  0
    3.0210    1.0437   -0.8150 C   0  0  0  0  0  0  0  0  0  0  0  0
    3.8790    1.9107    0.0224 C   0  0  0  0  0  0  0  0  0  0  0  0
    4.8898    1.4299    0.8318 C   0  0  0  0  0  0  0  0  0  0  0  0
    5.4284    2.5132    1.4872 N   0  0  0  0  0  0  0  0  0  0  0  0
    4.8220    3.6816    1.0804 C   0  0  0  0  0  0  0  0  0  0  0  0
    5.0568    5.0070    1.4663 C   0  0  0  0  0  0  0  0  0  0  0  0
    4.2792    6.0045    0.8678 C   0  0  0  0  0  0  0  0  0  0  0  0
    3.3061    5.6776   -0.0731 C   0  0  0  0  0  0  0  0  0  0  0  0
    2.2818    7.0530   -0.8749 Br  0  0  0  0  0  0  0  0  0  0  0  0
    3.0717    4.3504   -0.4414 C   0  0  0  0  0  0  0  0  0  0  0  0
    3.8465    3.3301    0.1486 C   0  0  0  0  0  0  0  0  0  0  0  0
    5.3091    0.0385    1.0192 C   0  0  0  0  0  0  0  0  0  0  0  0
    6.6655   -0.2377    1.2728 C   0  0  0  0  0  0  0  0  0  0  0  0
    7.1092   -1.5440    1.4883 C   0  0  0  0  0  0  0  0  0  0  0  0
    6.2004   -2.5944    1.4765 C   0  0  0  0  0  0  0  0  0  0  0  0
    4.8505   -2.3396    1.2376 C   0  0  0  0  0  0  0  0  0  0  0  0
    4.3945   -1.0378    0.9717 C   0  0  0  0  0  0  0  0  0  0  0  0
    3.0110   -0.9314    0.7134 N   0  0  0  0  0  0  0  0  0  0  0  0
    2.2725    1.6338   -1.3535 H   0  0  0  0  0  0  0  0  0  0  0  0
    3.6210    0.5227   -1.5704 H   0  0  0  0  0  0  0  0  0  0  0  0
    6.1592    2.4652    2.1824 H   0  0  0  0  0  0  0  0  0  0  0  0
    5.8142    5.2603    2.2015 H   0  0  0  0  0  0  0  0  0  0  0  0
    4.4436    7.0423    1.1467 H   0  0  0  0  0  0  0  0  0  0  0  0
    2.3081    4.1035   -1.1729 H   0  0  0  0  0  0  0  0  0  0  0  0
    7.4015    0.5627    1.2850 H   0  0  0  0  0  0  0  0  0  0  0  0
    8.1642   -1.7393    1.6633 H   0  0  0  0  0  0  0  0  0  0  0  0
    6.5407   -3.6140    1.6397 H   0  0  0  0  0  0  0  0  0  0  0  0
    4.1611   -3.1811    1.2176 H   0  0  0  0  0  0  0  0  0  0  0  0
    2.4192   -1.6886    1.0322 H   0  0  0  0  0  0  0  0  0  0  0  0
  1  2  2  0  0  0  0
  2  3  1  0  0  0  0
  2 20  1  0  0  0  0
  3  4  1  0  0  0  0
  3 21  1  0  0  0  0
  3 22  1  0  0  0  0
  4  5  2  0  0  0  0
  4 13  1  0  0  0  0
  5  6  1  0  0  0  0
  5 14  1  0  0  0  0
  6  7  1  0  0  0  0
  6 23  1  0  0  0  0
  7  8  1  0  0  0  0
  7 13  2  0  0  0  0
  8  9  2  0  0  0  0
  8 24  1  0  0  0  0
  9 10  1  0  0  0  0
  9 25  1  0  0  0  0
 10 11  1  0  0  0  0
 10 12  2  0  0  0  0
 12 13  1  0  0  0  0
 12 26  1  0  0  0  0
 14 15  1  0  0  0  0
 14 19  2  0  0  0  0
 15 16  2  0  0  0  0
 15 27  1  0  0  0  0
 16 17  1  0  0  0  0
 16 28  1  0  0  0  0
 17 18  2  0  0  0  0
 17 29  1  0  0  0  0
 18 19  1  0  0  0  0
 18 30  1  0  0  0  0
 19 20  1  0  0  0  0
 20 31  1  0  0  0  0
M  END
$$$$
