CHEMBL4067871
 OpenBabel04072215383D

 56 60  0  0  1  0  0  0  0  0999 V2000
    5.0958   -0.6776   -0.4451 O   0  0  0  0  0  0  0  0  0  0  0  0
    4.2690   -0.2828   -1.5451 C   0  0  0  0  0  0  0  0  0  0  0  0
    2.7478   -0.5282   -1.3126 C   0  0  2  0  0  0  0  0  0  0  0  0
    2.3153    0.0886   -0.0540 N   0  0  0  0  0  0  0  0  0  0  0  0
    1.1420    0.8087    0.1149 C   0  0  0  0  0  0  0  0  0  0  0  0
    0.4686    1.5030   -0.8760 C   0  0  0  0  0  0  0  0  0  0  0  0
   -0.5985    2.3188   -0.6761 N   0  0  0  0  0  0  0  0  0  0  0  0
   -1.0725    2.4921    0.5952 C   0  0  0  0  0  0  0  0  0  0  0  0
   -2.1842    3.4884    0.6466 C   0  0  0  0  0  0  0  0  0  0  0  0
   -3.1505    3.5005   -0.3855 C   0  0  0  0  0  0  0  0  0  0  0  0
   -4.2217    4.3968   -0.3773 C   0  0  0  0  0  0  0  0  0  0  0  0
   -5.3474    4.4040   -1.6801 Cl  0  0  0  0  0  0  0  0  0  0  0  0
   -4.3845    5.2926    0.6729 C   0  0  0  0  0  0  0  0  0  0  0  0
   -3.4385    5.3265    1.6934 C   0  0  0  0  0  0  0  0  0  0  0  0
   -2.3361    4.4621    1.6545 C   0  0  0  0  0  0  0  0  0  0  0  0
   -1.3738    4.6073    2.6172 O   0  0  0  0  0  0  0  0  0  0  0  0
   -0.5352    1.7705    1.6849 C   0  0  0  0  0  0  0  0  0  0  0  0
   -1.0894    1.7459    3.0732 C   0  0  0  0  0  0  0  0  0  0  0  0
   -0.2415    1.7195    4.1970 C   0  0  0  0  0  0  0  0  0  0  0  0
   -0.7462    1.6401    5.5013 C   0  0  0  0  0  0  0  0  0  0  0  0
   -2.1296    1.6287    5.7276 C   0  0  0  0  0  0  0  0  0  0  0  0
   -2.6959    1.5504    7.0041 C   0  0  0  0  0  0  0  0  0  0  0  0
   -4.0254    1.5755    7.2572 N   0  0  0  0  0  0  0  0  0  0  0  0
   -4.8377    1.6853    6.1867 C   0  0  0  0  0  0  0  0  0  0  0  0
   -4.3857    1.7515    4.8778 C   0  0  0  0  0  0  0  0  0  0  0  0
   -3.0068    1.7022    4.6337 C   0  0  0  0  0  0  0  0  0  0  0  0
   -2.4765    1.7201    3.3270 C   0  0  0  0  0  0  0  0  0  0  0  0
    0.6052    0.9676    1.3982 C   0  0  0  0  0  0  0  0  0  0  0  0
    2.3599   -2.0091   -1.3313 C   0  0  0  0  0  0  0  0  0  0  0  0
    1.1648   -2.3909   -1.9629 C   0  0  0  0  0  0  0  0  0  0  0  0
    0.8149   -3.7366   -2.0707 C   0  0  0  0  0  0  0  0  0  0  0  0
    1.6401   -4.7233   -1.5384 C   0  0  0  0  0  0  0  0  0  0  0  0
    2.8057   -4.3559   -0.8691 C   0  0  0  0  0  0  0  0  0  0  0  0
    3.1529   -3.0111   -0.7558 C   0  0  0  0  0  0  0  0  0  0  0  0
    6.0174   -0.5530   -0.7313 H   0  0  0  0  0  0  0  0  0  0  0  0
    4.6059   -0.8255   -2.4359 H   0  0  0  0  0  0  0  0  0  0  0  0
    4.4461    0.7859   -1.7070 H   0  0  0  0  0  0  0  0  0  0  0  0
    2.2628   -0.0539   -2.1732 H   0  0  0  0  0  0  0  0  0  0  0  0
    2.6387   -0.4365    0.7537 H   0  0  0  0  0  0  0  0  0  0  0  0
    0.7815    1.4637   -1.9136 H   0  0  0  0  0  0  0  0  0  0  0  0
   -3.0516    2.8047   -1.2179 H   0  0  0  0  0  0  0  0  0  0  0  0
   -5.2253    5.9813    0.6880 H   0  0  0  0  0  0  0  0  0  0  0  0
   -3.5557    6.0482    2.4967 H   0  0  0  0  0  0  0  0  0  0  0  0
   -1.7461    5.0895    3.3737 H   0  0  0  0  0  0  0  0  0  0  0  0
    0.8394    1.7621    4.0717 H   0  0  0  0  0  0  0  0  0  0  0  0
   -0.0496    1.5981    6.3358 H   0  0  0  0  0  0  0  0  0  0  0  0
   -2.0737    1.4589    7.8907 H   0  0  0  0  0  0  0  0  0  0  0  0
   -5.9000    1.7166    6.4132 H   0  0  0  0  0  0  0  0  0  0  0  0
   -5.1000    1.8460    4.0666 H   0  0  0  0  0  0  0  0  0  0  0  0
   -3.1730    1.7228    2.4904 H   0  0  0  0  0  0  0  0  0  0  0  0
    1.0821    0.4218    2.2100 H   0  0  0  0  0  0  0  0  0  0  0  0
    0.5000   -1.6399   -2.3852 H   0  0  0  0  0  0  0  0  0  0  0  0
   -0.1074   -4.0204   -2.5752 H   0  0  0  0  0  0  0  0  0  0  0  0
    1.3775   -5.7714   -1.6381 H   0  0  0  0  0  0  0  0  0  0  0  0
    3.4484   -5.1214   -0.4405 H   0  0  0  0  0  0  0  0  0  0  0  0
    4.0651   -2.7652   -0.2152 H   0  0  0  0  0  0  0  0  0  0  0  0
  1  2  1  0  0  0  0
  1 35  1  0  0  0  0
  2 36  1  0  0  0  0
  2 37  1  0  0  0  0
  3 29  1  0  0  0  0
  3  4  1  0  0  0  0
  3  2  1  0  0  0  0
  3 38  1  6  0  0  0
  4  5  1  0  0  0  0
  4 39  1  0  0  0  0
  5  6  1  0  0  0  0
  5 28  2  0  0  0  0
  6  7  2  0  0  0  0
  6 40  1  0  0  0  0
  7  8  1  0  0  0  0
  8  9  1  0  0  0  0
  8 17  2  0  0  0  0
  9 10  1  0  0  0  0
  9 15  2  0  0  0  0
 10 11  2  0  0  0  0
 10 41  1  0  0  0  0
 11 12  1  0  0  0  0
 11 13  1  0  0  0  0
 13 14  2  0  0  0  0
 13 42  1  0  0  0  0
 14 15  1  0  0  0  0
 14 43  1  0  0  0  0
 15 16  1  0  0  0  0
 16 44  1  0  0  0  0
 17 18  1  0  0  0  0
 17 28  1  0  0  0  0
 18 19  1  0  0  0  0
 18 27  2  0  0  0  0
 19 20  2  0  0  0  0
 19 45  1  0  0  0  0
 20 21  1  0  0  0  0
 20 46  1  0  0  0  0
 21 22  1  0  0  0  0
 21 26  2  0  0  0  0
 22 23  2  0  0  0  0
 22 47  1  0  0  0  0
 23 24  1  0  0  0  0
 24 25  2  0  0  0  0
 24 48  1  0  0  0  0
 25 26  1  0  0  0  0
 25 49  1  0  0  0  0
 26 27  1  0  0  0  0
 27 50  1  0  0  0  0
 28 51  1  0  0  0  0
 29 30  1  0  0  0  0
 29 34  2  0  0  0  0
 30 31  2  0  0  0  0
 30 52  1  0  0  0  0
 31 32  1  0  0  0  0
 31 53  1  0  0  0  0
 32 33  2  0  0  0  0
 32 54  1  0  0  0  0
 33 34  1  0  0  0  0
 33 55  1  0  0  0  0
 34 56  1  0  0  0  0
M  END
$$$$
