CHEMBL192100
 OpenBabel04072215363D

 61 63  0  0  0  0  0  0  0  0999 V2000
    6.4525    0.6534    0.2715 C   0  0  0  0  0  0  0  0  0  0  0  0
    5.2628   -0.1584    0.7541 C   0  0  0  0  0  0  0  0  0  0  0  0
    5.1208   -1.2889   -0.1146 O   0  0  0  0  0  0  0  0  0  0  0  0
    4.3872   -1.0763   -1.2489 C   0  0  0  0  0  0  0  0  0  0  0  0
    3.6046   -0.1454   -1.3883 O   0  0  0  0  0  0  0  0  0  0  0  0
    4.7300   -2.0348   -2.3064 C   0  0  0  0  0  0  0  0  0  0  0  0
    5.5975   -3.0915   -2.1124 C   0  0  0  0  0  0  0  0  0  0  0  0
    5.7518   -3.7639   -3.2795 N   0  0  0  0  0  0  0  0  0  0  0  0
    6.5259   -4.8483   -3.4075 N   0  0  0  0  0  0  0  0  0  0  0  0
    6.5852   -5.3067   -4.6114 C   0  0  0  0  0  0  0  0  0  0  0  0
    5.9594   -4.7888   -5.7076 N   0  0  0  0  0  0  0  0  0  0  0  0
    5.1860   -3.7467   -5.5927 C   0  0  0  0  0  0  0  0  0  0  0  0
    4.5470   -3.2733   -6.7240 N   0  0  0  0  0  0  0  0  0  0  0  0
    4.9917   -3.5135   -8.0479 C   0  0  0  0  0  0  0  0  0  0  0  0
    6.3478   -3.4567   -8.4033 C   0  0  0  0  0  0  0  0  0  0  0  0
    6.7537   -3.6340   -9.7368 C   0  0  0  0  0  0  0  0  0  0  0  0
    8.2109   -3.5840  -10.0526 C   0  0  0  0  0  0  0  0  0  0  0  0
    9.0158   -3.3627   -9.1574 O   0  0  0  0  0  0  0  0  0  0  0  0
    8.5523   -3.8281  -11.3630 N   0  0  0  0  0  0  0  0  0  0  0  0
    9.9073   -3.6520  -11.7091 O   0  0  0  0  0  0  0  0  0  0  0  0
   10.5310   -4.9382  -11.6582 C   0  0  0  0  0  0  0  0  0  0  0  0
   12.0067   -4.8200  -12.0414 C   0  0  0  0  0  0  0  0  0  0  0  0
   12.7539   -3.8849  -11.0900 C   0  0  0  0  0  0  0  0  0  0  0  0
   12.6479   -6.2059  -12.0466 C   0  0  0  0  0  0  0  0  0  0  0  0
    5.7801   -3.8693  -10.7130 C   0  0  0  0  0  0  0  0  0  0  0  0
    6.1151   -4.0254  -12.0037 F   0  0  0  0  0  0  0  0  0  0  0  0
    4.4326   -3.9408  -10.3827 C   0  0  0  0  0  0  0  0  0  0  0  0
    4.0526   -3.7569   -9.0601 C   0  0  0  0  0  0  0  0  0  0  0  0
    2.7507   -3.8250   -8.7433 F   0  0  0  0  0  0  0  0  0  0  0  0
    5.0281   -3.1640   -4.2757 C   0  0  0  0  0  0  0  0  0  0  0  0
    4.3472   -2.0712   -3.7144 C   0  0  0  0  0  0  0  0  0  0  0  0
    3.4288   -1.0460   -4.3618 C   0  0  0  0  0  0  0  0  0  0  0  0
    4.1293   -0.1676   -5.3969 C   0  0  0  0  0  0  0  0  0  0  0  0
    2.1226   -1.6355   -4.8872 C   0  0  0  0  0  0  0  0  0  0  0  0
    6.6401    1.5112    0.9216 H   0  0  0  0  0  0  0  0  0  0  0  0
    6.2884    1.0133   -0.7500 H   0  0  0  0  0  0  0  0  0  0  0  0
    7.3512    0.0271    0.2403 H   0  0  0  0  0  0  0  0  0  0  0  0
    4.3514    0.4475    0.7991 H   0  0  0  0  0  0  0  0  0  0  0  0
    5.4547   -0.5378    1.7629 H   0  0  0  0  0  0  0  0  0  0  0  0
    6.1406   -3.4105   -1.2325 H   0  0  0  0  0  0  0  0  0  0  0  0
    7.1945   -6.2088   -4.7912 H   0  0  0  0  0  0  0  0  0  0  0  0
    3.5392   -3.3356   -6.6626 H   0  0  0  0  0  0  0  0  0  0  0  0
    7.1002   -3.2663   -7.6383 H   0  0  0  0  0  0  0  0  0  0  0  0
    7.8869   -3.7403  -12.1252 H   0  0  0  0  0  0  0  0  0  0  0  0
   10.0166   -5.6069  -12.3599 H   0  0  0  0  0  0  0  0  0  0  0  0
   10.4335   -5.3525  -10.6470 H   0  0  0  0  0  0  0  0  0  0  0  0
   12.0747   -4.3916  -13.0493 H   0  0  0  0  0  0  0  0  0  0  0  0
   12.7032   -4.2473  -10.0576 H   0  0  0  0  0  0  0  0  0  0  0  0
   12.3314   -2.8751  -11.1148 H   0  0  0  0  0  0  0  0  0  0  0  0
   13.8092   -3.8089  -11.3719 H   0  0  0  0  0  0  0  0  0  0  0  0
   12.6027   -6.6663  -11.0533 H   0  0  0  0  0  0  0  0  0  0  0  0
   13.6985   -6.1492  -12.3477 H   0  0  0  0  0  0  0  0  0  0  0  0
   12.1318   -6.8700  -12.7484 H   0  0  0  0  0  0  0  0  0  0  0  0
    3.6895   -4.1335  -11.1481 H   0  0  0  0  0  0  0  0  0  0  0  0
    3.1060   -0.3451   -3.5866 H   0  0  0  0  0  0  0  0  0  0  0  0
    4.5418   -0.7412   -6.2279 H   0  0  0  0  0  0  0  0  0  0  0  0
    4.9541    0.3885   -4.9364 H   0  0  0  0  0  0  0  0  0  0  0  0
    3.4305    0.5668   -5.8138 H   0  0  0  0  0  0  0  0  0  0  0  0
    2.2618   -2.2575   -5.7679 H   0  0  0  0  0  0  0  0  0  0  0  0
    1.4321   -0.8341   -5.1738 H   0  0  0  0  0  0  0  0  0  0  0  0
    1.6289   -2.2439   -4.1219 H   0  0  0  0  0  0  0  0  0  0  0  0
  1  2  1  0  0  0  0
  1 35  1  0  0  0  0
  1 36  1  0  0  0  0
  1 37  1  0  0  0  0
  2  3  1  0  0  0  0
  2 38  1  0  0  0  0
  2 39  1  0  0  0  0
  3  4  1  0  0  0  0
  4  5  2  0  0  0  0
  4  6  1  0  0  0  0
  6  7  2  0  0  0  0
  6 31  1  0  0  0  0
  7  8  1  0  0  0  0
  7 40  1  0  0  0  0
  8  9  1  0  0  0  0
  8 30  1  0  0  0  0
  9 10  2  0  0  0  0
 10 11  1  0  0  0  0
 10 41  1  0  0  0  0
 11 12  2  0  0  0  0
 12 13  1  0  0  0  0
 12 30  1  0  0  0  0
 13 14  1  0  0  0  0
 13 42  1  0  0  0  0
 14 15  1  0  0  0  0
 14 28  2  0  0  0  0
 15 16  2  0  0  0  0
 15 43  1  0  0  0  0
 16 17  1  0  0  0  0
 16 25  1  0  0  0  0
 17 18  2  0  0  0  0
 17 19  1  0  0  0  0
 19 20  1  0  0  0  0
 19 44  1  0  0  0  0
 20 21  1  0  0  0  0
 21 22  1  0  0  0  0
 21 45  1  0  0  0  0
 21 46  1  0  0  0  0
 22 23  1  0  0  0  0
 22 24  1  0  0  0  0
 22 47  1  0  0  0  0
 23 48  1  0  0  0  0
 23 49  1  0  0  0  0
 23 50  1  0  0  0  0
 24 51  1  0  0  0  0
 24 52  1  0  0  0  0
 24 53  1  0  0  0  0
 25 26  1  0  0  0  0
 25 27  2  0  0  0  0
 27 28  1  0  0  0  0
 27 54  1  0  0  0  0
 28 29  1  0  0  0  0
 30 31  2  0  0  0  0
 31 32  1  0  0  0  0
 32 33  1  0  0  0  0
 32 34  1  0  0  0  0
 32 55  1  0  0  0  0
 33 56  1  0  0  0  0
 33 57  1  0  0  0  0
 33 58  1  0  0  0  0
 34 59  1  0  0  0  0
 34 60  1  0  0  0  0
 34 61  1  0  0  0  0
M  END
$$$$
