CHEMBL1922224
 OpenBabel04072215393D

 71 73  0  0  1  0  0  0  0  0999 V2000
    2.6311   -0.2216   -1.0492 C   0  0  0  0  0  0  0  0  0  0  0  0
    2.3979   -0.3196    0.4246 C   0  0  0  0  0  0  0  0  0  0  0  0
    2.7326   -1.4800    1.1237 C   0  0  0  0  0  0  0  0  0  0  0  0
    2.1241   -1.7756    2.3454 C   0  0  0  0  0  0  0  0  0  0  0  0
    1.1683   -0.9044    2.8465 C   0  0  0  0  0  0  0  0  0  0  0  0
    0.3185   -1.3245    3.8237 O   0  0  0  0  0  0  0  0  0  0  0  0
    1.0106    0.3458    2.2971 C   0  0  0  0  0  0  0  0  0  0  0  0
    1.6947    0.6805    1.1149 C   0  0  0  0  0  0  0  0  0  0  0  0
    1.5336    2.0555    0.5630 C   0  0  0  0  0  0  0  0  0  0  0  0
    2.5295    3.1265    1.0264 C   0  0  0  0  0  0  0  0  0  0  0  0
    2.2693    4.5253    0.3749 C   0  0  2  0  0  0  0  0  0  0  0  0
    3.2682    5.5982    0.9125 C   0  0  1  0  0  0  0  0  0  0  0  0
    4.0109    6.2147   -0.1442 O   0  0  0  0  0  0  0  0  0  0  0  0
    2.6182    6.7341    1.7361 C   0  0  0  0  0  0  0  0  0  0  0  0
    1.3112    7.3700    1.1643 C   0  0  0  0  0  0  0  0  0  0  0  0
    0.5722    6.4697    0.1439 C   0  0  1  0  0  0  0  0  0  0  0  0
    1.0710    6.8486   -1.2670 C   0  0  0  0  0  0  0  0  0  0  0  0
    0.8271    5.0161    0.6072 C   0  0  1  0  0  0  0  0  0  0  0  0
   -0.3302    4.1856    0.0536 C   0  0  0  0  0  0  0  0  0  0  0  0
   -1.3248    5.1331   -0.5252 C   0  0  0  0  0  0  0  0  0  0  0  0
   -0.9979    6.4657    0.1646 C   0  0  2  0  0  0  0  0  0  0  0  0
   -1.8376    7.5352   -0.5487 C   0  0  2  0  0  0  0  0  0  0  0  0
   -1.5923    8.9321   -0.0005 C   0  0  0  0  0  0  0  0  0  0  0  0
   -3.3034    7.2191   -0.3166 C   0  0  0  0  0  0  0  0  0  0  0  0
   -4.3221    7.7125   -1.0328 C   0  0  0  0  0  0  0  0  0  0  0  0
   -5.7111    7.6907   -0.4697 C   0  0  0  0  0  0  0  0  0  0  0  0
   -6.7908    7.0111   -1.3130 C   0  0  0  0  0  0  0  0  0  0  0  0
   -6.5653    5.5060   -1.4515 C   0  0  0  0  0  0  0  0  0  0  0  0
   -8.1419    7.2799   -0.6429 C   0  0  0  0  0  0  0  0  0  0  0  0
    3.3723    0.5288   -1.3073 H   0  0  0  0  0  0  0  0  0  0  0  0
    1.6744    0.0229   -1.5445 H   0  0  0  0  0  0  0  0  0  0  0  0
    2.9237   -1.1948   -1.4603 H   0  0  0  0  0  0  0  0  0  0  0  0
    3.4102   -2.2042    0.6820 H   0  0  0  0  0  0  0  0  0  0  0  0
    2.3487   -2.7034    2.8620 H   0  0  0  0  0  0  0  0  0  0  0  0
   -0.2187   -2.0208    3.4098 H   0  0  0  0  0  0  0  0  0  0  0  0
    0.2937    1.0359    2.7382 H   0  0  0  0  0  0  0  0  0  0  0  0
    1.4953    2.0178   -0.5323 H   0  0  0  0  0  0  0  0  0  0  0  0
    0.5511    2.3219    0.9266 H   0  0  0  0  0  0  0  0  0  0  0  0
    2.4952    3.2229    2.1229 H   0  0  0  0  0  0  0  0  0  0  0  0
    3.5513    2.8109    0.7788 H   0  0  0  0  0  0  0  0  0  0  0  0
    2.4143    4.3919   -0.7063 H   0  0  0  0  0  0  0  0  0  0  0  0
    4.0275    5.1152    1.5393 H   0  0  0  0  0  0  0  0  0  0  0  0
    3.9455    5.6743   -0.9478 H   0  0  0  0  0  0  0  0  0  0  0  0
    3.3474    7.5378    1.8961 H   0  0  0  0  0  0  0  0  0  0  0  0
    2.3882    6.3315    2.7309 H   0  0  0  0  0  0  0  0  0  0  0  0
    0.6602    7.6016    2.0155 H   0  0  0  0  0  0  0  0  0  0  0  0
    1.5648    8.3400    0.7172 H   0  0  0  0  0  0  0  0  0  0  0  0
    0.7318    7.8561   -1.5349 H   0  0  0  0  0  0  0  0  0  0  0  0
    0.7237    6.1618   -2.0387 H   0  0  0  0  0  0  0  0  0  0  0  0
    2.1557    6.8895   -1.3404 H   0  0  0  0  0  0  0  0  0  0  0  0
    0.6785    4.9829    1.7021 H   0  0  0  0  0  0  0  0  0  0  0  0
   -0.0386    3.4798   -0.7380 H   0  0  0  0  0  0  0  0  0  0  0  0
   -0.8241    3.6530    0.8654 H   0  0  0  0  0  0  0  0  0  0  0  0
   -2.3384    4.7641   -0.3465 H   0  0  0  0  0  0  0  0  0  0  0  0
   -1.1863    5.1872   -1.6102 H   0  0  0  0  0  0  0  0  0  0  0  0
   -1.3128    6.4029    1.2190 H   0  0  0  0  0  0  0  0  0  0  0  0
   -1.6307    7.5179   -1.6270 H   0  0  0  0  0  0  0  0  0  0  0  0
   -0.5546    9.2378   -0.1151 H   0  0  0  0  0  0  0  0  0  0  0  0
   -1.8551    8.9864    1.0609 H   0  0  0  0  0  0  0  0  0  0  0  0
   -2.2102    9.6608   -0.5372 H   0  0  0  0  0  0  0  0  0  0  0  0
   -3.5378    6.6395    0.5773 H   0  0  0  0  0  0  0  0  0  0  0  0
   -4.1346    8.3142   -1.9180 H   0  0  0  0  0  0  0  0  0  0  0  0
   -5.9852    8.7430   -0.3232 H   0  0  0  0  0  0  0  0  0  0  0  0
   -5.7063    7.2459    0.5361 H   0  0  0  0  0  0  0  0  0  0  0  0
   -6.8033    7.4566   -2.3151 H   0  0  0  0  0  0  0  0  0  0  0  0
   -5.6015    5.2852   -1.9206 H   0  0  0  0  0  0  0  0  0  0  0  0
   -7.3473    5.0591   -2.0756 H   0  0  0  0  0  0  0  0  0  0  0  0
   -6.5902    5.0088   -0.4751 H   0  0  0  0  0  0  0  0  0  0  0  0
   -8.9627    6.8180   -1.1955 H   0  0  0  0  0  0  0  0  0  0  0  0
   -8.1557    6.8882    0.3827 H   0  0  0  0  0  0  0  0  0  0  0  0
   -8.3339    8.3577   -0.5853 H   0  0  0  0  0  0  0  0  0  0  0  0
  1  2  1  0  0  0  0
  1 30  1  0  0  0  0
  1 31  1  0  0  0  0
  1 32  1  0  0  0  0
  2  3  1  0  0  0  0
  2  8  2  0  0  0  0
  3  4  2  0  0  0  0
  3 33  1  0  0  0  0
  4  5  1  0  0  0  0
  4 34  1  0  0  0  0
  5  6  1  0  0  0  0
  5  7  2  0  0  0  0
  6 35  1  0  0  0  0
  7  8  1  0  0  0  0
  7 36  1  0  0  0  0
  8  9  1  0  0  0  0
  9 10  1  0  0  0  0
  9 37  1  0  0  0  0
  9 38  1  0  0  0  0
 10 11  1  0  0  0  0
 10 39  1  0  0  0  0
 10 40  1  0  0  0  0
 11 12  1  0  0  0  0
 11 18  1  0  0  0  0
 11 41  1  6  0  0  0
 12 14  1  0  0  0  0
 12 13  1  0  0  0  0
 12 42  1  1  0  0  0
 13 43  1  0  0  0  0
 14 15  1  0  0  0  0
 14 44  1  0  0  0  0
 14 45  1  0  0  0  0
 15 16  1  0  0  0  0
 15 46  1  0  0  0  0
 15 47  1  0  0  0  0
 16 17  1  6  0  0  0
 16 18  1  0  0  0  0
 16 21  1  0  0  0  0
 17 48  1  0  0  0  0
 17 49  1  0  0  0  0
 17 50  1  0  0  0  0
 18 19  1  0  0  0  0
 18 51  1  1  0  0  0
 19 20  1  0  0  0  0
 19 52  1  0  0  0  0
 19 53  1  0  0  0  0
 20 21  1  0  0  0  0
 20 54  1  0  0  0  0
 20 55  1  0  0  0  0
 21 22  1  0  0  0  0
 21 56  1  1  0  0  0
 22 24  1  0  0  0  0
 22 23  1  0  0  0  0
 22 57  1  6  0  0  0
 23 58  1  0  0  0  0
 23 59  1  0  0  0  0
 23 60  1  0  0  0  0
 24 25  2  0  0  0  0
 24 61  1  0  0  0  0
 25 26  1  0  0  0  0
 25 62  1  0  0  0  0
 26 27  1  0  0  0  0
 26 63  1  0  0  0  0
 26 64  1  0  0  0  0
 27 28  1  0  0  0  0
 27 29  1  0  0  0  0
 27 65  1  0  0  0  0
 28 66  1  0  0  0  0
 28 67  1  0  0  0  0
 28 68  1  0  0  0  0
 29 69  1  0  0  0  0
 29 70  1  0  0  0  0
 29 71  1  0  0  0  0
M  END
$$$$
