CHEMBL3671556
 OpenBabel04072215373D

 56 58  0  0  1  0  0  0  0  0999 V2000
    3.3302   -3.2967    2.0803 C   0  0  0  0  0  0  0  0  0  0  0  0
    3.4663   -2.8934    0.8109 C   0  0  0  0  0  0  0  0  0  0  0  0
    3.6744   -1.4480    0.5259 C   0  0  0  0  0  0  0  0  0  0  0  0
    3.1797   -0.5686    1.2248 O   0  0  0  0  0  0  0  0  0  0  0  0
    4.4994   -1.1148   -0.5243 N   0  0  0  0  0  0  0  0  0  0  0  0
    5.3659   -2.0411   -1.1300 C   0  0  0  0  0  0  0  0  0  0  0  0
    6.4346   -2.5124   -0.3662 C   0  0  0  0  0  0  0  0  0  0  0  0
    7.1167   -3.6770   -0.7564 C   0  0  0  0  0  0  0  0  0  0  0  0
    8.0840   -4.3216    0.0304 C   0  0  0  0  0  0  0  0  0  0  0  0
    8.3800   -3.8302    1.3304 N   0  0  0  0  0  0  0  0  0  0  0  0
    9.0264   -4.6015    2.3253 C   0  0  0  0  0  0  0  0  0  0  0  0
    8.6449   -5.9291    2.5653 C   0  0  0  0  0  0  0  0  0  0  0  0
    9.3768   -6.7357    3.4373 C   0  0  0  0  0  0  0  0  0  0  0  0
   10.4820   -6.2055    4.0988 C   0  0  0  0  0  0  0  0  0  0  0  0
   11.5405   -7.3334    5.1848 Br  0  0  0  0  0  0  0  0  0  0  0  0
   10.8310   -4.8660    3.9390 C   0  0  0  0  0  0  0  0  0  0  0  0
   10.0926   -4.0750    3.0634 C   0  0  0  0  0  0  0  0  0  0  0  0
   10.4435   -2.7910    2.8902 F   0  0  0  0  0  0  0  0  0  0  0  0
    8.6835   -5.4543   -0.3793 N   0  0  0  0  0  0  0  0  0  0  0  0
    8.3049   -5.9544   -1.5551 C   0  0  0  0  0  0  0  0  0  0  0  0
    7.3697   -5.4453   -2.3633 N   0  0  0  0  0  0  0  0  0  0  0  0
    6.7743   -4.3197   -1.9580 C   0  0  0  0  0  0  0  0  0  0  0  0
    5.7512   -3.7865   -2.7365 C   0  0  0  0  0  0  0  0  0  0  0  0
    5.0485   -2.6386   -2.3536 C   0  0  0  0  0  0  0  0  0  0  0  0
    4.0354   -2.2470   -3.1982 O   0  0  0  0  0  0  0  0  0  0  0  0
    3.9696   -0.8277   -3.4007 C   0  0  0  0  0  0  0  0  0  0  0  0
    3.0014   -0.4332   -4.5392 C   0  0  3  0  0  0  0  0  0  0  0  0
    1.5916   -0.9955   -4.2817 C   0  0  0  0  0  0  0  0  0  0  0  0
    0.5886   -0.6284   -5.3704 C   0  0  0  0  0  0  0  0  0  0  0  0
    2.9314    1.0322   -4.6282 N   0  0  0  0  0  0  0  0  0  0  0  0
    3.8766    1.7864   -5.2802 C   0  0  0  0  0  0  0  0  0  0  0  0
    3.6798    3.2743   -5.1386 C   0  0  0  0  0  0  0  0  0  0  0  0
    4.8108    1.3067   -5.9121 O   0  0  0  0  0  0  0  0  0  0  0  0
    3.2464   -4.3502    2.3239 H   0  0  0  0  0  0  0  0  0  0  0  0
    3.3220   -2.5858    2.9021 H   0  0  0  0  0  0  0  0  0  0  0  0
    3.4958   -3.6055   -0.0040 H   0  0  0  0  0  0  0  0  0  0  0  0
    4.8673   -0.1842   -0.3667 H   0  0  0  0  0  0  0  0  0  0  0  0
    6.6613   -2.0341    0.5825 H   0  0  0  0  0  0  0  0  0  0  0  0
    8.7486   -2.8830    1.2855 H   0  0  0  0  0  0  0  0  0  0  0  0
    7.7941   -6.3536    2.0363 H   0  0  0  0  0  0  0  0  0  0  0  0
    9.0901   -7.7764    3.5625 H   0  0  0  0  0  0  0  0  0  0  0  0
   11.6799   -4.4341    4.4615 H   0  0  0  0  0  0  0  0  0  0  0  0
    8.7913   -6.8700   -1.8746 H   0  0  0  0  0  0  0  0  0  0  0  0
    5.4722   -4.3029   -3.6538 H   0  0  0  0  0  0  0  0  0  0  0  0
    4.9713   -0.4335   -3.6135 H   0  0  0  0  0  0  0  0  0  0  0  0
    3.5850   -0.3418   -2.5007 H   0  0  0  0  0  0  0  0  0  0  0  0
    3.3829   -0.8303   -5.4879 H   0  0  0  0  0  0  0  0  0  0  0  0
    1.2183   -0.6120   -3.3236 H   0  0  0  0  0  0  0  0  0  0  0  0
    1.6277   -2.0876   -4.1964 H   0  0  0  0  0  0  0  0  0  0  0  0
    0.6208    0.4359   -5.6234 H   0  0  0  0  0  0  0  0  0  0  0  0
   -0.4278   -0.8534   -5.0314 H   0  0  0  0  0  0  0  0  0  0  0  0
    0.7778   -1.2022   -6.2825 H   0  0  0  0  0  0  0  0  0  0  0  0
    2.2781    1.5050   -4.0161 H   0  0  0  0  0  0  0  0  0  0  0  0
    2.7769    3.5139   -4.5690 H   0  0  0  0  0  0  0  0  0  0  0  0
    3.5904    3.7248   -6.1305 H   0  0  0  0  0  0  0  0  0  0  0  0
    4.5404    3.6985   -4.6141 H   0  0  0  0  0  0  0  0  0  0  0  0
  1  2  2  0  0  0  0
  1 34  1  0  0  0  0
  1 35  1  0  0  0  0
  2  3  1  0  0  0  0
  2 36  1  0  0  0  0
  3  4  2  0  0  0  0
  3  5  1  0  0  0  0
  5  6  1  0  0  0  0
  5 37  1  0  0  0  0
  6  7  1  0  0  0  0
  6 24  2  0  0  0  0
  7  8  2  0  0  0  0
  7 38  1  0  0  0  0
  8  9  1  0  0  0  0
  8 22  1  0  0  0  0
  9 10  1  0  0  0  0
  9 19  2  0  0  0  0
 10 11  1  0  0  0  0
 10 39  1  0  0  0  0
 11 12  1  0  0  0  0
 11 17  2  0  0  0  0
 12 13  2  0  0  0  0
 12 40  1  0  0  0  0
 13 14  1  0  0  0  0
 13 41  1  0  0  0  0
 14 15  1  0  0  0  0
 14 16  2  0  0  0  0
 16 17  1  0  0  0  0
 16 42  1  0  0  0  0
 17 18  1  0  0  0  0
 19 20  1  0  0  0  0
 20 21  2  0  0  0  0
 20 43  1  0  0  0  0
 21 22  1  0  0  0  0
 22 23  2  0  0  0  0
 23 24  1  0  0  0  0
 23 44  1  0  0  0  0
 24 25  1  0  0  0  0
 25 26  1  0  0  0  0
 26 27  1  0  0  0  0
 26 45  1  0  0  0  0
 26 46  1  0  0  0  0
 27 28  1  0  0  0  0
 27 30  1  0  0  0  0
 27 47  1  0  0  0  0
 28 29  1  0  0  0  0
 28 48  1  0  0  0  0
 28 49  1  0  0  0  0
 29 50  1  0  0  0  0
 29 51  1  0  0  0  0
 29 52  1  0  0  0  0
 30 31  1  0  0  0  0
 30 53  1  0  0  0  0
 31 32  1  0  0  0  0
 31 33  2  0  0  0  0
 32 54  1  0  0  0  0
 32 55  1  0  0  0  0
 32 56  1  0  0  0  0
M  END
$$$$
