CHEMBL3893176
 OpenBabel04072215373D

 56 59  0  0  1  0  0  0  0  0999 V2000
    2.5656    1.0429    0.5860 C   0  0  0  0  0  0  0  0  0  0  0  0
    2.4102   -0.0851   -0.2819 O   0  0  0  0  0  0  0  0  0  0  0  0
    3.1793   -1.1897   -0.0210 C   0  0  0  0  0  0  0  0  0  0  0  0
    4.3057   -1.1512    0.8113 C   0  0  0  0  0  0  0  0  0  0  0  0
    5.0117   -2.3323    1.1543 C   0  0  0  0  0  0  0  0  0  0  0  0
    6.0988   -2.4114    2.0288 C   0  0  0  0  0  0  0  0  0  0  0  0
    6.5196   -1.2404    2.7146 N   0  0  0  0  0  0  0  0  0  0  0  0
    7.7758   -1.1554    3.3484 C   0  0  0  0  0  0  0  0  0  0  0  0
    8.9313   -1.5201    2.6407 C   0  0  0  0  0  0  0  0  0  0  0  0
   10.1714   -1.5391    3.2691 C   0  0  0  0  0  0  0  0  0  0  0  0
   10.2745   -1.1651    4.6069 C   0  0  0  0  0  0  0  0  0  0  0  0
   11.8341   -1.2520    5.3409 Cl  0  0  0  0  0  0  0  0  0  0  0  0
    9.1341   -0.7527    5.3060 C   0  0  0  0  0  0  0  0  0  0  0  0
    9.1906   -0.2732    6.9645 Cl  0  0  0  0  0  0  0  0  0  0  0  0
    7.8881   -0.7360    4.6746 C   0  0  0  0  0  0  0  0  0  0  0  0
    6.7520   -3.5685    2.2667 N   0  0  0  0  0  0  0  0  0  0  0  0
    6.3055   -4.6587    1.6460 C   0  0  0  0  0  0  0  0  0  0  0  0
    5.2626   -4.7023    0.8223 N   0  0  0  0  0  0  0  0  0  0  0  0
    4.6443   -3.5469    0.5963 C   0  0  0  0  0  0  0  0  0  0  0  0
    3.5757   -3.5618   -0.2686 C   0  0  0  0  0  0  0  0  0  0  0  0
    2.8318   -2.4169   -0.6120 C   0  0  0  0  0  0  0  0  0  0  0  0
    1.7817   -2.4809   -1.5201 O   0  0  0  0  0  0  0  0  0  0  0  0
    1.6185   -3.7946   -2.0745 C   0  0  0  0  0  0  0  0  0  0  0  0
    0.5610   -3.9626   -3.1532 C   0  0  3  0  0  0  0  0  0  0  0  0
   -0.8422   -3.5800   -2.6478 C   0  0  0  0  0  0  0  0  0  0  0  0
   -1.9150   -3.8909   -3.6331 N   0  0  0  0  0  0  0  0  0  0  0  0
   -1.7940   -2.9901   -4.8041 C   0  0  0  0  0  0  0  0  0  0  0  0
   -2.9291   -3.1500   -5.8228 C   0  0  0  0  0  0  0  0  0  0  0  0
   -4.1929   -2.9996   -5.1877 O   0  0  0  0  0  0  0  0  0  0  0  0
   -1.7871   -5.3260   -3.9817 C   0  0  0  0  0  0  0  0  0  0  0  0
   -0.3854   -5.7293   -4.4603 C   0  0  0  0  0  0  0  0  0  0  0  0
    0.6154   -5.3650   -3.5109 O   0  0  0  0  0  0  0  0  0  0  0  0
    3.2747    1.7543    0.1479 H   0  0  0  0  0  0  0  0  0  0  0  0
    2.8784    0.7847    1.6055 H   0  0  0  0  0  0  0  0  0  0  0  0
    1.5970    1.5394    0.6857 H   0  0  0  0  0  0  0  0  0  0  0  0
    4.6793   -0.2076    1.1981 H   0  0  0  0  0  0  0  0  0  0  0  0
    5.7565   -0.9122    3.2971 H   0  0  0  0  0  0  0  0  0  0  0  0
    8.8590   -1.8384    1.6001 H   0  0  0  0  0  0  0  0  0  0  0  0
   11.0447   -1.8628    2.7083 H   0  0  0  0  0  0  0  0  0  0  0  0
    7.0062   -0.4391    5.2323 H   0  0  0  0  0  0  0  0  0  0  0  0
    6.8302   -5.5896    1.8248 H   0  0  0  0  0  0  0  0  0  0  0  0
    3.3500   -4.5474   -0.6688 H   0  0  0  0  0  0  0  0  0  0  0  0
    1.3619   -4.4953   -1.2679 H   0  0  0  0  0  0  0  0  0  0  0  0
    2.5620   -4.1106   -2.5435 H   0  0  0  0  0  0  0  0  0  0  0  0
    0.8490   -3.3624   -4.0229 H   0  0  0  0  0  0  0  0  0  0  0  0
   -0.8782   -2.5214   -2.3661 H   0  0  0  0  0  0  0  0  0  0  0  0
   -1.0622   -4.1463   -1.7321 H   0  0  0  0  0  0  0  0  0  0  0  0
   -0.8408   -3.1054   -5.3294 H   0  0  0  0  0  0  0  0  0  0  0  0
   -1.8354   -1.9592   -4.4299 H   0  0  0  0  0  0  0  0  0  0  0  0
   -2.8987   -4.1282   -6.3112 H   0  0  0  0  0  0  0  0  0  0  0  0
   -2.8381   -2.3868   -6.6017 H   0  0  0  0  0  0  0  0  0  0  0  0
   -4.1034   -3.4552   -4.3272 H   0  0  0  0  0  0  0  0  0  0  0  0
   -2.5388   -5.6253   -4.7181 H   0  0  0  0  0  0  0  0  0  0  0  0
   -2.0202   -5.9034   -3.0762 H   0  0  0  0  0  0  0  0  0  0  0  0
   -0.1373   -5.2871   -5.4302 H   0  0  0  0  0  0  0  0  0  0  0  0
   -0.3391   -6.8177   -4.5777 H   0  0  0  0  0  0  0  0  0  0  0  0
  1  2  1  0  0  0  0
  1 33  1  0  0  0  0
  1 34  1  0  0  0  0
  1 35  1  0  0  0  0
  2  3  1  0  0  0  0
  3  4  1  0  0  0  0
  3 21  2  0  0  0  0
  4  5  2  0  0  0  0
  4 36  1  0  0  0  0
  5  6  1  0  0  0  0
  5 19  1  0  0  0  0
  6  7  1  0  0  0  0
  6 16  2  0  0  0  0
  7  8  1  0  0  0  0
  7 37  1  0  0  0  0
  8  9  1  0  0  0  0
  8 15  2  0  0  0  0
  9 10  2  0  0  0  0
  9 38  1  0  0  0  0
 10 11  1  0  0  0  0
 10 39  1  0  0  0  0
 11 12  1  0  0  0  0
 11 13  2  0  0  0  0
 13 14  1  0  0  0  0
 13 15  1  0  0  0  0
 15 40  1  0  0  0  0
 16 17  1  0  0  0  0
 17 18  2  0  0  0  0
 17 41  1  0  0  0  0
 18 19  1  0  0  0  0
 19 20  2  0  0  0  0
 20 21  1  0  0  0  0
 20 42  1  0  0  0  0
 21 22  1  0  0  0  0
 22 23  1  0  0  0  0
 23 24  1  0  0  0  0
 23 43  1  0  0  0  0
 23 44  1  0  0  0  0
 24 25  1  0  0  0  0
 24 32  1  0  0  0  0
 24 45  1  0  0  0  0
 25 26  1  0  0  0  0
 25 46  1  0  0  0  0
 25 47  1  0  0  0  0
 26 27  1  0  0  0  0
 26 30  1  0  0  0  0
 27 28  1  0  0  0  0
 27 48  1  0  0  0  0
 27 49  1  0  0  0  0
 28 29  1  0  0  0  0
 28 50  1  0  0  0  0
 28 51  1  0  0  0  0
 29 52  1  0  0  0  0
 30 31  1  0  0  0  0
 30 53  1  0  0  0  0
 30 54  1  0  0  0  0
 31 32  1  0  0  0  0
 31 55  1  0  0  0  0
 31 56  1  0  0  0  0
M  END
$$$$
