CHEMBL3656065
 OpenBabel04072215373D

 87 90  0  0  1  0  0  0  0  0999 V2000
    6.6408   -1.9949    1.2398 C   0  0  0  0  0  0  0  0  0  0  0  0
    5.4043   -1.1325    1.3768 C   0  0  0  0  0  0  0  0  0  0  0  0
    5.7430    0.2244    1.7436 N   0  0  0  0  0  0  0  0  0  0  0  0
    4.7392    1.1505    1.9330 C   0  0  0  0  0  0  0  0  0  0  0  0
    3.5568    0.8754    1.7414 O   0  0  0  0  0  0  0  0  0  0  0  0
    5.2011    2.5685    2.3582 C   0  0  2  0  0  0  0  0  0  0  0  0
    4.7898    3.6205    1.3218 C   0  0  0  0  0  0  0  0  0  0  0  0
    3.2892    3.7111    1.0203 C   0  0  0  0  0  0  0  0  0  0  0  0
    3.0297    4.8095    0.0223 C   0  0  0  0  0  0  0  0  0  0  0  0
    3.9109    5.5012   -0.4699 O   0  0  0  0  0  0  0  0  0  0  0  0
    1.6995    4.9056   -0.2511 O   0  0  0  0  0  0  0  0  0  0  0  0
    1.2408    5.9344   -1.1681 C   0  0  0  0  0  0  0  0  0  0  0  0
    1.7913    5.7035   -2.5820 C   0  0  0  0  0  0  0  0  0  0  0  0
   -0.2907    5.8078   -1.2245 C   0  0  0  0  0  0  0  0  0  0  0  0
    1.5814    7.3288   -0.6266 C   0  0  0  0  0  0  0  0  0  0  0  0
    6.6599    2.6400    2.5408 N   0  0  0  0  0  0  0  0  0  0  0  0
    7.2594    2.3170    3.7338 C   0  0  0  0  0  0  0  0  0  0  0  0
    6.6110    1.9950    4.7238 O   0  0  0  0  0  0  0  0  0  0  0  0
    8.7213    2.3101    3.7354 C   0  0  0  0  0  0  0  0  0  0  0  0
    9.6134    2.5753    2.7086 C   0  0  0  0  0  0  0  0  0  0  0  0
   10.8942    2.4561    3.2014 N   0  0  0  0  0  0  0  0  0  0  0  0
   10.8611    2.0585    4.5175 C   0  0  0  0  0  0  0  0  0  0  0  0
   12.0602    1.7566    5.2882 C   0  0  0  0  0  0  0  0  0  0  0  0
   12.0246    0.8378    6.3278 C   0  0  0  0  0  0  0  0  0  0  0  0
   13.2194    0.4851    6.9493 C   0  0  0  0  0  0  0  0  0  0  0  0
   13.3121   -0.4994    7.9155 O   0  0  0  0  0  0  0  0  0  0  0  0
   12.5412   -1.6389    7.7801 C   0  0  0  0  0  0  0  0  0  0  0  0
   12.1657   -2.1770    6.5491 C   0  0  0  0  0  0  0  0  0  0  0  0
   11.3026   -3.2717    6.4886 C   0  0  0  0  0  0  0  0  0  0  0  0
   10.8383   -3.8931    7.6492 C   0  0  0  0  0  0  0  0  0  0  0  0
    9.8977   -4.9598    7.6238 N   0  0  0  0  0  0  0  0  0  0  0  0
    9.1306   -5.3104    6.5258 C   0  0  0  0  0  0  0  0  0  0  0  0
    9.1763   -4.7513    5.4342 O   0  0  0  0  0  0  0  0  0  0  0  0
    8.2433   -6.3406    6.8014 N   0  0  0  0  0  0  0  0  0  0  0  0
    7.3474   -6.7934    5.7996 C   0  0  0  0  0  0  0  0  0  0  0  0
    5.9942   -6.9061    6.1176 C   0  0  0  0  0  0  0  0  0  0  0  0
    5.0740   -7.2658    5.1314 C   0  0  0  0  0  0  0  0  0  0  0  0
    5.5072   -7.5730    3.8408 C   0  0  0  0  0  0  0  0  0  0  0  0
    6.8665   -7.5122    3.5180 C   0  0  0  0  0  0  0  0  0  0  0  0
    7.3450   -7.8938    2.1472 C   0  0  0  0  0  0  0  0  0  0  0  0
    7.7810   -7.1041    4.5022 C   0  0  0  0  0  0  0  0  0  0  0  0
   11.3198   -3.4177    8.8757 C   0  0  0  0  0  0  0  0  0  0  0  0
   10.9388   -4.0202   10.0132 F   0  0  0  0  0  0  0  0  0  0  0  0
   12.1562   -2.2983    8.9510 C   0  0  0  0  0  0  0  0  0  0  0  0
   14.3818    1.1666    6.6113 C   0  0  0  0  0  0  0  0  0  0  0  0
   14.3139    2.1028    5.5893 C   0  0  0  0  0  0  0  0  0  0  0  0
   13.1891    2.3842    4.8893 N   0  0  0  0  0  0  0  0  0  0  0  0
    9.5258    1.9793    4.8655 C   0  0  0  0  0  0  0  0  0  0  0  0
    6.3679   -3.0038    0.9170 H   0  0  0  0  0  0  0  0  0  0  0  0
    7.1673   -2.0700    2.1970 H   0  0  0  0  0  0  0  0  0  0  0  0
    7.3365   -1.5718    0.5079 H   0  0  0  0  0  0  0  0  0  0  0  0
    4.7300   -1.5407    2.1372 H   0  0  0  0  0  0  0  0  0  0  0  0
    4.8573   -1.0960    0.4277 H   0  0  0  0  0  0  0  0  0  0  0  0
    6.5758    0.3708    2.2999 H   0  0  0  0  0  0  0  0  0  0  0  0
    4.7224    2.7828    3.3213 H   0  0  0  0  0  0  0  0  0  0  0  0
    5.1332    4.6031    1.6769 H   0  0  0  0  0  0  0  0  0  0  0  0
    5.3302    3.4382    0.3833 H   0  0  0  0  0  0  0  0  0  0  0  0
    2.7294    3.9212    1.9374 H   0  0  0  0  0  0  0  0  0  0  0  0
    2.9212    2.7881    0.5654 H   0  0  0  0  0  0  0  0  0  0  0  0
    1.5170    4.7064   -2.9463 H   0  0  0  0  0  0  0  0  0  0  0  0
    2.8827    5.7544   -2.6208 H   0  0  0  0  0  0  0  0  0  0  0  0
    1.4033    6.4468   -3.2861 H   0  0  0  0  0  0  0  0  0  0  0  0
   -0.5936    4.8235   -1.5988 H   0  0  0  0  0  0  0  0  0  0  0  0
   -0.7305    6.5720   -1.8758 H   0  0  0  0  0  0  0  0  0  0  0  0
   -0.7309    5.9113   -0.2265 H   0  0  0  0  0  0  0  0  0  0  0  0
    2.6592    7.5025   -0.5696 H   0  0  0  0  0  0  0  0  0  0  0  0
    1.1955    7.4463    0.3928 H   0  0  0  0  0  0  0  0  0  0  0  0
    1.1575    8.1175   -1.2556 H   0  0  0  0  0  0  0  0  0  0  0  0
    7.2379    2.7945    1.7270 H   0  0  0  0  0  0  0  0  0  0  0  0
    9.4688    2.8460    1.6717 H   0  0  0  0  0  0  0  0  0  0  0  0
   11.7527    2.5989    2.6821 H   0  0  0  0  0  0  0  0  0  0  0  0
   11.0903    0.3623    6.6018 H   0  0  0  0  0  0  0  0  0  0  0  0
   12.4959   -1.7383    5.6130 H   0  0  0  0  0  0  0  0  0  0  0  0
   11.0139   -3.6105    5.4989 H   0  0  0  0  0  0  0  0  0  0  0  0
    9.7041   -5.4039    8.5169 H   0  0  0  0  0  0  0  0  0  0  0  0
    7.8864   -6.3468    7.7450 H   0  0  0  0  0  0  0  0  0  0  0  0
    5.6309   -6.6488    7.1075 H   0  0  0  0  0  0  0  0  0  0  0  0
    4.0129   -7.2940    5.3645 H   0  0  0  0  0  0  0  0  0  0  0  0
    4.7751   -7.8572    3.0881 H   0  0  0  0  0  0  0  0  0  0  0  0
    6.5062   -8.1162    1.4780 H   0  0  0  0  0  0  0  0  0  0  0  0
    7.9699   -8.7911    2.2052 H   0  0  0  0  0  0  0  0  0  0  0  0
    7.9217   -7.0799    1.6971 H   0  0  0  0  0  0  0  0  0  0  0  0
    8.8378   -7.0344    4.2517 H   0  0  0  0  0  0  0  0  0  0  0  0
   12.4825   -1.9347    9.9220 H   0  0  0  0  0  0  0  0  0  0  0  0
   15.3189    0.9663    7.1178 H   0  0  0  0  0  0  0  0  0  0  0  0
   15.1955    2.6646    5.2907 H   0  0  0  0  0  0  0  0  0  0  0  0
    9.1436    1.7017    5.8405 H   0  0  0  0  0  0  0  0  0  0  0  0
  1  2  1  0  0  0  0
  1 49  1  0  0  0  0
  1 50  1  0  0  0  0
  1 51  1  0  0  0  0
  2  3  1  0  0  0  0
  2 52  1  0  0  0  0
  2 53  1  0  0  0  0
  3  4  1  0  0  0  0
  3 54  1  0  0  0  0
  4  5  2  0  0  0  0
  6 16  1  0  0  0  0
  6  7  1  0  0  0  0
  6  4  1  0  0  0  0
  6 55  1  1  0  0  0
  7  8  1  0  0  0  0
  7 56  1  0  0  0  0
  7 57  1  0  0  0  0
  8  9  1  0  0  0  0
  8 58  1  0  0  0  0
  8 59  1  0  0  0  0
  9 10  2  0  0  0  0
  9 11  1  0  0  0  0
 11 12  1  0  0  0  0
 12 13  1  0  0  0  0
 12 14  1  0  0  0  0
 12 15  1  0  0  0  0
 13 60  1  0  0  0  0
 13 61  1  0  0  0  0
 13 62  1  0  0  0  0
 14 63  1  0  0  0  0
 14 64  1  0  0  0  0
 14 65  1  0  0  0  0
 15 66  1  0  0  0  0
 15 67  1  0  0  0  0
 15 68  1  0  0  0  0
 16 17  1  0  0  0  0
 16 69  1  0  0  0  0
 17 18  2  0  0  0  0
 17 19  1  0  0  0  0
 19 20  2  0  0  0  0
 19 48  1  0  0  0  0
 20 21  1  0  0  0  0
 20 70  1  0  0  0  0
 21 22  1  0  0  0  0
 21 71  1  0  0  0  0
 22 23  1  0  0  0  0
 22 48  2  0  0  0  0
 23 24  1  0  0  0  0
 23 47  2  0  0  0  0
 24 25  2  0  0  0  0
 24 72  1  0  0  0  0
 25 26  1  0  0  0  0
 25 45  1  0  0  0  0
 26 27  1  0  0  0  0
 27 28  1  0  0  0  0
 27 44  2  0  0  0  0
 28 29  2  0  0  0  0
 28 73  1  0  0  0  0
 29 30  1  0  0  0  0
 29 74  1  0  0  0  0
 30 31  1  0  0  0  0
 30 42  2  0  0  0  0
 31 32  1  0  0  0  0
 31 75  1  0  0  0  0
 32 33  2  0  0  0  0
 32 34  1  0  0  0  0
 34 35  1  0  0  0  0
 34 76  1  0  0  0  0
 35 36  1  0  0  0  0
 35 41  2  0  0  0  0
 36 37  2  0  0  0  0
 36 77  1  0  0  0  0
 37 38  1  0  0  0  0
 37 78  1  0  0  0  0
 38 39  2  0  0  0  0
 38 79  1  0  0  0  0
 39 40  1  0  0  0  0
 39 41  1  0  0  0  0
 40 80  1  0  0  0  0
 40 81  1  0  0  0  0
 40 82  1  0  0  0  0
 41 83  1  0  0  0  0
 42 43  1  0  0  0  0
 42 44  1  0  0  0  0
 44 84  1  0  0  0  0
 45 46  2  0  0  0  0
 45 85  1  0  0  0  0
 46 47  1  0  0  0  0
 46 86  1  0  0  0  0
 48 87  1  0  0  0  0
M  END
$$$$
