CHEMBL3694662
 OpenBabel04072215373D

 59 63  0  0  0  0  0  0  0  0999 V2000
    3.7292   -1.0006    3.0204 O   0  0  0  0  0  0  0  0  0  0  0  0
    3.9008   -2.1802    2.7488 C   0  0  0  0  0  0  0  0  0  0  0  0
    3.3866   -3.1775    3.5501 N   0  0  0  0  0  0  0  0  0  0  0  0
    2.7434   -2.7933    4.8174 C   0  0  0  0  0  0  0  0  0  0  0  0
    3.7038   -2.6026    5.9994 C   0  0  0  0  0  0  0  0  0  0  0  0
    4.9842   -2.8803    5.6572 F   0  0  0  0  0  0  0  0  0  0  0  0
    3.6642   -1.3530    6.5030 F   0  0  0  0  0  0  0  0  0  0  0  0
    3.3764   -3.4563    7.0015 F   0  0  0  0  0  0  0  0  0  0  0  0
    4.5646   -2.6986    1.6602 N   0  0  0  0  0  0  0  0  0  0  0  0
    5.2157   -1.9764    0.6360 C   0  0  0  0  0  0  0  0  0  0  0  0
    5.2891   -0.5873    0.5947 C   0  0  0  0  0  0  0  0  0  0  0  0
    5.9397    0.0552   -0.4589 C   0  0  0  0  0  0  0  0  0  0  0  0
    6.5728   -0.6890   -1.4526 C   0  0  0  0  0  0  0  0  0  0  0  0
    6.5596   -2.0883   -1.4130 C   0  0  0  0  0  0  0  0  0  0  0  0
    7.3089   -2.8453   -2.4248 C   0  0  0  0  0  0  0  0  0  0  0  0
    7.5662   -2.5286   -3.7524 C   0  0  0  0  0  0  0  0  0  0  0  0
    8.3457   -3.4655   -4.3724 N   0  0  0  0  0  0  0  0  0  0  0  0
    8.5912   -4.3681   -3.4504 C   0  0  0  0  0  0  0  0  0  0  0  0
    9.3405   -5.5774   -3.5227 C   0  0  0  0  0  0  0  0  0  0  0  0
    9.4522   -6.3960   -2.4483 C   0  0  0  0  0  0  0  0  0  0  0  0
   10.2060   -7.6703   -2.5643 C   0  0  0  0  0  0  0  0  0  0  0  0
   10.2565   -8.4310   -1.4549 N   0  0  0  0  0  0  0  0  0  0  0  0
   10.9147   -9.5883   -1.5651 C   0  0  0  0  0  0  0  0  0  0  0  0
   11.5303   -9.9857   -2.7221 C   0  0  0  0  0  0  0  0  0  0  0  0
   11.4475   -9.1421   -3.8163 C   0  0  0  0  0  0  0  0  0  0  0  0
   12.0146   -9.5460   -5.0069 N   0  0  0  0  0  0  0  0  0  0  0  0
   11.5083   -9.0296   -6.2799 C   0  0  0  0  0  0  0  0  0  0  0  0
   11.7493  -10.1291   -7.3492 C   0  0  0  0  0  0  0  0  0  0  0  0
   13.1639  -10.5696   -7.4540 N   0  0  0  0  0  0  0  0  0  0  0  0
   13.6620  -10.9607   -6.1158 C   0  0  0  0  0  0  0  0  0  0  0  0
   13.4412   -9.8818   -5.0315 C   0  0  0  0  0  0  0  0  0  0  0  0
   10.7651   -7.9892   -3.7498 N   0  0  0  0  0  0  0  0  0  0  0  0
    8.8282   -5.9893   -1.1810 C   0  0  0  0  0  0  0  0  0  0  0  0
    8.1536   -4.8348   -1.0980 C   0  0  0  0  0  0  0  0  0  0  0  0
    8.0009   -4.0374   -2.2321 N   0  0  0  0  0  0  0  0  0  0  0  0
    5.8275   -2.7144   -0.3887 C   0  0  0  0  0  0  0  0  0  0  0  0
    3.9115   -4.0384    3.5700 H   0  0  0  0  0  0  0  0  0  0  0  0
    2.0241   -3.5830    5.0477 H   0  0  0  0  0  0  0  0  0  0  0  0
    2.1704   -1.8697    4.6631 H   0  0  0  0  0  0  0  0  0  0  0  0
    4.5354   -3.7016    1.5619 H   0  0  0  0  0  0  0  0  0  0  0  0
    4.8386    0.0343    1.3615 H   0  0  0  0  0  0  0  0  0  0  0  0
    5.9627    1.1413   -0.4938 H   0  0  0  0  0  0  0  0  0  0  0  0
    7.0906   -0.1568   -2.2475 H   0  0  0  0  0  0  0  0  0  0  0  0
    7.2209   -1.6592   -4.2981 H   0  0  0  0  0  0  0  0  0  0  0  0
    9.8035   -5.8118   -4.4756 H   0  0  0  0  0  0  0  0  0  0  0  0
   10.9248  -10.2139   -0.6790 H   0  0  0  0  0  0  0  0  0  0  0  0
   12.0145  -10.9497   -2.7873 H   0  0  0  0  0  0  0  0  0  0  0  0
   12.0327   -8.1070   -6.5618 H   0  0  0  0  0  0  0  0  0  0  0  0
   10.4346   -8.8124   -6.2376 H   0  0  0  0  0  0  0  0  0  0  0  0
   11.4190   -9.7720   -8.3297 H   0  0  0  0  0  0  0  0  0  0  0  0
   11.1315  -11.0057   -7.1079 H   0  0  0  0  0  0  0  0  0  0  0  0
   13.7142   -9.7637   -7.7713 H   0  0  0  0  0  0  0  0  0  0  0  0
   14.7305  -11.1908   -6.1853 H   0  0  0  0  0  0  0  0  0  0  0  0
   13.1581  -11.8863   -5.8058 H   0  0  0  0  0  0  0  0  0  0  0  0
   14.0306   -8.9851   -5.2664 H   0  0  0  0  0  0  0  0  0  0  0  0
   13.8065  -10.2608   -4.0710 H   0  0  0  0  0  0  0  0  0  0  0  0
    8.9377   -6.6323   -0.3120 H   0  0  0  0  0  0  0  0  0  0  0  0
    7.7262   -4.5076   -0.1634 H   0  0  0  0  0  0  0  0  0  0  0  0
    5.7283   -3.7955   -0.3839 H   0  0  0  0  0  0  0  0  0  0  0  0
  1  2  2  0  0  0  0
  2  3  1  0  0  0  0
  2  9  1  0  0  0  0
  3  4  1  0  0  0  0
  3 37  1  0  0  0  0
  4  5  1  0  0  0  0
  4 38  1  0  0  0  0
  4 39  1  0  0  0  0
  5  6  1  0  0  0  0
  5  7  1  0  0  0  0
  5  8  1  0  0  0  0
  9 10  1  0  0  0  0
  9 40  1  0  0  0  0
 10 11  1  0  0  0  0
 10 36  2  0  0  0  0
 11 12  2  0  0  0  0
 11 41  1  0  0  0  0
 12 13  1  0  0  0  0
 12 42  1  0  0  0  0
 13 14  2  0  0  0  0
 13 43  1  0  0  0  0
 14 15  1  0  0  0  0
 14 36  1  0  0  0  0
 15 16  2  0  0  0  0
 15 35  1  0  0  0  0
 16 17  1  0  0  0  0
 16 44  1  0  0  0  0
 17 18  2  0  0  0  0
 18 19  1  0  0  0  0
 18 35  1  0  0  0  0
 19 20  2  0  0  0  0
 19 45  1  0  0  0  0
 20 21  1  0  0  0  0
 20 33  1  0  0  0  0
 21 22  1  0  0  0  0
 21 32  2  0  0  0  0
 22 23  2  0  0  0  0
 23 24  1  0  0  0  0
 23 46  1  0  0  0  0
 24 25  2  0  0  0  0
 24 47  1  0  0  0  0
 25 26  1  0  0  0  0
 25 32  1  0  0  0  0
 26 27  1  0  0  0  0
 26 31  1  0  0  0  0
 27 28  1  0  0  0  0
 27 48  1  0  0  0  0
 27 49  1  0  0  0  0
 28 29  1  0  0  0  0
 28 50  1  0  0  0  0
 28 51  1  0  0  0  0
 29 30  1  0  0  0  0
 29 52  1  0  0  0  0
 30 31  1  0  0  0  0
 30 53  1  0  0  0  0
 30 54  1  0  0  0  0
 31 55  1  0  0  0  0
 31 56  1  0  0  0  0
 33 34  2  0  0  0  0
 33 57  1  0  0  0  0
 34 35  1  0  0  0  0
 34 58  1  0  0  0  0
 36 59  1  0  0  0  0
M  END
$$$$
