CHEMBL3972800
 OpenBabel04072215373D

 70 73  0  0  1  0  0  0  0  0999 V2000
    3.3649   -0.7407   -1.5641 C   0  0  0  0  0  0  0  0  0  0  0  0
    3.5783   -0.1107   -0.2020 C   0  0  0  0  0  0  0  0  0  0  0  0
    4.0374   -1.0564    0.7941 N   0  0  0  0  0  0  0  0  0  0  0  0
    4.3945   -0.5998    2.0482 C   0  0  0  0  0  0  0  0  0  0  0  0
    4.4871    0.5976    2.3221 O   0  0  0  0  0  0  0  0  0  0  0  0
    4.8021   -1.6879    3.0527 C   0  0  2  0  0  0  0  0  0  0  0  0
    4.1989   -1.4131    4.4386 C   0  0  0  0  0  0  0  0  0  0  0  0
    2.6744   -1.4022    4.4604 C   0  0  0  0  0  0  0  0  0  0  0  0
    2.1064   -2.7206    4.0031 C   0  0  0  0  0  0  0  0  0  0  0  0
    1.8983   -2.9781    2.8258 O   0  0  0  0  0  0  0  0  0  0  0  0
    1.9060   -3.6027    4.9946 O   0  0  0  0  0  0  0  0  0  0  0  0
    6.2594   -1.6558    3.1383 N   0  0  0  0  0  0  0  0  0  0  0  0
    7.0022   -2.7833    3.4024 C   0  0  0  0  0  0  0  0  0  0  0  0
    6.4574   -3.8692    3.5898 O   0  0  0  0  0  0  0  0  0  0  0  0
    8.4474   -2.6161    3.4445 C   0  0  0  0  0  0  0  0  0  0  0  0
    9.3731   -3.6225    3.6383 C   0  0  0  0  0  0  0  0  0  0  0  0
   10.7168   -3.1627    3.5855 C   0  0  0  0  0  0  0  0  0  0  0  0
   11.8095   -3.9594    3.7220 N   0  0  0  0  0  0  0  0  0  0  0  0
   12.9991   -3.3483    3.5995 C   0  0  0  0  0  0  0  0  0  0  0  0
   13.1773   -1.9974    3.3762 C   0  0  0  0  0  0  0  0  0  0  0  0
   12.0553   -1.1639    3.3241 C   0  0  0  0  0  0  0  0  0  0  0  0
   12.1542    0.2113    3.1841 O   0  0  0  0  0  0  0  0  0  0  0  0
   13.0928    0.8768    3.9476 C   0  0  0  0  0  0  0  0  0  0  0  0
   13.5288    0.4216    5.1929 C   0  0  0  0  0  0  0  0  0  0  0  0
   14.5697    1.0705    5.8529 C   0  0  0  0  0  0  0  0  0  0  0  0
   15.1632    2.2119    5.3062 C   0  0  0  0  0  0  0  0  0  0  0  0
   16.2833    2.8303    5.9195 N   0  0  0  0  0  0  0  0  0  0  0  0
   17.1977    2.1043    6.6619 C   0  0  0  0  0  0  0  0  0  0  0  0
   17.2076    0.8769    6.7162 O   0  0  0  0  0  0  0  0  0  0  0  0
   18.0770    2.9098    7.3726 N   0  0  0  0  0  0  0  0  0  0  0  0
   18.9716    2.2673    8.2720 C   0  0  0  0  0  0  0  0  0  0  0  0
   19.7370    1.1681    7.8636 C   0  0  0  0  0  0  0  0  0  0  0  0
   20.4273    0.3894    8.8002 C   0  0  0  0  0  0  0  0  0  0  0  0
   21.1559   -0.8482    8.3644 C   0  0  0  0  0  0  0  0  0  0  0  0
   20.3573    0.7357   10.1556 C   0  0  0  0  0  0  0  0  0  0  0  0
   19.6538    1.8744   10.5593 C   0  0  0  0  0  0  0  0  0  0  0  0
   18.9840    2.6453    9.6133 C   0  0  0  0  0  0  0  0  0  0  0  0
   18.2584    3.6995   10.0177 F   0  0  0  0  0  0  0  0  0  0  0  0
   14.6266    2.7383    4.1295 C   0  0  0  0  0  0  0  0  0  0  0  0
   15.1345    3.8671    3.6127 F   0  0  0  0  0  0  0  0  0  0  0  0
   13.6048    2.0736    3.4407 C   0  0  0  0  0  0  0  0  0  0  0  0
   10.7949   -1.7843    3.3822 C   0  0  0  0  0  0  0  0  0  0  0  0
    9.2196   -1.1011    3.2509 S   0  0  0  0  0  0  0  0  0  0  0  0
    3.0859    0.0281   -2.2925 H   0  0  0  0  0  0  0  0  0  0  0  0
    2.5619   -1.4840   -1.5324 H   0  0  0  0  0  0  0  0  0  0  0  0
    4.2722   -1.2379   -1.9214 H   0  0  0  0  0  0  0  0  0  0  0  0
    2.6431    0.3282    0.1616 H   0  0  0  0  0  0  0  0  0  0  0  0
    4.3175    0.6946   -0.2759 H   0  0  0  0  0  0  0  0  0  0  0  0
    3.7346   -2.0230    0.7176 H   0  0  0  0  0  0  0  0  0  0  0  0
    4.4973   -2.6730    2.6879 H   0  0  0  0  0  0  0  0  0  0  0  0
    4.5652   -2.1671    5.1506 H   0  0  0  0  0  0  0  0  0  0  0  0
    4.5561   -0.4443    4.8176 H   0  0  0  0  0  0  0  0  0  0  0  0
    2.2694   -0.6140    3.8158 H   0  0  0  0  0  0  0  0  0  0  0  0
    2.3046   -1.1770    5.4688 H   0  0  0  0  0  0  0  0  0  0  0  0
    2.1666   -3.2860    5.8854 H   0  0  0  0  0  0  0  0  0  0  0  0
    6.7296   -0.7599    3.0605 H   0  0  0  0  0  0  0  0  0  0  0  0
    9.0987   -4.6594    3.7940 H   0  0  0  0  0  0  0  0  0  0  0  0
   13.8597   -4.0058    3.7021 H   0  0  0  0  0  0  0  0  0  0  0  0
   14.1834   -1.6001    3.2885 H   0  0  0  0  0  0  0  0  0  0  0  0
   13.1035   -0.4640    5.6575 H   0  0  0  0  0  0  0  0  0  0  0  0
   14.9119    0.6494    6.7949 H   0  0  0  0  0  0  0  0  0  0  0  0
   16.6254    3.6829    5.4940 H   0  0  0  0  0  0  0  0  0  0  0  0
   17.6467    3.7541    7.7325 H   0  0  0  0  0  0  0  0  0  0  0  0
   19.7467    0.8802    6.8139 H   0  0  0  0  0  0  0  0  0  0  0  0
   21.2378   -0.9009    7.2731 H   0  0  0  0  0  0  0  0  0  0  0  0
   20.6204   -1.7398    8.7062 H   0  0  0  0  0  0  0  0  0  0  0  0
   22.1712   -0.8562    8.7721 H   0  0  0  0  0  0  0  0  0  0  0  0
   20.8362    0.1077   10.9039 H   0  0  0  0  0  0  0  0  0  0  0  0
   19.5871    2.1359   11.6104 H   0  0  0  0  0  0  0  0  0  0  0  0
   13.2375    2.4814    2.5043 H   0  0  0  0  0  0  0  0  0  0  0  0
  1  2  1  0  0  0  0
  1 44  1  0  0  0  0
  1 45  1  0  0  0  0
  1 46  1  0  0  0  0
  2  3  1  0  0  0  0
  2 47  1  0  0  0  0
  2 48  1  0  0  0  0
  3  4  1  0  0  0  0
  3 49  1  0  0  0  0
  4  5  2  0  0  0  0
  6 12  1  0  0  0  0
  6  7  1  0  0  0  0
  6  4  1  0  0  0  0
  6 50  1  6  0  0  0
  7  8  1  0  0  0  0
  7 51  1  0  0  0  0
  7 52  1  0  0  0  0
  8  9  1  0  0  0  0
  8 53  1  0  0  0  0
  8 54  1  0  0  0  0
  9 10  2  0  0  0  0
  9 11  1  0  0  0  0
 11 55  1  0  0  0  0
 12 13  1  0  0  0  0
 12 56  1  0  0  0  0
 13 14  2  0  0  0  0
 13 15  1  0  0  0  0
 15 16  2  0  0  0  0
 15 43  1  0  0  0  0
 16 17  1  0  0  0  0
 16 57  1  0  0  0  0
 17 18  1  0  0  0  0
 17 42  2  0  0  0  0
 18 19  2  0  0  0  0
 19 20  1  0  0  0  0
 19 58  1  0  0  0  0
 20 21  2  0  0  0  0
 20 59  1  0  0  0  0
 21 22  1  0  0  0  0
 21 42  1  0  0  0  0
 22 23  1  0  0  0  0
 23 24  1  0  0  0  0
 23 41  2  0  0  0  0
 24 25  2  0  0  0  0
 24 60  1  0  0  0  0
 25 26  1  0  0  0  0
 25 61  1  0  0  0  0
 26 27  1  0  0  0  0
 26 39  2  0  0  0  0
 27 28  1  0  0  0  0
 27 62  1  0  0  0  0
 28 29  2  0  0  0  0
 28 30  1  0  0  0  0
 30 31  1  0  0  0  0
 30 63  1  0  0  0  0
 31 32  1  0  0  0  0
 31 37  2  0  0  0  0
 32 33  2  0  0  0  0
 32 64  1  0  0  0  0
 33 34  1  0  0  0  0
 33 35  1  0  0  0  0
 34 65  1  0  0  0  0
 34 66  1  0  0  0  0
 34 67  1  0  0  0  0
 35 36  2  0  0  0  0
 35 68  1  0  0  0  0
 36 37  1  0  0  0  0
 36 69  1  0  0  0  0
 37 38  1  0  0  0  0
 39 40  1  0  0  0  0
 39 41  1  0  0  0  0
 41 70  1  0  0  0  0
 42 43  1  0  0  0  0
M  END
$$$$
