CHEMBL3960571
 OpenBabel04072215373D

 60 63  0  0  0  0  0  0  0  0999 V2000
    0.6238    1.6210   -3.7751 C   0  0  0  0  0  0  0  0  0  0  0  0
    1.9200    1.2172   -4.1921 O   0  0  0  0  0  0  0  0  0  0  0  0
    2.7918    0.9749   -3.1692 C   0  0  0  0  0  0  0  0  0  0  0  0
    2.5338    1.1034   -1.8444 C   0  0  0  0  0  0  0  0  0  0  0  0
    3.4790    0.7347   -0.8946 C   0  0  0  0  0  0  0  0  0  0  0  0
    3.2387    0.8096    0.4488 O   0  0  0  0  0  0  0  0  0  0  0  0
    1.9382    1.2903    0.7835 C   0  0  0  0  0  0  0  0  0  0  0  0
    4.7195    0.2197   -1.2775 C   0  0  0  0  0  0  0  0  0  0  0  0
    5.0179    0.0062   -2.6118 C   0  0  0  0  0  0  0  0  0  0  0  0
    6.2278   -0.6079   -3.0013 N   0  0  0  0  0  0  0  0  0  0  0  0
    6.8666   -1.6358   -2.0589 C   0  0  0  0  0  0  0  0  0  0  0  0
    5.9672   -2.8317   -1.7550 C   0  0  0  0  0  0  0  0  0  0  0  0
    6.4798   -3.8580   -0.8603 N   0  0  0  0  0  0  0  0  0  0  0  0
    5.4330   -4.8914   -0.7125 C   0  0  0  0  0  0  0  0  0  0  0  0
    5.9919   -5.9476    0.2117 C   0  0  0  0  0  0  0  0  0  0  0  0
    6.2841   -5.3801    1.4159 F   0  0  0  0  0  0  0  0  0  0  0  0
    7.2116   -0.0726   -3.9176 C   0  0  0  0  0  0  0  0  0  0  0  0
    7.9178   -0.9941   -4.6520 C   0  0  0  0  0  0  0  0  0  0  0  0
    8.9208   -0.5645   -5.4402 C   0  0  0  0  0  0  0  0  0  0  0  0
    9.3018    0.7399   -5.5245 C   0  0  0  0  0  0  0  0  0  0  0  0
   10.5729    0.6612   -5.5707 N   0  0  0  0  0  0  0  0  0  0  0  0
   11.0376    0.6531   -6.7900 C   0  0  0  0  0  0  0  0  0  0  0  0
   11.3091    1.8329   -7.3301 C   0  0  0  0  0  0  0  0  0  0  0  0
   12.7598    0.9574   -8.0711 C   0  0  0  0  0  0  0  0  0  0  0  0
   13.6695   -0.3077   -7.7668 C   0  0  0  0  0  0  0  0  0  0  0  0
   14.6107   -0.6952   -8.6772 N   0  0  0  0  0  0  0  0  0  0  0  0
   14.4841    0.1592   -9.7000 N   0  0  0  0  0  0  0  0  0  0  0  0
   15.3145   -0.0221  -10.9448 C   0  0  0  0  0  0  0  0  0  0  0  0
   13.4200    1.1239   -9.3650 C   0  0  0  0  0  0  0  0  0  0  0  0
    9.9709    2.4784   -6.5415 N   0  0  0  0  0  0  0  0  0  0  0  0
    8.8369    1.9065   -5.3519 C   0  0  0  0  0  0  0  0  0  0  0  0
    7.6810    1.3479   -4.1406 C   0  0  0  0  0  0  0  0  0  0  0  0
    4.0487    0.5143   -3.5150 C   0  0  0  0  0  0  0  0  0  0  0  0
   -0.0166    1.6991   -4.6524 H   0  0  0  0  0  0  0  0  0  0  0  0
    0.6881    2.6039   -3.2989 H   0  0  0  0  0  0  0  0  0  0  0  0
    0.1616    0.8939   -3.0944 H   0  0  0  0  0  0  0  0  0  0  0  0
    1.5850    1.5136   -1.5726 H   0  0  0  0  0  0  0  0  0  0  0  0
    1.8522    1.2986    1.8679 H   0  0  0  0  0  0  0  0  0  0  0  0
    1.1490    0.6368    0.3859 H   0  0  0  0  0  0  0  0  0  0  0  0
    1.8009    2.3175    0.4232 H   0  0  0  0  0  0  0  0  0  0  0  0
    5.4694    0.0214   -0.5220 H   0  0  0  0  0  0  0  0  0  0  0  0
    7.1917   -1.2169   -1.1019 H   0  0  0  0  0  0  0  0  0  0  0  0
    7.7344   -2.0491   -2.5685 H   0  0  0  0  0  0  0  0  0  0  0  0
    5.8434   -3.3437   -2.7054 H   0  0  0  0  0  0  0  0  0  0  0  0
    5.0687   -2.4506   -1.2665 H   0  0  0  0  0  0  0  0  0  0  0  0
    6.6438   -3.4194    0.0483 H   0  0  0  0  0  0  0  0  0  0  0  0
    5.1714   -5.3525   -1.6770 H   0  0  0  0  0  0  0  0  0  0  0  0
    4.5036   -4.4788   -0.2942 H   0  0  0  0  0  0  0  0  0  0  0  0
    6.9119   -6.3650   -0.2062 H   0  0  0  0  0  0  0  0  0  0  0  0
    5.2638   -6.7424    0.3675 H   0  0  0  0  0  0  0  0  0  0  0  0
    7.9303   -2.0669   -4.5074 H   0  0  0  0  0  0  0  0  0  0  0  0
    9.6220   -1.2474   -5.9103 H   0  0  0  0  0  0  0  0  0  0  0  0
   11.3738   -0.3422   -6.9696 H   0  0  0  0  0  0  0  0  0  0  0  0
   13.6959   -1.0019   -6.9278 H   0  0  0  0  0  0  0  0  0  0  0  0
   16.0947   -0.8165  -10.8741 H   0  0  0  0  0  0  0  0  0  0  0  0
   15.8507    0.9002  -11.2127 H   0  0  0  0  0  0  0  0  0  0  0  0
   14.6761   -0.3100  -11.7929 H   0  0  0  0  0  0  0  0  0  0  0  0
   13.3019    1.8099  -10.1759 H   0  0  0  0  0  0  0  0  0  0  0  0
    7.0240    2.0072   -3.4880 H   0  0  0  0  0  0  0  0  0  0  0  0
    4.1534    0.6709   -4.5703 H   0  0  0  0  0  0  0  0  0  0  0  0
  1  2  1  0  0  0  0
  1 34  1  0  0  0  0
  1 35  1  0  0  0  0
  1 36  1  0  0  0  0
  2  3  1  0  0  0  0
  3  4  1  0  0  0  0
  3 33  2  0  0  0  0
  4  5  2  0  0  0  0
  4 37  1  0  0  0  0
  5  6  1  0  0  0  0
  5  8  1  0  0  0  0
  6  7  1  0  0  0  0
  7 38  1  0  0  0  0
  7 39  1  0  0  0  0
  7 40  1  0  0  0  0
  8  9  2  0  0  0  0
  8 41  1  0  0  0  0
  9 10  1  0  0  0  0
  9 33  1  0  0  0  0
 10 11  1  0  0  0  0
 10 17  1  0  0  0  0
 11 12  1  0  0  0  0
 11 42  1  0  0  0  0
 11 43  1  0  0  0  0
 12 13  1  0  0  0  0
 12 44  1  0  0  0  0
 12 45  1  0  0  0  0
 13 14  1  0  0  0  0
 13 46  1  0  0  0  0
 14 15  1  0  0  0  0
 14 47  1  0  0  0  0
 14 48  1  0  0  0  0
 15 16  1  0  0  0  0
 15 49  1  0  0  0  0
 15 50  1  0  0  0  0
 17 18  1  0  0  0  0
 17 32  2  0  0  0  0
 18 19  2  0  0  0  0
 18 51  1  0  0  0  0
 19 20  1  0  0  0  0
 19 52  1  0  0  0  0
 20 21  1  0  0  0  0
 20 31  2  0  0  0  0
 21 22  2  0  0  0  0
 22 23  1  0  0  0  0
 22 53  1  0  0  0  0
 23 24  1  0  0  0  0
 23 30  2  0  0  0  0
 24 25  1  0  0  0  0
 24 29  2  0  0  0  0
 25 26  2  0  0  0  0
 25 54  1  0  0  0  0
 26 27  1  0  0  0  0
 27 28  1  0  0  0  0
 27 29  1  0  0  0  0
 28 55  1  0  0  0  0
 28 56  1  0  0  0  0
 28 57  1  0  0  0  0
 29 58  1  0  0  0  0
 30 31  1  0  0  0  0
 31 32  1  0  0  0  0
 32 59  1  0  0  0  0
 33 60  1  0  0  0  0
M  END
$$$$
