CHEMBL501752
 OpenBabel04072215383D

 58 62  0  0  0  0  0  0  0  0999 V2000
    1.6687    0.7853   -2.0613 O   0  0  0  0  0  0  0  0  0  0  0  0
    2.6736    0.4570   -1.4672 C   0  0  0  0  0  0  0  0  0  0  0  0
    3.2764   -0.7823   -1.5870 N   0  0  0  0  0  0  0  0  0  0  0  0
    4.5798   -0.7535   -1.1127 C   0  0  0  0  0  0  0  0  0  0  0  0
    5.4888   -1.7873   -1.2188 C   0  0  0  0  0  0  0  0  0  0  0  0
    6.7812   -1.5377   -0.7679 C   0  0  0  0  0  0  0  0  0  0  0  0
    7.9795   -2.7630   -0.9128 Cl  0  0  0  0  0  0  0  0  0  0  0  0
    7.1232   -0.2926   -0.2194 C   0  0  0  0  0  0  0  0  0  0  0  0
    6.1721    0.7330   -0.1105 C   0  0  0  0  0  0  0  0  0  0  0  0
    4.8849    0.5013   -0.5652 C   0  0  0  0  0  0  0  0  0  0  0  0
    3.6304    1.2940   -0.6303 C   0  0  0  0  0  0  0  0  0  0  0  0
    3.2967    2.4853   -0.0738 C   0  0  0  0  0  0  0  0  0  0  0  0
    2.0432    3.0707    0.0537 N   0  0  0  0  0  0  0  0  0  0  0  0
    0.8013    2.4218    0.2038 C   0  0  0  0  0  0  0  0  0  0  0  0
    0.6892    1.1828    0.8503 C   0  0  0  0  0  0  0  0  0  0  0  0
   -0.4398    0.3803    0.6730 C   0  0  0  0  0  0  0  0  0  0  0  0
   -1.4872    0.8143   -0.1447 C   0  0  0  0  0  0  0  0  0  0  0  0
   -2.5302   -0.1648   -0.6360 C   0  0  0  0  0  0  0  0  0  0  0  0
   -3.2545   -0.9093    0.4147 N   0  0  0  0  0  0  0  0  0  0  0  0
   -4.1457    0.0023    1.1505 C   0  0  0  0  0  0  0  0  0  0  0  0
   -5.0756   -0.7266    2.1209 C   0  0  0  0  0  0  0  0  0  0  0  0
   -5.8767   -1.8023    1.4025 C   0  0  0  0  0  0  0  0  0  0  0  0
   -4.9209   -2.7654    0.7163 C   0  0  0  0  0  0  0  0  0  0  0  0
   -3.9849   -2.0162   -0.2299 C   0  0  0  0  0  0  0  0  0  0  0  0
   -1.4480    2.1179   -0.6589 C   0  0  0  0  0  0  0  0  0  0  0  0
   -0.3132    2.9163   -0.4808 C   0  0  0  0  0  0  0  0  0  0  0  0
    4.3762    3.3597    0.4359 C   0  0  0  0  0  0  0  0  0  0  0  0
    5.0230    4.2387   -0.4464 C   0  0  0  0  0  0  0  0  0  0  0  0
    6.0896    5.0223   -0.0055 C   0  0  0  0  0  0  0  0  0  0  0  0
    6.5133    4.9365    1.3198 C   0  0  0  0  0  0  0  0  0  0  0  0
    5.8544    4.0893    2.2120 C   0  0  0  0  0  0  0  0  0  0  0  0
    4.7789    3.3107    1.7767 C   0  0  0  0  0  0  0  0  0  0  0  0
    2.8579   -1.5209   -2.1284 H   0  0  0  0  0  0  0  0  0  0  0  0
    5.2135   -2.7413   -1.6525 H   0  0  0  0  0  0  0  0  0  0  0  0
    8.1407   -0.1112    0.1207 H   0  0  0  0  0  0  0  0  0  0  0  0
    6.4768    1.6826    0.3105 H   0  0  0  0  0  0  0  0  0  0  0  0
    2.0073    4.0762   -0.0679 H   0  0  0  0  0  0  0  0  0  0  0  0
    1.5229    0.7890    1.4244 H   0  0  0  0  0  0  0  0  0  0  0  0
   -0.4580   -0.6222    1.0938 H   0  0  0  0  0  0  0  0  0  0  0  0
   -1.9862   -0.8737   -1.2769 H   0  0  0  0  0  0  0  0  0  0  0  0
   -3.2429    0.3468   -1.2977 H   0  0  0  0  0  0  0  0  0  0  0  0
   -4.7568    0.5924    0.4555 H   0  0  0  0  0  0  0  0  0  0  0  0
   -3.5442    0.7089    1.7351 H   0  0  0  0  0  0  0  0  0  0  0  0
   -5.7579   -0.0059    2.5851 H   0  0  0  0  0  0  0  0  0  0  0  0
   -4.4887   -1.1815    2.9287 H   0  0  0  0  0  0  0  0  0  0  0  0
   -6.5360   -1.3395    0.6571 H   0  0  0  0  0  0  0  0  0  0  0  0
   -6.5147   -2.3402    2.1111 H   0  0  0  0  0  0  0  0  0  0  0  0
   -5.4899   -3.5139    0.1528 H   0  0  0  0  0  0  0  0  0  0  0  0
   -4.3357   -3.3072    1.4696 H   0  0  0  0  0  0  0  0  0  0  0  0
   -4.5697   -1.6487   -1.0835 H   0  0  0  0  0  0  0  0  0  0  0  0
   -3.2594   -2.7395   -0.6247 H   0  0  0  0  0  0  0  0  0  0  0  0
   -2.2554    2.4870   -1.2860 H   0  0  0  0  0  0  0  0  0  0  0  0
   -0.2658    3.8786   -0.9833 H   0  0  0  0  0  0  0  0  0  0  0  0
    4.7048    4.3036   -1.4850 H   0  0  0  0  0  0  0  0  0  0  0  0
    6.5940    5.6917   -0.6977 H   0  0  0  0  0  0  0  0  0  0  0  0
    7.3571    5.5333    1.6583 H   0  0  0  0  0  0  0  0  0  0  0  0
    6.1850    4.0285    3.2459 H   0  0  0  0  0  0  0  0  0  0  0  0
    4.2757    2.6468    2.4755 H   0  0  0  0  0  0  0  0  0  0  0  0
  1  2  2  0  0  0  0
  2  3  1  0  0  0  0
  2 11  1  0  0  0  0
  3  4  1  0  0  0  0
  3 33  1  0  0  0  0
  4  5  1  0  0  0  0
  4 10  2  0  0  0  0
  5  6  2  0  0  0  0
  5 34  1  0  0  0  0
  6  7  1  0  0  0  0
  6  8  1  0  0  0  0
  8  9  2  0  0  0  0
  8 35  1  0  0  0  0
  9 10  1  0  0  0  0
  9 36  1  0  0  0  0
 10 11  1  0  0  0  0
 11 12  2  0  0  0  0
 12 13  1  0  0  0  0
 12 27  1  0  0  0  0
 13 14  1  0  0  0  0
 13 37  1  0  0  0  0
 14 15  1  0  0  0  0
 14 26  2  0  0  0  0
 15 16  2  0  0  0  0
 15 38  1  0  0  0  0
 16 17  1  0  0  0  0
 16 39  1  0  0  0  0
 17 18  1  0  0  0  0
 17 25  2  0  0  0  0
 18 19  1  0  0  0  0
 18 40  1  0  0  0  0
 18 41  1  0  0  0  0
 19 20  1  0  0  0  0
 19 24  1  0  0  0  0
 20 21  1  0  0  0  0
 20 42  1  0  0  0  0
 20 43  1  0  0  0  0
 21 22  1  0  0  0  0
 21 44  1  0  0  0  0
 21 45  1  0  0  0  0
 22 23  1  0  0  0  0
 22 46  1  0  0  0  0
 22 47  1  0  0  0  0
 23 24  1  0  0  0  0
 23 48  1  0  0  0  0
 23 49  1  0  0  0  0
 24 50  1  0  0  0  0
 24 51  1  0  0  0  0
 25 26  1  0  0  0  0
 25 52  1  0  0  0  0
 26 53  1  0  0  0  0
 27 28  1  0  0  0  0
 27 32  2  0  0  0  0
 28 29  2  0  0  0  0
 28 54  1  0  0  0  0
 29 30  1  0  0  0  0
 29 55  1  0  0  0  0
 30 31  2  0  0  0  0
 30 56  1  0  0  0  0
 31 32  1  0  0  0  0
 31 57  1  0  0  0  0
 32 58  1  0  0  0  0
M  END
$$$$
