CHEMBL3984461
 OpenBabel04072215373D

 66 69  0  0  1  0  0  0  0  0999 V2000
    4.4003    5.8797   -3.2602 C   0  0  0  0  0  0  0  0  0  0  0  0
    4.1080    4.7577   -2.4665 O   0  0  0  0  0  0  0  0  0  0  0  0
    4.7511    3.5992   -3.0211 C   0  0  0  0  0  0  0  0  0  0  0  0
    4.4006    2.4459   -2.1363 C   0  0  3  0  0  0  0  0  0  0  0  0
    2.9829    2.5421   -2.3237 O   0  0  0  0  0  0  0  0  0  0  0  0
    5.0216    1.1024   -2.5895 C   0  0  0  0  0  0  0  0  0  0  0  0
    6.5655    1.0418   -2.6574 N   0  0  0  0  0  0  0  0  0  0  0  0
    7.2551    0.6307   -1.4943 C   0  0  0  0  0  0  0  0  0  0  0  0
    8.4731   -0.0332   -1.5973 C   0  0  0  0  0  0  0  0  0  0  0  0
    9.3526   -0.3512   -0.6021 C   0  0  0  0  0  0  0  0  0  0  0  0
   10.5417   -0.9893   -0.8083 O   0  0  0  0  0  0  0  0  0  0  0  0
   10.6193   -1.9022   -1.9197 C   0  0  0  0  0  0  0  0  0  0  0  0
    9.0375    0.1569    0.6220 C   0  0  0  0  0  0  0  0  0  0  0  0
    7.8898    0.9444    0.7920 C   0  0  0  0  0  0  0  0  0  0  0  0
    7.6843    1.7112    1.9084 O   0  0  0  0  0  0  0  0  0  0  0  0
    8.7291    1.6473    2.8823 C   0  0  0  0  0  0  0  0  0  0  0  0
    6.9273    1.0480   -0.2239 C   0  0  0  0  0  0  0  0  0  0  0  0
    7.2090    1.6181   -3.8166 C   0  0  0  0  0  0  0  0  0  0  0  0
    6.5013    1.5836   -4.9533 C   0  0  0  0  0  0  0  0  0  0  0  0
    6.9347    2.2452   -6.0225 C   0  0  0  0  0  0  0  0  0  0  0  0
    8.1643    2.7930   -6.1322 C   0  0  0  0  0  0  0  0  0  0  0  0
    8.4391    2.3755   -7.2778 N   0  0  0  0  0  0  0  0  0  0  0  0
    8.1688    3.2432   -8.1983 C   0  0  0  0  0  0  0  0  0  0  0  0
    9.1523    4.0352   -8.4783 C   0  0  0  0  0  0  0  0  0  0  0  0
    8.7894    3.6856  -10.2517 C   0  0  0  0  0  0  0  0  0  0  0  0
    9.0294    4.6763  -11.4830 C   0  0  0  0  0  0  0  0  0  0  0  0
    8.6568    4.3007  -12.7393 N   0  0  0  0  0  0  0  0  0  0  0  0
    8.2068    3.0484  -12.5906 N   0  0  0  0  0  0  0  0  0  0  0  0
    7.7311    2.2545  -13.8101 C   0  0  0  0  0  0  0  0  0  0  0  0
    8.4942    0.9336  -14.1083 C   0  0  0  0  0  0  0  0  0  0  0  0
    6.2615    1.8921  -13.6401 C   0  0  0  0  0  0  0  0  0  0  0  0
    8.2698    2.6830  -11.1494 C   0  0  0  0  0  0  0  0  0  0  0  0
    9.8145    3.9791   -6.9548 N   0  0  0  0  0  0  0  0  0  0  0  0
    9.1993    3.1709   -5.4763 C   0  0  0  0  0  0  0  0  0  0  0  0
    8.5587    2.3577   -4.0311 C   0  0  0  0  0  0  0  0  0  0  0  0
    3.9056    6.7522   -2.8345 H   0  0  0  0  0  0  0  0  0  0  0  0
    4.0460    5.7175   -4.2819 H   0  0  0  0  0  0  0  0  0  0  0  0
    5.4808    6.0183   -3.2445 H   0  0  0  0  0  0  0  0  0  0  0  0
    5.8211    3.7490   -3.0690 H   0  0  0  0  0  0  0  0  0  0  0  0
    4.3112    3.4002   -4.0100 H   0  0  0  0  0  0  0  0  0  0  0  0
    4.6881    2.6435   -1.0923 H   0  0  0  0  0  0  0  0  0  0  0  0
    2.7019    1.9562   -3.0420 H   0  0  0  0  0  0  0  0  0  0  0  0
    4.5527    0.8735   -3.5632 H   0  0  0  0  0  0  0  0  0  0  0  0
    4.6955    0.3151   -1.8975 H   0  0  0  0  0  0  0  0  0  0  0  0
    8.8616   -0.2274   -2.5513 H   0  0  0  0  0  0  0  0  0  0  0  0
   11.6268   -2.3237   -1.9501 H   0  0  0  0  0  0  0  0  0  0  0  0
   10.4558   -1.4016   -2.8857 H   0  0  0  0  0  0  0  0  0  0  0  0
    9.9285   -2.7431   -1.7984 H   0  0  0  0  0  0  0  0  0  0  0  0
    9.7218   -0.0361    1.4293 H   0  0  0  0  0  0  0  0  0  0  0  0
    8.4671    2.3205    3.6984 H   0  0  0  0  0  0  0  0  0  0  0  0
    9.7065    1.9649    2.4879 H   0  0  0  0  0  0  0  0  0  0  0  0
    8.7984    0.6345    3.2942 H   0  0  0  0  0  0  0  0  0  0  0  0
    5.9549    1.4916   -0.0463 H   0  0  0  0  0  0  0  0  0  0  0  0
    5.5112    1.0987   -5.0584 H   0  0  0  0  0  0  0  0  0  0  0  0
    6.3751    2.1386   -6.9480 H   0  0  0  0  0  0  0  0  0  0  0  0
    7.3829    2.8273   -8.7761 H   0  0  0  0  0  0  0  0  0  0  0  0
    9.4841    5.6684  -11.4563 H   0  0  0  0  0  0  0  0  0  0  0  0
    7.8254    2.8683  -14.7337 H   0  0  0  0  0  0  0  0  0  0  0  0
    8.4429    0.2718  -13.2413 H   0  0  0  0  0  0  0  0  0  0  0  0
    9.5438    1.1147  -14.3569 H   0  0  0  0  0  0  0  0  0  0  0  0
    8.0619    0.3760  -14.9630 H   0  0  0  0  0  0  0  0  0  0  0  0
    6.1560    1.2634  -12.7509 H   0  0  0  0  0  0  0  0  0  0  0  0
    5.8342    1.3414  -14.4874 H   0  0  0  0  0  0  0  0  0  0  0  0
    5.6802    2.8059  -13.5060 H   0  0  0  0  0  0  0  0  0  0  0  0
    7.9343    1.6765  -11.0557 H   0  0  0  0  0  0  0  0  0  0  0  0
    9.0541    2.2171   -2.9982 H   0  0  0  0  0  0  0  0  0  0  0  0
  1  2  1  0  0  0  0
  1 36  1  0  0  0  0
  1 37  1  0  0  0  0
  1 38  1  0  0  0  0
  2  3  1  0  0  0  0
  3  4  1  0  0  0  0
  3 39  1  0  0  0  0
  3 40  1  0  0  0  0
  4  5  1  0  0  0  0
  4  6  1  0  0  0  0
  4 41  1  0  0  0  0
  5 42  1  0  0  0  0
  6  7  1  0  0  0  0
  6 43  1  0  0  0  0
  6 44  1  0  0  0  0
  7  8  1  0  0  0  0
  7 18  1  0  0  0  0
  8  9  1  0  0  0  0
  8 17  2  0  0  0  0
  9 10  2  0  0  0  0
  9 45  1  0  0  0  0
 10 11  1  0  0  0  0
 10 13  1  0  0  0  0
 11 12  1  0  0  0  0
 12 46  1  0  0  0  0
 12 47  1  0  0  0  0
 12 48  1  0  0  0  0
 13 14  2  0  0  0  0
 13 49  1  0  0  0  0
 14 15  1  0  0  0  0
 14 17  1  0  0  0  0
 15 16  1  0  0  0  0
 16 50  1  0  0  0  0
 16 51  1  0  0  0  0
 16 52  1  0  0  0  0
 17 53  1  0  0  0  0
 18 19  1  0  0  0  0
 18 35  2  0  0  0  0
 19 20  2  0  0  0  0
 19 54  1  0  0  0  0
 20 21  1  0  0  0  0
 20 55  1  0  0  0  0
 21 22  1  0  0  0  0
 21 34  2  0  0  0  0
 22 23  2  0  0  0  0
 23 24  1  0  0  0  0
 23 56  1  0  0  0  0
 24 25  1  0  0  0  0
 24 33  2  0  0  0  0
 25 26  1  0  0  0  0
 25 32  2  0  0  0  0
 26 27  2  0  0  0  0
 26 57  1  0  0  0  0
 27 28  1  0  0  0  0
 28 29  1  0  0  0  0
 28 32  1  0  0  0  0
 29 30  1  0  0  0  0
 29 31  1  0  0  0  0
 29 58  1  0  0  0  0
 30 59  1  0  0  0  0
 30 60  1  0  0  0  0
 30 61  1  0  0  0  0
 31 62  1  0  0  0  0
 31 63  1  0  0  0  0
 31 64  1  0  0  0  0
 32 65  1  0  0  0  0
 33 34  1  0  0  0  0
 34 35  1  0  0  0  0
 35 66  1  0  0  0  0
M  END
$$$$
