CHEMBL301018
 OpenBabel04072215363D

 36 38  0  0  0  0  0  0  0  0999 V2000
    3.4406    0.7535    1.0592 C   0  0  0  0  0  0  0  0  0  0  0  0
    2.5063    0.2879    0.0795 O   0  0  0  0  0  0  0  0  0  0  0  0
    3.0543   -0.4111   -0.9642 C   0  0  0  0  0  0  0  0  0  0  0  0
    4.1968   -1.2118   -0.7755 C   0  0  0  0  0  0  0  0  0  0  0  0
    4.8698   -1.8067   -1.8300 C   0  0  0  0  0  0  0  0  0  0  0  0
    6.0119   -2.4518   -1.5753 N   0  0  0  0  0  0  0  0  0  0  0  0
    6.6694   -2.9347   -2.6335 C   0  0  0  0  0  0  0  0  0  0  0  0
    6.2892   -2.8338   -3.9086 N   0  0  0  0  0  0  0  0  0  0  0  0
    5.1298   -2.1980   -4.1583 C   0  0  0  0  0  0  0  0  0  0  0  0
    4.6920   -2.0341   -5.5037 N   0  0  0  0  0  0  0  0  0  0  0  0
    5.2701   -2.5865   -6.6694 C   0  0  0  0  0  0  0  0  0  0  0  0
    5.9672   -3.8027   -6.6569 C   0  0  0  0  0  0  0  0  0  0  0  0
    6.5413   -4.3212   -7.8176 C   0  0  0  0  0  0  0  0  0  0  0  0
    6.3761   -3.6494   -9.0182 C   0  0  0  0  0  0  0  0  0  0  0  0
    6.9498   -4.1524  -10.1222 F   0  0  0  0  0  0  0  0  0  0  0  0
    5.6209   -2.4826   -9.0737 C   0  0  0  0  0  0  0  0  0  0  0  0
    5.3772   -1.6674  -10.5717 Cl  0  0  0  0  0  0  0  0  0  0  0  0
    5.0583   -1.9581   -7.9066 C   0  0  0  0  0  0  0  0  0  0  0  0
    4.3502   -1.6640   -3.1177 C   0  0  0  0  0  0  0  0  0  0  0  0
    3.1205   -0.9905   -3.2933 C   0  0  0  0  0  0  0  0  0  0  0  0
    2.4781   -0.3406   -2.2349 C   0  0  0  0  0  0  0  0  0  0  0  0
    1.3594    0.3127   -2.6634 O   0  0  0  0  0  0  0  0  0  0  0  0
    0.6486    1.1603   -1.7794 C   0  0  0  0  0  0  0  0  0  0  0  0
    3.1199    1.7440    1.3939 H   0  0  0  0  0  0  0  0  0  0  0  0
    4.4631    0.8668    0.6766 H   0  0  0  0  0  0  0  0  0  0  0  0
    3.4344    0.0755    1.9185 H   0  0  0  0  0  0  0  0  0  0  0  0
    4.6071   -1.3641    0.2178 H   0  0  0  0  0  0  0  0  0  0  0  0
    7.6055   -3.4494   -2.4412 H   0  0  0  0  0  0  0  0  0  0  0  0
    4.4289   -1.0630   -5.6468 H   0  0  0  0  0  0  0  0  0  0  0  0
    6.0872   -4.3616   -5.7322 H   0  0  0  0  0  0  0  0  0  0  0  0
    7.1164   -5.2413   -7.7809 H   0  0  0  0  0  0  0  0  0  0  0  0
    4.4641   -1.0495   -7.9669 H   0  0  0  0  0  0  0  0  0  0  0  0
    2.6588   -0.9385   -4.2778 H   0  0  0  0  0  0  0  0  0  0  0  0
   -0.0474    1.7443   -2.3918 H   0  0  0  0  0  0  0  0  0  0  0  0
    1.3012    1.8792   -1.2784 H   0  0  0  0  0  0  0  0  0  0  0  0
    0.0549    0.5735   -1.0726 H   0  0  0  0  0  0  0  0  0  0  0  0
  1  2  1  0  0  0  0
  1 24  1  0  0  0  0
  1 25  1  0  0  0  0
  1 26  1  0  0  0  0
  2  3  1  0  0  0  0
  3  4  1  0  0  0  0
  3 21  2  0  0  0  0
  4  5  2  0  0  0  0
  4 27  1  0  0  0  0
  5  6  1  0  0  0  0
  5 19  1  0  0  0  0
  6  7  2  0  0  0  0
  7  8  1  0  0  0  0
  7 28  1  0  0  0  0
  8  9  2  0  0  0  0
  9 10  1  0  0  0  0
  9 19  1  0  0  0  0
 10 11  1  0  0  0  0
 10 29  1  0  0  0  0
 11 12  1  0  0  0  0
 11 18  2  0  0  0  0
 12 13  2  0  0  0  0
 12 30  1  0  0  0  0
 13 14  1  0  0  0  0
 13 31  1  0  0  0  0
 14 15  1  0  0  0  0
 14 16  2  0  0  0  0
 16 17  1  0  0  0  0
 16 18  1  0  0  0  0
 18 32  1  0  0  0  0
 19 20  2  0  0  0  0
 20 21  1  0  0  0  0
 20 33  1  0  0  0  0
 21 22  1  0  0  0  0
 22 23  1  0  0  0  0
 23 34  1  0  0  0  0
 23 35  1  0  0  0  0
 23 36  1  0  0  0  0
M  END
$$$$
