CHEMBL3656033
 OpenBabel04072215373D

 62 65  0  0  1  0  0  0  0  0999 V2000
    0.7964   -2.1757   -1.5290 C   0  0  0  0  0  0  0  0  0  0  0  0
   -0.6635   -1.9098   -1.2958 C   0  0  0  0  0  0  0  0  0  0  0  0
   -1.5462   -2.9731   -1.0869 C   0  0  0  0  0  0  0  0  0  0  0  0
   -2.9013   -2.7229   -0.8948 C   0  0  0  0  0  0  0  0  0  0  0  0
   -3.3813   -1.4133   -0.8938 C   0  0  0  0  0  0  0  0  0  0  0  0
   -4.7103   -1.2657   -0.8240 F   0  0  0  0  0  0  0  0  0  0  0  0
   -2.5176   -0.3204   -1.0538 C   0  0  0  0  0  0  0  0  0  0  0  0
   -2.9188    1.0441   -1.0286 N   0  0  0  0  0  0  0  0  0  0  0  0
   -4.0770    1.5335   -0.4431 C   0  0  0  0  0  0  0  0  0  0  0  0
   -4.8506    0.8878    0.2552 O   0  0  0  0  0  0  0  0  0  0  0  0
   -4.3530    2.9972   -0.5987 C   0  0  0  0  0  0  0  0  0  0  0  0
   -3.8016    3.7868   -1.6137 C   0  0  0  0  0  0  0  0  0  0  0  0
   -4.1036    5.1528   -1.6788 C   0  0  0  0  0  0  0  0  0  0  0  0
   -4.9772    5.7295   -0.7532 C   0  0  0  0  0  0  0  0  0  0  0  0
   -5.6014    4.9313    0.2061 C   0  0  0  0  0  0  0  0  0  0  0  0
   -6.5118    5.3907    1.1320 O   0  0  0  0  0  0  0  0  0  0  0  0
   -7.4146    6.3714    0.7875 C   0  0  0  0  0  0  0  0  0  0  0  0
   -7.9471    6.5514   -0.4878 C   0  0  0  0  0  0  0  0  0  0  0  0
   -8.8147    7.6106   -0.6815 C   0  0  0  0  0  0  0  0  0  0  0  0
   -9.2040    8.4538    0.2982 N   0  0  0  0  0  0  0  0  0  0  0  0
   -8.7259    8.2140    1.5441 C   0  0  0  0  0  0  0  0  0  0  0  0
   -9.1925    9.1548    2.5575 C   0  0  0  0  0  0  0  0  0  0  0  0
   -8.9929    9.2279    3.9293 C   0  0  0  0  0  0  0  0  0  0  0  0
   -9.6692   10.3831    4.4321 C   0  0  0  0  0  0  0  0  0  0  0  0
   -9.7765   10.8964    5.7964 C   0  0  0  0  0  0  0  0  0  0  0  0
  -10.4523   11.8808    6.0814 O   0  0  0  0  0  0  0  0  0  0  0  0
   -9.0593   10.1988    6.7437 N   0  0  0  0  0  0  0  0  0  0  0  0
   -9.0276   10.6526    8.1202 C   0  0  0  0  0  0  0  0  0  0  0  0
   -8.2401    9.6914    9.0141 C   0  0  3  0  0  0  0  0  0  0  0  0
   -6.8892    9.6075    8.5337 O   0  0  0  0  0  0  0  0  0  0  0  0
   -8.2762   10.1578   10.4762 C   0  0  0  0  0  0  0  0  0  0  0  0
   -7.5133    9.2964   11.3167 O   0  0  0  0  0  0  0  0  0  0  0  0
  -10.2698   10.9734    3.3330 C   0  0  0  0  0  0  0  0  0  0  0  0
   -9.9893   10.2269    2.2241 N   0  0  0  0  0  0  0  0  0  0  0  0
   -7.8424    7.1853    1.8313 C   0  0  0  0  0  0  0  0  0  0  0  0
   -5.2585    3.5818    0.3049 C   0  0  0  0  0  0  0  0  0  0  0  0
   -1.1564   -0.5895   -1.2826 C   0  0  0  0  0  0  0  0  0  0  0  0
    1.0176   -3.2484   -1.5099 H   0  0  0  0  0  0  0  0  0  0  0  0
    1.3980   -1.6979   -0.7488 H   0  0  0  0  0  0  0  0  0  0  0  0
    1.0989   -1.7909   -2.5079 H   0  0  0  0  0  0  0  0  0  0  0  0
   -1.1912   -4.0014   -1.0873 H   0  0  0  0  0  0  0  0  0  0  0  0
   -3.6021   -3.5414   -0.7601 H   0  0  0  0  0  0  0  0  0  0  0  0
   -2.2146    1.7189   -1.2921 H   0  0  0  0  0  0  0  0  0  0  0  0
   -3.1561    3.3632   -2.3765 H   0  0  0  0  0  0  0  0  0  0  0  0
   -3.6707    5.7722   -2.4616 H   0  0  0  0  0  0  0  0  0  0  0  0
   -5.1780    6.7966   -0.8060 H   0  0  0  0  0  0  0  0  0  0  0  0
   -7.6959    5.8998   -1.3143 H   0  0  0  0  0  0  0  0  0  0  0  0
   -9.2213    7.8224   -1.6657 H   0  0  0  0  0  0  0  0  0  0  0  0
   -8.4230    8.5156    4.5071 H   0  0  0  0  0  0  0  0  0  0  0  0
   -8.3244    9.5726    6.4411 H   0  0  0  0  0  0  0  0  0  0  0  0
  -10.0609   10.7536    8.4704 H   0  0  0  0  0  0  0  0  0  0  0  0
   -8.5642   11.6458    8.1191 H   0  0  0  0  0  0  0  0  0  0  0  0
   -8.6480    8.6772    8.9400 H   0  0  0  0  0  0  0  0  0  0  0  0
   -6.3979   10.3673    8.8961 H   0  0  0  0  0  0  0  0  0  0  0  0
   -9.3036   10.1846   10.8529 H   0  0  0  0  0  0  0  0  0  0  0  0
   -7.8443   11.1588   10.5752 H   0  0  0  0  0  0  0  0  0  0  0  0
   -7.7552    8.3774   11.1063 H   0  0  0  0  0  0  0  0  0  0  0  0
  -10.8815   11.8640    3.2614 H   0  0  0  0  0  0  0  0  0  0  0  0
  -10.3009   10.4104    1.2778 H   0  0  0  0  0  0  0  0  0  0  0  0
   -7.4803    7.0138    2.8381 H   0  0  0  0  0  0  0  0  0  0  0  0
   -5.7116    2.9769    1.0888 H   0  0  0  0  0  0  0  0  0  0  0  0
   -0.4547    0.2281   -1.4325 H   0  0  0  0  0  0  0  0  0  0  0  0
  1  2  1  0  0  0  0
  1 38  1  0  0  0  0
  1 39  1  0  0  0  0
  1 40  1  0  0  0  0
  2  3  1  0  0  0  0
  2 37  2  0  0  0  0
  3  4  2  0  0  0  0
  3 41  1  0  0  0  0
  4  5  1  0  0  0  0
  4 42  1  0  0  0  0
  5  6  1  0  0  0  0
  5  7  2  0  0  0  0
  7  8  1  0  0  0  0
  7 37  1  0  0  0  0
  8  9  1  0  0  0  0
  8 43  1  0  0  0  0
  9 10  2  0  0  0  0
  9 11  1  0  0  0  0
 11 12  1  0  0  0  0
 11 36  2  0  0  0  0
 12 13  2  0  0  0  0
 12 44  1  0  0  0  0
 13 14  1  0  0  0  0
 13 45  1  0  0  0  0
 14 15  2  0  0  0  0
 14 46  1  0  0  0  0
 15 16  1  0  0  0  0
 15 36  1  0  0  0  0
 16 17  1  0  0  0  0
 17 18  1  0  0  0  0
 17 35  2  0  0  0  0
 18 19  2  0  0  0  0
 18 47  1  0  0  0  0
 19 20  1  0  0  0  0
 19 48  1  0  0  0  0
 20 21  2  0  0  0  0
 21 22  1  0  0  0  0
 21 35  1  0  0  0  0
 22 23  2  0  0  0  0
 22 34  1  0  0  0  0
 23 24  1  0  0  0  0
 23 49  1  0  0  0  0
 24 25  1  0  0  0  0
 24 33  2  0  0  0  0
 25 26  2  0  0  0  0
 25 27  1  0  0  0  0
 27 28  1  0  0  0  0
 27 50  1  0  0  0  0
 28 29  1  0  0  0  0
 28 51  1  0  0  0  0
 28 52  1  0  0  0  0
 29 30  1  0  0  0  0
 29 31  1  0  0  0  0
 29 53  1  0  0  0  0
 30 54  1  0  0  0  0
 31 32  1  0  0  0  0
 31 55  1  0  0  0  0
 31 56  1  0  0  0  0
 32 57  1  0  0  0  0
 33 34  1  0  0  0  0
 33 58  1  0  0  0  0
 34 59  1  0  0  0  0
 35 60  1  0  0  0  0
 36 61  1  0  0  0  0
 37 62  1  0  0  0  0
M  END
$$$$
