CHEMBL2032026
 OpenBabel04072215363D

 63 67  0  0  0  0  0  0  0  0999 V2000
    3.0374   -1.3987    0.0683 C   0  0  0  0  0  0  0  0  0  0  0  0
    4.4120   -1.1537    0.3568 O   0  0  0  0  0  0  0  0  0  0  0  0
    4.6666   -0.1686    1.2723 C   0  0  0  0  0  0  0  0  0  0  0  0
    3.7047    0.6375    1.8610 C   0  0  0  0  0  0  0  0  0  0  0  0
    4.0853    1.5999    2.7886 C   0  0  0  0  0  0  0  0  0  0  0  0
    5.4232    1.7216    3.2206 C   0  0  0  0  0  0  0  0  0  0  0  0
    5.8477    2.5586    4.2820 C   0  0  0  0  0  0  0  0  0  0  0  0
    5.0083    3.3394    5.0619 O   0  0  0  0  0  0  0  0  0  0  0  0
    3.8791    2.7901    5.6297 C   0  0  0  0  0  0  0  0  0  0  0  0
    2.8370    3.6587    5.9458 C   0  0  0  0  0  0  0  0  0  0  0  0
    1.6197    3.1482    6.4291 C   0  0  0  0  0  0  0  0  0  0  0  0
    1.4705    1.7723    6.5888 C   0  0  0  0  0  0  0  0  0  0  0  0
    0.2358    1.2643    7.0407 N   0  0  0  0  0  0  0  0  0  0  0  0
   -0.0495   -0.0847    7.1509 C   0  0  0  0  0  0  0  0  0  0  0  0
    0.6439   -1.0011    6.7222 O   0  0  0  0  0  0  0  0  0  0  0  0
   -1.3156   -0.4068    7.8603 C   0  0  0  0  0  0  0  0  0  0  0  0
   -1.6965   -1.5799    8.4183 C   0  0  0  0  0  0  0  0  0  0  0  0
   -0.9597   -2.8842    8.3486 C   0  0  0  0  0  0  0  0  0  0  0  0
   -2.9260   -1.4819    9.1019 N   0  0  0  0  0  0  0  0  0  0  0  0
   -3.8886   -2.6062    9.2136 C   0  0  0  0  0  0  0  0  0  0  0  0
   -3.6397   -3.4690   10.4628 C   0  0  0  0  0  0  0  0  0  0  0  0
   -3.6546   -2.7168   11.6726 O   0  0  0  0  0  0  0  0  0  0  0  0
   -3.4642   -0.2258    8.7131 N   0  0  0  0  0  0  0  0  0  0  0  0
   -4.5620    0.3680    9.3705 C   0  0  0  0  0  0  0  0  0  0  0  0
   -5.5017    1.0793    8.6156 C   0  0  0  0  0  0  0  0  0  0  0  0
   -6.6461    1.6022    9.2244 C   0  0  0  0  0  0  0  0  0  0  0  0
   -6.8416    1.4467   10.5959 C   0  0  0  0  0  0  0  0  0  0  0  0
   -5.8982    0.7621   11.3579 C   0  0  0  0  0  0  0  0  0  0  0  0
   -4.7683    0.2179   10.7445 C   0  0  0  0  0  0  0  0  0  0  0  0
   -2.4613    0.5145    8.0722 C   0  0  0  0  0  0  0  0  0  0  0  0
   -2.4369    1.6907    7.7336 O   0  0  0  0  0  0  0  0  0  0  0  0
    2.4948    0.9366    6.3462 N   0  0  0  0  0  0  0  0  0  0  0  0
    3.6686    1.4474    5.8928 C   0  0  0  0  0  0  0  0  0  0  0  0
    7.2052    2.6866    4.5636 C   0  0  0  0  0  0  0  0  0  0  0  0
    8.0929    1.9283    3.8281 C   0  0  0  0  0  0  0  0  0  0  0  0
    7.7182    1.0585    2.8649 N   0  0  0  0  0  0  0  0  0  0  0  0
    6.4110    0.9473    2.5717 C   0  0  0  0  0  0  0  0  0  0  0  0
    6.0109    0.0241    1.6094 C   0  0  0  0  0  0  0  0  0  0  0  0
    2.9813   -2.1973   -0.6767 H   0  0  0  0  0  0  0  0  0  0  0  0
    2.5620   -0.5109   -0.3638 H   0  0  0  0  0  0  0  0  0  0  0  0
    2.4997   -1.7359    0.9620 H   0  0  0  0  0  0  0  0  0  0  0  0
    2.6468    0.5392    1.6450 H   0  0  0  0  0  0  0  0  0  0  0  0
    3.3029    2.2303    3.1989 H   0  0  0  0  0  0  0  0  0  0  0  0
    2.9568    4.7269    5.7927 H   0  0  0  0  0  0  0  0  0  0  0  0
    0.8093    3.8335    6.6543 H   0  0  0  0  0  0  0  0  0  0  0  0
   -0.4846    1.9336    7.2959 H   0  0  0  0  0  0  0  0  0  0  0  0
    0.0679   -2.7945    7.9953 H   0  0  0  0  0  0  0  0  0  0  0  0
   -1.4783   -3.5687    7.6673 H   0  0  0  0  0  0  0  0  0  0  0  0
   -0.8974   -3.3520    9.3331 H   0  0  0  0  0  0  0  0  0  0  0  0
   -3.8446   -3.2373    8.3181 H   0  0  0  0  0  0  0  0  0  0  0  0
   -4.9161   -2.2300    9.2708 H   0  0  0  0  0  0  0  0  0  0  0  0
   -2.6866   -3.9993   10.4149 H   0  0  0  0  0  0  0  0  0  0  0  0
   -4.4288   -4.2237   10.5432 H   0  0  0  0  0  0  0  0  0  0  0  0
   -2.8668   -2.1438   11.6427 H   0  0  0  0  0  0  0  0  0  0  0  0
   -5.3749    1.1880    7.5413 H   0  0  0  0  0  0  0  0  0  0  0  0
   -7.3893    2.1238    8.6268 H   0  0  0  0  0  0  0  0  0  0  0  0
   -7.7273    1.8599   11.0719 H   0  0  0  0  0  0  0  0  0  0  0  0
   -6.0390    0.6476   12.4299 H   0  0  0  0  0  0  0  0  0  0  0  0
   -4.0376   -0.2934   11.3592 H   0  0  0  0  0  0  0  0  0  0  0  0
    4.4260    0.6906    5.7063 H   0  0  0  0  0  0  0  0  0  0  0  0
    7.5619    3.3544    5.3377 H   0  0  0  0  0  0  0  0  0  0  0  0
    9.1641    1.9938    3.9955 H   0  0  0  0  0  0  0  0  0  0  0  0
    6.7697   -0.5881    1.1265 H   0  0  0  0  0  0  0  0  0  0  0  0
  1  2  1  0  0  0  0
  1 39  1  0  0  0  0
  1 40  1  0  0  0  0
  1 41  1  0  0  0  0
  2  3  1  0  0  0  0
  3  4  1  0  0  0  0
  3 38  2  0  0  0  0
  4  5  2  0  0  0  0
  4 42  1  0  0  0  0
  5  6  1  0  0  0  0
  5 43  1  0  0  0  0
  6  7  1  0  0  0  0
  6 37  2  0  0  0  0
  7  8  1  0  0  0  0
  7 34  2  0  0  0  0
  8  9  1  0  0  0  0
  9 10  1  0  0  0  0
  9 33  2  0  0  0  0
 10 11  2  0  0  0  0
 10 44  1  0  0  0  0
 11 12  1  0  0  0  0
 11 45  1  0  0  0  0
 12 13  1  0  0  0  0
 12 32  2  0  0  0  0
 13 14  1  0  0  0  0
 13 46  1  0  0  0  0
 14 15  2  0  0  0  0
 14 16  1  0  0  0  0
 16 17  2  0  0  0  0
 16 30  1  0  0  0  0
 17 18  1  0  0  0  0
 17 19  1  0  0  0  0
 18 47  1  0  0  0  0
 18 48  1  0  0  0  0
 18 49  1  0  0  0  0
 19 20  1  0  0  0  0
 19 23  1  0  0  0  0
 20 21  1  0  0  0  0
 20 50  1  0  0  0  0
 20 51  1  0  0  0  0
 21 22  1  0  0  0  0
 21 52  1  0  0  0  0
 21 53  1  0  0  0  0
 22 54  1  0  0  0  0
 23 24  1  0  0  0  0
 23 30  1  0  0  0  0
 24 25  1  0  0  0  0
 24 29  2  0  0  0  0
 25 26  2  0  0  0  0
 25 55  1  0  0  0  0
 26 27  1  0  0  0  0
 26 56  1  0  0  0  0
 27 28  2  0  0  0  0
 27 57  1  0  0  0  0
 28 29  1  0  0  0  0
 28 58  1  0  0  0  0
 29 59  1  0  0  0  0
 30 31  2  0  0  0  0
 32 33  1  0  0  0  0
 33 60  1  0  0  0  0
 34 35  1  0  0  0  0
 34 61  1  0  0  0  0
 35 36  2  0  0  0  0
 35 62  1  0  0  0  0
 36 37  1  0  0  0  0
 37 38  1  0  0  0  0
 38 63  1  0  0  0  0
M  END
$$$$
