CHEMBL539425
 OpenBabel04072215383D

 39 42  0  0  0  0  0  0  0  0999 V2000
    1.2346   -0.0304   -0.0672 O   0  0  0  0  0  0  0  0  0  0  0  0
    2.5941    0.0037   -0.0316 C   0  0  0  0  0  0  0  0  0  0  0  0
    3.1808   -1.1691   -0.1594 N   0  0  0  0  0  0  0  0  0  0  0  0
    4.4948   -1.1270   -0.0021 C   0  0  0  0  0  0  0  0  0  0  0  0
    5.1339   -2.3536   -0.0386 N   0  0  0  0  0  0  0  0  0  0  0  0
    6.4628   -2.4210    0.5363 C   0  0  0  0  0  0  0  0  0  0  0  0
    6.8706   -3.8653    0.7626 C   0  0  0  0  0  0  0  0  0  0  0  0
    8.2309   -4.2070    0.7929 C   0  0  0  0  0  0  0  0  0  0  0  0
    8.6313   -5.5197    1.0591 C   0  0  0  0  0  0  0  0  0  0  0  0
    7.6804   -6.5083    1.3046 C   0  0  0  0  0  0  0  0  0  0  0  0
    6.3273   -6.1822    1.2979 C   0  0  0  0  0  0  0  0  0  0  0  0
    5.9265   -4.8693    1.0394 C   0  0  0  0  0  0  0  0  0  0  0  0
    5.1866   -0.0076    0.1946 N   0  0  0  0  0  0  0  0  0  0  0  0
    4.4813    1.1204    0.2567 C   0  0  0  0  0  0  0  0  0  0  0  0
    5.2037    2.3097    0.4014 N   0  0  0  0  0  0  0  0  0  0  0  0
    4.8096    3.4581    1.1191 C   0  0  0  0  0  0  0  0  0  0  0  0
    5.3744    4.6895    0.7761 C   0  0  0  0  0  0  0  0  0  0  0  0
    5.0667    5.8551    1.4906 C   0  0  0  0  0  0  0  0  0  0  0  0
    4.1857    5.7915    2.5871 C   0  0  0  0  0  0  0  0  0  0  0  0
    3.8110    6.8532    3.3946 N   0  0  0  0  0  0  0  0  0  0  0  0
    2.9768    6.4272    4.3153 C   0  0  0  0  0  0  0  0  0  0  0  0
    2.5904    4.7606    4.2854 S   0  0  0  0  0  0  0  0  0  0  0  0
    3.6244    4.5585    2.9216 C   0  0  0  0  0  0  0  0  0  0  0  0
    3.9209    3.3878    2.2037 C   0  0  0  0  0  0  0  0  0  0  0  0
    3.1612    1.1731    0.1697 N   0  0  0  0  0  0  0  0  0  0  0  0
    1.0989   -0.9888   -0.1404 H   0  0  0  0  0  0  0  0  0  0  0  0
    5.0795   -2.7148   -0.9840 H   0  0  0  0  0  0  0  0  0  0  0  0
    6.4917   -1.9238    1.5146 H   0  0  0  0  0  0  0  0  0  0  0  0
    7.1840   -1.9317   -0.1294 H   0  0  0  0  0  0  0  0  0  0  0  0
    8.9922   -3.4494    0.6202 H   0  0  0  0  0  0  0  0  0  0  0  0
    9.6889   -5.7691    1.0834 H   0  0  0  0  0  0  0  0  0  0  0  0
    7.9942   -7.5277    1.5144 H   0  0  0  0  0  0  0  0  0  0  0  0
    5.5808   -6.9450    1.5043 H   0  0  0  0  0  0  0  0  0  0  0  0
    4.8642   -4.6319    1.0607 H   0  0  0  0  0  0  0  0  0  0  0  0
    6.1810    2.0783    0.5307 H   0  0  0  0  0  0  0  0  0  0  0  0
    6.0467    4.7599   -0.0765 H   0  0  0  0  0  0  0  0  0  0  0  0
    5.5017    6.8085    1.2086 H   0  0  0  0  0  0  0  0  0  0  0  0
    2.5520    7.0889    5.0583 H   0  0  0  0  0  0  0  0  0  0  0  0
    3.4710    2.4461    2.5031 H   0  0  0  0  0  0  0  0  0  0  0  0
  1  2  1  0  0  0  0
  1 26  1  0  0  0  0
  2  3  1  0  0  0  0
  2 25  2  0  0  0  0
  3  4  2  0  0  0  0
  4  5  1  0  0  0  0
  4 13  1  0  0  0  0
  5  6  1  0  0  0  0
  5 27  1  0  0  0  0
  6  7  1  0  0  0  0
  6 28  1  0  0  0  0
  6 29  1  0  0  0  0
  7  8  1  0  0  0  0
  7 12  2  0  0  0  0
  8  9  2  0  0  0  0
  8 30  1  0  0  0  0
  9 10  1  0  0  0  0
  9 31  1  0  0  0  0
 10 11  2  0  0  0  0
 10 32  1  0  0  0  0
 11 12  1  0  0  0  0
 11 33  1  0  0  0  0
 12 34  1  0  0  0  0
 13 14  2  0  0  0  0
 14 15  1  0  0  0  0
 14 25  1  0  0  0  0
 15 16  1  0  0  0  0
 15 35  1  0  0  0  0
 16 17  1  0  0  0  0
 16 24  2  0  0  0  0
 17 18  2  0  0  0  0
 17 36  1  0  0  0  0
 18 19  1  0  0  0  0
 18 37  1  0  0  0  0
 19 20  1  0  0  0  0
 19 23  2  0  0  0  0
 20 21  2  0  0  0  0
 21 22  1  0  0  0  0
 21 38  1  0  0  0  0
 22 23  1  0  0  0  0
 23 24  1  0  0  0  0
 24 39  1  0  0  0  0
M  END
$$$$
