CHEMBL3310053
 OpenBabel04072215363D

 35 37  0  0  0  0  0  0  0  0999 V2000
    3.5439   -1.5284    3.0273 C   0  0  0  0  0  0  0  0  0  0  0  0
    3.6174   -0.7297    1.7754 C   0  0  0  0  0  0  0  0  0  0  0  0
    4.0767    0.5084    1.7123 N   0  0  0  0  0  0  0  0  0  0  0  0
    4.0189    0.8755    0.3953 C   0  0  0  0  0  0  0  0  0  0  0  0
    3.4892   -0.1456   -0.3423 C   0  0  0  0  0  0  0  0  0  0  0  0
    3.2591   -0.1897   -1.7351 N   0  3  0  0  0  0  0  0  0  0  0  0
    4.1908    0.1676   -2.4612 O   0  0  0  0  0  0  0  0  0  0  0  0
    2.1466   -0.5821   -2.1011 O   0  5  0  0  0  0  0  0  0  0  0  0
    3.2311   -1.1784    0.5207 N   0  0  0  0  0  0  0  0  0  0  0  0
    2.7827   -2.5203    0.1817 C   0  0  0  0  0  0  0  0  0  0  0  0
    1.2622   -2.6953    0.2623 C   0  0  0  0  0  0  0  0  0  0  0  0
    0.8417   -4.0381   -0.0457 O   0  0  0  0  0  0  0  0  0  0  0  0
    0.8126   -4.8619    1.0654 C   0  0  0  0  0  0  0  0  0  0  0  0
    1.6957   -4.5833    2.0434 N   0  0  0  0  0  0  0  0  0  0  0  0
    1.6649   -5.4056    3.0931 C   0  0  0  0  0  0  0  0  0  0  0  0
    0.8302   -6.4361    3.2615 N   0  0  0  0  0  0  0  0  0  0  0  0
   -0.0348   -6.6923    2.2722 C   0  0  0  0  0  0  0  0  0  0  0  0
   -0.9203   -7.7506    2.4295 C   0  0  0  0  0  0  0  0  0  0  0  0
   -1.8506   -8.0867    1.4462 C   0  0  0  0  0  0  0  0  0  0  0  0
   -1.8938   -7.3585    0.2624 C   0  0  0  0  0  0  0  0  0  0  0  0
   -1.0185   -6.2865    0.0802 C   0  0  0  0  0  0  0  0  0  0  0  0
   -0.0883   -5.9361    1.0945 C   0  0  0  0  0  0  0  0  0  0  0  0
    3.9672   -0.9544    3.8599 H   0  0  0  0  0  0  0  0  0  0  0  0
    4.1189   -2.4547    2.9428 H   0  0  0  0  0  0  0  0  0  0  0  0
    2.5070   -1.7656    3.2793 H   0  0  0  0  0  0  0  0  0  0  0  0
    4.3543    1.8492    0.0619 H   0  0  0  0  0  0  0  0  0  0  0  0
    3.3173   -3.2155    0.8347 H   0  0  0  0  0  0  0  0  0  0  0  0
    3.1400   -2.7605   -0.8262 H   0  0  0  0  0  0  0  0  0  0  0  0
    0.7839   -2.0542   -0.4857 H   0  0  0  0  0  0  0  0  0  0  0  0
    0.8571   -2.3612    1.2271 H   0  0  0  0  0  0  0  0  0  0  0  0
    2.3688   -5.2157    3.8917 H   0  0  0  0  0  0  0  0  0  0  0  0
   -0.8868   -8.3274    3.3510 H   0  0  0  0  0  0  0  0  0  0  0  0
   -2.5344   -8.9156    1.6107 H   0  0  0  0  0  0  0  0  0  0  0  0
   -2.6128   -7.6225   -0.5088 H   0  0  0  0  0  0  0  0  0  0  0  0
   -1.0598   -5.7184   -0.8462 H   0  0  0  0  0  0  0  0  0  0  0  0
  1  2  1  0  0  0  0
  1 23  1  0  0  0  0
  1 24  1  0  0  0  0
  1 25  1  0  0  0  0
  2  3  2  0  0  0  0
  2  9  1  0  0  0  0
  3  4  1  0  0  0  0
  4  5  2  0  0  0  0
  4 26  1  0  0  0  0
  5  6  1  0  0  0  0
  5  9  1  0  0  0  0
  6  7  2  0  0  0  0
  6  8  1  0  0  0  0
  9 10  1  0  0  0  0
 10 11  1  0  0  0  0
 10 27  1  0  0  0  0
 10 28  1  0  0  0  0
 11 12  1  0  0  0  0
 11 29  1  0  0  0  0
 11 30  1  0  0  0  0
 12 13  1  0  0  0  0
 13 14  1  0  0  0  0
 13 22  2  0  0  0  0
 14 15  2  0  0  0  0
 15 16  1  0  0  0  0
 15 31  1  0  0  0  0
 16 17  2  0  0  0  0
 17 18  1  0  0  0  0
 17 22  1  0  0  0  0
 18 19  2  0  0  0  0
 18 32  1  0  0  0  0
 19 20  1  0  0  0  0
 19 33  1  0  0  0  0
 20 21  2  0  0  0  0
 20 34  1  0  0  0  0
 21 22  1  0  0  0  0
 21 35  1  0  0  0  0
M  CHG  2   6   1   8  -1
M  END
$$$$
