CHEMBL2002599
 OpenBabel04072215363D

 48 52  0  0  1  0  0  0  0  0999 V2000
    2.4306    3.2383   -0.9508 O   0  0  0  0  0  0  0  0  0  0  0  0
    2.1987    2.0540   -0.7092 C   0  0  0  0  0  0  0  0  0  0  0  0
    0.8926    1.6889   -0.5079 N   0  0  0  0  0  0  0  0  0  0  0  0
    0.4067    0.4408   -0.1145 C   0  0  0  0  0  0  0  0  0  0  0  0
   -0.9584    0.1783   -0.1371 C   0  0  0  0  0  0  0  0  0  0  0  0
   -1.4827   -1.0246    0.2137 N   0  0  0  0  0  0  0  0  0  0  0  0
   -0.5876   -1.9479    0.6312 C   0  0  0  0  0  0  0  0  0  0  0  0
    0.7645   -1.6855    0.6838 C   0  0  0  0  0  0  0  0  0  0  0  0
    1.2866   -0.5077    0.2828 N   0  0  0  0  0  0  0  0  0  0  0  0
    3.1131    1.0315   -0.6949 N   0  0  0  0  0  0  0  0  0  0  0  0
    4.5215    1.0916   -0.8158 C   0  0  0  0  0  0  0  0  0  0  0  0
    5.1845    2.3044   -0.6563 C   0  0  0  0  0  0  0  0  0  0  0  0
    6.5625    2.3039   -0.6986 C   0  0  0  0  0  0  0  0  0  0  0  0
    7.3078    1.2020   -0.8960 N   0  0  0  0  0  0  0  0  0  0  0  0
    6.6783    0.0328   -1.0546 C   0  0  0  0  0  0  0  0  0  0  0  0
    7.4609   -1.0911   -1.2384 C   0  0  0  0  0  0  0  0  0  0  0  0
    6.9109   -2.3702   -1.3833 C   0  0  0  0  0  0  0  0  0  0  0  0
    5.5322   -2.5723   -1.3911 C   0  0  0  0  0  0  0  0  0  0  0  0
    4.9922   -3.8302   -1.4894 N   0  0  0  0  0  0  0  0  0  0  0  0
    3.6745   -4.1356   -2.0162 C   0  0  0  0  0  0  0  0  0  0  0  0
    3.3245   -5.4198   -1.2768 C   0  0  3  0  0  0  0  0  0  0  0  0
    2.8663   -5.1460    0.1519 C   0  0  0  0  0  0  0  0  0  0  0  0
    3.7628   -5.8076    1.0516 O   0  0  0  0  0  0  0  0  0  0  0  0
    4.5430   -6.7270    0.2878 C   0  0  0  0  0  0  0  0  0  0  0  0
    4.6441   -6.1592   -1.1137 C   0  0  3  0  0  0  0  0  0  0  0  0
    5.7327   -5.0782   -1.2821 C   0  0  0  0  0  0  0  0  0  0  0  0
    4.7394   -1.4171   -1.2387 C   0  0  0  0  0  0  0  0  0  0  0  0
    5.2763   -0.1063   -1.0346 C   0  0  0  0  0  0  0  0  0  0  0  0
    0.2386    2.4488   -0.6503 H   0  0  0  0  0  0  0  0  0  0  0  0
   -1.6818    0.9163   -0.4648 H   0  0  0  0  0  0  0  0  0  0  0  0
   -0.9875   -2.9104    0.9259 H   0  0  0  0  0  0  0  0  0  0  0  0
    1.4784   -2.4108    1.0570 H   0  0  0  0  0  0  0  0  0  0  0  0
    2.7064    0.1204   -0.5310 H   0  0  0  0  0  0  0  0  0  0  0  0
    4.6703    3.2321   -0.4518 H   0  0  0  0  0  0  0  0  0  0  0  0
    7.1215    3.2253   -0.5523 H   0  0  0  0  0  0  0  0  0  0  0  0
    8.5420   -0.9774   -1.2571 H   0  0  0  0  0  0  0  0  0  0  0  0
    7.5967   -3.2024   -1.5082 H   0  0  0  0  0  0  0  0  0  0  0  0
    3.7602   -4.3205   -3.0937 H   0  0  0  0  0  0  0  0  0  0  0  0
    2.9138   -3.3679   -1.8579 H   0  0  0  0  0  0  0  0  0  0  0  0
    2.5682   -5.9982   -1.8174 H   0  0  0  0  0  0  0  0  0  0  0  0
    1.8609   -5.5472    0.3206 H   0  0  0  0  0  0  0  0  0  0  0  0
    2.8487   -4.0848    0.4090 H   0  0  0  0  0  0  0  0  0  0  0  0
    3.9997   -7.6789    0.2824 H   0  0  0  0  0  0  0  0  0  0  0  0
    5.5094   -6.8873    0.7737 H   0  0  0  0  0  0  0  0  0  0  0  0
    4.7948   -6.9574   -1.8480 H   0  0  0  0  0  0  0  0  0  0  0  0
    6.3201   -5.2995   -2.1823 H   0  0  0  0  0  0  0  0  0  0  0  0
    6.4134   -5.0404   -0.4247 H   0  0  0  0  0  0  0  0  0  0  0  0
    3.6618   -1.5292   -1.2468 H   0  0  0  0  0  0  0  0  0  0  0  0
  1  2  2  0  0  0  0
  2  3  1  0  0  0  0
  2 10  1  0  0  0  0
  3  4  1  0  0  0  0
  3 29  1  0  0  0  0
  4  5  1  0  0  0  0
  4  9  2  0  0  0  0
  5  6  2  0  0  0  0
  5 30  1  0  0  0  0
  6  7  1  0  0  0  0
  7  8  2  0  0  0  0
  7 31  1  0  0  0  0
  8  9  1  0  0  0  0
  8 32  1  0  0  0  0
 10 11  1  0  0  0  0
 10 33  1  0  0  0  0
 11 12  1  0  0  0  0
 11 28  2  0  0  0  0
 12 13  2  0  0  0  0
 12 34  1  0  0  0  0
 13 14  1  0  0  0  0
 13 35  1  0  0  0  0
 14 15  2  0  0  0  0
 15 16  1  0  0  0  0
 15 28  1  0  0  0  0
 16 17  2  0  0  0  0
 16 36  1  0  0  0  0
 17 18  1  0  0  0  0
 17 37  1  0  0  0  0
 18 19  1  0  0  0  0
 18 27  2  0  0  0  0
 19 20  1  0  0  0  0
 19 26  1  0  0  0  0
 20 21  1  0  0  0  0
 20 38  1  0  0  0  0
 20 39  1  0  0  0  0
 21 22  1  0  0  0  0
 21 25  1  0  0  0  0
 21 40  1  0  0  0  0
 22 23  1  0  0  0  0
 22 41  1  0  0  0  0
 22 42  1  0  0  0  0
 23 24  1  0  0  0  0
 24 25  1  0  0  0  0
 24 43  1  0  0  0  0
 24 44  1  0  0  0  0
 25 26  1  0  0  0  0
 25 45  1  0  0  0  0
 26 46  1  0  0  0  0
 26 47  1  0  0  0  0
 27 28  1  0  0  0  0
 27 48  1  0  0  0  0
M  END
$$$$
