CHEMBL3922630
 OpenBabel04072215373D

 66 70  0  0  0  0  0  0  0  0999 V2000
    6.3041   -4.7105   -7.0713 C   0  0  0  0  0  0  0  0  0  0  0  0
    7.4893   -5.4271   -6.4367 C   0  0  0  0  0  0  0  0  0  0  0  0
    7.1462   -5.9360   -5.1047 N   0  0  0  0  0  0  0  0  0  0  0  0
    6.6206   -7.2884   -4.8878 C   0  0  0  0  0  0  0  0  0  0  0  0
    5.7907   -7.8589   -6.0213 C   0  0  0  0  0  0  0  0  0  0  0  0
    7.7134   -5.2928   -3.9987 C   0  0  0  0  0  0  0  0  0  0  0  0
    7.7035   -3.8949   -3.9112 C   0  0  0  0  0  0  0  0  0  0  0  0
    8.1674   -3.2277   -2.7754 C   0  0  0  0  0  0  0  0  0  0  0  0
    8.6658   -3.9519   -1.6885 C   0  0  0  0  0  0  0  0  0  0  0  0
    9.1130   -3.2837   -0.4905 C   0  0  0  0  0  0  0  0  0  0  0  0
    8.6134   -2.0762   -0.0346 C   0  0  0  0  0  0  0  0  0  0  0  0
    9.4324   -1.5957    1.3841 S   0  0  0  0  0  0  0  0  0  0  0  0
   10.3515   -3.0477    1.3163 C   0  0  0  0  0  0  0  0  0  0  0  0
   11.4188   -3.2959    2.3194 C   0  0  0  0  0  0  0  0  0  0  0  0
   10.7889   -3.3583    3.6049 O   0  0  0  0  0  0  0  0  0  0  0  0
   11.6262   -3.5736    4.6618 C   0  0  0  0  0  0  0  0  0  0  0  0
   12.9188   -3.0567    4.6407 C   0  0  0  0  0  0  0  0  0  0  0  0
   13.8205   -3.2502    5.6503 C   0  0  0  0  0  0  0  0  0  0  0  0
   15.0110   -2.7158    5.4017 N   0  0  0  0  0  0  0  0  0  0  0  0
   15.9394   -2.9045    6.3170 C   0  0  0  0  0  0  0  0  0  0  0  0
   15.7704   -3.5806    7.4440 N   0  0  0  0  0  0  0  0  0  0  0  0
   14.5536   -4.1341    7.6751 C   0  0  0  0  0  0  0  0  0  0  0  0
   14.6802   -4.9569    8.7764 N   0  0  0  0  0  0  0  0  0  0  0  0
   13.9747   -5.5162    9.8379 C   0  0  0  0  0  0  0  0  0  0  0  0
   14.5868   -6.6353   10.4360 C   0  0  0  0  0  0  0  0  0  0  0  0
   14.1141   -7.1814   11.6248 C   0  0  0  0  0  0  0  0  0  0  0  0
   13.0045   -6.6124   12.2394 C   0  0  0  0  0  0  0  0  0  0  0  0
   12.5122   -7.2767   13.7565 Cl  0  0  0  0  0  0  0  0  0  0  0  0
   12.3614   -5.5179   11.6397 C   0  0  0  0  0  0  0  0  0  0  0  0
   10.9985   -4.7505   12.3782 Cl  0  0  0  0  0  0  0  0  0  0  0  0
   12.8419   -4.9754   10.4336 C   0  0  0  0  0  0  0  0  0  0  0  0
   13.4664   -3.9859    6.7894 C   0  0  0  0  0  0  0  0  0  0  0  0
   12.1188   -4.4839    6.8468 C   0  0  0  0  0  0  0  0  0  0  0  0
   11.1943   -4.2705    5.7945 C   0  0  0  0  0  0  0  0  0  0  0  0
    9.9469   -4.8000    6.0157 O   0  0  0  0  0  0  0  0  0  0  0  0
    8.9589   -4.6772    4.9905 C   0  0  0  0  0  0  0  0  0  0  0  0
   10.0924   -3.8483    0.3067 N   0  0  0  0  0  0  0  0  0  0  0  0
    8.7378   -5.3397   -1.7786 C   0  0  0  0  0  0  0  0  0  0  0  0
    8.2649   -5.9990   -2.9126 C   0  0  0  0  0  0  0  0  0  0  0  0
    6.5948   -4.2611   -8.0251 H   0  0  0  0  0  0  0  0  0  0  0  0
    5.9175   -3.9151   -6.4254 H   0  0  0  0  0  0  0  0  0  0  0  0
    5.4751   -5.3928   -7.2714 H   0  0  0  0  0  0  0  0  0  0  0  0
    8.3338   -4.7251   -6.3939 H   0  0  0  0  0  0  0  0  0  0  0  0
    7.8311   -6.2401   -7.0865 H   0  0  0  0  0  0  0  0  0  0  0  0
    5.9668   -7.2585   -4.0050 H   0  0  0  0  0  0  0  0  0  0  0  0
    7.4335   -7.9917   -4.6772 H   0  0  0  0  0  0  0  0  0  0  0  0
    4.9519   -7.2089   -6.2797 H   0  0  0  0  0  0  0  0  0  0  0  0
    5.3703   -8.8224   -5.7136 H   0  0  0  0  0  0  0  0  0  0  0  0
    6.3977   -8.0340   -6.9140 H   0  0  0  0  0  0  0  0  0  0  0  0
    7.2888   -3.2939   -4.7123 H   0  0  0  0  0  0  0  0  0  0  0  0
    8.1260   -2.1430   -2.7582 H   0  0  0  0  0  0  0  0  0  0  0  0
    7.8337   -1.4644   -0.4557 H   0  0  0  0  0  0  0  0  0  0  0  0
   12.1233   -2.4626    2.2340 H   0  0  0  0  0  0  0  0  0  0  0  0
   11.9347   -4.2403    2.1041 H   0  0  0  0  0  0  0  0  0  0  0  0
   13.2772   -2.4624    3.8058 H   0  0  0  0  0  0  0  0  0  0  0  0
   16.9265   -2.4969    6.1170 H   0  0  0  0  0  0  0  0  0  0  0  0
   15.6297   -4.7434    9.0921 H   0  0  0  0  0  0  0  0  0  0  0  0
   15.4798   -7.0632    9.9795 H   0  0  0  0  0  0  0  0  0  0  0  0
   14.6386   -8.0220   12.0717 H   0  0  0  0  0  0  0  0  0  0  0  0
   12.3686   -4.0925   10.0145 H   0  0  0  0  0  0  0  0  0  0  0  0
   11.7860   -5.0463    7.7174 H   0  0  0  0  0  0  0  0  0  0  0  0
    8.0438   -5.1710    5.3342 H   0  0  0  0  0  0  0  0  0  0  0  0
    9.2695   -5.1913    4.0740 H   0  0  0  0  0  0  0  0  0  0  0  0
    8.7006   -3.6288    4.8020 H   0  0  0  0  0  0  0  0  0  0  0  0
    9.1521   -5.9231   -0.9572 H   0  0  0  0  0  0  0  0  0  0  0  0
    8.3531   -7.0789   -2.9338 H   0  0  0  0  0  0  0  0  0  0  0  0
  1  2  1  0  0  0  0
  1 40  1  0  0  0  0
  1 41  1  0  0  0  0
  1 42  1  0  0  0  0
  2  3  1  0  0  0  0
  2 43  1  0  0  0  0
  2 44  1  0  0  0  0
  3  4  1  0  0  0  0
  3  6  1  0  0  0  0
  4  5  1  0  0  0  0
  4 45  1  0  0  0  0
  4 46  1  0  0  0  0
  5 47  1  0  0  0  0
  5 48  1  0  0  0  0
  5 49  1  0  0  0  0
  6  7  1  0  0  0  0
  6 39  2  0  0  0  0
  7  8  2  0  0  0  0
  7 50  1  0  0  0  0
  8  9  1  0  0  0  0
  8 51  1  0  0  0  0
  9 10  1  0  0  0  0
  9 38  2  0  0  0  0
 10 11  2  0  0  0  0
 10 37  1  0  0  0  0
 11 12  1  0  0  0  0
 11 52  1  0  0  0  0
 12 13  1  0  0  0  0
 13 14  1  0  0  0  0
 13 37  2  0  0  0  0
 14 15  1  0  0  0  0
 14 53  1  0  0  0  0
 14 54  1  0  0  0  0
 15 16  1  0  0  0  0
 16 17  1  0  0  0  0
 16 34  2  0  0  0  0
 17 18  2  0  0  0  0
 17 55  1  0  0  0  0
 18 19  1  0  0  0  0
 18 32  1  0  0  0  0
 19 20  2  0  0  0  0
 20 21  1  0  0  0  0
 20 56  1  0  0  0  0
 21 22  2  0  0  0  0
 22 23  1  0  0  0  0
 22 32  1  0  0  0  0
 23 24  1  0  0  0  0
 23 57  1  0  0  0  0
 24 25  1  0  0  0  0
 24 31  2  0  0  0  0
 25 26  2  0  0  0  0
 25 58  1  0  0  0  0
 26 27  1  0  0  0  0
 26 59  1  0  0  0  0
 27 28  1  0  0  0  0
 27 29  2  0  0  0  0
 29 30  1  0  0  0  0
 29 31  1  0  0  0  0
 31 60  1  0  0  0  0
 32 33  2  0  0  0  0
 33 34  1  0  0  0  0
 33 61  1  0  0  0  0
 34 35  1  0  0  0  0
 35 36  1  0  0  0  0
 36 62  1  0  0  0  0
 36 63  1  0  0  0  0
 36 64  1  0  0  0  0
 38 39  1  0  0  0  0
 38 65  1  0  0  0  0
 39 66  1  0  0  0  0
M  END
$$$$
