CHEMBL1241862
 OpenBabel04072215363D

 38 40  0  0  0  0  0  0  0  0999 V2000
    0.9833   -0.2152    0.3512 C   0  0  0  0  0  0  0  0  0  0  0  0
    2.4665    0.0235    0.0621 C   0  0  0  0  0  0  0  0  0  0  0  0
    2.7636   -0.1399   -1.4295 C   0  0  0  0  0  0  0  0  0  0  0  0
    2.9035    1.3274    0.5502 N   0  0  0  0  0  0  0  0  0  0  0  0
    2.3310    2.4487    0.0662 N   0  0  0  0  0  0  0  0  0  0  0  0
    2.9754    3.4552    0.6852 C   0  0  0  0  0  0  0  0  0  0  0  0
    2.6365    4.8383    0.3421 C   0  0  0  0  0  0  0  0  0  0  0  0
    3.5927    5.8515    0.3768 C   0  0  0  0  0  0  0  0  0  0  0  0
    3.2447    7.1701    0.0795 C   0  0  0  0  0  0  0  0  0  0  0  0
    1.9470    7.5068   -0.3408 C   0  0  0  0  0  0  0  0  0  0  0  0
    1.7455    8.9486   -0.6715 C   0  0  0  0  0  0  0  0  0  0  0  0
    0.5417    9.3674   -1.1508 N   0  0  0  0  0  0  0  0  0  0  0  0
    2.6462    9.7666   -0.5275 O   0  0  0  0  0  0  0  0  0  0  0  0
    0.9935    6.4807   -0.4315 C   0  0  0  0  0  0  0  0  0  0  0  0
   -0.6329    6.6985   -0.9811 Cl  0  0  0  0  0  0  0  0  0  0  0  0
    1.3386    5.1656   -0.0756 C   0  0  0  0  0  0  0  0  0  0  0  0
    3.9344    2.9530    1.6237 C   0  0  0  0  0  0  0  0  0  0  0  0
    4.8519    3.4414    2.5687 C   0  0  0  0  0  0  0  0  0  0  0  0
    5.0386    4.7765    2.8963 N   0  0  0  0  0  0  0  0  0  0  0  0
    5.6213    2.5605    3.2403 N   0  0  0  0  0  0  0  0  0  0  0  0
    5.4693    1.2471    2.9914 C   0  0  0  0  0  0  0  0  0  0  0  0
    4.6133    0.6624    2.1412 N   0  0  0  0  0  0  0  0  0  0  0  0
    3.8704    1.5728    1.4847 C   0  0  0  0  0  0  0  0  0  0  0  0
    0.6852   -1.2224    0.0394 H   0  0  0  0  0  0  0  0  0  0  0  0
    0.3469    0.5006   -0.1813 H   0  0  0  0  0  0  0  0  0  0  0  0
    0.7719   -0.1166    1.4212 H   0  0  0  0  0  0  0  0  0  0  0  0
    3.0425   -0.7329    0.6083 H   0  0  0  0  0  0  0  0  0  0  0  0
    2.2320    0.6054   -2.0318 H   0  0  0  0  0  0  0  0  0  0  0  0
    2.4593   -1.1320   -1.7798 H   0  0  0  0  0  0  0  0  0  0  0  0
    3.8345   -0.0249   -1.6286 H   0  0  0  0  0  0  0  0  0  0  0  0
    4.6324    5.6393    0.6147 H   0  0  0  0  0  0  0  0  0  0  0  0
    4.0155    7.9370    0.1593 H   0  0  0  0  0  0  0  0  0  0  0  0
   -0.2391    8.7492   -1.3234 H   0  0  0  0  0  0  0  0  0  0  0  0
    0.4454   10.3436   -1.3936 H   0  0  0  0  0  0  0  0  0  0  0  0
    0.5875    4.3780   -0.1435 H   0  0  0  0  0  0  0  0  0  0  0  0
    4.2010    5.3441    2.8844 H   0  0  0  0  0  0  0  0  0  0  0  0
    5.6067    4.8635    3.7316 H   0  0  0  0  0  0  0  0  0  0  0  0
    6.1184    0.5813    3.5525 H   0  0  0  0  0  0  0  0  0  0  0  0
  1  2  1  0  0  0  0
  1 24  1  0  0  0  0
  1 25  1  0  0  0  0
  1 26  1  0  0  0  0
  2  3  1  0  0  0  0
  2  4  1  0  0  0  0
  2 27  1  0  0  0  0
  3 28  1  0  0  0  0
  3 29  1  0  0  0  0
  3 30  1  0  0  0  0
  4  5  1  0  0  0  0
  4 23  1  0  0  0  0
  5  6  2  0  0  0  0
  6  7  1  0  0  0  0
  6 17  1  0  0  0  0
  7  8  1  0  0  0  0
  7 16  2  0  0  0  0
  8  9  2  0  0  0  0
  8 31  1  0  0  0  0
  9 10  1  0  0  0  0
  9 32  1  0  0  0  0
 10 11  1  0  0  0  0
 10 14  2  0  0  0  0
 11 12  1  0  0  0  0
 11 13  2  0  0  0  0
 12 33  1  0  0  0  0
 12 34  1  0  0  0  0
 14 15  1  0  0  0  0
 14 16  1  0  0  0  0
 16 35  1  0  0  0  0
 17 18  1  0  0  0  0
 17 23  2  0  0  0  0
 18 19  1  0  0  0  0
 18 20  2  0  0  0  0
 19 36  1  0  0  0  0
 19 37  1  0  0  0  0
 20 21  1  0  0  0  0
 21 22  2  0  0  0  0
 21 38  1  0  0  0  0
 22 23  1  0  0  0  0
M  END
$$$$
