CHEMBL413933
 OpenBabel04072215383D

 46 49  0  0  0  0  0  0  0  0999 V2000
    5.7954   -0.9621    4.4417 C   0  0  0  0  0  0  0  0  0  0  0  0
    4.5620   -0.2576    4.1731 N   0  0  0  0  0  0  0  0  0  0  0  0
    3.7486   -0.8539    3.2240 C   0  0  0  0  0  0  0  0  0  0  0  0
    2.8926   -0.0620    2.5699 N   0  0  0  0  0  0  0  0  0  0  0  0
    2.0286   -0.6635    1.7267 C   0  0  0  0  0  0  0  0  0  0  0  0
    1.9734   -2.0212    1.5266 C   0  0  0  0  0  0  0  0  0  0  0  0
    2.8880   -2.7409    2.2512 C   0  0  0  0  0  0  0  0  0  0  0  0
    2.8256   -4.1308    2.1929 O   0  0  0  0  0  0  0  0  0  0  0  0
    3.3343   -4.8149    3.2870 C   0  0  0  0  0  0  0  0  0  0  0  0
    3.1230   -4.4013    4.5947 C   0  0  0  0  0  0  0  0  0  0  0  0
    3.7537   -5.0534    5.6551 C   0  0  0  0  0  0  0  0  0  0  0  0
    4.5431   -6.2085    5.4536 C   0  0  0  0  0  0  0  0  0  0  0  0
    5.2047   -6.9272    6.4955 C   0  0  0  0  0  0  0  0  0  0  0  0
    5.1253   -6.5086    7.9380 C   0  0  0  0  0  0  0  0  0  0  0  0
    4.0752   -6.0586    8.3784 O   0  0  0  0  0  0  0  0  0  0  0  0
    6.3046   -6.6581    8.6593 N   0  0  0  0  0  0  0  0  0  0  0  0
    6.5161   -6.3087   10.0117 C   0  0  0  0  0  0  0  0  0  0  0  0
    5.4915   -5.9545   10.8934 C   0  0  0  0  0  0  0  0  0  0  0  0
    5.7860   -5.5150   12.1891 C   0  0  0  0  0  0  0  0  0  0  0  0
    7.1088   -5.4402   12.6122 C   0  0  0  0  0  0  0  0  0  0  0  0
    7.4761   -4.8301   14.1776 Cl  0  0  0  0  0  0  0  0  0  0  0  0
    8.1371   -5.8455   11.7660 C   0  0  0  0  0  0  0  0  0  0  0  0
    7.8394   -6.2909   10.4732 C   0  0  0  0  0  0  0  0  0  0  0  0
    5.9328   -8.0935    6.1965 C   0  0  0  0  0  0  0  0  0  0  0  0
    6.0430   -8.5339    4.8839 C   0  0  0  0  0  0  0  0  0  0  0  0
    5.4315   -7.8243    3.8549 C   0  0  0  0  0  0  0  0  0  0  0  0
    4.6806   -6.6653    4.1172 C   0  0  0  0  0  0  0  0  0  0  0  0
    4.0822   -5.9651    3.0495 C   0  0  0  0  0  0  0  0  0  0  0  0
    3.8106   -2.1707    3.0453 N   0  0  0  0  0  0  0  0  0  0  0  0
    6.3889   -0.3946    5.1646 H   0  0  0  0  0  0  0  0  0  0  0  0
    6.3953   -1.0800    3.5325 H   0  0  0  0  0  0  0  0  0  0  0  0
    5.6128   -1.9499    4.8822 H   0  0  0  0  0  0  0  0  0  0  0  0
    4.6278    0.7274    3.9557 H   0  0  0  0  0  0  0  0  0  0  0  0
    1.3420    0.0076    1.2198 H   0  0  0  0  0  0  0  0  0  0  0  0
    1.2472   -2.4847    0.8780 H   0  0  0  0  0  0  0  0  0  0  0  0
    2.5143   -3.5262    4.8154 H   0  0  0  0  0  0  0  0  0  0  0  0
    3.6096   -4.6288    6.6452 H   0  0  0  0  0  0  0  0  0  0  0  0
    7.1321   -6.9162    8.1380 H   0  0  0  0  0  0  0  0  0  0  0  0
    4.4466   -6.0010   10.6013 H   0  0  0  0  0  0  0  0  0  0  0  0
    4.9753   -5.2183   12.8494 H   0  0  0  0  0  0  0  0  0  0  0  0
    9.1711   -5.7981   12.0972 H   0  0  0  0  0  0  0  0  0  0  0  0
    8.6608   -6.5874    9.8263 H   0  0  0  0  0  0  0  0  0  0  0  0
    6.3876   -8.6858    6.9862 H   0  0  0  0  0  0  0  0  0  0  0  0
    6.6027   -9.4411    4.6595 H   0  0  0  0  0  0  0  0  0  0  0  0
    5.5354   -8.1902    2.8352 H   0  0  0  0  0  0  0  0  0  0  0  0
    4.2145   -6.3048    2.0243 H   0  0  0  0  0  0  0  0  0  0  0  0
  1  2  1  0  0  0  0
  1 30  1  0  0  0  0
  1 31  1  0  0  0  0
  1 32  1  0  0  0  0
  2  3  1  0  0  0  0
  2 33  1  0  0  0  0
  3  4  1  0  0  0  0
  3 29  2  0  0  0  0
  4  5  2  0  0  0  0
  5  6  1  0  0  0  0
  5 34  1  0  0  0  0
  6  7  2  0  0  0  0
  6 35  1  0  0  0  0
  7  8  1  0  0  0  0
  7 29  1  0  0  0  0
  8  9  1  0  0  0  0
  9 10  1  0  0  0  0
  9 28  2  0  0  0  0
 10 11  2  0  0  0  0
 10 36  1  0  0  0  0
 11 12  1  0  0  0  0
 11 37  1  0  0  0  0
 12 13  1  0  0  0  0
 12 27  2  0  0  0  0
 13 14  1  0  0  0  0
 13 24  2  0  0  0  0
 14 15  2  0  0  0  0
 14 16  1  0  0  0  0
 16 17  1  0  0  0  0
 16 38  1  0  0  0  0
 17 18  1  0  0  0  0
 17 23  2  0  0  0  0
 18 19  2  0  0  0  0
 18 39  1  0  0  0  0
 19 20  1  0  0  0  0
 19 40  1  0  0  0  0
 20 21  1  0  0  0  0
 20 22  2  0  0  0  0
 22 23  1  0  0  0  0
 22 41  1  0  0  0  0
 23 42  1  0  0  0  0
 24 25  1  0  0  0  0
 24 43  1  0  0  0  0
 25 26  2  0  0  0  0
 25 44  1  0  0  0  0
 26 27  1  0  0  0  0
 26 45  1  0  0  0  0
 27 28  1  0  0  0  0
 28 46  1  0  0  0  0
M  END
$$$$
