CHEMBL97888
 OpenBabel04072215383D

 29 31  0  0  0  0  0  0  0  0999 V2000
    1.3673   -0.1697    0.0013 C   0  0  0  0  0  0  0  0  0  0  0  0
    0.4820   -1.1174    0.5057 C   0  0  0  0  0  0  0  0  0  0  0  0
   -0.8947   -0.8904    0.4402 C   0  0  0  0  0  0  0  0  0  0  0  0
   -1.4084    0.2889   -0.1280 C   0  0  0  0  0  0  0  0  0  0  0  0
   -2.8595    0.5095   -0.1580 C   0  0  0  0  0  0  0  0  0  0  0  0
   -3.8231    0.0593    0.7229 C   0  0  0  0  0  0  0  0  0  0  0  0
   -5.1254    0.3613    0.4035 N   0  0  0  0  0  0  0  0  0  0  0  0
   -5.1795    1.0575   -0.7101 C   0  0  0  0  0  0  0  0  0  0  0  0
   -6.3202    1.4915   -1.2988 N   0  0  0  0  0  0  0  0  0  0  0  0
   -7.5684    0.8464   -1.1855 C   0  0  0  0  0  0  0  0  0  0  0  0
   -8.7439    1.5826   -1.3234 C   0  0  0  0  0  0  0  0  0  0  0  0
   -9.9594    0.9385   -1.1398 C   0  0  0  0  0  0  0  0  0  0  0  0
  -10.0852   -0.3731   -0.8478 N   0  0  0  0  0  0  0  0  0  0  0  0
   -8.9390   -1.0676   -0.7112 C   0  0  0  0  0  0  0  0  0  0  0  0
   -7.6818   -0.5077   -0.8600 C   0  0  0  0  0  0  0  0  0  0  0  0
   -3.6405    1.4131   -1.3983 S   0  0  0  0  0  0  0  0  0  0  0  0
   -0.5002    1.2309   -0.6322 C   0  0  0  0  0  0  0  0  0  0  0  0
    0.8774    1.0025   -0.5688 C   0  0  0  0  0  0  0  0  0  0  0  0
    2.4389   -0.3437    0.0543 H   0  0  0  0  0  0  0  0  0  0  0  0
    0.8601   -2.0346    0.9508 H   0  0  0  0  0  0  0  0  0  0  0  0
   -1.5609   -1.6559    0.8333 H   0  0  0  0  0  0  0  0  0  0  0  0
   -3.6324   -0.5115    1.6234 H   0  0  0  0  0  0  0  0  0  0  0  0
   -6.2505    2.1379   -2.0740 H   0  0  0  0  0  0  0  0  0  0  0  0
   -8.7239    2.6455   -1.5321 H   0  0  0  0  0  0  0  0  0  0  0  0
  -10.8966    1.4824   -1.2138 H   0  0  0  0  0  0  0  0  0  0  0  0
   -9.0509   -2.1197   -0.4671 H   0  0  0  0  0  0  0  0  0  0  0  0
   -6.8071   -1.1377   -0.7340 H   0  0  0  0  0  0  0  0  0  0  0  0
   -0.8476    2.1634   -1.0698 H   0  0  0  0  0  0  0  0  0  0  0  0
    1.5672    1.7451   -0.9616 H   0  0  0  0  0  0  0  0  0  0  0  0
  1  2  1  0  0  0  0
  1 18  2  0  0  0  0
  1 19  1  0  0  0  0
  2  3  2  0  0  0  0
  2 20  1  0  0  0  0
  3  4  1  0  0  0  0
  3 21  1  0  0  0  0
  4  5  1  0  0  0  0
  4 17  2  0  0  0  0
  5  6  2  0  0  0  0
  5 16  1  0  0  0  0
  6  7  1  0  0  0  0
  6 22  1  0  0  0  0
  7  8  2  0  0  0  0
  8  9  1  0  0  0  0
  8 16  1  0  0  0  0
  9 10  1  0  0  0  0
  9 23  1  0  0  0  0
 10 11  1  0  0  0  0
 10 15  2  0  0  0  0
 11 12  2  0  0  0  0
 11 24  1  0  0  0  0
 12 13  1  0  0  0  0
 12 25  1  0  0  0  0
 13 14  2  0  0  0  0
 14 15  1  0  0  0  0
 14 26  1  0  0  0  0
 15 27  1  0  0  0  0
 17 18  1  0  0  0  0
 17 28  1  0  0  0  0
 18 29  1  0  0  0  0
M  END
$$$$
