CHEMBL3923296
 OpenBabel04072215373D

 67 71  0  0  0  0  0  0  0  0999 V2000
    0.5800   -1.1997    4.1283 C   0  0  0  0  0  0  0  0  0  0  0  0
    1.9136   -0.8361    4.4427 O   0  0  0  0  0  0  0  0  0  0  0  0
    2.7531   -0.7538    3.3707 C   0  0  0  0  0  0  0  0  0  0  0  0
    2.4442   -0.9803    2.0752 C   0  0  0  0  0  0  0  0  0  0  0  0
    3.3713   -0.7179    1.0674 C   0  0  0  0  0  0  0  0  0  0  0  0
    3.0865   -0.8817   -0.2597 O   0  0  0  0  0  0  0  0  0  0  0  0
    1.7621   -1.3425   -0.5148 C   0  0  0  0  0  0  0  0  0  0  0  0
    4.6421   -0.2185    1.3725 C   0  0  0  0  0  0  0  0  0  0  0  0
    4.9936    0.1115    2.6748 C   0  0  0  0  0  0  0  0  0  0  0  0
    6.2660    0.7508    2.9399 N   0  0  0  0  0  0  0  0  0  0  0  0
    6.8650    1.6439    1.8832 C   0  0  0  0  0  0  0  0  0  0  0  0
    5.8634    2.3551    0.9863 C   0  0  0  0  0  0  0  0  0  0  0  0
    4.8878    3.2606    1.5444 N   0  0  0  0  0  0  0  0  0  0  0  0
    4.0607    3.7954    0.4511 C   0  0  0  0  0  0  0  0  0  0  0  0
    4.8652    4.5625   -0.6017 C   0  0  0  0  0  0  0  0  0  0  0  0
    3.8955    5.5900   -1.1806 C   0  0  0  0  0  0  0  0  0  0  0  0
    2.7332    5.6905   -0.1894 C   0  0  0  0  0  0  0  0  0  0  0  0
    3.1393    4.8605    1.0200 C   0  0  0  0  0  0  0  0  0  0  0  0
    7.2964    0.1998    3.8214 C   0  0  0  0  0  0  0  0  0  0  0  0
    8.0929    1.1191    4.4611 C   0  0  0  0  0  0  0  0  0  0  0  0
    9.0391    0.6807    5.3213 C   0  0  0  0  0  0  0  0  0  0  0  0
    9.3402   -0.6473    5.4741 C   0  0  0  0  0  0  0  0  0  0  0  0
   10.6053   -0.5540    5.4070 N   0  0  0  0  0  0  0  0  0  0  0  0
   11.2081   -0.6158    6.5637 C   0  0  0  0  0  0  0  0  0  0  0  0
   11.4464   -1.7954    7.1247 C   0  0  0  0  0  0  0  0  0  0  0  0
   12.8574   -0.9493    7.9189 C   0  0  0  0  0  0  0  0  0  0  0  0
   13.1795    0.4946    8.3903 C   0  0  0  0  0  0  0  0  0  0  0  0
   14.3382    0.7278    9.0788 N   0  0  0  0  0  0  0  0  0  0  0  0
   14.9208   -0.4694    9.2163 N   0  0  0  0  0  0  0  0  0  0  0  0
   16.1904   -0.6061   10.0107 C   0  0  0  0  0  0  0  0  0  0  0  0
   14.0812   -1.4631    8.5527 C   0  0  0  0  0  0  0  0  0  0  0  0
   10.1237   -2.4235    6.3702 N   0  0  0  0  0  0  0  0  0  0  0  0
    8.8964   -1.8177    5.2653 C   0  0  0  0  0  0  0  0  0  0  0  0
    7.6404   -1.2394    4.1447 C   0  0  0  0  0  0  0  0  0  0  0  0
    4.0323   -0.3189    3.6224 C   0  0  0  0  0  0  0  0  0  0  0  0
   -0.0188   -1.1355    5.0412 H   0  0  0  0  0  0  0  0  0  0  0  0
    0.5639   -2.2330    3.7738 H   0  0  0  0  0  0  0  0  0  0  0  0
    0.1249   -0.5297    3.3960 H   0  0  0  0  0  0  0  0  0  0  0  0
    1.4726   -1.3800    1.8664 H   0  0  0  0  0  0  0  0  0  0  0  0
    1.6380   -1.4274   -1.5918 H   0  0  0  0  0  0  0  0  0  0  0  0
    1.0076   -0.6358   -0.1409 H   0  0  0  0  0  0  0  0  0  0  0  0
    1.6079   -2.3353   -0.0737 H   0  0  0  0  0  0  0  0  0  0  0  0
    5.3669   -0.0919    0.5752 H   0  0  0  0  0  0  0  0  0  0  0  0
    7.5631    1.1275    1.2071 H   0  0  0  0  0  0  0  0  0  0  0  0
    7.3870    2.4291    2.4229 H   0  0  0  0  0  0  0  0  0  0  0  0
    5.2559    1.5425    0.5694 H   0  0  0  0  0  0  0  0  0  0  0  0
    6.4498    2.9675    0.2739 H   0  0  0  0  0  0  0  0  0  0  0  0
    5.4119    4.0153    1.9765 H   0  0  0  0  0  0  0  0  0  0  0  0
    3.4593    3.0073   -0.0364 H   0  0  0  0  0  0  0  0  0  0  0  0
    5.2722    3.9077   -1.3806 H   0  0  0  0  0  0  0  0  0  0  0  0
    5.7139    5.0755   -0.1337 H   0  0  0  0  0  0  0  0  0  0  0  0
    3.5377    5.2681   -2.1650 H   0  0  0  0  0  0  0  0  0  0  0  0
    4.3922    6.5562   -1.3289 H   0  0  0  0  0  0  0  0  0  0  0  0
    1.8214    5.2774   -0.6355 H   0  0  0  0  0  0  0  0  0  0  0  0
    2.5100    6.7254    0.0902 H   0  0  0  0  0  0  0  0  0  0  0  0
    2.2752    4.4263    1.5330 H   0  0  0  0  0  0  0  0  0  0  0  0
    3.6763    5.4816    1.7470 H   0  0  0  0  0  0  0  0  0  0  0  0
    8.1252    2.1859    4.2879 H   0  0  0  0  0  0  0  0  0  0  0  0
    9.7958    1.3666    5.7147 H   0  0  0  0  0  0  0  0  0  0  0  0
   11.5435    0.3760    6.7687 H   0  0  0  0  0  0  0  0  0  0  0  0
   12.6373    1.4326    8.2958 H   0  0  0  0  0  0  0  0  0  0  0  0
   16.6387    0.3600   10.3389 H   0  0  0  0  0  0  0  0  0  0  0  0
   16.9749   -1.1192    9.4355 H   0  0  0  0  0  0  0  0  0  0  0  0
   16.0082   -1.1756   10.9333 H   0  0  0  0  0  0  0  0  0  0  0  0
   14.5101   -2.4414    8.6552 H   0  0  0  0  0  0  0  0  0  0  0  0
    7.0291   -1.8845    3.4205 H   0  0  0  0  0  0  0  0  0  0  0  0
    4.1348   -0.4303    4.6775 H   0  0  0  0  0  0  0  0  0  0  0  0
  1  2  1  0  0  0  0
  1 36  1  0  0  0  0
  1 37  1  0  0  0  0
  1 38  1  0  0  0  0
  2  3  1  0  0  0  0
  3  4  1  0  0  0  0
  3 35  2  0  0  0  0
  4  5  2  0  0  0  0
  4 39  1  0  0  0  0
  5  6  1  0  0  0  0
  5  8  1  0  0  0  0
  6  7  1  0  0  0  0
  7 40  1  0  0  0  0
  7 41  1  0  0  0  0
  7 42  1  0  0  0  0
  8  9  2  0  0  0  0
  8 43  1  0  0  0  0
  9 10  1  0  0  0  0
  9 35  1  0  0  0  0
 10 11  1  0  0  0  0
 10 19  1  0  0  0  0
 11 12  1  0  0  0  0
 11 44  1  0  0  0  0
 11 45  1  0  0  0  0
 12 13  1  0  0  0  0
 12 46  1  0  0  0  0
 12 47  1  0  0  0  0
 13 14  1  0  0  0  0
 13 48  1  0  0  0  0
 14 15  1  0  0  0  0
 14 18  1  0  0  0  0
 14 49  1  0  0  0  0
 15 16  1  0  0  0  0
 15 50  1  0  0  0  0
 15 51  1  0  0  0  0
 16 17  1  0  0  0  0
 16 52  1  0  0  0  0
 16 53  1  0  0  0  0
 17 18  1  0  0  0  0
 17 54  1  0  0  0  0
 17 55  1  0  0  0  0
 18 56  1  0  0  0  0
 18 57  1  0  0  0  0
 19 20  1  0  0  0  0
 19 34  2  0  0  0  0
 20 21  2  0  0  0  0
 20 58  1  0  0  0  0
 21 22  1  0  0  0  0
 21 59  1  0  0  0  0
 22 23  1  0  0  0  0
 22 33  2  0  0  0  0
 23 24  2  0  0  0  0
 24 25  1  0  0  0  0
 24 60  1  0  0  0  0
 25 26  1  0  0  0  0
 25 32  2  0  0  0  0
 26 27  1  0  0  0  0
 26 31  2  0  0  0  0
 27 28  2  0  0  0  0
 27 61  1  0  0  0  0
 28 29  1  0  0  0  0
 29 30  1  0  0  0  0
 29 31  1  0  0  0  0
 30 62  1  0  0  0  0
 30 63  1  0  0  0  0
 30 64  1  0  0  0  0
 31 65  1  0  0  0  0
 32 33  1  0  0  0  0
 33 34  1  0  0  0  0
 34 66  1  0  0  0  0
 35 67  1  0  0  0  0
M  END
$$$$
