CHEMBL3889493
 OpenBabel04072215373D

 64 68  0  0  1  0  0  0  0  0999 V2000
    1.5647   -0.3310   -0.1212 C   0  0  0  0  0  0  0  0  0  0  0  0
    2.6952    0.4396   -0.5418 O   0  0  0  0  0  0  0  0  0  0  0  0
    3.3659    1.1472    0.4342 C   0  0  0  0  0  0  0  0  0  0  0  0
    3.0066    1.1347    1.7814 C   0  0  0  0  0  0  0  0  0  0  0  0
    3.7274    1.8935    2.6897 C   0  0  0  0  0  0  0  0  0  0  0  0
    3.5273    1.9024    4.0465 O   0  0  0  0  0  0  0  0  0  0  0  0
    2.5124    1.0471    4.5684 C   0  0  0  0  0  0  0  0  0  0  0  0
    4.7923    2.6892    2.2305 C   0  0  0  0  0  0  0  0  0  0  0  0
    5.2946    2.6305    0.9017 C   0  0  0  0  0  0  0  0  0  0  0  0
    6.6165    3.2552    0.5944 N   0  0  0  0  0  0  0  0  0  0  0  0
    7.2487    2.6483   -0.6221 C   0  0  0  0  0  0  0  0  0  0  0  0
    6.8665    3.1937   -1.9864 C   0  0  0  0  0  0  0  0  0  0  0  0
    7.0422    4.6602   -2.2813 C   0  0  0  0  0  0  0  0  0  0  0  0
    5.6775    4.0468   -2.3803 C   0  0  0  0  0  0  0  0  0  0  0  0
    7.6275    3.2818    1.6745 C   0  0  0  0  0  0  0  0  0  0  0  0
    7.6031    2.2148    2.5681 C   0  0  0  0  0  0  0  0  0  0  0  0
    7.9262    2.4363    3.8866 C   0  0  0  0  0  0  0  0  0  0  0  0
    8.5923    3.5645    4.2989 C   0  0  0  0  0  0  0  0  0  0  0  0
    8.6665    3.7016    5.6183 N   0  0  0  0  0  0  0  0  0  0  0  0
    9.6179    4.5183    6.0701 C   0  0  0  0  0  0  0  0  0  0  0  0
   10.5446    5.0754    5.2138 C   0  0  0  0  0  0  0  0  0  0  0  0
   11.8929    5.1735    5.8015 C   0  0  0  0  0  0  0  0  0  0  0  0
   12.6899    6.2525    6.2378 C   0  0  0  0  0  0  0  0  0  0  0  0
   13.7787    5.8629    6.9208 N   0  0  0  0  0  0  0  0  0  0  0  0
   13.7007    4.5116    6.9309 N   0  0  0  0  0  0  0  0  0  0  0  0
   14.8746    3.7516    7.3535 C   0  0  0  0  0  0  0  0  0  0  0  0
   14.7506    2.2287    7.5634 C   0  0  3  0  0  0  0  0  0  0  0  0
   14.2665    1.5775    6.3823 O   0  0  0  0  0  0  0  0  0  0  0  0
   16.1206    1.6102    7.9323 C   0  0  0  0  0  0  0  0  0  0  0  0
   16.0393    0.1922    8.0774 O   0  0  0  0  0  0  0  0  0  0  0  0
   12.5212    4.0766    6.3934 C   0  0  0  0  0  0  0  0  0  0  0  0
   10.2985    5.1318    3.8506 N   0  0  0  0  0  0  0  0  0  0  0  0
    9.2075    4.3895    3.3478 C   0  0  0  0  0  0  0  0  0  0  0  0
    8.5556    4.3205    2.0150 C   0  0  0  0  0  0  0  0  0  0  0  0
    4.5050    1.8800    0.0032 C   0  0  0  0  0  0  0  0  0  0  0  0
    1.1599   -0.8543   -0.9935 H   0  0  0  0  0  0  0  0  0  0  0  0
    0.7663    0.3066    0.2777 H   0  0  0  0  0  0  0  0  0  0  0  0
    1.8492   -1.0975    0.6099 H   0  0  0  0  0  0  0  0  0  0  0  0
    2.1702    0.5408    2.1234 H   0  0  0  0  0  0  0  0  0  0  0  0
    2.5379    1.1164    5.6608 H   0  0  0  0  0  0  0  0  0  0  0  0
    2.6819   -0.0045    4.3064 H   0  0  0  0  0  0  0  0  0  0  0  0
    1.5234    1.3784    4.2363 H   0  0  0  0  0  0  0  0  0  0  0  0
    5.2997    3.2944    2.9781 H   0  0  0  0  0  0  0  0  0  0  0  0
    7.0865    1.5609   -0.6302 H   0  0  0  0  0  0  0  0  0  0  0  0
    8.3405    2.7638   -0.5790 H   0  0  0  0  0  0  0  0  0  0  0  0
    7.2099    2.5028   -2.7551 H   0  0  0  0  0  0  0  0  0  0  0  0
    7.5354    4.9403   -3.2027 H   0  0  0  0  0  0  0  0  0  0  0  0
    7.2168    5.3441   -1.4601 H   0  0  0  0  0  0  0  0  0  0  0  0
    5.2693    3.9232   -3.3822 H   0  0  0  0  0  0  0  0  0  0  0  0
    4.9386    4.3338   -1.6448 H   0  0  0  0  0  0  0  0  0  0  0  0
    7.0721    1.2978    2.3193 H   0  0  0  0  0  0  0  0  0  0  0  0
    7.6190    1.7062    4.6278 H   0  0  0  0  0  0  0  0  0  0  0  0
    9.7163    4.5646    7.1485 H   0  0  0  0  0  0  0  0  0  0  0  0
   12.5155    7.3143    6.1231 H   0  0  0  0  0  0  0  0  0  0  0  0
   15.2328    4.2119    8.2842 H   0  0  0  0  0  0  0  0  0  0  0  0
   15.6182    3.9429    6.5707 H   0  0  0  0  0  0  0  0  0  0  0  0
   14.0307    2.0061    8.3590 H   0  0  0  0  0  0  0  0  0  0  0  0
   15.0170    1.4263    5.7793 H   0  0  0  0  0  0  0  0  0  0  0  0
   16.5198    2.0255    8.8622 H   0  0  0  0  0  0  0  0  0  0  0  0
   16.8506    1.7880    7.1347 H   0  0  0  0  0  0  0  0  0  0  0  0
   15.2353   -0.0226    8.5818 H   0  0  0  0  0  0  0  0  0  0  0  0
   12.2317    3.0346    6.4453 H   0  0  0  0  0  0  0  0  0  0  0  0
    8.7788    5.0989    1.2945 H   0  0  0  0  0  0  0  0  0  0  0  0
    4.7486    1.8172   -1.0514 H   0  0  0  0  0  0  0  0  0  0  0  0
  1  2  1  0  0  0  0
  1 36  1  0  0  0  0
  1 37  1  0  0  0  0
  1 38  1  0  0  0  0
  2  3  1  0  0  0  0
  3  4  1  0  0  0  0
  3 35  2  0  0  0  0
  4  5  2  0  0  0  0
  4 39  1  0  0  0  0
  5  6  1  0  0  0  0
  5  8  1  0  0  0  0
  6  7  1  0  0  0  0
  7 40  1  0  0  0  0
  7 41  1  0  0  0  0
  7 42  1  0  0  0  0
  8  9  2  0  0  0  0
  8 43  1  0  0  0  0
  9 10  1  0  0  0  0
  9 35  1  0  0  0  0
 10 11  1  0  0  0  0
 10 15  1  0  0  0  0
 11 12  1  0  0  0  0
 11 44  1  0  0  0  0
 11 45  1  0  0  0  0
 12 13  1  0  0  0  0
 12 14  1  0  0  0  0
 12 46  1  0  0  0  0
 13 14  1  0  0  0  0
 13 47  1  0  0  0  0
 13 48  1  0  0  0  0
 14 49  1  0  0  0  0
 14 50  1  0  0  0  0
 15 16  1  0  0  0  0
 15 34  2  0  0  0  0
 16 17  2  0  0  0  0
 16 51  1  0  0  0  0
 17 18  1  0  0  0  0
 17 52  1  0  0  0  0
 18 19  1  0  0  0  0
 18 33  2  0  0  0  0
 19 20  2  0  0  0  0
 20 21  1  0  0  0  0
 20 53  1  0  0  0  0
 21 22  1  0  0  0  0
 21 32  2  0  0  0  0
 22 23  1  0  0  0  0
 22 31  2  0  0  0  0
 23 24  2  0  0  0  0
 23 54  1  0  0  0  0
 24 25  1  0  0  0  0
 25 26  1  0  0  0  0
 25 31  1  0  0  0  0
 26 27  1  0  0  0  0
 26 55  1  0  0  0  0
 26 56  1  0  0  0  0
 27 28  1  0  0  0  0
 27 29  1  0  0  0  0
 27 57  1  0  0  0  0
 28 58  1  0  0  0  0
 29 30  1  0  0  0  0
 29 59  1  0  0  0  0
 29 60  1  0  0  0  0
 30 61  1  0  0  0  0
 31 62  1  0  0  0  0
 32 33  1  0  0  0  0
 33 34  1  0  0  0  0
 34 63  1  0  0  0  0
 35 64  1  0  0  0  0
M  END
$$$$
