CHEMBL3910302
 OpenBabel04072215373D

 57 60  0  0  0  0  0  0  0  0999 V2000
    2.7948    0.7779   -2.4536 C   0  0  0  0  0  0  0  0  0  0  0  0
    1.3920    0.5121   -1.9881 C   0  0  0  0  0  0  0  0  0  0  0  0
    0.8725   -0.7844   -2.0598 C   0  0  0  0  0  0  0  0  0  0  0  0
   -0.4114   -1.0435   -1.5998 C   0  0  0  0  0  0  0  0  0  0  0  0
   -1.1908   -0.0115   -1.0843 C   0  0  0  0  0  0  0  0  0  0  0  0
   -2.3552   -0.3764   -0.5335 F   0  0  0  0  0  0  0  0  0  0  0  0
   -0.7297    1.3145   -1.0595 C   0  0  0  0  0  0  0  0  0  0  0  0
   -1.5028    2.4304   -0.6371 N   0  0  0  0  0  0  0  0  0  0  0  0
   -2.8859    2.4582   -0.5801 C   0  0  0  0  0  0  0  0  0  0  0  0
   -3.6265    1.5444   -0.9175 O   0  0  0  0  0  0  0  0  0  0  0  0
   -3.3824    3.6923   -0.1592 N   0  0  0  0  0  0  0  0  0  0  0  0
   -4.7823    3.8169    0.0371 C   0  0  0  0  0  0  0  0  0  0  0  0
   -5.4665    2.8873    0.8274 C   0  0  0  0  0  0  0  0  0  0  0  0
   -6.8555    2.9388    0.9393 C   0  0  0  0  0  0  0  0  0  0  0  0
   -7.5703    3.9622    0.3135 C   0  0  0  0  0  0  0  0  0  0  0  0
   -8.9405    4.1039    0.4044 O   0  0  0  0  0  0  0  0  0  0  0  0
   -9.5697    3.7923    1.5978 C   0  0  0  0  0  0  0  0  0  0  0  0
   -8.9732    3.9819    2.8467 C   0  0  0  0  0  0  0  0  0  0  0  0
   -9.6448    3.5819    3.9834 C   0  0  0  0  0  0  0  0  0  0  0  0
  -10.8868    3.0734    4.0063 N   0  0  0  0  0  0  0  0  0  0  0  0
  -11.5111    2.9828    2.8026 C   0  0  0  0  0  0  0  0  0  0  0  0
  -12.8510    2.5397    2.6237 C   0  0  0  0  0  0  0  0  0  0  0  0
  -13.2635    2.5814    1.3073 C   0  0  0  0  0  0  0  0  0  0  0  0
  -14.5927    2.2509    0.8095 C   0  0  0  0  0  0  0  0  0  0  0  0
  -15.5224    1.9319    1.5489 O   0  0  0  0  0  0  0  0  0  0  0  0
  -14.7653    2.3371   -0.5567 N   0  0  0  0  0  0  0  0  0  0  0  0
  -16.0193    2.0113   -1.2101 C   0  0  0  0  0  0  0  0  0  0  0  0
  -16.9692    3.2005   -1.2404 C   0  0  0  0  0  0  0  0  0  0  0  0
  -18.2547    2.8182   -1.9277 C   0  0  0  0  0  0  0  0  0  0  0  0
  -18.3513    1.9679   -2.7964 O   0  0  0  0  0  0  0  0  0  0  0  0
  -19.3122    3.5587   -1.5229 O   0  0  0  0  0  0  0  0  0  0  0  0
  -11.9874    3.0913    0.2825 S   0  0  0  0  0  0  0  0  0  0  0  0
  -10.8991    3.3272    1.5966 C   0  0  0  0  0  0  0  0  0  0  0  0
   -6.8909    4.8820   -0.4911 C   0  0  0  0  0  0  0  0  0  0  0  0
   -5.4946    4.8270   -0.6112 C   0  0  0  0  0  0  0  0  0  0  0  0
    0.5878    1.5556   -1.4852 C   0  0  0  0  0  0  0  0  0  0  0  0
    3.2782   -0.1419   -2.8027 H   0  0  0  0  0  0  0  0  0  0  0  0
    3.3977    1.1760   -1.6319 H   0  0  0  0  0  0  0  0  0  0  0  0
    2.7924    1.4881   -3.2857 H   0  0  0  0  0  0  0  0  0  0  0  0
    1.4679   -1.6043   -2.4551 H   0  0  0  0  0  0  0  0  0  0  0  0
   -0.8182   -2.0499   -1.6185 H   0  0  0  0  0  0  0  0  0  0  0  0
   -1.0218    3.3072   -0.5083 H   0  0  0  0  0  0  0  0  0  0  0  0
   -2.9219    4.4848   -0.5790 H   0  0  0  0  0  0  0  0  0  0  0  0
   -4.9245    2.0974    1.3433 H   0  0  0  0  0  0  0  0  0  0  0  0
   -7.3583    2.1704    1.5198 H   0  0  0  0  0  0  0  0  0  0  0  0
   -7.9795    4.4076    2.9431 H   0  0  0  0  0  0  0  0  0  0  0  0
   -9.1670    3.6637    4.9566 H   0  0  0  0  0  0  0  0  0  0  0  0
  -13.4932    2.2274    3.4388 H   0  0  0  0  0  0  0  0  0  0  0  0
  -13.9720    2.6172   -1.1207 H   0  0  0  0  0  0  0  0  0  0  0  0
  -16.4855    1.1669   -0.6886 H   0  0  0  0  0  0  0  0  0  0  0  0
  -15.7720    1.6805   -2.2242 H   0  0  0  0  0  0  0  0  0  0  0  0
  -16.5253    4.0407   -1.7859 H   0  0  0  0  0  0  0  0  0  0  0  0
  -17.1785    3.5313   -0.2173 H   0  0  0  0  0  0  0  0  0  0  0  0
  -19.1068    4.2039   -0.8207 H   0  0  0  0  0  0  0  0  0  0  0  0
   -7.4503    5.6337   -1.0423 H   0  0  0  0  0  0  0  0  0  0  0  0
   -4.9927    5.5301   -1.2689 H   0  0  0  0  0  0  0  0  0  0  0  0
    0.9978    2.5623   -1.4560 H   0  0  0  0  0  0  0  0  0  0  0  0
  1  2  1  0  0  0  0
  1 37  1  0  0  0  0
  1 38  1  0  0  0  0
  1 39  1  0  0  0  0
  2  3  1  0  0  0  0
  2 36  2  0  0  0  0
  3  4  2  0  0  0  0
  3 40  1  0  0  0  0
  4  5  1  0  0  0  0
  4 41  1  0  0  0  0
  5  6  1  0  0  0  0
  5  7  2  0  0  0  0
  7  8  1  0  0  0  0
  7 36  1  0  0  0  0
  8  9  1  0  0  0  0
  8 42  1  0  0  0  0
  9 10  2  0  0  0  0
  9 11  1  0  0  0  0
 11 12  1  0  0  0  0
 11 43  1  0  0  0  0
 12 13  1  0  0  0  0
 12 35  2  0  0  0  0
 13 14  2  0  0  0  0
 13 44  1  0  0  0  0
 14 15  1  0  0  0  0
 14 45  1  0  0  0  0
 15 16  1  0  0  0  0
 15 34  2  0  0  0  0
 16 17  1  0  0  0  0
 17 18  1  0  0  0  0
 17 33  2  0  0  0  0
 18 19  2  0  0  0  0
 18 46  1  0  0  0  0
 19 20  1  0  0  0  0
 19 47  1  0  0  0  0
 20 21  2  0  0  0  0
 21 22  1  0  0  0  0
 21 33  1  0  0  0  0
 22 23  2  0  0  0  0
 22 48  1  0  0  0  0
 23 24  1  0  0  0  0
 23 32  1  0  0  0  0
 24 25  2  0  0  0  0
 24 26  1  0  0  0  0
 26 27  1  0  0  0  0
 26 49  1  0  0  0  0
 27 28  1  0  0  0  0
 27 50  1  0  0  0  0
 27 51  1  0  0  0  0
 28 29  1  0  0  0  0
 28 52  1  0  0  0  0
 28 53  1  0  0  0  0
 29 30  2  0  0  0  0
 29 31  1  0  0  0  0
 31 54  1  0  0  0  0
 32 33  1  0  0  0  0
 34 35  1  0  0  0  0
 34 55  1  0  0  0  0
 35 56  1  0  0  0  0
 36 57  1  0  0  0  0
M  END
$$$$
