CHEMBL3577121
 OpenBabel04072215363D

 61 63  0  0  0  0  0  0  0  0999 V2000
    2.9419   -0.9821   -1.6663 C   0  0  0  0  0  0  0  0  0  0  0  0
    3.3211   -0.2217   -0.4841 N   0  0  0  0  0  0  0  0  0  0  0  0
    3.7634   -1.0308    0.5794 C   0  0  0  0  0  0  0  0  0  0  0  0
    4.1043   -0.4247    1.7865 C   0  0  0  0  0  0  0  0  0  0  0  0
    4.4949   -1.1963    2.8695 C   0  0  0  0  0  0  0  0  0  0  0  0
    4.8144   -0.6336    4.0434 N   0  0  0  0  0  0  0  0  0  0  0  0
    5.1932   -1.4319    5.0987 C   0  0  0  0  0  0  0  0  0  0  0  0
    5.5095   -0.6229    6.3260 C   0  0  0  0  0  0  0  0  0  0  0  0
    5.2399   -2.8491    5.0362 C   0  0  0  0  0  0  0  0  0  0  0  0
    5.6633   -3.7633    6.1489 C   0  0  0  0  0  0  0  0  0  0  0  0
    5.2632   -3.4517    7.4661 C   0  0  0  0  0  0  0  0  0  0  0  0
    5.7214   -4.1273    8.6014 C   0  0  0  0  0  0  0  0  0  0  0  0
    5.4607   -3.6900    9.9218 N   0  0  0  0  0  0  0  0  0  0  0  0
    4.5726   -2.7059   10.2863 C   0  0  0  0  0  0  0  0  0  0  0  0
    3.7867   -2.1309    9.5433 O   0  0  0  0  0  0  0  0  0  0  0  0
    4.6321   -2.4116   11.6284 N   0  0  0  0  0  0  0  0  0  0  0  0
    3.8193   -1.3272   12.1502 C   0  0  0  0  0  0  0  0  0  0  0  0
    2.4068   -1.7994   12.5175 C   0  0  0  0  0  0  0  0  0  0  0  0
    1.4380   -0.6758   12.9754 C   0  0  0  0  0  0  0  0  0  0  0  0
    1.1576    0.3155   11.8320 C   0  0  0  0  0  0  0  0  0  0  0  0
    0.0978   -1.3113   13.3947 C   0  0  0  0  0  0  0  0  0  0  0  0
    2.0140    0.0840   14.1809 C   0  0  0  0  0  0  0  0  0  0  0  0
    6.5054   -5.2549    8.4126 C   0  0  0  0  0  0  0  0  0  0  0  0
    6.9452   -5.9542    9.4713 F   0  0  0  0  0  0  0  0  0  0  0  0
    6.8324   -5.6869    7.1334 C   0  0  0  0  0  0  0  0  0  0  0  0
    6.4564   -4.9376    5.9951 C   0  0  0  0  0  0  0  0  0  0  0  0
    6.9458   -5.4674    4.6692 C   0  0  0  0  0  0  0  0  0  0  0  0
    4.8438   -3.3862    3.8068 C   0  0  0  0  0  0  0  0  0  0  0  0
    4.5260   -2.5767    2.7107 C   0  0  0  0  0  0  0  0  0  0  0  0
    4.2322   -3.1065    1.4591 C   0  0  0  0  0  0  0  0  0  0  0  0
    3.8634   -2.3606    0.4014 N   0  0  0  0  0  0  0  0  0  0  0  0
    2.4773   -0.3097   -2.3930 H   0  0  0  0  0  0  0  0  0  0  0  0
    2.2110   -1.7672   -1.4368 H   0  0  0  0  0  0  0  0  0  0  0  0
    3.8218   -1.4290   -2.1425 H   0  0  0  0  0  0  0  0  0  0  0  0
    2.5557    0.3554   -0.1461 H   0  0  0  0  0  0  0  0  0  0  0  0
    4.0535    0.6550    1.8927 H   0  0  0  0  0  0  0  0  0  0  0  0
    5.6210    0.4399    6.0772 H   0  0  0  0  0  0  0  0  0  0  0  0
    6.4432   -0.9418    6.7981 H   0  0  0  0  0  0  0  0  0  0  0  0
    4.6835   -0.6683    7.0443 H   0  0  0  0  0  0  0  0  0  0  0  0
    4.5715   -2.6320    7.5984 H   0  0  0  0  0  0  0  0  0  0  0  0
    5.9149   -4.2097   10.6607 H   0  0  0  0  0  0  0  0  0  0  0  0
    5.4567   -2.6780   12.1437 H   0  0  0  0  0  0  0  0  0  0  0  0
    3.7844   -0.5320   11.3984 H   0  0  0  0  0  0  0  0  0  0  0  0
    4.3433   -0.9344   13.0257 H   0  0  0  0  0  0  0  0  0  0  0  0
    2.4966   -2.5507   13.3142 H   0  0  0  0  0  0  0  0  0  0  0  0
    1.9629   -2.3286   11.6631 H   0  0  0  0  0  0  0  0  0  0  0  0
    0.7122   -0.1932   10.9693 H   0  0  0  0  0  0  0  0  0  0  0  0
    2.0664    0.8201   11.4914 H   0  0  0  0  0  0  0  0  0  0  0  0
    0.4585    1.0965   12.1526 H   0  0  0  0  0  0  0  0  0  0  0  0
   -0.3810   -1.8235   12.5525 H   0  0  0  0  0  0  0  0  0  0  0  0
   -0.6021   -0.5500   13.7594 H   0  0  0  0  0  0  0  0  0  0  0  0
    0.2377   -2.0438   14.1972 H   0  0  0  0  0  0  0  0  0  0  0  0
    2.9407    0.6079   13.9258 H   0  0  0  0  0  0  0  0  0  0  0  0
    2.2290   -0.6006   15.0090 H   0  0  0  0  0  0  0  0  0  0  0  0
    1.3086    0.8385   14.5462 H   0  0  0  0  0  0  0  0  0  0  0  0
    7.4096   -6.6032    7.0327 H   0  0  0  0  0  0  0  0  0  0  0  0
    7.6631   -6.2852    4.8034 H   0  0  0  0  0  0  0  0  0  0  0  0
    7.4563   -4.6855    4.1006 H   0  0  0  0  0  0  0  0  0  0  0  0
    6.1231   -5.8938    4.0890 H   0  0  0  0  0  0  0  0  0  0  0  0
    4.7521   -4.4589    3.6838 H   0  0  0  0  0  0  0  0  0  0  0  0
    4.2950   -4.1690    1.2689 H   0  0  0  0  0  0  0  0  0  0  0  0
  1  2  1  0  0  0  0
  1 32  1  0  0  0  0
  1 33  1  0  0  0  0
  1 34  1  0  0  0  0
  2  3  1  0  0  0  0
  2 35  1  0  0  0  0
  3  4  1  0  0  0  0
  3 31  2  0  0  0  0
  4  5  2  0  0  0  0
  4 36  1  0  0  0  0
  5  6  1  0  0  0  0
  5 29  1  0  0  0  0
  6  7  2  0  0  0  0
  7  8  1  0  0  0  0
  7  9  1  0  0  0  0
  8 37  1  0  0  0  0
  8 38  1  0  0  0  0
  8 39  1  0  0  0  0
  9 10  1  0  0  0  0
  9 28  2  0  0  0  0
 10 11  1  0  0  0  0
 10 26  2  0  0  0  0
 11 12  2  0  0  0  0
 11 40  1  0  0  0  0
 12 13  1  0  0  0  0
 12 23  1  0  0  0  0
 13 14  1  0  0  0  0
 13 41  1  0  0  0  0
 14 15  2  0  0  0  0
 14 16  1  0  0  0  0
 16 17  1  0  0  0  0
 16 42  1  0  0  0  0
 17 18  1  0  0  0  0
 17 43  1  0  0  0  0
 17 44  1  0  0  0  0
 18 19  1  0  0  0  0
 18 45  1  0  0  0  0
 18 46  1  0  0  0  0
 19 20  1  0  0  0  0
 19 21  1  0  0  0  0
 19 22  1  0  0  0  0
 20 47  1  0  0  0  0
 20 48  1  0  0  0  0
 20 49  1  0  0  0  0
 21 50  1  0  0  0  0
 21 51  1  0  0  0  0
 21 52  1  0  0  0  0
 22 53  1  0  0  0  0
 22 54  1  0  0  0  0
 22 55  1  0  0  0  0
 23 24  1  0  0  0  0
 23 25  2  0  0  0  0
 25 26  1  0  0  0  0
 25 56  1  0  0  0  0
 26 27  1  0  0  0  0
 27 57  1  0  0  0  0
 27 58  1  0  0  0  0
 27 59  1  0  0  0  0
 28 29  1  0  0  0  0
 28 60  1  0  0  0  0
 29 30  2  0  0  0  0
 30 31  1  0  0  0  0
 30 61  1  0  0  0  0
M  END
$$$$
