CHEMBL119552
 OpenBabel04072215363D

 48 52  0  0  0  0  0  0  0  0999 V2000
    2.9029   -1.0252   -0.1387 O   0  0  0  0  0  0  0  0  0  0  0  0
    2.2640   -0.0129    0.1548 C   0  0  0  0  0  0  0  0  0  0  0  0
    3.0071    1.2742    0.2146 C   0  0  0  0  0  0  0  0  0  0  0  0
    2.7708    2.2345    1.2068 C   0  0  0  0  0  0  0  0  0  0  0  0
    3.4160    3.4738    1.1994 C   0  0  0  0  0  0  0  0  0  0  0  0
    4.4133    3.6579    0.2422 C   0  0  0  0  0  0  0  0  0  0  0  0
    5.2669    4.7171    0.0498 N   0  0  0  0  0  0  0  0  0  0  0  0
    6.2052    4.4229   -0.9143 C   0  0  0  0  0  0  0  0  0  0  0  0
    7.3606    5.2793   -1.1945 C   0  0  0  0  0  0  0  0  0  0  0  0
    8.2537    4.9272   -2.2037 C   0  0  0  0  0  0  0  0  0  0  0  0
    9.4299    5.6552   -2.3974 C   0  0  0  0  0  0  0  0  0  0  0  0
   10.3567    5.2682   -3.3769 C   0  0  0  0  0  0  0  0  0  0  0  0
   11.5483    5.9682   -3.5265 C   0  0  0  0  0  0  0  0  0  0  0  0
   11.8060    7.0627   -2.7100 C   0  0  0  0  0  0  0  0  0  0  0  0
   10.8692    7.4548   -1.7475 C   0  0  0  0  0  0  0  0  0  0  0  0
    9.6761    6.7678   -1.5674 C   0  0  0  0  0  0  0  0  0  0  0  0
    8.8087    7.1593   -0.6168 N   0  0  0  0  0  0  0  0  0  0  0  0
    7.6985    6.4127   -0.4593 C   0  0  0  0  0  0  0  0  0  0  0  0
    6.9168    6.8732    0.5564 O   0  0  0  0  0  0  0  0  0  0  0  0
    5.8515    3.1882   -1.4318 C   0  0  0  0  0  0  0  0  0  0  0  0
    4.7443    2.6900   -0.7002 C   0  0  0  0  0  0  0  0  0  0  0  0
    4.0175    1.4871   -0.7343 C   0  0  0  0  0  0  0  0  0  0  0  0
    0.8815   -0.0419    0.3759 N   0  0  0  0  0  0  0  0  0  0  0  0
    0.2222   -1.3482    0.4741 C   0  0  0  0  0  0  0  0  0  0  0  0
   -1.1879   -1.3428   -0.1458 C   0  0  0  0  0  0  0  0  0  0  0  0
   -2.0426   -0.2459    0.3507 N   0  0  0  0  0  0  0  0  0  0  0  0
   -1.3646    1.0301    0.0825 C   0  0  0  0  0  0  0  0  0  0  0  0
    0.0320    1.1080    0.7116 C   0  0  0  0  0  0  0  0  0  0  0  0
    2.0635    2.0390    2.0058 H   0  0  0  0  0  0  0  0  0  0  0  0
    3.1777    4.2375    1.9317 H   0  0  0  0  0  0  0  0  0  0  0  0
    5.2887    5.5581    0.6114 H   0  0  0  0  0  0  0  0  0  0  0  0
    8.0579    4.0616   -2.8302 H   0  0  0  0  0  0  0  0  0  0  0  0
   10.1640    4.4063   -4.0119 H   0  0  0  0  0  0  0  0  0  0  0  0
   12.2722    5.6548   -4.2745 H   0  0  0  0  0  0  0  0  0  0  0  0
   12.7371    7.6125   -2.8154 H   0  0  0  0  0  0  0  0  0  0  0  0
   11.0832    8.3115   -1.1132 H   0  0  0  0  0  0  0  0  0  0  0  0
    7.4652    7.6283    0.8412 H   0  0  0  0  0  0  0  0  0  0  0  0
    6.3781    2.6454   -2.2067 H   0  0  0  0  0  0  0  0  0  0  0  0
    4.2595    0.7206   -1.4664 H   0  0  0  0  0  0  0  0  0  0  0  0
    0.1597   -1.5921    1.5419 H   0  0  0  0  0  0  0  0  0  0  0  0
    0.8238   -2.1290   -0.0034 H   0  0  0  0  0  0  0  0  0  0  0  0
   -1.6837   -2.2955    0.0675 H   0  0  0  0  0  0  0  0  0  0  0  0
   -1.1089   -1.2637   -1.2372 H   0  0  0  0  0  0  0  0  0  0  0  0
   -2.1447   -0.3518    1.3598 H   0  0  0  0  0  0  0  0  0  0  0  0
   -1.9753    1.8528    0.4710 H   0  0  0  0  0  0  0  0  0  0  0  0
   -1.2827    1.1813   -1.0008 H   0  0  0  0  0  0  0  0  0  0  0  0
   -0.0533    1.1273    1.8057 H   0  0  0  0  0  0  0  0  0  0  0  0
    0.4810    2.0418    0.3744 H   0  0  0  0  0  0  0  0  0  0  0  0
  1  2  2  0  0  0  0
  2  3  1  0  0  0  0
  2 23  1  0  0  0  0
  3  4  1  0  0  0  0
  3 22  2  0  0  0  0
  4  5  2  0  0  0  0
  4 29  1  0  0  0  0
  5  6  1  0  0  0  0
  5 30  1  0  0  0  0
  6  7  1  0  0  0  0
  6 21  2  0  0  0  0
  7  8  1  0  0  0  0
  7 31  1  0  0  0  0
  8  9  1  0  0  0  0
  8 20  2  0  0  0  0
  9 10  1  0  0  0  0
  9 18  2  0  0  0  0
 10 11  2  0  0  0  0
 10 32  1  0  0  0  0
 11 12  1  0  0  0  0
 11 16  1  0  0  0  0
 12 13  2  0  0  0  0
 12 33  1  0  0  0  0
 13 14  1  0  0  0  0
 13 34  1  0  0  0  0
 14 15  2  0  0  0  0
 14 35  1  0  0  0  0
 15 16  1  0  0  0  0
 15 36  1  0  0  0  0
 16 17  2  0  0  0  0
 17 18  1  0  0  0  0
 18 19  1  0  0  0  0
 19 37  1  0  0  0  0
 20 21  1  0  0  0  0
 20 38  1  0  0  0  0
 21 22  1  0  0  0  0
 22 39  1  0  0  0  0
 23 24  1  0  0  0  0
 23 28  1  0  0  0  0
 24 25  1  0  0  0  0
 24 40  1  0  0  0  0
 24 41  1  0  0  0  0
 25 26  1  0  0  0  0
 25 42  1  0  0  0  0
 25 43  1  0  0  0  0
 26 27  1  0  0  0  0
 26 44  1  0  0  0  0
 27 28  1  0  0  0  0
 27 45  1  0  0  0  0
 27 46  1  0  0  0  0
 28 47  1  0  0  0  0
 28 48  1  0  0  0  0
M  END
$$$$
