CHEMBL192668
 OpenBabel04072215363D

 77 79  0  0  1  0  0  0  0  0999 V2000
    1.5633    1.4698   -0.3919 C   0  0  0  0  0  0  0  0  0  0  0  0
    2.9643    1.2193   -0.4655 O   0  0  0  0  0  0  0  0  0  0  0  0
    3.3244    0.2131   -1.3219 C   0  0  0  0  0  0  0  0  0  0  0  0
    2.6470   -0.1020   -2.5021 C   0  0  0  0  0  0  0  0  0  0  0  0
    3.1082   -1.1398   -3.3100 C   0  0  0  0  0  0  0  0  0  0  0  0
    2.5310   -1.5359   -4.4853 O   0  0  0  0  0  0  0  0  0  0  0  0
    1.9189   -0.4934   -5.2358 C   0  0  0  0  0  0  0  0  0  0  0  0
    4.2241   -1.8794   -2.9200 C   0  0  0  0  0  0  0  0  0  0  0  0
    4.9272   -1.5671   -1.7444 C   0  0  0  0  0  0  0  0  0  0  0  0
    6.1899   -2.3347   -1.3518 C   0  0  3  0  0  0  0  0  0  0  0  0
    7.4166   -1.6581   -1.9962 C   0  0  0  0  0  0  0  0  0  0  0  0
    8.2844   -2.5492   -2.8380 C   0  0  0  0  0  0  0  0  0  0  0  0
    9.4353   -2.0720   -3.4448 C   0  0  0  0  0  0  0  0  0  0  0  0
   10.2655   -2.8259   -4.2040 N   0  0  0  0  0  0  0  0  0  0  0  0
    9.9592   -4.1243   -4.3920 C   0  0  0  0  0  0  0  0  0  0  0  0
   10.8756   -4.9379   -5.1308 N   0  0  0  0  0  0  0  0  0  0  0  0
   12.3136   -4.9333   -4.7939 C   0  0  0  0  0  0  0  0  0  0  0  0
   12.7404   -4.2468   -3.5004 C   0  0  0  0  0  0  0  0  0  0  0  0
   14.2247   -4.3794   -3.1320 C   0  0  0  0  0  0  0  0  0  0  0  0
   14.4374   -3.5870   -1.8369 C   0  0  0  0  0  0  0  0  0  0  0  0
   15.8607   -3.5852   -1.3104 C   0  0  0  0  0  0  0  0  0  0  0  0
   15.9049   -2.8146   -0.1118 O   0  0  0  0  0  0  0  0  0  0  0  0
   10.5494   -5.6311   -6.2927 C   0  0  0  0  0  0  0  0  0  0  0  0
    9.1574   -5.5870   -6.8723 C   0  0  0  0  0  0  0  0  0  0  0  0
   11.4039   -6.2740   -6.9177 O   0  0  0  0  0  0  0  0  0  0  0  0
    8.8277   -4.6788   -3.8211 C   0  0  0  0  0  0  0  0  0  0  0  0
    7.9806   -3.8850   -3.0364 C   0  0  0  0  0  0  0  0  0  0  0  0
    6.8585   -4.4826   -2.4627 N   0  0  0  0  0  0  0  0  0  0  0  0
    6.0637   -3.8208   -1.6880 C   0  0  0  0  0  0  0  0  0  0  0  0
    4.9597   -4.4537   -1.1331 N   0  0  0  0  0  0  0  0  0  0  0  0
    4.3315   -5.6167   -1.5350 C   0  0  0  0  0  0  0  0  0  0  0  0
    3.4375   -6.0966   -0.8430 O   0  0  0  0  0  0  0  0  0  0  0  0
    4.7353   -6.0958   -2.7495 N   0  0  0  0  0  0  0  0  0  0  0  0
    4.2223   -7.2751   -3.4448 C   0  0  0  0  0  0  0  0  0  0  0  0
    2.7328   -7.1060   -3.7818 C   0  0  0  0  0  0  0  0  0  0  0  0
    5.0014   -7.4354   -4.7645 C   0  0  0  0  0  0  0  0  0  0  0  0
    4.4360   -8.5431   -2.6060 C   0  0  0  0  0  0  0  0  0  0  0  0
    4.4766   -0.4933   -0.9642 C   0  0  0  0  0  0  0  0  0  0  0  0
    1.3808    2.0875    0.4928 H   0  0  0  0  0  0  0  0  0  0  0  0
    0.9957    0.5400   -0.2737 H   0  0  0  0  0  0  0  0  0  0  0  0
    1.2199    2.0303   -1.2669 H   0  0  0  0  0  0  0  0  0  0  0  0
    1.7681    0.4588   -2.7924 H   0  0  0  0  0  0  0  0  0  0  0  0
    1.7134   -0.8798   -6.2388 H   0  0  0  0  0  0  0  0  0  0  0  0
    2.5866    0.3691   -5.3390 H   0  0  0  0  0  0  0  0  0  0  0  0
    0.9637   -0.1998   -4.7897 H   0  0  0  0  0  0  0  0  0  0  0  0
    4.5464   -2.6969   -3.5630 H   0  0  0  0  0  0  0  0  0  0  0  0
    6.2863   -2.2786   -0.2573 H   0  0  0  0  0  0  0  0  0  0  0  0
    8.0254   -1.2229   -1.1962 H   0  0  0  0  0  0  0  0  0  0  0  0
    7.1038   -0.8126   -2.6281 H   0  0  0  0  0  0  0  0  0  0  0  0
    9.7321   -1.0318   -3.3401 H   0  0  0  0  0  0  0  0  0  0  0  0
   12.8600   -4.5120   -5.6473 H   0  0  0  0  0  0  0  0  0  0  0  0
   12.6119   -5.9892   -4.7296 H   0  0  0  0  0  0  0  0  0  0  0  0
   12.1403   -4.6420   -2.6716 H   0  0  0  0  0  0  0  0  0  0  0  0
   12.5351   -3.1757   -3.5850 H   0  0  0  0  0  0  0  0  0  0  0  0
   14.8583   -3.9770   -3.9318 H   0  0  0  0  0  0  0  0  0  0  0  0
   14.5007   -5.4309   -2.9894 H   0  0  0  0  0  0  0  0  0  0  0  0
   13.7741   -3.9807   -1.0560 H   0  0  0  0  0  0  0  0  0  0  0  0
   14.1201   -2.5475   -1.9928 H   0  0  0  0  0  0  0  0  0  0  0  0
   16.5583   -3.1435   -2.0273 H   0  0  0  0  0  0  0  0  0  0  0  0
   16.1944   -4.5981   -1.0694 H   0  0  0  0  0  0  0  0  0  0  0  0
   15.5938   -1.9180   -0.3273 H   0  0  0  0  0  0  0  0  0  0  0  0
    8.4309   -5.0092   -6.3106 H   0  0  0  0  0  0  0  0  0  0  0  0
    8.7955   -6.6180   -6.9581 H   0  0  0  0  0  0  0  0  0  0  0  0
    9.2178   -5.1550   -7.8781 H   0  0  0  0  0  0  0  0  0  0  0  0
    8.6072   -5.7396   -3.9280 H   0  0  0  0  0  0  0  0  0  0  0  0
    4.4813   -4.0183   -0.3579 H   0  0  0  0  0  0  0  0  0  0  0  0
    5.5385   -5.6168   -3.1428 H   0  0  0  0  0  0  0  0  0  0  0  0
    2.5792   -6.2705   -4.4748 H   0  0  0  0  0  0  0  0  0  0  0  0
    2.1288   -6.9048   -2.8916 H   0  0  0  0  0  0  0  0  0  0  0  0
    2.3308   -8.0097   -4.2543 H   0  0  0  0  0  0  0  0  0  0  0  0
    4.9326   -6.5308   -5.3802 H   0  0  0  0  0  0  0  0  0  0  0  0
    4.6175   -8.2752   -5.3555 H   0  0  0  0  0  0  0  0  0  0  0  0
    6.0662   -7.6160   -4.5761 H   0  0  0  0  0  0  0  0  0  0  0  0
    3.9239   -8.4882   -1.6400 H   0  0  0  0  0  0  0  0  0  0  0  0
    5.5012   -8.7032   -2.4027 H   0  0  0  0  0  0  0  0  0  0  0  0
    4.0579   -9.4289   -3.1292 H   0  0  0  0  0  0  0  0  0  0  0  0
    5.0093   -0.2002   -0.0613 H   0  0  0  0  0  0  0  0  0  0  0  0
  1  2  1  0  0  0  0
  1 39  1  0  0  0  0
  1 40  1  0  0  0  0
  1 41  1  0  0  0  0
  2  3  1  0  0  0  0
  3  4  1  0  0  0  0
  3 38  2  0  0  0  0
  4  5  2  0  0  0  0
  4 42  1  0  0  0  0
  5  6  1  0  0  0  0
  5  8  1  0  0  0  0
  6  7  1  0  0  0  0
  7 43  1  0  0  0  0
  7 44  1  0  0  0  0
  7 45  1  0  0  0  0
  8  9  2  0  0  0  0
  8 46  1  0  0  0  0
  9 10  1  0  0  0  0
  9 38  1  0  0  0  0
 10 11  1  0  0  0  0
 10 29  1  0  0  0  0
 10 47  1  0  0  0  0
 11 12  1  0  0  0  0
 11 48  1  0  0  0  0
 11 49  1  0  0  0  0
 12 13  1  0  0  0  0
 12 27  2  0  0  0  0
 13 14  2  0  0  0  0
 13 50  1  0  0  0  0
 14 15  1  0  0  0  0
 15 16  1  0  0  0  0
 15 26  2  0  0  0  0
 16 17  1  0  0  0  0
 16 23  1  0  0  0  0
 17 18  1  0  0  0  0
 17 51  1  0  0  0  0
 17 52  1  0  0  0  0
 18 19  1  0  0  0  0
 18 53  1  0  0  0  0
 18 54  1  0  0  0  0
 19 20  1  0  0  0  0
 19 55  1  0  0  0  0
 19 56  1  0  0  0  0
 20 21  1  0  0  0  0
 20 57  1  0  0  0  0
 20 58  1  0  0  0  0
 21 22  1  0  0  0  0
 21 59  1  0  0  0  0
 21 60  1  0  0  0  0
 22 61  1  0  0  0  0
 23 24  1  0  0  0  0
 23 25  2  0  0  0  0
 24 62  1  0  0  0  0
 24 63  1  0  0  0  0
 24 64  1  0  0  0  0
 26 27  1  0  0  0  0
 26 65  1  0  0  0  0
 27 28  1  0  0  0  0
 28 29  2  0  0  0  0
 29 30  1  0  0  0  0
 30 31  1  0  0  0  0
 30 66  1  0  0  0  0
 31 32  2  0  0  0  0
 31 33  1  0  0  0  0
 33 34  1  0  0  0  0
 33 67  1  0  0  0  0
 34 35  1  0  0  0  0
 34 36  1  0  0  0  0
 34 37  1  0  0  0  0
 35 68  1  0  0  0  0
 35 69  1  0  0  0  0
 35 70  1  0  0  0  0
 36 71  1  0  0  0  0
 36 72  1  0  0  0  0
 36 73  1  0  0  0  0
 37 74  1  0  0  0  0
 37 75  1  0  0  0  0
 37 76  1  0  0  0  0
 38 77  1  0  0  0  0
M  END
$$$$
