CHEMBL443296
 OpenBabel04072215383D

 55 58  0  0  0  0  0  0  0  0999 V2000
    8.2993    1.7678   -2.8608 C   0  0  0  0  0  0  0  0  0  0  0  0
    7.2739    1.0990   -1.9644 C   0  0  0  0  0  0  0  0  0  0  0  0
    7.4141    1.6337   -0.6504 O   0  0  0  0  0  0  0  0  0  0  0  0
    6.6288    1.0782    0.3225 C   0  0  0  0  0  0  0  0  0  0  0  0
    5.6092    0.1522    0.1232 C   0  0  0  0  0  0  0  0  0  0  0  0
    4.8820   -0.3263    1.2121 C   0  0  0  0  0  0  0  0  0  0  0  0
    5.1771    0.1116    2.5035 C   0  0  0  0  0  0  0  0  0  0  0  0
    6.2128    1.0297    2.7404 C   0  0  0  0  0  0  0  0  0  0  0  0
    6.5595    1.4657    4.1104 C   0  0  0  0  0  0  0  0  0  0  0  0
    7.0213    2.7853    4.3475 C   0  0  0  0  0  0  0  0  0  0  0  0
    7.3891    3.2253    5.6194 C   0  0  0  0  0  0  0  0  0  0  0  0
    7.2697    2.3404    6.6735 C   0  0  0  0  0  0  0  0  0  0  0  0
    6.7966    1.0480    6.4652 C   0  0  0  0  0  0  0  0  0  0  0  0
    6.4542    0.5859    5.2095 C   0  0  0  0  0  0  0  0  0  0  0  0
    6.7323    0.3554    7.6709 N   0  0  0  0  0  0  0  0  0  0  0  0
    7.1508    1.1482    8.7313 C   0  0  0  0  0  0  0  0  0  0  0  0
    7.1671    0.8398    9.9083 O   0  0  0  0  0  0  0  0  0  0  0  0
    7.5559    2.4594    8.1086 C   0  0  0  0  0  0  0  0  0  0  0  0
    8.1115    3.5705    8.6100 C   0  0  0  0  0  0  0  0  0  0  0  0
    8.5201    3.8689    9.9330 C   0  0  0  0  0  0  0  0  0  0  0  0
    8.2445    3.0355   10.9838 N   0  0  0  0  0  0  0  0  0  0  0  0
    8.7364    3.5668   12.1421 C   0  0  0  0  0  0  0  0  0  0  0  0
    9.3275    4.7799   11.8546 C   0  0  0  0  0  0  0  0  0  0  0  0
    9.9523    5.6889   12.8501 C   0  0  0  0  0  0  0  0  0  0  0  0
    9.2115    4.9705   10.4352 C   0  0  0  0  0  0  0  0  0  0  0  0
    9.7191    6.1468    9.6407 C   0  0  0  0  0  0  0  0  0  0  0  0
   11.2434    6.1967    9.5811 C   0  0  0  0  0  0  0  0  0  0  0  0
   11.7308    7.3025    8.6834 C   0  0  0  0  0  0  0  0  0  0  0  0
   11.0205    8.0562    8.0321 O   0  0  0  0  0  0  0  0  0  0  0  0
   13.0840    7.3853    8.6580 O   0  0  0  0  0  0  0  0  0  0  0  0
    6.9174    1.5104    1.6203 C   0  0  0  0  0  0  0  0  0  0  0  0
    8.2035    1.4111   -3.8900 H   0  0  0  0  0  0  0  0  0  0  0  0
    9.3141    1.5574   -2.5073 H   0  0  0  0  0  0  0  0  0  0  0  0
    8.1750    2.8555   -2.8481 H   0  0  0  0  0  0  0  0  0  0  0  0
    7.4598    0.0184   -1.9563 H   0  0  0  0  0  0  0  0  0  0  0  0
    6.2701    1.3071   -2.3511 H   0  0  0  0  0  0  0  0  0  0  0  0
    5.3513   -0.2140   -0.8639 H   0  0  0  0  0  0  0  0  0  0  0  0
    4.0808   -1.0442    1.0558 H   0  0  0  0  0  0  0  0  0  0  0  0
    4.5765   -0.2701    3.3258 H   0  0  0  0  0  0  0  0  0  0  0  0
    7.0953    3.4993    3.5283 H   0  0  0  0  0  0  0  0  0  0  0  0
    7.7503    4.2395    5.7534 H   0  0  0  0  0  0  0  0  0  0  0  0
    6.1265   -0.4398    5.0808 H   0  0  0  0  0  0  0  0  0  0  0  0
    6.3971   -0.5877    7.7919 H   0  0  0  0  0  0  0  0  0  0  0  0
    8.3071    4.3722    7.9038 H   0  0  0  0  0  0  0  0  0  0  0  0
    7.7499    2.1485   10.9223 H   0  0  0  0  0  0  0  0  0  0  0  0
    8.6118    3.0389   13.0777 H   0  0  0  0  0  0  0  0  0  0  0  0
    9.8470    5.2913   13.8653 H   0  0  0  0  0  0  0  0  0  0  0  0
    9.4789    6.6751   12.8212 H   0  0  0  0  0  0  0  0  0  0  0  0
   11.0216    5.8047   12.6530 H   0  0  0  0  0  0  0  0  0  0  0  0
    9.3208    7.0745   10.0695 H   0  0  0  0  0  0  0  0  0  0  0  0
    9.3277    6.1103    8.6172 H   0  0  0  0  0  0  0  0  0  0  0  0
   11.6389    5.2486    9.1996 H   0  0  0  0  0  0  0  0  0  0  0  0
   11.6534    6.3765   10.5787 H   0  0  0  0  0  0  0  0  0  0  0  0
   13.5248    6.7183    9.2217 H   0  0  0  0  0  0  0  0  0  0  0  0
    7.7295    2.2244    1.7440 H   0  0  0  0  0  0  0  0  0  0  0  0
  1  2  1  0  0  0  0
  1 32  1  0  0  0  0
  1 33  1  0  0  0  0
  1 34  1  0  0  0  0
  2  3  1  0  0  0  0
  2 35  1  0  0  0  0
  2 36  1  0  0  0  0
  3  4  1  0  0  0  0
  4  5  1  0  0  0  0
  4 31  2  0  0  0  0
  5  6  2  0  0  0  0
  5 37  1  0  0  0  0
  6  7  1  0  0  0  0
  6 38  1  0  0  0  0
  7  8  2  0  0  0  0
  7 39  1  0  0  0  0
  8  9  1  0  0  0  0
  8 31  1  0  0  0  0
  9 10  1  0  0  0  0
  9 14  2  0  0  0  0
 10 11  2  0  0  0  0
 10 40  1  0  0  0  0
 11 12  1  0  0  0  0
 11 41  1  0  0  0  0
 12 13  2  0  0  0  0
 12 18  1  0  0  0  0
 13 14  1  0  0  0  0
 13 15  1  0  0  0  0
 14 42  1  0  0  0  0
 15 16  1  0  0  0  0
 15 43  1  0  0  0  0
 16 17  2  0  0  0  0
 16 18  1  0  0  0  0
 18 19  2  0  0  0  0
 19 20  1  0  0  0  0
 19 44  1  0  0  0  0
 20 21  1  0  0  0  0
 20 25  2  0  0  0  0
 21 22  1  0  0  0  0
 21 45  1  0  0  0  0
 22 23  2  0  0  0  0
 22 46  1  0  0  0  0
 23 24  1  0  0  0  0
 23 25  1  0  0  0  0
 24 47  1  0  0  0  0
 24 48  1  0  0  0  0
 24 49  1  0  0  0  0
 25 26  1  0  0  0  0
 26 27  1  0  0  0  0
 26 50  1  0  0  0  0
 26 51  1  0  0  0  0
 27 28  1  0  0  0  0
 27 52  1  0  0  0  0
 27 53  1  0  0  0  0
 28 29  2  0  0  0  0
 28 30  1  0  0  0  0
 30 54  1  0  0  0  0
 31 55  1  0  0  0  0
M  END
$$$$
