CHEMBL2086744
 OpenBabel04072215363D

 57 61  0  0  0  0  0  0  0  0999 V2000
    4.3846    2.4322   -3.6949 C   0  0  0  0  0  0  0  0  0  0  0  0
    4.1414    0.9981   -3.2538 C   0  0  0  0  0  0  0  0  0  0  0  0
    4.8012    0.7087   -1.9041 C   0  0  0  0  0  0  0  0  0  0  0  0
    4.5644   -0.7262   -1.4355 C   0  0  0  0  0  0  0  0  0  0  0  0
    5.0997   -1.7123   -2.3570 N   0  0  0  0  0  0  0  0  0  0  0  0
    6.4067   -2.1478   -2.2942 C   0  0  0  0  0  0  0  0  0  0  0  0
    7.2159   -1.7503   -1.4665 O   0  0  0  0  0  0  0  0  0  0  0  0
    6.7840   -3.2302   -3.2615 C   0  0  0  0  0  0  0  0  0  0  0  0
    7.7398   -4.1520   -2.8064 C   0  0  0  0  0  0  0  0  0  0  0  0
    8.1095   -5.2284   -3.5967 C   0  0  0  0  0  0  0  0  0  0  0  0
    7.5006   -5.3422   -4.8374 C   0  0  0  0  0  0  0  0  0  0  0  0
    6.5699   -4.4359   -5.3792 C   0  0  0  0  0  0  0  0  0  0  0  0
    6.2117   -3.3588   -4.5635 C   0  0  0  0  0  0  0  0  0  0  0  0
    6.1750   -4.9907   -6.7518 C   0  0  0  0  0  0  0  0  0  0  0  0
    5.3506   -4.5144   -7.7508 C   0  0  0  0  0  0  0  0  0  0  0  0
    4.8079   -3.1355   -7.5569 C   0  0  0  0  0  0  0  0  0  0  0  0
    5.5116   -2.0059   -8.0202 C   0  0  0  0  0  0  0  0  0  0  0  0
    5.0034   -0.7132   -7.8269 C   0  0  0  0  0  0  0  0  0  0  0  0
    3.7835   -0.5326   -7.1800 C   0  0  0  0  0  0  0  0  0  0  0  0
    3.0886   -1.6405   -6.6971 C   0  0  0  0  0  0  0  0  0  0  0  0
    3.6061   -2.9314   -6.8665 C   0  0  0  0  0  0  0  0  0  0  0  0
    5.0089   -5.2870   -8.9748 C   0  0  0  0  0  0  0  0  0  0  0  0
    3.9114   -5.4597   -9.7356 N   0  0  0  0  0  0  0  0  0  0  0  0
    4.1689   -6.5626  -10.5865 C   0  0  0  0  0  0  0  0  0  0  0  0
    3.4218   -7.3245  -11.5241 C   0  0  0  0  0  0  0  0  0  0  0  0
    3.9459   -8.5642  -11.9863 C   0  0  0  0  0  0  0  0  0  0  0  0
    5.2056   -9.0126  -11.5870 C   0  0  0  0  0  0  0  0  0  0  0  0
    6.0208   -8.1854  -10.8183 C   0  0  0  0  0  0  0  0  0  0  0  0
    5.4715   -6.9868  -10.3624 C   0  0  0  0  0  0  0  0  0  0  0  0
    6.0094   -5.9892   -9.6083 N   0  0  0  0  0  0  0  0  0  0  0  0
    6.9753   -6.3013   -6.8331 C   0  0  0  0  0  0  0  0  0  0  0  0
    7.0752   -7.1092   -7.7346 O   0  0  0  0  0  0  0  0  0  0  0  0
    7.7242   -6.3957   -5.6917 N   0  0  0  0  0  0  0  0  0  0  0  0
    3.9132    2.6145   -4.6656 H   0  0  0  0  0  0  0  0  0  0  0  0
    5.4561    2.6335   -3.7944 H   0  0  0  0  0  0  0  0  0  0  0  0
    3.9664    3.1416   -2.9739 H   0  0  0  0  0  0  0  0  0  0  0  0
    4.5379    0.3230   -4.0201 H   0  0  0  0  0  0  0  0  0  0  0  0
    3.0621    0.8176   -3.1879 H   0  0  0  0  0  0  0  0  0  0  0  0
    4.3968    1.3953   -1.1495 H   0  0  0  0  0  0  0  0  0  0  0  0
    5.8779    0.9043   -1.9705 H   0  0  0  0  0  0  0  0  0  0  0  0
    3.4909   -0.9217   -1.3344 H   0  0  0  0  0  0  0  0  0  0  0  0
    5.0229   -0.8695   -0.4502 H   0  0  0  0  0  0  0  0  0  0  0  0
    4.4612   -2.1308   -3.0186 H   0  0  0  0  0  0  0  0  0  0  0  0
    8.1817   -4.0459   -1.8086 H   0  0  0  0  0  0  0  0  0  0  0  0
    8.8294   -5.9586   -3.2421 H   0  0  0  0  0  0  0  0  0  0  0  0
    5.5076   -2.6108   -4.9018 H   0  0  0  0  0  0  0  0  0  0  0  0
    6.4621   -2.1150   -8.5382 H   0  0  0  0  0  0  0  0  0  0  0  0
    5.5500    0.1543   -8.1939 H   0  0  0  0  0  0  0  0  0  0  0  0
    3.3716    0.4676   -7.0584 H   0  0  0  0  0  0  0  0  0  0  0  0
    2.1322   -1.5015   -6.1996 H   0  0  0  0  0  0  0  0  0  0  0  0
    3.0679   -3.7786   -6.4498 H   0  0  0  0  0  0  0  0  0  0  0  0
    2.4380   -7.0175  -11.8702 H   0  0  0  0  0  0  0  0  0  0  0  0
    3.3580   -9.2071  -12.6425 H   0  0  0  0  0  0  0  0  0  0  0  0
    5.5671   -9.9997  -11.8747 H   0  0  0  0  0  0  0  0  0  0  0  0
    7.0197   -8.4908  -10.5222 H   0  0  0  0  0  0  0  0  0  0  0  0
    6.9559   -6.0451   -9.2569 H   0  0  0  0  0  0  0  0  0  0  0  0
    8.3584   -7.1646   -5.5320 H   0  0  0  0  0  0  0  0  0  0  0  0
  1  2  1  0  0  0  0
  1 34  1  0  0  0  0
  1 35  1  0  0  0  0
  1 36  1  0  0  0  0
  2  3  1  0  0  0  0
  2 37  1  0  0  0  0
  2 38  1  0  0  0  0
  3  4  1  0  0  0  0
  3 39  1  0  0  0  0
  3 40  1  0  0  0  0
  4  5  1  0  0  0  0
  4 41  1  0  0  0  0
  4 42  1  0  0  0  0
  5  6  1  0  0  0  0
  5 43  1  0  0  0  0
  6  7  2  0  0  0  0
  6  8  1  0  0  0  0
  8  9  1  0  0  0  0
  8 13  2  0  0  0  0
  9 10  2  0  0  0  0
  9 44  1  0  0  0  0
 10 11  1  0  0  0  0
 10 45  1  0  0  0  0
 11 12  2  0  0  0  0
 11 33  1  0  0  0  0
 12 13  1  0  0  0  0
 12 14  1  0  0  0  0
 13 46  1  0  0  0  0
 14 15  2  3  0  0  0
 14 31  1  0  0  0  0
 15 16  1  0  0  0  0
 15 22  1  0  0  0  0
 16 17  1  0  0  0  0
 16 21  2  0  0  0  0
 17 18  2  0  0  0  0
 17 47  1  0  0  0  0
 18 19  1  0  0  0  0
 18 48  1  0  0  0  0
 19 20  2  0  0  0  0
 19 49  1  0  0  0  0
 20 21  1  0  0  0  0
 20 50  1  0  0  0  0
 21 51  1  0  0  0  0
 22 23  2  0  0  0  0
 22 30  1  0  0  0  0
 23 24  1  0  0  0  0
 24 25  1  0  0  0  0
 24 29  2  0  0  0  0
 25 26  2  0  0  0  0
 25 52  1  0  0  0  0
 26 27  1  0  0  0  0
 26 53  1  0  0  0  0
 27 28  2  0  0  0  0
 27 54  1  0  0  0  0
 28 29  1  0  0  0  0
 28 55  1  0  0  0  0
 29 30  1  0  0  0  0
 30 56  1  0  0  0  0
 31 32  2  0  0  0  0
 31 33  1  0  0  0  0
 33 57  1  0  0  0  0
M  END
$$$$
