CHEMBL3639549
 OpenBabel04072215373D

 50 53  0  0  0  0  0  0  0  0999 V2000
   -3.9567   -4.3340    5.8021 C   0  0  0  0  0  0  0  0  0  0  0  0
   -3.2644   -4.2720    4.4700 C   0  0  0  0  0  0  0  0  0  0  0  0
   -2.0694   -4.9694    4.2763 C   0  0  0  0  0  0  0  0  0  0  0  0
   -1.3999   -4.8755    3.0607 C   0  0  0  0  0  0  0  0  0  0  0  0
   -1.9273   -4.1045    2.0195 C   0  0  0  0  0  0  0  0  0  0  0  0
   -3.1443   -3.4347    2.1651 C   0  0  0  0  0  0  0  0  0  0  0  0
   -3.7539   -2.6811    1.1248 N   0  0  0  0  0  0  0  0  0  0  0  0
   -3.2748   -2.5109   -0.1708 C   0  0  0  0  0  0  0  0  0  0  0  0
   -2.2380   -2.9854   -0.6277 O   0  0  0  0  0  0  0  0  0  0  0  0
   -4.0693   -1.6220   -1.0754 C   0  0  0  0  0  0  0  0  0  0  0  0
   -3.3649   -0.8937   -2.0489 C   0  0  0  0  0  0  0  0  0  0  0  0
   -4.0195    0.0405   -2.8500 C   0  0  0  0  0  0  0  0  0  0  0  0
   -5.3923    0.2211   -2.7160 C   0  0  0  0  0  0  0  0  0  0  0  0
   -6.1303   -0.6065   -1.8632 C   0  0  0  0  0  0  0  0  0  0  0  0
   -7.5078   -0.5722   -1.7669 O   0  0  0  0  0  0  0  0  0  0  0  0
   -8.2710   -0.2299   -2.8670 C   0  0  0  0  0  0  0  0  0  0  0  0
   -7.9193   -0.4888   -4.1882 C   0  0  0  0  0  0  0  0  0  0  0  0
   -8.7588   -0.0384   -5.1925 C   0  0  0  0  0  0  0  0  0  0  0  0
   -9.9317    0.5905   -4.9654 N   0  0  0  0  0  0  0  0  0  0  0  0
  -10.2867    0.7749   -3.6702 C   0  0  0  0  0  0  0  0  0  0  0  0
  -11.5749    1.4395   -3.4958 C   0  0  0  0  0  0  0  0  0  0  0  0
  -12.2831    1.8205   -2.3676 C   0  0  0  0  0  0  0  0  0  0  0  0
  -13.5121    2.4253   -2.7764 C   0  0  0  0  0  0  0  0  0  0  0  0
  -14.5500    2.9727   -1.9127 C   0  0  0  0  0  0  0  0  0  0  0  0
  -14.3469    3.3801   -0.7826 O   0  0  0  0  0  0  0  0  0  0  0  0
  -15.7960    2.9614   -2.4642 O   0  0  0  0  0  0  0  0  0  0  0  0
  -13.4996    2.4145   -4.1600 C   0  0  0  0  0  0  0  0  0  0  0  0
  -12.3280    1.8391   -4.5771 N   0  0  0  0  0  0  0  0  0  0  0  0
   -9.4962    0.3784   -2.5994 C   0  0  0  0  0  0  0  0  0  0  0  0
   -5.4642   -1.4990   -1.0084 C   0  0  0  0  0  0  0  0  0  0  0  0
   -3.7986   -3.5135    3.4079 C   0  0  0  0  0  0  0  0  0  0  0  0
   -3.3977   -4.9525    6.5148 H   0  0  0  0  0  0  0  0  0  0  0  0
   -4.9546   -4.7695    5.6970 H   0  0  0  0  0  0  0  0  0  0  0  0
   -4.0378   -3.3313    6.2338 H   0  0  0  0  0  0  0  0  0  0  0  0
   -1.6460   -5.5815    5.0689 H   0  0  0  0  0  0  0  0  0  0  0  0
   -0.4602   -5.4029    2.9156 H   0  0  0  0  0  0  0  0  0  0  0  0
   -1.3484   -4.0493    1.1037 H   0  0  0  0  0  0  0  0  0  0  0  0
   -4.6055   -2.1981    1.3775 H   0  0  0  0  0  0  0  0  0  0  0  0
   -2.2916   -1.0350   -2.1712 H   0  0  0  0  0  0  0  0  0  0  0  0
   -3.4613    0.6303   -3.5734 H   0  0  0  0  0  0  0  0  0  0  0  0
   -5.8758    0.9893   -3.3136 H   0  0  0  0  0  0  0  0  0  0  0  0
   -7.0019   -1.0020   -4.4539 H   0  0  0  0  0  0  0  0  0  0  0  0
   -8.4927   -0.1698   -6.2374 H   0  0  0  0  0  0  0  0  0  0  0  0
  -11.9670    1.6722   -1.3421 H   0  0  0  0  0  0  0  0  0  0  0  0
  -15.8039    2.4961   -3.3207 H   0  0  0  0  0  0  0  0  0  0  0  0
  -14.1991    2.7993   -4.8904 H   0  0  0  0  0  0  0  0  0  0  0  0
  -12.0232    1.7182   -5.5361 H   0  0  0  0  0  0  0  0  0  0  0  0
   -9.8118    0.5438   -1.5769 H   0  0  0  0  0  0  0  0  0  0  0  0
   -6.0461   -2.1098   -0.3250 H   0  0  0  0  0  0  0  0  0  0  0  0
   -4.7363   -2.9869    3.5670 H   0  0  0  0  0  0  0  0  0  0  0  0
  1  2  1  0  0  0  0
  1 32  1  0  0  0  0
  1 33  1  0  0  0  0
  1 34  1  0  0  0  0
  2  3  1  0  0  0  0
  2 31  2  0  0  0  0
  3  4  2  0  0  0  0
  3 35  1  0  0  0  0
  4  5  1  0  0  0  0
  4 36  1  0  0  0  0
  5  6  2  0  0  0  0
  5 37  1  0  0  0  0
  6  7  1  0  0  0  0
  6 31  1  0  0  0  0
  7  8  1  0  0  0  0
  7 38  1  0  0  0  0
  8  9  2  0  0  0  0
  8 10  1  0  0  0  0
 10 11  1  0  0  0  0
 10 30  2  0  0  0  0
 11 12  2  0  0  0  0
 11 39  1  0  0  0  0
 12 13  1  0  0  0  0
 12 40  1  0  0  0  0
 13 14  2  0  0  0  0
 13 41  1  0  0  0  0
 14 15  1  0  0  0  0
 14 30  1  0  0  0  0
 15 16  1  0  0  0  0
 16 17  1  0  0  0  0
 16 29  2  0  0  0  0
 17 18  2  0  0  0  0
 17 42  1  0  0  0  0
 18 19  1  0  0  0  0
 18 43  1  0  0  0  0
 19 20  2  0  0  0  0
 20 21  1  0  0  0  0
 20 29  1  0  0  0  0
 21 22  2  0  0  0  0
 21 28  1  0  0  0  0
 22 23  1  0  0  0  0
 22 44  1  0  0  0  0
 23 24  1  0  0  0  0
 23 27  2  0  0  0  0
 24 25  2  0  0  0  0
 24 26  1  0  0  0  0
 26 45  1  0  0  0  0
 27 28  1  0  0  0  0
 27 46  1  0  0  0  0
 28 47  1  0  0  0  0
 29 48  1  0  0  0  0
 30 49  1  0  0  0  0
 31 50  1  0  0  0  0
M  END
$$$$
