CHEMBL470073
 OpenBabel04072215383D

 48 51  0  0  0  0  0  0  0  0999 V2000
    2.5219   -0.3449   -0.4098 C   0  0  0  0  0  0  0  0  0  0  0  0
    1.0390   -0.2598   -0.6234 C   0  0  0  0  0  0  0  0  0  0  0  0
    0.4928    0.9317   -1.1118 C   0  0  0  0  0  0  0  0  0  0  0  0
   -0.8712    1.0357   -1.3162 C   0  0  0  0  0  0  0  0  0  0  0  0
   -1.6978   -0.0471   -1.0315 C   0  0  0  0  0  0  0  0  0  0  0  0
   -1.1932   -1.2591   -0.5354 C   0  0  0  0  0  0  0  0  0  0  0  0
   -2.0311   -2.3782   -0.2275 N   0  0  0  0  0  0  0  0  0  0  0  0
   -3.4099   -2.3737   -0.3318 C   0  0  0  0  0  0  0  0  0  0  0  0
   -4.0608   -1.3889   -0.6745 O   0  0  0  0  0  0  0  0  0  0  0  0
   -4.0212   -3.5748    0.0015 N   0  0  0  0  0  0  0  0  0  0  0  0
   -5.4348   -3.7648   -0.1167 C   0  0  0  0  0  0  0  0  0  0  0  0
   -6.2215   -2.9880   -0.9793 C   0  0  0  0  0  0  0  0  0  0  0  0
   -7.6169   -3.0648   -0.9683 C   0  0  0  0  0  0  0  0  0  0  0  0
   -8.2581   -3.9622   -0.1223 C   0  0  0  0  0  0  0  0  0  0  0  0
   -9.7240   -3.9719   -0.0605 C   0  0  0  0  0  0  0  0  0  0  0  0
  -10.4303   -3.1142    0.9467 C   0  0  0  0  0  0  0  0  0  0  0  0
  -11.7125   -3.0054    1.1213 N   0  0  0  0  0  0  0  0  0  0  0  0
  -12.4824   -3.7569    0.2823 C   0  0  0  0  0  0  0  0  0  0  0  0
  -13.8457   -3.9024    0.1877 C   0  0  0  0  0  0  0  0  0  0  0  0
  -14.0562   -4.8255   -0.8549 C   0  0  0  0  0  0  0  0  0  0  0  0
  -15.3537   -5.3403   -1.3560 C   0  0  0  0  0  0  0  0  0  0  0  0
  -12.9071   -5.2449   -1.3973 N   0  0  0  0  0  0  0  0  0  0  0  0
  -11.9325   -4.5701   -0.7125 N   0  0  0  0  0  0  0  0  0  0  0  0
  -10.5246   -4.6665   -0.9000 C   0  0  0  0  0  0  0  0  0  0  0  0
  -10.0760   -5.4857   -1.9368 N   0  0  0  0  0  0  0  0  0  0  0  0
   -7.4809   -4.8188    0.6711 C   0  0  0  0  0  0  0  0  0  0  0  0
   -6.0750   -4.7236    0.6686 C   0  0  0  0  0  0  0  0  0  0  0  0
    0.1920   -1.3549   -0.3402 C   0  0  0  0  0  0  0  0  0  0  0  0
    3.0121    0.6033   -0.6600 H   0  0  0  0  0  0  0  0  0  0  0  0
    2.9554   -1.1194   -1.0501 H   0  0  0  0  0  0  0  0  0  0  0  0
    2.7440   -0.5620    0.6396 H   0  0  0  0  0  0  0  0  0  0  0  0
    1.1244    1.7882   -1.3374 H   0  0  0  0  0  0  0  0  0  0  0  0
   -1.3078    1.9553   -1.6968 H   0  0  0  0  0  0  0  0  0  0  0  0
   -2.7500    0.1156   -1.2261 H   0  0  0  0  0  0  0  0  0  0  0  0
   -1.5718   -3.2263    0.0662 H   0  0  0  0  0  0  0  0  0  0  0  0
   -3.5285   -4.1803    0.6374 H   0  0  0  0  0  0  0  0  0  0  0  0
   -5.7798   -2.2777   -1.6730 H   0  0  0  0  0  0  0  0  0  0  0  0
   -8.1821   -2.3939   -1.6125 H   0  0  0  0  0  0  0  0  0  0  0  0
   -9.7697   -2.5132    1.5962 H   0  0  0  0  0  0  0  0  0  0  0  0
  -14.5827   -3.4064    0.8022 H   0  0  0  0  0  0  0  0  0  0  0  0
  -16.1920   -4.8775   -0.8245 H   0  0  0  0  0  0  0  0  0  0  0  0
  -15.4199   -6.4233   -1.2108 H   0  0  0  0  0  0  0  0  0  0  0  0
  -15.4701   -5.1234   -2.4225 H   0  0  0  0  0  0  0  0  0  0  0  0
  -10.7887   -6.1640   -2.2162 H   0  0  0  0  0  0  0  0  0  0  0  0
   -9.1508   -5.8791   -1.7953 H   0  0  0  0  0  0  0  0  0  0  0  0
   -7.9649   -5.5466    1.3183 H   0  0  0  0  0  0  0  0  0  0  0  0
   -5.5108   -5.3779    1.3279 H   0  0  0  0  0  0  0  0  0  0  0  0
    0.6321   -2.2729    0.0411 H   0  0  0  0  0  0  0  0  0  0  0  0
  1  2  1  0  0  0  0
  1 29  1  0  0  0  0
  1 30  1  0  0  0  0
  1 31  1  0  0  0  0
  2  3  1  0  0  0  0
  2 28  2  0  0  0  0
  3  4  2  0  0  0  0
  3 32  1  0  0  0  0
  4  5  1  0  0  0  0
  4 33  1  0  0  0  0
  5  6  2  0  0  0  0
  5 34  1  0  0  0  0
  6  7  1  0  0  0  0
  6 28  1  0  0  0  0
  7  8  1  0  0  0  0
  7 35  1  0  0  0  0
  8  9  2  0  0  0  0
  8 10  1  0  0  0  0
 10 11  1  0  0  0  0
 10 36  1  0  0  0  0
 11 12  1  0  0  0  0
 11 27  2  0  0  0  0
 12 13  2  0  0  0  0
 12 37  1  0  0  0  0
 13 14  1  0  0  0  0
 13 38  1  0  0  0  0
 14 15  1  0  0  0  0
 14 26  2  0  0  0  0
 15 16  1  0  0  0  0
 15 24  2  0  0  0  0
 16 17  2  0  0  0  0
 16 39  1  0  0  0  0
 17 18  1  0  0  0  0
 18 19  2  0  0  0  0
 18 23  1  0  0  0  0
 19 20  1  0  0  0  0
 19 40  1  0  0  0  0
 20 21  1  0  0  0  0
 20 22  2  0  0  0  0
 21 41  1  0  0  0  0
 21 42  1  0  0  0  0
 21 43  1  0  0  0  0
 22 23  1  0  0  0  0
 23 24  1  0  0  0  0
 24 25  1  0  0  0  0
 25 44  1  0  0  0  0
 25 45  1  0  0  0  0
 26 27  1  0  0  0  0
 26 46  1  0  0  0  0
 27 47  1  0  0  0  0
 28 48  1  0  0  0  0
M  END
$$$$
