CHEMBL3947408
 OpenBabel04072215373D

 61 64  0  0  1  0  0  0  0  0999 V2000
    3.0874   -1.2123   -0.3718 C   0  0  0  0  0  0  0  0  0  0  0  0
    2.5487   -0.0893    0.3123 O   0  0  0  0  0  0  0  0  0  0  0  0
    3.1621    1.1254    0.3227 C   0  0  0  0  0  0  0  0  0  0  0  0
    4.2435    1.4249   -0.4930 C   0  0  0  0  0  0  0  0  0  0  0  0
    4.8760    2.6831   -0.4590 C   0  0  0  0  0  0  0  0  0  0  0  0
    5.9811    2.9949   -1.2571 C   0  0  0  0  0  0  0  0  0  0  0  0
    6.4266    2.0294   -2.2052 N   0  0  0  0  0  0  0  0  0  0  0  0
    7.6872    2.0372   -2.8231 C   0  0  0  0  0  0  0  0  0  0  0  0
    8.8448    2.2349   -2.0604 C   0  0  0  0  0  0  0  0  0  0  0  0
   10.0961    2.3313   -2.6781 C   0  0  0  0  0  0  0  0  0  0  0  0
   10.1945    2.2233   -4.0634 C   0  0  0  0  0  0  0  0  0  0  0  0
   11.7534    2.4291   -4.7744 Cl  0  0  0  0  0  0  0  0  0  0  0  0
    9.0478    1.9770   -4.8300 C   0  0  0  0  0  0  0  0  0  0  0  0
    9.0955    1.8202   -6.5514 Cl  0  0  0  0  0  0  0  0  0  0  0  0
    7.7970    1.8673   -4.2073 C   0  0  0  0  0  0  0  0  0  0  0  0
    6.6168    4.1736   -1.1609 N   0  0  0  0  0  0  0  0  0  0  0  0
    6.1159    5.0512   -0.2849 C   0  0  0  0  0  0  0  0  0  0  0  0
    5.0456    4.8655    0.4979 N   0  0  0  0  0  0  0  0  0  0  0  0
    4.4370    3.6769    0.4125 C   0  0  0  0  0  0  0  0  0  0  0  0
    3.3278    3.3895    1.2015 C   0  0  0  0  0  0  0  0  0  0  0  0
    2.6819    2.1367    1.1713 C   0  0  0  0  0  0  0  0  0  0  0  0
    1.6105    2.0755    2.0299 O   0  0  0  0  0  0  0  0  0  0  0  0
    0.9198    0.8323    2.1389 C   0  0  0  0  0  0  0  0  0  0  0  0
   -0.1934    0.9046    3.1893 C   0  0  3  0  0  0  0  0  0  0  0  0
    0.4093    1.2476    4.5782 C   0  0  0  0  0  0  0  0  0  0  0  0
   -0.5652    1.6392    5.6235 N   0  0  0  0  0  0  0  0  0  0  0  0
   -1.5169    2.6932    5.1973 C   0  0  0  0  0  0  0  0  0  0  0  0
   -2.4730    3.1748    6.2993 C   0  0  0  0  0  0  0  0  0  0  0  0
   -0.7897    3.9431    4.6588 C   0  0  0  0  0  0  0  0  0  0  0  0
   -1.1383    0.4597    6.2819 C   0  0  0  0  0  0  0  0  0  0  0  0
   -1.4209   -0.7992    5.4508 C   0  0  0  0  0  0  0  0  0  0  0  0
   -1.9387   -0.5366    4.0490 C   0  0  0  0  0  0  0  0  0  0  0  0
   -0.8580   -0.3663    3.1405 O   0  0  0  0  0  0  0  0  0  0  0  0
    3.1651   -2.0364    0.3430 H   0  0  0  0  0  0  0  0  0  0  0  0
    4.0761   -1.0888   -0.8132 H   0  0  0  0  0  0  0  0  0  0  0  0
    2.3852   -1.5037   -1.1577 H   0  0  0  0  0  0  0  0  0  0  0  0
    4.6451    0.6862   -1.1724 H   0  0  0  0  0  0  0  0  0  0  0  0
    5.6674    1.8186   -2.8455 H   0  0  0  0  0  0  0  0  0  0  0  0
    8.7760    2.3274   -0.9812 H   0  0  0  0  0  0  0  0  0  0  0  0
   10.9725    2.5085   -2.0679 H   0  0  0  0  0  0  0  0  0  0  0  0
    6.9120    1.6905   -4.8102 H   0  0  0  0  0  0  0  0  0  0  0  0
    6.6269    6.0047   -0.2085 H   0  0  0  0  0  0  0  0  0  0  0  0
    2.9576    4.1599    1.8755 H   0  0  0  0  0  0  0  0  0  0  0  0
    1.6074    0.0323    2.4377 H   0  0  0  0  0  0  0  0  0  0  0  0
    0.4499    0.5862    1.1780 H   0  0  0  0  0  0  0  0  0  0  0  0
   -0.8905    1.6797    2.8532 H   0  0  0  0  0  0  0  0  0  0  0  0
    1.1380    2.0614    4.4899 H   0  0  0  0  0  0  0  0  0  0  0  0
    1.0050    0.3961    4.9362 H   0  0  0  0  0  0  0  0  0  0  0  0
   -2.1577    2.3166    4.3958 H   0  0  0  0  0  0  0  0  0  0  0  0
   -1.9286    3.5867    7.1546 H   0  0  0  0  0  0  0  0  0  0  0  0
   -3.1389    2.3834    6.6520 H   0  0  0  0  0  0  0  0  0  0  0  0
   -3.1281    3.9616    5.9057 H   0  0  0  0  0  0  0  0  0  0  0  0
   -0.2214    4.4448    5.4495 H   0  0  0  0  0  0  0  0  0  0  0  0
   -1.5157    4.6585    4.2563 H   0  0  0  0  0  0  0  0  0  0  0  0
   -0.1020    3.7213    3.8380 H   0  0  0  0  0  0  0  0  0  0  0  0
   -2.0335    0.7029    6.8584 H   0  0  0  0  0  0  0  0  0  0  0  0
   -0.4179    0.1580    7.0560 H   0  0  0  0  0  0  0  0  0  0  0  0
   -2.1582   -1.3993    5.9976 H   0  0  0  0  0  0  0  0  0  0  0  0
   -0.5070   -1.4048    5.3903 H   0  0  0  0  0  0  0  0  0  0  0  0
   -2.6556    0.2863    3.9880 H   0  0  0  0  0  0  0  0  0  0  0  0
   -2.4702   -1.4319    3.7080 H   0  0  0  0  0  0  0  0  0  0  0  0
  1  2  1  0  0  0  0
  1 34  1  0  0  0  0
  1 35  1  0  0  0  0
  1 36  1  0  0  0  0
  2  3  1  0  0  0  0
  3  4  1  0  0  0  0
  3 21  2  0  0  0  0
  4  5  2  0  0  0  0
  4 37  1  0  0  0  0
  5  6  1  0  0  0  0
  5 19  1  0  0  0  0
  6  7  1  0  0  0  0
  6 16  2  0  0  0  0
  7  8  1  0  0  0  0
  7 38  1  0  0  0  0
  8  9  1  0  0  0  0
  8 15  2  0  0  0  0
  9 10  2  0  0  0  0
  9 39  1  0  0  0  0
 10 11  1  0  0  0  0
 10 40  1  0  0  0  0
 11 12  1  0  0  0  0
 11 13  2  0  0  0  0
 13 14  1  0  0  0  0
 13 15  1  0  0  0  0
 15 41  1  0  0  0  0
 16 17  1  0  0  0  0
 17 18  2  0  0  0  0
 17 42  1  0  0  0  0
 18 19  1  0  0  0  0
 19 20  2  0  0  0  0
 20 21  1  0  0  0  0
 20 43  1  0  0  0  0
 21 22  1  0  0  0  0
 22 23  1  0  0  0  0
 23 24  1  0  0  0  0
 23 44  1  0  0  0  0
 23 45  1  0  0  0  0
 24 25  1  0  0  0  0
 24 33  1  0  0  0  0
 24 46  1  0  0  0  0
 25 26  1  0  0  0  0
 25 47  1  0  0  0  0
 25 48  1  0  0  0  0
 26 27  1  0  0  0  0
 26 30  1  0  0  0  0
 27 28  1  0  0  0  0
 27 29  1  0  0  0  0
 27 49  1  0  0  0  0
 28 50  1  0  0  0  0
 28 51  1  0  0  0  0
 28 52  1  0  0  0  0
 29 53  1  0  0  0  0
 29 54  1  0  0  0  0
 29 55  1  0  0  0  0
 30 31  1  0  0  0  0
 30 56  1  0  0  0  0
 30 57  1  0  0  0  0
 31 32  1  0  0  0  0
 31 58  1  0  0  0  0
 31 59  1  0  0  0  0
 32 33  1  0  0  0  0
 32 60  1  0  0  0  0
 32 61  1  0  0  0  0
M  END
$$$$
