CHEMBL3965614
 OpenBabel04072215373D

 65 68  0  0  0  0  0  0  0  0999 V2000
    4.3247   -0.7580   -1.1718 C   0  0  0  0  0  0  0  0  0  0  0  0
    3.5824   -0.8736   -0.0153 O   0  0  0  0  0  0  0  0  0  0  0  0
    3.7501   -0.1057    1.0898 C   0  0  0  0  0  0  0  0  0  0  0  0
    2.8766   -0.2840    2.1589 C   0  0  0  0  0  0  0  0  0  0  0  0
    2.9885    0.5144    3.2872 C   0  0  0  0  0  0  0  0  0  0  0  0
    1.8822    0.2814    4.6340 Cl  0  0  0  0  0  0  0  0  0  0  0  0
    3.9669    1.5086    3.3530 C   0  0  0  0  0  0  0  0  0  0  0  0
    4.9039    1.7204    2.2979 C   0  0  0  0  0  0  0  0  0  0  0  0
    5.9874    2.7177    2.2935 N   0  0  0  0  0  0  0  0  0  0  0  0
    6.7729    3.1318    3.4827 C   0  0  0  0  0  0  0  0  0  0  0  0
    6.3022    2.5620    4.8025 C   0  0  0  0  0  0  0  0  0  0  0  0
    7.1739    2.8207    6.0208 C   0  0  0  0  0  0  0  0  0  0  0  0
    6.5608    2.1105    7.1734 N   0  0  0  0  0  0  0  0  0  0  0  0
    7.2243    2.4632    8.4320 C   0  0  0  0  0  0  0  0  0  0  0  0
    8.3596    1.4682    8.5615 C   0  0  0  0  0  0  0  0  0  0  0  0
    7.6289    0.1944    8.2137 C   0  0  0  0  0  0  0  0  0  0  0  0
    6.7441    0.6358    7.0578 C   0  0  0  0  0  0  0  0  0  0  0  0
    6.3976    3.3136    1.0316 C   0  0  0  0  0  0  0  0  0  0  0  0
    5.4596    3.5027   -0.0147 C   0  0  0  0  0  0  0  0  0  0  0  0
    5.8184    4.1173   -1.2161 C   0  0  0  0  0  0  0  0  0  0  0  0
    7.1229    4.5667   -1.3987 C   0  0  0  0  0  0  0  0  0  0  0  0
    7.4796    5.1980   -2.5501 N   0  0  0  0  0  0  0  0  0  0  0  0
    8.7410    5.6670   -2.7336 C   0  0  0  0  0  0  0  0  0  0  0  0
    9.7059    5.4827   -1.7285 C   0  0  0  0  0  0  0  0  0  0  0  0
   11.0878    5.9837   -1.8733 C   0  0  0  0  0  0  0  0  0  0  0  0
   12.1321    5.7932   -0.9844 C   0  0  0  0  0  0  0  0  0  0  0  0
   13.2306    6.4157   -1.4565 N   0  0  0  0  0  0  0  0  0  0  0  0
   12.9064    6.9884   -2.6062 N   0  0  0  0  0  0  0  0  0  0  0  0
   13.8256    7.7769   -3.4156 C   0  0  0  0  0  0  0  0  0  0  0  0
   11.6157    6.7467   -2.8973 C   0  0  0  0  0  0  0  0  0  0  0  0
    9.3454    4.8416   -0.5816 N   0  0  0  0  0  0  0  0  0  0  0  0
    8.0782    4.3895   -0.3880 C   0  0  0  0  0  0  0  0  0  0  0  0
    7.7222    3.7730    0.8145 C   0  0  0  0  0  0  0  0  0  0  0  0
    4.7619    0.8720    1.1767 C   0  0  0  0  0  0  0  0  0  0  0  0
   -0.8557   -1.8707   -0.0400 Cl  0  0  0  0  0  0  0  0  0  0  0  0
    3.9216   -1.4487   -1.9370 H   0  0  0  0  0  0  0  0  0  0  0  0
    5.3853   -1.0155   -0.9673 H   0  0  0  0  0  0  0  0  0  0  0  0
    4.2563    0.2811   -1.5650 H   0  0  0  0  0  0  0  0  0  0  0  0
    2.1012   -1.0383    2.1105 H   0  0  0  0  0  0  0  0  0  0  0  0
    3.9079    2.0779    4.2432 H   0  0  0  0  0  0  0  0  0  0  0  0
    6.7723    4.2415    3.5644 H   0  0  0  0  0  0  0  0  0  0  0  0
    7.8203    2.7841    3.3567 H   0  0  0  0  0  0  0  0  0  0  0  0
    6.2201    1.4704    4.6431 H   0  0  0  0  0  0  0  0  0  0  0  0
    5.3663    3.0672    5.0743 H   0  0  0  0  0  0  0  0  0  0  0  0
    7.1896    3.9200    6.2037 H   0  0  0  0  0  0  0  0  0  0  0  0
    8.2188    2.4841    5.8416 H   0  0  0  0  0  0  0  0  0  0  0  0
    6.4917    2.2926    9.2568 H   0  0  0  0  0  0  0  0  0  0  0  0
    7.5392    3.5271    8.4902 H   0  0  0  0  0  0  0  0  0  0  0  0
    8.8435    1.4513    9.5585 H   0  0  0  0  0  0  0  0  0  0  0  0
    9.1228    1.6942    7.7854 H   0  0  0  0  0  0  0  0  0  0  0  0
    6.9751   -0.0632    9.0749 H   0  0  0  0  0  0  0  0  0  0  0  0
    8.2757   -0.6777    7.9749 H   0  0  0  0  0  0  0  0  0  0  0  0
    5.7681    0.1000    7.0744 H   0  0  0  0  0  0  0  0  0  0  0  0
    7.2711    0.3526    6.1214 H   0  0  0  0  0  0  0  0  0  0  0  0
    4.4303    3.2001    0.1026 H   0  0  0  0  0  0  0  0  0  0  0  0
    5.0748    4.2604   -1.9887 H   0  0  0  0  0  0  0  0  0  0  0  0
    8.9812    6.1759   -3.6563 H   0  0  0  0  0  0  0  0  0  0  0  0
   12.0977    5.2372   -0.0565 H   0  0  0  0  0  0  0  0  0  0  0  0
   14.8272    7.8167   -2.9362 H   0  0  0  0  0  0  0  0  0  0  0  0
   13.4355    8.8116   -3.5171 H   0  0  0  0  0  0  0  0  0  0  0  0
   13.9227    7.3225   -4.4234 H   0  0  0  0  0  0  0  0  0  0  0  0
   11.1056    7.1131   -3.7783 H   0  0  0  0  0  0  0  0  0  0  0  0
    8.5006    3.6660    1.5548 H   0  0  0  0  0  0  0  0  0  0  0  0
    5.4546    0.9713    0.3571 H   0  0  0  0  0  0  0  0  0  0  0  0
    0.5034   -2.0464    0.0762 H   0  0  0  0  0  0  0  0  0  0  0  0
  1  2  1  0  0  0  0
  1 36  1  0  0  0  0
  1 37  1  0  0  0  0
  1 38  1  0  0  0  0
  2  3  1  0  0  0  0
  3  4  1  0  0  0  0
  3 34  2  0  0  0  0
  4  5  2  0  0  0  0
  4 39  1  0  0  0  0
  5  6  1  0  0  0  0
  5  7  1  0  0  0  0
  7  8  2  0  0  0  0
  7 40  1  0  0  0  0
  8  9  1  0  0  0  0
  8 34  1  0  0  0  0
  9 10  1  0  0  0  0
  9 18  1  0  0  0  0
 10 11  1  0  0  0  0
 10 41  1  0  0  0  0
 10 42  1  0  0  0  0
 11 12  1  0  0  0  0
 11 43  1  0  0  0  0
 11 44  1  0  0  0  0
 12 13  1  0  0  0  0
 12 45  1  0  0  0  0
 12 46  1  0  0  0  0
 13 14  1  0  0  0  0
 13 17  1  0  0  0  0
 14 15  1  0  0  0  0
 14 47  1  0  0  0  0
 14 48  1  0  0  0  0
 15 16  1  0  0  0  0
 15 49  1  0  0  0  0
 15 50  1  0  0  0  0
 16 17  1  0  0  0  0
 16 51  1  0  0  0  0
 16 52  1  0  0  0  0
 17 53  1  0  0  0  0
 17 54  1  0  0  0  0
 18 19  1  0  0  0  0
 18 33  2  0  0  0  0
 19 20  2  0  0  0  0
 19 55  1  0  0  0  0
 20 21  1  0  0  0  0
 20 56  1  0  0  0  0
 21 22  1  0  0  0  0
 21 32  2  0  0  0  0
 22 23  2  0  0  0  0
 23 24  1  0  0  0  0
 23 57  1  0  0  0  0
 24 25  1  0  0  0  0
 24 31  2  0  0  0  0
 25 26  1  0  0  0  0
 25 30  2  0  0  0  0
 26 27  2  0  0  0  0
 26 58  1  0  0  0  0
 27 28  1  0  0  0  0
 28 29  1  0  0  0  0
 28 30  1  0  0  0  0
 29 59  1  0  0  0  0
 29 60  1  0  0  0  0
 29 61  1  0  0  0  0
 30 62  1  0  0  0  0
 31 32  1  0  0  0  0
 32 33  1  0  0  0  0
 33 63  1  0  0  0  0
 34 64  1  0  0  0  0
 35 65  1  0  0  0  0
M  END
$$$$
