CHEMBL1681951
 OpenBabel04072215363D

 46 48  0  0  0  0  0  0  0  0999 V2000
    9.0640   -7.5703   -2.1273 C   0  0  0  0  0  0  0  0  0  0  0  0
    8.5003   -6.6853   -1.1603 O   0  0  0  0  0  0  0  0  0  0  0  0
    7.4452   -6.0028   -1.7736 N   0  0  0  0  0  0  0  0  0  0  0  0
    6.8701   -5.2006   -0.9310 C   0  0  0  0  0  0  0  0  0  0  0  0
    5.7277   -4.3772   -1.3567 C   0  0  0  0  0  0  0  0  0  0  0  0
    4.9144   -4.7556   -2.4219 C   0  0  0  0  0  0  0  0  0  0  0  0
    5.0214   -5.9965   -3.0486 N   0  0  0  0  0  0  0  0  0  0  0  0
    3.8825   -4.0114   -2.8525 N   0  0  0  0  0  0  0  0  0  0  0  0
    3.6786   -2.8520   -2.2230 C   0  0  0  0  0  0  0  0  0  0  0  0
    4.4090   -2.3788   -1.2117 N   0  0  0  0  0  0  0  0  0  0  0  0
    5.4105   -3.1725   -0.7615 C   0  0  0  0  0  0  0  0  0  0  0  0
    6.1454   -2.7194    0.3417 O   0  0  0  0  0  0  0  0  0  0  0  0
    5.5085   -1.7958    1.1524 C   0  0  0  0  0  0  0  0  0  0  0  0
    4.2115   -2.0151    1.6043 C   0  0  0  0  0  0  0  0  0  0  0  0
    3.5220   -1.0028    2.2803 C   0  0  0  0  0  0  0  0  0  0  0  0
    4.1175    0.2272    2.5602 C   0  0  0  0  0  0  0  0  0  0  0  0
    3.3758    1.3109    3.1119 N   0  0  0  0  0  0  0  0  0  0  0  0
    1.9907    1.3969    3.1029 C   0  0  0  0  0  0  0  0  0  0  0  0
    1.2397    0.5285    2.6704 O   0  0  0  0  0  0  0  0  0  0  0  0
    1.5203    2.6125    3.5761 N   0  0  0  0  0  0  0  0  0  0  0  0
    0.1242    2.8676    3.5952 C   0  0  0  0  0  0  0  0  0  0  0  0
   -0.3454    4.0756    3.0704 C   0  0  0  0  0  0  0  0  0  0  0  0
   -1.7211    4.3155    2.9811 C   0  0  0  0  0  0  0  0  0  0  0  0
   -2.6278    3.3724    3.4630 C   0  0  0  0  0  0  0  0  0  0  0  0
   -2.1536    2.1911    4.0207 C   0  0  0  0  0  0  0  0  0  0  0  0
   -3.0267    1.2911    4.4930 F   0  0  0  0  0  0  0  0  0  0  0  0
   -0.7896    1.9273    4.0849 C   0  0  0  0  0  0  0  0  0  0  0  0
    5.4821    0.3760    2.2381 C   0  0  0  0  0  0  0  0  0  0  0  0
    6.3316    1.8312    2.6379 Cl  0  0  0  0  0  0  0  0  0  0  0  0
    6.1766   -0.6294    1.5338 C   0  0  0  0  0  0  0  0  0  0  0  0
   10.0042   -7.9668   -1.7362 H   0  0  0  0  0  0  0  0  0  0  0  0
    9.2702   -7.0382   -3.0624 H   0  0  0  0  0  0  0  0  0  0  0  0
    8.3788   -8.4022   -2.3193 H   0  0  0  0  0  0  0  0  0  0  0  0
    7.2274   -5.1040    0.1092 H   0  0  0  0  0  0  0  0  0  0  0  0
    5.9958   -6.2529   -3.2109 H   0  0  0  0  0  0  0  0  0  0  0  0
    4.4345   -6.0153   -3.8755 H   0  0  0  0  0  0  0  0  0  0  0  0
    2.8377   -2.2510   -2.5513 H   0  0  0  0  0  0  0  0  0  0  0  0
    3.6746   -2.9245    1.3625 H   0  0  0  0  0  0  0  0  0  0  0  0
    2.4939   -1.2191    2.5516 H   0  0  0  0  0  0  0  0  0  0  0  0
    3.9073    2.1320    3.3714 H   0  0  0  0  0  0  0  0  0  0  0  0
    2.1145    3.4038    3.3780 H   0  0  0  0  0  0  0  0  0  0  0  0
    0.3435    4.8077    2.6589 H   0  0  0  0  0  0  0  0  0  0  0  0
   -2.0851    5.2278    2.5156 H   0  0  0  0  0  0  0  0  0  0  0  0
   -3.6977    3.5433    3.3995 H   0  0  0  0  0  0  0  0  0  0  0  0
   -0.4596    0.9824    4.5074 H   0  0  0  0  0  0  0  0  0  0  0  0
    7.2122   -0.4797    1.2420 H   0  0  0  0  0  0  0  0  0  0  0  0
  1  2  1  0  0  0  0
  1 31  1  0  0  0  0
  1 32  1  0  0  0  0
  1 33  1  0  0  0  0
  2  3  1  0  0  0  0
  3  4  2  0  0  0  0
  4  5  1  0  0  0  0
  4 34  1  0  0  0  0
  5  6  1  0  0  0  0
  5 11  2  0  0  0  0
  6  7  1  0  0  0  0
  6  8  2  0  0  0  0
  7 35  1  0  0  0  0
  7 36  1  0  0  0  0
  8  9  1  0  0  0  0
  9 10  2  0  0  0  0
  9 37  1  0  0  0  0
 10 11  1  0  0  0  0
 11 12  1  0  0  0  0
 12 13  1  0  0  0  0
 13 14  1  0  0  0  0
 13 30  2  0  0  0  0
 14 15  2  0  0  0  0
 14 38  1  0  0  0  0
 15 16  1  0  0  0  0
 15 39  1  0  0  0  0
 16 17  1  0  0  0  0
 16 28  2  0  0  0  0
 17 18  1  0  0  0  0
 17 40  1  0  0  0  0
 18 19  2  0  0  0  0
 18 20  1  0  0  0  0
 20 21  1  0  0  0  0
 20 41  1  0  0  0  0
 21 22  1  0  0  0  0
 21 27  2  0  0  0  0
 22 23  2  0  0  0  0
 22 42  1  0  0  0  0
 23 24  1  0  0  0  0
 23 43  1  0  0  0  0
 24 25  2  0  0  0  0
 24 44  1  0  0  0  0
 25 26  1  0  0  0  0
 25 27  1  0  0  0  0
 27 45  1  0  0  0  0
 28 29  1  0  0  0  0
 28 30  1  0  0  0  0
 30 46  1  0  0  0  0
M  END
$$$$
