CHEMBL3676387
 OpenBabel04072215373D

 65 68  0  0  0  0  0  0  0  0999 V2000
    2.4875    2.3807    0.4002 C   0  0  0  0  0  0  0  0  0  0  0  0
    3.1333    1.2226    0.2100 C   0  0  0  0  0  0  0  0  0  0  0  0
    4.0308    0.6921    1.2675 C   0  0  0  0  0  0  0  0  0  0  0  0
    4.2471    1.3088    2.3032 O   0  0  0  0  0  0  0  0  0  0  0  0
    4.5005   -0.5745    0.9702 N   0  0  0  0  0  0  0  0  0  0  0  0
    5.2128   -1.3315    1.9235 C   0  0  0  0  0  0  0  0  0  0  0  0
    6.3651   -0.7247    2.4275 C   0  0  0  0  0  0  0  0  0  0  0  0
    7.1443   -1.3341    3.4225 C   0  0  0  0  0  0  0  0  0  0  0  0
    8.2673   -0.7381    3.9994 C   0  0  0  0  0  0  0  0  0  0  0  0
    8.6752    0.5557    3.5695 N   0  0  0  0  0  0  0  0  0  0  0  0
    9.4713    1.4196    4.3466 C   0  0  0  0  0  0  0  0  0  0  0  0
    9.2444    1.5609    5.7236 C   0  0  0  0  0  0  0  0  0  0  0  0
   10.0911    2.3369    6.5126 C   0  0  0  0  0  0  0  0  0  0  0  0
   11.1622    3.0014    5.9193 C   0  0  0  0  0  0  0  0  0  0  0  0
   12.3658    3.9746    7.0035 Br  0  0  0  0  0  0  0  0  0  0  0  0
   11.3640    2.9357    4.5430 C   0  0  0  0  0  0  0  0  0  0  0  0
   10.5106    2.1562    3.7688 C   0  0  0  0  0  0  0  0  0  0  0  0
   10.7157    2.0838    2.4440 F   0  0  0  0  0  0  0  0  0  0  0  0
    8.9636   -1.3456    4.9810 N   0  0  0  0  0  0  0  0  0  0  0  0
    8.5172   -2.5365    5.3876 C   0  0  0  0  0  0  0  0  0  0  0  0
    7.4514   -3.1851    4.9079 N   0  0  0  0  0  0  0  0  0  0  0  0
    6.7692   -2.5811    3.9297 C   0  0  0  0  0  0  0  0  0  0  0  0
    5.6343   -3.1899    3.4029 C   0  0  0  0  0  0  0  0  0  0  0  0
    4.8508   -2.6050    2.3904 C   0  0  0  0  0  0  0  0  0  0  0  0
    3.7611   -3.3865    2.0677 O   0  0  0  0  0  0  0  0  0  0  0  0
    2.9208   -2.9374    1.0193 C   0  0  0  0  0  0  0  0  0  0  0  0
    1.8570   -3.9673    0.6184 C   0  0  0  0  0  0  0  0  0  0  0  0
    1.0866   -3.4308   -0.6078 C   0  0  0  0  0  0  0  0  0  0  0  0
    0.0983   -2.3269   -0.2311 C   0  0  0  0  0  0  0  0  0  0  0  0
   -0.7930   -2.8045    0.8171 N   0  0  0  0  0  0  0  0  0  0  0  0
   -2.1455   -2.8682    0.5417 C   0  0  0  0  0  0  0  0  0  0  0  0
   -2.6275   -2.4705   -0.5172 O   0  0  0  0  0  0  0  0  0  0  0  0
   -2.9313   -3.4018    1.5302 N   0  0  0  0  0  0  0  0  0  0  0  0
   -4.3549   -3.5378    1.2968 C   0  0  0  0  0  0  0  0  0  0  0  0
   -5.0731   -4.0713    2.5221 C   0  0  0  0  0  0  0  0  0  0  0  0
   -0.1162   -3.2112    2.0511 C   0  0  0  0  0  0  0  0  0  0  0  0
    0.8813   -4.3302    1.7526 C   0  0  0  0  0  0  0  0  0  0  0  0
    1.8231    2.7829   -0.3587 H   0  0  0  0  0  0  0  0  0  0  0  0
    2.6046    2.9538    1.3171 H   0  0  0  0  0  0  0  0  0  0  0  0
    3.0036    0.6617   -0.7051 H   0  0  0  0  0  0  0  0  0  0  0  0
    4.1226   -1.0384    0.1649 H   0  0  0  0  0  0  0  0  0  0  0  0
    6.6571    0.2513    2.0440 H   0  0  0  0  0  0  0  0  0  0  0  0
    8.9382    0.5504    2.5898 H   0  0  0  0  0  0  0  0  0  0  0  0
    8.4128    1.0380    6.1911 H   0  0  0  0  0  0  0  0  0  0  0  0
    9.9141    2.3939    7.5824 H   0  0  0  0  0  0  0  0  0  0  0  0
   12.1811    3.4642    4.0657 H   0  0  0  0  0  0  0  0  0  0  0  0
    9.0679   -3.0142    6.1893 H   0  0  0  0  0  0  0  0  0  0  0  0
    5.3248   -4.1428    3.8280 H   0  0  0  0  0  0  0  0  0  0  0  0
    3.5383   -2.8007    0.1259 H   0  0  0  0  0  0  0  0  0  0  0  0
    2.4407   -2.0024    1.3208 H   0  0  0  0  0  0  0  0  0  0  0  0
    2.3845   -4.8866    0.3309 H   0  0  0  0  0  0  0  0  0  0  0  0
    0.5373   -4.2592   -1.0709 H   0  0  0  0  0  0  0  0  0  0  0  0
    1.7841   -3.0516   -1.3653 H   0  0  0  0  0  0  0  0  0  0  0  0
   -0.4502   -2.0093   -1.1235 H   0  0  0  0  0  0  0  0  0  0  0  0
    0.6155   -1.4379    0.1474 H   0  0  0  0  0  0  0  0  0  0  0  0
   -2.5022   -4.1455    2.0550 H   0  0  0  0  0  0  0  0  0  0  0  0
   -4.4994   -4.2137    0.4457 H   0  0  0  0  0  0  0  0  0  0  0  0
   -4.7568   -2.5558    1.0172 H   0  0  0  0  0  0  0  0  0  0  0  0
   -4.7121   -5.0704    2.7771 H   0  0  0  0  0  0  0  0  0  0  0  0
   -6.1501   -4.1323    2.3340 H   0  0  0  0  0  0  0  0  0  0  0  0
   -4.9078   -3.4229    3.3862 H   0  0  0  0  0  0  0  0  0  0  0  0
   -0.8193   -3.5339    2.8220 H   0  0  0  0  0  0  0  0  0  0  0  0
    0.3994   -2.3289    2.4517 H   0  0  0  0  0  0  0  0  0  0  0  0
    0.3175   -5.2199    1.4413 H   0  0  0  0  0  0  0  0  0  0  0  0
    1.4267   -4.6057    2.6622 H   0  0  0  0  0  0  0  0  0  0  0  0
  1  2  2  0  0  0  0
  1 38  1  0  0  0  0
  1 39  1  0  0  0  0
  2  3  1  0  0  0  0
  2 40  1  0  0  0  0
  3  4  2  0  0  0  0
  3  5  1  0  0  0  0
  5  6  1  0  0  0  0
  5 41  1  0  0  0  0
  6  7  1  0  0  0  0
  6 24  2  0  0  0  0
  7  8  2  0  0  0  0
  7 42  1  0  0  0  0
  8  9  1  0  0  0  0
  8 22  1  0  0  0  0
  9 10  1  0  0  0  0
  9 19  2  0  0  0  0
 10 11  1  0  0  0  0
 10 43  1  0  0  0  0
 11 12  1  0  0  0  0
 11 17  2  0  0  0  0
 12 13  2  0  0  0  0
 12 44  1  0  0  0  0
 13 14  1  0  0  0  0
 13 45  1  0  0  0  0
 14 15  1  0  0  0  0
 14 16  2  0  0  0  0
 16 17  1  0  0  0  0
 16 46  1  0  0  0  0
 17 18  1  0  0  0  0
 19 20  1  0  0  0  0
 20 21  2  0  0  0  0
 20 47  1  0  0  0  0
 21 22  1  0  0  0  0
 22 23  2  0  0  0  0
 23 24  1  0  0  0  0
 23 48  1  0  0  0  0
 24 25  1  0  0  0  0
 25 26  1  0  0  0  0
 26 27  1  0  0  0  0
 26 49  1  0  0  0  0
 26 50  1  0  0  0  0
 27 28  1  0  0  0  0
 27 37  1  0  0  0  0
 27 51  1  0  0  0  0
 28 29  1  0  0  0  0
 28 52  1  0  0  0  0
 28 53  1  0  0  0  0
 29 30  1  0  0  0  0
 29 54  1  0  0  0  0
 29 55  1  0  0  0  0
 30 31  1  0  0  0  0
 30 36  1  0  0  0  0
 31 32  2  0  0  0  0
 31 33  1  0  0  0  0
 33 34  1  0  0  0  0
 33 56  1  0  0  0  0
 34 35  1  0  0  0  0
 34 57  1  0  0  0  0
 34 58  1  0  0  0  0
 35 59  1  0  0  0  0
 35 60  1  0  0  0  0
 35 61  1  0  0  0  0
 36 37  1  0  0  0  0
 36 62  1  0  0  0  0
 36 63  1  0  0  0  0
 37 64  1  0  0  0  0
 37 65  1  0  0  0  0
M  END
$$$$
