CHEMBL3921710
 OpenBabel04072215373D

 39 41  0  0  0  0  0  0  0  0999 V2000
    1.7943    0.0859    3.8859 C   0  0  0  0  0  0  0  0  0  0  0  0
    2.5127    0.8777    2.8038 C   0  0  0  0  0  0  0  0  0  0  0  0
    3.7719    0.1477    2.3310 C   0  0  0  0  0  0  0  0  0  0  0  0
    4.5572    0.9249    1.2592 C   0  0  0  0  0  0  0  0  0  0  0  0
    4.9435    2.2647    1.6953 N   0  0  0  0  0  0  0  0  0  0  0  0
    5.8473    2.3633    2.7401 C   0  0  0  0  0  0  0  0  0  0  0  0
    6.4393    1.4193    3.2564 O   0  0  0  0  0  0  0  0  0  0  0  0
    6.0666    3.7793    3.1918 C   0  0  0  0  0  0  0  0  0  0  0  0
    4.8851    4.7762    2.2813 S   0  0  0  0  0  0  0  0  0  0  0  0
    4.4523    3.4525    1.2164 C   0  0  0  0  0  0  0  0  0  0  0  0
    3.7980    3.7692    0.1436 N   0  0  0  0  0  0  0  0  0  0  0  0
    3.6181    2.8374   -0.8234 N   0  0  0  0  0  0  0  0  0  0  0  0
    3.6534    3.2348   -2.1865 C   0  0  0  0  0  0  0  0  0  0  0  0
    2.8131    2.5277   -2.9880 N   0  0  0  0  0  0  0  0  0  0  0  0
    2.7763    2.7373   -4.3321 N   0  0  0  0  0  0  0  0  0  0  0  0
    3.5926    3.6613   -4.8705 C   0  0  0  0  0  0  0  0  0  0  0  0
    4.4804    4.4220   -4.1226 C   0  0  0  0  0  0  0  0  0  0  0  0
    5.3082    5.3801   -4.7392 C   0  0  0  0  0  0  0  0  0  0  0  0
    6.1983    6.1446   -3.9881 C   0  0  0  0  0  0  0  0  0  0  0  0
    6.2795    5.9506   -2.6186 C   0  0  0  0  0  0  0  0  0  0  0  0
    5.4695    4.9920   -2.0037 C   0  0  0  0  0  0  0  0  0  0  0  0
    4.5344    4.2075   -2.7296 C   0  0  0  0  0  0  0  0  0  0  0  0
    0.8890    0.6131    4.2050 H   0  0  0  0  0  0  0  0  0  0  0  0
    2.4355   -0.0450    4.7637 H   0  0  0  0  0  0  0  0  0  0  0  0
    1.5026   -0.9043    3.5225 H   0  0  0  0  0  0  0  0  0  0  0  0
    2.7701    1.8619    3.2093 H   0  0  0  0  0  0  0  0  0  0  0  0
    1.8362    1.0370    1.9550 H   0  0  0  0  0  0  0  0  0  0  0  0
    3.4940   -0.8292    1.9169 H   0  0  0  0  0  0  0  0  0  0  0  0
    4.4132   -0.0575    3.1950 H   0  0  0  0  0  0  0  0  0  0  0  0
    3.9507    0.9416    0.3580 H   0  0  0  0  0  0  0  0  0  0  0  0
    5.4723    0.3713    1.0187 H   0  0  0  0  0  0  0  0  0  0  0  0
    7.0911    4.0801    2.9580 H   0  0  0  0  0  0  0  0  0  0  0  0
    5.8784    3.8593    4.2650 H   0  0  0  0  0  0  0  0  0  0  0  0
    2.7534    2.2920   -0.7585 H   0  0  0  0  0  0  0  0  0  0  0  0
    3.5054    3.7692   -5.9464 H   0  0  0  0  0  0  0  0  0  0  0  0
    5.2618    5.5414   -5.8142 H   0  0  0  0  0  0  0  0  0  0  0  0
    6.8250    6.8897   -4.4713 H   0  0  0  0  0  0  0  0  0  0  0  0
    6.9625    6.5450   -2.0176 H   0  0  0  0  0  0  0  0  0  0  0  0
    5.5729    4.8783   -0.9308 H   0  0  0  0  0  0  0  0  0  0  0  0
  1  2  1  0  0  0  0
  1 23  1  0  0  0  0
  1 24  1  0  0  0  0
  1 25  1  0  0  0  0
  2  3  1  0  0  0  0
  2 26  1  0  0  0  0
  2 27  1  0  0  0  0
  3  4  1  0  0  0  0
  3 28  1  0  0  0  0
  3 29  1  0  0  0  0
  4  5  1  0  0  0  0
  4 30  1  0  0  0  0
  4 31  1  0  0  0  0
  5  6  1  0  0  0  0
  5 10  1  0  0  0  0
  6  7  2  0  0  0  0
  6  8  1  0  0  0  0
  8  9  1  0  0  0  0
  8 32  1  0  0  0  0
  8 33  1  0  0  0  0
  9 10  1  0  0  0  0
 10 11  2  0  0  0  0
 11 12  1  0  0  0  0
 12 13  1  0  0  0  0
 12 34  1  0  0  0  0
 13 14  1  0  0  0  0
 13 22  2  0  0  0  0
 14 15  2  0  0  0  0
 15 16  1  0  0  0  0
 16 17  2  0  0  0  0
 16 35  1  0  0  0  0
 17 18  1  0  0  0  0
 17 22  1  0  0  0  0
 18 19  2  0  0  0  0
 18 36  1  0  0  0  0
 19 20  1  0  0  0  0
 19 37  1  0  0  0  0
 20 21  2  0  0  0  0
 20 38  1  0  0  0  0
 21 22  1  0  0  0  0
 21 39  1  0  0  0  0
M  END
$$$$
