CHEMBL3696078
 OpenBabel04072215373D

 60 62  0  0  0  0  0  0  0  0999 V2000
   11.6422   -2.5552   -1.9330 C   0  0  0  0  0  0  0  0  0  0  0  0
   10.9381   -2.0996   -0.7886 O   0  0  0  0  0  0  0  0  0  0  0  0
    9.5458   -2.3971   -0.8543 C   0  0  0  0  0  0  0  0  0  0  0  0
    8.8625   -1.8663    0.4015 C   0  0  0  0  0  0  0  0  0  0  0  0
    9.0044   -0.3495    0.5248 C   0  0  0  0  0  0  0  0  0  0  0  0
    8.4121    0.1482    1.7584 N   0  0  0  0  0  0  0  0  0  0  0  0
    9.1903    0.1996    2.8933 C   0  0  0  0  0  0  0  0  0  0  0  0
   10.3518   -0.2057    2.9283 O   0  0  0  0  0  0  0  0  0  0  0  0
    8.4954    0.7084    3.9757 N   0  0  0  0  0  0  0  0  0  0  0  0
    9.1963    0.8252    5.1684 C   0  0  0  0  0  0  0  0  0  0  0  0
   10.5366    1.8625    5.2489 S   0  0  0  0  0  0  0  0  0  0  0  0
   10.8643    1.5900    6.8417 N   0  0  0  0  0  0  0  0  0  0  0  0
    9.9782    0.7221    7.3485 C   0  0  0  0  0  0  0  0  0  0  0  0
   10.0826    0.4145    8.7850 C   0  0  0  0  0  0  0  0  0  0  0  0
    8.9335    0.2054    9.5422 C   0  0  0  0  0  0  0  0  0  0  0  0
    9.0169   -0.0971   10.8993 C   0  0  0  0  0  0  0  0  0  0  0  0
   10.2424   -0.1323   11.5678 C   0  0  0  0  0  0  0  0  0  0  0  0
   10.3407   -0.3410   12.9659 N   0  0  0  0  0  0  0  0  0  0  0  0
    9.2793   -0.6336   13.8029 C   0  0  0  0  0  0  0  0  0  0  0  0
    8.1331   -0.8679   13.4291 O   0  0  0  0  0  0  0  0  0  0  0  0
    9.6244   -0.6111   15.1442 N   0  0  0  0  0  0  0  0  0  0  0  0
    8.6088   -0.8674   16.1072 C   0  0  0  0  0  0  0  0  0  0  0  0
    7.7655   -1.9809   16.0050 C   0  0  0  0  0  0  0  0  0  0  0  0
    6.7064   -2.1640   16.9030 C   0  0  0  0  0  0  0  0  0  0  0  0
    5.8023   -3.3575   16.7882 C   0  0  0  0  0  0  0  0  0  0  0  0
    6.4907   -1.2097   17.9054 C   0  0  0  0  0  0  0  0  0  0  0  0
    7.3397   -0.1060   18.0250 C   0  0  0  0  0  0  0  0  0  0  0  0
    8.4039    0.0448   17.1419 C   0  0  0  0  0  0  0  0  0  0  0  0
    9.1942    1.1262   17.2422 F   0  0  0  0  0  0  0  0  0  0  0  0
   11.4029    0.1000   10.8235 C   0  0  0  0  0  0  0  0  0  0  0  0
   11.3232    0.3636    9.4427 C   0  0  0  0  0  0  0  0  0  0  0  0
    8.9834    0.2255    6.3963 C   0  0  0  0  0  0  0  0  0  0  0  0
    7.9251   -0.7574    6.5644 C   0  0  0  0  0  0  0  0  0  0  0  0
    8.1583   -1.7856    7.4300 N   0  0  0  0  0  0  0  0  0  0  0  0
    6.8796   -0.7191    5.9206 O   0  0  0  0  0  0  0  0  0  0  0  0
   12.6965   -2.2921   -1.8126 H   0  0  0  0  0  0  0  0  0  0  0  0
   11.2618   -2.0666   -2.8349 H   0  0  0  0  0  0  0  0  0  0  0  0
   11.5612   -3.6422   -2.0279 H   0  0  0  0  0  0  0  0  0  0  0  0
    9.4071   -3.4817   -0.9163 H   0  0  0  0  0  0  0  0  0  0  0  0
    9.1102   -1.9337   -1.7463 H   0  0  0  0  0  0  0  0  0  0  0  0
    9.3018   -2.3480    1.2855 H   0  0  0  0  0  0  0  0  0  0  0  0
    7.7995   -2.1389    0.3859 H   0  0  0  0  0  0  0  0  0  0  0  0
    8.4930    0.1472   -0.3089 H   0  0  0  0  0  0  0  0  0  0  0  0
   10.0585   -0.0497    0.4894 H   0  0  0  0  0  0  0  0  0  0  0  0
    7.7225    0.8820    1.6811 H   0  0  0  0  0  0  0  0  0  0  0  0
    7.5766    0.2774    4.0616 H   0  0  0  0  0  0  0  0  0  0  0  0
    7.9405    0.2777    9.1069 H   0  0  0  0  0  0  0  0  0  0  0  0
    8.0722   -0.2749   11.3993 H   0  0  0  0  0  0  0  0  0  0  0  0
   11.2631   -0.3427   13.3774 H   0  0  0  0  0  0  0  0  0  0  0  0
   10.2614    0.1364   15.3925 H   0  0  0  0  0  0  0  0  0  0  0  0
    7.9206   -2.7003   15.2016 H   0  0  0  0  0  0  0  0  0  0  0  0
    6.0951   -4.0065   15.9559 H   0  0  0  0  0  0  0  0  0  0  0  0
    4.7689   -3.0392   16.6173 H   0  0  0  0  0  0  0  0  0  0  0  0
    5.8497   -3.9518   17.7065 H   0  0  0  0  0  0  0  0  0  0  0  0
    5.6541   -1.3190   18.5927 H   0  0  0  0  0  0  0  0  0  0  0  0
    7.1625    0.6451   18.7869 H   0  0  0  0  0  0  0  0  0  0  0  0
   12.3822    0.0952   11.2949 H   0  0  0  0  0  0  0  0  0  0  0  0
   12.2418    0.5512    8.8852 H   0  0  0  0  0  0  0  0  0  0  0  0
    9.0299   -1.9130    7.9258 H   0  0  0  0  0  0  0  0  0  0  0  0
    7.4318   -2.4768    7.5554 H   0  0  0  0  0  0  0  0  0  0  0  0
  1  2  1  0  0  0  0
  1 36  1  0  0  0  0
  1 37  1  0  0  0  0
  1 38  1  0  0  0  0
  2  3  1  0  0  0  0
  3  4  1  0  0  0  0
  3 39  1  0  0  0  0
  3 40  1  0  0  0  0
  4  5  1  0  0  0  0
  4 41  1  0  0  0  0
  4 42  1  0  0  0  0
  5  6  1  0  0  0  0
  5 43  1  0  0  0  0
  5 44  1  0  0  0  0
  6  7  1  0  0  0  0
  6 45  1  0  0  0  0
  7  8  2  0  0  0  0
  7  9  1  0  0  0  0
  9 10  1  0  0  0  0
  9 46  1  0  0  0  0
 10 11  1  0  0  0  0
 10 32  2  0  0  0  0
 11 12  1  0  0  0  0
 12 13  2  0  0  0  0
 13 14  1  0  0  0  0
 13 32  1  0  0  0  0
 14 15  1  0  0  0  0
 14 31  2  0  0  0  0
 15 16  2  0  0  0  0
 15 47  1  0  0  0  0
 16 17  1  0  0  0  0
 16 48  1  0  0  0  0
 17 18  1  0  0  0  0
 17 30  2  0  0  0  0
 18 19  1  0  0  0  0
 18 49  1  0  0  0  0
 19 20  2  0  0  0  0
 19 21  1  0  0  0  0
 21 22  1  0  0  0  0
 21 50  1  0  0  0  0
 22 23  1  0  0  0  0
 22 28  2  0  0  0  0
 23 24  2  0  0  0  0
 23 51  1  0  0  0  0
 24 25  1  0  0  0  0
 24 26  1  0  0  0  0
 25 52  1  0  0  0  0
 25 53  1  0  0  0  0
 25 54  1  0  0  0  0
 26 27  2  0  0  0  0
 26 55  1  0  0  0  0
 27 28  1  0  0  0  0
 27 56  1  0  0  0  0
 28 29  1  0  0  0  0
 30 31  1  0  0  0  0
 30 57  1  0  0  0  0
 31 58  1  0  0  0  0
 32 33  1  0  0  0  0
 33 34  1  0  0  0  0
 33 35  2  0  0  0  0
 34 59  1  0  0  0  0
 34 60  1  0  0  0  0
M  END
$$$$
