CHEMBL2086742
 OpenBabel04072215363D

 48 52  0  0  0  0  0  0  0  0999 V2000
    1.3798   -0.6447   -0.7558 C   0  0  0  0  0  0  0  0  0  0  0  0
    2.6660   -0.1721   -0.3685 O   0  0  0  0  0  0  0  0  0  0  0  0
    3.2010   -0.7461    0.7569 C   0  0  0  0  0  0  0  0  0  0  0  0
    2.5569   -1.7098    1.5384 C   0  0  0  0  0  0  0  0  0  0  0  0
    3.1858   -2.2901    2.6490 C   0  0  0  0  0  0  0  0  0  0  0  0
    4.4846   -1.8582    2.9386 C   0  0  0  0  0  0  0  0  0  0  0  0
    5.3961   -2.2246    3.9005 N   0  0  0  0  0  0  0  0  0  0  0  0
    6.5652   -1.5215    3.6824 C   0  0  0  0  0  0  0  0  0  0  0  0
    7.6833   -1.6959    4.5710 C   0  0  0  0  0  0  0  0  0  0  0  0
    8.6083   -2.6569    4.3287 C   0  0  0  0  0  0  0  0  0  0  0  0
    8.5441   -3.6102    3.1342 C   0  0  0  0  0  0  0  0  0  0  0  0
    7.6500   -3.7792    2.3312 O   0  0  0  0  0  0  0  0  0  0  0  0
    9.7257   -4.3330    3.1603 N   0  0  0  0  0  0  0  0  0  0  0  0
   10.4995   -3.9925    4.2638 C   0  0  0  0  0  0  0  0  0  0  0  0
   11.7121   -4.5665    4.5895 C   0  0  0  0  0  0  0  0  0  0  0  0
   12.3358   -4.1175    5.7557 C   0  0  0  0  0  0  0  0  0  0  0  0
   11.7393   -3.1258    6.5679 C   0  0  0  0  0  0  0  0  0  0  0  0
   12.4805   -2.7437    7.8102 C   0  0  0  0  0  0  0  0  0  0  0  0
   13.2344   -3.5261    8.3719 O   0  0  0  0  0  0  0  0  0  0  0  0
   12.3149   -1.4799    8.2410 O   0  0  0  0  0  0  0  0  0  0  0  0
   10.4877   -2.5793    6.2129 C   0  0  0  0  0  0  0  0  0  0  0  0
    9.8778   -3.0023    5.0334 C   0  0  0  0  0  0  0  0  0  0  0  0
    7.8373   -0.7016    5.6707 C   0  0  0  0  0  0  0  0  0  0  0  0
    8.4966    0.5199    5.4568 C   0  0  0  0  0  0  0  0  0  0  0  0
    8.5301    1.4975    6.4607 C   0  0  0  0  0  0  0  0  0  0  0  0
    7.8728    1.2808    7.6678 C   0  0  0  0  0  0  0  0  0  0  0  0
    7.2021    0.0755    7.8856 C   0  0  0  0  0  0  0  0  0  0  0  0
    7.2044   -0.9187    6.9014 C   0  0  0  0  0  0  0  0  0  0  0  0
    6.4144   -0.6805    2.6799 N   0  0  0  0  0  0  0  0  0  0  0  0
    5.1473   -0.8992    2.1834 C   0  0  0  0  0  0  0  0  0  0  0  0
    4.5002   -0.3261    1.0800 C   0  0  0  0  0  0  0  0  0  0  0  0
    1.0861   -0.1109   -1.6640 H   0  0  0  0  0  0  0  0  0  0  0  0
    0.6368   -0.4241    0.0181 H   0  0  0  0  0  0  0  0  0  0  0  0
    1.3945   -1.7138   -0.9927 H   0  0  0  0  0  0  0  0  0  0  0  0
    1.5632   -2.0608    1.2849 H   0  0  0  0  0  0  0  0  0  0  0  0
    2.6916   -3.0643    3.2261 H   0  0  0  0  0  0  0  0  0  0  0  0
    5.2512   -2.9345    4.5953 H   0  0  0  0  0  0  0  0  0  0  0  0
    9.9388   -5.0364    2.4816 H   0  0  0  0  0  0  0  0  0  0  0  0
   12.1688   -5.3344    3.9748 H   0  0  0  0  0  0  0  0  0  0  0  0
   13.2984   -4.5477    6.0363 H   0  0  0  0  0  0  0  0  0  0  0  0
   11.7413   -0.8874    7.7249 H   0  0  0  0  0  0  0  0  0  0  0  0
    9.9906   -1.8633    6.8535 H   0  0  0  0  0  0  0  0  0  0  0  0
    8.9516    0.7442    4.4921 H   0  0  0  0  0  0  0  0  0  0  0  0
    9.0388    2.4433    6.2845 H   0  0  0  0  0  0  0  0  0  0  0  0
    7.8533    2.0563    8.4293 H   0  0  0  0  0  0  0  0  0  0  0  0
    6.6510   -0.0782    8.8096 H   0  0  0  0  0  0  0  0  0  0  0  0
    6.6684   -1.8453    7.0917 H   0  0  0  0  0  0  0  0  0  0  0  0
    5.0207    0.4025    0.4681 H   0  0  0  0  0  0  0  0  0  0  0  0
  1  2  1  0  0  0  0
  1 32  1  0  0  0  0
  1 33  1  0  0  0  0
  1 34  1  0  0  0  0
  2  3  1  0  0  0  0
  3  4  1  0  0  0  0
  3 31  2  0  0  0  0
  4  5  2  0  0  0  0
  4 35  1  0  0  0  0
  5  6  1  0  0  0  0
  5 36  1  0  0  0  0
  6  7  1  0  0  0  0
  6 30  2  0  0  0  0
  7  8  1  0  0  0  0
  7 37  1  0  0  0  0
  8  9  1  0  0  0  0
  8 29  2  0  0  0  0
  9 10  2  3  0  0  0
  9 23  1  0  0  0  0
 10 11  1  0  0  0  0
 10 22  1  0  0  0  0
 11 12  2  0  0  0  0
 11 13  1  0  0  0  0
 13 14  1  0  0  0  0
 13 38  1  0  0  0  0
 14 15  1  0  0  0  0
 14 22  2  0  0  0  0
 15 16  2  0  0  0  0
 15 39  1  0  0  0  0
 16 17  1  0  0  0  0
 16 40  1  0  0  0  0
 17 18  1  0  0  0  0
 17 21  2  0  0  0  0
 18 19  2  0  0  0  0
 18 20  1  0  0  0  0
 20 41  1  0  0  0  0
 21 22  1  0  0  0  0
 21 42  1  0  0  0  0
 23 24  1  0  0  0  0
 23 28  2  0  0  0  0
 24 25  2  0  0  0  0
 24 43  1  0  0  0  0
 25 26  1  0  0  0  0
 25 44  1  0  0  0  0
 26 27  2  0  0  0  0
 26 45  1  0  0  0  0
 27 28  1  0  0  0  0
 27 46  1  0  0  0  0
 28 47  1  0  0  0  0
 29 30  1  0  0  0  0
 30 31  1  0  0  0  0
 31 48  1  0  0  0  0
M  END
$$$$
