CHEMBL149742
 OpenBabel04072215363D

 67 72  0  0  0  0  0  0  0  0999 V2000
    0.8889    2.3355    0.1119 C   0  0  0  0  0  0  0  0  0  0  0  0
    2.3605    2.1059    0.4092 C   0  0  0  0  0  0  0  0  0  0  0  0
    2.6134    1.2435    1.6589 C   0  0  0  0  0  0  0  0  0  0  0  0
    1.9287   -0.1306    1.6185 C   0  0  0  0  0  0  0  0  0  0  0  0
    2.5275   -1.0778    0.5878 C   0  0  0  0  0  0  0  0  0  0  0  0
    4.0262    1.1076    1.7626 O   0  0  0  0  0  0  0  0  0  0  0  0
    4.4783    0.4926    2.9639 C   0  0  0  0  0  0  0  0  0  0  0  0
    5.9829    0.4614    2.8466 C   0  0  0  0  0  0  0  0  0  0  0  0
    6.6333   -0.7253    2.5330 C   0  0  0  0  0  0  0  0  0  0  0  0
    7.9861   -0.7369    2.2194 C   0  0  0  0  0  0  0  0  0  0  0  0
    8.6716    0.4797    2.2257 C   0  0  0  0  0  0  0  0  0  0  0  0
    8.0090    1.6681    2.5852 C   0  0  0  0  0  0  0  0  0  0  0  0
    6.6621    1.6758    2.9150 C   0  0  0  0  0  0  0  0  0  0  0  0
    9.0192    2.5843    2.5389 C   0  0  0  0  0  0  0  0  0  0  0  0
    9.1003    3.7419    3.3539 C   0  0  0  0  0  0  0  0  0  0  0  0
   10.4635    4.1452    3.7241 C   0  0  0  0  0  0  0  0  0  0  0  0
   11.5392    3.4196    3.1691 C   0  0  0  0  0  0  0  0  0  0  0  0
   11.1696    3.0412    1.8631 C   0  0  0  0  0  0  0  0  0  0  0  0
   10.1266    2.1694    1.8541 C   0  0  0  0  0  0  0  0  0  0  0  0
   10.0350    0.7795    2.0441 N   0  0  0  0  0  0  0  0  0  0  0  0
   11.1041   -0.0545    2.6192 C   0  0  0  0  0  0  0  0  0  0  0  0
   11.0825   -1.5770    2.4419 C   0  0  0  0  0  0  0  0  0  0  0  0
   12.2586   -2.2878    3.1126 C   0  0  0  0  0  0  0  0  0  0  0  0
   12.1923   -3.6842    2.8316 O   0  0  0  0  0  0  0  0  0  0  0  0
   12.2614    3.3542    0.9456 C   0  0  0  0  0  0  0  0  0  0  0  0
   13.3426    2.7722    1.8001 C   0  0  0  0  0  0  0  0  0  0  0  0
   14.1489    1.7697    1.2559 C   0  0  0  0  0  0  0  0  0  0  0  0
   14.5936    0.7829    2.1073 C   0  0  0  0  0  0  0  0  0  0  0  0
   14.2871    0.8714    3.4800 C   0  0  0  0  0  0  0  0  0  0  0  0
   13.4734    1.9198    4.0270 C   0  0  0  0  0  0  0  0  0  0  0  0
   12.9470    2.9107    3.1903 C   0  0  0  0  0  0  0  0  0  0  0  0
   10.3667    5.5914    3.9711 C   0  0  0  0  0  0  0  0  0  0  0  0
   11.2172    6.4444    4.1503 O   0  0  0  0  0  0  0  0  0  0  0  0
    9.0048    5.8984    3.7922 N   0  0  0  0  0  0  0  0  0  0  0  0
    8.1160    4.8098    3.4336 C   0  0  0  0  0  0  0  0  0  0  0  0
    0.7720    3.0891   -0.6731 H   0  0  0  0  0  0  0  0  0  0  0  0
    0.3590    2.6847    1.0032 H   0  0  0  0  0  0  0  0  0  0  0  0
    0.4107    1.4172   -0.2416 H   0  0  0  0  0  0  0  0  0  0  0  0
    2.8507    3.0789    0.5504 H   0  0  0  0  0  0  0  0  0  0  0  0
    2.8532    1.6695   -0.4686 H   0  0  0  0  0  0  0  0  0  0  0  0
    2.2562    1.8061    2.5323 H   0  0  0  0  0  0  0  0  0  0  0  0
    0.8538   -0.0188    1.4523 H   0  0  0  0  0  0  0  0  0  0  0  0
    2.0218   -0.6068    2.6026 H   0  0  0  0  0  0  0  0  0  0  0  0
    2.5092   -0.6413   -0.4193 H   0  0  0  0  0  0  0  0  0  0  0  0
    1.9414   -2.0118    0.5521 H   0  0  0  0  0  0  0  0  0  0  0  0
    3.5541   -1.3433    0.8230 H   0  0  0  0  0  0  0  0  0  0  0  0
    4.0996   -0.5290    3.0578 H   0  0  0  0  0  0  0  0  0  0  0  0
    4.1692    1.0738    3.8382 H   0  0  0  0  0  0  0  0  0  0  0  0
    6.0874   -1.6676    2.5022 H   0  0  0  0  0  0  0  0  0  0  0  0
    8.4608   -1.6725    1.9609 H   0  0  0  0  0  0  0  0  0  0  0  0
    6.1340    2.5938    3.0941 H   0  0  0  0  0  0  0  0  0  0  0  0
   11.1154    0.1778    3.6960 H   0  0  0  0  0  0  0  0  0  0  0  0
   12.0160    0.3011    2.1624 H   0  0  0  0  0  0  0  0  0  0  0  0
   11.0613   -1.8243    1.3754 H   0  0  0  0  0  0  0  0  0  0  0  0
   10.1902   -2.0147    2.8913 H   0  0  0  0  0  0  0  0  0  0  0  0
   12.2401   -2.1635    4.2012 H   0  0  0  0  0  0  0  0  0  0  0  0
   13.2203   -1.9280    2.7409 H   0  0  0  0  0  0  0  0  0  0  0  0
   11.3869   -4.0378    3.2478 H   0  0  0  0  0  0  0  0  0  0  0  0
   12.4375    4.4465    0.9134 H   0  0  0  0  0  0  0  0  0  0  0  0
   12.1396    2.9796   -0.0659 H   0  0  0  0  0  0  0  0  0  0  0  0
   14.1978    1.6454    0.1747 H   0  0  0  0  0  0  0  0  0  0  0  0
   15.0520   -0.1096    1.6806 H   0  0  0  0  0  0  0  0  0  0  0  0
   14.5831    0.0247    4.1019 H   0  0  0  0  0  0  0  0  0  0  0  0
   13.1224    1.7887    5.0490 H   0  0  0  0  0  0  0  0  0  0  0  0
    8.7918    6.8476    3.5218 H   0  0  0  0  0  0  0  0  0  0  0  0
    7.6711    4.9994    2.4503 H   0  0  0  0  0  0  0  0  0  0  0  0
    7.3493    4.6755    4.1978 H   0  0  0  0  0  0  0  0  0  0  0  0
  1  2  1  0  0  0  0
  1 36  1  0  0  0  0
  1 37  1  0  0  0  0
  1 38  1  0  0  0  0
  2  3  1  0  0  0  0
  2 39  1  0  0  0  0
  2 40  1  0  0  0  0
  3  4  1  0  0  0  0
  3  6  1  0  0  0  0
  3 41  1  0  0  0  0
  4  5  1  0  0  0  0
  4 42  1  0  0  0  0
  4 43  1  0  0  0  0
  5 44  1  0  0  0  0
  5 45  1  0  0  0  0
  5 46  1  0  0  0  0
  6  7  1  0  0  0  0
  7  8  1  0  0  0  0
  7 47  1  0  0  0  0
  7 48  1  0  0  0  0
  8  9  1  0  0  0  0
  8 13  2  0  0  0  0
  9 10  2  0  0  0  0
  9 49  1  0  0  0  0
 10 11  1  0  0  0  0
 10 50  1  0  0  0  0
 11 12  2  0  0  0  0
 11 20  1  0  0  0  0
 12 13  1  0  0  0  0
 12 14  1  0  0  0  0
 13 51  1  0  0  0  0
 14 15  1  0  0  0  0
 14 19  2  0  0  0  0
 15 16  2  0  0  0  0
 15 35  1  0  0  0  0
 16 17  1  0  0  0  0
 16 32  1  0  0  0  0
 17 18  2  0  0  0  0
 17 31  1  0  0  0  0
 18 19  1  0  0  0  0
 18 25  1  0  0  0  0
 19 20  1  0  0  0  0
 20 21  1  0  0  0  0
 21 22  1  0  0  0  0
 21 52  1  0  0  0  0
 21 53  1  0  0  0  0
 22 23  1  0  0  0  0
 22 54  1  0  0  0  0
 22 55  1  0  0  0  0
 23 24  1  0  0  0  0
 23 56  1  0  0  0  0
 23 57  1  0  0  0  0
 24 58  1  0  0  0  0
 25 26  1  0  0  0  0
 25 59  1  0  0  0  0
 25 60  1  0  0  0  0
 26 27  1  0  0  0  0
 26 31  2  0  0  0  0
 27 28  2  0  0  0  0
 27 61  1  0  0  0  0
 28 29  1  0  0  0  0
 28 62  1  0  0  0  0
 29 30  2  0  0  0  0
 29 63  1  0  0  0  0
 30 31  1  0  0  0  0
 30 64  1  0  0  0  0
 32 33  2  0  0  0  0
 32 34  1  0  0  0  0
 34 35  1  0  0  0  0
 34 65  1  0  0  0  0
 35 66  1  0  0  0  0
 35 67  1  0  0  0  0
M  END
$$$$
