CHEMBL498105
 OpenBabel04072215383D

 57 60  0  0  0  0  0  0  0  0999 V2000
    1.1377    0.4334    0.6772 C   0  0  0  0  0  0  0  0  0  0  0  0
    2.5661    0.4245    0.6277 O   0  0  0  0  0  0  0  0  0  0  0  0
    3.1032   -0.8183    0.6868 C   0  0  0  0  0  0  0  0  0  0  0  0
    2.4789   -1.8655    0.7335 O   0  0  0  0  0  0  0  0  0  0  0  0
    4.5889   -0.7527    0.7484 C   0  0  0  0  0  0  0  0  0  0  0  0
    5.3188    0.4566    0.6796 C   0  0  0  0  0  0  0  0  0  0  0  0
    6.7206    0.4736    0.8256 C   0  0  0  0  0  0  0  0  0  0  0  0
    7.3780   -0.7225    1.0602 C   0  0  0  0  0  0  0  0  0  0  0  0
    6.6309   -1.9083    1.0979 C   0  0  0  0  0  0  0  0  0  0  0  0
    5.2631   -1.9606    0.9355 C   0  0  0  0  0  0  0  0  0  0  0  0
    7.4354   -2.9987    1.3828 N   0  0  0  0  0  0  0  0  0  0  0  0
    8.7368   -2.6109    1.6262 C   0  0  0  0  0  0  0  0  0  0  0  0
    9.5885   -3.3262    2.1183 O   0  0  0  0  0  0  0  0  0  0  0  0
    8.7809   -1.1304    1.2896 C   0  0  0  0  0  0  0  0  0  0  0  0
    9.9554   -0.4609    1.2375 C   0  0  0  0  0  0  0  0  0  0  0  0
   11.2240   -1.0274    1.2537 N   0  0  0  0  0  0  0  0  0  0  0  0
   11.7068   -2.0194    0.3639 C   0  0  0  0  0  0  0  0  0  0  0  0
   10.9666   -2.4905   -0.7299 C   0  0  0  0  0  0  0  0  0  0  0  0
   11.3728   -3.6142   -1.4553 C   0  0  0  0  0  0  0  0  0  0  0  0
   12.5499   -4.2899   -1.1179 C   0  0  0  0  0  0  0  0  0  0  0  0
   12.9249   -5.5850   -1.8092 C   0  0  0  0  0  0  0  0  0  0  0  0
   12.9791   -5.5047   -3.2806 N   0  0  0  0  0  0  0  0  0  0  0  0
   14.0236   -4.5831   -3.7322 C   0  0  0  0  0  0  0  0  0  0  0  0
   13.2292   -6.8387   -3.8345 C   0  0  0  0  0  0  0  0  0  0  0  0
   13.3302   -3.7884   -0.0681 C   0  0  0  0  0  0  0  0  0  0  0  0
   12.9095   -2.6711    0.6659 C   0  0  0  0  0  0  0  0  0  0  0  0
    9.9849    1.0170    1.2136 C   0  0  0  0  0  0  0  0  0  0  0  0
    9.9938    1.7247    2.4250 C   0  0  0  0  0  0  0  0  0  0  0  0
   10.0742    3.1182    2.4302 C   0  0  0  0  0  0  0  0  0  0  0  0
   10.1512    3.8175    1.2261 C   0  0  0  0  0  0  0  0  0  0  0  0
   10.1577    3.1193    0.0204 C   0  0  0  0  0  0  0  0  0  0  0  0
   10.0736    1.7251    0.0095 C   0  0  0  0  0  0  0  0  0  0  0  0
    0.7963    1.4440    0.4391 H   0  0  0  0  0  0  0  0  0  0  0  0
    0.8005    0.1804    1.6878 H   0  0  0  0  0  0  0  0  0  0  0  0
    0.7076   -0.2569   -0.0556 H   0  0  0  0  0  0  0  0  0  0  0  0
    4.7994    1.4012    0.5268 H   0  0  0  0  0  0  0  0  0  0  0  0
    7.2499    1.4193    0.7737 H   0  0  0  0  0  0  0  0  0  0  0  0
    4.7296   -2.9047    0.9873 H   0  0  0  0  0  0  0  0  0  0  0  0
    7.1205   -3.9403    1.5609 H   0  0  0  0  0  0  0  0  0  0  0  0
   11.9556   -0.4562    1.6636 H   0  0  0  0  0  0  0  0  0  0  0  0
   10.0382   -2.0086   -1.0216 H   0  0  0  0  0  0  0  0  0  0  0  0
   10.7490   -3.9813   -2.2669 H   0  0  0  0  0  0  0  0  0  0  0  0
   12.1578   -6.3166   -1.5176 H   0  0  0  0  0  0  0  0  0  0  0  0
   13.8764   -5.9615   -1.4113 H   0  0  0  0  0  0  0  0  0  0  0  0
   13.8380   -3.5627   -3.3815 H   0  0  0  0  0  0  0  0  0  0  0  0
   14.0327   -4.5293   -4.8268 H   0  0  0  0  0  0  0  0  0  0  0  0
   15.0201   -4.8897   -3.3945 H   0  0  0  0  0  0  0  0  0  0  0  0
   12.4460   -7.5415   -3.5285 H   0  0  0  0  0  0  0  0  0  0  0  0
   14.1969   -7.2437   -3.5145 H   0  0  0  0  0  0  0  0  0  0  0  0
   13.2143   -6.8107   -4.9297 H   0  0  0  0  0  0  0  0  0  0  0  0
   14.2513   -4.2896    0.2184 H   0  0  0  0  0  0  0  0  0  0  0  0
   13.5065   -2.3486    1.5148 H   0  0  0  0  0  0  0  0  0  0  0  0
    9.9549    1.1881    3.3708 H   0  0  0  0  0  0  0  0  0  0  0  0
   10.0960    3.6570    3.3755 H   0  0  0  0  0  0  0  0  0  0  0  0
   10.2234    4.9000    1.2315 H   0  0  0  0  0  0  0  0  0  0  0  0
   10.2212    3.6665   -0.9193 H   0  0  0  0  0  0  0  0  0  0  0  0
   10.0975    1.1917   -0.9392 H   0  0  0  0  0  0  0  0  0  0  0  0
  1  2  1  0  0  0  0
  1 33  1  0  0  0  0
  1 34  1  0  0  0  0
  1 35  1  0  0  0  0
  2  3  1  0  0  0  0
  3  4  2  0  0  0  0
  3  5  1  0  0  0  0
  5  6  1  0  0  0  0
  5 10  2  0  0  0  0
  6  7  2  0  0  0  0
  6 36  1  0  0  0  0
  7  8  1  0  0  0  0
  7 37  1  0  0  0  0
  8  9  2  0  0  0  0
  8 14  1  0  0  0  0
  9 10  1  0  0  0  0
  9 11  1  0  0  0  0
 10 38  1  0  0  0  0
 11 12  1  0  0  0  0
 11 39  1  0  0  0  0
 12 13  2  0  0  0  0
 12 14  1  0  0  0  0
 14 15  2  0  0  0  0
 15 16  1  0  0  0  0
 15 27  1  0  0  0  0
 16 17  1  0  0  0  0
 16 40  1  0  0  0  0
 17 18  1  0  0  0  0
 17 26  2  0  0  0  0
 18 19  2  0  0  0  0
 18 41  1  0  0  0  0
 19 20  1  0  0  0  0
 19 42  1  0  0  0  0
 20 21  1  0  0  0  0
 20 25  2  0  0  0  0
 21 22  1  0  0  0  0
 21 43  1  0  0  0  0
 21 44  1  0  0  0  0
 22 23  1  0  0  0  0
 22 24  1  0  0  0  0
 23 45  1  0  0  0  0
 23 46  1  0  0  0  0
 23 47  1  0  0  0  0
 24 48  1  0  0  0  0
 24 49  1  0  0  0  0
 24 50  1  0  0  0  0
 25 26  1  0  0  0  0
 25 51  1  0  0  0  0
 26 52  1  0  0  0  0
 27 28  1  0  0  0  0
 27 32  2  0  0  0  0
 28 29  2  0  0  0  0
 28 53  1  0  0  0  0
 29 30  1  0  0  0  0
 29 54  1  0  0  0  0
 30 31  2  0  0  0  0
 30 55  1  0  0  0  0
 31 32  1  0  0  0  0
 31 56  1  0  0  0  0
 32 57  1  0  0  0  0
M  END
$$$$
