CHEMBL196025
 OpenBabel04072215363D

 45 48  0  0  0  0  0  0  0  0999 V2000
    2.4183   -3.1602    2.3748 C   0  0  0  0  0  0  0  0  0  0  0  0
    0.9932   -2.6904    2.3812 C   0  0  0  0  0  0  0  0  0  0  0  0
    0.4322   -2.1423    3.5384 C   0  0  0  0  0  0  0  0  0  0  0  0
   -0.8884   -1.7056    3.5342 C   0  0  0  0  0  0  0  0  0  0  0  0
   -1.6580   -1.8217    2.3759 C   0  0  0  0  0  0  0  0  0  0  0  0
   -1.1338   -2.3908    1.2063 C   0  0  0  0  0  0  0  0  0  0  0  0
   -1.8782   -2.4286    0.0050 N   0  0  0  0  0  0  0  0  0  0  0  0
   -3.2918   -2.5028   -0.0932 C   0  0  0  0  0  0  0  0  0  0  0  0
   -3.9772   -3.1472    0.8720 N   0  0  0  0  0  0  0  0  0  0  0  0
   -5.3379   -3.2272    0.8309 N   0  0  0  0  0  0  0  0  0  0  0  0
   -6.0456   -2.6121   -0.1439 C   0  0  0  0  0  0  0  0  0  0  0  0
   -7.5107   -2.8374   -0.0196 C   0  0  0  0  0  0  0  0  0  0  0  0
   -8.1027   -2.9755    1.2539 C   0  0  0  0  0  0  0  0  0  0  0  0
   -9.4693   -3.2383    1.4079 C   0  0  0  0  0  0  0  0  0  0  0  0
  -10.2934   -3.3403    0.2867 C   0  0  0  0  0  0  0  0  0  0  0  0
  -11.7325   -3.6457    0.4836 C   0  0  0  0  0  0  0  0  0  0  0  0
  -12.6022   -3.2210   -0.4822 N   0  0  0  0  0  0  0  0  0  0  0  0
  -12.1350   -4.2319    1.4796 O   0  0  0  0  0  0  0  0  0  0  0  0
   -9.7349   -3.2188   -0.9868 C   0  0  0  0  0  0  0  0  0  0  0  0
   -8.3577   -3.0052   -1.1306 C   0  0  0  0  0  0  0  0  0  0  0  0
   -5.3854   -1.8788   -1.1590 C   0  0  0  0  0  0  0  0  0  0  0  0
   -6.0414   -1.1046   -2.1528 C   0  0  0  0  0  0  0  0  0  0  0  0
   -5.3500   -0.4730   -3.1860 C   0  0  0  0  0  0  0  0  0  0  0  0
   -3.9701   -0.5567   -3.2349 C   0  0  0  0  0  0  0  0  0  0  0  0
   -3.2856   -1.2323   -2.2255 C   0  0  0  0  0  0  0  0  0  0  0  0
   -3.9672   -1.8896   -1.1684 C   0  0  0  0  0  0  0  0  0  0  0  0
    0.2095   -2.7978    1.2168 C   0  0  0  0  0  0  0  0  0  0  0  0
    2.8945   -3.0047    3.3488 H   0  0  0  0  0  0  0  0  0  0  0  0
    2.9953   -2.6072    1.6276 H   0  0  0  0  0  0  0  0  0  0  0  0
    2.4598   -4.2298    2.1490 H   0  0  0  0  0  0  0  0  0  0  0  0
    1.0198   -2.0423    4.4477 H   0  0  0  0  0  0  0  0  0  0  0  0
   -1.3245   -1.2681    4.4282 H   0  0  0  0  0  0  0  0  0  0  0  0
   -2.6804   -1.4521    2.3984 H   0  0  0  0  0  0  0  0  0  0  0  0
   -1.4522   -2.9927   -0.7206 H   0  0  0  0  0  0  0  0  0  0  0  0
   -7.4876   -2.9086    2.1521 H   0  0  0  0  0  0  0  0  0  0  0  0
   -9.8811   -3.3739    2.4063 H   0  0  0  0  0  0  0  0  0  0  0  0
  -12.3514   -2.5357   -1.1792 H   0  0  0  0  0  0  0  0  0  0  0  0
  -13.5856   -3.3583   -0.2861 H   0  0  0  0  0  0  0  0  0  0  0  0
  -10.3413   -3.3398   -1.8795 H   0  0  0  0  0  0  0  0  0  0  0  0
   -7.9534   -3.0046   -2.1407 H   0  0  0  0  0  0  0  0  0  0  0  0
   -7.1181   -0.9589   -2.1245 H   0  0  0  0  0  0  0  0  0  0  0  0
   -5.8953    0.0886   -3.9401 H   0  0  0  0  0  0  0  0  0  0  0  0
   -3.4230   -0.0703   -4.0386 H   0  0  0  0  0  0  0  0  0  0  0  0
   -2.1986   -1.2325   -2.2629 H   0  0  0  0  0  0  0  0  0  0  0  0
    0.6575   -3.2094    0.3175 H   0  0  0  0  0  0  0  0  0  0  0  0
  1  2  1  0  0  0  0
  1 28  1  0  0  0  0
  1 29  1  0  0  0  0
  1 30  1  0  0  0  0
  2  3  1  0  0  0  0
  2 27  2  0  0  0  0
  3  4  2  0  0  0  0
  3 31  1  0  0  0  0
  4  5  1  0  0  0  0
  4 32  1  0  0  0  0
  5  6  2  0  0  0  0
  5 33  1  0  0  0  0
  6  7  1  0  0  0  0
  6 27  1  0  0  0  0
  7  8  1  0  0  0  0
  7 34  1  0  0  0  0
  8  9  1  0  0  0  0
  8 26  2  0  0  0  0
  9 10  2  0  0  0  0
 10 11  1  0  0  0  0
 11 12  1  0  0  0  0
 11 21  2  0  0  0  0
 12 13  1  0  0  0  0
 12 20  2  0  0  0  0
 13 14  2  0  0  0  0
 13 35  1  0  0  0  0
 14 15  1  0  0  0  0
 14 36  1  0  0  0  0
 15 16  1  0  0  0  0
 15 19  2  0  0  0  0
 16 17  1  0  0  0  0
 16 18  2  0  0  0  0
 17 37  1  0  0  0  0
 17 38  1  0  0  0  0
 19 20  1  0  0  0  0
 19 39  1  0  0  0  0
 20 40  1  0  0  0  0
 21 22  1  0  0  0  0
 21 26  1  0  0  0  0
 22 23  2  0  0  0  0
 22 41  1  0  0  0  0
 23 24  1  0  0  0  0
 23 42  1  0  0  0  0
 24 25  2  0  0  0  0
 24 43  1  0  0  0  0
 25 26  1  0  0  0  0
 25 44  1  0  0  0  0
 27 45  1  0  0  0  0
M  END
$$$$
