CHEMBL3706821
 OpenBabel04072215373D

 43 45  0  0  0  0  0  0  0  0999 V2000
    1.0381   -0.3325   -0.7960 C   0  0  0  0  0  0  0  0  0  0  0  0
    2.2920   -0.1734   -0.1613 O   0  0  0  0  0  0  0  0  0  0  0  0
    2.7752   -1.3748    0.4485 C   0  0  0  0  0  0  0  0  0  0  0  0
    4.0899   -0.9858    1.1090 C   0  0  0  0  0  0  0  0  0  0  0  0
    4.7440   -2.0595    1.7552 O   0  0  0  0  0  0  0  0  0  0  0  0
    6.1029   -1.9543    1.9435 C   0  0  0  0  0  0  0  0  0  0  0  0
    6.6898   -3.2339    2.0762 C   0  0  0  0  0  0  0  0  0  0  0  0
    8.0548   -3.4566    2.1950 C   0  0  0  0  0  0  0  0  0  0  0  0
    8.5347   -4.7082    2.2453 N   0  0  0  0  0  0  0  0  0  0  0  0
    9.8664   -4.8466    2.3163 C   0  0  0  0  0  0  0  0  0  0  0  0
   10.7606   -3.8495    2.3701 N   0  0  0  0  0  0  0  0  0  0  0  0
   10.2588   -2.5974    2.3415 C   0  0  0  0  0  0  0  0  0  0  0  0
   11.1631   -1.5053    2.4256 N   0  0  0  0  0  0  0  0  0  0  0  0
   12.5423   -1.6589    2.3360 C   0  0  0  0  0  0  0  0  0  0  0  0
   13.1837   -2.3201    1.3643 C   0  0  0  0  0  0  0  0  0  0  0  0
   14.6366   -2.4873    1.3499 C   0  0  0  0  0  0  0  0  0  0  0  0
   15.1872   -2.9613    0.3639 O   0  0  0  0  0  0  0  0  0  0  0  0
   15.3819   -2.0905    2.5737 C   0  0  0  0  0  0  0  0  0  0  0  0
   17.0276   -2.6134    2.6669 Cl  0  0  0  0  0  0  0  0  0  0  0  0
   14.7808   -1.3741    3.5289 C   0  0  0  0  0  0  0  0  0  0  0  0
   15.5806   -0.8608    4.9740 Cl  0  0  0  0  0  0  0  0  0  0  0  0
   13.3505   -0.9831    3.4020 C   0  0  0  0  0  0  0  0  0  0  0  0
   12.8045   -0.1715    4.1439 O   0  0  0  0  0  0  0  0  0  0  0  0
    8.8889   -2.3445    2.2250 C   0  0  0  0  0  0  0  0  0  0  0  0
    8.3257   -1.0543    2.1042 C   0  0  0  0  0  0  0  0  0  0  0  0
    6.9448   -0.8365    1.9670 C   0  0  0  0  0  0  0  0  0  0  0  0
    6.7067    0.4843    1.7262 O   0  0  0  0  0  0  0  0  0  0  0  0
    5.6484    1.1729    2.3666 C   0  0  0  0  0  0  0  0  0  0  0  0
    0.7617    0.6317   -1.2326 H   0  0  0  0  0  0  0  0  0  0  0  0
    0.2742   -0.6169   -0.0677 H   0  0  0  0  0  0  0  0  0  0  0  0
    1.1064   -1.0730   -1.5965 H   0  0  0  0  0  0  0  0  0  0  0  0
    2.9218   -2.1617   -0.2979 H   0  0  0  0  0  0  0  0  0  0  0  0
    2.0618   -1.7330    1.2009 H   0  0  0  0  0  0  0  0  0  0  0  0
    3.7996   -0.2648    1.8717 H   0  0  0  0  0  0  0  0  0  0  0  0
    4.7298   -0.5207    0.3522 H   0  0  0  0  0  0  0  0  0  0  0  0
    6.0346   -4.1121    2.0367 H   0  0  0  0  0  0  0  0  0  0  0  0
   10.2594   -5.8546    2.3364 H   0  0  0  0  0  0  0  0  0  0  0  0
   10.9154   -0.9137    3.2256 H   0  0  0  0  0  0  0  0  0  0  0  0
   12.6499   -2.7751    0.5415 H   0  0  0  0  0  0  0  0  0  0  0  0
    8.9817   -0.1840    2.0726 H   0  0  0  0  0  0  0  0  0  0  0  0
    6.0312    2.1062    2.7895 H   0  0  0  0  0  0  0  0  0  0  0  0
    5.1651    0.6095    3.1695 H   0  0  0  0  0  0  0  0  0  0  0  0
    4.9362    1.4726    1.5899 H   0  0  0  0  0  0  0  0  0  0  0  0
  1  2  1  0  0  0  0
  1 29  1  0  0  0  0
  1 30  1  0  0  0  0
  1 31  1  0  0  0  0
  2  3  1  0  0  0  0
  3  4  1  0  0  0  0
  3 32  1  0  0  0  0
  3 33  1  0  0  0  0
  4  5  1  0  0  0  0
  4 34  1  0  0  0  0
  4 35  1  0  0  0  0
  5  6  1  0  0  0  0
  6  7  1  0  0  0  0
  6 26  2  0  0  0  0
  7  8  2  0  0  0  0
  7 36  1  0  0  0  0
  8  9  1  0  0  0  0
  8 24  1  0  0  0  0
  9 10  2  0  0  0  0
 10 11  1  0  0  0  0
 10 37  1  0  0  0  0
 11 12  2  0  0  0  0
 12 13  1  0  0  0  0
 12 24  1  0  0  0  0
 13 14  1  0  0  0  0
 13 38  1  0  0  0  0
 14 15  2  0  0  0  0
 14 22  1  0  0  0  0
 15 16  1  0  0  0  0
 15 39  1  0  0  0  0
 16 17  2  0  0  0  0
 16 18  1  0  0  0  0
 18 19  1  0  0  0  0
 18 20  2  0  0  0  0
 20 21  1  0  0  0  0
 20 22  1  0  0  0  0
 22 23  2  0  0  0  0
 24 25  2  0  0  0  0
 25 26  1  0  0  0  0
 25 40  1  0  0  0  0
 26 27  1  0  0  0  0
 27 28  1  0  0  0  0
 28 41  1  0  0  0  0
 28 42  1  0  0  0  0
 28 43  1  0  0  0  0
M  END
$$$$
