CHEMBL233822
 OpenBabel04072215363D

 41 43  0  0  0  0  0  0  0  0999 V2000
    2.2194   -0.3887    0.9892 O   0  0  0  0  0  0  0  0  0  0  0  0
    2.1449    0.1459   -0.1132 C   0  0  0  0  0  0  0  0  0  0  0  0
    1.3127    1.2309   -0.3773 N   0  0  0  0  0  0  0  0  0  0  0  0
    0.3855    1.8102    0.5225 C   0  0  0  0  0  0  0  0  0  0  0  0
    0.3812    1.5532    1.8908 C   0  0  0  0  0  0  0  0  0  0  0  0
   -0.6240    2.0688    2.7103 C   0  0  0  0  0  0  0  0  0  0  0  0
   -1.6441    2.8591    2.1801 C   0  0  0  0  0  0  0  0  0  0  0  0
   -2.8577    3.3837    3.2865 Cl  0  0  0  0  0  0  0  0  0  0  0  0
   -1.6461    3.1747    0.8176 C   0  0  0  0  0  0  0  0  0  0  0  0
   -2.6970    4.0239    0.1495 C   0  0  0  0  0  0  0  0  0  0  0  0
   -3.7556    4.3994    0.9103 F   0  0  0  0  0  0  0  0  0  0  0  0
   -2.1688    5.1816   -0.3430 F   0  0  0  0  0  0  0  0  0  0  0  0
   -3.2380    3.3892   -0.9318 F   0  0  0  0  0  0  0  0  0  0  0  0
   -0.6030    2.6578    0.0043 C   0  0  0  0  0  0  0  0  0  0  0  0
    2.9029   -0.3504   -1.2460 C   0  0  0  0  0  0  0  0  0  0  0  0
    2.7550   -0.0926   -2.6047 C   0  0  0  0  0  0  0  0  0  0  0  0
    3.7081   -0.8902   -3.2541 C   0  0  0  0  0  0  0  0  0  0  0  0
    4.4305   -1.6033   -2.3976 N   0  0  0  0  0  0  0  0  0  0  0  0
    3.9366   -1.2736   -1.1814 N   0  0  0  0  0  0  0  0  0  0  0  0
    4.5060   -1.9618   -0.0282 C   0  0  0  0  0  0  0  0  0  0  0  0
    6.0244   -1.7891    0.0800 C   0  0  0  0  0  0  0  0  0  0  0  0
    6.6088   -2.5229    1.2642 C   0  0  0  0  0  0  0  0  0  0  0  0
    7.1540   -3.8011    1.1144 C   0  0  0  0  0  0  0  0  0  0  0  0
    7.6947   -4.4310    2.2266 C   0  0  0  0  0  0  0  0  0  0  0  0
    7.7197   -3.8869    3.4600 N   0  0  0  0  0  0  0  0  0  0  0  0
    7.1803   -2.6555    3.5876 C   0  0  0  0  0  0  0  0  0  0  0  0
    6.6180   -1.9457    2.5365 C   0  0  0  0  0  0  0  0  0  0  0  0
    1.2854    1.5676   -1.3290 H   0  0  0  0  0  0  0  0  0  0  0  0
    1.1488    0.9517    2.3682 H   0  0  0  0  0  0  0  0  0  0  0  0
   -0.6058    1.8297    3.7722 H   0  0  0  0  0  0  0  0  0  0  0  0
   -0.6088    2.8999   -1.0592 H   0  0  0  0  0  0  0  0  0  0  0  0
    2.0322    0.5495   -3.0840 H   0  0  0  0  0  0  0  0  0  0  0  0
    3.8987   -0.9916   -4.3152 H   0  0  0  0  0  0  0  0  0  0  0  0
    4.2368   -3.0195   -0.1387 H   0  0  0  0  0  0  0  0  0  0  0  0
    4.0413   -1.6051    0.8880 H   0  0  0  0  0  0  0  0  0  0  0  0
    6.2761   -0.7232    0.1580 H   0  0  0  0  0  0  0  0  0  0  0  0
    6.5198   -2.1405   -0.8336 H   0  0  0  0  0  0  0  0  0  0  0  0
    7.1732   -4.2992    0.1499 H   0  0  0  0  0  0  0  0  0  0  0  0
    8.1387   -5.4196    2.1480 H   0  0  0  0  0  0  0  0  0  0  0  0
    7.2156   -2.2388    4.5900 H   0  0  0  0  0  0  0  0  0  0  0  0
    6.2060   -0.9560    2.7140 H   0  0  0  0  0  0  0  0  0  0  0  0
  1  2  2  0  0  0  0
  2  3  1  0  0  0  0
  2 15  1  0  0  0  0
  3  4  1  0  0  0  0
  3 28  1  0  0  0  0
  4  5  1  0  0  0  0
  4 14  2  0  0  0  0
  5  6  2  0  0  0  0
  5 29  1  0  0  0  0
  6  7  1  0  0  0  0
  6 30  1  0  0  0  0
  7  8  1  0  0  0  0
  7  9  2  0  0  0  0
  9 10  1  0  0  0  0
  9 14  1  0  0  0  0
 10 11  1  0  0  0  0
 10 12  1  0  0  0  0
 10 13  1  0  0  0  0
 14 31  1  0  0  0  0
 15 16  2  0  0  0  0
 15 19  1  0  0  0  0
 16 17  1  0  0  0  0
 16 32  1  0  0  0  0
 17 18  2  0  0  0  0
 17 33  1  0  0  0  0
 18 19  1  0  0  0  0
 19 20  1  0  0  0  0
 20 21  1  0  0  0  0
 20 34  1  0  0  0  0
 20 35  1  0  0  0  0
 21 22  1  0  0  0  0
 21 36  1  0  0  0  0
 21 37  1  0  0  0  0
 22 23  1  0  0  0  0
 22 27  2  0  0  0  0
 23 24  2  0  0  0  0
 23 38  1  0  0  0  0
 24 25  1  0  0  0  0
 24 39  1  0  0  0  0
 25 26  2  0  0  0  0
 26 27  1  0  0  0  0
 26 40  1  0  0  0  0
 27 41  1  0  0  0  0
M  END
$$$$
