CHEMBL389524
 OpenBabel04072215373D

 48 51  0  0  0  0  0  0  0  0999 V2000
    2.3945   -0.4406    1.5476 C   0  0  0  0  0  0  0  0  0  0  0  0
    0.8982   -0.3208    1.5250 C   0  0  0  0  0  0  0  0  0  0  0  0
    0.2924    0.8625    1.9539 C   0  0  0  0  0  0  0  0  0  0  0  0
   -1.0910    0.9813    1.9405 C   0  0  0  0  0  0  0  0  0  0  0  0
   -1.8777   -0.0849    1.5011 C   0  0  0  0  0  0  0  0  0  0  0  0
   -1.3019   -1.2802    1.0527 C   0  0  0  0  0  0  0  0  0  0  0  0
   -2.0670   -2.3901    0.6013 N   0  0  0  0  0  0  0  0  0  0  0  0
   -3.4361   -2.3803    0.4001 C   0  0  0  0  0  0  0  0  0  0  0  0
   -4.1441   -1.3805    0.4889 O   0  0  0  0  0  0  0  0  0  0  0  0
   -3.9498   -3.6435    0.1156 N   0  0  0  0  0  0  0  0  0  0  0  0
   -5.3427   -3.8070   -0.1111 C   0  0  0  0  0  0  0  0  0  0  0  0
   -6.0772   -2.8425   -0.8024 C   0  0  0  0  0  0  0  0  0  0  0  0
   -7.4725   -2.8843   -0.8216 C   0  0  0  0  0  0  0  0  0  0  0  0
   -8.1742   -3.9507   -0.2475 C   0  0  0  0  0  0  0  0  0  0  0  0
   -9.6540   -3.9557   -0.2268 C   0  0  0  0  0  0  0  0  0  0  0  0
  -10.3924   -3.5752   -1.3488 C   0  0  0  0  0  0  0  0  0  0  0  0
   -9.9894   -3.1441   -2.7286 C   0  0  0  0  0  0  0  0  0  0  0  0
  -12.0727   -3.6078   -1.0600 S   0  0  0  0  0  0  0  0  0  0  0  0
  -11.8849   -4.1702    0.5396 C   0  0  0  0  0  0  0  0  0  0  0  0
  -12.9436   -4.4513    1.4110 C   0  0  0  0  0  0  0  0  0  0  0  0
  -12.5952   -4.8963    2.6611 C   0  0  0  0  0  0  0  0  0  0  0  0
  -11.3288   -5.0438    3.0722 N   0  0  0  0  0  0  0  0  0  0  0  0
  -10.2998   -4.7521    2.2422 C   0  0  0  0  0  0  0  0  0  0  0  0
   -9.0537   -4.8996    2.8411 N   0  0  0  0  0  0  0  0  0  0  0  0
  -10.5411   -4.3154    0.9050 C   0  0  0  0  0  0  0  0  0  0  0  0
   -7.4183   -4.9839    0.3278 C   0  0  0  0  0  0  0  0  0  0  0  0
   -6.0154   -4.9043    0.4216 C   0  0  0  0  0  0  0  0  0  0  0  0
    0.0955   -1.3879    1.0716 C   0  0  0  0  0  0  0  0  0  0  0  0
    2.8586    0.4671    1.9512 H   0  0  0  0  0  0  0  0  0  0  0  0
    2.7782   -0.5881    0.5341 H   0  0  0  0  0  0  0  0  0  0  0  0
    2.6983   -1.2774    2.1829 H   0  0  0  0  0  0  0  0  0  0  0  0
    0.8907    1.7009    2.3038 H   0  0  0  0  0  0  0  0  0  0  0  0
   -1.5694    1.8977    2.2748 H   0  0  0  0  0  0  0  0  0  0  0  0
   -2.9504    0.0663    1.5312 H   0  0  0  0  0  0  0  0  0  0  0  0
   -1.5646   -3.1918    0.2718 H   0  0  0  0  0  0  0  0  0  0  0  0
   -3.4660   -4.4161    0.5487 H   0  0  0  0  0  0  0  0  0  0  0  0
   -5.5783   -2.0088   -1.2921 H   0  0  0  0  0  0  0  0  0  0  0  0
   -7.9901   -2.0460   -1.2803 H   0  0  0  0  0  0  0  0  0  0  0  0
   -8.9321   -3.3038   -2.9438 H   0  0  0  0  0  0  0  0  0  0  0  0
  -10.2096   -2.0782   -2.8677 H   0  0  0  0  0  0  0  0  0  0  0  0
  -10.5463   -3.7061   -3.4865 H   0  0  0  0  0  0  0  0  0  0  0  0
  -13.9786   -4.3275    1.1168 H   0  0  0  0  0  0  0  0  0  0  0  0
  -13.3555   -5.1461    3.3957 H   0  0  0  0  0  0  0  0  0  0  0  0
   -9.1985   -5.0188    3.8386 H   0  0  0  0  0  0  0  0  0  0  0  0
   -8.4084   -4.1603    2.5915 H   0  0  0  0  0  0  0  0  0  0  0  0
   -7.9148   -5.8454    0.7710 H   0  0  0  0  0  0  0  0  0  0  0  0
   -5.4847   -5.6713    0.9788 H   0  0  0  0  0  0  0  0  0  0  0  0
    0.5801   -2.3012    0.7361 H   0  0  0  0  0  0  0  0  0  0  0  0
  1  2  1  0  0  0  0
  1 29  1  0  0  0  0
  1 30  1  0  0  0  0
  1 31  1  0  0  0  0
  2  3  1  0  0  0  0
  2 28  2  0  0  0  0
  3  4  2  0  0  0  0
  3 32  1  0  0  0  0
  4  5  1  0  0  0  0
  4 33  1  0  0  0  0
  5  6  2  0  0  0  0
  5 34  1  0  0  0  0
  6  7  1  0  0  0  0
  6 28  1  0  0  0  0
  7  8  1  0  0  0  0
  7 35  1  0  0  0  0
  8  9  2  0  0  0  0
  8 10  1  0  0  0  0
 10 11  1  0  0  0  0
 10 36  1  0  0  0  0
 11 12  1  0  0  0  0
 11 27  2  0  0  0  0
 12 13  2  0  0  0  0
 12 37  1  0  0  0  0
 13 14  1  0  0  0  0
 13 38  1  0  0  0  0
 14 15  1  0  0  0  0
 14 26  2  0  0  0  0
 15 16  2  0  0  0  0
 15 25  1  0  0  0  0
 16 17  1  0  0  0  0
 16 18  1  0  0  0  0
 17 39  1  0  0  0  0
 17 40  1  0  0  0  0
 17 41  1  0  0  0  0
 18 19  1  0  0  0  0
 19 20  1  0  0  0  0
 19 25  2  0  0  0  0
 20 21  2  0  0  0  0
 20 42  1  0  0  0  0
 21 22  1  0  0  0  0
 21 43  1  0  0  0  0
 22 23  2  0  0  0  0
 23 24  1  0  0  0  0
 23 25  1  0  0  0  0
 24 44  1  0  0  0  0
 24 45  1  0  0  0  0
 26 27  1  0  0  0  0
 26 46  1  0  0  0  0
 27 47  1  0  0  0  0
 28 48  1  0  0  0  0
M  END
$$$$
