CHEMBL3696072
 OpenBabel04072215373D

 66 69  0  0  0  0  0  0  0  0999 V2000
    1.0096   -0.1536    0.0915 N   0  0  0  0  0  0  0  0  0  0  0  0
    2.3735   -0.1707   -0.0366 C   0  0  0  0  0  0  0  0  0  0  0  0
    2.9208   -1.1526   -0.5261 O   0  0  0  0  0  0  0  0  0  0  0  0
    3.0680    1.0558    0.3426 C   0  0  0  0  0  0  0  0  0  0  0  0
    4.1956    1.6534   -0.3831 C   0  0  0  0  0  0  0  0  0  0  0  0
    4.7768    1.1266   -1.6303 C   0  0  0  0  0  0  0  0  0  0  0  0
    3.9085    0.6850   -2.6261 C   0  0  0  0  0  0  0  0  0  0  0  0
    4.3884   -0.0025   -3.7331 C   0  0  0  0  0  0  0  0  0  0  0  0
    5.7543   -0.2147   -3.9201 C   0  0  0  0  0  0  0  0  0  0  0  0
    6.2584   -1.0051   -4.9860 N   0  0  0  0  0  0  0  0  0  0  0  0
    5.4827   -1.6426   -5.9401 C   0  0  0  0  0  0  0  0  0  0  0  0
    4.2704   -1.5086   -6.0686 O   0  0  0  0  0  0  0  0  0  0  0  0
    6.2187   -2.5105   -6.7382 N   0  0  0  0  0  0  0  0  0  0  0  0
    5.5529   -3.2340   -7.7621 C   0  0  0  0  0  0  0  0  0  0  0  0
    4.6385   -2.6035   -8.6171 C   0  0  0  0  0  0  0  0  0  0  0  0
    3.8955   -3.3456   -9.5347 C   0  0  0  0  0  0  0  0  0  0  0  0
    4.0648   -4.7253   -9.6047 C   0  0  0  0  0  0  0  0  0  0  0  0
    4.9989   -5.3552   -8.7803 C   0  0  0  0  0  0  0  0  0  0  0  0
    5.7611   -4.6092   -7.8749 C   0  0  0  0  0  0  0  0  0  0  0  0
    6.6411    0.3417   -2.9872 C   0  0  0  0  0  0  0  0  0  0  0  0
    6.1552    1.0068   -1.8435 C   0  0  0  0  0  0  0  0  0  0  0  0
    4.6611    2.8011    0.1250 N   0  0  0  0  0  0  0  0  0  0  0  0
    3.7216    3.2517    1.4073 S   0  0  0  0  0  0  0  0  0  0  0  0
    2.7419    1.8676    1.4137 C   0  0  0  0  0  0  0  0  0  0  0  0
    1.8246    1.7713    2.4453 N   0  0  0  0  0  0  0  0  0  0  0  0
    1.6801    0.5590    3.0884 C   0  0  0  0  0  0  0  0  0  0  0  0
    2.3593   -0.4398    2.8736 O   0  0  0  0  0  0  0  0  0  0  0  0
    0.6539    0.5631    3.9949 N   0  0  0  0  0  0  0  0  0  0  0  0
    0.3582   -0.6257    4.7733 C   0  0  0  0  0  0  0  0  0  0  0  0
    1.0825   -0.5998    6.1164 C   0  0  0  0  0  0  0  0  0  0  0  0
    0.8158   -1.8942    6.8930 C   0  0  0  0  0  0  0  0  0  0  0  0
    1.4331   -1.9336    8.2302 N   0  0  0  0  0  0  0  0  0  0  0  0
    1.1583   -3.2328    8.8947 C   0  0  0  0  0  0  0  0  0  0  0  0
   -0.2975   -3.3916    9.3788 C   0  0  0  0  0  0  0  0  0  0  0  0
   -0.7099   -2.3023   10.2154 O   0  0  0  0  0  0  0  0  0  0  0  0
   -0.5068   -1.0418    9.5653 C   0  0  0  0  0  0  0  0  0  0  0  0
    0.9602   -0.8712    9.1448 C   0  0  0  0  0  0  0  0  0  0  0  0
    0.5423   -1.0326   -0.0837 H   0  0  0  0  0  0  0  0  0  0  0  0
    0.5402    0.5382    0.6544 H   0  0  0  0  0  0  0  0  0  0  0  0
    2.8302    0.7974   -2.5340 H   0  0  0  0  0  0  0  0  0  0  0  0
    3.6341   -0.3965   -4.4020 H   0  0  0  0  0  0  0  0  0  0  0  0
    7.2609   -1.0944   -5.0639 H   0  0  0  0  0  0  0  0  0  0  0  0
    6.9534   -3.0027   -6.2516 H   0  0  0  0  0  0  0  0  0  0  0  0
    4.4705   -1.5308   -8.5530 H   0  0  0  0  0  0  0  0  0  0  0  0
    3.1658   -2.8472  -10.1673 H   0  0  0  0  0  0  0  0  0  0  0  0
    3.4590   -5.3097  -10.2918 H   0  0  0  0  0  0  0  0  0  0  0  0
    5.1106   -6.4355   -8.8228 H   0  0  0  0  0  0  0  0  0  0  0  0
    6.4499   -5.1266   -7.2144 H   0  0  0  0  0  0  0  0  0  0  0  0
    7.7164    0.2413   -3.1117 H   0  0  0  0  0  0  0  0  0  0  0  0
    6.8556    1.3987   -1.1106 H   0  0  0  0  0  0  0  0  0  0  0  0
    1.7146    2.5901    3.0271 H   0  0  0  0  0  0  0  0  0  0  0  0
    0.1295    1.4080    4.1676 H   0  0  0  0  0  0  0  0  0  0  0  0
    0.6415   -1.5183    4.2037 H   0  0  0  0  0  0  0  0  0  0  0  0
   -0.7267   -0.6561    4.9205 H   0  0  0  0  0  0  0  0  0  0  0  0
    0.7271    0.2770    6.6675 H   0  0  0  0  0  0  0  0  0  0  0  0
    2.1614   -0.4683    5.9670 H   0  0  0  0  0  0  0  0  0  0  0  0
    1.2294   -2.7225    6.3025 H   0  0  0  0  0  0  0  0  0  0  0  0
   -0.2656   -2.0618    6.9424 H   0  0  0  0  0  0  0  0  0  0  0  0
    1.8220   -3.3026    9.7666 H   0  0  0  0  0  0  0  0  0  0  0  0
    1.4317   -4.0679    8.2389 H   0  0  0  0  0  0  0  0  0  0  0  0
   -0.3878   -4.3080    9.9709 H   0  0  0  0  0  0  0  0  0  0  0  0
   -0.9954   -3.4792    8.5387 H   0  0  0  0  0  0  0  0  0  0  0  0
   -0.7778   -0.2561   10.2779 H   0  0  0  0  0  0  0  0  0  0  0  0
   -1.1901   -0.9562    8.7131 H   0  0  0  0  0  0  0  0  0  0  0  0
    1.5860   -0.9132   10.0467 H   0  0  0  0  0  0  0  0  0  0  0  0
    1.1293    0.1245    8.7257 H   0  0  0  0  0  0  0  0  0  0  0  0
  1  2  1  0  0  0  0
  1 38  1  0  0  0  0
  1 39  1  0  0  0  0
  2  3  2  0  0  0  0
  2  4  1  0  0  0  0
  4  5  1  0  0  0  0
  4 24  2  0  0  0  0
  5  6  1  0  0  0  0
  5 22  2  0  0  0  0
  6  7  1  0  0  0  0
  6 21  2  0  0  0  0
  7  8  2  0  0  0  0
  7 40  1  0  0  0  0
  8  9  1  0  0  0  0
  8 41  1  0  0  0  0
  9 10  1  0  0  0  0
  9 20  2  0  0  0  0
 10 11  1  0  0  0  0
 10 42  1  0  0  0  0
 11 12  2  0  0  0  0
 11 13  1  0  0  0  0
 13 14  1  0  0  0  0
 13 43  1  0  0  0  0
 14 15  1  0  0  0  0
 14 19  2  0  0  0  0
 15 16  2  0  0  0  0
 15 44  1  0  0  0  0
 16 17  1  0  0  0  0
 16 45  1  0  0  0  0
 17 18  2  0  0  0  0
 17 46  1  0  0  0  0
 18 19  1  0  0  0  0
 18 47  1  0  0  0  0
 19 48  1  0  0  0  0
 20 21  1  0  0  0  0
 20 49  1  0  0  0  0
 21 50  1  0  0  0  0
 22 23  1  0  0  0  0
 23 24  1  0  0  0  0
 24 25  1  0  0  0  0
 25 26  1  0  0  0  0
 25 51  1  0  0  0  0
 26 27  2  0  0  0  0
 26 28  1  0  0  0  0
 28 29  1  0  0  0  0
 28 52  1  0  0  0  0
 29 30  1  0  0  0  0
 29 53  1  0  0  0  0
 29 54  1  0  0  0  0
 30 31  1  0  0  0  0
 30 55  1  0  0  0  0
 30 56  1  0  0  0  0
 31 32  1  0  0  0  0
 31 57  1  0  0  0  0
 31 58  1  0  0  0  0
 32 33  1  0  0  0  0
 32 37  1  0  0  0  0
 33 34  1  0  0  0  0
 33 59  1  0  0  0  0
 33 60  1  0  0  0  0
 34 35  1  0  0  0  0
 34 61  1  0  0  0  0
 34 62  1  0  0  0  0
 35 36  1  0  0  0  0
 36 37  1  0  0  0  0
 36 63  1  0  0  0  0
 36 64  1  0  0  0  0
 37 65  1  0  0  0  0
 37 66  1  0  0  0  0
M  END
$$$$
