CHEMBL3676375
 OpenBabel04072215373D

 61 63  0  0  1  0  0  0  0  0999 V2000
    3.1147   -3.8434    0.2063 C   0  0  0  0  0  0  0  0  0  0  0  0
    3.2771   -2.9240   -0.7537 C   0  0  0  0  0  0  0  0  0  0  0  0
    3.4999   -1.5050   -0.3635 C   0  0  0  0  0  0  0  0  0  0  0  0
    3.0115   -1.0222    0.6506 O   0  0  0  0  0  0  0  0  0  0  0  0
    4.3394   -0.7506   -1.1561 N   0  0  0  0  0  0  0  0  0  0  0  0
    5.1785   -1.3138   -2.1271 C   0  0  0  0  0  0  0  0  0  0  0  0
    6.2490   -2.0871   -1.6791 C   0  0  0  0  0  0  0  0  0  0  0  0
    6.8974   -2.9784   -2.5557 C   0  0  0  0  0  0  0  0  0  0  0  0
    7.8382   -3.9349   -2.1511 C   0  0  0  0  0  0  0  0  0  0  0  0
    8.1289   -4.1121   -0.7685 N   0  0  0  0  0  0  0  0  0  0  0  0
    8.7575   -5.2730   -0.2548 C   0  0  0  0  0  0  0  0  0  0  0  0
    8.3469   -6.5464   -0.6704 C   0  0  0  0  0  0  0  0  0  0  0  0
    9.0722   -7.6826   -0.3173 C   0  0  0  0  0  0  0  0  0  0  0  0
   10.2080   -7.5618    0.4871 C   0  0  0  0  0  0  0  0  0  0  0  0
   11.2124   -9.1413    0.8053 Br  0  0  0  0  0  0  0  0  0  0  0  0
   10.5750   -6.3062    0.9904 C   0  0  0  0  0  0  0  0  0  0  0  0
   11.9432   -6.1009    2.0326 Cl  0  0  0  0  0  0  0  0  0  0  0  0
    9.8433   -5.1785    0.6219 C   0  0  0  0  0  0  0  0  0  0  0  0
   10.1973   -3.9600    1.0709 F   0  0  0  0  0  0  0  0  0  0  0  0
    8.4078   -4.7781   -3.0337 N   0  0  0  0  0  0  0  0  0  0  0  0
    8.0176   -4.6886   -4.3024 C   0  0  0  0  0  0  0  0  0  0  0  0
    7.0928   -3.8535   -4.7812 N   0  0  0  0  0  0  0  0  0  0  0  0
    6.5264   -3.0118   -3.9094 C   0  0  0  0  0  0  0  0  0  0  0  0
    5.5020   -2.1760   -4.3489 C   0  0  0  0  0  0  0  0  0  0  0  0
    4.8207   -1.3143   -3.4830 C   0  0  0  0  0  0  0  0  0  0  0  0
    3.7746   -0.6134   -4.0337 O   0  0  0  0  0  0  0  0  0  0  0  0
    3.6347    0.7372   -3.5646 C   0  0  0  0  0  0  0  0  0  0  0  0
    2.6014    1.5316   -4.3932 C   0  0  3  0  0  0  0  0  0  0  0  0
    1.2264    0.8674   -4.3476 C   0  0  0  0  0  0  0  0  0  0  0  0
    2.4920    2.9097   -3.9017 N   0  0  0  0  0  0  0  0  0  0  0  0
    3.4336    3.8667   -4.2243 C   0  0  0  0  0  0  0  0  0  0  0  0
    4.3305    3.6826   -5.0396 O   0  0  0  0  0  0  0  0  0  0  0  0
    3.2780    5.1853   -3.4517 C   0  0  0  0  0  0  0  0  0  0  0  0
    3.5329    4.9903   -2.0022 N   0  0  0  0  0  0  0  0  0  0  0  0
    4.9246    4.5792   -1.7704 C   0  0  0  0  0  0  0  0  0  0  0  0
    3.2901    6.2521   -1.2918 C   0  0  0  0  0  0  0  0  0  0  0  0
    3.0129   -4.8941   -0.0408 H   0  0  0  0  0  0  0  0  0  0  0  0
    3.0996   -3.5663    1.2568 H   0  0  0  0  0  0  0  0  0  0  0  0
    3.3095   -3.2030   -1.7990 H   0  0  0  0  0  0  0  0  0  0  0  0
    4.7104    0.0245   -0.6167 H   0  0  0  0  0  0  0  0  0  0  0  0
    6.4980   -2.0829   -0.6195 H   0  0  0  0  0  0  0  0  0  0  0  0
    8.5048   -3.2583   -0.3611 H   0  0  0  0  0  0  0  0  0  0  0  0
    7.4770   -6.6536   -1.3169 H   0  0  0  0  0  0  0  0  0  0  0  0
    8.7614   -8.6492   -0.7089 H   0  0  0  0  0  0  0  0  0  0  0  0
    8.4780   -5.3773   -5.0031 H   0  0  0  0  0  0  0  0  0  0  0  0
    5.1927   -2.2364   -5.3916 H   0  0  0  0  0  0  0  0  0  0  0  0
    4.6077    1.2427   -3.5969 H   0  0  0  0  0  0  0  0  0  0  0  0
    3.2655    0.7472   -2.5359 H   0  0  0  0  0  0  0  0  0  0  0  0
    2.9345    1.5608   -5.4391 H   0  0  0  0  0  0  0  0  0  0  0  0
    0.8636    0.7838   -3.3169 H   0  0  0  0  0  0  0  0  0  0  0  0
    1.2531   -0.1364   -4.7826 H   0  0  0  0  0  0  0  0  0  0  0  0
    0.4917    1.4584   -4.9057 H   0  0  0  0  0  0  0  0  0  0  0  0
    1.9839    3.0760   -3.0381 H   0  0  0  0  0  0  0  0  0  0  0  0
    2.2485    5.5324   -3.6078 H   0  0  0  0  0  0  0  0  0  0  0  0
    3.9511    5.9338   -3.8880 H   0  0  0  0  0  0  0  0  0  0  0  0
    5.1419    3.6185   -2.2480 H   0  0  0  0  0  0  0  0  0  0  0  0
    5.1029    4.4321   -0.6990 H   0  0  0  0  0  0  0  0  0  0  0  0
    5.6432    5.3202   -2.1395 H   0  0  0  0  0  0  0  0  0  0  0  0
    2.2583    6.5905   -1.4361 H   0  0  0  0  0  0  0  0  0  0  0  0
    3.9633    7.0527   -1.6251 H   0  0  0  0  0  0  0  0  0  0  0  0
    3.4294    6.1187   -0.2126 H   0  0  0  0  0  0  0  0  0  0  0  0
  1  2  2  0  0  0  0
  1 37  1  0  0  0  0
  1 38  1  0  0  0  0
  2  3  1  0  0  0  0
  2 39  1  0  0  0  0
  3  4  2  0  0  0  0
  3  5  1  0  0  0  0
  5  6  1  0  0  0  0
  5 40  1  0  0  0  0
  6  7  1  0  0  0  0
  6 25  2  0  0  0  0
  7  8  2  0  0  0  0
  7 41  1  0  0  0  0
  8  9  1  0  0  0  0
  8 23  1  0  0  0  0
  9 10  1  0  0  0  0
  9 20  2  0  0  0  0
 10 11  1  0  0  0  0
 10 42  1  0  0  0  0
 11 12  1  0  0  0  0
 11 18  2  0  0  0  0
 12 13  2  0  0  0  0
 12 43  1  0  0  0  0
 13 14  1  0  0  0  0
 13 44  1  0  0  0  0
 14 15  1  0  0  0  0
 14 16  2  0  0  0  0
 16 17  1  0  0  0  0
 16 18  1  0  0  0  0
 18 19  1  0  0  0  0
 20 21  1  0  0  0  0
 21 22  2  0  0  0  0
 21 45  1  0  0  0  0
 22 23  1  0  0  0  0
 23 24  2  0  0  0  0
 24 25  1  0  0  0  0
 24 46  1  0  0  0  0
 25 26  1  0  0  0  0
 26 27  1  0  0  0  0
 27 28  1  0  0  0  0
 27 47  1  0  0  0  0
 27 48  1  0  0  0  0
 28 29  1  0  0  0  0
 28 30  1  0  0  0  0
 28 49  1  0  0  0  0
 29 50  1  0  0  0  0
 29 51  1  0  0  0  0
 29 52  1  0  0  0  0
 30 31  1  0  0  0  0
 30 53  1  0  0  0  0
 31 32  2  0  0  0  0
 31 33  1  0  0  0  0
 33 34  1  0  0  0  0
 33 54  1  0  0  0  0
 33 55  1  0  0  0  0
 34 35  1  0  0  0  0
 34 36  1  0  0  0  0
 35 56  1  0  0  0  0
 35 57  1  0  0  0  0
 35 58  1  0  0  0  0
 36 59  1  0  0  0  0
 36 60  1  0  0  0  0
 36 61  1  0  0  0  0
M  END
$$$$
