CHEMBL2204530
 OpenBabel04072215363D

 60 63  0  0  0  0  0  0  0  0999 V2000
    8.2108   -6.4963   -8.1314 C   0  0  0  0  0  0  0  0  0  0  0  0
    8.9589   -6.1016   -6.8856 C   0  0  0  0  0  0  0  0  0  0  0  0
    9.7001   -6.9079   -6.3336 O   0  0  0  0  0  0  0  0  0  0  0  0
    8.6913   -4.8067   -6.4861 N   0  0  0  0  0  0  0  0  0  0  0  0
    9.3046   -4.2821   -5.3786 C   0  0  0  0  0  0  0  0  0  0  0  0
   10.3477   -4.7544   -4.7474 N   0  0  0  0  0  0  0  0  0  0  0  0
   10.5743   -3.9959   -3.6232 C   0  0  0  0  0  0  0  0  0  0  0  0
   11.5635   -4.1982   -2.6551 C   0  0  0  0  0  0  0  0  0  0  0  0
   11.5730   -3.3398   -1.5584 C   0  0  0  0  0  0  0  0  0  0  0  0
   10.6117   -2.3226   -1.4335 C   0  0  0  0  0  0  0  0  0  0  0  0
   10.6140   -1.5878   -0.2204 N   0  0  0  0  0  0  0  0  0  0  0  0
    9.3198   -1.0230    0.1774 C   0  0  0  0  0  0  0  0  0  0  0  0
   11.7273   -0.9694    0.4042 C   0  0  0  0  0  0  0  0  0  0  0  0
   11.7805   -0.8699    1.8024 C   0  0  0  0  0  0  0  0  0  0  0  0
   12.8042   -0.1662    2.4289 C   0  0  0  0  0  0  0  0  0  0  0  0
   13.8039    0.4344    1.6702 C   0  0  0  0  0  0  0  0  0  0  0  0
   14.6541    1.2274    2.3339 F   0  0  0  0  0  0  0  0  0  0  0  0
   13.8446    0.2909    0.2765 C   0  0  0  0  0  0  0  0  0  0  0  0
   14.8567    0.8396   -0.5634 N   0  0  0  0  0  0  0  0  0  0  0  0
   16.1206    1.2403   -0.1510 C   0  0  0  0  0  0  0  0  0  0  0  0
   16.6000    1.0500    0.9615 O   0  0  0  0  0  0  0  0  0  0  0  0
   17.0082    1.8805   -1.1735 C   0  0  0  0  0  0  0  0  0  0  0  0
   16.5361    2.4928   -2.3382 C   0  0  0  0  0  0  0  0  0  0  0  0
   17.4406    3.0962   -3.2201 C   0  0  0  0  0  0  0  0  0  0  0  0
   18.8112    3.1229   -2.9338 C   0  0  0  0  0  0  0  0  0  0  0  0
   19.2854    2.5683   -1.7498 C   0  0  0  0  0  0  0  0  0  0  0  0
   20.5809    2.5627   -1.3249 O   0  0  0  0  0  0  0  0  0  0  0  0
   21.4799    3.6699   -1.5844 C   0  0  0  0  0  0  0  0  0  0  0  0
   22.4222    3.7137   -0.3671 C   0  0  0  0  0  0  0  0  0  0  0  0
   22.3163    3.3506   -2.8283 C   0  0  0  0  0  0  0  0  0  0  0  0
   20.8424    5.0051   -1.6967 C   0  0  0  0  0  0  0  0  0  0  0  0
   20.3722    6.0619   -1.8090 N   0  0  0  0  0  0  0  0  0  0  0  0
   18.3871    1.9196   -0.8984 C   0  0  0  0  0  0  0  0  0  0  0  0
   12.7867   -0.4063   -0.3430 C   0  0  0  0  0  0  0  0  0  0  0  0
    9.6666   -2.0882   -2.3791 N   0  0  0  0  0  0  0  0  0  0  0  0
    9.7000   -2.9361   -3.4312 C   0  0  0  0  0  0  0  0  0  0  0  0
    8.6085   -2.8515   -4.7493 S   0  0  0  0  0  0  0  0  0  0  0  0
    8.2905   -7.5800   -8.2681 H   0  0  0  0  0  0  0  0  0  0  0  0
    8.6520   -5.9982   -8.9981 H   0  0  0  0  0  0  0  0  0  0  0  0
    7.1521   -6.2398   -8.0441 H   0  0  0  0  0  0  0  0  0  0  0  0
    7.9456   -4.2750   -6.9082 H   0  0  0  0  0  0  0  0  0  0  0  0
   12.2630   -5.0195   -2.7456 H   0  0  0  0  0  0  0  0  0  0  0  0
   12.2856   -3.5154   -0.7597 H   0  0  0  0  0  0  0  0  0  0  0  0
    8.4702   -1.4343   -0.3788 H   0  0  0  0  0  0  0  0  0  0  0  0
    9.3098    0.0662    0.0546 H   0  0  0  0  0  0  0  0  0  0  0  0
    9.1093   -1.2532    1.2292 H   0  0  0  0  0  0  0  0  0  0  0  0
   11.0182   -1.3364    2.4211 H   0  0  0  0  0  0  0  0  0  0  0  0
   12.8197   -0.0538    3.5087 H   0  0  0  0  0  0  0  0  0  0  0  0
   14.6927    0.7774   -1.5585 H   0  0  0  0  0  0  0  0  0  0  0  0
   15.4764    2.5450   -2.5671 H   0  0  0  0  0  0  0  0  0  0  0  0
   17.0776    3.5731   -4.1289 H   0  0  0  0  0  0  0  0  0  0  0  0
   19.4716    3.5993   -3.6503 H   0  0  0  0  0  0  0  0  0  0  0  0
   22.9199    2.7487   -0.2140 H   0  0  0  0  0  0  0  0  0  0  0  0
   21.8618    3.9237    0.5532 H   0  0  0  0  0  0  0  0  0  0  0  0
   23.1909    4.4876   -0.4746 H   0  0  0  0  0  0  0  0  0  0  0  0
   22.8164    2.3795   -2.7228 H   0  0  0  0  0  0  0  0  0  0  0  0
   23.0801    4.1153   -3.0072 H   0  0  0  0  0  0  0  0  0  0  0  0
   21.6984    3.2829   -3.7287 H   0  0  0  0  0  0  0  0  0  0  0  0
   18.7660    1.4622    0.0151 H   0  0  0  0  0  0  0  0  0  0  0  0
   12.7616   -0.4883   -1.4269 H   0  0  0  0  0  0  0  0  0  0  0  0
  1  2  1  0  0  0  0
  1 38  1  0  0  0  0
  1 39  1  0  0  0  0
  1 40  1  0  0  0  0
  2  3  2  0  0  0  0
  2  4  1  0  0  0  0
  4  5  1  0  0  0  0
  4 41  1  0  0  0  0
  5  6  2  0  0  0  0
  5 37  1  0  0  0  0
  6  7  1  0  0  0  0
  7  8  1  0  0  0  0
  7 36  2  0  0  0  0
  8  9  2  0  0  0  0
  8 42  1  0  0  0  0
  9 10  1  0  0  0  0
  9 43  1  0  0  0  0
 10 11  1  0  0  0  0
 10 35  2  0  0  0  0
 11 12  1  0  0  0  0
 11 13  1  0  0  0  0
 12 44  1  0  0  0  0
 12 45  1  0  0  0  0
 12 46  1  0  0  0  0
 13 14  1  0  0  0  0
 13 34  2  0  0  0  0
 14 15  2  0  0  0  0
 14 47  1  0  0  0  0
 15 16  1  0  0  0  0
 15 48  1  0  0  0  0
 16 17  1  0  0  0  0
 16 18  2  0  0  0  0
 18 19  1  0  0  0  0
 18 34  1  0  0  0  0
 19 20  1  0  0  0  0
 19 49  1  0  0  0  0
 20 21  2  0  0  0  0
 20 22  1  0  0  0  0
 22 23  1  0  0  0  0
 22 33  2  0  0  0  0
 23 24  2  0  0  0  0
 23 50  1  0  0  0  0
 24 25  1  0  0  0  0
 24 51  1  0  0  0  0
 25 26  2  0  0  0  0
 25 52  1  0  0  0  0
 26 27  1  0  0  0  0
 26 33  1  0  0  0  0
 27 28  1  0  0  0  0
 28 29  1  0  0  0  0
 28 30  1  0  0  0  0
 28 31  1  0  0  0  0
 29 53  1  0  0  0  0
 29 54  1  0  0  0  0
 29 55  1  0  0  0  0
 30 56  1  0  0  0  0
 30 57  1  0  0  0  0
 30 58  1  0  0  0  0
 31 32  3  0  0  0  0
 33 59  1  0  0  0  0
 34 60  1  0  0  0  0
 35 36  1  0  0  0  0
 36 37  1  0  0  0  0
M  END
$$$$
