CHEMBL249094
 OpenBabel04072215363D

 55 60  0  0  0  0  0  0  0  0999 V2000
    1.4614   -0.0875    7.1766 C   0  0  0  0  0  0  0  0  0  0  0  0
    2.2336   -1.4011    7.1181 C   0  0  0  0  0  0  0  0  0  0  0  0
    1.2560   -2.5743    7.0733 C   0  0  0  0  0  0  0  0  0  0  0  0
    3.0614   -1.3441    5.9513 O   0  0  0  0  0  0  0  0  0  0  0  0
    3.9387   -2.4612    5.8196 C   0  0  0  0  0  0  0  0  0  0  0  0
    4.7983   -2.2992    4.5980 C   0  0  0  0  0  0  0  0  0  0  0  0
    5.6885   -1.2122    4.4734 C   0  0  0  0  0  0  0  0  0  0  0  0
    6.5345   -1.0807    3.3667 C   0  0  0  0  0  0  0  0  0  0  0  0
    6.5392   -2.0271    2.3374 C   0  0  0  0  0  0  0  0  0  0  0  0
    5.6548   -3.0963    2.4727 C   0  0  0  0  0  0  0  0  0  0  0  0
    5.4081   -4.1966    1.6935 N   0  0  0  0  0  0  0  0  0  0  0  0
    4.4368   -4.9458    2.3027 C   0  0  0  0  0  0  0  0  0  0  0  0
    3.9253   -6.2301    1.7534 C   0  0  0  0  0  0  0  0  0  0  0  0
    4.4643   -6.7967    0.6592 N   0  0  0  0  0  0  0  0  0  0  0  0
    3.7324   -7.9235    0.5111 N   0  0  0  0  0  0  0  0  0  0  0  0
    2.7270   -8.0558    1.4227 C   0  0  0  0  0  0  0  0  0  0  0  0
    1.8062   -9.0323    1.4594 N   0  0  0  0  0  0  0  0  0  0  0  0
    0.9250   -8.8710    2.4855 C   0  0  0  0  0  0  0  0  0  0  0  0
    0.9442   -7.8853    3.4874 C   0  0  0  0  0  0  0  0  0  0  0  0
   -0.0514   -7.8431    4.5913 C   0  0  0  0  0  0  0  0  0  0  0  0
   -0.5833   -6.6039    4.9867 C   0  0  0  0  0  0  0  0  0  0  0  0
   -1.5138   -6.4113    5.9491 N   0  0  0  0  0  0  0  0  0  0  0  0
   -1.9802   -7.5198    6.5523 C   0  0  0  0  0  0  0  0  0  0  0  0
   -1.5577   -8.8157    6.2641 C   0  0  0  0  0  0  0  0  0  0  0  0
   -2.1272   -9.9172    6.9291 C   0  0  0  0  0  0  0  0  0  0  0  0
   -1.7090  -11.2138    6.6489 C   0  0  0  0  0  0  0  0  0  0  0  0
   -0.6827  -11.4175    5.7397 C   0  0  0  0  0  0  0  0  0  0  0  0
   -0.0954  -10.3255    5.0948 C   0  0  0  0  0  0  0  0  0  0  0  0
   -0.5456   -8.9923    5.2887 C   0  0  0  0  0  0  0  0  0  0  0  0
    1.9376   -6.8980    3.3539 C   0  0  0  0  0  0  0  0  0  0  0  0
    2.8462   -6.9805    2.2827 C   0  0  0  0  0  0  0  0  0  0  0  0
    4.0349   -4.3845    3.4230 N   0  0  0  0  0  0  0  0  0  0  0  0
    4.7925   -3.2439    3.5543 C   0  0  0  0  0  0  0  0  0  0  0  0
    0.7879   -0.0563    8.0391 H   0  0  0  0  0  0  0  0  0  0  0  0
    0.8707    0.0595    6.2652 H   0  0  0  0  0  0  0  0  0  0  0  0
    2.1510    0.7607    7.2448 H   0  0  0  0  0  0  0  0  0  0  0  0
    2.8690   -1.4750    8.0091 H   0  0  0  0  0  0  0  0  0  0  0  0
    0.7285   -2.6072    6.1142 H   0  0  0  0  0  0  0  0  0  0  0  0
    0.5212   -2.5116    7.8820 H   0  0  0  0  0  0  0  0  0  0  0  0
    1.7790   -3.5294    7.1852 H   0  0  0  0  0  0  0  0  0  0  0  0
    3.3553   -3.3813    5.7270 H   0  0  0  0  0  0  0  0  0  0  0  0
    4.5796   -2.5444    6.7054 H   0  0  0  0  0  0  0  0  0  0  0  0
    5.7171   -0.4581    5.2579 H   0  0  0  0  0  0  0  0  0  0  0  0
    7.2071   -0.2273    3.3104 H   0  0  0  0  0  0  0  0  0  0  0  0
    7.2018   -1.9303    1.4844 H   0  0  0  0  0  0  0  0  0  0  0  0
    5.8536   -4.4449    0.8225 H   0  0  0  0  0  0  0  0  0  0  0  0
    3.9534   -8.5661   -0.2400 H   0  0  0  0  0  0  0  0  0  0  0  0
    0.1371   -9.6221    2.4722 H   0  0  0  0  0  0  0  0  0  0  0  0
   -0.2719   -5.6768    4.5085 H   0  0  0  0  0  0  0  0  0  0  0  0
   -2.7373   -7.3292    7.3100 H   0  0  0  0  0  0  0  0  0  0  0  0
   -2.9134   -9.7689    7.6679 H   0  0  0  0  0  0  0  0  0  0  0  0
   -2.1711  -12.0590    7.1503 H   0  0  0  0  0  0  0  0  0  0  0  0
   -0.3359  -12.4253    5.5236 H   0  0  0  0  0  0  0  0  0  0  0  0
    0.7395  -10.5470    4.4334 H   0  0  0  0  0  0  0  0  0  0  0  0
    2.0194   -6.0654    4.0488 H   0  0  0  0  0  0  0  0  0  0  0  0
  1  2  1  0  0  0  0
  1 34  1  0  0  0  0
  1 35  1  0  0  0  0
  1 36  1  0  0  0  0
  2  3  1  0  0  0  0
  2  4  1  0  0  0  0
  2 37  1  0  0  0  0
  3 38  1  0  0  0  0
  3 39  1  0  0  0  0
  3 40  1  0  0  0  0
  4  5  1  0  0  0  0
  5  6  1  0  0  0  0
  5 41  1  0  0  0  0
  5 42  1  0  0  0  0
  6  7  1  0  0  0  0
  6 33  2  0  0  0  0
  7  8  2  0  0  0  0
  7 43  1  0  0  0  0
  8  9  1  0  0  0  0
  8 44  1  0  0  0  0
  9 10  2  0  0  0  0
  9 45  1  0  0  0  0
 10 11  1  0  0  0  0
 10 33  1  0  0  0  0
 11 12  1  0  0  0  0
 11 46  1  0  0  0  0
 12 13  1  0  0  0  0
 12 32  2  0  0  0  0
 13 14  2  0  0  0  0
 13 31  1  0  0  0  0
 14 15  1  0  0  0  0
 15 16  1  0  0  0  0
 15 47  1  0  0  0  0
 16 17  1  0  0  0  0
 16 31  2  0  0  0  0
 17 18  2  0  0  0  0
 18 19  1  0  0  0  0
 18 48  1  0  0  0  0
 19 20  1  0  0  0  0
 19 30  2  0  0  0  0
 20 21  1  0  0  0  0
 20 29  2  0  0  0  0
 21 22  2  0  0  0  0
 21 49  1  0  0  0  0
 22 23  1  0  0  0  0
 23 24  2  0  0  0  0
 23 50  1  0  0  0  0
 24 25  1  0  0  0  0
 24 29  1  0  0  0  0
 25 26  2  0  0  0  0
 25 51  1  0  0  0  0
 26 27  1  0  0  0  0
 26 52  1  0  0  0  0
 27 28  2  0  0  0  0
 27 53  1  0  0  0  0
 28 29  1  0  0  0  0
 28 54  1  0  0  0  0
 30 31  1  0  0  0  0
 30 55  1  0  0  0  0
 32 33  1  0  0  0  0
M  END
$$$$
