CHEMBL475051
 OpenBabel04072215383D

 48 51  0  0  0  0  0  0  0  0999 V2000
    2.0023    0.1231   -1.5670 O   0  0  0  0  0  0  0  0  0  0  0  0
    2.7332    0.1321   -0.5811 C   0  0  0  0  0  0  0  0  0  0  0  0
    3.0132    1.2810    0.1243 N   0  0  0  0  0  0  0  0  0  0  0  0
    2.4585    2.4707   -0.4017 O   0  0  0  0  0  0  0  0  0  0  0  0
    3.3934   -1.1077   -0.1024 C   0  0  0  0  0  0  0  0  0  0  0  0
    3.7248   -2.1147   -1.0217 C   0  0  0  0  0  0  0  0  0  0  0  0
    4.3424   -3.2992   -0.5902 C   0  0  0  0  0  0  0  0  0  0  0  0
    4.6144   -3.4811    0.7700 C   0  0  0  0  0  0  0  0  0  0  0  0
    5.3152   -4.6675    1.3316 C   0  0  0  0  0  0  0  0  0  0  0  0
    5.9857   -4.4719    2.3458 O   0  0  0  0  0  0  0  0  0  0  0  0
    5.1694   -5.8814    0.6804 N   0  0  0  0  0  0  0  0  0  0  0  0
    5.7164   -7.1076    1.1364 C   0  0  0  0  0  0  0  0  0  0  0  0
    6.1959   -7.2919    2.4363 C   0  0  0  0  0  0  0  0  0  0  0  0
    6.7828   -8.4966    2.8233 C   0  0  0  0  0  0  0  0  0  0  0  0
    6.8958   -9.5380    1.9094 C   0  0  0  0  0  0  0  0  0  0  0  0
    6.3797   -9.4003    0.6151 C   0  0  0  0  0  0  0  0  0  0  0  0
    6.5596  -10.4577   -0.3009 N   0  0  0  0  0  0  0  0  0  0  0  0
    5.6513  -10.7974   -1.2457 C   0  0  0  0  0  0  0  0  0  0  0  0
    4.3574  -10.5813   -1.1736 N   0  0  0  0  0  0  0  0  0  0  0  0
    3.7177  -11.1348   -2.2595 C   0  0  0  0  0  0  0  0  0  0  0  0
    4.5259  -11.7517   -3.1963 C   0  0  0  0  0  0  0  0  0  0  0  0
    4.1559  -12.4710   -4.4180 C   0  0  0  0  0  0  0  0  0  0  0  0
    2.9212  -13.1258   -4.5128 C   0  0  0  0  0  0  0  0  0  0  0  0
    2.5817  -13.8249   -5.6701 C   0  0  0  0  0  0  0  0  0  0  0  0
    3.4890  -13.8459   -6.7138 C   0  0  0  0  0  0  0  0  0  0  0  0
    4.6836  -13.2217   -6.6758 N   0  0  0  0  0  0  0  0  0  0  0  0
    4.9869  -12.5529   -5.5349 C   0  0  0  0  0  0  0  0  0  0  0  0
    6.1590  -11.6132   -2.6749 S   0  0  0  0  0  0  0  0  0  0  0  0
    5.7842   -8.1816    0.2418 C   0  0  0  0  0  0  0  0  0  0  0  0
    4.2681   -2.4705    1.6840 C   0  0  0  0  0  0  0  0  0  0  0  0
    3.6556   -1.2938    1.2567 C   0  0  0  0  0  0  0  0  0  0  0  0
    3.8553    1.3877    0.6807 H   0  0  0  0  0  0  0  0  0  0  0  0
    1.8987    2.1332   -1.1350 H   0  0  0  0  0  0  0  0  0  0  0  0
    3.5159   -1.9695   -2.0809 H   0  0  0  0  0  0  0  0  0  0  0  0
    4.6309   -4.0381   -1.3316 H   0  0  0  0  0  0  0  0  0  0  0  0
    4.6793   -5.9127   -0.2033 H   0  0  0  0  0  0  0  0  0  0  0  0
    6.1120   -6.5148    3.1885 H   0  0  0  0  0  0  0  0  0  0  0  0
    7.1470   -8.6133    3.8420 H   0  0  0  0  0  0  0  0  0  0  0  0
    7.3584  -10.4710    2.2217 H   0  0  0  0  0  0  0  0  0  0  0  0
    7.5366  -10.5989   -0.5318 H   0  0  0  0  0  0  0  0  0  0  0  0
    2.6380  -11.0638   -2.3106 H   0  0  0  0  0  0  0  0  0  0  0  0
    2.2174  -13.1179   -3.6840 H   0  0  0  0  0  0  0  0  0  0  0  0
    1.6342  -14.3461   -5.7496 H   0  0  0  0  0  0  0  0  0  0  0  0
    3.2741  -14.3825   -7.6334 H   0  0  0  0  0  0  0  0  0  0  0  0
    5.9575  -12.0647   -5.5628 H   0  0  0  0  0  0  0  0  0  0  0  0
    5.4127   -8.0683   -0.7731 H   0  0  0  0  0  0  0  0  0  0  0  0
    4.4798   -2.6026    2.7451 H   0  0  0  0  0  0  0  0  0  0  0  0
    3.3728   -0.5519    1.9989 H   0  0  0  0  0  0  0  0  0  0  0  0
  1  2  2  0  0  0  0
  2  3  1  0  0  0  0
  2  5  1  0  0  0  0
  3  4  1  0  0  0  0
  3 32  1  0  0  0  0
  4 33  1  0  0  0  0
  5  6  1  0  0  0  0
  5 31  2  0  0  0  0
  6  7  2  0  0  0  0
  6 34  1  0  0  0  0
  7  8  1  0  0  0  0
  7 35  1  0  0  0  0
  8  9  1  0  0  0  0
  8 30  2  0  0  0  0
  9 10  2  0  0  0  0
  9 11  1  0  0  0  0
 11 12  1  0  0  0  0
 11 36  1  0  0  0  0
 12 13  1  0  0  0  0
 12 29  2  0  0  0  0
 13 14  2  0  0  0  0
 13 37  1  0  0  0  0
 14 15  1  0  0  0  0
 14 38  1  0  0  0  0
 15 16  2  0  0  0  0
 15 39  1  0  0  0  0
 16 17  1  0  0  0  0
 16 29  1  0  0  0  0
 17 18  1  0  0  0  0
 17 40  1  0  0  0  0
 18 19  2  0  0  0  0
 18 28  1  0  0  0  0
 19 20  1  0  0  0  0
 20 21  2  0  0  0  0
 20 41  1  0  0  0  0
 21 22  1  0  0  0  0
 21 28  1  0  0  0  0
 22 23  1  0  0  0  0
 22 27  2  0  0  0  0
 23 24  2  0  0  0  0
 23 42  1  0  0  0  0
 24 25  1  0  0  0  0
 24 43  1  0  0  0  0
 25 26  2  0  0  0  0
 25 44  1  0  0  0  0
 26 27  1  0  0  0  0
 27 45  1  0  0  0  0
 29 46  1  0  0  0  0
 30 31  1  0  0  0  0
 30 47  1  0  0  0  0
 31 48  1  0  0  0  0
M  END
$$$$
