CHEMBL3690482
 OpenBabel04072215373D

 53 56  0  0  0  0  0  0  0  0999 V2000
    0.2741    2.1877    0.2443 C   0  0  0  0  0  0  0  0  0  0  0  0
    1.5032    1.8955   -0.4805 N   0  0  0  0  0  0  0  0  0  0  0  0
    1.4963    2.0496   -1.9280 C   0  0  0  0  0  0  0  0  0  0  0  0
    2.7322    2.0740    0.1598 C   0  0  0  0  0  0  0  0  0  0  0  0
    2.8579    1.8159    1.5145 C   0  0  0  0  0  0  0  0  0  0  0  0
    4.1029    1.9569    2.0761 C   0  0  0  0  0  0  0  0  0  0  0  0
    5.1793    2.3531    1.3880 N   0  0  0  0  0  0  0  0  0  0  0  0
    4.9884    2.6043    0.0798 C   0  0  0  0  0  0  0  0  0  0  0  0
    6.1801    3.1157   -0.6665 C   0  0  0  0  0  0  0  0  0  0  0  0
    7.4757    3.3117    0.0078 C   0  0  0  0  0  0  0  0  0  0  0  0
    8.5326    3.8003   -0.6596 C   0  0  0  0  0  0  0  0  0  0  0  0
    8.4216    4.0932   -2.0201 N   0  0  0  0  0  0  0  0  0  0  0  0
    9.3780    4.5238   -2.9519 C   0  0  0  0  0  0  0  0  0  0  0  0
   10.8298    4.6587   -2.7429 C   0  0  0  0  0  0  0  0  0  0  0  0
   11.5095    3.7881   -1.8845 C   0  0  0  0  0  0  0  0  0  0  0  0
   12.8768    3.9112   -1.6657 C   0  0  0  0  0  0  0  0  0  0  0  0
   13.6106    4.8621   -2.3643 C   0  0  0  0  0  0  0  0  0  0  0  0
   12.9975    5.6988   -3.2977 C   0  0  0  0  0  0  0  0  0  0  0  0
   13.7381    6.6120   -4.0956 N   0  0  0  0  0  0  0  0  0  0  0  0
   15.1140    6.7316   -4.1318 C   0  0  0  0  0  0  0  0  0  0  0  0
   15.9324    6.0752   -3.4970 O   0  0  0  0  0  0  0  0  0  0  0  0
   15.5405    7.7438   -4.9613 N   0  0  0  0  0  0  0  0  0  0  0  0
   16.9887    7.9701   -5.0900 C   0  0  0  0  0  0  0  0  0  0  0  0
   17.7562    6.9957   -5.9954 C   0  0  0  0  0  0  0  0  0  0  0  0
   16.9238    6.2045   -6.7110 F   0  0  0  0  0  0  0  0  0  0  0  0
   18.4996    7.6912   -6.8939 F   0  0  0  0  0  0  0  0  0  0  0  0
   18.6037    6.2049   -5.3058 F   0  0  0  0  0  0  0  0  0  0  0  0
   11.5972    5.6118   -3.4576 C   0  0  0  0  0  0  0  0  0  0  0  0
    8.6310    4.7113   -4.1068 C   0  0  0  0  0  0  0  0  0  0  0  0
    7.3143    4.3654   -3.9447 N   0  0  0  0  0  0  0  0  0  0  0  0
    7.2109    3.9619   -2.6992 C   0  0  0  0  0  0  0  0  0  0  0  0
    6.0871    3.4471   -1.9776 C   0  0  0  0  0  0  0  0  0  0  0  0
    3.8092    2.4605   -0.5606 N   0  0  0  0  0  0  0  0  0  0  0  0
   -0.5966    2.1872   -0.4210 H   0  0  0  0  0  0  0  0  0  0  0  0
    0.3135    3.1680    0.7328 H   0  0  0  0  0  0  0  0  0  0  0  0
    0.0807    1.4185    1.0000 H   0  0  0  0  0  0  0  0  0  0  0  0
    0.4820    1.9446   -2.3303 H   0  0  0  0  0  0  0  0  0  0  0  0
    2.0961    1.2581   -2.3914 H   0  0  0  0  0  0  0  0  0  0  0  0
    1.8761    3.0265   -2.2453 H   0  0  0  0  0  0  0  0  0  0  0  0
    2.0308    1.4809    2.1233 H   0  0  0  0  0  0  0  0  0  0  0  0
    4.2710    1.7450    3.1274 H   0  0  0  0  0  0  0  0  0  0  0  0
    7.5536    3.0621    1.0623 H   0  0  0  0  0  0  0  0  0  0  0  0
    9.4758    3.9768   -0.1652 H   0  0  0  0  0  0  0  0  0  0  0  0
   10.9966    2.9756   -1.3803 H   0  0  0  0  0  0  0  0  0  0  0  0
   13.3829    3.2495   -0.9679 H   0  0  0  0  0  0  0  0  0  0  0  0
   14.6736    4.9061   -2.1589 H   0  0  0  0  0  0  0  0  0  0  0  0
   13.2094    7.2104   -4.7120 H   0  0  0  0  0  0  0  0  0  0  0  0
   14.9752    7.9300   -5.7771 H   0  0  0  0  0  0  0  0  0  0  0  0
   17.4334    7.9478   -4.0873 H   0  0  0  0  0  0  0  0  0  0  0  0
   17.1048    8.9944   -5.4681 H   0  0  0  0  0  0  0  0  0  0  0  0
   11.0977    6.2807   -4.1569 H   0  0  0  0  0  0  0  0  0  0  0  0
    8.9924    5.0431   -5.0708 H   0  0  0  0  0  0  0  0  0  0  0  0
    5.1569    3.3388   -2.5285 H   0  0  0  0  0  0  0  0  0  0  0  0
  1  2  1  0  0  0  0
  1 34  1  0  0  0  0
  1 35  1  0  0  0  0
  1 36  1  0  0  0  0
  2  3  1  0  0  0  0
  2  4  1  0  0  0  0
  3 37  1  0  0  0  0
  3 38  1  0  0  0  0
  3 39  1  0  0  0  0
  4  5  1  0  0  0  0
  4 33  2  0  0  0  0
  5  6  2  0  0  0  0
  5 40  1  0  0  0  0
  6  7  1  0  0  0  0
  6 41  1  0  0  0  0
  7  8  2  0  0  0  0
  8  9  1  0  0  0  0
  8 33  1  0  0  0  0
  9 10  1  0  0  0  0
  9 32  2  0  0  0  0
 10 11  2  0  0  0  0
 10 42  1  0  0  0  0
 11 12  1  0  0  0  0
 11 43  1  0  0  0  0
 12 13  1  0  0  0  0
 12 31  1  0  0  0  0
 13 14  1  0  0  0  0
 13 29  2  0  0  0  0
 14 15  1  0  0  0  0
 14 28  2  0  0  0  0
 15 16  2  0  0  0  0
 15 44  1  0  0  0  0
 16 17  1  0  0  0  0
 16 45  1  0  0  0  0
 17 18  2  0  0  0  0
 17 46  1  0  0  0  0
 18 19  1  0  0  0  0
 18 28  1  0  0  0  0
 19 20  1  0  0  0  0
 19 47  1  0  0  0  0
 20 21  2  0  0  0  0
 20 22  1  0  0  0  0
 22 23  1  0  0  0  0
 22 48  1  0  0  0  0
 23 24  1  0  0  0  0
 23 49  1  0  0  0  0
 23 50  1  0  0  0  0
 24 25  1  0  0  0  0
 24 26  1  0  0  0  0
 24 27  1  0  0  0  0
 28 51  1  0  0  0  0
 29 30  1  0  0  0  0
 29 52  1  0  0  0  0
 30 31  2  0  0  0  0
 31 32  1  0  0  0  0
 32 53  1  0  0  0  0
M  END
$$$$
