CHEMBL3690568
 OpenBabel04072215373D

 52 56  0  0  0  0  0  0  0  0999 V2000
   -0.6947   -3.9475    1.5697 C   0  0  0  0  0  0  0  0  0  0  0  0
   -0.0799   -2.6854    1.0756 C   0  0  0  0  0  0  0  0  0  0  0  0
    1.1895   -2.3747    1.2161 N   0  0  0  0  0  0  0  0  0  0  0  0
    1.4386   -1.1342    0.6523 C   0  0  0  0  0  0  0  0  0  0  0  0
    2.6850   -0.4762    0.6237 C   0  0  0  0  0  0  0  0  0  0  0  0
    2.7982    0.7867    0.0220 C   0  0  0  0  0  0  0  0  0  0  0  0
    4.1019    1.4709   -0.0066 C   0  0  0  0  0  0  0  0  0  0  0  0
    5.0486    1.2866   -1.1042 C   0  0  0  0  0  0  0  0  0  0  0  0
    6.2253    1.9335   -1.0849 C   0  0  0  0  0  0  0  0  0  0  0  0
    6.5493    2.7584   -0.0044 N   0  0  0  0  0  0  0  0  0  0  0  0
    7.6908    3.5061    0.2722 C   0  0  0  0  0  0  0  0  0  0  0  0
    8.9195    3.6282   -0.5303 C   0  0  0  0  0  0  0  0  0  0  0  0
    9.6141    4.8476   -0.4938 C   0  0  0  0  0  0  0  0  0  0  0  0
   10.7890    5.0229   -1.2133 C   0  0  0  0  0  0  0  0  0  0  0  0
   11.2995    3.9757   -1.9690 C   0  0  0  0  0  0  0  0  0  0  0  0
   10.6735    2.7272   -1.9974 C   0  0  0  0  0  0  0  0  0  0  0  0
   11.2194    1.6128   -2.6907 N   0  0  0  0  0  0  0  0  0  0  0  0
   12.4330    1.5937   -3.3396 C   0  0  0  0  0  0  0  0  0  0  0  0
   13.2375    2.5205   -3.4193 O   0  0  0  0  0  0  0  0  0  0  0  0
   12.6951    0.4143   -3.9853 N   0  0  0  0  0  0  0  0  0  0  0  0
   13.9822    0.2975   -4.6976 C   0  0  0  0  0  0  0  0  0  0  0  0
   15.2151   -0.0501   -3.8473 C   0  0  0  0  0  0  0  0  0  0  0  0
   14.8967   -0.3176   -2.5595 F   0  0  0  0  0  0  0  0  0  0  0  0
   15.8116   -1.1660   -4.3412 F   0  0  0  0  0  0  0  0  0  0  0  0
   16.1414    0.9310   -3.8570 F   0  0  0  0  0  0  0  0  0  0  0  0
    9.4720    2.5686   -1.2792 C   0  0  0  0  0  0  0  0  0  0  0  0
    7.3744    4.1567    1.4601 C   0  0  0  0  0  0  0  0  0  0  0  0
    6.1374    3.8222    1.9311 N   0  0  0  0  0  0  0  0  0  0  0  0
    5.6584    2.9766    1.0489 C   0  0  0  0  0  0  0  0  0  0  0  0
    4.4066    2.2979    1.0175 C   0  0  0  0  0  0  0  0  0  0  0  0
    1.6781    1.3842   -0.5609 C   0  0  0  0  0  0  0  0  0  0  0  0
    0.4305    0.7492   -0.5438 C   0  0  0  0  0  0  0  0  0  0  0  0
    0.3339   -0.5094    0.0711 C   0  0  0  0  0  0  0  0  0  0  0  0
   -1.0446   -1.5251    0.2575 S   0  0  0  0  0  0  0  0  0  0  0  0
    0.0569   -4.5696    2.0664 H   0  0  0  0  0  0  0  0  0  0  0  0
   -1.1162   -4.5262    0.7414 H   0  0  0  0  0  0  0  0  0  0  0  0
   -1.4893   -3.7382    2.2935 H   0  0  0  0  0  0  0  0  0  0  0  0
    3.5446   -0.9607    1.0773 H   0  0  0  0  0  0  0  0  0  0  0  0
    4.7754    0.6345   -1.9275 H   0  0  0  0  0  0  0  0  0  0  0  0
    6.9318    1.8414   -1.8950 H   0  0  0  0  0  0  0  0  0  0  0  0
    9.2525    5.6845    0.1002 H   0  0  0  0  0  0  0  0  0  0  0  0
   11.3211    5.9708   -1.1791 H   0  0  0  0  0  0  0  0  0  0  0  0
   12.2113    4.1794   -2.5212 H   0  0  0  0  0  0  0  0  0  0  0  0
   10.6968    0.7526   -2.6561 H   0  0  0  0  0  0  0  0  0  0  0  0
   12.2645   -0.4334   -3.6461 H   0  0  0  0  0  0  0  0  0  0  0  0
   14.1770    1.2469   -5.2112 H   0  0  0  0  0  0  0  0  0  0  0  0
   13.8418   -0.4570   -5.4764 H   0  0  0  0  0  0  0  0  0  0  0  0
    8.9896    1.5980   -1.2814 H   0  0  0  0  0  0  0  0  0  0  0  0
    7.9929    4.8583    2.0073 H   0  0  0  0  0  0  0  0  0  0  0  0
    3.7239    2.4743    1.8429 H   0  0  0  0  0  0  0  0  0  0  0  0
    1.7653    2.3602   -1.0358 H   0  0  0  0  0  0  0  0  0  0  0  0
   -0.4383    1.2214   -0.9916 H   0  0  0  0  0  0  0  0  0  0  0  0
  1  2  1  0  0  0  0
  1 35  1  0  0  0  0
  1 36  1  0  0  0  0
  1 37  1  0  0  0  0
  2  3  2  0  0  0  0
  2 34  1  0  0  0  0
  3  4  1  0  0  0  0
  4  5  1  0  0  0  0
  4 33  2  0  0  0  0
  5  6  2  0  0  0  0
  5 38  1  0  0  0  0
  6  7  1  0  0  0  0
  6 31  1  0  0  0  0
  7  8  1  0  0  0  0
  7 30  2  0  0  0  0
  8  9  2  0  0  0  0
  8 39  1  0  0  0  0
  9 10  1  0  0  0  0
  9 40  1  0  0  0  0
 10 11  1  0  0  0  0
 10 29  1  0  0  0  0
 11 12  1  0  0  0  0
 11 27  2  0  0  0  0
 12 13  1  0  0  0  0
 12 26  2  0  0  0  0
 13 14  2  0  0  0  0
 13 41  1  0  0  0  0
 14 15  1  0  0  0  0
 14 42  1  0  0  0  0
 15 16  2  0  0  0  0
 15 43  1  0  0  0  0
 16 17  1  0  0  0  0
 16 26  1  0  0  0  0
 17 18  1  0  0  0  0
 17 44  1  0  0  0  0
 18 19  2  0  0  0  0
 18 20  1  0  0  0  0
 20 21  1  0  0  0  0
 20 45  1  0  0  0  0
 21 22  1  0  0  0  0
 21 46  1  0  0  0  0
 21 47  1  0  0  0  0
 22 23  1  0  0  0  0
 22 24  1  0  0  0  0
 22 25  1  0  0  0  0
 26 48  1  0  0  0  0
 27 28  1  0  0  0  0
 27 49  1  0  0  0  0
 28 29  2  0  0  0  0
 29 30  1  0  0  0  0
 30 50  1  0  0  0  0
 31 32  2  0  0  0  0
 31 51  1  0  0  0  0
 32 33  1  0  0  0  0
 32 52  1  0  0  0  0
 33 34  1  0  0  0  0
M  END
$$$$
