CHEMBL3946208
 OpenBabel04072215373D

 55 58  0  0  0  0  0  0  0  0999 V2000
    2.5384    0.2517    0.0770 C   0  0  0  0  0  0  0  0  0  0  0  0
    1.0405    0.1145    0.1145 C   0  0  0  0  0  0  0  0  0  0  0  0
    0.3004    1.3130    0.2006 C   0  0  0  0  0  0  0  0  0  0  0  0
   -1.0906    1.3094    0.1901 C   0  0  0  0  0  0  0  0  0  0  0  0
   -1.7728    0.1145    0.0042 C   0  0  0  0  0  0  0  0  0  0  0  0
   -3.1486    0.0253   -0.1095 O   0  0  0  0  0  0  0  0  0  0  0  0
   -3.8339    1.0338   -0.7608 C   0  0  0  0  0  0  0  0  0  0  0  0
   -3.3015    1.7528   -1.8262 C   0  0  0  0  0  0  0  0  0  0  0  0
   -4.0419    2.7987   -2.3276 C   0  0  0  0  0  0  0  0  0  0  0  0
   -5.2752    3.1066   -1.8912 N   0  0  0  0  0  0  0  0  0  0  0  0
   -5.8309    2.3562   -0.9237 C   0  0  0  0  0  0  0  0  0  0  0  0
   -7.1420    2.6436   -0.4944 N   0  0  0  0  0  0  0  0  0  0  0  0
   -7.8871    3.7047   -0.9763 C   0  0  0  0  0  0  0  0  0  0  0  0
   -7.5496    4.5390   -1.7974 O   0  0  0  0  0  0  0  0  0  0  0  0
   -9.2647    3.8698   -0.4075 C   0  0  0  0  0  0  0  0  0  0  0  0
   -9.4184    4.1856    1.0623 C   0  0  0  0  0  0  0  0  0  0  0  0
  -10.0010    2.9215    0.4979 C   0  0  0  0  0  0  0  0  0  0  0  0
   -5.1376    1.3048   -0.3313 C   0  0  0  0  0  0  0  0  0  0  0  0
   -1.0563   -1.0856   -0.0289 C   0  0  0  0  0  0  0  0  0  0  0  0
    0.3530   -1.1205    0.0331 C   0  0  0  0  0  0  0  0  0  0  0  0
    1.0736   -2.3551    0.0441 N   0  0  0  0  0  0  0  0  0  0  0  0
    0.5226   -3.6278   -0.0957 C   0  0  0  0  0  0  0  0  0  0  0  0
   -0.6387   -3.8657   -0.4071 O   0  0  0  0  0  0  0  0  0  0  0  0
    1.4281   -4.6403    0.2197 N   0  0  0  0  0  0  0  0  0  0  0  0
    1.0281   -6.0064    0.1839 C   0  0  0  0  0  0  0  0  0  0  0  0
    1.3579   -6.8329    1.2619 C   0  0  0  0  0  0  0  0  0  0  0  0
    0.9052   -8.1552    1.3031 C   0  0  0  0  0  0  0  0  0  0  0  0
    0.1715   -8.6807    0.2412 C   0  0  0  0  0  0  0  0  0  0  0  0
   -0.1241   -7.8891   -0.8787 C   0  0  0  0  0  0  0  0  0  0  0  0
   -0.8730   -8.4695   -2.0550 C   0  0  0  0  0  0  0  0  0  0  0  0
   -1.1804   -9.7909   -1.9007 F   0  0  0  0  0  0  0  0  0  0  0  0
   -2.0559   -7.8446   -2.3014 F   0  0  0  0  0  0  0  0  0  0  0  0
   -0.1597   -8.3972   -3.2139 F   0  0  0  0  0  0  0  0  0  0  0  0
    0.2975   -6.5437   -0.8865 C   0  0  0  0  0  0  0  0  0  0  0  0
    2.8446    1.2892    0.2697 H   0  0  0  0  0  0  0  0  0  0  0  0
    2.9211   -0.0144   -0.9136 H   0  0  0  0  0  0  0  0  0  0  0  0
    3.0149   -0.3635    0.8440 H   0  0  0  0  0  0  0  0  0  0  0  0
    0.8088    2.2740    0.2692 H   0  0  0  0  0  0  0  0  0  0  0  0
   -1.6231    2.2504    0.2884 H   0  0  0  0  0  0  0  0  0  0  0  0
   -2.3244    1.5398   -2.2421 H   0  0  0  0  0  0  0  0  0  0  0  0
   -3.6550    3.4457   -3.1071 H   0  0  0  0  0  0  0  0  0  0  0  0
   -7.5379    2.0504    0.2102 H   0  0  0  0  0  0  0  0  0  0  0  0
   -9.8972    4.4360   -1.0860 H   0  0  0  0  0  0  0  0  0  0  0  0
  -10.0876    4.9996    1.3199 H   0  0  0  0  0  0  0  0  0  0  0  0
   -8.5495    4.1108    1.7056 H   0  0  0  0  0  0  0  0  0  0  0  0
  -11.0789    2.8745    0.3872 H   0  0  0  0  0  0  0  0  0  0  0  0
   -9.5616    1.9750    0.7848 H   0  0  0  0  0  0  0  0  0  0  0  0
   -5.5799    0.7021    0.4545 H   0  0  0  0  0  0  0  0  0  0  0  0
   -1.6450   -1.9920   -0.1127 H   0  0  0  0  0  0  0  0  0  0  0  0
    2.0811   -2.2989    0.0696 H   0  0  0  0  0  0  0  0  0  0  0  0
    2.0904   -4.3942    0.9404 H   0  0  0  0  0  0  0  0  0  0  0  0
    1.9110   -6.4457    2.1140 H   0  0  0  0  0  0  0  0  0  0  0  0
    1.1106   -8.7746    2.1733 H   0  0  0  0  0  0  0  0  0  0  0  0
   -0.1722   -9.7150    0.2891 H   0  0  0  0  0  0  0  0  0  0  0  0
    0.0517   -5.9176   -1.7458 H   0  0  0  0  0  0  0  0  0  0  0  0
  1  2  1  0  0  0  0
  1 35  1  0  0  0  0
  1 36  1  0  0  0  0
  1 37  1  0  0  0  0
  2  3  1  0  0  0  0
  2 20  2  0  0  0  0
  3  4  2  0  0  0  0
  3 38  1  0  0  0  0
  4  5  1  0  0  0  0
  4 39  1  0  0  0  0
  5  6  1  0  0  0  0
  5 19  2  0  0  0  0
  6  7  1  0  0  0  0
  7  8  1  0  0  0  0
  7 18  2  0  0  0  0
  8  9  2  0  0  0  0
  8 40  1  0  0  0  0
  9 10  1  0  0  0  0
  9 41  1  0  0  0  0
 10 11  2  0  0  0  0
 11 12  1  0  0  0  0
 11 18  1  0  0  0  0
 12 13  1  0  0  0  0
 12 42  1  0  0  0  0
 13 14  2  0  0  0  0
 13 15  1  0  0  0  0
 15 16  1  0  0  0  0
 15 17  1  0  0  0  0
 15 43  1  0  0  0  0
 16 17  1  0  0  0  0
 16 44  1  0  0  0  0
 16 45  1  0  0  0  0
 17 46  1  0  0  0  0
 17 47  1  0  0  0  0
 18 48  1  0  0  0  0
 19 20  1  0  0  0  0
 19 49  1  0  0  0  0
 20 21  1  0  0  0  0
 21 22  1  0  0  0  0
 21 50  1  0  0  0  0
 22 23  2  0  0  0  0
 22 24  1  0  0  0  0
 24 25  1  0  0  0  0
 24 51  1  0  0  0  0
 25 26  1  0  0  0  0
 25 34  2  0  0  0  0
 26 27  2  0  0  0  0
 26 52  1  0  0  0  0
 27 28  1  0  0  0  0
 27 53  1  0  0  0  0
 28 29  2  0  0  0  0
 28 54  1  0  0  0  0
 29 30  1  0  0  0  0
 29 34  1  0  0  0  0
 30 31  1  0  0  0  0
 30 32  1  0  0  0  0
 30 33  1  0  0  0  0
 34 55  1  0  0  0  0
M  END
$$$$
