CHEMBL209922
 OpenBabel04072215363D

 66 71  0  0  0  0  0  0  0  0999 V2000
   -3.3931    4.3911    2.6269 C   0  0  0  0  0  0  0  0  0  0  0  0
   -2.4255    3.3576    2.9825 N   0  0  0  0  0  0  0  0  0  0  0  0
   -3.1009    2.1646    3.5194 C   0  0  0  0  0  0  0  0  0  0  0  0
   -2.0914    1.0402    3.8454 C   0  0  0  0  0  0  0  0  0  0  0  0
   -1.2763    0.6009    2.6918 N   0  0  0  0  0  0  0  0  0  0  0  0
   -2.0530   -0.0813    1.6430 C   0  0  0  0  0  0  0  0  0  0  0  0
   -2.7246   -1.3732    2.0698 C   0  0  0  0  0  0  0  0  0  0  0  0
   -2.0332   -2.6047    1.9509 C   0  0  0  0  0  0  0  0  0  0  0  0
   -2.6479   -3.8232    2.2577 C   0  0  0  0  0  0  0  0  0  0  0  0
   -3.9419   -3.7749    2.7172 C   0  0  0  0  0  0  0  0  0  0  0  0
   -4.6440   -2.5552    2.8990 C   0  0  0  0  0  0  0  0  0  0  0  0
   -4.0465   -1.3555    2.5550 C   0  0  0  0  0  0  0  0  0  0  0  0
   -6.0462   -2.7433    3.5059 C   0  0  0  0  0  0  0  0  0  0  0  0
   -6.0156   -4.2306    3.5907 C   0  0  0  0  0  0  0  0  0  0  0  0
   -6.7707   -5.3193    4.0427 C   0  0  0  0  0  0  0  0  0  0  0  0
   -8.1016   -5.2599    4.7179 C   0  0  0  0  0  0  0  0  0  0  0  0
   -8.7794   -6.3578    5.2042 C   0  0  0  0  0  0  0  0  0  0  0  0
  -10.0124   -5.9962    5.8225 C   0  0  0  0  0  0  0  0  0  0  0  0
  -10.2341   -4.6354    5.7741 C   0  0  0  0  0  0  0  0  0  0  0  0
  -11.3834   -3.8595    6.3018 C   0  0  0  0  0  0  0  0  0  0  0  0
  -12.3953   -3.7574    5.2741 N   0  0  0  0  0  0  0  0  0  0  0  0
  -13.5335   -3.0714    5.6118 C   0  0  0  0  0  0  0  0  0  0  0  0
  -13.7009   -2.6332    6.7452 O   0  0  0  0  0  0  0  0  0  0  0  0
  -14.4252   -2.9859    4.5712 N   0  0  0  0  0  0  0  0  0  0  0  0
  -15.6873   -2.3443    4.6523 C   0  0  0  0  0  0  0  0  0  0  0  0
  -15.9491   -1.3502    5.6033 C   0  0  0  0  0  0  0  0  0  0  0  0
  -17.2276   -0.8087    5.7418 C   0  0  0  0  0  0  0  0  0  0  0  0
  -18.2577   -1.2345    4.9103 C   0  0  0  0  0  0  0  0  0  0  0  0
  -18.0007   -2.1781    3.9154 C   0  0  0  0  0  0  0  0  0  0  0  0
  -16.7191   -2.7221    3.7788 C   0  0  0  0  0  0  0  0  0  0  0  0
  -16.4558   -3.8977    2.5370 Cl  0  0  0  0  0  0  0  0  0  0  0  0
   -8.9540   -3.8125    5.0019 S   0  0  0  0  0  0  0  0  0  0  0  0
   -6.1217   -6.4834    3.8187 N   0  0  0  0  0  0  0  0  0  0  0  0
   -4.9390   -6.1148    3.2633 N   0  0  0  0  0  0  0  0  0  0  0  0
   -4.8485   -4.7798    3.1384 C   0  0  0  0  0  0  0  0  0  0  0  0
   -0.6199    1.8108    2.1344 C   0  0  0  0  0  0  0  0  0  0  0  0
   -1.5760    2.9974    1.8321 C   0  0  0  0  0  0  0  0  0  0  0  0
   -4.0087    4.6562    3.4940 H   0  0  0  0  0  0  0  0  0  0  0  0
   -4.0612    4.0748    1.8176 H   0  0  0  0  0  0  0  0  0  0  0  0
   -2.8787    5.3059    2.3141 H   0  0  0  0  0  0  0  0  0  0  0  0
   -3.8554    1.8010    2.8113 H   0  0  0  0  0  0  0  0  0  0  0  0
   -3.6315    2.4272    4.4420 H   0  0  0  0  0  0  0  0  0  0  0  0
   -2.6057    0.1940    4.3121 H   0  0  0  0  0  0  0  0  0  0  0  0
   -1.4069    1.4062    4.6241 H   0  0  0  0  0  0  0  0  0  0  0  0
   -1.3695   -0.3390    0.8216 H   0  0  0  0  0  0  0  0  0  0  0  0
   -2.8102    0.5684    1.1892 H   0  0  0  0  0  0  0  0  0  0  0  0
   -1.0019   -2.6084    1.6025 H   0  0  0  0  0  0  0  0  0  0  0  0
   -2.1158   -4.7597    2.1468 H   0  0  0  0  0  0  0  0  0  0  0  0
   -4.5904   -0.4242    2.6685 H   0  0  0  0  0  0  0  0  0  0  0  0
   -6.8207   -2.3752    2.8286 H   0  0  0  0  0  0  0  0  0  0  0  0
   -6.1022   -2.2762    4.4926 H   0  0  0  0  0  0  0  0  0  0  0  0
   -8.4027   -7.3714    5.1304 H   0  0  0  0  0  0  0  0  0  0  0  0
  -10.6994   -6.6987    6.2799 H   0  0  0  0  0  0  0  0  0  0  0  0
  -11.0869   -2.8474    6.6042 H   0  0  0  0  0  0  0  0  0  0  0  0
  -11.8194   -4.3521    7.1779 H   0  0  0  0  0  0  0  0  0  0  0  0
  -12.0734   -3.6364    4.3251 H   0  0  0  0  0  0  0  0  0  0  0  0
  -14.3312   -3.6905    3.8495 H   0  0  0  0  0  0  0  0  0  0  0  0
  -15.1696   -0.9795    6.2635 H   0  0  0  0  0  0  0  0  0  0  0  0
  -17.4116   -0.0650    6.5135 H   0  0  0  0  0  0  0  0  0  0  0  0
  -19.2580   -0.8291    5.0381 H   0  0  0  0  0  0  0  0  0  0  0  0
  -18.8078   -2.4967    3.2612 H   0  0  0  0  0  0  0  0  0  0  0  0
   -4.2683   -6.8343    3.0166 H   0  0  0  0  0  0  0  0  0  0  0  0
   -0.0600    1.5522    1.2269 H   0  0  0  0  0  0  0  0  0  0  0  0
    0.1356    2.1490    2.8565 H   0  0  0  0  0  0  0  0  0  0  0  0
   -2.1956    2.7472    0.9614 H   0  0  0  0  0  0  0  0  0  0  0  0
   -0.9658    3.8642    1.5509 H   0  0  0  0  0  0  0  0  0  0  0  0
  1  2  1  0  0  0  0
  1 38  1  0  0  0  0
  1 39  1  0  0  0  0
  1 40  1  0  0  0  0
  2  3  1  0  0  0  0
  2 37  1  0  0  0  0
  3  4  1  0  0  0  0
  3 41  1  0  0  0  0
  3 42  1  0  0  0  0
  4  5  1  0  0  0  0
  4 43  1  0  0  0  0
  4 44  1  0  0  0  0
  5  6  1  0  0  0  0
  5 36  1  0  0  0  0
  6  7  1  0  0  0  0
  6 45  1  0  0  0  0
  6 46  1  0  0  0  0
  7  8  1  0  0  0  0
  7 12  2  0  0  0  0
  8  9  2  0  0  0  0
  8 47  1  0  0  0  0
  9 10  1  0  0  0  0
  9 48  1  0  0  0  0
 10 11  2  0  0  0  0
 10 35  1  0  0  0  0
 11 12  1  0  0  0  0
 11 13  1  0  0  0  0
 12 49  1  0  0  0  0
 13 14  1  0  0  0  0
 13 50  1  0  0  0  0
 13 51  1  0  0  0  0
 14 15  1  0  0  0  0
 14 35  2  0  0  0  0
 15 16  1  0  0  0  0
 15 33  2  0  0  0  0
 16 17  2  0  0  0  0
 16 32  1  0  0  0  0
 17 18  1  0  0  0  0
 17 52  1  0  0  0  0
 18 19  2  0  0  0  0
 18 53  1  0  0  0  0
 19 20  1  0  0  0  0
 19 32  1  0  0  0  0
 20 21  1  0  0  0  0
 20 54  1  0  0  0  0
 20 55  1  0  0  0  0
 21 22  1  0  0  0  0
 21 56  1  0  0  0  0
 22 23  2  0  0  0  0
 22 24  1  0  0  0  0
 24 25  1  0  0  0  0
 24 57  1  0  0  0  0
 25 26  1  0  0  0  0
 25 30  2  0  0  0  0
 26 27  2  0  0  0  0
 26 58  1  0  0  0  0
 27 28  1  0  0  0  0
 27 59  1  0  0  0  0
 28 29  2  0  0  0  0
 28 60  1  0  0  0  0
 29 30  1  0  0  0  0
 29 61  1  0  0  0  0
 30 31  1  0  0  0  0
 33 34  1  0  0  0  0
 34 35  1  0  0  0  0
 34 62  1  0  0  0  0
 36 37  1  0  0  0  0
 36 63  1  0  0  0  0
 36 64  1  0  0  0  0
 37 65  1  0  0  0  0
 37 66  1  0  0  0  0
M  END
$$$$
