CHEMBL3676370
 OpenBabel04072215373D

 57 59  0  0  0  0  0  0  0  0999 V2000
    2.1638   -1.6574   -1.2635 C   0  0  0  0  0  0  0  0  0  0  0  0
    2.8775   -0.6754   -0.6997 C   0  0  0  0  0  0  0  0  0  0  0  0
    3.4870    0.3894   -1.5370 C   0  0  0  0  0  0  0  0  0  0  0  0
    3.1126    0.6104   -2.6812 O   0  0  0  0  0  0  0  0  0  0  0  0
    4.5208    1.0376   -0.8787 N   0  0  0  0  0  0  0  0  0  0  0  0
    5.2188    2.0409   -1.5831 C   0  0  0  0  0  0  0  0  0  0  0  0
    6.2749    1.6480   -2.4066 C   0  0  0  0  0  0  0  0  0  0  0  0
    6.8703    2.5685   -3.3010 C   0  0  0  0  0  0  0  0  0  0  0  0
    7.9042    2.2520   -4.2032 C   0  0  0  0  0  0  0  0  0  0  0  0
    8.3467    0.9165   -4.2999 N   0  0  0  0  0  0  0  0  0  0  0  0
    9.6415    0.4351   -4.5944 C   0  0  0  0  0  0  0  0  0  0  0  0
   10.7872    1.1749   -4.2844 C   0  0  0  0  0  0  0  0  0  0  0  0
   12.0547    0.5881   -4.3415 C   0  0  0  0  0  0  0  0  0  0  0  0
   12.1960   -0.7504   -4.7192 C   0  0  0  0  0  0  0  0  0  0  0  0
   13.9372   -1.5031   -4.6177 Br  0  0  0  0  0  0  0  0  0  0  0  0
   11.0724   -1.4889   -5.0996 C   0  0  0  0  0  0  0  0  0  0  0  0
   11.1775   -3.1359   -5.6158 Cl  0  0  0  0  0  0  0  0  0  0  0  0
    9.8105   -0.8904   -5.0269 C   0  0  0  0  0  0  0  0  0  0  0  0
    8.7116   -1.5993   -5.3438 F   0  0  0  0  0  0  0  0  0  0  0  0
    8.4635    3.1719   -5.0085 N   0  0  0  0  0  0  0  0  0  0  0  0
    7.9550    4.4046   -4.9397 C   0  0  0  0  0  0  0  0  0  0  0  0
    6.9684    4.8141   -4.1323 N   0  0  0  0  0  0  0  0  0  0  0  0
    6.4350    3.8994   -3.3154 C   0  0  0  0  0  0  0  0  0  0  0  0
    5.4210    4.2819   -2.4399 C   0  0  0  0  0  0  0  0  0  0  0  0
    4.8179    3.3817   -1.5524 C   0  0  0  0  0  0  0  0  0  0  0  0
    3.8785    3.9405   -0.7155 O   0  0  0  0  0  0  0  0  0  0  0  0
    3.8030    3.3614    0.5926 C   0  0  0  0  0  0  0  0  0  0  0  0
    3.3884    4.4055    1.6346 C   0  0  0  0  0  0  0  0  0  0  0  0
    3.3680    3.8383    2.9783 N   0  0  0  0  0  0  0  0  0  0  0  0
    4.5422    3.6512    3.6797 C   0  0  0  0  0  0  0  0  0  0  0  0
    5.6162    4.1066    3.3012 O   0  0  0  0  0  0  0  0  0  0  0  0
    4.4154    2.8555    4.9615 C   0  0  0  0  0  0  0  0  0  0  0  0
    3.9971    1.4162    4.7017 C   0  0  0  0  0  0  0  0  0  0  0  0
    4.9681    0.7695    3.8784 O   0  0  0  0  0  0  0  0  0  0  0  0
    4.6162   -0.5760    3.5921 C   0  0  0  0  0  0  0  0  0  0  0  0
    1.6709   -2.4098   -0.6578 H   0  0  0  0  0  0  0  0  0  0  0  0
    2.0456   -1.7259   -2.3427 H   0  0  0  0  0  0  0  0  0  0  0  0
    2.9773   -0.5954    0.3747 H   0  0  0  0  0  0  0  0  0  0  0  0
    5.0882    0.4125   -0.3179 H   0  0  0  0  0  0  0  0  0  0  0  0
    6.6065    0.6131   -2.3937 H   0  0  0  0  0  0  0  0  0  0  0  0
    7.6081    0.3195   -4.6774 H   0  0  0  0  0  0  0  0  0  0  0  0
   10.7022    2.2057   -3.9468 H   0  0  0  0  0  0  0  0  0  0  0  0
   12.9208    1.1791   -4.0507 H   0  0  0  0  0  0  0  0  0  0  0  0
    8.3792    5.1464   -5.6081 H   0  0  0  0  0  0  0  0  0  0  0  0
    5.0937    5.3192   -2.4453 H   0  0  0  0  0  0  0  0  0  0  0  0
    4.7665    2.9372    0.9015 H   0  0  0  0  0  0  0  0  0  0  0  0
    3.0444    2.5707    0.5809 H   0  0  0  0  0  0  0  0  0  0  0  0
    2.3845    4.7880    1.4165 H   0  0  0  0  0  0  0  0  0  0  0  0
    4.0733    5.2583    1.6083 H   0  0  0  0  0  0  0  0  0  0  0  0
    2.5060    3.4410    3.3210 H   0  0  0  0  0  0  0  0  0  0  0  0
    3.6954    3.3551    5.6196 H   0  0  0  0  0  0  0  0  0  0  0  0
    5.3928    2.8755    5.4598 H   0  0  0  0  0  0  0  0  0  0  0  0
    3.0197    1.3759    4.2104 H   0  0  0  0  0  0  0  0  0  0  0  0
    3.9287    0.8833    5.6578 H   0  0  0  0  0  0  0  0  0  0  0  0
    5.3952   -1.0043    2.9539 H   0  0  0  0  0  0  0  0  0  0  0  0
    3.6669   -0.6101    3.0495 H   0  0  0  0  0  0  0  0  0  0  0  0
    4.5510   -1.1618    4.5142 H   0  0  0  0  0  0  0  0  0  0  0  0
  1  2  2  0  0  0  0
  1 36  1  0  0  0  0
  1 37  1  0  0  0  0
  2  3  1  0  0  0  0
  2 38  1  0  0  0  0
  3  4  2  0  0  0  0
  3  5  1  0  0  0  0
  5  6  1  0  0  0  0
  5 39  1  0  0  0  0
  6  7  1  0  0  0  0
  6 25  2  0  0  0  0
  7  8  2  0  0  0  0
  7 40  1  0  0  0  0
  8  9  1  0  0  0  0
  8 23  1  0  0  0  0
  9 10  1  0  0  0  0
  9 20  2  0  0  0  0
 10 11  1  0  0  0  0
 10 41  1  0  0  0  0
 11 12  1  0  0  0  0
 11 18  2  0  0  0  0
 12 13  2  0  0  0  0
 12 42  1  0  0  0  0
 13 14  1  0  0  0  0
 13 43  1  0  0  0  0
 14 15  1  0  0  0  0
 14 16  2  0  0  0  0
 16 17  1  0  0  0  0
 16 18  1  0  0  0  0
 18 19  1  0  0  0  0
 20 21  1  0  0  0  0
 21 22  2  0  0  0  0
 21 44  1  0  0  0  0
 22 23  1  0  0  0  0
 23 24  2  0  0  0  0
 24 25  1  0  0  0  0
 24 45  1  0  0  0  0
 25 26  1  0  0  0  0
 26 27  1  0  0  0  0
 27 28  1  0  0  0  0
 27 46  1  0  0  0  0
 27 47  1  0  0  0  0
 28 29  1  0  0  0  0
 28 48  1  0  0  0  0
 28 49  1  0  0  0  0
 29 30  1  0  0  0  0
 29 50  1  0  0  0  0
 30 31  2  0  0  0  0
 30 32  1  0  0  0  0
 32 33  1  0  0  0  0
 32 51  1  0  0  0  0
 32 52  1  0  0  0  0
 33 34  1  0  0  0  0
 33 53  1  0  0  0  0
 33 54  1  0  0  0  0
 34 35  1  0  0  0  0
 35 55  1  0  0  0  0
 35 56  1  0  0  0  0
 35 57  1  0  0  0  0
M  END
$$$$
