CHEMBL3947990
 OpenBabel04072215373D

 54 58  0  0  0  0  0  0  0  0999 V2000
    1.0888    0.2942   -0.0693 C   0  0  0  0  0  0  0  0  0  0  0  0
    2.1072   -0.6910   -0.2490 O   0  0  0  0  0  0  0  0  0  0  0  0
    2.9005   -0.5506   -1.3596 C   0  0  0  0  0  0  0  0  0  0  0  0
    2.6282    0.2739   -2.4407 C   0  0  0  0  0  0  0  0  0  0  0  0
    3.5087    0.3123   -3.5249 C   0  0  0  0  0  0  0  0  0  0  0  0
    4.6945   -0.4261   -3.5271 C   0  0  0  0  0  0  0  0  0  0  0  0
    5.0541   -1.1995   -2.4253 C   0  0  0  0  0  0  0  0  0  0  0  0
    6.3686   -1.7465   -2.3435 N   0  0  0  0  0  0  0  0  0  0  0  0
    6.7443   -2.2878   -0.9659 C   0  0  0  0  0  0  0  0  0  0  0  0
    6.9279   -1.2300    0.0583 C   0  0  0  0  0  0  0  0  0  0  0  0
    6.9207    0.1336   -0.0324 C   0  0  0  0  0  0  0  0  0  0  0  0
    7.0256    0.5754    1.2929 C   0  0  0  0  0  0  0  0  0  0  0  0
    6.9533    1.9749    1.7581 C   0  0  0  0  0  0  0  0  0  0  0  0
    7.1679   -0.4507    2.1432 N   0  0  0  0  0  0  0  0  0  0  0  0
    7.0906   -1.5986    1.3572 O   0  0  0  0  0  0  0  0  0  0  0  0
    7.2798   -2.1807   -3.3652 C   0  0  0  0  0  0  0  0  0  0  0  0
    7.5372   -3.5289   -3.2908 C   0  0  0  0  0  0  0  0  0  0  0  0
    8.8261   -3.9210   -3.5542 C   0  0  0  0  0  0  0  0  0  0  0  0
    9.6900   -3.1069   -4.2393 C   0  0  0  0  0  0  0  0  0  0  0  0
   10.7527   -3.8244   -4.2161 N   0  0  0  0  0  0  0  0  0  0  0  0
   11.3364   -3.8942   -5.3740 C   0  0  0  0  0  0  0  0  0  0  0  0
   11.4207   -2.8443   -6.2421 C   0  0  0  0  0  0  0  0  0  0  0  0
   12.7896   -3.0373   -6.9251 C   0  0  0  0  0  0  0  0  0  0  0  0
   13.8710   -3.6076   -6.1042 C   0  0  0  0  0  0  0  0  0  0  0  0
   14.6088   -4.5413   -6.6978 N   0  0  0  0  0  0  0  0  0  0  0  0
   14.1412   -4.5740   -7.9485 N   0  0  0  0  0  0  0  0  0  0  0  0
   14.7212   -5.5793   -8.8259 C   0  0  0  0  0  0  0  0  0  0  0  0
   13.0698   -3.6976   -8.1416 C   0  0  0  0  0  0  0  0  0  0  0  0
   10.5247   -1.7746   -6.0118 N   0  0  0  0  0  0  0  0  0  0  0  0
    9.4146   -1.9669   -4.9655 C   0  0  0  0  0  0  0  0  0  0  0  0
    8.1163   -1.4170   -4.3117 C   0  0  0  0  0  0  0  0  0  0  0  0
    4.0838   -1.3084   -1.3793 C   0  0  0  0  0  0  0  0  0  0  0  0
    0.6424    0.1562    0.9215 H   0  0  0  0  0  0  0  0  0  0  0  0
    0.2923    0.1726   -0.8112 H   0  0  0  0  0  0  0  0  0  0  0  0
    1.5061    1.3073   -0.1009 H   0  0  0  0  0  0  0  0  0  0  0  0
    1.7364    0.8897   -2.4740 H   0  0  0  0  0  0  0  0  0  0  0  0
    3.2800    0.9529   -4.3719 H   0  0  0  0  0  0  0  0  0  0  0  0
    5.3634   -0.3401   -4.3835 H   0  0  0  0  0  0  0  0  0  0  0  0
    7.6886   -2.8441   -0.9711 H   0  0  0  0  0  0  0  0  0  0  0  0
    6.0008   -3.0314   -0.6346 H   0  0  0  0  0  0  0  0  0  0  0  0
    6.7845    0.7109   -0.9326 H   0  0  0  0  0  0  0  0  0  0  0  0
    6.7269    2.6441    0.9191 H   0  0  0  0  0  0  0  0  0  0  0  0
    7.9018    2.2940    2.1968 H   0  0  0  0  0  0  0  0  0  0  0  0
    6.1555    2.0926    2.4965 H   0  0  0  0  0  0  0  0  0  0  0  0
    6.9487   -4.2299   -2.7131 H   0  0  0  0  0  0  0  0  0  0  0  0
    9.1530   -4.8878   -3.2712 H   0  0  0  0  0  0  0  0  0  0  0  0
   11.8999   -4.8082   -5.4688 H   0  0  0  0  0  0  0  0  0  0  0  0
   13.9435   -3.5710   -5.0202 H   0  0  0  0  0  0  0  0  0  0  0  0
   15.3584   -6.2564   -8.2328 H   0  0  0  0  0  0  0  0  0  0  0  0
   15.3489   -5.0831   -9.5686 H   0  0  0  0  0  0  0  0  0  0  0  0
   13.9371   -6.1791   -9.2941 H   0  0  0  0  0  0  0  0  0  0  0  0
   12.5864   -3.6861   -9.1085 H   0  0  0  0  0  0  0  0  0  0  0  0
    7.8036   -0.3945   -4.5461 H   0  0  0  0  0  0  0  0  0  0  0  0
    4.2236   -1.9676   -0.5219 H   0  0  0  0  0  0  0  0  0  0  0  0
  1  2  1  0  0  0  0
  1 33  1  0  0  0  0
  1 34  1  0  0  0  0
  1 35  1  0  0  0  0
  2  3  1  0  0  0  0
  3  4  1  0  0  0  0
  3 32  2  0  0  0  0
  4  5  2  0  0  0  0
  4 36  1  0  0  0  0
  5  6  1  0  0  0  0
  5 37  1  0  0  0  0
  6  7  2  0  0  0  0
  6 38  1  0  0  0  0
  7  8  1  0  0  0  0
  7 32  1  0  0  0  0
  8  9  1  0  0  0  0
  8 16  1  0  0  0  0
  9 10  1  0  0  0  0
  9 39  1  0  0  0  0
  9 40  1  0  0  0  0
 10 11  2  0  0  0  0
 10 15  1  0  0  0  0
 11 12  1  0  0  0  0
 11 41  1  0  0  0  0
 12 13  1  0  0  0  0
 12 14  2  0  0  0  0
 13 42  1  0  0  0  0
 13 43  1  0  0  0  0
 13 44  1  0  0  0  0
 14 15  1  0  0  0  0
 16 17  1  0  0  0  0
 16 31  2  0  0  0  0
 17 18  2  0  0  0  0
 17 45  1  0  0  0  0
 18 19  1  0  0  0  0
 18 46  1  0  0  0  0
 19 20  1  0  0  0  0
 19 30  2  0  0  0  0
 20 21  2  0  0  0  0
 21 22  1  0  0  0  0
 21 47  1  0  0  0  0
 22 23  1  0  0  0  0
 22 29  2  0  0  0  0
 23 24  1  0  0  0  0
 23 28  2  0  0  0  0
 24 25  2  0  0  0  0
 24 48  1  0  0  0  0
 25 26  1  0  0  0  0
 26 27  1  0  0  0  0
 26 28  1  0  0  0  0
 27 49  1  0  0  0  0
 27 50  1  0  0  0  0
 27 51  1  0  0  0  0
 28 52  1  0  0  0  0
 29 30  1  0  0  0  0
 30 31  1  0  0  0  0
 31 53  1  0  0  0  0
 32 54  1  0  0  0  0
M  END
$$$$
