CHEMBL3690516
 OpenBabel04072215373D

 54 57  0  0  0  0  0  0  0  0999 V2000
    5.2270   -0.7901    3.3547 O   0  0  0  0  0  0  0  0  0  0  0  0
    6.1463   -1.5719    3.1369 C   0  0  0  0  0  0  0  0  0  0  0  0
    6.7733   -2.2473    4.1662 N   0  0  0  0  0  0  0  0  0  0  0  0
    6.4406   -1.8822    5.5477 C   0  0  0  0  0  0  0  0  0  0  0  0
    7.1699   -0.6401    6.0796 C   0  0  0  0  0  0  0  0  0  0  0  0
    8.0743   -0.1681    5.1889 F   0  0  0  0  0  0  0  0  0  0  0  0
    6.3240    0.3611    6.3926 F   0  0  0  0  0  0  0  0  0  0  0  0
    7.8614   -0.9566    7.2030 F   0  0  0  0  0  0  0  0  0  0  0  0
    6.6692   -1.9197    1.9198 N   0  0  0  0  0  0  0  0  0  0  0  0
    6.2567   -1.4745    0.6440 C   0  0  0  0  0  0  0  0  0  0  0  0
    5.1797   -0.6187    0.4333 C   0  0  0  0  0  0  0  0  0  0  0  0
    4.8027   -0.2691   -0.8634 C   0  0  0  0  0  0  0  0  0  0  0  0
    5.4954   -0.7801   -1.9602 C   0  0  0  0  0  0  0  0  0  0  0  0
    6.5938   -1.6306   -1.7806 C   0  0  0  0  0  0  0  0  0  0  0  0
    7.3372   -2.1183   -2.9494 C   0  0  0  0  0  0  0  0  0  0  0  0
    7.5671   -1.4849   -4.1641 C   0  0  0  0  0  0  0  0  0  0  0  0
    8.3536   -2.2285   -5.0002 N   0  0  0  0  0  0  0  0  0  0  0  0
    8.6097   -3.3314   -4.3354 C   0  0  0  0  0  0  0  0  0  0  0  0
    9.3823   -4.4702   -4.7042 C   0  0  0  0  0  0  0  0  0  0  0  0
    9.4748   -5.5459   -3.8854 C   0  0  0  0  0  0  0  0  0  0  0  0
   10.2395   -6.7330   -4.3376 C   0  0  0  0  0  0  0  0  0  0  0  0
   11.2695   -6.5491   -5.1849 N   0  0  0  0  0  0  0  0  0  0  0  0
   11.9082   -7.6653   -5.5837 C   0  0  0  0  0  0  0  0  0  0  0  0
   11.5506   -8.9247   -5.1730 C   0  0  0  0  0  0  0  0  0  0  0  0
   12.1852  -10.0102   -5.6369 F   0  0  0  0  0  0  0  0  0  0  0  0
   10.4625   -9.0293   -4.3221 C   0  0  0  0  0  0  0  0  0  0  0  0
    9.9379  -10.2921   -4.0597 N   0  0  0  0  0  0  0  0  0  0  0  0
    8.6192  -10.4192   -3.4477 C   0  0  0  0  0  0  0  0  0  0  0  0
    7.5524  -10.1673   -4.5234 C   0  0  0  0  0  0  0  0  0  0  0  0
    7.7915  -11.0180   -5.6506 O   0  0  0  0  0  0  0  0  0  0  0  0
    9.8122   -7.9334   -3.8869 N   0  0  0  0  0  0  0  0  0  0  0  0
    8.7646   -5.5259   -2.6002 C   0  0  0  0  0  0  0  0  0  0  0  0
    8.0319   -4.4576   -2.2495 C   0  0  0  0  0  0  0  0  0  0  0  0
    7.9724   -3.3479   -3.0951 N   0  0  0  0  0  0  0  0  0  0  0  0
    6.9758   -1.9447   -0.4654 C   0  0  0  0  0  0  0  0  0  0  0  0
    7.7333   -2.5052    3.9981 H   0  0  0  0  0  0  0  0  0  0  0  0
    6.6955   -2.7513    6.1620 H   0  0  0  0  0  0  0  0  0  0  0  0
    5.3584   -1.7334    5.6271 H   0  0  0  0  0  0  0  0  0  0  0  0
    7.4041   -2.6174    1.9325 H   0  0  0  0  0  0  0  0  0  0  0  0
    4.6015   -0.2096    1.2560 H   0  0  0  0  0  0  0  0  0  0  0  0
    3.9584    0.3983   -1.0180 H   0  0  0  0  0  0  0  0  0  0  0  0
    5.1630   -0.5009   -2.9583 H   0  0  0  0  0  0  0  0  0  0  0  0
    7.2163   -0.5068   -4.4695 H   0  0  0  0  0  0  0  0  0  0  0  0
    9.8642   -4.4416   -5.6766 H   0  0  0  0  0  0  0  0  0  0  0  0
   12.7211   -7.5231   -6.2872 H   0  0  0  0  0  0  0  0  0  0  0  0
   10.6122  -11.0290   -3.8837 H   0  0  0  0  0  0  0  0  0  0  0  0
    8.4814   -9.7603   -2.5811 H   0  0  0  0  0  0  0  0  0  0  0  0
    8.5208  -11.4524   -3.0931 H   0  0  0  0  0  0  0  0  0  0  0  0
    7.5790   -9.1337   -4.8823 H   0  0  0  0  0  0  0  0  0  0  0  0
    6.5508  -10.3743   -4.1388 H   0  0  0  0  0  0  0  0  0  0  0  0
    8.7402  -10.8960   -5.8535 H   0  0  0  0  0  0  0  0  0  0  0  0
    8.8413   -6.3938   -1.9515 H   0  0  0  0  0  0  0  0  0  0  0  0
    7.4736   -4.4355   -1.3254 H   0  0  0  0  0  0  0  0  0  0  0  0
    7.8656   -2.5429   -0.2943 H   0  0  0  0  0  0  0  0  0  0  0  0
  1  2  2  0  0  0  0
  2  3  1  0  0  0  0
  2  9  1  0  0  0  0
  3  4  1  0  0  0  0
  3 36  1  0  0  0  0
  4  5  1  0  0  0  0
  4 37  1  0  0  0  0
  4 38  1  0  0  0  0
  5  6  1  0  0  0  0
  5  7  1  0  0  0  0
  5  8  1  0  0  0  0
  9 10  1  0  0  0  0
  9 39  1  0  0  0  0
 10 11  1  0  0  0  0
 10 35  2  0  0  0  0
 11 12  2  0  0  0  0
 11 40  1  0  0  0  0
 12 13  1  0  0  0  0
 12 41  1  0  0  0  0
 13 14  2  0  0  0  0
 13 42  1  0  0  0  0
 14 15  1  0  0  0  0
 14 35  1  0  0  0  0
 15 16  2  0  0  0  0
 15 34  1  0  0  0  0
 16 17  1  0  0  0  0
 16 43  1  0  0  0  0
 17 18  2  0  0  0  0
 18 19  1  0  0  0  0
 18 34  1  0  0  0  0
 19 20  2  0  0  0  0
 19 44  1  0  0  0  0
 20 21  1  0  0  0  0
 20 32  1  0  0  0  0
 21 22  1  0  0  0  0
 21 31  2  0  0  0  0
 22 23  2  0  0  0  0
 23 24  1  0  0  0  0
 23 45  1  0  0  0  0
 24 25  1  0  0  0  0
 24 26  2  0  0  0  0
 26 27  1  0  0  0  0
 26 31  1  0  0  0  0
 27 28  1  0  0  0  0
 27 46  1  0  0  0  0
 28 29  1  0  0  0  0
 28 47  1  0  0  0  0
 28 48  1  0  0  0  0
 29 30  1  0  0  0  0
 29 49  1  0  0  0  0
 29 50  1  0  0  0  0
 30 51  1  0  0  0  0
 32 33  2  0  0  0  0
 32 52  1  0  0  0  0
 33 34  1  0  0  0  0
 33 53  1  0  0  0  0
 35 54  1  0  0  0  0
M  END
$$$$
