CHEMBL3690491
 OpenBabel04072215373D

 50 53  0  0  0  0  0  0  0  0999 V2000
    2.9800   -1.4716   -0.4338 C   0  0  0  0  0  0  0  0  0  0  0  0
    2.3973   -0.3144    0.2225 N   0  0  0  0  0  0  0  0  0  0  0  0
    3.1340    0.1601    1.3243 C   0  0  0  0  0  0  0  0  0  0  0  0
    2.6386    1.2594    2.0074 C   0  0  0  0  0  0  0  0  0  0  0  0
    3.3223    1.7504    3.1169 C   0  0  0  0  0  0  0  0  0  0  0  0
    4.5048    1.1401    3.5159 C   0  0  0  0  0  0  0  0  0  0  0  0
    5.2530    1.5610    4.7271 C   0  0  0  0  0  0  0  0  0  0  0  0
    5.9962    0.6122    5.5728 C   0  0  0  0  0  0  0  0  0  0  0  0
    6.5825    1.0304    6.7107 C   0  0  0  0  0  0  0  0  0  0  0  0
    6.4833    2.3718    7.0880 N   0  0  0  0  0  0  0  0  0  0  0  0
    6.9223    3.0562    8.2172 C   0  0  0  0  0  0  0  0  0  0  0  0
    7.6241    2.5395    9.4018 C   0  0  0  0  0  0  0  0  0  0  0  0
    8.5492    3.3863   10.0369 C   0  0  0  0  0  0  0  0  0  0  0  0
    9.1834    3.0077   11.2146 C   0  0  0  0  0  0  0  0  0  0  0  0
    8.8860    1.7795   11.7918 C   0  0  0  0  0  0  0  0  0  0  0  0
    7.9370    0.9304   11.2153 C   0  0  0  0  0  0  0  0  0  0  0  0
    7.5443   -0.2790   11.8365 N   0  0  0  0  0  0  0  0  0  0  0  0
    7.6630   -0.5254   13.1933 C   0  0  0  0  0  0  0  0  0  0  0  0
    8.0467    0.2696   14.0420 O   0  0  0  0  0  0  0  0  0  0  0  0
    7.3291   -1.8041   13.5475 N   0  0  0  0  0  0  0  0  0  0  0  0
    7.3480   -2.1596   14.9734 C   0  0  0  0  0  0  0  0  0  0  0  0
    6.1463   -1.6860   15.8066 C   0  0  0  0  0  0  0  0  0  0  0  0
    5.1697   -1.1510   15.0379 F   0  0  0  0  0  0  0  0  0  0  0  0
    5.5940   -2.7421   16.4575 F   0  0  0  0  0  0  0  0  0  0  0  0
    6.4921   -0.7785   16.7428 F   0  0  0  0  0  0  0  0  0  0  0  0
    7.3365    1.2982    9.9988 C   0  0  0  0  0  0  0  0  0  0  0  0
    6.5471    4.3728    7.9707 C   0  0  0  0  0  0  0  0  0  0  0  0
    5.8999    4.5223    6.7820 N   0  0  0  0  0  0  0  0  0  0  0  0
    5.8585    3.3152    6.2730 C   0  0  0  0  0  0  0  0  0  0  0  0
    5.2573    2.8705    5.0658 C   0  0  0  0  0  0  0  0  0  0  0  0
    4.9762    0.0772    2.8333 N   0  0  0  0  0  0  0  0  0  0  0  0
    4.2938   -0.4001    1.7241 N   0  0  0  0  0  0  0  0  0  0  0  0
    2.2698   -1.8533   -1.1748 H   0  0  0  0  0  0  0  0  0  0  0  0
    3.1890   -2.2850    0.2694 H   0  0  0  0  0  0  0  0  0  0  0  0
    3.8966   -1.1964   -0.9656 H   0  0  0  0  0  0  0  0  0  0  0  0
    1.4392   -0.4848    0.5174 H   0  0  0  0  0  0  0  0  0  0  0  0
    1.7208    1.7399    1.6836 H   0  0  0  0  0  0  0  0  0  0  0  0
    2.9040    2.5916    3.6593 H   0  0  0  0  0  0  0  0  0  0  0  0
    6.0622   -0.4235    5.2527 H   0  0  0  0  0  0  0  0  0  0  0  0
    7.1438    0.3613    7.3467 H   0  0  0  0  0  0  0  0  0  0  0  0
    8.7792    4.3679    9.6281 H   0  0  0  0  0  0  0  0  0  0  0  0
    9.8897    3.6769   11.6980 H   0  0  0  0  0  0  0  0  0  0  0  0
    9.4092    1.5120   12.7057 H   0  0  0  0  0  0  0  0  0  0  0  0
    6.9390   -0.8923   11.3176 H   0  0  0  0  0  0  0  0  0  0  0  0
    6.7198   -2.3310   12.9377 H   0  0  0  0  0  0  0  0  0  0  0  0
    8.2656   -1.7560   15.4183 H   0  0  0  0  0  0  0  0  0  0  0  0
    7.4245   -3.2512   15.0211 H   0  0  0  0  0  0  0  0  0  0  0  0
    6.5839    0.6490    9.5623 H   0  0  0  0  0  0  0  0  0  0  0  0
    6.7076    5.2289    8.6150 H   0  0  0  0  0  0  0  0  0  0  0  0
    4.7821    3.6382    4.4651 H   0  0  0  0  0  0  0  0  0  0  0  0
  1  2  1  0  0  0  0
  1 33  1  0  0  0  0
  1 34  1  0  0  0  0
  1 35  1  0  0  0  0
  2  3  1  0  0  0  0
  2 36  1  0  0  0  0
  3  4  1  0  0  0  0
  3 32  2  0  0  0  0
  4  5  2  0  0  0  0
  4 37  1  0  0  0  0
  5  6  1  0  0  0  0
  5 38  1  0  0  0  0
  6  7  1  0  0  0  0
  6 31  2  0  0  0  0
  7  8  1  0  0  0  0
  7 30  2  0  0  0  0
  8  9  2  0  0  0  0
  8 39  1  0  0  0  0
  9 10  1  0  0  0  0
  9 40  1  0  0  0  0
 10 11  1  0  0  0  0
 10 29  1  0  0  0  0
 11 12  1  0  0  0  0
 11 27  2  0  0  0  0
 12 13  1  0  0  0  0
 12 26  2  0  0  0  0
 13 14  2  0  0  0  0
 13 41  1  0  0  0  0
 14 15  1  0  0  0  0
 14 42  1  0  0  0  0
 15 16  2  0  0  0  0
 15 43  1  0  0  0  0
 16 17  1  0  0  0  0
 16 26  1  0  0  0  0
 17 18  1  0  0  0  0
 17 44  1  0  0  0  0
 18 19  2  0  0  0  0
 18 20  1  0  0  0  0
 20 21  1  0  0  0  0
 20 45  1  0  0  0  0
 21 22  1  0  0  0  0
 21 46  1  0  0  0  0
 21 47  1  0  0  0  0
 22 23  1  0  0  0  0
 22 24  1  0  0  0  0
 22 25  1  0  0  0  0
 26 48  1  0  0  0  0
 27 28  1  0  0  0  0
 27 49  1  0  0  0  0
 28 29  2  0  0  0  0
 29 30  1  0  0  0  0
 30 50  1  0  0  0  0
 31 32  1  0  0  0  0
M  END
$$$$
