CHEMBL3896385
 OpenBabel04072215373D

 61 65  0  0  0  0  0  0  0  0999 V2000
    2.5159   -1.1492   -0.8886 O   0  0  0  0  0  0  0  0  0  0  0  0
    2.1606   -0.0219   -0.5653 C   0  0  0  0  0  0  0  0  0  0  0  0
    0.8369    0.3538   -0.3951 N   0  0  0  0  0  0  0  0  0  0  0  0
   -0.2677   -0.5172   -0.5650 C   0  0  0  0  0  0  0  0  0  0  0  0
   -0.1297   -1.9073   -0.5860 C   0  0  0  0  0  0  0  0  0  0  0  0
   -1.1922   -2.7675   -0.8722 C   0  0  0  0  0  0  0  0  0  0  0  0
   -0.9743   -4.1629   -0.9587 N   0  0  0  0  0  0  0  0  0  0  0  0
   -1.6848   -5.0958   -1.7796 C   0  0  0  0  0  0  0  0  0  0  0  0
   -0.3474   -5.7047   -2.2230 C   0  0  0  0  0  0  0  0  0  0  0  0
   -0.2098   -7.0409   -2.0508 F   0  0  0  0  0  0  0  0  0  0  0  0
    0.0219   -5.4438   -3.5017 F   0  0  0  0  0  0  0  0  0  0  0  0
    0.2967   -4.8176   -1.1562 C   0  0  0  0  0  0  0  0  0  0  0  0
   -2.4577   -2.2036   -1.0428 C   0  0  0  0  0  0  0  0  0  0  0  0
   -2.6495   -0.8118   -0.9477 C   0  0  0  0  0  0  0  0  0  0  0  0
   -4.0275   -0.2117   -1.0642 C   0  0  0  0  0  0  0  0  0  0  0  0
   -5.0138   -1.1309   -1.2547 F   0  0  0  0  0  0  0  0  0  0  0  0
   -4.3786    0.4856    0.0525 F   0  0  0  0  0  0  0  0  0  0  0  0
   -4.1299    0.6682   -2.0982 F   0  0  0  0  0  0  0  0  0  0  0  0
   -1.5405    0.0268   -0.7249 C   0  0  0  0  0  0  0  0  0  0  0  0
    3.0376    1.0252   -0.3603 N   0  0  0  0  0  0  0  0  0  0  0  0
    4.4425    0.9713   -0.5441 C   0  0  0  0  0  0  0  0  0  0  0  0
    5.1236   -0.1625   -0.9907 C   0  0  0  0  0  0  0  0  0  0  0  0
    6.5081   -0.1473   -1.1624 C   0  0  0  0  0  0  0  0  0  0  0  0
    7.2492    0.9925   -0.8450 C   0  0  0  0  0  0  0  0  0  0  0  0
    8.6234    1.0552   -0.9631 O   0  0  0  0  0  0  0  0  0  0  0  0
    9.3768   -0.0667   -0.6688 C   0  0  0  0  0  0  0  0  0  0  0  0
    9.0096   -0.9955    0.3023 C   0  0  0  0  0  0  0  0  0  0  0  0
    9.8207   -2.0898    0.4799 C   0  0  0  0  0  0  0  0  0  0  0  0
   10.9638   -2.2746   -0.1997 N   0  0  0  0  0  0  0  0  0  0  0  0
   11.3566   -1.3545   -1.0967 C   0  0  0  0  0  0  0  0  0  0  0  0
   12.5738   -1.5471   -1.7819 N   0  0  0  0  0  0  0  0  0  0  0  0
   13.4006   -2.6354   -1.5618 C   0  0  0  0  0  0  0  0  0  0  0  0
   13.2193   -3.5586   -0.7773 O   0  0  0  0  0  0  0  0  0  0  0  0
   14.6675   -2.7021   -2.3507 C   0  0  0  0  0  0  0  0  0  0  0  0
   15.7058   -1.6164   -2.1939 C   0  0  0  0  0  0  0  0  0  0  0  0
   15.0587   -1.8550   -3.5289 C   0  0  0  0  0  0  0  0  0  0  0  0
   10.5824   -0.2297   -1.3623 C   0  0  0  0  0  0  0  0  0  0  0  0
    6.5815    2.1447   -0.4321 C   0  0  0  0  0  0  0  0  0  0  0  0
    5.1940    2.1222   -0.2823 C   0  0  0  0  0  0  0  0  0  0  0  0
    4.5637    3.2388    0.1247 F   0  0  0  0  0  0  0  0  0  0  0  0
    0.6406    1.3408   -0.3485 H   0  0  0  0  0  0  0  0  0  0  0  0
    0.8313   -2.3596   -0.3736 H   0  0  0  0  0  0  0  0  0  0  0  0
   -2.2612   -4.6427   -2.5907 H   0  0  0  0  0  0  0  0  0  0  0  0
   -2.3155   -5.7567   -1.1813 H   0  0  0  0  0  0  0  0  0  0  0  0
    1.1034   -4.1897   -1.5396 H   0  0  0  0  0  0  0  0  0  0  0  0
    0.6236   -5.3403   -0.2513 H   0  0  0  0  0  0  0  0  0  0  0  0
   -3.3131   -2.8501   -1.2305 H   0  0  0  0  0  0  0  0  0  0  0  0
   -1.6892    1.1043   -0.6890 H   0  0  0  0  0  0  0  0  0  0  0  0
    2.6730    1.9016   -0.0136 H   0  0  0  0  0  0  0  0  0  0  0  0
    4.6213   -1.0954   -1.2223 H   0  0  0  0  0  0  0  0  0  0  0  0
    6.9859   -1.0541   -1.5226 H   0  0  0  0  0  0  0  0  0  0  0  0
    8.1049   -0.9040    0.8914 H   0  0  0  0  0  0  0  0  0  0  0  0
    9.5706   -2.8759    1.1861 H   0  0  0  0  0  0  0  0  0  0  0  0
   12.8555   -0.8454   -2.4439 H   0  0  0  0  0  0  0  0  0  0  0  0
   15.0522   -3.7212   -2.3778 H   0  0  0  0  0  0  0  0  0  0  0  0
   16.7306   -1.9400   -2.0428 H   0  0  0  0  0  0  0  0  0  0  0  0
   15.4447   -0.7187   -1.6474 H   0  0  0  0  0  0  0  0  0  0  0  0
   15.6608   -2.3334   -4.2968 H   0  0  0  0  0  0  0  0  0  0  0  0
   14.3818   -1.1093   -3.9202 H   0  0  0  0  0  0  0  0  0  0  0  0
   10.8882    0.5105   -2.0926 H   0  0  0  0  0  0  0  0  0  0  0  0
    7.1284    3.0579   -0.2171 H   0  0  0  0  0  0  0  0  0  0  0  0
  1  2  2  0  0  0  0
  2  3  1  0  0  0  0
  2 20  1  0  0  0  0
  3  4  1  0  0  0  0
  3 41  1  0  0  0  0
  4  5  1  0  0  0  0
  4 19  2  0  0  0  0
  5  6  2  0  0  0  0
  5 42  1  0  0  0  0
  6  7  1  0  0  0  0
  6 13  1  0  0  0  0
  7  8  1  0  0  0  0
  7 12  1  0  0  0  0
  8  9  1  0  0  0  0
  8 43  1  0  0  0  0
  8 44  1  0  0  0  0
  9 10  1  0  0  0  0
  9 11  1  0  0  0  0
  9 12  1  0  0  0  0
 12 45  1  0  0  0  0
 12 46  1  0  0  0  0
 13 14  2  0  0  0  0
 13 47  1  0  0  0  0
 14 15  1  0  0  0  0
 14 19  1  0  0  0  0
 15 16  1  0  0  0  0
 15 17  1  0  0  0  0
 15 18  1  0  0  0  0
 19 48  1  0  0  0  0
 20 21  1  0  0  0  0
 20 49  1  0  0  0  0
 21 22  1  0  0  0  0
 21 39  2  0  0  0  0
 22 23  2  0  0  0  0
 22 50  1  0  0  0  0
 23 24  1  0  0  0  0
 23 51  1  0  0  0  0
 24 25  1  0  0  0  0
 24 38  2  0  0  0  0
 25 26  1  0  0  0  0
 26 27  1  0  0  0  0
 26 37  2  0  0  0  0
 27 28  2  0  0  0  0
 27 52  1  0  0  0  0
 28 29  1  0  0  0  0
 28 53  1  0  0  0  0
 29 30  2  0  0  0  0
 30 31  1  0  0  0  0
 30 37  1  0  0  0  0
 31 32  1  0  0  0  0
 31 54  1  0  0  0  0
 32 33  2  0  0  0  0
 32 34  1  0  0  0  0
 34 35  1  0  0  0  0
 34 36  1  0  0  0  0
 34 55  1  0  0  0  0
 35 36  1  0  0  0  0
 35 56  1  0  0  0  0
 35 57  1  0  0  0  0
 36 58  1  0  0  0  0
 36 59  1  0  0  0  0
 37 60  1  0  0  0  0
 38 39  1  0  0  0  0
 38 61  1  0  0  0  0
 39 40  1  0  0  0  0
M  END
$$$$
