CHEMBL3981466
 OpenBabel04072215373D

 52 55  0  0  0  0  0  0  0  0999 V2000
   -3.1586   -0.2106   -0.8762 N   0  0  0  0  0  0  0  0  0  0  0  0
   -2.0377   -0.1423   -0.5965 C   0  0  0  0  0  0  0  0  0  0  0  0
   -0.6387   -0.1015   -0.2709 C   0  0  0  0  0  0  0  0  0  0  0  0
    0.0255   -1.3300   -0.1631 C   0  0  0  0  0  0  0  0  0  0  0  0
    1.4140   -1.4141   -0.0191 C   0  0  0  0  0  0  0  0  0  0  0  0
    2.0813   -2.6693   -0.0101 N   0  0  0  0  0  0  0  0  0  0  0  0
    1.5566   -3.8091   -0.6048 C   0  0  0  0  0  0  0  0  0  0  0  0
    0.5647   -3.8200   -1.3288 O   0  0  0  0  0  0  0  0  0  0  0  0
    2.2511   -4.9609   -0.2634 N   0  0  0  0  0  0  0  0  0  0  0  0
    1.8281   -6.2196   -0.7614 C   0  0  0  0  0  0  0  0  0  0  0  0
    1.6961   -7.2855    0.1221 C   0  0  0  0  0  0  0  0  0  0  0  0
    1.2118   -8.5128   -0.3392 C   0  0  0  0  0  0  0  0  0  0  0  0
    0.9045   -8.7067   -1.6937 C   0  0  0  0  0  0  0  0  0  0  0  0
    0.3349  -10.2755   -2.1311 Cl  0  0  0  0  0  0  0  0  0  0  0  0
    1.0660   -7.6629   -2.6079 C   0  0  0  0  0  0  0  0  0  0  0  0
    0.7928   -7.7743   -4.0850 C   0  0  0  0  0  0  0  0  0  0  0  0
    0.4423   -9.0011   -4.5523 F   0  0  0  0  0  0  0  0  0  0  0  0
   -0.2014   -6.9327   -4.4932 F   0  0  0  0  0  0  0  0  0  0  0  0
    1.8877   -7.4160   -4.8235 F   0  0  0  0  0  0  0  0  0  0  0  0
    1.5171   -6.4138   -2.1156 C   0  0  0  0  0  0  0  0  0  0  0  0
    2.1389   -0.2264    0.1108 C   0  0  0  0  0  0  0  0  0  0  0  0
    1.4798    1.0134    0.0425 C   0  0  0  0  0  0  0  0  0  0  0  0
    0.0852    1.0872   -0.1311 C   0  0  0  0  0  0  0  0  0  0  0  0
   -0.4331    2.3587   -0.2698 O   0  0  0  0  0  0  0  0  0  0  0  0
   -1.6281    2.6852    0.3728 C   0  0  0  0  0  0  0  0  0  0  0  0
   -2.3226    3.7675   -0.1230 C   0  0  0  0  0  0  0  0  0  0  0  0
   -3.5275    4.0371    0.4939 C   0  0  0  0  0  0  0  0  0  0  0  0
   -4.2961    5.1639    0.1694 N   0  0  0  0  0  0  0  0  0  0  0  0
   -3.7268    6.4087    0.0139 C   0  0  0  0  0  0  0  0  0  0  0  0
   -2.5253    6.6423    0.0740 O   0  0  0  0  0  0  0  0  0  0  0  0
   -4.6517    7.5632   -0.1804 C   0  0  0  0  0  0  0  0  0  0  0  0
   -5.7805    7.8593    0.7773 C   0  0  0  0  0  0  0  0  0  0  0  0
   -6.0845    7.4444   -0.6343 C   0  0  0  0  0  0  0  0  0  0  0  0
   -4.0468    3.2605    1.4558 N   0  0  0  0  0  0  0  0  0  0  0  0
   -3.2558    2.2688    1.8888 C   0  0  0  0  0  0  0  0  0  0  0  0
   -2.0425    1.9526    1.4185 N   0  0  0  0  0  0  0  0  0  0  0  0
   -0.5777   -2.2338   -0.2183 H   0  0  0  0  0  0  0  0  0  0  0  0
    3.0807   -2.6673    0.1438 H   0  0  0  0  0  0  0  0  0  0  0  0
    2.6222   -4.9498    0.6770 H   0  0  0  0  0  0  0  0  0  0  0  0
    1.8988   -7.1651    1.1823 H   0  0  0  0  0  0  0  0  0  0  0  0
    1.0611   -9.3227    0.3723 H   0  0  0  0  0  0  0  0  0  0  0  0
    1.6278   -5.5840   -2.8162 H   0  0  0  0  0  0  0  0  0  0  0  0
    3.2206   -0.2396    0.2147 H   0  0  0  0  0  0  0  0  0  0  0  0
    2.0617    1.9310    0.1030 H   0  0  0  0  0  0  0  0  0  0  0  0
   -1.9539    4.3504   -0.9558 H   0  0  0  0  0  0  0  0  0  0  0  0
   -5.2473    5.1250    0.5058 H   0  0  0  0  0  0  0  0  0  0  0  0
   -4.1176    8.4353   -0.5540 H   0  0  0  0  0  0  0  0  0  0  0  0
   -5.9462    8.8993    1.0472 H   0  0  0  0  0  0  0  0  0  0  0  0
   -6.0032    7.1644    1.5771 H   0  0  0  0  0  0  0  0  0  0  0  0
   -6.4482    8.2028   -1.3207 H   0  0  0  0  0  0  0  0  0  0  0  0
   -6.5271    6.4700   -0.7981 H   0  0  0  0  0  0  0  0  0  0  0  0
   -3.6340    1.6647    2.7066 H   0  0  0  0  0  0  0  0  0  0  0  0
  1  2  3  0  0  0  0
  2  3  1  0  0  0  0
  3  4  1  0  0  0  0
  3 23  2  0  0  0  0
  4  5  2  0  0  0  0
  4 37  1  0  0  0  0
  5  6  1  0  0  0  0
  5 21  1  0  0  0  0
  6  7  1  0  0  0  0
  6 38  1  0  0  0  0
  7  8  2  0  0  0  0
  7  9  1  0  0  0  0
  9 10  1  0  0  0  0
  9 39  1  0  0  0  0
 10 11  1  0  0  0  0
 10 20  2  0  0  0  0
 11 12  2  0  0  0  0
 11 40  1  0  0  0  0
 12 13  1  0  0  0  0
 12 41  1  0  0  0  0
 13 14  1  0  0  0  0
 13 15  2  0  0  0  0
 15 16  1  0  0  0  0
 15 20  1  0  0  0  0
 16 17  1  0  0  0  0
 16 18  1  0  0  0  0
 16 19  1  0  0  0  0
 20 42  1  0  0  0  0
 21 22  2  0  0  0  0
 21 43  1  0  0  0  0
 22 23  1  0  0  0  0
 22 44  1  0  0  0  0
 23 24  1  0  0  0  0
 24 25  1  0  0  0  0
 25 26  1  0  0  0  0
 25 36  2  0  0  0  0
 26 27  2  0  0  0  0
 26 45  1  0  0  0  0
 27 28  1  0  0  0  0
 27 34  1  0  0  0  0
 28 29  1  0  0  0  0
 28 46  1  0  0  0  0
 29 30  2  0  0  0  0
 29 31  1  0  0  0  0
 31 32  1  0  0  0  0
 31 33  1  0  0  0  0
 31 47  1  0  0  0  0
 32 33  1  0  0  0  0
 32 48  1  0  0  0  0
 32 49  1  0  0  0  0
 33 50  1  0  0  0  0
 33 51  1  0  0  0  0
 34 35  2  0  0  0  0
 35 36  1  0  0  0  0
 35 52  1  0  0  0  0
M  END
$$$$
