CHEMBL2386809
 OpenBabel04072215363D

 73 77  0  0  0  0  0  0  0  0999 V2000
    3.2878    4.2544   -4.7601 C   0  0  0  0  0  0  0  0  0  0  0  0
    3.7446    3.5890   -3.5003 C   0  0  0  0  0  0  0  0  0  0  0  0
    2.9481    3.7258   -2.4300 N   0  0  0  0  0  0  0  0  0  0  0  0
    3.3732    3.1940   -1.2718 C   0  0  0  0  0  0  0  0  0  0  0  0
    2.5987    3.3196   -0.0902 N   0  0  0  0  0  0  0  0  0  0  0  0
    1.4538    4.0421   -0.0326 C   0  0  0  0  0  0  0  0  0  0  0  0
    0.8942    4.7676    0.9870 C   0  0  0  0  0  0  0  0  0  0  0  0
   -0.2582    5.3951    0.4307 C   0  0  0  0  0  0  0  0  0  0  0  0
   -1.1507    6.3618    1.0809 C   0  0  0  0  0  0  0  0  0  0  0  0
   -0.8835    6.8239    2.3771 C   0  0  0  0  0  0  0  0  0  0  0  0
   -1.7319    7.7426    3.0028 C   0  0  0  0  0  0  0  0  0  0  0  0
   -2.8739    8.2146    2.3475 C   0  0  0  0  0  0  0  0  0  0  0  0
   -3.8274    9.1395    3.0516 C   0  0  0  0  0  0  0  0  0  0  0  0
   -3.5419   10.5417    2.8247 N   0  0  0  0  0  0  0  0  0  0  0  0
   -4.3883   11.4541    3.4280 C   0  0  0  0  0  0  0  0  0  0  0  0
   -5.3495   11.0906    4.0960 O   0  0  0  0  0  0  0  0  0  0  0  0
   -4.0437   12.7522    3.1306 N   0  0  0  0  0  0  0  0  0  0  0  0
   -4.7302   13.8514    3.6253 C   0  0  0  0  0  0  0  0  0  0  0  0
   -4.6361   15.1569    3.0912 C   0  0  0  0  0  0  0  0  0  0  0  0
   -5.4855   15.9239    3.8588 C   0  0  0  0  0  0  0  0  0  0  0  0
   -5.9203   17.3650    3.8613 C   0  0  0  0  0  0  0  0  0  0  0  0
   -5.2780   18.1253    2.6867 C   0  0  0  0  0  0  0  0  0  0  0  0
   -7.4518   17.4579    3.7246 C   0  0  0  0  0  0  0  0  0  0  0  0
   -5.4928   18.0395    5.1769 C   0  0  0  0  0  0  0  0  0  0  0  0
   -6.0224   15.1279    4.8246 O   0  0  0  0  0  0  0  0  0  0  0  0
   -5.5487   13.8429    4.6829 N   0  0  0  0  0  0  0  0  0  0  0  0
   -3.1324    7.7784    1.0428 C   0  0  0  0  0  0  0  0  0  0  0  0
   -2.2815    6.8577    0.4178 C   0  0  0  0  0  0  0  0  0  0  0  0
   -0.4380    5.0025   -0.8433 N   0  0  0  0  0  0  0  0  0  0  0  0
    0.6075    4.1951   -1.0927 N   0  0  0  0  0  0  0  0  0  0  0  0
    4.5492    2.4875   -1.2088 C   0  0  0  0  0  0  0  0  0  0  0  0
    5.3226    2.3984   -2.3533 C   0  0  0  0  0  0  0  0  0  0  0  0
    6.5299    1.7187   -2.2500 N   0  0  0  0  0  0  0  0  0  0  0  0
    7.0978    1.0961   -3.4484 C   0  0  0  0  0  0  0  0  0  0  0  0
    8.1352    0.0396   -2.9729 C   0  0  0  0  0  0  0  0  0  0  0  0
    9.1872    0.5745   -2.0703 N   0  0  0  0  0  0  0  0  0  0  0  0
    8.5562    1.3201   -0.9564 C   0  0  0  0  0  0  0  0  0  0  0  0
    7.5508    2.3902   -1.4307 C   0  0  0  0  0  0  0  0  0  0  0  0
    4.9212    2.9349   -3.5139 N   0  0  0  0  0  0  0  0  0  0  0  0
    2.3513    4.7977   -4.5922 H   0  0  0  0  0  0  0  0  0  0  0  0
    3.1184    3.5086   -5.5408 H   0  0  0  0  0  0  0  0  0  0  0  0
    4.0405    4.9721   -5.0984 H   0  0  0  0  0  0  0  0  0  0  0  0
    3.2043    3.3685    0.7258 H   0  0  0  0  0  0  0  0  0  0  0  0
    1.2979    4.8831    1.9809 H   0  0  0  0  0  0  0  0  0  0  0  0
   -0.0170    6.4732    2.9295 H   0  0  0  0  0  0  0  0  0  0  0  0
   -1.5054    8.0622    4.0177 H   0  0  0  0  0  0  0  0  0  0  0  0
   -3.8061    8.9488    4.1326 H   0  0  0  0  0  0  0  0  0  0  0  0
   -4.8552    8.9391    2.7202 H   0  0  0  0  0  0  0  0  0  0  0  0
   -2.5679   10.7915    2.7845 H   0  0  0  0  0  0  0  0  0  0  0  0
   -3.4455   12.9009    2.3368 H   0  0  0  0  0  0  0  0  0  0  0  0
   -4.0597   15.4877    2.2418 H   0  0  0  0  0  0  0  0  0  0  0  0
   -5.5922   17.7084    1.7223 H   0  0  0  0  0  0  0  0  0  0  0  0
   -4.1835   18.0741    2.7274 H   0  0  0  0  0  0  0  0  0  0  0  0
   -5.5595   19.1845    2.6966 H   0  0  0  0  0  0  0  0  0  0  0  0
   -7.7966   17.0133    2.7836 H   0  0  0  0  0  0  0  0  0  0  0  0
   -7.7874   18.5016    3.7430 H   0  0  0  0  0  0  0  0  0  0  0  0
   -7.9645   16.9348    4.5405 H   0  0  0  0  0  0  0  0  0  0  0  0
   -4.4072   17.9855    5.3182 H   0  0  0  0  0  0  0  0  0  0  0  0
   -5.9616   17.5624    6.0456 H   0  0  0  0  0  0  0  0  0  0  0  0
   -5.7793   19.0977    5.1896 H   0  0  0  0  0  0  0  0  0  0  0  0
   -4.0134    8.1294    0.5095 H   0  0  0  0  0  0  0  0  0  0  0  0
   -2.5151    6.5209   -0.5911 H   0  0  0  0  0  0  0  0  0  0  0  0
    0.7391    3.8102   -2.0220 H   0  0  0  0  0  0  0  0  0  0  0  0
    4.8687    2.0036   -0.2949 H   0  0  0  0  0  0  0  0  0  0  0  0
    7.5878    1.8436   -4.0862 H   0  0  0  0  0  0  0  0  0  0  0  0
    6.3259    0.5904   -4.0403 H   0  0  0  0  0  0  0  0  0  0  0  0
    8.6211   -0.4167   -3.8413 H   0  0  0  0  0  0  0  0  0  0  0  0
    7.6080   -0.7661   -2.4455 H   0  0  0  0  0  0  0  0  0  0  0  0
    9.7518    1.2315   -2.6068 H   0  0  0  0  0  0  0  0  0  0  0  0
    9.3392    1.7966   -0.3567 H   0  0  0  0  0  0  0  0  0  0  0  0
    8.0399    0.6090   -0.2982 H   0  0  0  0  0  0  0  0  0  0  0  0
    8.0664    3.1577   -2.0249 H   0  0  0  0  0  0  0  0  0  0  0  0
    7.1247    2.8908   -0.5537 H   0  0  0  0  0  0  0  0  0  0  0  0
  1  2  1  0  0  0  0
  1 40  1  0  0  0  0
  1 41  1  0  0  0  0
  1 42  1  0  0  0  0
  2  3  1  0  0  0  0
  2 39  2  0  0  0  0
  3  4  2  0  0  0  0
  4  5  1  0  0  0  0
  4 31  1  0  0  0  0
  5  6  1  0  0  0  0
  5 43  1  0  0  0  0
  6  7  2  0  0  0  0
  6 30  1  0  0  0  0
  7  8  1  0  0  0  0
  7 44  1  0  0  0  0
  8  9  1  0  0  0  0
  8 29  2  0  0  0  0
  9 10  1  0  0  0  0
  9 28  2  0  0  0  0
 10 11  2  0  0  0  0
 10 45  1  0  0  0  0
 11 12  1  0  0  0  0
 11 46  1  0  0  0  0
 12 13  1  0  0  0  0
 12 27  2  0  0  0  0
 13 14  1  0  0  0  0
 13 47  1  0  0  0  0
 13 48  1  0  0  0  0
 14 15  1  0  0  0  0
 14 49  1  0  0  0  0
 15 16  2  0  0  0  0
 15 17  1  0  0  0  0
 17 18  1  0  0  0  0
 17 50  1  0  0  0  0
 18 19  1  0  0  0  0
 18 26  2  0  0  0  0
 19 20  2  0  0  0  0
 19 51  1  0  0  0  0
 20 21  1  0  0  0  0
 20 25  1  0  0  0  0
 21 22  1  0  0  0  0
 21 23  1  0  0  0  0
 21 24  1  0  0  0  0
 22 52  1  0  0  0  0
 22 53  1  0  0  0  0
 22 54  1  0  0  0  0
 23 55  1  0  0  0  0
 23 56  1  0  0  0  0
 23 57  1  0  0  0  0
 24 58  1  0  0  0  0
 24 59  1  0  0  0  0
 24 60  1  0  0  0  0
 25 26  1  0  0  0  0
 27 28  1  0  0  0  0
 27 61  1  0  0  0  0
 28 62  1  0  0  0  0
 29 30  1  0  0  0  0
 30 63  1  0  0  0  0
 31 32  2  0  0  0  0
 31 64  1  0  0  0  0
 32 33  1  0  0  0  0
 32 39  1  0  0  0  0
 33 34  1  0  0  0  0
 33 38  1  0  0  0  0
 34 35  1  0  0  0  0
 34 65  1  0  0  0  0
 34 66  1  0  0  0  0
 35 36  1  0  0  0  0
 35 67  1  0  0  0  0
 35 68  1  0  0  0  0
 36 37  1  0  0  0  0
 36 69  1  0  0  0  0
 37 38  1  0  0  0  0
 37 70  1  0  0  0  0
 37 71  1  0  0  0  0
 38 72  1  0  0  0  0
 38 73  1  0  0  0  0
M  END
$$$$
