CHEMBL3321908
 OpenBabel04072215363D

 44 48  0  0  0  0  0  0  0  0999 V2000
    2.9378   -1.6225   -1.3394 F   0  0  0  0  0  0  0  0  0  0  0  0
    2.7798   -0.4039   -0.7527 C   0  0  0  0  0  0  0  0  0  0  0  0
    1.5497   -0.4284   -0.1666 F   0  0  0  0  0  0  0  0  0  0  0  0
    3.6759   -0.3666    0.2741 F   0  0  0  0  0  0  0  0  0  0  0  0
    2.9443    0.7586   -1.7046 C   0  0  0  0  0  0  0  0  0  0  0  0
    3.2176    0.5664   -3.0676 C   0  0  0  0  0  0  0  0  0  0  0  0
    3.3847    1.6620   -3.9330 C   0  0  0  0  0  0  0  0  0  0  0  0
    3.2847    2.9792   -3.4665 C   0  0  0  0  0  0  0  0  0  0  0  0
    3.5330    4.1220   -4.3722 C   0  0  0  0  0  0  0  0  0  0  0  0
    3.7733    4.1054   -5.6798 N   0  0  0  0  0  0  0  0  0  0  0  0
    4.1314    5.3993   -6.0320 C   0  0  0  0  0  0  0  0  0  0  0  0
    4.5324    5.9794   -7.2522 C   0  0  0  0  0  0  0  0  0  0  0  0
    4.9708    7.3334   -7.2770 C   0  0  0  0  0  0  0  0  0  0  0  0
    5.0318    8.0954   -6.1089 C   0  0  0  0  0  0  0  0  0  0  0  0
    5.5339    9.4111   -5.9759 N   0  0  0  0  0  0  0  0  0  0  0  0
    6.1569   10.3585   -6.8368 C   0  0  0  0  0  0  0  0  0  0  0  0
    6.3272   10.1017   -8.1423 N   0  0  0  0  0  0  0  0  0  0  0  0
    6.9340   11.0590   -8.8577 C   0  0  0  0  0  0  0  0  0  0  0  0
    7.3921   12.2352   -8.4051 N   0  0  0  0  0  0  0  0  0  0  0  0
    7.1998   12.4987   -7.1115 C   0  0  0  0  0  0  0  0  0  0  0  0
    7.6563   13.7101   -6.5985 C   0  0  0  0  0  0  0  0  0  0  0  0
    7.4808   14.0660   -5.2588 C   0  0  0  0  0  0  0  0  0  0  0  0
    6.8257   13.1959   -4.4017 C   0  0  0  0  0  0  0  0  0  0  0  0
    6.3652   11.9779   -4.8925 C   0  0  0  0  0  0  0  0  0  0  0  0
    6.5567   11.5976   -6.2536 C   0  0  0  0  0  0  0  0  0  0  0  0
    4.5017    7.5474   -4.9216 C   0  0  0  0  0  0  0  0  0  0  0  0
    4.0905    6.2169   -4.9192 C   0  0  0  0  0  0  0  0  0  0  0  0
    3.6020    5.4212   -3.9230 N   0  0  0  0  0  0  0  0  0  0  0  0
    2.9975    3.1604   -2.0995 C   0  0  0  0  0  0  0  0  0  0  0  0
    2.8308    2.0709   -1.2323 C   0  0  0  0  0  0  0  0  0  0  0  0
    3.3132   -0.4427   -3.4654 H   0  0  0  0  0  0  0  0  0  0  0  0
    3.6131    1.4762   -4.9820 H   0  0  0  0  0  0  0  0  0  0  0  0
    4.5380    5.3825   -8.1595 H   0  0  0  0  0  0  0  0  0  0  0  0
    5.3043    7.7514   -8.2243 H   0  0  0  0  0  0  0  0  0  0  0  0
    6.0376    9.4416   -5.0948 H   0  0  0  0  0  0  0  0  0  0  0  0
    7.0764   10.8687   -9.9164 H   0  0  0  0  0  0  0  0  0  0  0  0
    8.1634   14.4065   -7.2657 H   0  0  0  0  0  0  0  0  0  0  0  0
    7.8531   15.0201   -4.8969 H   0  0  0  0  0  0  0  0  0  0  0  0
    6.6753   13.4650   -3.3582 H   0  0  0  0  0  0  0  0  0  0  0  0
    5.8369   11.3258   -4.2017 H   0  0  0  0  0  0  0  0  0  0  0  0
    4.4549    8.1371   -4.0125 H   0  0  0  0  0  0  0  0  0  0  0  0
    3.4291    5.7265   -2.9802 H   0  0  0  0  0  0  0  0  0  0  0  0
    2.9051    4.1515   -1.6652 H   0  0  0  0  0  0  0  0  0  0  0  0
    2.6199    2.2541   -0.1783 H   0  0  0  0  0  0  0  0  0  0  0  0
  1  2  1  0  0  0  0
  2  3  1  0  0  0  0
  2  4  1  0  0  0  0
  2  5  1  0  0  0  0
  5  6  1  0  0  0  0
  5 30  2  0  0  0  0
  6  7  2  0  0  0  0
  6 31  1  0  0  0  0
  7  8  1  0  0  0  0
  7 32  1  0  0  0  0
  8  9  1  0  0  0  0
  8 29  2  0  0  0  0
  9 10  2  0  0  0  0
  9 28  1  0  0  0  0
 10 11  1  0  0  0  0
 11 12  1  0  0  0  0
 11 27  2  0  0  0  0
 12 13  2  0  0  0  0
 12 33  1  0  0  0  0
 13 14  1  0  0  0  0
 13 34  1  0  0  0  0
 14 15  1  0  0  0  0
 14 26  2  0  0  0  0
 15 16  1  0  0  0  0
 15 35  1  0  0  0  0
 16 17  1  0  0  0  0
 16 25  2  0  0  0  0
 17 18  2  0  0  0  0
 18 19  1  0  0  0  0
 18 36  1  0  0  0  0
 19 20  2  0  0  0  0
 20 21  1  0  0  0  0
 20 25  1  0  0  0  0
 21 22  2  0  0  0  0
 21 37  1  0  0  0  0
 22 23  1  0  0  0  0
 22 38  1  0  0  0  0
 23 24  2  0  0  0  0
 23 39  1  0  0  0  0
 24 25  1  0  0  0  0
 24 40  1  0  0  0  0
 26 27  1  0  0  0  0
 26 41  1  0  0  0  0
 27 28  1  0  0  0  0
 28 42  1  0  0  0  0
 29 30  1  0  0  0  0
 29 43  1  0  0  0  0
 30 44  1  0  0  0  0
M  END
$$$$
