CHEMBL509707
 OpenBabel04072215383D

 61 65  0  0  0  0  0  0  0  0999 V2000
   10.9374   -2.8063   -0.3675 C   0  0  0  0  0  0  0  0  0  0  0  0
    9.8715   -3.7380   -0.1695 O   0  0  0  0  0  0  0  0  0  0  0  0
    8.9578   -3.8296   -1.1897 C   0  0  0  0  0  0  0  0  0  0  0  0
    9.3117   -3.5347   -2.5154 C   0  0  0  0  0  0  0  0  0  0  0  0
    8.4106   -3.5932   -3.5667 C   0  0  0  0  0  0  0  0  0  0  0  0
    8.8523   -3.2287   -4.7803 N   0  0  0  0  0  0  0  0  0  0  0  0
    7.9957   -3.2878   -5.8183 C   0  0  0  0  0  0  0  0  0  0  0  0
    6.6855   -3.6851   -5.7036 C   0  0  0  0  0  0  0  0  0  0  0  0
    6.2085   -4.0092   -4.4301 C   0  0  0  0  0  0  0  0  0  0  0  0
    4.8821   -4.3691   -4.2420 O   0  0  0  0  0  0  0  0  0  0  0  0
    3.9049   -3.6538   -4.9174 C   0  0  0  0  0  0  0  0  0  0  0  0
    2.7800   -4.3594   -5.3536 C   0  0  0  0  0  0  0  0  0  0  0  0
    1.7338   -3.7111   -6.0419 C   0  0  0  0  0  0  0  0  0  0  0  0
    1.8235   -2.3243   -6.2844 C   0  0  0  0  0  0  0  0  0  0  0  0
    1.0212   -1.3110   -6.8995 C   0  0  0  0  0  0  0  0  0  0  0  0
   -0.2241   -1.4771   -7.4725 N   0  0  0  0  0  0  0  0  0  0  0  0
   -1.0509   -0.5059   -7.9896 C   0  0  0  0  0  0  0  0  0  0  0  0
   -2.1521   -0.8571   -8.4118 O   0  0  0  0  0  0  0  0  0  0  0  0
   -0.5580    0.7749   -8.0021 N   0  0  0  0  0  0  0  0  0  0  0  0
   -1.1841    1.9499   -8.4538 C   0  0  0  0  0  0  0  0  0  0  0  0
   -2.5558    2.0446   -8.6773 C   0  0  0  0  0  0  0  0  0  0  0  0
   -3.1120    3.2153   -9.2023 C   0  0  0  0  0  0  0  0  0  0  0  0
   -2.3022    4.3113   -9.5157 C   0  0  0  0  0  0  0  0  0  0  0  0
   -2.8844    5.5239  -10.1793 C   0  0  0  0  0  0  0  0  0  0  0  0
   -0.9340    4.2402   -9.2366 C   0  0  0  0  0  0  0  0  0  0  0  0
   -0.3811    3.0718   -8.6959 C   0  0  0  0  0  0  0  0  0  0  0  0
    1.6218   -0.1172   -6.8506 N   0  0  0  0  0  0  0  0  0  0  0  0
    2.7427   -0.3358   -6.1475 N   0  0  0  0  0  0  0  0  0  0  0  0
    3.5605    0.7921   -5.7791 C   0  0  0  0  0  0  0  0  0  0  0  0
    2.9455   -1.6464   -5.8105 C   0  0  0  0  0  0  0  0  0  0  0  0
    3.9890   -2.2709   -5.1147 C   0  0  0  0  0  0  0  0  0  0  0  0
    7.0895   -4.0049   -3.3191 C   0  0  0  0  0  0  0  0  0  0  0  0
    6.7415   -4.3666   -1.9944 C   0  0  0  0  0  0  0  0  0  0  0  0
    7.6546   -4.2662   -0.9261 C   0  0  0  0  0  0  0  0  0  0  0  0
    7.0962   -4.6217    0.2723 O   0  0  0  0  0  0  0  0  0  0  0  0
    7.7588   -4.2871    1.4839 C   0  0  0  0  0  0  0  0  0  0  0  0
   11.4131   -2.6182    0.5999 H   0  0  0  0  0  0  0  0  0  0  0  0
   10.5716   -1.8444   -0.7468 H   0  0  0  0  0  0  0  0  0  0  0  0
   11.6998   -3.2235   -1.0341 H   0  0  0  0  0  0  0  0  0  0  0  0
   10.3255   -3.2429   -2.7710 H   0  0  0  0  0  0  0  0  0  0  0  0
    8.4093   -2.9758   -6.7734 H   0  0  0  0  0  0  0  0  0  0  0  0
    6.0495   -3.7122   -6.5786 H   0  0  0  0  0  0  0  0  0  0  0  0
    2.7080   -5.4277   -5.1612 H   0  0  0  0  0  0  0  0  0  0  0  0
    0.8696   -4.2809   -6.3723 H   0  0  0  0  0  0  0  0  0  0  0  0
   -0.6201   -2.4030   -7.4853 H   0  0  0  0  0  0  0  0  0  0  0  0
    0.4261    0.8342   -7.7457 H   0  0  0  0  0  0  0  0  0  0  0  0
   -3.2204    1.2184   -8.4457 H   0  0  0  0  0  0  0  0  0  0  0  0
   -4.1840    3.2504   -9.3804 H   0  0  0  0  0  0  0  0  0  0  0  0
   -3.9704    5.4352  -10.2913 H   0  0  0  0  0  0  0  0  0  0  0  0
   -2.4571    5.6402  -11.1812 H   0  0  0  0  0  0  0  0  0  0  0  0
   -2.6792    6.4234   -9.5917 H   0  0  0  0  0  0  0  0  0  0  0  0
   -0.2853    5.0837   -9.4606 H   0  0  0  0  0  0  0  0  0  0  0  0
    0.6887    3.0383   -8.5068 H   0  0  0  0  0  0  0  0  0  0  0  0
    3.1296    1.7058   -6.1868 H   0  0  0  0  0  0  0  0  0  0  0  0
    4.5643    0.6378   -6.1806 H   0  0  0  0  0  0  0  0  0  0  0  0
    3.5814    0.8464   -4.6863 H   0  0  0  0  0  0  0  0  0  0  0  0
    4.8345   -1.6960   -4.7532 H   0  0  0  0  0  0  0  0  0  0  0  0
    5.7344   -4.7216   -1.7803 H   0  0  0  0  0  0  0  0  0  0  0  0
    6.9976   -4.2593    2.2713 H   0  0  0  0  0  0  0  0  0  0  0  0
    8.2178   -3.2946    1.4670 H   0  0  0  0  0  0  0  0  0  0  0  0
    8.4812   -5.0646    1.7508 H   0  0  0  0  0  0  0  0  0  0  0  0
  1  2  1  0  0  0  0
  1 37  1  0  0  0  0
  1 38  1  0  0  0  0
  1 39  1  0  0  0  0
  2  3  1  0  0  0  0
  3  4  1  0  0  0  0
  3 34  2  0  0  0  0
  4  5  2  0  0  0  0
  4 40  1  0  0  0  0
  5  6  1  0  0  0  0
  5 32  1  0  0  0  0
  6  7  2  0  0  0  0
  7  8  1  0  0  0  0
  7 41  1  0  0  0  0
  8  9  2  0  0  0  0
  8 42  1  0  0  0  0
  9 10  1  0  0  0  0
  9 32  1  0  0  0  0
 10 11  1  0  0  0  0
 11 12  1  0  0  0  0
 11 31  2  0  0  0  0
 12 13  2  0  0  0  0
 12 43  1  0  0  0  0
 13 14  1  0  0  0  0
 13 44  1  0  0  0  0
 14 15  1  0  0  0  0
 14 30  2  0  0  0  0
 15 16  1  0  0  0  0
 15 27  2  0  0  0  0
 16 17  1  0  0  0  0
 16 45  1  0  0  0  0
 17 18  2  0  0  0  0
 17 19  1  0  0  0  0
 19 20  1  0  0  0  0
 19 46  1  0  0  0  0
 20 21  1  0  0  0  0
 20 26  2  0  0  0  0
 21 22  2  0  0  0  0
 21 47  1  0  0  0  0
 22 23  1  0  0  0  0
 22 48  1  0  0  0  0
 23 24  1  0  0  0  0
 23 25  2  0  0  0  0
 24 49  1  0  0  0  0
 24 50  1  0  0  0  0
 24 51  1  0  0  0  0
 25 26  1  0  0  0  0
 25 52  1  0  0  0  0
 26 53  1  0  0  0  0
 27 28  1  0  0  0  0
 28 29  1  0  0  0  0
 28 30  1  0  0  0  0
 29 54  1  0  0  0  0
 29 55  1  0  0  0  0
 29 56  1  0  0  0  0
 30 31  1  0  0  0  0
 31 57  1  0  0  0  0
 32 33  2  0  0  0  0
 33 34  1  0  0  0  0
 33 58  1  0  0  0  0
 34 35  1  0  0  0  0
 35 36  1  0  0  0  0
 36 59  1  0  0  0  0
 36 60  1  0  0  0  0
 36 61  1  0  0  0  0
M  END
$$$$
