CHEMBL150085
 OpenBabel04072215363D

 58 63  0  0  1  0  0  0  0  0999 V2000
    0.5192    0.4776    0.2786 C   0  0  0  0  0  0  0  0  0  0  0  0
    1.9211    0.4273    0.0907 O   0  0  0  0  0  0  0  0  0  0  0  0
    2.3543    0.7760   -1.2271 C   0  0  3  0  0  0  0  0  0  0  0  0
    1.9694    2.2098   -1.6058 C   0  0  0  0  0  0  0  0  0  0  0  0
    3.8685    0.7039   -1.2556 C   0  0  0  0  0  0  0  0  0  0  0  0
    4.5361    0.4925   -2.4638 C   0  0  0  0  0  0  0  0  0  0  0  0
    5.9202    0.7182   -2.5713 C   0  0  0  0  0  0  0  0  0  0  0  0
    6.6137    1.1927   -1.4454 C   0  0  0  0  0  0  0  0  0  0  0  0
    5.9591    1.2940   -0.2020 C   0  0  0  0  0  0  0  0  0  0  0  0
    4.5953    1.0168   -0.0991 C   0  0  0  0  0  0  0  0  0  0  0  0
    6.9895    1.6202    0.6427 C   0  0  0  0  0  0  0  0  0  0  0  0
    7.0645    1.2629    2.0093 C   0  0  0  0  0  0  0  0  0  0  0  0
    8.4118    1.0357    2.5067 C   0  0  0  0  0  0  0  0  0  0  0  0
    9.5141    1.4124    1.7325 C   0  0  0  0  0  0  0  0  0  0  0  0
    9.1697    2.4271    0.8392 C   0  0  0  0  0  0  0  0  0  0  0  0
    8.1100    2.0870    0.0321 C   0  0  0  0  0  0  0  0  0  0  0  0
    7.9777    1.5089   -1.2456 N   0  0  0  0  0  0  0  0  0  0  0  0
    9.0603    0.7535   -1.8643 C   0  0  0  0  0  0  0  0  0  0  0  0
    9.1478    0.5455   -3.3700 C   0  0  0  0  0  0  0  0  0  0  0  0
    9.3208    1.8573   -4.1095 C   0  0  0  0  0  0  0  0  0  0  0  0
    9.3837    1.6119   -5.5077 O   0  0  0  0  0  0  0  0  0  0  0  0
   10.3447    3.2883    0.6677 C   0  0  0  0  0  0  0  0  0  0  0  0
   11.3528    2.1836    0.5276 C   0  0  0  0  0  0  0  0  0  0  0  0
   12.2539    2.2116   -0.5306 C   0  0  0  0  0  0  0  0  0  0  0  0
   12.5902    0.9970   -1.0919 C   0  0  0  0  0  0  0  0  0  0  0  0
   12.0977   -0.1956   -0.5215 C   0  0  0  0  0  0  0  0  0  0  0  0
   11.2408   -0.2077    0.6227 C   0  0  0  0  0  0  0  0  0  0  0  0
   10.8256    1.0058    1.1751 C   0  0  0  0  0  0  0  0  0  0  0  0
    8.2911    1.2657    3.9534 C   0  0  0  0  0  0  0  0  0  0  0  0
    9.1494    1.3971    4.8155 O   0  0  0  0  0  0  0  0  0  0  0  0
    6.9524    1.5491    4.1883 N   0  0  0  0  0  0  0  0  0  0  0  0
    6.0696    1.5283    3.0477 C   0  0  0  0  0  0  0  0  0  0  0  0
    0.2945    0.0187    1.2447 H   0  0  0  0  0  0  0  0  0  0  0  0
   -0.0010   -0.0769   -0.5064 H   0  0  0  0  0  0  0  0  0  0  0  0
    0.1756    1.5150    0.3122 H   0  0  0  0  0  0  0  0  0  0  0  0
    1.9355    0.0554   -1.9389 H   0  0  0  0  0  0  0  0  0  0  0  0
    2.2830    2.9191   -0.8285 H   0  0  0  0  0  0  0  0  0  0  0  0
    0.8876    2.3143   -1.7155 H   0  0  0  0  0  0  0  0  0  0  0  0
    2.4279    2.5213   -2.5518 H   0  0  0  0  0  0  0  0  0  0  0  0
    3.9954    0.1879   -3.3516 H   0  0  0  0  0  0  0  0  0  0  0  0
    6.4017    0.5632   -3.5279 H   0  0  0  0  0  0  0  0  0  0  0  0
    4.0861    1.1593    0.8483 H   0  0  0  0  0  0  0  0  0  0  0  0
    9.0528   -0.2313   -1.3774 H   0  0  0  0  0  0  0  0  0  0  0  0
    9.9685    1.2710   -1.5860 H   0  0  0  0  0  0  0  0  0  0  0  0
    8.3144   -0.0348   -3.7705 H   0  0  0  0  0  0  0  0  0  0  0  0
   10.0241   -0.0859   -3.5792 H   0  0  0  0  0  0  0  0  0  0  0  0
   10.2454    2.3587   -3.8036 H   0  0  0  0  0  0  0  0  0  0  0  0
    8.4816    2.5303   -3.9187 H   0  0  0  0  0  0  0  0  0  0  0  0
   10.1862    1.0909   -5.6831 H   0  0  0  0  0  0  0  0  0  0  0  0
   10.5346    3.8102    1.6187 H   0  0  0  0  0  0  0  0  0  0  0  0
   10.2618    4.0057   -0.1440 H   0  0  0  0  0  0  0  0  0  0  0  0
   12.4666    3.1502   -1.0384 H   0  0  0  0  0  0  0  0  0  0  0  0
   13.1178    0.9894   -2.0452 H   0  0  0  0  0  0  0  0  0  0  0  0
   12.2917   -1.1221   -1.0628 H   0  0  0  0  0  0  0  0  0  0  0  0
   10.7689   -1.1479    0.8923 H   0  0  0  0  0  0  0  0  0  0  0  0
    6.7392    2.1007    5.0068 H   0  0  0  0  0  0  0  0  0  0  0  0
    5.6148    2.5164    2.9016 H   0  0  0  0  0  0  0  0  0  0  0  0
    5.3150    0.7498    3.1670 H   0  0  0  0  0  0  0  0  0  0  0  0
  1  2  1  0  0  0  0
  1 33  1  0  0  0  0
  1 34  1  0  0  0  0
  1 35  1  0  0  0  0
  2  3  1  0  0  0  0
  3  4  1  0  0  0  0
  3  5  1  0  0  0  0
  3 36  1  0  0  0  0
  4 37  1  0  0  0  0
  4 38  1  0  0  0  0
  4 39  1  0  0  0  0
  5  6  1  0  0  0  0
  5 10  2  0  0  0  0
  6  7  2  0  0  0  0
  6 40  1  0  0  0  0
  7  8  1  0  0  0  0
  7 41  1  0  0  0  0
  8  9  2  0  0  0  0
  8 17  1  0  0  0  0
  9 10  1  0  0  0  0
  9 11  1  0  0  0  0
 10 42  1  0  0  0  0
 11 12  1  0  0  0  0
 11 16  2  0  0  0  0
 12 13  2  0  0  0  0
 12 32  1  0  0  0  0
 13 14  1  0  0  0  0
 13 29  1  0  0  0  0
 14 15  2  0  0  0  0
 14 28  1  0  0  0  0
 15 16  1  0  0  0  0
 15 22  1  0  0  0  0
 16 17  1  0  0  0  0
 17 18  1  0  0  0  0
 18 19  1  0  0  0  0
 18 43  1  0  0  0  0
 18 44  1  0  0  0  0
 19 20  1  0  0  0  0
 19 45  1  0  0  0  0
 19 46  1  0  0  0  0
 20 21  1  0  0  0  0
 20 47  1  0  0  0  0
 20 48  1  0  0  0  0
 21 49  1  0  0  0  0
 22 23  1  0  0  0  0
 22 50  1  0  0  0  0
 22 51  1  0  0  0  0
 23 24  1  0  0  0  0
 23 28  2  0  0  0  0
 24 25  2  0  0  0  0
 24 52  1  0  0  0  0
 25 26  1  0  0  0  0
 25 53  1  0  0  0  0
 26 27  2  0  0  0  0
 26 54  1  0  0  0  0
 27 28  1  0  0  0  0
 27 55  1  0  0  0  0
 29 30  2  0  0  0  0
 29 31  1  0  0  0  0
 31 32  1  0  0  0  0
 31 56  1  0  0  0  0
 32 57  1  0  0  0  0
 32 58  1  0  0  0  0
M  END
$$$$
