CHEMBL258436
 OpenBabel04072215363D

 69 74  0  0  0  0  0  0  0  0999 V2000
    1.0335   -0.1461    0.2460 C   0  0  0  0  0  0  0  0  0  0  0  0
    2.5168   -0.2625   -0.1423 C   0  0  0  0  0  0  0  0  0  0  0  0
    3.1861   -1.3726   -0.0571 N   0  0  0  0  0  0  0  0  0  0  0  0
    2.3744   -2.3872    0.4787 O   0  0  0  0  0  0  0  0  0  0  0  0
    3.0943   -3.6207    0.5468 C   0  0  0  0  0  0  0  0  0  0  0  0
    2.1157   -4.7309    1.1199 C   0  0  0  0  0  0  0  0  0  0  0  0
    0.9438   -4.8875    0.1457 C   0  0  0  0  0  0  0  0  0  0  0  0
    2.9060   -6.0308    1.2187 C   0  0  0  0  0  0  0  0  0  0  0  0
    3.1910    1.0215   -0.5830 C   0  0  0  0  0  0  0  0  0  0  0  0
    2.7108    2.1776    0.0074 C   0  0  0  0  0  0  0  0  0  0  0  0
    3.1944    3.3961   -0.4559 C   0  0  0  0  0  0  0  0  0  0  0  0
    4.2049    3.4124   -1.4268 C   0  0  0  0  0  0  0  0  0  0  0  0
    4.7963    2.2486   -1.9891 C   0  0  0  0  0  0  0  0  0  0  0  0
    4.2416    1.0018   -1.5633 C   0  0  0  0  0  0  0  0  0  0  0  0
    5.8559    2.7433   -2.7858 C   0  0  0  0  0  0  0  0  0  0  0  0
    6.9555    2.0846   -3.4337 C   0  0  0  0  0  0  0  0  0  0  0  0
    8.0890    2.9270   -3.9761 C   0  0  0  0  0  0  0  0  0  0  0  0
    8.2062    4.3312   -3.7675 C   0  0  0  0  0  0  0  0  0  0  0  0
    7.2434    4.7227   -2.8608 C   0  0  0  0  0  0  0  0  0  0  0  0
    5.9880    4.0694   -2.6244 C   0  0  0  0  0  0  0  0  0  0  0  0
    4.9247    4.5160   -1.8713 N   0  0  0  0  0  0  0  0  0  0  0  0
    4.7605    5.9238   -1.5278 C   0  0  0  0  0  0  0  0  0  0  0  0
    4.4789    6.7746   -2.7625 C   0  0  0  0  0  0  0  0  0  0  0  0
    4.0660    6.3843   -0.2659 C   0  0  0  0  0  0  0  0  0  0  0  0
    7.7996    5.3205   -1.6099 C   0  0  0  0  0  0  0  0  0  0  0  0
    9.0509    6.0568   -1.3190 C   0  0  0  0  0  0  0  0  0  0  0  0
    9.6679    6.2260   -2.6275 C   0  0  0  0  0  0  0  0  0  0  0  0
   10.0664    7.4733   -2.8613 N   0  0  0  0  0  0  0  0  0  0  0  0
    9.4509    7.7213   -4.0134 N   0  0  0  0  0  0  0  0  0  0  0  0
    8.8914    9.0560   -4.1631 C   0  0  0  0  0  0  0  0  0  0  0  0
    9.2452    6.5413   -4.7338 C   0  0  0  0  0  0  0  0  0  0  0  0
    9.2954    5.4458   -3.8340 C   0  0  0  0  0  0  0  0  0  0  0  0
    9.0241    1.9742   -4.5483 C   0  0  0  0  0  0  0  0  0  0  0  0
   10.0871    2.1055   -5.1405 O   0  0  0  0  0  0  0  0  0  0  0  0
    8.4836    0.6999   -4.2875 N   0  0  0  0  0  0  0  0  0  0  0  0
    7.2203    0.6413   -3.5692 C   0  0  0  0  0  0  0  0  0  0  0  0
    0.5223   -1.1069    0.3294 H   0  0  0  0  0  0  0  0  0  0  0  0
    0.5029    0.4535   -0.5013 H   0  0  0  0  0  0  0  0  0  0  0  0
    0.9417    0.3513    1.2273 H   0  0  0  0  0  0  0  0  0  0  0  0
    3.9548   -3.4810    1.2217 H   0  0  0  0  0  0  0  0  0  0  0  0
    3.4723   -3.8443   -0.4571 H   0  0  0  0  0  0  0  0  0  0  0  0
    1.7648   -4.4015    2.0752 H   0  0  0  0  0  0  0  0  0  0  0  0
    1.2659   -5.1559   -0.8752 H   0  0  0  0  0  0  0  0  0  0  0  0
    0.3639   -3.9626    0.0748 H   0  0  0  0  0  0  0  0  0  0  0  0
    0.2828   -5.6738    0.5071 H   0  0  0  0  0  0  0  0  0  0  0  0
    3.3117   -6.3678    0.2508 H   0  0  0  0  0  0  0  0  0  0  0  0
    2.2546   -6.8170    1.6011 H   0  0  0  0  0  0  0  0  0  0  0  0
    3.7479   -5.9205    1.9123 H   0  0  0  0  0  0  0  0  0  0  0  0
    1.9704    2.1861    0.7585 H   0  0  0  0  0  0  0  0  0  0  0  0
    2.8092    4.2828    0.0158 H   0  0  0  0  0  0  0  0  0  0  0  0
    4.6226    0.0521   -1.9280 H   0  0  0  0  0  0  0  0  0  0  0  0
    5.7215    6.2227   -1.1753 H   0  0  0  0  0  0  0  0  0  0  0  0
    3.4540    6.6405   -3.1161 H   0  0  0  0  0  0  0  0  0  0  0  0
    5.1476    6.5295   -3.6014 H   0  0  0  0  0  0  0  0  0  0  0  0
    4.6468    7.8334   -2.5422 H   0  0  0  0  0  0  0  0  0  0  0  0
    2.9893    6.3283   -0.3559 H   0  0  0  0  0  0  0  0  0  0  0  0
    4.3413    7.4298   -0.0706 H   0  0  0  0  0  0  0  0  0  0  0  0
    4.4275    5.8085    0.6054 H   0  0  0  0  0  0  0  0  0  0  0  0
    7.1770    6.1684   -1.7802 H   0  0  0  0  0  0  0  0  0  0  0  0
    7.8794    4.3760   -1.0559 H   0  0  0  0  0  0  0  0  0  0  0  0
    9.6423    5.6214   -0.5173 H   0  0  0  0  0  0  0  0  0  0  0  0
    8.6943    7.0203   -0.8957 H   0  0  0  0  0  0  0  0  0  0  0  0
    7.8522    9.0635   -3.8045 H   0  0  0  0  0  0  0  0  0  0  0  0
    8.9484    9.3866   -5.1970 H   0  0  0  0  0  0  0  0  0  0  0  0
    9.4489    9.7557   -3.5215 H   0  0  0  0  0  0  0  0  0  0  0  0
    8.9714    6.6264   -5.7732 H   0  0  0  0  0  0  0  0  0  0  0  0
    8.9905   -0.1319   -4.5598 H   0  0  0  0  0  0  0  0  0  0  0  0
    7.3744    0.1591   -2.5970 H   0  0  0  0  0  0  0  0  0  0  0  0
    6.4769    0.1038   -4.1581 H   0  0  0  0  0  0  0  0  0  0  0  0
  1  2  1  0  0  0  0
  1 37  1  0  0  0  0
  1 38  1  0  0  0  0
  1 39  1  0  0  0  0
  2  3  2  0  0  0  0
  2  9  1  0  0  0  0
  3  4  1  0  0  0  0
  4  5  1  0  0  0  0
  5  6  1  0  0  0  0
  5 40  1  0  0  0  0
  5 41  1  0  0  0  0
  6  7  1  0  0  0  0
  6  8  1  0  0  0  0
  6 42  1  0  0  0  0
  7 43  1  0  0  0  0
  7 44  1  0  0  0  0
  7 45  1  0  0  0  0
  8 46  1  0  0  0  0
  8 47  1  0  0  0  0
  8 48  1  0  0  0  0
  9 10  1  0  0  0  0
  9 14  2  0  0  0  0
 10 11  2  0  0  0  0
 10 49  1  0  0  0  0
 11 12  1  0  0  0  0
 11 50  1  0  0  0  0
 12 13  2  0  0  0  0
 12 21  1  0  0  0  0
 13 14  1  0  0  0  0
 13 15  1  0  0  0  0
 14 51  1  0  0  0  0
 15 16  1  0  0  0  0
 15 20  2  0  0  0  0
 16 17  2  0  0  0  0
 16 36  1  0  0  0  0
 17 18  1  0  0  0  0
 17 33  1  0  0  0  0
 18 19  2  0  0  0  0
 18 32  1  0  0  0  0
 19 20  1  0  0  0  0
 19 25  1  0  0  0  0
 20 21  1  0  0  0  0
 21 22  1  0  0  0  0
 22 23  1  0  0  0  0
 22 24  1  0  0  0  0
 22 52  1  0  0  0  0
 23 53  1  0  0  0  0
 23 54  1  0  0  0  0
 23 55  1  0  0  0  0
 24 56  1  0  0  0  0
 24 57  1  0  0  0  0
 24 58  1  0  0  0  0
 25 26  1  0  0  0  0
 25 59  1  0  0  0  0
 25 60  1  0  0  0  0
 26 27  1  0  0  0  0
 26 61  1  0  0  0  0
 26 62  1  0  0  0  0
 27 28  2  0  0  0  0
 27 32  1  0  0  0  0
 28 29  1  0  0  0  0
 29 30  1  0  0  0  0
 29 31  1  0  0  0  0
 30 63  1  0  0  0  0
 30 64  1  0  0  0  0
 30 65  1  0  0  0  0
 31 32  2  0  0  0  0
 31 66  1  0  0  0  0
 33 34  2  0  0  0  0
 33 35  1  0  0  0  0
 35 36  1  0  0  0  0
 35 67  1  0  0  0  0
 36 68  1  0  0  0  0
 36 69  1  0  0  0  0
M  END
$$$$
