CHEMBL406845
 OpenBabel04072215383D

 37 39  0  0  0  0  0  0  0  0999 V2000
    3.3207    1.0745   -0.7710 C   0  0  0  0  0  0  0  0  0  0  0  0
    2.4711   -0.0251   -0.0924 C   0  0  0  0  0  0  0  0  0  0  0  0
    2.6283    0.1555    1.4319 C   0  0  0  0  0  0  0  0  0  0  0  0
    1.0013    0.2101   -0.4936 C   0  0  0  0  0  0  0  0  0  0  0  0
    2.8898   -1.3806   -0.5043 N   0  0  0  0  0  0  0  0  0  0  0  0
    3.8945   -1.5604   -1.3962 N   0  0  0  0  0  0  0  0  0  0  0  0
    3.9653   -2.8944   -1.5754 C   0  0  0  0  0  0  0  0  0  0  0  0
    4.9696   -3.4696   -2.4834 C   0  0  0  0  0  0  0  0  0  0  0  0
    6.2438   -2.8916   -2.5951 C   0  0  0  0  0  0  0  0  0  0  0  0
    7.2487   -3.5151   -3.3458 C   0  0  0  0  0  0  0  0  0  0  0  0
    6.9868   -4.7252   -3.9836 C   0  0  0  0  0  0  0  0  0  0  0  0
    8.2417   -5.5432   -4.8284 Cl  0  0  0  0  0  0  0  0  0  0  0  0
    5.7127   -5.2810   -3.9341 C   0  0  0  0  0  0  0  0  0  0  0  0
    4.7015   -4.6339   -3.2177 C   0  0  0  0  0  0  0  0  0  0  0  0
    3.0186   -3.5758   -0.7509 C   0  0  0  0  0  0  0  0  0  0  0  0
    2.6221   -4.8908   -0.4434 C   0  0  0  0  0  0  0  0  0  0  0  0
    3.1925   -6.0511   -0.9522 N   0  0  0  0  0  0  0  0  0  0  0  0
    1.6173   -5.0857    0.4348 N   0  0  0  0  0  0  0  0  0  0  0  0
    1.0406   -4.0122    0.9984 C   0  0  0  0  0  0  0  0  0  0  0  0
    1.3431   -2.7223    0.8074 N   0  0  0  0  0  0  0  0  0  0  0  0
    2.3400   -2.5675   -0.0819 C   0  0  0  0  0  0  0  0  0  0  0  0
    3.0028    2.0732   -0.4462 H   0  0  0  0  0  0  0  0  0  0  0  0
    3.2228    1.0395   -1.8620 H   0  0  0  0  0  0  0  0  0  0  0  0
    4.3825    0.9719   -0.5253 H   0  0  0  0  0  0  0  0  0  0  0  0
    2.3515    1.1723    1.7368 H   0  0  0  0  0  0  0  0  0  0  0  0
    3.6629   -0.0181    1.7481 H   0  0  0  0  0  0  0  0  0  0  0  0
    1.9909   -0.5283    2.0018 H   0  0  0  0  0  0  0  0  0  0  0  0
    0.6818    1.2283   -0.2451 H   0  0  0  0  0  0  0  0  0  0  0  0
    0.3172   -0.4732    0.0198 H   0  0  0  0  0  0  0  0  0  0  0  0
    0.8601    0.0662   -1.5711 H   0  0  0  0  0  0  0  0  0  0  0  0
    6.4682   -1.9576   -2.0821 H   0  0  0  0  0  0  0  0  0  0  0  0
    8.2340   -3.0614   -3.4105 H   0  0  0  0  0  0  0  0  0  0  0  0
    5.4966   -6.2192   -4.4386 H   0  0  0  0  0  0  0  0  0  0  0  0
    3.7045   -5.0687   -3.2248 H   0  0  0  0  0  0  0  0  0  0  0  0
    4.1982   -6.0065   -1.0599 H   0  0  0  0  0  0  0  0  0  0  0  0
    2.8557   -6.8529   -0.4295 H   0  0  0  0  0  0  0  0  0  0  0  0
    0.2389   -4.2179    1.7012 H   0  0  0  0  0  0  0  0  0  0  0  0
  1  2  1  0  0  0  0
  1 22  1  0  0  0  0
  1 23  1  0  0  0  0
  1 24  1  0  0  0  0
  2  3  1  0  0  0  0
  2  4  1  0  0  0  0
  2  5  1  0  0  0  0
  3 25  1  0  0  0  0
  3 26  1  0  0  0  0
  3 27  1  0  0  0  0
  4 28  1  0  0  0  0
  4 29  1  0  0  0  0
  4 30  1  0  0  0  0
  5  6  1  0  0  0  0
  5 21  1  0  0  0  0
  6  7  2  0  0  0  0
  7  8  1  0  0  0  0
  7 15  1  0  0  0  0
  8  9  1  0  0  0  0
  8 14  2  0  0  0  0
  9 10  2  0  0  0  0
  9 31  1  0  0  0  0
 10 11  1  0  0  0  0
 10 32  1  0  0  0  0
 11 12  1  0  0  0  0
 11 13  2  0  0  0  0
 13 14  1  0  0  0  0
 13 33  1  0  0  0  0
 14 34  1  0  0  0  0
 15 16  1  0  0  0  0
 15 21  2  0  0  0  0
 16 17  1  0  0  0  0
 16 18  2  0  0  0  0
 17 35  1  0  0  0  0
 17 36  1  0  0  0  0
 18 19  1  0  0  0  0
 19 20  2  0  0  0  0
 19 37  1  0  0  0  0
 20 21  1  0  0  0  0
M  END
$$$$
