CHEMBL3545414
 OpenBabel04072215363D

 62 64  0  0  0  0  0  0  0  0999 V2000
    0.2096    2.6986   -0.2997 C   0  0  0  0  0  0  0  0  0  0  0  0
    1.9310    3.0133   -0.6111 S   0  0  0  0  0  0  0  0  0  0  0  0
    2.6436    3.1359    0.6405 O   0  0  0  0  0  0  0  0  0  0  0  0
    2.3938    2.1549   -1.6757 O   0  0  0  0  0  0  0  0  0  0  0  0
    1.8064    4.5027   -1.2297 O   0  0  0  0  0  0  0  0  0  0  0  0
    6.4506    1.4465    1.5125 N   0  0  0  0  0  0  0  0  0  0  0  0
    5.8118    0.6844    0.9193 C   0  0  0  0  0  0  0  0  0  0  0  0
    5.0245   -0.3264    0.1570 C   0  0  0  0  0  0  0  0  0  0  0  0
    4.9970   -0.0339   -1.3580 C   0  0  0  0  0  0  0  0  0  0  0  0
    5.9900    0.7574   -1.9722 C   0  0  0  0  0  0  0  0  0  0  0  0
    5.9994    0.9742   -3.3545 C   0  0  0  0  0  0  0  0  0  0  0  0
    5.0714    0.3296   -4.1641 C   0  0  0  0  0  0  0  0  0  0  0  0
    5.1546    0.4847   -5.5564 N   0  0  0  0  0  0  0  0  0  0  0  0
    5.1430   -0.6044   -6.4094 C   0  0  0  0  0  0  0  0  0  0  0  0
    5.1376   -1.7790   -6.0414 O   0  0  0  0  0  0  0  0  0  0  0  0
    5.2586   -0.3340   -7.8636 C   0  0  0  0  0  0  0  0  0  0  0  0
    6.0152   -1.2469   -8.6139 C   0  0  0  0  0  0  0  0  0  0  0  0
    5.9997   -1.1790   -9.9976 C   0  0  0  0  0  0  0  0  0  0  0  0
    5.2239   -0.1972  -10.5821 C   0  0  0  0  0  0  0  0  0  0  0  0
    4.5051    0.7168   -9.8858 N   0  0  0  0  0  0  0  0  0  0  0  0
    4.5139    0.6484   -8.5338 C   0  0  0  0  0  0  0  0  0  0  0  0
    3.7696    1.5939   -7.8273 N   0  0  0  0  0  0  0  0  0  0  0  0
    2.6737    2.2409   -8.5327 C   0  0  0  0  0  0  0  0  0  0  0  0
    1.7379    2.8088   -7.4878 C   0  0  0  0  0  0  0  0  0  0  0  0
    1.3787    4.1582   -7.4750 C   0  0  0  0  0  0  0  0  0  0  0  0
    0.5370    4.6106   -6.4674 C   0  0  0  0  0  0  0  0  0  0  0  0
    0.0349    3.8252   -5.4899 N   0  0  0  0  0  0  0  0  0  0  0  0
    0.3842    2.5221   -5.5250 C   0  0  0  0  0  0  0  0  0  0  0  0
    1.2102    1.9749   -6.4922 C   0  0  0  0  0  0  0  0  0  0  0  0
    4.0783   -0.4532   -3.5867 C   0  0  0  0  0  0  0  0  0  0  0  0
    4.0211   -0.5974   -2.2003 C   0  0  0  0  0  0  0  0  0  0  0  0
    3.6211   -0.4529    0.8050 C   0  0  0  0  0  0  0  0  0  0  0  0
    3.2513   -1.9426    0.8145 C   0  0  0  0  0  0  0  0  0  0  0  0
    4.4395   -2.6934    0.2286 C   0  0  0  0  0  0  0  0  0  0  0  0
    5.6142   -1.7378    0.4069 C   0  0  0  0  0  0  0  0  0  0  0  0
    0.1444    1.9830    0.5161 H   0  0  0  0  0  0  0  0  0  0  0  0
   -0.2415    2.2809   -1.2057 H   0  0  0  0  0  0  0  0  0  0  0  0
   -0.2885    3.6300   -0.0168 H   0  0  0  0  0  0  0  0  0  0  0  0
    2.6800    4.7573   -1.5876 H   0  0  0  0  0  0  0  0  0  0  0  0
    6.7898    1.2141   -1.3924 H   0  0  0  0  0  0  0  0  0  0  0  0
    6.7907    1.5761   -3.7907 H   0  0  0  0  0  0  0  0  0  0  0  0
    5.5457    1.3452   -5.9049 H   0  0  0  0  0  0  0  0  0  0  0  0
    6.5799   -2.0318   -8.1139 H   0  0  0  0  0  0  0  0  0  0  0  0
    6.5516   -1.8932  -10.5994 H   0  0  0  0  0  0  0  0  0  0  0  0
    5.1465   -0.1204  -11.6630 H   0  0  0  0  0  0  0  0  0  0  0  0
    4.3790    2.2807   -7.3999 H   0  0  0  0  0  0  0  0  0  0  0  0
    2.1043    1.5324   -9.1472 H   0  0  0  0  0  0  0  0  0  0  0  0
    3.0575    3.0353   -9.1841 H   0  0  0  0  0  0  0  0  0  0  0  0
    1.7445    4.8521   -8.2238 H   0  0  0  0  0  0  0  0  0  0  0  0
    0.2373    5.6535   -6.4156 H   0  0  0  0  0  0  0  0  0  0  0  0
   -0.0240    1.9061   -4.7292 H   0  0  0  0  0  0  0  0  0  0  0  0
    1.4600    0.9183   -6.4597 H   0  0  0  0  0  0  0  0  0  0  0  0
    3.3221   -0.9335   -4.2030 H   0  0  0  0  0  0  0  0  0  0  0  0
    3.1928   -1.1778   -1.8038 H   0  0  0  0  0  0  0  0  0  0  0  0
    2.8599    0.1450    0.2946 H   0  0  0  0  0  0  0  0  0  0  0  0
    3.6313   -0.1046    1.8473 H   0  0  0  0  0  0  0  0  0  0  0  0
    2.3350   -2.1335    0.2459 H   0  0  0  0  0  0  0  0  0  0  0  0
    3.0667   -2.2717    1.8433 H   0  0  0  0  0  0  0  0  0  0  0  0
    4.2750   -2.9123   -0.8320 H   0  0  0  0  0  0  0  0  0  0  0  0
    4.6029   -3.6560    0.7217 H   0  0  0  0  0  0  0  0  0  0  0  0
    6.4455   -1.9890   -0.2614 H   0  0  0  0  0  0  0  0  0  0  0  0
    5.9832   -1.8342    1.4372 H   0  0  0  0  0  0  0  0  0  0  0  0
  1  2  1  0  0  0  0
  1 36  1  0  0  0  0
  1 37  1  0  0  0  0
  1 38  1  0  0  0  0
  2  3  2  0  0  0  0
  2  4  2  0  0  0  0
  2  5  1  0  0  0  0
  5 39  1  0  0  0  0
  6  7  3  0  0  0  0
  7  8  1  0  0  0  0
  8  9  1  0  0  0  0
  8 32  1  0  0  0  0
  8 35  1  0  0  0  0
  9 10  1  0  0  0  0
  9 31  2  0  0  0  0
 10 11  2  0  0  0  0
 10 40  1  0  0  0  0
 11 12  1  0  0  0  0
 11 41  1  0  0  0  0
 12 13  1  0  0  0  0
 12 30  2  0  0  0  0
 13 14  1  0  0  0  0
 13 42  1  0  0  0  0
 14 15  2  0  0  0  0
 14 16  1  0  0  0  0
 16 17  1  0  0  0  0
 16 21  2  0  0  0  0
 17 18  2  0  0  0  0
 17 43  1  0  0  0  0
 18 19  1  0  0  0  0
 18 44  1  0  0  0  0
 19 20  2  0  0  0  0
 19 45  1  0  0  0  0
 20 21  1  0  0  0  0
 21 22  1  0  0  0  0
 22 23  1  0  0  0  0
 22 46  1  0  0  0  0
 23 24  1  0  0  0  0
 23 47  1  0  0  0  0
 23 48  1  0  0  0  0
 24 25  1  0  0  0  0
 24 29  2  0  0  0  0
 25 26  2  0  0  0  0
 25 49  1  0  0  0  0
 26 27  1  0  0  0  0
 26 50  1  0  0  0  0
 27 28  2  0  0  0  0
 28 29  1  0  0  0  0
 28 51  1  0  0  0  0
 29 52  1  0  0  0  0
 30 31  1  0  0  0  0
 30 53  1  0  0  0  0
 31 54  1  0  0  0  0
 32 33  1  0  0  0  0
 32 55  1  0  0  0  0
 32 56  1  0  0  0  0
 33 34  1  0  0  0  0
 33 57  1  0  0  0  0
 33 58  1  0  0  0  0
 34 35  1  0  0  0  0
 34 59  1  0  0  0  0
 34 60  1  0  0  0  0
 35 61  1  0  0  0  0
 35 62  1  0  0  0  0
M  END
$$$$
