CHEMBL2348999
 OpenBabel04072215363D

 49 53  0  0  0  0  0  0  0  0999 V2000
   -3.7496    3.9359   -0.5332 C   0  0  0  0  0  0  0  0  0  0  0  0
   -2.8693    3.4048   -1.5443 N   0  0  0  0  0  0  0  0  0  0  0  0
   -3.3925    2.6817   -2.5513 N   0  0  0  0  0  0  0  0  0  0  0  0
   -2.3971    2.3084   -3.3375 N   0  0  0  0  0  0  0  0  0  0  0  0
   -1.2418    2.8086   -2.8156 C   0  0  0  0  0  0  0  0  0  0  0  0
   -1.5021    3.5294   -1.6658 C   0  0  0  0  0  0  0  0  0  0  0  0
   -0.6434    4.2430   -0.7480 C   0  0  0  0  0  0  0  0  0  0  0  0
   -1.0941    4.7089    0.2884 O   0  0  0  0  0  0  0  0  0  0  0  0
    0.6816    4.3775   -1.1620 N   0  0  0  0  0  0  0  0  0  0  0  0
    1.7260    5.0239   -0.4507 C   0  0  0  0  0  0  0  0  0  0  0  0
    1.6205    5.3607    0.9030 C   0  0  0  0  0  0  0  0  0  0  0  0
    2.6518    6.0357    1.5597 C   0  0  0  0  0  0  0  0  0  0  0  0
    3.8085    6.3795    0.8730 C   0  0  0  0  0  0  0  0  0  0  0  0
    3.9300    6.0487   -0.4762 C   0  0  0  0  0  0  0  0  0  0  0  0
    5.1229    6.3337   -1.1842 O   0  0  0  0  0  0  0  0  0  0  0  0
    5.7602    7.5551   -0.9681 C   0  0  0  0  0  0  0  0  0  0  0  0
    7.2025    7.4053   -1.2724 C   0  0  0  0  0  0  0  0  0  0  0  0
    7.9833    8.4609   -1.0015 C   0  0  0  0  0  0  0  0  0  0  0  0
    7.3956    9.6429   -0.4927 C   0  0  0  0  0  0  0  0  0  0  0  0
    7.9218   10.7913   -0.1280 N   0  0  0  0  0  0  0  0  0  0  0  0
    6.8697   11.5696    0.2613 C   0  0  0  0  0  0  0  0  0  0  0  0
    6.9794   12.8655    0.7061 N   0  0  0  0  0  0  0  0  0  0  0  0
    8.1692   13.5420    0.8533 C   0  0  0  0  0  0  0  0  0  0  0  0
    9.3025   13.1246    0.6623 O   0  0  0  0  0  0  0  0  0  0  0  0
    7.9699   14.9690    1.2702 C   0  0  0  0  0  0  0  0  0  0  0  0
    8.4203   16.0669    0.3319 C   0  0  0  0  0  0  0  0  0  0  0  0
    9.1463   15.8505    1.6270 C   0  0  0  0  0  0  0  0  0  0  0  0
    5.6810   10.8891    0.1354 C   0  0  0  0  0  0  0  0  0  0  0  0
    6.0201    9.6475   -0.3301 N   0  0  0  0  0  0  0  0  0  0  0  0
    5.1551    8.6198   -0.5462 N   0  0  0  0  0  0  0  0  0  0  0  0
    2.9145    5.3399   -1.1339 C   0  0  0  0  0  0  0  0  0  0  0  0
   -4.7862    3.6975   -0.7922 H   0  0  0  0  0  0  0  0  0  0  0  0
   -3.6310    5.0213   -0.4939 H   0  0  0  0  0  0  0  0  0  0  0  0
   -3.5020    3.4746    0.4259 H   0  0  0  0  0  0  0  0  0  0  0  0
   -0.2960    2.6104   -3.2976 H   0  0  0  0  0  0  0  0  0  0  0  0
    0.9068    4.0907   -2.1033 H   0  0  0  0  0  0  0  0  0  0  0  0
    0.7487    5.0965    1.4926 H   0  0  0  0  0  0  0  0  0  0  0  0
    2.5447    6.2940    2.6098 H   0  0  0  0  0  0  0  0  0  0  0  0
    4.5993    6.9047    1.3999 H   0  0  0  0  0  0  0  0  0  0  0  0
    7.5826    6.4721   -1.6642 H   0  0  0  0  0  0  0  0  0  0  0  0
    9.0554    8.4450   -1.1621 H   0  0  0  0  0  0  0  0  0  0  0  0
    6.1169   13.3434    0.9164 H   0  0  0  0  0  0  0  0  0  0  0  0
    7.0659   15.1575    1.8417 H   0  0  0  0  0  0  0  0  0  0  0  0
    7.7964   16.9471    0.2368 H   0  0  0  0  0  0  0  0  0  0  0  0
    8.9360   15.7839   -0.5804 H   0  0  0  0  0  0  0  0  0  0  0  0
    9.0152   16.5862    2.4116 H   0  0  0  0  0  0  0  0  0  0  0  0
   10.1423   15.4217    1.5871 H   0  0  0  0  0  0  0  0  0  0  0  0
    4.6528   11.1476    0.3342 H   0  0  0  0  0  0  0  0  0  0  0  0
    3.0522    5.0667   -2.1758 H   0  0  0  0  0  0  0  0  0  0  0  0
  1  2  1  0  0  0  0
  1 32  1  0  0  0  0
  1 33  1  0  0  0  0
  1 34  1  0  0  0  0
  2  3  1  0  0  0  0
  2  6  1  0  0  0  0
  3  4  2  0  0  0  0
  4  5  1  0  0  0  0
  5  6  2  0  0  0  0
  5 35  1  0  0  0  0
  6  7  1  0  0  0  0
  7  8  2  0  0  0  0
  7  9  1  0  0  0  0
  9 10  1  0  0  0  0
  9 36  1  0  0  0  0
 10 11  1  0  0  0  0
 10 31  2  0  0  0  0
 11 12  2  0  0  0  0
 11 37  1  0  0  0  0
 12 13  1  0  0  0  0
 12 38  1  0  0  0  0
 13 14  2  0  0  0  0
 13 39  1  0  0  0  0
 14 15  1  0  0  0  0
 14 31  1  0  0  0  0
 15 16  1  0  0  0  0
 16 17  1  0  0  0  0
 16 30  2  0  0  0  0
 17 18  2  0  0  0  0
 17 40  1  0  0  0  0
 18 19  1  0  0  0  0
 18 41  1  0  0  0  0
 19 20  2  0  0  0  0
 19 29  1  0  0  0  0
 20 21  1  0  0  0  0
 21 22  1  0  0  0  0
 21 28  2  0  0  0  0
 22 23  1  0  0  0  0
 22 42  1  0  0  0  0
 23 24  2  0  0  0  0
 23 25  1  0  0  0  0
 25 26  1  0  0  0  0
 25 27  1  0  0  0  0
 25 43  1  0  0  0  0
 26 27  1  0  0  0  0
 26 44  1  0  0  0  0
 26 45  1  0  0  0  0
 27 46  1  0  0  0  0
 27 47  1  0  0  0  0
 28 29  1  0  0  0  0
 28 48  1  0  0  0  0
 29 30  1  0  0  0  0
 31 49  1  0  0  0  0
M  END
$$$$
