CHEMBL3648090
 OpenBabel04072215373D

 59 60  0  0  1  0  0  0  0  0999 V2000
    4.1422  -29.4419   -2.0195 C   0  0  0  0  0  0  0  0  0  0  0  0
    3.7155  -28.5147   -0.8926 C   0  0  0  0  0  0  0  0  0  0  0  0
    3.9796  -27.1447   -1.2249 O   0  0  0  0  0  0  0  0  0  0  0  0
    3.0583  -26.5661   -2.0478 C   0  0  0  0  0  0  0  0  0  0  0  0
    2.0999  -27.1738   -2.5043 O   0  0  0  0  0  0  0  0  0  0  0  0
    3.3931  -25.2670   -2.3890 N   0  0  0  0  0  0  0  0  0  0  0  0
    2.2477  -24.2584   -2.5876 S   0  0  3  0  0  0  0  0  0  0  0  0
    1.4842  -24.6566   -4.1474 C   0  0  0  0  0  0  0  0  0  0  0  0
    1.1661  -24.0331   -1.6423 O   0  0  0  0  0  0  0  0  0  0  0  0
    3.0152  -22.6444   -2.8068 C   0  0  0  0  0  0  0  0  0  0  0  0
    2.8658  -21.9417   -4.0122 C   0  0  0  0  0  0  0  0  0  0  0  0
    3.3706  -20.6401   -4.1450 C   0  0  0  0  0  0  0  0  0  0  0  0
    4.0468  -20.0199   -3.0913 C   0  0  0  0  0  0  0  0  0  0  0  0
    4.5594  -18.7140   -3.2509 N   0  0  0  0  0  0  0  0  0  0  0  0
    5.8012  -18.2746   -2.7698 C   0  0  0  0  0  0  0  0  0  0  0  0
    6.4844  -17.4623   -3.5797 N   0  0  0  0  0  0  0  0  0  0  0  0
    7.7973  -17.3388   -3.3073 C   0  0  0  0  0  0  0  0  0  0  0  0
    8.4533  -17.9876   -2.2749 C   0  0  0  0  0  0  0  0  0  0  0  0
   10.3237  -17.8114   -2.1728 Br  0  0  0  0  0  0  0  0  0  0  0  0
    7.6361  -18.6850   -1.3984 C   0  0  0  0  0  0  0  0  0  0  0  0
    7.9430  -19.2388   -0.1908 N   0  0  0  0  0  0  0  0  0  0  0  0
    9.1236  -19.9549    0.3128 C   0  0  2  0  0  0  0  0  0  0  0  0
    8.8255  -21.4540    0.4233 C   0  0  0  0  0  0  0  0  0  0  0  0
    9.4845  -19.3020    1.6945 C   0  0  0  0  0  0  0  0  0  0  0  0
    8.4377  -19.5845    2.7848 C   0  0  0  0  0  0  0  0  0  0  0  0
   10.8643  -19.7149    2.2049 C   0  0  0  0  0  0  0  0  0  0  0  0
    9.5496  -17.8751    1.5040 O   0  0  0  0  0  0  0  0  0  0  0  0
    6.3209  -18.7948   -1.6477 N   0  0  0  0  0  0  0  0  0  0  0  0
    4.1663  -20.7306   -1.8903 C   0  0  0  0  0  0  0  0  0  0  0  0
    3.6886  -22.0433   -1.7308 C   0  0  0  0  0  0  0  0  0  0  0  0
    3.9086  -22.7119   -0.4028 C   0  0  0  0  0  0  0  0  0  0  0  0
    3.9320  -30.4844   -1.7659 H   0  0  0  0  0  0  0  0  0  0  0  0
    5.2130  -29.3356   -2.2167 H   0  0  0  0  0  0  0  0  0  0  0  0
    3.6247  -29.2040   -2.9536 H   0  0  0  0  0  0  0  0  0  0  0  0
    4.2968  -28.7469    0.0064 H   0  0  0  0  0  0  0  0  0  0  0  0
    2.6587  -28.6588   -0.6334 H   0  0  0  0  0  0  0  0  0  0  0  0
    0.9456  -25.6000   -4.0427 H   0  0  0  0  0  0  0  0  0  0  0  0
    2.2571  -24.7589   -4.9130 H   0  0  0  0  0  0  0  0  0  0  0  0
    0.7628  -23.8811   -4.4103 H   0  0  0  0  0  0  0  0  0  0  0  0
    2.3507  -22.3631   -4.8676 H   0  0  0  0  0  0  0  0  0  0  0  0
    3.2338  -20.1207   -5.0906 H   0  0  0  0  0  0  0  0  0  0  0  0
    4.4881  -18.3498   -4.1929 H   0  0  0  0  0  0  0  0  0  0  0  0
    8.3294  -16.6832   -3.9936 H   0  0  0  0  0  0  0  0  0  0  0  0
    7.0679  -19.5741    0.2081 H   0  0  0  0  0  0  0  0  0  0  0  0
    9.9703  -19.8378   -0.3655 H   0  0  0  0  0  0  0  0  0  0  0  0
    7.9333  -21.6547    1.0269 H   0  0  0  0  0  0  0  0  0  0  0  0
    9.6652  -21.9914    0.8765 H   0  0  0  0  0  0  0  0  0  0  0  0
    8.6481  -21.8911   -0.5651 H   0  0  0  0  0  0  0  0  0  0  0  0
    8.5653  -20.5839    3.2160 H   0  0  0  0  0  0  0  0  0  0  0  0
    7.4143  -19.5230    2.3996 H   0  0  0  0  0  0  0  0  0  0  0  0
    8.5032  -18.8489    3.5935 H   0  0  0  0  0  0  0  0  0  0  0  0
   10.9024  -20.7690    2.4941 H   0  0  0  0  0  0  0  0  0  0  0  0
   11.1406  -19.1111    3.0783 H   0  0  0  0  0  0  0  0  0  0  0  0
   11.6333  -19.5300    1.4475 H   0  0  0  0  0  0  0  0  0  0  0  0
    9.0029  -17.6957    0.7132 H   0  0  0  0  0  0  0  0  0  0  0  0
    4.6369  -20.2528   -1.0351 H   0  0  0  0  0  0  0  0  0  0  0  0
    4.5320  -22.0923    0.2533 H   0  0  0  0  0  0  0  0  0  0  0  0
    4.4430  -23.6578   -0.5222 H   0  0  0  0  0  0  0  0  0  0  0  0
    2.9572  -22.8743    0.1096 H   0  0  0  0  0  0  0  0  0  0  0  0
  1  2  1  0  0  0  0
  1 32  1  0  0  0  0
  1 33  1  0  0  0  0
  1 34  1  0  0  0  0
  2  3  1  0  0  0  0
  2 35  1  0  0  0  0
  2 36  1  0  0  0  0
  3  4  1  0  0  0  0
  4  5  2  0  0  0  0
  4  6  1  0  0  0  0
  6  7  2  0  0  0  0
  7  8  1  0  0  0  0
  7  9  2  0  0  0  0
  7 10  1  0  0  0  0
  8 37  1  0  0  0  0
  8 38  1  0  0  0  0
  8 39  1  0  0  0  0
 10 11  1  0  0  0  0
 10 30  2  0  0  0  0
 11 12  2  0  0  0  0
 11 40  1  0  0  0  0
 12 13  1  0  0  0  0
 12 41  1  0  0  0  0
 13 14  1  0  0  0  0
 13 29  2  0  0  0  0
 14 15  1  0  0  0  0
 14 42  1  0  0  0  0
 15 16  1  0  0  0  0
 15 28  2  0  0  0  0
 16 17  2  0  0  0  0
 17 18  1  0  0  0  0
 17 43  1  0  0  0  0
 18 19  1  0  0  0  0
 18 20  2  0  0  0  0
 20 21  1  0  0  0  0
 20 28  1  0  0  0  0
 21 44  1  0  0  0  0
 22 24  1  0  0  0  0
 22 23  1  0  0  0  0
 22 21  1  0  0  0  0
 22 45  1  6  0  0  0
 23 46  1  0  0  0  0
 23 47  1  0  0  0  0
 23 48  1  0  0  0  0
 24 25  1  0  0  0  0
 24 26  1  0  0  0  0
 24 27  1  0  0  0  0
 25 49  1  0  0  0  0
 25 50  1  0  0  0  0
 25 51  1  0  0  0  0
 26 52  1  0  0  0  0
 26 53  1  0  0  0  0
 26 54  1  0  0  0  0
 27 55  1  0  0  0  0
 29 30  1  0  0  0  0
 29 56  1  0  0  0  0
 30 31  1  0  0  0  0
 31 57  1  0  0  0  0
 31 58  1  0  0  0  0
 31 59  1  0  0  0  0
M  END
$$$$
