CHEMBL395335
 OpenBabel04072215373D

 64 67  0  0  0  0  0  0  0  0999 V2000
    0.7085   -0.5179    0.2856 C   0  0  0  0  0  0  0  0  0  0  0  0
    2.2099   -0.7817    0.3745 C   0  0  0  0  0  0  0  0  0  0  0  0
    2.8271   -1.3128   -0.8540 N   0  0  0  0  0  0  0  0  0  0  0  0
    2.5766   -0.4917   -2.0495 C   0  0  0  0  0  0  0  0  0  0  0  0
    3.2207    0.8913   -2.0597 C   0  0  0  0  0  0  0  0  0  0  0  0
    4.2618   -1.5906   -0.6059 C   0  0  0  0  0  0  0  0  0  0  0  0
    4.9985   -2.2394   -1.7888 C   0  0  0  0  0  0  0  0  0  0  0  0
    6.3679   -2.4803   -1.4625 O   0  0  0  0  0  0  0  0  0  0  0  0
    6.9877   -3.4945   -2.1507 C   0  0  0  0  0  0  0  0  0  0  0  0
    8.0058   -4.1093   -1.4066 C   0  0  0  0  0  0  0  0  0  0  0  0
    8.7708   -5.1673   -1.9056 C   0  0  0  0  0  0  0  0  0  0  0  0
    9.7731   -5.8221   -1.1644 N   0  0  0  0  0  0  0  0  0  0  0  0
    9.9104   -5.8242    0.1838 C   0  0  0  0  0  0  0  0  0  0  0  0
    9.3863   -5.0333    1.0893 N   0  0  0  0  0  0  0  0  0  0  0  0
    9.7846   -5.5672    2.2848 C   0  0  0  0  0  0  0  0  0  0  0  0
    9.5398   -5.1532    3.5981 C   0  0  0  0  0  0  0  0  0  0  0  0
   10.0338   -5.9411    4.6418 C   0  0  0  0  0  0  0  0  0  0  0  0
    9.7301   -5.5020    5.9213 O   0  0  0  0  0  0  0  0  0  0  0  0
   10.6062   -5.7176    6.9673 C   0  0  0  0  0  0  0  0  0  0  0  0
   11.9874   -5.8031    6.8213 C   0  0  0  0  0  0  0  0  0  0  0  0
   12.7575   -6.0644    7.9431 C   0  0  0  0  0  0  0  0  0  0  0  0
   12.2544   -6.1844    9.1898 N   0  0  0  0  0  0  0  0  0  0  0  0
   10.9059   -6.0222    9.3207 C   0  0  0  0  0  0  0  0  0  0  0  0
   10.3617   -6.1067   10.7187 C   0  0  0  0  0  0  0  0  0  0  0  0
    9.1643   -5.9508   10.9446 O   0  0  0  0  0  0  0  0  0  0  0  0
   11.3103   -6.3557   11.6927 N   0  0  0  0  0  0  0  0  0  0  0  0
   11.0013   -6.4659   13.1006 C   0  0  0  0  0  0  0  0  0  0  0  0
   10.0530   -5.7896    8.2447 C   0  0  0  0  0  0  0  0  0  0  0  0
   10.7184   -7.1384    4.3699 C   0  0  0  0  0  0  0  0  0  0  0  0
   11.0155   -7.5326    3.0580 C   0  0  0  0  0  0  0  0  0  0  0  0
   10.5318   -6.7063    2.0508 C   0  0  0  0  0  0  0  0  0  0  0  0
   10.6663   -6.8521    0.6983 O   0  0  0  0  0  0  0  0  0  0  0  0
    8.4278   -5.6756   -3.1689 C   0  0  0  0  0  0  0  0  0  0  0  0
    7.4408   -5.0590   -3.9420 C   0  0  0  0  0  0  0  0  0  0  0  0
    6.7471   -3.9413   -3.4559 C   0  0  0  0  0  0  0  0  0  0  0  0
    5.7021   -3.1674   -4.5957 Cl  0  0  0  0  0  0  0  0  0  0  0  0
    0.3008   -0.3687    1.2914 H   0  0  0  0  0  0  0  0  0  0  0  0
    0.1746   -1.3586   -0.1688 H   0  0  0  0  0  0  0  0  0  0  0  0
    0.4914    0.3881   -0.2899 H   0  0  0  0  0  0  0  0  0  0  0  0
    2.3547   -1.5171    1.1756 H   0  0  0  0  0  0  0  0  0  0  0  0
    2.7100    0.1382    0.6995 H   0  0  0  0  0  0  0  0  0  0  0  0
    1.4964   -0.3827   -2.1994 H   0  0  0  0  0  0  0  0  0  0  0  0
    2.8989   -1.0372   -2.9452 H   0  0  0  0  0  0  0  0  0  0  0  0
    3.0732    1.4241   -1.1168 H   0  0  0  0  0  0  0  0  0  0  0  0
    2.7743    1.5014   -2.8517 H   0  0  0  0  0  0  0  0  0  0  0  0
    4.2958    0.8280   -2.2549 H   0  0  0  0  0  0  0  0  0  0  0  0
    4.3484   -2.2807    0.2467 H   0  0  0  0  0  0  0  0  0  0  0  0
    4.7938   -0.6803   -0.2992 H   0  0  0  0  0  0  0  0  0  0  0  0
    4.9918   -1.5403   -2.6266 H   0  0  0  0  0  0  0  0  0  0  0  0
    4.4837   -3.1737   -2.0405 H   0  0  0  0  0  0  0  0  0  0  0  0
    8.2136   -3.7080   -0.4170 H   0  0  0  0  0  0  0  0  0  0  0  0
   10.5561   -6.1478   -1.7048 H   0  0  0  0  0  0  0  0  0  0  0  0
    8.9692   -4.2482    3.7827 H   0  0  0  0  0  0  0  0  0  0  0  0
   12.4735   -5.6832    5.8577 H   0  0  0  0  0  0  0  0  0  0  0  0
   13.8308   -6.1925    7.8588 H   0  0  0  0  0  0  0  0  0  0  0  0
   12.2694   -6.4618   11.3751 H   0  0  0  0  0  0  0  0  0  0  0  0
    9.9326   -6.3369   13.2866 H   0  0  0  0  0  0  0  0  0  0  0  0
   11.5633   -5.7015   13.6357 H   0  0  0  0  0  0  0  0  0  0  0  0
   11.3202   -7.4500   13.4453 H   0  0  0  0  0  0  0  0  0  0  0  0
    8.9855   -5.6691    8.4058 H   0  0  0  0  0  0  0  0  0  0  0  0
   11.0365   -7.7882    5.1839 H   0  0  0  0  0  0  0  0  0  0  0  0
   11.5667   -8.4421    2.8366 H   0  0  0  0  0  0  0  0  0  0  0  0
    8.9227   -6.5564   -3.5719 H   0  0  0  0  0  0  0  0  0  0  0  0
    7.2108   -5.4474   -4.9316 H   0  0  0  0  0  0  0  0  0  0  0  0
  1  2  1  0  0  0  0
  1 37  1  0  0  0  0
  1 38  1  0  0  0  0
  1 39  1  0  0  0  0
  2  3  1  0  0  0  0
  2 40  1  0  0  0  0
  2 41  1  0  0  0  0
  3  4  1  0  0  0  0
  3  6  1  0  0  0  0
  4  5  1  0  0  0  0
  4 42  1  0  0  0  0
  4 43  1  0  0  0  0
  5 44  1  0  0  0  0
  5 45  1  0  0  0  0
  5 46  1  0  0  0  0
  6  7  1  0  0  0  0
  6 47  1  0  0  0  0
  6 48  1  0  0  0  0
  7  8  1  0  0  0  0
  7 49  1  0  0  0  0
  7 50  1  0  0  0  0
  8  9  1  0  0  0  0
  9 10  1  0  0  0  0
  9 35  2  0  0  0  0
 10 11  2  0  0  0  0
 10 51  1  0  0  0  0
 11 12  1  0  0  0  0
 11 33  1  0  0  0  0
 12 13  1  0  0  0  0
 12 52  1  0  0  0  0
 13 14  2  0  0  0  0
 13 32  1  0  0  0  0
 14 15  1  0  0  0  0
 15 16  1  0  0  0  0
 15 31  2  0  0  0  0
 16 17  2  0  0  0  0
 16 53  1  0  0  0  0
 17 18  1  0  0  0  0
 17 29  1  0  0  0  0
 18 19  1  0  0  0  0
 19 20  1  0  0  0  0
 19 28  2  0  0  0  0
 20 21  2  0  0  0  0
 20 54  1  0  0  0  0
 21 22  1  0  0  0  0
 21 55  1  0  0  0  0
 22 23  2  0  0  0  0
 23 24  1  0  0  0  0
 23 28  1  0  0  0  0
 24 25  2  0  0  0  0
 24 26  1  0  0  0  0
 26 27  1  0  0  0  0
 26 56  1  0  0  0  0
 27 57  1  0  0  0  0
 27 58  1  0  0  0  0
 27 59  1  0  0  0  0
 28 60  1  0  0  0  0
 29 30  2  0  0  0  0
 29 61  1  0  0  0  0
 30 31  1  0  0  0  0
 30 62  1  0  0  0  0
 31 32  1  0  0  0  0
 33 34  2  0  0  0  0
 33 63  1  0  0  0  0
 34 35  1  0  0  0  0
 34 64  1  0  0  0  0
 35 36  1  0  0  0  0
M  END
$$$$
