CHEMBL3753051
 OpenBabel04072215373D

 70 75  0  0  0  0  0  0  0  0999 V2000
    3.9558    8.6186   -5.2245 C   0  0  0  0  0  0  0  0  0  0  0  0
    3.4310    8.0882   -3.9358 C   0  0  0  0  0  0  0  0  0  0  0  0
    3.9489    6.8846   -3.4606 N   0  0  0  0  0  0  0  0  0  0  0  0
    3.3156    6.5243   -2.3717 C   0  0  0  0  0  0  0  0  0  0  0  0
    3.5946    5.3575   -1.7099 N   0  0  0  0  0  0  0  0  0  0  0  0
    2.8815    4.8265   -0.6590 C   0  0  0  0  0  0  0  0  0  0  0  0
    1.8039    5.2313   -0.2264 O   0  0  0  0  0  0  0  0  0  0  0  0
    3.5166    3.5751   -0.0442 C   0  0  0  0  0  0  0  0  0  0  0  0
    5.0008    3.5995   -0.0551 N   0  0  0  0  0  0  0  0  0  0  0  0
    5.5292    2.3622    0.5880 C   0  0  0  0  0  0  0  0  0  0  0  0
    5.2761    2.2263    2.1150 C   0  0  0  0  0  0  0  0  0  0  0  0
    5.6361    3.4487    2.8516 N   0  0  0  0  0  0  0  0  0  0  0  0
    6.3889    3.3438    4.0146 C   0  0  0  0  0  0  0  0  0  0  0  0
    7.2268    2.2899    4.1132 N   0  0  0  0  0  0  0  0  0  0  0  0
    8.0521    2.1034    5.2031 N   0  0  0  0  0  0  0  0  0  0  0  0
    8.0937    3.0059    6.2049 C   0  0  0  0  0  0  0  0  0  0  0  0
    8.9628    2.6008    7.3463 C   0  0  0  0  0  0  0  0  0  0  0  0
   10.1540    1.8791    7.1354 C   0  0  0  0  0  0  0  0  0  0  0  0
   10.9815    1.4975    8.2004 C   0  0  0  0  0  0  0  0  0  0  0  0
   10.6476    1.8432    9.5061 C   0  0  0  0  0  0  0  0  0  0  0  0
    9.4630    2.5249    9.7516 C   0  0  0  0  0  0  0  0  0  0  0  0
    8.6185    2.8614    8.6888 C   0  0  0  0  0  0  0  0  0  0  0  0
    7.2975    4.1698    6.1429 C   0  0  0  0  0  0  0  0  0  0  0  0
    7.3637    5.2290    7.0949 C   0  0  0  0  0  0  0  0  0  0  0  0
    6.4647    6.2931    7.1078 C   0  0  0  0  0  0  0  0  0  0  0  0
    5.4692    6.3420    6.1574 C   0  0  0  0  0  0  0  0  0  0  0  0
    5.4199    5.3566    5.1723 C   0  0  0  0  0  0  0  0  0  0  0  0
    6.3626    4.2923    5.0759 C   0  0  0  0  0  0  0  0  0  0  0  0
    5.3018    4.7283    2.2258 C   0  0  0  0  0  0  0  0  0  0  0  0
    5.5654    4.7378    0.7092 C   0  0  0  0  0  0  0  0  0  0  0  0
    2.1782    7.6406   -1.7820 S   0  0  0  0  0  0  0  0  0  0  0  0
    2.4565    8.6625   -3.1317 C   0  0  0  0  0  0  0  0  0  0  0  0
    1.7118    9.9018   -3.3227 C   0  0  0  0  0  0  0  0  0  0  0  0
    1.7875   10.5399   -4.3656 O   0  0  0  0  0  0  0  0  0  0  0  0
    0.9722   10.2995   -2.2146 N   0  0  0  0  0  0  0  0  0  0  0  0
    0.1315   11.4224   -2.0821 C   0  0  0  0  0  0  0  0  0  0  0  0
   -0.2689   12.2223   -3.1494 C   0  0  0  0  0  0  0  0  0  0  0  0
   -1.0960   13.3296   -2.9315 C   0  0  0  0  0  0  0  0  0  0  0  0
   -1.5241   13.6453   -1.6437 C   0  0  0  0  0  0  0  0  0  0  0  0
   -1.1398   12.8446   -0.5719 C   0  0  0  0  0  0  0  0  0  0  0  0
   -0.3262   11.7328   -0.7893 C   0  0  0  0  0  0  0  0  0  0  0  0
    4.7679    7.9891   -5.6024 H   0  0  0  0  0  0  0  0  0  0  0  0
    4.3464    9.6333   -5.1014 H   0  0  0  0  0  0  0  0  0  0  0  0
    3.1641    8.6337   -5.9804 H   0  0  0  0  0  0  0  0  0  0  0  0
    4.4061    4.8484   -2.0409 H   0  0  0  0  0  0  0  0  0  0  0  0
    3.1597    2.7226   -0.6348 H   0  0  0  0  0  0  0  0  0  0  0  0
    3.1125    3.4761    0.9689 H   0  0  0  0  0  0  0  0  0  0  0  0
    6.6133    2.3359    0.4154 H   0  0  0  0  0  0  0  0  0  0  0  0
    5.1278    1.4814    0.0712 H   0  0  0  0  0  0  0  0  0  0  0  0
    5.8045    1.3331    2.4687 H   0  0  0  0  0  0  0  0  0  0  0  0
    4.2115    2.0296    2.2925 H   0  0  0  0  0  0  0  0  0  0  0  0
   10.4464    1.5937    6.1252 H   0  0  0  0  0  0  0  0  0  0  0  0
   11.8872    0.9282    8.0065 H   0  0  0  0  0  0  0  0  0  0  0  0
   11.2977    1.5656   10.3316 H   0  0  0  0  0  0  0  0  0  0  0  0
    9.1832    2.7872   10.7687 H   0  0  0  0  0  0  0  0  0  0  0  0
    7.6694    3.3321    8.9356 H   0  0  0  0  0  0  0  0  0  0  0  0
    8.1390    5.2402    7.8570 H   0  0  0  0  0  0  0  0  0  0  0  0
    6.5325    7.0591    7.8749 H   0  0  0  0  0  0  0  0  0  0  0  0
    4.7350    7.1427    6.1645 H   0  0  0  0  0  0  0  0  0  0  0  0
    4.5915    5.4225    4.4761 H   0  0  0  0  0  0  0  0  0  0  0  0
    5.8927    5.5535    2.6366 H   0  0  0  0  0  0  0  0  0  0  0  0
    4.2412    4.9409    2.4044 H   0  0  0  0  0  0  0  0  0  0  0  0
    6.6504    4.7429    0.5445 H   0  0  0  0  0  0  0  0  0  0  0  0
    5.2169    5.6943    0.3041 H   0  0  0  0  0  0  0  0  0  0  0  0
    1.0847    9.7264   -1.3873 H   0  0  0  0  0  0  0  0  0  0  0  0
    0.0272   12.0011   -4.1695 H   0  0  0  0  0  0  0  0  0  0  0  0
   -1.4035   13.9433   -3.7732 H   0  0  0  0  0  0  0  0  0  0  0  0
   -2.1570   14.5131   -1.4780 H   0  0  0  0  0  0  0  0  0  0  0  0
   -1.4726   13.0856    0.4337 H   0  0  0  0  0  0  0  0  0  0  0  0
   -0.0368   11.1219    0.0630 H   0  0  0  0  0  0  0  0  0  0  0  0
  1  2  1  0  0  0  0
  1 42  1  0  0  0  0
  1 43  1  0  0  0  0
  1 44  1  0  0  0  0
  2  3  1  0  0  0  0
  2 32  2  0  0  0  0
  3  4  2  0  0  0  0
  4  5  1  0  0  0  0
  4 31  1  0  0  0  0
  5  6  1  0  0  0  0
  5 45  1  0  0  0  0
  6  7  2  0  0  0  0
  6  8  1  0  0  0  0
  8  9  1  0  0  0  0
  8 46  1  0  0  0  0
  8 47  1  0  0  0  0
  9 10  1  0  0  0  0
  9 30  1  0  0  0  0
 10 11  1  0  0  0  0
 10 48  1  0  0  0  0
 10 49  1  0  0  0  0
 11 12  1  0  0  0  0
 11 50  1  0  0  0  0
 11 51  1  0  0  0  0
 12 13  1  0  0  0  0
 12 29  1  0  0  0  0
 13 14  1  0  0  0  0
 13 28  2  0  0  0  0
 14 15  2  0  0  0  0
 15 16  1  0  0  0  0
 16 17  1  0  0  0  0
 16 23  2  0  0  0  0
 17 18  1  0  0  0  0
 17 22  2  0  0  0  0
 18 19  2  0  0  0  0
 18 52  1  0  0  0  0
 19 20  1  0  0  0  0
 19 53  1  0  0  0  0
 20 21  2  0  0  0  0
 20 54  1  0  0  0  0
 21 22  1  0  0  0  0
 21 55  1  0  0  0  0
 22 56  1  0  0  0  0
 23 24  1  0  0  0  0
 23 28  1  0  0  0  0
 24 25  2  0  0  0  0
 24 57  1  0  0  0  0
 25 26  1  0  0  0  0
 25 58  1  0  0  0  0
 26 27  2  0  0  0  0
 26 59  1  0  0  0  0
 27 28  1  0  0  0  0
 27 60  1  0  0  0  0
 29 30  1  0  0  0  0
 29 61  1  0  0  0  0
 29 62  1  0  0  0  0
 30 63  1  0  0  0  0
 30 64  1  0  0  0  0
 31 32  1  0  0  0  0
 32 33  1  0  0  0  0
 33 34  2  0  0  0  0
 33 35  1  0  0  0  0
 35 36  1  0  0  0  0
 35 65  1  0  0  0  0
 36 37  1  0  0  0  0
 36 41  2  0  0  0  0
 37 38  2  0  0  0  0
 37 66  1  0  0  0  0
 38 39  1  0  0  0  0
 38 67  1  0  0  0  0
 39 40  2  0  0  0  0
 39 68  1  0  0  0  0
 40 41  1  0  0  0  0
 40 69  1  0  0  0  0
 41 70  1  0  0  0  0
M  END
$$$$
