CHEMBL3780052
 OpenBabel04072215373D

 49 52  0  0  0  0  0  0  0  0999 V2000
   10.7433    0.7880    3.0223 C   0  0  0  0  0  0  0  0  0  0  0  0
   10.2325    1.4389    1.8657 O   0  0  0  0  0  0  0  0  0  0  0  0
    9.0562    2.1188    2.0152 C   0  0  0  0  0  0  0  0  0  0  0  0
    8.2840    2.1851    3.1738 C   0  0  0  0  0  0  0  0  0  0  0  0
    7.0923    2.9257    3.1951 C   0  0  0  0  0  0  0  0  0  0  0  0
    6.6643    3.6248    2.0607 C   0  0  0  0  0  0  0  0  0  0  0  0
    5.3512    4.3742    2.0105 C   0  0  0  0  0  0  0  0  0  0  0  0
    4.8295    4.9939    3.2898 C   0  0  0  0  0  0  0  0  0  0  0  0
    3.8745    4.2733    3.9052 N   0  0  0  0  0  0  0  0  0  0  0  0
    3.1855    4.8028    4.9541 N   0  0  0  0  0  0  0  0  0  0  0  0
    3.4312    6.0523    5.4066 C   0  0  0  0  0  0  0  0  0  0  0  0
    2.5572    6.5878    6.3985 N   0  0  0  0  0  0  0  0  0  0  0  0
    1.8408    5.7859    7.3298 C   0  0  0  0  0  0  0  0  0  0  0  0
    2.4072    4.6355    7.8962 C   0  0  0  0  0  0  0  0  0  0  0  0
    1.7193    3.9048    8.8623 C   0  0  0  0  0  0  0  0  0  0  0  0
    0.4676    4.3317    9.3054 C   0  0  0  0  0  0  0  0  0  0  0  0
   -0.0893    5.5048    8.7991 C   0  0  0  0  0  0  0  0  0  0  0  0
   -1.2894    6.0437    9.1799 O   0  0  0  0  0  0  0  0  0  0  0  0
   -2.0358    5.3186   10.1498 C   0  0  0  0  0  0  0  0  0  0  0  0
    0.6089    6.2337    7.8246 C   0  0  0  0  0  0  0  0  0  0  0  0
    4.4578    6.8367    4.8246 C   0  0  0  0  0  0  0  0  0  0  0  0
    4.7976    8.1488    5.2450 C   0  0  0  0  0  0  0  0  0  0  0  0
    5.8524    8.8645    4.6712 C   0  0  0  0  0  0  0  0  0  0  0  0
    6.5944    8.2932    3.6505 C   0  0  0  0  0  0  0  0  0  0  0  0
    6.2689    7.0182    3.1903 C   0  0  0  0  0  0  0  0  0  0  0  0
    5.2025    6.2723    3.7515 C   0  0  0  0  0  0  0  0  0  0  0  0
    7.4312    3.5250    0.8896 C   0  0  0  0  0  0  0  0  0  0  0  0
    8.6143    2.7838    0.8703 C   0  0  0  0  0  0  0  0  0  0  0  0
   11.7159    0.3579    2.7634 H   0  0  0  0  0  0  0  0  0  0  0  0
   10.0860   -0.0312    3.3308 H   0  0  0  0  0  0  0  0  0  0  0  0
   10.9030    1.4974    3.8411 H   0  0  0  0  0  0  0  0  0  0  0  0
    8.5699    1.6617    4.0801 H   0  0  0  0  0  0  0  0  0  0  0  0
    6.5008    2.9308    4.1078 H   0  0  0  0  0  0  0  0  0  0  0  0
    4.5950    3.6672    1.6411 H   0  0  0  0  0  0  0  0  0  0  0  0
    5.4017    5.1608    1.2458 H   0  0  0  0  0  0  0  0  0  0  0  0
    3.0148    7.3213    6.9252 H   0  0  0  0  0  0  0  0  0  0  0  0
    3.3878    4.2896    7.5802 H   0  0  0  0  0  0  0  0  0  0  0  0
    2.1616    2.9977    9.2691 H   0  0  0  0  0  0  0  0  0  0  0  0
   -0.0395    3.7253   10.0476 H   0  0  0  0  0  0  0  0  0  0  0  0
   -2.9180    5.9118   10.4102 H   0  0  0  0  0  0  0  0  0  0  0  0
   -1.4618    5.1677   11.0708 H   0  0  0  0  0  0  0  0  0  0  0  0
   -2.3827    4.3628    9.7413 H   0  0  0  0  0  0  0  0  0  0  0  0
    0.1667    7.1443    7.4277 H   0  0  0  0  0  0  0  0  0  0  0  0
    4.2465    8.6446    6.0396 H   0  0  0  0  0  0  0  0  0  0  0  0
    6.0940    9.8608    5.0322 H   0  0  0  0  0  0  0  0  0  0  0  0
    7.4273    8.8384    3.2090 H   0  0  0  0  0  0  0  0  0  0  0  0
    6.8799    6.6009    2.3931 H   0  0  0  0  0  0  0  0  0  0  0  0
    7.1041    4.0106   -0.0285 H   0  0  0  0  0  0  0  0  0  0  0  0
    9.1940    2.7157   -0.0487 H   0  0  0  0  0  0  0  0  0  0  0  0
  1  2  1  0  0  0  0
  1 29  1  0  0  0  0
  1 30  1  0  0  0  0
  1 31  1  0  0  0  0
  2  3  1  0  0  0  0
  3  4  1  0  0  0  0
  3 28  2  0  0  0  0
  4  5  2  0  0  0  0
  4 32  1  0  0  0  0
  5  6  1  0  0  0  0
  5 33  1  0  0  0  0
  6  7  1  0  0  0  0
  6 27  2  0  0  0  0
  7  8  1  0  0  0  0
  7 34  1  0  0  0  0
  7 35  1  0  0  0  0
  8  9  1  0  0  0  0
  8 26  2  0  0  0  0
  9 10  2  0  0  0  0
 10 11  1  0  0  0  0
 11 12  1  0  0  0  0
 11 21  2  0  0  0  0
 12 13  1  0  0  0  0
 12 36  1  0  0  0  0
 13 14  1  0  0  0  0
 13 20  2  0  0  0  0
 14 15  2  0  0  0  0
 14 37  1  0  0  0  0
 15 16  1  0  0  0  0
 15 38  1  0  0  0  0
 16 17  2  0  0  0  0
 16 39  1  0  0  0  0
 17 18  1  0  0  0  0
 17 20  1  0  0  0  0
 18 19  1  0  0  0  0
 19 40  1  0  0  0  0
 19 41  1  0  0  0  0
 19 42  1  0  0  0  0
 20 43  1  0  0  0  0
 21 22  1  0  0  0  0
 21 26  1  0  0  0  0
 22 23  2  0  0  0  0
 22 44  1  0  0  0  0
 23 24  1  0  0  0  0
 23 45  1  0  0  0  0
 24 25  2  0  0  0  0
 24 46  1  0  0  0  0
 25 26  1  0  0  0  0
 25 47  1  0  0  0  0
 27 28  1  0  0  0  0
 27 48  1  0  0  0  0
 28 49  1  0  0  0  0
M  END
$$$$
