CHEMBL1083350
 OpenBabel04072215363D

 64 70  0  0  1  0  0  0  0  0999 V2000
    3.1134   -0.6525   -1.0708 C   0  0  0  0  0  0  0  0  0  0  0  0
    2.2326   -0.6374    0.1851 C   0  0  0  0  0  0  0  0  0  0  0  0
    0.7657   -0.4311   -0.1902 C   0  0  0  0  0  0  0  0  0  0  0  0
    2.5123   -1.7951    1.0500 N   0  0  0  0  0  0  0  0  0  0  0  0
    3.4906   -1.7825    2.0695 C   0  0  0  0  0  0  0  0  0  0  0  0
    4.2285   -0.7324    2.6448 C   0  0  0  0  0  0  0  0  0  0  0  0
    5.1282   -1.0306    3.6871 C   0  0  0  0  0  0  0  0  0  0  0  0
    5.3344   -2.3355    4.1447 C   0  0  0  0  0  0  0  0  0  0  0  0
    6.1754   -2.7072    5.3604 C   0  0  3  0  0  0  0  0  0  0  0  0
    6.9486   -1.5990    6.0787 C   0  0  0  0  0  0  0  0  0  0  0  0
    8.2063   -1.1942    5.3199 C   0  0  0  0  0  0  0  0  0  0  0  0
    9.0404   -2.4190    4.9739 C   0  0  0  0  0  0  0  0  0  0  0  0
    8.1962   -3.5078    4.3260 C   0  0  0  0  0  0  0  0  0  0  0  0
    7.0421   -3.8246    5.1011 O   0  0  0  0  0  0  0  0  0  0  0  0
    4.6519   -3.3752    3.5034 C   0  0  0  0  0  0  0  0  0  0  0  0
    3.7295   -3.1069    2.4741 C   0  0  0  0  0  0  0  0  0  0  0  0
    2.9398   -3.8315    1.6111 C   0  0  0  0  0  0  0  0  0  0  0  0
    3.0099   -5.2216    1.4330 C   0  0  0  0  0  0  0  0  0  0  0  0
    2.3832   -5.7061    0.2634 C   0  0  0  0  0  0  0  0  0  0  0  0
    1.6332   -4.8819   -0.5959 C   0  0  0  0  0  0  0  0  0  0  0  0
    1.0863   -3.7536    0.0792 C   0  0  0  0  0  0  0  0  0  0  0  0
    2.0638   -3.0982    0.8544 C   0  0  0  0  0  0  0  0  0  0  0  0
   -0.2887   -4.1924    0.7526 C   0  0  0  0  0  0  0  0  0  0  0  0
   -1.1498   -5.2601   -0.0159 C   0  0  0  0  0  0  0  0  0  0  0  0
   -0.5285   -5.6159   -1.3188 C   0  0  0  0  0  0  0  0  0  0  0  0
    0.8011   -5.4551   -1.6134 C   0  0  0  0  0  0  0  0  0  0  0  0
    0.9081   -5.6844   -2.9885 C   0  0  0  0  0  0  0  0  0  0  0  0
   -0.2461   -6.1294   -3.5033 N   0  0  0  0  0  0  0  0  0  0  0  0
   -1.0796   -6.1662   -2.4409 N   0  0  0  0  0  0  0  0  0  0  0  0
   -2.3754   -6.7839   -2.5738 C   0  0  0  0  0  0  0  0  0  0  0  0
    2.5221   -7.1417    0.2634 C   0  0  0  0  0  0  0  0  0  0  0  0
    2.1080   -8.0306   -0.4731 O   0  0  0  0  0  0  0  0  0  0  0  0
    3.2245   -7.4198    1.4313 N   0  0  0  0  0  0  0  0  0  0  0  0
    3.6146   -6.2791    2.2334 C   0  0  0  0  0  0  0  0  0  0  0  0
    2.9101    0.2216   -1.6997 H   0  0  0  0  0  0  0  0  0  0  0  0
    2.9434   -1.5500   -1.6747 H   0  0  0  0  0  0  0  0  0  0  0  0
    4.1752   -0.6234   -0.8061 H   0  0  0  0  0  0  0  0  0  0  0  0
    2.5148    0.2497    0.7655 H   0  0  0  0  0  0  0  0  0  0  0  0
    0.3565   -1.2666   -0.7637 H   0  0  0  0  0  0  0  0  0  0  0  0
    0.6568    0.4669   -0.8116 H   0  0  0  0  0  0  0  0  0  0  0  0
    0.1498   -0.2877    0.7032 H   0  0  0  0  0  0  0  0  0  0  0  0
    4.1089    0.2958    2.3194 H   0  0  0  0  0  0  0  0  0  0  0  0
    5.6557   -0.1932    4.1385 H   0  0  0  0  0  0  0  0  0  0  0  0
    5.4438   -3.0799    6.0905 H   0  0  0  0  0  0  0  0  0  0  0  0
    7.2639   -1.9893    7.0561 H   0  0  0  0  0  0  0  0  0  0  0  0
    6.3144   -0.7295    6.2794 H   0  0  0  0  0  0  0  0  0  0  0  0
    8.7962   -0.5007    5.9285 H   0  0  0  0  0  0  0  0  0  0  0  0
    7.9415   -0.6634    4.4004 H   0  0  0  0  0  0  0  0  0  0  0  0
    9.4835   -2.8108    5.8975 H   0  0  0  0  0  0  0  0  0  0  0  0
    9.8652   -2.1374    4.3105 H   0  0  0  0  0  0  0  0  0  0  0  0
    8.7929   -4.4231    4.2454 H   0  0  0  0  0  0  0  0  0  0  0  0
    7.8954   -3.2300    3.3100 H   0  0  0  0  0  0  0  0  0  0  0  0
    4.8112   -4.3965    3.8365 H   0  0  0  0  0  0  0  0  0  0  0  0
   -0.8777   -3.3135    0.9973 H   0  0  0  0  0  0  0  0  0  0  0  0
   -0.0223   -4.6601    1.7132 H   0  0  0  0  0  0  0  0  0  0  0  0
   -2.1685   -4.8784   -0.1513 H   0  0  0  0  0  0  0  0  0  0  0  0
   -1.2321   -6.1710    0.5926 H   0  0  0  0  0  0  0  0  0  0  0  0
    1.7521   -5.5226   -3.6457 H   0  0  0  0  0  0  0  0  0  0  0  0
   -2.5806   -6.9715   -3.6332 H   0  0  0  0  0  0  0  0  0  0  0  0
   -3.1308   -6.1151   -2.1625 H   0  0  0  0  0  0  0  0  0  0  0  0
   -2.3549   -7.7309   -2.0303 H   0  0  0  0  0  0  0  0  0  0  0  0
    3.3299   -8.3802    1.7229 H   0  0  0  0  0  0  0  0  0  0  0  0
    4.7027   -6.2256    2.2762 H   0  0  0  0  0  0  0  0  0  0  0  0
    3.1573   -6.3550    3.2240 H   0  0  0  0  0  0  0  0  0  0  0  0
  1  2  1  0  0  0  0
  1 35  1  0  0  0  0
  1 36  1  0  0  0  0
  1 37  1  0  0  0  0
  2  3  1  0  0  0  0
  2  4  1  0  0  0  0
  2 38  1  0  0  0  0
  3 39  1  0  0  0  0
  3 40  1  0  0  0  0
  3 41  1  0  0  0  0
  4  5  1  0  0  0  0
  4 22  1  0  0  0  0
  5  6  1  0  0  0  0
  5 16  2  0  0  0  0
  6  7  2  0  0  0  0
  6 42  1  0  0  0  0
  7  8  1  0  0  0  0
  7 43  1  0  0  0  0
  8  9  1  0  0  0  0
  8 15  2  0  0  0  0
  9 10  1  0  0  0  0
  9 14  1  0  0  0  0
  9 44  1  0  0  0  0
 10 11  1  0  0  0  0
 10 45  1  0  0  0  0
 10 46  1  0  0  0  0
 11 12  1  0  0  0  0
 11 47  1  0  0  0  0
 11 48  1  0  0  0  0
 12 13  1  0  0  0  0
 12 49  1  0  0  0  0
 12 50  1  0  0  0  0
 13 14  1  0  0  0  0
 13 51  1  0  0  0  0
 13 52  1  0  0  0  0
 15 16  1  0  0  0  0
 15 53  1  0  0  0  0
 16 17  1  0  0  0  0
 17 18  1  0  0  0  0
 17 22  2  0  0  0  0
 18 19  2  0  0  0  0
 18 34  1  0  0  0  0
 19 20  1  0  0  0  0
 19 31  1  0  0  0  0
 20 21  2  0  0  0  0
 20 26  1  0  0  0  0
 21 22  1  0  0  0  0
 21 23  1  0  0  0  0
 23 24  1  0  0  0  0
 23 54  1  0  0  0  0
 23 55  1  0  0  0  0
 24 25  1  0  0  0  0
 24 56  1  0  0  0  0
 24 57  1  0  0  0  0
 25 26  2  0  0  0  0
 25 29  1  0  0  0  0
 26 27  1  0  0  0  0
 27 28  2  0  0  0  0
 27 58  1  0  0  0  0
 28 29  1  0  0  0  0
 29 30  1  0  0  0  0
 30 59  1  0  0  0  0
 30 60  1  0  0  0  0
 30 61  1  0  0  0  0
 31 32  2  0  0  0  0
 31 33  1  0  0  0  0
 33 34  1  0  0  0  0
 33 62  1  0  0  0  0
 34 63  1  0  0  0  0
 34 64  1  0  0  0  0
M  END
$$$$
