CHEMBL381603
 OpenBabel04072215373D

 41 45  0  0  0  0  0  0  0  0999 V2000
    2.2920    2.2919   -0.1539 Cl  0  0  0  0  0  0  0  0  0  0  0  0
    0.8868    1.5184    0.4764 C   0  0  0  0  0  0  0  0  0  0  0  0
    0.6596    1.5373    1.8554 C   0  0  0  0  0  0  0  0  0  0  0  0
   -0.4900    0.9603    2.4043 C   0  0  0  0  0  0  0  0  0  0  0  0
   -1.3879    0.3946    1.4988 C   0  0  0  0  0  0  0  0  0  0  0  0
   -2.6204   -0.1781    1.6628 N   0  0  0  0  0  0  0  0  0  0  0  0
   -3.1440   -0.4950    0.4239 C   0  0  0  0  0  0  0  0  0  0  0  0
   -4.5335   -0.9528    0.2506 C   0  0  0  0  0  0  0  0  0  0  0  0
   -5.1303   -1.6678    1.3158 C   0  0  0  0  0  0  0  0  0  0  0  0
   -6.4741   -2.0371    1.2944 C   0  0  0  0  0  0  0  0  0  0  0  0
   -7.2569   -1.6975    0.2045 C   0  0  0  0  0  0  0  0  0  0  0  0
   -6.6801   -1.0403   -0.8819 C   0  0  0  0  0  0  0  0  0  0  0  0
   -5.3127   -0.6806   -0.9003 C   0  0  0  0  0  0  0  0  0  0  0  0
   -4.7629   -0.1099   -2.1953 C   0  0  0  0  0  0  0  0  0  0  0  0
   -4.8745    1.3426   -2.3437 N   0  0  0  0  0  0  0  0  0  0  0  0
   -3.8361    2.2103   -2.0952 C   0  0  0  0  0  0  0  0  0  0  0  0
   -4.1868    3.4604   -2.5416 C   0  0  0  0  0  0  0  0  0  0  0  0
   -5.4817    3.3638   -3.1107 C   0  0  0  0  0  0  0  0  0  0  0  0
   -6.3244    4.2848   -3.7471 C   0  0  0  0  0  0  0  0  0  0  0  0
   -7.5284    3.9031   -4.2343 N   0  0  0  0  0  0  0  0  0  0  0  0
   -7.8940    2.6116   -4.1042 C   0  0  0  0  0  0  0  0  0  0  0  0
   -7.1299    1.6213   -3.5011 C   0  0  0  0  0  0  0  0  0  0  0  0
   -5.8950    2.0299   -2.9862 C   0  0  0  0  0  0  0  0  0  0  0  0
   -2.2407   -0.2506   -0.5063 N   0  0  0  0  0  0  0  0  0  0  0  0
   -1.1754    0.3460    0.1290 C   0  0  0  0  0  0  0  0  0  0  0  0
   -0.0117    0.9063   -0.4054 C   0  0  0  0  0  0  0  0  0  0  0  0
    1.3751    2.0217    2.5163 H   0  0  0  0  0  0  0  0  0  0  0  0
   -0.6793    0.9823    3.4721 H   0  0  0  0  0  0  0  0  0  0  0  0
   -3.1150   -0.2521    2.5384 H   0  0  0  0  0  0  0  0  0  0  0  0
   -4.5463   -1.9672    2.1835 H   0  0  0  0  0  0  0  0  0  0  0  0
   -6.9046   -2.5855    2.1284 H   0  0  0  0  0  0  0  0  0  0  0  0
   -8.3104   -1.9653    0.1838 H   0  0  0  0  0  0  0  0  0  0  0  0
   -7.3150   -0.8303   -1.7381 H   0  0  0  0  0  0  0  0  0  0  0  0
   -5.2984   -0.5559   -3.0441 H   0  0  0  0  0  0  0  0  0  0  0  0
   -3.7200   -0.3908   -2.3628 H   0  0  0  0  0  0  0  0  0  0  0  0
   -2.9151    1.8625   -1.6517 H   0  0  0  0  0  0  0  0  0  0  0  0
   -3.5608    4.3419   -2.4981 H   0  0  0  0  0  0  0  0  0  0  0  0
   -6.0538    5.3247   -3.8903 H   0  0  0  0  0  0  0  0  0  0  0  0
   -8.8683    2.3735   -4.5243 H   0  0  0  0  0  0  0  0  0  0  0  0
   -7.4841    0.6023   -3.4523 H   0  0  0  0  0  0  0  0  0  0  0  0
    0.1583    0.8984   -1.4763 H   0  0  0  0  0  0  0  0  0  0  0  0
  1  2  1  0  0  0  0
  2  3  1  0  0  0  0
  2 26  2  0  0  0  0
  3  4  2  0  0  0  0
  3 27  1  0  0  0  0
  4  5  1  0  0  0  0
  4 28  1  0  0  0  0
  5  6  1  0  0  0  0
  5 25  2  0  0  0  0
  6  7  1  0  0  0  0
  6 29  1  0  0  0  0
  7  8  1  0  0  0  0
  7 24  2  0  0  0  0
  8  9  1  0  0  0  0
  8 13  2  0  0  0  0
  9 10  2  0  0  0  0
  9 30  1  0  0  0  0
 10 11  1  0  0  0  0
 10 31  1  0  0  0  0
 11 12  2  0  0  0  0
 11 32  1  0  0  0  0
 12 13  1  0  0  0  0
 12 33  1  0  0  0  0
 13 14  1  0  0  0  0
 14 15  1  0  0  0  0
 14 34  1  0  0  0  0
 14 35  1  0  0  0  0
 15 16  1  0  0  0  0
 15 23  1  0  0  0  0
 16 17  2  0  0  0  0
 16 36  1  0  0  0  0
 17 18  1  0  0  0  0
 17 37  1  0  0  0  0
 18 19  1  0  0  0  0
 18 23  2  0  0  0  0
 19 20  2  0  0  0  0
 19 38  1  0  0  0  0
 20 21  1  0  0  0  0
 21 22  2  0  0  0  0
 21 39  1  0  0  0  0
 22 23  1  0  0  0  0
 22 40  1  0  0  0  0
 24 25  1  0  0  0  0
 25 26  1  0  0  0  0
 26 41  1  0  0  0  0
M  END
$$$$
