CHEMBL3671518
 OpenBabel04072215373D

 51 53  0  0  0  0  0  0  0  0999 V2000
    3.1422   -3.3957    1.8405 C   0  0  0  0  0  0  0  0  0  0  0  0
    3.2834   -2.9544    0.5850 C   0  0  0  0  0  0  0  0  0  0  0  0
    3.5004   -1.5019    0.3403 C   0  0  0  0  0  0  0  0  0  0  0  0
    3.0564   -0.6382    1.0909 O   0  0  0  0  0  0  0  0  0  0  0  0
    4.2727   -1.1490   -0.7451 N   0  0  0  0  0  0  0  0  0  0  0  0
    5.1398   -2.0617   -1.3771 C   0  0  0  0  0  0  0  0  0  0  0  0
    6.2256   -2.5403   -0.6431 C   0  0  0  0  0  0  0  0  0  0  0  0
    6.9240   -3.6845   -1.0786 C   0  0  0  0  0  0  0  0  0  0  0  0
    7.9069   -4.3450   -0.3287 C   0  0  0  0  0  0  0  0  0  0  0  0
    8.2176   -3.8991    0.9834 N   0  0  0  0  0  0  0  0  0  0  0  0
    8.8773   -4.7069    1.9396 C   0  0  0  0  0  0  0  0  0  0  0  0
    8.5017   -6.0439    2.1314 C   0  0  0  0  0  0  0  0  0  0  0  0
    9.2340   -6.8788    2.9760 C   0  0  0  0  0  0  0  0  0  0  0  0
   10.3341   -6.3691    3.6606 C   0  0  0  0  0  0  0  0  0  0  0  0
   11.3930   -7.5293    4.7103 Br  0  0  0  0  0  0  0  0  0  0  0  0
   10.6747   -5.0233    3.5496 C   0  0  0  0  0  0  0  0  0  0  0  0
    9.9376   -4.2042    2.7014 C   0  0  0  0  0  0  0  0  0  0  0  0
   10.2847   -2.9124    2.5760 F   0  0  0  0  0  0  0  0  0  0  0  0
    8.5205   -5.4523   -0.7836 N   0  0  0  0  0  0  0  0  0  0  0  0
    8.1349   -5.9127   -1.9742 C   0  0  0  0  0  0  0  0  0  0  0  0
    7.1798   -5.3906   -2.7508 N   0  0  0  0  0  0  0  0  0  0  0  0
    6.5759   -4.2912   -2.2951 C   0  0  0  0  0  0  0  0  0  0  0  0
    5.5369   -3.7506   -3.0419 C   0  0  0  0  0  0  0  0  0  0  0  0
    4.8183   -2.6309   -2.6128 C   0  0  0  0  0  0  0  0  0  0  0  0
    3.8055   -2.2378   -3.4533 O   0  0  0  0  0  0  0  0  0  0  0  0
    3.5556   -0.8282   -3.4801 C   0  0  0  0  0  0  0  0  0  0  0  0
    3.1026   -0.3890   -4.8754 C   0  0  0  0  0  0  0  0  0  0  0  0
    2.9206    1.0535   -4.9487 N   0  0  0  0  0  0  0  0  0  0  0  0
    4.0037    1.9022   -5.0313 C   0  0  0  0  0  0  0  0  0  0  0  0
    5.1642    1.5150   -5.1538 O   0  0  0  0  0  0  0  0  0  0  0  0
    3.6703    3.3890   -4.8963 C   0  0  0  0  0  0  0  0  0  0  0  0
    4.7877    4.2171   -5.1796 O   0  0  0  0  0  0  0  0  0  0  0  0
    3.0496   -4.4556    2.0511 H   0  0  0  0  0  0  0  0  0  0  0  0
    3.1399   -2.7105    2.6835 H   0  0  0  0  0  0  0  0  0  0  0  0
    3.3073   -3.6434   -0.2504 H   0  0  0  0  0  0  0  0  0  0  0  0
    4.6437   -0.2181   -0.5825 H   0  0  0  0  0  0  0  0  0  0  0  0
    6.4635   -2.0867    0.3169 H   0  0  0  0  0  0  0  0  0  0  0  0
    8.5908   -2.9534    0.9663 H   0  0  0  0  0  0  0  0  0  0  0  0
    7.6549   -6.4557    1.5867 H   0  0  0  0  0  0  0  0  0  0  0  0
    8.9531   -7.9249    3.0634 H   0  0  0  0  0  0  0  0  0  0  0  0
   11.5220   -4.6098    4.0856 H   0  0  0  0  0  0  0  0  0  0  0  0
    8.6323   -6.8078   -2.3388 H   0  0  0  0  0  0  0  0  0  0  0  0
    5.2552   -4.2378   -3.9737 H   0  0  0  0  0  0  0  0  0  0  0  0
    4.4526   -0.2554   -3.2140 H   0  0  0  0  0  0  0  0  0  0  0  0
    2.7564   -0.5987   -2.7654 H   0  0  0  0  0  0  0  0  0  0  0  0
    2.1517   -0.8640   -5.1399 H   0  0  0  0  0  0  0  0  0  0  0  0
    3.8406   -0.6977   -5.6243 H   0  0  0  0  0  0  0  0  0  0  0  0
    2.0016    1.4360   -4.7612 H   0  0  0  0  0  0  0  0  0  0  0  0
    3.3568    3.5793   -3.8652 H   0  0  0  0  0  0  0  0  0  0  0  0
    2.8584    3.6543   -5.5782 H   0  0  0  0  0  0  0  0  0  0  0  0
    5.5778    3.6462   -5.0884 H   0  0  0  0  0  0  0  0  0  0  0  0
  1  2  2  0  0  0  0
  1 33  1  0  0  0  0
  1 34  1  0  0  0  0
  2  3  1  0  0  0  0
  2 35  1  0  0  0  0
  3  4  2  0  0  0  0
  3  5  1  0  0  0  0
  5  6  1  0  0  0  0
  5 36  1  0  0  0  0
  6  7  1  0  0  0  0
  6 24  2  0  0  0  0
  7  8  2  0  0  0  0
  7 37  1  0  0  0  0
  8  9  1  0  0  0  0
  8 22  1  0  0  0  0
  9 10  1  0  0  0  0
  9 19  2  0  0  0  0
 10 11  1  0  0  0  0
 10 38  1  0  0  0  0
 11 12  1  0  0  0  0
 11 17  2  0  0  0  0
 12 13  2  0  0  0  0
 12 39  1  0  0  0  0
 13 14  1  0  0  0  0
 13 40  1  0  0  0  0
 14 15  1  0  0  0  0
 14 16  2  0  0  0  0
 16 17  1  0  0  0  0
 16 41  1  0  0  0  0
 17 18  1  0  0  0  0
 19 20  1  0  0  0  0
 20 21  2  0  0  0  0
 20 42  1  0  0  0  0
 21 22  1  0  0  0  0
 22 23  2  0  0  0  0
 23 24  1  0  0  0  0
 23 43  1  0  0  0  0
 24 25  1  0  0  0  0
 25 26  1  0  0  0  0
 26 27  1  0  0  0  0
 26 44  1  0  0  0  0
 26 45  1  0  0  0  0
 27 28  1  0  0  0  0
 27 46  1  0  0  0  0
 27 47  1  0  0  0  0
 28 29  1  0  0  0  0
 28 48  1  0  0  0  0
 29 30  2  0  0  0  0
 29 31  1  0  0  0  0
 31 32  1  0  0  0  0
 31 49  1  0  0  0  0
 31 50  1  0  0  0  0
 32 51  1  0  0  0  0
M  END
$$$$
