CHEMBL3896486
 OpenBabel04072215373D

 63 65  0  0  0  0  0  0  0  0999 V2000
    2.1581   -0.6307    1.2345 C   0  0  0  0  0  0  0  0  0  0  0  0
    0.8834   -0.2095    0.5906 C   0  0  0  0  0  0  0  0  0  0  0  0
    0.5100    1.1036    0.2078 C   0  0  0  0  0  0  0  0  0  0  0  0
   -0.7443    1.0059   -0.3456 C   0  0  0  0  0  0  0  0  0  0  0  0
   -1.1754   -0.2855   -0.3361 O   0  0  0  0  0  0  0  0  0  0  0  0
   -0.1859   -1.0306    0.2436 C   0  0  0  0  0  0  0  0  0  0  0  0
   -0.3539   -2.4625    0.4206 C   0  0  0  0  0  0  0  0  0  0  0  0
    0.5249   -3.1285    0.9666 O   0  0  0  0  0  0  0  0  0  0  0  0
   -1.5297   -2.9970   -0.0984 N   0  0  0  0  0  0  0  0  0  0  0  0
   -1.8945   -4.3662   -0.0475 C   0  0  0  0  0  0  0  0  0  0  0  0
   -1.2874   -5.2571    0.8466 C   0  0  0  0  0  0  0  0  0  0  0  0
   -1.5655   -6.6210    0.8114 C   0  0  0  0  0  0  0  0  0  0  0  0
   -2.4856   -7.1116   -0.1040 C   0  0  0  0  0  0  0  0  0  0  0  0
   -3.1592   -6.2332   -0.9579 C   0  0  0  0  0  0  0  0  0  0  0  0
   -4.1230   -6.7899   -1.8611 C   0  0  0  0  0  0  0  0  0  0  0  0
   -4.9033   -7.3791   -2.5613 C   0  0  0  0  0  0  0  0  0  0  0  0
   -5.8063   -8.1609   -3.3483 C   0  0  0  0  0  0  0  0  0  0  0  0
   -6.5322   -9.2017   -2.7762 C   0  0  0  0  0  0  0  0  0  0  0  0
   -7.3997   -9.9878   -3.4606 N   0  0  0  0  0  0  0  0  0  0  0  0
   -7.5390   -9.7261   -4.7837 C   0  0  0  0  0  0  0  0  0  0  0  0
   -6.8518   -8.7172   -5.4497 C   0  0  0  0  0  0  0  0  0  0  0  0
   -7.0641   -8.5265   -6.9093 C   0  0  0  0  0  0  0  0  0  0  0  0
   -7.9034   -9.2412   -7.4493 O   0  0  0  0  0  0  0  0  0  0  0  0
   -6.3959   -7.5021   -7.6069 N   0  0  0  0  0  0  0  0  0  0  0  0
   -6.0221   -7.6916   -9.0916 S   0  0  0  0  0  0  0  0  0  0  0  0
   -5.3889   -8.8850   -9.6158 O   0  0  0  0  0  0  0  0  0  0  0  0
   -7.4974   -7.4001  -10.0732 C   0  0  0  0  0  0  0  0  0  0  0  0
   -7.2353   -7.5800  -11.5667 C   0  0  0  0  0  0  0  0  0  0  0  0
   -8.4927   -7.3836  -12.3982 C   0  0  0  0  0  0  0  0  0  0  0  0
   -9.4833   -8.3329  -12.0402 O   0  0  0  0  0  0  0  0  0  0  0  0
   -4.9634   -6.3132   -9.5256 C   0  0  0  0  0  0  0  0  0  0  0  0
   -3.6879   -6.2378   -8.6928 C   0  0  0  0  0  0  0  0  0  0  0  0
   -2.7869   -7.4601   -8.8248 C   0  0  0  0  0  0  0  0  0  0  0  0
   -1.6059   -7.2581   -8.0572 O   0  0  0  0  0  0  0  0  0  0  0  0
   -5.9687   -7.9200   -4.7119 C   0  0  0  0  0  0  0  0  0  0  0  0
   -2.8740   -4.8579   -0.9246 C   0  0  0  0  0  0  0  0  0  0  0  0
    2.8327    0.2202    1.3708 H   0  0  0  0  0  0  0  0  0  0  0  0
    2.6763   -1.3727    0.6178 H   0  0  0  0  0  0  0  0  0  0  0  0
    1.9677   -1.0696    2.2195 H   0  0  0  0  0  0  0  0  0  0  0  0
    1.0881    2.0103    0.3242 H   0  0  0  0  0  0  0  0  0  0  0  0
   -1.4269    1.7275   -0.7708 H   0  0  0  0  0  0  0  0  0  0  0  0
   -2.0895   -2.3671   -0.6645 H   0  0  0  0  0  0  0  0  0  0  0  0
   -0.5844   -4.9180    1.6009 H   0  0  0  0  0  0  0  0  0  0  0  0
   -1.0519   -7.2923    1.4941 H   0  0  0  0  0  0  0  0  0  0  0  0
   -2.6758   -8.1815   -0.1434 H   0  0  0  0  0  0  0  0  0  0  0  0
   -6.4342   -9.4486   -1.7215 H   0  0  0  0  0  0  0  0  0  0  0  0
   -8.2397  -10.3778   -5.3019 H   0  0  0  0  0  0  0  0  0  0  0  0
   -7.8566   -6.3916   -9.8462 H   0  0  0  0  0  0  0  0  0  0  0  0
   -8.2484   -8.1197   -9.7339 H   0  0  0  0  0  0  0  0  0  0  0  0
   -6.8481   -8.5905  -11.7447 H   0  0  0  0  0  0  0  0  0  0  0  0
   -6.4706   -6.8758  -11.9087 H   0  0  0  0  0  0  0  0  0  0  0  0
   -8.2686   -7.5006  -13.4634 H   0  0  0  0  0  0  0  0  0  0  0  0
   -8.9073   -6.3821  -12.2474 H   0  0  0  0  0  0  0  0  0  0  0  0
   -9.1080   -9.2226  -12.1676 H   0  0  0  0  0  0  0  0  0  0  0  0
   -5.5492   -5.3980   -9.3875 H   0  0  0  0  0  0  0  0  0  0  0  0
   -4.7124   -6.4058  -10.5860 H   0  0  0  0  0  0  0  0  0  0  0  0
   -3.9267   -6.0791   -7.6344 H   0  0  0  0  0  0  0  0  0  0  0  0
   -3.1222   -5.3481   -8.9991 H   0  0  0  0  0  0  0  0  0  0  0  0
   -2.5021   -7.6388   -9.8667 H   0  0  0  0  0  0  0  0  0  0  0  0
   -3.2645   -8.3602   -8.4339 H   0  0  0  0  0  0  0  0  0  0  0  0
   -1.1035   -6.5369   -8.4676 H   0  0  0  0  0  0  0  0  0  0  0  0
   -5.4080   -7.1245   -5.1964 H   0  0  0  0  0  0  0  0  0  0  0  0
   -3.3900   -4.1905   -1.6093 H   0  0  0  0  0  0  0  0  0  0  0  0
  1  2  1  0  0  0  0
  1 37  1  0  0  0  0
  1 38  1  0  0  0  0
  1 39  1  0  0  0  0
  2  3  1  0  0  0  0
  2  6  2  0  0  0  0
  3  4  2  0  0  0  0
  3 40  1  0  0  0  0
  4  5  1  0  0  0  0
  4 41  1  0  0  0  0
  5  6  1  0  0  0  0
  6  7  1  0  0  0  0
  7  8  2  0  0  0  0
  7  9  1  0  0  0  0
  9 10  1  0  0  0  0
  9 42  1  0  0  0  0
 10 11  1  0  0  0  0
 10 36  2  0  0  0  0
 11 12  2  0  0  0  0
 11 43  1  0  0  0  0
 12 13  1  0  0  0  0
 12 44  1  0  0  0  0
 13 14  2  0  0  0  0
 13 45  1  0  0  0  0
 14 15  1  0  0  0  0
 14 36  1  0  0  0  0
 15 16  3  0  0  0  0
 16 17  1  0  0  0  0
 17 18  1  0  0  0  0
 17 35  2  0  0  0  0
 18 19  2  0  0  0  0
 18 46  1  0  0  0  0
 19 20  1  0  0  0  0
 20 21  2  0  0  0  0
 20 47  1  0  0  0  0
 21 22  1  0  0  0  0
 21 35  1  0  0  0  0
 22 23  2  0  0  0  0
 22 24  1  0  0  0  0
 24 25  2  0  0  0  0
 25 26  2  0  0  0  0
 25 27  1  0  0  0  0
 25 31  1  0  0  0  0
 27 28  1  0  0  0  0
 27 48  1  0  0  0  0
 27 49  1  0  0  0  0
 28 29  1  0  0  0  0
 28 50  1  0  0  0  0
 28 51  1  0  0  0  0
 29 30  1  0  0  0  0
 29 52  1  0  0  0  0
 29 53  1  0  0  0  0
 30 54  1  0  0  0  0
 31 32  1  0  0  0  0
 31 55  1  0  0  0  0
 31 56  1  0  0  0  0
 32 33  1  0  0  0  0
 32 57  1  0  0  0  0
 32 58  1  0  0  0  0
 33 34  1  0  0  0  0
 33 59  1  0  0  0  0
 33 60  1  0  0  0  0
 34 61  1  0  0  0  0
 35 62  1  0  0  0  0
 36 63  1  0  0  0  0
M  END
$$$$
