CHEMBL383255
 OpenBabel04072215373D

 47 50  0  0  0  0  0  0  0  0999 V2000
    2.1259    0.0320   -0.0083 C   0  0  0  0  0  0  0  0  0  0  0  0
    0.6865   -0.0727    0.0098 N   0  0  0  0  0  0  0  0  0  0  0  0
   -0.1843    0.9819    0.0712 C   0  0  0  0  0  0  0  0  0  0  0  0
   -1.4337    0.5767    0.1595 N   0  0  0  0  0  0  0  0  0  0  0  0
   -1.3654   -0.7832    0.0878 C   0  0  0  0  0  0  0  0  0  0  0  0
   -2.4500   -1.5704    0.1284 N   0  0  0  0  0  0  0  0  0  0  0  0
   -3.6936   -1.1445    0.7274 C   0  0  0  0  0  0  0  0  0  0  0  0
   -4.4102   -2.3544    1.2926 C   0  0  0  0  0  0  0  0  0  0  0  0
   -3.7933   -3.1614    2.2561 C   0  0  0  0  0  0  0  0  0  0  0  0
   -4.4872   -4.2472    2.7718 C   0  0  0  0  0  0  0  0  0  0  0  0
   -5.7428   -4.5776    2.4017 N   0  0  0  0  0  0  0  0  0  0  0  0
   -6.3258   -3.7864    1.4774 C   0  0  0  0  0  0  0  0  0  0  0  0
   -5.7118   -2.6811    0.9025 C   0  0  0  0  0  0  0  0  0  0  0  0
   -0.0655   -1.2231   -0.0081 C   0  0  0  0  0  0  0  0  0  0  0  0
    0.4494   -2.5471   -0.0406 C   0  0  0  0  0  0  0  0  0  0  0  0
    1.7329   -2.8425    0.0050 N   0  0  0  0  0  0  0  0  0  0  0  0
    1.8234   -4.2105   -0.0115 N   0  0  0  0  0  0  0  0  0  0  0  0
    0.5943   -4.6732   -0.0495 C   0  0  0  0  0  0  0  0  0  0  0  0
    0.1001   -5.9227   -0.0227 N   0  0  0  0  0  0  0  0  0  0  0  0
    0.7320   -7.0359    0.5617 C   0  0  0  0  0  0  0  0  0  0  0  0
    1.9745   -6.9631    1.2032 C   0  0  0  0  0  0  0  0  0  0  0  0
    2.5860   -8.0955    1.7557 C   0  0  0  0  0  0  0  0  0  0  0  0
    1.9509   -9.3266    1.6921 C   0  0  0  0  0  0  0  0  0  0  0  0
    2.4208  -10.4932    2.2073 O   0  0  0  0  0  0  0  0  0  0  0  0
    3.2613  -10.4689    3.3531 C   0  0  0  0  0  0  0  0  0  0  0  0
    3.3721   -9.2625    3.9466 F   0  0  0  0  0  0  0  0  0  0  0  0
    2.7542  -11.3265    4.2685 F   0  0  0  0  0  0  0  0  0  0  0  0
    4.4944  -10.9006    3.0116 F   0  0  0  0  0  0  0  0  0  0  0  0
    0.7427   -9.4287    0.9990 C   0  0  0  0  0  0  0  0  0  0  0  0
    0.1409   -8.2974    0.4365 C   0  0  0  0  0  0  0  0  0  0  0  0
   -0.3341   -3.6742   -0.1005 O   0  0  0  0  0  0  0  0  0  0  0  0
    2.4202    1.0840    0.0015 H   0  0  0  0  0  0  0  0  0  0  0  0
    2.5010   -0.4438   -0.9183 H   0  0  0  0  0  0  0  0  0  0  0  0
    2.5243   -0.4620    0.8833 H   0  0  0  0  0  0  0  0  0  0  0  0
    0.1451    2.0130    0.0585 H   0  0  0  0  0  0  0  0  0  0  0  0
   -2.5546   -2.3037   -0.5670 H   0  0  0  0  0  0  0  0  0  0  0  0
   -4.3119   -0.6266   -0.0061 H   0  0  0  0  0  0  0  0  0  0  0  0
   -3.5190   -0.4507    1.5596 H   0  0  0  0  0  0  0  0  0  0  0  0
   -2.7856   -2.9460    2.5991 H   0  0  0  0  0  0  0  0  0  0  0  0
   -4.0400   -4.8908    3.5167 H   0  0  0  0  0  0  0  0  0  0  0  0
   -7.3403   -4.0687    1.2058 H   0  0  0  0  0  0  0  0  0  0  0  0
   -6.2507   -2.0911    0.1689 H   0  0  0  0  0  0  0  0  0  0  0  0
   -0.9036   -6.0165   -0.1118 H   0  0  0  0  0  0  0  0  0  0  0  0
    2.5007   -6.0195    1.3142 H   0  0  0  0  0  0  0  0  0  0  0  0
    3.5541   -7.9555    2.2235 H   0  0  0  0  0  0  0  0  0  0  0  0
    0.2581  -10.3976    0.8961 H   0  0  0  0  0  0  0  0  0  0  0  0
   -0.7987   -8.4184   -0.0984 H   0  0  0  0  0  0  0  0  0  0  0  0
  1  2  1  0  0  0  0
  1 32  1  0  0  0  0
  1 33  1  0  0  0  0
  1 34  1  0  0  0  0
  2  3  1  0  0  0  0
  2 14  1  0  0  0  0
  3  4  2  0  0  0  0
  3 35  1  0  0  0  0
  4  5  1  0  0  0  0
  5  6  1  0  0  0  0
  5 14  2  0  0  0  0
  6  7  1  0  0  0  0
  6 36  1  0  0  0  0
  7  8  1  0  0  0  0
  7 37  1  0  0  0  0
  7 38  1  0  0  0  0
  8  9  1  0  0  0  0
  8 13  2  0  0  0  0
  9 10  2  0  0  0  0
  9 39  1  0  0  0  0
 10 11  1  0  0  0  0
 10 40  1  0  0  0  0
 11 12  2  0  0  0  0
 12 13  1  0  0  0  0
 12 41  1  0  0  0  0
 13 42  1  0  0  0  0
 14 15  1  0  0  0  0
 15 16  2  0  0  0  0
 15 31  1  0  0  0  0
 16 17  1  0  0  0  0
 17 18  2  0  0  0  0
 18 19  1  0  0  0  0
 18 31  1  0  0  0  0
 19 20  1  0  0  0  0
 19 43  1  0  0  0  0
 20 21  1  0  0  0  0
 20 30  2  0  0  0  0
 21 22  2  0  0  0  0
 21 44  1  0  0  0  0
 22 23  1  0  0  0  0
 22 45  1  0  0  0  0
 23 24  1  0  0  0  0
 23 29  2  0  0  0  0
 24 25  1  0  0  0  0
 25 26  1  0  0  0  0
 25 27  1  0  0  0  0
 25 28  1  0  0  0  0
 29 30  1  0  0  0  0
 29 46  1  0  0  0  0
 30 47  1  0  0  0  0
M  END
$$$$
