CHEMBL3639703
 OpenBabel04072215373D

 59 61  0  0  0  0  0  0  0  0999 V2000
    2.2658    1.7661    1.2499 C   0  0  0  0  0  0  0  0  0  0  0  0
    2.8347    0.7183    0.6417 C   0  0  0  0  0  0  0  0  0  0  0  0
    3.5046   -0.3576    1.4234 C   0  0  0  0  0  0  0  0  0  0  0  0
    3.2853   -0.5376    2.6119 O   0  0  0  0  0  0  0  0  0  0  0  0
    4.4111   -1.0571    0.6398 N   0  0  0  0  0  0  0  0  0  0  0  0
    5.2195   -2.0432    1.2490 C   0  0  0  0  0  0  0  0  0  0  0  0
    6.3895   -1.6149    1.8797 C   0  0  0  0  0  0  0  0  0  0  0  0
    7.1998   -2.5302    2.5894 C   0  0  0  0  0  0  0  0  0  0  0  0
    8.3252   -2.1807    3.3501 C   0  0  0  0  0  0  0  0  0  0  0  0
    8.6850   -0.8162    3.5047 N   0  0  0  0  0  0  0  0  0  0  0  0
    9.4900   -0.3409    4.5683 C   0  0  0  0  0  0  0  0  0  0  0  0
    9.2884   -0.8001    5.8793 C   0  0  0  0  0  0  0  0  0  0  0  0
   10.1485   -0.4208    6.9101 C   0  0  0  0  0  0  0  0  0  0  0  0
   11.2025    0.4478    6.6402 C   0  0  0  0  0  0  0  0  0  0  0  0
   12.4222    0.8842    8.0166 Br  0  0  0  0  0  0  0  0  0  0  0  0
   11.3749    0.9778    5.3638 C   0  0  0  0  0  0  0  0  0  0  0  0
   10.5121    0.5857    4.3434 C   0  0  0  0  0  0  0  0  0  0  0  0
   10.6943    1.0811    3.1091 F   0  0  0  0  0  0  0  0  0  0  0  0
    9.0620   -3.1088    3.9926 N   0  0  0  0  0  0  0  0  0  0  0  0
    8.6541   -4.3750    3.9108 C   0  0  0  0  0  0  0  0  0  0  0  0
    7.5769   -4.8108    3.2544 N   0  0  0  0  0  0  0  0  0  0  0  0
    6.8537   -3.8887    2.6144 C   0  0  0  0  0  0  0  0  0  0  0  0
    5.7024   -4.2974    1.9572 C   0  0  0  0  0  0  0  0  0  0  0  0
    4.8860   -3.4058    1.2520 C   0  0  0  0  0  0  0  0  0  0  0  0
    3.8391   -4.0194    0.6034 O   0  0  0  0  0  0  0  0  0  0  0  0
    3.4179   -3.3876   -0.5999 C   0  0  0  0  0  0  0  0  0  0  0  0
    2.8507   -4.3983   -1.5968 C   0  0  0  0  0  0  0  0  0  0  0  0
    2.4841   -3.6332   -2.8647 C   0  0  0  0  0  0  0  0  0  0  0  0
    1.9805   -4.4528   -3.9422 N   0  0  0  0  0  0  0  0  0  0  0  0
    1.6110   -3.8327   -5.1235 C   0  0  0  0  0  0  0  0  0  0  0  0
    1.7647   -2.6264   -5.3315 O   0  0  0  0  0  0  0  0  0  0  0  0
    1.0237   -4.7317   -6.1625 C   0  0  0  0  0  0  0  0  0  0  0  0
   -0.7350   -4.7714   -6.0025 S   0  0  0  0  0  0  0  0  0  0  0  0
   -1.2809   -3.1002   -6.2810 C   0  0  0  0  0  0  0  0  0  0  0  0
   -1.2435   -5.5805   -7.0935 O   0  0  0  0  0  0  0  0  0  0  0  0
   -1.0434   -5.1324   -4.6291 O   0  0  0  0  0  0  0  0  0  0  0  0
    1.7432    2.5252    0.6766 H   0  0  0  0  0  0  0  0  0  0  0  0
    2.2990    1.8858    2.3299 H   0  0  0  0  0  0  0  0  0  0  0  0
    2.7795    0.6022   -0.4337 H   0  0  0  0  0  0  0  0  0  0  0  0
    4.8965   -0.4422   -0.0033 H   0  0  0  0  0  0  0  0  0  0  0  0
    6.6403   -0.5573    1.8794 H   0  0  0  0  0  0  0  0  0  0  0  0
    8.9473   -0.4053    2.6133 H   0  0  0  0  0  0  0  0  0  0  0  0
    8.4746   -1.4896    6.0953 H   0  0  0  0  0  0  0  0  0  0  0  0
    9.9959   -0.8302    7.9059 H   0  0  0  0  0  0  0  0  0  0  0  0
   12.1839    1.6660    5.1439 H   0  0  0  0  0  0  0  0  0  0  0  0
    9.2539   -5.1153    4.4301 H   0  0  0  0  0  0  0  0  0  0  0  0
    5.4321   -5.3513    1.9902 H   0  0  0  0  0  0  0  0  0  0  0  0
    4.2603   -2.8888   -1.0950 H   0  0  0  0  0  0  0  0  0  0  0  0
    2.6368   -2.6587   -0.3544 H   0  0  0  0  0  0  0  0  0  0  0  0
    1.9766   -4.9080   -1.1737 H   0  0  0  0  0  0  0  0  0  0  0  0
    3.5891   -5.1825   -1.8049 H   0  0  0  0  0  0  0  0  0  0  0  0
    3.3657   -3.1057   -3.2496 H   0  0  0  0  0  0  0  0  0  0  0  0
    1.7244   -2.8765   -2.6388 H   0  0  0  0  0  0  0  0  0  0  0  0
    1.5119   -5.3226   -3.7006 H   0  0  0  0  0  0  0  0  0  0  0  0
    1.4006   -5.7514   -6.0590 H   0  0  0  0  0  0  0  0  0  0  0  0
    1.2779   -4.3643   -7.1609 H   0  0  0  0  0  0  0  0  0  0  0  0
   -0.9571   -2.7837   -7.2742 H   0  0  0  0  0  0  0  0  0  0  0  0
   -0.8792   -2.4458   -5.5072 H   0  0  0  0  0  0  0  0  0  0  0  0
   -2.3727   -3.0955   -6.2302 H   0  0  0  0  0  0  0  0  0  0  0  0
  1  2  2  0  0  0  0
  1 37  1  0  0  0  0
  1 38  1  0  0  0  0
  2  3  1  0  0  0  0
  2 39  1  0  0  0  0
  3  4  2  0  0  0  0
  3  5  1  0  0  0  0
  5  6  1  0  0  0  0
  5 40  1  0  0  0  0
  6  7  1  0  0  0  0
  6 24  2  0  0  0  0
  7  8  2  0  0  0  0
  7 41  1  0  0  0  0
  8  9  1  0  0  0  0
  8 22  1  0  0  0  0
  9 10  1  0  0  0  0
  9 19  2  0  0  0  0
 10 11  1  0  0  0  0
 10 42  1  0  0  0  0
 11 12  1  0  0  0  0
 11 17  2  0  0  0  0
 12 13  2  0  0  0  0
 12 43  1  0  0  0  0
 13 14  1  0  0  0  0
 13 44  1  0  0  0  0
 14 15  1  0  0  0  0
 14 16  2  0  0  0  0
 16 17  1  0  0  0  0
 16 45  1  0  0  0  0
 17 18  1  0  0  0  0
 19 20  1  0  0  0  0
 20 21  2  0  0  0  0
 20 46  1  0  0  0  0
 21 22  1  0  0  0  0
 22 23  2  0  0  0  0
 23 24  1  0  0  0  0
 23 47  1  0  0  0  0
 24 25  1  0  0  0  0
 25 26  1  0  0  0  0
 26 27  1  0  0  0  0
 26 48  1  0  0  0  0
 26 49  1  0  0  0  0
 27 28  1  0  0  0  0
 27 50  1  0  0  0  0
 27 51  1  0  0  0  0
 28 29  1  0  0  0  0
 28 52  1  0  0  0  0
 28 53  1  0  0  0  0
 29 30  1  0  0  0  0
 29 54  1  0  0  0  0
 30 31  2  0  0  0  0
 30 32  1  0  0  0  0
 32 33  1  0  0  0  0
 32 55  1  0  0  0  0
 32 56  1  0  0  0  0
 33 34  1  0  0  0  0
 33 35  2  0  0  0  0
 33 36  2  0  0  0  0
 34 57  1  0  0  0  0
 34 58  1  0  0  0  0
 34 59  1  0  0  0  0
M  END
$$$$
