CHEMBL407485
 OpenBabel04072215383D

 28 30  0  0  0  0  0  0  0  0999 V2000
    2.3579    0.1044    0.4952 N   0  0  0  0  0  0  0  0  0  0  0  0
    0.9770    0.0489    0.2848 C   0  0  0  0  0  0  0  0  0  0  0  0
    0.2310   -1.0321    0.7476 C   0  0  0  0  0  0  0  0  0  0  0  0
   -1.1667   -1.0423    0.6297 C   0  0  0  0  0  0  0  0  0  0  0  0
   -1.8742    0.0635    0.1192 C   0  0  0  0  0  0  0  0  0  0  0  0
   -3.3520    0.0526    0.0257 C   0  0  0  0  0  0  0  0  0  0  0  0
   -4.1334   -0.5405    1.0551 C   0  0  0  0  0  0  0  0  0  0  0  0
   -5.5313   -0.5658    1.0296 C   0  0  0  0  0  0  0  0  0  0  0  0
   -6.2274    0.0198   -0.0186 C   0  0  0  0  0  0  0  0  0  0  0  0
   -5.4603    0.6011   -1.0219 C   0  0  0  0  0  0  0  0  0  0  0  0
   -5.9717    1.2239   -2.1141 O   0  0  0  0  0  0  0  0  0  0  0  0
   -4.9484    1.6701   -2.9142 N   0  0  0  0  0  0  0  0  0  0  0  0
   -3.8175    1.2968   -2.3080 C   0  0  0  0  0  0  0  0  0  0  0  0
   -2.6094    1.5318   -2.8553 N   0  0  0  0  0  0  0  0  0  0  0  0
   -4.0694    0.6346   -1.0626 C   0  0  0  0  0  0  0  0  0  0  0  0
   -1.1103    1.1850   -0.2274 C   0  0  0  0  0  0  0  0  0  0  0  0
    0.2899    1.1741   -0.1644 C   0  0  0  0  0  0  0  0  0  0  0  0
    2.8065   -0.8048    0.5563 H   0  0  0  0  0  0  0  0  0  0  0  0
    2.8446    0.7324   -0.1355 H   0  0  0  0  0  0  0  0  0  0  0  0
    0.7282   -1.8853    1.2019 H   0  0  0  0  0  0  0  0  0  0  0  0
   -1.6955   -1.9305    0.9675 H   0  0  0  0  0  0  0  0  0  0  0  0
   -3.6400   -0.9884    1.9184 H   0  0  0  0  0  0  0  0  0  0  0  0
   -6.0770   -1.0363    1.8431 H   0  0  0  0  0  0  0  0  0  0  0  0
   -7.3116    0.0283   -0.0600 H   0  0  0  0  0  0  0  0  0  0  0  0
   -2.6042    1.8758   -3.8092 H   0  0  0  0  0  0  0  0  0  0  0  0
   -1.8364    0.9089   -2.6512 H   0  0  0  0  0  0  0  0  0  0  0  0
   -1.5965    2.1054   -0.5457 H   0  0  0  0  0  0  0  0  0  0  0  0
    0.8344    2.0662   -0.4598 H   0  0  0  0  0  0  0  0  0  0  0  0
  1  2  1  0  0  0  0
  1 18  1  0  0  0  0
  1 19  1  0  0  0  0
  2  3  1  0  0  0  0
  2 17  2  0  0  0  0
  3  4  2  0  0  0  0
  3 20  1  0  0  0  0
  4  5  1  0  0  0  0
  4 21  1  0  0  0  0
  5  6  1  0  0  0  0
  5 16  2  0  0  0  0
  6  7  1  0  0  0  0
  6 15  2  0  0  0  0
  7  8  2  0  0  0  0
  7 22  1  0  0  0  0
  8  9  1  0  0  0  0
  8 23  1  0  0  0  0
  9 10  2  0  0  0  0
  9 24  1  0  0  0  0
 10 11  1  0  0  0  0
 10 15  1  0  0  0  0
 11 12  1  0  0  0  0
 12 13  2  0  0  0  0
 13 14  1  0  0  0  0
 13 15  1  0  0  0  0
 14 25  1  0  0  0  0
 14 26  1  0  0  0  0
 16 17  1  0  0  0  0
 16 27  1  0  0  0  0
 17 28  1  0  0  0  0
M  END
$$$$
