CHEMBL496763
 OpenBabel04072215383D

 50 54  0  0  0  0  0  0  0  0999 V2000
    2.1082   -1.1077   -1.0267 C   0  0  0  0  0  0  0  0  0  0  0  0
    0.9433   -0.2841   -0.7133 N   0  0  0  0  0  0  0  0  0  0  0  0
   -0.2395   -0.7505   -1.4779 C   0  0  0  0  0  0  0  0  0  0  0  0
   -1.5307    0.0294   -1.1279 C   0  0  0  0  0  0  0  0  0  0  0  0
   -1.7602   -0.0770    0.3185 N   0  0  0  0  0  0  0  0  0  0  0  0
   -3.0342   -0.0442    0.8596 C   0  0  0  0  0  0  0  0  0  0  0  0
   -3.2611   -0.6566    2.1066 C   0  0  0  0  0  0  0  0  0  0  0  0
   -4.5173   -0.7135    2.7201 C   0  0  0  0  0  0  0  0  0  0  0  0
   -5.5637   -0.1367    2.0129 C   0  0  0  0  0  0  0  0  0  0  0  0
   -6.8915    0.0123    2.3019 N   0  0  0  0  0  0  0  0  0  0  0  0
   -7.5062    0.6231    1.2368 C   0  0  0  0  0  0  0  0  0  0  0  0
   -8.9110    0.8731    1.2793 C   0  0  0  0  0  0  0  0  0  0  0  0
   -9.6134    0.9571    0.1234 C   0  0  0  0  0  0  0  0  0  0  0  0
   -9.0807    0.6948   -1.1407 N   0  0  0  0  0  0  0  0  0  0  0  0
  -11.0412    1.3736    0.1793 C   0  0  0  0  0  0  0  0  0  0  0  0
  -11.8322    1.5345   -0.9677 C   0  0  0  0  0  0  0  0  0  0  0  0
  -13.1345    2.0148   -0.8631 C   0  0  0  0  0  0  0  0  0  0  0  0
  -13.8558    2.2061   -1.9748 F   0  0  0  0  0  0  0  0  0  0  0  0
  -13.6942    2.3165    0.3726 C   0  0  0  0  0  0  0  0  0  0  0  0
  -12.9425    2.1236    1.5268 C   0  0  0  0  0  0  0  0  0  0  0  0
  -11.6252    1.6629    1.4240 C   0  0  0  0  0  0  0  0  0  0  0  0
  -10.8841    1.4917    2.5927 N   0  0  0  0  0  0  0  0  0  0  0  0
   -9.5836    1.0801    2.6074 C   0  0  0  0  0  0  0  0  0  0  0  0
   -9.0072    0.8823    3.6744 O   0  0  0  0  0  0  0  0  0  0  0  0
   -6.6206    0.8918    0.2861 N   0  0  0  0  0  0  0  0  0  0  0  0
   -5.4109    0.4501    0.7673 C   0  0  0  0  0  0  0  0  0  0  0  0
   -4.1351    0.5100    0.1850 C   0  0  0  0  0  0  0  0  0  0  0  0
   -0.6343    0.4323    1.1211 C   0  0  0  0  0  0  0  0  0  0  0  0
    0.6476   -0.3423    0.7388 C   0  0  0  0  0  0  0  0  0  0  0  0
    2.3437   -1.0462   -2.0942 H   0  0  0  0  0  0  0  0  0  0  0  0
    1.9549   -2.1619   -0.7677 H   0  0  0  0  0  0  0  0  0  0  0  0
    2.9888   -0.7451   -0.4858 H   0  0  0  0  0  0  0  0  0  0  0  0
   -0.4166   -1.8170   -1.2776 H   0  0  0  0  0  0  0  0  0  0  0  0
   -0.0498   -0.6449   -2.5521 H   0  0  0  0  0  0  0  0  0  0  0  0
   -2.3556   -0.4134   -1.6982 H   0  0  0  0  0  0  0  0  0  0  0  0
   -1.4350    1.0816   -1.4246 H   0  0  0  0  0  0  0  0  0  0  0  0
   -2.4337   -1.1519    2.6120 H   0  0  0  0  0  0  0  0  0  0  0  0
   -4.6596   -1.2018    3.6762 H   0  0  0  0  0  0  0  0  0  0  0  0
   -7.3503   -0.2442    3.1682 H   0  0  0  0  0  0  0  0  0  0  0  0
   -8.0515    0.6483   -1.0979 H   0  0  0  0  0  0  0  0  0  0  0  0
   -9.3476    1.3787   -1.8414 H   0  0  0  0  0  0  0  0  0  0  0  0
  -11.4585    1.3034   -1.9593 H   0  0  0  0  0  0  0  0  0  0  0  0
  -14.7076    2.6990    0.4242 H   0  0  0  0  0  0  0  0  0  0  0  0
  -13.3821    2.3486    2.4943 H   0  0  0  0  0  0  0  0  0  0  0  0
  -11.3063    1.6521    3.4978 H   0  0  0  0  0  0  0  0  0  0  0  0
   -4.0283    1.0003   -0.7747 H   0  0  0  0  0  0  0  0  0  0  0  0
   -0.7971    0.3248    2.1990 H   0  0  0  0  0  0  0  0  0  0  0  0
   -0.4982    1.5042    0.9250 H   0  0  0  0  0  0  0  0  0  0  0  0
    0.5279   -1.3872    1.0582 H   0  0  0  0  0  0  0  0  0  0  0  0
    1.4883    0.0796    1.3016 H   0  0  0  0  0  0  0  0  0  0  0  0
  1  2  1  0  0  0  0
  1 30  1  0  0  0  0
  1 31  1  0  0  0  0
  1 32  1  0  0  0  0
  2  3  1  0  0  0  0
  2 29  1  0  0  0  0
  3  4  1  0  0  0  0
  3 33  1  0  0  0  0
  3 34  1  0  0  0  0
  4  5  1  0  0  0  0
  4 35  1  0  0  0  0
  4 36  1  0  0  0  0
  5  6  1  0  0  0  0
  5 28  1  0  0  0  0
  6  7  1  0  0  0  0
  6 27  2  0  0  0  0
  7  8  2  0  0  0  0
  7 37  1  0  0  0  0
  8  9  1  0  0  0  0
  8 38  1  0  0  0  0
  9 10  1  0  0  0  0
  9 26  2  0  0  0  0
 10 11  1  0  0  0  0
 10 39  1  0  0  0  0
 11 12  1  0  0  0  0
 11 25  2  0  0  0  0
 12 13  2  0  0  0  0
 12 23  1  0  0  0  0
 13 14  1  0  0  0  0
 13 15  1  0  0  0  0
 14 40  1  0  0  0  0
 14 41  1  0  0  0  0
 15 16  1  0  0  0  0
 15 21  2  0  0  0  0
 16 17  2  0  0  0  0
 16 42  1  0  0  0  0
 17 18  1  0  0  0  0
 17 19  1  0  0  0  0
 19 20  2  0  0  0  0
 19 43  1  0  0  0  0
 20 21  1  0  0  0  0
 20 44  1  0  0  0  0
 21 22  1  0  0  0  0
 22 23  1  0  0  0  0
 22 45  1  0  0  0  0
 23 24  2  0  0  0  0
 25 26  1  0  0  0  0
 26 27  1  0  0  0  0
 27 46  1  0  0  0  0
 28 29  1  0  0  0  0
 28 47  1  0  0  0  0
 28 48  1  0  0  0  0
 29 49  1  0  0  0  0
 29 50  1  0  0  0  0
M  END
$$$$
