CHEMBL1241773
 OpenBabel04072215363D

 39 41  0  0  0  0  0  0  0  0999 V2000
    1.6495    1.3548   -0.6192 C   0  0  0  0  0  0  0  0  0  0  0  0
    2.4179    0.1488   -0.1540 C   0  0  0  0  0  0  0  0  0  0  0  0
    2.3174   -0.2605    1.0015 O   0  0  0  0  0  0  0  0  0  0  0  0
    3.3004   -0.5683   -1.1209 C   0  0  0  0  0  0  0  0  0  0  0  0
    3.3701   -0.2413   -2.4804 C   0  0  0  0  0  0  0  0  0  0  0  0
    4.1584   -1.0116   -3.3515 C   0  0  0  0  0  0  0  0  0  0  0  0
    4.8950   -2.1055   -2.8749 C   0  0  0  0  0  0  0  0  0  0  0  0
    5.6176   -2.9960   -3.7922 C   0  0  0  0  0  0  0  0  0  0  0  0
    6.2070   -2.5089   -4.9033 N   0  0  0  0  0  0  0  0  0  0  0  0
    6.7964   -3.5873   -5.4700 N   0  0  0  0  0  0  0  0  0  0  0  0
    7.5793   -3.4474   -6.6945 C   0  0  0  0  0  0  0  0  0  0  0  0
    6.7267   -2.9509   -7.8624 C   0  0  0  0  0  0  0  0  0  0  0  0
    8.7981   -2.5507   -6.4824 C   0  0  0  0  0  0  0  0  0  0  0  0
    6.5752   -4.7526   -4.7839 C   0  0  0  0  0  0  0  0  0  0  0  0
    7.0344   -5.9769   -5.1021 N   0  0  0  0  0  0  0  0  0  0  0  0
    6.6262   -6.9000   -4.2184 C   0  0  0  0  0  0  0  0  0  0  0  0
    5.8388   -6.7214   -3.1411 N   0  0  0  0  0  0  0  0  0  0  0  0
    5.3938   -5.4799   -2.8651 C   0  0  0  0  0  0  0  0  0  0  0  0
    4.5561   -5.3778   -1.7635 N   0  0  0  0  0  0  0  0  0  0  0  0
    5.7867   -4.4193   -3.6999 C   0  0  0  0  0  0  0  0  0  0  0  0
    4.8966   -2.3533   -1.4977 C   0  0  0  0  0  0  0  0  0  0  0  0
    4.0795   -1.6215   -0.6345 C   0  0  0  0  0  0  0  0  0  0  0  0
    1.1076    1.7811    0.2315 H   0  0  0  0  0  0  0  0  0  0  0  0
    0.9194    1.0676   -1.3797 H   0  0  0  0  0  0  0  0  0  0  0  0
    2.3348    2.1161   -0.9987 H   0  0  0  0  0  0  0  0  0  0  0  0
    2.8075    0.5904   -2.8946 H   0  0  0  0  0  0  0  0  0  0  0  0
    4.1812   -0.7607   -4.4116 H   0  0  0  0  0  0  0  0  0  0  0  0
    7.9459   -4.4480   -6.9545 H   0  0  0  0  0  0  0  0  0  0  0  0
    6.3010   -1.9617   -7.6619 H   0  0  0  0  0  0  0  0  0  0  0  0
    5.8971   -3.6384   -8.0594 H   0  0  0  0  0  0  0  0  0  0  0  0
    7.3273   -2.8795   -8.7759 H   0  0  0  0  0  0  0  0  0  0  0  0
    8.5063   -1.5253   -6.2313 H   0  0  0  0  0  0  0  0  0  0  0  0
    9.4119   -2.5135   -7.3890 H   0  0  0  0  0  0  0  0  0  0  0  0
    9.4247   -2.9297   -5.6676 H   0  0  0  0  0  0  0  0  0  0  0  0
    6.9659   -7.9159   -4.3914 H   0  0  0  0  0  0  0  0  0  0  0  0
    4.2622   -6.2978   -1.4534 H   0  0  0  0  0  0  0  0  0  0  0  0
    3.8142   -4.6948   -1.8503 H   0  0  0  0  0  0  0  0  0  0  0  0
    5.5170   -3.1397   -1.0729 H   0  0  0  0  0  0  0  0  0  0  0  0
    4.0520   -1.8896    0.4206 H   0  0  0  0  0  0  0  0  0  0  0  0
  1  2  1  0  0  0  0
  1 23  1  0  0  0  0
  1 24  1  0  0  0  0
  1 25  1  0  0  0  0
  2  3  2  0  0  0  0
  2  4  1  0  0  0  0
  4  5  1  0  0  0  0
  4 22  2  0  0  0  0
  5  6  2  0  0  0  0
  5 26  1  0  0  0  0
  6  7  1  0  0  0  0
  6 27  1  0  0  0  0
  7  8  1  0  0  0  0
  7 21  2  0  0  0  0
  8  9  2  0  0  0  0
  8 20  1  0  0  0  0
  9 10  1  0  0  0  0
 10 11  1  0  0  0  0
 10 14  1  0  0  0  0
 11 12  1  0  0  0  0
 11 13  1  0  0  0  0
 11 28  1  0  0  0  0
 12 29  1  0  0  0  0
 12 30  1  0  0  0  0
 12 31  1  0  0  0  0
 13 32  1  0  0  0  0
 13 33  1  0  0  0  0
 13 34  1  0  0  0  0
 14 15  1  0  0  0  0
 14 20  2  0  0  0  0
 15 16  2  0  0  0  0
 16 17  1  0  0  0  0
 16 35  1  0  0  0  0
 17 18  2  0  0  0  0
 18 19  1  0  0  0  0
 18 20  1  0  0  0  0
 19 36  1  0  0  0  0
 19 37  1  0  0  0  0
 21 22  1  0  0  0  0
 21 38  1  0  0  0  0
 22 39  1  0  0  0  0
M  END
$$$$
