CHEMBL3690382
 OpenBabel04072215373D

 45 48  0  0  0  0  0  0  0  0999 V2000
    2.5403   -1.2944    0.4707 O   0  0  0  0  0  0  0  0  0  0  0  0
    2.2422   -0.4008   -0.3069 C   0  0  0  0  0  0  0  0  0  0  0  0
    0.9333    0.0149   -0.4484 N   0  0  0  0  0  0  0  0  0  0  0  0
   -0.1165   -0.7564    0.2324 C   0  0  0  0  0  0  0  0  0  0  0  0
   -0.6339   -1.9688   -0.5543 C   0  0  0  0  0  0  0  0  0  0  0  0
   -0.0291   -2.0778   -1.7611 F   0  0  0  0  0  0  0  0  0  0  0  0
   -0.4590   -3.1281    0.1103 F   0  0  0  0  0  0  0  0  0  0  0  0
   -1.9614   -1.8326   -0.7962 F   0  0  0  0  0  0  0  0  0  0  0  0
    3.0946    0.3169   -1.1138 N   0  0  0  0  0  0  0  0  0  0  0  0
    4.4918    0.1425   -1.2253 C   0  0  0  0  0  0  0  0  0  0  0  0
    5.2221   -0.7933   -0.5001 C   0  0  0  0  0  0  0  0  0  0  0  0
    6.6114   -0.8609   -0.6193 C   0  0  0  0  0  0  0  0  0  0  0  0
    7.2883   -0.0092   -1.4893 C   0  0  0  0  0  0  0  0  0  0  0  0
    6.5779    0.8980   -2.2789 C   0  0  0  0  0  0  0  0  0  0  0  0
    7.2863    1.7084   -3.2750 C   0  0  0  0  0  0  0  0  0  0  0  0
    8.4168    1.4131   -4.0244 C   0  0  0  0  0  0  0  0  0  0  0  0
    8.7203    2.4084   -4.9144 N   0  0  0  0  0  0  0  0  0  0  0  0
    7.7998    3.3278   -4.7278 C   0  0  0  0  0  0  0  0  0  0  0  0
    7.5850    4.5800   -5.3752 C   0  0  0  0  0  0  0  0  0  0  0  0
    6.5776    5.4051   -4.9855 C   0  0  0  0  0  0  0  0  0  0  0  0
    6.4455    6.6582   -5.6758 C   0  0  0  0  0  0  0  0  0  0  0  0
    6.7641    6.9044   -6.9287 N   0  0  0  0  0  0  0  0  0  0  0  0
    6.5259    8.2061   -7.3115 N   0  0  0  0  0  0  0  0  0  0  0  0
    6.0484    8.9352   -6.3179 C   0  0  0  0  0  0  0  0  0  0  0  0
    5.7083   10.3827   -6.3831 C   0  0  0  0  0  0  0  0  0  0  0  0
    5.9406   10.9258   -7.6078 F   0  0  0  0  0  0  0  0  0  0  0  0
    4.3962   10.6182   -6.1001 F   0  0  0  0  0  0  0  0  0  0  0  0
    6.4287   11.1186   -5.4931 F   0  0  0  0  0  0  0  0  0  0  0  0
    5.8266    8.0599   -4.8596 S   0  0  0  0  0  0  0  0  0  0  0  0
    5.6950    4.9856   -3.8929 C   0  0  0  0  0  0  0  0  0  0  0  0
    5.9051    3.8193   -3.2742 C   0  0  0  0  0  0  0  0  0  0  0  0
    6.9271    2.9761   -3.7026 N   0  0  0  0  0  0  0  0  0  0  0  0
    5.1779    0.9570   -2.1315 C   0  0  0  0  0  0  0  0  0  0  0  0
    0.6907    0.3636   -1.3657 H   0  0  0  0  0  0  0  0  0  0  0  0
   -0.9377   -0.0583    0.4218 H   0  0  0  0  0  0  0  0  0  0  0  0
    0.2545   -1.0900    1.2086 H   0  0  0  0  0  0  0  0  0  0  0  0
    2.6872    1.0893   -1.6214 H   0  0  0  0  0  0  0  0  0  0  0  0
    4.7407   -1.4940    0.1737 H   0  0  0  0  0  0  0  0  0  0  0  0
    7.1635   -1.5922   -0.0347 H   0  0  0  0  0  0  0  0  0  0  0  0
    8.3716   -0.0804   -1.5550 H   0  0  0  0  0  0  0  0  0  0  0  0
    9.0144    0.5099   -3.9870 H   0  0  0  0  0  0  0  0  0  0  0  0
    8.2683    4.8429   -6.1781 H   0  0  0  0  0  0  0  0  0  0  0  0
    4.8674    5.6148   -3.5858 H   0  0  0  0  0  0  0  0  0  0  0  0
    5.2873    3.5177   -2.4437 H   0  0  0  0  0  0  0  0  0  0  0  0
    4.5901    1.6151   -2.7621 H   0  0  0  0  0  0  0  0  0  0  0  0
  1  2  2  0  0  0  0
  2  3  1  0  0  0  0
  2  9  1  0  0  0  0
  3  4  1  0  0  0  0
  3 34  1  0  0  0  0
  4  5  1  0  0  0  0
  4 35  1  0  0  0  0
  4 36  1  0  0  0  0
  5  6  1  0  0  0  0
  5  7  1  0  0  0  0
  5  8  1  0  0  0  0
  9 10  1  0  0  0  0
  9 37  1  0  0  0  0
 10 11  1  0  0  0  0
 10 33  2  0  0  0  0
 11 12  2  0  0  0  0
 11 38  1  0  0  0  0
 12 13  1  0  0  0  0
 12 39  1  0  0  0  0
 13 14  2  0  0  0  0
 13 40  1  0  0  0  0
 14 15  1  0  0  0  0
 14 33  1  0  0  0  0
 15 16  2  0  0  0  0
 15 32  1  0  0  0  0
 16 17  1  0  0  0  0
 16 41  1  0  0  0  0
 17 18  2  0  0  0  0
 18 19  1  0  0  0  0
 18 32  1  0  0  0  0
 19 20  2  0  0  0  0
 19 42  1  0  0  0  0
 20 21  1  0  0  0  0
 20 30  1  0  0  0  0
 21 22  2  0  0  0  0
 21 29  1  0  0  0  0
 22 23  1  0  0  0  0
 23 24  2  0  0  0  0
 24 25  1  0  0  0  0
 24 29  1  0  0  0  0
 25 26  1  0  0  0  0
 25 27  1  0  0  0  0
 25 28  1  0  0  0  0
 30 31  2  0  0  0  0
 30 43  1  0  0  0  0
 31 32  1  0  0  0  0
 31 44  1  0  0  0  0
 33 45  1  0  0  0  0
M  END
$$$$
