CHEMBL3109343
 OpenBabel04072215363D

 60 64  0  0  0  0  0  0  0  0999 V2000
    1.4197    5.8216   -1.7073 C   0  0  0  0  0  0  0  0  0  0  0  0
    2.7994    5.4989   -1.6223 O   0  0  0  0  0  0  0  0  0  0  0  0
    3.1729    5.1055   -0.3011 C   0  0  0  0  0  0  0  0  0  0  0  0
    4.6585    4.7723   -0.3047 C   0  0  0  0  0  0  0  0  0  0  0  0
    5.0707    4.3595    0.9966 O   0  0  0  0  0  0  0  0  0  0  0  0
    6.4167    4.1049    1.1988 C   0  0  0  0  0  0  0  0  0  0  0  0
    7.3604    4.1088    0.0823 C   0  0  0  0  0  0  0  0  0  0  0  0
    8.6587    3.8583    0.3102 C   0  0  0  0  0  0  0  0  0  0  0  0
    9.1017    3.5959    1.6074 N   0  0  0  0  0  0  0  0  0  0  0  0
   10.3624    3.2864    2.0973 C   0  0  0  0  0  0  0  0  0  0  0  0
   11.5898    3.1416    1.3211 C   0  0  0  0  0  0  0  0  0  0  0  0
   12.5911    2.2732    1.7260 C   0  0  0  0  0  0  0  0  0  0  0  0
   13.7496    2.1965    0.9656 C   0  0  0  0  0  0  0  0  0  0  0  0
   13.8864    2.9848   -0.1816 C   0  0  0  0  0  0  0  0  0  0  0  0
   15.0584    2.9215   -0.9486 C   0  0  0  0  0  0  0  0  0  0  0  0
   15.1950    3.7033   -2.0902 C   0  0  0  0  0  0  0  0  0  0  0  0
   14.1582    4.5466   -2.4809 C   0  0  0  0  0  0  0  0  0  0  0  0
   12.9841    4.6137   -1.7207 C   0  0  0  0  0  0  0  0  0  0  0  0
   11.9210    5.4222   -2.0369 O   0  0  0  0  0  0  0  0  0  0  0  0
   11.9183    6.1852   -3.2503 C   0  0  0  0  0  0  0  0  0  0  0  0
   10.5627    6.9220   -3.3276 C   0  0  0  0  0  0  0  0  0  0  0  0
    9.5910    5.9549   -3.4227 F   0  0  0  0  0  0  0  0  0  0  0  0
   10.4098    7.8072   -4.5678 C   0  0  0  0  0  0  0  0  0  0  0  0
   11.1591    9.1301   -4.4569 C   0  0  0  0  0  0  0  0  0  0  0  0
   10.8806    9.8377   -3.2068 N   0  0  0  0  0  0  0  0  0  0  0  0
   11.1372    9.0004   -2.0341 C   0  0  0  0  0  0  0  0  0  0  0  0
   10.2757    7.7447   -2.0679 C   0  0  0  0  0  0  0  0  0  0  0  0
   12.8251    3.8415   -0.5472 C   0  0  0  0  0  0  0  0  0  0  0  0
   11.7001    3.9085    0.2130 N   0  0  0  0  0  0  0  0  0  0  0  0
   10.1584    3.1192    3.4591 C   0  0  0  0  0  0  0  0  0  0  0  0
    8.8514    3.2921    3.8188 N   0  0  0  0  0  0  0  0  0  0  0  0
    8.2272    3.5755    2.6964 C   0  0  0  0  0  0  0  0  0  0  0  0
    6.8504    3.8424    2.4469 C   0  0  0  0  0  0  0  0  0  0  0  0
    1.2004    6.1162   -2.7371 H   0  0  0  0  0  0  0  0  0  0  0  0
    1.1819    6.6592   -1.0452 H   0  0  0  0  0  0  0  0  0  0  0  0
    0.8078    4.9509   -1.4544 H   0  0  0  0  0  0  0  0  0  0  0  0
    2.5911    4.2308    0.0127 H   0  0  0  0  0  0  0  0  0  0  0  0
    2.9715    5.9183    0.4065 H   0  0  0  0  0  0  0  0  0  0  0  0
    5.2162    5.6630   -0.6202 H   0  0  0  0  0  0  0  0  0  0  0  0
    4.8344    3.9677   -1.0292 H   0  0  0  0  0  0  0  0  0  0  0  0
    7.0436    4.3049   -0.9345 H   0  0  0  0  0  0  0  0  0  0  0  0
    9.3891    3.8493   -0.4893 H   0  0  0  0  0  0  0  0  0  0  0  0
   12.4830    1.6556    2.6108 H   0  0  0  0  0  0  0  0  0  0  0  0
   14.5410    1.5187    1.2758 H   0  0  0  0  0  0  0  0  0  0  0  0
   15.8746    2.2638   -0.6561 H   0  0  0  0  0  0  0  0  0  0  0  0
   16.1110    3.6539   -2.6737 H   0  0  0  0  0  0  0  0  0  0  0  0
   14.2946    5.1425   -3.3766 H   0  0  0  0  0  0  0  0  0  0  0  0
   12.0159    5.5092   -4.1082 H   0  0  0  0  0  0  0  0  0  0  0  0
   12.7522    6.8957   -3.2442 H   0  0  0  0  0  0  0  0  0  0  0  0
    9.3406    8.0131   -4.7155 H   0  0  0  0  0  0  0  0  0  0  0  0
   10.7308    7.2681   -5.4671 H   0  0  0  0  0  0  0  0  0  0  0  0
   10.8618    9.7785   -5.2895 H   0  0  0  0  0  0  0  0  0  0  0  0
   12.2381    8.9736   -4.5594 H   0  0  0  0  0  0  0  0  0  0  0  0
    9.9021   10.1336   -3.1935 H   0  0  0  0  0  0  0  0  0  0  0  0
   10.9108    9.5767   -1.1311 H   0  0  0  0  0  0  0  0  0  0  0  0
   12.2039    8.7530   -1.9810 H   0  0  0  0  0  0  0  0  0  0  0  0
    9.2127    8.0177   -2.0506 H   0  0  0  0  0  0  0  0  0  0  0  0
   10.4362    7.1528   -1.1605 H   0  0  0  0  0  0  0  0  0  0  0  0
   10.9019    2.8727    4.2066 H   0  0  0  0  0  0  0  0  0  0  0  0
    6.1657    3.8277    3.2870 H   0  0  0  0  0  0  0  0  0  0  0  0
  1  2  1  0  0  0  0
  1 34  1  0  0  0  0
  1 35  1  0  0  0  0
  1 36  1  0  0  0  0
  2  3  1  0  0  0  0
  3  4  1  0  0  0  0
  3 37  1  0  0  0  0
  3 38  1  0  0  0  0
  4  5  1  0  0  0  0
  4 39  1  0  0  0  0
  4 40  1  0  0  0  0
  5  6  1  0  0  0  0
  6  7  1  0  0  0  0
  6 33  2  0  0  0  0
  7  8  2  0  0  0  0
  7 41  1  0  0  0  0
  8  9  1  0  0  0  0
  8 42  1  0  0  0  0
  9 10  1  0  0  0  0
  9 32  1  0  0  0  0
 10 11  1  0  0  0  0
 10 30  2  0  0  0  0
 11 12  1  0  0  0  0
 11 29  2  0  0  0  0
 12 13  2  0  0  0  0
 12 43  1  0  0  0  0
 13 14  1  0  0  0  0
 13 44  1  0  0  0  0
 14 15  1  0  0  0  0
 14 28  2  0  0  0  0
 15 16  2  0  0  0  0
 15 45  1  0  0  0  0
 16 17  1  0  0  0  0
 16 46  1  0  0  0  0
 17 18  2  0  0  0  0
 17 47  1  0  0  0  0
 18 19  1  0  0  0  0
 18 28  1  0  0  0  0
 19 20  1  0  0  0  0
 20 21  1  0  0  0  0
 20 48  1  0  0  0  0
 20 49  1  0  0  0  0
 21 22  1  0  0  0  0
 21 23  1  0  0  0  0
 21 27  1  0  0  0  0
 23 24  1  0  0  0  0
 23 50  1  0  0  0  0
 23 51  1  0  0  0  0
 24 25  1  0  0  0  0
 24 52  1  0  0  0  0
 24 53  1  0  0  0  0
 25 26  1  0  0  0  0
 25 54  1  0  0  0  0
 26 27  1  0  0  0  0
 26 55  1  0  0  0  0
 26 56  1  0  0  0  0
 27 57  1  0  0  0  0
 27 58  1  0  0  0  0
 28 29  1  0  0  0  0
 30 31  1  0  0  0  0
 30 59  1  0  0  0  0
 31 32  2  0  0  0  0
 32 33  1  0  0  0  0
 33 60  1  0  0  0  0
M  END
$$$$
