CHEMBL3981956
 OpenBabel04072215373D

 37 40  0  0  0  0  0  0  0  0999 V2000
    0.9462    0.0390    0.1235 N   0  0  0  0  0  0  0  0  0  0  0  0
    2.3167    0.0152    0.1291 C   0  0  0  0  0  0  0  0  0  0  0  0
    3.1572    1.1031    0.2132 C   0  0  0  0  0  0  0  0  0  0  0  0
    2.7629    2.4910    0.3615 C   0  0  0  0  0  0  0  0  0  0  0  0
    1.6657    2.7847    0.8379 O   0  0  0  0  0  0  0  0  0  0  0  0
    3.6747    3.4873   -0.1582 C   0  0  0  0  0  0  0  0  0  0  0  0
    3.5959    4.8683   -0.1108 C   0  0  0  0  0  0  0  0  0  0  0  0
    4.5988    5.3592   -0.9855 C   0  0  0  0  0  0  0  0  0  0  0  0
    5.0200    6.6129   -1.4442 C   0  0  0  0  0  0  0  0  0  0  0  0
    5.5573    6.6543   -2.7326 C   0  0  0  0  0  0  0  0  0  0  0  0
    6.1494    5.5107   -3.2661 C   0  0  0  0  0  0  0  0  0  0  0  0
    6.1250    4.2971   -2.5721 C   0  0  0  0  0  0  0  0  0  0  0  0
    5.2061    4.2446   -1.5308 C   0  0  0  0  0  0  0  0  0  0  0  0
    4.7391    3.1193   -0.9417 O   0  0  0  0  0  0  0  0  0  0  0  0
    4.4480    0.5153    0.1706 C   0  0  0  0  0  0  0  0  0  0  0  0
    4.4218   -0.8192    0.1263 N   0  0  0  0  0  0  0  0  0  0  0  0
    3.1093   -1.1478    0.1155 N   0  0  0  0  0  0  0  0  0  0  0  0
    2.6987   -2.5045    0.0778 C   0  0  0  0  0  0  0  0  0  0  0  0
    1.5175   -2.8367   -0.6080 C   0  0  0  0  0  0  0  0  0  0  0  0
    1.0962   -4.1634   -0.6357 C   0  0  0  0  0  0  0  0  0  0  0  0
   -0.0702   -4.5136   -1.2644 O   0  0  0  0  0  0  0  0  0  0  0  0
    1.7832   -5.1552    0.0213 C   0  0  0  0  0  0  0  0  0  0  0  0
    2.9838   -4.8367    0.6803 C   0  0  0  0  0  0  0  0  0  0  0  0
    3.4383   -3.5209    0.7130 C   0  0  0  0  0  0  0  0  0  0  0  0
    4.8581   -3.2640    1.6816 Cl  0  0  0  0  0  0  0  0  0  0  0  0
    0.5036    0.9368    0.3558 H   0  0  0  0  0  0  0  0  0  0  0  0
    0.4329   -0.7244    0.5593 H   0  0  0  0  0  0  0  0  0  0  0  0
    2.8051    5.4332    0.3699 H   0  0  0  0  0  0  0  0  0  0  0  0
    4.9261    7.5132   -0.8469 H   0  0  0  0  0  0  0  0  0  0  0  0
    5.5579    7.5871   -3.2934 H   0  0  0  0  0  0  0  0  0  0  0  0
    6.6671    5.5736   -4.2194 H   0  0  0  0  0  0  0  0  0  0  0  0
    6.6553    3.4198   -2.9130 H   0  0  0  0  0  0  0  0  0  0  0  0
    5.4317    0.9954    0.2565 H   0  0  0  0  0  0  0  0  0  0  0  0
    0.9679   -2.0942   -1.1686 H   0  0  0  0  0  0  0  0  0  0  0  0
   -0.4421   -3.7254   -1.7167 H   0  0  0  0  0  0  0  0  0  0  0  0
    1.4364   -6.1868    0.0138 H   0  0  0  0  0  0  0  0  0  0  0  0
    3.5336   -5.6226    1.1924 H   0  0  0  0  0  0  0  0  0  0  0  0
  1  2  1  0  0  0  0
  1 26  1  0  0  0  0
  1 27  1  0  0  0  0
  2  3  2  0  0  0  0
  2 17  1  0  0  0  0
  3  4  1  0  0  0  0
  3 15  1  0  0  0  0
  4  5  2  0  0  0  0
  4  6  1  0  0  0  0
  6  7  2  0  0  0  0
  6 14  1  0  0  0  0
  7  8  1  0  0  0  0
  7 28  1  0  0  0  0
  8  9  1  0  0  0  0
  8 13  2  0  0  0  0
  9 10  2  0  0  0  0
  9 29  1  0  0  0  0
 10 11  1  0  0  0  0
 10 30  1  0  0  0  0
 11 12  2  0  0  0  0
 11 31  1  0  0  0  0
 12 13  1  0  0  0  0
 12 32  1  0  0  0  0
 13 14  1  0  0  0  0
 15 16  2  0  0  0  0
 15 33  1  0  0  0  0
 16 17  1  0  0  0  0
 17 18  1  0  0  0  0
 18 19  1  0  0  0  0
 18 24  2  0  0  0  0
 19 20  2  0  0  0  0
 19 34  1  0  0  0  0
 20 21  1  0  0  0  0
 20 22  1  0  0  0  0
 21 35  1  0  0  0  0
 22 23  2  0  0  0  0
 22 36  1  0  0  0  0
 23 24  1  0  0  0  0
 23 37  1  0  0  0  0
 24 25  1  0  0  0  0
M  END
$$$$
