CHEMBL1992125
 OpenBabel04072215363D

 55 58  0  0  0  0  0  0  0  0999 V2000
    2.3187    0.8690   -1.3484 C   0  0  0  0  0  0  0  0  0  0  0  0
    3.6945    0.7972   -1.7123 O   0  0  0  0  0  0  0  0  0  0  0  0
    4.2602   -0.4444   -1.8438 C   0  0  0  0  0  0  0  0  0  0  0  0
    3.4861   -1.5900   -2.0189 C   0  0  0  0  0  0  0  0  0  0  0  0
    4.0649   -2.8308   -2.3209 C   0  0  0  0  0  0  0  0  0  0  0  0
    3.2627   -3.9611   -2.5932 N   0  0  0  0  0  0  0  0  0  0  0  0
    1.9992   -3.8191   -3.1861 C   0  0  0  0  0  0  0  0  0  0  0  0
    1.8340   -2.9466   -4.1758 N   0  0  0  0  0  0  0  0  0  0  0  0
    0.5797   -2.7306   -4.5247 C   0  0  0  0  0  0  0  0  0  0  0  0
   -0.4739   -3.3288   -3.9982 N   0  0  0  0  0  0  0  0  0  0  0  0
   -0.2170   -4.2536   -3.0729 C   0  0  0  0  0  0  0  0  0  0  0  0
   -1.2737   -5.0429   -2.5846 N   0  0  0  0  0  0  0  0  0  0  0  0
   -0.8577   -6.3733   -2.1352 C   0  0  0  0  0  0  0  0  0  0  0  0
   -1.6555   -7.5220   -2.7254 C   0  0  0  0  0  0  0  0  0  0  0  0
   -3.1206   -7.2600   -3.0018 C   0  0  0  0  0  0  0  0  0  0  0  0
   -3.5400   -5.8250   -3.0029 C   0  0  0  0  0  0  0  0  0  0  0  0
   -4.8737   -5.5469   -3.3450 C   0  0  0  0  0  0  0  0  0  0  0  0
   -5.3438   -4.2385   -3.4436 C   0  0  0  0  0  0  0  0  0  0  0  0
   -6.7328   -3.9851   -3.9441 C   0  0  0  0  0  0  0  0  0  0  0  0
   -4.4891   -3.1976   -3.0883 C   0  0  0  0  0  0  0  0  0  0  0  0
   -3.1582   -3.4722   -2.7442 C   0  0  0  0  0  0  0  0  0  0  0  0
   -2.6427   -4.7842   -2.7542 C   0  0  0  0  0  0  0  0  0  0  0  0
    1.0147   -4.4970   -2.6220 N   0  0  0  0  0  0  0  0  0  0  0  0
    5.4475   -2.9569   -2.3088 C   0  0  0  0  0  0  0  0  0  0  0  0
    6.2448   -1.8301   -2.1489 C   0  0  0  0  0  0  0  0  0  0  0  0
    7.6242   -1.8836   -2.1975 O   0  0  0  0  0  0  0  0  0  0  0  0
    8.1633   -2.8712   -3.0802 C   0  0  0  0  0  0  0  0  0  0  0  0
    5.6606   -0.5609   -1.9053 C   0  0  0  0  0  0  0  0  0  0  0  0
    6.5490    0.4876   -1.8152 O   0  0  0  0  0  0  0  0  0  0  0  0
    6.1737    1.5682   -0.9729 C   0  0  0  0  0  0  0  0  0  0  0  0
    2.0509    1.9262   -1.2586 H   0  0  0  0  0  0  0  0  0  0  0  0
    2.1526    0.3941   -0.3753 H   0  0  0  0  0  0  0  0  0  0  0  0
    1.6654    0.4402   -2.1161 H   0  0  0  0  0  0  0  0  0  0  0  0
    2.4032   -1.5296   -1.9916 H   0  0  0  0  0  0  0  0  0  0  0  0
    3.1092   -4.5168   -1.7572 H   0  0  0  0  0  0  0  0  0  0  0  0
    0.3993   -1.9937   -5.2984 H   0  0  0  0  0  0  0  0  0  0  0  0
   -0.8753   -6.4061   -1.0399 H   0  0  0  0  0  0  0  0  0  0  0  0
    0.1812   -6.6016   -2.4150 H   0  0  0  0  0  0  0  0  0  0  0  0
   -1.5662   -8.3896   -2.0584 H   0  0  0  0  0  0  0  0  0  0  0  0
   -1.1795   -7.8369   -3.6632 H   0  0  0  0  0  0  0  0  0  0  0  0
   -3.3558   -7.6803   -3.9887 H   0  0  0  0  0  0  0  0  0  0  0  0
   -3.7316   -7.8004   -2.2698 H   0  0  0  0  0  0  0  0  0  0  0  0
   -5.5375   -6.3743   -3.5864 H   0  0  0  0  0  0  0  0  0  0  0  0
   -7.1664   -4.9014   -4.3625 H   0  0  0  0  0  0  0  0  0  0  0  0
   -6.7166   -3.2457   -4.7514 H   0  0  0  0  0  0  0  0  0  0  0  0
   -7.3820   -3.6387   -3.1365 H   0  0  0  0  0  0  0  0  0  0  0  0
   -4.8321   -2.1656   -3.1114 H   0  0  0  0  0  0  0  0  0  0  0  0
   -2.5112   -2.6339   -2.4914 H   0  0  0  0  0  0  0  0  0  0  0  0
    5.8811   -3.9346   -2.4780 H   0  0  0  0  0  0  0  0  0  0  0  0
    9.2145   -2.6223   -3.2662 H   0  0  0  0  0  0  0  0  0  0  0  0
    7.6332   -2.8824   -4.0414 H   0  0  0  0  0  0  0  0  0  0  0  0
    8.1222   -3.8611   -2.6099 H   0  0  0  0  0  0  0  0  0  0  0  0
    7.0839    2.1191   -0.7198 H   0  0  0  0  0  0  0  0  0  0  0  0
    5.7246    1.2231   -0.0350 H   0  0  0  0  0  0  0  0  0  0  0  0
    5.5167    2.2651   -1.5017 H   0  0  0  0  0  0  0  0  0  0  0  0
  1  2  1  0  0  0  0
  1 31  1  0  0  0  0
  1 32  1  0  0  0  0
  1 33  1  0  0  0  0
  2  3  1  0  0  0  0
  3  4  1  0  0  0  0
  3 28  2  0  0  0  0
  4  5  2  0  0  0  0
  4 34  1  0  0  0  0
  5  6  1  0  0  0  0
  5 24  1  0  0  0  0
  6  7  1  0  0  0  0
  6 35  1  0  0  0  0
  7  8  1  0  0  0  0
  7 23  2  0  0  0  0
  8  9  2  0  0  0  0
  9 10  1  0  0  0  0
  9 36  1  0  0  0  0
 10 11  2  0  0  0  0
 11 12  1  0  0  0  0
 11 23  1  0  0  0  0
 12 13  1  0  0  0  0
 12 22  1  0  0  0  0
 13 14  1  0  0  0  0
 13 37  1  0  0  0  0
 13 38  1  0  0  0  0
 14 15  1  0  0  0  0
 14 39  1  0  0  0  0
 14 40  1  0  0  0  0
 15 16  1  0  0  0  0
 15 41  1  0  0  0  0
 15 42  1  0  0  0  0
 16 17  1  0  0  0  0
 16 22  2  0  0  0  0
 17 18  2  0  0  0  0
 17 43  1  0  0  0  0
 18 19  1  0  0  0  0
 18 20  1  0  0  0  0
 19 44  1  0  0  0  0
 19 45  1  0  0  0  0
 19 46  1  0  0  0  0
 20 21  2  0  0  0  0
 20 47  1  0  0  0  0
 21 22  1  0  0  0  0
 21 48  1  0  0  0  0
 24 25  2  0  0  0  0
 24 49  1  0  0  0  0
 25 26  1  0  0  0  0
 25 28  1  0  0  0  0
 26 27  1  0  0  0  0
 27 50  1  0  0  0  0
 27 51  1  0  0  0  0
 27 52  1  0  0  0  0
 28 29  1  0  0  0  0
 29 30  1  0  0  0  0
 30 53  1  0  0  0  0
 30 54  1  0  0  0  0
 30 55  1  0  0  0  0
M  END
$$$$
