CHEMBL3114025
 OpenBabel04072215363D

 50 53  0  0  0  0  0  0  0  0999 V2000
    1.1370    0.4000    0.4964 C   0  0  0  0  0  0  0  0  0  0  0  0
    2.4811    0.0922   -0.0517 C   0  0  0  0  0  0  0  0  0  0  0  0
    3.3168   -0.9914    0.0688 C   0  0  0  0  0  0  0  0  0  0  0  0
    3.0517   -2.1479    0.7883 C   0  0  0  0  0  0  0  0  0  0  0  0
    4.1402   -3.0449    0.7231 C   0  0  0  0  0  0  0  0  0  0  0  0
    5.3774   -2.8186    0.0085 C   0  0  0  0  0  0  0  0  0  0  0  0
    6.3657   -3.8295    0.0577 N   0  0  0  0  0  0  0  0  0  0  0  0
    7.7848   -3.4673    0.0175 C   0  0  0  0  0  0  0  0  0  0  0  0
    6.1734   -5.2248   -0.0621 C   0  0  0  0  0  0  0  0  0  0  0  0
    5.1484   -5.7330   -0.8300 C   0  0  0  0  0  0  0  0  0  0  0  0
    5.1052   -7.0990   -0.9847 C   0  0  0  0  0  0  0  0  0  0  0  0
    5.9615   -7.9507   -0.3939 N   0  0  0  0  0  0  0  0  0  0  0  0
    6.9200   -7.3943    0.3493 C   0  0  0  0  0  0  0  0  0  0  0  0
    7.8469   -8.2460    0.9523 N   0  0  0  0  0  0  0  0  0  0  0  0
    9.1104   -7.9020    1.4414 C   0  0  0  0  0  0  0  0  0  0  0  0
    9.6458   -8.5365    2.5632 C   0  0  0  0  0  0  0  0  0  0  0  0
   10.8055   -8.0353    3.1662 C   0  0  0  0  0  0  0  0  0  0  0  0
   11.4618   -6.9119    2.6463 C   0  0  0  0  0  0  0  0  0  0  0  0
   12.5269   -6.4752    3.3688 O   0  0  0  0  0  0  0  0  0  0  0  0
   13.5858   -5.7864    2.7163 C   0  0  0  0  0  0  0  0  0  0  0  0
   13.4714   -5.7106    1.3740 F   0  0  0  0  0  0  0  0  0  0  0  0
   13.6748   -4.5325    3.2115 F   0  0  0  0  0  0  0  0  0  0  0  0
   14.7398   -6.4319    2.9912 F   0  0  0  0  0  0  0  0  0  0  0  0
   10.9478   -6.2955    1.5160 C   0  0  0  0  0  0  0  0  0  0  0  0
    9.8038   -6.8057    0.9120 C   0  0  0  0  0  0  0  0  0  0  0  0
    7.0415   -6.0647    0.5251 N   0  0  0  0  0  0  0  0  0  0  0  0
    5.5836   -1.6153   -0.7142 C   0  0  0  0  0  0  0  0  0  0  0  0
    4.5164   -0.6959   -0.6663 C   0  0  0  0  0  0  0  0  0  0  0  0
    4.4032    0.5134   -1.2353 N   0  0  0  0  0  0  0  0  0  0  0  0
    3.1831    0.9660   -0.8524 N   0  0  0  0  0  0  0  0  0  0  0  0
    2.7610    2.2758   -1.2725 C   0  0  0  0  0  0  0  0  0  0  0  0
    0.7528   -0.4190    1.1109 H   0  0  0  0  0  0  0  0  0  0  0  0
    0.4200    0.5741   -0.3126 H   0  0  0  0  0  0  0  0  0  0  0  0
    1.1737    1.2943    1.1275 H   0  0  0  0  0  0  0  0  0  0  0  0
    2.1502   -2.3604    1.3440 H   0  0  0  0  0  0  0  0  0  0  0  0
    4.0402   -3.9734    1.2888 H   0  0  0  0  0  0  0  0  0  0  0  0
    7.9655   -2.3880    0.0468 H   0  0  0  0  0  0  0  0  0  0  0  0
    8.2483   -3.8493   -0.9016 H   0  0  0  0  0  0  0  0  0  0  0  0
    8.3275   -3.8819    0.8761 H   0  0  0  0  0  0  0  0  0  0  0  0
    4.4477   -5.0899   -1.3445 H   0  0  0  0  0  0  0  0  0  0  0  0
    4.3670   -7.5585   -1.6335 H   0  0  0  0  0  0  0  0  0  0  0  0
    7.6161   -9.2192    0.8388 H   0  0  0  0  0  0  0  0  0  0  0  0
    9.1355   -9.3810    3.0187 H   0  0  0  0  0  0  0  0  0  0  0  0
   11.1863   -8.5091    4.0683 H   0  0  0  0  0  0  0  0  0  0  0  0
   11.3767   -5.3977    1.0794 H   0  0  0  0  0  0  0  0  0  0  0  0
    9.4331   -6.3085    0.0176 H   0  0  0  0  0  0  0  0  0  0  0  0
    6.4726   -1.3968   -1.2868 H   0  0  0  0  0  0  0  0  0  0  0  0
    3.5341    2.7344   -1.8930 H   0  0  0  0  0  0  0  0  0  0  0  0
    2.5904    2.8904   -0.3823 H   0  0  0  0  0  0  0  0  0  0  0  0
    1.8368    2.1707   -1.8511 H   0  0  0  0  0  0  0  0  0  0  0  0
  1  2  1  0  0  0  0
  1 32  1  0  0  0  0
  1 33  1  0  0  0  0
  1 34  1  0  0  0  0
  2  3  2  0  0  0  0
  2 30  1  0  0  0  0
  3  4  1  0  0  0  0
  3 28  1  0  0  0  0
  4  5  2  0  0  0  0
  4 35  1  0  0  0  0
  5  6  1  0  0  0  0
  5 36  1  0  0  0  0
  6  7  1  0  0  0  0
  6 27  2  0  0  0  0
  7  8  1  0  0  0  0
  7  9  1  0  0  0  0
  8 37  1  0  0  0  0
  8 38  1  0  0  0  0
  8 39  1  0  0  0  0
  9 10  1  0  0  0  0
  9 26  2  0  0  0  0
 10 11  2  0  0  0  0
 10 40  1  0  0  0  0
 11 12  1  0  0  0  0
 11 41  1  0  0  0  0
 12 13  2  0  0  0  0
 13 14  1  0  0  0  0
 13 26  1  0  0  0  0
 14 15  1  0  0  0  0
 14 42  1  0  0  0  0
 15 16  1  0  0  0  0
 15 25  2  0  0  0  0
 16 17  2  0  0  0  0
 16 43  1  0  0  0  0
 17 18  1  0  0  0  0
 17 44  1  0  0  0  0
 18 19  1  0  0  0  0
 18 24  2  0  0  0  0
 19 20  1  0  0  0  0
 20 21  1  0  0  0  0
 20 22  1  0  0  0  0
 20 23  1  0  0  0  0
 24 25  1  0  0  0  0
 24 45  1  0  0  0  0
 25 46  1  0  0  0  0
 27 28  1  0  0  0  0
 27 47  1  0  0  0  0
 28 29  2  0  0  0  0
 29 30  1  0  0  0  0
 30 31  1  0  0  0  0
 31 48  1  0  0  0  0
 31 49  1  0  0  0  0
 31 50  1  0  0  0  0
M  END
$$$$
