CHEMBL3893595
 OpenBabel04072215373D

 61 65  0  0  0  0  0  0  0  0999 V2000
    7.5926  -11.5663   -3.2103 C   0  0  0  0  0  0  0  0  0  0  0  0
    6.9392  -10.2852   -3.2455 N   0  0  0  0  0  0  0  0  0  0  0  0
    6.9217   -9.3433   -2.2597 C   0  0  0  0  0  0  0  0  0  0  0  0
    6.2593   -8.2484   -2.7757 C   0  0  0  0  0  0  0  0  0  0  0  0
    6.0546   -6.9882   -2.0816 C   0  0  0  0  0  0  0  0  0  0  0  0
    5.3526   -5.9647   -2.6977 C   0  0  0  0  0  0  0  0  0  0  0  0
    5.1076   -4.7884   -1.9843 C   0  0  0  0  0  0  0  0  0  0  0  0
    4.3630   -3.7349   -2.4730 O   0  0  0  0  0  0  0  0  0  0  0  0
    3.3510   -3.9816   -3.3633 C   0  0  0  0  0  0  0  0  0  0  0  0
    2.5594   -5.1292   -3.3710 C   0  0  0  0  0  0  0  0  0  0  0  0
    1.6236   -5.3229   -4.3883 C   0  0  0  0  0  0  0  0  0  0  0  0
    1.4424   -4.3167   -5.3274 C   0  0  0  0  0  0  0  0  0  0  0  0
    0.5025   -4.5242   -6.3416 N   0  0  0  0  0  0  0  0  0  0  0  0
    0.2029   -3.6144   -7.3299 C   0  0  0  0  0  0  0  0  0  0  0  0
    0.7006   -2.4957   -7.4710 O   0  0  0  0  0  0  0  0  0  0  0  0
   -0.7563   -4.0557   -8.2310 N   0  0  0  0  0  0  0  0  0  0  0  0
   -1.0598   -3.2567   -9.3982 C   0  0  0  0  0  0  0  0  0  0  0  0
   -2.0844   -4.0930  -10.1302 C   0  0  0  0  0  0  0  0  0  0  0  0
   -2.7392   -4.7848   -9.0403 N   0  0  0  0  0  0  0  0  0  0  0  0
   -4.0352   -5.4465   -9.1534 C   0  0  0  0  0  0  0  0  0  0  0  0
   -4.0244   -6.5249  -10.2434 C   0  0  0  0  0  0  0  0  0  0  0  0
   -5.4016   -7.1483  -10.4437 C   0  0  0  0  0  0  0  0  0  0  0  0
   -6.4605   -6.0856  -10.7179 C   0  0  0  0  0  0  0  0  0  0  0  0
   -6.5096   -5.0532   -9.5969 C   0  0  0  0  0  0  0  0  0  0  0  0
   -5.1459   -4.4074   -9.3790 C   0  0  0  0  0  0  0  0  0  0  0  0
   -1.8767   -4.8651   -7.9388 C   0  0  0  0  0  0  0  0  0  0  0  0
   -2.0378   -5.5409   -6.9333 O   0  0  0  0  0  0  0  0  0  0  0  0
    2.1435   -3.1705   -5.2837 N   0  0  0  0  0  0  0  0  0  0  0  0
    3.0753   -3.0169   -4.3134 C   0  0  0  0  0  0  0  0  0  0  0  0
    5.6506   -4.6404   -0.7218 C   0  0  0  0  0  0  0  0  0  0  0  0
    6.3689   -5.6947   -0.1924 C   0  0  0  0  0  0  0  0  0  0  0  0
    6.5601   -6.8736   -0.8332 N   0  0  0  0  0  0  0  0  0  0  0  0
    5.8812   -8.6661   -4.0739 C   0  0  0  0  0  0  0  0  0  0  0  0
    6.2873   -9.9046   -4.3622 N   0  0  0  0  0  0  0  0  0  0  0  0
    7.9917  -11.7420   -2.2081 H   0  0  0  0  0  0  0  0  0  0  0  0
    8.4058  -11.5531   -3.9403 H   0  0  0  0  0  0  0  0  0  0  0  0
    6.8612  -12.3384   -3.4619 H   0  0  0  0  0  0  0  0  0  0  0  0
    7.3914   -9.5072   -1.2995 H   0  0  0  0  0  0  0  0  0  0  0  0
    4.9857   -6.0843   -3.7088 H   0  0  0  0  0  0  0  0  0  0  0  0
    2.6859   -5.9008   -2.6181 H   0  0  0  0  0  0  0  0  0  0  0  0
    1.0701   -6.2527   -4.4272 H   0  0  0  0  0  0  0  0  0  0  0  0
   -0.0346   -5.3832   -6.3395 H   0  0  0  0  0  0  0  0  0  0  0  0
   -0.1649   -3.0307   -9.9861 H   0  0  0  0  0  0  0  0  0  0  0  0
   -1.5058   -2.3148   -9.0534 H   0  0  0  0  0  0  0  0  0  0  0  0
   -1.6006   -4.8436  -10.7641 H   0  0  0  0  0  0  0  0  0  0  0  0
   -2.7741   -3.4905  -10.7241 H   0  0  0  0  0  0  0  0  0  0  0  0
   -4.2345   -5.9401   -8.1932 H   0  0  0  0  0  0  0  0  0  0  0  0
   -3.2993   -7.3068   -9.9841 H   0  0  0  0  0  0  0  0  0  0  0  0
   -3.6901   -6.0970  -11.1975 H   0  0  0  0  0  0  0  0  0  0  0  0
   -5.6781   -7.7212   -9.5494 H   0  0  0  0  0  0  0  0  0  0  0  0
   -5.3661   -7.8570  -11.2790 H   0  0  0  0  0  0  0  0  0  0  0  0
   -7.4428   -6.5584  -10.8283 H   0  0  0  0  0  0  0  0  0  0  0  0
   -6.2380   -5.5838  -11.6681 H   0  0  0  0  0  0  0  0  0  0  0  0
   -6.8418   -5.5321   -8.6681 H   0  0  0  0  0  0  0  0  0  0  0  0
   -7.2457   -4.2790   -9.8401 H   0  0  0  0  0  0  0  0  0  0  0  0
   -5.1941   -3.7247   -8.5216 H   0  0  0  0  0  0  0  0  0  0  0  0
   -4.9158   -3.7847  -10.2517 H   0  0  0  0  0  0  0  0  0  0  0  0
    3.6065   -2.0724   -4.3468 H   0  0  0  0  0  0  0  0  0  0  0  0
    5.5186   -3.7226   -0.1567 H   0  0  0  0  0  0  0  0  0  0  0  0
    6.8205   -5.6294    0.7958 H   0  0  0  0  0  0  0  0  0  0  0  0
    5.3307   -8.1205   -4.8297 H   0  0  0  0  0  0  0  0  0  0  0  0
  1  2  1  0  0  0  0
  1 35  1  0  0  0  0
  1 36  1  0  0  0  0
  1 37  1  0  0  0  0
  2  3  1  0  0  0  0
  2 34  1  0  0  0  0
  3  4  2  0  0  0  0
  3 38  1  0  0  0  0
  4  5  1  0  0  0  0
  4 33  1  0  0  0  0
  5  6  1  0  0  0  0
  5 32  2  0  0  0  0
  6  7  2  0  0  0  0
  6 39  1  0  0  0  0
  7  8  1  0  0  0  0
  7 30  1  0  0  0  0
  8  9  1  0  0  0  0
  9 10  1  0  0  0  0
  9 29  2  0  0  0  0
 10 11  2  0  0  0  0
 10 40  1  0  0  0  0
 11 12  1  0  0  0  0
 11 41  1  0  0  0  0
 12 13  1  0  0  0  0
 12 28  2  0  0  0  0
 13 14  1  0  0  0  0
 13 42  1  0  0  0  0
 14 15  2  0  0  0  0
 14 16  1  0  0  0  0
 16 17  1  0  0  0  0
 16 26  1  0  0  0  0
 17 18  1  0  0  0  0
 17 43  1  0  0  0  0
 17 44  1  0  0  0  0
 18 19  1  0  0  0  0
 18 45  1  0  0  0  0
 18 46  1  0  0  0  0
 19 20  1  0  0  0  0
 19 26  1  0  0  0  0
 20 21  1  0  0  0  0
 20 25  1  0  0  0  0
 20 47  1  0  0  0  0
 21 22  1  0  0  0  0
 21 48  1  0  0  0  0
 21 49  1  0  0  0  0
 22 23  1  0  0  0  0
 22 50  1  0  0  0  0
 22 51  1  0  0  0  0
 23 24  1  0  0  0  0
 23 52  1  0  0  0  0
 23 53  1  0  0  0  0
 24 25  1  0  0  0  0
 24 54  1  0  0  0  0
 24 55  1  0  0  0  0
 25 56  1  0  0  0  0
 25 57  1  0  0  0  0
 26 27  2  0  0  0  0
 28 29  1  0  0  0  0
 29 58  1  0  0  0  0
 30 31  2  0  0  0  0
 30 59  1  0  0  0  0
 31 32  1  0  0  0  0
 31 60  1  0  0  0  0
 33 34  2  0  0  0  0
 33 61  1  0  0  0  0
M  END
$$$$
