CHEMBL2216905
 OpenBabel04072215363D

 78 80  0  0  1  0  0  0  0  0999 V2000
    3.8516   -5.3401    5.3457 C   0  0  0  0  0  0  0  0  0  0  0  0
    3.3952   -4.0808    4.6272 C   0  0  0  0  0  0  0  0  0  0  0  0
    4.2120   -3.7566    3.4870 O   0  0  0  0  0  0  0  0  0  0  0  0
    5.0899   -2.7270    3.6099 C   0  0  0  0  0  0  0  0  0  0  0  0
    5.4701   -2.1831    4.6283 O   0  0  0  0  0  0  0  0  0  0  0  0
    5.4461   -2.2286    2.1730 C   0  0  0  0  0  0  0  0  0  0  0  0
    4.8980   -1.2038    1.7613 O   0  0  0  0  0  0  0  0  0  0  0  0
    6.2797   -3.0370    1.3875 N   0  0  0  0  0  0  0  0  0  0  0  0
    6.4296   -2.7921   -0.0536 C   0  0  0  0  0  0  0  0  0  0  0  0
    7.4707   -1.7440   -0.4052 C   0  0  0  0  0  0  0  0  0  0  0  0
    7.0853   -0.4213   -0.6848 C   0  0  0  0  0  0  0  0  0  0  0  0
    8.0349    0.5627   -0.9884 C   0  0  0  0  0  0  0  0  0  0  0  0
    9.3872    0.2370   -1.0263 C   0  0  0  0  0  0  0  0  0  0  0  0
    9.7733   -1.0763   -0.7879 C   0  0  0  0  0  0  0  0  0  0  0  0
   11.0730   -1.3987   -0.8518 F   0  0  0  0  0  0  0  0  0  0  0  0
    8.8350   -2.0655   -0.4837 C   0  0  0  0  0  0  0  0  0  0  0  0
    6.8704   -4.2021    1.9188 C   0  0  0  0  0  0  0  0  0  0  0  0
    6.3942   -5.4638    1.5627 C   0  0  0  0  0  0  0  0  0  0  0  0
    6.9751   -6.5948    2.1275 C   0  0  0  0  0  0  0  0  0  0  0  0
    8.0548   -6.4573    3.0050 C   0  0  0  0  0  0  0  0  0  0  0  0
    8.5409   -5.1862    3.3937 C   0  0  0  0  0  0  0  0  0  0  0  0
    7.9114   -4.0669    2.8418 C   0  0  0  0  0  0  0  0  0  0  0  0
    9.5855   -5.0678    4.3008 N   0  0  0  0  0  0  0  0  0  0  0  0
   10.4889   -3.9303    4.3585 C   0  0  0  0  0  0  0  0  0  0  0  0
    9.9899   -6.3144    4.9474 C   0  0  0  0  0  0  0  0  0  0  0  0
    9.9651   -7.4876    3.9458 C   0  0  3  0  0  0  0  0  0  0  0  0
   10.9554   -7.2875    2.7791 C   0  0  0  0  0  0  0  0  0  0  0  0
   10.3389   -8.7821    4.7174 C   0  0  0  0  0  0  0  0  0  0  0  0
   10.3386   -9.9059    3.8308 O   0  0  0  0  0  0  0  0  0  0  0  0
   10.7607  -11.1149    4.3144 C   0  0  0  0  0  0  0  0  0  0  0  0
   11.2716  -11.3664    5.5890 C   0  0  0  0  0  0  0  0  0  0  0  0
   11.7110  -12.6568    5.9288 C   0  0  0  0  0  0  0  0  0  0  0  0
   11.6379  -13.7016    4.9972 C   0  0  0  0  0  0  0  0  0  0  0  0
   12.1491  -15.0701    5.3148 C   0  0  0  0  0  0  0  0  0  0  0  0
   12.2591  -15.5285    6.5216 N   0  0  0  0  0  0  0  0  0  0  0  0
   12.5417  -15.9133    4.3169 N   0  0  0  0  0  0  0  0  0  0  0  0
   11.1070  -13.4489    3.7304 C   0  0  0  0  0  0  0  0  0  0  0  0
   10.6762  -12.1590    3.3947 C   0  0  0  0  0  0  0  0  0  0  0  0
    8.6235   -7.6445    3.4243 O   0  0  0  0  0  0  0  0  0  0  0  0
    0.6284   -2.1267    0.6938 O   0  0  0  0  0  0  0  0  0  0  0  0
    1.6716   -1.5241    0.4686 C   0  0  0  0  0  0  0  0  0  0  0  0
    2.2471   -0.7370    1.4193 O   0  0  0  0  0  0  0  0  0  0  0  0
    2.4459   -1.5828   -0.8560 C   0  0  0  0  0  0  0  0  0  0  0  0
    3.5170   -0.7361   -0.8460 F   0  0  0  0  0  0  0  0  0  0  0  0
    2.9492   -2.8206   -1.1226 F   0  0  0  0  0  0  0  0  0  0  0  0
    1.6911   -1.2267   -1.9312 F   0  0  0  0  0  0  0  0  0  0  0  0
    3.0351   -5.7371    5.9618 H   0  0  0  0  0  0  0  0  0  0  0  0
    4.6936   -5.1304    6.0126 H   0  0  0  0  0  0  0  0  0  0  0  0
    4.1677   -6.1187    4.6454 H   0  0  0  0  0  0  0  0  0  0  0  0
    3.3081   -3.2411    5.3257 H   0  0  0  0  0  0  0  0  0  0  0  0
    2.3942   -4.2638    4.2227 H   0  0  0  0  0  0  0  0  0  0  0  0
    5.4568   -2.4842   -0.4529 H   0  0  0  0  0  0  0  0  0  0  0  0
    6.6859   -3.7249   -0.5723 H   0  0  0  0  0  0  0  0  0  0  0  0
    6.0329   -0.1435   -0.6718 H   0  0  0  0  0  0  0  0  0  0  0  0
    7.7158    1.5818   -1.1920 H   0  0  0  0  0  0  0  0  0  0  0  0
   10.1374    0.9924   -1.2403 H   0  0  0  0  0  0  0  0  0  0  0  0
    9.1858   -3.0810   -0.3222 H   0  0  0  0  0  0  0  0  0  0  0  0
    5.5505   -5.5749    0.8868 H   0  0  0  0  0  0  0  0  0  0  0  0
    6.6036   -7.5846    1.8759 H   0  0  0  0  0  0  0  0  0  0  0  0
    8.2246   -3.0662    3.1228 H   0  0  0  0  0  0  0  0  0  0  0  0
   10.2282   -3.1121    3.6820 H   0  0  0  0  0  0  0  0  0  0  0  0
   11.5046   -4.2422    4.0910 H   0  0  0  0  0  0  0  0  0  0  0  0
   10.5108   -3.5290    5.3765 H   0  0  0  0  0  0  0  0  0  0  0  0
    9.2793   -6.5065    5.7632 H   0  0  0  0  0  0  0  0  0  0  0  0
   10.9814   -6.2115    5.4043 H   0  0  0  0  0  0  0  0  0  0  0  0
   11.9790   -7.1655    3.1470 H   0  0  0  0  0  0  0  0  0  0  0  0
   10.7129   -6.4099    2.1706 H   0  0  0  0  0  0  0  0  0  0  0  0
   10.9284   -8.1370    2.0884 H   0  0  0  0  0  0  0  0  0  0  0  0
    9.6087   -8.9684    5.5136 H   0  0  0  0  0  0  0  0  0  0  0  0
   11.3389   -8.6542    5.1517 H   0  0  0  0  0  0  0  0  0  0  0  0
   11.3605  -10.5837    6.3360 H   0  0  0  0  0  0  0  0  0  0  0  0
   12.1473  -12.8155    6.9116 H   0  0  0  0  0  0  0  0  0  0  0  0
   11.9034  -14.8674    7.2137 H   0  0  0  0  0  0  0  0  0  0  0  0
   12.9527  -15.4930    3.4930 H   0  0  0  0  0  0  0  0  0  0  0  0
   13.0870  -16.6884    4.6824 H   0  0  0  0  0  0  0  0  0  0  0  0
   11.0062  -14.2433    2.9959 H   0  0  0  0  0  0  0  0  0  0  0  0
   10.2731  -11.9735    2.4016 H   0  0  0  0  0  0  0  0  0  0  0  0
    3.1536   -0.4177    1.1832 H   0  0  0  0  0  0  0  0  0  0  0  0
  1  2  1  0  0  0  0
  1 47  1  0  0  0  0
  1 48  1  0  0  0  0
  1 49  1  0  0  0  0
  2  3  1  0  0  0  0
  2 50  1  0  0  0  0
  2 51  1  0  0  0  0
  3  4  1  0  0  0  0
  4  5  2  0  0  0  0
  4  6  1  0  0  0  0
  6  7  2  0  0  0  0
  6  8  1  0  0  0  0
  8  9  1  0  0  0  0
  8 17  1  0  0  0  0
  9 10  1  0  0  0  0
  9 52  1  0  0  0  0
  9 53  1  0  0  0  0
 10 11  1  0  0  0  0
 10 16  2  0  0  0  0
 11 12  2  0  0  0  0
 11 54  1  0  0  0  0
 12 13  1  0  0  0  0
 12 55  1  0  0  0  0
 13 14  2  0  0  0  0
 13 56  1  0  0  0  0
 14 15  1  0  0  0  0
 14 16  1  0  0  0  0
 16 57  1  0  0  0  0
 17 18  1  0  0  0  0
 17 22  2  0  0  0  0
 18 19  2  0  0  0  0
 18 58  1  0  0  0  0
 19 20  1  0  0  0  0
 19 59  1  0  0  0  0
 20 21  2  0  0  0  0
 20 39  1  0  0  0  0
 21 22  1  0  0  0  0
 21 23  1  0  0  0  0
 22 60  1  0  0  0  0
 23 24  1  0  0  0  0
 23 25  1  0  0  0  0
 24 61  1  0  0  0  0
 24 62  1  0  0  0  0
 24 63  1  0  0  0  0
 25 26  1  0  0  0  0
 25 64  1  0  0  0  0
 25 65  1  0  0  0  0
 26 27  1  0  0  0  0
 26 28  1  0  0  0  0
 26 39  1  0  0  0  0
 27 66  1  0  0  0  0
 27 67  1  0  0  0  0
 27 68  1  0  0  0  0
 28 29  1  0  0  0  0
 28 69  1  0  0  0  0
 28 70  1  0  0  0  0
 29 30  1  0  0  0  0
 30 31  1  0  0  0  0
 30 38  2  0  0  0  0
 31 32  2  0  0  0  0
 31 71  1  0  0  0  0
 32 33  1  0  0  0  0
 32 72  1  0  0  0  0
 33 34  1  0  0  0  0
 33 37  2  0  0  0  0
 34 35  2  0  0  0  0
 34 36  1  0  0  0  0
 35 73  1  0  0  0  0
 36 74  1  0  0  0  0
 36 75  1  0  0  0  0
 37 38  1  0  0  0  0
 37 76  1  0  0  0  0
 38 77  1  0  0  0  0
 40 41  2  0  0  0  0
 41 42  1  0  0  0  0
 41 43  1  0  0  0  0
 42 78  1  0  0  0  0
 43 44  1  0  0  0  0
 43 45  1  0  0  0  0
 43 46  1  0  0  0  0
M  END
$$$$
