CHEMBL2086758
 OpenBabel04072215363D

 58 62  0  0  0  0  0  0  0  0999 V2000
    0.6953    2.0945    4.1882 C   0  0  0  0  0  0  0  0  0  0  0  0
    2.1648    2.4496    4.3859 C   0  0  0  0  0  0  0  0  0  0  0  0
    2.6213    3.5656    3.5375 N   0  0  0  0  0  0  0  0  0  0  0  0
    4.0251    3.8765    3.8694 C   0  0  0  0  0  0  0  0  0  0  0  0
    4.5417    5.0551    3.0485 C   0  0  0  0  0  0  0  0  0  0  0  0
    4.4348    4.7809    1.5443 C   0  0  0  0  0  0  0  0  0  0  0  0
    5.3272    3.6868    1.1103 N   0  0  0  0  0  0  0  0  0  0  0  0
    6.7119    3.7990    1.2951 C   0  0  0  0  0  0  0  0  0  0  0  0
    7.3867    5.0355    1.2673 C   0  0  0  0  0  0  0  0  0  0  0  0
    8.7623    5.1109    1.4623 C   0  0  0  0  0  0  0  0  0  0  0  0
    9.4403    3.9263    1.6531 C   0  0  0  0  0  0  0  0  0  0  0  0
    8.8245    2.6697    1.6231 C   0  0  0  0  0  0  0  0  0  0  0  0
    7.4533    2.6061    1.4314 C   0  0  0  0  0  0  0  0  0  0  0  0
    9.9016    1.6804    1.8716 C   0  0  0  0  0  0  0  0  0  0  0  0
    9.8650    0.3305    1.9761 C   0  0  0  0  0  0  0  0  0  0  0  0
    8.6278   -0.4457    1.7316 C   0  0  0  0  0  0  0  0  0  0  0  0
    8.3162   -0.8699    0.4307 C   0  0  0  0  0  0  0  0  0  0  0  0
    7.1978   -1.6734    0.1997 C   0  0  0  0  0  0  0  0  0  0  0  0
    6.3817   -2.0540    1.2639 C   0  0  0  0  0  0  0  0  0  0  0  0
    6.6834   -1.6355    2.5598 C   0  0  0  0  0  0  0  0  0  0  0  0
    7.8076   -0.8402    2.7962 C   0  0  0  0  0  0  0  0  0  0  0  0
   11.0409   -0.3673    2.3886 C   0  0  0  0  0  0  0  0  0  0  0  0
   11.4572   -0.7078    3.5930 N   0  0  0  0  0  0  0  0  0  0  0  0
   12.6667   -1.3272    3.4049 C   0  0  0  0  0  0  0  0  0  0  0  0
   12.9697   -1.4141    2.0679 C   0  0  0  0  0  0  0  0  0  0  0  0
   11.9208   -0.8114    1.4302 N   0  0  0  0  0  0  0  0  0  0  0  0
   11.1840    2.4919    1.9982 C   0  0  0  0  0  0  0  0  0  0  0  0
   12.3378    2.1159    2.0760 O   0  0  0  0  0  0  0  0  0  0  0  0
   10.7995    3.8121    1.8836 N   0  0  0  0  0  0  0  0  0  0  0  0
    2.9875    4.4019    1.2233 C   0  0  0  0  0  0  0  0  0  0  0  0
    2.4909    3.2547    2.1047 C   0  0  0  0  0  0  0  0  0  0  0  0
    0.3856    1.3576    4.9360 H   0  0  0  0  0  0  0  0  0  0  0  0
    0.5134    1.6512    3.2044 H   0  0  0  0  0  0  0  0  0  0  0  0
    0.0574    2.9774    4.2975 H   0  0  0  0  0  0  0  0  0  0  0  0
    2.7782    1.5542    4.2219 H   0  0  0  0  0  0  0  0  0  0  0  0
    2.2890    2.7351    5.4384 H   0  0  0  0  0  0  0  0  0  0  0  0
    4.6698    3.0005    3.7163 H   0  0  0  0  0  0  0  0  0  0  0  0
    4.1016    4.1467    4.9300 H   0  0  0  0  0  0  0  0  0  0  0  0
    5.5695    5.2824    3.3498 H   0  0  0  0  0  0  0  0  0  0  0  0
    3.9506    5.9484    3.2920 H   0  0  0  0  0  0  0  0  0  0  0  0
    4.6710    5.6904    0.9796 H   0  0  0  0  0  0  0  0  0  0  0  0
    5.1452    3.4135    0.1445 H   0  0  0  0  0  0  0  0  0  0  0  0
    6.8441    5.9616    1.1054 H   0  0  0  0  0  0  0  0  0  0  0  0
    9.2703    6.0681    1.4711 H   0  0  0  0  0  0  0  0  0  0  0  0
    6.9247    1.6590    1.4319 H   0  0  0  0  0  0  0  0  0  0  0  0
    8.9515   -0.5950   -0.4074 H   0  0  0  0  0  0  0  0  0  0  0  0
    6.9705   -2.0139   -0.8072 H   0  0  0  0  0  0  0  0  0  0  0  0
    5.5167   -2.6882    1.0857 H   0  0  0  0  0  0  0  0  0  0  0  0
    6.0537   -1.9430    3.3906 H   0  0  0  0  0  0  0  0  0  0  0  0
    8.0506   -0.5424    3.8145 H   0  0  0  0  0  0  0  0  0  0  0  0
   13.2574   -1.6721    4.2432 H   0  0  0  0  0  0  0  0  0  0  0  0
   13.8186   -1.8139    1.5335 H   0  0  0  0  0  0  0  0  0  0  0  0
   11.8286   -0.6625    0.4364 H   0  0  0  0  0  0  0  0  0  0  0  0
   11.4622    4.5712    1.9224 H   0  0  0  0  0  0  0  0  0  0  0  0
    2.8862    4.1232    0.1677 H   0  0  0  0  0  0  0  0  0  0  0  0
    2.3440    5.2783    1.3807 H   0  0  0  0  0  0  0  0  0  0  0  0
    3.0258    2.3297    1.8542 H   0  0  0  0  0  0  0  0  0  0  0  0
    1.4376    3.1005    1.8480 H   0  0  0  0  0  0  0  0  0  0  0  0
  1  2  1  0  0  0  0
  1 32  1  0  0  0  0
  1 33  1  0  0  0  0
  1 34  1  0  0  0  0
  2  3  1  0  0  0  0
  2 35  1  0  0  0  0
  2 36  1  0  0  0  0
  3  4  1  0  0  0  0
  3 31  1  0  0  0  0
  4  5  1  0  0  0  0
  4 37  1  0  0  0  0
  4 38  1  0  0  0  0
  5  6  1  0  0  0  0
  5 39  1  0  0  0  0
  5 40  1  0  0  0  0
  6  7  1  0  0  0  0
  6 30  1  0  0  0  0
  6 41  1  0  0  0  0
  7  8  1  0  0  0  0
  7 42  1  0  0  0  0
  8  9  1  0  0  0  0
  8 13  2  0  0  0  0
  9 10  2  0  0  0  0
  9 43  1  0  0  0  0
 10 11  1  0  0  0  0
 10 44  1  0  0  0  0
 11 12  2  0  0  0  0
 11 29  1  0  0  0  0
 12 13  1  0  0  0  0
 12 14  1  0  0  0  0
 13 45  1  0  0  0  0
 14 15  2  3  0  0  0
 14 27  1  0  0  0  0
 15 16  1  0  0  0  0
 15 22  1  0  0  0  0
 16 17  1  0  0  0  0
 16 21  2  0  0  0  0
 17 18  2  0  0  0  0
 17 46  1  0  0  0  0
 18 19  1  0  0  0  0
 18 47  1  0  0  0  0
 19 20  2  0  0  0  0
 19 48  1  0  0  0  0
 20 21  1  0  0  0  0
 20 49  1  0  0  0  0
 21 50  1  0  0  0  0
 22 23  2  0  0  0  0
 22 26  1  0  0  0  0
 23 24  1  0  0  0  0
 24 25  2  0  0  0  0
 24 51  1  0  0  0  0
 25 26  1  0  0  0  0
 25 52  1  0  0  0  0
 26 53  1  0  0  0  0
 27 28  2  0  0  0  0
 27 29  1  0  0  0  0
 29 54  1  0  0  0  0
 30 31  1  0  0  0  0
 30 55  1  0  0  0  0
 30 56  1  0  0  0  0
 31 57  1  0  0  0  0
 31 58  1  0  0  0  0
M  END
$$$$
