CHEMBL188978
 OpenBabel04072215363D

 64 66  0  0  0  0  0  0  0  0999 V2000
    4.1278   -2.8047   -2.3958 C   0  0  0  0  0  0  0  0  0  0  0  0
    5.5146   -2.4863   -1.8488 C   0  0  0  0  0  0  0  0  0  0  0  0
    6.1483   -3.5692   -1.0775 N   0  0  0  0  0  0  0  0  0  0  0  0
    6.2072   -4.8594   -1.7872 C   0  0  0  0  0  0  0  0  0  0  0  0
    7.1208   -4.9161   -3.0095 C   0  0  0  0  0  0  0  0  0  0  0  0
    7.4786   -3.1697   -0.5840 C   0  0  0  0  0  0  0  0  0  0  0  0
    7.4649   -1.9704    0.3781 C   0  0  0  0  0  0  0  0  0  0  0  0
    6.6204   -2.1795    1.6408 C   0  0  0  0  0  0  0  0  0  0  0  0
    7.1114   -3.3328    2.5143 C   0  0  0  0  0  0  0  0  0  0  0  0
    8.4077   -2.9903    3.0781 N   0  0  0  0  0  0  0  0  0  0  0  0
    9.0415   -3.9904    3.8164 C   0  0  0  0  0  0  0  0  0  0  0  0
   10.0449   -3.5868    4.6807 C   0  0  0  0  0  0  0  0  0  0  0  0
   10.5331   -4.4617    5.6196 C   0  0  0  0  0  0  0  0  0  0  0  0
   11.3770   -4.0037    6.5464 N   0  0  0  0  0  0  0  0  0  0  0  0
   11.7455   -4.8211    7.5491 C   0  0  0  0  0  0  0  0  0  0  0  0
   12.5333   -4.1789    8.5039 N   0  0  0  0  0  0  0  0  0  0  0  0
   11.3334   -6.1643    7.6641 C   0  0  0  0  0  0  0  0  0  0  0  0
   11.7111   -7.0345    8.8032 C   0  0  0  0  0  0  0  0  0  0  0  0
   11.7756   -6.5240   10.1144 C   0  0  0  0  0  0  0  0  0  0  0  0
   12.2652   -7.2824   11.1766 C   0  0  0  0  0  0  0  0  0  0  0  0
   12.4686   -6.8221   12.4507 O   0  0  0  0  0  0  0  0  0  0  0  0
   12.2955   -5.4224   12.6565 C   0  0  0  0  0  0  0  0  0  0  0  0
   12.6020   -8.6180   10.9635 C   0  0  0  0  0  0  0  0  0  0  0  0
   12.4644   -9.1841    9.6981 C   0  0  0  0  0  0  0  0  0  0  0  0
   12.7297  -10.4858    9.3674 O   0  0  0  0  0  0  0  0  0  0  0  0
   13.1930  -11.3277   10.4165 C   0  0  0  0  0  0  0  0  0  0  0  0
   12.0351   -8.3887    8.6277 C   0  0  0  0  0  0  0  0  0  0  0  0
   10.5071   -6.6440    6.6343 C   0  0  0  0  0  0  0  0  0  0  0  0
   10.0743   -5.7852    5.6125 C   0  0  0  0  0  0  0  0  0  0  0  0
    9.1667   -6.1456    4.6207 C   0  0  0  0  0  0  0  0  0  0  0  0
    8.6282   -5.2686    3.7482 N   0  0  0  0  0  0  0  0  0  0  0  0
    3.6509   -1.8812   -2.7424 H   0  0  0  0  0  0  0  0  0  0  0  0
    3.4850   -3.2405   -1.6241 H   0  0  0  0  0  0  0  0  0  0  0  0
    4.1762   -3.4891   -3.2475 H   0  0  0  0  0  0  0  0  0  0  0  0
    5.3720   -1.6225   -1.1911 H   0  0  0  0  0  0  0  0  0  0  0  0
    6.1610   -2.1555   -2.6700 H   0  0  0  0  0  0  0  0  0  0  0  0
    5.1975   -5.1685   -2.0802 H   0  0  0  0  0  0  0  0  0  0  0  0
    6.5299   -5.6355   -1.0800 H   0  0  0  0  0  0  0  0  0  0  0  0
    6.9745   -4.0622   -3.6766 H   0  0  0  0  0  0  0  0  0  0  0  0
    6.9150   -5.8234   -3.5869 H   0  0  0  0  0  0  0  0  0  0  0  0
    8.1743   -4.9470   -2.7128 H   0  0  0  0  0  0  0  0  0  0  0  0
    8.1422   -2.9231   -1.4219 H   0  0  0  0  0  0  0  0  0  0  0  0
    7.9462   -4.0183   -0.0687 H   0  0  0  0  0  0  0  0  0  0  0  0
    7.1115   -1.0697   -0.1360 H   0  0  0  0  0  0  0  0  0  0  0  0
    8.5006   -1.7405    0.6524 H   0  0  0  0  0  0  0  0  0  0  0  0
    5.5738   -2.3578    1.3682 H   0  0  0  0  0  0  0  0  0  0  0  0
    6.6346   -1.2499    2.2246 H   0  0  0  0  0  0  0  0  0  0  0  0
    7.1339   -4.2685    1.9472 H   0  0  0  0  0  0  0  0  0  0  0  0
    6.3985   -3.4670    3.3383 H   0  0  0  0  0  0  0  0  0  0  0  0
    9.0658   -2.5431    2.4519 H   0  0  0  0  0  0  0  0  0  0  0  0
   10.3627   -2.5506    4.7056 H   0  0  0  0  0  0  0  0  0  0  0  0
   12.7234   -3.2455    8.1492 H   0  0  0  0  0  0  0  0  0  0  0  0
   13.3759   -4.7044    8.7078 H   0  0  0  0  0  0  0  0  0  0  0  0
   11.4559   -5.4996   10.2846 H   0  0  0  0  0  0  0  0  0  0  0  0
   12.5911   -5.1941   13.6847 H   0  0  0  0  0  0  0  0  0  0  0  0
   11.2436   -5.1416   12.5412 H   0  0  0  0  0  0  0  0  0  0  0  0
   12.9369   -4.8335   11.9906 H   0  0  0  0  0  0  0  0  0  0  0  0
   12.9734   -9.1880   11.8089 H   0  0  0  0  0  0  0  0  0  0  0  0
   13.3378  -12.3299   10.0023 H   0  0  0  0  0  0  0  0  0  0  0  0
   12.4542  -11.4044   11.2215 H   0  0  0  0  0  0  0  0  0  0  0  0
   14.1593  -10.9807   10.7971 H   0  0  0  0  0  0  0  0  0  0  0  0
   11.9735   -8.8480    7.6433 H   0  0  0  0  0  0  0  0  0  0  0  0
   10.1365   -7.6675    6.6585 H   0  0  0  0  0  0  0  0  0  0  0  0
    8.7966   -7.1625    4.5266 H   0  0  0  0  0  0  0  0  0  0  0  0
  1  2  1  0  0  0  0
  1 32  1  0  0  0  0
  1 33  1  0  0  0  0
  1 34  1  0  0  0  0
  2  3  1  0  0  0  0
  2 35  1  0  0  0  0
  2 36  1  0  0  0  0
  3  4  1  0  0  0  0
  3  6  1  0  0  0  0
  4  5  1  0  0  0  0
  4 37  1  0  0  0  0
  4 38  1  0  0  0  0
  5 39  1  0  0  0  0
  5 40  1  0  0  0  0
  5 41  1  0  0  0  0
  6  7  1  0  0  0  0
  6 42  1  0  0  0  0
  6 43  1  0  0  0  0
  7  8  1  0  0  0  0
  7 44  1  0  0  0  0
  7 45  1  0  0  0  0
  8  9  1  0  0  0  0
  8 46  1  0  0  0  0
  8 47  1  0  0  0  0
  9 10  1  0  0  0  0
  9 48  1  0  0  0  0
  9 49  1  0  0  0  0
 10 11  1  0  0  0  0
 10 50  1  0  0  0  0
 11 12  1  0  0  0  0
 11 31  2  0  0  0  0
 12 13  2  0  0  0  0
 12 51  1  0  0  0  0
 13 14  1  0  0  0  0
 13 29  1  0  0  0  0
 14 15  2  0  0  0  0
 15 16  1  0  0  0  0
 15 17  1  0  0  0  0
 16 52  1  0  0  0  0
 16 53  1  0  0  0  0
 17 18  1  0  0  0  0
 17 28  2  0  0  0  0
 18 19  1  0  0  0  0
 18 27  2  0  0  0  0
 19 20  2  0  0  0  0
 19 54  1  0  0  0  0
 20 21  1  0  0  0  0
 20 23  1  0  0  0  0
 21 22  1  0  0  0  0
 22 55  1  0  0  0  0
 22 56  1  0  0  0  0
 22 57  1  0  0  0  0
 23 24  2  0  0  0  0
 23 58  1  0  0  0  0
 24 25  1  0  0  0  0
 24 27  1  0  0  0  0
 25 26  1  0  0  0  0
 26 59  1  0  0  0  0
 26 60  1  0  0  0  0
 26 61  1  0  0  0  0
 27 62  1  0  0  0  0
 28 29  1  0  0  0  0
 28 63  1  0  0  0  0
 29 30  2  0  0  0  0
 30 31  1  0  0  0  0
 30 64  1  0  0  0  0
M  END
$$$$
