CHEMBL223304
 OpenBabel04072215363D

 44 47  0  0  0  0  0  0  0  0999 V2000
   -1.0890    2.0995   -3.1948 N   0  0  0  0  0  0  0  0  0  0  0  0
   -1.3748    0.9935   -2.4943 C   0  0  0  0  0  0  0  0  0  0  0  0
   -1.7767   -0.1028   -3.1306 N   0  0  0  0  0  0  0  0  0  0  0  0
   -1.9727   -0.9861   -2.1511 N   0  0  0  0  0  0  0  0  0  0  0  0
   -1.7075   -0.5093   -0.8970 C   0  0  0  0  0  0  0  0  0  0  0  0
   -1.7994   -1.1517    0.3397 C   0  0  0  0  0  0  0  0  0  0  0  0
   -1.4402   -0.4189    1.4652 C   0  0  0  0  0  0  0  0  0  0  0  0
   -1.0122    0.9047    1.3458 C   0  0  0  0  0  0  0  0  0  0  0  0
   -0.9250    1.5667    0.0971 C   0  0  0  0  0  0  0  0  0  0  0  0
   -0.4541    2.9692    0.0333 C   0  0  0  0  0  0  0  0  0  0  0  0
    0.4575    3.3767   -0.9360 C   0  0  0  0  0  0  0  0  0  0  0  0
    0.8322    4.7175   -1.0764 C   0  0  0  0  0  0  0  0  0  0  0  0
    0.3801    5.6944   -0.1895 C   0  0  0  0  0  0  0  0  0  0  0  0
    0.7576    7.0530   -0.2883 N   0  0  0  0  0  0  0  0  0  0  0  0
    1.3806    7.6129   -1.3802 C   0  0  0  0  0  0  0  0  0  0  0  0
    1.5450    7.0502   -2.4646 O   0  0  0  0  0  0  0  0  0  0  0  0
    1.8686    8.8929   -1.1208 N   0  0  0  0  0  0  0  0  0  0  0  0
    2.6054    9.5772   -2.1210 C   0  0  0  0  0  0  0  0  0  0  0  0
    2.1714    9.5997   -3.4529 C   0  0  0  0  0  0  0  0  0  0  0  0
    2.9753   10.1494   -4.4515 C   0  0  0  0  0  0  0  0  0  0  0  0
    4.2164   10.6881   -4.1224 C   0  0  0  0  0  0  0  0  0  0  0  0
    4.6232   10.7005   -2.7902 C   0  0  0  0  0  0  0  0  0  0  0  0
    5.8411   11.2028   -2.4318 O   0  0  0  0  0  0  0  0  0  0  0  0
    3.8186   10.1727   -1.7815 C   0  0  0  0  0  0  0  0  0  0  0  0
   -0.4504    5.2878    0.8561 C   0  0  0  0  0  0  0  0  0  0  0  0
   -0.8712    3.9467    0.9530 C   0  0  0  0  0  0  0  0  0  0  0  0
   -1.2959    0.8153   -1.0681 C   0  0  0  0  0  0  0  0  0  0  0  0
   -1.3072    2.0825   -4.1845 H   0  0  0  0  0  0  0  0  0  0  0  0
   -1.1377    3.0211   -2.7787 H   0  0  0  0  0  0  0  0  0  0  0  0
   -2.2886   -1.9149   -2.4030 H   0  0  0  0  0  0  0  0  0  0  0  0
   -2.1266   -2.1837    0.4239 H   0  0  0  0  0  0  0  0  0  0  0  0
   -1.4849   -0.8858    2.4465 H   0  0  0  0  0  0  0  0  0  0  0  0
   -0.7155    1.4236    2.2557 H   0  0  0  0  0  0  0  0  0  0  0  0
    0.8876    2.6559   -1.6347 H   0  0  0  0  0  0  0  0  0  0  0  0
    1.4956    4.9453   -1.9016 H   0  0  0  0  0  0  0  0  0  0  0  0
    0.4000    7.6899    0.4034 H   0  0  0  0  0  0  0  0  0  0  0  0
    2.1771    9.0281   -0.1696 H   0  0  0  0  0  0  0  0  0  0  0  0
    1.2176    9.1571   -3.7317 H   0  0  0  0  0  0  0  0  0  0  0  0
    2.6408   10.1264   -5.4852 H   0  0  0  0  0  0  0  0  0  0  0  0
    4.8505   11.0760   -4.9128 H   0  0  0  0  0  0  0  0  0  0  0  0
    6.3008   11.4926   -3.2372 H   0  0  0  0  0  0  0  0  0  0  0  0
    4.1894   10.1616   -0.7620 H   0  0  0  0  0  0  0  0  0  0  0  0
   -0.7968    6.0008    1.6022 H   0  0  0  0  0  0  0  0  0  0  0  0
   -1.5464    3.6802    1.7663 H   0  0  0  0  0  0  0  0  0  0  0  0
  1  2  1  0  0  0  0
  1 28  1  0  0  0  0
  1 29  1  0  0  0  0
  2  3  2  0  0  0  0
  2 27  1  0  0  0  0
  3  4  1  0  0  0  0
  4  5  1  0  0  0  0
  4 30  1  0  0  0  0
  5  6  1  0  0  0  0
  5 27  2  0  0  0  0
  6  7  2  0  0  0  0
  6 31  1  0  0  0  0
  7  8  1  0  0  0  0
  7 32  1  0  0  0  0
  8  9  2  0  0  0  0
  8 33  1  0  0  0  0
  9 10  1  0  0  0  0
  9 27  1  0  0  0  0
 10 11  1  0  0  0  0
 10 26  2  0  0  0  0
 11 12  2  0  0  0  0
 11 34  1  0  0  0  0
 12 13  1  0  0  0  0
 12 35  1  0  0  0  0
 13 14  1  0  0  0  0
 13 25  2  0  0  0  0
 14 15  1  0  0  0  0
 14 36  1  0  0  0  0
 15 16  2  0  0  0  0
 15 17  1  0  0  0  0
 17 18  1  0  0  0  0
 17 37  1  0  0  0  0
 18 19  1  0  0  0  0
 18 24  2  0  0  0  0
 19 20  2  0  0  0  0
 19 38  1  0  0  0  0
 20 21  1  0  0  0  0
 20 39  1  0  0  0  0
 21 22  2  0  0  0  0
 21 40  1  0  0  0  0
 22 23  1  0  0  0  0
 22 24  1  0  0  0  0
 23 41  1  0  0  0  0
 24 42  1  0  0  0  0
 25 26  1  0  0  0  0
 25 43  1  0  0  0  0
 26 44  1  0  0  0  0
M  END
$$$$
