CHEMBL191993
 OpenBabel04072215363D

 53 56  0  0  0  0  0  0  0  0999 V2000
    6.1494   -7.2632   -1.5485 C   0  0  0  0  0  0  0  0  0  0  0  0
    6.0196   -5.7525   -1.5403 C   0  0  0  0  0  0  0  0  0  0  0  0
    5.4915   -5.1381   -3.1231 S   0  0  0  0  0  0  0  0  0  0  0  0
    6.4906   -5.4902   -4.1140 O   0  0  0  0  0  0  0  0  0  0  0  0
    4.0987   -5.5035   -3.3160 O   0  0  0  0  0  0  0  0  0  0  0  0
    5.5410   -3.3728   -2.9268 C   0  0  0  0  0  0  0  0  0  0  0  0
    4.4055   -2.6757   -2.5135 C   0  0  0  0  0  0  0  0  0  0  0  0
    4.4315   -1.2781   -2.4663 C   0  0  0  0  0  0  0  0  0  0  0  0
    5.5881   -0.5754   -2.8322 C   0  0  0  0  0  0  0  0  0  0  0  0
    5.6742    0.7960   -2.8776 O   0  0  0  0  0  0  0  0  0  0  0  0
    4.7371    1.5229   -2.0920 C   0  0  0  0  0  0  0  0  0  0  0  0
    6.7485   -1.2863   -3.2178 C   0  0  0  0  0  0  0  0  0  0  0  0
    7.9270   -0.5987   -3.5776 N   0  0  0  0  0  0  0  0  0  0  0  0
    9.1592   -1.0482   -3.2749 C   0  0  0  0  0  0  0  0  0  0  0  0
    9.5478   -1.8384   -2.2989 N   0  0  0  0  0  0  0  0  0  0  0  0
   10.9008   -1.9513   -2.4794 C   0  0  0  0  0  0  0  0  0  0  0  0
   11.2956   -1.2283   -3.5838 C   0  0  0  0  0  0  0  0  0  0  0  0
   12.5576   -0.9872   -4.2673 C   0  0  0  0  0  0  0  0  0  0  0  0
   12.6131   -0.2185   -5.4337 C   0  0  0  0  0  0  0  0  0  0  0  0
   13.8226   -0.0212   -6.0913 C   0  0  0  0  0  0  0  0  0  0  0  0
   14.9929   -0.5897   -5.5851 C   0  0  0  0  0  0  0  0  0  0  0  0
   15.0033   -1.3278   -4.3849 C   0  0  0  0  0  0  0  0  0  0  0  0
   16.2912   -1.7744   -3.7770 C   0  0  0  0  0  0  0  0  0  0  0  0
   17.4042   -0.9023   -3.8756 C   0  0  0  0  0  0  0  0  0  0  0  0
   18.6434   -1.1976   -3.3033 C   0  0  0  0  0  0  0  0  0  0  0  0
   18.8089   -2.3667   -2.5812 C   0  0  0  0  0  0  0  0  0  0  0  0
   17.7397   -3.2545   -2.4611 C   0  0  0  0  0  0  0  0  0  0  0  0
   16.5026   -2.9767   -3.0687 C   0  0  0  0  0  0  0  0  0  0  0  0
   15.3115   -4.2270   -2.9233 Cl  0  0  0  0  0  0  0  0  0  0  0  0
   13.7589   -1.5158   -3.7522 C   0  0  0  0  0  0  0  0  0  0  0  0
   10.1698   -0.6325   -4.0970 O   0  0  0  0  0  0  0  0  0  0  0  0
    6.7021   -2.6872   -3.2760 C   0  0  0  0  0  0  0  0  0  0  0  0
    6.4564   -7.6275   -0.5637 H   0  0  0  0  0  0  0  0  0  0  0  0
    6.8965   -7.5884   -2.2798 H   0  0  0  0  0  0  0  0  0  0  0  0
    5.1990   -7.7396   -1.8101 H   0  0  0  0  0  0  0  0  0  0  0  0
    6.9838   -5.2911   -1.3006 H   0  0  0  0  0  0  0  0  0  0  0  0
    5.2768   -5.4382   -0.7979 H   0  0  0  0  0  0  0  0  0  0  0  0
    3.4901   -3.2079   -2.2581 H   0  0  0  0  0  0  0  0  0  0  0  0
    3.5244   -0.7656   -2.1661 H   0  0  0  0  0  0  0  0  0  0  0  0
    4.9974    2.5845   -2.1578 H   0  0  0  0  0  0  0  0  0  0  0  0
    4.7923    1.2292   -1.0386 H   0  0  0  0  0  0  0  0  0  0  0  0
    3.7176    1.4155   -2.4787 H   0  0  0  0  0  0  0  0  0  0  0  0
    7.8169   -0.0408   -4.4124 H   0  0  0  0  0  0  0  0  0  0  0  0
   11.5086   -2.5461   -1.8141 H   0  0  0  0  0  0  0  0  0  0  0  0
   11.7133    0.2372   -5.8406 H   0  0  0  0  0  0  0  0  0  0  0  0
   13.8587    0.5856   -6.9922 H   0  0  0  0  0  0  0  0  0  0  0  0
   15.9158   -0.4179   -6.1370 H   0  0  0  0  0  0  0  0  0  0  0  0
   17.3151    0.0473   -4.3980 H   0  0  0  0  0  0  0  0  0  0  0  0
   19.4709   -0.4998   -3.4160 H   0  0  0  0  0  0  0  0  0  0  0  0
   19.7640   -2.5947   -2.1182 H   0  0  0  0  0  0  0  0  0  0  0  0
   17.8824   -4.1718   -1.8966 H   0  0  0  0  0  0  0  0  0  0  0  0
   13.7195   -2.0597   -2.8122 H   0  0  0  0  0  0  0  0  0  0  0  0
    7.5715   -3.2396   -3.6243 H   0  0  0  0  0  0  0  0  0  0  0  0
  1  2  1  0  0  0  0
  1 33  1  0  0  0  0
  1 34  1  0  0  0  0
  1 35  1  0  0  0  0
  2  3  1  0  0  0  0
  2 36  1  0  0  0  0
  2 37  1  0  0  0  0
  3  4  2  0  0  0  0
  3  5  2  0  0  0  0
  3  6  1  0  0  0  0
  6  7  1  0  0  0  0
  6 32  2  0  0  0  0
  7  8  2  0  0  0  0
  7 38  1  0  0  0  0
  8  9  1  0  0  0  0
  8 39  1  0  0  0  0
  9 10  1  0  0  0  0
  9 12  2  0  0  0  0
 10 11  1  0  0  0  0
 11 40  1  0  0  0  0
 11 41  1  0  0  0  0
 11 42  1  0  0  0  0
 12 13  1  0  0  0  0
 12 32  1  0  0  0  0
 13 14  1  0  0  0  0
 13 43  1  0  0  0  0
 14 15  2  0  0  0  0
 14 31  1  0  0  0  0
 15 16  1  0  0  0  0
 16 17  2  0  0  0  0
 16 44  1  0  0  0  0
 17 18  1  0  0  0  0
 17 31  1  0  0  0  0
 18 19  1  0  0  0  0
 18 30  2  0  0  0  0
 19 20  2  0  0  0  0
 19 45  1  0  0  0  0
 20 21  1  0  0  0  0
 20 46  1  0  0  0  0
 21 22  2  0  0  0  0
 21 47  1  0  0  0  0
 22 23  1  0  0  0  0
 22 30  1  0  0  0  0
 23 24  1  0  0  0  0
 23 28  2  0  0  0  0
 24 25  2  0  0  0  0
 24 48  1  0  0  0  0
 25 26  1  0  0  0  0
 25 49  1  0  0  0  0
 26 27  2  0  0  0  0
 26 50  1  0  0  0  0
 27 28  1  0  0  0  0
 27 51  1  0  0  0  0
 28 29  1  0  0  0  0
 30 52  1  0  0  0  0
 32 53  1  0  0  0  0
M  END
$$$$
