CHEMBL246343
 OpenBabel04072215363D

 37 40  0  0  0  0  0  0  0  0999 V2000
    2.8471    0.0025   -1.4926 O   0  0  0  0  0  0  0  0  0  0  0  0
    2.3562    0.5479   -0.5144 C   0  0  0  0  0  0  0  0  0  0  0  0
    1.0180    0.7011   -0.3568 O   0  0  0  0  0  0  0  0  0  0  0  0
    3.1542    1.1097    0.6511 C   0  0  0  0  0  0  0  0  0  0  0  0
    4.5866    0.9558    0.4968 N   0  0  0  0  0  0  0  0  0  0  0  0
    5.4246    1.4509    1.4732 C   0  0  0  0  0  0  0  0  0  0  0  0
    4.9945    2.0187    2.4701 O   0  0  0  0  0  0  0  0  0  0  0  0
    6.8839    1.2432    1.2844 C   0  0  0  0  0  0  0  0  0  0  0  0
    7.4599    1.1903    0.0016 C   0  0  0  0  0  0  0  0  0  0  0  0
    8.8508    1.0231   -0.1693 C   0  0  0  0  0  0  0  0  0  0  0  0
    9.7009    0.9143    0.9319 C   0  0  0  0  0  0  0  0  0  0  0  0
    9.1251    0.9833    2.1814 C   0  0  0  0  0  0  0  0  0  0  0  0
    7.7284    1.1489    2.3858 C   0  0  0  0  0  0  0  0  0  0  0  0
    7.3403    1.1983    3.8726 C   0  0  0  0  0  0  0  0  0  0  0  0
    8.7064    1.0456    4.4446 C   0  0  0  0  0  0  0  0  0  0  0  0
    9.7106    0.9298    3.4760 C   0  0  0  0  0  0  0  0  0  0  0  0
   10.9344    0.8283    3.9729 N   0  0  0  0  0  0  0  0  0  0  0  0
   10.6963    0.8917    5.3110 N   0  0  0  0  0  0  0  0  0  0  0  0
    9.3618    1.0121    5.6467 C   0  0  0  0  0  0  0  0  0  0  0  0
    8.7905    1.0989    7.0166 C   0  0  0  0  0  0  0  0  0  0  0  0
    7.3980    1.1459    7.3270 C   0  0  0  0  0  0  0  0  0  0  0  0
    7.1647    1.2203    8.6830 C   0  0  0  0  0  0  0  0  0  0  0  0
    8.6173    1.2423    9.5826 S   0  0  0  0  0  0  0  0  0  0  0  0
    9.5640    1.1411    8.1570 C   0  0  0  0  0  0  0  0  0  0  0  0
    0.7599    1.1518    0.4716 H   0  0  0  0  0  0  0  0  0  0  0  0
    2.8553    0.5883    1.5656 H   0  0  0  0  0  0  0  0  0  0  0  0
    2.9368    2.1787    0.7445 H   0  0  0  0  0  0  0  0  0  0  0  0
    4.9255    0.3291   -0.2275 H   0  0  0  0  0  0  0  0  0  0  0  0
    6.8450    1.3106   -0.8878 H   0  0  0  0  0  0  0  0  0  0  0  0
    9.2684    0.9925   -1.1736 H   0  0  0  0  0  0  0  0  0  0  0  0
   10.7730    0.7916    0.8152 H   0  0  0  0  0  0  0  0  0  0  0  0
    6.6898    0.3608    4.1364 H   0  0  0  0  0  0  0  0  0  0  0  0
    6.9096    2.1656    4.1425 H   0  0  0  0  0  0  0  0  0  0  0  0
   11.4904    0.8477    5.9381 H   0  0  0  0  0  0  0  0  0  0  0  0
    6.5934    1.1201    6.6038 H   0  0  0  0  0  0  0  0  0  0  0  0
    6.2088    1.2636    9.1873 H   0  0  0  0  0  0  0  0  0  0  0  0
   10.6403    1.1282    8.2491 H   0  0  0  0  0  0  0  0  0  0  0  0
  1  2  2  0  0  0  0
  2  3  1  0  0  0  0
  2  4  1  0  0  0  0
  3 25  1  0  0  0  0
  4  5  1  0  0  0  0
  4 26  1  0  0  0  0
  4 27  1  0  0  0  0
  5  6  1  0  0  0  0
  5 28  1  0  0  0  0
  6  7  2  0  0  0  0
  6  8  1  0  0  0  0
  8  9  1  0  0  0  0
  8 13  2  0  0  0  0
  9 10  2  0  0  0  0
  9 29  1  0  0  0  0
 10 11  1  0  0  0  0
 10 30  1  0  0  0  0
 11 12  2  0  0  0  0
 11 31  1  0  0  0  0
 12 13  1  0  0  0  0
 12 16  1  0  0  0  0
 13 14  1  0  0  0  0
 14 15  1  0  0  0  0
 14 32  1  0  0  0  0
 14 33  1  0  0  0  0
 15 16  1  0  0  0  0
 15 19  2  0  0  0  0
 16 17  2  0  0  0  0
 17 18  1  0  0  0  0
 18 19  1  0  0  0  0
 18 34  1  0  0  0  0
 19 20  1  0  0  0  0
 20 21  1  0  0  0  0
 20 24  2  0  0  0  0
 21 22  2  0  0  0  0
 21 35  1  0  0  0  0
 22 23  1  0  0  0  0
 22 36  1  0  0  0  0
 23 24  1  0  0  0  0
 24 37  1  0  0  0  0
M  END
$$$$
