CHEMBL4792614
 OpenBabel04072215383D

 53 57  0  0  0  0  0  0  0  0999 V2000
    1.0888    0.1504   -0.2986 O   0  0  0  0  0  0  0  0  0  0  0  0
    2.2918   -0.0688   -0.1709 C   0  0  0  0  0  0  0  0  0  0  0  0
    2.8439   -1.1426    0.4835 N   0  0  0  0  0  0  0  0  0  0  0  0
    2.1765   -2.1559    1.1938 C   0  0  0  0  0  0  0  0  0  0  0  0
    0.8136   -2.4213    1.0480 C   0  0  0  0  0  0  0  0  0  0  0  0
    0.1992   -3.4094    1.8229 C   0  0  0  0  0  0  0  0  0  0  0  0
    0.9464   -4.1297    2.7504 C   0  0  0  0  0  0  0  0  0  0  0  0
    0.1782   -5.3132    3.7342 Cl  0  0  0  0  0  0  0  0  0  0  0  0
    2.3100   -3.8908    2.8913 C   0  0  0  0  0  0  0  0  0  0  0  0
    2.9269   -2.9139    2.1011 C   0  0  0  0  0  0  0  0  0  0  0  0
    3.1654    0.8773   -0.6207 N   0  0  0  0  0  0  0  0  0  0  0  0
    4.5458    0.8291   -0.6762 C   0  0  0  0  0  0  0  0  0  0  0  0
    5.1625    1.9883   -0.8771 N   0  0  0  0  0  0  0  0  0  0  0  0
    6.5049    1.9408   -0.8576 C   0  0  0  0  0  0  0  0  0  0  0  0
    7.3589    3.5040   -0.8486 S   0  0  0  0  0  0  0  0  0  0  0  0
    7.6270    3.8387   -2.5420 C   0  0  0  0  0  0  0  0  0  0  0  0
    6.8552    3.4426   -3.6092 C   0  0  0  0  0  0  0  0  0  0  0  0
    7.4213    3.9569   -4.7461 N   0  0  0  0  0  0  0  0  0  0  0  0
    8.5464    4.6855   -4.4331 C   0  0  0  0  0  0  0  0  0  0  0  0
    9.4255    5.3868   -5.2675 C   0  0  0  0  0  0  0  0  0  0  0  0
   10.4940    6.0589   -4.6656 C   0  0  0  0  0  0  0  0  0  0  0  0
   10.6721    6.0304   -3.2862 C   0  0  0  0  0  0  0  0  0  0  0  0
    9.7851    5.3253   -2.4654 C   0  0  0  0  0  0  0  0  0  0  0  0
    8.6984    4.6346   -3.0460 C   0  0  0  0  0  0  0  0  0  0  0  0
    7.2221    0.7669   -0.7466 C   0  0  0  0  0  0  0  0  0  0  0  0
    6.5027   -0.3998   -0.6097 C   0  0  0  0  0  0  0  0  0  0  0  0
    7.1113   -1.6368   -0.5107 N   0  0  0  0  0  0  0  0  0  0  0  0
    8.3517   -1.9393   -1.2253 C   0  0  0  0  0  0  0  0  0  0  0  0
    8.1073   -3.3136   -1.8436 C   0  0  0  0  0  0  0  0  0  0  0  0
    7.1569   -3.9784   -0.8647 C   0  0  0  0  0  0  0  0  0  0  0  0
    6.2627   -2.8296   -0.4100 C   0  0  0  0  0  0  0  0  0  0  0  0
    5.1654   -0.3472   -0.5098 N   0  0  0  0  0  0  0  0  0  0  0  0
    3.8577   -1.1154    0.5572 H   0  0  0  0  0  0  0  0  0  0  0  0
    0.2066   -1.8818    0.3282 H   0  0  0  0  0  0  0  0  0  0  0  0
   -0.8634   -3.5997    1.6990 H   0  0  0  0  0  0  0  0  0  0  0  0
    2.8953   -4.4443    3.6198 H   0  0  0  0  0  0  0  0  0  0  0  0
    3.9902   -2.7225    2.2426 H   0  0  0  0  0  0  0  0  0  0  0  0
    2.7529    1.7524   -0.9013 H   0  0  0  0  0  0  0  0  0  0  0  0
    5.9458    2.8593   -3.6636 H   0  0  0  0  0  0  0  0  0  0  0  0
    7.0598    3.8357   -5.6822 H   0  0  0  0  0  0  0  0  0  0  0  0
    9.2856    5.4184   -6.3441 H   0  0  0  0  0  0  0  0  0  0  0  0
   11.1926    6.6158   -5.2858 H   0  0  0  0  0  0  0  0  0  0  0  0
   11.5082    6.5635   -2.8365 H   0  0  0  0  0  0  0  0  0  0  0  0
    9.9321    5.3163   -1.3890 H   0  0  0  0  0  0  0  0  0  0  0  0
    8.3032    0.7739   -0.7329 H   0  0  0  0  0  0  0  0  0  0  0  0
    9.1737   -1.9851   -0.5022 H   0  0  0  0  0  0  0  0  0  0  0  0
    8.6109   -1.2179   -2.0075 H   0  0  0  0  0  0  0  0  0  0  0  0
    9.0328   -3.8794   -1.9837 H   0  0  0  0  0  0  0  0  0  0  0  0
    7.6221   -3.2043   -2.8211 H   0  0  0  0  0  0  0  0  0  0  0  0
    7.7123   -4.3907   -0.0148 H   0  0  0  0  0  0  0  0  0  0  0  0
    6.5828   -4.7897   -1.3229 H   0  0  0  0  0  0  0  0  0  0  0  0
    5.9291   -2.9827    0.6216 H   0  0  0  0  0  0  0  0  0  0  0  0
    5.3849   -2.7744   -1.0651 H   0  0  0  0  0  0  0  0  0  0  0  0
  1  2  2  0  0  0  0
  2  3  1  0  0  0  0
  2 11  1  0  0  0  0
  3  4  1  0  0  0  0
  3 33  1  0  0  0  0
  4  5  1  0  0  0  0
  4 10  2  0  0  0  0
  5  6  2  0  0  0  0
  5 34  1  0  0  0  0
  6  7  1  0  0  0  0
  6 35  1  0  0  0  0
  7  8  1  0  0  0  0
  7  9  2  0  0  0  0
  9 10  1  0  0  0  0
  9 36  1  0  0  0  0
 10 37  1  0  0  0  0
 11 12  1  0  0  0  0
 11 38  1  0  0  0  0
 12 13  1  0  0  0  0
 12 32  2  0  0  0  0
 13 14  2  0  0  0  0
 14 15  1  0  0  0  0
 14 25  1  0  0  0  0
 15 16  1  0  0  0  0
 16 17  2  0  0  0  0
 16 24  1  0  0  0  0
 17 18  1  0  0  0  0
 17 39  1  0  0  0  0
 18 19  1  0  0  0  0
 18 40  1  0  0  0  0
 19 20  1  0  0  0  0
 19 24  2  0  0  0  0
 20 21  2  0  0  0  0
 20 41  1  0  0  0  0
 21 22  1  0  0  0  0
 21 42  1  0  0  0  0
 22 23  2  0  0  0  0
 22 43  1  0  0  0  0
 23 24  1  0  0  0  0
 23 44  1  0  0  0  0
 25 26  2  0  0  0  0
 25 45  1  0  0  0  0
 26 27  1  0  0  0  0
 26 32  1  0  0  0  0
 27 28  1  0  0  0  0
 27 31  1  0  0  0  0
 28 29  1  0  0  0  0
 28 46  1  0  0  0  0
 28 47  1  0  0  0  0
 29 30  1  0  0  0  0
 29 48  1  0  0  0  0
 29 49  1  0  0  0  0
 30 31  1  0  0  0  0
 30 50  1  0  0  0  0
 30 51  1  0  0  0  0
 31 52  1  0  0  0  0
 31 53  1  0  0  0  0
M  END
$$$$
