CHEMBL3961417
 OpenBabel04072215373D

 56 60  0  0  1  0  0  0  0  0999 V2000
   -3.3127   -5.3288   -0.1712 C   0  0  0  0  0  0  0  0  0  0  0  0
   -2.2546   -4.3827   -0.2598 O   0  0  0  0  0  0  0  0  0  0  0  0
   -1.0504   -4.8429   -0.7272 C   0  0  0  0  0  0  0  0  0  0  0  0
   -0.8726   -6.1129   -1.2821 C   0  0  0  0  0  0  0  0  0  0  0  0
    0.3994   -6.5600   -1.7058 C   0  0  0  0  0  0  0  0  0  0  0  0
    0.6461   -7.8176   -2.2870 C   0  0  0  0  0  0  0  0  0  0  0  0
   -0.4629   -8.6197   -2.6603 N   0  0  0  0  0  0  0  0  0  0  0  0
   -0.5488  -10.0245   -2.6663 C   0  0  0  0  0  0  0  0  0  0  0  0
   -1.3663  -10.6641   -3.6070 C   0  0  0  0  0  0  0  0  0  0  0  0
   -1.6260  -12.0344   -3.5174 C   0  0  0  0  0  0  0  0  0  0  0  0
   -1.0876  -12.7810   -2.4677 C   0  0  0  0  0  0  0  0  0  0  0  0
   -1.6020  -14.6043   -2.3375 Br  0  0  0  0  0  0  0  0  0  0  0  0
   -0.2386  -12.1639   -1.5439 C   0  0  0  0  0  0  0  0  0  0  0  0
    0.4582  -13.0127   -0.2088 Cl  0  0  0  0  0  0  0  0  0  0  0  0
    0.0384  -10.7957   -1.6560 C   0  0  0  0  0  0  0  0  0  0  0  0
    1.8817   -8.2346   -2.6011 N   0  0  0  0  0  0  0  0  0  0  0  0
    2.8712   -7.3649   -2.3745 C   0  0  0  0  0  0  0  0  0  0  0  0
    2.7445   -6.1311   -1.8653 N   0  0  0  0  0  0  0  0  0  0  0  0
    1.5130   -5.7398   -1.5255 C   0  0  0  0  0  0  0  0  0  0  0  0
    1.3231   -4.4649   -0.9998 C   0  0  0  0  0  0  0  0  0  0  0  0
    0.0571   -3.9852   -0.6225 C   0  0  0  0  0  0  0  0  0  0  0  0
   -0.1807   -2.6911   -0.2118 O   0  0  0  0  0  0  0  0  0  0  0  0
    0.8930   -1.9628    0.4101 C   0  0  1  0  0  0  0  0  0  0  0  0
    1.7694   -1.2334   -0.6081 C   0  0  0  0  0  0  0  0  0  0  0  0
    1.1985    0.0620   -0.8440 O   0  0  0  0  0  0  0  0  0  0  0  0
    0.5202    0.4514    0.3595 C   0  0  2  0  0  0  0  0  0  0  0  0
    1.4302    1.3351    1.2196 C   0  0  1  0  0  0  0  0  0  0  0  0
    1.3026    2.7721    1.0328 N   0  0  0  0  0  0  0  0  0  0  0  0
    0.1432    3.4708    1.2576 C   0  0  0  0  0  0  0  0  0  0  0  0
    0.2329    4.9448    0.9497 C   0  0  0  0  0  0  0  0  0  0  0  0
   -0.8883    2.9518    1.6667 O   0  0  0  0  0  0  0  0  0  0  0  0
    1.1573    0.8130    2.6195 C   0  0  0  0  0  0  0  0  0  0  0  0
    1.0178   -0.6071    2.4483 O   0  0  0  0  0  0  0  0  0  0  0  0
    0.3012   -0.8028    1.2086 C   0  0  2  0  0  0  0  0  0  0  0  0
   -4.1480   -4.8658    0.3680 H   0  0  0  0  0  0  0  0  0  0  0  0
   -3.0223   -6.2236    0.3953 H   0  0  0  0  0  0  0  0  0  0  0  0
   -3.6755   -5.6002   -1.1700 H   0  0  0  0  0  0  0  0  0  0  0  0
   -1.7104   -6.7974   -1.3798 H   0  0  0  0  0  0  0  0  0  0  0  0
   -0.9329   -8.1789   -3.4442 H   0  0  0  0  0  0  0  0  0  0  0  0
   -1.8231  -10.0986   -4.4157 H   0  0  0  0  0  0  0  0  0  0  0  0
   -2.2744  -12.5016   -4.2553 H   0  0  0  0  0  0  0  0  0  0  0  0
    0.6742  -10.3171   -0.9146 H   0  0  0  0  0  0  0  0  0  0  0  0
    3.8723   -7.6815   -2.6464 H   0  0  0  0  0  0  0  0  0  0  0  0
    2.2084   -3.8455   -0.9132 H   0  0  0  0  0  0  0  0  0  0  0  0
    1.4758   -2.6340    1.0522 H   0  0  0  0  0  0  0  0  0  0  0  0
    1.8577   -1.7369   -1.5726 H   0  0  0  0  0  0  0  0  0  0  0  0
    2.7740   -1.0765   -0.1984 H   0  0  0  0  0  0  0  0  0  0  0  0
   -0.4225    0.9291    0.0773 H   0  0  0  0  0  0  0  0  0  0  0  0
    2.4764    1.1159    0.9693 H   0  0  0  0  0  0  0  0  0  0  0  0
    2.0742    3.2519    0.5850 H   0  0  0  0  0  0  0  0  0  0  0  0
    1.2716    5.2727    0.8531 H   0  0  0  0  0  0  0  0  0  0  0  0
   -0.2270    5.5076    1.7670 H   0  0  0  0  0  0  0  0  0  0  0  0
   -0.2959    5.1503    0.0162 H   0  0  0  0  0  0  0  0  0  0  0  0
    0.2357    1.2021    3.0629 H   0  0  0  0  0  0  0  0  0  0  0  0
    1.9834    1.0175    3.3069 H   0  0  0  0  0  0  0  0  0  0  0  0
   -0.7580   -0.9418    1.4522 H   0  0  0  0  0  0  0  0  0  0  0  0
  1  2  1  0  0  0  0
  1 35  1  0  0  0  0
  1 36  1  0  0  0  0
  1 37  1  0  0  0  0
  2  3  1  0  0  0  0
  3  4  1  0  0  0  0
  3 21  2  0  0  0  0
  4  5  2  0  0  0  0
  4 38  1  0  0  0  0
  5  6  1  0  0  0  0
  5 19  1  0  0  0  0
  6  7  1  0  0  0  0
  6 16  2  0  0  0  0
  7  8  1  0  0  0  0
  7 39  1  0  0  0  0
  8  9  1  0  0  0  0
  8 15  2  0  0  0  0
  9 10  2  0  0  0  0
  9 40  1  0  0  0  0
 10 11  1  0  0  0  0
 10 41  1  0  0  0  0
 11 12  1  0  0  0  0
 11 13  2  0  0  0  0
 13 14  1  0  0  0  0
 13 15  1  0  0  0  0
 15 42  1  0  0  0  0
 16 17  1  0  0  0  0
 17 18  2  0  0  0  0
 17 43  1  0  0  0  0
 18 19  1  0  0  0  0
 19 20  2  0  0  0  0
 20 21  1  0  0  0  0
 20 44  1  0  0  0  0
 21 22  1  0  0  0  0
 23 24  1  0  0  0  0
 23 34  1  0  0  0  0
 23 22  1  0  0  0  0
 23 45  1  1  0  0  0
 24 25  1  0  0  0  0
 24 46  1  0  0  0  0
 24 47  1  0  0  0  0
 25 26  1  0  0  0  0
 26 27  1  0  0  0  0
 26 34  1  0  0  0  0
 26 48  1  6  0  0  0
 27 28  1  0  0  0  0
 27 32  1  0  0  0  0
 27 49  1  6  0  0  0
 28 29  1  0  0  0  0
 28 50  1  0  0  0  0
 29 30  1  0  0  0  0
 29 31  2  0  0  0  0
 30 51  1  0  0  0  0
 30 52  1  0  0  0  0
 30 53  1  0  0  0  0
 32 33  1  0  0  0  0
 32 54  1  0  0  0  0
 32 55  1  0  0  0  0
 33 34  1  0  0  0  0
 34 56  1  1  0  0  0
M  END
$$$$
