CHEMBL3907378
 OpenBabel04072215373D

 54 58  0  0  0  0  0  0  0  0999 V2000
    2.7472   -0.2424   -0.9144 O   0  0  0  0  0  0  0  0  0  0  0  0
    2.1353    0.1293    0.0909 C   0  0  0  0  0  0  0  0  0  0  0  0
    0.6745   -0.0881    0.1164 C   0  0  0  0  0  0  0  0  0  0  0  0
    0.1938   -1.2351   -0.5252 C   0  0  0  0  0  0  0  0  0  0  0  0
   -1.1668   -1.5058   -0.5288 C   0  0  0  0  0  0  0  0  0  0  0  0
   -2.0438   -0.6352    0.1167 C   0  0  0  0  0  0  0  0  0  0  0  0
   -1.5841    0.5152    0.7599 C   0  0  0  0  0  0  0  0  0  0  0  0
   -2.4253    1.3890    1.4768 N   0  0  0  0  0  0  0  0  0  0  0  0
   -3.8002    1.2643    1.6348 C   0  0  0  0  0  0  0  0  0  0  0  0
   -4.5372    0.4362    1.1140 O   0  0  0  0  0  0  0  0  0  0  0  0
   -4.4110    2.2730    2.5596 C   0  0  0  0  0  0  0  0  0  0  0  0
   -5.7870    2.2233    2.7756 C   0  0  0  0  0  0  0  0  0  0  0  0
   -6.3583    3.1367    3.6497 C   0  0  0  0  0  0  0  0  0  0  0  0
   -5.5392    4.0655    4.2781 C   0  0  0  0  0  0  0  0  0  0  0  0
   -4.1800    4.0360    3.9968 C   0  0  0  0  0  0  0  0  0  0  0  0
   -3.1171    5.1588    4.7414 Cl  0  0  0  0  0  0  0  0  0  0  0  0
   -3.5775    3.1681    3.1540 N   0  0  0  0  0  0  0  0  0  0  0  0
   -0.2158    0.8061    0.7268 C   0  0  0  0  0  0  0  0  0  0  0  0
    2.9058    0.7005    1.2339 C   0  0  0  0  0  0  0  0  0  0  0  0
    2.4076    0.8322    2.5435 C   0  0  0  0  0  0  0  0  0  0  0  0
    3.2061    1.3498    3.5910 C   0  0  0  0  0  0  0  0  0  0  0  0
    4.5786    1.5318    3.3406 C   0  0  0  0  0  0  0  0  0  0  0  0
    5.7858    1.9346    4.0145 C   0  0  0  0  0  0  0  0  0  0  0  0
    6.3257    3.2877    4.1273 C   0  0  0  0  0  0  0  0  0  0  0  0
    5.8880    4.3179    3.3767 C   0  0  0  0  0  0  0  0  0  0  0  0
    6.8141    5.2081    2.6329 C   0  0  0  0  0  0  0  0  0  0  0  0
    7.9638    4.6939    1.9960 C   0  0  0  0  0  0  0  0  0  0  0  0
    8.6789    5.4558    1.0699 C   0  0  0  0  0  0  0  0  0  0  0  0
    8.2580    6.7436    0.7614 C   0  0  0  0  0  0  0  0  0  0  0  0
    7.1336    7.2752    1.3967 C   0  0  0  0  0  0  0  0  0  0  0  0
    6.4127    6.5099    2.3209 C   0  0  0  0  0  0  0  0  0  0  0  0
    6.7289    1.0578    3.6053 N   0  0  0  0  0  0  0  0  0  0  0  0
    6.3854    0.9054    2.3102 N   0  0  0  0  0  0  0  0  0  0  0  0
    5.0560    1.1476    2.0944 C   0  0  0  0  0  0  0  0  0  0  0  0
    4.2613    0.9339    0.9769 C   0  0  0  0  0  0  0  0  0  0  0  0
    0.8789   -1.9198   -1.0222 H   0  0  0  0  0  0  0  0  0  0  0  0
   -1.5480   -2.3943   -1.0240 H   0  0  0  0  0  0  0  0  0  0  0  0
   -3.0979   -0.9015    0.0989 H   0  0  0  0  0  0  0  0  0  0  0  0
   -2.0068    2.1730    1.9713 H   0  0  0  0  0  0  0  0  0  0  0  0
   -6.3997    1.4803    2.2730 H   0  0  0  0  0  0  0  0  0  0  0  0
   -7.4291    3.1191    3.8371 H   0  0  0  0  0  0  0  0  0  0  0  0
   -5.9565    4.7919    4.9675 H   0  0  0  0  0  0  0  0  0  0  0  0
    0.1552    1.7220    1.1751 H   0  0  0  0  0  0  0  0  0  0  0  0
    1.4076    0.4870    2.7963 H   0  0  0  0  0  0  0  0  0  0  0  0
    2.7982    1.4456    4.5940 H   0  0  0  0  0  0  0  0  0  0  0  0
    7.3672    3.2941    4.4541 H   0  0  0  0  0  0  0  0  0  0  0  0
    4.8719    4.3309    2.9903 H   0  0  0  0  0  0  0  0  0  0  0  0
    8.2803    3.6655    2.1701 H   0  0  0  0  0  0  0  0  0  0  0  0
    9.5390    5.0260    0.5572 H   0  0  0  0  0  0  0  0  0  0  0  0
    8.7891    7.3269    0.0139 H   0  0  0  0  0  0  0  0  0  0  0  0
    6.7932    8.2755    1.1386 H   0  0  0  0  0  0  0  0  0  0  0  0
    5.5137    6.9287    2.7647 H   0  0  0  0  0  0  0  0  0  0  0  0
    7.0517    0.4926    1.6741 H   0  0  0  0  0  0  0  0  0  0  0  0
    4.6951    0.7711   -0.0044 H   0  0  0  0  0  0  0  0  0  0  0  0
  1  2  2  0  0  0  0
  2  3  1  0  0  0  0
  2 19  1  0  0  0  0
  3  4  1  0  0  0  0
  3 18  2  0  0  0  0
  4  5  2  0  0  0  0
  4 36  1  0  0  0  0
  5  6  1  0  0  0  0
  5 37  1  0  0  0  0
  6  7  2  0  0  0  0
  6 38  1  0  0  0  0
  7  8  1  0  0  0  0
  7 18  1  0  0  0  0
  8  9  1  0  0  0  0
  8 39  1  0  0  0  0
  9 10  2  0  0  0  0
  9 11  1  0  0  0  0
 11 12  1  0  0  0  0
 11 17  2  0  0  0  0
 12 13  2  0  0  0  0
 12 40  1  0  0  0  0
 13 14  1  0  0  0  0
 13 41  1  0  0  0  0
 14 15  2  0  0  0  0
 14 42  1  0  0  0  0
 15 16  1  0  0  0  0
 15 17  1  0  0  0  0
 18 43  1  0  0  0  0
 19 20  1  0  0  0  0
 19 35  2  0  0  0  0
 20 21  2  0  0  0  0
 20 44  1  0  0  0  0
 21 22  1  0  0  0  0
 21 45  1  0  0  0  0
 22 23  1  0  0  0  0
 22 34  2  0  0  0  0
 23 24  1  0  0  0  0
 23 32  2  0  0  0  0
 24 25  2  0  0  0  0
 24 46  1  0  0  0  0
 25 26  1  0  0  0  0
 25 47  1  0  0  0  0
 26 27  1  0  0  0  0
 26 31  2  0  0  0  0
 27 28  2  0  0  0  0
 27 48  1  0  0  0  0
 28 29  1  0  0  0  0
 28 49  1  0  0  0  0
 29 30  2  0  0  0  0
 29 50  1  0  0  0  0
 30 31  1  0  0  0  0
 30 51  1  0  0  0  0
 31 52  1  0  0  0  0
 32 33  1  0  0  0  0
 33 34  1  0  0  0  0
 33 53  1  0  0  0  0
 34 35  1  0  0  0  0
 35 54  1  0  0  0  0
M  END
$$$$
