CHEMBL2409778
 OpenBabel04072215363D

 53 57  0  0  0  0  0  0  0  0999 V2000
   -2.1176    0.8058    0.0511 C   0  0  0  0  0  0  0  0  0  0  0  0
   -1.8746   -0.6214   -0.2646 C   0  0  0  0  0  0  0  0  0  0  0  0
   -0.7019   -1.3922   -0.0990 C   0  0  0  0  0  0  0  0  0  0  0  0
   -1.0210   -2.6758   -0.5246 C   0  0  0  0  0  0  0  0  0  0  0  0
   -0.2396   -3.8926   -0.5814 C   0  0  0  0  0  0  0  0  0  0  0  0
   -0.7006   -4.9221   -1.0708 O   0  0  0  0  0  0  0  0  0  0  0  0
    1.0282   -3.8555   -0.0215 N   0  0  0  0  0  0  0  0  0  0  0  0
    1.9644   -4.9252   -0.0387 C   0  0  0  0  0  0  0  0  0  0  0  0
    1.8286   -6.0575   -0.8500 C   0  0  0  0  0  0  0  0  0  0  0  0
    2.7676   -7.0929   -0.8138 C   0  0  0  0  0  0  0  0  0  0  0  0
    2.5034   -8.1558   -1.6380 O   0  0  0  0  0  0  0  0  0  0  0  0
    2.8651   -9.4524   -1.3072 C   0  0  0  0  0  0  0  0  0  0  0  0
    2.9174   -9.8981    0.0851 C   0  0  0  0  0  0  0  0  0  0  0  0
    3.3264  -11.1404    0.4111 C   0  0  0  0  0  0  0  0  0  0  0  0
    3.6476  -12.0656   -0.6195 C   0  0  0  0  0  0  0  0  0  0  0  0
    4.0547  -13.3156   -0.5966 N   0  0  0  0  0  0  0  0  0  0  0  0
    4.1961  -13.6154   -1.9233 C   0  0  0  0  0  0  0  0  0  0  0  0
    4.6694  -14.8542   -2.2503 N   0  0  0  0  0  0  0  0  0  0  0  0
    5.0341  -15.2279   -3.5168 C   0  0  0  0  0  0  0  0  0  0  0  0
    5.0195  -14.5481   -4.5328 O   0  0  0  0  0  0  0  0  0  0  0  0
    5.5646  -16.6256   -3.5795 C   0  0  0  0  0  0  0  0  0  0  0  0
    7.0271  -16.8392   -3.8999 C   0  0  0  0  0  0  0  0  0  0  0  0
    5.9819  -17.2283   -4.9032 C   0  0  0  0  0  0  0  0  0  0  0  0
    3.8540  -12.6424   -2.7616 N   0  0  0  0  0  0  0  0  0  0  0  0
    3.5116  -11.6349   -1.9399 N   0  0  0  0  0  0  0  0  0  0  0  0
    3.1143  -10.3472   -2.2756 C   0  0  0  0  0  0  0  0  0  0  0  0
    3.9104   -6.9662   -0.0228 C   0  0  0  0  0  0  0  0  0  0  0  0
    4.0555   -5.8528    0.8045 C   0  0  0  0  0  0  0  0  0  0  0  0
    3.0890   -4.8468    0.7883 C   0  0  0  0  0  0  0  0  0  0  0  0
    3.2434   -3.7881    1.6016 F   0  0  0  0  0  0  0  0  0  0  0  0
   -2.3355   -2.5771   -0.9479 N   0  0  0  0  0  0  0  0  0  0  0  0
   -3.2137   -3.5741   -1.5158 C   0  0  0  0  0  0  0  0  0  0  0  0
   -2.8636   -1.3506   -0.7784 N   0  0  0  0  0  0  0  0  0  0  0  0
   -1.2248    1.2833    0.4648 H   0  0  0  0  0  0  0  0  0  0  0  0
   -2.9260    0.8999    0.7846 H   0  0  0  0  0  0  0  0  0  0  0  0
   -2.4125    1.3534   -0.8507 H   0  0  0  0  0  0  0  0  0  0  0  0
    0.2442   -1.0438    0.2888 H   0  0  0  0  0  0  0  0  0  0  0  0
    1.2885   -3.0448    0.5285 H   0  0  0  0  0  0  0  0  0  0  0  0
    1.0029   -6.1740   -1.5421 H   0  0  0  0  0  0  0  0  0  0  0  0
    2.6156   -9.2126    0.8709 H   0  0  0  0  0  0  0  0  0  0  0  0
    3.3975  -11.4606    1.4444 H   0  0  0  0  0  0  0  0  0  0  0  0
    4.8208  -15.4625   -1.4626 H   0  0  0  0  0  0  0  0  0  0  0  0
    5.1116  -17.3176   -2.8758 H   0  0  0  0  0  0  0  0  0  0  0  0
    7.5555  -17.6317   -3.3846 H   0  0  0  0  0  0  0  0  0  0  0  0
    7.6365  -15.9702   -4.1272 H   0  0  0  0  0  0  0  0  0  0  0  0
    5.7955  -18.2828   -5.0659 H   0  0  0  0  0  0  0  0  0  0  0  0
    5.8858  -16.6216   -5.7985 H   0  0  0  0  0  0  0  0  0  0  0  0
    3.0530  -10.1246   -3.3327 H   0  0  0  0  0  0  0  0  0  0  0  0
    4.6816   -7.7329   -0.0296 H   0  0  0  0  0  0  0  0  0  0  0  0
    4.9150   -5.7659    1.4590 H   0  0  0  0  0  0  0  0  0  0  0  0
   -2.7292   -4.5309   -1.6723 H   0  0  0  0  0  0  0  0  0  0  0  0
   -3.5652   -3.2021   -2.4826 H   0  0  0  0  0  0  0  0  0  0  0  0
   -4.0569   -3.7097   -0.8335 H   0  0  0  0  0  0  0  0  0  0  0  0
  1  2  1  0  0  0  0
  1 34  1  0  0  0  0
  1 35  1  0  0  0  0
  1 36  1  0  0  0  0
  2  3  1  0  0  0  0
  2 33  2  0  0  0  0
  3  4  2  0  0  0  0
  3 37  1  0  0  0  0
  4  5  1  0  0  0  0
  4 31  1  0  0  0  0
  5  6  2  0  0  0  0
  5  7  1  0  0  0  0
  7  8  1  0  0  0  0
  7 38  1  0  0  0  0
  8  9  1  0  0  0  0
  8 29  2  0  0  0  0
  9 10  2  0  0  0  0
  9 39  1  0  0  0  0
 10 11  1  0  0  0  0
 10 27  1  0  0  0  0
 11 12  1  0  0  0  0
 12 13  1  0  0  0  0
 12 26  2  0  0  0  0
 13 14  2  0  0  0  0
 13 40  1  0  0  0  0
 14 15  1  0  0  0  0
 14 41  1  0  0  0  0
 15 16  2  0  0  0  0
 15 25  1  0  0  0  0
 16 17  1  0  0  0  0
 17 18  1  0  0  0  0
 17 24  2  0  0  0  0
 18 19  1  0  0  0  0
 18 42  1  0  0  0  0
 19 20  2  0  0  0  0
 19 21  1  0  0  0  0
 21 22  1  0  0  0  0
 21 23  1  0  0  0  0
 21 43  1  0  0  0  0
 22 23  1  0  0  0  0
 22 44  1  0  0  0  0
 22 45  1  0  0  0  0
 23 46  1  0  0  0  0
 23 47  1  0  0  0  0
 24 25  1  0  0  0  0
 25 26  1  0  0  0  0
 26 48  1  0  0  0  0
 27 28  2  0  0  0  0
 27 49  1  0  0  0  0
 28 29  1  0  0  0  0
 28 50  1  0  0  0  0
 29 30  1  0  0  0  0
 31 32  1  0  0  0  0
 31 33  1  0  0  0  0
 32 51  1  0  0  0  0
 32 52  1  0  0  0  0
 32 53  1  0  0  0  0
M  END
$$$$
