CHEMBL3758697
 OpenBabel04072215373D

 53 55  0  0  0  0  0  0  0  0999 V2000
    2.6443    1.0855   -0.9738 C   0  0  0  0  0  0  0  0  0  0  0  0
    2.4003    0.0425   -0.0366 O   0  0  0  0  0  0  0  0  0  0  0  0
    3.0497    0.0583    1.1657 C   0  0  0  0  0  0  0  0  0  0  0  0
    4.2046    0.8114    1.3995 C   0  0  0  0  0  0  0  0  0  0  0  0
    4.8141    0.8690    2.6425 C   0  0  0  0  0  0  0  0  0  0  0  0
    5.8906    1.6476    2.7713 N   0  0  0  0  0  0  0  0  0  0  0  0
    6.4553    1.6905    3.9794 C   0  0  0  0  0  0  0  0  0  0  0  0
    6.0564    1.0082    5.0520 N   0  0  0  0  0  0  0  0  0  0  0  0
    4.9799    0.2091    4.9084 C   0  0  0  0  0  0  0  0  0  0  0  0
    4.5664   -0.5822    6.0165 N   0  0  0  0  0  0  0  0  0  0  0  0
    5.0793   -0.4290    7.3242 C   0  0  0  0  0  0  0  0  0  0  0  0
    5.1414    0.8399    7.9186 C   0  0  0  0  0  0  0  0  0  0  0  0
    5.7202    1.0125    9.1782 C   0  0  0  0  0  0  0  0  0  0  0  0
    6.2359   -0.0869    9.8517 C   0  0  0  0  0  0  0  0  0  0  0  0
    7.0811    0.1522   11.5256 Br  0  0  0  0  0  0  0  0  0  0  0  0
    6.1506   -1.3581    9.2903 C   0  0  0  0  0  0  0  0  0  0  0  0
    5.5668   -1.5317    8.0341 C   0  0  0  0  0  0  0  0  0  0  0  0
    4.2795    0.1181    3.6947 C   0  0  0  0  0  0  0  0  0  0  0  0
    3.1184   -0.6608    3.4731 C   0  0  0  0  0  0  0  0  0  0  0  0
    2.5291   -0.7251    2.2090 C   0  0  0  0  0  0  0  0  0  0  0  0
    1.4360   -1.5585    2.1336 O   0  0  0  0  0  0  0  0  0  0  0  0
    1.4395   -2.3901    0.9718 C   0  0  0  0  0  0  0  0  0  0  0  0
    0.4572   -3.5529    1.1230 C   0  0  0  0  0  0  0  0  0  0  0  0
    0.4394   -4.3497   -0.1837 C   0  0  0  0  0  0  0  0  0  0  0  0
   -0.5714   -5.4909   -0.1872 C   0  0  0  0  0  0  0  0  0  0  0  0
   -0.5512   -6.2211   -1.5332 C   0  0  0  0  0  0  0  0  0  0  0  0
   -1.5711   -7.3375   -1.5803 C   0  0  0  0  0  0  0  0  0  0  0  0
   -2.3370   -7.6219   -0.6656 O   0  0  0  0  0  0  0  0  0  0  0  0
   -1.5878   -8.0215   -2.7766 N   0  0  0  0  0  0  0  0  0  0  0  0
   -2.4538   -9.1395   -2.8086 O   0  0  0  0  0  0  0  0  0  0  0  0
    3.2911    0.7090   -1.7720 H   0  0  0  0  0  0  0  0  0  0  0  0
    3.0639    1.9991   -0.5445 H   0  0  0  0  0  0  0  0  0  0  0  0
    1.6822    1.3622   -1.4152 H   0  0  0  0  0  0  0  0  0  0  0  0
    4.6752    1.3812    0.6041 H   0  0  0  0  0  0  0  0  0  0  0  0
    7.3204    2.3334    4.0989 H   0  0  0  0  0  0  0  0  0  0  0  0
    4.5346   -1.5554    5.7322 H   0  0  0  0  0  0  0  0  0  0  0  0
    4.7518    1.7045    7.3904 H   0  0  0  0  0  0  0  0  0  0  0  0
    5.7754    2.0102    9.6036 H   0  0  0  0  0  0  0  0  0  0  0  0
    6.5541   -2.2231    9.8163 H   0  0  0  0  0  0  0  0  0  0  0  0
    5.5325   -2.5289    7.6026 H   0  0  0  0  0  0  0  0  0  0  0  0
    2.6677   -1.2234    4.2878 H   0  0  0  0  0  0  0  0  0  0  0  0
    2.4456   -2.7947    0.7962 H   0  0  0  0  0  0  0  0  0  0  0  0
    1.1138   -1.8098    0.1044 H   0  0  0  0  0  0  0  0  0  0  0  0
   -0.5428   -3.1658    1.3579 H   0  0  0  0  0  0  0  0  0  0  0  0
    0.7474   -4.1902    1.9690 H   0  0  0  0  0  0  0  0  0  0  0  0
    1.4429   -4.7506   -0.3739 H   0  0  0  0  0  0  0  0  0  0  0  0
    0.2073   -3.6697   -1.0134 H   0  0  0  0  0  0  0  0  0  0  0  0
   -1.5761   -5.0963    0.0027 H   0  0  0  0  0  0  0  0  0  0  0  0
   -0.3434   -6.1952    0.6206 H   0  0  0  0  0  0  0  0  0  0  0  0
    0.4414   -6.6490   -1.7149 H   0  0  0  0  0  0  0  0  0  0  0  0
   -0.7729   -5.5195   -2.3459 H   0  0  0  0  0  0  0  0  0  0  0  0
   -0.7848   -8.0560   -3.3980 H   0  0  0  0  0  0  0  0  0  0  0  0
   -2.8882   -9.0913   -1.9274 H   0  0  0  0  0  0  0  0  0  0  0  0
  1  2  1  0  0  0  0
  1 31  1  0  0  0  0
  1 32  1  0  0  0  0
  1 33  1  0  0  0  0
  2  3  1  0  0  0  0
  3  4  1  0  0  0  0
  3 20  2  0  0  0  0
  4  5  2  0  0  0  0
  4 34  1  0  0  0  0
  5  6  1  0  0  0  0
  5 18  1  0  0  0  0
  6  7  2  0  0  0  0
  7  8  1  0  0  0  0
  7 35  1  0  0  0  0
  8  9  2  0  0  0  0
  9 10  1  0  0  0  0
  9 18  1  0  0  0  0
 10 11  1  0  0  0  0
 10 36  1  0  0  0  0
 11 12  1  0  0  0  0
 11 17  2  0  0  0  0
 12 13  2  0  0  0  0
 12 37  1  0  0  0  0
 13 14  1  0  0  0  0
 13 38  1  0  0  0  0
 14 15  1  0  0  0  0
 14 16  2  0  0  0  0
 16 17  1  0  0  0  0
 16 39  1  0  0  0  0
 17 40  1  0  0  0  0
 18 19  2  0  0  0  0
 19 20  1  0  0  0  0
 19 41  1  0  0  0  0
 20 21  1  0  0  0  0
 21 22  1  0  0  0  0
 22 23  1  0  0  0  0
 22 42  1  0  0  0  0
 22 43  1  0  0  0  0
 23 24  1  0  0  0  0
 23 44  1  0  0  0  0
 23 45  1  0  0  0  0
 24 25  1  0  0  0  0
 24 46  1  0  0  0  0
 24 47  1  0  0  0  0
 25 26  1  0  0  0  0
 25 48  1  0  0  0  0
 25 49  1  0  0  0  0
 26 27  1  0  0  0  0
 26 50  1  0  0  0  0
 26 51  1  0  0  0  0
 27 28  2  0  0  0  0
 27 29  1  0  0  0  0
 29 30  1  0  0  0  0
 29 52  1  0  0  0  0
 30 53  1  0  0  0  0
M  END
$$$$
