CHEMBL65848
 OpenBabel04072215383D

 61 66  0  0  0  0  0  0  0  0999 V2000
   -2.4044   -0.7360    0.3531 C   0  0  0  0  0  0  0  0  0  0  0  0
   -1.0454   -0.1584    0.1675 C   0  0  0  0  0  0  0  0  0  0  0  0
   -0.7754    1.2351    0.1029 C   0  0  0  0  0  0  0  0  0  0  0  0
    0.5913    1.4165    0.0374 C   0  0  0  0  0  0  0  0  0  0  0  0
    1.2974    2.6838    0.0657 C   0  0  0  0  0  0  0  0  0  0  0  0
    0.7897    3.6889   -0.4333 O   0  0  0  0  0  0  0  0  0  0  0  0
    2.5219    2.7636    0.7282 N   0  0  0  0  0  0  0  0  0  0  0  0
    3.2240    1.6819    1.4270 C   0  0  0  0  0  0  0  0  0  0  0  0
    3.7926    2.1410    2.7719 C   0  0  0  0  0  0  0  0  0  0  0  0
    4.5776    3.3303    2.6379 O   0  0  0  0  0  0  0  0  0  0  0  0
    3.7786    4.3926    2.0931 C   0  0  0  0  0  0  0  0  0  0  0  0
    3.2624    4.0277    0.6989 C   0  0  0  0  0  0  0  0  0  0  0  0
    1.1237    0.1587   -0.1431 N   0  0  0  0  0  0  0  0  0  0  0  0
    0.1761   -0.8199    0.0581 C   0  0  0  0  0  0  0  0  0  0  0  0
    0.4998   -2.2104    0.1018 C   0  0  0  0  0  0  0  0  0  0  0  0
    1.6939   -2.8316    0.0514 C   0  0  0  0  0  0  0  0  0  0  0  0
    3.0874   -2.2537   -0.0360 C   0  0  0  0  0  0  0  0  0  0  0  0
    3.4129   -1.0848   -0.1171 O   0  0  0  0  0  0  0  0  0  0  0  0
    3.9432   -3.3315    0.0005 N   0  0  0  0  0  0  0  0  0  0  0  0
    3.2533   -4.5264    0.0819 C   0  0  0  0  0  0  0  0  0  0  0  0
    3.8676   -5.7090    0.1181 N   0  0  0  0  0  0  0  0  0  0  0  0
    3.0186   -6.7369    0.2012 C   0  0  0  0  0  0  0  0  0  0  0  0
    1.6754   -6.6489    0.2475 N   0  0  0  0  0  0  0  0  0  0  0  0
    1.1077   -5.4198    0.2012 C   0  0  0  0  0  0  0  0  0  0  0  0
   -0.2967   -5.3157    0.1988 N   0  0  0  0  0  0  0  0  0  0  0  0
   -1.1993   -6.2568    0.7381 C   0  0  0  0  0  0  0  0  0  0  0  0
   -0.8859   -7.0050    1.8912 C   0  0  0  0  0  0  0  0  0  0  0  0
   -1.7996   -7.8990    2.4520 C   0  0  0  0  0  0  0  0  0  0  0  0
   -3.0414   -8.0259    1.8564 C   0  0  0  0  0  0  0  0  0  0  0  0
   -3.3800   -7.2668    0.7410 C   0  0  0  0  0  0  0  0  0  0  0  0
   -2.4811   -6.3685    0.1838 C   0  0  0  0  0  0  0  0  0  0  0  0
   -4.7678   -7.5482    0.2759 C   0  0  0  0  0  0  0  0  0  0  0  0
   -5.2520   -8.6415    1.2397 C   0  0  0  0  0  0  0  0  0  0  0  0
   -4.1563   -8.9190    2.2810 C   0  0  0  0  0  0  0  0  0  0  0  0
    1.8894   -4.2974    0.1071 C   0  0  0  0  0  0  0  0  0  0  0  0
   -3.1645    0.0542    0.3526 H   0  0  0  0  0  0  0  0  0  0  0  0
   -2.4716   -1.2600    1.3113 H   0  0  0  0  0  0  0  0  0  0  0  0
   -2.6472   -1.4325   -0.4542 H   0  0  0  0  0  0  0  0  0  0  0  0
   -1.4988    2.0407    0.1658 H   0  0  0  0  0  0  0  0  0  0  0  0
    4.0389    1.3703    0.7634 H   0  0  0  0  0  0  0  0  0  0  0  0
    2.5762    0.8308    1.6280 H   0  0  0  0  0  0  0  0  0  0  0  0
    4.4331    1.3560    3.1858 H   0  0  0  0  0  0  0  0  0  0  0  0
    2.9836    2.3241    3.4892 H   0  0  0  0  0  0  0  0  0  0  0  0
    4.4073    5.2872    2.0398 H   0  0  0  0  0  0  0  0  0  0  0  0
    2.9496    4.6034    2.7793 H   0  0  0  0  0  0  0  0  0  0  0  0
    4.1073    3.8743    0.0176 H   0  0  0  0  0  0  0  0  0  0  0  0
    2.6553    4.8474    0.3036 H   0  0  0  0  0  0  0  0  0  0  0  0
    2.1098   -0.0127   -0.3063 H   0  0  0  0  0  0  0  0  0  0  0  0
   -0.3818   -2.8352    0.2233 H   0  0  0  0  0  0  0  0  0  0  0  0
    4.9485   -3.2751   -0.0317 H   0  0  0  0  0  0  0  0  0  0  0  0
    3.4410   -7.7357    0.2204 H   0  0  0  0  0  0  0  0  0  0  0  0
   -0.6050   -4.9691   -0.7040 H   0  0  0  0  0  0  0  0  0  0  0  0
    0.0863   -6.8921    2.3656 H   0  0  0  0  0  0  0  0  0  0  0  0
   -1.5345   -8.4734    3.3326 H   0  0  0  0  0  0  0  0  0  0  0  0
   -2.7735   -5.7779   -0.6766 H   0  0  0  0  0  0  0  0  0  0  0  0
   -4.7655   -7.9104   -0.7575 H   0  0  0  0  0  0  0  0  0  0  0  0
   -5.3931   -6.6528    0.3480 H   0  0  0  0  0  0  0  0  0  0  0  0
   -5.4878   -9.5571    0.6850 H   0  0  0  0  0  0  0  0  0  0  0  0
   -6.1815   -8.3346    1.7322 H   0  0  0  0  0  0  0  0  0  0  0  0
   -3.8468   -9.9687    2.2517 H   0  0  0  0  0  0  0  0  0  0  0  0
   -4.4984   -8.6657    3.2892 H   0  0  0  0  0  0  0  0  0  0  0  0
  1  2  1  0  0  0  0
  1 36  1  0  0  0  0
  1 37  1  0  0  0  0
  1 38  1  0  0  0  0
  2  3  1  0  0  0  0
  2 14  2  0  0  0  0
  3  4  2  0  0  0  0
  3 39  1  0  0  0  0
  4  5  1  0  0  0  0
  4 13  1  0  0  0  0
  5  6  2  0  0  0  0
  5  7  1  0  0  0  0
  7  8  1  0  0  0  0
  7 12  1  0  0  0  0
  8  9  1  0  0  0  0
  8 40  1  0  0  0  0
  8 41  1  0  0  0  0
  9 10  1  0  0  0  0
  9 42  1  0  0  0  0
  9 43  1  0  0  0  0
 10 11  1  0  0  0  0
 11 12  1  0  0  0  0
 11 44  1  0  0  0  0
 11 45  1  0  0  0  0
 12 46  1  0  0  0  0
 12 47  1  0  0  0  0
 13 14  1  0  0  0  0
 13 48  1  0  0  0  0
 14 15  1  0  0  0  0
 15 16  2  0  0  0  0
 15 49  1  0  0  0  0
 16 17  1  0  0  0  0
 16 35  1  0  0  0  0
 17 18  2  0  0  0  0
 17 19  1  0  0  0  0
 19 20  1  0  0  0  0
 19 50  1  0  0  0  0
 20 21  1  0  0  0  0
 20 35  2  0  0  0  0
 21 22  2  0  0  0  0
 22 23  1  0  0  0  0
 22 51  1  0  0  0  0
 23 24  2  0  0  0  0
 24 25  1  0  0  0  0
 24 35  1  0  0  0  0
 25 26  1  0  0  0  0
 25 52  1  0  0  0  0
 26 27  1  0  0  0  0
 26 31  2  0  0  0  0
 27 28  2  0  0  0  0
 27 53  1  0  0  0  0
 28 29  1  0  0  0  0
 28 54  1  0  0  0  0
 29 30  2  0  0  0  0
 29 34  1  0  0  0  0
 30 31  1  0  0  0  0
 30 32  1  0  0  0  0
 31 55  1  0  0  0  0
 32 33  1  0  0  0  0
 32 56  1  0  0  0  0
 32 57  1  0  0  0  0
 33 34  1  0  0  0  0
 33 58  1  0  0  0  0
 33 59  1  0  0  0  0
 34 60  1  0  0  0  0
 34 61  1  0  0  0  0
M  END
$$$$
