CHEMBL3219511
 OpenBabel04072215363D

 40 42  0  0  0  0  0  0  0  0999 V2000
    3.1214    0.0935    1.3336 C   0  0  0  0  0  0  0  0  0  0  0  0
    2.5257    0.0515    0.0812 O   0  0  0  0  0  0  0  0  0  0  0  0
    3.1530   -0.2613   -1.0824 C   0  0  0  0  0  0  0  0  0  0  0  0
    4.2918   -1.0915   -1.0780 C   0  0  0  0  0  0  0  0  0  0  0  0
    4.9783   -1.3757   -2.2533 C   0  0  0  0  0  0  0  0  0  0  0  0
    6.0958   -2.1440   -2.1957 N   0  0  0  0  0  0  0  0  0  0  0  0
    6.8150   -2.4047   -3.3094 C   0  0  0  0  0  0  0  0  0  0  0  0
    6.4303   -1.8805   -4.4945 N   0  0  0  0  0  0  0  0  0  0  0  0
    5.3199   -1.1019   -4.6287 C   0  0  0  0  0  0  0  0  0  0  0  0
    5.0058   -0.5830   -5.9219 N   0  0  0  0  0  0  0  0  0  0  0  0
    6.0077   -0.3991   -6.9252 C   0  0  0  0  0  0  0  0  0  0  0  0
    5.6667   -0.4220   -8.2848 C   0  0  0  0  0  0  0  0  0  0  0  0
    6.6606   -0.2800   -9.2635 C   0  0  0  0  0  0  0  0  0  0  0  0
    8.0019   -0.0882   -8.8899 C   0  0  0  0  0  0  0  0  0  0  0  0
    9.1423    0.0333   -9.9672 B   0  0  0  0  0  0  0  0  0  0  0  0
    8.8233   -0.0375  -11.3923 O   0  0  0  0  0  0  0  0  0  0  0  0
   10.5385    0.1530   -9.5442 O   0  0  0  0  0  0  0  0  0  0  0  0
    8.3364   -0.0222   -7.5333 C   0  0  0  0  0  0  0  0  0  0  0  0
    7.3524   -0.1710   -6.5654 C   0  0  0  0  0  0  0  0  0  0  0  0
    4.5350   -0.8431   -3.4839 C   0  0  0  0  0  0  0  0  0  0  0  0
    3.3776   -0.0488   -3.5018 C   0  0  0  0  0  0  0  0  0  0  0  0
    2.6797    0.2485   -2.3236 C   0  0  0  0  0  0  0  0  0  0  0  0
    1.5956    1.0593   -2.4655 O   0  0  0  0  0  0  0  0  0  0  0  0
    0.7158    1.5031   -1.5044 C   0  0  0  0  0  0  0  0  0  0  0  0
    2.8649    1.0544    1.8235 H   0  0  0  0  0  0  0  0  0  0  0  0
    4.2313    0.0616    1.2835 H   0  0  0  0  0  0  0  0  0  0  0  0
    2.7544   -0.7439    1.9598 H   0  0  0  0  0  0  0  0  0  0  0  0
    4.6696   -1.5175   -0.1567 H   0  0  0  0  0  0  0  0  0  0  0  0
    7.7061   -3.0158   -3.2555 H   0  0  0  0  0  0  0  0  0  0  0  0
    4.0231   -0.3831   -6.1703 H   0  0  0  0  0  0  0  0  0  0  0  0
    4.6401   -0.5791   -8.5870 H   0  0  0  0  0  0  0  0  0  0  0  0
    6.3767   -0.3333  -10.3067 H   0  0  0  0  0  0  0  0  0  0  0  0
    8.4178   -0.9328  -11.5205 H   0  0  0  0  0  0  0  0  0  0  0  0
   10.6266    1.0823   -9.2115 H   0  0  0  0  0  0  0  0  0  0  0  0
    9.3566    0.1431   -7.2124 H   0  0  0  0  0  0  0  0  0  0  0  0
    7.6562   -0.0894   -5.5318 H   0  0  0  0  0  0  0  0  0  0  0  0
    3.0073    0.3776   -4.4223 H   0  0  0  0  0  0  0  0  0  0  0  0
   -0.0038    2.1973   -1.9877 H   0  0  0  0  0  0  0  0  0  0  0  0
    1.2530    2.0666   -0.7145 H   0  0  0  0  0  0  0  0  0  0  0  0
    0.1476    0.6513   -1.0766 H   0  0  0  0  0  0  0  0  0  0  0  0
  1  2  1  0  0  0  0
  1 25  1  0  0  0  0
  1 26  1  0  0  0  0
  1 27  1  0  0  0  0
  2  3  1  0  0  0  0
  3  4  1  0  0  0  0
  3 22  2  0  0  0  0
  4  5  2  0  0  0  0
  4 28  1  0  0  0  0
  5  6  1  0  0  0  0
  5 20  1  0  0  0  0
  6  7  2  0  0  0  0
  7  8  1  0  0  0  0
  7 29  1  0  0  0  0
  8  9  2  0  0  0  0
  9 10  1  0  0  0  0
  9 20  1  0  0  0  0
 10 11  1  0  0  0  0
 10 30  1  0  0  0  0
 11 12  1  0  0  0  0
 11 19  2  0  0  0  0
 12 13  2  0  0  0  0
 12 31  1  0  0  0  0
 13 14  1  0  0  0  0
 13 32  1  0  0  0  0
 14 15  1  0  0  0  0
 14 18  2  0  0  0  0
 15 16  1  0  0  0  0
 15 17  1  0  0  0  0
 16 33  1  0  0  0  0
 17 34  1  0  0  0  0
 18 19  1  0  0  0  0
 18 35  1  0  0  0  0
 19 36  1  0  0  0  0
 20 21  2  0  0  0  0
 21 22  1  0  0  0  0
 21 37  1  0  0  0  0
 22 23  1  0  0  0  0
 23 24  1  0  0  0  0
 24 38  1  0  0  0  0
 24 39  1  0  0  0  0
 24 40  1  0  0  0  0
M  END
$$$$
