CHEMBL4102438
 OpenBabel04072215383D

 51 56  0  0  0  0  0  0  0  0999 V2000
    2.7661   -1.1593   -0.0924 O   0  0  0  0  0  0  0  0  0  0  0  0
    2.2352   -0.0568   -0.1660 C   0  0  0  0  0  0  0  0  0  0  0  0
    0.9695    0.2897   -0.5607 N   0  0  0  0  0  0  0  0  0  0  0  0
    0.0574   -0.6854   -0.8781 C   0  0  0  0  0  0  0  0  0  0  0  0
   -0.3148   -1.7936   -0.0955 C   0  0  0  0  0  0  0  0  0  0  0  0
   -1.2092   -2.4874   -0.8825 C   0  0  0  0  0  0  0  0  0  0  0  0
   -1.9305   -3.8093   -0.5593 C   0  0  0  0  0  0  0  0  0  0  0  0
   -2.6868   -4.4771   -1.6928 C   0  0  0  0  0  0  0  0  0  0  0  0
   -2.6198   -3.8041   -2.8632 F   0  0  0  0  0  0  0  0  0  0  0  0
   -2.1976   -5.7221   -1.9223 F   0  0  0  0  0  0  0  0  0  0  0  0
   -4.0008   -4.6142   -1.3832 F   0  0  0  0  0  0  0  0  0  0  0  0
   -2.5072   -3.9283    0.8617 C   0  0  0  0  0  0  0  0  0  0  0  0
   -1.2940   -4.7110    0.5113 C   0  0  0  0  0  0  0  0  0  0  0  0
   -1.3783   -1.7938   -2.0444 O   0  0  0  0  0  0  0  0  0  0  0  0
   -0.6479   -0.6218   -2.0038 N   0  0  0  0  0  0  0  0  0  0  0  0
    2.9942    1.1058    0.0389 N   0  0  0  0  0  0  0  0  0  0  0  0
    4.2182    1.3901   -0.5369 C   0  0  0  0  0  0  0  0  0  0  0  0
    4.5662    2.6771   -0.1829 C   0  0  0  0  0  0  0  0  0  0  0  0
    3.5979    3.1559    0.7348 C   0  0  0  0  0  0  0  0  0  0  0  0
    3.4445    4.3400    1.4915 C   0  0  0  0  0  0  0  0  0  0  0  0
    2.3710    4.4487    2.3832 C   0  0  0  0  0  0  0  0  0  0  0  0
    2.2408    5.6232    3.0748 O   0  0  0  0  0  0  0  0  0  0  0  0
    1.9537    5.5699    4.4352 C   0  0  0  0  0  0  0  0  0  0  0  0
    2.0333    4.4152    5.1336 N   0  0  0  0  0  0  0  0  0  0  0  0
    1.9554    4.5180    6.4762 C   0  0  0  0  0  0  0  0  0  0  0  0
    1.8776    5.6561    7.1856 N   0  0  0  0  0  0  0  0  0  0  0  0
    1.8146    6.7554    6.4269 C   0  0  0  0  0  0  0  0  0  0  0  0
    1.7848    6.7667    5.0544 C   0  0  0  0  0  0  0  0  0  0  0  0
    1.7941    8.1587    4.5586 C   0  0  0  0  0  0  0  0  0  0  0  0
    2.5136    8.8864    5.6317 N   0  0  0  0  0  0  0  0  0  0  0  0
    2.0884    8.1696    6.8803 C   0  0  0  0  0  0  0  0  0  0  0  0
    1.4256    3.4314    2.5000 C   0  0  0  0  0  0  0  0  0  0  0  0
    1.5493    2.2582    1.7616 C   0  0  0  0  0  0  0  0  0  0  0  0
    2.6342    2.1503    0.8719 C   0  0  0  0  0  0  0  0  0  0  0  0
    0.8782    1.1394   -1.1040 H   0  0  0  0  0  0  0  0  0  0  0  0
    0.0255   -2.0472    0.8978 H   0  0  0  0  0  0  0  0  0  0  0  0
   -3.4397   -4.4691    0.9931 H   0  0  0  0  0  0  0  0  0  0  0  0
   -2.4060   -3.0946    1.5478 H   0  0  0  0  0  0  0  0  0  0  0  0
   -1.4008   -5.7871    0.4099 H   0  0  0  0  0  0  0  0  0  0  0  0
   -0.3530   -4.4283    0.9690 H   0  0  0  0  0  0  0  0  0  0  0  0
    4.6821    0.6800   -1.2020 H   0  0  0  0  0  0  0  0  0  0  0  0
    5.4520    3.1985   -0.5241 H   0  0  0  0  0  0  0  0  0  0  0  0
    4.1729    5.1428    1.4034 H   0  0  0  0  0  0  0  0  0  0  0  0
    1.9930    3.5909    7.0383 H   0  0  0  0  0  0  0  0  0  0  0  0
    0.7722    8.5453    4.4848 H   0  0  0  0  0  0  0  0  0  0  0  0
    2.2854    8.2751    3.5862 H   0  0  0  0  0  0  0  0  0  0  0  0
    3.5026    8.6591    5.5028 H   0  0  0  0  0  0  0  0  0  0  0  0
    1.1877    8.6364    7.2846 H   0  0  0  0  0  0  0  0  0  0  0  0
    2.8950    8.1908    7.6206 H   0  0  0  0  0  0  0  0  0  0  0  0
    0.5946    3.5282    3.1900 H   0  0  0  0  0  0  0  0  0  0  0  0
    0.8440    1.4563    1.9106 H   0  0  0  0  0  0  0  0  0  0  0  0
  1  2  2  0  0  0  0
  2  3  1  0  0  0  0
  2 16  1  0  0  0  0
  3  4  1  0  0  0  0
  3 35  1  0  0  0  0
  4  5  1  0  0  0  0
  4 15  2  0  0  0  0
  5  6  2  0  0  0  0
  5 36  1  0  0  0  0
  6  7  1  0  0  0  0
  6 14  1  0  0  0  0
  7  8  1  0  0  0  0
  7 12  1  0  0  0  0
  7 13  1  0  0  0  0
  8  9  1  0  0  0  0
  8 10  1  0  0  0  0
  8 11  1  0  0  0  0
 12 13  1  0  0  0  0
 12 37  1  0  0  0  0
 12 38  1  0  0  0  0
 13 39  1  0  0  0  0
 13 40  1  0  0  0  0
 14 15  1  0  0  0  0
 16 17  1  0  0  0  0
 16 34  1  0  0  0  0
 17 18  2  0  0  0  0
 17 41  1  0  0  0  0
 18 19  1  0  0  0  0
 18 42  1  0  0  0  0
 19 20  1  0  0  0  0
 19 34  2  0  0  0  0
 20 21  2  0  0  0  0
 20 43  1  0  0  0  0
 21 22  1  0  0  0  0
 21 32  1  0  0  0  0
 22 23  1  0  0  0  0
 23 24  1  0  0  0  0
 23 28  2  0  0  0  0
 24 25  2  0  0  0  0
 25 26  1  0  0  0  0
 25 44  1  0  0  0  0
 26 27  2  0  0  0  0
 27 28  1  0  0  0  0
 27 31  1  0  0  0  0
 28 29  1  0  0  0  0
 29 30  1  0  0  0  0
 29 45  1  0  0  0  0
 29 46  1  0  0  0  0
 30 31  1  0  0  0  0
 30 47  1  0  0  0  0
 31 48  1  0  0  0  0
 31 49  1  0  0  0  0
 32 33  2  0  0  0  0
 32 50  1  0  0  0  0
 33 34  1  0  0  0  0
 33 51  1  0  0  0  0
M  END
$$$$
