CHEMBL3586057
 OpenBabel04072215363D

 43 45  0  0  0  0  0  0  0  0999 V2000
    1.0952    0.4675    0.0662 O   0  0  0  0  0  0  0  0  0  0  0  0
    2.2421    0.0452    0.1474 C   0  0  0  0  0  0  0  0  0  0  0  0
    2.8440   -0.7632   -0.8041 N   0  0  0  0  0  0  0  0  0  0  0  0
    2.1974   -1.2542   -1.9648 C   0  0  0  0  0  0  0  0  0  0  0  0
    0.9982   -0.7345   -2.4466 C   0  0  0  0  0  0  0  0  0  0  0  0
    0.3180   -1.3513   -3.4984 C   0  0  0  0  0  0  0  0  0  0  0  0
    0.8275   -2.4913   -4.1345 C   0  0  0  0  0  0  0  0  0  0  0  0
    0.0325   -3.1904   -5.1646 C   0  0  0  0  0  0  0  0  0  0  0  0
   -0.8534   -2.5125   -6.0169 C   0  0  0  0  0  0  0  0  0  0  0  0
   -1.6578   -3.2118   -6.9152 C   0  0  0  0  0  0  0  0  0  0  0  0
   -1.5439   -4.5884   -6.9612 C   0  0  0  0  0  0  0  0  0  0  0  0
   -0.6972   -5.2915   -6.1841 N   0  0  0  0  0  0  0  0  0  0  0  0
    0.0566   -4.5802   -5.3078 C   0  0  0  0  0  0  0  0  0  0  0  0
    2.0860   -2.9486   -3.7037 C   0  0  0  0  0  0  0  0  0  0  0  0
    2.7640   -2.3408   -2.6335 C   0  0  0  0  0  0  0  0  0  0  0  0
    3.0771    0.2896    1.2256 N   0  0  0  0  0  0  0  0  0  0  0  0
    2.7178    0.9602    2.4188 C   0  0  0  0  0  0  0  0  0  0  0  0
    1.4313    1.4443    2.6807 C   0  0  0  0  0  0  0  0  0  0  0  0
    1.1140    2.0850    3.8873 C   0  0  0  0  0  0  0  0  0  0  0  0
   -0.2884    2.5856    4.1437 C   0  0  0  0  0  0  0  0  0  0  0  0
   -1.1635    2.3422    3.1327 F   0  0  0  0  0  0  0  0  0  0  0  0
   -0.8367    2.0228    5.2568 F   0  0  0  0  0  0  0  0  0  0  0  0
   -0.3238    3.9320    4.3540 F   0  0  0  0  0  0  0  0  0  0  0  0
    2.1158    2.2353    4.8541 C   0  0  0  0  0  0  0  0  0  0  0  0
    3.4111    1.7449    4.6257 C   0  0  0  0  0  0  0  0  0  0  0  0
    4.4826    1.8569    5.6822 C   0  0  0  0  0  0  0  0  0  0  0  0
    4.0662    2.4798    6.8181 F   0  0  0  0  0  0  0  0  0  0  0  0
    4.9477    0.6375    6.0714 F   0  0  0  0  0  0  0  0  0  0  0  0
    5.5700    2.5504    5.2478 F   0  0  0  0  0  0  0  0  0  0  0  0
    3.7018    1.1169    3.3999 C   0  0  0  0  0  0  0  0  0  0  0  0
    3.7007   -1.2250   -0.5412 H   0  0  0  0  0  0  0  0  0  0  0  0
    0.5339    0.1447   -2.0125 H   0  0  0  0  0  0  0  0  0  0  0  0
   -0.6492   -0.9366   -3.7736 H   0  0  0  0  0  0  0  0  0  0  0  0
   -0.9384   -1.4288   -5.9851 H   0  0  0  0  0  0  0  0  0  0  0  0
   -2.3603   -2.6907   -7.5557 H   0  0  0  0  0  0  0  0  0  0  0  0
   -2.1521   -5.1785   -7.6397 H   0  0  0  0  0  0  0  0  0  0  0  0
    0.6880   -5.2010   -4.6778 H   0  0  0  0  0  0  0  0  0  0  0  0
    2.5534   -3.8073   -4.1825 H   0  0  0  0  0  0  0  0  0  0  0  0
    3.7138   -2.7619   -2.3131 H   0  0  0  0  0  0  0  0  0  0  0  0
    4.0386    0.0005    1.1337 H   0  0  0  0  0  0  0  0  0  0  0  0
    0.6272    1.3353    1.9583 H   0  0  0  0  0  0  0  0  0  0  0  0
    1.8769    2.7288    5.7975 H   0  0  0  0  0  0  0  0  0  0  0  0
    4.7092    0.7385    3.2319 H   0  0  0  0  0  0  0  0  0  0  0  0
  1  2  2  0  0  0  0
  2  3  1  0  0  0  0
  2 16  1  0  0  0  0
  3  4  1  0  0  0  0
  3 31  1  0  0  0  0
  4  5  1  0  0  0  0
  4 15  2  0  0  0  0
  5  6  2  0  0  0  0
  5 32  1  0  0  0  0
  6  7  1  0  0  0  0
  6 33  1  0  0  0  0
  7  8  1  0  0  0  0
  7 14  2  0  0  0  0
  8  9  1  0  0  0  0
  8 13  2  0  0  0  0
  9 10  2  0  0  0  0
  9 34  1  0  0  0  0
 10 11  1  0  0  0  0
 10 35  1  0  0  0  0
 11 12  2  0  0  0  0
 11 36  1  0  0  0  0
 12 13  1  0  0  0  0
 13 37  1  0  0  0  0
 14 15  1  0  0  0  0
 14 38  1  0  0  0  0
 15 39  1  0  0  0  0
 16 17  1  0  0  0  0
 16 40  1  0  0  0  0
 17 18  1  0  0  0  0
 17 30  2  0  0  0  0
 18 19  2  0  0  0  0
 18 41  1  0  0  0  0
 19 20  1  0  0  0  0
 19 24  1  0  0  0  0
 20 21  1  0  0  0  0
 20 22  1  0  0  0  0
 20 23  1  0  0  0  0
 24 25  2  0  0  0  0
 24 42  1  0  0  0  0
 25 26  1  0  0  0  0
 25 30  1  0  0  0  0
 26 27  1  0  0  0  0
 26 28  1  0  0  0  0
 26 29  1  0  0  0  0
 30 43  1  0  0  0  0
M  END
$$$$
