CHEMBL3706829
 OpenBabel04072215373D

 43 45  0  0  0  0  0  0  0  0999 V2000
    1.0811    0.0937   -0.9133 C   0  0  0  0  0  0  0  0  0  0  0  0
    2.3405   -0.0647   -0.2901 O   0  0  0  0  0  0  0  0  0  0  0  0
    2.8319   -1.4078   -0.3368 C   0  0  0  0  0  0  0  0  0  0  0  0
    4.1493   -1.3800    0.4249 C   0  0  0  0  0  0  0  0  0  0  0  0
    4.8104   -2.6273    0.4569 O   0  0  0  0  0  0  0  0  0  0  0  0
    6.1661   -2.6303    0.6761 C   0  0  0  0  0  0  0  0  0  0  0  0
    6.7436   -3.8209    0.1677 C   0  0  0  0  0  0  0  0  0  0  0  0
    8.1076   -4.0838    0.1783 C   0  0  0  0  0  0  0  0  0  0  0  0
    8.5809   -5.1992   -0.3982 N   0  0  0  0  0  0  0  0  0  0  0  0
    9.9077   -5.3781   -0.3822 C   0  0  0  0  0  0  0  0  0  0  0  0
   10.8059   -4.5632    0.1806 N   0  0  0  0  0  0  0  0  0  0  0  0
   10.3211   -3.4567    0.7747 C   0  0  0  0  0  0  0  0  0  0  0  0
   11.2244   -2.5762    1.4329 N   0  0  0  0  0  0  0  0  0  0  0  0
   12.6064   -2.6814    1.3183 C   0  0  0  0  0  0  0  0  0  0  0  0
   13.2815   -2.7736    0.1658 C   0  0  0  0  0  0  0  0  0  0  0  0
   14.7437   -2.8957    0.1131 C   0  0  0  0  0  0  0  0  0  0  0  0
   15.3444   -2.8965   -0.9517 O   0  0  0  0  0  0  0  0  0  0  0  0
   15.4638   -3.0358    1.3809 C   0  0  0  0  0  0  0  0  0  0  0  0
   14.8315   -2.9170    2.5505 C   0  0  0  0  0  0  0  0  0  0  0  0
   15.7542   -3.1090    4.1704 Br  0  0  0  0  0  0  0  0  0  0  0  0
   13.3705   -2.6323    2.6097 C   0  0  0  0  0  0  0  0  0  0  0  0
   12.7724   -2.3814    3.6549 O   0  0  0  0  0  0  0  0  0  0  0  0
    8.9496   -3.1455    0.7685 C   0  0  0  0  0  0  0  0  0  0  0  0
    8.3912   -1.9529    1.2875 C   0  0  0  0  0  0  0  0  0  0  0  0
    7.0143   -1.6737    1.2443 C   0  0  0  0  0  0  0  0  0  0  0  0
    6.7818   -0.3907    1.6475 O   0  0  0  0  0  0  0  0  0  0  0  0
    5.7302   -0.0787    2.5439 C   0  0  0  0  0  0  0  0  0  0  0  0
    0.8009    1.1480   -0.8329 H   0  0  0  0  0  0  0  0  0  0  0  0
    0.3240   -0.5080   -0.4037 H   0  0  0  0  0  0  0  0  0  0  0  0
    1.1413   -0.1733   -1.9713 H   0  0  0  0  0  0  0  0  0  0  0  0
    2.9777   -1.7359   -1.3711 H   0  0  0  0  0  0  0  0  0  0  0  0
    2.1240   -2.0902    0.1499 H   0  0  0  0  0  0  0  0  0  0  0  0
    3.8647   -1.1239    1.4451 H   0  0  0  0  0  0  0  0  0  0  0  0
    4.7823   -0.6015   -0.0139 H   0  0  0  0  0  0  0  0  0  0  0  0
    6.0895   -4.5562   -0.3020 H   0  0  0  0  0  0  0  0  0  0  0  0
   10.2919   -6.2670   -0.8703 H   0  0  0  0  0  0  0  0  0  0  0  0
   10.9524   -2.4876    2.4173 H   0  0  0  0  0  0  0  0  0  0  0  0
   12.7713   -2.7715   -0.7907 H   0  0  0  0  0  0  0  0  0  0  0  0
   16.5314   -3.2265    1.3184 H   0  0  0  0  0  0  0  0  0  0  0  0
    9.0540   -1.1887    1.6918 H   0  0  0  0  0  0  0  0  0  0  0  0
    6.1190    0.5522    3.3487 H   0  0  0  0  0  0  0  0  0  0  0  0
    5.2530   -0.9523    2.9954 H   0  0  0  0  0  0  0  0  0  0  0  0
    5.0105    0.5466    2.0039 H   0  0  0  0  0  0  0  0  0  0  0  0
  1  2  1  0  0  0  0
  1 28  1  0  0  0  0
  1 29  1  0  0  0  0
  1 30  1  0  0  0  0
  2  3  1  0  0  0  0
  3  4  1  0  0  0  0
  3 31  1  0  0  0  0
  3 32  1  0  0  0  0
  4  5  1  0  0  0  0
  4 33  1  0  0  0  0
  4 34  1  0  0  0  0
  5  6  1  0  0  0  0
  6  7  1  0  0  0  0
  6 25  2  0  0  0  0
  7  8  2  0  0  0  0
  7 35  1  0  0  0  0
  8  9  1  0  0  0  0
  8 23  1  0  0  0  0
  9 10  2  0  0  0  0
 10 11  1  0  0  0  0
 10 36  1  0  0  0  0
 11 12  2  0  0  0  0
 12 13  1  0  0  0  0
 12 23  1  0  0  0  0
 13 14  1  0  0  0  0
 13 37  1  0  0  0  0
 14 15  2  0  0  0  0
 14 21  1  0  0  0  0
 15 16  1  0  0  0  0
 15 38  1  0  0  0  0
 16 17  2  0  0  0  0
 16 18  1  0  0  0  0
 18 19  2  0  0  0  0
 18 39  1  0  0  0  0
 19 20  1  0  0  0  0
 19 21  1  0  0  0  0
 21 22  2  0  0  0  0
 23 24  2  0  0  0  0
 24 25  1  0  0  0  0
 24 40  1  0  0  0  0
 25 26  1  0  0  0  0
 26 27  1  0  0  0  0
 27 41  1  0  0  0  0
 27 42  1  0  0  0  0
 27 43  1  0  0  0  0
M  END
$$$$
