CHEMBL1940868
 OpenBabel04072215363D

 33 35  0  0  0  0  0  0  0  0999 V2000
   -1.4723    2.6978    0.0048 C   0  0  0  0  0  0  0  0  0  0  0  0
   -1.7154    1.2106    0.0025 C   0  0  0  0  0  0  0  0  0  0  0  0
   -3.0311    0.7221    0.0004 C   0  0  0  0  0  0  0  0  0  0  0  0
   -3.2679   -0.6485   -0.0001 C   0  0  0  0  0  0  0  0  0  0  0  0
   -2.1954   -1.5358   -0.0076 C   0  0  0  0  0  0  0  0  0  0  0  0
   -0.8724   -1.0551   -0.0110 C   0  0  0  0  0  0  0  0  0  0  0  0
    0.2343   -1.9293   -0.0278 C   0  0  0  0  0  0  0  0  0  0  0  0
    1.5450   -1.4362   -0.0287 C   0  0  0  0  0  0  0  0  0  0  0  0
    2.6497   -2.4171   -0.0196 C   0  0  0  0  0  0  0  0  0  0  0  0
    3.8326   -2.2465   -0.6306 C   0  0  0  0  0  0  0  0  0  0  0  0
    4.9004   -3.2806   -0.5374 C   0  0  0  0  0  0  0  0  0  0  0  0
    4.6534   -4.4483   -0.2653 O   0  0  0  0  0  0  0  0  0  0  0  0
    6.2404   -2.7588   -0.8001 C   0  0  0  0  0  0  0  0  0  0  0  0
    6.7342   -1.4462   -0.4451 C   0  0  0  0  0  0  0  0  0  0  0  0
    8.0407   -1.2690   -0.8204 C   0  0  0  0  0  0  0  0  0  0  0  0
    8.9891    0.1425   -0.5884 Cl  0  0  0  0  0  0  0  0  0  0  0  0
    8.7090   -2.6218   -1.5765 S   0  0  0  0  0  0  0  0  0  0  0  0
    7.2496   -3.4790   -1.4093 C   0  0  0  0  0  0  0  0  0  0  0  0
    7.1901   -5.0778   -2.0484 Cl  0  0  0  0  0  0  0  0  0  0  0  0
    1.6600   -0.0463    0.0317 C   0  0  0  0  0  0  0  0  0  0  0  0
    3.1581    0.7967    0.1889 Cl  0  0  0  0  0  0  0  0  0  0  0  0
    0.6220    0.8183    0.0289 N   0  0  0  0  0  0  0  0  0  0  0  0
   -0.6268    0.3329    0.0041 C   0  0  0  0  0  0  0  0  0  0  0  0
   -2.4110    3.2611   -0.0028 H   0  0  0  0  0  0  0  0  0  0  0  0
   -0.9040    2.9893   -0.8851 H   0  0  0  0  0  0  0  0  0  0  0  0
   -0.9161    2.9900    0.9019 H   0  0  0  0  0  0  0  0  0  0  0  0
   -3.8734    1.4101    0.0037 H   0  0  0  0  0  0  0  0  0  0  0  0
   -4.2899   -1.0229    0.0036 H   0  0  0  0  0  0  0  0  0  0  0  0
   -2.3976   -2.6050   -0.0089 H   0  0  0  0  0  0  0  0  0  0  0  0
    0.0594   -3.0047   -0.0420 H   0  0  0  0  0  0  0  0  0  0  0  0
    2.4529   -3.3448    0.5191 H   0  0  0  0  0  0  0  0  0  0  0  0
    4.0668   -1.3624   -1.2096 H   0  0  0  0  0  0  0  0  0  0  0  0
    6.1617   -0.6836    0.0703 H   0  0  0  0  0  0  0  0  0  0  0  0
  1  2  1  0  0  0  0
  1 24  1  0  0  0  0
  1 25  1  0  0  0  0
  1 26  1  0  0  0  0
  2  3  1  0  0  0  0
  2 23  2  0  0  0  0
  3  4  2  0  0  0  0
  3 27  1  0  0  0  0
  4  5  1  0  0  0  0
  4 28  1  0  0  0  0
  5  6  2  0  0  0  0
  5 29  1  0  0  0  0
  6  7  1  0  0  0  0
  6 23  1  0  0  0  0
  7  8  2  0  0  0  0
  7 30  1  0  0  0  0
  8  9  1  0  0  0  0
  8 20  1  0  0  0  0
  9 10  2  0  0  0  0
  9 31  1  0  0  0  0
 10 11  1  0  0  0  0
 10 32  1  0  0  0  0
 11 12  2  0  0  0  0
 11 13  1  0  0  0  0
 13 14  1  0  0  0  0
 13 18  2  0  0  0  0
 14 15  2  0  0  0  0
 14 33  1  0  0  0  0
 15 16  1  0  0  0  0
 15 17  1  0  0  0  0
 17 18  1  0  0  0  0
 18 19  1  0  0  0  0
 20 21  1  0  0  0  0
 20 22  2  0  0  0  0
 22 23  1  0  0  0  0
M  END
$$$$
