CHEMBL1277071
 OpenBabel04072215363D

 59 63  0  0  0  0  0  0  0  0999 V2000
    1.0554    0.5006    0.1495 C   0  0  0  0  0  0  0  0  0  0  0  0
    2.5119    0.2081    0.0349 C   0  0  0  0  0  0  0  0  0  0  0  0
    3.1830   -0.9848    0.2508 C   0  0  0  0  0  0  0  0  0  0  0  0
    2.6512   -2.2733    0.5146 C   0  0  0  0  0  0  0  0  0  0  0  0
    3.2669   -3.4595    0.6038 C   0  0  0  0  0  0  0  0  0  0  0  0
    4.7215   -3.8358    0.4986 C   0  0  0  0  0  0  0  0  0  0  0  0
    5.6853   -3.0977    0.4160 O   0  0  0  0  0  0  0  0  0  0  0  0
    4.7423   -5.2223    0.5407 N   0  0  0  0  0  0  0  0  0  0  0  0
    3.4654   -5.7470    0.7103 C   0  0  0  0  0  0  0  0  0  0  0  0
    3.1216   -7.0803    0.8239 C   0  0  0  0  0  0  0  0  0  0  0  0
    1.7728   -7.3780    1.0343 C   0  0  0  0  0  0  0  0  0  0  0  0
    0.8246   -6.3485    1.1164 C   0  0  0  0  0  0  0  0  0  0  0  0
   -0.4593   -6.6611    1.3353 F   0  0  0  0  0  0  0  0  0  0  0  0
    1.1825   -5.0086    0.9838 C   0  0  0  0  0  0  0  0  0  0  0  0
    2.5209   -4.7186    0.7782 C   0  0  0  0  0  0  0  0  0  0  0  0
    4.5321   -0.7168    0.1503 N   0  0  0  0  0  0  0  0  0  0  0  0
    4.7290    0.6083   -0.1735 C   0  0  0  0  0  0  0  0  0  0  0  0
    3.4836    1.1616   -0.3714 C   0  0  0  0  0  0  0  0  0  0  0  0
    3.2053    2.4957   -0.8674 C   0  0  0  0  0  0  0  0  0  0  0  0
    2.4489    2.6381   -1.8209 O   0  0  0  0  0  0  0  0  0  0  0  0
    3.7741    3.5382   -0.1470 N   0  0  0  0  0  0  0  0  0  0  0  0
    3.4220    4.9189   -0.5005 C   0  0  0  0  0  0  0  0  0  0  0  0
    1.8998    5.1704   -0.6964 C   0  0  0  0  0  0  0  0  0  0  0  0
    1.5193    6.5755   -0.9465 N   0  0  0  0  0  0  0  0  0  0  0  0
    1.7728    7.4710    0.1981 C   0  0  0  0  0  0  0  0  0  0  0  0
    0.8115    7.2634    1.3783 C   0  0  0  0  0  0  0  0  0  0  0  0
   -0.5538    7.4041    0.9693 O   0  0  0  0  0  0  0  0  0  0  0  0
   -0.8661    6.4848   -0.0855 C   0  0  0  0  0  0  0  0  0  0  0  0
    0.0798    6.6671   -1.2886 C   0  0  0  0  0  0  0  0  0  0  0  0
    4.8749    3.3029    0.7980 C   0  0  0  0  0  0  0  0  0  0  0  0
    6.1291    2.7164    0.1342 C   0  0  0  0  0  0  0  0  0  0  0  0
    6.0703    1.2391   -0.3111 C   0  0  0  0  0  0  0  0  0  0  0  0
    0.5602   -0.1884    0.8390 H   0  0  0  0  0  0  0  0  0  0  0  0
    0.5658    0.4446   -0.8258 H   0  0  0  0  0  0  0  0  0  0  0  0
    0.9057    1.5099    0.5541 H   0  0  0  0  0  0  0  0  0  0  0  0
    1.5661   -2.2804    0.5892 H   0  0  0  0  0  0  0  0  0  0  0  0
    5.5970   -5.7556    0.4924 H   0  0  0  0  0  0  0  0  0  0  0  0
    3.8615   -7.8697    0.7611 H   0  0  0  0  0  0  0  0  0  0  0  0
    1.4439   -8.4077    1.1422 H   0  0  0  0  0  0  0  0  0  0  0  0
    0.4207   -4.2419    1.0525 H   0  0  0  0  0  0  0  0  0  0  0  0
    5.2755   -1.3985    0.2784 H   0  0  0  0  0  0  0  0  0  0  0  0
    3.9790    5.1951   -1.4022 H   0  0  0  0  0  0  0  0  0  0  0  0
    3.7703    5.5483    0.3223 H   0  0  0  0  0  0  0  0  0  0  0  0
    1.3545    4.7406    0.1541 H   0  0  0  0  0  0  0  0  0  0  0  0
    1.5687    4.6229   -1.5811 H   0  0  0  0  0  0  0  0  0  0  0  0
    1.6540    8.4984   -0.1694 H   0  0  0  0  0  0  0  0  0  0  0  0
    2.8099    7.4033    0.5380 H   0  0  0  0  0  0  0  0  0  0  0  0
    1.0061    8.0232    2.1418 H   0  0  0  0  0  0  0  0  0  0  0  0
    0.9504    6.2831    1.8485 H   0  0  0  0  0  0  0  0  0  0  0  0
   -1.8980    6.6799   -0.3951 H   0  0  0  0  0  0  0  0  0  0  0  0
   -0.8323    5.4624    0.3077 H   0  0  0  0  0  0  0  0  0  0  0  0
   -0.0924    7.6631   -1.7154 H   0  0  0  0  0  0  0  0  0  0  0  0
   -0.1818    5.9521   -2.0800 H   0  0  0  0  0  0  0  0  0  0  0  0
    4.5142    2.6537    1.6044 H   0  0  0  0  0  0  0  0  0  0  0  0
    5.1372    4.2549    1.2721 H   0  0  0  0  0  0  0  0  0  0  0  0
    6.9658    2.8184    0.8382 H   0  0  0  0  0  0  0  0  0  0  0  0
    6.3980    3.3363   -0.7314 H   0  0  0  0  0  0  0  0  0  0  0  0
    6.8094    0.6696    0.2668 H   0  0  0  0  0  0  0  0  0  0  0  0
    6.3910    1.1745   -1.3589 H   0  0  0  0  0  0  0  0  0  0  0  0
  1  2  1  0  0  0  0
  1 33  1  0  0  0  0
  1 34  1  0  0  0  0
  1 35  1  0  0  0  0
  2  3  2  0  0  0  0
  2 18  1  0  0  0  0
  3  4  1  0  0  0  0
  3 16  1  0  0  0  0
  4  5  2  0  0  0  0
  4 36  1  0  0  0  0
  5  6  1  0  0  0  0
  5 15  1  0  0  0  0
  6  7  2  0  0  0  0
  6  8  1  0  0  0  0
  8  9  1  0  0  0  0
  8 37  1  0  0  0  0
  9 10  1  0  0  0  0
  9 15  2  0  0  0  0
 10 11  2  0  0  0  0
 10 38  1  0  0  0  0
 11 12  1  0  0  0  0
 11 39  1  0  0  0  0
 12 13  1  0  0  0  0
 12 14  2  0  0  0  0
 14 15  1  0  0  0  0
 14 40  1  0  0  0  0
 16 17  1  0  0  0  0
 16 41  1  0  0  0  0
 17 18  2  0  0  0  0
 17 32  1  0  0  0  0
 18 19  1  0  0  0  0
 19 20  2  0  0  0  0
 19 21  1  0  0  0  0
 21 22  1  0  0  0  0
 21 30  1  0  0  0  0
 22 23  1  0  0  0  0
 22 42  1  0  0  0  0
 22 43  1  0  0  0  0
 23 24  1  0  0  0  0
 23 44  1  0  0  0  0
 23 45  1  0  0  0  0
 24 25  1  0  0  0  0
 24 29  1  0  0  0  0
 25 26  1  0  0  0  0
 25 46  1  0  0  0  0
 25 47  1  0  0  0  0
 26 27  1  0  0  0  0
 26 48  1  0  0  0  0
 26 49  1  0  0  0  0
 27 28  1  0  0  0  0
 28 29  1  0  0  0  0
 28 50  1  0  0  0  0
 28 51  1  0  0  0  0
 29 52  1  0  0  0  0
 29 53  1  0  0  0  0
 30 31  1  0  0  0  0
 30 54  1  0  0  0  0
 30 55  1  0  0  0  0
 31 32  1  0  0  0  0
 31 56  1  0  0  0  0
 31 57  1  0  0  0  0
 32 58  1  0  0  0  0
 32 59  1  0  0  0  0
M  END
$$$$
