CHEMBL2071202
 OpenBabel04072215363D

 43 46  0  0  1  0  0  0  0  0999 V2000
    6.4385  -10.1366   -4.3325 C   0  0  0  0  0  0  0  0  0  0  0  0
    6.8807   -9.6049   -3.0674 N   0  0  0  0  0  0  0  0  0  0  0  0
    7.3887  -10.3034   -2.0071 C   0  0  0  0  0  0  0  0  0  0  0  0
    7.6324   -9.3702   -1.0308 C   0  0  0  0  0  0  0  0  0  0  0  0
    8.1453   -9.6001    0.1938 N   0  0  0  0  0  0  0  0  0  0  0  0
    7.8171   -8.9595    1.3920 C   0  0  0  0  0  0  0  0  0  0  0  0
    8.5750   -9.2344    2.4600 N   0  0  0  0  0  0  0  0  0  0  0  0
    8.1842   -8.6916    3.6338 C   0  0  0  0  0  0  0  0  0  0  0  0
    7.0359   -7.9471    3.7919 C   0  0  0  0  0  0  0  0  0  0  0  0
    6.5220   -7.4448    5.3520 Cl  0  0  0  0  0  0  0  0  0  0  0  0
    6.2847   -7.7420    2.6440 C   0  0  0  0  0  0  0  0  0  0  0  0
    5.0295   -7.0440    2.6877 N   0  0  0  0  0  0  0  0  0  0  0  0
    4.0266   -7.7957    1.8979 C   0  0  1  0  0  0  0  0  0  0  0  0
    2.5292   -7.4834    2.1630 C   0  0  1  0  0  0  0  0  0  0  0  0
    2.1261   -6.0660    2.5723 C   0  0  0  0  0  0  0  0  0  0  0  0
    3.1083   -5.1452    2.7611 N   0  0  0  0  0  0  0  0  0  0  0  0
    0.9500   -5.7398    2.7139 O   0  0  0  0  0  0  0  0  0  0  0  0
    1.9178   -7.7733    0.7560 C   0  0  2  0  0  0  0  0  0  0  0  0
    2.3248   -9.1501    0.2321 C   0  0  0  0  0  0  0  0  0  0  0  0
    3.6296   -9.0899   -0.0923 C   0  0  0  0  0  0  0  0  0  0  0  0
    4.1088   -7.7197    0.3365 C   0  0  1  0  0  0  0  0  0  0  0  0
    2.8657   -6.9414   -0.1117 C   0  0  0  0  0  0  0  0  0  0  0  0
    6.7115   -8.2021    1.4555 N   0  0  0  0  0  0  0  0  0  0  0  0
    7.2604   -8.1381   -1.6048 C   0  0  0  0  0  0  0  0  0  0  0  0
    6.8086   -8.2778   -2.8548 N   0  0  0  0  0  0  0  0  0  0  0  0
    6.4581  -11.2287   -4.2984 H   0  0  0  0  0  0  0  0  0  0  0  0
    7.1134   -9.7711   -5.1103 H   0  0  0  0  0  0  0  0  0  0  0  0
    5.4183   -9.7888   -4.5155 H   0  0  0  0  0  0  0  0  0  0  0  0
    7.4900  -11.3797   -2.0281 H   0  0  0  0  0  0  0  0  0  0  0  0
    8.6870  -10.4275    0.4045 H   0  0  0  0  0  0  0  0  0  0  0  0
    8.8356   -8.9110    4.4746 H   0  0  0  0  0  0  0  0  0  0  0  0
    4.7443   -7.0548    3.6735 H   0  0  0  0  0  0  0  0  0  0  0  0
    4.1546   -8.8470    2.2189 H   0  0  0  0  0  0  0  0  0  0  0  0
    2.1314   -8.1597    2.9283 H   0  0  0  0  0  0  0  0  0  0  0  0
    4.0835   -5.3537    2.5517 H   0  0  0  0  0  0  0  0  0  0  0  0
    2.8445   -4.1843    2.9342 H   0  0  0  0  0  0  0  0  0  0  0  0
    0.8614   -7.5365    0.6196 H   0  0  0  0  0  0  0  0  0  0  0  0
    1.6928  -10.0216    0.1729 H   0  0  0  0  0  0  0  0  0  0  0  0
    4.2691   -9.8822   -0.4494 H   0  0  0  0  0  0  0  0  0  0  0  0
    5.0248   -7.3608   -0.1255 H   0  0  0  0  0  0  0  0  0  0  0  0
    2.6557   -7.0363   -1.1870 H   0  0  0  0  0  0  0  0  0  0  0  0
    2.8941   -5.8768    0.1290 H   0  0  0  0  0  0  0  0  0  0  0  0
    7.3193   -7.1469   -1.1738 H   0  0  0  0  0  0  0  0  0  0  0  0
  1  2  1  0  0  0  0
  1 26  1  0  0  0  0
  1 27  1  0  0  0  0
  1 28  1  0  0  0  0
  2  3  1  0  0  0  0
  2 25  1  0  0  0  0
  3  4  2  0  0  0  0
  3 29  1  0  0  0  0
  4  5  1  0  0  0  0
  4 24  1  0  0  0  0
  5  6  1  0  0  0  0
  5 30  1  0  0  0  0
  6  7  1  0  0  0  0
  6 23  2  0  0  0  0
  7  8  2  0  0  0  0
  8  9  1  0  0  0  0
  8 31  1  0  0  0  0
  9 10  1  0  0  0  0
  9 11  2  0  0  0  0
 11 12  1  0  0  0  0
 11 23  1  0  0  0  0
 12 32  1  0  0  0  0
 13 14  1  0  0  0  0
 13 21  1  0  0  0  0
 13 12  1  0  0  0  0
 13 33  1  1  0  0  0
 14 15  1  0  0  0  0
 14 18  1  0  0  0  0
 14 34  1  1  0  0  0
 15 16  1  0  0  0  0
 15 17  2  0  0  0  0
 16 35  1  0  0  0  0
 16 36  1  0  0  0  0
 18 19  1  0  0  0  0
 18 22  1  0  0  0  0
 18 37  1  6  0  0  0
 19 20  2  0  0  0  0
 19 38  1  0  0  0  0
 20 21  1  0  0  0  0
 20 39  1  0  0  0  0
 21 22  1  0  0  0  0
 21 40  1  6  0  0  0
 22 41  1  0  0  0  0
 22 42  1  0  0  0  0
 24 25  2  0  0  0  0
 24 43  1  0  0  0  0
M  END
$$$$
