CHEMBL3906088
 OpenBabel04072215373D

 74 78  0  0  0  0  0  0  0  0999 V2000
    2.4987    7.6546    4.1871 C   0  0  0  0  0  0  0  0  0  0  0  0
    1.4750    6.6425    3.7643 C   0  0  0  0  0  0  0  0  0  0  0  0
    1.8842    5.4046    3.2569 C   0  0  0  0  0  0  0  0  0  0  0  0
    0.9379    4.4546    2.8942 C   0  0  0  0  0  0  0  0  0  0  0  0
   -0.4213    4.7395    3.0143 C   0  0  0  0  0  0  0  0  0  0  0  0
   -1.2590    3.7234    2.7804 F   0  0  0  0  0  0  0  0  0  0  0  0
   -0.8658    5.9951    3.4545 C   0  0  0  0  0  0  0  0  0  0  0  0
   -2.2270    6.3961    3.5089 N   0  0  0  0  0  0  0  0  0  0  0  0
   -3.2465    5.8185    2.7730 C   0  0  0  0  0  0  0  0  0  0  0  0
   -3.1082    4.9182    1.9585 O   0  0  0  0  0  0  0  0  0  0  0  0
   -4.4800    6.4219    3.0047 N   0  0  0  0  0  0  0  0  0  0  0  0
   -5.6315    5.8394    2.4160 C   0  0  0  0  0  0  0  0  0  0  0  0
   -5.8789    4.4687    2.5613 C   0  0  0  0  0  0  0  0  0  0  0  0
   -6.9629    3.8733    1.9196 C   0  0  0  0  0  0  0  0  0  0  0  0
   -7.8475    4.6571    1.1773 C   0  0  0  0  0  0  0  0  0  0  0  0
   -8.9683    4.1559    0.5513 O   0  0  0  0  0  0  0  0  0  0  0  0
   -9.6876    3.1520    1.1701 C   0  0  0  0  0  0  0  0  0  0  0  0
   -9.8254    3.0425    2.5554 C   0  0  0  0  0  0  0  0  0  0  0  0
  -10.5224    1.9733    3.0808 C   0  0  0  0  0  0  0  0  0  0  0  0
  -11.1554    1.0333    2.3595 N   0  0  0  0  0  0  0  0  0  0  0  0
  -11.1088    1.1944    1.0111 C   0  0  0  0  0  0  0  0  0  0  0  0
  -11.7835    0.3641    0.0736 C   0  0  0  0  0  0  0  0  0  0  0  0
  -11.6213    0.7861   -1.2288 C   0  0  0  0  0  0  0  0  0  0  0  0
  -12.2533    0.2088   -2.4092 C   0  0  0  0  0  0  0  0  0  0  0  0
  -12.9701   -0.7871   -2.3519 O   0  0  0  0  0  0  0  0  0  0  0  0
  -12.0057    0.8683   -3.5968 N   0  0  0  0  0  0  0  0  0  0  0  0
  -12.4627    0.3735   -4.8790 C   0  0  0  0  0  0  0  0  0  0  0  0
  -13.9833    0.4327   -5.0402 C   0  0  0  0  0  0  0  0  0  0  0  0
  -14.4478   -0.1355   -6.3893 C   0  0  0  0  0  0  0  0  0  0  0  0
  -13.9606   -1.4914   -6.6645 N   0  0  0  0  0  0  0  0  0  0  0  0
  -14.3951   -2.4843   -5.6630 C   0  0  0  0  0  0  0  0  0  0  0  0
  -13.7841   -3.8696   -5.9691 C   0  0  0  0  0  0  0  0  0  0  0  0
  -14.1294   -4.4084   -7.2994 N   0  0  0  0  0  0  0  0  0  0  0  0
  -15.5186   -4.8553   -7.3461 C   0  0  0  0  0  0  0  0  0  0  0  0
  -13.8459   -3.3827   -8.3250 C   0  0  0  0  0  0  0  0  0  0  0  0
  -14.3567   -1.9513   -8.0097 C   0  0  0  0  0  0  0  0  0  0  0  0
  -10.5596    2.1255   -1.3181 S   0  0  0  0  0  0  0  0  0  0  0  0
  -10.3972    2.2219    0.3901 C   0  0  0  0  0  0  0  0  0  0  0  0
   -7.5889    6.0199    1.0067 C   0  0  0  0  0  0  0  0  0  0  0  0
   -6.4964    6.6188    1.6462 C   0  0  0  0  0  0  0  0  0  0  0  0
    0.0977    6.9318    3.8611 C   0  0  0  0  0  0  0  0  0  0  0  0
    3.5160    7.2685    4.0601 H   0  0  0  0  0  0  0  0  0  0  0  0
    2.3679    7.9043    5.2443 H   0  0  0  0  0  0  0  0  0  0  0  0
    2.4072    8.5612    3.5819 H   0  0  0  0  0  0  0  0  0  0  0  0
    2.9403    5.1630    3.1585 H   0  0  0  0  0  0  0  0  0  0  0  0
    1.2387    3.4769    2.5291 H   0  0  0  0  0  0  0  0  0  0  0  0
   -2.4426    7.2555    3.9925 H   0  0  0  0  0  0  0  0  0  0  0  0
   -4.4507    7.4318    3.0121 H   0  0  0  0  0  0  0  0  0  0  0  0
   -5.2157    3.8485    3.1607 H   0  0  0  0  0  0  0  0  0  0  0  0
   -7.1007    2.7999    2.0147 H   0  0  0  0  0  0  0  0  0  0  0  0
   -9.3741    3.7632    3.2290 H   0  0  0  0  0  0  0  0  0  0  0  0
  -10.5892    1.8419    4.1582 H   0  0  0  0  0  0  0  0  0  0  0  0
  -12.4007   -0.4814    0.3519 H   0  0  0  0  0  0  0  0  0  0  0  0
  -11.2762    1.5695   -3.5862 H   0  0  0  0  0  0  0  0  0  0  0  0
  -12.0800   -0.6461   -4.9870 H   0  0  0  0  0  0  0  0  0  0  0  0
  -11.9880    0.9976   -5.6441 H   0  0  0  0  0  0  0  0  0  0  0  0
  -14.3163    1.4752   -4.9586 H   0  0  0  0  0  0  0  0  0  0  0  0
  -14.4883   -0.0951   -4.2240 H   0  0  0  0  0  0  0  0  0  0  0  0
  -14.0727    0.5366   -7.1721 H   0  0  0  0  0  0  0  0  0  0  0  0
  -15.5433   -0.0964   -6.4359 H   0  0  0  0  0  0  0  0  0  0  0  0
  -15.4900   -2.5467   -5.6283 H   0  0  0  0  0  0  0  0  0  0  0  0
  -14.0582   -2.2042   -4.6602 H   0  0  0  0  0  0  0  0  0  0  0  0
  -14.0673   -4.5815   -5.1844 H   0  0  0  0  0  0  0  0  0  0  0  0
  -12.6899   -3.7882   -5.9080 H   0  0  0  0  0  0  0  0  0  0  0  0
  -15.7118   -5.5863   -6.5523 H   0  0  0  0  0  0  0  0  0  0  0  0
  -15.7179   -5.3676   -8.2933 H   0  0  0  0  0  0  0  0  0  0  0  0
  -16.2415   -4.0404   -7.2403 H   0  0  0  0  0  0  0  0  0  0  0  0
  -14.2373   -3.7036   -9.2985 H   0  0  0  0  0  0  0  0  0  0  0  0
  -12.7557   -3.3346   -8.4490 H   0  0  0  0  0  0  0  0  0  0  0  0
  -15.4486   -1.9232   -8.1172 H   0  0  0  0  0  0  0  0  0  0  0  0
  -13.9390   -1.2719   -8.7629 H   0  0  0  0  0  0  0  0  0  0  0  0
   -8.2312    6.6151    0.3628 H   0  0  0  0  0  0  0  0  0  0  0  0
   -6.2973    7.6725    1.4781 H   0  0  0  0  0  0  0  0  0  0  0  0
   -0.2128    7.9073    4.2322 H   0  0  0  0  0  0  0  0  0  0  0  0
  1  2  1  0  0  0  0
  1 42  1  0  0  0  0
  1 43  1  0  0  0  0
  1 44  1  0  0  0  0
  2  3  1  0  0  0  0
  2 41  2  0  0  0  0
  3  4  2  0  0  0  0
  3 45  1  0  0  0  0
  4  5  1  0  0  0  0
  4 46  1  0  0  0  0
  5  6  1  0  0  0  0
  5  7  2  0  0  0  0
  7  8  1  0  0  0  0
  7 41  1  0  0  0  0
  8  9  1  0  0  0  0
  8 47  1  0  0  0  0
  9 10  2  0  0  0  0
  9 11  1  0  0  0  0
 11 12  1  0  0  0  0
 11 48  1  0  0  0  0
 12 13  1  0  0  0  0
 12 40  2  0  0  0  0
 13 14  2  0  0  0  0
 13 49  1  0  0  0  0
 14 15  1  0  0  0  0
 14 50  1  0  0  0  0
 15 16  1  0  0  0  0
 15 39  2  0  0  0  0
 16 17  1  0  0  0  0
 17 18  1  0  0  0  0
 17 38  2  0  0  0  0
 18 19  2  0  0  0  0
 18 51  1  0  0  0  0
 19 20  1  0  0  0  0
 19 52  1  0  0  0  0
 20 21  2  0  0  0  0
 21 22  1  0  0  0  0
 21 38  1  0  0  0  0
 22 23  2  0  0  0  0
 22 53  1  0  0  0  0
 23 24  1  0  0  0  0
 23 37  1  0  0  0  0
 24 25  2  0  0  0  0
 24 26  1  0  0  0  0
 26 27  1  0  0  0  0
 26 54  1  0  0  0  0
 27 28  1  0  0  0  0
 27 55  1  0  0  0  0
 27 56  1  0  0  0  0
 28 29  1  0  0  0  0
 28 57  1  0  0  0  0
 28 58  1  0  0  0  0
 29 30  1  0  0  0  0
 29 59  1  0  0  0  0
 29 60  1  0  0  0  0
 30 31  1  0  0  0  0
 30 36  1  0  0  0  0
 31 32  1  0  0  0  0
 31 61  1  0  0  0  0
 31 62  1  0  0  0  0
 32 33  1  0  0  0  0
 32 63  1  0  0  0  0
 32 64  1  0  0  0  0
 33 34  1  0  0  0  0
 33 35  1  0  0  0  0
 34 65  1  0  0  0  0
 34 66  1  0  0  0  0
 34 67  1  0  0  0  0
 35 36  1  0  0  0  0
 35 68  1  0  0  0  0
 35 69  1  0  0  0  0
 36 70  1  0  0  0  0
 36 71  1  0  0  0  0
 37 38  1  0  0  0  0
 39 40  1  0  0  0  0
 39 72  1  0  0  0  0
 40 73  1  0  0  0  0
 41 74  1  0  0  0  0
M  END
$$$$
