CHEMBL1980521
 OpenBabel04072215363D

 53 56  0  0  0  0  0  0  0  0999 V2000
    4.3744   -1.4184    0.5359 C   0  0  0  0  0  0  0  0  0  0  0  0
    3.3055   -0.5066    0.2705 O   0  0  0  0  0  0  0  0  0  0  0  0
    3.6760    0.8097    0.2309 C   0  0  0  0  0  0  0  0  0  0  0  0
    2.8278    1.6774   -0.4538 C   0  0  0  0  0  0  0  0  0  0  0  0
    3.2299    2.9933   -0.7296 C   0  0  0  0  0  0  0  0  0  0  0  0
    4.5111    3.4350   -0.3863 C   0  0  0  0  0  0  0  0  0  0  0  0
    5.1130    4.7000   -0.8756 C   0  0  0  0  0  0  0  0  0  0  0  0
    5.6931    5.5237    0.1034 C   0  0  0  0  0  0  0  0  0  0  0  0
    6.3956    6.6578   -0.2584 C   0  0  0  0  0  0  0  0  0  0  0  0
    7.0899    7.5198    0.7260 C   0  0  0  0  0  0  0  0  0  0  0  0
    8.1868    8.3121    0.3355 C   0  0  0  0  0  0  0  0  0  0  0  0
    8.8759    9.1147    1.2517 C   0  0  0  0  0  0  0  0  0  0  0  0
    8.4820    9.1454    2.5848 C   0  0  0  0  0  0  0  0  0  0  0  0
    7.3980    8.3814    3.0007 C   0  0  0  0  0  0  0  0  0  0  0  0
    6.7094    7.5810    2.0815 C   0  0  0  0  0  0  0  0  0  0  0  0
    6.5137    6.9991   -1.5552 N   0  0  0  0  0  0  0  0  0  0  0  0
    5.9627    6.2701   -2.5211 C   0  0  0  0  0  0  0  0  0  0  0  0
    6.1447    6.7637   -3.7308 N   0  0  0  0  0  0  0  0  0  0  0  0
    5.5803    6.1462   -4.7639 C   0  0  0  0  0  0  0  0  0  0  0  0
    4.8373    5.0485   -4.6867 N   0  0  0  0  0  0  0  0  0  0  0  0
    4.7420    4.5037   -3.4647 C   0  0  0  0  0  0  0  0  0  0  0  0
    3.8822    3.3909   -3.4398 N   0  0  0  0  0  0  0  0  0  0  0  0
    4.3775    2.1099   -3.6132 C   0  0  0  0  0  0  0  0  0  0  0  0
    5.5686    1.8098   -3.7184 O   0  0  0  0  0  0  0  0  0  0  0  0
    3.2532    1.0390   -3.5575 C   0  0  0  0  0  0  0  0  0  0  0  0
    2.9404    0.2592   -4.7051 O   0  0  0  0  0  0  0  0  0  0  0  0
    1.9798   -0.7564   -4.3644 C   0  0  0  0  0  0  0  0  0  0  0  0
    0.5902   -0.1592   -4.1758 C   0  0  0  0  0  0  0  0  0  0  0  0
   -0.1612   -0.4058   -3.2473 O   0  0  0  0  0  0  0  0  0  0  0  0
    0.2869    0.7281   -5.1592 O   0  0  0  0  0  0  0  0  0  0  0  0
    5.2450    5.0897   -2.2668 C   0  0  0  0  0  0  0  0  0  0  0  0
    5.2535    2.6085    0.4780 C   0  0  0  0  0  0  0  0  0  0  0  0
    4.8346    1.3190    0.7979 C   0  0  0  0  0  0  0  0  0  0  0  0
    4.0029   -2.4372    0.3970 H   0  0  0  0  0  0  0  0  0  0  0  0
    4.7074   -1.3275    1.5746 H   0  0  0  0  0  0  0  0  0  0  0  0
    5.2141   -1.2729   -0.1566 H   0  0  0  0  0  0  0  0  0  0  0  0
    1.8867    1.3052   -0.8550 H   0  0  0  0  0  0  0  0  0  0  0  0
    2.5613    3.6332   -1.3022 H   0  0  0  0  0  0  0  0  0  0  0  0
    5.6320    5.2386    1.1492 H   0  0  0  0  0  0  0  0  0  0  0  0
    8.5196    8.3021   -0.7012 H   0  0  0  0  0  0  0  0  0  0  0  0
    9.7198    9.7121    0.9180 H   0  0  0  0  0  0  0  0  0  0  0  0
    9.0166    9.7691    3.2965 H   0  0  0  0  0  0  0  0  0  0  0  0
    7.0811    8.4068    4.0405 H   0  0  0  0  0  0  0  0  0  0  0  0
    5.8568    7.0168    2.4494 H   0  0  0  0  0  0  0  0  0  0  0  0
    5.7293    6.5826   -5.7440 H   0  0  0  0  0  0  0  0  0  0  0  0
    3.0563    3.5536   -4.0025 H   0  0  0  0  0  0  0  0  0  0  0  0
    2.3312    1.5539   -3.2558 H   0  0  0  0  0  0  0  0  0  0  0  0
    3.5386    0.3632   -2.7444 H   0  0  0  0  0  0  0  0  0  0  0  0
    2.2798   -1.3024   -3.4621 H   0  0  0  0  0  0  0  0  0  0  0  0
    1.9230   -1.4727   -5.1896 H   0  0  0  0  0  0  0  0  0  0  0  0
    1.0355    0.8009   -5.7909 H   0  0  0  0  0  0  0  0  0  0  0  0
    6.2051    2.9409    0.8886 H   0  0  0  0  0  0  0  0  0  0  0  0
    5.4617    0.7257    1.4543 H   0  0  0  0  0  0  0  0  0  0  0  0
  1  2  1  0  0  0  0
  1 34  1  0  0  0  0
  1 35  1  0  0  0  0
  1 36  1  0  0  0  0
  2  3  1  0  0  0  0
  3  4  1  0  0  0  0
  3 33  2  0  0  0  0
  4  5  2  0  0  0  0
  4 37  1  0  0  0  0
  5  6  1  0  0  0  0
  5 38  1  0  0  0  0
  6  7  1  0  0  0  0
  6 32  2  0  0  0  0
  7  8  1  0  0  0  0
  7 31  2  0  0  0  0
  8  9  2  0  0  0  0
  8 39  1  0  0  0  0
  9 10  1  0  0  0  0
  9 16  1  0  0  0  0
 10 11  1  0  0  0  0
 10 15  2  0  0  0  0
 11 12  2  0  0  0  0
 11 40  1  0  0  0  0
 12 13  1  0  0  0  0
 12 41  1  0  0  0  0
 13 14  2  0  0  0  0
 13 42  1  0  0  0  0
 14 15  1  0  0  0  0
 14 43  1  0  0  0  0
 15 44  1  0  0  0  0
 16 17  2  0  0  0  0
 17 18  1  0  0  0  0
 17 31  1  0  0  0  0
 18 19  2  0  0  0  0
 19 20  1  0  0  0  0
 19 45  1  0  0  0  0
 20 21  2  0  0  0  0
 21 22  1  0  0  0  0
 21 31  1  0  0  0  0
 22 23  1  0  0  0  0
 22 46  1  0  0  0  0
 23 24  2  0  0  0  0
 23 25  1  0  0  0  0
 25 26  1  0  0  0  0
 25 47  1  0  0  0  0
 25 48  1  0  0  0  0
 26 27  1  0  0  0  0
 27 28  1  0  0  0  0
 27 49  1  0  0  0  0
 27 50  1  0  0  0  0
 28 29  2  0  0  0  0
 28 30  1  0  0  0  0
 30 51  1  0  0  0  0
 32 33  1  0  0  0  0
 32 52  1  0  0  0  0
 33 53  1  0  0  0  0
M  END
$$$$
