CHEMBL405666
 OpenBabel04072215373D

 75 79  0  0  0  0  0  0  0  0999 V2000
    2.5438    0.3132    0.0800 C   0  0  0  0  0  0  0  0  0  0  0  0
    1.0517    0.1119    0.0155 C   0  0  0  0  0  0  0  0  0  0  0  0
    0.2929    1.2631    0.2361 C   0  0  0  0  0  0  0  0  0  0  0  0
   -1.0983    1.2513    0.1616 C   0  0  0  0  0  0  0  0  0  0  0  0
   -1.8130    0.0976   -0.1372 C   0  0  0  0  0  0  0  0  0  0  0  0
   -3.2460    0.1011   -0.2301 N   0  0  0  0  0  0  0  0  0  0  0  0
   -4.0445    1.2378   -0.0859 C   0  0  0  0  0  0  0  0  0  0  0  0
   -3.6285    2.3757    0.1202 O   0  0  0  0  0  0  0  0  0  0  0  0
   -5.4095    0.9848   -0.1568 N   0  0  0  0  0  0  0  0  0  0  0  0
   -6.3198    2.0723    0.0068 C   0  0  0  0  0  0  0  0  0  0  0  0
   -7.2811    2.0228    1.0183 C   0  0  0  0  0  0  0  0  0  0  0  0
   -8.1986    3.0685    1.1729 C   0  0  0  0  0  0  0  0  0  0  0  0
   -8.1875    4.1499    0.2939 C   0  0  0  0  0  0  0  0  0  0  0  0
   -7.2329    4.2210   -0.7305 C   0  0  0  0  0  0  0  0  0  0  0  0
   -7.2555    5.3640   -1.7174 C   0  0  0  0  0  0  0  0  0  0  0  0
   -8.2819    6.2387   -1.5067 F   0  0  0  0  0  0  0  0  0  0  0  0
   -6.1217    6.1157   -1.6983 F   0  0  0  0  0  0  0  0  0  0  0  0
   -7.4030    4.9354   -3.0027 F   0  0  0  0  0  0  0  0  0  0  0  0
   -6.2818    3.1865   -0.8468 C   0  0  0  0  0  0  0  0  0  0  0  0
   -1.0672   -1.0795   -0.3463 C   0  0  0  0  0  0  0  0  0  0  0  0
    0.3641   -1.0863   -0.2656 C   0  0  0  0  0  0  0  0  0  0  0  0
    1.0307   -2.4117   -0.5666 C   0  0  0  0  0  0  0  0  0  0  0  0
    0.4983   -3.1510   -1.3757 O   0  0  0  0  0  0  0  0  0  0  0  0
    2.1895   -2.6982    0.1392 N   0  0  0  0  0  0  0  0  0  0  0  0
    2.9695   -3.8823    0.0332 C   0  0  0  0  0  0  0  0  0  0  0  0
    2.6821   -4.9696   -0.7554 C   0  0  0  0  0  0  0  0  0  0  0  0
    3.4400   -6.0888   -0.7908 N   0  0  0  0  0  0  0  0  0  0  0  0
    4.5303   -6.1469   -0.0067 C   0  0  0  0  0  0  0  0  0  0  0  0
    5.3000   -7.3075    0.0008 N   0  0  0  0  0  0  0  0  0  0  0  0
    5.5026   -8.1794   -1.0764 C   0  0  0  0  0  0  0  0  0  0  0  0
    5.4145   -7.7423   -2.3985 C   0  0  0  0  0  0  0  0  0  0  0  0
    5.4981   -8.6437   -3.4544 C   0  0  0  0  0  0  0  0  0  0  0  0
    5.6510  -10.0170   -3.2386 C   0  0  0  0  0  0  0  0  0  0  0  0
    5.6761  -10.8707   -4.3173 N   0  0  0  0  0  0  0  0  0  0  0  0
    6.3554  -12.1675   -4.2810 C   0  0  0  0  0  0  0  0  0  0  0  0
    6.9416  -12.4561   -5.6840 C   0  0  0  0  0  0  0  0  0  0  0  0
    5.9089  -12.4154   -6.7477 N   0  0  0  0  0  0  0  0  0  0  0  0
    6.5000  -12.6817   -8.0530 C   0  0  0  0  0  0  0  0  0  0  0  0
    5.2544  -11.0850   -6.7317 C   0  0  0  0  0  0  0  0  0  0  0  0
    4.6363  -10.7546   -5.3568 C   0  0  0  0  0  0  0  0  0  0  0  0
    5.8045  -10.4409   -1.9126 C   0  0  0  0  0  0  0  0  0  0  0  0
    5.7387   -9.5344   -0.8442 C   0  0  0  0  0  0  0  0  0  0  0  0
    4.9054   -5.1429    0.7971 N   0  0  0  0  0  0  0  0  0  0  0  0
    4.1261   -4.0319    0.7799 C   0  0  0  0  0  0  0  0  0  0  0  0
    2.7915    1.3835    0.1468 H   0  0  0  0  0  0  0  0  0  0  0  0
    3.0413   -0.0611   -0.8166 H   0  0  0  0  0  0  0  0  0  0  0  0
    2.9632   -0.1363    0.9834 H   0  0  0  0  0  0  0  0  0  0  0  0
    0.7689    2.2211    0.4482 H   0  0  0  0  0  0  0  0  0  0  0  0
   -1.5719    2.2102    0.3339 H   0  0  0  0  0  0  0  0  0  0  0  0
   -3.6930   -0.7607   -0.5124 H   0  0  0  0  0  0  0  0  0  0  0  0
   -5.6959    0.1046    0.2452 H   0  0  0  0  0  0  0  0  0  0  0  0
   -7.2975    1.2051    1.7324 H   0  0  0  0  0  0  0  0  0  0  0  0
   -8.9316    3.0387    1.9761 H   0  0  0  0  0  0  0  0  0  0  0  0
   -8.9337    4.9378    0.4050 H   0  0  0  0  0  0  0  0  0  0  0  0
   -5.5307    3.2401   -1.6342 H   0  0  0  0  0  0  0  0  0  0  0  0
   -1.5757   -2.0145   -0.5798 H   0  0  0  0  0  0  0  0  0  0  0  0
    2.4852   -2.0530    0.8549 H   0  0  0  0  0  0  0  0  0  0  0  0
    1.8156   -5.0221   -1.4029 H   0  0  0  0  0  0  0  0  0  0  0  0
    6.0327   -7.2723    0.6914 H   0  0  0  0  0  0  0  0  0  0  0  0
    5.2690   -6.6908   -2.6311 H   0  0  0  0  0  0  0  0  0  0  0  0
    5.4502   -8.2517   -4.4665 H   0  0  0  0  0  0  0  0  0  0  0  0
    5.6572  -12.9614   -3.9874 H   0  0  0  0  0  0  0  0  0  0  0  0
    7.1853  -12.1622   -3.5647 H   0  0  0  0  0  0  0  0  0  0  0  0
    7.4196  -13.4421   -5.6646 H   0  0  0  0  0  0  0  0  0  0  0  0
    7.7258  -11.7145   -5.8936 H   0  0  0  0  0  0  0  0  0  0  0  0
    6.9523  -13.6791   -8.0670 H   0  0  0  0  0  0  0  0  0  0  0  0
    7.2677  -11.9483   -8.3238 H   0  0  0  0  0  0  0  0  0  0  0  0
    5.7262  -12.6756   -8.8285 H   0  0  0  0  0  0  0  0  0  0  0  0
    4.4608  -11.0500   -7.4873 H   0  0  0  0  0  0  0  0  0  0  0  0
    5.9825  -10.3008   -6.9826 H   0  0  0  0  0  0  0  0  0  0  0  0
    3.8102  -11.4437   -5.1360 H   0  0  0  0  0  0  0  0  0  0  0  0
    4.1956   -9.7528   -5.4118 H   0  0  0  0  0  0  0  0  0  0  0  0
    5.9209  -11.4959   -1.6823 H   0  0  0  0  0  0  0  0  0  0  0  0
    5.8034   -9.9104    0.1731 H   0  0  0  0  0  0  0  0  0  0  0  0
    4.4977   -3.2331    1.4151 H   0  0  0  0  0  0  0  0  0  0  0  0
  1  2  1  0  0  0  0
  1 45  1  0  0  0  0
  1 46  1  0  0  0  0
  1 47  1  0  0  0  0
  2  3  1  0  0  0  0
  2 21  2  0  0  0  0
  3  4  2  0  0  0  0
  3 48  1  0  0  0  0
  4  5  1  0  0  0  0
  4 49  1  0  0  0  0
  5  6  1  0  0  0  0
  5 20  2  0  0  0  0
  6  7  1  0  0  0  0
  6 50  1  0  0  0  0
  7  8  2  0  0  0  0
  7  9  1  0  0  0  0
  9 10  1  0  0  0  0
  9 51  1  0  0  0  0
 10 11  1  0  0  0  0
 10 19  2  0  0  0  0
 11 12  2  0  0  0  0
 11 52  1  0  0  0  0
 12 13  1  0  0  0  0
 12 53  1  0  0  0  0
 13 14  2  0  0  0  0
 13 54  1  0  0  0  0
 14 15  1  0  0  0  0
 14 19  1  0  0  0  0
 15 16  1  0  0  0  0
 15 17  1  0  0  0  0
 15 18  1  0  0  0  0
 19 55  1  0  0  0  0
 20 21  1  0  0  0  0
 20 56  1  0  0  0  0
 21 22  1  0  0  0  0
 22 23  2  0  0  0  0
 22 24  1  0  0  0  0
 24 25  1  0  0  0  0
 24 57  1  0  0  0  0
 25 26  1  0  0  0  0
 25 44  2  0  0  0  0
 26 27  2  0  0  0  0
 26 58  1  0  0  0  0
 27 28  1  0  0  0  0
 28 29  1  0  0  0  0
 28 43  2  0  0  0  0
 29 30  1  0  0  0  0
 29 59  1  0  0  0  0
 30 31  1  0  0  0  0
 30 42  2  0  0  0  0
 31 32  2  0  0  0  0
 31 60  1  0  0  0  0
 32 33  1  0  0  0  0
 32 61  1  0  0  0  0
 33 34  1  0  0  0  0
 33 41  2  0  0  0  0
 34 35  1  0  0  0  0
 34 40  1  0  0  0  0
 35 36  1  0  0  0  0
 35 62  1  0  0  0  0
 35 63  1  0  0  0  0
 36 37  1  0  0  0  0
 36 64  1  0  0  0  0
 36 65  1  0  0  0  0
 37 38  1  0  0  0  0
 37 39  1  0  0  0  0
 38 66  1  0  0  0  0
 38 67  1  0  0  0  0
 38 68  1  0  0  0  0
 39 40  1  0  0  0  0
 39 69  1  0  0  0  0
 39 70  1  0  0  0  0
 40 71  1  0  0  0  0
 40 72  1  0  0  0  0
 41 42  1  0  0  0  0
 41 73  1  0  0  0  0
 42 74  1  0  0  0  0
 43 44  1  0  0  0  0
 44 75  1  0  0  0  0
M  END
$$$$
