CHEMBL195771
 OpenBabel04072215363D

 48 51  0  0  0  0  0  0  0  0999 V2000
    5.7862   -2.2345   -8.5077 C   0  0  0  0  0  0  0  0  0  0  0  0
    4.4265   -1.8141   -8.6033 O   0  0  0  0  0  0  0  0  0  0  0  0
    4.1005   -1.0956   -7.4274 N   0  0  0  0  0  0  0  0  0  0  0  0
    4.2759    0.2673   -7.5150 C   0  0  0  0  0  0  0  0  0  0  0  0
    4.8704    0.8399   -8.4246 O   0  0  0  0  0  0  0  0  0  0  0  0
    3.7401    1.0720   -6.3922 C   0  0  0  0  0  0  0  0  0  0  0  0
    4.3985    2.2688   -6.0760 C   0  0  0  0  0  0  0  0  0  0  0  0
    3.9145    3.1394   -5.0888 C   0  0  0  0  0  0  0  0  0  0  0  0
    4.4818    4.4143   -4.8458 N   0  0  0  0  0  0  0  0  0  0  0  0
    5.1140    5.2201   -5.7754 C   0  0  0  0  0  0  0  0  0  0  0  0
    5.1910    4.8005   -7.0074 N   0  0  0  0  0  0  0  0  0  0  0  0
    5.8354    5.5082   -7.9707 C   0  0  0  0  0  0  0  0  0  0  0  0
    6.4225    6.6435   -7.8079 N   0  0  0  0  0  0  0  0  0  0  0  0
    6.3377    7.1179   -6.5586 N   0  0  0  0  0  0  0  0  0  0  0  0
    6.8908    8.2992   -6.1825 C   0  0  0  0  0  0  0  0  0  0  0  0
    6.5974    8.5045   -4.8594 C   0  0  0  0  0  0  0  0  0  0  0  0
    7.0839    9.7221   -4.1388 C   0  0  0  0  0  0  0  0  0  0  0  0
    6.8822    9.9832   -2.8596 N   0  0  0  0  0  0  0  0  0  0  0  0
    7.4909   11.1879   -2.5845 N   0  0  0  0  0  0  0  0  0  0  0  0
    8.0269   11.5838   -3.7133 C   0  0  0  0  0  0  0  0  0  0  0  0
    7.8205   10.7188   -4.7419 O   0  0  0  0  0  0  0  0  0  0  0  0
    5.7918    7.3931   -4.4004 C   0  0  0  0  0  0  0  0  0  0  0  0
    5.1968    7.3105   -3.0071 C   0  0  0  0  0  0  0  0  0  0  0  0
    3.6683    7.3040   -3.0023 C   0  0  0  0  0  0  0  0  0  0  0  0
    5.8096    6.2219   -2.1304 C   0  0  0  0  0  0  0  0  0  0  0  0
    5.6993    6.5176   -5.4956 C   0  0  0  0  0  0  0  0  0  0  0  0
    2.7601    2.7439   -4.3976 C   0  0  0  0  0  0  0  0  0  0  0  0
    2.2495    3.5540   -3.4572 F   0  0  0  0  0  0  0  0  0  0  0  0
    2.1085    1.5418   -4.6740 C   0  0  0  0  0  0  0  0  0  0  0  0
    2.6037    0.7128   -5.6758 C   0  0  0  0  0  0  0  0  0  0  0  0
    1.9584   -0.4322   -5.9437 F   0  0  0  0  0  0  0  0  0  0  0  0
    6.0402   -2.7904   -9.4138 H   0  0  0  0  0  0  0  0  0  0  0  0
    5.9199   -2.8897   -7.6414 H   0  0  0  0  0  0  0  0  0  0  0  0
    6.4569   -1.3723   -8.4323 H   0  0  0  0  0  0  0  0  0  0  0  0
    3.3445   -1.4888   -6.8759 H   0  0  0  0  0  0  0  0  0  0  0  0
    5.3069    2.5088   -6.6259 H   0  0  0  0  0  0  0  0  0  0  0  0
    4.2015    4.8237   -3.9672 H   0  0  0  0  0  0  0  0  0  0  0  0
    5.8541    5.0429   -8.9716 H   0  0  0  0  0  0  0  0  0  0  0  0
    7.4448    8.8908   -6.8987 H   0  0  0  0  0  0  0  0  0  0  0  0
    8.5899   12.4779   -3.9186 H   0  0  0  0  0  0  0  0  0  0  0  0
    5.4436    8.2377   -2.4834 H   0  0  0  0  0  0  0  0  0  0  0  0
    3.2342    6.4688   -3.5514 H   0  0  0  0  0  0  0  0  0  0  0  0
    3.2840    8.2218   -3.4624 H   0  0  0  0  0  0  0  0  0  0  0  0
    3.2870    7.2649   -1.9759 H   0  0  0  0  0  0  0  0  0  0  0  0
    5.5721    5.2129   -2.4690 H   0  0  0  0  0  0  0  0  0  0  0  0
    5.4457    6.3194   -1.1004 H   0  0  0  0  0  0  0  0  0  0  0  0
    6.9013    6.3155   -2.0994 H   0  0  0  0  0  0  0  0  0  0  0  0
    1.2103    1.2684   -4.1313 H   0  0  0  0  0  0  0  0  0  0  0  0
  1  2  1  0  0  0  0
  1 32  1  0  0  0  0
  1 33  1  0  0  0  0
  1 34  1  0  0  0  0
  2  3  1  0  0  0  0
  3  4  1  0  0  0  0
  3 35  1  0  0  0  0
  4  5  2  0  0  0  0
  4  6  1  0  0  0  0
  6  7  1  0  0  0  0
  6 30  2  0  0  0  0
  7  8  2  0  0  0  0
  7 36  1  0  0  0  0
  8  9  1  0  0  0  0
  8 27  1  0  0  0  0
  9 10  1  0  0  0  0
  9 37  1  0  0  0  0
 10 11  2  0  0  0  0
 10 26  1  0  0  0  0
 11 12  1  0  0  0  0
 12 13  2  0  0  0  0
 12 38  1  0  0  0  0
 13 14  1  0  0  0  0
 14 15  1  0  0  0  0
 14 26  1  0  0  0  0
 15 16  2  0  0  0  0
 15 39  1  0  0  0  0
 16 17  1  0  0  0  0
 16 22  1  0  0  0  0
 17 18  2  0  0  0  0
 17 21  1  0  0  0  0
 18 19  1  0  0  0  0
 19 20  2  0  0  0  0
 20 21  1  0  0  0  0
 20 40  1  0  0  0  0
 22 23  1  0  0  0  0
 22 26  2  0  0  0  0
 23 24  1  0  0  0  0
 23 25  1  0  0  0  0
 23 41  1  0  0  0  0
 24 42  1  0  0  0  0
 24 43  1  0  0  0  0
 24 44  1  0  0  0  0
 25 45  1  0  0  0  0
 25 46  1  0  0  0  0
 25 47  1  0  0  0  0
 27 28  1  0  0  0  0
 27 29  2  0  0  0  0
 29 30  1  0  0  0  0
 29 48  1  0  0  0  0
 30 31  1  0  0  0  0
M  END
$$$$
