CHEMBL196021
 OpenBabel04072215363D

 43 46  0  0  0  0  0  0  0  0999 V2000
    2.5202   -0.2324   -1.1953 C   0  0  0  0  0  0  0  0  0  0  0  0
    3.4569   -0.6547   -0.2100 O   0  0  0  0  0  0  0  0  0  0  0  0
    3.7276    0.2223    0.8035 C   0  0  0  0  0  0  0  0  0  0  0  0
    3.0961    1.4441    1.0124 C   0  0  0  0  0  0  0  0  0  0  0  0
    3.4977    2.2693    2.0690 C   0  0  0  0  0  0  0  0  0  0  0  0
    4.5878    1.9304    2.8839 C   0  0  0  0  0  0  0  0  0  0  0  0
    5.2043    2.9335    3.7557 C   0  0  0  0  0  0  0  0  0  0  0  0
    5.6663    2.4813    4.9539 O   0  0  0  0  0  0  0  0  0  0  0  0
    6.2223    3.5360    5.6117 C   0  0  0  0  0  0  0  0  0  0  0  0
    6.7605    3.4125    6.8331 N   0  0  0  0  0  0  0  0  0  0  0  0
    7.2464    4.5829    7.2693 C   0  0  0  0  0  0  0  0  0  0  0  0
    7.2435    5.7633    6.6326 N   0  0  0  0  0  0  0  0  0  0  0  0
    6.7213    5.8330    5.3913 C   0  0  0  0  0  0  0  0  0  0  0  0
    6.8176    7.0636    4.7761 N   0  0  0  0  0  0  0  0  0  0  0  0
    6.1476    4.6862    4.8319 C   0  0  0  0  0  0  0  0  0  0  0  0
    5.4753    4.2982    3.6247 C   0  0  0  0  0  0  0  0  0  0  0  0
    5.1142    5.0909    2.4545 C   0  0  0  0  0  0  0  0  0  0  0  0
    5.3164    4.6070    1.1537 C   0  0  0  0  0  0  0  0  0  0  0  0
    4.8571    5.3173    0.0384 C   0  0  0  0  0  0  0  0  0  0  0  0
    4.2818    6.5742    0.2022 C   0  0  0  0  0  0  0  0  0  0  0  0
    3.8416    7.3917   -0.8000 O   0  0  0  0  0  0  0  0  0  0  0  0
    3.8030    6.8347   -2.1079 C   0  0  0  0  0  0  0  0  0  0  0  0
    4.1270    7.0882    1.4903 C   0  0  0  0  0  0  0  0  0  0  0  0
    4.4955    6.3339    2.6086 C   0  0  0  0  0  0  0  0  0  0  0  0
    5.1668    0.6682    2.7170 C   0  0  0  0  0  0  0  0  0  0  0  0
    4.7352   -0.1788    1.6862 C   0  0  0  0  0  0  0  0  0  0  0  0
    2.3486   -1.0715   -1.8763 H   0  0  0  0  0  0  0  0  0  0  0  0
    2.9196    0.6017   -1.7834 H   0  0  0  0  0  0  0  0  0  0  0  0
    1.5548    0.0269   -0.7494 H   0  0  0  0  0  0  0  0  0  0  0  0
    2.3101    1.8073    0.3603 H   0  0  0  0  0  0  0  0  0  0  0  0
    2.9911    3.2243    2.1965 H   0  0  0  0  0  0  0  0  0  0  0  0
    7.7023    4.5765    8.2539 H   0  0  0  0  0  0  0  0  0  0  0  0
    7.0430    7.8334    5.3925 H   0  0  0  0  0  0  0  0  0  0  0  0
    6.3957    7.2500    3.8820 H   0  0  0  0  0  0  0  0  0  0  0  0
    5.7886    3.6404    0.9834 H   0  0  0  0  0  0  0  0  0  0  0  0
    4.9674    4.8549   -0.9366 H   0  0  0  0  0  0  0  0  0  0  0  0
    3.4883    7.6230   -2.7982 H   0  0  0  0  0  0  0  0  0  0  0  0
    3.0668    6.0254   -2.1601 H   0  0  0  0  0  0  0  0  0  0  0  0
    4.7910    6.4921   -2.4323 H   0  0  0  0  0  0  0  0  0  0  0  0
    3.6918    8.0749    1.6267 H   0  0  0  0  0  0  0  0  0  0  0  0
    4.2803    6.7318    3.5979 H   0  0  0  0  0  0  0  0  0  0  0  0
    5.9939    0.3516    3.3500 H   0  0  0  0  0  0  0  0  0  0  0  0
    5.2181   -1.1426    1.5460 H   0  0  0  0  0  0  0  0  0  0  0  0
  1  2  1  0  0  0  0
  1 27  1  0  0  0  0
  1 28  1  0  0  0  0
  1 29  1  0  0  0  0
  2  3  1  0  0  0  0
  3  4  1  0  0  0  0
  3 26  2  0  0  0  0
  4  5  2  0  0  0  0
  4 30  1  0  0  0  0
  5  6  1  0  0  0  0
  5 31  1  0  0  0  0
  6  7  1  0  0  0  0
  6 25  2  0  0  0  0
  7  8  1  0  0  0  0
  7 16  2  0  0  0  0
  8  9  1  0  0  0  0
  9 10  1  0  0  0  0
  9 15  2  0  0  0  0
 10 11  2  0  0  0  0
 11 12  1  0  0  0  0
 11 32  1  0  0  0  0
 12 13  2  0  0  0  0
 13 14  1  0  0  0  0
 13 15  1  0  0  0  0
 14 33  1  0  0  0  0
 14 34  1  0  0  0  0
 15 16  1  0  0  0  0
 16 17  1  0  0  0  0
 17 18  1  0  0  0  0
 17 24  2  0  0  0  0
 18 19  2  0  0  0  0
 18 35  1  0  0  0  0
 19 20  1  0  0  0  0
 19 36  1  0  0  0  0
 20 21  1  0  0  0  0
 20 23  2  0  0  0  0
 21 22  1  0  0  0  0
 22 37  1  0  0  0  0
 22 38  1  0  0  0  0
 22 39  1  0  0  0  0
 23 24  1  0  0  0  0
 23 40  1  0  0  0  0
 24 41  1  0  0  0  0
 25 26  1  0  0  0  0
 25 42  1  0  0  0  0
 26 43  1  0  0  0  0
M  END
$$$$
