CHEMBL1991725
 OpenBabel04072215363D

 65 69  0  0  1  0  0  0  0  0999 V2000
    2.7043   -0.4754    1.4910 C   0  0  0  0  0  0  0  0  0  0  0  0
    2.4799   -1.7615    0.8158 N   0  0  0  0  0  0  0  0  0  0  0  0
    1.0316   -1.9902    0.7070 C   0  0  0  0  0  0  0  0  0  0  0  0
    3.0704   -1.7428   -0.5475 C   0  0  0  0  0  0  0  0  0  0  0  0
    4.5967   -1.6002   -0.5050 C   0  0  0  0  0  0  0  0  0  0  0  0
    5.1778   -0.6606   -1.0367 O   0  0  0  0  0  0  0  0  0  0  0  0
    5.2549   -2.6124    0.1593 N   0  0  0  0  0  0  0  0  0  0  0  0
    6.7148   -2.5986    0.3349 C   0  0  3  0  0  0  0  0  0  0  0  0
    7.0840   -1.7749    1.5852 C   0  0  0  0  0  0  0  0  0  0  0  0
    8.5059   -1.6933    1.7844 O   0  0  0  0  0  0  0  0  0  0  0  0
    8.8916   -0.9809    2.8953 C   0  0  0  0  0  0  0  0  0  0  0  0
    8.0381   -0.3790    3.8107 C   0  0  0  0  0  0  0  0  0  0  0  0
    8.4526    0.3106    4.8952 N   0  0  0  0  0  0  0  0  0  0  0  0
    9.7865    0.4071    5.0789 C   0  0  0  0  0  0  0  0  0  0  0  0
   10.7611   -0.1420    4.2348 C   0  0  0  0  0  0  0  0  0  0  0  0
   12.2069    0.0339    4.5091 C   0  0  0  0  0  0  0  0  0  0  0  0
   12.6985    1.1951    5.1374 C   0  0  0  0  0  0  0  0  0  0  0  0
   14.0634    1.3807    5.3772 C   0  0  0  0  0  0  0  0  0  0  0  0
   14.9893    0.4096    4.9773 C   0  0  0  0  0  0  0  0  0  0  0  0
   16.3684    0.5575    5.1458 C   0  0  0  0  0  0  0  0  0  0  0  0
   17.2894   -0.3564    4.7617 N   0  0  0  0  0  0  0  0  0  0  0  0
   16.8155   -1.4804    4.1862 C   0  0  0  0  0  0  0  0  0  0  0  0
   15.4696   -1.7344    3.9765 C   0  0  0  0  0  0  0  0  0  0  0  0
   14.5313   -0.7719    4.3668 C   0  0  0  0  0  0  0  0  0  0  0  0
   13.1491   -0.9490    4.1543 C   0  0  0  0  0  0  0  0  0  0  0  0
   10.2687   -0.8489    3.1175 C   0  0  0  0  0  0  0  0  0  0  0  0
    7.3013   -4.0182    0.4283 C   0  0  0  0  0  0  0  0  0  0  0  0
    7.0441   -4.8715   -0.7789 C   0  0  0  0  0  0  0  0  0  0  0  0
    7.4792   -4.6256   -2.0678 C   0  0  0  0  0  0  0  0  0  0  0  0
    7.0999   -5.6754   -2.8593 N   0  0  0  0  0  0  0  0  0  0  0  0
    6.3879   -6.5927   -2.1234 C   0  0  0  0  0  0  0  0  0  0  0  0
    5.8028   -7.8032   -2.5143 C   0  0  0  0  0  0  0  0  0  0  0  0
    5.1092   -8.5310   -1.5434 C   0  0  0  0  0  0  0  0  0  0  0  0
    5.0187   -8.0719   -0.2320 C   0  0  0  0  0  0  0  0  0  0  0  0
    5.6286   -6.8706    0.1463 C   0  0  0  0  0  0  0  0  0  0  0  0
    6.3237   -6.1092   -0.8162 C   0  0  0  0  0  0  0  0  0  0  0  0
    2.2646   -0.4926    2.4948 H   0  0  0  0  0  0  0  0  0  0  0  0
    2.2675    0.3656    0.9395 H   0  0  0  0  0  0  0  0  0  0  0  0
    3.7726   -0.2817    1.6293 H   0  0  0  0  0  0  0  0  0  0  0  0
    0.5681   -2.0135    1.7001 H   0  0  0  0  0  0  0  0  0  0  0  0
    0.8253   -2.9602    0.2410 H   0  0  0  0  0  0  0  0  0  0  0  0
    0.5305   -1.2126    0.1166 H   0  0  0  0  0  0  0  0  0  0  0  0
    2.6591   -0.9241   -1.1500 H   0  0  0  0  0  0  0  0  0  0  0  0
    2.8491   -2.6842   -1.0672 H   0  0  0  0  0  0  0  0  0  0  0  0
    4.6795   -3.2149    0.7437 H   0  0  0  0  0  0  0  0  0  0  0  0
    7.1553   -2.1004   -0.5381 H   0  0  0  0  0  0  0  0  0  0  0  0
    6.6211   -2.2534    2.4583 H   0  0  0  0  0  0  0  0  0  0  0  0
    6.6776   -0.7629    1.4694 H   0  0  0  0  0  0  0  0  0  0  0  0
    6.9649   -0.4190    3.7200 H   0  0  0  0  0  0  0  0  0  0  0  0
   10.0586    0.9607    5.9699 H   0  0  0  0  0  0  0  0  0  0  0  0
   12.0239    1.9961    5.4371 H   0  0  0  0  0  0  0  0  0  0  0  0
   14.3968    2.2953    5.8637 H   0  0  0  0  0  0  0  0  0  0  0  0
   16.7864    1.4511    5.6018 H   0  0  0  0  0  0  0  0  0  0  0  0
   17.5723   -2.1980    3.8818 H   0  0  0  0  0  0  0  0  0  0  0  0
   15.1643   -2.6628    3.5053 H   0  0  0  0  0  0  0  0  0  0  0  0
   12.8107   -1.8777    3.6996 H   0  0  0  0  0  0  0  0  0  0  0  0
   10.9544   -1.2930    2.3996 H   0  0  0  0  0  0  0  0  0  0  0  0
    6.9079   -4.5166    1.3225 H   0  0  0  0  0  0  0  0  0  0  0  0
    8.3892   -3.9601    0.5624 H   0  0  0  0  0  0  0  0  0  0  0  0
    8.0338   -3.7958   -2.4862 H   0  0  0  0  0  0  0  0  0  0  0  0
    7.3059   -5.7664   -3.8443 H   0  0  0  0  0  0  0  0  0  0  0  0
    5.8767   -8.1665   -3.5340 H   0  0  0  0  0  0  0  0  0  0  0  0
    4.6327   -9.4692   -1.8175 H   0  0  0  0  0  0  0  0  0  0  0  0
    4.4716   -8.6512    0.5075 H   0  0  0  0  0  0  0  0  0  0  0  0
    5.5577   -6.5299    1.1743 H   0  0  0  0  0  0  0  0  0  0  0  0
  1  2  1  0  0  0  0
  1 37  1  0  0  0  0
  1 38  1  0  0  0  0
  1 39  1  0  0  0  0
  2  3  1  0  0  0  0
  2  4  1  0  0  0  0
  3 40  1  0  0  0  0
  3 41  1  0  0  0  0
  3 42  1  0  0  0  0
  4  5  1  0  0  0  0
  4 43  1  0  0  0  0
  4 44  1  0  0  0  0
  5  6  2  0  0  0  0
  5  7  1  0  0  0  0
  7  8  1  0  0  0  0
  7 45  1  0  0  0  0
  8  9  1  0  0  0  0
  8 27  1  0  0  0  0
  8 46  1  0  0  0  0
  9 10  1  0  0  0  0
  9 47  1  0  0  0  0
  9 48  1  0  0  0  0
 10 11  1  0  0  0  0
 11 12  1  0  0  0  0
 11 26  2  0  0  0  0
 12 13  2  0  0  0  0
 12 49  1  0  0  0  0
 13 14  1  0  0  0  0
 14 15  2  0  0  0  0
 14 50  1  0  0  0  0
 15 16  1  0  0  0  0
 15 26  1  0  0  0  0
 16 17  1  0  0  0  0
 16 25  2  0  0  0  0
 17 18  2  0  0  0  0
 17 51  1  0  0  0  0
 18 19  1  0  0  0  0
 18 52  1  0  0  0  0
 19 20  1  0  0  0  0
 19 24  2  0  0  0  0
 20 21  2  0  0  0  0
 20 53  1  0  0  0  0
 21 22  1  0  0  0  0
 22 23  2  0  0  0  0
 22 54  1  0  0  0  0
 23 24  1  0  0  0  0
 23 55  1  0  0  0  0
 24 25  1  0  0  0  0
 25 56  1  0  0  0  0
 26 57  1  0  0  0  0
 27 28  1  0  0  0  0
 27 58  1  0  0  0  0
 27 59  1  0  0  0  0
 28 29  2  0  0  0  0
 28 36  1  0  0  0  0
 29 30  1  0  0  0  0
 29 60  1  0  0  0  0
 30 31  1  0  0  0  0
 30 61  1  0  0  0  0
 31 32  1  0  0  0  0
 31 36  2  0  0  0  0
 32 33  2  0  0  0  0
 32 62  1  0  0  0  0
 33 34  1  0  0  0  0
 33 63  1  0  0  0  0
 34 35  2  0  0  0  0
 34 64  1  0  0  0  0
 35 36  1  0  0  0  0
 35 65  1  0  0  0  0
M  END
$$$$
