CHEMBL3681317
 OpenBabel04072215373D

 49 53  0  0  0  0  0  0  0  0999 V2000
   -3.3398    0.2309   -0.6569 C   0  0  0  0  0  0  0  0  0  0  0  0
   -1.8736    0.1131   -0.4618 C   0  0  0  0  0  0  0  0  0  0  0  0
   -1.1336   -0.9372   -0.7012 N   0  0  0  0  0  0  0  0  0  0  0  0
    0.1429   -0.5870   -0.3401 C   0  0  0  0  0  0  0  0  0  0  0  0
    1.3152   -1.3390   -0.4009 C   0  0  0  0  0  0  0  0  0  0  0  0
    2.5113   -0.7341    0.0238 C   0  0  0  0  0  0  0  0  0  0  0  0
    3.7342   -1.4297   -0.0987 N   0  0  0  0  0  0  0  0  0  0  0  0
    4.7701   -1.1612    0.7487 N   0  0  0  0  0  0  0  0  0  0  0  0
    5.7519   -1.9650    0.3475 C   0  0  0  0  0  0  0  0  0  0  0  0
    5.4052   -2.7279   -0.7827 C   0  0  0  0  0  0  0  0  0  0  0  0
    6.2099   -3.5736   -1.6315 C   0  0  0  0  0  0  0  0  0  0  0  0
    5.9986   -3.6267   -2.8416 O   0  0  0  0  0  0  0  0  0  0  0  0
    7.3157   -4.2653   -1.0237 C   0  0  0  0  0  0  0  0  0  0  0  0
    8.5232   -4.4424   -1.6615 C   0  0  0  0  0  0  0  0  0  0  0  0
    9.3460   -5.1903   -0.8138 C   0  0  0  0  0  0  0  0  0  0  0  0
   10.6481   -5.6645   -0.9625 C   0  0  0  0  0  0  0  0  0  0  0  0
   10.5437   -7.0353   -1.0140 C   0  0  0  0  0  0  0  0  0  0  0  0
    9.9246   -7.6620    0.0773 C   0  0  0  0  0  0  0  0  0  0  0  0
   10.5816   -9.2871    0.3095 S   0  0  0  0  0  0  0  0  0  0  0  0
    9.8982  -10.0454    1.7359 C   0  0  0  0  0  0  0  0  0  0  0  0
   10.1442  -10.0595   -0.8396 O   0  0  0  0  0  0  0  0  0  0  0  0
   11.9940   -9.1024    0.5856 O   0  0  0  0  0  0  0  0  0  0  0  0
    8.8974   -6.9962    0.7842 C   0  0  0  0  0  0  0  0  0  0  0  0
    8.5168   -5.7745    0.1489 C   0  0  0  0  0  0  0  0  0  0  0  0
    7.3866   -4.9589    0.1867 N   0  0  0  0  0  0  0  0  0  0  0  0
    4.1016   -2.3673   -1.0655 C   0  0  0  0  0  0  0  0  0  0  0  0
    3.3422   -2.7426   -2.1340 N   0  0  0  0  0  0  0  0  0  0  0  0
    2.5173    0.5708    0.5284 C   0  0  0  0  0  0  0  0  0  0  0  0
    1.3495    1.3470    0.5908 C   0  0  0  0  0  0  0  0  0  0  0  0
    0.1783    0.7168    0.1215 C   0  0  0  0  0  0  0  0  0  0  0  0
   -1.1268    1.1480    0.0259 N   0  0  0  0  0  0  0  0  0  0  0  0
   -3.7516   -0.7253   -0.9761 H   0  0  0  0  0  0  0  0  0  0  0  0
   -3.5634    0.9793   -1.4222 H   0  0  0  0  0  0  0  0  0  0  0  0
   -3.8261    0.5242    0.2724 H   0  0  0  0  0  0  0  0  0  0  0  0
    1.2544   -2.3719   -0.7363 H   0  0  0  0  0  0  0  0  0  0  0  0
    6.7030   -1.9095    0.8597 H   0  0  0  0  0  0  0  0  0  0  0  0
    8.7754   -4.0748   -2.6516 H   0  0  0  0  0  0  0  0  0  0  0  0
   11.2721   -5.3591   -0.0979 H   0  0  0  0  0  0  0  0  0  0  0  0
   10.3672   -7.5093   -1.9817 H   0  0  0  0  0  0  0  0  0  0  0  0
    8.8274   -9.8726    1.7852 H   0  0  0  0  0  0  0  0  0  0  0  0
   10.4178   -9.6787    2.6207 H   0  0  0  0  0  0  0  0  0  0  0  0
   10.0891  -11.1198    1.6304 H   0  0  0  0  0  0  0  0  0  0  0  0
    8.3037   -7.4614    1.5694 H   0  0  0  0  0  0  0  0  0  0  0  0
    6.6239   -5.0415    0.8458 H   0  0  0  0  0  0  0  0  0  0  0  0
    3.8381   -3.1785   -2.9212 H   0  0  0  0  0  0  0  0  0  0  0  0
    2.6064   -2.1291   -2.4818 H   0  0  0  0  0  0  0  0  0  0  0  0
    3.4535    1.0342    0.8571 H   0  0  0  0  0  0  0  0  0  0  0  0
    1.3587    2.3603    0.9318 H   0  0  0  0  0  0  0  0  0  0  0  0
   -1.4582    2.0663    0.2839 H   0  0  0  0  0  0  0  0  0  0  0  0
  1  2  1  0  0  0  0
  1 32  1  0  0  0  0
  1 33  1  0  0  0  0
  1 34  1  0  0  0  0
  2  3  2  0  0  0  0
  2 31  1  0  0  0  0
  3  4  1  0  0  0  0
  4  5  1  0  0  0  0
  4 30  2  0  0  0  0
  5  6  2  0  0  0  0
  5 35  1  0  0  0  0
  6  7  1  0  0  0  0
  6 28  1  0  0  0  0
  7  8  1  0  0  0  0
  7 26  1  0  0  0  0
  8  9  2  0  0  0  0
  9 10  1  0  0  0  0
  9 36  1  0  0  0  0
 10 11  1  0  0  0  0
 10 26  2  0  0  0  0
 11 12  2  0  0  0  0
 11 13  1  0  0  0  0
 13 14  2  0  0  0  0
 13 25  1  0  0  0  0
 14 15  1  0  0  0  0
 14 37  1  0  0  0  0
 15 16  1  0  0  0  0
 15 24  2  0  0  0  0
 16 17  2  0  0  0  0
 16 38  1  0  0  0  0
 17 18  1  0  0  0  0
 17 39  1  0  0  0  0
 18 19  1  0  0  0  0
 18 23  2  0  0  0  0
 19 20  1  0  0  0  0
 19 21  2  0  0  0  0
 19 22  2  0  0  0  0
 20 40  1  0  0  0  0
 20 41  1  0  0  0  0
 20 42  1  0  0  0  0
 23 24  1  0  0  0  0
 23 43  1  0  0  0  0
 24 25  1  0  0  0  0
 25 44  1  0  0  0  0
 26 27  1  0  0  0  0
 27 45  1  0  0  0  0
 27 46  1  0  0  0  0
 28 29  2  0  0  0  0
 28 47  1  0  0  0  0
 29 30  1  0  0  0  0
 29 48  1  0  0  0  0
 30 31  1  0  0  0  0
 31 49  1  0  0  0  0
M  END
$$$$
