CHEMBL524708
 OpenBabel04072215383D

 50 53  0  0  0  0  0  0  0  0999 V2000
    0.1498   -2.1574    0.8593 C   0  0  0  0  0  0  0  0  0  0  0  0
    1.6623   -1.8683    0.9221 C   0  0  0  0  0  0  0  0  0  0  0  0
    1.8834   -0.3601    0.7398 C   0  0  0  0  0  0  0  0  0  0  0  0
    2.1829   -2.3121    2.2976 C   0  0  0  0  0  0  0  0  0  0  0  0
    2.3559   -2.6435   -0.2158 C   0  0  0  0  0  0  0  0  0  0  0  0
    1.6828   -3.2985   -1.0132 O   0  0  0  0  0  0  0  0  0  0  0  0
    3.7258   -2.5505   -0.2486 N   0  0  0  0  0  0  0  0  0  0  0  0
    4.5209   -3.1582   -1.2127 C   0  0  0  0  0  0  0  0  0  0  0  0
    5.8178   -3.2691   -0.8951 N   0  0  0  0  0  0  0  0  0  0  0  0
    6.5921   -3.9246   -1.7824 C   0  0  0  0  0  0  0  0  0  0  0  0
    6.1267   -4.4402   -2.9701 C   0  0  0  0  0  0  0  0  0  0  0  0
    4.7880   -4.2404   -3.2214 C   0  0  0  0  0  0  0  0  0  0  0  0
    4.1302   -4.6000   -4.4820 C   0  0  0  0  0  0  0  0  0  0  0  0
    4.4735   -5.6155   -5.2876 C   0  0  0  0  0  0  0  0  0  0  0  0
    3.8650   -5.7369   -6.5613 C   0  0  0  0  0  0  0  0  0  0  0  0
    4.1590   -5.2744   -7.8470 C   0  0  0  0  0  0  0  0  0  0  0  0
    5.2709   -4.4149   -8.2301 C   0  0  0  0  0  0  0  0  0  0  0  0
    5.8273   -4.5300   -9.5119 C   0  0  0  0  0  0  0  0  0  0  0  0
    6.8609   -3.6791   -9.9191 C   0  0  0  0  0  0  0  0  0  0  0  0
    7.3504   -2.7037   -9.0507 C   0  0  0  0  0  0  0  0  0  0  0  0
    6.8135   -2.5822   -7.7755 C   0  0  0  0  0  0  0  0  0  0  0  0
    5.7780   -3.4288   -7.3738 C   0  0  0  0  0  0  0  0  0  0  0  0
    3.2404   -5.7439   -8.7776 N   0  0  0  0  0  0  0  0  0  0  0  0
    2.4060   -6.4349   -8.0547 C   0  0  0  0  0  0  0  0  0  0  0  0
    0.9679   -7.3484   -8.3941 S   0  0  0  0  0  0  0  0  0  0  0  0
    0.8830   -7.7818   -6.6783 C   0  0  0  0  0  0  0  0  0  0  0  0
    1.8802   -7.2477   -5.9520 C   0  0  0  0  0  0  0  0  0  0  0  0
    2.7285   -6.4883   -6.7315 N   0  0  0  0  0  0  0  0  0  0  0  0
    3.9913   -3.5905   -2.3609 N   0  0  0  0  0  0  0  0  0  0  0  0
   -0.3975   -1.6208    1.6366 H   0  0  0  0  0  0  0  0  0  0  0  0
   -0.0502   -3.2315    0.9867 H   0  0  0  0  0  0  0  0  0  0  0  0
   -0.2712   -1.8635   -0.1120 H   0  0  0  0  0  0  0  0  0  0  0  0
    1.3194    0.2129    1.4855 H   0  0  0  0  0  0  0  0  0  0  0  0
    1.5547   -0.0323   -0.2531 H   0  0  0  0  0  0  0  0  0  0  0  0
    2.9385   -0.0885    0.8417 H   0  0  0  0  0  0  0  0  0  0  0  0
    1.6206   -1.8262    3.1039 H   0  0  0  0  0  0  0  0  0  0  0  0
    3.2380   -2.0578    2.4408 H   0  0  0  0  0  0  0  0  0  0  0  0
    2.0852   -3.3955    2.4245 H   0  0  0  0  0  0  0  0  0  0  0  0
    4.2465   -2.1845    0.5310 H   0  0  0  0  0  0  0  0  0  0  0  0
    7.6367   -4.0273   -1.5007 H   0  0  0  0  0  0  0  0  0  0  0  0
    6.7896   -4.9410   -3.6623 H   0  0  0  0  0  0  0  0  0  0  0  0
    3.3233   -3.9230   -4.7582 H   0  0  0  0  0  0  0  0  0  0  0  0
    5.2782   -6.3073   -5.0392 H   0  0  0  0  0  0  0  0  0  0  0  0
    5.4459   -5.2762  -10.2082 H   0  0  0  0  0  0  0  0  0  0  0  0
    7.2723   -3.7714  -10.9212 H   0  0  0  0  0  0  0  0  0  0  0  0
    8.1369   -2.0310   -9.3740 H   0  0  0  0  0  0  0  0  0  0  0  0
    7.1772   -1.8182   -7.0949 H   0  0  0  0  0  0  0  0  0  0  0  0
    5.3533   -3.2704   -6.3895 H   0  0  0  0  0  0  0  0  0  0  0  0
    0.0938   -8.4141   -6.2945 H   0  0  0  0  0  0  0  0  0  0  0  0
    2.0518   -7.3593   -4.8933 H   0  0  0  0  0  0  0  0  0  0  0  0
  1  2  1  0  0  0  0
  1 30  1  0  0  0  0
  1 31  1  0  0  0  0
  1 32  1  0  0  0  0
  2  3  1  0  0  0  0
  2  4  1  0  0  0  0
  2  5  1  0  0  0  0
  3 33  1  0  0  0  0
  3 34  1  0  0  0  0
  3 35  1  0  0  0  0
  4 36  1  0  0  0  0
  4 37  1  0  0  0  0
  4 38  1  0  0  0  0
  5  6  2  0  0  0  0
  5  7  1  0  0  0  0
  7  8  1  0  0  0  0
  7 39  1  0  0  0  0
  8  9  1  0  0  0  0
  8 29  2  0  0  0  0
  9 10  2  0  0  0  0
 10 11  1  0  0  0  0
 10 40  1  0  0  0  0
 11 12  2  0  0  0  0
 11 41  1  0  0  0  0
 12 13  1  0  0  0  0
 12 29  1  0  0  0  0
 13 14  2  0  0  0  0
 13 42  1  0  0  0  0
 14 15  1  0  0  0  0
 14 43  1  0  0  0  0
 15 16  2  0  0  0  0
 15 28  1  0  0  0  0
 16 17  1  0  0  0  0
 16 23  1  0  0  0  0
 17 18  1  0  0  0  0
 17 22  2  0  0  0  0
 18 19  2  0  0  0  0
 18 44  1  0  0  0  0
 19 20  1  0  0  0  0
 19 45  1  0  0  0  0
 20 21  2  0  0  0  0
 20 46  1  0  0  0  0
 21 22  1  0  0  0  0
 21 47  1  0  0  0  0
 22 48  1  0  0  0  0
 23 24  2  0  0  0  0
 24 25  1  0  0  0  0
 24 28  1  0  0  0  0
 25 26  1  0  0  0  0
 26 27  2  0  0  0  0
 26 49  1  0  0  0  0
 27 28  1  0  0  0  0
 27 50  1  0  0  0  0
M  END
$$$$
