CHEMBL3690469
 OpenBabel04072215373D

 48 51  0  0  0  0  0  0  0  0999 V2000
    2.1460   -0.0436   -0.9809 N   0  0  0  0  0  0  0  0  0  0  0  0
    0.8427   -0.0259   -0.4873 C   0  0  0  0  0  0  0  0  0  0  0  0
    0.2781   -1.1922    0.0088 C   0  0  0  0  0  0  0  0  0  0  0  0
   -1.0125   -1.1465    0.5149 C   0  0  0  0  0  0  0  0  0  0  0  0
   -1.6862    0.0684    0.5285 C   0  0  0  0  0  0  0  0  0  0  0  0
   -1.0432    1.2096    0.0483 C   0  0  0  0  0  0  0  0  0  0  0  0
   -1.7193    2.5395    0.1160 C   0  0  0  0  0  0  0  0  0  0  0  0
   -2.6598    2.8779    1.1936 C   0  0  0  0  0  0  0  0  0  0  0  0
   -3.2818    4.0659    1.2103 C   0  0  0  0  0  0  0  0  0  0  0  0
   -2.9958    5.0188    0.2311 N   0  0  0  0  0  0  0  0  0  0  0  0
   -3.4413    6.3343    0.0663 C   0  0  0  0  0  0  0  0  0  0  0  0
   -4.2852    7.1236    0.9874 C   0  0  0  0  0  0  0  0  0  0  0  0
   -4.2126    6.9314    2.3732 C   0  0  0  0  0  0  0  0  0  0  0  0
   -5.0037    7.6726    3.2486 C   0  0  0  0  0  0  0  0  0  0  0  0
   -5.8270    8.6783    2.7567 C   0  0  0  0  0  0  0  0  0  0  0  0
   -5.8689    8.9650    1.3941 C   0  0  0  0  0  0  0  0  0  0  0  0
   -6.6144   10.0531    0.8669 N   0  0  0  0  0  0  0  0  0  0  0  0
   -7.2781   11.0120    1.6035 C   0  0  0  0  0  0  0  0  0  0  0  0
   -7.3547   11.0956    2.8209 O   0  0  0  0  0  0  0  0  0  0  0  0
   -7.9426   11.9228    0.8060 N   0  0  0  0  0  0  0  0  0  0  0  0
   -8.6826   13.0096    1.4685 C   0  0  0  0  0  0  0  0  0  0  0  0
   -7.8397   14.1796    1.9998 C   0  0  0  0  0  0  0  0  0  0  0  0
   -6.5547   14.1118    1.5819 F   0  0  0  0  0  0  0  0  0  0  0  0
   -8.3389   15.3531    1.5337 F   0  0  0  0  0  0  0  0  0  0  0  0
   -7.8444   14.2509    3.3462 F   0  0  0  0  0  0  0  0  0  0  0  0
   -5.1246    8.1565    0.5111 C   0  0  0  0  0  0  0  0  0  0  0  0
   -2.8533    6.7229   -1.1293 C   0  0  0  0  0  0  0  0  0  0  0  0
   -2.0501    5.7507   -1.6629 N   0  0  0  0  0  0  0  0  0  0  0  0
   -2.1182    4.7450   -0.8187 C   0  0  0  0  0  0  0  0  0  0  0  0
   -1.4679    3.4701   -0.8389 C   0  0  0  0  0  0  0  0  0  0  0  0
    0.2096    1.1629   -0.4712 N   0  0  0  0  0  0  0  0  0  0  0  0
    2.2777   -0.7656   -1.6791 H   0  0  0  0  0  0  0  0  0  0  0  0
    2.3444    0.8848   -1.3458 H   0  0  0  0  0  0  0  0  0  0  0  0
    0.8358   -2.1226    0.0082 H   0  0  0  0  0  0  0  0  0  0  0  0
   -1.4847   -2.0438    0.9045 H   0  0  0  0  0  0  0  0  0  0  0  0
   -2.6981    0.1082    0.9166 H   0  0  0  0  0  0  0  0  0  0  0  0
   -2.8387    2.1594    1.9871 H   0  0  0  0  0  0  0  0  0  0  0  0
   -4.0014    4.3095    1.9775 H   0  0  0  0  0  0  0  0  0  0  0  0
   -3.5181    6.2222    2.8134 H   0  0  0  0  0  0  0  0  0  0  0  0
   -4.9592    7.4856    4.3163 H   0  0  0  0  0  0  0  0  0  0  0  0
   -6.4082    9.2353    3.4844 H   0  0  0  0  0  0  0  0  0  0  0  0
   -6.6282   10.1523   -0.1353 H   0  0  0  0  0  0  0  0  0  0  0  0
   -7.5184   12.1394   -0.0842 H   0  0  0  0  0  0  0  0  0  0  0  0
   -9.2592   12.5812    2.2965 H   0  0  0  0  0  0  0  0  0  0  0  0
   -9.4042   13.3794    0.7324 H   0  0  0  0  0  0  0  0  0  0  0  0
   -5.1739    8.3482   -0.5596 H   0  0  0  0  0  0  0  0  0  0  0  0
   -2.9433    7.6841   -1.6197 H   0  0  0  0  0  0  0  0  0  0  0  0
   -0.7805    3.2775   -1.6554 H   0  0  0  0  0  0  0  0  0  0  0  0
  1  2  1  0  0  0  0
  1 32  1  0  0  0  0
  1 33  1  0  0  0  0
  2  3  1  0  0  0  0
  2 31  2  0  0  0  0
  3  4  2  0  0  0  0
  3 34  1  0  0  0  0
  4  5  1  0  0  0  0
  4 35  1  0  0  0  0
  5  6  2  0  0  0  0
  5 36  1  0  0  0  0
  6  7  1  0  0  0  0
  6 31  1  0  0  0  0
  7  8  1  0  0  0  0
  7 30  2  0  0  0  0
  8  9  2  0  0  0  0
  8 37  1  0  0  0  0
  9 10  1  0  0  0  0
  9 38  1  0  0  0  0
 10 11  1  0  0  0  0
 10 29  1  0  0  0  0
 11 12  1  0  0  0  0
 11 27  2  0  0  0  0
 12 13  1  0  0  0  0
 12 26  2  0  0  0  0
 13 14  2  0  0  0  0
 13 39  1  0  0  0  0
 14 15  1  0  0  0  0
 14 40  1  0  0  0  0
 15 16  2  0  0  0  0
 15 41  1  0  0  0  0
 16 17  1  0  0  0  0
 16 26  1  0  0  0  0
 17 18  1  0  0  0  0
 17 42  1  0  0  0  0
 18 19  2  0  0  0  0
 18 20  1  0  0  0  0
 20 21  1  0  0  0  0
 20 43  1  0  0  0  0
 21 22  1  0  0  0  0
 21 44  1  0  0  0  0
 21 45  1  0  0  0  0
 22 23  1  0  0  0  0
 22 24  1  0  0  0  0
 22 25  1  0  0  0  0
 26 46  1  0  0  0  0
 27 28  1  0  0  0  0
 27 47  1  0  0  0  0
 28 29  2  0  0  0  0
 29 30  1  0  0  0  0
 30 48  1  0  0  0  0
M  END
$$$$
