CHEMBL3989516
 OpenBabel04072215373D

 84 79  0  0  0  0  0  0  0  0999 V2000
    2.5751   -2.4658   -0.8176 C   0  0  0  0  0  0  0  0  0  0  0  0
    2.9127   -1.2195   -0.1974 O   0  0  0  0  0  0  0  0  0  0  0  0
    3.4542   -1.3578    1.0614 C   0  0  0  0  0  0  0  0  0  0  0  0
    2.9127   -2.3052    1.9050 C   0  0  0  0  0  0  0  0  0  0  0  0
    3.6414   -2.8364    2.9553 C   0  0  0  0  0  0  0  0  0  0  0  0
    3.2461   -4.0921    3.4621 N   0  0  0  0  0  0  0  0  0  0  0  0
    2.3150   -4.9457    2.8286 C   0  0  0  0  0  0  0  0  0  0  0  0
    2.4322   -5.1193    1.4834 N   0  0  0  0  0  0  0  0  0  0  0  0
    1.4230   -5.7309    0.8417 C   0  0  0  0  0  0  0  0  0  0  0  0
    0.2697   -6.1510    1.4838 C   0  0  0  0  0  0  0  0  0  0  0  0
   -0.7240   -6.6851    0.7690 F   0  0  0  0  0  0  0  0  0  0  0  0
    0.2199   -5.9579    2.8493 C   0  0  0  0  0  0  0  0  0  0  0  0
   -0.9065   -6.4194    3.5095 N   0  0  0  0  0  0  0  0  0  0  0  0
   -0.9920   -6.8348    4.8655 C   0  0  0  0  0  0  0  0  0  0  0  0
    0.0740   -7.4721    5.4562 C   0  0  0  0  0  0  0  0  0  0  0  0
   -0.0615   -7.9913    6.7337 C   0  0  0  0  0  0  0  0  0  0  0  0
   -1.2796   -7.8466    7.3798 C   0  0  0  0  0  0  0  0  0  0  0  0
   -2.3351   -7.1693    6.7712 C   0  0  0  0  0  0  0  0  0  0  0  0
   -2.2047   -6.6863    5.5085 N   0  0  0  0  0  0  0  0  0  0  0  0
   -3.5666   -7.1066    7.4538 N   0  0  0  0  0  0  0  0  0  0  0  0
   -4.7155   -6.3547    7.0105 C   0  0  0  0  0  0  0  0  0  0  0  0
   -5.1118   -5.4381    8.0708 O   0  0  0  0  0  0  0  0  0  0  0  0
   -6.4091   -4.3960    7.5975 P   0  0  0  0  0  0  0  0  0  0  0  0
   -5.3932   -3.7108    6.6130 O   0  0  0  0  0  0  0  0  0  0  0  0
   -7.1685   -5.6545    7.1402 O   0  5  0  0  0  0  0  0  0  0  0  0
   -7.7064   -3.3540    7.1242 O   0  5  0  0  0  0  0  0  0  0  0  0
   -3.7536   -7.9077    8.5830 C   0  0  0  0  0  0  0  0  0  0  0  0
   -4.7845   -8.4684    8.9468 O   0  0  0  0  0  0  0  0  0  0  0  0
   -2.4168   -7.9476    9.4132 C   0  0  0  0  0  0  0  0  0  0  0  0
   -2.1603   -6.5721    9.9893 C   0  0  0  0  0  0  0  0  0  0  0  0
   -2.5837   -8.9707   10.5540 C   0  0  0  0  0  0  0  0  0  0  0  0
   -1.3082   -8.3906    8.6355 O   0  0  0  0  0  0  0  0  0  0  0  0
    1.2704   -5.4077    3.4924 N   0  0  0  0  0  0  0  0  0  0  0  0
    4.8113   -2.1739    3.3286 C   0  0  0  0  0  0  0  0  0  0  0  0
    5.2406   -1.0244    2.6040 C   0  0  0  0  0  0  0  0  0  0  0  0
    6.3724   -0.3328    2.9790 O   0  0  0  0  0  0  0  0  0  0  0  0
    7.4891   -1.1126    3.3961 C   0  0  0  0  0  0  0  0  0  0  0  0
    4.5376   -0.5764    1.4889 C   0  0  0  0  0  0  0  0  0  0  0  0
    4.8145    0.5129    0.7150 O   0  0  0  0  0  0  0  0  0  0  0  0
    5.4532    1.6625    1.2792 C   0  0  0  0  0  0  0  0  0  0  0  0
   -1.1735   -1.5813    1.7393 O   0  0  0  0  0  0  0  0  0  0  0  0
   -0.9593    0.5331   -0.8032 O   0  0  0  0  0  0  0  0  0  0  0  0
    1.0677    0.1707   -2.7065 O   0  0  0  0  0  0  0  0  0  0  0  0
    2.2816    1.1296   -0.4322 O   0  0  0  0  0  0  0  0  0  0  0  0
    1.3443    2.1015    2.0324 O   0  0  0  0  0  0  0  0  0  0  0  0
    1.6102    3.0808   -1.7244 O   0  0  0  0  0  0  0  0  0  0  0  0
   -0.0746    2.2830    0.2581 Na  0  3  0  0  0  0  0  0  0  0  0  0
   -4.2959   -2.0585    3.2887 Na  0  3  0  0  0  0  0  0  0  0  0  0
    2.1758   -2.2637   -1.8204 H   0  0  0  0  0  0  0  0  0  0  0  0
    1.7722   -2.9869   -0.2913 H   0  0  0  0  0  0  0  0  0  0  0  0
    3.4514   -3.1171   -0.9139 H   0  0  0  0  0  0  0  0  0  0  0  0
    1.9416   -2.7154    1.6786 H   0  0  0  0  0  0  0  0  0  0  0  0
    3.2038   -4.1868    4.4652 H   0  0  0  0  0  0  0  0  0  0  0  0
    1.5564   -5.8754   -0.2308 H   0  0  0  0  0  0  0  0  0  0  0  0
   -1.8091   -6.0978    3.2064 H   0  0  0  0  0  0  0  0  0  0  0  0
    1.0183   -7.6143    4.9247 H   0  0  0  0  0  0  0  0  0  0  0  0
    0.7611   -8.5221    7.2019 H   0  0  0  0  0  0  0  0  0  0  0  0
   -5.5064   -7.0812    6.8091 H   0  0  0  0  0  0  0  0  0  0  0  0
   -4.4740   -5.8021    6.1029 H   0  0  0  0  0  0  0  0  0  0  0  0
   -3.0039   -6.2161   10.5908 H   0  0  0  0  0  0  0  0  0  0  0  0
   -1.9755   -5.8287    9.2161 H   0  0  0  0  0  0  0  0  0  0  0  0
   -1.2567   -6.5816   10.6136 H   0  0  0  0  0  0  0  0  0  0  0  0
   -3.4127   -8.7078   11.2197 H   0  0  0  0  0  0  0  0  0  0  0  0
   -1.6615   -9.0136   11.1496 H   0  0  0  0  0  0  0  0  0  0  0  0
   -2.7577   -9.9906   10.1750 H   0  0  0  0  0  0  0  0  0  0  0  0
    5.4029   -2.5653    4.1542 H   0  0  0  0  0  0  0  0  0  0  0  0
    8.3831   -0.5003    3.2668 H   0  0  0  0  0  0  0  0  0  0  0  0
    7.6037   -2.0140    2.7888 H   0  0  0  0  0  0  0  0  0  0  0  0
    7.3945   -1.3563    4.4597 H   0  0  0  0  0  0  0  0  0  0  0  0
    6.4056    1.8297    0.7522 H   0  0  0  0  0  0  0  0  0  0  0  0
    5.6137    1.6399    2.3542 H   0  0  0  0  0  0  0  0  0  0  0  0
    4.8143    2.5291    1.0882 H   0  0  0  0  0  0  0  0  0  0  0  0
   -0.5576   -1.4754    2.4903 H   0  0  0  0  0  0  0  0  0  0  0  0
   -0.7621   -2.3154    1.2490 H   0  0  0  0  0  0  0  0  0  0  0  0
   -0.6785    0.3375   -1.7305 H   0  0  0  0  0  0  0  0  0  0  0  0
   -1.2379   -0.3650   -0.5209 H   0  0  0  0  0  0  0  0  0  0  0  0
    1.7547   -0.1011   -3.3242 H   0  0  0  0  0  0  0  0  0  0  0  0
    1.1598    1.1511   -2.7109 H   0  0  0  0  0  0  0  0  0  0  0  0
    3.1947    0.8307   -0.2163 H   0  0  0  0  0  0  0  0  0  0  0  0
    1.9755    0.2830   -0.8018 H   0  0  0  0  0  0  0  0  0  0  0  0
    1.9698    1.3536    2.0973 H   0  0  0  0  0  0  0  0  0  0  0  0
    1.8553    2.7970    2.5050 H   0  0  0  0  0  0  0  0  0  0  0  0
    2.3708    3.3054   -2.3020 H   0  0  0  0  0  0  0  0  0  0  0  0
    2.0385    2.4700   -1.0834 H   0  0  0  0  0  0  0  0  0  0  0  0
  1  2  1  0  0  0  0
  1 49  1  0  0  0  0
  1 50  1  0  0  0  0
  1 51  1  0  0  0  0
  2  3  1  0  0  0  0
  3  4  1  0  0  0  0
  3 38  2  0  0  0  0
  4  5  2  0  0  0  0
  4 52  1  0  0  0  0
  5  6  1  0  0  0  0
  5 34  1  0  0  0  0
  6  7  1  0  0  0  0
  6 53  1  0  0  0  0
  7  8  1  0  0  0  0
  7 33  2  0  0  0  0
  8  9  2  0  0  0  0
  9 10  1  0  0  0  0
  9 54  1  0  0  0  0
 10 11  1  0  0  0  0
 10 12  2  0  0  0  0
 12 13  1  0  0  0  0
 12 33  1  0  0  0  0
 13 14  1  0  0  0  0
 13 55  1  0  0  0  0
 14 15  1  0  0  0  0
 14 19  2  0  0  0  0
 15 16  2  0  0  0  0
 15 56  1  0  0  0  0
 16 17  1  0  0  0  0
 16 57  1  0  0  0  0
 17 18  2  0  0  0  0
 17 32  1  0  0  0  0
 18 19  1  0  0  0  0
 18 20  1  0  0  0  0
 20 21  1  0  0  0  0
 20 27  1  0  0  0  0
 21 22  1  0  0  0  0
 21 58  1  0  0  0  0
 21 59  1  0  0  0  0
 22 23  1  0  0  0  0
 23 24  2  0  0  0  0
 23 25  1  0  0  0  0
 23 26  1  0  0  0  0
 27 28  2  0  0  0  0
 27 29  1  0  0  0  0
 29 30  1  0  0  0  0
 29 31  1  0  0  0  0
 29 32  1  0  0  0  0
 30 60  1  0  0  0  0
 30 61  1  0  0  0  0
 30 62  1  0  0  0  0
 31 63  1  0  0  0  0
 31 64  1  0  0  0  0
 31 65  1  0  0  0  0
 34 35  2  0  0  0  0
 34 66  1  0  0  0  0
 35 36  1  0  0  0  0
 35 38  1  0  0  0  0
 36 37  1  0  0  0  0
 37 67  1  0  0  0  0
 37 68  1  0  0  0  0
 37 69  1  0  0  0  0
 38 39  1  0  0  0  0
 39 40  1  0  0  0  0
 40 70  1  0  0  0  0
 40 71  1  0  0  0  0
 40 72  1  0  0  0  0
 41 73  1  0  0  0  0
 41 74  1  0  0  0  0
 42 75  1  0  0  0  0
 42 76  1  0  0  0  0
 43 77  1  0  0  0  0
 43 78  1  0  0  0  0
 44 79  1  0  0  0  0
 44 80  1  0  0  0  0
 45 81  1  0  0  0  0
 45 82  1  0  0  0  0
 46 83  1  0  0  0  0
 46 84  1  0  0  0  0
M  CHG  4  25  -1  26  -1  47   1  48   1
M  END
$$$$
