CHEMBL3676351
 OpenBabel04072215373D

 58 60  0  0  0  0  0  0  0  0999 V2000
    3.0305    0.9338    2.3348 C   0  0  0  0  0  0  0  0  0  0  0  0
    3.2559    0.2565    1.1997 C   0  0  0  0  0  0  0  0  0  0  0  0
    4.1225   -0.9470    1.2363 C   0  0  0  0  0  0  0  0  0  0  0  0
    4.4036   -1.5023    2.2915 O   0  0  0  0  0  0  0  0  0  0  0  0
    4.5002   -1.3621   -0.0249 N   0  0  0  0  0  0  0  0  0  0  0  0
    5.2522   -2.5362   -0.2306 C   0  0  0  0  0  0  0  0  0  0  0  0
    6.3679   -2.7262    0.5878 C   0  0  0  0  0  0  0  0  0  0  0  0
    7.1003   -3.9246    0.5676 C   0  0  0  0  0  0  0  0  0  0  0  0
    8.1682   -4.1932    1.4297 C   0  0  0  0  0  0  0  0  0  0  0  0
    8.5638   -3.2158    2.3814 N   0  0  0  0  0  0  0  0  0  0  0  0
    9.2783   -3.5077    3.5585 C   0  0  0  0  0  0  0  0  0  0  0  0
    8.9311   -4.6251    4.3264 C   0  0  0  0  0  0  0  0  0  0  0  0
    9.7286   -5.0569    5.3939 C   0  0  0  0  0  0  0  0  0  0  0  0
    9.3625   -6.3244    6.0762 C   0  0  0  0  0  0  0  0  0  0  0  0
    9.4743   -6.4385    7.2914 O   0  0  0  0  0  0  0  0  0  0  0  0
    8.9158   -7.3299    5.2341 N   0  0  0  0  0  0  0  0  0  0  0  0
    8.4366   -8.4994    5.8636 O   0  0  0  0  0  0  0  0  0  0  0  0
    9.4788   -9.4671    5.8193 C   0  0  0  0  0  0  0  0  0  0  0  0
   10.8545   -4.2961    5.7466 C   0  0  0  0  0  0  0  0  0  0  0  0
   12.1052   -4.8173    7.0771 Br  0  0  0  0  0  0  0  0  0  0  0  0
   11.1457   -3.1117    5.0540 C   0  0  0  0  0  0  0  0  0  0  0  0
   10.3631   -2.7324    3.9689 C   0  0  0  0  0  0  0  0  0  0  0  0
   10.6866   -1.6276    3.2799 F   0  0  0  0  0  0  0  0  0  0  0  0
    8.7972   -5.3853    1.4265 N   0  0  0  0  0  0  0  0  0  0  0  0
    8.3670   -6.2884    0.5411 C   0  0  0  0  0  0  0  0  0  0  0  0
    7.3551   -6.1331   -0.3206 N   0  0  0  0  0  0  0  0  0  0  0  0
    6.7222   -4.9552   -0.2964 C   0  0  0  0  0  0  0  0  0  0  0  0
    5.6425   -4.7369   -1.1451 C   0  0  0  0  0  0  0  0  0  0  0  0
    4.9247   -3.5341   -1.1626 C   0  0  0  0  0  0  0  0  0  0  0  0
    3.8736   -3.5410   -2.0465 O   0  0  0  0  0  0  0  0  0  0  0  0
    3.5822   -2.2875   -2.6490 C   0  0  0  0  0  0  0  0  0  0  0  0
    3.1250   -2.4332   -4.0993 C   0  0  0  0  0  0  0  0  0  0  0  0
    2.8754   -1.1353   -4.7099 N   0  0  0  0  0  0  0  0  0  0  0  0
    3.8789   -0.2030   -4.8669 C   0  0  0  0  0  0  0  0  0  0  0  0
    3.4410    1.1076   -5.4566 C   0  0  0  0  0  0  0  0  0  0  0  0
    5.0403   -0.3924   -4.5197 O   0  0  0  0  0  0  0  0  0  0  0  0
    2.3904    1.8098    2.3479 H   0  0  0  0  0  0  0  0  0  0  0  0
    3.4716    0.6271    3.2775 H   0  0  0  0  0  0  0  0  0  0  0  0
    2.8041    0.5624    0.2670 H   0  0  0  0  0  0  0  0  0  0  0  0
    4.0726   -0.9085   -0.8126 H   0  0  0  0  0  0  0  0  0  0  0  0
    6.6565   -1.9326    1.2734 H   0  0  0  0  0  0  0  0  0  0  0  0
    8.8652   -2.3554    1.9315 H   0  0  0  0  0  0  0  0  0  0  0  0
    8.0251   -5.1633    4.0562 H   0  0  0  0  0  0  0  0  0  0  0  0
    8.5502   -7.1557    4.3093 H   0  0  0  0  0  0  0  0  0  0  0  0
    9.1234  -10.3859    6.2895 H   0  0  0  0  0  0  0  0  0  0  0  0
   10.3593   -9.1086    6.3624 H   0  0  0  0  0  0  0  0  0  0  0  0
    9.7436   -9.6826    4.7784 H   0  0  0  0  0  0  0  0  0  0  0  0
   12.0042   -2.5001    5.3182 H   0  0  0  0  0  0  0  0  0  0  0  0
    8.8835   -7.2416    0.5258 H   0  0  0  0  0  0  0  0  0  0  0  0
    5.3334   -5.5501   -1.8035 H   0  0  0  0  0  0  0  0  0  0  0  0
    4.4706   -1.6498   -2.6365 H   0  0  0  0  0  0  0  0  0  0  0  0
    2.7772   -1.8075   -2.0789 H   0  0  0  0  0  0  0  0  0  0  0  0
    2.1975   -3.0146   -4.1489 H   0  0  0  0  0  0  0  0  0  0  0  0
    3.8789   -2.9647   -4.6894 H   0  0  0  0  0  0  0  0  0  0  0  0
    1.9833   -0.9796   -5.1648 H   0  0  0  0  0  0  0  0  0  0  0  0
    2.3551    1.1674   -5.5558 H   0  0  0  0  0  0  0  0  0  0  0  0
    3.9049    1.2308   -6.4368 H   0  0  0  0  0  0  0  0  0  0  0  0
    3.7677    1.9143   -4.7909 H   0  0  0  0  0  0  0  0  0  0  0  0
  1  2  2  0  0  0  0
  1 37  1  0  0  0  0
  1 38  1  0  0  0  0
  2  3  1  0  0  0  0
  2 39  1  0  0  0  0
  3  4  2  0  0  0  0
  3  5  1  0  0  0  0
  5  6  1  0  0  0  0
  5 40  1  0  0  0  0
  6  7  1  0  0  0  0
  6 29  2  0  0  0  0
  7  8  2  0  0  0  0
  7 41  1  0  0  0  0
  8  9  1  0  0  0  0
  8 27  1  0  0  0  0
  9 10  1  0  0  0  0
  9 24  2  0  0  0  0
 10 11  1  0  0  0  0
 10 42  1  0  0  0  0
 11 12  1  0  0  0  0
 11 22  2  0  0  0  0
 12 13  2  0  0  0  0
 12 43  1  0  0  0  0
 13 14  1  0  0  0  0
 13 19  1  0  0  0  0
 14 15  2  0  0  0  0
 14 16  1  0  0  0  0
 16 17  1  0  0  0  0
 16 44  1  0  0  0  0
 17 18  1  0  0  0  0
 18 45  1  0  0  0  0
 18 46  1  0  0  0  0
 18 47  1  0  0  0  0
 19 20  1  0  0  0  0
 19 21  2  0  0  0  0
 21 22  1  0  0  0  0
 21 48  1  0  0  0  0
 22 23  1  0  0  0  0
 24 25  1  0  0  0  0
 25 26  2  0  0  0  0
 25 49  1  0  0  0  0
 26 27  1  0  0  0  0
 27 28  2  0  0  0  0
 28 29  1  0  0  0  0
 28 50  1  0  0  0  0
 29 30  1  0  0  0  0
 30 31  1  0  0  0  0
 31 32  1  0  0  0  0
 31 51  1  0  0  0  0
 31 52  1  0  0  0  0
 32 33  1  0  0  0  0
 32 53  1  0  0  0  0
 32 54  1  0  0  0  0
 33 34  1  0  0  0  0
 33 55  1  0  0  0  0
 34 35  1  0  0  0  0
 34 36  2  0  0  0  0
 35 56  1  0  0  0  0
 35 57  1  0  0  0  0
 35 58  1  0  0  0  0
M  END
$$$$
