CHEMBL3906392
 OpenBabel04072215373D

 66 68  0  0  0  0  0  0  0  0999 V2000
    4.4922   -1.9719    8.6658 C   0  0  0  0  0  0  0  0  0  0  0  0
    5.3972   -1.6040    7.6250 O   0  0  0  0  0  0  0  0  0  0  0  0
    6.0330   -2.6680    7.0586 C   0  0  0  0  0  0  0  0  0  0  0  0
    5.8790   -3.8324    7.3851 O   0  0  0  0  0  0  0  0  0  0  0  0
    6.9662   -2.1833    5.9744 C   0  0  0  0  0  0  0  0  0  0  0  0
    7.6869   -3.3521    5.3034 C   0  0  0  0  0  0  0  0  0  0  0  0
    8.6407   -2.8614    4.2182 C   0  0  0  0  0  0  0  0  0  0  0  0
    9.3729   -4.0220    3.5590 C   0  0  0  0  0  0  0  0  0  0  0  0
   10.4835   -3.5032    2.2470 S   0  0  2  0  0  0  0  0  0  0  0  0
   11.5119   -2.2736    3.0261 C   0  0  0  0  0  0  0  0  0  0  0  0
    9.6923   -2.7981    1.2584 O   0  0  0  0  0  0  0  0  0  0  0  0
   11.3956   -4.7160    1.9604 N   0  0  0  0  0  0  0  0  0  0  0  0
   10.9079   -5.8445    1.2743 C   0  0  0  0  0  0  0  0  0  0  0  0
   10.0047   -5.7854    0.4468 O   0  0  0  0  0  0  0  0  0  0  0  0
   11.4958   -7.1889    1.5225 C   0  0  0  0  0  0  0  0  0  0  0  0
   10.9726   -8.3024    0.8818 C   0  0  0  0  0  0  0  0  0  0  0  0
   11.4323   -9.5677    1.0619 N   0  0  0  0  0  0  0  0  0  0  0  0
   12.4561   -9.7437    1.9169 C   0  0  0  0  0  0  0  0  0  0  0  0
   12.9596  -11.0414    1.9854 N   0  0  0  0  0  0  0  0  0  0  0  0
   13.0362   -8.6811    2.6253 C   0  0  0  0  0  0  0  0  0  0  0  0
   14.0903   -8.9037    3.5679 C   0  0  0  0  0  0  0  0  0  0  0  0
   14.9681   -9.1377    4.3541 C   0  0  0  0  0  0  0  0  0  0  0  0
   16.0362   -9.4387    5.2590 C   0  0  0  0  0  0  0  0  0  0  0  0
   16.8121   -8.4031    5.7790 C   0  0  0  0  0  0  0  0  0  0  0  0
   17.8853   -8.7007    6.6122 C   0  0  0  0  0  0  0  0  0  0  0  0
   18.1780  -10.0285    6.9296 C   0  0  0  0  0  0  0  0  0  0  0  0
   17.3968  -11.0780    6.4384 C   0  0  0  0  0  0  0  0  0  0  0  0
   17.6668  -12.4352    6.7333 N   0  0  0  0  0  0  0  0  0  0  0  0
   18.5321  -12.9174    7.7098 C   0  0  0  0  0  0  0  0  0  0  0  0
   19.1408  -12.2142    8.5115 O   0  0  0  0  0  0  0  0  0  0  0  0
   18.6374  -14.3679    7.7442 C   0  0  0  0  0  0  0  0  0  0  0  0
   17.9845  -15.1120    6.7944 O   0  0  0  0  0  0  0  0  0  0  0  0
   18.2386  -16.4177    7.0638 C   0  0  0  0  0  0  0  0  0  0  0  0
   19.0434  -16.5356    8.1698 C   0  0  0  0  0  0  0  0  0  0  0  0
   19.3119  -15.2135    8.6192 C   0  0  0  0  0  0  0  0  0  0  0  0
   20.1305  -14.8289    9.7992 C   0  0  0  0  0  0  0  0  0  0  0  0
   16.3211  -10.7729    5.5944 C   0  0  0  0  0  0  0  0  0  0  0  0
   12.5482   -7.3889    2.4203 C   0  0  0  0  0  0  0  0  0  0  0  0
    4.0322   -1.0593    9.0548 H   0  0  0  0  0  0  0  0  0  0  0  0
    5.0283   -2.4650    9.4832 H   0  0  0  0  0  0  0  0  0  0  0  0
    3.7007   -2.6185    8.2732 H   0  0  0  0  0  0  0  0  0  0  0  0
    7.6983   -1.5064    6.4290 H   0  0  0  0  0  0  0  0  0  0  0  0
    6.3801   -1.6316    5.2317 H   0  0  0  0  0  0  0  0  0  0  0  0
    6.9537   -4.0437    4.8712 H   0  0  0  0  0  0  0  0  0  0  0  0
    8.2497   -3.9179    6.0571 H   0  0  0  0  0  0  0  0  0  0  0  0
    9.3601   -2.1753    4.6761 H   0  0  0  0  0  0  0  0  0  0  0  0
    8.0877   -2.2908    3.4634 H   0  0  0  0  0  0  0  0  0  0  0  0
    8.6590   -4.7172    3.1029 H   0  0  0  0  0  0  0  0  0  0  0  0
    9.9698   -4.5725    4.2943 H   0  0  0  0  0  0  0  0  0  0  0  0
   12.2598   -1.9415    2.3034 H   0  0  0  0  0  0  0  0  0  0  0  0
   11.9913   -2.7055    3.9060 H   0  0  0  0  0  0  0  0  0  0  0  0
   10.8932   -1.4183    3.3049 H   0  0  0  0  0  0  0  0  0  0  0  0
   10.1424   -8.2201    0.1817 H   0  0  0  0  0  0  0  0  0  0  0  0
   12.3302  -11.6515    1.4718 H   0  0  0  0  0  0  0  0  0  0  0  0
   13.1436  -11.3495    2.9311 H   0  0  0  0  0  0  0  0  0  0  0  0
   16.6004   -7.3656    5.5311 H   0  0  0  0  0  0  0  0  0  0  0  0
   18.5125   -7.9058    7.0082 H   0  0  0  0  0  0  0  0  0  0  0  0
   19.0518  -10.2099    7.5481 H   0  0  0  0  0  0  0  0  0  0  0  0
   17.1544  -13.1439    6.2191 H   0  0  0  0  0  0  0  0  0  0  0  0
   17.7809  -17.1343    6.3962 H   0  0  0  0  0  0  0  0  0  0  0  0
   19.3922  -17.4603    8.6099 H   0  0  0  0  0  0  0  0  0  0  0  0
   20.4860  -15.7161   10.3343 H   0  0  0  0  0  0  0  0  0  0  0  0
   19.5398  -14.2324   10.5017 H   0  0  0  0  0  0  0  0  0  0  0  0
   21.0071  -14.2477    9.4957 H   0  0  0  0  0  0  0  0  0  0  0  0
   15.6882  -11.5621    5.1964 H   0  0  0  0  0  0  0  0  0  0  0  0
   12.9869   -6.5471    2.9484 H   0  0  0  0  0  0  0  0  0  0  0  0
  1  2  1  0  0  0  0
  1 39  1  0  0  0  0
  1 40  1  0  0  0  0
  1 41  1  0  0  0  0
  2  3  1  0  0  0  0
  3  4  2  0  0  0  0
  3  5  1  0  0  0  0
  5  6  1  0  0  0  0
  5 42  1  0  0  0  0
  5 43  1  0  0  0  0
  6  7  1  0  0  0  0
  6 44  1  0  0  0  0
  6 45  1  0  0  0  0
  7  8  1  0  0  0  0
  7 46  1  0  0  0  0
  7 47  1  0  0  0  0
  8 48  1  0  0  0  0
  8 49  1  0  0  0  0
  9 11  2  6  0  0  0
  9 12  2  0  0  0  0
  9 10  1  0  0  0  0
  9  8  1  0  0  0  0
 10 50  1  0  0  0  0
 10 51  1  0  0  0  0
 10 52  1  0  0  0  0
 12 13  1  0  0  0  0
 13 14  2  0  0  0  0
 13 15  1  0  0  0  0
 15 16  1  0  0  0  0
 15 38  2  0  0  0  0
 16 17  2  0  0  0  0
 16 53  1  0  0  0  0
 17 18  1  0  0  0  0
 18 19  1  0  0  0  0
 18 20  2  0  0  0  0
 19 54  1  0  0  0  0
 19 55  1  0  0  0  0
 20 21  1  0  0  0  0
 20 38  1  0  0  0  0
 21 22  3  0  0  0  0
 22 23  1  0  0  0  0
 23 24  1  0  0  0  0
 23 37  2  0  0  0  0
 24 25  2  0  0  0  0
 24 56  1  0  0  0  0
 25 26  1  0  0  0  0
 25 57  1  0  0  0  0
 26 27  2  0  0  0  0
 26 58  1  0  0  0  0
 27 28  1  0  0  0  0
 27 37  1  0  0  0  0
 28 29  1  0  0  0  0
 28 59  1  0  0  0  0
 29 30  2  0  0  0  0
 29 31  1  0  0  0  0
 31 32  1  0  0  0  0
 31 35  2  0  0  0  0
 32 33  1  0  0  0  0
 33 34  2  0  0  0  0
 33 60  1  0  0  0  0
 34 35  1  0  0  0  0
 34 61  1  0  0  0  0
 35 36  1  0  0  0  0
 36 62  1  0  0  0  0
 36 63  1  0  0  0  0
 36 64  1  0  0  0  0
 37 65  1  0  0  0  0
 38 66  1  0  0  0  0
M  END
$$$$
