CHEMBL3909183
 OpenBabel04072215373D

 64 68  0  0  1  0  0  0  0  0999 V2000
    1.1181    0.7264    0.8010 C   0  0  0  0  0  0  0  0  0  0  0  0
    1.3793   -0.5339    1.6034 C   0  0  3  0  0  0  0  0  0  0  0  0
    2.7078   -0.5393    2.3307 C   0  0  0  0  0  0  0  0  0  0  0  0
    3.2265   -1.8496    2.0707 N   0  0  0  0  0  0  0  0  0  0  0  0
    4.4659   -2.3114    2.5904 C   0  0  0  0  0  0  0  0  0  0  0  0
    5.1747   -3.3427    1.9632 C   0  0  0  0  0  0  0  0  0  0  0  0
    6.4364   -3.7742    2.3998 C   0  0  0  0  0  0  0  0  0  0  0  0
    7.1936   -4.7377    1.6757 N   0  0  0  0  0  0  0  0  0  0  0  0
    7.0398   -4.9546    0.3118 C   0  0  0  0  0  0  0  0  0  0  0  0
    6.2970   -4.3036   -0.4162 O   0  0  0  0  0  0  0  0  0  0  0  0
    7.8305   -5.9966   -0.1688 N   0  0  0  0  0  0  0  0  0  0  0  0
    7.7450   -6.3026   -1.5557 C   0  0  0  0  0  0  0  0  0  0  0  0
    7.9264   -5.2966   -2.5148 C   0  0  0  0  0  0  0  0  0  0  0  0
    7.7018   -5.5474   -3.8719 C   0  0  0  0  0  0  0  0  0  0  0  0
    7.2406   -6.7987   -4.2843 C   0  0  0  0  0  0  0  0  0  0  0  0
    6.9389   -7.1090   -5.5976 O   0  0  0  0  0  0  0  0  0  0  0  0
    6.3855   -6.1451   -6.4223 C   0  0  0  0  0  0  0  0  0  0  0  0
    5.5100   -5.1617   -5.9706 C   0  0  0  0  0  0  0  0  0  0  0  0
    5.0638   -4.2340   -6.8835 C   0  0  0  0  0  0  0  0  0  0  0  0
    5.3927   -4.2561   -8.1859 N   0  0  0  0  0  0  0  0  0  0  0  0
    6.1824   -5.2418   -8.6452 C   0  0  0  0  0  0  0  0  0  0  0  0
    6.4997   -5.2863  -10.0155 N   0  0  0  0  0  0  0  0  0  0  0  0
    6.0319   -4.3617  -10.9407 C   0  0  0  0  0  0  0  0  0  0  0  0
    5.3048   -3.4098  -10.7291 O   0  0  0  0  0  0  0  0  0  0  0  0
    6.4549   -4.5587  -12.3611 C   0  0  0  0  0  0  0  0  0  0  0  0
    6.0127   -5.7995  -13.1030 C   0  0  0  0  0  0  0  0  0  0  0  0
    7.4751   -5.5279  -12.8917 C   0  0  0  0  0  0  0  0  0  0  0  0
    6.7004   -6.2120   -7.7852 C   0  0  0  0  0  0  0  0  0  0  0  0
    7.1270   -7.8151   -3.3280 C   0  0  0  0  0  0  0  0  0  0  0  0
    6.7135   -9.0376   -3.6958 F   0  0  0  0  0  0  0  0  0  0  0  0
    7.3977   -7.5854   -1.9725 C   0  0  0  0  0  0  0  0  0  0  0  0
    6.9623   -3.2202    3.5680 C   0  0  0  0  0  0  0  0  0  0  0  0
    6.2749   -2.1840    4.2314 C   0  0  0  0  0  0  0  0  0  0  0  0
    6.8383   -1.5251    5.4672 C   0  0  0  0  0  0  0  0  0  0  0  0
    8.0526   -2.0104    5.8440 F   0  0  0  0  0  0  0  0  0  0  0  0
    7.0050   -0.1829    5.3039 F   0  0  0  0  0  0  0  0  0  0  0  0
    6.0235   -1.6677    6.5491 F   0  0  0  0  0  0  0  0  0  0  0  0
    5.0416   -1.7283    3.7234 C   0  0  0  0  0  0  0  0  0  0  0  0
    2.4531   -2.4740    1.1004 C   0  0  0  0  0  0  0  0  0  0  0  0
    2.5728   -3.5910    0.6262 O   0  0  0  0  0  0  0  0  0  0  0  0
    1.4322   -1.6479    0.7128 O   0  0  0  0  0  0  0  0  0  0  0  0
    1.0087    1.5954    1.4556 H   0  0  0  0  0  0  0  0  0  0  0  0
    0.2046    0.6146    0.2069 H   0  0  0  0  0  0  0  0  0  0  0  0
    1.9287    0.9196    0.0892 H   0  0  0  0  0  0  0  0  0  0  0  0
    0.5507   -0.7110    2.2984 H   0  0  0  0  0  0  0  0  0  0  0  0
    2.5631   -0.3642    3.4004 H   0  0  0  0  0  0  0  0  0  0  0  0
    3.4069    0.2044    1.9306 H   0  0  0  0  0  0  0  0  0  0  0  0
    4.7482   -3.8063    1.0811 H   0  0  0  0  0  0  0  0  0  0  0  0
    8.0682   -5.0449    2.0770 H   0  0  0  0  0  0  0  0  0  0  0  0
    7.9012   -6.7808    0.4650 H   0  0  0  0  0  0  0  0  0  0  0  0
    8.2121   -4.2918   -2.2083 H   0  0  0  0  0  0  0  0  0  0  0  0
    7.8479   -4.7372   -4.5806 H   0  0  0  0  0  0  0  0  0  0  0  0
    5.1936   -5.0879   -4.9376 H   0  0  0  0  0  0  0  0  0  0  0  0
    4.4148   -3.4134   -6.5906 H   0  0  0  0  0  0  0  0  0  0  0  0
    7.0790   -6.0412  -10.3381 H   0  0  0  0  0  0  0  0  0  0  0  0
    6.3801   -3.6245  -12.9202 H   0  0  0  0  0  0  0  0  0  0  0  0
    5.5918   -5.6583  -14.0931 H   0  0  0  0  0  0  0  0  0  0  0  0
    5.5516   -6.6031  -12.5406 H   0  0  0  0  0  0  0  0  0  0  0  0
    8.0524   -5.2124  -13.7569 H   0  0  0  0  0  0  0  0  0  0  0  0
    8.0292   -6.1664  -12.2201 H   0  0  0  0  0  0  0  0  0  0  0  0
    7.3471   -7.0016   -8.1501 H   0  0  0  0  0  0  0  0  0  0  0  0
    7.2409   -8.3911   -1.2638 H   0  0  0  0  0  0  0  0  0  0  0  0
    7.9258   -3.5511    3.9489 H   0  0  0  0  0  0  0  0  0  0  0  0
    4.5348   -0.9265    4.2558 H   0  0  0  0  0  0  0  0  0  0  0  0
  1  2  1  0  0  0  0
  1 42  1  0  0  0  0
  1 43  1  0  0  0  0
  1 44  1  0  0  0  0
  2  3  1  0  0  0  0
  2 41  1  0  0  0  0
  2 45  1  0  0  0  0
  3  4  1  0  0  0  0
  3 46  1  0  0  0  0
  3 47  1  0  0  0  0
  4  5  1  0  0  0  0
  4 39  1  0  0  0  0
  5  6  1  0  0  0  0
  5 38  2  0  0  0  0
  6  7  2  0  0  0  0
  6 48  1  0  0  0  0
  7  8  1  0  0  0  0
  7 32  1  0  0  0  0
  8  9  1  0  0  0  0
  8 49  1  0  0  0  0
  9 10  2  0  0  0  0
  9 11  1  0  0  0  0
 11 12  1  0  0  0  0
 11 50  1  0  0  0  0
 12 13  1  0  0  0  0
 12 31  2  0  0  0  0
 13 14  2  0  0  0  0
 13 51  1  0  0  0  0
 14 15  1  0  0  0  0
 14 52  1  0  0  0  0
 15 16  1  0  0  0  0
 15 29  2  0  0  0  0
 16 17  1  0  0  0  0
 17 18  1  0  0  0  0
 17 28  2  0  0  0  0
 18 19  2  0  0  0  0
 18 53  1  0  0  0  0
 19 20  1  0  0  0  0
 19 54  1  0  0  0  0
 20 21  2  0  0  0  0
 21 22  1  0  0  0  0
 21 28  1  0  0  0  0
 22 23  1  0  0  0  0
 22 55  1  0  0  0  0
 23 24  2  0  0  0  0
 23 25  1  0  0  0  0
 25 26  1  0  0  0  0
 25 27  1  0  0  0  0
 25 56  1  0  0  0  0
 26 27  1  0  0  0  0
 26 57  1  0  0  0  0
 26 58  1  0  0  0  0
 27 59  1  0  0  0  0
 27 60  1  0  0  0  0
 28 61  1  0  0  0  0
 29 30  1  0  0  0  0
 29 31  1  0  0  0  0
 31 62  1  0  0  0  0
 32 33  2  0  0  0  0
 32 63  1  0  0  0  0
 33 34  1  0  0  0  0
 33 38  1  0  0  0  0
 34 35  1  0  0  0  0
 34 36  1  0  0  0  0
 34 37  1  0  0  0  0
 38 64  1  0  0  0  0
 39 40  2  0  0  0  0
 39 41  1  0  0  0  0
M  END
$$$$
