CHEMBL443563
 OpenBabel04072215383D

 42 44  0  0  0  0  0  0  0  0999 V2000
    1.1681   -0.7618    0.0381 C   0  0  0  0  0  0  0  0  0  0  0  0
    2.3048    0.0775   -0.1552 O   0  0  0  0  0  0  0  0  0  0  0  0
    2.9904    0.4871    0.9611 C   0  0  0  0  0  0  0  0  0  0  0  0
    2.5268    0.2346    2.2543 C   0  0  0  0  0  0  0  0  0  0  0  0
    3.2510    0.5572    3.4087 C   0  0  0  0  0  0  0  0  0  0  0  0
    2.7983    0.2172    4.7023 N   0  0  0  0  0  0  0  0  0  0  0  0
    1.7783   -0.6163    4.9929 C   0  0  0  0  0  0  0  0  0  0  0  0
    0.9022   -1.1979    4.2020 N   0  0  0  0  0  0  0  0  0  0  0  0
    0.1351   -1.9568    5.0293 C   0  0  0  0  0  0  0  0  0  0  0  0
    0.5679   -1.8237    6.3263 C   0  0  0  0  0  0  0  0  0  0  0  0
    0.1488   -2.3958    7.5933 C   0  0  0  0  0  0  0  0  0  0  0  0
   -0.9190   -3.3078    7.6268 C   0  0  0  0  0  0  0  0  0  0  0  0
   -1.3455   -3.8695    8.8308 C   0  0  0  0  0  0  0  0  0  0  0  0
   -0.7073   -3.5263   10.0192 C   0  0  0  0  0  0  0  0  0  0  0  0
    0.3574   -2.6282   10.0021 C   0  0  0  0  0  0  0  0  0  0  0  0
    0.7837   -2.0656    8.7966 C   0  0  0  0  0  0  0  0  0  0  0  0
    1.6254   -0.9469    6.3163 O   0  0  0  0  0  0  0  0  0  0  0  0
    4.4806    1.2004    3.2379 C   0  0  0  0  0  0  0  0  0  0  0  0
    4.9695    1.4872    1.9509 C   0  0  0  0  0  0  0  0  0  0  0  0
    6.1631    2.1365    1.7343 O   0  0  0  0  0  0  0  0  0  0  0  0
    7.1894    1.8797    2.6851 C   0  0  0  0  0  0  0  0  0  0  0  0
    4.2103    1.1592    0.8059 C   0  0  0  0  0  0  0  0  0  0  0  0
    4.7860    1.4756   -0.4035 O   0  0  0  0  0  0  0  0  0  0  0  0
    3.8884    1.8605   -1.4390 C   0  0  0  0  0  0  0  0  0  0  0  0
    0.7909   -1.0535   -0.9458 H   0  0  0  0  0  0  0  0  0  0  0  0
    0.3638   -0.2205    0.5489 H   0  0  0  0  0  0  0  0  0  0  0  0
    1.4342   -1.6786    0.5764 H   0  0  0  0  0  0  0  0  0  0  0  0
    1.5602   -0.2335    2.3676 H   0  0  0  0  0  0  0  0  0  0  0  0
    3.3752    0.5266    5.4717 H   0  0  0  0  0  0  0  0  0  0  0  0
   -0.6764   -2.5589    4.6478 H   0  0  0  0  0  0  0  0  0  0  0  0
   -1.4367   -3.5967    6.7158 H   0  0  0  0  0  0  0  0  0  0  0  0
   -2.1746   -4.5722    8.8365 H   0  0  0  0  0  0  0  0  0  0  0  0
   -1.0416   -3.9601   10.9573 H   0  0  0  0  0  0  0  0  0  0  0  0
    0.8577   -2.3628   10.9296 H   0  0  0  0  0  0  0  0  0  0  0  0
    1.6184   -1.3669    8.8073 H   0  0  0  0  0  0  0  0  0  0  0  0
    5.0521    1.4876    4.1131 H   0  0  0  0  0  0  0  0  0  0  0  0
    8.1409    2.1933    2.2445 H   0  0  0  0  0  0  0  0  0  0  0  0
    7.2681    0.8130    2.9232 H   0  0  0  0  0  0  0  0  0  0  0  0
    7.0325    2.4727    3.5914 H   0  0  0  0  0  0  0  0  0  0  0  0
    4.4436    2.4799   -2.1498 H   0  0  0  0  0  0  0  0  0  0  0  0
    3.0499    2.4596   -1.0657 H   0  0  0  0  0  0  0  0  0  0  0  0
    3.5371    0.9818   -1.9887 H   0  0  0  0  0  0  0  0  0  0  0  0
  1  2  1  0  0  0  0
  1 25  1  0  0  0  0
  1 26  1  0  0  0  0
  1 27  1  0  0  0  0
  2  3  1  0  0  0  0
  3  4  1  0  0  0  0
  3 22  2  0  0  0  0
  4  5  2  0  0  0  0
  4 28  1  0  0  0  0
  5  6  1  0  0  0  0
  5 18  1  0  0  0  0
  6  7  1  0  0  0  0
  6 29  1  0  0  0  0
  7  8  2  0  0  0  0
  7 17  1  0  0  0  0
  8  9  1  0  0  0  0
  9 10  2  0  0  0  0
  9 30  1  0  0  0  0
 10 11  1  0  0  0  0
 10 17  1  0  0  0  0
 11 12  1  0  0  0  0
 11 16  2  0  0  0  0
 12 13  2  0  0  0  0
 12 31  1  0  0  0  0
 13 14  1  0  0  0  0
 13 32  1  0  0  0  0
 14 15  2  0  0  0  0
 14 33  1  0  0  0  0
 15 16  1  0  0  0  0
 15 34  1  0  0  0  0
 16 35  1  0  0  0  0
 18 19  2  0  0  0  0
 18 36  1  0  0  0  0
 19 20  1  0  0  0  0
 19 22  1  0  0  0  0
 20 21  1  0  0  0  0
 21 37  1  0  0  0  0
 21 38  1  0  0  0  0
 21 39  1  0  0  0  0
 22 23  1  0  0  0  0
 23 24  1  0  0  0  0
 24 40  1  0  0  0  0
 24 41  1  0  0  0  0
 24 42  1  0  0  0  0
M  END
$$$$
