CHEMBL222974
 OpenBabel04072215363D

 47 50  0  0  0  0  0  0  0  0999 V2000
    2.4065   -0.4424    1.5285 C   0  0  0  0  0  0  0  0  0  0  0  0
    0.9128   -0.3074    1.4974 C   0  0  0  0  0  0  0  0  0  0  0  0
    0.3151    0.8923    1.9008 C   0  0  0  0  0  0  0  0  0  0  0  0
   -1.0662    1.0249    1.8773 C   0  0  0  0  0  0  0  0  0  0  0  0
   -1.8603   -0.0397    1.4540 C   0  0  0  0  0  0  0  0  0  0  0  0
   -1.2914   -1.2459    1.0298 C   0  0  0  0  0  0  0  0  0  0  0  0
   -2.0588   -2.3552    0.5929 N   0  0  0  0  0  0  0  0  0  0  0  0
   -3.4256   -2.3364    0.3628 C   0  0  0  0  0  0  0  0  0  0  0  0
   -4.1263   -1.3287    0.4117 O   0  0  0  0  0  0  0  0  0  0  0  0
   -3.9382   -3.6000    0.1089 N   0  0  0  0  0  0  0  0  0  0  0  0
   -5.3325   -3.7495   -0.1110 C   0  0  0  0  0  0  0  0  0  0  0  0
   -6.0408   -2.8560   -0.9166 C   0  0  0  0  0  0  0  0  0  0  0  0
   -7.4361   -2.9057   -0.9827 C   0  0  0  0  0  0  0  0  0  0  0  0
   -8.1678   -3.8689   -0.2711 C   0  0  0  0  0  0  0  0  0  0  0  0
   -9.6453   -3.9152   -0.3449 C   0  0  0  0  0  0  0  0  0  0  0  0
  -10.3426   -3.6016   -1.5361 C   0  0  0  0  0  0  0  0  0  0  0  0
  -11.7277   -3.7282   -1.6476 C   0  0  0  0  0  0  0  0  0  0  0  0
  -12.4870   -4.2156   -0.5875 C   0  0  0  0  0  0  0  0  0  0  0  0
  -11.8117   -4.5048    0.6036 C   0  0  0  0  0  0  0  0  0  0  0  0
  -10.4375   -4.3155    0.7637 C   0  0  0  0  0  0  0  0  0  0  0  0
  -10.2231   -4.5994    2.1377 C   0  0  0  0  0  0  0  0  0  0  0  0
  -11.3146   -5.0458    2.7628 N   0  0  0  0  0  0  0  0  0  0  0  0
  -12.2493   -5.0298    1.7961 N   0  0  0  0  0  0  0  0  0  0  0  0
  -13.5492   -5.6026    2.0519 C   0  0  0  0  0  0  0  0  0  0  0  0
   -7.4233   -4.8128    0.4660 C   0  0  0  0  0  0  0  0  0  0  0  0
   -6.0232   -4.7619    0.5443 C   0  0  0  0  0  0  0  0  0  0  0  0
    0.1026   -1.3731    1.0626 C   0  0  0  0  0  0  0  0  0  0  0  0
    2.8790    0.4655    1.9197 H   0  0  0  0  0  0  0  0  0  0  0  0
    2.7910   -0.6101    0.5189 H   0  0  0  0  0  0  0  0  0  0  0  0
    2.6982   -1.2733    2.1771 H   0  0  0  0  0  0  0  0  0  0  0  0
    0.9190    1.7312    2.2377 H   0  0  0  0  0  0  0  0  0  0  0  0
   -1.5365    1.9531    2.1900 H   0  0  0  0  0  0  0  0  0  0  0  0
   -2.9325    0.1197    1.4720 H   0  0  0  0  0  0  0  0  0  0  0  0
   -1.5620   -3.1691    0.2753 H   0  0  0  0  0  0  0  0  0  0  0  0
   -3.4797   -4.3492    0.6035 H   0  0  0  0  0  0  0  0  0  0  0  0
   -5.5188   -2.0817   -1.4749 H   0  0  0  0  0  0  0  0  0  0  0  0
   -7.9387   -2.1517   -1.5843 H   0  0  0  0  0  0  0  0  0  0  0  0
   -9.7936   -3.2691   -2.4154 H   0  0  0  0  0  0  0  0  0  0  0  0
  -12.2157   -3.4693   -2.5846 H   0  0  0  0  0  0  0  0  0  0  0  0
  -13.5589   -4.3507   -0.6859 H   0  0  0  0  0  0  0  0  0  0  0  0
   -9.3071   -4.5057    2.7062 H   0  0  0  0  0  0  0  0  0  0  0  0
  -13.5289   -6.1451    3.0014 H   0  0  0  0  0  0  0  0  0  0  0  0
  -13.7844   -6.3008    1.2436 H   0  0  0  0  0  0  0  0  0  0  0  0
  -14.2825   -4.7951    2.0906 H   0  0  0  0  0  0  0  0  0  0  0  0
   -7.9284   -5.6096    1.0067 H   0  0  0  0  0  0  0  0  0  0  0  0
   -5.5065   -5.4779    1.1767 H   0  0  0  0  0  0  0  0  0  0  0  0
    0.5777   -2.2986    0.7479 H   0  0  0  0  0  0  0  0  0  0  0  0
  1  2  1  0  0  0  0
  1 28  1  0  0  0  0
  1 29  1  0  0  0  0
  1 30  1  0  0  0  0
  2  3  1  0  0  0  0
  2 27  2  0  0  0  0
  3  4  2  0  0  0  0
  3 31  1  0  0  0  0
  4  5  1  0  0  0  0
  4 32  1  0  0  0  0
  5  6  2  0  0  0  0
  5 33  1  0  0  0  0
  6  7  1  0  0  0  0
  6 27  1  0  0  0  0
  7  8  1  0  0  0  0
  7 34  1  0  0  0  0
  8  9  2  0  0  0  0
  8 10  1  0  0  0  0
 10 11  1  0  0  0  0
 10 35  1  0  0  0  0
 11 12  1  0  0  0  0
 11 26  2  0  0  0  0
 12 13  2  0  0  0  0
 12 36  1  0  0  0  0
 13 14  1  0  0  0  0
 13 37  1  0  0  0  0
 14 15  1  0  0  0  0
 14 25  2  0  0  0  0
 15 16  1  0  0  0  0
 15 20  2  0  0  0  0
 16 17  2  0  0  0  0
 16 38  1  0  0  0  0
 17 18  1  0  0  0  0
 17 39  1  0  0  0  0
 18 19  2  0  0  0  0
 18 40  1  0  0  0  0
 19 20  1  0  0  0  0
 19 23  1  0  0  0  0
 20 21  1  0  0  0  0
 21 22  2  0  0  0  0
 21 41  1  0  0  0  0
 22 23  1  0  0  0  0
 23 24  1  0  0  0  0
 24 42  1  0  0  0  0
 24 43  1  0  0  0  0
 24 44  1  0  0  0  0
 25 26  1  0  0  0  0
 25 45  1  0  0  0  0
 26 46  1  0  0  0  0
 27 47  1  0  0  0  0
M  END
$$$$
