CHEMBL1973937
 OpenBabel04072215363D

 46 49  0  0  0  0  0  0  0  0999 V2000
    0.9128   -0.1577   -0.0085 C   0  0  0  0  0  0  0  0  0  0  0  0
    2.4093   -0.0865   -0.0903 C   0  0  0  0  0  0  0  0  0  0  0  0
    3.1010    0.9575    0.5264 C   0  0  0  0  0  0  0  0  0  0  0  0
    4.4888    1.0422    0.4546 C   0  0  0  0  0  0  0  0  0  0  0  0
    5.2861    0.0769   -0.2143 C   0  0  0  0  0  0  0  0  0  0  0  0
    6.7603    0.1971   -0.1820 C   0  0  0  0  0  0  0  0  0  0  0  0
    7.3957    0.6220    0.9956 C   0  0  0  0  0  0  0  0  0  0  0  0
    8.7829    0.7373    1.0838 C   0  0  0  0  0  0  0  0  0  0  0  0
    9.5991    0.3729    0.0159 C   0  0  0  0  0  0  0  0  0  0  0  0
   11.0088    0.3901    0.1106 N   0  0  0  0  0  0  0  0  0  0  0  0
   11.7007    0.3416    1.3102 C   0  0  0  0  0  0  0  0  0  0  0  0
   11.1933    0.1196    2.4035 O   0  0  0  0  0  0  0  0  0  0  0  0
   13.0506    0.6107    1.1344 N   0  0  0  0  0  0  0  0  0  0  0  0
   13.9524    0.5622    2.2232 C   0  0  0  0  0  0  0  0  0  0  0  0
   13.8744   -0.4470    3.1919 C   0  0  0  0  0  0  0  0  0  0  0  0
   14.7485   -0.4584    4.2787 C   0  0  0  0  0  0  0  0  0  0  0  0
   15.7009    0.5487    4.4103 C   0  0  0  0  0  0  0  0  0  0  0  0
   15.7810    1.5514    3.4441 C   0  0  0  0  0  0  0  0  0  0  0  0
   17.0358    2.9506    3.6586 Br  0  0  0  0  0  0  0  0  0  0  0  0
   14.9289    1.5524    2.3375 C   0  0  0  0  0  0  0  0  0  0  0  0
    8.9931   -0.0003   -1.1842 C   0  0  0  0  0  0  0  0  0  0  0  0
    7.5902   -0.0584   -1.2849 C   0  0  0  0  0  0  0  0  0  0  0  0
    4.5978   -1.0056   -0.8379 C   0  0  0  0  0  0  0  0  0  0  0  0
    4.9055   -2.2040   -1.5618 C   0  0  0  0  0  0  0  0  0  0  0  0
    6.1320   -2.6779   -1.8421 N   0  0  0  0  0  0  0  0  0  0  0  0
    3.8275   -2.8738   -1.9475 N   0  0  0  0  0  0  0  0  0  0  0  0
    2.8188   -2.1486   -1.4597 N   0  0  0  0  0  0  0  0  0  0  0  0
    3.1964   -1.0352   -0.7654 C   0  0  0  0  0  0  0  0  0  0  0  0
    0.4978    0.6676    0.5800 H   0  0  0  0  0  0  0  0  0  0  0  0
    0.6058   -1.0957    0.4674 H   0  0  0  0  0  0  0  0  0  0  0  0
    0.4795   -0.1087   -1.0123 H   0  0  0  0  0  0  0  0  0  0  0  0
    2.5598    1.7257    1.0780 H   0  0  0  0  0  0  0  0  0  0  0  0
    4.9649    1.8905    0.9451 H   0  0  0  0  0  0  0  0  0  0  0  0
    6.8183    0.8668    1.8849 H   0  0  0  0  0  0  0  0  0  0  0  0
    9.1955    1.1107    2.0166 H   0  0  0  0  0  0  0  0  0  0  0  0
   11.5339    0.1319   -0.7124 H   0  0  0  0  0  0  0  0  0  0  0  0
   13.2474    1.2828    0.4064 H   0  0  0  0  0  0  0  0  0  0  0  0
   13.1275   -1.2350    3.1140 H   0  0  0  0  0  0  0  0  0  0  0  0
   14.6709   -1.2439    5.0261 H   0  0  0  0  0  0  0  0  0  0  0  0
   16.3647    0.5484    5.2703 H   0  0  0  0  0  0  0  0  0  0  0  0
   14.9896    2.3555    1.6100 H   0  0  0  0  0  0  0  0  0  0  0  0
    9.5883   -0.2735   -2.0514 H   0  0  0  0  0  0  0  0  0  0  0  0
    7.1530   -0.3325   -2.2442 H   0  0  0  0  0  0  0  0  0  0  0  0
    6.8794   -2.5057   -1.1791 H   0  0  0  0  0  0  0  0  0  0  0  0
    6.1453   -3.6250   -2.2056 H   0  0  0  0  0  0  0  0  0  0  0  0
    1.8728   -2.4772   -1.6218 H   0  0  0  0  0  0  0  0  0  0  0  0
  1  2  1  0  0  0  0
  1 29  1  0  0  0  0
  1 30  1  0  0  0  0
  1 31  1  0  0  0  0
  2  3  1  0  0  0  0
  2 28  2  0  0  0  0
  3  4  2  0  0  0  0
  3 32  1  0  0  0  0
  4  5  1  0  0  0  0
  4 33  1  0  0  0  0
  5  6  1  0  0  0  0
  5 23  2  0  0  0  0
  6  7  1  0  0  0  0
  6 22  2  0  0  0  0
  7  8  2  0  0  0  0
  7 34  1  0  0  0  0
  8  9  1  0  0  0  0
  8 35  1  0  0  0  0
  9 10  1  0  0  0  0
  9 21  2  0  0  0  0
 10 11  1  0  0  0  0
 10 36  1  0  0  0  0
 11 12  2  0  0  0  0
 11 13  1  0  0  0  0
 13 14  1  0  0  0  0
 13 37  1  0  0  0  0
 14 15  1  0  0  0  0
 14 20  2  0  0  0  0
 15 16  2  0  0  0  0
 15 38  1  0  0  0  0
 16 17  1  0  0  0  0
 16 39  1  0  0  0  0
 17 18  2  0  0  0  0
 17 40  1  0  0  0  0
 18 19  1  0  0  0  0
 18 20  1  0  0  0  0
 20 41  1  0  0  0  0
 21 22  1  0  0  0  0
 21 42  1  0  0  0  0
 22 43  1  0  0  0  0
 23 24  1  0  0  0  0
 23 28  1  0  0  0  0
 24 25  1  0  0  0  0
 24 26  2  0  0  0  0
 25 44  1  0  0  0  0
 25 45  1  0  0  0  0
 26 27  1  0  0  0  0
 27 28  1  0  0  0  0
 27 46  1  0  0  0  0
M  END
$$$$
