CHEMBL188536
 OpenBabel04072215363D

 46 48  0  0  0  0  0  0  0  0999 V2000
    6.9083    9.0574   -3.1896 O   0  0  0  0  0  0  0  0  0  0  0  0
    5.6345    8.5084   -3.4971 C   0  0  0  0  0  0  0  0  0  0  0  0
    5.7965    7.0681   -3.9607 C   0  0  0  0  0  0  0  0  0  0  0  0
    6.4079    6.2017   -2.8584 C   0  0  0  0  0  0  0  0  0  0  0  0
    6.5440    4.8127   -3.3173 N   0  0  0  0  0  0  0  0  0  0  0  0
    7.1870    3.9410   -2.4149 C   0  0  0  0  0  0  0  0  0  0  0  0
    7.0126    3.9727   -1.0307 C   0  0  0  0  0  0  0  0  0  0  0  0
    7.6084    3.1320   -0.1552 N   0  0  0  0  0  0  0  0  0  0  0  0
    8.4151    2.1824   -0.6869 C   0  0  0  0  0  0  0  0  0  0  0  0
    8.6312    1.9919   -2.0501 C   0  0  0  0  0  0  0  0  0  0  0  0
    9.5130    0.9202   -2.5341 C   0  0  0  0  0  0  0  0  0  0  0  0
    9.2826    0.2176   -3.7143 C   0  0  0  0  0  0  0  0  0  0  0  0
   10.0883   -0.7747   -4.1537 N   0  0  0  0  0  0  0  0  0  0  0  0
   11.1552   -1.0311   -3.3578 C   0  0  0  0  0  0  0  0  0  0  0  0
   11.4348   -0.3421   -2.1743 C   0  0  0  0  0  0  0  0  0  0  0  0
   12.6082   -0.6347   -1.4785 N   0  0  0  0  0  0  0  0  0  0  0  0
   13.0952    0.3248   -0.5014 C   0  0  0  0  0  0  0  0  0  0  0  0
   13.0318   -0.1899    0.9182 C   0  0  0  0  0  0  0  0  0  0  0  0
   14.2116   -0.4388    1.6380 C   0  0  0  0  0  0  0  0  0  0  0  0
   14.1618   -0.8038    2.9879 C   0  0  0  0  0  0  0  0  0  0  0  0
   12.9330   -0.9260    3.6300 C   0  0  0  0  0  0  0  0  0  0  0  0
   11.7533   -0.7055    2.9202 C   0  0  0  0  0  0  0  0  0  0  0  0
   11.8019   -0.3411    1.5720 C   0  0  0  0  0  0  0  0  0  0  0  0
   10.5990    0.6354   -1.7586 N   0  0  0  0  0  0  0  0  0  0  0  0
    7.9706    2.8896   -2.9105 C   0  0  0  0  0  0  0  0  0  0  0  0
    6.7662    9.9747   -2.8967 H   0  0  0  0  0  0  0  0  0  0  0  0
    5.1792    9.1114   -4.2870 H   0  0  0  0  0  0  0  0  0  0  0  0
    5.0044    8.5649   -2.6028 H   0  0  0  0  0  0  0  0  0  0  0  0
    6.4441    7.0341   -4.8448 H   0  0  0  0  0  0  0  0  0  0  0  0
    4.8191    6.6626   -4.2531 H   0  0  0  0  0  0  0  0  0  0  0  0
    5.7555    6.2522   -1.9774 H   0  0  0  0  0  0  0  0  0  0  0  0
    7.3959    6.5914   -2.5812 H   0  0  0  0  0  0  0  0  0  0  0  0
    6.9894    4.7759   -4.2320 H   0  0  0  0  0  0  0  0  0  0  0  0
    6.3629    4.7021   -0.5582 H   0  0  0  0  0  0  0  0  0  0  0  0
    8.8921    1.5403    0.0509 H   0  0  0  0  0  0  0  0  0  0  0  0
    8.4280    0.4248   -4.3496 H   0  0  0  0  0  0  0  0  0  0  0  0
   11.8282   -1.7991   -3.7244 H   0  0  0  0  0  0  0  0  0  0  0  0
   12.6615   -1.6034   -1.1816 H   0  0  0  0  0  0  0  0  0  0  0  0
   12.6082    1.3053   -0.5567 H   0  0  0  0  0  0  0  0  0  0  0  0
   14.1454    0.5163   -0.7549 H   0  0  0  0  0  0  0  0  0  0  0  0
   15.1824   -0.3266    1.1612 H   0  0  0  0  0  0  0  0  0  0  0  0
   15.0840   -0.9682    3.5397 H   0  0  0  0  0  0  0  0  0  0  0  0
   12.8936   -1.1860    4.6846 H   0  0  0  0  0  0  0  0  0  0  0  0
   10.7931   -0.7952    3.4229 H   0  0  0  0  0  0  0  0  0  0  0  0
   10.8748   -0.1450    1.0372 H   0  0  0  0  0  0  0  0  0  0  0  0
    8.0977    2.7980   -3.9859 H   0  0  0  0  0  0  0  0  0  0  0  0
  1  2  1  0  0  0  0
  1 26  1  0  0  0  0
  2  3  1  0  0  0  0
  2 27  1  0  0  0  0
  2 28  1  0  0  0  0
  3  4  1  0  0  0  0
  3 29  1  0  0  0  0
  3 30  1  0  0  0  0
  4  5  1  0  0  0  0
  4 31  1  0  0  0  0
  4 32  1  0  0  0  0
  5  6  1  0  0  0  0
  5 33  1  0  0  0  0
  6  7  1  0  0  0  0
  6 25  2  0  0  0  0
  7  8  2  0  0  0  0
  7 34  1  0  0  0  0
  8  9  1  0  0  0  0
  9 10  2  0  0  0  0
  9 35  1  0  0  0  0
 10 11  1  0  0  0  0
 10 25  1  0  0  0  0
 11 12  1  0  0  0  0
 11 24  2  0  0  0  0
 12 13  2  0  0  0  0
 12 36  1  0  0  0  0
 13 14  1  0  0  0  0
 14 15  2  0  0  0  0
 14 37  1  0  0  0  0
 15 16  1  0  0  0  0
 15 24  1  0  0  0  0
 16 17  1  0  0  0  0
 16 38  1  0  0  0  0
 17 18  1  0  0  0  0
 17 39  1  0  0  0  0
 17 40  1  0  0  0  0
 18 19  1  0  0  0  0
 18 23  2  0  0  0  0
 19 20  2  0  0  0  0
 19 41  1  0  0  0  0
 20 21  1  0  0  0  0
 20 42  1  0  0  0  0
 21 22  2  0  0  0  0
 21 43  1  0  0  0  0
 22 23  1  0  0  0  0
 22 44  1  0  0  0  0
 23 45  1  0  0  0  0
 25 46  1  0  0  0  0
M  END
$$$$
