CHEMBL3922607
 OpenBabel04072215373D

 57 60  0  0  1  0  0  0  0  0999 V2000
    1.3204   -0.5051   -0.2769 C   0  0  0  0  0  0  0  0  0  0  0  0
    1.9701   -0.1597   -1.5038 O   0  0  0  0  0  0  0  0  0  0  0  0
    2.7791    0.9377   -1.3920 C   0  0  0  0  0  0  0  0  0  0  0  0
    2.5150    1.9727   -0.5065 C   0  0  0  0  0  0  0  0  0  0  0  0
    3.3770    3.0380   -0.3666 C   0  0  0  0  0  0  0  0  0  0  0  0
    3.2007    4.0689    0.5156 O   0  0  0  0  0  0  0  0  0  0  0  0
    2.0518    3.9431    1.3541 C   0  0  0  0  0  0  0  0  0  0  0  0
    4.5465    3.0304   -1.1055 C   0  0  0  0  0  0  0  0  0  0  0  0
    4.9121    1.9236   -1.9110 C   0  0  0  0  0  0  0  0  0  0  0  0
    6.2210    1.7263   -2.4233 N   0  0  0  0  0  0  0  0  0  0  0  0
    6.8563    0.4596   -2.7130 C   0  0  0  0  0  0  0  0  0  0  0  0
    7.8294    0.5268   -3.6665 C   0  0  0  0  0  0  0  0  0  0  0  0
    8.5219   -0.5542   -4.0202 C   0  0  0  0  0  0  0  0  0  0  0  0
    8.1544   -1.7986   -3.6254 C   0  0  0  0  0  0  0  0  0  0  0  0
    8.1397   -2.4807   -4.6758 N   0  0  0  0  0  0  0  0  0  0  0  0
    9.2484   -3.1679   -4.6916 C   0  0  0  0  0  0  0  0  0  0  0  0
    9.4324   -4.3146   -4.0323 C   0  0  0  0  0  0  0  0  0  0  0  0
   10.4955   -4.6810   -5.4065 C   0  0  0  0  0  0  0  0  0  0  0  0
   10.5435   -4.1592   -6.8521 C   0  0  0  0  0  0  0  0  0  0  0  0
   11.6171   -4.4857   -7.5939 N   0  0  0  0  0  0  0  0  0  0  0  0
   12.3529   -5.2657   -6.7927 N   0  0  0  0  0  0  0  0  0  0  0  0
   13.6704   -5.7375   -7.2759 C   0  0  0  0  0  0  0  0  0  0  0  0
   11.6985   -5.4407   -5.5246 C   0  0  0  0  0  0  0  0  0  0  0  0
    8.4329   -3.8423   -2.9336 N   0  0  0  0  0  0  0  0  0  0  0  0
    7.6191   -2.3436   -2.5986 C   0  0  0  0  0  0  0  0  0  0  0  0
    6.6718   -0.9509   -2.1718 C   0  0  0  0  0  0  0  0  0  0  0  0
    6.9314    3.0227   -2.9032 C   0  0  1  0  0  0  0  0  0  0  0  0
    5.9731    4.0042   -3.5925 C   0  0  0  0  0  0  0  0  0  0  0  0
    7.7407    3.7348   -1.7953 C   0  0  0  0  0  0  0  0  0  0  0  0
    8.7640    2.9066   -1.1608 N   0  0  0  0  0  0  0  0  0  0  0  0
    3.9346    0.9607   -2.1548 C   0  0  0  0  0  0  0  0  0  0  0  0
    0.7563   -1.4242   -0.4339 H   0  0  0  0  0  0  0  0  0  0  0  0
    0.5992    0.2617    0.0244 H   0  0  0  0  0  0  0  0  0  0  0  0
    2.0457   -0.6824    0.5286 H   0  0  0  0  0  0  0  0  0  0  0  0
    1.6201    1.9410    0.0863 H   0  0  0  0  0  0  0  0  0  0  0  0
    2.0194    4.7950    2.0343 H   0  0  0  0  0  0  0  0  0  0  0  0
    2.0969    3.0307    1.9645 H   0  0  0  0  0  0  0  0  0  0  0  0
    1.1375    3.9598    0.7499 H   0  0  0  0  0  0  0  0  0  0  0  0
    5.1494    3.9242   -1.0030 H   0  0  0  0  0  0  0  0  0  0  0  0
    8.0313    1.3419   -4.3411 H   0  0  0  0  0  0  0  0  0  0  0  0
    9.1614   -0.5118   -4.8862 H   0  0  0  0  0  0  0  0  0  0  0  0
    9.9115   -2.6522   -5.3588 H   0  0  0  0  0  0  0  0  0  0  0  0
    9.8731   -3.4754   -7.3738 H   0  0  0  0  0  0  0  0  0  0  0  0
   13.8742   -5.4702   -8.3328 H   0  0  0  0  0  0  0  0  0  0  0  0
   13.7471   -6.8280   -7.2095 H   0  0  0  0  0  0  0  0  0  0  0  0
   14.4730   -5.2802   -6.6856 H   0  0  0  0  0  0  0  0  0  0  0  0
   12.2323   -6.0858   -4.8539 H   0  0  0  0  0  0  0  0  0  0  0  0
    5.9118   -0.9882   -1.3629 H   0  0  0  0  0  0  0  0  0  0  0  0
    7.6908    2.8636   -3.6706 H   0  0  0  0  0  0  0  0  0  0  0  0
    5.1948    4.3393   -2.9213 H   0  0  0  0  0  0  0  0  0  0  0  0
    5.4638    3.5562   -4.4485 H   0  0  0  0  0  0  0  0  0  0  0  0
    6.4806    4.9200   -3.9080 H   0  0  0  0  0  0  0  0  0  0  0  0
    7.0732    4.1157   -1.0288 H   0  0  0  0  0  0  0  0  0  0  0  0
    8.2494    4.6057   -2.2286 H   0  0  0  0  0  0  0  0  0  0  0  0
    8.2951    2.1125   -0.7197 H   0  0  0  0  0  0  0  0  0  0  0  0
    9.2028    3.4441   -0.4152 H   0  0  0  0  0  0  0  0  0  0  0  0
    4.1040    0.1901   -2.9008 H   0  0  0  0  0  0  0  0  0  0  0  0
  1  2  1  0  0  0  0
  1 32  1  0  0  0  0
  1 33  1  0  0  0  0
  1 34  1  0  0  0  0
  2  3  1  0  0  0  0
  3  4  1  0  0  0  0
  3 31  2  0  0  0  0
  4  5  2  0  0  0  0
  4 35  1  0  0  0  0
  5  6  1  0  0  0  0
  5  8  1  0  0  0  0
  6  7  1  0  0  0  0
  7 36  1  0  0  0  0
  7 37  1  0  0  0  0
  7 38  1  0  0  0  0
  8  9  2  0  0  0  0
  8 39  1  0  0  0  0
  9 10  1  0  0  0  0
  9 31  1  0  0  0  0
 10 11  1  0  0  0  0
 10 27  1  0  0  0  0
 11 12  1  0  0  0  0
 11 26  2  0  0  0  0
 12 13  2  0  0  0  0
 12 40  1  0  0  0  0
 13 14  1  0  0  0  0
 13 41  1  0  0  0  0
 14 15  1  0  0  0  0
 14 25  2  0  0  0  0
 15 16  2  0  0  0  0
 16 17  1  0  0  0  0
 16 42  1  0  0  0  0
 17 18  1  0  0  0  0
 17 24  2  0  0  0  0
 18 19  1  0  0  0  0
 18 23  2  0  0  0  0
 19 20  2  0  0  0  0
 19 43  1  0  0  0  0
 20 21  1  0  0  0  0
 21 22  1  0  0  0  0
 21 23  1  0  0  0  0
 22 44  1  0  0  0  0
 22 45  1  0  0  0  0
 22 46  1  0  0  0  0
 23 47  1  0  0  0  0
 24 25  1  0  0  0  0
 25 26  1  0  0  0  0
 26 48  1  0  0  0  0
 27 28  1  0  0  0  0
 27 29  1  0  0  0  0
 27 49  1  6  0  0  0
 28 50  1  0  0  0  0
 28 51  1  0  0  0  0
 28 52  1  0  0  0  0
 29 30  1  0  0  0  0
 29 53  1  0  0  0  0
 29 54  1  0  0  0  0
 30 55  1  0  0  0  0
 30 56  1  0  0  0  0
 31 57  1  0  0  0  0
M  END
$$$$
