CHEMBL2348996
 OpenBabel04072215363D

 53 57  0  0  0  0  0  0  0  0999 V2000
   -2.3132    0.6076   -0.9431 C   0  0  0  0  0  0  0  0  0  0  0  0
   -1.0139    0.0182   -0.5426 C   0  0  0  0  0  0  0  0  0  0  0  0
   -0.6074   -1.3356   -0.5309 C   0  0  0  0  0  0  0  0  0  0  0  0
    0.7051   -1.3411   -0.0788 C   0  0  0  0  0  0  0  0  0  0  0  0
    1.6473   -2.4270    0.1398 C   0  0  0  0  0  0  0  0  0  0  0  0
    2.7803   -2.1898    0.5413 O   0  0  0  0  0  0  0  0  0  0  0  0
    1.2172   -3.7218   -0.1670 N   0  0  0  0  0  0  0  0  0  0  0  0
    2.0116   -4.8924    0.0208 C   0  0  0  0  0  0  0  0  0  0  0  0
    3.1279   -4.8933    0.8704 C   0  0  0  0  0  0  0  0  0  0  0  0
    3.9870   -5.9862    0.9509 C   0  0  0  0  0  0  0  0  0  0  0  0
    3.7219   -7.1245    0.2097 C   0  0  0  0  0  0  0  0  0  0  0  0
    2.5567   -7.1902   -0.5548 C   0  0  0  0  0  0  0  0  0  0  0  0
    2.2896   -8.3408   -1.3408 O   0  0  0  0  0  0  0  0  0  0  0  0
    2.6161   -9.6101   -0.8556 C   0  0  0  0  0  0  0  0  0  0  0  0
    2.7789  -10.5326   -2.0049 C   0  0  0  0  0  0  0  0  0  0  0  0
    3.1186  -11.7976   -1.7148 C   0  0  0  0  0  0  0  0  0  0  0  0
    3.2915  -12.1790   -0.3638 C   0  0  0  0  0  0  0  0  0  0  0  0
    3.6129  -13.3306    0.1818 N   0  0  0  0  0  0  0  0  0  0  0  0
    3.6417  -13.1026    1.5281 C   0  0  0  0  0  0  0  0  0  0  0  0
    3.9176  -14.0626    2.4732 N   0  0  0  0  0  0  0  0  0  0  0  0
    4.1825  -15.3841    2.1858 C   0  0  0  0  0  0  0  0  0  0  0  0
    4.2529  -15.9172    1.0884 O   0  0  0  0  0  0  0  0  0  0  0  0
    4.3550  -16.2199    3.4202 C   0  0  0  0  0  0  0  0  0  0  0  0
    4.7853  -17.6682    3.3333 C   0  0  0  0  0  0  0  0  0  0  0  0
    3.3656  -17.3341    3.6842 C   0  0  0  0  0  0  0  0  0  0  0  0
    3.3473  -11.7870    1.8104 C   0  0  0  0  0  0  0  0  0  0  0  0
    3.1044  -11.1995    0.5972 N   0  0  0  0  0  0  0  0  0  0  0  0
    2.7578   -9.8957    0.4003 N   0  0  0  0  0  0  0  0  0  0  0  0
    1.7007   -6.0783   -0.6670 C   0  0  0  0  0  0  0  0  0  0  0  0
    0.9878   -0.0060    0.1606 N   0  0  0  0  0  0  0  0  0  0  0  0
    2.1880    0.6295    0.6593 C   0  0  0  0  0  0  0  0  0  0  0  0
   -0.0392    0.8205   -0.1225 N   0  0  0  0  0  0  0  0  0  0  0  0
   -3.0134   -0.1614   -1.2802 H   0  0  0  0  0  0  0  0  0  0  0  0
   -2.1714    1.3231   -1.7602 H   0  0  0  0  0  0  0  0  0  0  0  0
   -2.7675    1.1401   -0.1006 H   0  0  0  0  0  0  0  0  0  0  0  0
   -1.2086   -2.1850   -0.8191 H   0  0  0  0  0  0  0  0  0  0  0  0
    0.3578   -3.8223   -0.6865 H   0  0  0  0  0  0  0  0  0  0  0  0
    3.3733   -4.0407    1.4956 H   0  0  0  0  0  0  0  0  0  0  0  0
    4.8690   -5.9339    1.5825 H   0  0  0  0  0  0  0  0  0  0  0  0
    4.4262   -7.9486    0.2468 H   0  0  0  0  0  0  0  0  0  0  0  0
    2.6554  -10.1706   -3.0158 H   0  0  0  0  0  0  0  0  0  0  0  0
    3.2777  -12.5447   -2.4845 H   0  0  0  0  0  0  0  0  0  0  0  0
    3.8826  -13.7702    3.4374 H   0  0  0  0  0  0  0  0  0  0  0  0
    4.7273  -15.6833    4.2878 H   0  0  0  0  0  0  0  0  0  0  0  0
    5.4210  -18.0634    4.1172 H   0  0  0  0  0  0  0  0  0  0  0  0
    4.9795  -18.0932    2.3537 H   0  0  0  0  0  0  0  0  0  0  0  0
    3.0386  -17.4975    4.7035 H   0  0  0  0  0  0  0  0  0  0  0  0
    2.6087  -17.5404    2.9338 H   0  0  0  0  0  0  0  0  0  0  0  0
    3.2776  -11.2220    2.7268 H   0  0  0  0  0  0  0  0  0  0  0  0
    0.8343   -6.1383   -1.3184 H   0  0  0  0  0  0  0  0  0  0  0  0
    2.9877   -0.0718    0.8701 H   0  0  0  0  0  0  0  0  0  0  0  0
    1.9334    1.1584    1.5824 H   0  0  0  0  0  0  0  0  0  0  0  0
    2.5339    1.3409   -0.0962 H   0  0  0  0  0  0  0  0  0  0  0  0
  1  2  1  0  0  0  0
  1 33  1  0  0  0  0
  1 34  1  0  0  0  0
  1 35  1  0  0  0  0
  2  3  1  0  0  0  0
  2 32  2  0  0  0  0
  3  4  2  0  0  0  0
  3 36  1  0  0  0  0
  4  5  1  0  0  0  0
  4 30  1  0  0  0  0
  5  6  2  0  0  0  0
  5  7  1  0  0  0  0
  7  8  1  0  0  0  0
  7 37  1  0  0  0  0
  8  9  1  0  0  0  0
  8 29  2  0  0  0  0
  9 10  2  0  0  0  0
  9 38  1  0  0  0  0
 10 11  1  0  0  0  0
 10 39  1  0  0  0  0
 11 12  2  0  0  0  0
 11 40  1  0  0  0  0
 12 13  1  0  0  0  0
 12 29  1  0  0  0  0
 13 14  1  0  0  0  0
 14 15  1  0  0  0  0
 14 28  2  0  0  0  0
 15 16  2  0  0  0  0
 15 41  1  0  0  0  0
 16 17  1  0  0  0  0
 16 42  1  0  0  0  0
 17 18  2  0  0  0  0
 17 27  1  0  0  0  0
 18 19  1  0  0  0  0
 19 20  1  0  0  0  0
 19 26  2  0  0  0  0
 20 21  1  0  0  0  0
 20 43  1  0  0  0  0
 21 22  2  0  0  0  0
 21 23  1  0  0  0  0
 23 24  1  0  0  0  0
 23 25  1  0  0  0  0
 23 44  1  0  0  0  0
 24 25  1  0  0  0  0
 24 45  1  0  0  0  0
 24 46  1  0  0  0  0
 25 47  1  0  0  0  0
 25 48  1  0  0  0  0
 26 27  1  0  0  0  0
 26 49  1  0  0  0  0
 27 28  1  0  0  0  0
 29 50  1  0  0  0  0
 30 31  1  0  0  0  0
 30 32  1  0  0  0  0
 31 51  1  0  0  0  0
 31 52  1  0  0  0  0
 31 53  1  0  0  0  0
M  END
$$$$
