CHEMBL3656078
 OpenBabel04072215373D

 82 85  0  0  1  0  0  0  0  0999 V2000
    1.9502   -1.2631    2.2616 C   0  0  0  0  0  0  0  0  0  0  0  0
    3.0790   -0.7301    1.5712 O   0  0  0  0  0  0  0  0  0  0  0  0
    3.7507    0.2908    2.1686 C   0  0  0  0  0  0  0  0  0  0  0  0
    3.4316    0.8225    3.2262 O   0  0  0  0  0  0  0  0  0  0  0  0
    4.9527    0.7015    1.3036 C   0  0  2  0  0  0  0  0  0  0  0  0
    6.0123   -0.4131    1.1757 C   0  0  0  0  0  0  0  0  0  0  0  0
    5.5547   -1.7312    0.5550 C   0  0  0  0  0  0  0  0  0  0  0  0
    4.9201   -1.5868   -0.8054 C   0  0  0  0  0  0  0  0  0  0  0  0
    3.7814   -1.9400   -1.0790 O   0  0  0  0  0  0  0  0  0  0  0  0
    5.8372   -1.1332   -1.7012 O   0  0  0  0  0  0  0  0  0  0  0  0
    5.5470   -1.4587   -3.0695 C   0  0  0  0  0  0  0  0  0  0  0  0
    6.1014   -2.8621   -3.3594 C   0  0  3  0  0  0  0  0  0  0  0  0
    5.5001   -3.8532   -2.5118 O   0  0  0  0  0  0  0  0  0  0  0  0
    5.8923   -3.2543   -4.8226 C   0  0  0  0  0  0  0  0  0  0  0  0
    6.4383   -4.5413   -5.1087 O   0  0  0  0  0  0  0  0  0  0  0  0
    5.5503    1.9210    1.8645 N   0  0  0  0  0  0  0  0  0  0  0  0
    6.4533    2.6599    1.1288 C   0  0  0  0  0  0  0  0  0  0  0  0
    6.8259    2.3034    0.0101 O   0  0  0  0  0  0  0  0  0  0  0  0
    6.9494    3.8961    1.7235 C   0  0  0  0  0  0  0  0  0  0  0  0
    6.5656    4.5525    2.8807 C   0  0  0  0  0  0  0  0  0  0  0  0
    7.2738    5.7320    2.9652 N   0  0  0  0  0  0  0  0  0  0  0  0
    8.1618    5.8317    1.9202 C   0  0  0  0  0  0  0  0  0  0  0  0
    9.0535    6.9679    1.7259 C   0  0  0  0  0  0  0  0  0  0  0  0
   10.2510    6.8262    1.0380 C   0  0  0  0  0  0  0  0  0  0  0  0
   10.9870    7.9672    0.7265 C   0  0  0  0  0  0  0  0  0  0  0  0
   12.1593    7.9558   -0.0068 O   0  0  0  0  0  0  0  0  0  0  0  0
   12.3261    6.9938   -0.9778 C   0  0  0  0  0  0  0  0  0  0  0  0
   11.2836    6.5418   -1.7816 C   0  0  0  0  0  0  0  0  0  0  0  0
   11.4881    5.4771   -2.6566 C   0  0  0  0  0  0  0  0  0  0  0  0
   12.7415    4.8938   -2.8209 C   0  0  0  0  0  0  0  0  0  0  0  0
   12.9607    3.7634   -3.6528 N   0  0  0  0  0  0  0  0  0  0  0  0
   12.0012    3.1386   -4.4236 C   0  0  0  0  0  0  0  0  0  0  0  0
   10.8401    3.5351   -4.5733 O   0  0  0  0  0  0  0  0  0  0  0  0
   12.4617    1.9734   -5.0147 N   0  0  0  0  0  0  0  0  0  0  0  0
   11.5710    1.2171   -5.8270 C   0  0  0  0  0  0  0  0  0  0  0  0
   10.7877    1.8284   -6.8162 C   0  0  0  0  0  0  0  0  0  0  0  0
    9.8338    1.0913   -7.5309 C   0  0  0  0  0  0  0  0  0  0  0  0
    8.9836    1.7536   -8.5774 C   0  0  0  0  0  0  0  0  0  0  0  0
    9.6641   -0.2690   -7.2420 C   0  0  0  0  0  0  0  0  0  0  0  0
   10.4612   -0.8896   -6.2769 C   0  0  0  0  0  0  0  0  0  0  0  0
   11.4218   -0.1490   -5.5932 C   0  0  0  0  0  0  0  0  0  0  0  0
   12.1593   -0.7469   -4.6446 F   0  0  0  0  0  0  0  0  0  0  0  0
   13.8171    5.4240   -2.0917 C   0  0  0  0  0  0  0  0  0  0  0  0
   13.6022    6.4747   -1.1741 C   0  0  0  0  0  0  0  0  0  0  0  0
   10.5450    9.1997    1.1926 C   0  0  0  0  0  0  0  0  0  0  0  0
    9.3596    9.2395    1.9126 C   0  0  0  0  0  0  0  0  0  0  0  0
    8.6003    8.1530    2.1914 N   0  0  0  0  0  0  0  0  0  0  0  0
    7.9747    4.7029    1.1452 C   0  0  0  0  0  0  0  0  0  0  0  0
    1.4695   -1.9927    1.6004 H   0  0  0  0  0  0  0  0  0  0  0  0
    1.2281   -0.4750    2.4886 H   0  0  0  0  0  0  0  0  0  0  0  0
    2.2693   -1.7792    3.1719 H   0  0  0  0  0  0  0  0  0  0  0  0
    4.5629    0.9770    0.3151 H   0  0  0  0  0  0  0  0  0  0  0  0
    6.8519   -0.0497    0.5737 H   0  0  0  0  0  0  0  0  0  0  0  0
    6.4338   -0.6286    2.1663 H   0  0  0  0  0  0  0  0  0  0  0  0
    4.8668   -2.2675    1.2143 H   0  0  0  0  0  0  0  0  0  0  0  0
    6.4159   -2.3994    0.4372 H   0  0  0  0  0  0  0  0  0  0  0  0
    6.0509   -0.7154   -3.6959 H   0  0  0  0  0  0  0  0  0  0  0  0
    4.4725   -1.3896   -3.2766 H   0  0  0  0  0  0  0  0  0  0  0  0
    7.1682   -2.8878   -3.1107 H   0  0  0  0  0  0  0  0  0  0  0  0
    4.5322   -3.8101   -2.6342 H   0  0  0  0  0  0  0  0  0  0  0  0
    6.3760   -2.5332   -5.4882 H   0  0  0  0  0  0  0  0  0  0  0  0
    4.8260   -3.2972   -5.0625 H   0  0  0  0  0  0  0  0  0  0  0  0
    7.1523   -4.7156   -4.4691 H   0  0  0  0  0  0  0  0  0  0  0  0
    5.2163    2.2664    2.7544 H   0  0  0  0  0  0  0  0  0  0  0  0
    5.8284    4.3175    3.6359 H   0  0  0  0  0  0  0  0  0  0  0  0
    7.1726    6.4422    3.6799 H   0  0  0  0  0  0  0  0  0  0  0  0
   10.5771    5.8409    0.7254 H   0  0  0  0  0  0  0  0  0  0  0  0
   10.2864    6.9675   -1.7115 H   0  0  0  0  0  0  0  0  0  0  0  0
   10.6095    5.1319   -3.1892 H   0  0  0  0  0  0  0  0  0  0  0  0
   13.9108    3.4185   -3.7342 H   0  0  0  0  0  0  0  0  0  0  0  0
   13.0636    1.4149   -4.4197 H   0  0  0  0  0  0  0  0  0  0  0  0
   10.9037    2.8910   -7.0151 H   0  0  0  0  0  0  0  0  0  0  0  0
    9.2311    2.8146   -8.6849 H   0  0  0  0  0  0  0  0  0  0  0  0
    7.9248    1.6821   -8.3086 H   0  0  0  0  0  0  0  0  0  0  0  0
    9.1430    1.2737   -9.5484 H   0  0  0  0  0  0  0  0  0  0  0  0
    8.9064   -0.8483   -7.7662 H   0  0  0  0  0  0  0  0  0  0  0  0
   10.3224   -1.9388   -6.0396 H   0  0  0  0  0  0  0  0  0  0  0  0
   14.8195    5.0273   -2.2091 H   0  0  0  0  0  0  0  0  0  0  0  0
   14.4416    6.8586   -0.5975 H   0  0  0  0  0  0  0  0  0  0  0  0
   11.1026   10.1076    0.9918 H   0  0  0  0  0  0  0  0  0  0  0  0
    8.9692   10.1823    2.2867 H   0  0  0  0  0  0  0  0  0  0  0  0
    8.4920    4.4771    0.2193 H   0  0  0  0  0  0  0  0  0  0  0  0
  1  2  1  0  0  0  0
  1 49  1  0  0  0  0
  1 50  1  0  0  0  0
  1 51  1  0  0  0  0
  2  3  1  0  0  0  0
  3  4  2  0  0  0  0
  5 16  1  0  0  0  0
  5  6  1  0  0  0  0
  5  3  1  0  0  0  0
  5 52  1  6  0  0  0
  6  7  1  0  0  0  0
  6 53  1  0  0  0  0
  6 54  1  0  0  0  0
  7  8  1  0  0  0  0
  7 55  1  0  0  0  0
  7 56  1  0  0  0  0
  8  9  2  0  0  0  0
  8 10  1  0  0  0  0
 10 11  1  0  0  0  0
 11 12  1  0  0  0  0
 11 57  1  0  0  0  0
 11 58  1  0  0  0  0
 12 13  1  0  0  0  0
 12 14  1  0  0  0  0
 12 59  1  0  0  0  0
 13 60  1  0  0  0  0
 14 15  1  0  0  0  0
 14 61  1  0  0  0  0
 14 62  1  0  0  0  0
 15 63  1  0  0  0  0
 16 17  1  0  0  0  0
 16 64  1  0  0  0  0
 17 18  2  0  0  0  0
 17 19  1  0  0  0  0
 19 20  2  0  0  0  0
 19 48  1  0  0  0  0
 20 21  1  0  0  0  0
 20 65  1  0  0  0  0
 21 22  1  0  0  0  0
 21 66  1  0  0  0  0
 22 23  1  0  0  0  0
 22 48  2  0  0  0  0
 23 24  1  0  0  0  0
 23 47  2  0  0  0  0
 24 25  2  0  0  0  0
 24 67  1  0  0  0  0
 25 26  1  0  0  0  0
 25 45  1  0  0  0  0
 26 27  1  0  0  0  0
 27 28  1  0  0  0  0
 27 44  2  0  0  0  0
 28 29  2  0  0  0  0
 28 68  1  0  0  0  0
 29 30  1  0  0  0  0
 29 69  1  0  0  0  0
 30 31  1  0  0  0  0
 30 43  2  0  0  0  0
 31 32  1  0  0  0  0
 31 70  1  0  0  0  0
 32 33  2  0  0  0  0
 32 34  1  0  0  0  0
 34 35  1  0  0  0  0
 34 71  1  0  0  0  0
 35 36  1  0  0  0  0
 35 41  2  0  0  0  0
 36 37  2  0  0  0  0
 36 72  1  0  0  0  0
 37 38  1  0  0  0  0
 37 39  1  0  0  0  0
 38 73  1  0  0  0  0
 38 74  1  0  0  0  0
 38 75  1  0  0  0  0
 39 40  2  0  0  0  0
 39 76  1  0  0  0  0
 40 41  1  0  0  0  0
 40 77  1  0  0  0  0
 41 42  1  0  0  0  0
 43 44  1  0  0  0  0
 43 78  1  0  0  0  0
 44 79  1  0  0  0  0
 45 46  2  0  0  0  0
 45 80  1  0  0  0  0
 46 47  1  0  0  0  0
 46 81  1  0  0  0  0
 48 82  1  0  0  0  0
M  END
$$$$
