CHEMBL450786
 OpenBabel04072215383D

 77 82  0  0  1  0  0  0  0  0999 V2000
    2.5715    0.0066    0.4052 C   0  0  0  0  0  0  0  0  0  0  0  0
    1.1111   -0.0337    0.0898 C   0  0  0  0  0  0  0  0  0  0  0  0
    0.5511   -1.2830   -0.0407 N   0  0  0  0  0  0  0  0  0  0  0  0
   -0.8092   -1.2076   -0.0380 C   0  0  0  0  0  0  0  0  0  0  0  0
   -1.5325   -2.4214    0.0645 C   0  0  0  0  0  0  0  0  0  0  0  0
   -1.7774   -2.9947    1.2537 C   0  0  0  0  0  0  0  0  0  0  0  0
   -1.3678   -2.4563    2.6124 C   0  0  0  0  0  0  0  0  0  0  0  0
   -0.6463   -1.5209    2.8925 O   0  0  0  0  0  0  0  0  0  0  0  0
   -1.9640   -3.3092    3.5238 N   0  0  0  0  0  0  0  0  0  0  0  0
   -2.6244   -4.3510    2.8902 C   0  0  0  0  0  0  0  0  0  0  0  0
   -3.2632   -5.3982    3.5184 C   0  0  0  0  0  0  0  0  0  0  0  0
   -3.8010   -6.3941    2.7058 C   0  0  0  0  0  0  0  0  0  0  0  0
   -3.6863   -6.3235    1.2965 C   0  0  0  0  0  0  0  0  0  0  0  0
   -4.3479   -7.7347    0.4042 S   0  0  0  0  0  0  0  0  0  0  0  0
   -3.4791   -8.8399    0.7643 O   0  0  0  0  0  0  0  0  0  0  0  0
   -5.7583   -7.7620    0.7427 O   0  0  0  0  0  0  0  0  0  0  0  0
   -4.1729   -7.4115   -1.3448 C   0  0  0  0  0  0  0  0  0  0  0  0
   -4.7135   -8.5796   -2.1516 C   0  0  0  0  0  0  0  0  0  0  0  0
   -6.0704   -8.6475   -2.5290 C   0  0  0  0  0  0  0  0  0  0  0  0
   -7.1943   -7.3875   -2.1551 Cl  0  0  0  0  0  0  0  0  0  0  0  0
   -6.5699   -9.7255   -3.2752 C   0  0  0  0  0  0  0  0  0  0  0  0
   -5.7310  -10.7657   -3.6635 C   0  0  0  0  0  0  0  0  0  0  0  0
   -4.3880  -10.7196   -3.3107 C   0  0  0  0  0  0  0  0  0  0  0  0
   -3.8818   -9.6397   -2.5688 C   0  0  0  0  0  0  0  0  0  0  0  0
   -2.1815   -9.6543   -2.2503 Cl  0  0  0  0  0  0  0  0  0  0  0  0
   -3.0594   -5.2313    0.6722 C   0  0  0  0  0  0  0  0  0  0  0  0
   -2.5313   -4.2392    1.4950 C   0  0  0  0  0  0  0  0  0  0  0  0
   -1.1514    0.1308   -0.0780 C   0  0  0  0  0  0  0  0  0  0  0  0
   -2.5433    0.6719   -0.0546 C   0  0  0  0  0  0  0  0  0  0  0  0
    0.0855    0.9126   -0.0660 C   0  0  0  0  0  0  0  0  0  0  0  0
    0.1097    2.4055   -0.0741 C   0  0  0  0  0  0  0  0  0  0  0  0
   -0.8544    3.0338    0.3728 O   0  0  0  0  0  0  0  0  0  0  0  0
    1.1745    3.0955   -0.6452 N   0  0  0  0  0  0  0  0  0  0  0  0
    2.1620    2.5370   -1.5330 C   0  0  0  0  0  0  0  0  0  0  0  0
    3.3282    3.4686   -1.3166 C   0  0  0  0  0  0  0  0  0  0  0  0
    2.6466    4.8342   -1.3396 C   0  0  0  0  0  0  0  0  0  0  0  0
    1.1882    4.5546   -0.8805 C   0  0  2  0  0  0  0  0  0  0  0  0
    0.7241    5.5211    0.2349 C   0  0  0  0  0  0  0  0  0  0  0  0
    0.8271    6.9616   -0.1440 N   0  0  0  0  0  0  0  0  0  0  0  0
    0.4453    7.8271    0.9895 C   0  0  0  0  0  0  0  0  0  0  0  0
   -1.0697    7.8870    0.9297 C   0  0  0  0  0  0  0  0  0  0  0  0
   -1.3335    7.9893   -0.5593 C   0  0  0  0  0  0  0  0  0  0  0  0
   -0.1181    7.3394   -1.2170 C   0  0  0  0  0  0  0  0  0  0  0  0
    2.8700   -0.8856    0.9683 H   0  0  0  0  0  0  0  0  0  0  0  0
    2.8375    0.8824    1.0008 H   0  0  0  0  0  0  0  0  0  0  0  0
    3.1799   -0.0230   -0.5054 H   0  0  0  0  0  0  0  0  0  0  0  0
    1.0743   -2.1446    0.0233 H   0  0  0  0  0  0  0  0  0  0  0  0
   -1.8972   -2.8593   -0.8580 H   0  0  0  0  0  0  0  0  0  0  0  0
   -1.8486   -3.1911    4.5176 H   0  0  0  0  0  0  0  0  0  0  0  0
   -3.3301   -5.4599    4.5985 H   0  0  0  0  0  0  0  0  0  0  0  0
   -4.3000   -7.2456    3.1694 H   0  0  0  0  0  0  0  0  0  0  0  0
   -3.1145   -7.2383   -1.5523 H   0  0  0  0  0  0  0  0  0  0  0  0
   -4.7007   -6.4841   -1.5783 H   0  0  0  0  0  0  0  0  0  0  0  0
   -7.6188   -9.7549   -3.5650 H   0  0  0  0  0  0  0  0  0  0  0  0
   -6.1222  -11.5972   -4.2454 H   0  0  0  0  0  0  0  0  0  0  0  0
   -3.7291  -11.5277   -3.6247 H   0  0  0  0  0  0  0  0  0  0  0  0
   -2.9571   -5.1543   -0.4026 H   0  0  0  0  0  0  0  0  0  0  0  0
   -3.2852   -0.1341   -0.0550 H   0  0  0  0  0  0  0  0  0  0  0  0
   -2.7305    1.2969   -0.9326 H   0  0  0  0  0  0  0  0  0  0  0  0
   -2.7146    1.2652    0.8497 H   0  0  0  0  0  0  0  0  0  0  0  0
    1.7708    2.6070   -2.5550 H   0  0  0  0  0  0  0  0  0  0  0  0
    2.4041    1.5073   -1.3745 H   0  0  0  0  0  0  0  0  0  0  0  0
    4.1154    3.3545   -2.0638 H   0  0  0  0  0  0  0  0  0  0  0  0
    3.7663    3.2964   -0.3230 H   0  0  0  0  0  0  0  0  0  0  0  0
    2.6445    5.2303   -2.3616 H   0  0  0  0  0  0  0  0  0  0  0  0
    3.1847    5.5458   -0.7052 H   0  0  0  0  0  0  0  0  0  0  0  0
    0.5320    4.6873   -1.7487 H   0  0  0  0  0  0  0  0  0  0  0  0
   -0.3038    5.2910    0.5236 H   0  0  0  0  0  0  0  0  0  0  0  0
    1.3509    5.3449    1.1184 H   0  0  0  0  0  0  0  0  0  0  0  0
    0.8583    8.8310    0.8208 H   0  0  0  0  0  0  0  0  0  0  0  0
    0.8257    7.4810    1.9552 H   0  0  0  0  0  0  0  0  0  0  0  0
   -1.4880    8.7298    1.4861 H   0  0  0  0  0  0  0  0  0  0  0  0
   -1.5148    6.9685    1.3301 H   0  0  0  0  0  0  0  0  0  0  0  0
   -1.4002    9.0426   -0.8569 H   0  0  0  0  0  0  0  0  0  0  0  0
   -2.2694    7.4962   -0.8390 H   0  0  0  0  0  0  0  0  0  0  0  0
    0.3714    8.0697   -1.8738 H   0  0  0  0  0  0  0  0  0  0  0  0
   -0.4256    6.5124   -1.8615 H   0  0  0  0  0  0  0  0  0  0  0  0
  1  2  1  0  0  0  0
  1 44  1  0  0  0  0
  1 45  1  0  0  0  0
  1 46  1  0  0  0  0
  2  3  1  0  0  0  0
  2 30  2  0  0  0  0
  3  4  1  0  0  0  0
  3 47  1  0  0  0  0
  4  5  1  0  0  0  0
  4 28  2  0  0  0  0
  5  6  2  0  0  0  0
  5 48  1  0  0  0  0
  6  7  1  0  0  0  0
  6 27  1  0  0  0  0
  7  8  2  0  0  0  0
  7  9  1  0  0  0  0
  9 10  1  0  0  0  0
  9 49  1  0  0  0  0
 10 11  1  0  0  0  0
 10 27  2  0  0  0  0
 11 12  2  0  0  0  0
 11 50  1  0  0  0  0
 12 13  1  0  0  0  0
 12 51  1  0  0  0  0
 13 14  1  0  0  0  0
 13 26  2  0  0  0  0
 14 15  2  0  0  0  0
 14 16  2  0  0  0  0
 14 17  1  0  0  0  0
 17 18  1  0  0  0  0
 17 52  1  0  0  0  0
 17 53  1  0  0  0  0
 18 19  1  0  0  0  0
 18 24  2  0  0  0  0
 19 20  1  0  0  0  0
 19 21  2  0  0  0  0
 21 22  1  0  0  0  0
 21 54  1  0  0  0  0
 22 23  2  0  0  0  0
 22 55  1  0  0  0  0
 23 24  1  0  0  0  0
 23 56  1  0  0  0  0
 24 25  1  0  0  0  0
 26 27  1  0  0  0  0
 26 57  1  0  0  0  0
 28 29  1  0  0  0  0
 28 30  1  0  0  0  0
 29 58  1  0  0  0  0
 29 59  1  0  0  0  0
 29 60  1  0  0  0  0
 30 31  1  0  0  0  0
 31 32  2  0  0  0  0
 31 33  1  0  0  0  0
 33 34  1  0  0  0  0
 33 37  1  0  0  0  0
 34 35  1  0  0  0  0
 34 61  1  0  0  0  0
 34 62  1  0  0  0  0
 35 36  1  0  0  0  0
 35 63  1  0  0  0  0
 35 64  1  0  0  0  0
 36 37  1  0  0  0  0
 36 65  1  0  0  0  0
 36 66  1  0  0  0  0
 37 38  1  0  0  0  0
 37 67  1  6  0  0  0
 38 39  1  0  0  0  0
 38 68  1  0  0  0  0
 38 69  1  0  0  0  0
 39 40  1  0  0  0  0
 39 43  1  0  0  0  0
 40 41  1  0  0  0  0
 40 70  1  0  0  0  0
 40 71  1  0  0  0  0
 41 42  1  0  0  0  0
 41 72  1  0  0  0  0
 41 73  1  0  0  0  0
 42 43  1  0  0  0  0
 42 74  1  0  0  0  0
 42 75  1  0  0  0  0
 43 76  1  0  0  0  0
 43 77  1  0  0  0  0
M  END
$$$$
