CHEMBL1934321
 OpenBabel04072215363D

 67 71  0  0  0  0  0  0  0  0999 V2000
    7.4630   -3.8129   -1.1541 C   0  0  0  0  0  0  0  0  0  0  0  0
    6.3787   -3.1532   -0.4223 N   0  0  0  0  0  0  0  0  0  0  0  0
    5.9749   -1.9257   -1.1220 C   0  0  0  0  0  0  0  0  0  0  0  0
    4.8197   -1.2204   -0.4089 C   0  0  0  0  0  0  0  0  0  0  0  0
    3.6099   -2.1450   -0.2233 C   0  0  0  0  0  0  0  0  0  0  0  0
    2.9324   -2.5008   -1.5540 C   0  0  0  0  0  0  0  0  0  0  0  0
    2.5523   -1.3191   -2.2714 O   0  0  0  0  0  0  0  0  0  0  0  0
    2.4894   -1.4902   -3.6333 C   0  0  0  0  0  0  0  0  0  0  0  0
    2.6489   -0.3539   -4.4110 C   0  0  0  0  0  0  0  0  0  0  0  0
    2.6718   -0.4703   -5.8024 C   0  0  0  0  0  0  0  0  0  0  0  0
    2.5511   -1.7402   -6.4276 C   0  0  0  0  0  0  0  0  0  0  0  0
    2.6095   -2.0026   -7.8111 C   0  0  0  0  0  0  0  0  0  0  0  0
    2.6839   -0.9220   -8.7343 N   0  0  0  0  0  0  0  0  0  0  0  0
    2.5917   -0.9950  -10.1451 C   0  0  0  0  0  0  0  0  0  0  0  0
    1.8723   -2.0024  -10.7997 C   0  0  0  0  0  0  0  0  0  0  0  0
    1.8361   -2.0929  -12.1908 C   0  0  0  0  0  0  0  0  0  0  0  0
    2.4913   -1.1465  -12.9787 C   0  0  0  0  0  0  0  0  0  0  0  0
    2.5646   -1.3565  -14.4733 C   0  0  0  0  0  0  0  0  0  0  0  0
    2.0037   -0.2529  -15.3412 C   0  0  0  0  0  0  0  0  0  0  0  0
    2.6671    0.2046  -16.2730 O   0  0  0  0  0  0  0  0  0  0  0  0
    0.7132    0.1420  -15.0207 N   0  0  0  0  0  0  0  0  0  0  0  0
    0.0394    1.1291  -15.7663 C   0  0  0  0  0  0  0  0  0  0  0  0
    0.0299    1.1100  -17.1674 C   0  0  0  0  0  0  0  0  0  0  0  0
   -0.5908    2.1359  -17.8844 C   0  0  0  0  0  0  0  0  0  0  0  0
   -1.1803    3.1954  -17.2000 C   0  0  0  0  0  0  0  0  0  0  0  0
   -1.1827    3.1942  -15.8085 C   0  0  0  0  0  0  0  0  0  0  0  0
   -1.7229    4.2296  -15.1521 F   0  0  0  0  0  0  0  0  0  0  0  0
   -0.6102    2.1542  -15.0833 C   0  0  0  0  0  0  0  0  0  0  0  0
    3.1367   -0.0804  -12.3425 C   0  0  0  0  0  0  0  0  0  0  0  0
    3.1790   -0.0034  -10.9432 C   0  0  0  0  0  0  0  0  0  0  0  0
    2.5387   -3.2618   -8.2876 N   0  0  0  0  0  0  0  0  0  0  0  0
    2.3541   -4.2507   -7.4148 C   0  0  0  0  0  0  0  0  0  0  0  0
    2.2431   -4.1119   -6.0969 N   0  0  0  0  0  0  0  0  0  0  0  0
    2.3538   -2.8725   -5.6234 C   0  0  0  0  0  0  0  0  0  0  0  0
    2.2839   -2.7248   -4.2536 C   0  0  0  0  0  0  0  0  0  0  0  0
    4.0751   -3.4220    0.4921 C   0  0  0  0  0  0  0  0  0  0  0  0
    5.2639   -4.0863   -0.2163 C   0  0  0  0  0  0  0  0  0  0  0  0
    8.3210   -3.1402   -1.2623 H   0  0  0  0  0  0  0  0  0  0  0  0
    7.1493   -4.1320   -2.1554 H   0  0  0  0  0  0  0  0  0  0  0  0
    7.8183   -4.6937   -0.6084 H   0  0  0  0  0  0  0  0  0  0  0  0
    5.6999   -2.1368   -2.1630 H   0  0  0  0  0  0  0  0  0  0  0  0
    6.8239   -1.2316   -1.1541 H   0  0  0  0  0  0  0  0  0  0  0  0
    4.5389   -0.3181   -0.9640 H   0  0  0  0  0  0  0  0  0  0  0  0
    5.1619   -0.8809    0.5778 H   0  0  0  0  0  0  0  0  0  0  0  0
    2.8749   -1.6217    0.4010 H   0  0  0  0  0  0  0  0  0  0  0  0
    2.0316   -3.0954   -1.3591 H   0  0  0  0  0  0  0  0  0  0  0  0
    3.6240   -3.1039   -2.1512 H   0  0  0  0  0  0  0  0  0  0  0  0
    2.7816    0.6150   -3.9381 H   0  0  0  0  0  0  0  0  0  0  0  0
    2.8087    0.4321   -6.3927 H   0  0  0  0  0  0  0  0  0  0  0  0
    3.3722   -0.2423   -8.4339 H   0  0  0  0  0  0  0  0  0  0  0  0
    1.3480   -2.7650  -10.2330 H   0  0  0  0  0  0  0  0  0  0  0  0
    1.3228   -2.9395  -12.6407 H   0  0  0  0  0  0  0  0  0  0  0  0
    2.0415   -2.2769  -14.7596 H   0  0  0  0  0  0  0  0  0  0  0  0
    3.6185   -1.5030  -14.7394 H   0  0  0  0  0  0  0  0  0  0  0  0
    0.4485    0.0339  -14.0473 H   0  0  0  0  0  0  0  0  0  0  0  0
    0.4995    0.2937  -17.7128 H   0  0  0  0  0  0  0  0  0  0  0  0
   -0.5941    2.1145  -18.9713 H   0  0  0  0  0  0  0  0  0  0  0  0
   -1.6287    4.0236  -17.7392 H   0  0  0  0  0  0  0  0  0  0  0  0
   -0.6120    2.2042  -14.0005 H   0  0  0  0  0  0  0  0  0  0  0  0
    3.6500    0.6829  -12.9294 H   0  0  0  0  0  0  0  0  0  0  0  0
    3.7117    0.8261  -10.4844 H   0  0  0  0  0  0  0  0  0  0  0  0
    2.2793   -5.2555   -7.8141 H   0  0  0  0  0  0  0  0  0  0  0  0
    2.0877   -3.6210   -3.6697 H   0  0  0  0  0  0  0  0  0  0  0  0
    3.2475   -4.1381    0.5654 H   0  0  0  0  0  0  0  0  0  0  0  0
    4.3656   -3.1717    1.5204 H   0  0  0  0  0  0  0  0  0  0  0  0
    4.9369   -4.5214   -1.1690 H   0  0  0  0  0  0  0  0  0  0  0  0
    5.6017   -4.9243    0.4057 H   0  0  0  0  0  0  0  0  0  0  0  0
  1  2  1  0  0  0  0
  1 38  1  0  0  0  0
  1 39  1  0  0  0  0
  1 40  1  0  0  0  0
  2  3  1  0  0  0  0
  2 37  1  0  0  0  0
  3  4  1  0  0  0  0
  3 41  1  0  0  0  0
  3 42  1  0  0  0  0
  4  5  1  0  0  0  0
  4 43  1  0  0  0  0
  4 44  1  0  0  0  0
  5  6  1  0  0  0  0
  5 36  1  0  0  0  0
  5 45  1  0  0  0  0
  6  7  1  0  0  0  0
  6 46  1  0  0  0  0
  6 47  1  0  0  0  0
  7  8  1  0  0  0  0
  8  9  1  0  0  0  0
  8 35  2  0  0  0  0
  9 10  2  0  0  0  0
  9 48  1  0  0  0  0
 10 11  1  0  0  0  0
 10 49  1  0  0  0  0
 11 12  1  0  0  0  0
 11 34  2  0  0  0  0
 12 13  1  0  0  0  0
 12 31  2  0  0  0  0
 13 14  1  0  0  0  0
 13 50  1  0  0  0  0
 14 15  1  0  0  0  0
 14 30  2  0  0  0  0
 15 16  2  0  0  0  0
 15 51  1  0  0  0  0
 16 17  1  0  0  0  0
 16 52  1  0  0  0  0
 17 18  1  0  0  0  0
 17 29  2  0  0  0  0
 18 19  1  0  0  0  0
 18 53  1  0  0  0  0
 18 54  1  0  0  0  0
 19 20  2  0  0  0  0
 19 21  1  0  0  0  0
 21 22  1  0  0  0  0
 21 55  1  0  0  0  0
 22 23  1  0  0  0  0
 22 28  2  0  0  0  0
 23 24  2  0  0  0  0
 23 56  1  0  0  0  0
 24 25  1  0  0  0  0
 24 57  1  0  0  0  0
 25 26  2  0  0  0  0
 25 58  1  0  0  0  0
 26 27  1  0  0  0  0
 26 28  1  0  0  0  0
 28 59  1  0  0  0  0
 29 30  1  0  0  0  0
 29 60  1  0  0  0  0
 30 61  1  0  0  0  0
 31 32  1  0  0  0  0
 32 33  2  0  0  0  0
 32 62  1  0  0  0  0
 33 34  1  0  0  0  0
 34 35  1  0  0  0  0
 35 63  1  0  0  0  0
 36 37  1  0  0  0  0
 36 64  1  0  0  0  0
 36 65  1  0  0  0  0
 37 66  1  0  0  0  0
 37 67  1  0  0  0  0
M  END
$$$$
