CHEMBL2022851
 OpenBabel04072215363D

 61 65  0  0  0  0  0  0  0  0999 V2000
    3.0677   -2.1278    0.6097 C   0  0  0  0  0  0  0  0  0  0  0  0
    4.3467   -2.9602    0.4968 C   0  0  0  0  0  0  0  0  0  0  0  0
    4.0473   -4.4203    0.8428 C   0  0  0  0  0  0  0  0  0  0  0  0
    4.9646   -2.8805   -0.9053 C   0  0  0  0  0  0  0  0  0  0  0  0
    5.4226   -1.5504   -1.2632 N   0  0  0  0  0  0  0  0  0  0  0  0
    6.6372   -1.0010   -0.9778 C   0  0  0  0  0  0  0  0  0  0  0  0
    6.6456    0.2595   -1.5480 C   0  0  0  0  0  0  0  0  0  0  0  0
    7.7779    1.1641   -1.5032 C   0  0  0  0  0  0  0  0  0  0  0  0
    9.0756    0.6810   -1.4726 C   0  0  0  0  0  0  0  0  0  0  0  0
   10.1783    1.4379   -1.4075 N   0  0  0  0  0  0  0  0  0  0  0  0
   10.0698    2.7788   -1.3905 C   0  0  0  0  0  0  0  0  0  0  0  0
   11.2962    3.4141   -1.2773 N   0  0  0  0  0  0  0  0  0  0  0  0
    8.7901    3.4127   -1.4731 C   0  0  0  0  0  0  0  0  0  0  0  0
    8.3902    4.8307   -1.5517 C   0  0  0  0  0  0  0  0  0  0  0  0
    9.2338    6.0297   -1.6091 C   0  0  0  0  0  0  0  0  0  0  0  0
   10.4325    5.9963   -2.3118 C   0  0  0  0  0  0  0  0  0  0  0  0
   11.3345    7.0512   -2.2322 C   0  0  0  0  0  0  0  0  0  0  0  0
   10.9962    8.2426   -1.5856 C   0  0  0  0  0  0  0  0  0  0  0  0
   11.8753    9.3413   -1.5620 N   0  0  0  0  0  0  0  0  0  0  0  0
   12.9235    9.5037   -2.4467 C   0  0  0  0  0  0  0  0  0  0  0  0
   13.1388    8.7838   -3.4185 O   0  0  0  0  0  0  0  0  0  0  0  0
   13.7372   10.5706   -2.1049 N   0  0  0  0  0  0  0  0  0  0  0  0
   14.8048   10.9529   -2.9472 C   0  0  0  0  0  0  0  0  0  0  0  0
   14.6650   10.9628   -4.3442 C   0  0  0  0  0  0  0  0  0  0  0  0
   15.7402   11.3015   -5.1648 C   0  0  0  0  0  0  0  0  0  0  0  0
   16.9640   11.6272   -4.5899 C   0  0  0  0  0  0  0  0  0  0  0  0
   17.0934   11.6206   -3.2049 C   0  0  0  0  0  0  0  0  0  0  0  0
   18.2841   11.9039   -2.6567 F   0  0  0  0  0  0  0  0  0  0  0  0
   16.0234   11.3086   -2.3747 C   0  0  0  0  0  0  0  0  0  0  0  0
    9.7577    8.3289   -0.9577 C   0  0  0  0  0  0  0  0  0  0  0  0
    8.8867    7.2250   -0.9554 C   0  0  0  0  0  0  0  0  0  0  0  0
    7.0212    4.9742   -1.6055 C   0  0  0  0  0  0  0  0  0  0  0  0
    6.1989    3.5057   -1.4974 S   0  0  0  0  0  0  0  0  0  0  0  0
    7.6556    2.5720   -1.5022 C   0  0  0  0  0  0  0  0  0  0  0  0
    5.3740    0.3555   -2.1565 C   0  0  0  0  0  0  0  0  0  0  0  0
    4.6315   -0.7435   -1.9898 N   0  0  0  0  0  0  0  0  0  0  0  0
    2.6128   -2.2458    1.5986 H   0  0  0  0  0  0  0  0  0  0  0  0
    2.3305   -2.4303   -0.1417 H   0  0  0  0  0  0  0  0  0  0  0  0
    3.2759   -1.0620    0.4744 H   0  0  0  0  0  0  0  0  0  0  0  0
    5.0664   -2.5771    1.2333 H   0  0  0  0  0  0  0  0  0  0  0  0
    3.3695   -4.8710    0.1093 H   0  0  0  0  0  0  0  0  0  0  0  0
    3.5802   -4.5018    1.8299 H   0  0  0  0  0  0  0  0  0  0  0  0
    4.9686   -5.0119    0.8603 H   0  0  0  0  0  0  0  0  0  0  0  0
    4.2551   -3.2042   -1.6751 H   0  0  0  0  0  0  0  0  0  0  0  0
    5.8404   -3.5364   -0.9755 H   0  0  0  0  0  0  0  0  0  0  0  0
    7.3747   -1.5452   -0.4036 H   0  0  0  0  0  0  0  0  0  0  0  0
    9.2814   -0.3859   -1.5035 H   0  0  0  0  0  0  0  0  0  0  0  0
   12.0207    2.7369   -1.0632 H   0  0  0  0  0  0  0  0  0  0  0  0
   11.2957    4.2535   -0.7139 H   0  0  0  0  0  0  0  0  0  0  0  0
   10.7185    5.1314   -2.9066 H   0  0  0  0  0  0  0  0  0  0  0  0
   12.3071    6.8936   -2.6866 H   0  0  0  0  0  0  0  0  0  0  0  0
   11.5705   10.1799   -1.0702 H   0  0  0  0  0  0  0  0  0  0  0  0
   13.8612   10.7013   -1.1112 H   0  0  0  0  0  0  0  0  0  0  0  0
   13.7192   10.6958   -4.8098 H   0  0  0  0  0  0  0  0  0  0  0  0
   15.6210   11.2920   -6.2453 H   0  0  0  0  0  0  0  0  0  0  0  0
   17.8201   11.8748   -5.2117 H   0  0  0  0  0  0  0  0  0  0  0  0
   16.1777   11.2850   -1.3018 H   0  0  0  0  0  0  0  0  0  0  0  0
    9.4404    9.2456   -0.4649 H   0  0  0  0  0  0  0  0  0  0  0  0
    7.9366    7.3181   -0.4342 H   0  0  0  0  0  0  0  0  0  0  0  0
    6.4481    5.8873   -1.6955 H   0  0  0  0  0  0  0  0  0  0  0  0
    4.9515    1.1695   -2.7317 H   0  0  0  0  0  0  0  0  0  0  0  0
  1  2  1  0  0  0  0
  1 37  1  0  0  0  0
  1 38  1  0  0  0  0
  1 39  1  0  0  0  0
  2  3  1  0  0  0  0
  2  4  1  0  0  0  0
  2 40  1  0  0  0  0
  3 41  1  0  0  0  0
  3 42  1  0  0  0  0
  3 43  1  0  0  0  0
  4  5  1  0  0  0  0
  4 44  1  0  0  0  0
  4 45  1  0  0  0  0
  5  6  1  0  0  0  0
  5 36  1  0  0  0  0
  6  7  2  0  0  0  0
  6 46  1  0  0  0  0
  7  8  1  0  0  0  0
  7 35  1  0  0  0  0
  8  9  1  0  0  0  0
  8 34  2  0  0  0  0
  9 10  2  0  0  0  0
  9 47  1  0  0  0  0
 10 11  1  0  0  0  0
 11 12  1  0  0  0  0
 11 13  2  0  0  0  0
 12 48  1  0  0  0  0
 12 49  1  0  0  0  0
 13 14  1  0  0  0  0
 13 34  1  0  0  0  0
 14 15  1  0  0  0  0
 14 32  2  0  0  0  0
 15 16  1  0  0  0  0
 15 31  2  0  0  0  0
 16 17  2  0  0  0  0
 16 50  1  0  0  0  0
 17 18  1  0  0  0  0
 17 51  1  0  0  0  0
 18 19  1  0  0  0  0
 18 30  2  0  0  0  0
 19 20  1  0  0  0  0
 19 52  1  0  0  0  0
 20 21  2  0  0  0  0
 20 22  1  0  0  0  0
 22 23  1  0  0  0  0
 22 53  1  0  0  0  0
 23 24  1  0  0  0  0
 23 29  2  0  0  0  0
 24 25  2  0  0  0  0
 24 54  1  0  0  0  0
 25 26  1  0  0  0  0
 25 55  1  0  0  0  0
 26 27  2  0  0  0  0
 26 56  1  0  0  0  0
 27 28  1  0  0  0  0
 27 29  1  0  0  0  0
 29 57  1  0  0  0  0
 30 31  1  0  0  0  0
 30 58  1  0  0  0  0
 31 59  1  0  0  0  0
 32 33  1  0  0  0  0
 32 60  1  0  0  0  0
 33 34  1  0  0  0  0
 35 36  2  0  0  0  0
 35 61  1  0  0  0  0
M  END
$$$$
