CHEMBL213743
 OpenBabel04072215363D

 47 51  0  0  0  0  0  0  0  0999 V2000
    1.9902   -0.2436   -0.9802 C   0  0  0  0  0  0  0  0  0  0  0  0
    0.5594    0.0402   -1.0460 N   0  0  0  0  0  0  0  0  0  0  0  0
   -0.2299   -1.1545   -0.7037 C   0  0  0  0  0  0  0  0  0  0  0  0
   -1.7463   -0.8531   -0.7033 C   0  0  0  0  0  0  0  0  0  0  0  0
   -2.1558    0.2240    0.2262 N   0  0  0  0  0  0  0  0  0  0  0  0
   -2.0077   -0.1257    1.6513 C   0  0  0  0  0  0  0  0  0  0  0  0
   -2.8309   -1.3223    2.0958 C   0  0  0  0  0  0  0  0  0  0  0  0
   -2.2574   -2.6205    2.0399 C   0  0  0  0  0  0  0  0  0  0  0  0
   -2.9846   -3.7652    2.3684 C   0  0  0  0  0  0  0  0  0  0  0  0
   -4.2858   -3.5978    2.7982 C   0  0  0  0  0  0  0  0  0  0  0  0
   -4.8479   -2.2955    2.9060 C   0  0  0  0  0  0  0  0  0  0  0  0
   -4.1528   -1.1596    2.5465 C   0  0  0  0  0  0  0  0  0  0  0  0
   -6.1505   -2.5138    3.4283 C   0  0  0  0  0  0  0  0  0  0  0  0
   -7.2250   -1.8400    3.8787 N   0  0  0  0  0  0  0  0  0  0  0  0
   -8.1956   -2.6837    4.3234 N   0  0  0  0  0  0  0  0  0  0  0  0
   -7.6773   -3.9195    4.1533 C   0  0  0  0  0  0  0  0  0  0  0  0
   -8.3894   -5.1576    4.5032 C   0  0  0  0  0  0  0  0  0  0  0  0
   -9.7200   -5.1545    5.0259 C   0  0  0  0  0  0  0  0  0  0  0  0
  -10.1915   -6.4267    5.2681 C   0  0  0  0  0  0  0  0  0  0  0  0
   -9.0384   -7.6257    4.8752 S   0  0  0  0  0  0  0  0  0  0  0  0
   -7.9041   -6.4446    4.3774 C   0  0  0  0  0  0  0  0  0  0  0  0
   -6.3902   -3.8486    3.6100 C   0  0  0  0  0  0  0  0  0  0  0  0
   -5.2568   -4.7183    3.1983 C   0  0  0  0  0  0  0  0  0  0  0  0
   -1.3375    1.4171   -0.1045 C   0  0  0  0  0  0  0  0  0  0  0  0
    0.1947    1.1682   -0.1685 C   0  0  0  0  0  0  0  0  0  0  0  0
    2.2494   -1.0752   -1.6449 H   0  0  0  0  0  0  0  0  0  0  0  0
    2.3161   -0.5022    0.0337 H   0  0  0  0  0  0  0  0  0  0  0  0
    2.5681    0.6227   -1.3190 H   0  0  0  0  0  0  0  0  0  0  0  0
    0.0786   -1.5472    0.2724 H   0  0  0  0  0  0  0  0  0  0  0  0
   -0.0377   -1.9443   -1.4397 H   0  0  0  0  0  0  0  0  0  0  0  0
   -2.3142   -1.7714   -0.5238 H   0  0  0  0  0  0  0  0  0  0  0  0
   -2.0381   -0.5514   -1.7194 H   0  0  0  0  0  0  0  0  0  0  0  0
   -2.3328    0.7324    2.2558 H   0  0  0  0  0  0  0  0  0  0  0  0
   -0.9622   -0.2977    1.9333 H   0  0  0  0  0  0  0  0  0  0  0  0
   -1.2290   -2.7431    1.7096 H   0  0  0  0  0  0  0  0  0  0  0  0
   -2.5383   -4.7501    2.2857 H   0  0  0  0  0  0  0  0  0  0  0  0
   -4.6072   -0.1770    2.6026 H   0  0  0  0  0  0  0  0  0  0  0  0
   -7.3817   -0.8400    3.9342 H   0  0  0  0  0  0  0  0  0  0  0  0
  -10.3028   -4.2597    5.2103 H   0  0  0  0  0  0  0  0  0  0  0  0
  -11.1592   -6.7121    5.6567 H   0  0  0  0  0  0  0  0  0  0  0  0
   -6.9416   -6.7701    4.0143 H   0  0  0  0  0  0  0  0  0  0  0  0
   -5.5081   -5.3389    2.3341 H   0  0  0  0  0  0  0  0  0  0  0  0
   -4.8560   -5.3042    4.0284 H   0  0  0  0  0  0  0  0  0  0  0  0
   -1.5485    2.2284    0.6030 H   0  0  0  0  0  0  0  0  0  0  0  0
   -1.6676    1.7905   -1.0836 H   0  0  0  0  0  0  0  0  0  0  0  0
    0.5737    1.0017    0.8481 H   0  0  0  0  0  0  0  0  0  0  0  0
    0.6731    2.0815   -0.5426 H   0  0  0  0  0  0  0  0  0  0  0  0
  1  2  1  0  0  0  0
  1 26  1  0  0  0  0
  1 27  1  0  0  0  0
  1 28  1  0  0  0  0
  2  3  1  0  0  0  0
  2 25  1  0  0  0  0
  3  4  1  0  0  0  0
  3 29  1  0  0  0  0
  3 30  1  0  0  0  0
  4  5  1  0  0  0  0
  4 31  1  0  0  0  0
  4 32  1  0  0  0  0
  5  6  1  0  0  0  0
  5 24  1  0  0  0  0
  6  7  1  0  0  0  0
  6 33  1  0  0  0  0
  6 34  1  0  0  0  0
  7  8  1  0  0  0  0
  7 12  2  0  0  0  0
  8  9  2  0  0  0  0
  8 35  1  0  0  0  0
  9 10  1  0  0  0  0
  9 36  1  0  0  0  0
 10 11  2  0  0  0  0
 10 23  1  0  0  0  0
 11 12  1  0  0  0  0
 11 13  1  0  0  0  0
 12 37  1  0  0  0  0
 13 14  1  0  0  0  0
 13 22  2  0  0  0  0
 14 15  1  0  0  0  0
 14 38  1  0  0  0  0
 15 16  2  0  0  0  0
 16 17  1  0  0  0  0
 16 22  1  0  0  0  0
 17 18  1  0  0  0  0
 17 21  2  0  0  0  0
 18 19  2  0  0  0  0
 18 39  1  0  0  0  0
 19 20  1  0  0  0  0
 19 40  1  0  0  0  0
 20 21  1  0  0  0  0
 21 41  1  0  0  0  0
 22 23  1  0  0  0  0
 23 42  1  0  0  0  0
 23 43  1  0  0  0  0
 24 25  1  0  0  0  0
 24 44  1  0  0  0  0
 24 45  1  0  0  0  0
 25 46  1  0  0  0  0
 25 47  1  0  0  0  0
M  END
$$$$
