CHEMBL3642836
 OpenBabel04072215373D

 70 73  0  0  0  0  0  0  0  0999 V2000
    2.3968    0.3585   -0.3396 C   0  0  0  0  0  0  0  0  0  0  0  0
    0.8990    0.2900   -0.1984 C   0  0  0  0  0  0  0  0  0  0  0  0
    0.2596   -0.9255   -0.5217 C   0  0  0  0  0  0  0  0  0  0  0  0
   -1.1244   -1.0656   -0.4089 C   0  0  0  0  0  0  0  0  0  0  0  0
   -1.8801   -0.0005    0.0677 C   0  0  0  0  0  0  0  0  0  0  0  0
   -3.3576   -0.1161    0.1776 C   0  0  0  0  0  0  0  0  0  0  0  0
   -3.8305   -1.2108    0.4539 O   0  0  0  0  0  0  0  0  0  0  0  0
   -4.0629    1.0457   -0.1274 N   0  0  0  0  0  0  0  0  0  0  0  0
   -5.4663    1.1739   -0.1590 C   0  0  0  0  0  0  0  0  0  0  0  0
   -6.3202    0.2764    0.4575 C   0  0  0  0  0  0  0  0  0  0  0  0
   -7.7044    0.4027    0.3169 C   0  0  0  0  0  0  0  0  0  0  0  0
   -8.2891    1.3938   -0.4842 C   0  0  0  0  0  0  0  0  0  0  0  0
   -9.7013    1.4208   -0.6929 N   0  0  0  0  0  0  0  0  0  0  0  0
  -10.5627    0.3611   -0.4354 C   0  0  0  0  0  0  0  0  0  0  0  0
  -10.2271   -0.7478   -0.0275 O   0  0  0  0  0  0  0  0  0  0  0  0
  -11.9920    0.6206   -0.7538 C   0  0  0  0  0  0  0  0  0  0  0  0
  -12.8480   -0.4166   -0.6763 C   0  0  0  0  0  0  0  0  0  0  0  0
  -14.3173   -0.3898   -0.9669 C   0  0  0  0  0  0  0  0  0  0  0  0
  -15.1273   -0.8864    0.1550 N   0  0  0  0  0  0  0  0  0  0  0  0
  -15.0411   -0.0142    1.3275 C   0  0  0  0  0  0  0  0  0  0  0  0
  -16.5266   -1.0242   -0.2574 C   0  0  0  0  0  0  0  0  0  0  0  0
   -7.4312    2.3395   -1.0782 C   0  0  0  0  0  0  0  0  0  0  0  0
   -7.8914    3.4254   -2.0143 C   0  0  0  0  0  0  0  0  0  0  0  0
   -9.2170    3.3706   -2.3339 F   0  0  0  0  0  0  0  0  0  0  0  0
   -7.6874    4.6743   -1.5086 F   0  0  0  0  0  0  0  0  0  0  0  0
   -7.2248    3.4007   -3.2043 F   0  0  0  0  0  0  0  0  0  0  0  0
   -6.0275    2.2388   -0.8692 C   0  0  0  0  0  0  0  0  0  0  0  0
   -1.2439    1.1833    0.4307 C   0  0  0  0  0  0  0  0  0  0  0  0
    0.1287    1.3930    0.2294 C   0  0  0  0  0  0  0  0  0  0  0  0
    0.6956    2.6662    0.4263 N   0  0  0  0  0  0  0  0  0  0  0  0
    0.0879    3.9249    0.5236 C   0  0  0  0  0  0  0  0  0  0  0  0
   -1.2475    4.0349    0.6214 N   0  0  0  0  0  0  0  0  0  0  0  0
   -1.7866    5.2541    0.7299 C   0  0  0  0  0  0  0  0  0  0  0  0
   -1.0381    6.3953    0.7215 C   0  0  0  0  0  0  0  0  0  0  0  0
    0.3269    6.2208    0.6076 C   0  0  0  0  0  0  0  0  0  0  0  0
    1.2546    7.3577    0.6327 C   0  0  0  0  0  0  0  0  0  0  0  0
    1.0325    8.4928    1.4308 C   0  0  0  0  0  0  0  0  0  0  0  0
    1.9500    9.5351    1.4509 C   0  0  0  0  0  0  0  0  0  0  0  0
    3.0805    9.4294    0.6594 C   0  0  0  0  0  0  0  0  0  0  0  0
    3.3366    8.3701   -0.1373 N   0  0  0  0  0  0  0  0  0  0  0  0
    2.4249    7.3646   -0.1247 C   0  0  0  0  0  0  0  0  0  0  0  0
    0.8951    4.9935    0.4977 N   0  0  0  0  0  0  0  0  0  0  0  0
    2.8275   -0.6382   -0.4946 H   0  0  0  0  0  0  0  0  0  0  0  0
    2.8515    0.7570    0.5731 H   0  0  0  0  0  0  0  0  0  0  0  0
    2.6741    0.9818   -1.1940 H   0  0  0  0  0  0  0  0  0  0  0  0
    0.8402   -1.7752   -0.8774 H   0  0  0  0  0  0  0  0  0  0  0  0
   -1.6063   -1.9996   -0.6867 H   0  0  0  0  0  0  0  0  0  0  0  0
   -3.5303    1.8139   -0.5182 H   0  0  0  0  0  0  0  0  0  0  0  0
   -5.9477   -0.5458    1.0624 H   0  0  0  0  0  0  0  0  0  0  0  0
   -8.3003   -0.3273    0.8564 H   0  0  0  0  0  0  0  0  0  0  0  0
  -10.0878    2.2197   -1.1840 H   0  0  0  0  0  0  0  0  0  0  0  0
  -12.3109    1.6172   -1.0223 H   0  0  0  0  0  0  0  0  0  0  0  0
  -12.4719   -1.4016   -0.3934 H   0  0  0  0  0  0  0  0  0  0  0  0
  -14.4652   -1.0616   -1.8236 H   0  0  0  0  0  0  0  0  0  0  0  0
  -14.6426    0.6080   -1.2837 H   0  0  0  0  0  0  0  0  0  0  0  0
  -14.0250    0.0014    1.7354 H   0  0  0  0  0  0  0  0  0  0  0  0
  -15.6832   -0.3878    2.1340 H   0  0  0  0  0  0  0  0  0  0  0  0
  -15.3424    1.0141    1.0989 H   0  0  0  0  0  0  0  0  0  0  0  0
  -16.6187   -1.7362   -1.0852 H   0  0  0  0  0  0  0  0  0  0  0  0
  -16.9582   -0.0676   -0.5739 H   0  0  0  0  0  0  0  0  0  0  0  0
  -17.1368   -1.4213    0.5621 H   0  0  0  0  0  0  0  0  0  0  0  0
   -5.3740    2.9714   -1.3430 H   0  0  0  0  0  0  0  0  0  0  0  0
   -1.8486    1.9488    0.9007 H   0  0  0  0  0  0  0  0  0  0  0  0
    1.6840    2.7757    0.2616 H   0  0  0  0  0  0  0  0  0  0  0  0
   -2.8667    5.2797    0.8332 H   0  0  0  0  0  0  0  0  0  0  0  0
   -1.5094    7.3651    0.7989 H   0  0  0  0  0  0  0  0  0  0  0  0
    0.1527    8.5626    2.0670 H   0  0  0  0  0  0  0  0  0  0  0  0
    1.7953   10.4072    2.0782 H   0  0  0  0  0  0  0  0  0  0  0  0
    3.8345   10.2105    0.6495 H   0  0  0  0  0  0  0  0  0  0  0  0
    2.6733    6.5289   -0.7759 H   0  0  0  0  0  0  0  0  0  0  0  0
  1  2  1  0  0  0  0
  1 43  1  0  0  0  0
  1 44  1  0  0  0  0
  1 45  1  0  0  0  0
  2  3  1  0  0  0  0
  2 29  2  0  0  0  0
  3  4  2  0  0  0  0
  3 46  1  0  0  0  0
  4  5  1  0  0  0  0
  4 47  1  0  0  0  0
  5  6  1  0  0  0  0
  5 28  2  0  0  0  0
  6  7  2  0  0  0  0
  6  8  1  0  0  0  0
  8  9  1  0  0  0  0
  8 48  1  0  0  0  0
  9 10  1  0  0  0  0
  9 27  2  0  0  0  0
 10 11  2  0  0  0  0
 10 49  1  0  0  0  0
 11 12  1  0  0  0  0
 11 50  1  0  0  0  0
 12 13  1  0  0  0  0
 12 22  2  0  0  0  0
 13 14  1  0  0  0  0
 13 51  1  0  0  0  0
 14 15  2  0  0  0  0
 14 16  1  0  0  0  0
 16 17  2  0  0  0  0
 16 52  1  0  0  0  0
 17 18  1  0  0  0  0
 17 53  1  0  0  0  0
 18 19  1  0  0  0  0
 18 54  1  0  0  0  0
 18 55  1  0  0  0  0
 19 20  1  0  0  0  0
 19 21  1  0  0  0  0
 20 56  1  0  0  0  0
 20 57  1  0  0  0  0
 20 58  1  0  0  0  0
 21 59  1  0  0  0  0
 21 60  1  0  0  0  0
 21 61  1  0  0  0  0
 22 23  1  0  0  0  0
 22 27  1  0  0  0  0
 23 24  1  0  0  0  0
 23 25  1  0  0  0  0
 23 26  1  0  0  0  0
 27 62  1  0  0  0  0
 28 29  1  0  0  0  0
 28 63  1  0  0  0  0
 29 30  1  0  0  0  0
 30 31  1  0  0  0  0
 30 64  1  0  0  0  0
 31 32  1  0  0  0  0
 31 42  2  0  0  0  0
 32 33  2  0  0  0  0
 33 34  1  0  0  0  0
 33 65  1  0  0  0  0
 34 35  2  0  0  0  0
 34 66  1  0  0  0  0
 35 36  1  0  0  0  0
 35 42  1  0  0  0  0
 36 37  1  0  0  0  0
 36 41  2  0  0  0  0
 37 38  2  0  0  0  0
 37 67  1  0  0  0  0
 38 39  1  0  0  0  0
 38 68  1  0  0  0  0
 39 40  2  0  0  0  0
 39 69  1  0  0  0  0
 40 41  1  0  0  0  0
 41 70  1  0  0  0  0
M  END
$$$$
