CHEMBL3702603
 OpenBabel04072215373D

 48 51  0  0  0  0  0  0  0  0999 V2000
   -3.7090   -4.2738    5.8350 C   0  0  0  0  0  0  0  0  0  0  0  0
   -3.0580   -4.2183    4.4825 C   0  0  0  0  0  0  0  0  0  0  0  0
   -1.8566   -4.8946    4.2568 C   0  0  0  0  0  0  0  0  0  0  0  0
   -1.2368   -4.8151    3.0145 C   0  0  0  0  0  0  0  0  0  0  0  0
   -1.8172   -4.0730    1.9818 C   0  0  0  0  0  0  0  0  0  0  0  0
   -3.0304   -3.4069    2.1679 C   0  0  0  0  0  0  0  0  0  0  0  0
   -3.6792   -2.6584    1.1514 N   0  0  0  0  0  0  0  0  0  0  0  0
   -3.2389   -2.4766   -0.1557 C   0  0  0  0  0  0  0  0  0  0  0  0
   -2.2086   -2.9328   -0.6404 O   0  0  0  0  0  0  0  0  0  0  0  0
   -4.0803   -1.6198   -1.0414 C   0  0  0  0  0  0  0  0  0  0  0  0
   -3.4342   -0.8857   -2.0406 C   0  0  0  0  0  0  0  0  0  0  0  0
   -4.1663   -0.0622   -2.8915 C   0  0  0  0  0  0  0  0  0  0  0  0
   -5.5555    0.0066   -2.7607 C   0  0  0  0  0  0  0  0  0  0  0  0
   -6.2474   -0.7525   -1.8043 C   0  0  0  0  0  0  0  0  0  0  0  0
   -7.6272   -0.7126   -1.7244 N   0  0  0  0  0  0  0  0  0  0  0  0
   -8.4216   -1.8670   -1.2999 C   0  0  0  0  0  0  0  0  0  0  0  0
   -9.1041   -1.5363    0.0207 C   0  0  0  0  0  0  0  0  0  0  0  0
   -9.8079   -0.2056   -0.0502 C   0  0  0  0  0  0  0  0  0  0  0  0
  -10.7657    0.0205    0.8760 N   0  0  0  0  0  0  0  0  0  0  0  0
  -11.3899    1.2013    0.8299 C   0  0  0  0  0  0  0  0  0  0  0  0
  -12.3719    1.4387    1.7672 N   0  0  0  0  0  0  0  0  0  0  0  0
  -11.1061    2.1819   -0.0298 N   0  0  0  0  0  0  0  0  0  0  0  0
  -10.1397    1.9254   -0.9322 C   0  0  0  0  0  0  0  0  0  0  0  0
   -9.4416    0.7399   -0.9944 C   0  0  0  0  0  0  0  0  0  0  0  0
   -8.3952    0.4942   -2.0420 C   0  0  0  0  0  0  0  0  0  0  0  0
   -5.4788   -1.5588   -0.9421 C   0  0  0  0  0  0  0  0  0  0  0  0
   -3.6410   -3.4812    3.4323 C   0  0  0  0  0  0  0  0  0  0  0  0
   -3.1209   -4.8762    6.5376 H   0  0  0  0  0  0  0  0  0  0  0  0
   -4.7037   -4.7237    5.7633 H   0  0  0  0  0  0  0  0  0  0  0  0
   -3.7928   -3.2669    6.2559 H   0  0  0  0  0  0  0  0  0  0  0  0
   -1.3910   -5.4816    5.0452 H   0  0  0  0  0  0  0  0  0  0  0  0
   -0.2937   -5.3286    2.8422 H   0  0  0  0  0  0  0  0  0  0  0  0
   -1.2811   -4.0350    1.0395 H   0  0  0  0  0  0  0  0  0  0  0  0
   -4.5235   -2.1772    1.4324 H   0  0  0  0  0  0  0  0  0  0  0  0
   -2.3541   -0.9565   -2.1644 H   0  0  0  0  0  0  0  0  0  0  0  0
   -3.6624    0.5092   -3.6637 H   0  0  0  0  0  0  0  0  0  0  0  0
   -6.0938    0.6356   -3.4656 H   0  0  0  0  0  0  0  0  0  0  0  0
   -7.8327   -2.7868   -1.2105 H   0  0  0  0  0  0  0  0  0  0  0  0
   -9.1758   -2.0757   -2.0712 H   0  0  0  0  0  0  0  0  0  0  0  0
   -8.3596   -1.4859    0.8245 H   0  0  0  0  0  0  0  0  0  0  0  0
   -9.8208   -2.3253    0.2725 H   0  0  0  0  0  0  0  0  0  0  0  0
  -12.2077    0.8649    2.5817 H   0  0  0  0  0  0  0  0  0  0  0  0
  -12.4695    2.4339    1.9088 H   0  0  0  0  0  0  0  0  0  0  0  0
   -9.9430    2.7397   -1.6260 H   0  0  0  0  0  0  0  0  0  0  0  0
   -7.7535    1.3815   -2.0936 H   0  0  0  0  0  0  0  0  0  0  0  0
   -8.8841    0.3660   -3.0159 H   0  0  0  0  0  0  0  0  0  0  0  0
   -5.9782   -2.1565   -0.1872 H   0  0  0  0  0  0  0  0  0  0  0  0
   -4.5799   -2.9653    3.6181 H   0  0  0  0  0  0  0  0  0  0  0  0
  1  2  1  0  0  0  0
  1 28  1  0  0  0  0
  1 29  1  0  0  0  0
  1 30  1  0  0  0  0
  2  3  1  0  0  0  0
  2 27  2  0  0  0  0
  3  4  2  0  0  0  0
  3 31  1  0  0  0  0
  4  5  1  0  0  0  0
  4 32  1  0  0  0  0
  5  6  2  0  0  0  0
  5 33  1  0  0  0  0
  6  7  1  0  0  0  0
  6 27  1  0  0  0  0
  7  8  1  0  0  0  0
  7 34  1  0  0  0  0
  8  9  2  0  0  0  0
  8 10  1  0  0  0  0
 10 11  1  0  0  0  0
 10 26  2  0  0  0  0
 11 12  2  0  0  0  0
 11 35  1  0  0  0  0
 12 13  1  0  0  0  0
 12 36  1  0  0  0  0
 13 14  2  0  0  0  0
 13 37  1  0  0  0  0
 14 15  1  0  0  0  0
 14 26  1  0  0  0  0
 15 16  1  0  0  0  0
 15 25  1  0  0  0  0
 16 17  1  0  0  0  0
 16 38  1  0  0  0  0
 16 39  1  0  0  0  0
 17 18  1  0  0  0  0
 17 40  1  0  0  0  0
 17 41  1  0  0  0  0
 18 19  1  0  0  0  0
 18 24  2  0  0  0  0
 19 20  2  0  0  0  0
 20 21  1  0  0  0  0
 20 22  1  0  0  0  0
 21 42  1  0  0  0  0
 21 43  1  0  0  0  0
 22 23  2  0  0  0  0
 23 24  1  0  0  0  0
 23 44  1  0  0  0  0
 24 25  1  0  0  0  0
 25 45  1  0  0  0  0
 25 46  1  0  0  0  0
 26 47  1  0  0  0  0
 27 48  1  0  0  0  0
M  END
$$$$
