CHEMBL3909140
 OpenBabel04072215373D

 66 68  0  0  0  0  0  0  0  0999 V2000
    4.4755    1.4341    0.3608 C   0  0  0  0  0  0  0  0  0  0  0  0
    3.3917    0.5670    0.8472 N   0  0  0  0  0  0  0  0  0  0  0  0
    3.8578   -0.5928    1.6431 C   0  0  0  0  0  0  0  0  0  0  0  0
    4.7181   -1.5535    0.7743 C   0  0  0  0  0  0  0  0  0  0  0  0
    5.3658   -2.7492    1.4219 N   0  0  0  0  0  0  0  0  0  0  0  0
    4.4334   -3.7997    1.8616 C   0  0  0  0  0  0  0  0  0  0  0  0
    3.0307   -3.6122    1.6635 C   0  0  0  0  0  0  0  0  0  0  0  0
    2.0363   -4.5070    2.0789 C   0  0  0  0  0  0  0  0  0  0  0  0
    0.7089   -4.2090    1.9522 O   0  0  0  0  0  0  0  0  0  0  0  0
    0.1433   -3.0342    1.4699 C   0  0  0  0  0  0  0  0  0  0  0  0
    2.4445   -5.6986    2.6432 C   0  0  0  0  0  0  0  0  0  0  0  0
    3.8149   -6.0066    2.7782 C   0  0  0  0  0  0  0  0  0  0  0  0
    4.2010   -7.2284    3.2300 O   0  0  0  0  0  0  0  0  0  0  0  0
    3.3337   -8.2513    3.5847 C   0  0  0  0  0  0  0  0  0  0  0  0
    4.8074   -5.0500    2.4027 C   0  0  0  0  0  0  0  0  0  0  0  0
    6.8619   -2.7947    1.3145 C   0  0  0  0  0  0  0  0  0  0  0  0
    7.3331   -2.1994    0.1296 C   0  0  0  0  0  0  0  0  0  0  0  0
    8.6213   -1.9885   -0.1595 C   0  0  0  0  0  0  0  0  0  0  0  0
    9.5974   -2.3791    0.6721 C   0  0  0  0  0  0  0  0  0  0  0  0
   10.8161   -2.1035    0.2234 N   0  0  0  0  0  0  0  0  0  0  0  0
   11.8969   -2.3397    0.9313 C   0  0  0  0  0  0  0  0  0  0  0  0
   11.8099   -2.8666    2.2114 C   0  0  0  0  0  0  0  0  0  0  0  0
   13.1858   -2.7778    2.9003 C   0  0  0  0  0  0  0  0  0  0  0  0
   13.8185   -3.4440    3.9467 C   0  0  0  0  0  0  0  0  0  0  0  0
   15.0339   -2.8650    4.1810 N   0  0  0  0  0  0  0  0  0  0  0  0
   15.2125   -1.8600    3.3298 N   0  0  0  0  0  0  0  0  0  0  0  0
   16.3246   -0.8718    3.3849 C   0  0  0  0  0  0  0  0  0  0  0  0
   17.3047   -0.8295    2.2099 C   0  0  0  0  0  0  0  0  0  0  0  0
   17.9108   -1.8477    1.9130 O   0  0  0  0  0  0  0  0  0  0  0  0
   17.6033    0.3577    1.5813 N   0  0  0  0  0  0  0  0  0  0  0  0
   18.6598    0.5184    0.5876 C   0  0  0  0  0  0  0  0  0  0  0  0
   14.1380   -1.7883    2.5364 C   0  0  0  0  0  0  0  0  0  0  0  0
   10.5321   -3.2625    2.6890 N   0  0  0  0  0  0  0  0  0  0  0  0
    9.3687   -3.0180    1.9097 C   0  0  0  0  0  0  0  0  0  0  0  0
    7.9282   -3.2729    2.2436 C   0  0  0  0  0  0  0  0  0  0  0  0
   -0.5591    1.9516    0.6212 Cl  0  0  0  0  0  0  0  0  0  0  0  0
    4.0615    2.4158    0.0574 H   0  0  0  0  0  0  0  0  0  0  0  0
    4.9675    1.0023   -0.5409 H   0  0  0  0  0  0  0  0  0  0  0  0
    5.2327    1.5985    1.1569 H   0  0  0  0  0  0  0  0  0  0  0  0
    2.8099    0.2556    0.0310 H   0  0  0  0  0  0  0  0  0  0  0  0
    2.9558   -1.0331    2.1015 H   0  0  0  0  0  0  0  0  0  0  0  0
    4.4573   -0.2401    2.5024 H   0  0  0  0  0  0  0  0  0  0  0  0
    5.4641   -0.8273    0.4743 H   0  0  0  0  0  0  0  0  0  0  0  0
    4.1656   -1.8752   -0.1413 H   0  0  0  0  0  0  0  0  0  0  0  0
    2.6354   -2.7631    1.1574 H   0  0  0  0  0  0  0  0  0  0  0  0
   -0.9399   -3.0566    1.5707 H   0  0  0  0  0  0  0  0  0  0  0  0
    0.4249   -2.8907    0.3983 H   0  0  0  0  0  0  0  0  0  0  0  0
    0.5397   -2.1671    2.0656 H   0  0  0  0  0  0  0  0  0  0  0  0
    1.6596   -6.3845    2.9452 H   0  0  0  0  0  0  0  0  0  0  0  0
    3.9080   -9.1782    3.7752 H   0  0  0  0  0  0  0  0  0  0  0  0
    2.6191   -8.4654    2.7568 H   0  0  0  0  0  0  0  0  0  0  0  0
    2.7667   -7.9752    4.4998 H   0  0  0  0  0  0  0  0  0  0  0  0
    5.8462   -5.3007    2.5224 H   0  0  0  0  0  0  0  0  0  0  0  0
    6.7038   -1.8442   -0.6650 H   0  0  0  0  0  0  0  0  0  0  0  0
    8.8766   -1.4711   -1.0731 H   0  0  0  0  0  0  0  0  0  0  0  0
   12.8209   -2.0660    0.4585 H   0  0  0  0  0  0  0  0  0  0  0  0
   13.4434   -4.2826    4.5137 H   0  0  0  0  0  0  0  0  0  0  0  0
   16.9391   -1.0900    4.2811 H   0  0  0  0  0  0  0  0  0  0  0  0
   15.8863    0.1417    3.5321 H   0  0  0  0  0  0  0  0  0  0  0  0
   17.1033    1.2168    1.8552 H   0  0  0  0  0  0  0  0  0  0  0  0
   19.1919   -0.4316    0.3703 H   0  0  0  0  0  0  0  0  0  0  0  0
   19.4083    1.2535    0.9470 H   0  0  0  0  0  0  0  0  0  0  0  0
   18.2317    0.9075   -0.3663 H   0  0  0  0  0  0  0  0  0  0  0  0
   14.0296   -1.0076    1.7962 H   0  0  0  0  0  0  0  0  0  0  0  0
    7.6557   -3.7498    3.1828 H   0  0  0  0  0  0  0  0  0  0  0  0
    0.8088    2.0501    0.5209 H   0  0  0  0  0  0  0  0  0  0  0  0
  1  2  1  0  0  0  0
  1 37  1  0  0  0  0
  1 38  1  0  0  0  0
  1 39  1  0  0  0  0
  2  3  1  0  0  0  0
  2 40  1  0  0  0  0
  3  4  1  0  0  0  0
  3 41  1  0  0  0  0
  3 42  1  0  0  0  0
  4  5  1  0  0  0  0
  4 43  1  0  0  0  0
  4 44  1  0  0  0  0
  5  6  1  0  0  0  0
  5 16  1  0  0  0  0
  6  7  1  0  0  0  0
  6 15  2  0  0  0  0
  7  8  2  0  0  0  0
  7 45  1  0  0  0  0
  8  9  1  0  0  0  0
  8 11  1  0  0  0  0
  9 10  1  0  0  0  0
 10 46  1  0  0  0  0
 10 47  1  0  0  0  0
 10 48  1  0  0  0  0
 11 12  2  0  0  0  0
 11 49  1  0  0  0  0
 12 13  1  0  0  0  0
 12 15  1  0  0  0  0
 13 14  1  0  0  0  0
 14 50  1  0  0  0  0
 14 51  1  0  0  0  0
 14 52  1  0  0  0  0
 15 53  1  0  0  0  0
 16 17  1  0  0  0  0
 16 35  2  0  0  0  0
 17 18  2  0  0  0  0
 17 54  1  0  0  0  0
 18 19  1  0  0  0  0
 18 55  1  0  0  0  0
 19 20  1  0  0  0  0
 19 34  2  0  0  0  0
 20 21  2  0  0  0  0
 21 22  1  0  0  0  0
 21 56  1  0  0  0  0
 22 23  1  0  0  0  0
 22 33  2  0  0  0  0
 23 24  1  0  0  0  0
 23 32  2  0  0  0  0
 24 25  2  0  0  0  0
 24 57  1  0  0  0  0
 25 26  1  0  0  0  0
 26 27  1  0  0  0  0
 26 32  1  0  0  0  0
 27 28  1  0  0  0  0
 27 58  1  0  0  0  0
 27 59  1  0  0  0  0
 28 29  2  0  0  0  0
 28 30  1  0  0  0  0
 30 31  1  0  0  0  0
 30 60  1  0  0  0  0
 31 61  1  0  0  0  0
 31 62  1  0  0  0  0
 31 63  1  0  0  0  0
 32 64  1  0  0  0  0
 33 34  1  0  0  0  0
 34 35  1  0  0  0  0
 35 65  1  0  0  0  0
 36 66  1  0  0  0  0
M  END
$$$$
