CHEMBL439428
 OpenBabel04072215383D

 51 55  0  0  0  0  0  0  0  0999 V2000
    1.5192   -0.9142   -1.0325 C   0  0  0  0  0  0  0  0  0  0  0  0
    2.3096   -0.0418   -0.0545 C   0  0  0  0  0  0  0  0  0  0  0  0
    3.3787   -0.8681    0.6603 C   0  0  0  0  0  0  0  0  0  0  0  0
    2.8426    1.2476   -0.6589 C   0  0  0  0  0  0  0  0  0  0  0  0
    3.7296    1.4131   -1.7832 C   0  0  0  0  0  0  0  0  0  0  0  0
    4.4061    0.4069   -2.6585 C   0  0  0  0  0  0  0  0  0  0  0  0
    4.3052   -0.9028   -2.5392 N   0  0  0  0  0  0  0  0  0  0  0  0
    5.0364   -1.4704   -3.5593 N   0  0  0  0  0  0  0  0  0  0  0  0
    5.5595   -0.4682   -4.2188 C   0  0  0  0  0  0  0  0  0  0  0  0
    5.2178    0.7486   -3.7216 O   0  0  0  0  0  0  0  0  0  0  0  0
    3.8802    2.7641   -2.0108 C   0  0  0  0  0  0  0  0  0  0  0  0
    3.1027    3.4351   -1.1183 N   0  0  0  0  0  0  0  0  0  0  0  0
    2.9085    4.7604   -1.1280 N   0  0  0  0  0  0  0  0  0  0  0  0
    2.1029    5.1757   -0.2036 C   0  0  0  0  0  0  0  0  0  0  0  0
    1.5115    4.4107    0.7625 N   0  0  0  0  0  0  0  0  0  0  0  0
    1.7096    3.1248    0.7922 C   0  0  0  0  0  0  0  0  0  0  0  0
    1.1688    2.3680    1.8144 N   0  0  0  0  0  0  0  0  0  0  0  0
    0.0123    2.7023    2.5439 C   0  0  0  0  0  0  0  0  0  0  0  0
   -1.0723    3.3634    1.9455 C   0  0  0  0  0  0  0  0  0  0  0  0
   -2.2276    3.6888    2.6750 C   0  0  0  0  0  0  0  0  0  0  0  0
   -3.3473    4.3609    1.9499 C   0  0  0  0  0  0  0  0  0  0  0  0
   -3.2354    4.6059    0.7551 O   0  0  0  0  0  0  0  0  0  0  0  0
   -4.4859    4.6583    2.6761 N   0  0  0  0  0  0  0  0  0  0  0  0
   -5.6514    5.2380    2.0828 C   0  0  0  0  0  0  0  0  0  0  0  0
   -5.8404    6.7265    1.9852 C   0  0  0  0  0  0  0  0  0  0  0  0
   -6.6634    5.9328    2.9551 C   0  0  0  0  0  0  0  0  0  0  0  0
   -2.2745    3.3533    4.0297 C   0  0  0  0  0  0  0  0  0  0  0  0
   -3.3478    3.6513    4.7774 F   0  0  0  0  0  0  0  0  0  0  0  0
   -1.2169    2.6867    4.6448 C   0  0  0  0  0  0  0  0  0  0  0  0
   -0.0931    2.3574    3.8975 C   0  0  0  0  0  0  0  0  0  0  0  0
    0.9162    1.7003    4.4890 F   0  0  0  0  0  0  0  0  0  0  0  0
    2.5300    2.5528   -0.2473 C   0  0  0  0  0  0  0  0  0  0  0  0
    1.0812   -1.7703   -0.5064 H   0  0  0  0  0  0  0  0  0  0  0  0
    2.1358   -1.3261   -1.8307 H   0  0  0  0  0  0  0  0  0  0  0  0
    0.7058   -0.3520   -1.5009 H   0  0  0  0  0  0  0  0  0  0  0  0
    1.5824    0.2285    0.7167 H   0  0  0  0  0  0  0  0  0  0  0  0
    4.0620   -1.3542   -0.0407 H   0  0  0  0  0  0  0  0  0  0  0  0
    2.9046   -1.6610    1.2514 H   0  0  0  0  0  0  0  0  0  0  0  0
    3.9736   -0.2540    1.3439 H   0  0  0  0  0  0  0  0  0  0  0  0
    6.2101   -0.4920   -5.0803 H   0  0  0  0  0  0  0  0  0  0  0  0
    4.4381    3.3090   -2.7592 H   0  0  0  0  0  0  0  0  0  0  0  0
    1.8749    6.2547   -0.1638 H   0  0  0  0  0  0  0  0  0  0  0  0
    1.8347    1.7922    2.3211 H   0  0  0  0  0  0  0  0  0  0  0  0
   -1.0269    3.6166    0.8861 H   0  0  0  0  0  0  0  0  0  0  0  0
   -4.5541    4.3442    3.6384 H   0  0  0  0  0  0  0  0  0  0  0  0
   -6.0373    4.6490    1.2532 H   0  0  0  0  0  0  0  0  0  0  0  0
   -6.3327    7.1128    1.0993 H   0  0  0  0  0  0  0  0  0  0  0  0
   -5.0736    7.3802    2.3826 H   0  0  0  0  0  0  0  0  0  0  0  0
   -7.7126    5.7852    2.7302 H   0  0  0  0  0  0  0  0  0  0  0  0
   -6.4479    6.0629    4.0090 H   0  0  0  0  0  0  0  0  0  0  0  0
   -1.2708    2.4233    5.6957 H   0  0  0  0  0  0  0  0  0  0  0  0
  1  2  1  0  0  0  0
  1 33  1  0  0  0  0
  1 34  1  0  0  0  0
  1 35  1  0  0  0  0
  2  3  1  0  0  0  0
  2  4  1  0  0  0  0
  2 36  1  0  0  0  0
  3 37  1  0  0  0  0
  3 38  1  0  0  0  0
  3 39  1  0  0  0  0
  4  5  1  0  0  0  0
  4 32  2  0  0  0  0
  5  6  1  0  0  0  0
  5 11  2  0  0  0  0
  6  7  2  0  0  0  0
  6 10  1  0  0  0  0
  7  8  1  0  0  0  0
  8  9  2  0  0  0  0
  9 10  1  0  0  0  0
  9 40  1  0  0  0  0
 11 12  1  0  0  0  0
 11 41  1  0  0  0  0
 12 13  1  0  0  0  0
 12 32  1  0  0  0  0
 13 14  2  0  0  0  0
 14 15  1  0  0  0  0
 14 42  1  0  0  0  0
 15 16  2  0  0  0  0
 16 17  1  0  0  0  0
 16 32  1  0  0  0  0
 17 18  1  0  0  0  0
 17 43  1  0  0  0  0
 18 19  1  0  0  0  0
 18 30  2  0  0  0  0
 19 20  2  0  0  0  0
 19 44  1  0  0  0  0
 20 21  1  0  0  0  0
 20 27  1  0  0  0  0
 21 22  2  0  0  0  0
 21 23  1  0  0  0  0
 23 24  1  0  0  0  0
 23 45  1  0  0  0  0
 24 25  1  0  0  0  0
 24 26  1  0  0  0  0
 24 46  1  0  0  0  0
 25 26  1  0  0  0  0
 25 47  1  0  0  0  0
 25 48  1  0  0  0  0
 26 49  1  0  0  0  0
 26 50  1  0  0  0  0
 27 28  1  0  0  0  0
 27 29  2  0  0  0  0
 29 30  1  0  0  0  0
 29 51  1  0  0  0  0
 30 31  1  0  0  0  0
M  END
$$$$
