CHEMBL3288502
 OpenBabel04072215363D

 47 51  0  0  0  0  0  0  0  0999 V2000
   -3.5044    3.0172    1.4704 N   0  0  0  0  0  0  0  0  0  0  0  0
   -3.2635    1.7045    1.3260 C   0  0  0  0  0  0  0  0  0  0  0  0
   -4.1606    0.8229    1.7565 N   0  0  0  0  0  0  0  0  0  0  0  0
   -3.6344   -0.3538    1.4188 N   0  0  0  0  0  0  0  0  0  0  0  0
   -2.4264   -0.2736    0.7818 C   0  0  0  0  0  0  0  0  0  0  0  0
   -1.6211   -1.2920    0.2691 C   0  0  0  0  0  0  0  0  0  0  0  0
   -0.4196   -0.9196   -0.3135 C   0  0  0  0  0  0  0  0  0  0  0  0
   -0.0423    0.4208   -0.3632 C   0  0  0  0  0  0  0  0  0  0  0  0
   -0.8532    1.4694    0.1478 C   0  0  0  0  0  0  0  0  0  0  0  0
   -0.3775    2.8734    0.0776 C   0  0  0  0  0  0  0  0  0  0  0  0
    0.4049    3.3379   -0.9900 C   0  0  0  0  0  0  0  0  0  0  0  0
    0.8599    4.6653   -1.0522 C   0  0  0  0  0  0  0  0  0  0  0  0
    0.4574    5.6335   -0.1040 C   0  0  0  0  0  0  0  0  0  0  0  0
    0.7734    7.0246   -0.1328 C   0  0  0  0  0  0  0  0  0  0  0  0
    1.6430    7.6819   -1.1502 C   0  0  0  0  0  0  0  0  0  0  0  0
    2.4280    8.5346   -0.7433 O   0  0  0  0  0  0  0  0  0  0  0  0
    1.4334    7.3383   -2.4755 N   0  0  0  0  0  0  0  0  0  0  0  0
    2.1304    7.8527   -3.5939 C   0  0  0  0  0  0  0  0  0  0  0  0
    3.2457    8.6899   -3.4929 C   0  0  0  0  0  0  0  0  0  0  0  0
    3.8424    9.2262   -4.6356 C   0  0  0  0  0  0  0  0  0  0  0  0
    3.3420    8.9175   -5.8973 C   0  0  0  0  0  0  0  0  0  0  0  0
    2.2575    8.0510   -6.0147 C   0  0  0  0  0  0  0  0  0  0  0  0
    1.6626    7.5112   -4.8682 C   0  0  0  0  0  0  0  0  0  0  0  0
    0.2991    7.8863    0.8769 C   0  0  0  0  0  0  0  0  0  0  0  0
   -0.4747    7.3996    1.9201 C   0  0  0  0  0  0  0  0  0  0  0  0
   -0.7693    6.0434    1.9764 C   0  0  0  0  0  0  0  0  0  0  0  0
   -0.3143    5.1621    0.9847 C   0  0  0  0  0  0  0  0  0  0  0  0
   -0.6401    3.8004    1.0939 C   0  0  0  0  0  0  0  0  0  0  0  0
   -2.1082    1.0888    0.7263 C   0  0  0  0  0  0  0  0  0  0  0  0
   -4.4379    3.2505    1.7913 H   0  0  0  0  0  0  0  0  0  0  0  0
   -3.1520    3.6661    0.7764 H   0  0  0  0  0  0  0  0  0  0  0  0
   -4.1536   -1.1938    1.6487 H   0  0  0  0  0  0  0  0  0  0  0  0
   -1.9083   -2.3369    0.3348 H   0  0  0  0  0  0  0  0  0  0  0  0
    0.2409   -1.6788   -0.7257 H   0  0  0  0  0  0  0  0  0  0  0  0
    0.9277    0.6481   -0.8041 H   0  0  0  0  0  0  0  0  0  0  0  0
    0.6952    2.6696   -1.7973 H   0  0  0  0  0  0  0  0  0  0  0  0
    1.5343    4.9163   -1.8670 H   0  0  0  0  0  0  0  0  0  0  0  0
    0.6411    6.7432   -2.6792 H   0  0  0  0  0  0  0  0  0  0  0  0
    3.6787    8.9536   -2.5332 H   0  0  0  0  0  0  0  0  0  0  0  0
    4.6942    9.8954   -4.5330 H   0  0  0  0  0  0  0  0  0  0  0  0
    3.7956    9.3533   -6.7824 H   0  0  0  0  0  0  0  0  0  0  0  0
    1.8739    7.7977   -6.9984 H   0  0  0  0  0  0  0  0  0  0  0  0
    0.8159    6.8409   -4.9911 H   0  0  0  0  0  0  0  0  0  0  0  0
    0.5499    8.9464    0.8496 H   0  0  0  0  0  0  0  0  0  0  0  0
   -0.8404    8.0718    2.6917 H   0  0  0  0  0  0  0  0  0  0  0  0
   -1.3749    5.6757    2.8038 H   0  0  0  0  0  0  0  0  0  0  0  0
   -1.1383    3.4582    1.9985 H   0  0  0  0  0  0  0  0  0  0  0  0
  1  2  1  0  0  0  0
  1 30  1  0  0  0  0
  1 31  1  0  0  0  0
  2  3  2  0  0  0  0
  2 29  1  0  0  0  0
  3  4  1  0  0  0  0
  4  5  1  0  0  0  0
  4 32  1  0  0  0  0
  5  6  1  0  0  0  0
  5 29  2  0  0  0  0
  6  7  2  0  0  0  0
  6 33  1  0  0  0  0
  7  8  1  0  0  0  0
  7 34  1  0  0  0  0
  8  9  2  0  0  0  0
  8 35  1  0  0  0  0
  9 10  1  0  0  0  0
  9 29  1  0  0  0  0
 10 11  1  0  0  0  0
 10 28  2  0  0  0  0
 11 12  2  0  0  0  0
 11 36  1  0  0  0  0
 12 13  1  0  0  0  0
 12 37  1  0  0  0  0
 13 14  1  0  0  0  0
 13 27  2  0  0  0  0
 14 15  1  0  0  0  0
 14 24  2  0  0  0  0
 15 16  2  0  0  0  0
 15 17  1  0  0  0  0
 17 18  1  0  0  0  0
 17 38  1  0  0  0  0
 18 19  1  0  0  0  0
 18 23  2  0  0  0  0
 19 20  2  0  0  0  0
 19 39  1  0  0  0  0
 20 21  1  0  0  0  0
 20 40  1  0  0  0  0
 21 22  2  0  0  0  0
 21 41  1  0  0  0  0
 22 23  1  0  0  0  0
 22 42  1  0  0  0  0
 23 43  1  0  0  0  0
 24 25  1  0  0  0  0
 24 44  1  0  0  0  0
 25 26  2  0  0  0  0
 25 45  1  0  0  0  0
 26 27  1  0  0  0  0
 26 46  1  0  0  0  0
 27 28  1  0  0  0  0
 28 47  1  0  0  0  0
M  END
$$$$
