CHEMBL248108
 OpenBabel04072215363D

 62 67  0  0  0  0  0  0  0  0999 V2000
    1.8172   -4.4904   -3.5231 N   0  0  0  0  0  0  0  0  0  0  0  0
    3.1745   -3.9514   -3.3896 C   0  0  0  0  0  0  0  0  0  0  0  0
    3.3704   -3.3106   -2.0111 C   0  0  0  0  0  0  0  0  0  0  0  0
    2.7032   -1.9319   -1.8943 C   0  0  0  0  0  0  0  0  0  0  0  0
    3.1145   -0.9687   -2.9375 N   0  0  0  0  0  0  0  0  0  0  0  0
    4.5073   -0.5204   -2.7415 C   0  0  0  0  0  0  0  0  0  0  0  0
    4.9329    0.4935   -3.7691 C   0  0  0  0  0  0  0  0  0  0  0  0
    5.5782    0.1017   -4.9915 C   0  0  0  0  0  0  0  0  0  0  0  0
    5.7327    1.2210   -5.7662 C   0  0  0  0  0  0  0  0  0  0  0  0
    5.2366    2.2820   -5.0695 N   0  0  0  0  0  0  0  0  0  0  0  0
    5.1186    3.5132   -5.5794 N   0  0  0  0  0  0  0  0  0  0  0  0
    4.6619    4.3758   -4.7353 C   0  0  0  0  0  0  0  0  0  0  0  0
    4.3972    4.1575   -3.4175 N   0  0  0  0  0  0  0  0  0  0  0  0
    4.5055    2.9667   -2.8945 C   0  0  0  0  0  0  0  0  0  0  0  0
    4.3023    2.7926   -1.5377 N   0  0  0  0  0  0  0  0  0  0  0  0
    4.1392    3.7794   -0.5311 C   0  0  0  0  0  0  0  0  0  0  0  0
    4.5415    5.1185   -0.6636 C   0  0  0  0  0  0  0  0  0  0  0  0
    4.2822    6.1003    0.3178 C   0  0  0  0  0  0  0  0  0  0  0  0
    3.5897    5.6995    1.4658 C   0  0  0  0  0  0  0  0  0  0  0  0
    3.1782    4.3811    1.6393 C   0  0  0  0  0  0  0  0  0  0  0  0
    2.5164    4.3726    2.8832 C   0  0  0  0  0  0  0  0  0  0  0  0
    2.5187    5.5642    3.4815 N   0  0  0  0  0  0  0  0  0  0  0  0
    3.1591    6.3668    2.5956 N   0  0  0  0  0  0  0  0  0  0  0  0
    3.3655    7.7694    2.9485 C   0  0  0  0  0  0  0  0  0  0  0  0
    2.2520    8.6580    2.4448 C   0  0  0  0  0  0  0  0  0  0  0  0
    0.9220    8.4559    2.8556 C   0  0  0  0  0  0  0  0  0  0  0  0
   -0.1158    9.2356    2.3368 C   0  0  0  0  0  0  0  0  0  0  0  0
    0.1658   10.2427    1.4177 C   0  0  0  0  0  0  0  0  0  0  0  0
    1.4842   10.4809    1.0506 C   0  0  0  0  0  0  0  0  0  0  0  0
    1.7593   11.4640    0.1833 F   0  0  0  0  0  0  0  0  0  0  0  0
    2.5258    9.7086    1.5585 C   0  0  0  0  0  0  0  0  0  0  0  0
    3.4583    3.4188    0.6443 C   0  0  0  0  0  0  0  0  0  0  0  0
    4.8694    1.8942   -3.8013 C   0  0  0  0  0  0  0  0  0  0  0  0
    2.8110   -1.5746   -4.2519 C   0  0  0  0  0  0  0  0  0  0  0  0
    3.4745   -2.9365   -4.4978 C   0  0  0  0  0  0  0  0  0  0  0  0
    1.6226   -5.1321   -2.7545 H   0  0  0  0  0  0  0  0  0  0  0  0
    1.7567   -5.0525   -4.3731 H   0  0  0  0  0  0  0  0  0  0  0  0
    3.8667   -4.7968   -3.4871 H   0  0  0  0  0  0  0  0  0  0  0  0
    4.4455   -3.2186   -1.8151 H   0  0  0  0  0  0  0  0  0  0  0  0
    2.9842   -3.9725   -1.2256 H   0  0  0  0  0  0  0  0  0  0  0  0
    2.8981   -1.5131   -0.9001 H   0  0  0  0  0  0  0  0  0  0  0  0
    1.6128   -2.0575   -1.9449 H   0  0  0  0  0  0  0  0  0  0  0  0
    5.2070   -1.3639   -2.7773 H   0  0  0  0  0  0  0  0  0  0  0  0
    4.6112   -0.0851   -1.7433 H   0  0  0  0  0  0  0  0  0  0  0  0
    5.8445   -0.9025   -5.2921 H   0  0  0  0  0  0  0  0  0  0  0  0
    6.1262    1.3585   -6.7627 H   0  0  0  0  0  0  0  0  0  0  0  0
    4.4899    5.4055   -5.0906 H   0  0  0  0  0  0  0  0  0  0  0  0
    4.2263    1.8434   -1.2077 H   0  0  0  0  0  0  0  0  0  0  0  0
    5.0883    5.4423   -1.5457 H   0  0  0  0  0  0  0  0  0  0  0  0
    4.6015    7.1262    0.1648 H   0  0  0  0  0  0  0  0  0  0  0  0
    2.0350    3.5400    3.3781 H   0  0  0  0  0  0  0  0  0  0  0  0
    4.3389    8.0705    2.5449 H   0  0  0  0  0  0  0  0  0  0  0  0
    3.4331    7.8353    4.0420 H   0  0  0  0  0  0  0  0  0  0  0  0
    0.6820    7.6691    3.5713 H   0  0  0  0  0  0  0  0  0  0  0  0
   -1.1421    9.0454    2.6414 H   0  0  0  0  0  0  0  0  0  0  0  0
   -0.6307   10.8408    0.9871 H   0  0  0  0  0  0  0  0  0  0  0  0
    3.5402    9.9334    1.2430 H   0  0  0  0  0  0  0  0  0  0  0  0
    3.1154    2.3994    0.7911 H   0  0  0  0  0  0  0  0  0  0  0  0
    3.0539   -0.8896   -5.0704 H   0  0  0  0  0  0  0  0  0  0  0  0
    1.7212   -1.6966   -4.3278 H   0  0  0  0  0  0  0  0  0  0  0  0
    4.5607   -2.8096   -4.5711 H   0  0  0  0  0  0  0  0  0  0  0  0
    3.1537   -3.3283   -5.4721 H   0  0  0  0  0  0  0  0  0  0  0  0
  1  2  1  0  0  0  0
  1 36  1  0  0  0  0
  1 37  1  0  0  0  0
  2  3  1  0  0  0  0
  2 35  1  0  0  0  0
  2 38  1  0  0  0  0
  3  4  1  0  0  0  0
  3 39  1  0  0  0  0
  3 40  1  0  0  0  0
  4  5  1  0  0  0  0
  4 41  1  0  0  0  0
  4 42  1  0  0  0  0
  5  6  1  0  0  0  0
  5 34  1  0  0  0  0
  6  7  1  0  0  0  0
  6 43  1  0  0  0  0
  6 44  1  0  0  0  0
  7  8  1  0  0  0  0
  7 33  2  0  0  0  0
  8  9  2  0  0  0  0
  8 45  1  0  0  0  0
  9 10  1  0  0  0  0
  9 46  1  0  0  0  0
 10 11  1  0  0  0  0
 10 33  1  0  0  0  0
 11 12  2  0  0  0  0
 12 13  1  0  0  0  0
 12 47  1  0  0  0  0
 13 14  2  0  0  0  0
 14 15  1  0  0  0  0
 14 33  1  0  0  0  0
 15 16  1  0  0  0  0
 15 48  1  0  0  0  0
 16 17  1  0  0  0  0
 16 32  2  0  0  0  0
 17 18  2  0  0  0  0
 17 49  1  0  0  0  0
 18 19  1  0  0  0  0
 18 50  1  0  0  0  0
 19 20  2  0  0  0  0
 19 23  1  0  0  0  0
 20 21  1  0  0  0  0
 20 32  1  0  0  0  0
 21 22  2  0  0  0  0
 21 51  1  0  0  0  0
 22 23  1  0  0  0  0
 23 24  1  0  0  0  0
 24 25  1  0  0  0  0
 24 52  1  0  0  0  0
 24 53  1  0  0  0  0
 25 26  1  0  0  0  0
 25 31  2  0  0  0  0
 26 27  2  0  0  0  0
 26 54  1  0  0  0  0
 27 28  1  0  0  0  0
 27 55  1  0  0  0  0
 28 29  2  0  0  0  0
 28 56  1  0  0  0  0
 29 30  1  0  0  0  0
 29 31  1  0  0  0  0
 31 57  1  0  0  0  0
 32 58  1  0  0  0  0
 34 35  1  0  0  0  0
 34 59  1  0  0  0  0
 34 60  1  0  0  0  0
 35 61  1  0  0  0  0
 35 62  1  0  0  0  0
M  END
$$$$
