CHEMBL359592
 OpenBabel04072215363D

 33 36  0  0  0  0  0  0  0  0999 V2000
    1.1879    0.3406    0.4117 O   0  0  0  0  0  0  0  0  0  0  0  0
    2.3741    0.1808    0.1899 C   0  0  0  0  0  0  0  0  0  0  0  0
    3.3174    1.1630   -0.0448 N   0  0  0  0  0  0  0  0  0  0  0  0
    4.5455    0.7072   -0.4543 N   0  0  0  0  0  0  0  0  0  0  0  0
    4.4653   -0.6036   -0.4539 C   0  0  0  0  0  0  0  0  0  0  0  0
    5.5569   -1.4676   -0.9032 C   0  0  0  0  0  0  0  0  0  0  0  0
    6.8697   -1.0446   -0.7476 C   0  0  0  0  0  0  0  0  0  0  0  0
    7.9229   -1.7650   -1.2080 N   0  0  0  0  0  0  0  0  0  0  0  0
    7.6011   -2.9066   -1.8580 C   0  0  0  0  0  0  0  0  0  0  0  0
    6.2885   -3.3196   -2.0275 C   0  0  0  0  0  0  0  0  0  0  0  0
    5.2344   -2.6180   -1.5470 N   0  0  0  0  0  0  0  0  0  0  0  0
    3.1440   -1.0812    0.0404 C   0  0  0  0  0  0  0  0  0  0  0  0
    2.8322   -2.3389    0.3953 C   0  0  0  0  0  0  0  0  0  0  0  0
    1.6424   -2.7581    1.0510 C   0  0  0  0  0  0  0  0  0  0  0  0
    1.3842   -3.8003    1.9255 C   0  0  0  0  0  0  0  0  0  0  0  0
    0.0336   -3.6921    2.3673 C   0  0  0  0  0  0  0  0  0  0  0  0
   -0.7652   -4.3868    3.2959 C   0  0  0  0  0  0  0  0  0  0  0  0
   -2.0860   -3.9678    3.5098 C   0  0  0  0  0  0  0  0  0  0  0  0
   -2.6139   -2.8828    2.8117 C   0  0  0  0  0  0  0  0  0  0  0  0
   -1.8416   -2.1847    1.8827 C   0  0  0  0  0  0  0  0  0  0  0  0
   -0.5260   -2.6147    1.6888 C   0  0  0  0  0  0  0  0  0  0  0  0
    0.4500   -2.1016    0.8706 N   0  0  0  0  0  0  0  0  0  0  0  0
    3.0999    2.1524   -0.0498 H   0  0  0  0  0  0  0  0  0  0  0  0
    7.1172   -0.1135   -0.2481 H   0  0  0  0  0  0  0  0  0  0  0  0
    8.4334   -3.4828   -2.2470 H   0  0  0  0  0  0  0  0  0  0  0  0
    6.0493   -4.2303   -2.5662 H   0  0  0  0  0  0  0  0  0  0  0  0
    3.5829   -3.1171    0.2769 H   0  0  0  0  0  0  0  0  0  0  0  0
    2.1080   -4.5273    2.2705 H   0  0  0  0  0  0  0  0  0  0  0  0
   -0.3608   -5.2239    3.8563 H   0  0  0  0  0  0  0  0  0  0  0  0
   -2.7044   -4.4907    4.2349 H   0  0  0  0  0  0  0  0  0  0  0  0
   -3.6381   -2.5674    2.9951 H   0  0  0  0  0  0  0  0  0  0  0  0
   -2.2411   -1.3305    1.3454 H   0  0  0  0  0  0  0  0  0  0  0  0
    0.3214   -1.2635    0.3163 H   0  0  0  0  0  0  0  0  0  0  0  0
  1  2  2  0  0  0  0
  2  3  1  0  0  0  0
  2 12  1  0  0  0  0
  3  4  1  0  0  0  0
  3 23  1  0  0  0  0
  4  5  2  0  0  0  0
  5  6  1  0  0  0  0
  5 12  1  0  0  0  0
  6  7  1  0  0  0  0
  6 11  2  0  0  0  0
  7  8  2  0  0  0  0
  7 24  1  0  0  0  0
  8  9  1  0  0  0  0
  9 10  2  0  0  0  0
  9 25  1  0  0  0  0
 10 11  1  0  0  0  0
 10 26  1  0  0  0  0
 12 13  2  0  0  0  0
 13 14  1  0  0  0  0
 13 27  1  0  0  0  0
 14 15  2  0  0  0  0
 14 22  1  0  0  0  0
 15 16  1  0  0  0  0
 15 28  1  0  0  0  0
 16 17  1  0  0  0  0
 16 21  2  0  0  0  0
 17 18  2  0  0  0  0
 17 29  1  0  0  0  0
 18 19  1  0  0  0  0
 18 30  1  0  0  0  0
 19 20  2  0  0  0  0
 19 31  1  0  0  0  0
 20 21  1  0  0  0  0
 20 32  1  0  0  0  0
 21 22  1  0  0  0  0
 22 33  1  0  0  0  0
M  END
$$$$
