CHEMBL220523
 OpenBabel04072215363D

 35 37  0  0  0  0  0  0  0  0999 V2000
    1.1505   -1.2126    0.1268 C   0  0  0  0  0  0  0  0  0  0  0  0
    2.4854   -0.7236    0.0081 O   0  0  0  0  0  0  0  0  0  0  0  0
    3.0507   -0.7121    1.2890 N   0  0  0  0  0  0  0  0  0  0  0  0
    4.2816   -0.3023    1.2383 C   0  0  0  0  0  0  0  0  0  0  0  0
    5.0869   -0.2094    2.4660 C   0  0  0  0  0  0  0  0  0  0  0  0
    4.7881   -0.9633    3.5961 C   0  0  0  0  0  0  0  0  0  0  0  0
    3.8359   -1.9825    3.5927 N   0  0  0  0  0  0  0  0  0  0  0  0
    5.4757   -0.8625    4.7462 N   0  0  0  0  0  0  0  0  0  0  0  0
    6.4658    0.0315    4.7715 C   0  0  0  0  0  0  0  0  0  0  0  0
    6.8334    0.8127    3.7538 N   0  0  0  0  0  0  0  0  0  0  0  0
    6.1636    0.6508    2.5904 C   0  0  0  0  0  0  0  0  0  0  0  0
    6.5811    1.4093    1.4922 O   0  0  0  0  0  0  0  0  0  0  0  0
    7.8773    1.8966    1.5263 C   0  0  0  0  0  0  0  0  0  0  0  0
    8.9608    1.1060    1.9099 C   0  0  0  0  0  0  0  0  0  0  0  0
   10.2346    1.6659    2.0292 C   0  0  0  0  0  0  0  0  0  0  0  0
   10.4781    2.9920    1.7153 C   0  0  0  0  0  0  0  0  0  0  0  0
   11.7220    3.4756    1.8784 N   0  0  0  0  0  0  0  0  0  0  0  0
   11.9487    4.7651    1.5534 C   0  0  0  0  0  0  0  0  0  0  0  0
   10.9774    5.6071    1.0413 C   0  0  0  0  0  0  0  0  0  0  0  0
    9.6927    5.1034    0.8797 C   0  0  0  0  0  0  0  0  0  0  0  0
    9.4054    3.7749    1.2339 C   0  0  0  0  0  0  0  0  0  0  0  0
    8.1065    3.2197    1.1401 C   0  0  0  0  0  0  0  0  0  0  0  0
    0.6615   -1.1375   -0.8465 H   0  0  0  0  0  0  0  0  0  0  0  0
    0.5879   -0.6124    0.8503 H   0  0  0  0  0  0  0  0  0  0  0  0
    1.1573   -2.2625    0.4405 H   0  0  0  0  0  0  0  0  0  0  0  0
    4.7438    0.0065    0.2831 H   0  0  0  0  0  0  0  0  0  0  0  0
    2.9881   -1.7016    3.0978 H   0  0  0  0  0  0  0  0  0  0  0  0
    3.6856   -2.3173    4.5369 H   0  0  0  0  0  0  0  0  0  0  0  0
    7.0318    0.1190    5.6923 H   0  0  0  0  0  0  0  0  0  0  0  0
    8.8241    0.0616    2.1764 H   0  0  0  0  0  0  0  0  0  0  0  0
   11.0553    1.0529    2.3943 H   0  0  0  0  0  0  0  0  0  0  0  0
   12.9658    5.1103    1.7195 H   0  0  0  0  0  0  0  0  0  0  0  0
   11.2231    6.6323    0.7837 H   0  0  0  0  0  0  0  0  0  0  0  0
    8.9168    5.7520    0.4822 H   0  0  0  0  0  0  0  0  0  0  0  0
    7.2761    3.8313    0.7965 H   0  0  0  0  0  0  0  0  0  0  0  0
  1  2  1  0  0  0  0
  1 23  1  0  0  0  0
  1 24  1  0  0  0  0
  1 25  1  0  0  0  0
  2  3  1  0  0  0  0
  3  4  2  0  0  0  0
  4  5  1  0  0  0  0
  4 26  1  0  0  0  0
  5  6  1  0  0  0  0
  5 11  2  0  0  0  0
  6  7  1  0  0  0  0
  6  8  2  0  0  0  0
  7 27  1  0  0  0  0
  7 28  1  0  0  0  0
  8  9  1  0  0  0  0
  9 10  2  0  0  0  0
  9 29  1  0  0  0  0
 10 11  1  0  0  0  0
 11 12  1  0  0  0  0
 12 13  1  0  0  0  0
 13 14  1  0  0  0  0
 13 22  2  0  0  0  0
 14 15  2  0  0  0  0
 14 30  1  0  0  0  0
 15 16  1  0  0  0  0
 15 31  1  0  0  0  0
 16 17  1  0  0  0  0
 16 21  2  0  0  0  0
 17 18  2  0  0  0  0
 18 19  1  0  0  0  0
 18 32  1  0  0  0  0
 19 20  2  0  0  0  0
 19 33  1  0  0  0  0
 20 21  1  0  0  0  0
 20 34  1  0  0  0  0
 21 22  1  0  0  0  0
 22 35  1  0  0  0  0
M  END
$$$$
