CHEMBL3690590
 OpenBabel04072215373D

 56 59  0  0  0  0  0  0  0  0999 V2000
    4.6779   -4.8257   -1.0725 C   0  0  0  0  0  0  0  0  0  0  0  0
    3.4709   -4.9229   -0.1336 C   0  0  0  0  0  0  0  0  0  0  0  0
    3.6181   -6.1599    0.7653 C   0  0  0  0  0  0  0  0  0  0  0  0
    3.2846   -3.6313    0.6329 C   0  0  0  0  0  0  0  0  0  0  0  0
    3.9491   -3.3766    1.8202 C   0  0  0  0  0  0  0  0  0  0  0  0
    3.8475   -2.2352    2.5288 N   0  0  0  0  0  0  0  0  0  0  0  0
    3.0451   -1.2986    2.0322 C   0  0  0  0  0  0  0  0  0  0  0  0
    2.9395   -0.1122    2.7250 N   0  0  0  0  0  0  0  0  0  0  0  0
    2.3782   -1.4080    0.8878 N   0  0  0  0  0  0  0  0  0  0  0  0
    2.4862   -2.5747    0.2102 C   0  0  0  0  0  0  0  0  0  0  0  0
    1.6698   -2.5832   -1.0232 C   0  0  0  0  0  0  0  0  0  0  0  0
    2.1395   -1.9829   -2.2722 C   0  0  0  0  0  0  0  0  0  0  0  0
    1.3030   -1.8699   -3.3159 C   0  0  0  0  0  0  0  0  0  0  0  0
   -0.0033   -2.3710   -3.2267 N   0  0  0  0  0  0  0  0  0  0  0  0
   -1.0392   -2.4332   -4.1662 C   0  0  0  0  0  0  0  0  0  0  0  0
   -0.9732   -2.0714   -5.5947 C   0  0  0  0  0  0  0  0  0  0  0  0
    0.2063   -2.2904   -6.3173 C   0  0  0  0  0  0  0  0  0  0  0  0
    0.3030   -1.9436   -7.6576 C   0  0  0  0  0  0  0  0  0  0  0  0
   -0.8066   -1.4444   -8.3273 C   0  0  0  0  0  0  0  0  0  0  0  0
   -2.0322   -1.2956   -7.6768 C   0  0  0  0  0  0  0  0  0  0  0  0
   -3.2049   -0.8840   -8.3677 N   0  0  0  0  0  0  0  0  0  0  0  0
   -3.3156   -0.6911   -9.7300 C   0  0  0  0  0  0  0  0  0  0  0  0
   -2.4435   -0.8369  -10.5747 O   0  0  0  0  0  0  0  0  0  0  0  0
   -4.5662   -0.2497  -10.1106 N   0  0  0  0  0  0  0  0  0  0  0  0
   -4.8090   -0.0160  -11.5444 C   0  0  0  0  0  0  0  0  0  0  0  0
   -5.0476   -1.2648  -12.4092 C   0  0  0  0  0  0  0  0  0  0  0  0
   -5.1932   -2.3823  -11.6610 F   0  0  0  0  0  0  0  0  0  0  0  0
   -6.1967   -1.1187  -13.1179 F   0  0  0  0  0  0  0  0  0  0  0  0
   -4.0565   -1.4767  -13.2992 F   0  0  0  0  0  0  0  0  0  0  0  0
   -2.0992   -1.5792   -6.2969 C   0  0  0  0  0  0  0  0  0  0  0  0
   -2.0980   -2.9685   -3.4467 C   0  0  0  0  0  0  0  0  0  0  0  0
   -1.7508   -3.2823   -2.1597 N   0  0  0  0  0  0  0  0  0  0  0  0
   -0.4874   -2.9433   -2.0501 C   0  0  0  0  0  0  0  0  0  0  0  0
    0.3982   -3.0340   -0.9332 C   0  0  0  0  0  0  0  0  0  0  0  0
    4.8149   -5.7613   -1.6264 H   0  0  0  0  0  0  0  0  0  0  0  0
    5.6037   -4.6248   -0.5212 H   0  0  0  0  0  0  0  0  0  0  0  0
    4.5475   -4.0232   -1.8059 H   0  0  0  0  0  0  0  0  0  0  0  0
    2.5797   -5.1046   -0.7458 H   0  0  0  0  0  0  0  0  0  0  0  0
    4.5390   -6.1353    1.3583 H   0  0  0  0  0  0  0  0  0  0  0  0
    3.6531   -7.0719    0.1590 H   0  0  0  0  0  0  0  0  0  0  0  0
    2.7721   -6.2482    1.4553 H   0  0  0  0  0  0  0  0  0  0  0  0
    4.6209   -4.1019    2.2707 H   0  0  0  0  0  0  0  0  0  0  0  0
    3.7478    0.0111    3.3174 H   0  0  0  0  0  0  0  0  0  0  0  0
    2.7067    0.6368    2.0884 H   0  0  0  0  0  0  0  0  0  0  0  0
    3.1546   -1.5999   -2.3150 H   0  0  0  0  0  0  0  0  0  0  0  0
    1.6058   -1.3838   -4.2314 H   0  0  0  0  0  0  0  0  0  0  0  0
    1.0729   -2.7558   -5.8583 H   0  0  0  0  0  0  0  0  0  0  0  0
    1.2371   -2.0830   -8.1947 H   0  0  0  0  0  0  0  0  0  0  0  0
   -0.6717   -1.1947   -9.3732 H   0  0  0  0  0  0  0  0  0  0  0  0
   -4.0394   -0.7574   -7.8161 H   0  0  0  0  0  0  0  0  0  0  0  0
   -5.3491   -0.5764   -9.5632 H   0  0  0  0  0  0  0  0  0  0  0  0
   -3.9561    0.5394  -11.9543 H   0  0  0  0  0  0  0  0  0  0  0  0
   -5.6788    0.6452  -11.6048 H   0  0  0  0  0  0  0  0  0  0  0  0
   -3.0374   -1.4355   -5.7637 H   0  0  0  0  0  0  0  0  0  0  0  0
   -3.0964   -3.1796   -3.8080 H   0  0  0  0  0  0  0  0  0  0  0  0
   -0.0072   -3.4334   -0.0095 H   0  0  0  0  0  0  0  0  0  0  0  0
  1  2  1  0  0  0  0
  1 35  1  0  0  0  0
  1 36  1  0  0  0  0
  1 37  1  0  0  0  0
  2  3  1  0  0  0  0
  2  4  1  0  0  0  0
  2 38  1  0  0  0  0
  3 39  1  0  0  0  0
  3 40  1  0  0  0  0
  3 41  1  0  0  0  0
  4  5  1  0  0  0  0
  4 10  2  0  0  0  0
  5  6  2  0  0  0  0
  5 42  1  0  0  0  0
  6  7  1  0  0  0  0
  7  8  1  0  0  0  0
  7  9  2  0  0  0  0
  8 43  1  0  0  0  0
  8 44  1  0  0  0  0
  9 10  1  0  0  0  0
 10 11  1  0  0  0  0
 11 12  1  0  0  0  0
 11 34  2  0  0  0  0
 12 13  2  0  0  0  0
 12 45  1  0  0  0  0
 13 14  1  0  0  0  0
 13 46  1  0  0  0  0
 14 15  1  0  0  0  0
 14 33  1  0  0  0  0
 15 16  1  0  0  0  0
 15 31  2  0  0  0  0
 16 17  1  0  0  0  0
 16 30  2  0  0  0  0
 17 18  2  0  0  0  0
 17 47  1  0  0  0  0
 18 19  1  0  0  0  0
 18 48  1  0  0  0  0
 19 20  2  0  0  0  0
 19 49  1  0  0  0  0
 20 21  1  0  0  0  0
 20 30  1  0  0  0  0
 21 22  1  0  0  0  0
 21 50  1  0  0  0  0
 22 23  2  0  0  0  0
 22 24  1  0  0  0  0
 24 25  1  0  0  0  0
 24 51  1  0  0  0  0
 25 26  1  0  0  0  0
 25 52  1  0  0  0  0
 25 53  1  0  0  0  0
 26 27  1  0  0  0  0
 26 28  1  0  0  0  0
 26 29  1  0  0  0  0
 30 54  1  0  0  0  0
 31 32  1  0  0  0  0
 31 55  1  0  0  0  0
 32 33  2  0  0  0  0
 33 34  1  0  0  0  0
 34 56  1  0  0  0  0
M  END
$$$$
