CHEMBL190991
 OpenBabel04072215363D

 74 77  0  0  0  0  0  0  0  0999 V2000
    1.6712   -2.4890   -4.4692 C   0  0  0  0  0  0  0  0  0  0  0  0
    2.8932   -2.9900   -3.9478 O   0  0  0  0  0  0  0  0  0  0  0  0
    3.0777   -2.8196   -2.6023 C   0  0  0  0  0  0  0  0  0  0  0  0
    2.0627   -2.6810   -1.6580 C   0  0  0  0  0  0  0  0  0  0  0  0
    2.3797   -2.5603   -0.3102 C   0  0  0  0  0  0  0  0  0  0  0  0
    1.4652   -2.4664    0.7033 O   0  0  0  0  0  0  0  0  0  0  0  0
    0.2141   -3.1033    0.4554 C   0  0  0  0  0  0  0  0  0  0  0  0
    3.7169   -2.5445    0.0795 C   0  0  0  0  0  0  0  0  0  0  0  0
    4.7667   -2.7463   -0.8391 C   0  0  0  0  0  0  0  0  0  0  0  0
    6.1540   -2.9694   -0.3747 C   0  0  0  0  0  0  0  0  0  0  0  0
    6.3227   -3.6991    0.8203 C   0  0  0  0  0  0  0  0  0  0  0  0
    7.5867   -4.0039    1.3318 C   0  0  0  0  0  0  0  0  0  0  0  0
    7.7435   -4.6593    2.5424 C   0  0  0  0  0  0  0  0  0  0  0  0
    8.9398   -4.9433    3.0916 N   0  0  0  0  0  0  0  0  0  0  0  0
   10.0303   -4.5442    2.4225 C   0  0  0  0  0  0  0  0  0  0  0  0
   11.2747   -4.8442    2.9437 N   0  0  0  0  0  0  0  0  0  0  0  0
   11.4482   -5.8503    3.9733 C   0  0  0  0  0  0  0  0  0  0  0  0
   11.9496   -7.1366    3.3178 C   0  0  0  0  0  0  0  0  0  0  0  0
   13.2731   -6.8815    2.6021 C   0  0  0  0  0  0  0  0  0  0  0  0
   13.7388   -8.0762    1.9811 O   0  0  0  0  0  0  0  0  0  0  0  0
   14.9358   -7.9576    1.3209 C   0  0  0  0  0  0  0  0  0  0  0  0
   15.6890   -6.7859    1.1947 C   0  0  0  0  0  0  0  0  0  0  0  0
   16.9133   -6.8005    0.5236 C   0  0  0  0  0  0  0  0  0  0  0  0
   17.3927   -7.9860   -0.0272 C   0  0  0  0  0  0  0  0  0  0  0  0
   16.6398   -9.1545    0.0831 C   0  0  0  0  0  0  0  0  0  0  0  0
   15.4165   -9.1376    0.7501 C   0  0  0  0  0  0  0  0  0  0  0  0
    9.9415   -3.9158    1.1752 C   0  0  0  0  0  0  0  0  0  0  0  0
    8.7009   -3.6268    0.5924 C   0  0  0  0  0  0  0  0  0  0  0  0
    8.5831   -3.0072   -0.6177 N   0  0  0  0  0  0  0  0  0  0  0  0
    7.3417   -2.6350   -1.0583 C   0  0  0  0  0  0  0  0  0  0  0  0
    7.3049   -1.9668   -2.3232 N   0  0  0  0  0  0  0  0  0  0  0  0
    7.3056   -0.5797   -2.3326 C   0  0  0  0  0  0  0  0  0  0  0  0
    7.2873    0.1121   -1.3171 O   0  0  0  0  0  0  0  0  0  0  0  0
    7.3551   -0.0439   -3.6151 N   0  0  0  0  0  0  0  0  0  0  0  0
    7.4739    1.4158   -3.9005 C   0  0  0  0  0  0  0  0  0  0  0  0
    8.8244    1.9415   -3.3814 C   0  0  0  0  0  0  0  0  0  0  0  0
    7.4120    1.6966   -5.4221 C   0  0  0  0  0  0  0  0  0  0  0  0
    6.3429    2.2355   -3.2532 C   0  0  0  0  0  0  0  0  0  0  0  0
    4.4096   -2.8723   -2.1897 C   0  0  0  0  0  0  0  0  0  0  0  0
    1.6840   -2.6446   -5.5517 H   0  0  0  0  0  0  0  0  0  0  0  0
    1.5824   -1.4143   -4.2802 H   0  0  0  0  0  0  0  0  0  0  0  0
    0.8099   -3.0343   -4.0732 H   0  0  0  0  0  0  0  0  0  0  0  0
    1.0234   -2.6895   -1.9632 H   0  0  0  0  0  0  0  0  0  0  0  0
   -0.2485   -3.3234    1.4220 H   0  0  0  0  0  0  0  0  0  0  0  0
    0.3316   -4.0557   -0.0747 H   0  0  0  0  0  0  0  0  0  0  0  0
   -0.4510   -2.4318   -0.0966 H   0  0  0  0  0  0  0  0  0  0  0  0
    3.9287   -2.4344    1.1465 H   0  0  0  0  0  0  0  0  0  0  0  0
    5.4534   -4.0609    1.3693 H   0  0  0  0  0  0  0  0  0  0  0  0
    6.8942   -4.9752    3.1409 H   0  0  0  0  0  0  0  0  0  0  0  0
   12.0276   -4.1955    2.7641 H   0  0  0  0  0  0  0  0  0  0  0  0
   10.5371   -6.0555    4.5504 H   0  0  0  0  0  0  0  0  0  0  0  0
   12.1906   -5.4977    4.7035 H   0  0  0  0  0  0  0  0  0  0  0  0
   11.2095   -7.5164    2.6026 H   0  0  0  0  0  0  0  0  0  0  0  0
   12.0814   -7.9232    4.0700 H   0  0  0  0  0  0  0  0  0  0  0  0
   14.0069   -6.5341    3.3398 H   0  0  0  0  0  0  0  0  0  0  0  0
   13.1280   -6.1159    1.8305 H   0  0  0  0  0  0  0  0  0  0  0  0
   15.3574   -5.8399    1.6095 H   0  0  0  0  0  0  0  0  0  0  0  0
   17.4933   -5.8858    0.4372 H   0  0  0  0  0  0  0  0  0  0  0  0
   18.3499   -7.9989   -0.5405 H   0  0  0  0  0  0  0  0  0  0  0  0
   17.0083  -10.0800   -0.3491 H   0  0  0  0  0  0  0  0  0  0  0  0
   14.8300  -10.0508    0.8313 H   0  0  0  0  0  0  0  0  0  0  0  0
   10.8419   -3.6510    0.6396 H   0  0  0  0  0  0  0  0  0  0  0  0
    8.0475   -2.2983   -2.9231 H   0  0  0  0  0  0  0  0  0  0  0  0
    6.9285   -0.6210   -4.3332 H   0  0  0  0  0  0  0  0  0  0  0  0
    9.6620    1.4166   -3.8540 H   0  0  0  0  0  0  0  0  0  0  0  0
    8.9200    1.8060   -2.2999 H   0  0  0  0  0  0  0  0  0  0  0  0
    8.9394    3.0129   -3.5848 H   0  0  0  0  0  0  0  0  0  0  0  0
    8.2350    1.2226   -5.9673 H   0  0  0  0  0  0  0  0  0  0  0  0
    7.4728    2.7766   -5.6233 H   0  0  0  0  0  0  0  0  0  0  0  0
    6.4714    1.3443   -5.8613 H   0  0  0  0  0  0  0  0  0  0  0  0
    6.3931    2.2142   -2.1614 H   0  0  0  0  0  0  0  0  0  0  0  0
    5.3577    1.8670   -3.5561 H   0  0  0  0  0  0  0  0  0  0  0  0
    6.4104    3.2912   -3.5472 H   0  0  0  0  0  0  0  0  0  0  0  0
    5.1642   -3.0468   -2.9494 H   0  0  0  0  0  0  0  0  0  0  0  0
  1  2  1  0  0  0  0
  1 40  1  0  0  0  0
  1 41  1  0  0  0  0
  1 42  1  0  0  0  0
  2  3  1  0  0  0  0
  3  4  1  0  0  0  0
  3 39  2  0  0  0  0
  4  5  2  0  0  0  0
  4 43  1  0  0  0  0
  5  6  1  0  0  0  0
  5  8  1  0  0  0  0
  6  7  1  0  0  0  0
  7 44  1  0  0  0  0
  7 45  1  0  0  0  0
  7 46  1  0  0  0  0
  8  9  2  0  0  0  0
  8 47  1  0  0  0  0
  9 10  1  0  0  0  0
  9 39  1  0  0  0  0
 10 11  1  0  0  0  0
 10 30  2  0  0  0  0
 11 12  2  0  0  0  0
 11 48  1  0  0  0  0
 12 13  1  0  0  0  0
 12 28  1  0  0  0  0
 13 14  2  0  0  0  0
 13 49  1  0  0  0  0
 14 15  1  0  0  0  0
 15 16  1  0  0  0  0
 15 27  2  0  0  0  0
 16 17  1  0  0  0  0
 16 50  1  0  0  0  0
 17 18  1  0  0  0  0
 17 51  1  0  0  0  0
 17 52  1  0  0  0  0
 18 19  1  0  0  0  0
 18 53  1  0  0  0  0
 18 54  1  0  0  0  0
 19 20  1  0  0  0  0
 19 55  1  0  0  0  0
 19 56  1  0  0  0  0
 20 21  1  0  0  0  0
 21 22  1  0  0  0  0
 21 26  2  0  0  0  0
 22 23  2  0  0  0  0
 22 57  1  0  0  0  0
 23 24  1  0  0  0  0
 23 58  1  0  0  0  0
 24 25  2  0  0  0  0
 24 59  1  0  0  0  0
 25 26  1  0  0  0  0
 25 60  1  0  0  0  0
 26 61  1  0  0  0  0
 27 28  1  0  0  0  0
 27 62  1  0  0  0  0
 28 29  2  0  0  0  0
 29 30  1  0  0  0  0
 30 31  1  0  0  0  0
 31 32  1  0  0  0  0
 31 63  1  0  0  0  0
 32 33  2  0  0  0  0
 32 34  1  0  0  0  0
 34 35  1  0  0  0  0
 34 64  1  0  0  0  0
 35 36  1  0  0  0  0
 35 37  1  0  0  0  0
 35 38  1  0  0  0  0
 36 65  1  0  0  0  0
 36 66  1  0  0  0  0
 36 67  1  0  0  0  0
 37 68  1  0  0  0  0
 37 69  1  0  0  0  0
 37 70  1  0  0  0  0
 38 71  1  0  0  0  0
 38 72  1  0  0  0  0
 38 73  1  0  0  0  0
 39 74  1  0  0  0  0
M  END
$$$$
