CHEMBL533849
 OpenBabel04072215383D

 56 58  0  0  0  0  0  0  0  0999 V2000
    2.7731   -0.0119   -1.4035 C   0  0  0  0  0  0  0  0  0  0  0  0
    2.5786   -0.4589   -0.1067 O   0  0  0  0  0  0  0  0  0  0  0  0
    3.2504   -0.0218    0.9972 C   0  0  0  0  0  0  0  0  0  0  0  0
    4.3007    0.9304    0.9013 C   0  0  0  0  0  0  0  0  0  0  0  0
    5.0059    1.3446    2.0501 C   0  0  0  0  0  0  0  0  0  0  0  0
    6.0723    2.2729    2.0461 C   0  0  0  0  0  0  0  0  0  0  0  0
    6.5870    2.8671    0.8556 N   0  0  0  0  0  0  0  0  0  0  0  0
    7.3073    4.1000    0.9301 C   0  0  0  0  0  0  0  0  0  0  0  0
    6.9557    5.0659    1.8972 C   0  0  0  0  0  0  0  0  0  0  0  0
    7.6584    6.2606    2.0039 C   0  0  0  0  0  0  0  0  0  0  0  0
    8.7295    6.5134    1.1535 C   0  0  0  0  0  0  0  0  0  0  0  0
    9.7031    8.1450    1.3298 Br  0  0  0  0  0  0  0  0  0  0  0  0
    9.0845    5.5732    0.1761 C   0  0  0  0  0  0  0  0  0  0  0  0
    8.3694    4.3733    0.0538 C   0  0  0  0  0  0  0  0  0  0  0  0
    8.7388    3.4662   -0.8845 F   0  0  0  0  0  0  0  0  0  0  0  0
    6.6710    2.5952    3.2295 N   0  0  0  0  0  0  0  0  0  0  0  0
    6.2813    2.0712    4.4106 C   0  0  0  0  0  0  0  0  0  0  0  0
    5.2569    1.1980    4.4456 N   0  0  0  0  0  0  0  0  0  0  0  0
    4.6200    0.8302    3.3052 C   0  0  0  0  0  0  0  0  0  0  0  0
    3.5916   -0.0763    3.4025 C   0  0  0  0  0  0  0  0  0  0  0  0
    2.9007   -0.5403    2.2678 C   0  0  0  0  0  0  0  0  0  0  0  0
    1.9445   -1.5139    2.4023 O   0  0  0  0  0  0  0  0  0  0  0  0
    1.8182   -2.2224    3.5959 C   0  0  0  0  0  0  0  0  0  0  0  0
    0.9876   -3.5116    3.4940 C   0  0  0  0  0  0  0  0  0  0  0  0
   -0.5278   -3.2707    3.3795 C   0  0  0  0  0  0  0  0  0  0  0  0
   -1.1138   -2.7093    4.6932 C   0  0  0  0  0  0  0  0  0  0  0  0
   -0.8113   -3.6062    5.8321 N   0  0  0  0  0  0  0  0  0  0  0  0
   -1.3930   -3.0724    7.0738 C   0  0  0  0  0  0  0  0  0  0  0  0
    0.6440   -3.7914    6.0016 C   0  0  0  0  0  0  0  0  0  0  0  0
    1.2454   -4.4049    4.7302 C   0  0  0  0  0  0  0  0  0  0  0  0
    1.0690    2.9698    0.0762 Cl  0  0  0  0  0  0  0  0  0  0  0  0
    2.1069   -0.5698   -2.0941 H   0  0  0  0  0  0  0  0  0  0  0  0
    3.8232   -0.1764   -1.7260 H   0  0  0  0  0  0  0  0  0  0  0  0
    2.5276    1.0702   -1.4888 H   0  0  0  0  0  0  0  0  0  0  0  0
    4.5805    1.3239   -0.0639 H   0  0  0  0  0  0  0  0  0  0  0  0
    6.5452    2.3534   -0.0354 H   0  0  0  0  0  0  0  0  0  0  0  0
    6.1205    4.9044    2.5693 H   0  0  0  0  0  0  0  0  0  0  0  0
    7.3641    6.9822    2.7573 H   0  0  0  0  0  0  0  0  0  0  0  0
    9.9196    5.7713   -0.4810 H   0  0  0  0  0  0  0  0  0  0  0  0
    6.7920    2.3456    5.3225 H   0  0  0  0  0  0  0  0  0  0  0  0
    3.3594   -0.4252    4.3978 H   0  0  0  0  0  0  0  0  0  0  0  0
    1.4507   -1.5545    4.4022 H   0  0  0  0  0  0  0  0  0  0  0  0
    2.8423   -2.5664    3.8649 H   0  0  0  0  0  0  0  0  0  0  0  0
    1.3571   -4.0554    2.5972 H   0  0  0  0  0  0  0  0  0  0  0  0
   -1.0162   -4.2512    3.1847 H   0  0  0  0  0  0  0  0  0  0  0  0
   -0.7561   -2.5970    2.5266 H   0  0  0  0  0  0  0  0  0  0  0  0
   -2.2158   -2.6324    4.5661 H   0  0  0  0  0  0  0  0  0  0  0  0
   -0.7271   -1.6863    4.8876 H   0  0  0  0  0  0  0  0  0  0  0  0
   -2.4897   -2.9398    6.9606 H   0  0  0  0  0  0  0  0  0  0  0  0
   -0.9367   -2.0935    7.3446 H   0  0  0  0  0  0  0  0  0  0  0  0
   -1.2302   -3.7867    7.9102 H   0  0  0  0  0  0  0  0  0  0  0  0
    0.8413   -4.4894    6.8456 H   0  0  0  0  0  0  0  0  0  0  0  0
    1.1404   -2.8261    6.2489 H   0  0  0  0  0  0  0  0  0  0  0  0
    0.7754   -5.3976    4.5662 H   0  0  0  0  0  0  0  0  0  0  0  0
    2.3370   -4.5721    4.8712 H   0  0  0  0  0  0  0  0  0  0  0  0
    1.2446    2.0349    1.0691 H   0  0  0  0  0  0  0  0  0  0  0  0
  1  2  1  0  0  0  0
  1 32  1  0  0  0  0
  1 33  1  0  0  0  0
  1 34  1  0  0  0  0
  2  3  1  0  0  0  0
  3  4  1  0  0  0  0
  3 21  2  0  0  0  0
  4  5  2  0  0  0  0
  4 35  1  0  0  0  0
  5  6  1  0  0  0  0
  5 19  1  0  0  0  0
  6  7  1  0  0  0  0
  6 16  2  0  0  0  0
  7  8  1  0  0  0  0
  7 36  1  0  0  0  0
  8  9  1  0  0  0  0
  8 14  2  0  0  0  0
  9 10  2  0  0  0  0
  9 37  1  0  0  0  0
 10 11  1  0  0  0  0
 10 38  1  0  0  0  0
 11 12  1  0  0  0  0
 11 13  2  0  0  0  0
 13 14  1  0  0  0  0
 13 39  1  0  0  0  0
 14 15  1  0  0  0  0
 16 17  1  0  0  0  0
 17 18  2  0  0  0  0
 17 40  1  0  0  0  0
 18 19  1  0  0  0  0
 19 20  2  0  0  0  0
 20 21  1  0  0  0  0
 20 41  1  0  0  0  0
 21 22  1  0  0  0  0
 22 23  1  0  0  0  0
 23 24  1  0  0  0  0
 23 42  1  0  0  0  0
 23 43  1  0  0  0  0
 24 25  1  0  0  0  0
 24 30  1  0  0  0  0
 24 44  1  0  0  0  0
 25 26  1  0  0  0  0
 25 45  1  0  0  0  0
 25 46  1  0  0  0  0
 26 27  1  0  0  0  0
 26 47  1  0  0  0  0
 26 48  1  0  0  0  0
 27 28  1  0  0  0  0
 27 29  1  0  0  0  0
 28 49  1  0  0  0  0
 28 50  1  0  0  0  0
 28 51  1  0  0  0  0
 29 30  1  0  0  0  0
 29 52  1  0  0  0  0
 29 53  1  0  0  0  0
 30 54  1  0  0  0  0
 30 55  1  0  0  0  0
 31 56  1  0  0  0  0
M  END
$$$$
