CHEMBL1200485
 OpenBabel04072215363D

 67 69  0  0  0  0  0  0  0  0999 V2000
   -4.5754    0.3504   -1.3260 C   0  0  0  0  0  0  0  0  0  0  0  0
   -4.0439    0.5140    0.0057 N   0  0  0  0  0  0  0  0  0  0  0  0
   -2.8730   -0.0893    0.4189 C   0  0  0  0  0  0  0  0  0  0  0  0
   -2.1952   -0.8231   -0.2929 O   0  0  0  0  0  0  0  0  0  0  0  0
   -2.4492    0.2036    1.8307 C   0  0  0  0  0  0  0  0  0  0  0  0
   -1.4208   -0.5468    2.3984 C   0  0  0  0  0  0  0  0  0  0  0  0
   -0.9677   -0.2010    3.6673 C   0  0  0  0  0  0  0  0  0  0  0  0
    0.1190   -0.7346    4.3229 O   0  0  0  0  0  0  0  0  0  0  0  0
    0.5050   -2.0501    4.2103 C   0  0  0  0  0  0  0  0  0  0  0  0
    1.8552   -2.2988    4.4869 C   0  0  0  0  0  0  0  0  0  0  0  0
    2.3764   -3.5949    4.4056 C   0  0  0  0  0  0  0  0  0  0  0  0
    1.5382   -4.6681    4.1037 C   0  0  0  0  0  0  0  0  0  0  0  0
    2.1241   -5.9400    3.9912 N   0  0  0  0  0  0  0  0  0  0  0  0
    1.8110   -7.1087    4.6361 C   0  0  0  0  0  0  0  0  0  0  0  0
    2.5734   -8.0651    4.5047 O   0  0  0  0  0  0  0  0  0  0  0  0
    0.6996   -7.1076    5.4335 N   0  0  0  0  0  0  0  0  0  0  0  0
    0.3064   -8.1929    6.2371 C   0  0  0  0  0  0  0  0  0  0  0  0
   -1.0495   -8.4985    6.2841 C   0  0  0  0  0  0  0  0  0  0  0  0
   -1.4934   -9.5743    7.0500 C   0  0  0  0  0  0  0  0  0  0  0  0
   -0.5954  -10.3257    7.8187 C   0  0  0  0  0  0  0  0  0  0  0  0
   -1.2842  -11.6030    8.7514 Cl  0  0  0  0  0  0  0  0  0  0  0  0
    0.7709  -10.0214    7.8089 C   0  0  0  0  0  0  0  0  0  0  0  0
    1.8114  -10.7596    8.6135 C   0  0  0  0  0  0  0  0  0  0  0  0
    1.3749  -11.8266    9.3337 F   0  0  0  0  0  0  0  0  0  0  0  0
    2.8147  -11.2466    7.8280 F   0  0  0  0  0  0  0  0  0  0  0  0
    2.4247   -9.9430    9.5197 F   0  0  0  0  0  0  0  0  0  0  0  0
    1.2092   -8.9457    6.9973 C   0  0  0  0  0  0  0  0  0  0  0  0
    0.1863   -4.4271    3.8439 C   0  0  0  0  0  0  0  0  0  0  0  0
   -0.3322   -3.1229    3.9111 C   0  0  0  0  0  0  0  0  0  0  0  0
   -1.5537    0.8869    4.3099 C   0  0  0  0  0  0  0  0  0  0  0  0
   -2.5986    1.5524    3.6861 C   0  0  0  0  0  0  0  0  0  0  0  0
   -3.0734    1.2346    2.4617 N   0  0  0  0  0  0  0  0  0  0  0  0
    1.5181   -0.4318    1.0318 C   0  0  0  0  0  0  0  0  0  0  0  0
    2.9708   -0.1283    1.1836 C   0  0  0  0  0  0  0  0  0  0  0  0
    3.4441    1.1674    0.9492 C   0  0  0  0  0  0  0  0  0  0  0  0
    4.8122    1.4416    1.0483 C   0  0  0  0  0  0  0  0  0  0  0  0
    5.6860    0.4094    1.3767 C   0  0  0  0  0  0  0  0  0  0  0  0
    7.4161    0.7288    1.5250 S   0  0  0  0  0  0  0  0  0  0  0  0
    7.8009    0.4273    2.8869 O   0  0  0  0  0  0  0  0  0  0  0  0
    8.0760    0.1319    0.3853 O   0  0  0  0  0  0  0  0  0  0  0  0
    7.5641    2.3320    1.3985 O   0  0  0  0  0  0  0  0  0  0  0  0
    5.2273   -0.8873    1.6213 C   0  0  0  0  0  0  0  0  0  0  0  0
    3.8656   -1.1553    1.5099 C   0  0  0  0  0  0  0  0  0  0  0  0
   -5.6441    0.1340   -1.2507 H   0  0  0  0  0  0  0  0  0  0  0  0
   -4.0765   -0.4622   -1.8611 H   0  0  0  0  0  0  0  0  0  0  0  0
   -4.4361    1.2850   -1.8758 H   0  0  0  0  0  0  0  0  0  0  0  0
   -4.4912    1.1508    0.6591 H   0  0  0  0  0  0  0  0  0  0  0  0
   -0.9714   -1.3436    1.8188 H   0  0  0  0  0  0  0  0  0  0  0  0
    2.5171   -1.4787    4.7610 H   0  0  0  0  0  0  0  0  0  0  0  0
    3.4286   -3.7594    4.6254 H   0  0  0  0  0  0  0  0  0  0  0  0
    3.0915   -5.9758    3.6890 H   0  0  0  0  0  0  0  0  0  0  0  0
   -0.0276   -6.4717    5.1558 H   0  0  0  0  0  0  0  0  0  0  0  0
   -1.7660   -7.9445    5.6840 H   0  0  0  0  0  0  0  0  0  0  0  0
   -2.5510   -9.8288    7.0362 H   0  0  0  0  0  0  0  0  0  0  0  0
    2.2689   -8.6851    6.9928 H   0  0  0  0  0  0  0  0  0  0  0  0
   -0.4731   -5.2283    3.5214 H   0  0  0  0  0  0  0  0  0  0  0  0
   -1.3884   -2.9704    3.7143 H   0  0  0  0  0  0  0  0  0  0  0  0
   -1.1877    1.2186    5.2764 H   0  0  0  0  0  0  0  0  0  0  0  0
   -3.0797    2.3983    4.1704 H   0  0  0  0  0  0  0  0  0  0  0  0
    0.9136    0.4599    1.2258 H   0  0  0  0  0  0  0  0  0  0  0  0
    1.2396   -1.1979    1.7541 H   0  0  0  0  0  0  0  0  0  0  0  0
    1.2946   -0.8071    0.0306 H   0  0  0  0  0  0  0  0  0  0  0  0
    2.7493    1.9655    0.6901 H   0  0  0  0  0  0  0  0  0  0  0  0
    5.1587    2.4463    0.8404 H   0  0  0  0  0  0  0  0  0  0  0  0
    7.8377    2.6669    2.2779 H   0  0  0  0  0  0  0  0  0  0  0  0
    5.9172   -1.6846    1.8824 H   0  0  0  0  0  0  0  0  0  0  0  0
    3.5003   -2.1661    1.6792 H   0  0  0  0  0  0  0  0  0  0  0  0
  1  2  1  0  0  0  0
  1 44  1  0  0  0  0
  1 45  1  0  0  0  0
  1 46  1  0  0  0  0
  2  3  1  0  0  0  0
  2 47  1  0  0  0  0
  3  4  2  0  0  0  0
  3  5  1  0  0  0  0
  5  6  1  0  0  0  0
  5 32  2  0  0  0  0
  6  7  2  0  0  0  0
  6 48  1  0  0  0  0
  7  8  1  0  0  0  0
  7 30  1  0  0  0  0
  8  9  1  0  0  0  0
  9 10  1  0  0  0  0
  9 29  2  0  0  0  0
 10 11  2  0  0  0  0
 10 49  1  0  0  0  0
 11 12  1  0  0  0  0
 11 50  1  0  0  0  0
 12 13  1  0  0  0  0
 12 28  2  0  0  0  0
 13 14  1  0  0  0  0
 13 51  1  0  0  0  0
 14 15  2  0  0  0  0
 14 16  1  0  0  0  0
 16 17  1  0  0  0  0
 16 52  1  0  0  0  0
 17 18  1  0  0  0  0
 17 27  2  0  0  0  0
 18 19  2  0  0  0  0
 18 53  1  0  0  0  0
 19 20  1  0  0  0  0
 19 54  1  0  0  0  0
 20 21  1  0  0  0  0
 20 22  2  0  0  0  0
 22 23  1  0  0  0  0
 22 27  1  0  0  0  0
 23 24  1  0  0  0  0
 23 25  1  0  0  0  0
 23 26  1  0  0  0  0
 27 55  1  0  0  0  0
 28 29  1  0  0  0  0
 28 56  1  0  0  0  0
 29 57  1  0  0  0  0
 30 31  2  0  0  0  0
 30 58  1  0  0  0  0
 31 32  1  0  0  0  0
 31 59  1  0  0  0  0
 33 34  1  0  0  0  0
 33 60  1  0  0  0  0
 33 61  1  0  0  0  0
 33 62  1  0  0  0  0
 34 35  1  0  0  0  0
 34 43  2  0  0  0  0
 35 36  2  0  0  0  0
 35 63  1  0  0  0  0
 36 37  1  0  0  0  0
 36 64  1  0  0  0  0
 37 38  1  0  0  0  0
 37 42  2  0  0  0  0
 38 39  2  0  0  0  0
 38 40  2  0  0  0  0
 38 41  1  0  0  0  0
 41 65  1  0  0  0  0
 42 43  1  0  0  0  0
 42 66  1  0  0  0  0
 43 67  1  0  0  0  0
M  END
$$$$
