CHEMBL4746488
 OpenBabel04072215383D

 44 47  0  0  0  0  0  0  0  0999 V2000
    1.5700    1.2250    0.3675 C   0  0  0  0  0  0  0  0  0  0  0  0
    2.9006    0.9518   -0.0556 O   0  0  0  0  0  0  0  0  0  0  0  0
    3.0781    0.6534   -1.3866 C   0  0  0  0  0  0  0  0  0  0  0  0
    2.1849    1.0467   -2.3893 C   0  0  0  0  0  0  0  0  0  0  0  0
    2.4359    0.7232   -3.7208 C   0  0  0  0  0  0  0  0  0  0  0  0
    3.5921    0.0268   -4.0638 C   0  0  0  0  0  0  0  0  0  0  0  0
    4.5211   -0.3498   -3.0836 C   0  0  0  0  0  0  0  0  0  0  0  0
    5.6988   -1.0332   -3.4426 C   0  0  0  0  0  0  0  0  0  0  0  0
    6.6269   -1.4735   -2.4862 C   0  0  0  0  0  0  0  0  0  0  0  0
    7.7498   -2.2435   -2.8315 N   0  0  0  0  0  0  0  0  0  0  0  0
    8.4734   -1.9194   -4.0606 C   0  0  0  0  0  0  0  0  0  0  0  0
    8.1349   -3.5104   -2.3114 C   0  0  0  0  0  0  0  0  0  0  0  0
    9.4658   -3.7503   -2.2347 N   0  0  0  0  0  0  0  0  0  0  0  0
    9.8651   -4.9344   -1.7541 C   0  0  0  0  0  0  0  0  0  0  0  0
   11.3363   -5.1995   -1.6621 C   0  0  0  0  0  0  0  0  0  0  0  0
    9.0439   -5.9221   -1.3774 N   0  0  0  0  0  0  0  0  0  0  0  0
    7.7312   -5.7062   -1.4859 C   0  0  0  0  0  0  0  0  0  0  0  0
    6.8798   -6.7477   -1.1356 C   0  0  0  0  0  0  0  0  0  0  0  0
    5.4914   -6.6399   -1.2288 C   0  0  0  0  0  0  0  0  0  0  0  0
    4.9304   -5.4636   -1.6979 C   0  0  0  0  0  0  0  0  0  0  0  0
    5.7711   -4.4179   -2.0691 C   0  0  0  0  0  0  0  0  0  0  0  0
    7.1868   -4.5002   -1.9514 C   0  0  0  0  0  0  0  0  0  0  0  0
    6.3522   -1.1926   -1.1415 C   0  0  0  0  0  0  0  0  0  0  0  0
    5.1999   -0.4901   -0.7685 C   0  0  0  0  0  0  0  0  0  0  0  0
    4.2626   -0.0517   -1.7256 C   0  0  0  0  0  0  0  0  0  0  0  0
    1.5827    1.3350    1.4562 H   0  0  0  0  0  0  0  0  0  0  0  0
    0.9010    0.3936    0.1215 H   0  0  0  0  0  0  0  0  0  0  0  0
    1.2012    2.1673   -0.0495 H   0  0  0  0  0  0  0  0  0  0  0  0
    1.2918    1.6204   -2.1675 H   0  0  0  0  0  0  0  0  0  0  0  0
    1.7349    1.0248   -4.4949 H   0  0  0  0  0  0  0  0  0  0  0  0
    3.7653   -0.2167   -5.1100 H   0  0  0  0  0  0  0  0  0  0  0  0
    5.8590   -1.2839   -4.4888 H   0  0  0  0  0  0  0  0  0  0  0  0
    8.1545   -0.9700   -4.5054 H   0  0  0  0  0  0  0  0  0  0  0  0
    8.3236   -2.7036   -4.8128 H   0  0  0  0  0  0  0  0  0  0  0  0
    9.5486   -1.8139   -3.8737 H   0  0  0  0  0  0  0  0  0  0  0  0
   11.9154   -4.2916   -1.8539 H   0  0  0  0  0  0  0  0  0  0  0  0
   11.6224   -5.9573   -2.3976 H   0  0  0  0  0  0  0  0  0  0  0  0
   11.5908   -5.5658   -0.6620 H   0  0  0  0  0  0  0  0  0  0  0  0
    7.3128   -7.6837   -0.7915 H   0  0  0  0  0  0  0  0  0  0  0  0
    4.8564   -7.4726   -0.9459 H   0  0  0  0  0  0  0  0  0  0  0  0
    3.8560   -5.3555   -1.7843 H   0  0  0  0  0  0  0  0  0  0  0  0
    5.2869   -3.5339   -2.4698 H   0  0  0  0  0  0  0  0  0  0  0  0
    7.0418   -1.5210   -0.3666 H   0  0  0  0  0  0  0  0  0  0  0  0
    5.0291   -0.2964    0.2890 H   0  0  0  0  0  0  0  0  0  0  0  0
  1  2  1  0  0  0  0
  1 26  1  0  0  0  0
  1 27  1  0  0  0  0
  1 28  1  0  0  0  0
  2  3  1  0  0  0  0
  3  4  1  0  0  0  0
  3 25  2  0  0  0  0
  4  5  2  0  0  0  0
  4 29  1  0  0  0  0
  5  6  1  0  0  0  0
  5 30  1  0  0  0  0
  6  7  2  0  0  0  0
  6 31  1  0  0  0  0
  7  8  1  0  0  0  0
  7 25  1  0  0  0  0
  8  9  2  0  0  0  0
  8 32  1  0  0  0  0
  9 10  1  0  0  0  0
  9 23  1  0  0  0  0
 10 11  1  0  0  0  0
 10 12  1  0  0  0  0
 11 33  1  0  0  0  0
 11 34  1  0  0  0  0
 11 35  1  0  0  0  0
 12 13  1  0  0  0  0
 12 22  2  0  0  0  0
 13 14  2  0  0  0  0
 14 15  1  0  0  0  0
 14 16  1  0  0  0  0
 15 36  1  0  0  0  0
 15 37  1  0  0  0  0
 15 38  1  0  0  0  0
 16 17  2  0  0  0  0
 17 18  1  0  0  0  0
 17 22  1  0  0  0  0
 18 19  2  0  0  0  0
 18 39  1  0  0  0  0
 19 20  1  0  0  0  0
 19 40  1  0  0  0  0
 20 21  2  0  0  0  0
 20 41  1  0  0  0  0
 21 22  1  0  0  0  0
 21 42  1  0  0  0  0
 23 24  2  0  0  0  0
 23 43  1  0  0  0  0
 24 25  1  0  0  0  0
 24 44  1  0  0  0  0
M  END
$$$$
