CHEMBL4528373
 OpenBabel04072215383D

 63 67  0  0  0  0  0  0  0  0999 V2000
    0.7647    3.4755   -2.7627 C   0  0  0  0  0  0  0  0  0  0  0  0
    2.1744    3.4855   -2.9184 O   0  0  0  0  0  0  0  0  0  0  0  0
    2.7732    2.2515   -2.5067 C   0  0  0  0  0  0  0  0  0  0  0  0
    4.2729    2.3894   -2.7144 C   0  0  0  0  0  0  0  0  0  0  0  0
    4.9967    1.2117   -2.3331 O   0  0  0  0  0  0  0  0  0  0  0  0
    6.3569    1.2783   -2.5579 C   0  0  0  0  0  0  0  0  0  0  0  0
    6.9890    2.4318   -3.0352 C   0  0  0  0  0  0  0  0  0  0  0  0
    8.3394    2.4967   -3.2979 C   0  0  0  0  0  0  0  0  0  0  0  0
    8.7955    3.6631   -3.7603 N   0  0  0  0  0  0  0  0  0  0  0  0
   10.0911    3.7223   -4.0745 C   0  0  0  0  0  0  0  0  0  0  0  0
   10.9529    2.7190   -3.9677 N   0  0  0  0  0  0  0  0  0  0  0  0
   10.4727    1.5693   -3.4408 C   0  0  0  0  0  0  0  0  0  0  0  0
   11.3523    0.5016   -3.3029 O   0  0  0  0  0  0  0  0  0  0  0  0
   12.6651    0.7714   -2.9955 C   0  0  0  0  0  0  0  0  0  0  0  0
   13.0720    1.8753   -2.2574 C   0  0  0  0  0  0  0  0  0  0  0  0
   14.4242    2.1026   -2.0286 C   0  0  0  0  0  0  0  0  0  0  0  0
   15.4021    1.2062   -2.4712 C   0  0  0  0  0  0  0  0  0  0  0  0
   16.7870    1.4167   -2.2551 N   0  0  0  0  0  0  0  0  0  0  0  0
   17.3188    2.4738   -1.5456 C   0  0  0  0  0  0  0  0  0  0  0  0
   16.6671    3.3526   -0.9897 O   0  0  0  0  0  0  0  0  0  0  0  0
   18.7097    2.4781   -1.5240 N   0  0  0  0  0  0  0  0  0  0  0  0
   19.3182    3.5393   -0.7963 C   0  0  0  0  0  0  0  0  0  0  0  0
   18.9439    3.7880    0.5319 C   0  0  0  0  0  0  0  0  0  0  0  0
   19.3396    4.9645    1.1828 C   0  0  0  0  0  0  0  0  0  0  0  0
   18.8778    5.2539    2.5909 C   0  0  0  0  0  0  0  0  0  0  0  0
   18.1228    4.2610    3.1384 F   0  0  0  0  0  0  0  0  0  0  0  0
   19.9244    5.4335    3.4451 F   0  0  0  0  0  0  0  0  0  0  0  0
   18.1283    6.3870    2.6777 F   0  0  0  0  0  0  0  0  0  0  0  0
   20.1401    5.8833    0.4843 C   0  0  0  0  0  0  0  0  0  0  0  0
   20.5670    5.6076   -0.8200 C   0  0  0  0  0  0  0  0  0  0  0  0
   20.1706    4.4284   -1.4456 C   0  0  0  0  0  0  0  0  0  0  0  0
   20.5313    4.2021   -2.7177 F   0  0  0  0  0  0  0  0  0  0  0  0
   14.9851    0.0588   -3.1545 C   0  0  0  0  0  0  0  0  0  0  0  0
   13.6213   -0.1569   -3.4129 C   0  0  0  0  0  0  0  0  0  0  0  0
    9.1291    1.3690   -3.0842 C   0  0  0  0  0  0  0  0  0  0  0  0
    8.5237    0.1895   -2.5622 C   0  0  0  0  0  0  0  0  0  0  0  0
    7.1432    0.1512   -2.2877 C   0  0  0  0  0  0  0  0  0  0  0  0
    6.5291   -0.9677   -1.7744 O   0  0  0  0  0  0  0  0  0  0  0  0
    7.4677   -1.8870   -1.2027 C   0  0  0  0  0  0  0  0  0  0  0  0
    8.6368   -2.1055   -2.1408 C   0  0  0  0  0  0  0  0  0  0  0  0
    9.3508   -0.8851   -2.3250 O   0  0  0  0  0  0  0  0  0  0  0  0
    0.3772    4.4461   -3.0859 H   0  0  0  0  0  0  0  0  0  0  0  0
    0.4991    3.3251   -1.7129 H   0  0  0  0  0  0  0  0  0  0  0  0
    0.3193    2.6958   -3.3865 H   0  0  0  0  0  0  0  0  0  0  0  0
    2.3799    1.4230   -3.1052 H   0  0  0  0  0  0  0  0  0  0  0  0
    2.5527    2.0588   -1.4516 H   0  0  0  0  0  0  0  0  0  0  0  0
    4.6110    3.2454   -2.1153 H   0  0  0  0  0  0  0  0  0  0  0  0
    4.4416    2.6101   -3.7774 H   0  0  0  0  0  0  0  0  0  0  0  0
    6.4350    3.3534   -3.2364 H   0  0  0  0  0  0  0  0  0  0  0  0
   10.4654    4.6726   -4.4380 H   0  0  0  0  0  0  0  0  0  0  0  0
   12.3616    2.6002   -1.8714 H   0  0  0  0  0  0  0  0  0  0  0  0
   14.6585    3.0166   -1.4977 H   0  0  0  0  0  0  0  0  0  0  0  0
   17.4226    0.6949   -2.5621 H   0  0  0  0  0  0  0  0  0  0  0  0
   19.1244    2.2909   -2.4293 H   0  0  0  0  0  0  0  0  0  0  0  0
   18.2804    3.0888    1.0416 H   0  0  0  0  0  0  0  0  0  0  0  0
   20.4195    6.8264    0.9527 H   0  0  0  0  0  0  0  0  0  0  0  0
   21.1710    6.3265   -1.3652 H   0  0  0  0  0  0  0  0  0  0  0  0
   15.7029   -0.6772   -3.5053 H   0  0  0  0  0  0  0  0  0  0  0  0
   13.3042   -1.0466   -3.9502 H   0  0  0  0  0  0  0  0  0  0  0  0
    6.9499   -2.8349   -1.0240 H   0  0  0  0  0  0  0  0  0  0  0  0
    7.8007   -1.4929   -0.2343 H   0  0  0  0  0  0  0  0  0  0  0  0
    8.3142   -2.4723   -3.1219 H   0  0  0  0  0  0  0  0  0  0  0  0
    9.3368   -2.8339   -1.7180 H   0  0  0  0  0  0  0  0  0  0  0  0
  1  2  1  0  0  0  0
  1 42  1  0  0  0  0
  1 43  1  0  0  0  0
  1 44  1  0  0  0  0
  2  3  1  0  0  0  0
  3  4  1  0  0  0  0
  3 45  1  0  0  0  0
  3 46  1  0  0  0  0
  4  5  1  0  0  0  0
  4 47  1  0  0  0  0
  4 48  1  0  0  0  0
  5  6  1  0  0  0  0
  6  7  1  0  0  0  0
  6 37  2  0  0  0  0
  7  8  2  0  0  0  0
  7 49  1  0  0  0  0
  8  9  1  0  0  0  0
  8 35  1  0  0  0  0
  9 10  2  0  0  0  0
 10 11  1  0  0  0  0
 10 50  1  0  0  0  0
 11 12  2  0  0  0  0
 12 13  1  0  0  0  0
 12 35  1  0  0  0  0
 13 14  1  0  0  0  0
 14 15  1  0  0  0  0
 14 34  2  0  0  0  0
 15 16  2  0  0  0  0
 15 51  1  0  0  0  0
 16 17  1  0  0  0  0
 16 52  1  0  0  0  0
 17 18  1  0  0  0  0
 17 33  2  0  0  0  0
 18 19  1  0  0  0  0
 18 53  1  0  0  0  0
 19 20  2  0  0  0  0
 19 21  1  0  0  0  0
 21 22  1  0  0  0  0
 21 54  1  0  0  0  0
 22 23  1  0  0  0  0
 22 31  2  0  0  0  0
 23 24  2  0  0  0  0
 23 55  1  0  0  0  0
 24 25  1  0  0  0  0
 24 29  1  0  0  0  0
 25 26  1  0  0  0  0
 25 27  1  0  0  0  0
 25 28  1  0  0  0  0
 29 30  2  0  0  0  0
 29 56  1  0  0  0  0
 30 31  1  0  0  0  0
 30 57  1  0  0  0  0
 31 32  1  0  0  0  0
 33 34  1  0  0  0  0
 33 58  1  0  0  0  0
 34 59  1  0  0  0  0
 35 36  2  0  0  0  0
 36 37  1  0  0  0  0
 36 41  1  0  0  0  0
 37 38  1  0  0  0  0
 38 39  1  0  0  0  0
 39 40  1  0  0  0  0
 39 60  1  0  0  0  0
 39 61  1  0  0  0  0
 40 41  1  0  0  0  0
 40 62  1  0  0  0  0
 40 63  1  0  0  0  0
M  END
$$$$
