CHEMBL3917908
 OpenBabel04072215373D

 80 83  0  0  0  0  0  0  0  0999 V2000
    0.6178   -1.7223   -3.8293 C   0  0  0  0  0  0  0  0  0  0  0  0
    1.8664   -2.2855   -3.5818 O   0  0  0  0  0  0  0  0  0  0  0  0
    2.8297   -1.7604   -2.7670 C   0  0  0  0  0  0  0  0  0  0  0  0
    2.6074   -0.5487   -2.0804 C   0  0  0  0  0  0  0  0  0  0  0  0
    3.5695   -0.0427   -1.2029 C   0  0  0  0  0  0  0  0  0  0  0  0
    3.4041    1.1193   -0.5146 O   0  0  0  0  0  0  0  0  0  0  0  0
    2.3182    1.9672   -0.5857 C   0  0  0  0  0  0  0  0  0  0  0  0
    4.7476   -0.7546   -1.0032 C   0  0  0  0  0  0  0  0  0  0  0  0
    5.0448   -1.9655   -1.6772 C   0  0  0  0  0  0  0  0  0  0  0  0
    6.2378   -2.7092   -1.2997 N   0  0  0  0  0  0  0  0  0  0  0  0
    6.6104   -2.6629    0.1574 C   0  0  0  0  0  0  0  0  0  0  0  0
    5.5303   -3.2689    1.1073 C   0  0  0  0  0  0  0  0  0  0  0  0
    5.9884   -3.3021    2.5237 N   0  0  0  0  0  0  0  0  0  0  0  0
    4.9179   -3.6769    3.4867 C   0  0  0  0  0  0  0  0  0  0  0  0
    4.4074   -5.1102    3.2617 C   0  0  0  0  0  0  0  0  0  0  0  0
    5.4168   -3.5770    4.9462 C   0  0  0  0  0  0  0  0  0  0  0  0
    7.1647   -3.4819   -2.1531 C   0  0  0  0  0  0  0  0  0  0  0  0
    7.6302   -4.6623   -1.5629 C   0  0  0  0  0  0  0  0  0  0  0  0
    8.7152   -5.3399   -2.0216 C   0  0  0  0  0  0  0  0  0  0  0  0
    9.3830   -4.9297   -3.1380 C   0  0  0  0  0  0  0  0  0  0  0  0
   10.5104   -5.5942   -3.4227 N   0  0  0  0  0  0  0  0  0  0  0  0
   11.2077   -5.3727   -4.5310 C   0  0  0  0  0  0  0  0  0  0  0  0
   10.7063   -4.4913   -5.4927 C   0  0  0  0  0  0  0  0  0  0  0  0
   11.3415   -4.7502   -6.8613 C   0  0  0  0  0  0  0  0  0  0  0  0
   11.4429   -4.0322   -8.0452 C   0  0  0  0  0  0  0  0  0  0  0  0
   11.9017   -4.8597   -9.0278 N   0  0  0  0  0  0  0  0  0  0  0  0
   12.1135   -6.0712   -8.5223 N   0  0  0  0  0  0  0  0  0  0  0  0
   12.3709   -7.2987   -9.3448 C   0  0  0  0  0  0  0  0  0  0  0  0
   12.6151   -8.6217   -8.5637 C   0  0  0  0  0  0  0  0  0  0  0  0
   13.9884   -8.6367   -7.8698 C   0  0  0  0  0  0  0  0  0  0  0  0
   15.0914   -8.3590   -8.8195 N   0  0  0  0  0  0  0  0  0  0  0  0
   16.3522   -8.2227   -8.0677 C   0  0  0  0  0  0  0  0  0  0  0  0
   14.8712   -7.1261   -9.6082 C   0  0  0  0  0  0  0  0  0  0  0  0
   13.5273   -7.1518  -10.3360 C   0  0  0  0  0  0  0  0  0  0  0  0
   11.8210   -6.0287   -7.2134 C   0  0  0  0  0  0  0  0  0  0  0  0
    9.6178   -3.6762   -5.1705 N   0  0  0  0  0  0  0  0  0  0  0  0
    8.9246   -3.8739   -3.9511 C   0  0  0  0  0  0  0  0  0  0  0  0
    7.7797   -3.0961   -3.4352 C   0  0  0  0  0  0  0  0  0  0  0  0
    4.0589   -2.4591   -2.5770 C   0  0  0  0  0  0  0  0  0  0  0  0
    1.3445   -2.8357    0.4991 Cl  0  0  0  0  0  0  0  0  0  0  0  0
    0.0286   -2.3821   -4.4983 H   0  0  0  0  0  0  0  0  0  0  0  0
    0.7274   -0.7316   -4.3198 H   0  0  0  0  0  0  0  0  0  0  0  0
    0.0382   -1.5991   -2.8858 H   0  0  0  0  0  0  0  0  0  0  0  0
    1.6808   -0.0064   -2.2105 H   0  0  0  0  0  0  0  0  0  0  0  0
    2.5079    2.8507    0.0592 H   0  0  0  0  0  0  0  0  0  0  0  0
    1.4009    1.4557   -0.2248 H   0  0  0  0  0  0  0  0  0  0  0  0
    2.1771    2.3206   -1.6289 H   0  0  0  0  0  0  0  0  0  0  0  0
    5.4362   -0.3276   -0.2959 H   0  0  0  0  0  0  0  0  0  0  0  0
    6.8543   -1.6340    0.4706 H   0  0  0  0  0  0  0  0  0  0  0  0
    7.5613   -3.1920    0.3658 H   0  0  0  0  0  0  0  0  0  0  0  0
    5.3268   -4.3067    0.7717 H   0  0  0  0  0  0  0  0  0  0  0  0
    4.5967   -2.6741    1.0290 H   0  0  0  0  0  0  0  0  0  0  0  0
    6.3165   -2.3415    2.7805 H   0  0  0  0  0  0  0  0  0  0  0  0
    4.0628   -2.9729    3.3858 H   0  0  0  0  0  0  0  0  0  0  0  0
    5.2351   -5.8418    3.3744 H   0  0  0  0  0  0  0  0  0  0  0  0
    3.9507   -5.2212    2.2596 H   0  0  0  0  0  0  0  0  0  0  0  0
    3.6165   -5.3530    4.0049 H   0  0  0  0  0  0  0  0  0  0  0  0
    6.2549   -4.2820    5.1380 H   0  0  0  0  0  0  0  0  0  0  0  0
    4.5907   -3.8324    5.6483 H   0  0  0  0  0  0  0  0  0  0  0  0
    5.7504   -2.5468    5.1903 H   0  0  0  0  0  0  0  0  0  0  0  0
    7.1819   -5.0472   -0.6564 H   0  0  0  0  0  0  0  0  0  0  0  0
    9.0725   -6.1951   -1.4687 H   0  0  0  0  0  0  0  0  0  0  0  0
   12.0897   -5.9712   -4.6802 H   0  0  0  0  0  0  0  0  0  0  0  0
   11.1658   -3.0017   -8.2144 H   0  0  0  0  0  0  0  0  0  0  0  0
   11.4496   -7.4446   -9.9490 H   0  0  0  0  0  0  0  0  0  0  0  0
   12.6099   -9.4589   -9.3018 H   0  0  0  0  0  0  0  0  0  0  0  0
   11.8017   -8.8397   -7.8405 H   0  0  0  0  0  0  0  0  0  0  0  0
   14.1391   -9.6639   -7.4419 H   0  0  0  0  0  0  0  0  0  0  0  0
   13.9910   -7.9130   -7.0355 H   0  0  0  0  0  0  0  0  0  0  0  0
   16.5790   -9.1531   -7.5051 H   0  0  0  0  0  0  0  0  0  0  0  0
   16.2874   -7.3767   -7.3447 H   0  0  0  0  0  0  0  0  0  0  0  0
   17.2005   -8.0221   -8.7572 H   0  0  0  0  0  0  0  0  0  0  0  0
   15.6657   -7.0510  -10.3849 H   0  0  0  0  0  0  0  0  0  0  0  0
   14.9134   -6.2256   -8.9609 H   0  0  0  0  0  0  0  0  0  0  0  0
   13.5242   -8.0338  -11.0224 H   0  0  0  0  0  0  0  0  0  0  0  0
   13.3922   -6.2478  -10.9594 H   0  0  0  0  0  0  0  0  0  0  0  0
   11.8381   -6.9002   -6.5764 H   0  0  0  0  0  0  0  0  0  0  0  0
    7.4406   -2.2059   -3.9558 H   0  0  0  0  0  0  0  0  0  0  0  0
    4.2039   -3.4073   -3.0774 H   0  0  0  0  0  0  0  0  0  0  0  0
    0.8658   -2.2250   -0.6346 H   0  0  0  0  0  0  0  0  0  0  0  0
  1  2  1  0  0  0  0
  1 41  1  0  0  0  0
  1 42  1  0  0  0  0
  1 43  1  0  0  0  0
  2  3  1  0  0  0  0
  3  4  1  0  0  0  0
  3 39  2  0  0  0  0
  4  5  2  0  0  0  0
  4 44  1  0  0  0  0
  5  6  1  0  0  0  0
  5  8  1  0  0  0  0
  6  7  1  0  0  0  0
  7 45  1  0  0  0  0
  7 46  1  0  0  0  0
  7 47  1  0  0  0  0
  8  9  2  0  0  0  0
  8 48  1  0  0  0  0
  9 10  1  0  0  0  0
  9 39  1  0  0  0  0
 10 11  1  0  0  0  0
 10 17  1  0  0  0  0
 11 12  1  0  0  0  0
 11 49  1  0  0  0  0
 11 50  1  0  0  0  0
 12 13  1  0  0  0  0
 12 51  1  0  0  0  0
 12 52  1  0  0  0  0
 13 14  1  0  0  0  0
 13 53  1  0  0  0  0
 14 15  1  0  0  0  0
 14 16  1  0  0  0  0
 14 54  1  0  0  0  0
 15 55  1  0  0  0  0
 15 56  1  0  0  0  0
 15 57  1  0  0  0  0
 16 58  1  0  0  0  0
 16 59  1  0  0  0  0
 16 60  1  0  0  0  0
 17 18  1  0  0  0  0
 17 38  2  0  0  0  0
 18 19  2  0  0  0  0
 18 61  1  0  0  0  0
 19 20  1  0  0  0  0
 19 62  1  0  0  0  0
 20 21  1  0  0  0  0
 20 37  2  0  0  0  0
 21 22  2  0  0  0  0
 22 23  1  0  0  0  0
 22 63  1  0  0  0  0
 23 24  1  0  0  0  0
 23 36  2  0  0  0  0
 24 25  1  0  0  0  0
 24 35  2  0  0  0  0
 25 26  2  0  0  0  0
 25 64  1  0  0  0  0
 26 27  1  0  0  0  0
 27 28  1  0  0  0  0
 27 35  1  0  0  0  0
 28 29  1  0  0  0  0
 28 34  1  0  0  0  0
 28 65  1  0  0  0  0
 29 30  1  0  0  0  0
 29 66  1  0  0  0  0
 29 67  1  0  0  0  0
 30 31  1  0  0  0  0
 30 68  1  0  0  0  0
 30 69  1  0  0  0  0
 31 32  1  0  0  0  0
 31 33  1  0  0  0  0
 32 70  1  0  0  0  0
 32 71  1  0  0  0  0
 32 72  1  0  0  0  0
 33 34  1  0  0  0  0
 33 73  1  0  0  0  0
 33 74  1  0  0  0  0
 34 75  1  0  0  0  0
 34 76  1  0  0  0  0
 35 77  1  0  0  0  0
 36 37  1  0  0  0  0
 37 38  1  0  0  0  0
 38 78  1  0  0  0  0
 39 79  1  0  0  0  0
 40 80  1  0  0  0  0
M  END
$$$$
