CHEMBL426078
 OpenBabel04072215383D

 33 35  0  0  0  0  0  0  0  0999 V2000
    2.5777    0.6625    0.0004 C   0  0  0  0  0  0  0  0  0  0  0  0
    1.1418    0.2978    0.0005 C   0  0  0  0  0  0  0  0  0  0  0  0
    0.0055    1.0754    0.0036 C   0  0  0  0  0  0  0  0  0  0  0  0
   -1.1175    0.2042    0.0052 C   0  0  0  0  0  0  0  0  0  0  0  0
   -2.5478    0.6184    0.0089 C   0  0  0  0  0  0  0  0  0  0  0  0
   -0.6289   -1.0969    0.0045 C   0  0  0  0  0  0  0  0  0  0  0  0
   -1.3242   -2.3338    0.0114 C   0  0  0  0  0  0  0  0  0  0  0  0
   -0.8511   -3.5887    0.0087 C   0  0  0  0  0  0  0  0  0  0  0  0
    0.5530   -4.1391   -0.0064 C   0  0  0  0  0  0  0  0  0  0  0  0
    1.6037   -3.5253   -0.0168 O   0  0  0  0  0  0  0  0  0  0  0  0
    0.4068   -5.5190   -0.0057 N   0  0  0  0  0  0  0  0  0  0  0  0
   -0.9339   -5.8889    0.0099 C   0  0  0  0  0  0  0  0  0  0  0  0
   -1.4493   -7.1694    0.0161 C   0  0  0  0  0  0  0  0  0  0  0  0
   -2.8421   -7.3057    0.0343 C   0  0  0  0  0  0  0  0  0  0  0  0
   -3.6623   -6.1678    0.0466 C   0  0  0  0  0  0  0  0  0  0  0  0
   -5.0224   -6.2726    0.0658 O   0  0  0  0  0  0  0  0  0  0  0  0
   -3.1282   -4.8820    0.0399 C   0  0  0  0  0  0  0  0  0  0  0  0
   -1.7502   -4.7549    0.0204 C   0  0  0  0  0  0  0  0  0  0  0  0
    0.7417   -1.0159   -0.0024 N   0  0  0  0  0  0  0  0  0  0  0  0
    2.7074    1.7492    0.0002 H   0  0  0  0  0  0  0  0  0  0  0  0
    3.0755    0.2599   -0.8875 H   0  0  0  0  0  0  0  0  0  0  0  0
    3.0749    0.2605    0.8889 H   0  0  0  0  0  0  0  0  0  0  0  0
   -0.0176    2.1578    0.0058 H   0  0  0  0  0  0  0  0  0  0  0  0
   -2.6487    1.7079    0.0223 H   0  0  0  0  0  0  0  0  0  0  0  0
   -3.0595    0.2201    0.8914 H   0  0  0  0  0  0  0  0  0  0  0  0
   -3.0569    0.2417   -0.8846 H   0  0  0  0  0  0  0  0  0  0  0  0
   -2.4059   -2.2128    0.0217 H   0  0  0  0  0  0  0  0  0  0  0  0
    1.1931   -6.1495   -0.0141 H   0  0  0  0  0  0  0  0  0  0  0  0
   -0.8063   -8.0419    0.0073 H   0  0  0  0  0  0  0  0  0  0  0  0
   -3.2767   -8.3011    0.0392 H   0  0  0  0  0  0  0  0  0  0  0  0
   -5.2677   -7.2121    0.0698 H   0  0  0  0  0  0  0  0  0  0  0  0
   -3.7873   -4.0215    0.0505 H   0  0  0  0  0  0  0  0  0  0  0  0
    1.3776   -1.8082   -0.0067 H   0  0  0  0  0  0  0  0  0  0  0  0
  1  2  1  0  0  0  0
  1 20  1  0  0  0  0
  1 21  1  0  0  0  0
  1 22  1  0  0  0  0
  2  3  2  0  0  0  0
  2 19  1  0  0  0  0
  3  4  1  0  0  0  0
  3 23  1  0  0  0  0
  4  5  1  0  0  0  0
  4  6  2  0  0  0  0
  5 24  1  0  0  0  0
  5 25  1  0  0  0  0
  5 26  1  0  0  0  0
  6  7  1  0  0  0  0
  6 19  1  0  0  0  0
  7  8  2  0  0  0  0
  7 27  1  0  0  0  0
  8  9  1  0  0  0  0
  8 18  1  0  0  0  0
  9 10  2  0  0  0  0
  9 11  1  0  0  0  0
 11 12  1  0  0  0  0
 11 28  1  0  0  0  0
 12 13  1  0  0  0  0
 12 18  2  0  0  0  0
 13 14  2  0  0  0  0
 13 29  1  0  0  0  0
 14 15  1  0  0  0  0
 14 30  1  0  0  0  0
 15 16  1  0  0  0  0
 15 17  2  0  0  0  0
 16 31  1  0  0  0  0
 17 18  1  0  0  0  0
 17 32  1  0  0  0  0
 19 33  1  0  0  0  0
M  END
$$$$
