CHEMBL1982874
 OpenBabel04072215363D

 47 52  0  0  0  0  0  0  0  0999 V2000
    1.2406   -0.3904    0.3672 N   0  0  0  0  0  0  0  0  0  0  0  0
    2.5831   -0.3911    0.3661 C   0  0  0  0  0  0  0  0  0  0  0  0
    3.3265   -1.4459    0.5715 N   0  0  0  0  0  0  0  0  0  0  0  0
    4.6027   -1.0566    0.2741 C   0  0  0  0  0  0  0  0  0  0  0  0
    5.7732   -1.8285    0.2530 C   0  0  0  0  0  0  0  0  0  0  0  0
    6.9485   -1.2699   -0.2649 C   0  0  0  0  0  0  0  0  0  0  0  0
    6.9644    0.0390   -0.7650 C   0  0  0  0  0  0  0  0  0  0  0  0
    8.0702    0.4713   -1.6296 C   0  0  0  0  0  0  0  0  0  0  0  0
    8.9869    1.5364   -1.6480 C   0  0  0  0  0  0  0  0  0  0  0  0
    9.3546    2.4996   -0.6089 C   0  0  0  0  0  0  0  0  0  0  0  0
    8.8319    2.5042    0.6891 C   0  0  0  0  0  0  0  0  0  0  0  0
    9.2564    3.4641    1.6196 C   0  0  0  0  0  0  0  0  0  0  0  0
   10.2173    4.4075    1.2632 C   0  0  0  0  0  0  0  0  0  0  0  0
   10.6145    5.3188    2.1597 F   0  0  0  0  0  0  0  0  0  0  0  0
   10.7734    4.4080   -0.0021 C   0  0  0  0  0  0  0  0  0  0  0  0
   10.3429    3.4585   -0.9292 C   0  0  0  0  0  0  0  0  0  0  0  0
    9.6133    1.6376   -2.8927 N   0  0  0  0  0  0  0  0  0  0  0  0
    9.1464    0.6323   -3.5629 C   0  0  0  0  0  0  0  0  0  0  0  0
    9.4305    0.0018   -5.1530 S   0  0  0  0  0  0  0  0  0  0  0  0
    8.4643   -1.4128   -4.7176 C   0  0  0  0  0  0  0  0  0  0  0  0
    7.9529   -1.3357   -3.4765 C   0  0  0  0  0  0  0  0  0  0  0  0
    8.3216   -0.1655   -2.8374 N   0  0  0  0  0  0  0  0  0  0  0  0
    5.8233    0.8636   -0.6273 C   0  0  0  0  0  0  0  0  0  0  0  0
    4.6458    0.2820   -0.1113 C   0  0  0  0  0  0  0  0  0  0  0  0
    3.3489    0.7227    0.0885 N   0  0  0  0  0  0  0  0  0  0  0  0
    2.8353    2.0642   -0.1556 C   0  0  0  0  0  0  0  0  0  0  0  0
    2.7188    2.9701    1.0452 C   0  0  0  0  0  0  0  0  0  0  0  0
    3.9169    3.3153    1.9013 C   0  0  0  0  0  0  0  0  0  0  0  0
    2.7813    2.5189    2.4863 C   0  0  0  0  0  0  0  0  0  0  0  0
    0.8352   -1.2915    0.6097 H   0  0  0  0  0  0  0  0  0  0  0  0
    0.7441    0.3748    0.8061 H   0  0  0  0  0  0  0  0  0  0  0  0
    5.7323   -2.8671    0.5615 H   0  0  0  0  0  0  0  0  0  0  0  0
    7.8294   -1.9048   -0.3436 H   0  0  0  0  0  0  0  0  0  0  0  0
    8.1039    1.7669    1.0107 H   0  0  0  0  0  0  0  0  0  0  0  0
    8.8509    3.4747    2.6267 H   0  0  0  0  0  0  0  0  0  0  0  0
   11.5356    5.1339   -0.2689 H   0  0  0  0  0  0  0  0  0  0  0  0
   10.8003    3.4633   -1.9188 H   0  0  0  0  0  0  0  0  0  0  0  0
    8.3321   -2.2364   -5.4062 H   0  0  0  0  0  0  0  0  0  0  0  0
    7.3494   -2.0807   -2.9829 H   0  0  0  0  0  0  0  0  0  0  0  0
    5.8235    1.8814   -1.0063 H   0  0  0  0  0  0  0  0  0  0  0  0
    1.8422    1.9544   -0.6099 H   0  0  0  0  0  0  0  0  0  0  0  0
    3.4673    2.5396   -0.9124 H   0  0  0  0  0  0  0  0  0  0  0  0
    2.0349    3.7863    0.8235 H   0  0  0  0  0  0  0  0  0  0  0  0
    4.0280    4.3457    2.2115 H   0  0  0  0  0  0  0  0  0  0  0  0
    4.8563    2.8015    1.7243 H   0  0  0  0  0  0  0  0  0  0  0  0
    2.1436    3.0201    3.2114 H   0  0  0  0  0  0  0  0  0  0  0  0
    2.9743    1.4800    2.7290 H   0  0  0  0  0  0  0  0  0  0  0  0
  1  2  1  0  0  0  0
  1 30  1  0  0  0  0
  1 31  1  0  0  0  0
  2  3  2  0  0  0  0
  2 25  1  0  0  0  0
  3  4  1  0  0  0  0
  4  5  1  0  0  0  0
  4 24  2  0  0  0  0
  5  6  2  0  0  0  0
  5 32  1  0  0  0  0
  6  7  1  0  0  0  0
  6 33  1  0  0  0  0
  7  8  1  0  0  0  0
  7 23  2  0  0  0  0
  8  9  2  0  0  0  0
  8 22  1  0  0  0  0
  9 10  1  0  0  0  0
  9 17  1  0  0  0  0
 10 11  1  0  0  0  0
 10 16  2  0  0  0  0
 11 12  2  0  0  0  0
 11 34  1  0  0  0  0
 12 13  1  0  0  0  0
 12 35  1  0  0  0  0
 13 14  1  0  0  0  0
 13 15  2  0  0  0  0
 15 16  1  0  0  0  0
 15 36  1  0  0  0  0
 16 37  1  0  0  0  0
 17 18  2  0  0  0  0
 18 19  1  0  0  0  0
 18 22  1  0  0  0  0
 19 20  1  0  0  0  0
 20 21  2  0  0  0  0
 20 38  1  0  0  0  0
 21 22  1  0  0  0  0
 21 39  1  0  0  0  0
 23 24  1  0  0  0  0
 23 40  1  0  0  0  0
 24 25  1  0  0  0  0
 25 26  1  0  0  0  0
 26 27  1  0  0  0  0
 26 41  1  0  0  0  0
 26 42  1  0  0  0  0
 27 28  1  0  0  0  0
 27 29  1  0  0  0  0
 27 43  1  0  0  0  0
 28 29  1  0  0  0  0
 28 44  1  0  0  0  0
 28 45  1  0  0  0  0
 29 46  1  0  0  0  0
 29 47  1  0  0  0  0
M  END
$$$$
