CHEMBL3936025
 OpenBabel04072215373D

 54 58  0  0  0  0  0  0  0  0999 V2000
    3.3179    1.0382    0.7306 C   0  0  0  0  0  0  0  0  0  0  0  0
    2.5684    0.4606   -0.3380 O   0  0  0  0  0  0  0  0  0  0  0  0
    3.1615   -0.5798   -0.9996 C   0  0  0  0  0  0  0  0  0  0  0  0
    4.1050   -1.4030   -0.3809 C   0  0  0  0  0  0  0  0  0  0  0  0
    4.7792   -2.4199   -1.0939 C   0  0  0  0  0  0  0  0  0  0  0  0
    5.7878   -3.2357   -0.5562 C   0  0  0  0  0  0  0  0  0  0  0  0
    6.1635   -3.0746    0.8096 N   0  0  0  0  0  0  0  0  0  0  0  0
    7.3527   -3.5761    1.3813 C   0  0  0  0  0  0  0  0  0  0  0  0
    8.5826   -3.4137    0.7298 C   0  0  0  0  0  0  0  0  0  0  0  0
    9.7562   -3.9500    1.2614 C   0  0  0  0  0  0  0  0  0  0  0  0
    9.7168   -4.6555    2.4631 C   0  0  0  0  0  0  0  0  0  0  0  0
   11.1945   -5.3344    3.0440 Cl  0  0  0  0  0  0  0  0  0  0  0  0
    8.5025   -4.7961    3.1434 C   0  0  0  0  0  0  0  0  0  0  0  0
    8.3793   -5.6502    4.6420 Cl  0  0  0  0  0  0  0  0  0  0  0  0
    7.3282   -4.2478    2.6091 C   0  0  0  0  0  0  0  0  0  0  0  0
    6.4259   -4.1590   -1.2994 N   0  0  0  0  0  0  0  0  0  0  0  0
    6.0406   -4.2779   -2.5702 C   0  0  0  0  0  0  0  0  0  0  0  0
    5.0907   -3.5593   -3.1798 N   0  0  0  0  0  0  0  0  0  0  0  0
    4.4740   -2.6299   -2.4431 C   0  0  0  0  0  0  0  0  0  0  0  0
    3.4985   -1.8394   -3.0354 C   0  0  0  0  0  0  0  0  0  0  0  0
    2.8163   -0.8350   -2.3351 C   0  0  0  0  0  0  0  0  0  0  0  0
    1.8806   -0.1794   -3.1009 O   0  0  0  0  0  0  0  0  0  0  0  0
    0.8348    0.4748   -2.3847 C   0  0  0  0  0  0  0  0  0  0  0  0
   -0.3408    0.6433   -3.2747 C   0  0  0  0  0  0  0  0  0  0  0  0
   -0.9293    1.7535   -3.6579 N   0  0  0  0  0  0  0  0  0  0  0  0
   -2.1571    1.3143   -4.0819 C   0  0  0  0  0  0  0  0  0  0  0  0
   -3.1031    2.2377   -4.3406 N   0  0  0  0  0  0  0  0  0  0  0  0
   -2.7520    3.5760   -4.8171 C   0  0  0  0  0  0  0  0  0  0  0  0
   -3.7084    4.6081   -4.2019 C   0  0  0  0  0  0  0  0  0  0  0  0
   -5.0849    4.2703   -4.4489 O   0  0  0  0  0  0  0  0  0  0  0  0
   -5.3887    2.9762   -3.8992 C   0  0  0  0  0  0  0  0  0  0  0  0
   -4.5081    1.8761   -4.5175 C   0  0  0  0  0  0  0  0  0  0  0  0
   -2.2923   -0.0162   -4.0507 N   0  0  0  0  0  0  0  0  0  0  0  0
   -1.0839   -0.4708   -3.5275 O   0  0  0  0  0  0  0  0  0  0  0  0
    2.9998    2.0783    0.8400 H   0  0  0  0  0  0  0  0  0  0  0  0
    4.3957    1.0471    0.5314 H   0  0  0  0  0  0  0  0  0  0  0  0
    3.1015    0.5117    1.6661 H   0  0  0  0  0  0  0  0  0  0  0  0
    4.3553   -1.2521    0.6651 H   0  0  0  0  0  0  0  0  0  0  0  0
    5.3510   -3.2031    1.4025 H   0  0  0  0  0  0  0  0  0  0  0  0
    8.6288   -2.8724   -0.2133 H   0  0  0  0  0  0  0  0  0  0  0  0
   10.6907   -3.8227    0.7214 H   0  0  0  0  0  0  0  0  0  0  0  0
    6.3907   -4.3790    3.1429 H   0  0  0  0  0  0  0  0  0  0  0  0
    6.5468   -5.0270   -3.1695 H   0  0  0  0  0  0  0  0  0  0  0  0
    3.2597   -2.0071   -4.0841 H   0  0  0  0  0  0  0  0  0  0  0  0
    1.1724    1.4658   -2.0626 H   0  0  0  0  0  0  0  0  0  0  0  0
    0.5036   -0.1200   -1.5254 H   0  0  0  0  0  0  0  0  0  0  0  0
   -2.8516    3.5908   -5.9088 H   0  0  0  0  0  0  0  0  0  0  0  0
   -1.7231    3.8602   -4.5734 H   0  0  0  0  0  0  0  0  0  0  0  0
   -3.5245    5.5930   -4.6427 H   0  0  0  0  0  0  0  0  0  0  0  0
   -3.5520    4.6921   -3.1196 H   0  0  0  0  0  0  0  0  0  0  0  0
   -6.4446    2.7701   -4.0995 H   0  0  0  0  0  0  0  0  0  0  0  0
   -5.2584    3.0163   -2.8099 H   0  0  0  0  0  0  0  0  0  0  0  0
   -4.7222    1.7875   -5.5895 H   0  0  0  0  0  0  0  0  0  0  0  0
   -4.7555    0.9215   -4.0378 H   0  0  0  0  0  0  0  0  0  0  0  0
  1  2  1  0  0  0  0
  1 35  1  0  0  0  0
  1 36  1  0  0  0  0
  1 37  1  0  0  0  0
  2  3  1  0  0  0  0
  3  4  1  0  0  0  0
  3 21  2  0  0  0  0
  4  5  2  0  0  0  0
  4 38  1  0  0  0  0
  5  6  1  0  0  0  0
  5 19  1  0  0  0  0
  6  7  1  0  0  0  0
  6 16  2  0  0  0  0
  7  8  1  0  0  0  0
  7 39  1  0  0  0  0
  8  9  1  0  0  0  0
  8 15  2  0  0  0  0
  9 10  2  0  0  0  0
  9 40  1  0  0  0  0
 10 11  1  0  0  0  0
 10 41  1  0  0  0  0
 11 12  1  0  0  0  0
 11 13  2  0  0  0  0
 13 14  1  0  0  0  0
 13 15  1  0  0  0  0
 15 42  1  0  0  0  0
 16 17  1  0  0  0  0
 17 18  2  0  0  0  0
 17 43  1  0  0  0  0
 18 19  1  0  0  0  0
 19 20  2  0  0  0  0
 20 21  1  0  0  0  0
 20 44  1  0  0  0  0
 21 22  1  0  0  0  0
 22 23  1  0  0  0  0
 23 24  1  0  0  0  0
 23 45  1  0  0  0  0
 23 46  1  0  0  0  0
 24 25  2  0  0  0  0
 24 34  1  0  0  0  0
 25 26  1  0  0  0  0
 26 27  1  0  0  0  0
 26 33  2  0  0  0  0
 27 28  1  0  0  0  0
 27 32  1  0  0  0  0
 28 29  1  0  0  0  0
 28 47  1  0  0  0  0
 28 48  1  0  0  0  0
 29 30  1  0  0  0  0
 29 49  1  0  0  0  0
 29 50  1  0  0  0  0
 30 31  1  0  0  0  0
 31 32  1  0  0  0  0
 31 51  1  0  0  0  0
 31 52  1  0  0  0  0
 32 53  1  0  0  0  0
 32 54  1  0  0  0  0
 33 34  1  0  0  0  0
M  END
$$$$
