CHEMBL3644559
 OpenBabel04072215373D

 78 82  0  0  0  0  0  0  0  0999 V2000
    9.5271    2.2970   -1.1941 C   0  0  0  0  0  0  0  0  0  0  0  0
    9.4620    3.8240   -1.1682 C   0  0  0  0  0  0  0  0  0  0  0  0
    8.1587    4.3343   -1.7869 C   0  0  0  0  0  0  0  0  0  0  0  0
    9.6691    4.3777    0.2307 C   0  0  0  0  0  0  0  0  0  0  0  0
   10.7903    5.1829    0.4774 C   0  0  0  0  0  0  0  0  0  0  0  0
   10.9968    5.7365    1.7364 C   0  0  0  0  0  0  0  0  0  0  0  0
   10.0712    5.5188    2.7518 C   0  0  0  0  0  0  0  0  0  0  0  0
    8.9226    4.7529    2.5325 C   0  0  0  0  0  0  0  0  0  0  0  0
    7.9141    4.5839    3.5189 N   0  0  0  0  0  0  0  0  0  0  0  0
    7.7540    5.4219    4.6169 C   0  0  0  0  0  0  0  0  0  0  0  0
    8.4164    6.4265    4.8482 O   0  0  0  0  0  0  0  0  0  0  0  0
    6.6514    5.1155    5.5737 C   0  0  0  0  0  0  0  0  0  0  0  0
    6.1656    3.8331    5.8080 C   0  0  0  0  0  0  0  0  0  0  0  0
    5.2160    3.6447    6.8129 C   0  0  0  0  0  0  0  0  0  0  0  0
    4.7595    4.7304    7.5785 C   0  0  0  0  0  0  0  0  0  0  0  0
    5.2300    6.0345    7.3694 C   0  0  0  0  0  0  0  0  0  0  0  0
    4.8254    7.0929    8.1630 N   0  0  0  0  0  0  0  0  0  0  0  0
    5.6778    8.2565    8.4090 C   0  0  0  0  0  0  0  0  0  0  0  0
    5.1828    9.4515    7.5923 C   0  0  0  0  0  0  0  0  0  0  0  0
    3.6871    9.6644    7.6901 C   0  0  0  0  0  0  0  0  0  0  0  0
    2.8782    8.5981    8.1525 C   0  0  0  0  0  0  0  0  0  0  0  0
    1.5060    8.8161    8.2673 C   0  0  0  0  0  0  0  0  0  0  0  0
    0.8903    9.9730    7.9468 N   0  0  0  0  0  0  0  0  0  0  0  0
    1.6820   10.9744    7.4887 C   0  0  0  0  0  0  0  0  0  0  0  0
    3.0635   10.8773    7.3261 C   0  0  0  0  0  0  0  0  0  0  0  0
    3.7489   12.0984    6.8166 C   0  0  0  0  0  0  0  0  0  0  0  0
    3.3434   13.2116    7.1357 O   0  0  0  0  0  0  0  0  0  0  0  0
    4.8041   11.8992    5.9531 N   0  0  0  0  0  0  0  0  0  0  0  0
    5.5454   12.9992    5.3557 C   0  0  0  0  0  0  0  0  0  0  0  0
    6.7556   12.4608    4.5920 C   0  0  0  0  0  0  0  0  0  0  0  0
    7.5930   13.5728    3.9469 C   0  0  0  0  0  0  0  0  0  0  0  0
    8.6882   13.0551    3.1054 N   0  0  0  0  0  0  0  0  0  0  0  0
    9.7272   12.3122    3.8345 C   0  0  0  0  0  0  0  0  0  0  0  0
   10.7163   13.3607    4.3034 C   0  0  0  0  0  0  0  0  0  0  0  0
   10.7360   14.3538    3.1591 C   0  0  0  0  0  0  0  0  0  0  0  0
    9.4071   14.1560    2.4331 C   0  0  0  0  0  0  0  0  0  0  0  0
    3.4326    7.2519    8.5781 C   0  0  0  0  0  0  0  0  0  0  0  0
    6.1719    6.1934    6.3457 C   0  0  0  0  0  0  0  0  0  0  0  0
    8.7529    4.1449    1.2798 C   0  0  0  0  0  0  0  0  0  0  0  0
    9.4397    1.9273   -2.2219 H   0  0  0  0  0  0  0  0  0  0  0  0
    8.7241    1.8428   -0.6048 H   0  0  0  0  0  0  0  0  0  0  0  0
   10.4824    1.9410   -0.7926 H   0  0  0  0  0  0  0  0  0  0  0  0
   10.2770    4.1859   -1.8106 H   0  0  0  0  0  0  0  0  0  0  0  0
    7.2793    4.0028   -1.2241 H   0  0  0  0  0  0  0  0  0  0  0  0
    8.0519    3.9735   -2.8156 H   0  0  0  0  0  0  0  0  0  0  0  0
    8.1440    5.4299   -1.8142 H   0  0  0  0  0  0  0  0  0  0  0  0
   11.5097    5.3925   -0.3103 H   0  0  0  0  0  0  0  0  0  0  0  0
   11.8697    6.3556    1.9273 H   0  0  0  0  0  0  0  0  0  0  0  0
   10.2779    5.9672    3.7198 H   0  0  0  0  0  0  0  0  0  0  0  0
    7.1716    3.9361    3.3029 H   0  0  0  0  0  0  0  0  0  0  0  0
    6.5459    2.9710    5.2687 H   0  0  0  0  0  0  0  0  0  0  0  0
    4.8533    2.6439    7.0381 H   0  0  0  0  0  0  0  0  0  0  0  0
    4.0667    4.5266    8.3923 H   0  0  0  0  0  0  0  0  0  0  0  0
    6.7356    8.0602    8.2007 H   0  0  0  0  0  0  0  0  0  0  0  0
    5.6306    8.5001    9.4795 H   0  0  0  0  0  0  0  0  0  0  0  0
    5.4349    9.2799    6.5405 H   0  0  0  0  0  0  0  0  0  0  0  0
    5.7160   10.3425    7.9416 H   0  0  0  0  0  0  0  0  0  0  0  0
    0.8399    8.0407    8.6396 H   0  0  0  0  0  0  0  0  0  0  0  0
    1.1498   11.8893    7.2390 H   0  0  0  0  0  0  0  0  0  0  0  0
    4.8917   10.9921    5.5168 H   0  0  0  0  0  0  0  0  0  0  0  0
    5.8550   13.6811    6.1565 H   0  0  0  0  0  0  0  0  0  0  0  0
    4.8651   13.5447    4.6931 H   0  0  0  0  0  0  0  0  0  0  0  0
    6.4085   11.7651    3.8171 H   0  0  0  0  0  0  0  0  0  0  0  0
    7.3633   11.8753    5.2905 H   0  0  0  0  0  0  0  0  0  0  0  0
    7.9665   14.2604    4.7147 H   0  0  0  0  0  0  0  0  0  0  0  0
    6.9184   14.1495    3.2995 H   0  0  0  0  0  0  0  0  0  0  0  0
   10.2236   11.6335    3.1289 H   0  0  0  0  0  0  0  0  0  0  0  0
    9.3646   11.6906    4.6562 H   0  0  0  0  0  0  0  0  0  0  0  0
   11.7069   12.9411    4.5012 H   0  0  0  0  0  0  0  0  0  0  0  0
   10.3624   13.8453    5.2200 H   0  0  0  0  0  0  0  0  0  0  0  0
   11.5702   14.1339    2.4822 H   0  0  0  0  0  0  0  0  0  0  0  0
   10.8602   15.3774    3.5261 H   0  0  0  0  0  0  0  0  0  0  0  0
    9.6016   13.8678    1.3933 H   0  0  0  0  0  0  0  0  0  0  0  0
    8.8345   15.0895    2.3961 H   0  0  0  0  0  0  0  0  0  0  0  0
    2.7905    6.4670    8.1607 H   0  0  0  0  0  0  0  0  0  0  0  0
    3.3822    7.1836    9.6716 H   0  0  0  0  0  0  0  0  0  0  0  0
    6.5608    7.1837    6.1267 H   0  0  0  0  0  0  0  0  0  0  0  0
    7.8819    3.5235    1.0930 H   0  0  0  0  0  0  0  0  0  0  0  0
  1  2  1  0  0  0  0
  1 40  1  0  0  0  0
  1 41  1  0  0  0  0
  1 42  1  0  0  0  0
  2  3  1  0  0  0  0
  2  4  1  0  0  0  0
  2 43  1  0  0  0  0
  3 44  1  0  0  0  0
  3 45  1  0  0  0  0
  3 46  1  0  0  0  0
  4  5  1  0  0  0  0
  4 39  2  0  0  0  0
  5  6  2  0  0  0  0
  5 47  1  0  0  0  0
  6  7  1  0  0  0  0
  6 48  1  0  0  0  0
  7  8  2  0  0  0  0
  7 49  1  0  0  0  0
  8  9  1  0  0  0  0
  8 39  1  0  0  0  0
  9 10  1  0  0  0  0
  9 50  1  0  0  0  0
 10 11  2  0  0  0  0
 10 12  1  0  0  0  0
 12 13  1  0  0  0  0
 12 38  2  0  0  0  0
 13 14  2  0  0  0  0
 13 51  1  0  0  0  0
 14 15  1  0  0  0  0
 14 52  1  0  0  0  0
 15 16  2  0  0  0  0
 15 53  1  0  0  0  0
 16 17  1  0  0  0  0
 16 38  1  0  0  0  0
 17 18  1  0  0  0  0
 17 37  1  0  0  0  0
 18 19  1  0  0  0  0
 18 54  1  0  0  0  0
 18 55  1  0  0  0  0
 19 20  1  0  0  0  0
 19 56  1  0  0  0  0
 19 57  1  0  0  0  0
 20 21  1  0  0  0  0
 20 25  2  0  0  0  0
 21 22  2  0  0  0  0
 21 37  1  0  0  0  0
 22 23  1  0  0  0  0
 22 58  1  0  0  0  0
 23 24  2  0  0  0  0
 24 25  1  0  0  0  0
 24 59  1  0  0  0  0
 25 26  1  0  0  0  0
 26 27  2  0  0  0  0
 26 28  1  0  0  0  0
 28 29  1  0  0  0  0
 28 60  1  0  0  0  0
 29 30  1  0  0  0  0
 29 61  1  0  0  0  0
 29 62  1  0  0  0  0
 30 31  1  0  0  0  0
 30 63  1  0  0  0  0
 30 64  1  0  0  0  0
 31 32  1  0  0  0  0
 31 65  1  0  0  0  0
 31 66  1  0  0  0  0
 32 33  1  0  0  0  0
 32 36  1  0  0  0  0
 33 34  1  0  0  0  0
 33 67  1  0  0  0  0
 33 68  1  0  0  0  0
 34 35  1  0  0  0  0
 34 69  1  0  0  0  0
 34 70  1  0  0  0  0
 35 36  1  0  0  0  0
 35 71  1  0  0  0  0
 35 72  1  0  0  0  0
 36 73  1  0  0  0  0
 36 74  1  0  0  0  0
 37 75  1  0  0  0  0
 37 76  1  0  0  0  0
 38 77  1  0  0  0  0
 39 78  1  0  0  0  0
M  END
$$$$
