CHEMBL380334
 OpenBabel04072215373D

 33 35  0  0  0  0  0  0  0  0999 V2000
    2.5031    0.6256   -0.3343 C   0  0  0  0  0  0  0  0  0  0  0  0
    1.0845    0.2475   -0.1316 C   0  0  0  0  0  0  0  0  0  0  0  0
   -0.0440    1.0082    0.0658 C   0  0  0  0  0  0  0  0  0  0  0  0
   -1.1481    0.1217    0.2070 C   0  0  0  0  0  0  0  0  0  0  0  0
   -2.5599    0.5330    0.4394 C   0  0  0  0  0  0  0  0  0  0  0  0
   -0.6557   -1.1763    0.0894 C   0  0  0  0  0  0  0  0  0  0  0  0
   -1.3223   -2.4339    0.1570 C   0  0  0  0  0  0  0  0  0  0  0  0
   -0.8218   -3.6729    0.0307 C   0  0  0  0  0  0  0  0  0  0  0  0
    0.5527   -4.1486   -0.2661 C   0  0  0  0  0  0  0  0  0  0  0  0
    1.5876   -3.5145   -0.3396 O   0  0  0  0  0  0  0  0  0  0  0  0
    0.3932   -5.5092   -0.4546 N   0  0  0  0  0  0  0  0  0  0  0  0
   -0.8760   -5.9864   -0.2461 N   0  0  0  0  0  0  0  0  0  0  0  0
   -1.6077   -4.9441    0.0732 C   0  0  0  0  0  0  0  0  0  0  0  0
   -3.0216   -5.0518    0.4514 C   0  0  0  0  0  0  0  0  0  0  0  0
   -3.7875   -6.1039   -0.0297 C   0  0  0  0  0  0  0  0  0  0  0  0
   -5.0857   -6.2807    0.3283 N   0  0  0  0  0  0  0  0  0  0  0  0
   -5.5718   -5.3750    1.2073 C   0  0  0  0  0  0  0  0  0  0  0  0
   -4.8022   -4.3336    1.7020 C   0  0  0  0  0  0  0  0  0  0  0  0
   -3.5141   -4.1468    1.3345 N   0  0  0  0  0  0  0  0  0  0  0  0
    0.6987   -1.0684   -0.1149 N   0  0  0  0  0  0  0  0  0  0  0  0
    2.6347    1.7102   -0.2752 H   0  0  0  0  0  0  0  0  0  0  0  0
    2.8512    0.2924   -1.3174 H   0  0  0  0  0  0  0  0  0  0  0  0
    3.1361    0.1637    0.4306 H   0  0  0  0  0  0  0  0  0  0  0  0
   -0.0747    2.0897    0.1078 H   0  0  0  0  0  0  0  0  0  0  0  0
   -2.6438    1.6197    0.5388 H   0  0  0  0  0  0  0  0  0  0  0  0
   -2.9470    0.0806    1.3582 H   0  0  0  0  0  0  0  0  0  0  0  0
   -3.1931    0.2209   -0.3974 H   0  0  0  0  0  0  0  0  0  0  0  0
   -2.3923   -2.3360    0.3181 H   0  0  0  0  0  0  0  0  0  0  0  0
    1.1602   -6.1401   -0.6561 H   0  0  0  0  0  0  0  0  0  0  0  0
   -3.3869   -6.8393   -0.7194 H   0  0  0  0  0  0  0  0  0  0  0  0
   -6.6040   -5.5109    1.5097 H   0  0  0  0  0  0  0  0  0  0  0  0
   -5.2034   -3.6234    2.4148 H   0  0  0  0  0  0  0  0  0  0  0  0
    1.3408   -1.8450   -0.2351 H   0  0  0  0  0  0  0  0  0  0  0  0
  1  2  1  0  0  0  0
  1 21  1  0  0  0  0
  1 22  1  0  0  0  0
  1 23  1  0  0  0  0
  2  3  2  0  0  0  0
  2 20  1  0  0  0  0
  3  4  1  0  0  0  0
  3 24  1  0  0  0  0
  4  5  1  0  0  0  0
  4  6  2  0  0  0  0
  5 25  1  0  0  0  0
  5 26  1  0  0  0  0
  5 27  1  0  0  0  0
  6  7  1  0  0  0  0
  6 20  1  0  0  0  0
  7  8  2  0  0  0  0
  7 28  1  0  0  0  0
  8  9  1  0  0  0  0
  8 13  1  0  0  0  0
  9 10  2  0  0  0  0
  9 11  1  0  0  0  0
 11 12  1  0  0  0  0
 11 29  1  0  0  0  0
 12 13  2  0  0  0  0
 13 14  1  0  0  0  0
 14 15  1  0  0  0  0
 14 19  2  0  0  0  0
 15 16  2  0  0  0  0
 15 30  1  0  0  0  0
 16 17  1  0  0  0  0
 17 18  2  0  0  0  0
 17 31  1  0  0  0  0
 18 19  1  0  0  0  0
 18 32  1  0  0  0  0
 20 33  1  0  0  0  0
M  END
$$$$
