CHEMBL3924505
 OpenBabel04072215373D

 65 67  0  0  0  0  0  0  0  0999 V2000
    2.1721   -0.6804    1.1490 C   0  0  0  0  0  0  0  0  0  0  0  0
    0.8764   -0.2883    0.5399 C   0  0  0  0  0  0  0  0  0  0  0  0
    0.4854    1.0279    0.1545 C   0  0  0  0  0  0  0  0  0  0  0  0
   -0.7747    0.9220   -0.3696 C   0  0  0  0  0  0  0  0  0  0  0  0
   -1.2017   -0.3654   -0.3425 O   0  0  0  0  0  0  0  0  0  0  0  0
   -0.1995   -1.1099    0.2196 C   0  0  0  0  0  0  0  0  0  0  0  0
   -0.3972   -2.5461    0.3912 C   0  0  0  0  0  0  0  0  0  0  0  0
    0.4374   -3.2496    0.9530 O   0  0  0  0  0  0  0  0  0  0  0  0
   -1.5762   -3.0145   -0.1808 N   0  0  0  0  0  0  0  0  0  0  0  0
   -2.0247   -4.3528   -0.2107 C   0  0  0  0  0  0  0  0  0  0  0  0
   -1.5090   -5.3434    0.6296 C   0  0  0  0  0  0  0  0  0  0  0  0
   -1.9236   -6.6713    0.5093 C   0  0  0  0  0  0  0  0  0  0  0  0
   -2.8521   -7.0252   -0.4676 C   0  0  0  0  0  0  0  0  0  0  0  0
   -3.3919   -6.0452   -1.3023 C   0  0  0  0  0  0  0  0  0  0  0  0
   -4.2580   -6.4374   -2.3756 C   0  0  0  0  0  0  0  0  0  0  0  0
   -4.9045   -6.8201   -3.3128 C   0  0  0  0  0  0  0  0  0  0  0  0
   -5.6268   -7.3192   -4.4504 C   0  0  0  0  0  0  0  0  0  0  0  0
   -6.3190   -6.4244   -5.2745 C   0  0  0  0  0  0  0  0  0  0  0  0
   -6.9772   -6.9085   -6.4076 C   0  0  0  0  0  0  0  0  0  0  0  0
   -7.6624   -6.0171   -7.3817 C   0  0  0  0  0  0  0  0  0  0  0  0
   -7.8261   -6.4557   -8.5162 O   0  0  0  0  0  0  0  0  0  0  0  0
   -8.1862   -4.7787   -6.9736 N   0  0  0  0  0  0  0  0  0  0  0  0
   -8.2729   -3.5861   -7.9468 S   0  0  0  0  0  0  0  0  0  0  0  0
   -7.1687   -3.1408   -8.7754 O   0  0  0  0  0  0  0  0  0  0  0  0
   -9.6865   -3.8168   -9.0292 C   0  0  0  0  0  0  0  0  0  0  0  0
   -9.8309   -2.6688  -10.0305 C   0  0  0  0  0  0  0  0  0  0  0  0
  -11.0028   -2.8683  -10.9787 C   0  0  0  0  0  0  0  0  0  0  0  0
  -10.8413   -4.0605  -11.7289 O   0  0  0  0  0  0  0  0  0  0  0  0
   -8.7631   -2.1810   -6.9448 C   0  0  0  0  0  0  0  0  0  0  0  0
   -7.7897   -1.8839   -5.8098 C   0  0  0  0  0  0  0  0  0  0  0  0
   -6.3796   -1.5462   -6.2792 C   0  0  0  0  0  0  0  0  0  0  0  0
   -5.5663   -1.2522   -5.1515 O   0  0  0  0  0  0  0  0  0  0  0  0
   -6.9528   -8.2762   -6.6370 C   0  0  0  0  0  0  0  0  0  0  0  0
   -6.3078   -9.1689   -5.8431 N   0  0  0  0  0  0  0  0  0  0  0  0
   -5.6361   -8.6842   -4.7777 C   0  0  0  0  0  0  0  0  0  0  0  0
   -4.8571   -9.6216   -4.1040 N   0  0  0  0  0  0  0  0  0  0  0  0
   -3.0080   -4.7051   -1.1482 C   0  0  0  0  0  0  0  0  0  0  0  0
    2.8512    0.1773    1.2102 H   0  0  0  0  0  0  0  0  0  0  0  0
    2.6665   -1.4525    0.5506 H   0  0  0  0  0  0  0  0  0  0  0  0
    2.0240   -1.0635    2.1637 H   0  0  0  0  0  0  0  0  0  0  0  0
    1.0649    1.9378    0.2496 H   0  0  0  0  0  0  0  0  0  0  0  0
   -1.4722    1.6363   -0.7890 H   0  0  0  0  0  0  0  0  0  0  0  0
   -2.0823   -2.3333   -0.7373 H   0  0  0  0  0  0  0  0  0  0  0  0
   -0.7764   -5.1118    1.3972 H   0  0  0  0  0  0  0  0  0  0  0  0
   -1.4953   -7.4283    1.1613 H   0  0  0  0  0  0  0  0  0  0  0  0
   -3.1280   -8.0705   -0.5830 H   0  0  0  0  0  0  0  0  0  0  0  0
   -6.3073   -5.3586   -5.0579 H   0  0  0  0  0  0  0  0  0  0  0  0
  -10.5780   -3.9131   -8.4017 H   0  0  0  0  0  0  0  0  0  0  0  0
   -9.5289   -4.7615   -9.5579 H   0  0  0  0  0  0  0  0  0  0  0  0
   -8.9103   -2.5898  -10.6214 H   0  0  0  0  0  0  0  0  0  0  0  0
   -9.9598   -1.7159   -9.5079 H   0  0  0  0  0  0  0  0  0  0  0  0
  -11.0788   -2.0269  -11.6756 H   0  0  0  0  0  0  0  0  0  0  0  0
  -11.9451   -2.9347  -10.4264 H   0  0  0  0  0  0  0  0  0  0  0  0
   -9.9877   -4.0097  -12.1952 H   0  0  0  0  0  0  0  0  0  0  0  0
   -9.7529   -2.4071   -6.5337 H   0  0  0  0  0  0  0  0  0  0  0  0
   -8.8521   -1.3120   -7.6030 H   0  0  0  0  0  0  0  0  0  0  0  0
   -7.7435   -2.7277   -5.1105 H   0  0  0  0  0  0  0  0  0  0  0  0
   -8.1804   -1.0425   -5.2224 H   0  0  0  0  0  0  0  0  0  0  0  0
   -6.3788   -0.6815   -6.9524 H   0  0  0  0  0  0  0  0  0  0  0  0
   -5.9098   -2.3871   -6.7925 H   0  0  0  0  0  0  0  0  0  0  0  0
   -5.8949   -0.4244   -4.7581 H   0  0  0  0  0  0  0  0  0  0  0  0
   -7.4601   -8.7169   -7.4927 H   0  0  0  0  0  0  0  0  0  0  0  0
   -5.0926  -10.5459   -4.4540 H   0  0  0  0  0  0  0  0  0  0  0  0
   -4.8996   -9.5412   -3.0968 H   0  0  0  0  0  0  0  0  0  0  0  0
   -3.4357   -3.9543   -1.8078 H   0  0  0  0  0  0  0  0  0  0  0  0
  1  2  1  0  0  0  0
  1 38  1  0  0  0  0
  1 39  1  0  0  0  0
  1 40  1  0  0  0  0
  2  3  1  0  0  0  0
  2  6  2  0  0  0  0
  3  4  2  0  0  0  0
  3 41  1  0  0  0  0
  4  5  1  0  0  0  0
  4 42  1  0  0  0  0
  5  6  1  0  0  0  0
  6  7  1  0  0  0  0
  7  8  2  0  0  0  0
  7  9  1  0  0  0  0
  9 10  1  0  0  0  0
  9 43  1  0  0  0  0
 10 11  1  0  0  0  0
 10 37  2  0  0  0  0
 11 12  2  0  0  0  0
 11 44  1  0  0  0  0
 12 13  1  0  0  0  0
 12 45  1  0  0  0  0
 13 14  2  0  0  0  0
 13 46  1  0  0  0  0
 14 15  1  0  0  0  0
 14 37  1  0  0  0  0
 15 16  3  0  0  0  0
 16 17  1  0  0  0  0
 17 18  1  0  0  0  0
 17 35  2  0  0  0  0
 18 19  2  0  0  0  0
 18 47  1  0  0  0  0
 19 20  1  0  0  0  0
 19 33  1  0  0  0  0
 20 21  2  0  0  0  0
 20 22  1  0  0  0  0
 22 23  2  0  0  0  0
 23 24  2  0  0  0  0
 23 25  1  0  0  0  0
 23 29  1  0  0  0  0
 25 26  1  0  0  0  0
 25 48  1  0  0  0  0
 25 49  1  0  0  0  0
 26 27  1  0  0  0  0
 26 50  1  0  0  0  0
 26 51  1  0  0  0  0
 27 28  1  0  0  0  0
 27 52  1  0  0  0  0
 27 53  1  0  0  0  0
 28 54  1  0  0  0  0
 29 30  1  0  0  0  0
 29 55  1  0  0  0  0
 29 56  1  0  0  0  0
 30 31  1  0  0  0  0
 30 57  1  0  0  0  0
 30 58  1  0  0  0  0
 31 32  1  0  0  0  0
 31 59  1  0  0  0  0
 31 60  1  0  0  0  0
 32 61  1  0  0  0  0
 33 34  2  0  0  0  0
 33 62  1  0  0  0  0
 34 35  1  0  0  0  0
 35 36  1  0  0  0  0
 36 63  1  0  0  0  0
 36 64  1  0  0  0  0
 37 65  1  0  0  0  0
M  END
$$$$
