CHEMBL3910713
 OpenBabel04072215373D

 50 53  0  0  0  0  0  0  0  0999 V2000
    3.6261   -9.8056    1.5558 N   0  0  0  0  0  0  0  0  0  0  0  0
    3.8074   -8.6851    1.3152 C   0  0  0  0  0  0  0  0  0  0  0  0
    4.0912   -7.3084    1.0341 C   0  0  0  0  0  0  0  0  0  0  0  0
    5.4091   -6.8666    1.1506 C   0  0  0  0  0  0  0  0  0  0  0  0
    5.7327   -5.5309    0.8964 C   0  0  0  0  0  0  0  0  0  0  0  0
    4.7571   -4.6071    0.5085 C   0  0  0  0  0  0  0  0  0  0  0  0
    5.0442   -3.2440    0.2483 N   0  0  0  0  0  0  0  0  0  0  0  0
    6.3099   -2.6838    0.1820 C   0  0  0  0  0  0  0  0  0  0  0  0
    7.3598   -3.3130    0.2356 O   0  0  0  0  0  0  0  0  0  0  0  0
    6.2660   -1.3007    0.0819 N   0  0  0  0  0  0  0  0  0  0  0  0
    7.4635   -0.5378    0.0239 C   0  0  0  0  0  0  0  0  0  0  0  0
    8.5660   -0.9231   -0.7457 C   0  0  0  0  0  0  0  0  0  0  0  0
    9.7570   -0.1847   -0.6961 C   0  0  0  0  0  0  0  0  0  0  0  0
    9.8576    0.9422    0.1262 C   0  0  0  0  0  0  0  0  0  0  0  0
   11.0809    1.5886    0.1456 O   0  0  0  0  0  0  0  0  0  0  0  0
   11.5156    2.1828    1.3158 C   0  0  0  0  0  0  0  0  0  0  0  0
   11.2233    1.6749    2.5767 C   0  0  0  0  0  0  0  0  0  0  0  0
   11.6350    2.4043    3.6681 C   0  0  0  0  0  0  0  0  0  0  0  0
   12.3587    3.5331    3.5747 N   0  0  0  0  0  0  0  0  0  0  0  0
   12.7260    3.9771    2.3619 C   0  0  0  0  0  0  0  0  0  0  0  0
   13.5250    5.1347    2.2712 N   0  0  0  0  0  0  0  0  0  0  0  0
   13.9588    5.8545    3.3713 C   0  0  0  0  0  0  0  0  0  0  0  0
   13.7625    5.5943    4.5528 O   0  0  0  0  0  0  0  0  0  0  0  0
   14.7572    7.0904    3.0995 C   0  0  0  0  0  0  0  0  0  0  0  0
   15.0196    7.7343    1.7628 C   0  0  0  0  0  0  0  0  0  0  0  0
   16.1205    6.9842    2.4561 C   0  0  0  0  0  0  0  0  0  0  0  0
   12.3221    3.3237    1.1997 C   0  0  0  0  0  0  0  0  0  0  0  0
    8.7322    1.3725    0.8355 C   0  0  0  0  0  0  0  0  0  0  0  0
    7.5552    0.6267    0.7866 C   0  0  0  0  0  0  0  0  0  0  0  0
    6.5162    0.9991    1.5509 F   0  0  0  0  0  0  0  0  0  0  0  0
    3.4332   -5.0506    0.3976 C   0  0  0  0  0  0  0  0  0  0  0  0
    3.1035   -6.3932    0.6568 C   0  0  0  0  0  0  0  0  0  0  0  0
    1.4464   -6.8617    0.4980 Cl  0  0  0  0  0  0  0  0  0  0  0  0
    6.2043   -7.5511    1.4447 H   0  0  0  0  0  0  0  0  0  0  0  0
    6.7739   -5.2513    1.0216 H   0  0  0  0  0  0  0  0  0  0  0  0
    4.2777   -2.6529   -0.0398 H   0  0  0  0  0  0  0  0  0  0  0  0
    5.5048   -0.8589    0.5834 H   0  0  0  0  0  0  0  0  0  0  0  0
    8.5175   -1.8056   -1.3805 H   0  0  0  0  0  0  0  0  0  0  0  0
   10.6111   -0.5113   -1.2855 H   0  0  0  0  0  0  0  0  0  0  0  0
   10.6659    0.7581    2.7248 H   0  0  0  0  0  0  0  0  0  0  0  0
   11.3837    2.1043    4.6810 H   0  0  0  0  0  0  0  0  0  0  0  0
   13.8035    5.4398    1.3536 H   0  0  0  0  0  0  0  0  0  0  0  0
   14.6884    7.7881    3.9333 H   0  0  0  0  0  0  0  0  0  0  0  0
   15.0855    8.8195    1.7464 H   0  0  0  0  0  0  0  0  0  0  0  0
   14.6084    7.3215    0.8533 H   0  0  0  0  0  0  0  0  0  0  0  0
   16.9274    7.5504    2.9120 H   0  0  0  0  0  0  0  0  0  0  0  0
   16.4344    6.0315    2.0469 H   0  0  0  0  0  0  0  0  0  0  0  0
   12.6067    3.6824    0.2171 H   0  0  0  0  0  0  0  0  0  0  0  0
    8.7580    2.2576    1.4612 H   0  0  0  0  0  0  0  0  0  0  0  0
    2.6437   -4.3615    0.1062 H   0  0  0  0  0  0  0  0  0  0  0  0
  1  2  3  0  0  0  0
  2  3  1  0  0  0  0
  3  4  1  0  0  0  0
  3 32  2  0  0  0  0
  4  5  2  0  0  0  0
  4 34  1  0  0  0  0
  5  6  1  0  0  0  0
  5 35  1  0  0  0  0
  6  7  1  0  0  0  0
  6 31  2  0  0  0  0
  7  8  1  0  0  0  0
  7 36  1  0  0  0  0
  8  9  2  0  0  0  0
  8 10  1  0  0  0  0
 10 11  1  0  0  0  0
 10 37  1  0  0  0  0
 11 12  1  0  0  0  0
 11 29  2  0  0  0  0
 12 13  2  0  0  0  0
 12 38  1  0  0  0  0
 13 14  1  0  0  0  0
 13 39  1  0  0  0  0
 14 15  1  0  0  0  0
 14 28  2  0  0  0  0
 15 16  1  0  0  0  0
 16 17  1  0  0  0  0
 16 27  2  0  0  0  0
 17 18  2  0  0  0  0
 17 40  1  0  0  0  0
 18 19  1  0  0  0  0
 18 41  1  0  0  0  0
 19 20  2  0  0  0  0
 20 21  1  0  0  0  0
 20 27  1  0  0  0  0
 21 22  1  0  0  0  0
 21 42  1  0  0  0  0
 22 23  2  0  0  0  0
 22 24  1  0  0  0  0
 24 25  1  0  0  0  0
 24 26  1  0  0  0  0
 24 43  1  0  0  0  0
 25 26  1  0  0  0  0
 25 44  1  0  0  0  0
 25 45  1  0  0  0  0
 26 46  1  0  0  0  0
 26 47  1  0  0  0  0
 27 48  1  0  0  0  0
 28 29  1  0  0  0  0
 28 49  1  0  0  0  0
 29 30  1  0  0  0  0
 31 32  1  0  0  0  0
 31 50  1  0  0  0  0
 32 33  1  0  0  0  0
M  END
$$$$
