CHEMBL3911621
 OpenBabel04072215373D

 73 77  0  0  1  0  0  0  0  0999 V2000
    8.4148    0.5531    2.7193 C   0  0  0  0  0  0  0  0  0  0  0  0
    7.9874   -0.3384    1.6917 O   0  0  0  0  0  0  0  0  0  0  0  0
    8.8681   -1.3201    1.3140 C   0  0  0  0  0  0  0  0  0  0  0  0
   10.2118   -1.3620    1.6356 C   0  0  0  0  0  0  0  0  0  0  0  0
   11.0067   -2.3920    1.1264 C   0  0  0  0  0  0  0  0  0  0  0  0
   12.3365   -2.5580    1.4408 O   0  0  0  0  0  0  0  0  0  0  0  0
   12.7784   -1.8529    2.5985 C   0  0  0  0  0  0  0  0  0  0  0  0
   10.4843   -3.3336    0.2191 C   0  0  0  0  0  0  0  0  0  0  0  0
    9.1292   -3.3363   -0.1184 C   0  0  0  0  0  0  0  0  0  0  0  0
    8.6279   -4.2694   -1.1088 N   0  0  0  0  0  0  0  0  0  0  0  0
    8.5922   -5.7168   -0.8498 C   0  0  0  0  0  0  0  0  0  0  0  0
    7.3208   -6.1978   -0.6701 C   0  0  0  0  0  0  0  0  0  0  0  0
    7.0591   -7.5127   -0.5571 C   0  0  0  0  0  0  0  0  0  0  0  0
    8.0116   -8.4493   -0.3561 C   0  0  0  0  0  0  0  0  0  0  0  0
    7.3259   -9.3871    0.1853 N   0  0  0  0  0  0  0  0  0  0  0  0
    7.7910  -10.6006    0.0632 C   0  0  0  0  0  0  0  0  0  0  0  0
    8.9814  -10.9222   -0.5409 C   0  0  0  0  0  0  0  0  0  0  0  0
    8.8560  -12.3903   -0.9955 C   0  0  0  0  0  0  0  0  0  0  0  0
    7.5498  -12.9777   -1.2874 C   0  0  0  0  0  0  0  0  0  0  0  0
    7.4956  -14.2988   -1.2958 N   0  0  0  0  0  0  0  0  0  0  0  0
    8.7607  -14.6597   -1.1067 N   0  0  0  0  0  0  0  0  0  0  0  0
    8.9859  -16.0914   -1.1579 C   0  0  0  0  0  0  0  0  0  0  0  0
    9.6155  -13.5630   -0.8781 C   0  0  0  0  0  0  0  0  0  0  0  0
    9.8511   -9.8237   -0.8545 N   0  0  0  0  0  0  0  0  0  0  0  0
    9.3328   -8.3712   -0.6979 C   0  0  0  0  0  0  0  0  0  0  0  0
    9.6338   -6.7873   -0.8403 C   0  0  0  0  0  0  0  0  0  0  0  0
    7.2640   -3.7173   -1.7594 C   0  0  1  0  0  0  0  0  0  0  0  0
    7.2447   -2.2451   -2.2567 C   0  0  0  0  0  0  0  0  0  0  0  0
    8.3259   -2.0165   -3.2825 C   0  0  0  0  0  0  0  0  0  0  0  0
    8.0797   -2.9061   -4.5007 C   0  0  1  0  0  0  0  0  0  0  0  0
    9.2357   -2.7652   -5.3797 N   0  0  0  0  0  0  0  0  0  0  0  0
    9.1214   -3.4959   -6.6421 C   0  0  0  0  0  0  0  0  0  0  0  0
    7.9131   -3.0418   -7.4605 C   0  0  0  0  0  0  0  0  0  0  0  0
   10.4106   -3.2635   -7.4219 C   0  0  0  0  0  0  0  0  0  0  0  0
    7.8203   -4.3744   -4.1359 C   0  0  0  0  0  0  0  0  0  0  0  0
    6.8085   -4.5129   -3.0188 C   0  0  0  0  0  0  0  0  0  0  0  0
    8.3366   -2.3397    0.5098 C   0  0  0  0  0  0  0  0  0  0  0  0
    7.5857    1.2295    2.9527 H   0  0  0  0  0  0  0  0  0  0  0  0
    9.2601    1.1735    2.4001 H   0  0  0  0  0  0  0  0  0  0  0  0
    8.6572   -0.0036    3.6301 H   0  0  0  0  0  0  0  0  0  0  0  0
   10.6391   -0.5955    2.2662 H   0  0  0  0  0  0  0  0  0  0  0  0
   13.7664   -2.2310    2.8701 H   0  0  0  0  0  0  0  0  0  0  0  0
   12.1135   -2.0182    3.4558 H   0  0  0  0  0  0  0  0  0  0  0  0
   12.8735   -0.7840    2.3799 H   0  0  0  0  0  0  0  0  0  0  0  0
   11.1543   -4.0524   -0.2397 H   0  0  0  0  0  0  0  0  0  0  0  0
    6.4148   -5.6171   -0.6912 H   0  0  0  0  0  0  0  0  0  0  0  0
    6.0018   -7.8385   -0.5932 H   0  0  0  0  0  0  0  0  0  0  0  0
    6.9979  -11.2956    0.2935 H   0  0  0  0  0  0  0  0  0  0  0  0
    6.5934  -12.4794   -1.3911 H   0  0  0  0  0  0  0  0  0  0  0  0
    8.0233  -16.6190   -1.2005 H   0  0  0  0  0  0  0  0  0  0  0  0
    9.5154  -16.4348   -0.2578 H   0  0  0  0  0  0  0  0  0  0  0  0
    9.5459  -16.3291   -2.0680 H   0  0  0  0  0  0  0  0  0  0  0  0
   10.6425  -13.7674   -0.6171 H   0  0  0  0  0  0  0  0  0  0  0  0
   10.6759   -6.4789   -0.8969 H   0  0  0  0  0  0  0  0  0  0  0  0
    6.4687   -3.7658   -1.0017 H   0  0  0  0  0  0  0  0  0  0  0  0
    7.3056   -1.4866   -1.4811 H   0  0  0  0  0  0  0  0  0  0  0  0
    6.2615   -2.0393   -2.7169 H   0  0  0  0  0  0  0  0  0  0  0  0
    9.3039   -2.2104   -2.8280 H   0  0  0  0  0  0  0  0  0  0  0  0
    8.3140   -0.9603   -3.5775 H   0  0  0  0  0  0  0  0  0  0  0  0
    7.1819   -2.5059   -4.9865 H   0  0  0  0  0  0  0  0  0  0  0  0
   10.0660   -3.0842   -4.8782 H   0  0  0  0  0  0  0  0  0  0  0  0
    9.0492   -4.5741   -6.4561 H   0  0  0  0  0  0  0  0  0  0  0  0
    7.9064   -1.9533   -7.5839 H   0  0  0  0  0  0  0  0  0  0  0  0
    6.9702   -3.3333   -6.9851 H   0  0  0  0  0  0  0  0  0  0  0  0
    7.9227   -3.4998   -8.4533 H   0  0  0  0  0  0  0  0  0  0  0  0
   10.5584   -2.2007   -7.6407 H   0  0  0  0  0  0  0  0  0  0  0  0
   10.3854   -3.8098   -8.3698 H   0  0  0  0  0  0  0  0  0  0  0  0
   11.2806   -3.6199   -6.8566 H   0  0  0  0  0  0  0  0  0  0  0  0
    8.7508   -4.8727   -3.8399 H   0  0  0  0  0  0  0  0  0  0  0  0
    7.4290   -4.9183   -5.0028 H   0  0  0  0  0  0  0  0  0  0  0  0
    6.6201   -5.5759   -2.8651 H   0  0  0  0  0  0  0  0  0  0  0  0
    5.8354   -4.1244   -3.3568 H   0  0  0  0  0  0  0  0  0  0  0  0
    7.2603   -2.2969    0.3725 H   0  0  0  0  0  0  0  0  0  0  0  0
  1  2  1  0  0  0  0
  1 38  1  0  0  0  0
  1 39  1  0  0  0  0
  1 40  1  0  0  0  0
  2  3  1  0  0  0  0
  3  4  1  0  0  0  0
  3 37  2  0  0  0  0
  4  5  2  0  0  0  0
  4 41  1  0  0  0  0
  5  6  1  0  0  0  0
  5  8  1  0  0  0  0
  6  7  1  0  0  0  0
  7 42  1  0  0  0  0
  7 43  1  0  0  0  0
  7 44  1  0  0  0  0
  8  9  2  0  0  0  0
  8 45  1  0  0  0  0
  9 10  1  0  0  0  0
  9 37  1  0  0  0  0
 10 11  1  0  0  0  0
 11 12  1  0  0  0  0
 11 26  2  0  0  0  0
 12 13  2  0  0  0  0
 12 46  1  0  0  0  0
 13 14  1  0  0  0  0
 13 47  1  0  0  0  0
 14 15  1  0  0  0  0
 14 25  2  0  0  0  0
 15 16  2  0  0  0  0
 16 17  1  0  0  0  0
 16 48  1  0  0  0  0
 17 18  1  0  0  0  0
 17 24  2  0  0  0  0
 18 19  1  0  0  0  0
 18 23  2  0  0  0  0
 19 20  2  0  0  0  0
 19 49  1  0  0  0  0
 20 21  1  0  0  0  0
 21 22  1  0  0  0  0
 21 23  1  0  0  0  0
 22 50  1  0  0  0  0
 22 51  1  0  0  0  0
 22 52  1  0  0  0  0
 23 53  1  0  0  0  0
 24 25  1  0  0  0  0
 25 26  1  0  0  0  0
 26 54  1  0  0  0  0
 27 28  1  0  0  0  0
 27 36  1  0  0  0  0
 27 10  1  0  0  0  0
 27 55  1  1  0  0  0
 28 29  1  0  0  0  0
 28 56  1  0  0  0  0
 28 57  1  0  0  0  0
 29 30  1  0  0  0  0
 29 58  1  0  0  0  0
 29 59  1  0  0  0  0
 30 31  1  0  0  0  0
 30 35  1  0  0  0  0
 30 60  1  6  0  0  0
 31 32  1  0  0  0  0
 31 61  1  0  0  0  0
 32 33  1  0  0  0  0
 32 34  1  0  0  0  0
 32 62  1  0  0  0  0
 33 63  1  0  0  0  0
 33 64  1  0  0  0  0
 33 65  1  0  0  0  0
 34 66  1  0  0  0  0
 34 67  1  0  0  0  0
 34 68  1  0  0  0  0
 35 36  1  0  0  0  0
 35 69  1  0  0  0  0
 35 70  1  0  0  0  0
 36 71  1  0  0  0  0
 36 72  1  0  0  0  0
 37 73  1  0  0  0  0
M  END
$$$$
