CHEMBL3976896
 OpenBabel04072215373D

 70 73  0  0  1  0  0  0  0  0999 V2000
    7.1408   -3.6307   -0.7605 C   0  0  0  0  0  0  0  0  0  0  0  0
    6.6053   -2.4038   -1.4769 C   0  0  0  0  0  0  0  0  0  0  0  0
    7.1484   -1.1234   -0.8539 C   0  0  0  0  0  0  0  0  0  0  0  0
    6.5970    0.1063   -1.5697 C   0  0  0  0  0  0  0  0  0  0  0  0
    7.1427    1.3768   -0.9320 C   0  0  0  0  0  0  0  0  0  0  0  0
    6.5645    2.6228   -1.5961 C   0  0  0  0  0  0  0  0  0  0  0  0
    7.1292    3.8997   -0.9646 C   0  0  0  0  0  0  0  0  0  0  0  0
    8.5777    4.0576   -1.1285 N   0  0  0  0  0  0  0  0  0  0  0  0
    9.0923    5.2440   -0.4163 C   0  0  0  0  0  0  0  0  0  0  0  0
    8.8155    6.5681   -1.1453 C   0  0  0  0  0  0  0  0  0  0  0  0
    9.3214    6.5630   -2.4844 O   0  0  0  0  0  0  0  0  0  0  0  0
    8.8264    5.4547   -3.2662 C   0  0  3  0  0  0  0  0  0  0  0  0
    7.3685    5.6933   -3.7253 C   0  0  0  0  0  0  0  0  0  0  0  0
    7.2362    6.7632   -4.6850 O   0  0  0  0  0  0  0  0  0  0  0  0
    7.7874    6.5704   -5.9212 C   0  0  0  0  0  0  0  0  0  0  0  0
    8.0099    5.2790   -6.4383 C   0  0  0  0  0  0  0  0  0  0  0  0
    8.6852    5.0539   -7.6281 C   0  0  0  0  0  0  0  0  0  0  0  0
    8.9326    3.7941   -7.9993 N   0  0  0  0  0  0  0  0  0  0  0  0
    9.6407    3.6397   -9.1212 C   0  0  0  0  0  0  0  0  0  0  0  0
   10.1277    4.6180   -9.8820 N   0  0  0  0  0  0  0  0  0  0  0  0
    9.8688    5.8823   -9.4994 C   0  0  0  0  0  0  0  0  0  0  0  0
   10.3956    6.9775  -10.2361 N   0  0  0  0  0  0  0  0  0  0  0  0
   11.0429    6.9468  -11.4814 C   0  0  0  0  0  0  0  0  0  0  0  0
   10.7804    5.9580  -12.4346 C   0  0  0  0  0  0  0  0  0  0  0  0
   11.4454    5.9460  -13.6617 C   0  0  0  0  0  0  0  0  0  0  0  0
   12.3490    6.9592  -13.9744 C   0  0  0  0  0  0  0  0  0  0  0  0
   13.1591    6.8681  -15.4954 Cl  0  0  0  0  0  0  0  0  0  0  0  0
   12.5607    8.0008  -13.0675 C   0  0  0  0  0  0  0  0  0  0  0  0
   13.6235    9.3216  -13.4051 Cl  0  0  0  0  0  0  0  0  0  0  0  0
   11.8984    7.9985  -11.8353 C   0  0  0  0  0  0  0  0  0  0  0  0
    9.1088    6.1596   -8.3580 C   0  0  0  0  0  0  0  0  0  0  0  0
    8.7786    7.4526   -7.9159 C   0  0  0  0  0  0  0  0  0  0  0  0
    8.1433    7.6800   -6.6925 C   0  0  0  0  0  0  0  0  0  0  0  0
    7.9902    9.0121   -6.4688 O   0  0  0  0  0  0  0  0  0  0  0  0
    7.6258    9.4991   -5.1911 C   0  0  0  0  0  0  0  0  0  0  0  0
    9.0591    4.1186   -2.5209 C   0  0  0  0  0  0  0  0  0  0  0  0
    6.7493   -4.5403   -1.2251 H   0  0  0  0  0  0  0  0  0  0  0  0
    6.8424   -3.6286    0.2927 H   0  0  0  0  0  0  0  0  0  0  0  0
    8.2339   -3.6650   -0.8080 H   0  0  0  0  0  0  0  0  0  0  0  0
    5.5102   -2.4045   -1.4296 H   0  0  0  0  0  0  0  0  0  0  0  0
    6.8858   -2.4490   -2.5356 H   0  0  0  0  0  0  0  0  0  0  0  0
    8.2444   -1.1198   -0.9062 H   0  0  0  0  0  0  0  0  0  0  0  0
    6.8772   -1.0827    0.2084 H   0  0  0  0  0  0  0  0  0  0  0  0
    5.5016    0.1061   -1.5202 H   0  0  0  0  0  0  0  0  0  0  0  0
    6.8757    0.0764   -2.6300 H   0  0  0  0  0  0  0  0  0  0  0  0
    8.2363    1.3757   -1.0062 H   0  0  0  0  0  0  0  0  0  0  0  0
    6.8916    1.3913    0.1359 H   0  0  0  0  0  0  0  0  0  0  0  0
    5.4743    2.6260   -1.4756 H   0  0  0  0  0  0  0  0  0  0  0  0
    6.7422    2.5991   -2.6776 H   0  0  0  0  0  0  0  0  0  0  0  0
    6.9014    3.8600    0.1087 H   0  0  0  0  0  0  0  0  0  0  0  0
    6.5706    4.7548   -1.3451 H   0  0  0  0  0  0  0  0  0  0  0  0
   10.1796    5.1226   -0.3208 H   0  0  0  0  0  0  0  0  0  0  0  0
    8.7010    5.2840    0.6067 H   0  0  0  0  0  0  0  0  0  0  0  0
    9.3152    7.3834   -0.6167 H   0  0  0  0  0  0  0  0  0  0  0  0
    7.7462    6.8047   -1.1548 H   0  0  0  0  0  0  0  0  0  0  0  0
    9.4764    5.4292   -4.1469 H   0  0  0  0  0  0  0  0  0  0  0  0
    6.7504    6.0312   -2.8943 H   0  0  0  0  0  0  0  0  0  0  0  0
    6.8867    4.7800   -4.0947 H   0  0  0  0  0  0  0  0  0  0  0  0
    7.6851    4.3896   -5.9104 H   0  0  0  0  0  0  0  0  0  0  0  0
    9.8441    2.6204   -9.4380 H   0  0  0  0  0  0  0  0  0  0  0  0
   10.8553    7.6160   -9.5900 H   0  0  0  0  0  0  0  0  0  0  0  0
   10.0612    5.1690  -12.2304 H   0  0  0  0  0  0  0  0  0  0  0  0
   11.2463    5.1382  -14.3608 H   0  0  0  0  0  0  0  0  0  0  0  0
   12.0668    8.8185  -11.1412 H   0  0  0  0  0  0  0  0  0  0  0  0
    9.0441    8.3243   -8.5128 H   0  0  0  0  0  0  0  0  0  0  0  0
    7.9220   10.5525   -5.1628 H   0  0  0  0  0  0  0  0  0  0  0  0
    8.1587    8.9995   -4.3761 H   0  0  0  0  0  0  0  0  0  0  0  0
    6.5412    9.4579   -5.0626 H   0  0  0  0  0  0  0  0  0  0  0  0
   10.1478    3.9655   -2.4645 H   0  0  0  0  0  0  0  0  0  0  0  0
    8.7049    3.2698   -3.1167 H   0  0  0  0  0  0  0  0  0  0  0  0
  1  2  1  0  0  0  0
  1 37  1  0  0  0  0
  1 38  1  0  0  0  0
  1 39  1  0  0  0  0
  2  3  1  0  0  0  0
  2 40  1  0  0  0  0
  2 41  1  0  0  0  0
  3  4  1  0  0  0  0
  3 42  1  0  0  0  0
  3 43  1  0  0  0  0
  4  5  1  0  0  0  0
  4 44  1  0  0  0  0
  4 45  1  0  0  0  0
  5  6  1  0  0  0  0
  5 46  1  0  0  0  0
  5 47  1  0  0  0  0
  6  7  1  0  0  0  0
  6 48  1  0  0  0  0
  6 49  1  0  0  0  0
  7  8  1  0  0  0  0
  7 50  1  0  0  0  0
  7 51  1  0  0  0  0
  8  9  1  0  0  0  0
  8 36  1  0  0  0  0
  9 10  1  0  0  0  0
  9 52  1  0  0  0  0
  9 53  1  0  0  0  0
 10 11  1  0  0  0  0
 10 54  1  0  0  0  0
 10 55  1  0  0  0  0
 11 12  1  0  0  0  0
 12 13  1  0  0  0  0
 12 36  1  0  0  0  0
 12 56  1  0  0  0  0
 13 14  1  0  0  0  0
 13 57  1  0  0  0  0
 13 58  1  0  0  0  0
 14 15  1  0  0  0  0
 15 16  1  0  0  0  0
 15 33  2  0  0  0  0
 16 17  2  0  0  0  0
 16 59  1  0  0  0  0
 17 18  1  0  0  0  0
 17 31  1  0  0  0  0
 18 19  2  0  0  0  0
 19 20  1  0  0  0  0
 19 60  1  0  0  0  0
 20 21  2  0  0  0  0
 21 22  1  0  0  0  0
 21 31  1  0  0  0  0
 22 23  1  0  0  0  0
 22 61  1  0  0  0  0
 23 24  1  0  0  0  0
 23 30  2  0  0  0  0
 24 25  2  0  0  0  0
 24 62  1  0  0  0  0
 25 26  1  0  0  0  0
 25 63  1  0  0  0  0
 26 27  1  0  0  0  0
 26 28  2  0  0  0  0
 28 29  1  0  0  0  0
 28 30  1  0  0  0  0
 30 64  1  0  0  0  0
 31 32  2  0  0  0  0
 32 33  1  0  0  0  0
 32 65  1  0  0  0  0
 33 34  1  0  0  0  0
 34 35  1  0  0  0  0
 35 66  1  0  0  0  0
 35 67  1  0  0  0  0
 35 68  1  0  0  0  0
 36 69  1  0  0  0  0
 36 70  1  0  0  0  0
M  END
$$$$
