CHEMBL175862
 OpenBabel04072215363D

 45 48  0  0  0  0  0  0  0  0999 V2000
    2.2098    0.8836    0.7012 C   0  0  0  0  0  0  0  0  0  0  0  0
    2.0113   -0.4111   -0.1225 C   0  0  0  0  0  0  0  0  0  0  0  0
    2.5443   -0.1104   -1.5460 C   0  0  0  0  0  0  0  0  0  0  0  0
    2.8683   -1.4695    0.4357 N   0  0  0  0  0  0  0  0  0  0  0  0
    2.6261   -1.9348    1.7187 C   0  0  0  0  0  0  0  0  0  0  0  0
    1.3984   -1.9813    2.1964 N   0  0  0  0  0  0  0  0  0  0  0  0
    1.2912   -2.4726    3.4084 C   0  0  0  0  0  0  0  0  0  0  0  0
    0.0182   -2.4934    3.8843 O   0  0  0  0  0  0  0  0  0  0  0  0
    2.2586   -2.8981    4.1922 N   0  0  0  0  0  0  0  0  0  0  0  0
    3.4587   -2.7912    3.6387 C   0  0  0  0  0  0  0  0  0  0  0  0
    4.5302   -3.2234    4.4229 N   0  0  0  0  0  0  0  0  0  0  0  0
    5.8286   -2.6853    4.4902 C   0  0  0  0  0  0  0  0  0  0  0  0
    6.8462   -3.4842    5.0183 C   0  0  0  0  0  0  0  0  0  0  0  0
    8.1514   -3.0009    5.1647 C   0  0  0  0  0  0  0  0  0  0  0  0
    8.4533   -1.6816    4.7718 C   0  0  0  0  0  0  0  0  0  0  0  0
    9.6920   -1.0681    4.8671 N   0  0  0  0  0  0  0  0  0  0  0  0
    9.6113    0.1540    4.3935 C   0  0  0  0  0  0  0  0  0  0  0  0
    8.0761    0.6544    3.8266 S   0  0  0  0  0  0  0  0  0  0  0  0
    7.4353   -0.8937    4.2320 C   0  0  0  0  0  0  0  0  0  0  0  0
    6.1232   -1.3743    4.0842 C   0  0  0  0  0  0  0  0  0  0  0  0
    3.6870   -2.3171    2.4108 N   0  0  0  0  0  0  0  0  0  0  0  0
    0.5463   -0.8756   -0.2404 C   0  0  0  0  0  0  0  0  0  0  0  0
   -0.5035   -0.2238    0.4350 C   0  0  0  0  0  0  0  0  0  0  0  0
   -1.8150   -0.7017    0.3729 C   0  0  0  0  0  0  0  0  0  0  0  0
   -2.1092   -1.8377   -0.3733 C   0  0  0  0  0  0  0  0  0  0  0  0
   -1.0908   -2.5043   -1.0476 C   0  0  0  0  0  0  0  0  0  0  0  0
    0.2231   -2.0328   -0.9772 C   0  0  0  0  0  0  0  0  0  0  0  0
    3.2583    1.2043    0.6933 H   0  0  0  0  0  0  0  0  0  0  0  0
    1.9280    0.7528    1.7522 H   0  0  0  0  0  0  0  0  0  0  0  0
    1.6108    1.7087    0.2981 H   0  0  0  0  0  0  0  0  0  0  0  0
    3.5856    0.2338   -1.5153 H   0  0  0  0  0  0  0  0  0  0  0  0
    1.9479    0.6677   -2.0369 H   0  0  0  0  0  0  0  0  0  0  0  0
    2.5313   -0.9962   -2.1915 H   0  0  0  0  0  0  0  0  0  0  0  0
    3.8653   -1.2955    0.3757 H   0  0  0  0  0  0  0  0  0  0  0  0
   -0.4331   -2.1472    3.0927 H   0  0  0  0  0  0  0  0  0  0  0  0
    4.1606   -3.4900    5.3284 H   0  0  0  0  0  0  0  0  0  0  0  0
    6.6346   -4.5118    5.3053 H   0  0  0  0  0  0  0  0  0  0  0  0
    8.9339   -3.6290    5.5732 H   0  0  0  0  0  0  0  0  0  0  0  0
   10.4675    0.8147    4.3597 H   0  0  0  0  0  0  0  0  0  0  0  0
    5.3549   -0.7229    3.6798 H   0  0  0  0  0  0  0  0  0  0  0  0
   -0.3178    0.6482    1.0556 H   0  0  0  0  0  0  0  0  0  0  0  0
   -2.6033   -0.1878    0.9169 H   0  0  0  0  0  0  0  0  0  0  0  0
   -3.1293   -2.2086   -0.4211 H   0  0  0  0  0  0  0  0  0  0  0  0
   -1.3135   -3.4025   -1.6177 H   0  0  0  0  0  0  0  0  0  0  0  0
    1.0072   -2.5997   -1.4760 H   0  0  0  0  0  0  0  0  0  0  0  0
  1  2  1  0  0  0  0
  1 28  1  0  0  0  0
  1 29  1  0  0  0  0
  1 30  1  0  0  0  0
  2  3  1  0  0  0  0
  2  4  1  0  0  0  0
  2 22  1  0  0  0  0
  3 31  1  0  0  0  0
  3 32  1  0  0  0  0
  3 33  1  0  0  0  0
  4  5  1  0  0  0  0
  4 34  1  0  0  0  0
  5  6  1  0  0  0  0
  5 21  2  0  0  0  0
  6  7  2  0  0  0  0
  7  8  1  0  0  0  0
  7  9  1  0  0  0  0
  8 35  1  0  0  0  0
  9 10  2  0  0  0  0
 10 11  1  0  0  0  0
 10 21  1  0  0  0  0
 11 12  1  0  0  0  0
 11 36  1  0  0  0  0
 12 13  1  0  0  0  0
 12 20  2  0  0  0  0
 13 14  2  0  0  0  0
 13 37  1  0  0  0  0
 14 15  1  0  0  0  0
 14 38  1  0  0  0  0
 15 16  1  0  0  0  0
 15 19  2  0  0  0  0
 16 17  2  0  0  0  0
 17 18  1  0  0  0  0
 17 39  1  0  0  0  0
 18 19  1  0  0  0  0
 19 20  1  0  0  0  0
 20 40  1  0  0  0  0
 22 23  1  0  0  0  0
 22 27  2  0  0  0  0
 23 24  2  0  0  0  0
 23 41  1  0  0  0  0
 24 25  1  0  0  0  0
 24 42  1  0  0  0  0
 25 26  2  0  0  0  0
 25 43  1  0  0  0  0
 26 27  1  0  0  0  0
 26 44  1  0  0  0  0
 27 45  1  0  0  0  0
M  END
$$$$
