CHEMBL3694674
 OpenBabel04072215373D

 49 52  0  0  0  0  0  0  0  0999 V2000
    1.0757   -0.0426   -0.0286 C   0  0  0  0  0  0  0  0  0  0  0  0
    2.5166   -0.0670   -0.0254 N   0  0  0  0  0  0  0  0  0  0  0  0
    3.3370    1.0279   -0.0186 C   0  0  0  0  0  0  0  0  0  0  0  0
    4.6118    0.5131   -0.0159 C   0  0  0  0  0  0  0  0  0  0  0  0
    4.5821   -0.8590   -0.0217 N   0  0  0  0  0  0  0  0  0  0  0  0
    3.3071   -1.1890   -0.0286 C   0  0  0  0  0  0  0  0  0  0  0  0
    2.8466   -2.5358   -0.0381 C   0  0  0  0  0  0  0  0  0  0  0  0
    2.4327   -3.7722   -0.0477 C   0  0  0  0  0  0  0  0  0  0  0  0
    1.9502   -5.2136   -0.0589 C   0  0  0  0  0  0  0  0  0  0  0  0
    2.9364   -6.2797   -0.0605 C   0  0  0  0  0  0  0  0  0  0  0  0
    2.5076   -7.5467   -0.0390 C   0  0  0  0  0  0  0  0  0  0  0  0
    1.1406   -7.8278   -0.0350 N   0  0  0  0  0  0  0  0  0  0  0  0
    0.4604   -9.0346   -0.0213 C   0  0  0  0  0  0  0  0  0  0  0  0
    1.0547  -10.3718   -0.0376 C   0  0  0  0  0  0  0  0  0  0  0  0
    2.2479  -10.6335   -0.7020 C   0  0  0  0  0  0  0  0  0  0  0  0
    2.7603  -11.9227   -0.7530 C   0  0  0  0  0  0  0  0  0  0  0  0
    2.0366  -12.9773   -0.1959 C   0  0  0  0  0  0  0  0  0  0  0  0
    0.8313  -12.7601    0.4662 C   0  0  0  0  0  0  0  0  0  0  0  0
    0.0575  -13.8398    0.9858 N   0  0  0  0  0  0  0  0  0  0  0  0
    0.5439  -15.0984    1.2217 C   0  0  0  0  0  0  0  0  0  0  0  0
    1.7206  -15.4706    1.0508 O   0  0  0  0  0  0  0  0  0  0  0  0
   -0.3679  -16.0079    1.6757 N   0  0  0  0  0  0  0  0  0  0  0  0
    0.1095  -17.3691    1.9580 C   0  0  0  0  0  0  0  0  0  0  0  0
    0.6598  -17.6256    3.3614 C   0  0  0  0  0  0  0  0  0  0  0  0
    0.5772  -16.5256    4.1445 F   0  0  0  0  0  0  0  0  0  0  0  0
   -0.0522  -18.6039    3.9741 F   0  0  0  0  0  0  0  0  0  0  0  0
    1.9498  -18.0270    3.3328 F   0  0  0  0  0  0  0  0  0  0  0  0
    0.3719  -11.4408    0.5750 C   0  0  0  0  0  0  0  0  0  0  0  0
   -0.8790   -8.6731   -0.0564 C   0  0  0  0  0  0  0  0  0  0  0  0
   -1.0452   -7.3167   -0.0652 N   0  0  0  0  0  0  0  0  0  0  0  0
    0.1739   -6.8235   -0.0504 C   0  0  0  0  0  0  0  0  0  0  0  0
    0.6276   -5.4759   -0.0592 C   0  0  0  0  0  0  0  0  0  0  0  0
    0.7280    0.9937   -0.0292 H   0  0  0  0  0  0  0  0  0  0  0  0
    0.7167   -0.5506    0.8701 H   0  0  0  0  0  0  0  0  0  0  0  0
    0.7205   -0.5505   -0.9288 H   0  0  0  0  0  0  0  0  0  0  0  0
    2.9638    2.0424   -0.0165 H   0  0  0  0  0  0  0  0  0  0  0  0
    5.5486    1.0558   -0.0104 H   0  0  0  0  0  0  0  0  0  0  0  0
    3.9931   -6.0308   -0.0716 H   0  0  0  0  0  0  0  0  0  0  0  0
    3.2086   -8.3692   -0.0351 H   0  0  0  0  0  0  0  0  0  0  0  0
    2.8053   -9.8478   -1.1993 H   0  0  0  0  0  0  0  0  0  0  0  0
    3.7107  -12.1110   -1.2362 H   0  0  0  0  0  0  0  0  0  0  0  0
    2.4383  -13.9784   -0.3119 H   0  0  0  0  0  0  0  0  0  0  0  0
   -0.9016  -13.6493    1.2373 H   0  0  0  0  0  0  0  0  0  0  0  0
   -1.2994  -15.7302    1.9525 H   0  0  0  0  0  0  0  0  0  0  0  0
    0.8960  -17.6104    1.2336 H   0  0  0  0  0  0  0  0  0  0  0  0
   -0.7216  -18.0520    1.7581 H   0  0  0  0  0  0  0  0  0  0  0  0
   -0.5119  -11.1931    1.1592 H   0  0  0  0  0  0  0  0  0  0  0  0
   -1.7345   -9.3348   -0.0998 H   0  0  0  0  0  0  0  0  0  0  0  0
   -0.1171   -4.6899   -0.0621 H   0  0  0  0  0  0  0  0  0  0  0  0
  1  2  1  0  0  0  0
  1 33  1  0  0  0  0
  1 34  1  0  0  0  0
  1 35  1  0  0  0  0
  2  3  1  0  0  0  0
  2  6  1  0  0  0  0
  3  4  2  0  0  0  0
  3 36  1  0  0  0  0
  4  5  1  0  0  0  0
  4 37  1  0  0  0  0
  5  6  2  0  0  0  0
  6  7  1  0  0  0  0
  7  8  3  0  0  0  0
  8  9  1  0  0  0  0
  9 10  1  0  0  0  0
  9 32  2  0  0  0  0
 10 11  2  0  0  0  0
 10 38  1  0  0  0  0
 11 12  1  0  0  0  0
 11 39  1  0  0  0  0
 12 13  1  0  0  0  0
 12 31  1  0  0  0  0
 13 14  1  0  0  0  0
 13 29  2  0  0  0  0
 14 15  1  0  0  0  0
 14 28  2  0  0  0  0
 15 16  2  0  0  0  0
 15 40  1  0  0  0  0
 16 17  1  0  0  0  0
 16 41  1  0  0  0  0
 17 18  2  0  0  0  0
 17 42  1  0  0  0  0
 18 19  1  0  0  0  0
 18 28  1  0  0  0  0
 19 20  1  0  0  0  0
 19 43  1  0  0  0  0
 20 21  2  0  0  0  0
 20 22  1  0  0  0  0
 22 23  1  0  0  0  0
 22 44  1  0  0  0  0
 23 24  1  0  0  0  0
 23 45  1  0  0  0  0
 23 46  1  0  0  0  0
 24 25  1  0  0  0  0
 24 26  1  0  0  0  0
 24 27  1  0  0  0  0
 28 47  1  0  0  0  0
 29 30  1  0  0  0  0
 29 48  1  0  0  0  0
 30 31  2  0  0  0  0
 31 32  1  0  0  0  0
 32 49  1  0  0  0  0
M  END
$$$$
