CHEMBL375306
 OpenBabel04072215373D

 41 43  0  0  0  0  0  0  0  0999 V2000
   -0.9424   -4.2132    3.6841 N   0  0  0  0  0  0  0  0  0  0  0  0
    0.1924   -4.0287    3.5221 C   0  0  0  0  0  0  0  0  0  0  0  0
    1.5661   -3.8053    3.2491 C   0  0  0  0  0  0  0  0  0  0  0  0
    2.0503   -2.9817    2.2612 C   0  0  0  0  0  0  0  0  0  0  0  0
    3.4096   -3.0279    2.0651 N   0  0  0  0  0  0  0  0  0  0  0  0
    3.9678   -3.8702    2.9193 C   0  0  0  0  0  0  0  0  0  0  0  0
    5.2503   -4.2845    2.8685 N   0  0  0  0  0  0  0  0  0  0  0  0
    5.9493   -4.4341    1.6621 C   0  0  0  0  0  0  0  0  0  0  0  0
    5.2960   -4.8489    0.4944 C   0  0  0  0  0  0  0  0  0  0  0  0
    6.0085   -5.0895   -0.6830 C   0  0  0  0  0  0  0  0  0  0  0  0
    5.3218   -5.6900   -1.8900 C   0  0  0  0  0  0  0  0  0  0  0  0
    4.7739   -4.8418   -2.9456 N   0  0  0  0  0  0  0  0  0  0  0  0
    5.7005   -3.9474   -3.6364 C   0  0  0  0  0  0  0  0  0  0  0  0
    5.9432   -2.6049   -2.9340 C   0  0  0  0  0  0  0  0  0  0  0  0
    4.7327   -1.9403   -2.4476 N   0  0  0  0  0  0  0  0  0  0  0  0
    4.9098   -0.6443   -2.0088 C   0  0  0  0  0  0  0  0  0  0  0  0
    3.8379   -0.0459   -1.4349 N   0  0  0  0  0  0  0  0  0  0  0  0
    5.9506   -0.0064   -2.1360 O   0  0  0  0  0  0  0  0  0  0  0  0
    3.6449   -2.7941   -1.9595 C   0  0  0  0  0  0  0  0  0  0  0  0
    3.5161   -4.1505   -2.6676 C   0  0  0  0  0  0  0  0  0  0  0  0
    7.3881   -4.8853   -0.6407 C   0  0  0  0  0  0  0  0  0  0  0  0
    7.9676   -4.4729    0.5534 C   0  0  0  0  0  0  0  0  0  0  0  0
    7.2843   -4.2618    1.7002 N   0  0  0  0  0  0  0  0  0  0  0  0
    2.8729   -4.5419    4.0730 S   0  0  0  0  0  0  0  0  0  0  0  0
    1.4516   -2.3544    1.6121 H   0  0  0  0  0  0  0  0  0  0  0  0
    5.8925   -3.9776    3.5910 H   0  0  0  0  0  0  0  0  0  0  0  0
    4.2245   -5.0297    0.5119 H   0  0  0  0  0  0  0  0  0  0  0  0
    4.5217   -6.3482   -1.5251 H   0  0  0  0  0  0  0  0  0  0  0  0
    6.0312   -6.3885   -2.3560 H   0  0  0  0  0  0  0  0  0  0  0  0
    5.2646   -3.7317   -4.6227 H   0  0  0  0  0  0  0  0  0  0  0  0
    6.6506   -4.4503   -3.8503 H   0  0  0  0  0  0  0  0  0  0  0  0
    6.4525   -1.9310   -3.6342 H   0  0  0  0  0  0  0  0  0  0  0  0
    6.6134   -2.7269   -2.0795 H   0  0  0  0  0  0  0  0  0  0  0  0
    3.2128   -0.5982   -0.8730 H   0  0  0  0  0  0  0  0  0  0  0  0
    4.0658    0.8590   -1.0437 H   0  0  0  0  0  0  0  0  0  0  0  0
    2.6977   -2.2548   -2.0802 H   0  0  0  0  0  0  0  0  0  0  0  0
    3.7979   -2.9376   -0.8866 H   0  0  0  0  0  0  0  0  0  0  0  0
    3.0328   -3.9680   -3.6392 H   0  0  0  0  0  0  0  0  0  0  0  0
    2.8149   -4.7971   -2.1266 H   0  0  0  0  0  0  0  0  0  0  0  0
    8.0118   -5.0660   -1.5102 H   0  0  0  0  0  0  0  0  0  0  0  0
    9.0423   -4.3191    0.6236 H   0  0  0  0  0  0  0  0  0  0  0  0
  1  2  3  0  0  0  0
  2  3  1  0  0  0  0
  3  4  2  0  0  0  0
  3 24  1  0  0  0  0
  4  5  1  0  0  0  0
  4 25  1  0  0  0  0
  5  6  2  0  0  0  0
  6  7  1  0  0  0  0
  6 24  1  0  0  0  0
  7  8  1  0  0  0  0
  7 26  1  0  0  0  0
  8  9  1  0  0  0  0
  8 23  2  0  0  0  0
  9 10  2  0  0  0  0
  9 27  1  0  0  0  0
 10 11  1  0  0  0  0
 10 21  1  0  0  0  0
 11 12  1  0  0  0  0
 11 28  1  0  0  0  0
 11 29  1  0  0  0  0
 12 13  1  0  0  0  0
 12 20  1  0  0  0  0
 13 14  1  0  0  0  0
 13 30  1  0  0  0  0
 13 31  1  0  0  0  0
 14 15  1  0  0  0  0
 14 32  1  0  0  0  0
 14 33  1  0  0  0  0
 15 16  1  0  0  0  0
 15 19  1  0  0  0  0
 16 17  1  0  0  0  0
 16 18  2  0  0  0  0
 17 34  1  0  0  0  0
 17 35  1  0  0  0  0
 19 20  1  0  0  0  0
 19 36  1  0  0  0  0
 19 37  1  0  0  0  0
 20 38  1  0  0  0  0
 20 39  1  0  0  0  0
 21 22  2  0  0  0  0
 21 40  1  0  0  0  0
 22 23  1  0  0  0  0
 22 41  1  0  0  0  0
M  END
$$$$
