CHEMBL569880
 OpenBabel04072215383D

 61 64  0  0  1  0  0  0  0  0999 V2000
    8.8526   -3.9308    3.1866 C   0  0  0  0  0  0  0  0  0  0  0  0
    8.3144   -3.1277    2.2610 C   0  0  0  0  0  0  0  0  0  0  0  0
    6.8890   -3.2817    1.8795 C   0  0  0  0  0  0  0  0  0  0  0  0
    6.3899   -4.3950    1.7603 O   0  0  0  0  0  0  0  0  0  0  0  0
    6.1769   -2.1137    1.7535 N   0  0  0  0  0  0  0  0  0  0  0  0
    4.8110   -2.1176    1.2683 C   0  0  0  0  0  0  0  0  0  0  0  0
    4.6826   -0.7785    0.5694 C   0  0  0  0  0  0  0  0  0  0  0  0
    5.5985    0.1602    1.3528 C   0  0  0  0  0  0  0  0  0  0  0  0
    6.5951   -0.7461    2.0925 C   0  0  1  0  0  0  0  0  0  0  0  0
    6.5301   -0.4217    3.6078 C   0  0  0  0  0  0  0  0  0  0  0  0
    6.8075    0.7013    4.0269 O   0  0  0  0  0  0  0  0  0  0  0  0
    6.1274   -1.4746    4.4194 N   0  0  0  0  0  0  0  0  0  0  0  0
    6.1668   -1.3382    5.8193 C   0  0  0  0  0  0  0  0  0  0  0  0
    7.4048   -1.4469    6.4559 C   0  0  0  0  0  0  0  0  0  0  0  0
    7.5216   -1.1910    7.8453 C   0  0  0  0  0  0  0  0  0  0  0  0
    8.7209   -1.1654    8.5639 C   0  0  0  0  0  0  0  0  0  0  0  0
    9.9616   -1.3532    7.9015 N   0  0  0  0  0  0  0  0  0  0  0  0
   11.1924   -0.9280    8.4651 C   0  0  0  0  0  0  0  0  0  0  0  0
   11.2935    0.3393    9.0655 C   0  0  0  0  0  0  0  0  0  0  0  0
   12.4495    0.7220    9.7407 C   0  0  0  0  0  0  0  0  0  0  0  0
   13.5311   -0.1494    9.7896 C   0  0  0  0  0  0  0  0  0  0  0  0
   14.6168    0.2220   10.4836 F   0  0  0  0  0  0  0  0  0  0  0  0
   13.4859   -1.3812    9.1392 C   0  0  0  0  0  0  0  0  0  0  0  0
   14.8490   -2.4334    9.1822 Cl  0  0  0  0  0  0  0  0  0  0  0  0
   12.3190   -1.7609    8.4731 C   0  0  0  0  0  0  0  0  0  0  0  0
   12.2458   -2.9517    7.8552 F   0  0  0  0  0  0  0  0  0  0  0  0
    8.7555   -0.9143    9.8882 N   0  0  0  0  0  0  0  0  0  0  0  0
    7.5954   -0.6465   10.4861 C   0  0  0  0  0  0  0  0  0  0  0  0
    6.4013   -0.6039    9.8912 N   0  0  0  0  0  0  0  0  0  0  0  0
    6.3724   -0.8658    8.5829 C   0  0  0  0  0  0  0  0  0  0  0  0
    5.1491   -0.8033    7.9347 C   0  0  0  0  0  0  0  0  0  0  0  0
    5.0150   -1.0700    6.5701 C   0  0  0  0  0  0  0  0  0  0  0  0
    3.7141   -1.0478    6.1287 O   0  0  0  0  0  0  0  0  0  0  0  0
    3.4233   -1.9381    5.0547 C   0  0  0  0  0  0  0  0  0  0  0  0
    1.9879   -2.4466    5.1124 C   0  0  0  0  0  0  0  0  0  0  0  0
    1.8085   -3.3082    3.9859 O   0  0  0  0  0  0  0  0  0  0  0  0
    0.5469   -3.9549    3.9834 C   0  0  0  0  0  0  0  0  0  0  0  0
    9.9001   -3.8407    3.4553 H   0  0  0  0  0  0  0  0  0  0  0  0
    8.2709   -4.7071    3.6774 H   0  0  0  0  0  0  0  0  0  0  0  0
    8.9030   -2.3760    1.7522 H   0  0  0  0  0  0  0  0  0  0  0  0
    4.1446   -2.1784    2.1330 H   0  0  0  0  0  0  0  0  0  0  0  0
    4.6049   -2.9652    0.6086 H   0  0  0  0  0  0  0  0  0  0  0  0
    3.6492   -0.4196    0.5343 H   0  0  0  0  0  0  0  0  0  0  0  0
    5.0434   -0.8613   -0.4626 H   0  0  0  0  0  0  0  0  0  0  0  0
    5.0090    0.7795    2.0381 H   0  0  0  0  0  0  0  0  0  0  0  0
    6.1198    0.8428    0.6718 H   0  0  0  0  0  0  0  0  0  0  0  0
    7.6220   -0.5715    1.7574 H   0  0  0  0  0  0  0  0  0  0  0  0
    6.4083   -2.3813    4.0659 H   0  0  0  0  0  0  0  0  0  0  0  0
    8.2912   -1.6737    5.8693 H   0  0  0  0  0  0  0  0  0  0  0  0
   10.0214   -2.2885    7.5014 H   0  0  0  0  0  0  0  0  0  0  0  0
   10.4444    1.0201    9.0405 H   0  0  0  0  0  0  0  0  0  0  0  0
   12.4966    1.6806   10.2486 H   0  0  0  0  0  0  0  0  0  0  0  0
    7.6255   -0.4312   11.5466 H   0  0  0  0  0  0  0  0  0  0  0  0
    4.2650   -0.5426    8.5133 H   0  0  0  0  0  0  0  0  0  0  0  0
    4.0742   -2.8217    5.0625 H   0  0  0  0  0  0  0  0  0  0  0  0
    3.5613   -1.3991    4.1122 H   0  0  0  0  0  0  0  0  0  0  0  0
    1.2800   -1.6115    5.0647 H   0  0  0  0  0  0  0  0  0  0  0  0
    1.8153   -2.9913    6.0486 H   0  0  0  0  0  0  0  0  0  0  0  0
    0.4411   -4.4815    3.0305 H   0  0  0  0  0  0  0  0  0  0  0  0
   -0.2632   -3.2264    4.0728 H   0  0  0  0  0  0  0  0  0  0  0  0
    0.4936   -4.6886    4.7930 H   0  0  0  0  0  0  0  0  0  0  0  0
  1  2  2  0  0  0  0
  1 38  1  0  0  0  0
  1 39  1  0  0  0  0
  2  3  1  0  0  0  0
  2 40  1  0  0  0  0
  3  4  2  0  0  0  0
  3  5  1  0  0  0  0
  5  6  1  0  0  0  0
  5  9  1  0  0  0  0
  6  7  1  0  0  0  0
  6 41  1  0  0  0  0
  6 42  1  0  0  0  0
  7  8  1  0  0  0  0
  7 43  1  0  0  0  0
  7 44  1  0  0  0  0
  8  9  1  0  0  0  0
  8 45  1  0  0  0  0
  8 46  1  0  0  0  0
  9 10  1  0  0  0  0
  9 47  1  6  0  0  0
 10 11  2  0  0  0  0
 10 12  1  0  0  0  0
 12 13  1  0  0  0  0
 12 48  1  0  0  0  0
 13 14  1  0  0  0  0
 13 32  2  0  0  0  0
 14 15  2  0  0  0  0
 14 49  1  0  0  0  0
 15 16  1  0  0  0  0
 15 30  1  0  0  0  0
 16 17  1  0  0  0  0
 16 27  2  0  0  0  0
 17 18  1  0  0  0  0
 17 50  1  0  0  0  0
 18 19  1  0  0  0  0
 18 25  2  0  0  0  0
 19 20  2  0  0  0  0
 19 51  1  0  0  0  0
 20 21  1  0  0  0  0
 20 52  1  0  0  0  0
 21 22  1  0  0  0  0
 21 23  2  0  0  0  0
 23 24  1  0  0  0  0
 23 25  1  0  0  0  0
 25 26  1  0  0  0  0
 27 28  1  0  0  0  0
 28 29  2  0  0  0  0
 28 53  1  0  0  0  0
 29 30  1  0  0  0  0
 30 31  2  0  0  0  0
 31 32  1  0  0  0  0
 31 54  1  0  0  0  0
 32 33  1  0  0  0  0
 33 34  1  0  0  0  0
 34 35  1  0  0  0  0
 34 55  1  0  0  0  0
 34 56  1  0  0  0  0
 35 36  1  0  0  0  0
 35 57  1  0  0  0  0
 35 58  1  0  0  0  0
 36 37  1  0  0  0  0
 37 59  1  0  0  0  0
 37 60  1  0  0  0  0
 37 61  1  0  0  0  0
M  END
$$$$
