CHEMBL3696091
 OpenBabel04072215373D

 27 28  0  0  0  0  0  0  0  0999 V2000
    1.9188    0.3706    0.6383 N   0  0  0  0  0  0  0  0  0  0  0  0
    3.2376    0.3561    0.2845 C   0  0  0  0  0  0  0  0  0  0  0  0
    4.0800   -0.0184    1.0987 O   0  0  0  0  0  0  0  0  0  0  0  0
    3.5622    0.7537   -1.0810 C   0  0  0  0  0  0  0  0  0  0  0  0
    2.9463    1.7811   -1.9193 C   0  0  0  0  0  0  0  0  0  0  0  0
    1.8660    2.7275   -1.5739 C   0  0  0  0  0  0  0  0  0  0  0  0
    1.7275    3.2535   -0.2839 C   0  0  0  0  0  0  0  0  0  0  0  0
    0.6647    4.1032    0.0272 C   0  0  0  0  0  0  0  0  0  0  0  0
   -0.2357    4.4905   -0.9645 C   0  0  0  0  0  0  0  0  0  0  0  0
   -0.0695    4.0582   -2.2819 C   0  0  0  0  0  0  0  0  0  0  0  0
   -0.9636    4.4326   -3.3120 N   0  0  0  0  0  0  0  0  0  0  0  0
   -1.9428    5.3917   -3.0507 O   0  0  0  0  0  0  0  0  0  0  0  0
    0.9610    3.1506   -2.5661 C   0  0  0  0  0  0  0  0  0  0  0  0
    3.4554    1.8673   -3.1554 N   0  0  0  0  0  0  0  0  0  0  0  0
    4.6954    0.8067   -3.3369 S   0  0  0  0  0  0  0  0  0  0  0  0
    4.6120    0.1494   -1.7656 C   0  0  0  0  0  0  0  0  0  0  0  0
    5.4566   -0.8191   -1.3368 N   0  0  0  0  0  0  0  0  0  0  0  0
    1.6872    0.0772    1.5776 H   0  0  0  0  0  0  0  0  0  0  0  0
    1.1686    0.5864   -0.0037 H   0  0  0  0  0  0  0  0  0  0  0  0
    2.4377    3.0115    0.5025 H   0  0  0  0  0  0  0  0  0  0  0  0
    0.5455    4.4776    1.0408 H   0  0  0  0  0  0  0  0  0  0  0  0
   -1.0445    5.1685   -0.7065 H   0  0  0  0  0  0  0  0  0  0  0  0
   -0.4445    4.6445   -4.1690 H   0  0  0  0  0  0  0  0  0  0  0  0
   -2.6429    4.8687   -2.6153 H   0  0  0  0  0  0  0  0  0  0  0  0
    1.0630    2.7710   -3.5820 H   0  0  0  0  0  0  0  0  0  0  0  0
    6.3331   -0.9643   -1.8288 H   0  0  0  0  0  0  0  0  0  0  0  0
    5.5322   -0.9716   -0.3286 H   0  0  0  0  0  0  0  0  0  0  0  0
  1  2  1  0  0  0  0
  1 18  1  0  0  0  0
  1 19  1  0  0  0  0
  2  3  2  0  0  0  0
  2  4  1  0  0  0  0
  4  5  1  0  0  0  0
  4 16  2  0  0  0  0
  5  6  1  0  0  0  0
  5 14  2  0  0  0  0
  6  7  1  0  0  0  0
  6 13  2  0  0  0  0
  7  8  2  0  0  0  0
  7 20  1  0  0  0  0
  8  9  1  0  0  0  0
  8 21  1  0  0  0  0
  9 10  2  0  0  0  0
  9 22  1  0  0  0  0
 10 11  1  0  0  0  0
 10 13  1  0  0  0  0
 11 12  1  0  0  0  0
 11 23  1  0  0  0  0
 12 24  1  0  0  0  0
 13 25  1  0  0  0  0
 14 15  1  0  0  0  0
 15 16  1  0  0  0  0
 16 17  1  0  0  0  0
 17 26  1  0  0  0  0
 17 27  1  0  0  0  0
M  END
$$$$
