CHEMBL2010878
 OpenBabel04072215363D

 61 67  0  0  0  0  0  0  0  0999 V2000
    1.3124   -0.6953   -0.0344 C   0  0  0  0  0  0  0  0  0  0  0  0
    2.8201   -0.8340    0.2078 C   0  0  0  0  0  0  0  0  0  0  0  0
    3.1573   -0.8741    1.6924 C   0  0  0  0  0  0  0  0  0  0  0  0
    3.4129   -1.9042   -0.6082 N   0  0  0  0  0  0  0  0  0  0  0  0
    3.9243   -1.6240   -1.9092 C   0  0  0  0  0  0  0  0  0  0  0  0
    4.1917   -0.4047   -2.5603 C   0  0  0  0  0  0  0  0  0  0  0  0
    4.5986   -0.4379   -3.9030 C   0  0  0  0  0  0  0  0  0  0  0  0
    4.7367   -1.6315   -4.6059 C   0  0  0  0  0  0  0  0  0  0  0  0
    5.1638   -1.6888   -5.9453 N   0  0  0  0  0  0  0  0  0  0  0  0
    6.0293   -0.8445   -6.6526 C   0  0  0  0  0  0  0  0  0  0  0  0
    7.0335   -0.1130   -6.0209 C   0  0  0  0  0  0  0  0  0  0  0  0
    7.8114    0.7495   -6.7737 C   0  0  0  0  0  0  0  0  0  0  0  0
    7.6534    0.9320   -8.1003 N   0  0  0  0  0  0  0  0  0  0  0  0
    6.6780    0.2148   -8.6956 C   0  0  0  0  0  0  0  0  0  0  0  0
    5.8518   -0.6712   -8.0238 C   0  0  0  0  0  0  0  0  0  0  0  0
    4.4816   -2.8317   -3.9425 C   0  0  0  0  0  0  0  0  0  0  0  0
    4.0365   -2.8219   -2.5986 C   0  0  0  0  0  0  0  0  0  0  0  0
    3.5310   -3.7446   -1.7036 C   0  0  0  0  0  0  0  0  0  0  0  0
    3.0806   -5.0139   -2.1065 C   0  0  0  0  0  0  0  0  0  0  0  0
    2.1518   -5.6228   -1.2400 C   0  0  0  0  0  0  0  0  0  0  0  0
    1.8219   -5.1121    0.0215 C   0  0  0  0  0  0  0  0  0  0  0  0
    2.7791   -4.1811    0.5396 C   0  0  0  0  0  0  0  0  0  0  0  0
    3.2684   -3.2880   -0.4428 C   0  0  0  0  0  0  0  0  0  0  0  0
    3.7117   -4.8441    1.6408 C   0  0  0  0  0  0  0  0  0  0  0  0
    3.5353   -6.4127    1.7910 C   0  0  0  0  0  0  0  0  0  0  0  0
    2.0741   -6.6674    1.8983 C   0  0  0  0  0  0  0  0  0  0  0  0
    1.4109   -7.1973    2.9247 N   0  0  0  0  0  0  0  0  0  0  0  0
    0.1376   -6.7850    2.6957 N   0  0  0  0  0  0  0  0  0  0  0  0
   -0.8727   -6.9980    3.7034 C   0  0  0  0  0  0  0  0  0  0  0  0
    0.0088   -5.9711    1.5961 C   0  0  0  0  0  0  0  0  0  0  0  0
    1.2356   -6.0043    0.9893 C   0  0  0  0  0  0  0  0  0  0  0  0
    1.7746   -6.8833   -1.8344 C   0  0  0  0  0  0  0  0  0  0  0  0
    1.0276   -7.7904   -1.4921 O   0  0  0  0  0  0  0  0  0  0  0  0
    2.5207   -6.9524   -3.0046 N   0  0  0  0  0  0  0  0  0  0  0  0
    3.3364   -5.7998   -3.3073 C   0  0  0  0  0  0  0  0  0  0  0  0
    0.9133    0.1770    0.4981 H   0  0  0  0  0  0  0  0  0  0  0  0
    0.7608   -1.5777    0.3014 H   0  0  0  0  0  0  0  0  0  0  0  0
    1.0951   -0.5484   -1.0997 H   0  0  0  0  0  0  0  0  0  0  0  0
    3.2688    0.1012   -0.1478 H   0  0  0  0  0  0  0  0  0  0  0  0
    2.7208   -1.7405    2.1935 H   0  0  0  0  0  0  0  0  0  0  0  0
    2.7699    0.0268    2.1864 H   0  0  0  0  0  0  0  0  0  0  0  0
    4.2413   -0.8875    1.8421 H   0  0  0  0  0  0  0  0  0  0  0  0
    4.0558    0.5559   -2.0753 H   0  0  0  0  0  0  0  0  0  0  0  0
    4.7597    0.5081   -4.4152 H   0  0  0  0  0  0  0  0  0  0  0  0
    4.7254   -2.4215   -6.4921 H   0  0  0  0  0  0  0  0  0  0  0  0
    7.2295   -0.2260   -4.9594 H   0  0  0  0  0  0  0  0  0  0  0  0
    8.6046    1.3283   -6.3139 H   0  0  0  0  0  0  0  0  0  0  0  0
    6.5654    0.3795   -9.7621 H   0  0  0  0  0  0  0  0  0  0  0  0
    5.0787   -1.2024   -8.5655 H   0  0  0  0  0  0  0  0  0  0  0  0
    4.6266   -3.7690   -4.4692 H   0  0  0  0  0  0  0  0  0  0  0  0
    3.4780   -4.3758    2.6016 H   0  0  0  0  0  0  0  0  0  0  0  0
    4.7615   -4.6454    1.3952 H   0  0  0  0  0  0  0  0  0  0  0  0
    4.0907   -6.8162    2.6410 H   0  0  0  0  0  0  0  0  0  0  0  0
    3.9129   -6.9170    0.8873 H   0  0  0  0  0  0  0  0  0  0  0  0
   -0.5008   -7.7059    4.4481 H   0  0  0  0  0  0  0  0  0  0  0  0
   -1.7683   -7.3946    3.2204 H   0  0  0  0  0  0  0  0  0  0  0  0
   -1.0854   -6.0353    4.1764 H   0  0  0  0  0  0  0  0  0  0  0  0
   -0.8940   -5.4101    1.3997 H   0  0  0  0  0  0  0  0  0  0  0  0
    2.4863   -7.7868   -3.5670 H   0  0  0  0  0  0  0  0  0  0  0  0
    2.9528   -5.3292   -4.2146 H   0  0  0  0  0  0  0  0  0  0  0  0
    4.3834   -6.0962   -3.4009 H   0  0  0  0  0  0  0  0  0  0  0  0
  1  2  1  0  0  0  0
  1 36  1  0  0  0  0
  1 37  1  0  0  0  0
  1 38  1  0  0  0  0
  2  3  1  0  0  0  0
  2  4  1  0  0  0  0
  2 39  1  0  0  0  0
  3 40  1  0  0  0  0
  3 41  1  0  0  0  0
  3 42  1  0  0  0  0
  4  5  1  0  0  0  0
  4 23  1  0  0  0  0
  5  6  1  0  0  0  0
  5 17  2  0  0  0  0
  6  7  2  0  0  0  0
  6 43  1  0  0  0  0
  7  8  1  0  0  0  0
  7 44  1  0  0  0  0
  8  9  1  0  0  0  0
  8 16  2  0  0  0  0
  9 10  1  0  0  0  0
  9 45  1  0  0  0  0
 10 11  1  0  0  0  0
 10 15  2  0  0  0  0
 11 12  2  0  0  0  0
 11 46  1  0  0  0  0
 12 13  1  0  0  0  0
 12 47  1  0  0  0  0
 13 14  2  0  0  0  0
 14 15  1  0  0  0  0
 14 48  1  0  0  0  0
 15 49  1  0  0  0  0
 16 17  1  0  0  0  0
 16 50  1  0  0  0  0
 17 18  1  0  0  0  0
 18 19  1  0  0  0  0
 18 23  2  0  0  0  0
 19 20  2  0  0  0  0
 19 35  1  0  0  0  0
 20 21  1  0  0  0  0
 20 32  1  0  0  0  0
 21 22  2  0  0  0  0
 21 31  1  0  0  0  0
 22 23  1  0  0  0  0
 22 24  1  0  0  0  0
 24 25  1  0  0  0  0
 24 51  1  0  0  0  0
 24 52  1  0  0  0  0
 25 26  1  0  0  0  0
 25 53  1  0  0  0  0
 25 54  1  0  0  0  0
 26 27  2  0  0  0  0
 26 31  1  0  0  0  0
 27 28  1  0  0  0  0
 28 29  1  0  0  0  0
 28 30  1  0  0  0  0
 29 55  1  0  0  0  0
 29 56  1  0  0  0  0
 29 57  1  0  0  0  0
 30 31  2  0  0  0  0
 30 58  1  0  0  0  0
 32 33  2  0  0  0  0
 32 34  1  0  0  0  0
 34 35  1  0  0  0  0
 34 59  1  0  0  0  0
 35 60  1  0  0  0  0
 35 61  1  0  0  0  0
M  END
$$$$
