CHEMBL3780121
 OpenBabel04072215373D

 48 51  0  0  0  0  0  0  0  0999 V2000
   11.1976   -0.7661   -2.0025 C   0  0  0  0  0  0  0  0  0  0  0  0
   10.3710   -1.6346   -1.2378 O   0  0  0  0  0  0  0  0  0  0  0  0
    9.1925   -2.0249   -1.8116 C   0  0  0  0  0  0  0  0  0  0  0  0
    8.7038   -1.6124   -3.0504 C   0  0  0  0  0  0  0  0  0  0  0  0
    7.4686   -2.0831   -3.5196 C   0  0  0  0  0  0  0  0  0  0  0  0
    6.7111   -2.9850   -2.7637 C   0  0  0  0  0  0  0  0  0  0  0  0
    5.3310   -3.4396   -3.1844 C   0  0  0  0  0  0  0  0  0  0  0  0
    5.0623   -3.6206   -4.6616 C   0  0  0  0  0  0  0  0  0  0  0  0
    4.4168   -2.5921   -5.2548 N   0  0  0  0  0  0  0  0  0  0  0  0
    3.9906   -2.6948   -6.5471 N   0  0  0  0  0  0  0  0  0  0  0  0
    4.1563   -3.8395   -7.2439 C   0  0  0  0  0  0  0  0  0  0  0  0
    3.6063   -3.9488   -8.5509 N   0  0  0  0  0  0  0  0  0  0  0  0
    3.3444   -2.8867   -9.4378 C   0  0  0  0  0  0  0  0  0  0  0  0
    2.2816   -2.9652  -10.3375 C   0  0  0  0  0  0  0  0  0  0  0  0
    2.0763   -1.9512  -11.2824 C   0  0  0  0  0  0  0  0  0  0  0  0
    2.9439   -0.8535  -11.3567 C   0  0  0  0  0  0  0  0  0  0  0  0
    2.6124    0.3058  -12.5896 Cl  0  0  0  0  0  0  0  0  0  0  0  0
    4.0184   -0.7490  -10.4720 C   0  0  0  0  0  0  0  0  0  0  0  0
    5.0169    0.3776  -10.4510 C   0  0  0  0  0  0  0  0  0  0  0  0
    4.8347    1.3679  -11.3630 F   0  0  0  0  0  0  0  0  0  0  0  0
    5.0492    1.0057   -9.2398 F   0  0  0  0  0  0  0  0  0  0  0  0
    6.2898   -0.0714  -10.6573 F   0  0  0  0  0  0  0  0  0  0  0  0
    4.2026   -1.7819   -9.5239 C   0  0  0  0  0  0  0  0  0  0  0  0
    4.8473   -4.9305   -6.6800 C   0  0  0  0  0  0  0  0  0  0  0  0
    5.0767   -6.1392   -7.3799 C   0  0  0  0  0  0  0  0  0  0  0  0
    5.8146   -7.1822   -6.8220 C   0  0  0  0  0  0  0  0  0  0  0  0
    6.3488   -7.0408   -5.5509 C   0  0  0  0  0  0  0  0  0  0  0  0
    6.1173   -5.8693   -4.8271 C   0  0  0  0  0  0  0  0  0  0  0  0
    5.3562   -4.8038   -5.3635 C   0  0  0  0  0  0  0  0  0  0  0  0
    7.2041   -3.3802   -1.5103 C   0  0  0  0  0  0  0  0  0  0  0  0
    8.4337   -2.9077   -1.0435 C   0  0  0  0  0  0  0  0  0  0  0  0
   12.1064   -0.5728   -1.4243 H   0  0  0  0  0  0  0  0  0  0  0  0
   10.7035    0.1952   -2.1775 H   0  0  0  0  0  0  0  0  0  0  0  0
   11.4971   -1.2355   -2.9455 H   0  0  0  0  0  0  0  0  0  0  0  0
    9.2482   -0.9112   -3.6740 H   0  0  0  0  0  0  0  0  0  0  0  0
    7.1023   -1.7142   -4.4762 H   0  0  0  0  0  0  0  0  0  0  0  0
    4.6163   -2.7044   -2.7909 H   0  0  0  0  0  0  0  0  0  0  0  0
    5.0797   -4.3803   -2.6761 H   0  0  0  0  0  0  0  0  0  0  0  0
    2.8875   -4.6650   -8.5457 H   0  0  0  0  0  0  0  0  0  0  0  0
    1.5934   -3.8041  -10.3167 H   0  0  0  0  0  0  0  0  0  0  0  0
    1.2358   -2.0305  -11.9691 H   0  0  0  0  0  0  0  0  0  0  0  0
    5.0581   -1.7205   -8.8490 H   0  0  0  0  0  0  0  0  0  0  0  0
    4.6981   -6.2723   -8.3926 H   0  0  0  0  0  0  0  0  0  0  0  0
    5.9855   -8.0956   -7.3887 H   0  0  0  0  0  0  0  0  0  0  0  0
    6.9518   -7.8364   -5.1200 H   0  0  0  0  0  0  0  0  0  0  0  0
    6.5682   -5.7900   -3.8403 H   0  0  0  0  0  0  0  0  0  0  0  0
    6.6261   -4.0466   -0.8730 H   0  0  0  0  0  0  0  0  0  0  0  0
    8.7947   -3.2178   -0.0660 H   0  0  0  0  0  0  0  0  0  0  0  0
  1  2  1  0  0  0  0
  1 32  1  0  0  0  0
  1 33  1  0  0  0  0
  1 34  1  0  0  0  0
  2  3  1  0  0  0  0
  3  4  1  0  0  0  0
  3 31  2  0  0  0  0
  4  5  2  0  0  0  0
  4 35  1  0  0  0  0
  5  6  1  0  0  0  0
  5 36  1  0  0  0  0
  6  7  1  0  0  0  0
  6 30  2  0  0  0  0
  7  8  1  0  0  0  0
  7 37  1  0  0  0  0
  7 38  1  0  0  0  0
  8  9  1  0  0  0  0
  8 29  2  0  0  0  0
  9 10  2  0  0  0  0
 10 11  1  0  0  0  0
 11 12  1  0  0  0  0
 11 24  2  0  0  0  0
 12 13  1  0  0  0  0
 12 39  1  0  0  0  0
 13 14  1  0  0  0  0
 13 23  2  0  0  0  0
 14 15  2  0  0  0  0
 14 40  1  0  0  0  0
 15 16  1  0  0  0  0
 15 41  1  0  0  0  0
 16 17  1  0  0  0  0
 16 18  2  0  0  0  0
 18 19  1  0  0  0  0
 18 23  1  0  0  0  0
 19 20  1  0  0  0  0
 19 21  1  0  0  0  0
 19 22  1  0  0  0  0
 23 42  1  0  0  0  0
 24 25  1  0  0  0  0
 24 29  1  0  0  0  0
 25 26  2  0  0  0  0
 25 43  1  0  0  0  0
 26 27  1  0  0  0  0
 26 44  1  0  0  0  0
 27 28  2  0  0  0  0
 27 45  1  0  0  0  0
 28 29  1  0  0  0  0
 28 46  1  0  0  0  0
 30 31  1  0  0  0  0
 30 47  1  0  0  0  0
 31 48  1  0  0  0  0
M  END
$$$$
