CHEMBL1076432
 OpenBabel04072215353D

 76 81  0  0  0  0  0  0  0  0999 V2000
    2.4772   -0.0432    0.1778 C   0  0  0  0  0  0  0  0  0  0  0  0
    0.9883    0.0094    0.4336 C   0  0  0  0  0  0  0  0  0  0  0  0
    0.4050    1.2604    0.6322 C   0  0  0  0  0  0  0  0  0  0  0  0
   -0.9776    1.3830    0.7487 C   0  0  0  0  0  0  0  0  0  0  0  0
   -1.8179    0.2751    0.6152 C   0  0  0  0  0  0  0  0  0  0  0  0
   -3.2393    0.3932    0.6002 N   0  0  0  0  0  0  0  0  0  0  0  0
   -3.9277    1.4928    1.1169 C   0  0  0  0  0  0  0  0  0  0  0  0
   -3.4004    2.3767    1.7919 O   0  0  0  0  0  0  0  0  0  0  0  0
   -5.4048    1.6330    0.8759 C   0  0  0  0  0  0  0  0  0  0  0  0
   -5.9969    2.8417    1.3338 C   0  0  0  0  0  0  0  0  0  0  0  0
   -7.3468    3.0991    1.1442 C   0  0  0  0  0  0  0  0  0  0  0  0
   -8.0493    4.1693    1.5956 O   0  0  0  0  0  0  0  0  0  0  0  0
   -7.4524    5.4153    1.9890 C   0  0  0  0  0  0  0  0  0  0  0  0
   -7.5591    5.6162    3.5045 C   0  0  0  0  0  0  0  0  0  0  0  0
   -9.0132    5.7268    4.0074 C   0  0  0  0  0  0  0  0  0  0  0  0
   -9.9330    6.5316    3.1808 N   0  0  0  0  0  0  0  0  0  0  0  0
  -11.3262    6.2398    3.5454 C   0  0  0  0  0  0  0  0  0  0  0  0
   -9.7552    6.3232    1.7413 C   0  0  0  0  0  0  0  0  0  0  0  0
   -8.2910    6.5264    1.3514 C   0  0  0  0  0  0  0  0  0  0  0  0
   -8.1274    2.1422    0.4932 C   0  0  0  0  0  0  0  0  0  0  0  0
   -7.5886    0.9150    0.0694 C   0  0  0  0  0  0  0  0  0  0  0  0
   -8.4978   -0.1466   -0.5086 C   0  0  0  0  0  0  0  0  0  0  0  0
   -9.7890    0.2592   -0.6643 F   0  0  0  0  0  0  0  0  0  0  0  0
   -8.0914   -0.5787   -1.7335 F   0  0  0  0  0  0  0  0  0  0  0  0
   -8.5521   -1.2559    0.2800 F   0  0  0  0  0  0  0  0  0  0  0  0
   -6.2109    0.6702    0.2518 C   0  0  0  0  0  0  0  0  0  0  0  0
   -1.2256   -0.9893    0.4478 C   0  0  0  0  0  0  0  0  0  0  0  0
    0.1728   -1.1517    0.4663 C   0  0  0  0  0  0  0  0  0  0  0  0
    0.8179   -2.4072    0.4358 N   0  0  0  0  0  0  0  0  0  0  0  0
    0.5096   -3.6029    1.0190 C   0  0  0  0  0  0  0  0  0  0  0  0
    1.5214   -4.3463    1.4401 N   0  0  0  0  0  0  0  0  0  0  0  0
    1.5796   -5.3199    0.4761 C   0  0  0  0  0  0  0  0  0  0  0  0
    2.6553   -6.1333    0.1010 C   0  0  0  0  0  0  0  0  0  0  0  0
    2.5021   -6.9514   -1.0224 C   0  0  0  0  0  0  0  0  0  0  0  0
    1.2827   -7.0156   -1.7042 C   0  0  0  0  0  0  0  0  0  0  0  0
    0.1748   -6.2688   -1.2942 C   0  0  0  0  0  0  0  0  0  0  0  0
    0.3711   -5.3906   -0.2241 C   0  0  0  0  0  0  0  0  0  0  0  0
   -0.4208   -4.4826    0.4702 N   0  0  0  0  0  0  0  0  0  0  0  0
   -1.8087   -4.5836    0.7269 C   0  0  0  0  0  0  0  0  0  0  0  0
   -2.3530   -3.9680    1.8426 C   0  0  0  0  0  0  0  0  0  0  0  0
   -3.6983   -4.1779    2.0659 C   0  0  0  0  0  0  0  0  0  0  0  0
   -4.3484   -3.5890    3.1469 N   0  0  0  0  0  0  0  0  0  0  0  0
   -4.4705   -4.9035    1.2502 N   0  0  0  0  0  0  0  0  0  0  0  0
   -3.8501   -5.4728    0.2079 C   0  0  0  0  0  0  0  0  0  0  0  0
   -2.5570   -5.3652   -0.0909 N   0  0  0  0  0  0  0  0  0  0  0  0
    2.8991    0.9588    0.0387 H   0  0  0  0  0  0  0  0  0  0  0  0
    2.6810   -0.5965   -0.7472 H   0  0  0  0  0  0  0  0  0  0  0  0
    3.0059   -0.5152    1.0106 H   0  0  0  0  0  0  0  0  0  0  0  0
    1.0177    2.1574    0.6847 H   0  0  0  0  0  0  0  0  0  0  0  0
   -1.3700    2.3853    0.8859 H   0  0  0  0  0  0  0  0  0  0  0  0
   -3.7491   -0.4016    0.2648 H   0  0  0  0  0  0  0  0  0  0  0  0
   -5.3850    3.5571    1.8754 H   0  0  0  0  0  0  0  0  0  0  0  0
   -6.4138    5.5066    1.6526 H   0  0  0  0  0  0  0  0  0  0  0  0
   -7.0195    6.5319    3.7801 H   0  0  0  0  0  0  0  0  0  0  0  0
   -7.0727    4.7845    4.0273 H   0  0  0  0  0  0  0  0  0  0  0  0
   -8.9822    6.1868    5.0049 H   0  0  0  0  0  0  0  0  0  0  0  0
   -9.3996    4.7101    4.1453 H   0  0  0  0  0  0  0  0  0  0  0  0
  -11.5528    6.6237    4.5449 H   0  0  0  0  0  0  0  0  0  0  0  0
  -11.5392    5.1632    3.5288 H   0  0  0  0  0  0  0  0  0  0  0  0
  -12.0273    6.7213    2.8530 H   0  0  0  0  0  0  0  0  0  0  0  0
  -10.3686    7.0399    1.1824 H   0  0  0  0  0  0  0  0  0  0  0  0
  -10.1004    5.3242    1.4457 H   0  0  0  0  0  0  0  0  0  0  0  0
   -7.9457    7.5145    1.6900 H   0  0  0  0  0  0  0  0  0  0  0  0
   -8.1960    6.5065    0.2617 H   0  0  0  0  0  0  0  0  0  0  0  0
   -9.1866    2.3534    0.3380 H   0  0  0  0  0  0  0  0  0  0  0  0
   -5.8092   -0.2815   -0.0821 H   0  0  0  0  0  0  0  0  0  0  0  0
   -1.8619   -1.8498    0.2948 H   0  0  0  0  0  0  0  0  0  0  0  0
    1.8192   -2.2722    0.5639 H   0  0  0  0  0  0  0  0  0  0  0  0
    3.6008   -6.0666    0.6279 H   0  0  0  0  0  0  0  0  0  0  0  0
    3.3500   -7.5332   -1.3760 H   0  0  0  0  0  0  0  0  0  0  0  0
    1.1950   -7.6573   -2.5779 H   0  0  0  0  0  0  0  0  0  0  0  0
   -0.7752   -6.3240   -1.8203 H   0  0  0  0  0  0  0  0  0  0  0  0
   -1.7653   -3.3768    2.5363 H   0  0  0  0  0  0  0  0  0  0  0  0
   -3.8960   -3.8017    4.0307 H   0  0  0  0  0  0  0  0  0  0  0  0
   -5.3134   -3.9142    3.1386 H   0  0  0  0  0  0  0  0  0  0  0  0
   -4.4613   -6.0847   -0.4485 H   0  0  0  0  0  0  0  0  0  0  0  0
  1  2  1  0  0  0  0
  1 46  1  0  0  0  0
  1 47  1  0  0  0  0
  1 48  1  0  0  0  0
  2  3  1  0  0  0  0
  2 28  2  0  0  0  0
  3  4  2  0  0  0  0
  3 49  1  0  0  0  0
  4  5  1  0  0  0  0
  4 50  1  0  0  0  0
  5  6  1  0  0  0  0
  5 27  2  0  0  0  0
  6  7  1  0  0  0  0
  6 51  1  0  0  0  0
  7  8  2  0  0  0  0
  7  9  1  0  0  0  0
  9 10  1  0  0  0  0
  9 26  2  0  0  0  0
 10 11  2  0  0  0  0
 10 52  1  0  0  0  0
 11 12  1  0  0  0  0
 11 20  1  0  0  0  0
 12 13  1  0  0  0  0
 13 14  1  0  0  0  0
 13 19  1  0  0  0  0
 13 53  1  0  0  0  0
 14 15  1  0  0  0  0
 14 54  1  0  0  0  0
 14 55  1  0  0  0  0
 15 16  1  0  0  0  0
 15 56  1  0  0  0  0
 15 57  1  0  0  0  0
 16 17  1  0  0  0  0
 16 18  1  0  0  0  0
 17 58  1  0  0  0  0
 17 59  1  0  0  0  0
 17 60  1  0  0  0  0
 18 19  1  0  0  0  0
 18 61  1  0  0  0  0
 18 62  1  0  0  0  0
 19 63  1  0  0  0  0
 19 64  1  0  0  0  0
 20 21  2  0  0  0  0
 20 65  1  0  0  0  0
 21 22  1  0  0  0  0
 21 26  1  0  0  0  0
 22 23  1  0  0  0  0
 22 24  1  0  0  0  0
 22 25  1  0  0  0  0
 26 66  1  0  0  0  0
 27 28  1  0  0  0  0
 27 67  1  0  0  0  0
 28 29  1  0  0  0  0
 29 30  1  0  0  0  0
 29 68  1  0  0  0  0
 30 31  2  0  0  0  0
 30 38  1  0  0  0  0
 31 32  1  0  0  0  0
 32 33  1  0  0  0  0
 32 37  2  0  0  0  0
 33 34  2  0  0  0  0
 33 69  1  0  0  0  0
 34 35  1  0  0  0  0
 34 70  1  0  0  0  0
 35 36  2  0  0  0  0
 35 71  1  0  0  0  0
 36 37  1  0  0  0  0
 36 72  1  0  0  0  0
 37 38  1  0  0  0  0
 38 39  1  0  0  0  0
 39 40  1  0  0  0  0
 39 45  2  0  0  0  0
 40 41  2  0  0  0  0
 40 73  1  0  0  0  0
 41 42  1  0  0  0  0
 41 43  1  0  0  0  0
 42 74  1  0  0  0  0
 42 75  1  0  0  0  0
 43 44  2  0  0  0  0
 44 45  1  0  0  0  0
 44 76  1  0  0  0  0
M  END
$$$$
