CHEMBL587723
 OpenBabel04072215383D

 65 69  0  0  1  0  0  0  0  0999 V2000
   13.8676  -11.7561    4.4974 C   0  0  0  0  0  0  0  0  0  0  0  0
   14.5820  -10.6828    3.6863 C   0  0  0  0  0  0  0  0  0  0  0  0
   14.0161  -10.4779    2.3447 N   0  0  0  0  0  0  0  0  0  0  0  0
   14.8336   -9.4929    1.5986 C   0  0  0  0  0  0  0  0  0  0  0  0
   14.6203   -8.0237    2.0453 C   0  0  0  0  0  0  0  0  0  0  0  0
   13.2129   -7.5699    1.9847 N   0  0  0  0  0  0  0  0  0  0  0  0
   12.6775   -7.4770    0.6101 C   0  0  0  0  0  0  0  0  0  0  0  0
   13.4211   -6.5313   -0.3050 C   0  0  0  0  0  0  0  0  0  0  0  0
   14.4997   -6.9959   -1.0645 C   0  0  0  0  0  0  0  0  0  0  0  0
   15.2299   -6.1276   -1.8687 C   0  0  0  0  0  0  0  0  0  0  0  0
   14.8881   -4.7734   -1.9656 C   0  0  0  0  0  0  0  0  0  0  0  0
   15.7359   -3.8804   -2.7602 C   0  0  0  0  0  0  0  0  0  0  0  0
   16.9849   -4.1134   -3.3239 C   0  0  0  0  0  0  0  0  0  0  0  0
   17.4456   -2.9197   -3.9362 C   0  0  0  0  0  0  0  0  0  0  0  0
   18.6017   -2.5165   -4.6249 C   0  0  0  0  0  0  0  0  0  0  0  0
   19.6638   -3.3812   -4.8150 N   0  0  0  0  0  0  0  0  0  0  0  0
   20.5707   -3.1940   -5.9391 C   0  0  2  0  0  0  0  0  0  0  0  0
   19.8554   -3.3445   -7.2857 C   0  0  0  0  0  0  0  0  0  0  0  0
   21.6943   -4.2199   -5.8109 C   0  0  0  0  0  0  0  0  0  0  0  0
   23.0229   -3.7953   -5.6607 C   0  0  0  0  0  0  0  0  0  0  0  0
   24.0512   -4.7237   -5.4784 C   0  0  0  0  0  0  0  0  0  0  0  0
   23.7670   -6.0875   -5.4424 C   0  0  0  0  0  0  0  0  0  0  0  0
   22.4580   -6.5285   -5.6144 C   0  0  0  0  0  0  0  0  0  0  0  0
   21.4306   -5.6032   -5.8053 C   0  0  0  0  0  0  0  0  0  0  0  0
   18.6492   -1.2438   -5.0849 N   0  0  0  0  0  0  0  0  0  0  0  0
   17.5974   -0.4323   -4.8459 C   0  0  0  0  0  0  0  0  0  0  0  0
   16.4518   -0.7145   -4.1966 N   0  0  0  0  0  0  0  0  0  0  0  0
   16.4478   -1.9849   -3.7667 C   0  0  0  0  0  0  0  0  0  0  0  0
   15.4265   -2.5683   -3.0635 N   0  0  0  0  0  0  0  0  0  0  0  0
   13.7708   -4.3200   -1.2501 C   0  0  0  0  0  0  0  0  0  0  0  0
   13.0536   -5.1869   -0.4160 C   0  0  0  0  0  0  0  0  0  0  0  0
   12.4022   -8.5367    2.7656 C   0  0  0  0  0  0  0  0  0  0  0  0
   12.6097  -10.0193    2.3568 C   0  0  0  0  0  0  0  0  0  0  0  0
   14.3887  -11.9045    5.4484 H   0  0  0  0  0  0  0  0  0  0  0  0
   13.8540  -12.7115    3.9638 H   0  0  0  0  0  0  0  0  0  0  0  0
   12.8394  -11.4728    4.7381 H   0  0  0  0  0  0  0  0  0  0  0  0
   15.6234  -11.0116    3.5738 H   0  0  0  0  0  0  0  0  0  0  0  0
   14.6050   -9.7566    4.2697 H   0  0  0  0  0  0  0  0  0  0  0  0
   14.5851   -9.5974    0.5368 H   0  0  0  0  0  0  0  0  0  0  0  0
   15.8990   -9.7466    1.6640 H   0  0  0  0  0  0  0  0  0  0  0  0
   15.2804   -7.3554    1.4833 H   0  0  0  0  0  0  0  0  0  0  0  0
   14.9655   -7.9120    3.0823 H   0  0  0  0  0  0  0  0  0  0  0  0
   11.6385   -7.1259    0.6687 H   0  0  0  0  0  0  0  0  0  0  0  0
   12.6247   -8.4515    0.1125 H   0  0  0  0  0  0  0  0  0  0  0  0
   14.8066   -8.0361   -1.0188 H   0  0  0  0  0  0  0  0  0  0  0  0
   16.0808   -6.5324   -2.4077 H   0  0  0  0  0  0  0  0  0  0  0  0
   17.5319   -5.0447   -3.2806 H   0  0  0  0  0  0  0  0  0  0  0  0
   19.5000   -4.3327   -4.5217 H   0  0  0  0  0  0  0  0  0  0  0  0
   21.0058   -2.1878   -5.8853 H   0  0  0  0  0  0  0  0  0  0  0  0
   19.4197   -4.3411   -7.4152 H   0  0  0  0  0  0  0  0  0  0  0  0
   20.5545   -3.1752   -8.1123 H   0  0  0  0  0  0  0  0  0  0  0  0
   19.0403   -2.6216   -7.3948 H   0  0  0  0  0  0  0  0  0  0  0  0
   23.2655   -2.7349   -5.6722 H   0  0  0  0  0  0  0  0  0  0  0  0
   25.0748   -4.3804   -5.3523 H   0  0  0  0  0  0  0  0  0  0  0  0
   24.5656   -6.8061   -5.2783 H   0  0  0  0  0  0  0  0  0  0  0  0
   22.2344   -7.5919   -5.5914 H   0  0  0  0  0  0  0  0  0  0  0  0
   20.4152   -5.9709   -5.9351 H   0  0  0  0  0  0  0  0  0  0  0  0
   17.6851    0.5812   -5.2277 H   0  0  0  0  0  0  0  0  0  0  0  0
   14.5800   -2.0847   -2.8076 H   0  0  0  0  0  0  0  0  0  0  0  0
   13.4473   -3.2844   -1.3017 H   0  0  0  0  0  0  0  0  0  0  0  0
   12.2093   -4.8047    0.1532 H   0  0  0  0  0  0  0  0  0  0  0  0
   11.3380   -8.2814    2.6897 H   0  0  0  0  0  0  0  0  0  0  0  0
   12.6523   -8.4203    3.8283 H   0  0  0  0  0  0  0  0  0  0  0  0
   12.2065  -10.1711    1.3473 H   0  0  0  0  0  0  0  0  0  0  0  0
   11.9840  -10.6604    2.9845 H   0  0  0  0  0  0  0  0  0  0  0  0
  1  2  1  0  0  0  0
  1 34  1  0  0  0  0
  1 35  1  0  0  0  0
  1 36  1  0  0  0  0
  2  3  1  0  0  0  0
  2 37  1  0  0  0  0
  2 38  1  0  0  0  0
  3  4  1  0  0  0  0
  3 33  1  0  0  0  0
  4  5  1  0  0  0  0
  4 39  1  0  0  0  0
  4 40  1  0  0  0  0
  5  6  1  0  0  0  0
  5 41  1  0  0  0  0
  5 42  1  0  0  0  0
  6  7  1  0  0  0  0
  6 32  1  0  0  0  0
  7  8  1  0  0  0  0
  7 43  1  0  0  0  0
  7 44  1  0  0  0  0
  8  9  1  0  0  0  0
  8 31  2  0  0  0  0
  9 10  2  0  0  0  0
  9 45  1  0  0  0  0
 10 11  1  0  0  0  0
 10 46  1  0  0  0  0
 11 12  1  0  0  0  0
 11 30  2  0  0  0  0
 12 13  2  0  0  0  0
 12 29  1  0  0  0  0
 13 14  1  0  0  0  0
 13 47  1  0  0  0  0
 14 15  1  0  0  0  0
 14 28  2  0  0  0  0
 15 16  1  0  0  0  0
 15 25  2  0  0  0  0
 16 48  1  0  0  0  0
 17 19  1  0  0  0  0
 17 18  1  0  0  0  0
 17 16  1  0  0  0  0
 17 49  1  1  0  0  0
 18 50  1  0  0  0  0
 18 51  1  0  0  0  0
 18 52  1  0  0  0  0
 19 20  1  0  0  0  0
 19 24  2  0  0  0  0
 20 21  2  0  0  0  0
 20 53  1  0  0  0  0
 21 22  1  0  0  0  0
 21 54  1  0  0  0  0
 22 23  2  0  0  0  0
 22 55  1  0  0  0  0
 23 24  1  0  0  0  0
 23 56  1  0  0  0  0
 24 57  1  0  0  0  0
 25 26  1  0  0  0  0
 26 27  2  0  0  0  0
 26 58  1  0  0  0  0
 27 28  1  0  0  0  0
 28 29  1  0  0  0  0
 29 59  1  0  0  0  0
 30 31  1  0  0  0  0
 30 60  1  0  0  0  0
 31 61  1  0  0  0  0
 32 33  1  0  0  0  0
 32 62  1  0  0  0  0
 32 63  1  0  0  0  0
 33 64  1  0  0  0  0
 33 65  1  0  0  0  0
M  END
$$$$
