CHEMBL254494
 OpenBabel04072215363D

 49 54  0  0  0  0  0  0  0  0999 V2000
    2.7366   -1.2909    0.1314 O   0  0  0  0  0  0  0  0  0  0  0  0
    2.2544   -0.2852   -0.3729 C   0  0  0  0  0  0  0  0  0  0  0  0
    0.8989   -0.0770   -0.5730 N   0  0  0  0  0  0  0  0  0  0  0  0
   -0.1246   -1.0025   -0.2592 C   0  0  0  0  0  0  0  0  0  0  0  0
    0.0593   -2.0957    0.5952 C   0  0  0  0  0  0  0  0  0  0  0  0
   -0.9531   -3.0406    0.7812 C   0  0  0  0  0  0  0  0  0  0  0  0
   -2.1632   -2.8807    0.1213 C   0  0  0  0  0  0  0  0  0  0  0  0
   -3.1632   -3.7978    0.2445 O   0  0  0  0  0  0  0  0  0  0  0  0
   -2.3852   -1.7758   -0.6908 C   0  0  0  0  0  0  0  0  0  0  0  0
   -1.3723   -0.8280   -0.8695 C   0  0  0  0  0  0  0  0  0  0  0  0
    3.0113    0.7756   -0.8424 N   0  0  0  0  0  0  0  0  0  0  0  0
    4.4241    0.7840   -0.9155 C   0  0  0  0  0  0  0  0  0  0  0  0
    5.2123   -0.3791   -0.9179 C   0  0  0  0  0  0  0  0  0  0  0  0
    6.6247   -0.3294   -0.9690 C   0  0  0  0  0  0  0  0  0  0  0  0
    7.3044    0.8868   -1.0206 C   0  0  0  0  0  0  0  0  0  0  0  0
    6.5336    2.0257   -1.0376 C   0  0  0  0  0  0  0  0  0  0  0  0
    5.1134    1.9794   -1.0026 C   0  0  0  0  0  0  0  0  0  0  0  0
    4.5797    3.3831   -1.0388 C   0  0  0  0  0  0  0  0  0  0  0  0
    3.4080    3.7096   -1.0319 O   0  0  0  0  0  0  0  0  0  0  0  0
    5.7654    4.2050   -1.0839 C   0  0  0  0  0  0  0  0  0  0  0  0
    6.9087    3.4015   -1.0830 C   0  0  0  0  0  0  0  0  0  0  0  0
    8.0418    4.0836   -1.1326 N   0  0  0  0  0  0  0  0  0  0  0  0
    7.5901    5.3661   -1.1663 N   0  0  0  0  0  0  0  0  0  0  0  0
    6.2049    5.5016   -1.1660 C   0  0  0  0  0  0  0  0  0  0  0  0
    5.5206    6.7843   -1.2642 C   0  0  0  0  0  0  0  0  0  0  0  0
    4.2679    6.9815   -0.6415 C   0  0  0  0  0  0  0  0  0  0  0  0
    3.5800    8.1955   -0.7639 C   0  0  0  0  0  0  0  0  0  0  0  0
    4.1636    9.1891   -1.5163 C   0  0  0  0  0  0  0  0  0  0  0  0
    5.3835    9.0111   -2.1201 C   0  0  0  0  0  0  0  0  0  0  0  0
    6.0866    7.8309   -2.0114 C   0  0  0  0  0  0  0  0  0  0  0  0
    5.7808   10.1033   -2.8268 O   0  0  0  0  0  0  0  0  0  0  0  0
    4.6500   10.9775   -2.6276 C   0  0  0  0  0  0  0  0  0  0  0  0
    3.6375   10.4174   -1.7659 O   0  0  0  0  0  0  0  0  0  0  0  0
    0.6541    0.6666   -1.2093 H   0  0  0  0  0  0  0  0  0  0  0  0
    0.9911   -2.2492    1.1313 H   0  0  0  0  0  0  0  0  0  0  0  0
   -0.7652   -3.8908    1.4292 H   0  0  0  0  0  0  0  0  0  0  0  0
   -2.8469   -4.5217    0.8103 H   0  0  0  0  0  0  0  0  0  0  0  0
   -3.3379   -1.6626   -1.2000 H   0  0  0  0  0  0  0  0  0  0  0  0
   -1.5642    0.0206   -1.5198 H   0  0  0  0  0  0  0  0  0  0  0  0
    2.5482    1.6788   -0.9019 H   0  0  0  0  0  0  0  0  0  0  0  0
    4.7543   -1.3661   -0.8919 H   0  0  0  0  0  0  0  0  0  0  0  0
    7.1861   -1.2618   -0.9628 H   0  0  0  0  0  0  0  0  0  0  0  0
    8.3876    0.9339   -1.0496 H   0  0  0  0  0  0  0  0  0  0  0  0
    8.2780    6.1109   -1.1938 H   0  0  0  0  0  0  0  0  0  0  0  0
    3.8113    6.1849   -0.0562 H   0  0  0  0  0  0  0  0  0  0  0  0
    2.6144    8.3424   -0.2935 H   0  0  0  0  0  0  0  0  0  0  0  0
    7.0328    7.7284   -2.5299 H   0  0  0  0  0  0  0  0  0  0  0  0
    4.2006   11.1933   -3.6040 H   0  0  0  0  0  0  0  0  0  0  0  0
    5.0069   11.9154   -2.1882 H   0  0  0  0  0  0  0  0  0  0  0  0
  1  2  2  0  0  0  0
  2  3  1  0  0  0  0
  2 11  1  0  0  0  0
  3  4  1  0  0  0  0
  3 34  1  0  0  0  0
  4  5  1  0  0  0  0
  4 10  2  0  0  0  0
  5  6  2  0  0  0  0
  5 35  1  0  0  0  0
  6  7  1  0  0  0  0
  6 36  1  0  0  0  0
  7  8  1  0  0  0  0
  7  9  2  0  0  0  0
  8 37  1  0  0  0  0
  9 10  1  0  0  0  0
  9 38  1  0  0  0  0
 10 39  1  0  0  0  0
 11 12  1  0  0  0  0
 11 40  1  0  0  0  0
 12 13  1  0  0  0  0
 12 17  2  0  0  0  0
 13 14  2  0  0  0  0
 13 41  1  0  0  0  0
 14 15  1  0  0  0  0
 14 42  1  0  0  0  0
 15 16  2  0  0  0  0
 15 43  1  0  0  0  0
 16 17  1  0  0  0  0
 16 21  1  0  0  0  0
 17 18  1  0  0  0  0
 18 19  2  0  0  0  0
 18 20  1  0  0  0  0
 20 21  1  0  0  0  0
 20 24  2  0  0  0  0
 21 22  2  0  0  0  0
 22 23  1  0  0  0  0
 23 24  1  0  0  0  0
 23 44  1  0  0  0  0
 24 25  1  0  0  0  0
 25 26  1  0  0  0  0
 25 30  2  0  0  0  0
 26 27  2  0  0  0  0
 26 45  1  0  0  0  0
 27 28  1  0  0  0  0
 27 46  1  0  0  0  0
 28 29  2  0  0  0  0
 28 33  1  0  0  0  0
 29 30  1  0  0  0  0
 29 31  1  0  0  0  0
 30 47  1  0  0  0  0
 31 32  1  0  0  0  0
 32 33  1  0  0  0  0
 32 48  1  0  0  0  0
 32 49  1  0  0  0  0
M  END
$$$$
