CHEMBL327518
 OpenBabel04072215363D

 32 35  0  0  0  0  0  0  0  0999 V2000
   -0.3580    1.6800   -2.8648 C   0  0  0  0  0  0  0  0  0  0  0  0
   -0.7466    0.4599   -3.4055 C   0  0  0  0  0  0  0  0  0  0  0  0
   -1.1608   -0.5884   -2.5747 C   0  0  0  0  0  0  0  0  0  0  0  0
   -1.2071   -0.3995   -1.1755 C   0  0  0  0  0  0  0  0  0  0  0  0
   -1.5782   -1.2207   -0.0575 C   0  0  0  0  0  0  0  0  0  0  0  0
   -2.0660   -2.5938   -0.0210 C   0  0  0  0  0  0  0  0  0  0  0  0
   -2.8665   -3.1109   -1.0352 C   0  0  0  0  0  0  0  0  0  0  0  0
   -3.3152   -4.3889   -1.0845 N   0  0  0  0  0  0  0  0  0  0  0  0
   -2.9618   -5.1926   -0.0532 C   0  0  0  0  0  0  0  0  0  0  0  0
   -2.1868   -4.7847    1.0290 C   0  0  0  0  0  0  0  0  0  0  0  0
   -1.8551   -5.6770    2.1372 C   0  0  0  0  0  0  0  0  0  0  0  0
   -1.6839   -5.3101    3.5141 C   0  0  0  0  0  0  0  0  0  0  0  0
   -1.3513   -6.3814    4.3140 C   0  0  0  0  0  0  0  0  0  0  0  0
   -1.2482   -7.8344    3.4253 S   0  0  0  0  0  0  0  0  0  0  0  0
   -1.6407   -7.0323    1.9640 C   0  0  0  0  0  0  0  0  0  0  0  0
   -1.7350   -3.4595    1.0270 C   0  0  0  0  0  0  0  0  0  0  0  0
   -1.3802   -0.4583    1.0806 C   0  0  0  0  0  0  0  0  0  0  0  0
   -0.9077    0.7704    0.7005 N   0  0  0  0  0  0  0  0  0  0  0  0
   -0.8003    0.8366   -0.6681 C   0  0  0  0  0  0  0  0  0  0  0  0
   -0.3688    1.8901   -1.4832 C   0  0  0  0  0  0  0  0  0  0  0  0
   -0.0331    2.4811   -3.5259 H   0  0  0  0  0  0  0  0  0  0  0  0
   -0.7270    0.3118   -4.4833 H   0  0  0  0  0  0  0  0  0  0  0  0
   -1.4380   -1.5370   -3.0211 H   0  0  0  0  0  0  0  0  0  0  0  0
   -3.2013   -2.4962   -1.8661 H   0  0  0  0  0  0  0  0  0  0  0  0
   -3.3522   -6.2035   -0.1287 H   0  0  0  0  0  0  0  0  0  0  0  0
   -1.8028   -4.3076    3.9053 H   0  0  0  0  0  0  0  0  0  0  0  0
   -1.1649   -6.3776    5.3797 H   0  0  0  0  0  0  0  0  0  0  0  0
   -1.6790   -7.6097    1.0499 H   0  0  0  0  0  0  0  0  0  0  0  0
   -1.1025   -3.1048    1.8356 H   0  0  0  0  0  0  0  0  0  0  0  0
   -1.5363   -0.6755    2.1283 H   0  0  0  0  0  0  0  0  0  0  0  0
   -0.6710    1.5245    1.3309 H   0  0  0  0  0  0  0  0  0  0  0  0
   -0.0526    2.8400   -1.0650 H   0  0  0  0  0  0  0  0  0  0  0  0
  1  2  1  0  0  0  0
  1 20  2  0  0  0  0
  1 21  1  0  0  0  0
  2  3  2  0  0  0  0
  2 22  1  0  0  0  0
  3  4  1  0  0  0  0
  3 23  1  0  0  0  0
  4  5  1  0  0  0  0
  4 19  2  0  0  0  0
  5  6  1  0  0  0  0
  5 17  2  0  0  0  0
  6  7  1  0  0  0  0
  6 16  2  0  0  0  0
  7  8  2  0  0  0  0
  7 24  1  0  0  0  0
  8  9  1  0  0  0  0
  9 10  2  0  0  0  0
  9 25  1  0  0  0  0
 10 11  1  0  0  0  0
 10 16  1  0  0  0  0
 11 12  1  0  0  0  0
 11 15  2  0  0  0  0
 12 13  2  0  0  0  0
 12 26  1  0  0  0  0
 13 14  1  0  0  0  0
 13 27  1  0  0  0  0
 14 15  1  0  0  0  0
 15 28  1  0  0  0  0
 16 29  1  0  0  0  0
 17 18  1  0  0  0  0
 17 30  1  0  0  0  0
 18 19  1  0  0  0  0
 18 31  1  0  0  0  0
 19 20  1  0  0  0  0
 20 32  1  0  0  0  0
M  END
$$$$
