CHEMBL4086718
 OpenBabel04072215383D

 54 58  0  0  0  0  0  0  0  0999 V2000
    3.0001    0.0068   -0.3733 C   0  0  0  0  0  0  0  0  0  0  0  0
    2.6593    1.1515    0.4666 N   0  0  0  0  0  0  0  0  0  0  0  0
    3.5167    1.2018    1.6627 C   0  0  0  0  0  0  0  0  0  0  0  0
    4.9837    1.4299    1.3647 C   0  0  0  0  0  0  0  0  0  0  0  0
    5.3724    2.5320    0.6286 C   0  0  0  0  0  0  0  0  0  0  0  0
    6.7282    2.7511    0.5108 C   0  0  0  0  0  0  0  0  0  0  0  0
    7.2630    3.8673   -0.1017 O   0  0  0  0  0  0  0  0  0  0  0  0
    6.5987    5.0783   -0.0278 C   0  0  0  0  0  0  0  0  0  0  0  0
    5.8188    5.4838    1.0537 C   0  0  0  0  0  0  0  0  0  0  0  0
    5.0831    6.6759    1.0147 C   0  0  0  0  0  0  0  0  0  0  0  0
    5.2176    7.5034   -0.1123 C   0  0  0  0  0  0  0  0  0  0  0  0
    6.0707    7.1556   -1.1702 C   0  0  0  0  0  0  0  0  0  0  0  0
    6.0009    8.1931   -2.1322 C   0  0  0  0  0  0  0  0  0  0  0  0
    5.0504    9.0870   -1.7042 C   0  0  0  0  0  0  0  0  0  0  0  0
    4.5510    8.6776   -0.4782 N   0  0  0  0  0  0  0  0  0  0  0  0
    3.4728    9.3068    0.1832 C   0  0  0  0  0  0  0  0  0  0  0  0
    2.4470    9.5380   -0.4415 O   0  0  0  0  0  0  0  0  0  0  0  0
    3.8483    9.7122    1.4465 N   0  0  0  0  0  0  0  0  0  0  0  0
    3.0142   10.5752    2.1350 C   0  0  0  0  0  0  0  0  0  0  0  0
    1.6503   10.4130    2.4765 C   0  0  0  0  0  0  0  0  0  0  0  0
    1.3066   11.5653    3.1533 C   0  0  0  0  0  0  0  0  0  0  0  0
   -0.0136   11.9417    3.8536 C   0  0  0  0  0  0  0  0  0  0  0  0
   -0.1200   13.3379    4.4196 C   0  0  0  0  0  0  0  0  0  0  0  0
   -0.6999   10.8110    4.6134 C   0  0  0  0  0  0  0  0  0  0  0  0
   -1.3095   11.3219    3.3556 C   0  0  0  0  0  0  0  0  0  0  0  0
    2.4269   12.3480    3.1085 N   0  0  0  0  0  0  0  0  0  0  0  0
    3.5085   11.7185    2.6130 N   0  0  0  0  0  0  0  0  0  0  0  0
    6.7707    5.9298   -1.1231 C   0  0  0  0  0  0  0  0  0  0  0  0
    7.6455    1.8749    0.9591 N   0  0  0  0  0  0  0  0  0  0  0  0
    7.1651    0.7995    1.5959 C   0  0  0  0  0  0  0  0  0  0  0  0
    5.8746    0.5409    1.8530 N   0  0  0  0  0  0  0  0  0  0  0  0
    2.3018   -0.0410   -1.2133 H   0  0  0  0  0  0  0  0  0  0  0  0
    2.9264   -0.9325    0.1821 H   0  0  0  0  0  0  0  0  0  0  0  0
    4.0044    0.0986   -0.7957 H   0  0  0  0  0  0  0  0  0  0  0  0
    1.6924    1.0523    0.7742 H   0  0  0  0  0  0  0  0  0  0  0  0
    3.3868    0.2942    2.2637 H   0  0  0  0  0  0  0  0  0  0  0  0
    3.1773    2.0371    2.2901 H   0  0  0  0  0  0  0  0  0  0  0  0
    4.6327    3.1981    0.2036 H   0  0  0  0  0  0  0  0  0  0  0  0
    5.7312    4.8586    1.9392 H   0  0  0  0  0  0  0  0  0  0  0  0
    4.4068    6.9212    1.8276 H   0  0  0  0  0  0  0  0  0  0  0  0
    6.5536    8.2541   -3.0605 H   0  0  0  0  0  0  0  0  0  0  0  0
    4.6776    9.9980   -2.1547 H   0  0  0  0  0  0  0  0  0  0  0  0
    4.8239    9.9336    1.5706 H   0  0  0  0  0  0  0  0  0  0  0  0
    1.0225    9.5528    2.2841 H   0  0  0  0  0  0  0  0  0  0  0  0
    0.7460   13.5810    5.0435 H   0  0  0  0  0  0  0  0  0  0  0  0
   -1.0154   13.4626    5.0390 H   0  0  0  0  0  0  0  0  0  0  0  0
   -0.1783   14.0677    3.6046 H   0  0  0  0  0  0  0  0  0  0  0  0
   -1.1865   11.0449    5.5556 H   0  0  0  0  0  0  0  0  0  0  0  0
   -0.2711    9.8152    4.5969 H   0  0  0  0  0  0  0  0  0  0  0  0
   -2.2275   11.8958    3.4475 H   0  0  0  0  0  0  0  0  0  0  0  0
   -1.2932   10.6930    2.4740 H   0  0  0  0  0  0  0  0  0  0  0  0
    2.5352   13.2971    3.4477 H   0  0  0  0  0  0  0  0  0  0  0  0
    7.4092    5.6319   -1.9507 H   0  0  0  0  0  0  0  0  0  0  0  0
    7.8890    0.0699    1.9428 H   0  0  0  0  0  0  0  0  0  0  0  0
  1  2  1  0  0  0  0
  1 32  1  0  0  0  0
  1 33  1  0  0  0  0
  1 34  1  0  0  0  0
  2  3  1  0  0  0  0
  2 35  1  0  0  0  0
  3  4  1  0  0  0  0
  3 36  1  0  0  0  0
  3 37  1  0  0  0  0
  4  5  1  0  0  0  0
  4 31  2  0  0  0  0
  5  6  2  0  0  0  0
  5 38  1  0  0  0  0
  6  7  1  0  0  0  0
  6 29  1  0  0  0  0
  7  8  1  0  0  0  0
  8  9  1  0  0  0  0
  8 28  2  0  0  0  0
  9 10  2  0  0  0  0
  9 39  1  0  0  0  0
 10 11  1  0  0  0  0
 10 40  1  0  0  0  0
 11 12  2  0  0  0  0
 11 15  1  0  0  0  0
 12 13  1  0  0  0  0
 12 28  1  0  0  0  0
 13 14  2  0  0  0  0
 13 41  1  0  0  0  0
 14 15  1  0  0  0  0
 14 42  1  0  0  0  0
 15 16  1  0  0  0  0
 16 17  2  0  0  0  0
 16 18  1  0  0  0  0
 18 19  1  0  0  0  0
 18 43  1  0  0  0  0
 19 20  1  0  0  0  0
 19 27  2  0  0  0  0
 20 21  2  0  0  0  0
 20 44  1  0  0  0  0
 21 22  1  0  0  0  0
 21 26  1  0  0  0  0
 22 23  1  0  0  0  0
 22 24  1  0  0  0  0
 22 25  1  0  0  0  0
 23 45  1  0  0  0  0
 23 46  1  0  0  0  0
 23 47  1  0  0  0  0
 24 25  1  0  0  0  0
 24 48  1  0  0  0  0
 24 49  1  0  0  0  0
 25 50  1  0  0  0  0
 25 51  1  0  0  0  0
 26 27  1  0  0  0  0
 26 52  1  0  0  0  0
 28 53  1  0  0  0  0
 29 30  2  0  0  0  0
 30 31  1  0  0  0  0
 30 54  1  0  0  0  0
M  END
$$$$
