CHEMBL3759798
 OpenBabel04072215373D

 47 49  0  0  0  0  0  0  0  0999 V2000
    2.9177   -0.0396    1.5509 C   0  0  0  0  0  0  0  0  0  0  0  0
    2.4973   -0.0661    0.1923 O   0  0  0  0  0  0  0  0  0  0  0  0
    3.1598   -0.8610   -0.7002 C   0  0  0  0  0  0  0  0  0  0  0  0
    4.3820   -1.4811   -0.4173 C   0  0  0  0  0  0  0  0  0  0  0  0
    5.0037   -2.3407   -1.3108 C   0  0  0  0  0  0  0  0  0  0  0  0
    6.1469   -2.9171   -0.9308 N   0  0  0  0  0  0  0  0  0  0  0  0
    6.7220   -3.7421   -1.8085 C   0  0  0  0  0  0  0  0  0  0  0  0
    6.2752   -4.0102   -3.0344 N   0  0  0  0  0  0  0  0  0  0  0  0
    5.1340   -3.4055   -3.4198 C   0  0  0  0  0  0  0  0  0  0  0  0
    4.6742   -3.6062   -4.7517 N   0  0  0  0  0  0  0  0  0  0  0  0
    5.2304   -4.5604   -5.6338 C   0  0  0  0  0  0  0  0  0  0  0  0
    5.3962   -5.8934   -5.2265 C   0  0  0  0  0  0  0  0  0  0  0  0
    6.0161   -6.8225   -6.0594 C   0  0  0  0  0  0  0  0  0  0  0  0
    6.4619   -6.4217   -7.3104 C   0  0  0  0  0  0  0  0  0  0  0  0
    7.0856   -7.3035   -8.1016 F   0  0  0  0  0  0  0  0  0  0  0  0
    6.2794   -5.1154   -7.7506 C   0  0  0  0  0  0  0  0  0  0  0  0
    5.6560   -4.1846   -6.9155 C   0  0  0  0  0  0  0  0  0  0  0  0
    4.4123   -2.5631   -2.5585 C   0  0  0  0  0  0  0  0  0  0  0  0
    3.1769   -1.9436   -2.8630 C   0  0  0  0  0  0  0  0  0  0  0  0
    2.5701   -1.0720   -1.9571 C   0  0  0  0  0  0  0  0  0  0  0  0
    1.3887   -0.5223   -2.4025 O   0  0  0  0  0  0  0  0  0  0  0  0
    1.2848    0.8783   -2.1465 C   0  0  0  0  0  0  0  0  0  0  0  0
    0.1736    1.5087   -2.9863 C   0  0  0  0  0  0  0  0  0  0  0  0
    0.0701    2.9859   -2.6169 C   0  0  0  0  0  0  0  0  0  0  0  0
   -1.0558    3.7276   -3.2984 C   0  0  0  0  0  0  0  0  0  0  0  0
   -1.8230    3.2466   -4.1250 O   0  0  0  0  0  0  0  0  0  0  0  0
   -1.1425    5.0399   -2.8776 N   0  0  0  0  0  0  0  0  0  0  0  0
   -2.1086    5.8440   -3.5191 O   0  0  0  0  0  0  0  0  0  0  0  0
    3.6142    0.7903    1.7048 H   0  0  0  0  0  0  0  0  0  0  0  0
    3.3508   -0.9806    1.9012 H   0  0  0  0  0  0  0  0  0  0  0  0
    2.0298    0.1423    2.1636 H   0  0  0  0  0  0  0  0  0  0  0  0
    4.8960   -1.3140    0.5239 H   0  0  0  0  0  0  0  0  0  0  0  0
    7.6382   -4.2329   -1.5004 H   0  0  0  0  0  0  0  0  0  0  0  0
    4.5609   -2.7013   -5.1968 H   0  0  0  0  0  0  0  0  0  0  0  0
    5.0586   -6.2021   -4.2400 H   0  0  0  0  0  0  0  0  0  0  0  0
    6.1658   -7.8447   -5.7293 H   0  0  0  0  0  0  0  0  0  0  0  0
    6.6401   -4.8263   -8.7322 H   0  0  0  0  0  0  0  0  0  0  0  0
    5.5419   -3.1610   -7.2620 H   0  0  0  0  0  0  0  0  0  0  0  0
    2.6788   -2.1426   -3.8095 H   0  0  0  0  0  0  0  0  0  0  0  0
    2.2345    1.3783   -2.3768 H   0  0  0  0  0  0  0  0  0  0  0  0
    1.0209    1.0410   -1.0984 H   0  0  0  0  0  0  0  0  0  0  0  0
   -0.7760    0.9910   -2.8017 H   0  0  0  0  0  0  0  0  0  0  0  0
    0.3818    1.3833   -4.0557 H   0  0  0  0  0  0  0  0  0  0  0  0
    1.0094    3.4942   -2.8674 H   0  0  0  0  0  0  0  0  0  0  0  0
   -0.0850    3.0807   -1.5341 H   0  0  0  0  0  0  0  0  0  0  0  0
   -0.3853    5.5218   -2.4086 H   0  0  0  0  0  0  0  0  0  0  0  0
   -2.5507    5.2039   -4.1185 H   0  0  0  0  0  0  0  0  0  0  0  0
  1  2  1  0  0  0  0
  1 29  1  0  0  0  0
  1 30  1  0  0  0  0
  1 31  1  0  0  0  0
  2  3  1  0  0  0  0
  3  4  1  0  0  0  0
  3 20  2  0  0  0  0
  4  5  2  0  0  0  0
  4 32  1  0  0  0  0
  5  6  1  0  0  0  0
  5 18  1  0  0  0  0
  6  7  2  0  0  0  0
  7  8  1  0  0  0  0
  7 33  1  0  0  0  0
  8  9  2  0  0  0  0
  9 10  1  0  0  0  0
  9 18  1  0  0  0  0
 10 11  1  0  0  0  0
 10 34  1  0  0  0  0
 11 12  1  0  0  0  0
 11 17  2  0  0  0  0
 12 13  2  0  0  0  0
 12 35  1  0  0  0  0
 13 14  1  0  0  0  0
 13 36  1  0  0  0  0
 14 15  1  0  0  0  0
 14 16  2  0  0  0  0
 16 17  1  0  0  0  0
 16 37  1  0  0  0  0
 17 38  1  0  0  0  0
 18 19  2  0  0  0  0
 19 20  1  0  0  0  0
 19 39  1  0  0  0  0
 20 21  1  0  0  0  0
 21 22  1  0  0  0  0
 22 23  1  0  0  0  0
 22 40  1  0  0  0  0
 22 41  1  0  0  0  0
 23 24  1  0  0  0  0
 23 42  1  0  0  0  0
 23 43  1  0  0  0  0
 24 25  1  0  0  0  0
 24 44  1  0  0  0  0
 24 45  1  0  0  0  0
 25 26  2  0  0  0  0
 25 27  1  0  0  0  0
 27 28  1  0  0  0  0
 27 46  1  0  0  0  0
 28 47  1  0  0  0  0
M  END
$$$$
