CHEMBL566010
 OpenBabel04072215383D

 60 64  0  0  0  0  0  0  0  0999 V2000
    4.4145    2.8780    0.6952 O   0  0  0  0  0  0  0  0  0  0  0  0
    4.0254    1.7873    0.2806 C   0  0  0  0  0  0  0  0  0  0  0  0
    2.9111    1.0501    0.9793 C   0  0  0  0  0  0  0  0  0  0  0  0
    1.8815    1.8978    1.6970 C   0  0  0  0  0  0  0  0  0  0  0  0
    0.7636    1.4236    1.8994 O   0  0  0  0  0  0  0  0  0  0  0  0
    2.3026    3.1508    2.0974 N   0  0  0  0  0  0  0  0  0  0  0  0
    1.5248    4.1322    2.7326 C   0  0  0  0  0  0  0  0  0  0  0  0
    0.3451    3.8393    3.4161 C   0  0  0  0  0  0  0  0  0  0  0  0
   -0.4445    4.8670    3.9287 C   0  0  0  0  0  0  0  0  0  0  0  0
   -0.0603    6.1975    3.7682 C   0  0  0  0  0  0  0  0  0  0  0  0
   -0.9855    7.1131    4.2001 O   0  0  0  0  0  0  0  0  0  0  0  0
   -0.5888    8.3361    4.6762 C   0  0  0  0  0  0  0  0  0  0  0  0
    0.5522    8.5280    5.4552 C   0  0  0  0  0  0  0  0  0  0  0  0
    0.8393    9.7966    5.9162 C   0  0  0  0  0  0  0  0  0  0  0  0
    0.0602   10.8766    5.7418 N   0  0  0  0  0  0  0  0  0  0  0  0
   -1.0796   10.6698    5.0318 C   0  0  0  0  0  0  0  0  0  0  0  0
   -2.0630   11.6613    4.7950 C   0  0  0  0  0  0  0  0  0  0  0  0
   -3.0700   11.2440    3.9496 C   0  0  0  0  0  0  0  0  0  0  0  0
   -4.1827   12.0116    3.4025 C   0  0  0  0  0  0  0  0  0  0  0  0
   -5.3093   11.5369    3.2578 O   0  0  0  0  0  0  0  0  0  0  0  0
   -3.9135   13.3327    3.0400 N   0  0  0  0  0  0  0  0  0  0  0  0
   -4.9530   14.2120    2.5345 C   0  0  0  0  0  0  0  0  0  0  0  0
   -4.2438   15.0303    1.4668 C   0  0  0  0  0  0  0  0  0  0  0  0
   -2.8379   15.1949    2.0250 C   0  0  0  0  0  0  0  0  0  0  0  0
   -2.6000   13.9228    2.8272 C   0  0  0  0  0  0  0  0  0  0  0  0
   -2.9131    9.5731    3.6025 S   0  0  0  0  0  0  0  0  0  0  0  0
   -1.4269    9.4448    4.4721 C   0  0  0  0  0  0  0  0  0  0  0  0
    1.1386    6.4842    3.1133 C   0  0  0  0  0  0  0  0  0  0  0  0
    1.5340    7.7480    2.9009 F   0  0  0  0  0  0  0  0  0  0  0  0
    1.9491    5.4597    2.6305 C   0  0  0  0  0  0  0  0  0  0  0  0
    4.5355    1.1190   -0.8170 N   0  0  0  0  0  0  0  0  0  0  0  0
    5.6205    1.5558   -1.6086 C   0  0  0  0  0  0  0  0  0  0  0  0
    6.5119    2.5538   -1.2053 C   0  0  0  0  0  0  0  0  0  0  0  0
    7.5336    2.9833   -2.0534 C   0  0  0  0  0  0  0  0  0  0  0  0
    7.6839    2.4016   -3.3099 C   0  0  0  0  0  0  0  0  0  0  0  0
    6.8238    1.3815   -3.7061 C   0  0  0  0  0  0  0  0  0  0  0  0
    5.8025    0.9502   -2.8563 C   0  0  0  0  0  0  0  0  0  0  0  0
    3.3629    0.3807    1.7194 H   0  0  0  0  0  0  0  0  0  0  0  0
    2.3672    0.4435    0.2461 H   0  0  0  0  0  0  0  0  0  0  0  0
    3.1962    3.4690    1.7136 H   0  0  0  0  0  0  0  0  0  0  0  0
    0.0100    2.8161    3.5573 H   0  0  0  0  0  0  0  0  0  0  0  0
   -1.3780    4.6247    4.4309 H   0  0  0  0  0  0  0  0  0  0  0  0
    1.2253    7.7117    5.6899 H   0  0  0  0  0  0  0  0  0  0  0  0
    1.7516    9.9818    6.4776 H   0  0  0  0  0  0  0  0  0  0  0  0
   -1.9943   12.6525    5.2142 H   0  0  0  0  0  0  0  0  0  0  0  0
   -5.2664   14.8533    3.3671 H   0  0  0  0  0  0  0  0  0  0  0  0
   -5.8248   13.6755    2.1519 H   0  0  0  0  0  0  0  0  0  0  0  0
   -4.7317   15.9892    1.2716 H   0  0  0  0  0  0  0  0  0  0  0  0
   -4.2029   14.4650    0.5285 H   0  0  0  0  0  0  0  0  0  0  0  0
   -2.7911   16.0671    2.6873 H   0  0  0  0  0  0  0  0  0  0  0  0
   -2.0847   15.3290    1.2428 H   0  0  0  0  0  0  0  0  0  0  0  0
   -2.1551   14.1861    3.7896 H   0  0  0  0  0  0  0  0  0  0  0  0
   -1.9546   13.2148    2.2992 H   0  0  0  0  0  0  0  0  0  0  0  0
    2.8711    5.7246    2.1208 H   0  0  0  0  0  0  0  0  0  0  0  0
    4.0191    0.3205   -1.1667 H   0  0  0  0  0  0  0  0  0  0  0  0
    6.4468    3.0175   -0.2253 H   0  0  0  0  0  0  0  0  0  0  0  0
    8.2112    3.7676   -1.7217 H   0  0  0  0  0  0  0  0  0  0  0  0
    8.4718    2.7494   -3.9708 H   0  0  0  0  0  0  0  0  0  0  0  0
    6.9462    0.9265   -4.6854 H   0  0  0  0  0  0  0  0  0  0  0  0
    5.1400    0.1600   -3.1988 H   0  0  0  0  0  0  0  0  0  0  0  0
  1  2  2  0  0  0  0
  2  3  1  0  0  0  0
  2 31  1  0  0  0  0
  3  4  1  0  0  0  0
  3 38  1  0  0  0  0
  3 39  1  0  0  0  0
  4  5  2  0  0  0  0
  4  6  1  0  0  0  0
  6  7  1  0  0  0  0
  6 40  1  0  0  0  0
  7  8  1  0  0  0  0
  7 30  2  0  0  0  0
  8  9  2  0  0  0  0
  8 41  1  0  0  0  0
  9 10  1  0  0  0  0
  9 42  1  0  0  0  0
 10 11  1  0  0  0  0
 10 28  2  0  0  0  0
 11 12  1  0  0  0  0
 12 13  1  0  0  0  0
 12 27  2  0  0  0  0
 13 14  2  0  0  0  0
 13 43  1  0  0  0  0
 14 15  1  0  0  0  0
 14 44  1  0  0  0  0
 15 16  2  0  0  0  0
 16 17  1  0  0  0  0
 16 27  1  0  0  0  0
 17 18  2  0  0  0  0
 17 45  1  0  0  0  0
 18 19  1  0  0  0  0
 18 26  1  0  0  0  0
 19 20  2  0  0  0  0
 19 21  1  0  0  0  0
 21 22  1  0  0  0  0
 21 25  1  0  0  0  0
 22 23  1  0  0  0  0
 22 46  1  0  0  0  0
 22 47  1  0  0  0  0
 23 24  1  0  0  0  0
 23 48  1  0  0  0  0
 23 49  1  0  0  0  0
 24 25  1  0  0  0  0
 24 50  1  0  0  0  0
 24 51  1  0  0  0  0
 25 52  1  0  0  0  0
 25 53  1  0  0  0  0
 26 27  1  0  0  0  0
 28 29  1  0  0  0  0
 28 30  1  0  0  0  0
 30 54  1  0  0  0  0
 31 32  1  0  0  0  0
 31 55  1  0  0  0  0
 32 33  1  0  0  0  0
 32 37  2  0  0  0  0
 33 34  2  0  0  0  0
 33 56  1  0  0  0  0
 34 35  1  0  0  0  0
 34 57  1  0  0  0  0
 35 36  2  0  0  0  0
 35 58  1  0  0  0  0
 36 37  1  0  0  0  0
 36 59  1  0  0  0  0
 37 60  1  0  0  0  0
M  END
$$$$
