CHEMBL4473253
 OpenBabel04072215383D

 55 59  0  0  0  0  0  0  0  0999 V2000
   15.7238   11.0718    7.3372 C   0  0  0  0  0  0  0  0  0  0  0  0
   14.9208   10.9494    6.1657 O   0  0  0  0  0  0  0  0  0  0  0  0
   13.8744   10.0698    6.3367 C   0  0  0  0  0  0  0  0  0  0  0  0
   13.0450    9.8651    5.2458 C   0  0  0  0  0  0  0  0  0  0  0  0
   12.0082    8.9346    5.3652 C   0  0  0  0  0  0  0  0  0  0  0  0
   11.8282    8.2131    6.5544 C   0  0  0  0  0  0  0  0  0  0  0  0
   10.8139    7.1478    6.7032 C   0  0  0  0  0  0  0  0  0  0  0  0
   10.4607    6.3171    5.6255 C   0  0  0  0  0  0  0  0  0  0  0  0
    9.5579    5.2567    5.7806 C   0  0  0  0  0  0  0  0  0  0  0  0
    8.9830    4.9866    7.0276 C   0  0  0  0  0  0  0  0  0  0  0  0
    8.0144    3.8433    7.2066 C   0  0  0  0  0  0  0  0  0  0  0  0
    8.5022    2.8495    8.1480 N   0  0  0  0  0  0  0  0  0  0  0  0
    9.2700    1.7601    7.8675 C   0  0  0  0  0  0  0  0  0  0  0  0
    9.3885    1.1053    9.0747 C   0  0  0  0  0  0  0  0  0  0  0  0
   10.1234   -0.1274    9.3060 C   0  0  0  0  0  0  0  0  0  0  0  0
   10.8270   -0.7300    8.2609 C   0  0  0  0  0  0  0  0  0  0  0  0
   11.5434   -1.9119    8.4529 C   0  0  0  0  0  0  0  0  0  0  0  0
   11.5832   -2.5362    9.6974 C   0  0  0  0  0  0  0  0  0  0  0  0
   12.2970   -3.7372    9.9247 N   0  0  0  0  0  0  0  0  0  0  0  0
   13.0465   -4.4278    8.9864 C   0  0  0  0  0  0  0  0  0  0  0  0
   13.2444   -4.1004    7.8232 O   0  0  0  0  0  0  0  0  0  0  0  0
   13.6660   -5.7129    9.4167 C   0  0  0  0  0  0  0  0  0  0  0  0
   12.7576   -6.8638    9.7832 C   0  0  0  0  0  0  0  0  0  0  0  0
   13.7080   -6.2991   10.8001 C   0  0  0  0  0  0  0  0  0  0  0  0
   10.8785   -1.9455   10.7537 C   0  0  0  0  0  0  0  0  0  0  0  0
   10.1553   -0.7500   10.5611 C   0  0  0  0  0  0  0  0  0  0  0  0
    8.6878    1.8038   10.0268 N   0  0  0  0  0  0  0  0  0  0  0  0
    8.1372    2.8659    9.4443 N   0  0  0  0  0  0  0  0  0  0  0  0
    9.3069    5.8203    8.1031 C   0  0  0  0  0  0  0  0  0  0  0  0
   10.2012    6.8835    7.9402 C   0  0  0  0  0  0  0  0  0  0  0  0
   12.7156    8.5288    7.5876 C   0  0  0  0  0  0  0  0  0  0  0  0
   13.7185    9.4351    7.5127 N   0  0  0  0  0  0  0  0  0  0  0  0
   16.5877   11.6955    7.0901 H   0  0  0  0  0  0  0  0  0  0  0  0
   16.1078   10.1012    7.6732 H   0  0  0  0  0  0  0  0  0  0  0  0
   15.1647   11.5699    8.1369 H   0  0  0  0  0  0  0  0  0  0  0  0
   13.2090   10.4026    4.3205 H   0  0  0  0  0  0  0  0  0  0  0  0
   11.3538    8.7771    4.5115 H   0  0  0  0  0  0  0  0  0  0  0  0
   10.9094    6.4664    4.6450 H   0  0  0  0  0  0  0  0  0  0  0  0
    9.3244    4.6425    4.9131 H   0  0  0  0  0  0  0  0  0  0  0  0
    7.8457    3.3224    6.2558 H   0  0  0  0  0  0  0  0  0  0  0  0
    7.0444    4.2100    7.5583 H   0  0  0  0  0  0  0  0  0  0  0  0
    9.6436    1.5627    6.8753 H   0  0  0  0  0  0  0  0  0  0  0  0
   10.8430   -0.3002    7.2645 H   0  0  0  0  0  0  0  0  0  0  0  0
   12.0562   -2.3099    7.5854 H   0  0  0  0  0  0  0  0  0  0  0  0
   12.2367   -4.1276   10.8533 H   0  0  0  0  0  0  0  0  0  0  0  0
   14.5225   -5.9628    8.7917 H   0  0  0  0  0  0  0  0  0  0  0  0
   12.9773   -7.8227    9.3271 H   0  0  0  0  0  0  0  0  0  0  0  0
   11.6984   -6.6689    9.9089 H   0  0  0  0  0  0  0  0  0  0  0  0
   14.5789   -6.8984   11.0530 H   0  0  0  0  0  0  0  0  0  0  0  0
   13.3075   -5.7544   11.6421 H   0  0  0  0  0  0  0  0  0  0  0  0
   10.8762   -2.3961   11.7443 H   0  0  0  0  0  0  0  0  0  0  0  0
    9.6171   -0.3119   11.4004 H   0  0  0  0  0  0  0  0  0  0  0  0
    8.8752    5.6433    9.0878 H   0  0  0  0  0  0  0  0  0  0  0  0
   10.4142    7.5006    8.8112 H   0  0  0  0  0  0  0  0  0  0  0  0
   12.6689    8.0206    8.5475 H   0  0  0  0  0  0  0  0  0  0  0  0
  1  2  1  0  0  0  0
  1 33  1  0  0  0  0
  1 34  1  0  0  0  0
  1 35  1  0  0  0  0
  2  3  1  0  0  0  0
  3  4  1  0  0  0  0
  3 32  2  0  0  0  0
  4  5  2  0  0  0  0
  4 36  1  0  0  0  0
  5  6  1  0  0  0  0
  5 37  1  0  0  0  0
  6  7  1  0  0  0  0
  6 31  2  0  0  0  0
  7  8  1  0  0  0  0
  7 30  2  0  0  0  0
  8  9  2  0  0  0  0
  8 38  1  0  0  0  0
  9 10  1  0  0  0  0
  9 39  1  0  0  0  0
 10 11  1  0  0  0  0
 10 29  2  0  0  0  0
 11 12  1  0  0  0  0
 11 40  1  0  0  0  0
 11 41  1  0  0  0  0
 12 13  1  0  0  0  0
 12 28  1  0  0  0  0
 13 14  2  0  0  0  0
 13 42  1  0  0  0  0
 14 15  1  0  0  0  0
 14 27  1  0  0  0  0
 15 16  1  0  0  0  0
 15 26  2  0  0  0  0
 16 17  2  0  0  0  0
 16 43  1  0  0  0  0
 17 18  1  0  0  0  0
 17 44  1  0  0  0  0
 18 19  1  0  0  0  0
 18 25  2  0  0  0  0
 19 20  1  0  0  0  0
 19 45  1  0  0  0  0
 20 21  2  0  0  0  0
 20 22  1  0  0  0  0
 22 23  1  0  0  0  0
 22 24  1  0  0  0  0
 22 46  1  0  0  0  0
 23 24  1  0  0  0  0
 23 47  1  0  0  0  0
 23 48  1  0  0  0  0
 24 49  1  0  0  0  0
 24 50  1  0  0  0  0
 25 26  1  0  0  0  0
 25 51  1  0  0  0  0
 26 52  1  0  0  0  0
 27 28  2  0  0  0  0
 29 30  1  0  0  0  0
 29 53  1  0  0  0  0
 30 54  1  0  0  0  0
 31 32  1  0  0  0  0
 31 55  1  0  0  0  0
M  END
$$$$
