CHEMBL2001751
 OpenBabel04072215363D

 60 65  0  0  1  0  0  0  0  0999 V2000
    1.9110   -0.0252    0.3261 N   0  0  0  0  0  0  0  0  0  0  0  0
    2.8450   -1.0321   -0.2066 C   0  0  3  0  0  0  0  0  0  0  0  0
    3.3593   -0.6376   -1.6164 C   0  0  0  0  0  0  0  0  0  0  0  0
    2.3108   -0.4796   -2.5808 O   0  0  0  0  0  0  0  0  0  0  0  0
    2.7266   -0.0715   -3.8272 C   0  0  0  0  0  0  0  0  0  0  0  0
    1.7558    0.0888   -4.8038 C   0  0  0  0  0  0  0  0  0  0  0  0
    2.0133    0.4926   -6.0728 N   0  0  0  0  0  0  0  0  0  0  0  0
    3.3083    0.7555   -6.3837 C   0  0  0  0  0  0  0  0  0  0  0  0
    4.3802    0.6443   -5.4989 C   0  0  0  0  0  0  0  0  0  0  0  0
    5.7838    0.9591   -5.8731 C   0  0  0  0  0  0  0  0  0  0  0  0
    6.8585    0.2174   -5.3106 C   0  0  0  0  0  0  0  0  0  0  0  0
    8.1980    0.4963   -5.6011 C   0  0  0  0  0  0  0  0  0  0  0  0
    8.4514    1.5196   -6.4837 C   0  0  0  0  0  0  0  0  0  0  0  0
    7.4353    2.2746   -7.0730 C   0  0  0  0  0  0  0  0  0  0  0  0
    6.1021    2.0076   -6.7735 C   0  0  0  0  0  0  0  0  0  0  0  0
    8.1175    3.2436   -7.9507 C   0  0  0  0  0  0  0  0  0  0  0  0
    7.5337    4.1600   -8.7357 C   0  0  0  0  0  0  0  0  0  0  0  0
    8.2745    5.0026   -9.6079 C   0  0  0  0  0  0  0  0  0  0  0  0
    8.8817    6.2291   -9.3618 C   0  0  0  0  0  0  0  0  0  0  0  0
    9.4907    6.6601  -10.5656 C   0  0  0  0  0  0  0  0  0  0  0  0
    9.2257    5.6826  -11.4890 C   0  0  0  0  0  0  0  0  0  0  0  0
    8.4816    4.6955  -10.9337 O   0  0  0  0  0  0  0  0  0  0  0  0
    9.6035    2.9894   -7.8163 C   0  0  0  0  0  0  0  0  0  0  0  0
   10.5329    3.5654   -8.3428 O   0  0  0  0  0  0  0  0  0  0  0  0
    9.7019    1.9383   -6.9178 N   0  0  0  0  0  0  0  0  0  0  0  0
    4.0460    0.2105   -4.2002 C   0  0  0  0  0  0  0  0  0  0  0  0
    4.0922   -1.1964    0.6938 C   0  0  0  0  0  0  0  0  0  0  0  0
    3.8846   -1.7466    2.0708 C   0  0  0  0  0  0  0  0  0  0  0  0
    3.3898   -2.9973    2.3858 C   0  0  0  0  0  0  0  0  0  0  0  0
    3.5101   -3.1820    3.7352 N   0  0  0  0  0  0  0  0  0  0  0  0
    4.1136   -2.0921    4.3158 C   0  0  0  0  0  0  0  0  0  0  0  0
    4.5218   -1.8828    5.6382 C   0  0  0  0  0  0  0  0  0  0  0  0
    5.1009   -0.6506    5.9542 C   0  0  0  0  0  0  0  0  0  0  0  0
    5.2372    0.3424    4.9885 C   0  0  0  0  0  0  0  0  0  0  0  0
    4.8385    0.1104    3.6653 C   0  0  0  0  0  0  0  0  0  0  0  0
    4.2884   -1.1393    3.3088 C   0  0  0  0  0  0  0  0  0  0  0  0
    1.1833    0.1498   -0.3677 H   0  0  0  0  0  0  0  0  0  0  0  0
    2.3899    0.8614    0.4710 H   0  0  0  0  0  0  0  0  0  0  0  0
    2.2966   -1.9786   -0.2794 H   0  0  0  0  0  0  0  0  0  0  0  0
    4.0352   -1.4290   -1.9662 H   0  0  0  0  0  0  0  0  0  0  0  0
    3.9103    0.3072   -1.5224 H   0  0  0  0  0  0  0  0  0  0  0  0
    0.7091   -0.1079   -4.5896 H   0  0  0  0  0  0  0  0  0  0  0  0
    3.4564    1.0602   -7.4171 H   0  0  0  0  0  0  0  0  0  0  0  0
    6.6589   -0.6093   -4.6304 H   0  0  0  0  0  0  0  0  0  0  0  0
    8.9980   -0.0800   -5.1498 H   0  0  0  0  0  0  0  0  0  0  0  0
    5.3197    2.6108   -7.2230 H   0  0  0  0  0  0  0  0  0  0  0  0
    6.4560    4.2569   -8.7773 H   0  0  0  0  0  0  0  0  0  0  0  0
    8.8959    6.7426   -8.4104 H   0  0  0  0  0  0  0  0  0  0  0  0
   10.0609    7.5627  -10.7335 H   0  0  0  0  0  0  0  0  0  0  0  0
    9.4815    5.5453  -12.5301 H   0  0  0  0  0  0  0  0  0  0  0  0
   10.5900    1.5500   -6.6364 H   0  0  0  0  0  0  0  0  0  0  0  0
    4.8464    0.1125   -3.4763 H   0  0  0  0  0  0  0  0  0  0  0  0
    4.6199   -0.2347    0.7592 H   0  0  0  0  0  0  0  0  0  0  0  0
    4.7945   -1.8780    0.1925 H   0  0  0  0  0  0  0  0  0  0  0  0
    2.9886   -3.7835    1.7605 H   0  0  0  0  0  0  0  0  0  0  0  0
    3.2348   -4.0128    4.2379 H   0  0  0  0  0  0  0  0  0  0  0  0
    4.4089   -2.6522    6.3952 H   0  0  0  0  0  0  0  0  0  0  0  0
    5.4443   -0.4647    6.9696 H   0  0  0  0  0  0  0  0  0  0  0  0
    5.6673    1.3034    5.2600 H   0  0  0  0  0  0  0  0  0  0  0  0
    4.9591    0.8925    2.9223 H   0  0  0  0  0  0  0  0  0  0  0  0
  1  2  1  0  0  0  0
  1 37  1  0  0  0  0
  1 38  1  0  0  0  0
  2  3  1  0  0  0  0
  2 27  1  0  0  0  0
  2 39  1  0  0  0  0
  3  4  1  0  0  0  0
  3 40  1  0  0  0  0
  3 41  1  0  0  0  0
  4  5  1  0  0  0  0
  5  6  1  0  0  0  0
  5 26  2  0  0  0  0
  6  7  2  0  0  0  0
  6 42  1  0  0  0  0
  7  8  1  0  0  0  0
  8  9  2  0  0  0  0
  8 43  1  0  0  0  0
  9 10  1  0  0  0  0
  9 26  1  0  0  0  0
 10 11  1  0  0  0  0
 10 15  2  0  0  0  0
 11 12  2  0  0  0  0
 11 44  1  0  0  0  0
 12 13  1  0  0  0  0
 12 45  1  0  0  0  0
 13 14  2  0  0  0  0
 13 25  1  0  0  0  0
 14 15  1  0  0  0  0
 14 16  1  0  0  0  0
 15 46  1  0  0  0  0
 16 17  2  3  0  0  0
 16 23  1  0  0  0  0
 17 18  1  0  0  0  0
 17 47  1  0  0  0  0
 18 19  2  0  0  0  0
 18 22  1  0  0  0  0
 19 20  1  0  0  0  0
 19 48  1  0  0  0  0
 20 21  2  0  0  0  0
 20 49  1  0  0  0  0
 21 22  1  0  0  0  0
 21 50  1  0  0  0  0
 23 24  2  0  0  0  0
 23 25  1  0  0  0  0
 25 51  1  0  0  0  0
 26 52  1  0  0  0  0
 27 28  1  0  0  0  0
 27 53  1  0  0  0  0
 27 54  1  0  0  0  0
 28 29  2  0  0  0  0
 28 36  1  0  0  0  0
 29 30  1  0  0  0  0
 29 55  1  0  0  0  0
 30 31  1  0  0  0  0
 30 56  1  0  0  0  0
 31 32  1  0  0  0  0
 31 36  2  0  0  0  0
 32 33  2  0  0  0  0
 32 57  1  0  0  0  0
 33 34  1  0  0  0  0
 33 58  1  0  0  0  0
 34 35  2  0  0  0  0
 34 59  1  0  0  0  0
 35 36  1  0  0  0  0
 35 60  1  0  0  0  0
M  END
$$$$
