CHEMBL3957025
 OpenBabel04072215373D

 71 75  0  0  0  0  0  0  0  0999 V2000
    2.4171   -1.6158   -0.4678 C   0  0  0  0  0  0  0  0  0  0  0  0
    2.4272   -0.2516   -0.0341 O   0  0  0  0  0  0  0  0  0  0  0  0
    3.1076    0.5975   -0.8671 C   0  0  0  0  0  0  0  0  0  0  0  0
    4.1670    0.1482   -1.6546 C   0  0  0  0  0  0  0  0  0  0  0  0
    4.7124    0.9465   -2.6773 C   0  0  0  0  0  0  0  0  0  0  0  0
    5.6775    0.4859   -3.5857 C   0  0  0  0  0  0  0  0  0  0  0  0
    6.0179   -0.8837   -3.5600 N   0  0  0  0  0  0  0  0  0  0  0  0
    7.2567   -1.5063   -3.7647 C   0  0  0  0  0  0  0  0  0  0  0  0
    7.2960   -2.9010   -3.8002 C   0  0  0  0  0  0  0  0  0  0  0  0
    8.5117   -3.5826   -3.7724 C   0  0  0  0  0  0  0  0  0  0  0  0
    9.7237   -2.8950   -3.6602 C   0  0  0  0  0  0  0  0  0  0  0  0
   10.9625   -3.5736   -3.4559 N   0  0  0  0  0  0  0  0  0  0  0  0
   11.0806   -4.8774   -3.0376 C   0  0  0  0  0  0  0  0  0  0  0  0
   10.1251   -5.6329   -2.8748 O   0  0  0  0  0  0  0  0  0  0  0  0
   12.3792   -5.2512   -2.7405 N   0  0  0  0  0  0  0  0  0  0  0  0
   12.5838   -6.5574   -2.2273 C   0  0  0  0  0  0  0  0  0  0  0  0
   12.0173   -7.6720   -2.8637 C   0  0  0  0  0  0  0  0  0  0  0  0
   12.0249   -8.9211   -2.2446 C   0  0  0  0  0  0  0  0  0  0  0  0
   12.6106   -9.0566   -0.9905 C   0  0  0  0  0  0  0  0  0  0  0  0
   12.5370  -10.5703   -0.1765 Cl  0  0  0  0  0  0  0  0  0  0  0  0
   13.2331   -7.9666   -0.3785 C   0  0  0  0  0  0  0  0  0  0  0  0
   13.2443   -6.7170   -1.0089 C   0  0  0  0  0  0  0  0  0  0  0  0
    9.6901   -1.4945   -3.6948 C   0  0  0  0  0  0  0  0  0  0  0  0
   11.1434   -0.5621   -3.5803 Cl  0  0  0  0  0  0  0  0  0  0  0  0
    8.4687   -0.8105   -3.7366 C   0  0  0  0  0  0  0  0  0  0  0  0
    6.2186    1.2803   -4.5206 N   0  0  0  0  0  0  0  0  0  0  0  0
    5.7462    2.5308   -4.5695 C   0  0  0  0  0  0  0  0  0  0  0  0
    4.8023    3.0624   -3.7758 N   0  0  0  0  0  0  0  0  0  0  0  0
    4.2919    2.2652   -2.8282 C   0  0  0  0  0  0  0  0  0  0  0  0
    3.3111    2.7404   -1.9583 C   0  0  0  0  0  0  0  0  0  0  0  0
    2.7196    1.9333   -0.9707 C   0  0  0  0  0  0  0  0  0  0  0  0
    1.7521    2.5634   -0.2333 O   0  0  0  0  0  0  0  0  0  0  0  0
    1.6584    2.1826    1.1443 C   0  0  0  0  0  0  0  0  0  0  0  0
    1.3122    3.4180    1.9839 C   0  0  0  0  0  0  0  0  0  0  0  0
   -0.0208    4.0506    1.5635 C   0  0  0  0  0  0  0  0  0  0  0  0
   -0.4586    5.1739    2.4151 N   0  0  0  0  0  0  0  0  0  0  0  0
   -1.7703    5.6944    1.9522 C   0  0  0  0  0  0  0  0  0  0  0  0
   -1.6841    6.5132    0.6508 C   0  0  0  0  0  0  0  0  0  0  0  0
   -0.7876    7.6205    0.7997 O   0  0  0  0  0  0  0  0  0  0  0  0
    0.5191    7.1680    1.1777 C   0  0  0  0  0  0  0  0  0  0  0  0
    0.4796    6.3179    2.4599 C   0  0  0  0  0  0  0  0  0  0  0  0
    1.5654   -2.1224   -0.0083 H   0  0  0  0  0  0  0  0  0  0  0  0
    3.3324   -2.1207   -0.1402 H   0  0  0  0  0  0  0  0  0  0  0  0
    2.3009   -1.7035   -1.5564 H   0  0  0  0  0  0  0  0  0  0  0  0
    4.5806   -0.8429   -1.4919 H   0  0  0  0  0  0  0  0  0  0  0  0
    5.2156   -1.4604   -3.7890 H   0  0  0  0  0  0  0  0  0  0  0  0
    6.3789   -3.4866   -3.8080 H   0  0  0  0  0  0  0  0  0  0  0  0
    8.4606   -4.6661   -3.8105 H   0  0  0  0  0  0  0  0  0  0  0  0
   11.7918   -2.9859   -3.4535 H   0  0  0  0  0  0  0  0  0  0  0  0
   12.9416   -4.5186   -2.3339 H   0  0  0  0  0  0  0  0  0  0  0  0
   11.5143   -7.5614   -3.8225 H   0  0  0  0  0  0  0  0  0  0  0  0
   11.5357   -9.7624   -2.7275 H   0  0  0  0  0  0  0  0  0  0  0  0
   13.6735   -8.0752    0.6089 H   0  0  0  0  0  0  0  0  0  0  0  0
   13.6819   -5.8686   -0.4923 H   0  0  0  0  0  0  0  0  0  0  0  0
    8.4663    0.2753   -3.7009 H   0  0  0  0  0  0  0  0  0  0  0  0
    6.1620    3.1748   -5.3364 H   0  0  0  0  0  0  0  0  0  0  0  0
    2.9706    3.7673   -2.0734 H   0  0  0  0  0  0  0  0  0  0  0  0
    2.6066    1.7820    1.5230 H   0  0  0  0  0  0  0  0  0  0  0  0
    0.8744    1.4246    1.2501 H   0  0  0  0  0  0  0  0  0  0  0  0
    2.1210    4.1453    1.8548 H   0  0  0  0  0  0  0  0  0  0  0  0
    1.2775    3.1357    3.0428 H   0  0  0  0  0  0  0  0  0  0  0  0
   -0.7876    3.2671    1.6317 H   0  0  0  0  0  0  0  0  0  0  0  0
    0.0368    4.3465    0.5115 H   0  0  0  0  0  0  0  0  0  0  0  0
   -2.1647    6.3456    2.7436 H   0  0  0  0  0  0  0  0  0  0  0  0
   -2.4920    4.8771    1.8406 H   0  0  0  0  0  0  0  0  0  0  0  0
   -2.6703    6.9174    0.4016 H   0  0  0  0  0  0  0  0  0  0  0  0
   -1.3623    5.9020   -0.1999 H   0  0  0  0  0  0  0  0  0  0  0  0
    1.1294    8.0604    1.3529 H   0  0  0  0  0  0  0  0  0  0  0  0
    0.9679    6.6193    0.3425 H   0  0  0  0  0  0  0  0  0  0  0  0
    0.1504    6.9664    3.2833 H   0  0  0  0  0  0  0  0  0  0  0  0
    1.4903    6.0014    2.7345 H   0  0  0  0  0  0  0  0  0  0  0  0
  1  2  1  0  0  0  0
  1 42  1  0  0  0  0
  1 43  1  0  0  0  0
  1 44  1  0  0  0  0
  2  3  1  0  0  0  0
  3  4  1  0  0  0  0
  3 31  2  0  0  0  0
  4  5  2  0  0  0  0
  4 45  1  0  0  0  0
  5  6  1  0  0  0  0
  5 29  1  0  0  0  0
  6  7  1  0  0  0  0
  6 26  2  0  0  0  0
  7  8  1  0  0  0  0
  7 46  1  0  0  0  0
  8  9  1  0  0  0  0
  8 25  2  0  0  0  0
  9 10  2  0  0  0  0
  9 47  1  0  0  0  0
 10 11  1  0  0  0  0
 10 48  1  0  0  0  0
 11 12  1  0  0  0  0
 11 23  2  0  0  0  0
 12 13  1  0  0  0  0
 12 49  1  0  0  0  0
 13 14  2  0  0  0  0
 13 15  1  0  0  0  0
 15 16  1  0  0  0  0
 15 50  1  0  0  0  0
 16 17  1  0  0  0  0
 16 22  2  0  0  0  0
 17 18  2  0  0  0  0
 17 51  1  0  0  0  0
 18 19  1  0  0  0  0
 18 52  1  0  0  0  0
 19 20  1  0  0  0  0
 19 21  2  0  0  0  0
 21 22  1  0  0  0  0
 21 53  1  0  0  0  0
 22 54  1  0  0  0  0
 23 24  1  0  0  0  0
 23 25  1  0  0  0  0
 25 55  1  0  0  0  0
 26 27  1  0  0  0  0
 27 28  2  0  0  0  0
 27 56  1  0  0  0  0
 28 29  1  0  0  0  0
 29 30  2  0  0  0  0
 30 31  1  0  0  0  0
 30 57  1  0  0  0  0
 31 32  1  0  0  0  0
 32 33  1  0  0  0  0
 33 34  1  0  0  0  0
 33 58  1  0  0  0  0
 33 59  1  0  0  0  0
 34 35  1  0  0  0  0
 34 60  1  0  0  0  0
 34 61  1  0  0  0  0
 35 36  1  0  0  0  0
 35 62  1  0  0  0  0
 35 63  1  0  0  0  0
 36 37  1  0  0  0  0
 36 41  1  0  0  0  0
 37 38  1  0  0  0  0
 37 64  1  0  0  0  0
 37 65  1  0  0  0  0
 38 39  1  0  0  0  0
 38 66  1  0  0  0  0
 38 67  1  0  0  0  0
 39 40  1  0  0  0  0
 40 41  1  0  0  0  0
 40 68  1  0  0  0  0
 40 69  1  0  0  0  0
 41 70  1  0  0  0  0
 41 71  1  0  0  0  0
M  END
$$$$
