CHEMBL189199
 OpenBabel04072215363D

 62 65  0  0  0  0  0  0  0  0999 V2000
    1.1985   -0.0695   -0.1212 C   0  0  0  0  0  0  0  0  0  0  0  0
    2.6493    0.1280   -0.2213 N   0  0  0  0  0  0  0  0  0  0  0  0
    3.2959    0.5579    0.9517 C   0  0  0  0  0  0  0  0  0  0  0  0
    2.9343    0.0982    2.2205 C   0  0  0  0  0  0  0  0  0  0  0  0
    3.6394    0.5015    3.3578 C   0  0  0  0  0  0  0  0  0  0  0  0
    4.7100    1.3931    3.2654 C   0  0  0  0  0  0  0  0  0  0  0  0
    5.4765    1.8123    4.3598 N   0  0  0  0  0  0  0  0  0  0  0  0
    5.5031    1.3430    5.6429 C   0  0  0  0  0  0  0  0  0  0  0  0
    6.4688    2.4280    6.6390 S   0  0  0  0  0  0  0  0  0  0  0  0
    4.9174    0.2667    6.0597 N   0  0  0  0  0  0  0  0  0  0  0  0
    4.9366   -0.2094    7.3768 C   0  0  0  0  0  0  0  0  0  0  0  0
    4.5622    0.5727    8.4744 C   0  0  0  0  0  0  0  0  0  0  0  0
    4.5706    0.0477    9.7659 C   0  0  0  0  0  0  0  0  0  0  0  0
    4.8767   -1.2942    9.9679 C   0  0  0  0  0  0  0  0  0  0  0  0
    5.1759   -2.1119    8.8796 C   0  0  0  0  0  0  0  0  0  0  0  0
    5.2074   -1.5672    7.5922 C   0  0  0  0  0  0  0  0  0  0  0  0
    5.0840    1.8379    1.9913 C   0  0  0  0  0  0  0  0  0  0  0  0
    4.3818    1.4369    0.8549 C   0  0  0  0  0  0  0  0  0  0  0  0
    3.2432   -0.7042   -1.2083 C   0  0  0  0  0  0  0  0  0  0  0  0
    4.5500   -1.1418   -1.0871 C   0  0  0  0  0  0  0  0  0  0  0  0
    5.0186   -1.9961   -2.0540 C   0  0  0  0  0  0  0  0  0  0  0  0
    4.2797   -2.4167   -3.0900 N   0  0  0  0  0  0  0  0  0  0  0  0
    3.0372   -1.9280   -3.1644 C   0  0  0  0  0  0  0  0  0  0  0  0
    2.2585   -2.3583   -4.2367 N   0  0  0  0  0  0  0  0  0  0  0  0
    1.3204   -1.6018   -4.9568 C   0  0  0  0  0  0  0  0  0  0  0  0
    0.3068   -2.2605   -5.6556 C   0  0  0  0  0  0  0  0  0  0  0  0
   -0.6657   -1.5347   -6.3445 C   0  0  0  0  0  0  0  0  0  0  0  0
   -0.6212   -0.1396   -6.3626 C   0  0  0  0  0  0  0  0  0  0  0  0
    0.4061    0.5459   -5.7050 C   0  0  0  0  0  0  0  0  0  0  0  0
    0.5134    2.0449   -5.7797 C   0  0  0  0  0  0  0  0  0  0  0  0
   -0.3994    2.8613   -4.4782 S   0  0  0  0  0  0  0  0  0  0  0  0
    0.3225    2.2758   -2.9653 C   0  0  0  0  0  0  0  0  0  0  0  0
   -0.0828    4.2774   -4.5676 O   0  0  0  0  0  0  0  0  0  0  0  0
   -1.7849    2.4306   -4.5157 O   0  0  0  0  0  0  0  0  0  0  0  0
    1.3668   -0.2003   -5.0062 C   0  0  0  0  0  0  0  0  0  0  0  0
    2.5063   -1.0822   -2.2661 N   0  0  0  0  0  0  0  0  0  0  0  0
    0.7473    0.5805    0.6394 H   0  0  0  0  0  0  0  0  0  0  0  0
    0.9499   -1.1086    0.1253 H   0  0  0  0  0  0  0  0  0  0  0  0
    0.6991    0.1920   -1.0569 H   0  0  0  0  0  0  0  0  0  0  0  0
    2.1201   -0.6107    2.3463 H   0  0  0  0  0  0  0  0  0  0  0  0
    3.3191    0.0991    4.3148 H   0  0  0  0  0  0  0  0  0  0  0  0
    6.0225    2.6476    4.2023 H   0  0  0  0  0  0  0  0  0  0  0  0
    5.4642    3.2859    6.8720 H   0  0  0  0  0  0  0  0  0  0  0  0
    4.2643    1.6064    8.3297 H   0  0  0  0  0  0  0  0  0  0  0  0
    4.3271    0.6887   10.6071 H   0  0  0  0  0  0  0  0  0  0  0  0
    4.8641   -1.7086   10.9736 H   0  0  0  0  0  0  0  0  0  0  0  0
    5.3722   -3.1700    9.0296 H   0  0  0  0  0  0  0  0  0  0  0  0
    5.4331   -2.2128    6.7441 H   0  0  0  0  0  0  0  0  0  0  0  0
    5.9420    2.4935    1.8656 H   0  0  0  0  0  0  0  0  0  0  0  0
    4.6959    1.8046   -0.1193 H   0  0  0  0  0  0  0  0  0  0  0  0
    5.1871   -0.8723   -0.2568 H   0  0  0  0  0  0  0  0  0  0  0  0
    6.0315   -2.3842   -2.0091 H   0  0  0  0  0  0  0  0  0  0  0  0
    2.7938   -3.0081   -4.7965 H   0  0  0  0  0  0  0  0  0  0  0  0
    0.2501   -3.3462   -5.6380 H   0  0  0  0  0  0  0  0  0  0  0  0
   -1.4636   -2.0603   -6.8633 H   0  0  0  0  0  0  0  0  0  0  0  0
   -1.3930    0.4072   -6.9011 H   0  0  0  0  0  0  0  0  0  0  0  0
    0.1175    2.4148   -6.7311 H   0  0  0  0  0  0  0  0  0  0  0  0
    1.5564    2.3709   -5.7077 H   0  0  0  0  0  0  0  0  0  0  0  0
    1.4032    2.4274   -2.9994 H   0  0  0  0  0  0  0  0  0  0  0  0
    0.0722    1.2229   -2.8487 H   0  0  0  0  0  0  0  0  0  0  0  0
   -0.1023    2.8488   -2.1377 H   0  0  0  0  0  0  0  0  0  0  0  0
    2.1794    0.3186   -4.5007 H   0  0  0  0  0  0  0  0  0  0  0  0
  1  2  1  0  0  0  0
  1 37  1  0  0  0  0
  1 38  1  0  0  0  0
  1 39  1  0  0  0  0
  2  3  1  0  0  0  0
  2 19  1  0  0  0  0
  3  4  1  0  0  0  0
  3 18  2  0  0  0  0
  4  5  2  0  0  0  0
  4 40  1  0  0  0  0
  5  6  1  0  0  0  0
  5 41  1  0  0  0  0
  6  7  1  0  0  0  0
  6 17  2  0  0  0  0
  7  8  1  0  0  0  0
  7 42  1  0  0  0  0
  8  9  1  0  0  0  0
  8 10  2  0  0  0  0
  9 43  1  0  0  0  0
 10 11  1  0  0  0  0
 11 12  1  0  0  0  0
 11 16  2  0  0  0  0
 12 13  2  0  0  0  0
 12 44  1  0  0  0  0
 13 14  1  0  0  0  0
 13 45  1  0  0  0  0
 14 15  2  0  0  0  0
 14 46  1  0  0  0  0
 15 16  1  0  0  0  0
 15 47  1  0  0  0  0
 16 48  1  0  0  0  0
 17 18  1  0  0  0  0
 17 49  1  0  0  0  0
 18 50  1  0  0  0  0
 19 20  1  0  0  0  0
 19 36  2  0  0  0  0
 20 21  2  0  0  0  0
 20 51  1  0  0  0  0
 21 22  1  0  0  0  0
 21 52  1  0  0  0  0
 22 23  2  0  0  0  0
 23 24  1  0  0  0  0
 23 36  1  0  0  0  0
 24 25  1  0  0  0  0
 24 53  1  0  0  0  0
 25 26  1  0  0  0  0
 25 35  2  0  0  0  0
 26 27  2  0  0  0  0
 26 54  1  0  0  0  0
 27 28  1  0  0  0  0
 27 55  1  0  0  0  0
 28 29  2  0  0  0  0
 28 56  1  0  0  0  0
 29 30  1  0  0  0  0
 29 35  1  0  0  0  0
 30 31  1  0  0  0  0
 30 57  1  0  0  0  0
 30 58  1  0  0  0  0
 31 32  1  0  0  0  0
 31 33  2  0  0  0  0
 31 34  2  0  0  0  0
 32 59  1  0  0  0  0
 32 60  1  0  0  0  0
 32 61  1  0  0  0  0
 35 62  1  0  0  0  0
M  END
$$$$
