CHEMBL462003
 OpenBabel04072215383D

 56 60  0  0  0  0  0  0  0  0999 V2000
   10.6876    2.0203   -0.8944 C   0  0  0  0  0  0  0  0  0  0  0  0
    9.7854    2.8360   -1.6488 O   0  0  0  0  0  0  0  0  0  0  0  0
    8.9184    3.6070   -0.9174 C   0  0  0  0  0  0  0  0  0  0  0  0
    9.2713    4.0896    0.3521 C   0  0  0  0  0  0  0  0  0  0  0  0
    8.3866    4.7803    1.1654 C   0  0  0  0  0  0  0  0  0  0  0  0
    8.8066    5.1220    2.3930 N   0  0  0  0  0  0  0  0  0  0  0  0
    7.9507    5.7727    3.2036 C   0  0  0  0  0  0  0  0  0  0  0  0
    6.6609    6.0991    2.8505 C   0  0  0  0  0  0  0  0  0  0  0  0
    6.2057    5.7041    1.5931 C   0  0  0  0  0  0  0  0  0  0  0  0
    4.9049    5.9597    1.1910 O   0  0  0  0  0  0  0  0  0  0  0  0
    3.8766    5.7803    2.1052 C   0  0  0  0  0  0  0  0  0  0  0  0
    2.7919    6.6573    2.0174 C   0  0  0  0  0  0  0  0  0  0  0  0
    1.6872    6.5465    2.8853 C   0  0  0  0  0  0  0  0  0  0  0  0
    1.6639    5.5181    3.8493 C   0  0  0  0  0  0  0  0  0  0  0  0
    0.7621    5.0528    4.8643 C   0  0  0  0  0  0  0  0  0  0  0  0
   -0.4795    5.5995    5.1784 N   0  0  0  0  0  0  0  0  0  0  0  0
   -1.3261    5.0693    6.1443 C   0  0  0  0  0  0  0  0  0  0  0  0
   -1.1159    4.0959    6.8622 O   0  0  0  0  0  0  0  0  0  0  0  0
   -2.6359    5.7607    6.3507 C   0  0  0  0  0  0  0  0  0  0  0  0
   -3.2873    6.4877    5.3439 C   0  0  0  0  0  0  0  0  0  0  0  0
   -4.5369    7.0648    5.5967 C   0  0  0  0  0  0  0  0  0  0  0  0
   -5.1394    6.9096    6.8463 C   0  0  0  0  0  0  0  0  0  0  0  0
   -6.3402    7.4681    7.0557 F   0  0  0  0  0  0  0  0  0  0  0  0
   -4.5069    6.1802    7.8438 C   0  0  0  0  0  0  0  0  0  0  0  0
   -5.2577    5.9609    9.3821 Cl  0  0  0  0  0  0  0  0  0  0  0  0
   -3.2621    5.6028    7.6006 C   0  0  0  0  0  0  0  0  0  0  0  0
    1.2667    3.9839    5.4797 N   0  0  0  0  0  0  0  0  0  0  0  0
    2.4399    3.7506    4.8854 N   0  0  0  0  0  0  0  0  0  0  0  0
    3.2079    2.5926    5.2775 C   0  0  0  0  0  0  0  0  0  0  0  0
    2.7502    4.6423    3.8968 C   0  0  0  0  0  0  0  0  0  0  0  0
    3.8602    4.7365    3.0384 C   0  0  0  0  0  0  0  0  0  0  0  0
    7.0943    5.0646    0.6891 C   0  0  0  0  0  0  0  0  0  0  0  0
    6.7736    4.6823   -0.6343 C   0  0  0  0  0  0  0  0  0  0  0  0
    7.6659    3.9489   -1.4390 C   0  0  0  0  0  0  0  0  0  0  0  0
    7.1318    3.6566   -2.6641 O   0  0  0  0  0  0  0  0  0  0  0  0
    7.7796    2.7245   -3.5163 C   0  0  0  0  0  0  0  0  0  0  0  0
   10.8488    1.0888   -1.4454 H   0  0  0  0  0  0  0  0  0  0  0  0
   10.3027    1.7391    0.0938 H   0  0  0  0  0  0  0  0  0  0  0  0
   11.6505    2.5316   -0.7952 H   0  0  0  0  0  0  0  0  0  0  0  0
   10.2679    3.9171    0.7515 H   0  0  0  0  0  0  0  0  0  0  0  0
    8.3440    6.0198    4.1856 H   0  0  0  0  0  0  0  0  0  0  0  0
    6.0247    6.6275    3.5512 H   0  0  0  0  0  0  0  0  0  0  0  0
    2.7998    7.4391    1.2589 H   0  0  0  0  0  0  0  0  0  0  0  0
    0.8600    7.2427    2.7908 H   0  0  0  0  0  0  0  0  0  0  0  0
   -0.7274    6.4315    4.6755 H   0  0  0  0  0  0  0  0  0  0  0  0
   -2.8664    6.5830    4.3470 H   0  0  0  0  0  0  0  0  0  0  0  0
   -5.0623    7.6211    4.8258 H   0  0  0  0  0  0  0  0  0  0  0  0
   -2.7767    5.0166    8.3811 H   0  0  0  0  0  0  0  0  0  0  0  0
    2.7185    2.0934    6.1176 H   0  0  0  0  0  0  0  0  0  0  0  0
    4.2085    2.9194    5.5711 H   0  0  0  0  0  0  0  0  0  0  0  0
    3.2565    1.9161    4.4207 H   0  0  0  0  0  0  0  0  0  0  0  0
    4.6700    4.0190    3.1032 H   0  0  0  0  0  0  0  0  0  0  0  0
    5.7999    4.9416   -1.0479 H   0  0  0  0  0  0  0  0  0  0  0  0
    7.0412    2.4021   -4.2589 H   0  0  0  0  0  0  0  0  0  0  0  0
    8.1013    1.8218   -2.9900 H   0  0  0  0  0  0  0  0  0  0  0  0
    8.6039    3.1996   -4.0571 H   0  0  0  0  0  0  0  0  0  0  0  0
  1  2  1  0  0  0  0
  1 37  1  0  0  0  0
  1 38  1  0  0  0  0
  1 39  1  0  0  0  0
  2  3  1  0  0  0  0
  3  4  1  0  0  0  0
  3 34  2  0  0  0  0
  4  5  2  0  0  0  0
  4 40  1  0  0  0  0
  5  6  1  0  0  0  0
  5 32  1  0  0  0  0
  6  7  2  0  0  0  0
  7  8  1  0  0  0  0
  7 41  1  0  0  0  0
  8  9  2  0  0  0  0
  8 42  1  0  0  0  0
  9 10  1  0  0  0  0
  9 32  1  0  0  0  0
 10 11  1  0  0  0  0
 11 12  1  0  0  0  0
 11 31  2  0  0  0  0
 12 13  2  0  0  0  0
 12 43  1  0  0  0  0
 13 14  1  0  0  0  0
 13 44  1  0  0  0  0
 14 15  1  0  0  0  0
 14 30  2  0  0  0  0
 15 16  1  0  0  0  0
 15 27  2  0  0  0  0
 16 17  1  0  0  0  0
 16 45  1  0  0  0  0
 17 18  2  0  0  0  0
 17 19  1  0  0  0  0
 19 20  1  0  0  0  0
 19 26  2  0  0  0  0
 20 21  2  0  0  0  0
 20 46  1  0  0  0  0
 21 22  1  0  0  0  0
 21 47  1  0  0  0  0
 22 23  1  0  0  0  0
 22 24  2  0  0  0  0
 24 25  1  0  0  0  0
 24 26  1  0  0  0  0
 26 48  1  0  0  0  0
 27 28  1  0  0  0  0
 28 29  1  0  0  0  0
 28 30  1  0  0  0  0
 29 49  1  0  0  0  0
 29 50  1  0  0  0  0
 29 51  1  0  0  0  0
 30 31  1  0  0  0  0
 31 52  1  0  0  0  0
 32 33  2  0  0  0  0
 33 34  1  0  0  0  0
 33 53  1  0  0  0  0
 34 35  1  0  0  0  0
 35 36  1  0  0  0  0
 36 54  1  0  0  0  0
 36 55  1  0  0  0  0
 36 56  1  0  0  0  0
M  END
$$$$
