CHEMBL462359
 OpenBabel04072215383D

 58 62  0  0  0  0  0  0  0  0999 V2000
    6.1250   -0.4812   -7.0753 C   0  0  0  0  0  0  0  0  0  0  0  0
    6.6071   -1.3024   -6.0263 O   0  0  0  0  0  0  0  0  0  0  0  0
    6.3184   -0.8856   -4.7566 C   0  0  0  0  0  0  0  0  0  0  0  0
    5.6564    0.2954   -4.4139 C   0  0  0  0  0  0  0  0  0  0  0  0
    5.3987    0.5959   -3.0773 C   0  0  0  0  0  0  0  0  0  0  0  0
    5.7380   -0.3233   -2.0927 C   0  0  0  0  0  0  0  0  0  0  0  0
    6.3182   -1.5551   -2.4419 C   0  0  0  0  0  0  0  0  0  0  0  0
    6.3102   -2.5836   -1.4926 N   0  0  0  0  0  0  0  0  0  0  0  0
    6.9454   -3.7671   -1.3537 C   0  0  0  0  0  0  0  0  0  0  0  0
    6.2884   -4.7142   -0.6663 N   0  0  0  0  0  0  0  0  0  0  0  0
    7.2777   -5.3833   -0.0814 N   0  0  0  0  0  0  0  0  0  0  0  0
    7.0682   -6.2660    1.0356 C   0  0  0  0  0  0  0  0  0  0  0  0
    8.5187   -5.0235   -0.5049 C   0  0  0  0  0  0  0  0  0  0  0  0
    9.7589   -5.4271   -0.0194 C   0  0  0  0  0  0  0  0  0  0  0  0
   10.9097   -5.0998   -0.7315 C   0  0  0  0  0  0  0  0  0  0  0  0
   11.9736   -5.7697   -0.2103 O   0  0  0  0  0  0  0  0  0  0  0  0
   13.2982   -5.7701   -0.4638 C   0  0  0  0  0  0  0  0  0  0  0  0
   14.0706   -5.1550   -1.5008 C   0  0  0  0  0  0  0  0  0  0  0  0
   15.4415   -5.3338   -1.5061 C   0  0  0  0  0  0  0  0  0  0  0  0
   16.0830   -5.9162   -0.5180 N   0  0  0  0  0  0  0  0  0  0  0  0
   15.3268   -6.6440    0.2892 C   0  0  0  0  0  0  0  0  0  0  0  0
   16.1598   -7.5303    0.8667 C   0  0  0  0  0  0  0  0  0  0  0  0
   15.7366   -8.3876    1.8454 C   0  0  0  0  0  0  0  0  0  0  0  0
   16.7012   -9.1547    2.4464 O   0  0  0  0  0  0  0  0  0  0  0  0
   17.9950   -8.5221    2.4758 C   0  0  0  0  0  0  0  0  0  0  0  0
   14.3770   -8.4022    2.1694 C   0  0  0  0  0  0  0  0  0  0  0  0
   13.7998   -9.1642    3.1515 O   0  0  0  0  0  0  0  0  0  0  0  0
   14.4851  -10.3802    3.4479 C   0  0  0  0  0  0  0  0  0  0  0  0
   13.4876   -7.5343    1.4708 C   0  0  0  0  0  0  0  0  0  0  0  0
   13.9765   -6.6273    0.4678 C   0  0  0  0  0  0  0  0  0  0  0  0
   10.7833   -4.2572   -1.8220 C   0  0  0  0  0  0  0  0  0  0  0  0
    9.5151   -3.7093   -2.2069 C   0  0  0  0  0  0  0  0  0  0  0  0
    8.3368   -4.1021   -1.5228 C   0  0  0  0  0  0  0  0  0  0  0  0
    6.6820   -1.7888   -3.7602 C   0  0  0  0  0  0  0  0  0  0  0  0
    6.3752   -0.9668   -8.0226 H   0  0  0  0  0  0  0  0  0  0  0  0
    6.6210    0.4973   -7.0556 H   0  0  0  0  0  0  0  0  0  0  0  0
    5.0344   -0.3745   -7.0325 H   0  0  0  0  0  0  0  0  0  0  0  0
    5.3063    0.9910   -5.1673 H   0  0  0  0  0  0  0  0  0  0  0  0
    4.8823    1.5185   -2.8193 H   0  0  0  0  0  0  0  0  0  0  0  0
    5.4964   -0.0986   -1.0519 H   0  0  0  0  0  0  0  0  0  0  0  0
    5.3457   -2.6959   -1.1807 H   0  0  0  0  0  0  0  0  0  0  0  0
    6.0077   -6.4559    1.1933 H   0  0  0  0  0  0  0  0  0  0  0  0
    7.5088   -5.7656    1.9052 H   0  0  0  0  0  0  0  0  0  0  0  0
    7.6073   -7.1917    0.8283 H   0  0  0  0  0  0  0  0  0  0  0  0
    9.8144   -6.0230    0.8882 H   0  0  0  0  0  0  0  0  0  0  0  0
   13.6571   -4.6232   -2.3360 H   0  0  0  0  0  0  0  0  0  0  0  0
   16.1317   -5.1319   -2.3180 H   0  0  0  0  0  0  0  0  0  0  0  0
   17.1598   -7.5555    0.4559 H   0  0  0  0  0  0  0  0  0  0  0  0
   18.6568   -9.1260    3.0904 H   0  0  0  0  0  0  0  0  0  0  0  0
   17.9281   -7.5185    2.9169 H   0  0  0  0  0  0  0  0  0  0  0  0
   18.4643   -8.4766    1.4829 H   0  0  0  0  0  0  0  0  0  0  0  0
   13.8874  -10.9320    4.1751 H   0  0  0  0  0  0  0  0  0  0  0  0
   15.4528  -10.2095    3.9271 H   0  0  0  0  0  0  0  0  0  0  0  0
   14.5833  -10.9902    2.5437 H   0  0  0  0  0  0  0  0  0  0  0  0
   12.4173   -7.5805    1.6929 H   0  0  0  0  0  0  0  0  0  0  0  0
   11.6562   -3.9832   -2.3934 H   0  0  0  0  0  0  0  0  0  0  0  0
    9.4689   -3.0355   -3.0588 H   0  0  0  0  0  0  0  0  0  0  0  0
    7.1456   -2.7311   -4.0323 H   0  0  0  0  0  0  0  0  0  0  0  0
  1  2  1  0  0  0  0
  1 35  1  0  0  0  0
  1 36  1  0  0  0  0
  1 37  1  0  0  0  0
  2  3  1  0  0  0  0
  3  4  1  0  0  0  0
  3 34  2  0  0  0  0
  4  5  2  0  0  0  0
  4 38  1  0  0  0  0
  5  6  1  0  0  0  0
  5 39  1  0  0  0  0
  6  7  2  0  0  0  0
  6 40  1  0  0  0  0
  7  8  1  0  0  0  0
  7 34  1  0  0  0  0
  8  9  1  0  0  0  0
  8 41  1  0  0  0  0
  9 10  2  0  0  0  0
  9 33  1  0  0  0  0
 10 11  1  0  0  0  0
 11 12  1  0  0  0  0
 11 13  1  0  0  0  0
 12 42  1  0  0  0  0
 12 43  1  0  0  0  0
 12 44  1  0  0  0  0
 13 14  1  0  0  0  0
 13 33  2  0  0  0  0
 14 15  2  0  0  0  0
 14 45  1  0  0  0  0
 15 16  1  0  0  0  0
 15 31  1  0  0  0  0
 16 17  1  0  0  0  0
 17 18  1  0  0  0  0
 17 30  2  0  0  0  0
 18 19  2  0  0  0  0
 18 46  1  0  0  0  0
 19 20  1  0  0  0  0
 19 47  1  0  0  0  0
 20 21  2  0  0  0  0
 21 22  1  0  0  0  0
 21 30  1  0  0  0  0
 22 23  2  0  0  0  0
 22 48  1  0  0  0  0
 23 24  1  0  0  0  0
 23 26  1  0  0  0  0
 24 25  1  0  0  0  0
 25 49  1  0  0  0  0
 25 50  1  0  0  0  0
 25 51  1  0  0  0  0
 26 27  1  0  0  0  0
 26 29  2  0  0  0  0
 27 28  1  0  0  0  0
 28 52  1  0  0  0  0
 28 53  1  0  0  0  0
 28 54  1  0  0  0  0
 29 30  1  0  0  0  0
 29 55  1  0  0  0  0
 31 32  2  0  0  0  0
 31 56  1  0  0  0  0
 32 33  1  0  0  0  0
 32 57  1  0  0  0  0
 34 58  1  0  0  0  0
M  END
$$$$
