CHEMBL3948411
 OpenBabel04072215373D

 54 58  0  0  0  0  0  0  0  0999 V2000
    1.5518   -2.5703   -1.3252 C   0  0  0  0  0  0  0  0  0  0  0  0
    0.1452   -2.1649   -1.0850 C   0  0  0  0  0  0  0  0  0  0  0  0
   -0.9139   -2.8628   -0.5393 C   0  0  0  0  0  0  0  0  0  0  0  0
   -2.1191   -2.1773   -0.4580 N   0  0  0  0  0  0  0  0  0  0  0  0
   -1.9479   -0.9671   -0.9569 C   0  0  0  0  0  0  0  0  0  0  0  0
   -2.9874    0.0430   -1.0758 C   0  0  0  0  0  0  0  0  0  0  0  0
   -2.7508    1.1641   -1.5416 O   0  0  0  0  0  0  0  0  0  0  0  0
   -4.2459   -0.3256   -0.5931 N   0  0  0  0  0  0  0  0  0  0  0  0
   -5.4014    0.4974   -0.6303 C   0  0  0  0  0  0  0  0  0  0  0  0
   -5.4827    1.6192   -1.4642 C   0  0  0  0  0  0  0  0  0  0  0  0
   -6.5564    2.5018   -1.3976 C   0  0  0  0  0  0  0  0  0  0  0  0
   -7.5952    2.2499   -0.5187 C   0  0  0  0  0  0  0  0  0  0  0  0
   -7.6099    1.0622    0.2178 C   0  0  0  0  0  0  0  0  0  0  0  0
   -8.7794    0.7178    1.0645 C   0  0  0  0  0  0  0  0  0  0  0  0
   -8.5924    0.0226    2.0619 O   0  0  0  0  0  0  0  0  0  0  0  0
  -10.1706    1.1757    0.7424 C   0  0  0  0  0  0  0  0  0  0  0  0
  -10.5951    1.5390   -0.5513 C   0  0  0  0  0  0  0  0  0  0  0  0
  -11.8979    2.0316   -0.7983 C   0  0  0  0  0  0  0  0  0  0  0  0
  -12.8319    1.9592    0.2496 C   0  0  0  0  0  0  0  0  0  0  0  0
  -14.2170    2.2431    0.5199 C   0  0  0  0  0  0  0  0  0  0  0  0
  -14.7771    3.4728    1.0810 C   0  0  0  0  0  0  0  0  0  0  0  0
  -14.0235    4.4341    1.6492 C   0  0  0  0  0  0  0  0  0  0  0  0
  -14.3373    5.0072    2.9810 C   0  0  0  0  0  0  0  0  0  0  0  0
  -14.8273    4.1951    4.0246 C   0  0  0  0  0  0  0  0  0  0  0  0
  -14.8520    4.6515    5.3478 C   0  0  0  0  0  0  0  0  0  0  0  0
  -14.3902    5.9286    5.6485 C   0  0  0  0  0  0  0  0  0  0  0  0
  -13.9212    6.7515    4.6255 C   0  0  0  0  0  0  0  0  0  0  0  0
  -13.8917    6.2928    3.3018 C   0  0  0  0  0  0  0  0  0  0  0  0
  -14.6682    1.1510    1.1786 N   0  0  0  0  0  0  0  0  0  0  0  0
  -13.5981    0.8831    1.9615 N   0  0  0  0  0  0  0  0  0  0  0  0
  -12.4274    1.3150    1.4138 C   0  0  0  0  0  0  0  0  0  0  0  0
  -11.1040    1.0947    1.7786 C   0  0  0  0  0  0  0  0  0  0  0  0
   -6.4980    0.1954    0.1843 C   0  0  0  0  0  0  0  0  0  0  0  0
   -0.3690   -0.5969   -1.5173 S   0  0  0  0  0  0  0  0  0  0  0  0
    1.7196   -3.6081   -1.0247 H   0  0  0  0  0  0  0  0  0  0  0  0
    2.2433   -1.9352   -0.7580 H   0  0  0  0  0  0  0  0  0  0  0  0
    1.8056   -2.4843   -2.3893 H   0  0  0  0  0  0  0  0  0  0  0  0
   -0.8665   -3.8855   -0.1827 H   0  0  0  0  0  0  0  0  0  0  0  0
   -4.2801   -1.1987   -0.0736 H   0  0  0  0  0  0  0  0  0  0  0  0
   -4.7116    1.8472   -2.1927 H   0  0  0  0  0  0  0  0  0  0  0  0
   -6.5689    3.3859   -2.0285 H   0  0  0  0  0  0  0  0  0  0  0  0
   -8.3912    2.9842   -0.4377 H   0  0  0  0  0  0  0  0  0  0  0  0
   -9.9294    1.4196   -1.4044 H   0  0  0  0  0  0  0  0  0  0  0  0
  -12.1940    2.3199   -1.8026 H   0  0  0  0  0  0  0  0  0  0  0  0
  -15.7995    3.3410    1.4398 H   0  0  0  0  0  0  0  0  0  0  0  0
  -12.9878    4.5767    1.3533 H   0  0  0  0  0  0  0  0  0  0  0  0
  -15.1406    3.1701    3.8335 H   0  0  0  0  0  0  0  0  0  0  0  0
  -15.1971    3.9973    6.1457 H   0  0  0  0  0  0  0  0  0  0  0  0
  -14.3759    6.2750    6.6790 H   0  0  0  0  0  0  0  0  0  0  0  0
  -13.5439    7.7432    4.8627 H   0  0  0  0  0  0  0  0  0  0  0  0
  -13.4771    6.9363    2.5308 H   0  0  0  0  0  0  0  0  0  0  0  0
  -13.7273    0.2633    2.7521 H   0  0  0  0  0  0  0  0  0  0  0  0
  -10.8365    0.7349    2.7666 H   0  0  0  0  0  0  0  0  0  0  0  0
   -6.4946   -0.6892    0.8187 H   0  0  0  0  0  0  0  0  0  0  0  0
  1  2  1  0  0  0  0
  1 35  1  0  0  0  0
  1 36  1  0  0  0  0
  1 37  1  0  0  0  0
  2  3  2  0  0  0  0
  2 34  1  0  0  0  0
  3  4  1  0  0  0  0
  3 38  1  0  0  0  0
  4  5  2  0  0  0  0
  5  6  1  0  0  0  0
  5 34  1  0  0  0  0
  6  7  2  0  0  0  0
  6  8  1  0  0  0  0
  8  9  1  0  0  0  0
  8 39  1  0  0  0  0
  9 10  1  0  0  0  0
  9 33  2  0  0  0  0
 10 11  2  0  0  0  0
 10 40  1  0  0  0  0
 11 12  1  0  0  0  0
 11 41  1  0  0  0  0
 12 13  2  0  0  0  0
 12 42  1  0  0  0  0
 13 14  1  0  0  0  0
 13 33  1  0  0  0  0
 14 15  2  0  0  0  0
 14 16  1  0  0  0  0
 16 17  1  0  0  0  0
 16 32  2  0  0  0  0
 17 18  2  0  0  0  0
 17 43  1  0  0  0  0
 18 19  1  0  0  0  0
 18 44  1  0  0  0  0
 19 20  1  0  0  0  0
 19 31  2  0  0  0  0
 20 21  1  0  0  0  0
 20 29  2  0  0  0  0
 21 22  2  0  0  0  0
 21 45  1  0  0  0  0
 22 23  1  0  0  0  0
 22 46  1  0  0  0  0
 23 24  1  0  0  0  0
 23 28  2  0  0  0  0
 24 25  2  0  0  0  0
 24 47  1  0  0  0  0
 25 26  1  0  0  0  0
 25 48  1  0  0  0  0
 26 27  2  0  0  0  0
 26 49  1  0  0  0  0
 27 28  1  0  0  0  0
 27 50  1  0  0  0  0
 28 51  1  0  0  0  0
 29 30  1  0  0  0  0
 30 31  1  0  0  0  0
 30 52  1  0  0  0  0
 31 32  1  0  0  0  0
 32 53  1  0  0  0  0
 33 54  1  0  0  0  0
M  END
$$$$
