CHEMBL271984
 OpenBabel04072215363D

 46 49  0  0  0  0  0  0  0  0999 V2000
    3.5792   -0.8899   -0.7661 C   0  0  0  0  0  0  0  0  0  0  0  0
    2.6255   -0.1127   -0.0387 O   0  0  0  0  0  0  0  0  0  0  0  0
    3.1284    0.9645    0.6420 C   0  0  0  0  0  0  0  0  0  0  0  0
    4.3024    1.6227    0.2333 C   0  0  0  0  0  0  0  0  0  0  0  0
    4.9226    2.5993    1.0052 C   0  0  0  0  0  0  0  0  0  0  0  0
    6.1050    3.0796    0.5919 N   0  0  0  0  0  0  0  0  0  0  0  0
    6.7602    3.9453    1.3920 C   0  0  0  0  0  0  0  0  0  0  0  0
    6.3053    4.3293    2.6346 C   0  0  0  0  0  0  0  0  0  0  0  0
    5.0842    3.8230    3.0733 C   0  0  0  0  0  0  0  0  0  0  0  0
    4.7551    4.2248    4.3575 O   0  0  0  0  0  0  0  0  0  0  0  0
    4.0318    3.4127    5.2012 C   0  0  0  0  0  0  0  0  0  0  0  0
    4.0917    2.0234    5.2254 C   0  0  0  0  0  0  0  0  0  0  0  0
    3.1229    1.3023    5.9360 C   0  0  0  0  0  0  0  0  0  0  0  0
    2.1274    1.9422    6.7157 C   0  0  0  0  0  0  0  0  0  0  0  0
    1.0607    1.2810    7.3981 C   0  0  0  0  0  0  0  0  0  0  0  0
    0.7884   -0.1776    7.2019 C   0  0  0  0  0  0  0  0  0  0  0  0
    0.2387   -0.8603    8.2561 N   0  0  0  0  0  0  0  0  0  0  0  0
    1.0183   -0.7681    6.1572 O   0  0  0  0  0  0  0  0  0  0  0  0
    0.1714    2.0130    8.2069 C   0  0  0  0  0  0  0  0  0  0  0  0
    0.3193    3.3873    8.3556 C   0  0  0  0  0  0  0  0  0  0  0  0
    1.3239    4.0504    7.6551 C   0  0  0  0  0  0  0  0  0  0  0  0
    2.2086    3.3563    6.8237 C   0  0  0  0  0  0  0  0  0  0  0  0
    3.1470    4.0656    6.0574 C   0  0  0  0  0  0  0  0  0  0  0  0
    4.3153    2.9977    2.2084 C   0  0  0  0  0  0  0  0  0  0  0  0
    3.0135    2.5175    2.4640 C   0  0  0  0  0  0  0  0  0  0  0  0
    2.4503    1.4535    1.7560 C   0  0  0  0  0  0  0  0  0  0  0  0
    1.2838    1.0407    2.3298 O   0  0  0  0  0  0  0  0  0  0  0  0
    0.7613   -0.2441    2.0439 C   0  0  0  0  0  0  0  0  0  0  0  0
    3.2211   -1.9229   -0.8049 H   0  0  0  0  0  0  0  0  0  0  0  0
    4.5696   -0.9153   -0.2937 H   0  0  0  0  0  0  0  0  0  0  0  0
    3.6534   -0.5133   -1.7910 H   0  0  0  0  0  0  0  0  0  0  0  0
    4.8001    1.3441   -0.6900 H   0  0  0  0  0  0  0  0  0  0  0  0
    7.7027    4.3174    0.9994 H   0  0  0  0  0  0  0  0  0  0  0  0
    6.8927    4.9947    3.2563 H   0  0  0  0  0  0  0  0  0  0  0  0
    4.8062    1.4788    4.6146 H   0  0  0  0  0  0  0  0  0  0  0  0
    3.1341    0.2187    5.8344 H   0  0  0  0  0  0  0  0  0  0  0  0
    0.1379   -0.4784    9.1842 H   0  0  0  0  0  0  0  0  0  0  0  0
    0.0842   -1.8516    8.1234 H   0  0  0  0  0  0  0  0  0  0  0  0
   -0.6688    1.5294    8.6979 H   0  0  0  0  0  0  0  0  0  0  0  0
   -0.3684    3.9478    8.9847 H   0  0  0  0  0  0  0  0  0  0  0  0
    1.3962    5.1343    7.7566 H   0  0  0  0  0  0  0  0  0  0  0  0
    3.1600    5.1559    6.0833 H   0  0  0  0  0  0  0  0  0  0  0  0
    2.4368    2.9136    3.2958 H   0  0  0  0  0  0  0  0  0  0  0  0
    0.1563   -0.5468    2.9068 H   0  0  0  0  0  0  0  0  0  0  0  0
    1.5267   -1.0135    1.9135 H   0  0  0  0  0  0  0  0  0  0  0  0
    0.0962   -0.1811    1.1791 H   0  0  0  0  0  0  0  0  0  0  0  0
  1  2  1  0  0  0  0
  1 29  1  0  0  0  0
  1 30  1  0  0  0  0
  1 31  1  0  0  0  0
  2  3  1  0  0  0  0
  3  4  1  0  0  0  0
  3 26  2  0  0  0  0
  4  5  2  0  0  0  0
  4 32  1  0  0  0  0
  5  6  1  0  0  0  0
  5 24  1  0  0  0  0
  6  7  2  0  0  0  0
  7  8  1  0  0  0  0
  7 33  1  0  0  0  0
  8  9  2  0  0  0  0
  8 34  1  0  0  0  0
  9 10  1  0  0  0  0
  9 24  1  0  0  0  0
 10 11  1  0  0  0  0
 11 12  1  0  0  0  0
 11 23  2  0  0  0  0
 12 13  2  0  0  0  0
 12 35  1  0  0  0  0
 13 14  1  0  0  0  0
 13 36  1  0  0  0  0
 14 15  1  0  0  0  0
 14 22  2  0  0  0  0
 15 16  1  0  0  0  0
 15 19  2  0  0  0  0
 16 17  1  0  0  0  0
 16 18  2  0  0  0  0
 17 37  1  0  0  0  0
 17 38  1  0  0  0  0
 19 20  1  0  0  0  0
 19 39  1  0  0  0  0
 20 21  2  0  0  0  0
 20 40  1  0  0  0  0
 21 22  1  0  0  0  0
 21 41  1  0  0  0  0
 22 23  1  0  0  0  0
 23 42  1  0  0  0  0
 24 25  2  0  0  0  0
 25 26  1  0  0  0  0
 25 43  1  0  0  0  0
 26 27  1  0  0  0  0
 27 28  1  0  0  0  0
 28 44  1  0  0  0  0
 28 45  1  0  0  0  0
 28 46  1  0  0  0  0
M  END
$$$$
