CHEMBL444724
 OpenBabel04072215383D

 35 37  0  0  0  0  0  0  0  0999 V2000
    2.4277    0.2990   -0.8697 C   0  0  0  0  0  0  0  0  0  0  0  0
    1.9147   -0.2825    0.3238 O   0  0  0  0  0  0  0  0  0  0  0  0
    2.7799   -0.4037    1.3775 C   0  0  0  0  0  0  0  0  0  0  0  0
    4.1328   -0.0908    1.3646 C   0  0  0  0  0  0  0  0  0  0  0  0
    4.9115   -0.2991    2.5134 C   0  0  0  0  0  0  0  0  0  0  0  0
    4.3668   -0.7941    3.7151 C   0  0  0  0  0  0  0  0  0  0  0  0
    5.1738   -1.0089    4.8542 N   0  0  0  0  0  0  0  0  0  0  0  0
    6.2099    0.0112    5.1042 C   0  0  0  0  0  0  0  0  0  0  0  0
    5.0553   -1.9240    5.9426 C   0  0  0  0  0  0  0  0  0  0  0  0
    5.4912   -1.4737    7.1411 N   0  0  0  0  0  0  0  0  0  0  0  0
    5.4582   -2.3155    8.1707 C   0  0  0  0  0  0  0  0  0  0  0  0
    6.0439   -1.7133    9.6576 Cl  0  0  0  0  0  0  0  0  0  0  0  0
    5.0717   -3.5838    8.1575 N   0  0  0  0  0  0  0  0  0  0  0  0
    4.6602   -4.0474    6.9845 C   0  0  0  0  0  0  0  0  0  0  0  0
    4.3071   -5.3895    6.9514 C   0  0  0  0  0  0  0  0  0  0  0  0
    3.8699   -6.0125    5.7854 C   0  0  0  0  0  0  0  0  0  0  0  0
    3.7880   -5.2774    4.6158 C   0  0  0  0  0  0  0  0  0  0  0  0
    4.1719   -3.9338    4.6173 C   0  0  0  0  0  0  0  0  0  0  0  0
    4.6053   -3.2715    5.8021 C   0  0  0  0  0  0  0  0  0  0  0  0
    2.9928   -1.0698    3.7111 C   0  0  0  0  0  0  0  0  0  0  0  0
    2.2168   -0.8961    2.5540 C   0  0  0  0  0  0  0  0  0  0  0  0
    1.6095    0.3468   -1.5952 H   0  0  0  0  0  0  0  0  0  0  0  0
    3.2213   -0.3165   -1.3056 H   0  0  0  0  0  0  0  0  0  0  0  0
    2.7740    1.3217   -0.6898 H   0  0  0  0  0  0  0  0  0  0  0  0
    4.6251    0.3031    0.4813 H   0  0  0  0  0  0  0  0  0  0  0  0
    5.9739   -0.0799    2.4388 H   0  0  0  0  0  0  0  0  0  0  0  0
    6.2196    0.8278    4.3748 H   0  0  0  0  0  0  0  0  0  0  0  0
    7.2013   -0.4582    5.0810 H   0  0  0  0  0  0  0  0  0  0  0  0
    6.0780    0.5161    6.0691 H   0  0  0  0  0  0  0  0  0  0  0  0
    4.3891   -5.9766    7.8643 H   0  0  0  0  0  0  0  0  0  0  0  0
    3.6079   -7.0672    5.7973 H   0  0  0  0  0  0  0  0  0  0  0  0
    3.4426   -5.7464    3.6978 H   0  0  0  0  0  0  0  0  0  0  0  0
    4.1379   -3.4100    3.6677 H   0  0  0  0  0  0  0  0  0  0  0  0
    2.5008   -1.4299    4.6109 H   0  0  0  0  0  0  0  0  0  0  0  0
    1.1603   -1.1496    2.5745 H   0  0  0  0  0  0  0  0  0  0  0  0
  1  2  1  0  0  0  0
  1 22  1  0  0  0  0
  1 23  1  0  0  0  0
  1 24  1  0  0  0  0
  2  3  1  0  0  0  0
  3  4  1  0  0  0  0
  3 21  2  0  0  0  0
  4  5  2  0  0  0  0
  4 25  1  0  0  0  0
  5  6  1  0  0  0  0
  5 26  1  0  0  0  0
  6  7  1  0  0  0  0
  6 20  2  0  0  0  0
  7  8  1  0  0  0  0
  7  9  1  0  0  0  0
  8 27  1  0  0  0  0
  8 28  1  0  0  0  0
  8 29  1  0  0  0  0
  9 10  1  0  0  0  0
  9 19  2  0  0  0  0
 10 11  2  0  0  0  0
 11 12  1  0  0  0  0
 11 13  1  0  0  0  0
 13 14  2  0  0  0  0
 14 15  1  0  0  0  0
 14 19  1  0  0  0  0
 15 16  2  0  0  0  0
 15 30  1  0  0  0  0
 16 17  1  0  0  0  0
 16 31  1  0  0  0  0
 17 18  2  0  0  0  0
 17 32  1  0  0  0  0
 18 19  1  0  0  0  0
 18 33  1  0  0  0  0
 20 21  1  0  0  0  0
 20 34  1  0  0  0  0
 21 35  1  0  0  0  0
M  END
$$$$
