CHEMBL3694668
 OpenBabel04072215373D

 49 52  0  0  0  0  0  0  0  0999 V2000
    5.2643   -3.0479    0.9945 O   0  0  0  0  0  0  0  0  0  0  0  0
    6.1285   -3.2065    0.1443 C   0  0  0  0  0  0  0  0  0  0  0  0
    6.7458   -4.4299   -0.0283 N   0  0  0  0  0  0  0  0  0  0  0  0
    6.4658   -5.4933    0.9427 C   0  0  0  0  0  0  0  0  0  0  0  0
    7.2899   -5.4180    2.2358 C   0  0  0  0  0  0  0  0  0  0  0  0
    8.1963   -4.4130    2.1966 F   0  0  0  0  0  0  0  0  0  0  0  0
    6.5202   -5.2490    3.3295 F   0  0  0  0  0  0  0  0  0  0  0  0
    7.9913   -6.5668    2.4042 F   0  0  0  0  0  0  0  0  0  0  0  0
    6.6083   -2.2726   -0.7435 N   0  0  0  0  0  0  0  0  0  0  0  0
    6.1968   -0.9282   -0.8729 C   0  0  0  0  0  0  0  0  0  0  0  0
    5.1687   -0.3502   -0.1326 C   0  0  0  0  0  0  0  0  0  0  0  0
    4.7935    0.9747   -0.3606 C   0  0  0  0  0  0  0  0  0  0  0  0
    5.4426    1.7334   -1.3346 C   0  0  0  0  0  0  0  0  0  0  0  0
    6.4946    1.1866   -2.0775 C   0  0  0  0  0  0  0  0  0  0  0  0
    7.2136    2.0192   -3.0492 C   0  0  0  0  0  0  0  0  0  0  0  0
    7.5016    3.3760   -2.9994 C   0  0  0  0  0  0  0  0  0  0  0  0
    8.2772    3.7807   -4.0505 N   0  0  0  0  0  0  0  0  0  0  0  0
    8.4697    2.6991   -4.7694 C   0  0  0  0  0  0  0  0  0  0  0  0
    9.2302    2.5012   -5.9581 C   0  0  0  0  0  0  0  0  0  0  0  0
    9.2818    1.2900   -6.5655 C   0  0  0  0  0  0  0  0  0  0  0  0
   10.0981    1.1149   -7.7945 C   0  0  0  0  0  0  0  0  0  0  0  0
   10.7445    2.1782   -8.3059 N   0  0  0  0  0  0  0  0  0  0  0  0
   11.4556    1.9666   -9.4298 C   0  0  0  0  0  0  0  0  0  0  0  0
   11.5581    0.7440  -10.0547 C   0  0  0  0  0  0  0  0  0  0  0  0
   12.3259    0.5373  -11.3128 C   0  0  0  0  0  0  0  0  0  0  0  0
   13.3324   -0.4418  -11.1104 O   0  0  0  0  0  0  0  0  0  0  0  0
   10.8632   -0.2795   -9.4474 C   0  0  0  0  0  0  0  0  0  0  0  0
   10.1307   -0.1230   -8.3273 N   0  0  0  0  0  0  0  0  0  0  0  0
    8.5039    0.1803   -5.9935 C   0  0  0  0  0  0  0  0  0  0  0  0
    7.7794    0.3630   -4.8804 C   0  0  0  0  0  0  0  0  0  0  0  0
    7.7928    1.6021   -4.2417 N   0  0  0  0  0  0  0  0  0  0  0  0
    6.8714   -0.1416   -1.8171 C   0  0  0  0  0  0  0  0  0  0  0  0
    7.6910   -4.3969   -0.3836 H   0  0  0  0  0  0  0  0  0  0  0  0
    6.6701   -6.4385    0.4285 H   0  0  0  0  0  0  0  0  0  0  0  0
    5.3985   -5.4816    1.1883 H   0  0  0  0  0  0  0  0  0  0  0  0
    7.2874   -2.6005   -1.4094 H   0  0  0  0  0  0  0  0  0  0  0  0
    4.6312   -0.9041    0.6310 H   0  0  0  0  0  0  0  0  0  0  0  0
    3.9899    1.4143    0.2253 H   0  0  0  0  0  0  0  0  0  0  0  0
    5.1187    2.7590   -1.4971 H   0  0  0  0  0  0  0  0  0  0  0  0
    7.2113    4.0795   -2.2289 H   0  0  0  0  0  0  0  0  0  0  0  0
    9.7661    3.3628   -6.3416 H   0  0  0  0  0  0  0  0  0  0  0  0
   11.9538    2.8508   -9.8202 H   0  0  0  0  0  0  0  0  0  0  0  0
   12.8045    1.4609  -11.6551 H   0  0  0  0  0  0  0  0  0  0  0  0
   11.6568    0.1926  -12.1081 H   0  0  0  0  0  0  0  0  0  0  0  0
   13.9650   -0.0804  -10.4650 H   0  0  0  0  0  0  0  0  0  0  0  0
   10.8691   -1.2860   -9.8547 H   0  0  0  0  0  0  0  0  0  0  0  0
    8.5211   -0.7819   -6.4969 H   0  0  0  0  0  0  0  0  0  0  0  0
    7.1760   -0.4292   -4.4631 H   0  0  0  0  0  0  0  0  0  0  0  0
    7.7269   -0.5687   -2.3316 H   0  0  0  0  0  0  0  0  0  0  0  0
  1  2  2  0  0  0  0
  2  3  1  0  0  0  0
  2  9  1  0  0  0  0
  3  4  1  0  0  0  0
  3 33  1  0  0  0  0
  4  5  1  0  0  0  0
  4 34  1  0  0  0  0
  4 35  1  0  0  0  0
  5  6  1  0  0  0  0
  5  7  1  0  0  0  0
  5  8  1  0  0  0  0
  9 10  1  0  0  0  0
  9 36  1  0  0  0  0
 10 11  1  0  0  0  0
 10 32  2  0  0  0  0
 11 12  2  0  0  0  0
 11 37  1  0  0  0  0
 12 13  1  0  0  0  0
 12 38  1  0  0  0  0
 13 14  2  0  0  0  0
 13 39  1  0  0  0  0
 14 15  1  0  0  0  0
 14 32  1  0  0  0  0
 15 16  2  0  0  0  0
 15 31  1  0  0  0  0
 16 17  1  0  0  0  0
 16 40  1  0  0  0  0
 17 18  2  0  0  0  0
 18 19  1  0  0  0  0
 18 31  1  0  0  0  0
 19 20  2  0  0  0  0
 19 41  1  0  0  0  0
 20 21  1  0  0  0  0
 20 29  1  0  0  0  0
 21 22  1  0  0  0  0
 21 28  2  0  0  0  0
 22 23  2  0  0  0  0
 23 24  1  0  0  0  0
 23 42  1  0  0  0  0
 24 25  1  0  0  0  0
 24 27  2  0  0  0  0
 25 26  1  0  0  0  0
 25 43  1  0  0  0  0
 25 44  1  0  0  0  0
 26 45  1  0  0  0  0
 27 28  1  0  0  0  0
 27 46  1  0  0  0  0
 29 30  2  0  0  0  0
 29 47  1  0  0  0  0
 30 31  1  0  0  0  0
 30 48  1  0  0  0  0
 32 49  1  0  0  0  0
M  END
$$$$
