CHEMBL212084
 OpenBabel04072215363D

 37 41  0  0  0  0  0  0  0  0999 V2000
   -0.3356    0.6242    1.4315 C   0  0  0  0  0  0  0  0  0  0  0  0
    0.8284   -0.1084    1.4585 C   0  0  0  0  0  0  0  0  0  0  0  0
    0.9508   -0.6194    0.1945 N   0  0  0  0  0  0  0  0  0  0  0  0
    2.0035   -1.4914   -0.2948 C   0  0  0  0  0  0  0  0  0  0  0  0
    1.6622   -2.9378   -0.0349 C   0  0  0  0  0  0  0  0  0  0  0  0
    1.0642   -3.7613   -1.0239 C   0  0  0  0  0  0  0  0  0  0  0  0
    0.7503   -5.1122   -0.7773 C   0  0  0  0  0  0  0  0  0  0  0  0
    1.0237   -5.6304    0.4813 C   0  0  0  0  0  0  0  0  0  0  0  0
    1.5559   -4.7670    1.4660 C   0  0  0  0  0  0  0  0  0  0  0  0
    1.9059   -3.4607    1.2378 C   0  0  0  0  0  0  0  0  0  0  0  0
    1.6788   -5.5545    2.6272 C   0  0  0  0  0  0  0  0  0  0  0  0
    1.9642   -5.3871    3.9248 N   0  0  0  0  0  0  0  0  0  0  0  0
    1.9825   -6.5674    4.5707 N   0  0  0  0  0  0  0  0  0  0  0  0
    1.6422   -7.4773    3.6284 C   0  0  0  0  0  0  0  0  0  0  0  0
    1.6667   -8.9075    3.9478 C   0  0  0  0  0  0  0  0  0  0  0  0
    1.6368   -9.3561    5.3075 C   0  0  0  0  0  0  0  0  0  0  0  0
    1.7237  -10.7252    5.4139 C   0  0  0  0  0  0  0  0  0  0  0  0
    1.8708  -11.4720    3.8823 S   0  0  0  0  0  0  0  0  0  0  0  0
    1.8116   -9.9597    3.0709 C   0  0  0  0  0  0  0  0  0  0  0  0
    1.3342   -6.8575    2.4050 C   0  0  0  0  0  0  0  0  0  0  0  0
    0.8330   -7.0816    1.0070 C   0  0  0  0  0  0  0  0  0  0  0  0
   -0.1050   -0.1620   -0.5387 C   0  0  0  0  0  0  0  0  0  0  0  0
   -0.9007    0.5947    0.1838 N   0  0  0  0  0  0  0  0  0  0  0  0
   -0.7986    1.1695    2.2431 H   0  0  0  0  0  0  0  0  0  0  0  0
    1.5346   -0.3145    2.2496 H   0  0  0  0  0  0  0  0  0  0  0  0
    2.9333   -1.2156    0.2195 H   0  0  0  0  0  0  0  0  0  0  0  0
    2.1549   -1.2948   -1.3619 H   0  0  0  0  0  0  0  0  0  0  0  0
    0.8378   -3.3445   -2.0053 H   0  0  0  0  0  0  0  0  0  0  0  0
    0.3036   -5.7235   -1.5549 H   0  0  0  0  0  0  0  0  0  0  0  0
    2.3620   -2.8656    2.0205 H   0  0  0  0  0  0  0  0  0  0  0  0
    2.1427   -4.5346    4.4442 H   0  0  0  0  0  0  0  0  0  0  0  0
    1.5680   -8.6954    6.1649 H   0  0  0  0  0  0  0  0  0  0  0  0
    1.7225  -11.3144    6.3207 H   0  0  0  0  0  0  0  0  0  0  0  0
    1.9195   -9.9319    1.9967 H   0  0  0  0  0  0  0  0  0  0  0  0
   -0.2280   -7.3493    0.9945 H   0  0  0  0  0  0  0  0  0  0  0  0
    1.4446   -7.7874    0.4418 H   0  0  0  0  0  0  0  0  0  0  0  0
   -0.2505   -0.4101   -1.5811 H   0  0  0  0  0  0  0  0  0  0  0  0
  1  2  2  0  0  0  0
  1 23  1  0  0  0  0
  1 24  1  0  0  0  0
  2  3  1  0  0  0  0
  2 25  1  0  0  0  0
  3  4  1  0  0  0  0
  3 22  1  0  0  0  0
  4  5  1  0  0  0  0
  4 26  1  0  0  0  0
  4 27  1  0  0  0  0
  5  6  1  0  0  0  0
  5 10  2  0  0  0  0
  6  7  2  0  0  0  0
  6 28  1  0  0  0  0
  7  8  1  0  0  0  0
  7 29  1  0  0  0  0
  8  9  2  0  0  0  0
  8 21  1  0  0  0  0
  9 10  1  0  0  0  0
  9 11  1  0  0  0  0
 10 30  1  0  0  0  0
 11 12  1  0  0  0  0
 11 20  2  0  0  0  0
 12 13  1  0  0  0  0
 12 31  1  0  0  0  0
 13 14  2  0  0  0  0
 14 15  1  0  0  0  0
 14 20  1  0  0  0  0
 15 16  1  0  0  0  0
 15 19  2  0  0  0  0
 16 17  2  0  0  0  0
 16 32  1  0  0  0  0
 17 18  1  0  0  0  0
 17 33  1  0  0  0  0
 18 19  1  0  0  0  0
 19 34  1  0  0  0  0
 20 21  1  0  0  0  0
 21 35  1  0  0  0  0
 21 36  1  0  0  0  0
 22 23  2  0  0  0  0
 22 37  1  0  0  0  0
M  END
$$$$
