CHEMBL4448424
 OpenBabel04072215383D

 52 55  0  0  0  0  0  0  0  0999 V2000
    3.8025   -0.2775    1.4455 C   0  0  0  0  0  0  0  0  0  0  0  0
    3.7170   -0.6401    0.0708 O   0  0  0  0  0  0  0  0  0  0  0  0
    4.1155    0.3093   -0.8306 C   0  0  0  0  0  0  0  0  0  0  0  0
    4.5830    1.5802   -0.5055 C   0  0  0  0  0  0  0  0  0  0  0  0
    4.9623    2.4713   -1.5109 C   0  0  0  0  0  0  0  0  0  0  0  0
    4.8725    2.1035   -2.8606 C   0  0  0  0  0  0  0  0  0  0  0  0
    5.2468    3.0241   -3.8793 N   0  0  0  0  0  0  0  0  0  0  0  0
    5.8012    4.2665   -3.6955 C   0  0  0  0  0  0  0  0  0  0  0  0
    5.9433    4.8524   -4.9255 C   0  0  0  0  0  0  0  0  0  0  0  0
    6.4439    6.1151   -5.2023 N   0  0  0  0  0  0  0  0  0  0  0  0
    6.8952    6.9899   -4.2264 C   0  0  0  0  0  0  0  0  0  0  0  0
    6.9369    6.7678   -3.0194 O   0  0  0  0  0  0  0  0  0  0  0  0
    7.4037    8.3071   -4.6952 C   0  0  0  0  0  0  0  0  0  0  0  0
    6.9401    8.9439   -5.8540 C   0  0  0  0  0  0  0  0  0  0  0  0
    7.4301   10.2113   -6.1983 C   0  0  0  0  0  0  0  0  0  0  0  0
    8.3778   10.8350   -5.3864 C   0  0  0  0  0  0  0  0  0  0  0  0
    8.8474   12.1410   -5.6752 N   0  0  0  0  0  0  0  0  0  0  0  0
    7.9738   13.4606   -5.0777 S   0  0  0  0  0  0  0  0  0  0  0  0
    8.6352   14.6448   -5.5831 O   0  0  0  0  0  0  0  0  0  0  0  0
    6.5661   13.2287   -5.3226 O   0  0  0  0  0  0  0  0  0  0  0  0
    8.2817   13.3856   -3.3316 C   0  0  0  0  0  0  0  0  0  0  0  0
    9.5963   13.4859   -2.8637 C   0  0  0  0  0  0  0  0  0  0  0  0
    9.8504   13.3424   -1.4999 C   0  0  0  0  0  0  0  0  0  0  0  0
    8.7953   13.1205   -0.6124 C   0  0  0  0  0  0  0  0  0  0  0  0
    7.4828   13.0448   -1.0826 C   0  0  0  0  0  0  0  0  0  0  0  0
    7.2206   13.1756   -2.4463 C   0  0  0  0  0  0  0  0  0  0  0  0
    8.8388   10.2048   -4.2339 C   0  0  0  0  0  0  0  0  0  0  0  0
    8.3508    8.9491   -3.8859 C   0  0  0  0  0  0  0  0  0  0  0  0
    5.4660    3.8737   -5.8187 C   0  0  0  0  0  0  0  0  0  0  0  0
    5.0633    2.7580   -5.2008 N   0  0  0  0  0  0  0  0  0  0  0  0
    4.4018    0.8284   -3.1921 C   0  0  0  0  0  0  0  0  0  0  0  0
    4.0301   -0.0620   -2.1760 C   0  0  0  0  0  0  0  0  0  0  0  0
    3.4644   -1.1289    2.0427 H   0  0  0  0  0  0  0  0  0  0  0  0
    3.1455    0.5699    1.6717 H   0  0  0  0  0  0  0  0  0  0  0  0
    4.8373   -0.0600    1.7324 H   0  0  0  0  0  0  0  0  0  0  0  0
    4.6626    1.9204    0.5213 H   0  0  0  0  0  0  0  0  0  0  0  0
    5.3091    3.4507   -1.1960 H   0  0  0  0  0  0  0  0  0  0  0  0
    6.0566    4.6301   -2.7160 H   0  0  0  0  0  0  0  0  0  0  0  0
    6.5155    6.3664   -6.1780 H   0  0  0  0  0  0  0  0  0  0  0  0
    6.1659    8.5003   -6.4730 H   0  0  0  0  0  0  0  0  0  0  0  0
    7.0398   10.7167   -7.0784 H   0  0  0  0  0  0  0  0  0  0  0  0
    9.2526   12.3299   -6.5902 H   0  0  0  0  0  0  0  0  0  0  0  0
   10.4191   13.6489   -3.5558 H   0  0  0  0  0  0  0  0  0  0  0  0
   10.8702   13.3967   -1.1264 H   0  0  0  0  0  0  0  0  0  0  0  0
    8.9957   13.0063    0.4506 H   0  0  0  0  0  0  0  0  0  0  0  0
    6.6649   12.8754   -0.3859 H   0  0  0  0  0  0  0  0  0  0  0  0
    6.1973   13.0996   -2.8074 H   0  0  0  0  0  0  0  0  0  0  0  0
    9.5730   10.6817   -3.5915 H   0  0  0  0  0  0  0  0  0  0  0  0
    8.7045    8.4775   -2.9701 H   0  0  0  0  0  0  0  0  0  0  0  0
    5.3932    3.9211   -6.8971 H   0  0  0  0  0  0  0  0  0  0  0  0
    4.3239    0.5104   -4.2294 H   0  0  0  0  0  0  0  0  0  0  0  0
    3.6682   -1.0537   -2.4380 H   0  0  0  0  0  0  0  0  0  0  0  0
  1  2  1  0  0  0  0
  1 33  1  0  0  0  0
  1 34  1  0  0  0  0
  1 35  1  0  0  0  0
  2  3  1  0  0  0  0
  3  4  1  0  0  0  0
  3 32  2  0  0  0  0
  4  5  2  0  0  0  0
  4 36  1  0  0  0  0
  5  6  1  0  0  0  0
  5 37  1  0  0  0  0
  6  7  1  0  0  0  0
  6 31  2  0  0  0  0
  7  8  1  0  0  0  0
  7 30  1  0  0  0  0
  8  9  2  0  0  0  0
  8 38  1  0  0  0  0
  9 10  1  0  0  0  0
  9 29  1  0  0  0  0
 10 11  1  0  0  0  0
 10 39  1  0  0  0  0
 11 12  2  0  0  0  0
 11 13  1  0  0  0  0
 13 14  1  0  0  0  0
 13 28  2  0  0  0  0
 14 15  2  0  0  0  0
 14 40  1  0  0  0  0
 15 16  1  0  0  0  0
 15 41  1  0  0  0  0
 16 17  1  0  0  0  0
 16 27  2  0  0  0  0
 17 18  1  0  0  0  0
 17 42  1  0  0  0  0
 18 19  2  0  0  0  0
 18 20  2  0  0  0  0
 18 21  1  0  0  0  0
 21 22  1  0  0  0  0
 21 26  2  0  0  0  0
 22 23  2  0  0  0  0
 22 43  1  0  0  0  0
 23 24  1  0  0  0  0
 23 44  1  0  0  0  0
 24 25  2  0  0  0  0
 24 45  1  0  0  0  0
 25 26  1  0  0  0  0
 25 46  1  0  0  0  0
 26 47  1  0  0  0  0
 27 28  1  0  0  0  0
 27 48  1  0  0  0  0
 28 49  1  0  0  0  0
 29 30  2  0  0  0  0
 29 50  1  0  0  0  0
 31 32  1  0  0  0  0
 31 51  1  0  0  0  0
 32 52  1  0  0  0  0
M  END
$$$$
