CHEMBL179165
 OpenBabel04072215363D

 52 55  0  0  0  0  0  0  0  0999 V2000
    4.5934   -1.4466    0.2191 C   0  0  0  0  0  0  0  0  0  0  0  0
    4.1469   -0.1417    0.5863 O   0  0  0  0  0  0  0  0  0  0  0  0
    4.3526    0.8081   -0.3807 C   0  0  0  0  0  0  0  0  0  0  0  0
    5.4967    0.8088   -1.1875 C   0  0  0  0  0  0  0  0  0  0  0  0
    5.6759    1.7066   -2.2295 C   0  0  0  0  0  0  0  0  0  0  0  0
    6.8004    1.5776   -2.9502 N   0  0  0  0  0  0  0  0  0  0  0  0
    6.9974    2.4126   -3.9869 C   0  0  0  0  0  0  0  0  0  0  0  0
    6.1221    3.4163   -4.3282 C   0  0  0  0  0  0  0  0  0  0  0  0
    4.9625    3.5752   -3.5675 C   0  0  0  0  0  0  0  0  0  0  0  0
    4.1642    4.6104   -4.0264 O   0  0  0  0  0  0  0  0  0  0  0  0
    3.4470    5.3888   -3.1544 C   0  0  0  0  0  0  0  0  0  0  0  0
    3.8576    5.7027   -1.8661 C   0  0  0  0  0  0  0  0  0  0  0  0
    2.9500    6.2757   -0.9736 C   0  0  0  0  0  0  0  0  0  0  0  0
    1.6567    6.6362   -1.3787 C   0  0  0  0  0  0  0  0  0  0  0  0
    0.6649    7.1091   -0.4886 N   0  0  0  0  0  0  0  0  0  0  0  0
    0.8266    7.2895    0.8721 C   0  0  0  0  0  0  0  0  0  0  0  0
    1.8917    7.1840    1.4729 O   0  0  0  0  0  0  0  0  0  0  0  0
   -0.3726    7.5599    1.5208 N   0  0  0  0  0  0  0  0  0  0  0  0
   -0.3767    7.7662    2.9227 C   0  0  0  0  0  0  0  0  0  0  0  0
    0.5821    8.5837    3.5367 C   0  0  0  0  0  0  0  0  0  0  0  0
    0.6428    8.6873    4.9275 C   0  0  0  0  0  0  0  0  0  0  0  0
   -0.2576    7.9674    5.7059 C   0  0  0  0  0  0  0  0  0  0  0  0
   -0.1505    8.0418    7.4212 Cl  0  0  0  0  0  0  0  0  0  0  0  0
   -1.2383    7.1774    5.1042 C   0  0  0  0  0  0  0  0  0  0  0  0
   -1.3151    7.0952    3.7088 C   0  0  0  0  0  0  0  0  0  0  0  0
    1.3169    6.4759   -2.7297 C   0  0  0  0  0  0  0  0  0  0  0  0
    2.2085    5.8500   -3.6128 C   0  0  0  0  0  0  0  0  0  0  0  0
    4.6838    2.6716   -2.4988 C   0  0  0  0  0  0  0  0  0  0  0  0
    3.5203    2.6466   -1.6784 C   0  0  0  0  0  0  0  0  0  0  0  0
    3.3863    1.7879   -0.5821 C   0  0  0  0  0  0  0  0  0  0  0  0
    2.2470    1.9814    0.1520 O   0  0  0  0  0  0  0  0  0  0  0  0
    2.3731    1.7857    1.5598 C   0  0  0  0  0  0  0  0  0  0  0  0
    4.0316   -2.1760    0.8092 H   0  0  0  0  0  0  0  0  0  0  0  0
    5.6551   -1.5629    0.4588 H   0  0  0  0  0  0  0  0  0  0  0  0
    4.4086   -1.6673   -0.8395 H   0  0  0  0  0  0  0  0  0  0  0  0
    6.2891    0.0861   -1.0147 H   0  0  0  0  0  0  0  0  0  0  0  0
    7.9102    2.2409   -4.5505 H   0  0  0  0  0  0  0  0  0  0  0  0
    6.3343    4.0657   -5.1713 H   0  0  0  0  0  0  0  0  0  0  0  0
    4.8356    5.4085   -1.4941 H   0  0  0  0  0  0  0  0  0  0  0  0
    3.2835    6.3815    0.0480 H   0  0  0  0  0  0  0  0  0  0  0  0
   -0.2297    7.3666   -0.8826 H   0  0  0  0  0  0  0  0  0  0  0  0
   -1.1728    7.0793    1.1354 H   0  0  0  0  0  0  0  0  0  0  0  0
    1.3095    9.1289    2.9380 H   0  0  0  0  0  0  0  0  0  0  0  0
    1.4091    9.3042    5.3868 H   0  0  0  0  0  0  0  0  0  0  0  0
   -1.9266    6.6021    5.7167 H   0  0  0  0  0  0  0  0  0  0  0  0
   -2.0597    6.4450    3.2601 H   0  0  0  0  0  0  0  0  0  0  0  0
    0.3455    6.7808   -3.1037 H   0  0  0  0  0  0  0  0  0  0  0  0
    1.9175    5.6747   -4.6435 H   0  0  0  0  0  0  0  0  0  0  0  0
    2.6938    3.3242   -1.8665 H   0  0  0  0  0  0  0  0  0  0  0  0
    1.6984    2.4920    2.0587 H   0  0  0  0  0  0  0  0  0  0  0  0
    3.3813    1.9795    1.9412 H   0  0  0  0  0  0  0  0  0  0  0  0
    2.0441    0.7749    1.8192 H   0  0  0  0  0  0  0  0  0  0  0  0
  1  2  1  0  0  0  0
  1 33  1  0  0  0  0
  1 34  1  0  0  0  0
  1 35  1  0  0  0  0
  2  3  1  0  0  0  0
  3  4  1  0  0  0  0
  3 30  2  0  0  0  0
  4  5  2  0  0  0  0
  4 36  1  0  0  0  0
  5  6  1  0  0  0  0
  5 28  1  0  0  0  0
  6  7  2  0  0  0  0
  7  8  1  0  0  0  0
  7 37  1  0  0  0  0
  8  9  2  0  0  0  0
  8 38  1  0  0  0  0
  9 10  1  0  0  0  0
  9 28  1  0  0  0  0
 10 11  1  0  0  0  0
 11 12  1  0  0  0  0
 11 27  2  0  0  0  0
 12 13  2  0  0  0  0
 12 39  1  0  0  0  0
 13 14  1  0  0  0  0
 13 40  1  0  0  0  0
 14 15  1  0  0  0  0
 14 26  2  0  0  0  0
 15 16  1  0  0  0  0
 15 41  1  0  0  0  0
 16 17  2  0  0  0  0
 16 18  1  0  0  0  0
 18 19  1  0  0  0  0
 18 42  1  0  0  0  0
 19 20  1  0  0  0  0
 19 25  2  0  0  0  0
 20 21  2  0  0  0  0
 20 43  1  0  0  0  0
 21 22  1  0  0  0  0
 21 44  1  0  0  0  0
 22 23  1  0  0  0  0
 22 24  2  0  0  0  0
 24 25  1  0  0  0  0
 24 45  1  0  0  0  0
 25 46  1  0  0  0  0
 26 27  1  0  0  0  0
 26 47  1  0  0  0  0
 27 48  1  0  0  0  0
 28 29  2  0  0  0  0
 29 30  1  0  0  0  0
 29 49  1  0  0  0  0
 30 31  1  0  0  0  0
 31 32  1  0  0  0  0
 32 50  1  0  0  0  0
 32 51  1  0  0  0  0
 32 52  1  0  0  0  0
M  END
$$$$
