CHEMBL433097
 OpenBabel04072215383D

 51 54  0  0  0  0  0  0  0  0999 V2000
    0.9549    0.1247   -0.0422 C   0  0  0  0  0  0  0  0  0  0  0  0
    2.4709   -0.1337    0.0158 C   0  0  0  0  0  0  0  0  0  0  0  0
    3.1738    1.1639    0.4892 C   0  0  0  0  0  0  0  0  0  0  0  0
    2.7681   -1.1878    1.1089 C   0  0  0  0  0  0  0  0  0  0  0  0
    2.9254   -0.5455   -1.3337 N   0  0  0  0  0  0  0  0  0  0  0  0
    3.3488    0.3160   -2.3255 C   0  0  0  0  0  0  0  0  0  0  0  0
    3.6228   -0.4015   -3.4758 C   0  0  0  0  0  0  0  0  0  0  0  0
    4.0942    0.2303   -4.7053 C   0  0  0  0  0  0  0  0  0  0  0  0
    4.9220    1.3599   -4.6654 C   0  0  0  0  0  0  0  0  0  0  0  0
    5.4838    1.8728   -5.8418 C   0  0  0  0  0  0  0  0  0  0  0  0
    5.3013    1.2025   -7.0516 C   0  0  0  0  0  0  0  0  0  0  0  0
    5.9193    1.5341   -8.2332 O   0  0  0  0  0  0  0  0  0  0  0  0
    7.1912    2.0615   -8.2214 C   0  0  0  0  0  0  0  0  0  0  0  0
    8.1695    1.7734   -7.2672 C   0  0  0  0  0  0  0  0  0  0  0  0
    9.3867    2.4504   -7.3004 C   0  0  0  0  0  0  0  0  0  0  0  0
    9.6580    3.3454   -8.3367 C   0  0  0  0  0  0  0  0  0  0  0  0
    8.7462    3.5253   -9.3796 C   0  0  0  0  0  0  0  0  0  0  0  0
    8.9911    4.4790  -10.3756 N   0  0  0  0  0  0  0  0  0  0  0  0
    7.4923    2.9182   -9.2835 C   0  0  0  0  0  0  0  0  0  0  0  0
    4.3982    0.1463   -7.1160 C   0  0  0  0  0  0  0  0  0  0  0  0
    3.7668   -0.3044   -5.9557 C   0  0  0  0  0  0  0  0  0  0  0  0
    3.3515   -1.7798   -3.1761 C   0  0  0  0  0  0  0  0  0  0  0  0
    3.4355   -3.0233   -3.8395 C   0  0  0  0  0  0  0  0  0  0  0  0
    3.9414   -3.2249   -5.1183 N   0  0  0  0  0  0  0  0  0  0  0  0
    3.0229   -4.1386   -3.2090 N   0  0  0  0  0  0  0  0  0  0  0  0
    2.5570   -4.0254   -1.9576 C   0  0  0  0  0  0  0  0  0  0  0  0
    2.4600   -2.9191   -1.2150 N   0  0  0  0  0  0  0  0  0  0  0  0
    2.8829   -1.8198   -1.8625 C   0  0  0  0  0  0  0  0  0  0  0  0
    0.5682    0.4460    0.9312 H   0  0  0  0  0  0  0  0  0  0  0  0
    0.4068   -0.7768   -0.3390 H   0  0  0  0  0  0  0  0  0  0  0  0
    0.7144    0.9074   -0.7715 H   0  0  0  0  0  0  0  0  0  0  0  0
    2.8748    1.4249    1.5120 H   0  0  0  0  0  0  0  0  0  0  0  0
    2.9186    2.0266   -0.1348 H   0  0  0  0  0  0  0  0  0  0  0  0
    4.2640    1.0487    0.4819 H   0  0  0  0  0  0  0  0  0  0  0  0
    2.5460   -0.7934    2.1083 H   0  0  0  0  0  0  0  0  0  0  0  0
    3.8226   -1.4862    1.0973 H   0  0  0  0  0  0  0  0  0  0  0  0
    2.1545   -2.0871    1.0049 H   0  0  0  0  0  0  0  0  0  0  0  0
    3.4096    1.3803   -2.1457 H   0  0  0  0  0  0  0  0  0  0  0  0
    5.1656    1.8483   -3.7269 H   0  0  0  0  0  0  0  0  0  0  0  0
    6.1011    2.7649   -5.7851 H   0  0  0  0  0  0  0  0  0  0  0  0
    7.9866    1.0605   -6.4684 H   0  0  0  0  0  0  0  0  0  0  0  0
   10.1173    2.2935   -6.5113 H   0  0  0  0  0  0  0  0  0  0  0  0
   10.5968    3.8922   -8.3301 H   0  0  0  0  0  0  0  0  0  0  0  0
    9.9782    4.6281  -10.5599 H   0  0  0  0  0  0  0  0  0  0  0  0
    8.4670    4.3113  -11.2292 H   0  0  0  0  0  0  0  0  0  0  0  0
    6.7319    3.1120  -10.0350 H   0  0  0  0  0  0  0  0  0  0  0  0
    4.1957   -0.3447   -8.0643 H   0  0  0  0  0  0  0  0  0  0  0  0
    3.0391   -1.1073   -6.0441 H   0  0  0  0  0  0  0  0  0  0  0  0
    4.7149   -2.6153   -5.3523 H   0  0  0  0  0  0  0  0  0  0  0  0
    4.0997   -4.2133   -5.2783 H   0  0  0  0  0  0  0  0  0  0  0  0
    2.2286   -4.9477   -1.4895 H   0  0  0  0  0  0  0  0  0  0  0  0
  1  2  1  0  0  0  0
  1 29  1  0  0  0  0
  1 30  1  0  0  0  0
  1 31  1  0  0  0  0
  2  3  1  0  0  0  0
  2  4  1  0  0  0  0
  2  5  1  0  0  0  0
  3 32  1  0  0  0  0
  3 33  1  0  0  0  0
  3 34  1  0  0  0  0
  4 35  1  0  0  0  0
  4 36  1  0  0  0  0
  4 37  1  0  0  0  0
  5  6  1  0  0  0  0
  5 28  1  0  0  0  0
  6  7  2  0  0  0  0
  6 38  1  0  0  0  0
  7  8  1  0  0  0  0
  7 22  1  0  0  0  0
  8  9  1  0  0  0  0
  8 21  2  0  0  0  0
  9 10  2  0  0  0  0
  9 39  1  0  0  0  0
 10 11  1  0  0  0  0
 10 40  1  0  0  0  0
 11 12  1  0  0  0  0
 11 20  2  0  0  0  0
 12 13  1  0  0  0  0
 13 14  1  0  0  0  0
 13 19  2  0  0  0  0
 14 15  2  0  0  0  0
 14 41  1  0  0  0  0
 15 16  1  0  0  0  0
 15 42  1  0  0  0  0
 16 17  2  0  0  0  0
 16 43  1  0  0  0  0
 17 18  1  0  0  0  0
 17 19  1  0  0  0  0
 18 44  1  0  0  0  0
 18 45  1  0  0  0  0
 19 46  1  0  0  0  0
 20 21  1  0  0  0  0
 20 47  1  0  0  0  0
 21 48  1  0  0  0  0
 22 23  1  0  0  0  0
 22 28  2  0  0  0  0
 23 24  1  0  0  0  0
 23 25  2  0  0  0  0
 24 49  1  0  0  0  0
 24 50  1  0  0  0  0
 25 26  1  0  0  0  0
 26 27  2  0  0  0  0
 26 51  1  0  0  0  0
 27 28  1  0  0  0  0
M  END
$$$$
