CHEMBL3975944
 OpenBabel04072215373D

 52 55  0  0  0  0  0  0  0  0999 V2000
   -2.8760    0.1490    2.1273 N   0  0  0  0  0  0  0  0  0  0  0  0
   -1.7522    0.1592    1.8405 C   0  0  0  0  0  0  0  0  0  0  0  0
   -0.3561    0.1124    1.5077 C   0  0  0  0  0  0  0  0  0  0  0  0
    0.2571   -1.1392    1.5303 C   0  0  0  0  0  0  0  0  0  0  0  0
    1.6116   -1.2746    1.2468 C   0  0  0  0  0  0  0  0  0  0  0  0
    2.4141   -0.1775    0.9162 C   0  0  0  0  0  0  0  0  0  0  0  0
    3.8052   -0.2949    0.6366 N   0  0  0  0  0  0  0  0  0  0  0  0
    4.4923   -1.4967    0.5325 C   0  0  0  0  0  0  0  0  0  0  0  0
    3.9645   -2.6031    0.5888 O   0  0  0  0  0  0  0  0  0  0  0  0
    5.8608   -1.3492    0.3666 N   0  0  0  0  0  0  0  0  0  0  0  0
    6.6526   -2.5173    0.2565 C   0  0  0  0  0  0  0  0  0  0  0  0
    6.2851   -3.5513   -0.6037 C   0  0  0  0  0  0  0  0  0  0  0  0
    6.9890   -4.7563   -0.5780 C   0  0  0  0  0  0  0  0  0  0  0  0
    8.0229   -4.9229    0.3347 C   0  0  0  0  0  0  0  0  0  0  0  0
    8.7607   -6.0778    0.4873 O   0  0  0  0  0  0  0  0  0  0  0  0
    8.1706   -7.3115    0.2713 C   0  0  0  0  0  0  0  0  0  0  0  0
    6.8555   -7.5996    0.6245 C   0  0  0  0  0  0  0  0  0  0  0  0
    6.3781   -8.8595    0.3410 C   0  0  0  0  0  0  0  0  0  0  0  0
    7.1272   -9.8309   -0.2123 N   0  0  0  0  0  0  0  0  0  0  0  0
    8.4184   -9.5854   -0.4993 C   0  0  0  0  0  0  0  0  0  0  0  0
    9.2078  -10.6145   -1.0505 N   0  0  0  0  0  0  0  0  0  0  0  0
    8.7317  -11.8855   -1.3227 C   0  0  0  0  0  0  0  0  0  0  0  0
    7.6047  -12.3133   -1.1076 O   0  0  0  0  0  0  0  0  0  0  0  0
    9.6829  -12.8613   -1.9456 C   0  0  0  0  0  0  0  0  0  0  0  0
   11.1405  -12.9659   -1.5790 C   0  0  0  0  0  0  0  0  0  0  0  0
   10.7439  -12.4754   -2.9439 C   0  0  0  0  0  0  0  0  0  0  0  0
    8.9765   -8.3282   -0.2645 C   0  0  0  0  0  0  0  0  0  0  0  0
    8.3709   -3.8080    1.0962 C   0  0  0  0  0  0  0  0  0  0  0  0
    7.7319   -2.6002    1.0589 N   0  0  0  0  0  0  0  0  0  0  0  0
    1.7941    1.0857    0.8797 C   0  0  0  0  0  0  0  0  0  0  0  0
    0.4085    1.2439    1.1730 C   0  0  0  0  0  0  0  0  0  0  0  0
   -0.1891    2.6339    1.1232 C   0  0  0  0  0  0  0  0  0  0  0  0
   -1.5140    2.7083    1.4124 F   0  0  0  0  0  0  0  0  0  0  0  0
    0.4240    3.4810    1.9948 F   0  0  0  0  0  0  0  0  0  0  0  0
   -0.0512    3.2012   -0.1065 F   0  0  0  0  0  0  0  0  0  0  0  0
   -0.3130   -2.0359    1.7789 H   0  0  0  0  0  0  0  0  0  0  0  0
    2.0061   -2.2827    1.3007 H   0  0  0  0  0  0  0  0  0  0  0  0
    4.3114    0.5462    0.3875 H   0  0  0  0  0  0  0  0  0  0  0  0
    6.2992   -0.6443    0.9411 H   0  0  0  0  0  0  0  0  0  0  0  0
    5.4338   -3.4442   -1.2692 H   0  0  0  0  0  0  0  0  0  0  0  0
    6.6865   -5.5531   -1.2501 H   0  0  0  0  0  0  0  0  0  0  0  0
    6.2021   -6.8740    1.0942 H   0  0  0  0  0  0  0  0  0  0  0  0
    5.3507   -9.1420    0.5509 H   0  0  0  0  0  0  0  0  0  0  0  0
   10.1710  -10.4094   -1.2568 H   0  0  0  0  0  0  0  0  0  0  0  0
    9.1894  -13.8135   -2.1445 H   0  0  0  0  0  0  0  0  0  0  0  0
   11.5575  -13.9664   -1.5012 H   0  0  0  0  0  0  0  0  0  0  0  0
   11.5663  -12.2642   -0.8748 H   0  0  0  0  0  0  0  0  0  0  0  0
   10.8887  -13.1443   -3.7879 H   0  0  0  0  0  0  0  0  0  0  0  0
   10.8986  -11.4332   -3.1875 H   0  0  0  0  0  0  0  0  0  0  0  0
   10.0175   -8.1254   -0.4903 H   0  0  0  0  0  0  0  0  0  0  0  0
    9.1950   -3.8592    1.8035 H   0  0  0  0  0  0  0  0  0  0  0  0
    2.3762    1.9700    0.6251 H   0  0  0  0  0  0  0  0  0  0  0  0
  1  2  3  0  0  0  0
  2  3  1  0  0  0  0
  3  4  1  0  0  0  0
  3 31  2  0  0  0  0
  4  5  2  0  0  0  0
  4 36  1  0  0  0  0
  5  6  1  0  0  0  0
  5 37  1  0  0  0  0
  6  7  1  0  0  0  0
  6 30  2  0  0  0  0
  7  8  1  0  0  0  0
  7 38  1  0  0  0  0
  8  9  2  0  0  0  0
  8 10  1  0  0  0  0
 10 11  1  0  0  0  0
 10 39  1  0  0  0  0
 11 12  1  0  0  0  0
 11 29  2  0  0  0  0
 12 13  2  0  0  0  0
 12 40  1  0  0  0  0
 13 14  1  0  0  0  0
 13 41  1  0  0  0  0
 14 15  1  0  0  0  0
 14 28  2  0  0  0  0
 15 16  1  0  0  0  0
 16 17  1  0  0  0  0
 16 27  2  0  0  0  0
 17 18  2  0  0  0  0
 17 42  1  0  0  0  0
 18 19  1  0  0  0  0
 18 43  1  0  0  0  0
 19 20  2  0  0  0  0
 20 21  1  0  0  0  0
 20 27  1  0  0  0  0
 21 22  1  0  0  0  0
 21 44  1  0  0  0  0
 22 23  2  0  0  0  0
 22 24  1  0  0  0  0
 24 25  1  0  0  0  0
 24 26  1  0  0  0  0
 24 45  1  0  0  0  0
 25 26  1  0  0  0  0
 25 46  1  0  0  0  0
 25 47  1  0  0  0  0
 26 48  1  0  0  0  0
 26 49  1  0  0  0  0
 27 50  1  0  0  0  0
 28 29  1  0  0  0  0
 28 51  1  0  0  0  0
 30 31  1  0  0  0  0
 30 52  1  0  0  0  0
 31 32  1  0  0  0  0
 32 33  1  0  0  0  0
 32 34  1  0  0  0  0
 32 35  1  0  0  0  0
M  END
$$$$
