CHEMBL598727
 OpenBabel04072215383D

 34 36  0  0  1  0  0  0  0  0999 V2000
    1.0467   -0.0906    0.1085 C   0  0  0  0  0  0  0  0  0  0  0  0
    2.5711    0.0264   -0.0220 C   0  0  3  0  0  0  0  0  0  0  0  0
    2.9795    1.2880   -0.5733 O   0  0  0  0  0  0  0  0  0  0  0  0
    2.5283    1.6612   -1.8074 C   0  0  0  0  0  0  0  0  0  0  0  0
    2.3006    0.8002   -2.8713 C   0  0  0  0  0  0  0  0  0  0  0  0
    1.8586    1.3166   -4.0996 C   0  0  0  0  0  0  0  0  0  0  0  0
    1.6151    2.6677   -4.2869 C   0  0  0  0  0  0  0  0  0  0  0  0
    1.1629    3.0951   -5.4825 N   0  0  0  0  0  0  0  0  0  0  0  0
    0.8933    4.4115   -5.6217 C   0  0  0  0  0  0  0  0  0  0  0  0
    1.0615    5.3446   -4.6176 C   0  0  0  0  0  0  0  0  0  0  0  0
    1.5533    4.9017   -3.3937 C   0  0  0  0  0  0  0  0  0  0  0  0
    1.8444    3.5402   -3.2084 C   0  0  0  0  0  0  0  0  0  0  0  0
    2.3268    3.0327   -1.9846 C   0  0  0  0  0  0  0  0  0  0  0  0
    3.1729   -0.1781    1.3757 C   0  0  0  0  0  0  0  0  0  0  0  0
    3.3893    0.8733    2.2973 C   0  0  0  0  0  0  0  0  0  0  0  0
    3.0489    2.5380    1.9651 Cl  0  0  0  0  0  0  0  0  0  0  0  0
    3.8526    0.6175    3.5989 C   0  0  0  0  0  0  0  0  0  0  0  0
    4.0755   -0.6840    4.0304 C   0  0  0  0  0  0  0  0  0  0  0  0
    3.8520   -1.7314    3.1521 C   0  0  0  0  0  0  0  0  0  0  0  0
    4.0351   -2.9833    3.5985 F   0  0  0  0  0  0  0  0  0  0  0  0
    3.4193   -1.4955    1.8402 C   0  0  0  0  0  0  0  0  0  0  0  0
    3.1536   -2.8911    0.8424 Cl  0  0  0  0  0  0  0  0  0  0  0  0
    0.5800   -0.2612   -0.8671 H   0  0  0  0  0  0  0  0  0  0  0  0
    0.6111    0.8291    0.5150 H   0  0  0  0  0  0  0  0  0  0  0  0
    0.7471   -0.9232    0.7548 H   0  0  0  0  0  0  0  0  0  0  0  0
    2.9650   -0.7511   -0.6835 H   0  0  0  0  0  0  0  0  0  0  0  0
    2.4661   -0.2699   -2.7898 H   0  0  0  0  0  0  0  0  0  0  0  0
    1.6864    0.6356   -4.9303 H   0  0  0  0  0  0  0  0  0  0  0  0
    0.5185    4.7019   -6.6005 H   0  0  0  0  0  0  0  0  0  0  0  0
    0.8103    6.3858   -4.7798 H   0  0  0  0  0  0  0  0  0  0  0  0
    1.6954    5.6149   -2.5857 H   0  0  0  0  0  0  0  0  0  0  0  0
    2.5285    3.7045   -1.1557 H   0  0  0  0  0  0  0  0  0  0  0  0
    4.0171    1.4406    4.2924 H   0  0  0  0  0  0  0  0  0  0  0  0
    4.4030   -0.8874    5.0451 H   0  0  0  0  0  0  0  0  0  0  0  0
  1  2  1  0  0  0  0
  1 23  1  0  0  0  0
  1 24  1  0  0  0  0
  1 25  1  0  0  0  0
  2  3  1  0  0  0  0
  2 14  1  0  0  0  0
  2 26  1  0  0  0  0
  3  4  1  0  0  0  0
  4  5  1  0  0  0  0
  4 13  2  0  0  0  0
  5  6  2  0  0  0  0
  5 27  1  0  0  0  0
  6  7  1  0  0  0  0
  6 28  1  0  0  0  0
  7  8  1  0  0  0  0
  7 12  2  0  0  0  0
  8  9  2  0  0  0  0
  9 10  1  0  0  0  0
  9 29  1  0  0  0  0
 10 11  2  0  0  0  0
 10 30  1  0  0  0  0
 11 12  1  0  0  0  0
 11 31  1  0  0  0  0
 12 13  1  0  0  0  0
 13 32  1  0  0  0  0
 14 15  1  0  0  0  0
 14 21  2  0  0  0  0
 15 16  1  0  0  0  0
 15 17  2  0  0  0  0
 17 18  1  0  0  0  0
 17 33  1  0  0  0  0
 18 19  2  0  0  0  0
 18 34  1  0  0  0  0
 19 20  1  0  0  0  0
 19 21  1  0  0  0  0
 21 22  1  0  0  0  0
M  END
$$$$
