CHEMBL117983
 OpenBabel04072215363D

 52 56  0  0  0  0  0  0  0  0999 V2000
    0.3420    1.7360   -1.9900 C   0  0  0  0  0  0  0  0  0  0  0  0
   -1.0096    1.6611   -1.4337 N   0  0  0  0  0  0  0  0  0  0  0  0
   -1.4280    0.2490   -1.2978 C   0  0  0  0  0  0  0  0  0  0  0  0
   -2.7834    0.0853   -0.5772 C   0  0  0  0  0  0  0  0  0  0  0  0
   -2.8079    0.7781    0.7479 N   0  0  0  0  0  0  0  0  0  0  0  0
   -2.0073    0.0169    2.0493 S   0  0  0  0  0  0  0  0  0  0  0  0
   -0.6864   -0.3838    1.6153 O   0  0  0  0  0  0  0  0  0  0  0  0
   -2.1728    0.8552    3.2192 O   0  0  0  0  0  0  0  0  0  0  0  0
   -2.9615   -1.4517    2.3317 C   0  0  0  0  0  0  0  0  0  0  0  0
   -2.3824   -2.7131    2.1664 C   0  0  0  0  0  0  0  0  0  0  0  0
   -3.0934   -3.8709    2.5061 C   0  0  0  0  0  0  0  0  0  0  0  0
   -4.3800   -3.7075    3.0329 C   0  0  0  0  0  0  0  0  0  0  0  0
   -5.2775   -4.6379    3.5052 N   0  0  0  0  0  0  0  0  0  0  0  0
   -6.4039   -4.0245    4.0178 C   0  0  0  0  0  0  0  0  0  0  0  0
   -7.4790   -4.7464    4.7118 C   0  0  0  0  0  0  0  0  0  0  0  0
   -8.5742   -4.0427    5.2160 C   0  0  0  0  0  0  0  0  0  0  0  0
   -9.5529   -4.6875    5.9781 C   0  0  0  0  0  0  0  0  0  0  0  0
  -10.6245   -3.9686    6.5312 C   0  0  0  0  0  0  0  0  0  0  0  0
  -11.5639   -4.6142    7.3270 C   0  0  0  0  0  0  0  0  0  0  0  0
  -11.4404   -5.9792    7.5588 C   0  0  0  0  0  0  0  0  0  0  0  0
  -10.3806   -6.6948    6.9888 C   0  0  0  0  0  0  0  0  0  0  0  0
   -9.4214   -6.0740    6.1984 C   0  0  0  0  0  0  0  0  0  0  0  0
   -8.4010   -6.7874    5.6872 N   0  0  0  0  0  0  0  0  0  0  0  0
   -7.4747   -6.1125    4.9771 C   0  0  0  0  0  0  0  0  0  0  0  0
   -6.4735   -6.9277    4.5434 O   0  0  0  0  0  0  0  0  0  0  0  0
   -6.2363   -2.6689    3.7951 C   0  0  0  0  0  0  0  0  0  0  0  0
   -4.9697   -2.4566    3.2008 C   0  0  0  0  0  0  0  0  0  0  0  0
   -4.2580   -1.3025    2.8350 C   0  0  0  0  0  0  0  0  0  0  0  0
   -2.4301    2.2156    0.5598 C   0  0  0  0  0  0  0  0  0  0  0  0
   -1.0583    2.3520   -0.1267 C   0  0  0  0  0  0  0  0  0  0  0  0
    0.3835    1.2454   -2.9687 H   0  0  0  0  0  0  0  0  0  0  0  0
    1.0864    1.2636   -1.3378 H   0  0  0  0  0  0  0  0  0  0  0  0
    0.6352    2.7799   -2.1458 H   0  0  0  0  0  0  0  0  0  0  0  0
   -0.6588   -0.3332   -0.7802 H   0  0  0  0  0  0  0  0  0  0  0  0
   -1.5241   -0.1893   -2.2988 H   0  0  0  0  0  0  0  0  0  0  0  0
   -3.0418   -0.9719   -0.4668 H   0  0  0  0  0  0  0  0  0  0  0  0
   -3.5760    0.5273   -1.1968 H   0  0  0  0  0  0  0  0  0  0  0  0
   -1.3605   -2.8086    1.8043 H   0  0  0  0  0  0  0  0  0  0  0  0
   -2.6411   -4.8535    2.4052 H   0  0  0  0  0  0  0  0  0  0  0  0
   -5.1180   -5.6368    3.5432 H   0  0  0  0  0  0  0  0  0  0  0  0
   -8.6619   -2.9738    5.0459 H   0  0  0  0  0  0  0  0  0  0  0  0
  -10.7214   -2.8989    6.3564 H   0  0  0  0  0  0  0  0  0  0  0  0
  -12.3814   -4.0516    7.7709 H   0  0  0  0  0  0  0  0  0  0  0  0
  -12.1633   -6.4917    8.1884 H   0  0  0  0  0  0  0  0  0  0  0  0
  -10.2953   -7.7619    7.1795 H   0  0  0  0  0  0  0  0  0  0  0  0
   -6.7911   -7.7703    4.9205 H   0  0  0  0  0  0  0  0  0  0  0  0
   -6.9235   -1.8852    4.0855 H   0  0  0  0  0  0  0  0  0  0  0  0
   -4.6875   -0.3163    2.9891 H   0  0  0  0  0  0  0  0  0  0  0  0
   -2.4341    2.7419    1.5201 H   0  0  0  0  0  0  0  0  0  0  0  0
   -3.2061    2.6971   -0.0497 H   0  0  0  0  0  0  0  0  0  0  0  0
   -0.2740    1.9746    0.5406 H   0  0  0  0  0  0  0  0  0  0  0  0
   -0.8610    3.4199   -0.2797 H   0  0  0  0  0  0  0  0  0  0  0  0
  1  2  1  0  0  0  0
  1 31  1  0  0  0  0
  1 32  1  0  0  0  0
  1 33  1  0  0  0  0
  2  3  1  0  0  0  0
  2 30  1  0  0  0  0
  3  4  1  0  0  0  0
  3 34  1  0  0  0  0
  3 35  1  0  0  0  0
  4  5  1  0  0  0  0
  4 36  1  0  0  0  0
  4 37  1  0  0  0  0
  5  6  1  0  0  0  0
  5 29  1  0  0  0  0
  6  7  2  0  0  0  0
  6  8  2  0  0  0  0
  6  9  1  0  0  0  0
  9 10  1  0  0  0  0
  9 28  2  0  0  0  0
 10 11  2  0  0  0  0
 10 38  1  0  0  0  0
 11 12  1  0  0  0  0
 11 39  1  0  0  0  0
 12 13  1  0  0  0  0
 12 27  2  0  0  0  0
 13 14  1  0  0  0  0
 13 40  1  0  0  0  0
 14 15  1  0  0  0  0
 14 26  2  0  0  0  0
 15 16  1  0  0  0  0
 15 24  2  0  0  0  0
 16 17  2  0  0  0  0
 16 41  1  0  0  0  0
 17 18  1  0  0  0  0
 17 22  1  0  0  0  0
 18 19  2  0  0  0  0
 18 42  1  0  0  0  0
 19 20  1  0  0  0  0
 19 43  1  0  0  0  0
 20 21  2  0  0  0  0
 20 44  1  0  0  0  0
 21 22  1  0  0  0  0
 21 45  1  0  0  0  0
 22 23  2  0  0  0  0
 23 24  1  0  0  0  0
 24 25  1  0  0  0  0
 25 46  1  0  0  0  0
 26 27  1  0  0  0  0
 26 47  1  0  0  0  0
 27 28  1  0  0  0  0
 28 48  1  0  0  0  0
 29 30  1  0  0  0  0
 29 49  1  0  0  0  0
 29 50  1  0  0  0  0
 30 51  1  0  0  0  0
 30 52  1  0  0  0  0
M  END
$$$$
