CHEMBL380397
 OpenBabel04072215373D

 66 71  0  0  0  0  0  0  0  0999 V2000
    1.9548    0.0426   -1.0342 C   0  0  0  0  0  0  0  0  0  0  0  0
    0.5080    0.2335   -1.0798 N   0  0  0  0  0  0  0  0  0  0  0  0
   -0.1966   -1.0111   -0.7330 C   0  0  0  0  0  0  0  0  0  0  0  0
   -1.7283   -0.8082   -0.7159 C   0  0  0  0  0  0  0  0  0  0  0  0
   -2.1939    0.2303    0.2301 N   0  0  0  0  0  0  0  0  0  0  0  0
   -2.0030   -0.1223    1.6498 C   0  0  0  0  0  0  0  0  0  0  0  0
   -2.7129   -1.3939    2.0810 C   0  0  0  0  0  0  0  0  0  0  0  0
   -2.0345   -2.6393    1.9859 C   0  0  0  0  0  0  0  0  0  0  0  0
   -2.6601   -3.8475    2.2832 C   0  0  0  0  0  0  0  0  0  0  0  0
   -3.9537   -3.7790    2.7259 C   0  0  0  0  0  0  0  0  0  0  0  0
   -4.6460   -2.5482    2.9021 C   0  0  0  0  0  0  0  0  0  0  0  0
   -4.0378   -1.3519    2.5539 C   0  0  0  0  0  0  0  0  0  0  0  0
   -6.0524   -2.7330    3.5048 C   0  0  0  0  0  0  0  0  0  0  0  0
   -6.0268   -4.2232    3.5932 C   0  0  0  0  0  0  0  0  0  0  0  0
   -6.7792   -5.3127    4.0527 C   0  0  0  0  0  0  0  0  0  0  0  0
   -8.1046   -5.2537    4.7338 C   0  0  0  0  0  0  0  0  0  0  0  0
   -8.7794   -6.3515    5.2241 C   0  0  0  0  0  0  0  0  0  0  0  0
  -10.0110   -5.9885    5.8434 C   0  0  0  0  0  0  0  0  0  0  0  0
  -10.2320   -4.6276    5.7923 C   0  0  0  0  0  0  0  0  0  0  0  0
  -11.3822   -3.8484    6.3112 C   0  0  0  0  0  0  0  0  0  0  0  0
  -12.3856   -3.7556    5.2751 N   0  0  0  0  0  0  0  0  0  0  0  0
  -13.5331   -3.0764    5.5982 C   0  0  0  0  0  0  0  0  0  0  0  0
  -13.7061   -2.6115    6.7167 O   0  0  0  0  0  0  0  0  0  0  0  0
  -14.4330   -3.0505    4.5581 N   0  0  0  0  0  0  0  0  0  0  0  0
  -15.7133   -2.4601    4.6442 C   0  0  0  0  0  0  0  0  0  0  0  0
  -16.0176   -1.4569    5.5707 C   0  0  0  0  0  0  0  0  0  0  0  0
  -17.3237   -0.9903    5.7040 C   0  0  0  0  0  0  0  0  0  0  0  0
  -17.6852    0.1999    6.8932 Cl  0  0  0  0  0  0  0  0  0  0  0  0
  -18.3368   -1.4932    4.8979 C   0  0  0  0  0  0  0  0  0  0  0  0
  -18.0231   -2.4478    3.9346 C   0  0  0  0  0  0  0  0  0  0  0  0
  -19.2707   -3.0777    2.9288 Cl  0  0  0  0  0  0  0  0  0  0  0  0
  -16.7164   -2.9243    3.7912 C   0  0  0  0  0  0  0  0  0  0  0  0
   -8.9532   -3.8058    5.0183 S   0  0  0  0  0  0  0  0  0  0  0  0
   -6.1322   -6.4785    3.8304 N   0  0  0  0  0  0  0  0  0  0  0  0
   -4.9543   -6.1109    3.2672 N   0  0  0  0  0  0  0  0  0  0  0  0
   -4.8649   -4.7768    3.1417 C   0  0  0  0  0  0  0  0  0  0  0  0
   -1.4617    1.4780   -0.0997 C   0  0  0  0  0  0  0  0  0  0  0  0
    0.0826    1.3313   -0.1905 C   0  0  0  0  0  0  0  0  0  0  0  0
    2.2569   -0.7719   -1.7025 H   0  0  0  0  0  0  0  0  0  0  0  0
    2.3117   -0.1945   -0.0252 H   0  0  0  0  0  0  0  0  0  0  0  0
    2.4707    0.9438   -1.3817 H   0  0  0  0  0  0  0  0  0  0  0  0
    0.1494   -1.3818    0.2387 H   0  0  0  0  0  0  0  0  0  0  0  0
    0.0388   -1.7871   -1.4710 H   0  0  0  0  0  0  0  0  0  0  0  0
   -2.2357   -1.7623   -0.5422 H   0  0  0  0  0  0  0  0  0  0  0  0
   -2.0495   -0.5153   -1.7256 H   0  0  0  0  0  0  0  0  0  0  0  0
   -2.3972    0.6969    2.2672 H   0  0  0  0  0  0  0  0  0  0  0  0
   -0.9447   -0.2064    1.9227 H   0  0  0  0  0  0  0  0  0  0  0  0
   -1.0020   -2.6675    1.6504 H   0  0  0  0  0  0  0  0  0  0  0  0
   -2.1386   -4.7898    2.1761 H   0  0  0  0  0  0  0  0  0  0  0  0
   -4.5653   -0.4081    2.6497 H   0  0  0  0  0  0  0  0  0  0  0  0
   -6.8252   -2.3657    2.8251 H   0  0  0  0  0  0  0  0  0  0  0  0
   -6.1093   -2.2647    4.4912 H   0  0  0  0  0  0  0  0  0  0  0  0
   -8.4021   -7.3650    5.1501 H   0  0  0  0  0  0  0  0  0  0  0  0
  -10.6978   -6.6907    6.3011 H   0  0  0  0  0  0  0  0  0  0  0  0
  -11.0878   -2.8343    6.6080 H   0  0  0  0  0  0  0  0  0  0  0  0
  -11.8226   -4.3364    7.1875 H   0  0  0  0  0  0  0  0  0  0  0  0
  -12.0521   -3.6313    4.3312 H   0  0  0  0  0  0  0  0  0  0  0  0
  -14.2907   -3.7617    3.8550 H   0  0  0  0  0  0  0  0  0  0  0  0
  -15.2497   -1.0305    6.2110 H   0  0  0  0  0  0  0  0  0  0  0  0
  -19.3582   -1.1477    5.0235 H   0  0  0  0  0  0  0  0  0  0  0  0
  -16.5047   -3.6846    3.0444 H   0  0  0  0  0  0  0  0  0  0  0  0
   -4.2841   -6.8299    3.0181 H   0  0  0  0  0  0  0  0  0  0  0  0
   -1.7146    2.2668    0.6194 H   0  0  0  0  0  0  0  0  0  0  0  0
   -1.8315    1.8375   -1.0698 H   0  0  0  0  0  0  0  0  0  0  0  0
    0.4880    1.1857    0.8190 H   0  0  0  0  0  0  0  0  0  0  0  0
    0.4932    2.2755   -0.5676 H   0  0  0  0  0  0  0  0  0  0  0  0
  1  2  1  0  0  0  0
  1 39  1  0  0  0  0
  1 40  1  0  0  0  0
  1 41  1  0  0  0  0
  2  3  1  0  0  0  0
  2 38  1  0  0  0  0
  3  4  1  0  0  0  0
  3 42  1  0  0  0  0
  3 43  1  0  0  0  0
  4  5  1  0  0  0  0
  4 44  1  0  0  0  0
  4 45  1  0  0  0  0
  5  6  1  0  0  0  0
  5 37  1  0  0  0  0
  6  7  1  0  0  0  0
  6 46  1  0  0  0  0
  6 47  1  0  0  0  0
  7  8  1  0  0  0  0
  7 12  2  0  0  0  0
  8  9  2  0  0  0  0
  8 48  1  0  0  0  0
  9 10  1  0  0  0  0
  9 49  1  0  0  0  0
 10 11  2  0  0  0  0
 10 36  1  0  0  0  0
 11 12  1  0  0  0  0
 11 13  1  0  0  0  0
 12 50  1  0  0  0  0
 13 14  1  0  0  0  0
 13 51  1  0  0  0  0
 13 52  1  0  0  0  0
 14 15  1  0  0  0  0
 14 36  2  0  0  0  0
 15 16  1  0  0  0  0
 15 34  2  0  0  0  0
 16 17  2  0  0  0  0
 16 33  1  0  0  0  0
 17 18  1  0  0  0  0
 17 53  1  0  0  0  0
 18 19  2  0  0  0  0
 18 54  1  0  0  0  0
 19 20  1  0  0  0  0
 19 33  1  0  0  0  0
 20 21  1  0  0  0  0
 20 55  1  0  0  0  0
 20 56  1  0  0  0  0
 21 22  1  0  0  0  0
 21 57  1  0  0  0  0
 22 23  2  0  0  0  0
 22 24  1  0  0  0  0
 24 25  1  0  0  0  0
 24 58  1  0  0  0  0
 25 26  1  0  0  0  0
 25 32  2  0  0  0  0
 26 27  2  0  0  0  0
 26 59  1  0  0  0  0
 27 28  1  0  0  0  0
 27 29  1  0  0  0  0
 29 30  2  0  0  0  0
 29 60  1  0  0  0  0
 30 31  1  0  0  0  0
 30 32  1  0  0  0  0
 32 61  1  0  0  0  0
 34 35  1  0  0  0  0
 35 36  1  0  0  0  0
 35 62  1  0  0  0  0
 37 38  1  0  0  0  0
 37 63  1  0  0  0  0
 37 64  1  0  0  0  0
 38 65  1  0  0  0  0
 38 66  1  0  0  0  0
M  END
$$$$
