CHEMBL244300
 OpenBabel04072215363D

 52 55  0  0  0  0  0  0  0  0999 V2000
    5.9219   -6.1292    5.3137 C   0  0  0  0  0  0  0  0  0  0  0  0
    6.4589   -4.9324    6.5381 S   0  0  0  0  0  0  0  0  0  0  0  0
    5.9597   -3.6316    6.1580 O   0  0  0  0  0  0  0  0  0  0  0  0
    6.1621   -5.5022    7.8365 O   0  0  0  0  0  0  0  0  0  0  0  0
    8.1414   -4.9607    6.3925 N   0  0  0  0  0  0  0  0  0  0  0  0
    8.5666   -4.5886    5.0988 C   0  0  0  0  0  0  0  0  0  0  0  0
    8.7810   -5.5374    4.2273 N   0  0  0  0  0  0  0  0  0  0  0  0
    9.2214   -4.9672    3.0458 C   0  0  0  0  0  0  0  0  0  0  0  0
    9.4715   -5.6603    1.8463 C   0  0  0  0  0  0  0  0  0  0  0  0
    9.9711   -4.9683    0.7398 C   0  0  0  0  0  0  0  0  0  0  0  0
   10.2865   -3.6123    0.8372 C   0  0  0  0  0  0  0  0  0  0  0  0
   10.8774   -2.8923   -0.1802 O   0  0  0  0  0  0  0  0  0  0  0  0
   11.8155   -3.5082   -0.9802 C   0  0  0  0  0  0  0  0  0  0  0  0
   11.8608   -3.0872   -2.3039 C   0  0  0  0  0  0  0  0  0  0  0  0
   12.7382   -3.7010   -3.2030 C   0  0  0  0  0  0  0  0  0  0  0  0
   13.5830   -4.7404   -2.7959 C   0  0  0  0  0  0  0  0  0  0  0  0
   14.4120   -5.4622   -3.6821 N   0  0  0  0  0  0  0  0  0  0  0  0
   14.6066   -5.1862   -5.0190 C   0  0  0  0  0  0  0  0  0  0  0  0
   14.1747   -4.1983   -5.6036 O   0  0  0  0  0  0  0  0  0  0  0  0
   15.3299   -6.1829   -5.6615 N   0  0  0  0  0  0  0  0  0  0  0  0
   15.6172   -6.0357   -7.0429 C   0  0  0  0  0  0  0  0  0  0  0  0
   16.1255   -4.8343   -7.5514 C   0  0  0  0  0  0  0  0  0  0  0  0
   16.2902   -4.6514   -8.9326 C   0  0  0  0  0  0  0  0  0  0  0  0
   16.8227   -3.3476   -9.4808 C   0  0  0  0  0  0  0  0  0  0  0  0
   17.1600   -2.4443   -8.5198 F   0  0  0  0  0  0  0  0  0  0  0  0
   17.9469   -3.5287  -10.2288 F   0  0  0  0  0  0  0  0  0  0  0  0
   15.9302   -2.7193  -10.2929 F   0  0  0  0  0  0  0  0  0  0  0  0
   15.9320   -5.6965   -9.8008 C   0  0  0  0  0  0  0  0  0  0  0  0
   15.4585   -6.9103   -9.2940 C   0  0  0  0  0  0  0  0  0  0  0  0
   15.3272   -7.0804   -7.9190 C   0  0  0  0  0  0  0  0  0  0  0  0
   14.8415   -8.2365   -7.4416 F   0  0  0  0  0  0  0  0  0  0  0  0
   13.5788   -5.1121   -1.4471 C   0  0  0  0  0  0  0  0  0  0  0  0
   12.7183   -4.4809   -0.5398 C   0  0  0  0  0  0  0  0  0  0  0  0
    9.9687   -2.8867    1.9907 C   0  0  0  0  0  0  0  0  0  0  0  0
    9.4318   -3.5855    3.0846 C   0  0  0  0  0  0  0  0  0  0  0  0
    8.9394   -2.9969    4.6297 S   0  0  0  0  0  0  0  0  0  0  0  0
    4.8478   -6.2727    5.4347 H   0  0  0  0  0  0  0  0  0  0  0  0
    6.4385   -7.0757    5.4974 H   0  0  0  0  0  0  0  0  0  0  0  0
    6.1286   -5.7547    4.3111 H   0  0  0  0  0  0  0  0  0  0  0  0
    8.4533   -5.9093    6.5969 H   0  0  0  0  0  0  0  0  0  0  0  0
    9.2843   -6.7277    1.7899 H   0  0  0  0  0  0  0  0  0  0  0  0
   10.1407   -5.5147   -0.1841 H   0  0  0  0  0  0  0  0  0  0  0  0
   11.2076   -2.2907   -2.6504 H   0  0  0  0  0  0  0  0  0  0  0  0
   12.7162   -3.3397   -4.2253 H   0  0  0  0  0  0  0  0  0  0  0  0
   14.9914   -6.1930   -3.2874 H   0  0  0  0  0  0  0  0  0  0  0  0
   15.0849   -7.1237   -5.3755 H   0  0  0  0  0  0  0  0  0  0  0  0
   16.3729   -4.0210   -6.8689 H   0  0  0  0  0  0  0  0  0  0  0  0
   16.0162   -5.5608  -10.8787 H   0  0  0  0  0  0  0  0  0  0  0  0
   15.1678   -7.7130   -9.9650 H   0  0  0  0  0  0  0  0  0  0  0  0
   14.2288   -5.9009   -1.0821 H   0  0  0  0  0  0  0  0  0  0  0  0
   12.7483   -4.7765    0.5050 H   0  0  0  0  0  0  0  0  0  0  0  0
   10.1533   -1.8178    2.0433 H   0  0  0  0  0  0  0  0  0  0  0  0
  1  2  1  0  0  0  0
  1 37  1  0  0  0  0
  1 38  1  0  0  0  0
  1 39  1  0  0  0  0
  2  3  2  0  0  0  0
  2  4  2  0  0  0  0
  2  5  1  0  0  0  0
  5  6  1  0  0  0  0
  5 40  1  0  0  0  0
  6  7  2  0  0  0  0
  6 36  1  0  0  0  0
  7  8  1  0  0  0  0
  8  9  1  0  0  0  0
  8 35  2  0  0  0  0
  9 10  2  0  0  0  0
  9 41  1  0  0  0  0
 10 11  1  0  0  0  0
 10 42  1  0  0  0  0
 11 12  1  0  0  0  0
 11 34  2  0  0  0  0
 12 13  1  0  0  0  0
 13 14  1  0  0  0  0
 13 33  2  0  0  0  0
 14 15  2  0  0  0  0
 14 43  1  0  0  0  0
 15 16  1  0  0  0  0
 15 44  1  0  0  0  0
 16 17  1  0  0  0  0
 16 32  2  0  0  0  0
 17 18  1  0  0  0  0
 17 45  1  0  0  0  0
 18 19  2  0  0  0  0
 18 20  1  0  0  0  0
 20 21  1  0  0  0  0
 20 46  1  0  0  0  0
 21 22  1  0  0  0  0
 21 30  2  0  0  0  0
 22 23  2  0  0  0  0
 22 47  1  0  0  0  0
 23 24  1  0  0  0  0
 23 28  1  0  0  0  0
 24 25  1  0  0  0  0
 24 26  1  0  0  0  0
 24 27  1  0  0  0  0
 28 29  2  0  0  0  0
 28 48  1  0  0  0  0
 29 30  1  0  0  0  0
 29 49  1  0  0  0  0
 30 31  1  0  0  0  0
 32 33  1  0  0  0  0
 32 50  1  0  0  0  0
 33 51  1  0  0  0  0
 34 35  1  0  0  0  0
 34 52  1  0  0  0  0
 35 36  1  0  0  0  0
M  END
$$$$
