CHEMBL2322137
 OpenBabel04072215363D

 33 36  0  0  0  0  0  0  0  0999 V2000
   -2.4767   -0.9715   -2.2477 C   0  0  0  0  0  0  0  0  0  0  0  0
   -1.4217   -1.6288   -1.6385 C   0  0  0  0  0  0  0  0  0  0  0  0
   -0.5443   -0.6143   -1.2579 C   0  0  0  0  0  0  0  0  0  0  0  0
   -1.0175    0.6237   -1.6158 C   0  0  0  0  0  0  0  0  0  0  0  0
   -0.4371    1.8220   -1.4202 N   0  0  0  0  0  0  0  0  0  0  0  0
    0.7738    1.7854   -0.7991 C   0  0  0  0  0  0  0  0  0  0  0  0
    1.3138    0.5703   -0.4149 C   0  0  0  0  0  0  0  0  0  0  0  0
    2.4983    0.3131    0.2114 O   0  0  0  0  0  0  0  0  0  0  0  0
    2.6197   -1.0641    0.4295 N   0  0  0  0  0  0  0  0  0  0  0  0
    1.4926   -1.6252   -0.0544 C   0  0  0  0  0  0  0  0  0  0  0  0
    1.2034   -3.0853    0.0837 C   0  0  0  0  0  0  0  0  0  0  0  0
    1.8303   -3.7389    1.3246 C   0  0  0  0  0  0  0  0  0  0  0  0
    1.3378   -5.1787    1.4689 C   0  0  0  0  0  0  0  0  0  0  0  0
    1.6214   -6.0012    0.2135 C   0  0  0  0  0  0  0  0  0  0  0  0
    1.0897   -5.3291   -1.0510 C   0  0  0  0  0  0  0  0  0  0  0  0
    1.5730   -3.8840   -1.1742 C   0  0  0  0  0  0  0  0  0  0  0  0
    0.6963   -0.6296   -0.6089 C   0  0  0  0  0  0  0  0  0  0  0  0
   -2.2249    0.3887   -2.2242 N   0  0  0  0  0  0  0  0  0  0  0  0
   -3.3835   -1.3487   -2.6990 H   0  0  0  0  0  0  0  0  0  0  0  0
   -1.3382   -2.6977   -1.5159 H   0  0  0  0  0  0  0  0  0  0  0  0
    1.2684    2.7310   -0.6226 H   0  0  0  0  0  0  0  0  0  0  0  0
    0.1164   -3.1694    0.2236 H   0  0  0  0  0  0  0  0  0  0  0  0
    1.5675   -3.1744    2.2275 H   0  0  0  0  0  0  0  0  0  0  0  0
    2.9256   -3.7320    1.2522 H   0  0  0  0  0  0  0  0  0  0  0  0
    0.2574   -5.1728    1.6628 H   0  0  0  0  0  0  0  0  0  0  0  0
    1.8137   -5.6485    2.3365 H   0  0  0  0  0  0  0  0  0  0  0  0
    1.1707   -6.9947    0.3174 H   0  0  0  0  0  0  0  0  0  0  0  0
    2.7035   -6.1487    0.1157 H   0  0  0  0  0  0  0  0  0  0  0  0
   -0.0076   -5.3415   -1.0343 H   0  0  0  0  0  0  0  0  0  0  0  0
    1.3994   -5.9011   -1.9327 H   0  0  0  0  0  0  0  0  0  0  0  0
    1.1262   -3.4316   -2.0677 H   0  0  0  0  0  0  0  0  0  0  0  0
    2.6600   -3.8686   -1.3286 H   0  0  0  0  0  0  0  0  0  0  0  0
   -2.8200    1.1138   -2.5962 H   0  0  0  0  0  0  0  0  0  0  0  0
  1  2  2  0  0  0  0
  1 18  1  0  0  0  0
  1 19  1  0  0  0  0
  2  3  1  0  0  0  0
  2 20  1  0  0  0  0
  3  4  1  0  0  0  0
  3 17  2  0  0  0  0
  4  5  2  0  0  0  0
  4 18  1  0  0  0  0
  5  6  1  0  0  0  0
  6  7  2  0  0  0  0
  6 21  1  0  0  0  0
  7  8  1  0  0  0  0
  7 17  1  0  0  0  0
  8  9  1  0  0  0  0
  9 10  2  0  0  0  0
 10 11  1  0  0  0  0
 10 17  1  0  0  0  0
 11 12  1  0  0  0  0
 11 16  1  0  0  0  0
 11 22  1  0  0  0  0
 12 13  1  0  0  0  0
 12 23  1  0  0  0  0
 12 24  1  0  0  0  0
 13 14  1  0  0  0  0
 13 25  1  0  0  0  0
 13 26  1  0  0  0  0
 14 15  1  0  0  0  0
 14 27  1  0  0  0  0
 14 28  1  0  0  0  0
 15 16  1  0  0  0  0
 15 29  1  0  0  0  0
 15 30  1  0  0  0  0
 16 31  1  0  0  0  0
 16 32  1  0  0  0  0
 18 33  1  0  0  0  0
M  END
$$$$
