CHEMBL1242373
 OpenBabel04072215363D

 48 52  0  0  0  0  0  0  0  0999 V2000
    2.0245   -0.4166   -0.6428 C   0  0  0  0  0  0  0  0  0  0  0  0
    0.5577   -0.4809   -1.0092 C   0  0  0  0  0  0  0  0  0  0  0  0
    0.0442    0.5137   -1.8382 C   0  0  0  0  0  0  0  0  0  0  0  0
   -1.3063    0.4951   -2.1885 C   0  0  0  0  0  0  0  0  0  0  0  0
   -2.1638   -0.5158   -1.7221 C   0  0  0  0  0  0  0  0  0  0  0  0
   -1.7061   -1.5462   -0.9002 C   0  0  0  0  0  0  0  0  0  0  0  0
   -2.5622   -2.5974   -0.3974 N   0  0  0  0  0  0  0  0  0  0  0  0
   -3.9438   -2.8661   -0.6752 C   0  0  0  0  0  0  0  0  0  0  0  0
   -4.6306   -2.2595   -1.4867 O   0  0  0  0  0  0  0  0  0  0  0  0
   -4.4340   -3.8953    0.1608 N   0  0  0  0  0  0  0  0  0  0  0  0
   -5.7351   -4.5281    0.2781 C   0  0  0  0  0  0  0  0  0  0  0  0
   -6.7967   -4.5844   -0.6323 C   0  0  0  0  0  0  0  0  0  0  0  0
   -8.0316   -5.3294   -0.3397 C   0  0  0  0  0  0  0  0  0  0  0  0
   -8.3013   -5.9339    0.9238 C   0  0  0  0  0  0  0  0  0  0  0  0
   -7.3483   -5.5121    1.8649 C   0  0  0  0  0  0  0  0  0  0  0  0
   -6.0222   -5.0994    1.5256 C   0  0  0  0  0  0  0  0  0  0  0  0
   -7.9798   -4.7117    3.0410 C   0  0  0  0  0  0  0  0  0  0  0  0
   -9.2052   -3.9021    2.4712 C   0  0  0  0  0  0  0  0  0  0  0  0
  -10.1761   -4.9394    1.9822 C   0  0  0  0  0  0  0  0  0  0  0  0
  -11.8013   -4.9584    2.4326 S   0  0  0  0  0  0  0  0  0  0  0  0
  -11.5894   -6.5738    2.9047 C   0  0  0  0  0  0  0  0  0  0  0  0
  -12.4351   -7.0583    3.8563 N   0  0  0  0  0  0  0  0  0  0  0  0
  -12.0369   -8.2444    4.3162 C   0  0  0  0  0  0  0  0  0  0  0  0
  -11.0355   -8.9677    3.8425 N   0  0  0  0  0  0  0  0  0  0  0  0
  -10.2564   -8.4958    2.8442 C   0  0  0  0  0  0  0  0  0  0  0  0
   -9.3223   -9.4453    2.4212 N   0  0  0  0  0  0  0  0  0  0  0  0
  -10.4525   -7.1725    2.3524 C   0  0  0  0  0  0  0  0  0  0  0  0
   -9.7355   -6.1442    1.4525 C   0  0  0  0  0  0  0  0  0  0  0  0
   -0.3196   -1.5057   -0.5461 C   0  0  0  0  0  0  0  0  0  0  0  0
    2.5123    0.4603   -1.0963 H   0  0  0  0  0  0  0  0  0  0  0  0
    2.5649   -1.2952   -1.0066 H   0  0  0  0  0  0  0  0  0  0  0  0
    2.1598   -0.3199    0.4387 H   0  0  0  0  0  0  0  0  0  0  0  0
    0.6842    1.3119   -2.2164 H   0  0  0  0  0  0  0  0  0  0  0  0
   -1.6933    1.2815   -2.8330 H   0  0  0  0  0  0  0  0  0  0  0  0
   -3.2073   -0.4656   -2.0253 H   0  0  0  0  0  0  0  0  0  0  0  0
   -2.0748   -3.2896    0.1607 H   0  0  0  0  0  0  0  0  0  0  0  0
   -3.8319   -4.0732    0.9505 H   0  0  0  0  0  0  0  0  0  0  0  0
   -6.7404   -4.0235   -1.5676 H   0  0  0  0  0  0  0  0  0  0  0  0
   -8.8407   -5.2531   -1.0698 H   0  0  0  0  0  0  0  0  0  0  0  0
   -5.3122   -4.9845    2.3403 H   0  0  0  0  0  0  0  0  0  0  0  0
   -7.2518   -4.0135    3.4579 H   0  0  0  0  0  0  0  0  0  0  0  0
   -8.2857   -5.4198    3.8188 H   0  0  0  0  0  0  0  0  0  0  0  0
   -8.9168   -3.2574    1.6321 H   0  0  0  0  0  0  0  0  0  0  0  0
   -9.6427   -3.2806    3.2560 H   0  0  0  0  0  0  0  0  0  0  0  0
  -12.5966   -8.6298    5.1635 H   0  0  0  0  0  0  0  0  0  0  0  0
   -9.5251  -10.2650    2.9915 H   0  0  0  0  0  0  0  0  0  0  0  0
   -9.4592   -9.6568    1.4385 H   0  0  0  0  0  0  0  0  0  0  0  0
    0.1022   -2.2720    0.1008 H   0  0  0  0  0  0  0  0  0  0  0  0
  1  2  1  0  0  0  0
  1 30  1  0  0  0  0
  1 31  1  0  0  0  0
  1 32  1  0  0  0  0
  2  3  1  0  0  0  0
  2 29  2  0  0  0  0
  3  4  2  0  0  0  0
  3 33  1  0  0  0  0
  4  5  1  0  0  0  0
  4 34  1  0  0  0  0
  5  6  2  0  0  0  0
  5 35  1  0  0  0  0
  6  7  1  0  0  0  0
  6 29  1  0  0  0  0
  7  8  1  0  0  0  0
  7 36  1  0  0  0  0
  8  9  2  0  0  0  0
  8 10  1  0  0  0  0
 10 11  1  0  0  0  0
 10 37  1  0  0  0  0
 11 12  1  0  0  0  0
 11 16  2  0  0  0  0
 12 13  2  0  0  0  0
 12 38  1  0  0  0  0
 13 14  1  0  0  0  0
 13 39  1  0  0  0  0
 14 15  2  0  0  0  0
 14 28  1  0  0  0  0
 15 16  1  0  0  0  0
 15 17  1  0  0  0  0
 16 40  1  0  0  0  0
 17 18  1  0  0  0  0
 17 41  1  0  0  0  0
 17 42  1  0  0  0  0
 18 19  1  0  0  0  0
 18 43  1  0  0  0  0
 18 44  1  0  0  0  0
 19 20  1  0  0  0  0
 19 28  2  0  0  0  0
 20 21  1  0  0  0  0
 21 22  1  0  0  0  0
 21 27  2  0  0  0  0
 22 23  2  0  0  0  0
 23 24  1  0  0  0  0
 23 45  1  0  0  0  0
 24 25  2  0  0  0  0
 25 26  1  0  0  0  0
 25 27  1  0  0  0  0
 26 46  1  0  0  0  0
 26 47  1  0  0  0  0
 27 28  1  0  0  0  0
 29 48  1  0  0  0  0
M  END
$$$$
