CHEMBL234205
 OpenBabel04072215363D

 39 41  0  0  0  0  0  0  0  0999 V2000
    2.6926    1.3780    0.1878 O   0  0  0  0  0  0  0  0  0  0  0  0
    2.2986    0.2172    0.2808 C   0  0  0  0  0  0  0  0  0  0  0  0
    1.1322   -0.2780   -0.2873 N   0  0  0  0  0  0  0  0  0  0  0  0
    0.1785    0.4448   -1.0366 C   0  0  0  0  0  0  0  0  0  0  0  0
    0.4336    1.6971   -1.5961 C   0  0  0  0  0  0  0  0  0  0  0  0
   -0.5773    2.4092   -2.2511 C   0  0  0  0  0  0  0  0  0  0  0  0
   -1.8700    1.8827   -2.3593 C   0  0  0  0  0  0  0  0  0  0  0  0
   -2.9850    2.6856   -2.9862 C   0  0  0  0  0  0  0  0  0  0  0  0
   -2.5952    3.9202   -3.4114 F   0  0  0  0  0  0  0  0  0  0  0  0
   -3.5290    2.0714   -4.0723 F   0  0  0  0  0  0  0  0  0  0  0  0
   -4.0164    2.9009   -2.1224 F   0  0  0  0  0  0  0  0  0  0  0  0
   -2.1119    0.5988   -1.8494 C   0  0  0  0  0  0  0  0  0  0  0  0
   -1.0931   -0.1190   -1.2068 C   0  0  0  0  0  0  0  0  0  0  0  0
    3.0129   -0.7641    1.0638 C   0  0  0  0  0  0  0  0  0  0  0  0
    2.6838   -2.0438    1.1077 N   0  0  0  0  0  0  0  0  0  0  0  0
    3.5609   -2.6369    1.9760 N   0  0  0  0  0  0  0  0  0  0  0  0
    4.4053   -1.7497    2.4773 N   0  0  0  0  0  0  0  0  0  0  0  0
    4.0881   -0.5759    1.8978 N   0  0  0  0  0  0  0  0  0  0  0  0
    4.7878    0.6422    2.2698 C   0  0  0  0  0  0  0  0  0  0  0  0
    6.2273    0.3985    2.7518 C   0  0  0  0  0  0  0  0  0  0  0  0
    6.9954    1.6423    3.1349 C   0  0  0  0  0  0  0  0  0  0  0  0
    7.5000    1.7953    4.4319 C   0  0  0  0  0  0  0  0  0  0  0  0
    8.2716    2.9111    4.7264 C   0  0  0  0  0  0  0  0  0  0  0  0
    8.5689    3.8740    3.8303 N   0  0  0  0  0  0  0  0  0  0  0  0
    8.0777    3.7104    2.5843 C   0  0  0  0  0  0  0  0  0  0  0  0
    7.2981    2.6295    2.1934 C   0  0  0  0  0  0  0  0  0  0  0  0
    0.8912   -1.2291   -0.0221 H   0  0  0  0  0  0  0  0  0  0  0  0
    1.4180    2.1522   -1.5450 H   0  0  0  0  0  0  0  0  0  0  0  0
   -0.3461    3.3915   -2.6613 H   0  0  0  0  0  0  0  0  0  0  0  0
   -3.1065    0.1602   -1.9314 H   0  0  0  0  0  0  0  0  0  0  0  0
   -1.3265   -1.1025   -0.8046 H   0  0  0  0  0  0  0  0  0  0  0  0
    4.1910    1.1160    3.0590 H   0  0  0  0  0  0  0  0  0  0  0  0
    4.7952    1.3031    1.4000 H   0  0  0  0  0  0  0  0  0  0  0  0
    6.7973   -0.1220    1.9706 H   0  0  0  0  0  0  0  0  0  0  0  0
    6.2128   -0.2817    3.6134 H   0  0  0  0  0  0  0  0  0  0  0  0
    7.3210    1.0540    5.2047 H   0  0  0  0  0  0  0  0  0  0  0  0
    8.6921    3.0567    5.7178 H   0  0  0  0  0  0  0  0  0  0  0  0
    8.3461    4.4913    1.8781 H   0  0  0  0  0  0  0  0  0  0  0  0
    6.9623    2.5596    1.1645 H   0  0  0  0  0  0  0  0  0  0  0  0
  1  2  2  0  0  0  0
  2  3  1  0  0  0  0
  2 14  1  0  0  0  0
  3  4  1  0  0  0  0
  3 27  1  0  0  0  0
  4  5  1  0  0  0  0
  4 13  2  0  0  0  0
  5  6  2  0  0  0  0
  5 28  1  0  0  0  0
  6  7  1  0  0  0  0
  6 29  1  0  0  0  0
  7  8  1  0  0  0  0
  7 12  2  0  0  0  0
  8  9  1  0  0  0  0
  8 10  1  0  0  0  0
  8 11  1  0  0  0  0
 12 13  1  0  0  0  0
 12 30  1  0  0  0  0
 13 31  1  0  0  0  0
 14 15  2  0  0  0  0
 14 18  1  0  0  0  0
 15 16  1  0  0  0  0
 16 17  2  0  0  0  0
 17 18  1  0  0  0  0
 18 19  1  0  0  0  0
 19 20  1  0  0  0  0
 19 32  1  0  0  0  0
 19 33  1  0  0  0  0
 20 21  1  0  0  0  0
 20 34  1  0  0  0  0
 20 35  1  0  0  0  0
 21 22  1  0  0  0  0
 21 26  2  0  0  0  0
 22 23  2  0  0  0  0
 22 36  1  0  0  0  0
 23 24  1  0  0  0  0
 23 37  1  0  0  0  0
 24 25  2  0  0  0  0
 25 26  1  0  0  0  0
 25 38  1  0  0  0  0
 26 39  1  0  0  0  0
M  END
$$$$
