CHEMBL3893498
 OpenBabel04072215373D

 50 53  0  0  0  0  0  0  0  0999 V2000
    3.2227    1.9043   -4.7717 C   0  0  0  0  0  0  0  0  0  0  0  0
    2.2471    1.1943   -6.1188 S   0  0  0  0  0  0  0  0  0  0  0  0
    2.5455   -0.5351   -5.8420 C   0  0  0  0  0  0  0  0  0  0  0  0
    1.9477   -1.3865   -6.6901 N   0  0  0  0  0  0  0  0  0  0  0  0
    2.2100   -2.6941   -6.5084 C   0  0  0  0  0  0  0  0  0  0  0  0
    3.0420   -3.1837   -5.5228 C   0  0  0  0  0  0  0  0  0  0  0  0
    3.5918   -2.2274   -4.6862 C   0  0  0  0  0  0  0  0  0  0  0  0
    3.3554   -0.9045   -4.8354 N   0  0  0  0  0  0  0  0  0  0  0  0
    4.5523   -2.6198   -3.5939 C   0  0  0  0  0  0  0  0  0  0  0  0
    4.4020   -4.0912   -3.2231 C   0  0  0  0  0  0  0  0  0  0  0  0
    4.3981   -4.9099   -4.4409 N   0  0  0  0  0  0  0  0  0  0  0  0
    5.4251   -5.7800   -4.7565 C   0  0  0  0  0  0  0  0  0  0  0  0
    5.2063   -6.9293   -5.5295 C   0  0  0  0  0  0  0  0  0  0  0  0
    6.2416   -7.8223   -5.8451 C   0  0  0  0  0  0  0  0  0  0  0  0
    7.5405   -7.5903   -5.3948 C   0  0  0  0  0  0  0  0  0  0  0  0
    7.7947   -6.4583   -4.6244 C   0  0  0  0  0  0  0  0  0  0  0  0
    9.1253   -6.1651   -4.0241 C   0  0  0  0  0  0  0  0  0  0  0  0
    9.1215   -5.5546   -2.9550 O   0  0  0  0  0  0  0  0  0  0  0  0
   10.2580   -6.5411   -4.7359 N   0  0  0  0  0  0  0  0  0  0  0  0
   11.5919   -6.2986   -4.3110 C   0  0  0  0  0  0  0  0  0  0  0  0
   11.9149   -5.9963   -2.9833 C   0  0  0  0  0  0  0  0  0  0  0  0
   13.2222   -5.6861   -2.6061 C   0  0  0  0  0  0  0  0  0  0  0  0
   14.2341   -5.6742   -3.5568 C   0  0  0  0  0  0  0  0  0  0  0  0
   13.9504   -5.9977   -4.8920 C   0  0  0  0  0  0  0  0  0  0  0  0
   15.0463   -5.9480   -5.9294 C   0  0  0  0  0  0  0  0  0  0  0  0
   16.2507   -5.5441   -5.4336 F   0  0  0  0  0  0  0  0  0  0  0  0
   15.2705   -7.1563   -6.5129 F   0  0  0  0  0  0  0  0  0  0  0  0
   14.7591   -5.0880   -6.9458 F   0  0  0  0  0  0  0  0  0  0  0  0
   12.6271   -6.3355   -5.2548 C   0  0  0  0  0  0  0  0  0  0  0  0
    6.7389   -5.5754   -4.3130 C   0  0  0  0  0  0  0  0  0  0  0  0
    3.2862   -4.6571   -5.3609 C   0  0  0  0  0  0  0  0  0  0  0  0
    3.1587    2.9948   -4.8213 H   0  0  0  0  0  0  0  0  0  0  0  0
    4.2761    1.6217   -4.8565 H   0  0  0  0  0  0  0  0  0  0  0  0
    2.8311    1.5827   -3.8025 H   0  0  0  0  0  0  0  0  0  0  0  0
    1.7154   -3.3555   -7.2152 H   0  0  0  0  0  0  0  0  0  0  0  0
    4.3802   -1.9982   -2.7075 H   0  0  0  0  0  0  0  0  0  0  0  0
    5.5704   -2.4235   -3.9498 H   0  0  0  0  0  0  0  0  0  0  0  0
    3.4459   -4.2445   -2.7046 H   0  0  0  0  0  0  0  0  0  0  0  0
    5.1733   -4.3878   -2.5042 H   0  0  0  0  0  0  0  0  0  0  0  0
    4.2025   -7.1777   -5.8658 H   0  0  0  0  0  0  0  0  0  0  0  0
    6.0141   -8.7161   -6.4230 H   0  0  0  0  0  0  0  0  0  0  0  0
    8.3160   -8.3178   -5.6112 H   0  0  0  0  0  0  0  0  0  0  0  0
   10.1315   -6.8493   -5.6924 H   0  0  0  0  0  0  0  0  0  0  0  0
   11.1614   -5.9974   -2.2014 H   0  0  0  0  0  0  0  0  0  0  0  0
   13.4363   -5.4381   -1.5700 H   0  0  0  0  0  0  0  0  0  0  0  0
   15.2439   -5.4031   -3.2515 H   0  0  0  0  0  0  0  0  0  0  0  0
   12.4162   -6.5798   -6.2942 H   0  0  0  0  0  0  0  0  0  0  0  0
    6.9775   -4.6961   -3.7178 H   0  0  0  0  0  0  0  0  0  0  0  0
    2.3793   -5.1244   -4.9582 H   0  0  0  0  0  0  0  0  0  0  0  0
    3.4769   -5.0787   -6.3548 H   0  0  0  0  0  0  0  0  0  0  0  0
  1  2  1  0  0  0  0
  1 32  1  0  0  0  0
  1 33  1  0  0  0  0
  1 34  1  0  0  0  0
  2  3  1  0  0  0  0
  3  4  1  0  0  0  0
  3  8  2  0  0  0  0
  4  5  2  0  0  0  0
  5  6  1  0  0  0  0
  5 35  1  0  0  0  0
  6  7  2  0  0  0  0
  6 31  1  0  0  0  0
  7  8  1  0  0  0  0
  7  9  1  0  0  0  0
  9 10  1  0  0  0  0
  9 36  1  0  0  0  0
  9 37  1  0  0  0  0
 10 11  1  0  0  0  0
 10 38  1  0  0  0  0
 10 39  1  0  0  0  0
 11 12  1  0  0  0  0
 11 31  1  0  0  0  0
 12 13  1  0  0  0  0
 12 30  2  0  0  0  0
 13 14  2  0  0  0  0
 13 40  1  0  0  0  0
 14 15  1  0  0  0  0
 14 41  1  0  0  0  0
 15 16  2  0  0  0  0
 15 42  1  0  0  0  0
 16 17  1  0  0  0  0
 16 30  1  0  0  0  0
 17 18  2  0  0  0  0
 17 19  1  0  0  0  0
 19 20  1  0  0  0  0
 19 43  1  0  0  0  0
 20 21  1  0  0  0  0
 20 29  2  0  0  0  0
 21 22  2  0  0  0  0
 21 44  1  0  0  0  0
 22 23  1  0  0  0  0
 22 45  1  0  0  0  0
 23 24  2  0  0  0  0
 23 46  1  0  0  0  0
 24 25  1  0  0  0  0
 24 29  1  0  0  0  0
 25 26  1  0  0  0  0
 25 27  1  0  0  0  0
 25 28  1  0  0  0  0
 29 47  1  0  0  0  0
 30 48  1  0  0  0  0
 31 49  1  0  0  0  0
 31 50  1  0  0  0  0
M  END
$$$$
