CHEMBL3969475
 OpenBabel04072215373D

 71 75  0  0  1  0  0  0  0  0999 V2000
    0.6890    4.0376    0.4105 C   0  0  0  0  0  0  0  0  0  0  0  0
    1.9931    4.3002   -0.1191 O   0  0  0  0  0  0  0  0  0  0  0  0
    2.9306    3.3001    0.0039 C   0  0  0  0  0  0  0  0  0  0  0  0
    2.6756    2.0712    0.6163 C   0  0  0  0  0  0  0  0  0  0  0  0
    3.6712    1.1001    0.6608 C   0  0  0  0  0  0  0  0  0  0  0  0
    3.5359   -0.1579    1.1837 O   0  0  0  0  0  0  0  0  0  0  0  0
    2.3042   -0.4628    1.8269 C   0  0  0  0  0  0  0  0  0  0  0  0
    4.9248    1.3688    0.1003 C   0  0  0  0  0  0  0  0  0  0  0  0
    5.2265    2.5791   -0.5427 C   0  0  0  0  0  0  0  0  0  0  0  0
    6.4227    2.7459   -1.2901 N   0  0  0  0  0  0  0  0  0  0  0  0
    6.9400    1.4883   -2.0010 C   0  0  0  0  0  0  0  0  0  0  0  0
    5.9888    0.8573   -3.0641 C   0  0  3  0  0  0  0  0  0  0  0  0
    5.8190    1.7242   -4.2053 O   0  0  0  0  0  0  0  0  0  0  0  0
    6.5203   -0.5227   -3.6008 C   0  0  0  0  0  0  0  0  0  0  0  0
    6.7180   -1.6086   -2.6128 N   0  0  0  0  0  0  0  0  0  0  0  0
    5.4655   -1.9135   -1.9020 C   0  0  0  0  0  0  0  0  0  0  0  0
    5.6908   -2.9617   -0.8154 C   0  0  0  0  0  0  0  0  0  0  0  0
    6.2238   -4.2542   -1.4134 C   0  0  0  0  0  0  0  0  0  0  0  0
    7.4643   -3.9692   -2.2533 C   0  0  0  0  0  0  0  0  0  0  0  0
    7.2194   -2.8406   -3.2675 C   0  0  0  0  0  0  0  0  0  0  0  0
    7.5272    3.6584   -1.0807 C   0  0  0  0  0  0  0  0  0  0  0  0
    8.1524    4.0713   -2.2392 C   0  0  0  0  0  0  0  0  0  0  0  0
    9.4886    4.4077   -2.2327 C   0  0  0  0  0  0  0  0  0  0  0  0
   10.1909    4.5297   -1.0681 C   0  0  0  0  0  0  0  0  0  0  0  0
   11.5123    4.6479   -1.2423 N   0  0  0  0  0  0  0  0  0  0  0  0
   12.2338    4.9886   -0.1675 C   0  0  0  0  0  0  0  0  0  0  0  0
   11.6446    5.3019    1.0373 C   0  0  0  0  0  0  0  0  0  0  0  0
   12.4727    6.1106    1.9376 C   0  0  0  0  0  0  0  0  0  0  0  0
   12.4790    7.5252    2.1110 C   0  0  0  0  0  0  0  0  0  0  0  0
   13.5530    7.9706    2.7764 N   0  0  0  0  0  0  0  0  0  0  0  0
   14.2512    6.8518    3.0292 N   0  0  0  0  0  0  0  0  0  0  0  0
   15.3791    6.8830    3.9322 C   0  0  0  0  0  0  0  0  0  0  0  0
   13.7226    5.7455    2.4165 C   0  0  0  0  0  0  0  0  0  0  0  0
   10.3045    5.0402    1.2574 N   0  0  0  0  0  0  0  0  0  0  0  0
    9.5352    4.5490    0.1868 C   0  0  0  0  0  0  0  0  0  0  0  0
    8.1785    4.0070    0.1559 C   0  0  0  0  0  0  0  0  0  0  0  0
    4.2031    3.5505   -0.5631 C   0  0  0  0  0  0  0  0  0  0  0  0
    0.0536    4.9085    0.2201 H   0  0  0  0  0  0  0  0  0  0  0  0
    0.7253    3.8899    1.4961 H   0  0  0  0  0  0  0  0  0  0  0  0
    0.2185    3.1786   -0.0832 H   0  0  0  0  0  0  0  0  0  0  0  0
    1.7067    1.8633    1.0433 H   0  0  0  0  0  0  0  0  0  0  0  0
    2.3692   -1.4866    2.2068 H   0  0  0  0  0  0  0  0  0  0  0  0
    1.4659   -0.4244    1.1223 H   0  0  0  0  0  0  0  0  0  0  0  0
    2.1335    0.2011    2.6806 H   0  0  0  0  0  0  0  0  0  0  0  0
    5.6676    0.5796    0.1552 H   0  0  0  0  0  0  0  0  0  0  0  0
    7.2444    0.7544   -1.2482 H   0  0  0  0  0  0  0  0  0  0  0  0
    7.8604    1.7149   -2.5542 H   0  0  0  0  0  0  0  0  0  0  0  0
    4.9835    0.7175   -2.6624 H   0  0  0  0  0  0  0  0  0  0  0  0
    6.6896    2.0632   -4.4687 H   0  0  0  0  0  0  0  0  0  0  0  0
    7.4768   -0.3353   -4.1108 H   0  0  0  0  0  0  0  0  0  0  0  0
    5.8406   -0.8640   -4.3956 H   0  0  0  0  0  0  0  0  0  0  0  0
    4.6923   -2.2542   -2.6026 H   0  0  0  0  0  0  0  0  0  0  0  0
    5.0827   -1.0221   -1.4066 H   0  0  0  0  0  0  0  0  0  0  0  0
    4.7507   -3.1517   -0.2868 H   0  0  0  0  0  0  0  0  0  0  0  0
    6.4035   -2.5768   -0.0742 H   0  0  0  0  0  0  0  0  0  0  0  0
    5.4501   -4.7140   -2.0408 H   0  0  0  0  0  0  0  0  0  0  0  0
    6.4576   -4.9693   -0.6166 H   0  0  0  0  0  0  0  0  0  0  0  0
    7.7665   -4.8852   -2.7754 H   0  0  0  0  0  0  0  0  0  0  0  0
    8.2943   -3.6932   -1.5909 H   0  0  0  0  0  0  0  0  0  0  0  0
    6.5088   -3.1946   -4.0273 H   0  0  0  0  0  0  0  0  0  0  0  0
    8.1667   -2.6384   -3.7821 H   0  0  0  0  0  0  0  0  0  0  0  0
    7.6464    3.9716   -3.2104 H   0  0  0  0  0  0  0  0  0  0  0  0
   10.0125    4.5353   -3.1825 H   0  0  0  0  0  0  0  0  0  0  0  0
   13.3033    5.0717   -0.3327 H   0  0  0  0  0  0  0  0  0  0  0  0
   11.7757    8.2561    1.7320 H   0  0  0  0  0  0  0  0  0  0  0  0
   15.5413    7.9024    4.2958 H   0  0  0  0  0  0  0  0  0  0  0  0
   16.2737    6.5226    3.4181 H   0  0  0  0  0  0  0  0  0  0  0  0
   15.1373    6.2317    4.7765 H   0  0  0  0  0  0  0  0  0  0  0  0
   14.2740    4.8168    2.3826 H   0  0  0  0  0  0  0  0  0  0  0  0
    7.6621    3.8296    1.0940 H   0  0  0  0  0  0  0  0  0  0  0  0
    4.3606    4.4891   -1.0901 H   0  0  0  0  0  0  0  0  0  0  0  0
  1  2  1  0  0  0  0
  1 38  1  0  0  0  0
  1 39  1  0  0  0  0
  1 40  1  0  0  0  0
  2  3  1  0  0  0  0
  3  4  1  0  0  0  0
  3 37  2  0  0  0  0
  4  5  2  0  0  0  0
  4 41  1  0  0  0  0
  5  6  1  0  0  0  0
  5  8  1  0  0  0  0
  6  7  1  0  0  0  0
  7 42  1  0  0  0  0
  7 43  1  0  0  0  0
  7 44  1  0  0  0  0
  8  9  2  0  0  0  0
  8 45  1  0  0  0  0
  9 10  1  0  0  0  0
  9 37  1  0  0  0  0
 10 11  1  0  0  0  0
 10 21  1  0  0  0  0
 11 12  1  0  0  0  0
 11 46  1  0  0  0  0
 11 47  1  0  0  0  0
 12 13  1  0  0  0  0
 12 14  1  0  0  0  0
 12 48  1  0  0  0  0
 13 49  1  0  0  0  0
 14 15  1  0  0  0  0
 14 50  1  0  0  0  0
 14 51  1  0  0  0  0
 15 16  1  0  0  0  0
 15 20  1  0  0  0  0
 16 17  1  0  0  0  0
 16 52  1  0  0  0  0
 16 53  1  0  0  0  0
 17 18  1  0  0  0  0
 17 54  1  0  0  0  0
 17 55  1  0  0  0  0
 18 19  1  0  0  0  0
 18 56  1  0  0  0  0
 18 57  1  0  0  0  0
 19 20  1  0  0  0  0
 19 58  1  0  0  0  0
 19 59  1  0  0  0  0
 20 60  1  0  0  0  0
 20 61  1  0  0  0  0
 21 22  1  0  0  0  0
 21 36  2  0  0  0  0
 22 23  2  0  0  0  0
 22 62  1  0  0  0  0
 23 24  1  0  0  0  0
 23 63  1  0  0  0  0
 24 25  1  0  0  0  0
 24 35  2  0  0  0  0
 25 26  2  0  0  0  0
 26 27  1  0  0  0  0
 26 64  1  0  0  0  0
 27 28  1  0  0  0  0
 27 34  2  0  0  0  0
 28 29  1  0  0  0  0
 28 33  2  0  0  0  0
 29 30  2  0  0  0  0
 29 65  1  0  0  0  0
 30 31  1  0  0  0  0
 31 32  1  0  0  0  0
 31 33  1  0  0  0  0
 32 66  1  0  0  0  0
 32 67  1  0  0  0  0
 32 68  1  0  0  0  0
 33 69  1  0  0  0  0
 34 35  1  0  0  0  0
 35 36  1  0  0  0  0
 36 70  1  0  0  0  0
 37 71  1  0  0  0  0
M  END
$$$$
