CHEMBL1076198
 OpenBabel04072215353D

 77 81  0  0  0  0  0  0  0  0999 V2000
    0.0017   -1.4836    2.8290 C   0  0  0  0  0  0  0  0  0  0  0  0
    0.8335   -0.5496    1.9848 C   0  0  0  0  0  0  0  0  0  0  0  0
    0.9274    0.8055    2.3410 C   0  0  0  0  0  0  0  0  0  0  0  0
    1.6480    1.6980    1.5476 C   0  0  0  0  0  0  0  0  0  0  0  0
    2.2945    1.2290    0.4002 C   0  0  0  0  0  0  0  0  0  0  0  0
    2.9676    2.1420   -0.5567 C   0  0  0  0  0  0  0  0  0  0  0  0
    2.9131    1.8422   -1.7468 O   0  0  0  0  0  0  0  0  0  0  0  0
    3.6451    3.2236   -0.0173 N   0  0  0  0  0  0  0  0  0  0  0  0
    4.3926    4.1642   -0.7637 C   0  0  0  0  0  0  0  0  0  0  0  0
    4.2795    4.3046   -2.1498 C   0  0  0  0  0  0  0  0  0  0  0  0
    5.0894    5.1973   -2.8511 C   0  0  0  0  0  0  0  0  0  0  0  0
    6.0267    5.9681   -2.1713 C   0  0  0  0  0  0  0  0  0  0  0  0
    6.1458    5.8658   -0.7782 C   0  0  0  0  0  0  0  0  0  0  0  0
    7.1798    6.6745   -0.0372 C   0  0  0  0  0  0  0  0  0  0  0  0
    7.9746    7.4251   -0.8505 F   0  0  0  0  0  0  0  0  0  0  0  0
    6.6242    7.5457    0.8495 F   0  0  0  0  0  0  0  0  0  0  0  0
    8.0264    5.8925    0.6894 F   0  0  0  0  0  0  0  0  0  0  0  0
    5.3046    4.9769   -0.0788 C   0  0  0  0  0  0  0  0  0  0  0  0
    2.2186   -0.1248    0.0471 C   0  0  0  0  0  0  0  0  0  0  0  0
    1.4954   -1.0229    0.8262 C   0  0  0  0  0  0  0  0  0  0  0  0
    1.2013   -2.3304    0.3884 N   0  0  0  0  0  0  0  0  0  0  0  0
    1.8822   -3.1405   -0.4706 C   0  0  0  0  0  0  0  0  0  0  0  0
    1.1696   -3.9463   -1.2497 N   0  0  0  0  0  0  0  0  0  0  0  0
    1.3568   -5.1697   -0.6567 C   0  0  0  0  0  0  0  0  0  0  0  0
    0.5708   -6.3255   -0.7095 C   0  0  0  0  0  0  0  0  0  0  0  0
    0.8901   -7.3817    0.1541 C   0  0  0  0  0  0  0  0  0  0  0  0
    2.0034   -7.3151    0.9989 C   0  0  0  0  0  0  0  0  0  0  0  0
    2.8523   -6.2048    0.9968 C   0  0  0  0  0  0  0  0  0  0  0  0
    2.4796   -5.1432    0.1648 C   0  0  0  0  0  0  0  0  0  0  0  0
    3.0057   -3.8798   -0.0846 N   0  0  0  0  0  0  0  0  0  0  0  0
    4.3786   -3.5392   -0.2003 C   0  0  0  0  0  0  0  0  0  0  0  0
    5.2743   -4.5532   -0.5375 C   0  0  0  0  0  0  0  0  0  0  0  0
    6.6147   -4.2342   -0.6377 C   0  0  0  0  0  0  0  0  0  0  0  0
    7.5098   -5.2653   -0.9899 N   0  0  0  0  0  0  0  0  0  0  0  0
    8.9273   -4.9381   -0.8552 C   0  0  0  0  0  0  0  0  0  0  0  0
    9.7938   -6.0211   -1.5114 C   0  0  0  0  0  0  0  0  0  0  0  0
   11.2600   -5.8493   -1.0978 C   0  0  0  0  0  0  0  0  0  0  0  0
   12.2200   -6.8535   -1.7518 C   0  0  0  0  0  0  0  0  0  0  0  0
   12.2615   -6.8148   -3.2230 N   0  0  0  0  0  0  0  0  0  0  0  0
   12.6966   -5.5129   -3.7335 C   0  0  0  0  0  0  0  0  0  0  0  0
   13.1635   -7.8600   -3.7200 C   0  0  0  0  0  0  0  0  0  0  0  0
    7.0411   -2.9887   -0.3936 N   0  0  0  0  0  0  0  0  0  0  0  0
    6.0990   -2.0630   -0.1255 C   0  0  0  0  0  0  0  0  0  0  0  0
    4.7765   -2.2644   -0.0401 N   0  0  0  0  0  0  0  0  0  0  0  0
   -0.4688   -0.9612    3.6680 H   0  0  0  0  0  0  0  0  0  0  0  0
    0.6296   -2.2802    3.2424 H   0  0  0  0  0  0  0  0  0  0  0  0
   -0.8027   -1.9297    2.2335 H   0  0  0  0  0  0  0  0  0  0  0  0
    0.3969    1.1753    3.2168 H   0  0  0  0  0  0  0  0  0  0  0  0
    1.6392    2.7524    1.8030 H   0  0  0  0  0  0  0  0  0  0  0  0
    3.7492    3.2515    0.9860 H   0  0  0  0  0  0  0  0  0  0  0  0
    3.5603    3.7280   -2.7239 H   0  0  0  0  0  0  0  0  0  0  0  0
    4.9926    5.2755   -3.9315 H   0  0  0  0  0  0  0  0  0  0  0  0
    6.6688    6.6399   -2.7360 H   0  0  0  0  0  0  0  0  0  0  0  0
    5.4053    4.9004    1.0021 H   0  0  0  0  0  0  0  0  0  0  0  0
    2.6794   -0.4611   -0.8792 H   0  0  0  0  0  0  0  0  0  0  0  0
    0.2258   -2.3113    0.0858 H   0  0  0  0  0  0  0  0  0  0  0  0
   -0.3098   -6.3589   -1.3415 H   0  0  0  0  0  0  0  0  0  0  0  0
    0.2422   -8.2544    0.1881 H   0  0  0  0  0  0  0  0  0  0  0  0
    2.2068   -8.1380    1.6815 H   0  0  0  0  0  0  0  0  0  0  0  0
    3.7099   -6.1436    1.6599 H   0  0  0  0  0  0  0  0  0  0  0  0
    4.9539   -5.5660   -0.7530 H   0  0  0  0  0  0  0  0  0  0  0  0
    7.2700   -5.6255   -1.9102 H   0  0  0  0  0  0  0  0  0  0  0  0
    9.1665   -4.8798    0.2135 H   0  0  0  0  0  0  0  0  0  0  0  0
    9.1717   -3.9744   -1.3176 H   0  0  0  0  0  0  0  0  0  0  0  0
    9.6890   -5.9509   -2.6011 H   0  0  0  0  0  0  0  0  0  0  0  0
    9.4460   -7.0211   -1.2242 H   0  0  0  0  0  0  0  0  0  0  0  0
   11.3329   -5.9773   -0.0100 H   0  0  0  0  0  0  0  0  0  0  0  0
   11.5892   -4.8237   -1.3008 H   0  0  0  0  0  0  0  0  0  0  0  0
   11.9133   -7.8584   -1.4325 H   0  0  0  0  0  0  0  0  0  0  0  0
   13.2249   -6.6880   -1.3398 H   0  0  0  0  0  0  0  0  0  0  0  0
   11.9673   -4.7319   -3.4970 H   0  0  0  0  0  0  0  0  0  0  0  0
   12.7674   -5.5321   -4.8272 H   0  0  0  0  0  0  0  0  0  0  0  0
   13.6719   -5.2151   -3.3319 H   0  0  0  0  0  0  0  0  0  0  0  0
   12.8295   -8.8500   -3.3904 H   0  0  0  0  0  0  0  0  0  0  0  0
   14.1950   -7.7124   -3.3778 H   0  0  0  0  0  0  0  0  0  0  0  0
   13.1651   -7.8796   -4.8156 H   0  0  0  0  0  0  0  0  0  0  0  0
    6.4556   -1.0523    0.0443 H   0  0  0  0  0  0  0  0  0  0  0  0
  1  2  1  0  0  0  0
  1 45  1  0  0  0  0
  1 46  1  0  0  0  0
  1 47  1  0  0  0  0
  2  3  1  0  0  0  0
  2 20  2  0  0  0  0
  3  4  2  0  0  0  0
  3 48  1  0  0  0  0
  4  5  1  0  0  0  0
  4 49  1  0  0  0  0
  5  6  1  0  0  0  0
  5 19  2  0  0  0  0
  6  7  2  0  0  0  0
  6  8  1  0  0  0  0
  8  9  1  0  0  0  0
  8 50  1  0  0  0  0
  9 10  1  0  0  0  0
  9 18  2  0  0  0  0
 10 11  2  0  0  0  0
 10 51  1  0  0  0  0
 11 12  1  0  0  0  0
 11 52  1  0  0  0  0
 12 13  2  0  0  0  0
 12 53  1  0  0  0  0
 13 14  1  0  0  0  0
 13 18  1  0  0  0  0
 14 15  1  0  0  0  0
 14 16  1  0  0  0  0
 14 17  1  0  0  0  0
 18 54  1  0  0  0  0
 19 20  1  0  0  0  0
 19 55  1  0  0  0  0
 20 21  1  0  0  0  0
 21 22  1  0  0  0  0
 21 56  1  0  0  0  0
 22 23  2  0  0  0  0
 22 30  1  0  0  0  0
 23 24  1  0  0  0  0
 24 25  1  0  0  0  0
 24 29  2  0  0  0  0
 25 26  2  0  0  0  0
 25 57  1  0  0  0  0
 26 27  1  0  0  0  0
 26 58  1  0  0  0  0
 27 28  2  0  0  0  0
 27 59  1  0  0  0  0
 28 29  1  0  0  0  0
 28 60  1  0  0  0  0
 29 30  1  0  0  0  0
 30 31  1  0  0  0  0
 31 32  1  0  0  0  0
 31 44  2  0  0  0  0
 32 33  2  0  0  0  0
 32 61  1  0  0  0  0
 33 34  1  0  0  0  0
 33 42  1  0  0  0  0
 34 35  1  0  0  0  0
 34 62  1  0  0  0  0
 35 36  1  0  0  0  0
 35 63  1  0  0  0  0
 35 64  1  0  0  0  0
 36 37  1  0  0  0  0
 36 65  1  0  0  0  0
 36 66  1  0  0  0  0
 37 38  1  0  0  0  0
 37 67  1  0  0  0  0
 37 68  1  0  0  0  0
 38 39  1  0  0  0  0
 38 69  1  0  0  0  0
 38 70  1  0  0  0  0
 39 40  1  0  0  0  0
 39 41  1  0  0  0  0
 40 71  1  0  0  0  0
 40 72  1  0  0  0  0
 40 73  1  0  0  0  0
 41 74  1  0  0  0  0
 41 75  1  0  0  0  0
 41 76  1  0  0  0  0
 42 43  2  0  0  0  0
 43 44  1  0  0  0  0
 43 77  1  0  0  0  0
M  END
$$$$
