CHEMBL1242574
 OpenBabel04072215363D

 38 41  0  0  0  0  0  0  0  0999 V2000
    1.5376    0.8052    1.0434 C   0  0  0  0  0  0  0  0  0  0  0  0
    2.4159   -0.0839    0.1629 C   0  0  0  0  0  0  0  0  0  0  0  0
    3.5986    0.6983   -0.4064 C   0  0  0  0  0  0  0  0  0  0  0  0
    2.8497   -1.2819    0.8773 N   0  0  0  0  0  0  0  0  0  0  0  0
    3.6064   -1.1780    1.9896 N   0  0  0  0  0  0  0  0  0  0  0  0
    3.8064   -2.4499    2.3859 C   0  0  0  0  0  0  0  0  0  0  0  0
    4.6495   -2.7286    3.5582 C   0  0  0  0  0  0  0  0  0  0  0  0
    5.4501   -3.8767    3.6143 C   0  0  0  0  0  0  0  0  0  0  0  0
    6.2324   -4.1765    4.7377 C   0  0  0  0  0  0  0  0  0  0  0  0
    6.2763   -3.2651    5.8050 C   0  0  0  0  0  0  0  0  0  0  0  0
    6.9839   -3.2207    7.0366 C   0  0  0  0  0  0  0  0  0  0  0  0
    6.6691   -2.0335    7.6566 C   0  0  0  0  0  0  0  0  0  0  0  0
    5.7675   -1.3725    6.8640 N   0  0  0  0  0  0  0  0  0  0  0  0
    5.5132   -2.1015    5.7235 C   0  0  0  0  0  0  0  0  0  0  0  0
    4.6829   -1.8166    4.6291 C   0  0  0  0  0  0  0  0  0  0  0  0
    3.1087   -3.3676    1.5324 C   0  0  0  0  0  0  0  0  0  0  0  0
    2.8631   -4.7466    1.4265 C   0  0  0  0  0  0  0  0  0  0  0  0
    3.2785   -5.7111    2.3344 N   0  0  0  0  0  0  0  0  0  0  0  0
    2.1449   -5.2025    0.3800 N   0  0  0  0  0  0  0  0  0  0  0  0
    1.6722   -4.3154   -0.5148 C   0  0  0  0  0  0  0  0  0  0  0  0
    1.8044   -2.9822   -0.4996 N   0  0  0  0  0  0  0  0  0  0  0  0
    2.5358   -2.5711    0.5521 C   0  0  0  0  0  0  0  0  0  0  0  0
    1.1829    1.6773    0.4819 H   0  0  0  0  0  0  0  0  0  0  0  0
    2.0809    1.1701    1.9221 H   0  0  0  0  0  0  0  0  0  0  0  0
    0.6595    0.2549    1.3993 H   0  0  0  0  0  0  0  0  0  0  0  0
    1.8043   -0.4208   -0.6820 H   0  0  0  0  0  0  0  0  0  0  0  0
    4.2514    1.0813    0.3857 H   0  0  0  0  0  0  0  0  0  0  0  0
    3.2471    1.5536   -0.9943 H   0  0  0  0  0  0  0  0  0  0  0  0
    4.2055    0.0664   -1.0634 H   0  0  0  0  0  0  0  0  0  0  0  0
    5.4976   -4.5621    2.7702 H   0  0  0  0  0  0  0  0  0  0  0  0
    6.8224   -5.0888    4.7640 H   0  0  0  0  0  0  0  0  0  0  0  0
    7.6743   -3.9657    7.4102 H   0  0  0  0  0  0  0  0  0  0  0  0
    7.0133   -1.6009    8.5861 H   0  0  0  0  0  0  0  0  0  0  0  0
    5.3668   -0.4669    7.0655 H   0  0  0  0  0  0  0  0  0  0  0  0
    4.0970   -0.9011    4.5985 H   0  0  0  0  0  0  0  0  0  0  0  0
    3.3139   -5.3999    3.2980 H   0  0  0  0  0  0  0  0  0  0  0  0
    2.7811   -6.5811    2.1766 H   0  0  0  0  0  0  0  0  0  0  0  0
    1.1096   -4.7330   -1.3445 H   0  0  0  0  0  0  0  0  0  0  0  0
  1  2  1  0  0  0  0
  1 23  1  0  0  0  0
  1 24  1  0  0  0  0
  1 25  1  0  0  0  0
  2  3  1  0  0  0  0
  2  4  1  0  0  0  0
  2 26  1  0  0  0  0
  3 27  1  0  0  0  0
  3 28  1  0  0  0  0
  3 29  1  0  0  0  0
  4  5  1  0  0  0  0
  4 22  1  0  0  0  0
  5  6  2  0  0  0  0
  6  7  1  0  0  0  0
  6 16  1  0  0  0  0
  7  8  1  0  0  0  0
  7 15  2  0  0  0  0
  8  9  2  0  0  0  0
  8 30  1  0  0  0  0
  9 10  1  0  0  0  0
  9 31  1  0  0  0  0
 10 11  1  0  0  0  0
 10 14  2  0  0  0  0
 11 12  2  0  0  0  0
 11 32  1  0  0  0  0
 12 13  1  0  0  0  0
 12 33  1  0  0  0  0
 13 14  1  0  0  0  0
 13 34  1  0  0  0  0
 14 15  1  0  0  0  0
 15 35  1  0  0  0  0
 16 17  1  0  0  0  0
 16 22  2  0  0  0  0
 17 18  1  0  0  0  0
 17 19  2  0  0  0  0
 18 36  1  0  0  0  0
 18 37  1  0  0  0  0
 19 20  1  0  0  0  0
 20 21  2  0  0  0  0
 20 38  1  0  0  0  0
 21 22  1  0  0  0  0
M  END
$$$$
