CHEMBL4473213
 OpenBabel04072215383D

 66 70  0  0  0  0  0  0  0  0999 V2000
    0.4684    2.8454  -11.7660 C   0  0  0  0  0  0  0  0  0  0  0  0
    1.1025    4.1685  -11.3070 C   0  0  0  0  0  0  0  0  0  0  0  0
    2.0675    4.6821  -12.3892 C   0  0  0  0  0  0  0  0  0  0  0  0
   -0.0166    5.2093  -11.1081 C   0  0  0  0  0  0  0  0  0  0  0  0
    1.8708    3.9466  -10.0374 C   0  0  0  0  0  0  0  0  0  0  0  0
    2.9139    3.1230   -9.6755 C   0  0  0  0  0  0  0  0  0  0  0  0
    3.1981    3.4723   -8.3350 C   0  0  0  0  0  0  0  0  0  0  0  0
    4.2112    2.9098   -7.5881 N   0  0  0  0  0  0  0  0  0  0  0  0
    4.5171    3.2850   -6.3025 C   0  0  0  0  0  0  0  0  0  0  0  0
    3.9366    4.1471   -5.6334 O   0  0  0  0  0  0  0  0  0  0  0  0
    5.6751    2.5675   -5.6534 C   0  0  0  0  0  0  0  0  0  0  0  0
    6.4041    1.5445   -6.4807 C   0  0  0  0  0  0  0  0  0  0  0  0
    7.4367    1.9746   -7.3174 C   0  0  0  0  0  0  0  0  0  0  0  0
    8.2332    1.0361   -7.9388 C   0  0  0  0  0  0  0  0  0  0  0  0
    7.9988   -0.3309   -7.7212 C   0  0  0  0  0  0  0  0  0  0  0  0
    9.0363   -1.2031   -8.0995 N   0  0  0  0  0  0  0  0  0  0  0  0
   10.3579   -0.8897   -7.8451 C   0  0  0  0  0  0  0  0  0  0  0  0
   11.1567   -1.2964   -8.7944 N   0  0  0  0  0  0  0  0  0  0  0  0
   10.3196   -1.9146   -9.6748 C   0  0  0  0  0  0  0  0  0  0  0  0
   10.6031   -2.3079  -10.9747 C   0  0  0  0  0  0  0  0  0  0  0  0
    9.6203   -2.9118  -11.7789 C   0  0  0  0  0  0  0  0  0  0  0  0
    9.9593   -3.1593  -13.1959 C   0  0  0  0  0  0  0  0  0  0  0  0
   11.2962   -3.4545  -13.5387 C   0  0  0  0  0  0  0  0  0  0  0  0
   11.7272   -3.4936  -14.8569 C   0  0  0  0  0  0  0  0  0  0  0  0
   10.8033   -3.2961  -15.8741 C   0  0  0  0  0  0  0  0  0  0  0  0
   11.3820   -3.3439  -17.5466 S   0  0  0  0  0  0  0  0  0  0  0  0
   11.2887   -5.0720  -17.9344 C   0  0  0  0  0  0  0  0  0  0  0  0
   10.4153   -2.6402  -18.3692 O   0  0  0  0  0  0  0  0  0  0  0  0
   12.7794   -2.9551  -17.5409 O   0  0  0  0  0  0  0  0  0  0  0  0
    9.4605   -3.0391  -15.5827 C   0  0  0  0  0  0  0  0  0  0  0  0
    9.0435   -2.9698  -14.2453 C   0  0  0  0  0  0  0  0  0  0  0  0
    8.3646   -3.1763  -11.2000 C   0  0  0  0  0  0  0  0  0  0  0  0
    8.0307   -2.7432   -9.8982 C   0  0  0  0  0  0  0  0  0  0  0  0
    9.0229   -2.0501   -9.1907 C   0  0  0  0  0  0  0  0  0  0  0  0
    6.8872   -0.7816   -7.0213 C   0  0  0  0  0  0  0  0  0  0  0  0
    6.0863    0.1746   -6.3943 C   0  0  0  0  0  0  0  0  0  0  0  0
    2.3585    4.4193   -7.9124 N   0  0  0  0  0  0  0  0  0  0  0  0
    1.5393    4.7164   -8.9695 O   0  0  0  0  0  0  0  0  0  0  0  0
   -0.1186    2.9855  -12.6805 H   0  0  0  0  0  0  0  0  0  0  0  0
   -0.1997    2.4376  -10.9978 H   0  0  0  0  0  0  0  0  0  0  0  0
    1.2293    2.0842  -11.9746 H   0  0  0  0  0  0  0  0  0  0  0  0
    1.5416    4.8765  -13.3300 H   0  0  0  0  0  0  0  0  0  0  0  0
    2.8626    3.9558  -12.5961 H   0  0  0  0  0  0  0  0  0  0  0  0
    2.5531    5.6145  -12.0759 H   0  0  0  0  0  0  0  0  0  0  0  0
   -0.5789    5.3704  -12.0339 H   0  0  0  0  0  0  0  0  0  0  0  0
    0.3902    6.1790  -10.7954 H   0  0  0  0  0  0  0  0  0  0  0  0
   -0.7281    4.8879  -10.3376 H   0  0  0  0  0  0  0  0  0  0  0  0
    3.4106    2.3979  -10.3020 H   0  0  0  0  0  0  0  0  0  0  0  0
    4.7638    2.2033   -8.0550 H   0  0  0  0  0  0  0  0  0  0  0  0
    5.3083    2.0958   -4.7344 H   0  0  0  0  0  0  0  0  0  0  0  0
    6.3988    3.3337   -5.3403 H   0  0  0  0  0  0  0  0  0  0  0  0
    7.6697    3.0308   -7.4383 H   0  0  0  0  0  0  0  0  0  0  0  0
    9.0672    1.3721   -8.5553 H   0  0  0  0  0  0  0  0  0  0  0  0
   10.6435   -0.2532   -7.0172 H   0  0  0  0  0  0  0  0  0  0  0  0
   11.5799   -2.0332  -11.3562 H   0  0  0  0  0  0  0  0  0  0  0  0
   12.0444   -3.6102  -12.7630 H   0  0  0  0  0  0  0  0  0  0  0  0
   12.7823   -3.6529  -15.0662 H   0  0  0  0  0  0  0  0  0  0  0  0
   10.2454   -5.3873  -17.8843 H   0  0  0  0  0  0  0  0  0  0  0  0
   11.8966   -5.6298  -17.2180 H   0  0  0  0  0  0  0  0  0  0  0  0
   11.6787   -5.2151  -18.9434 H   0  0  0  0  0  0  0  0  0  0  0  0
    8.7429   -2.8598  -16.3807 H   0  0  0  0  0  0  0  0  0  0  0  0
    8.0070   -2.7090  -14.0370 H   0  0  0  0  0  0  0  0  0  0  0  0
    7.5970   -3.6890  -11.7789 H   0  0  0  0  0  0  0  0  0  0  0  0
    7.0337   -2.8922   -9.4956 H   0  0  0  0  0  0  0  0  0  0  0  0
    6.6906   -1.8397   -6.8723 H   0  0  0  0  0  0  0  0  0  0  0  0
    5.2514   -0.1531   -5.7764 H   0  0  0  0  0  0  0  0  0  0  0  0
  1  2  1  0  0  0  0
  1 39  1  0  0  0  0
  1 40  1  0  0  0  0
  1 41  1  0  0  0  0
  2  3  1  0  0  0  0
  2  4  1  0  0  0  0
  2  5  1  0  0  0  0
  3 42  1  0  0  0  0
  3 43  1  0  0  0  0
  3 44  1  0  0  0  0
  4 45  1  0  0  0  0
  4 46  1  0  0  0  0
  4 47  1  0  0  0  0
  5  6  2  0  0  0  0
  5 38  1  0  0  0  0
  6  7  1  0  0  0  0
  6 48  1  0  0  0  0
  7  8  1  0  0  0  0
  7 37  2  0  0  0  0
  8  9  1  0  0  0  0
  8 49  1  0  0  0  0
  9 10  2  0  0  0  0
  9 11  1  0  0  0  0
 11 12  1  0  0  0  0
 11 50  1  0  0  0  0
 11 51  1  0  0  0  0
 12 13  1  0  0  0  0
 12 36  2  0  0  0  0
 13 14  2  0  0  0  0
 13 52  1  0  0  0  0
 14 15  1  0  0  0  0
 14 53  1  0  0  0  0
 15 16  1  0  0  0  0
 15 35  2  0  0  0  0
 16 17  1  0  0  0  0
 16 34  1  0  0  0  0
 17 18  2  0  0  0  0
 17 54  1  0  0  0  0
 18 19  1  0  0  0  0
 19 20  1  0  0  0  0
 19 34  2  0  0  0  0
 20 21  2  0  0  0  0
 20 55  1  0  0  0  0
 21 22  1  0  0  0  0
 21 32  1  0  0  0  0
 22 23  1  0  0  0  0
 22 31  2  0  0  0  0
 23 24  2  0  0  0  0
 23 56  1  0  0  0  0
 24 25  1  0  0  0  0
 24 57  1  0  0  0  0
 25 26  1  0  0  0  0
 25 30  2  0  0  0  0
 26 27  1  0  0  0  0
 26 28  2  0  0  0  0
 26 29  2  0  0  0  0
 27 58  1  0  0  0  0
 27 59  1  0  0  0  0
 27 60  1  0  0  0  0
 30 31  1  0  0  0  0
 30 61  1  0  0  0  0
 31 62  1  0  0  0  0
 32 33  2  0  0  0  0
 32 63  1  0  0  0  0
 33 34  1  0  0  0  0
 33 64  1  0  0  0  0
 35 36  1  0  0  0  0
 35 65  1  0  0  0  0
 36 66  1  0  0  0  0
 37 38  1  0  0  0  0
M  END
$$$$
