CHEMBL3775190
 OpenBabel04072215373D

 37 39  0  0  0  0  0  0  0  0999 V2000
    3.4161    0.5493    1.0352 C   0  0  0  0  0  0  0  0  0  0  0  0
    2.4781    0.2000    0.0123 O   0  0  0  0  0  0  0  0  0  0  0  0
    3.0147   -0.3971   -1.0983 C   0  0  0  0  0  0  0  0  0  0  0  0
    4.1319   -1.2485   -0.9959 C   0  0  0  0  0  0  0  0  0  0  0  0
    4.7954   -1.7463   -2.1053 C   0  0  0  0  0  0  0  0  0  0  0  0
    5.9185   -2.4473   -1.9249 N   0  0  0  0  0  0  0  0  0  0  0  0
    6.5920   -2.7895   -3.0247 C   0  0  0  0  0  0  0  0  0  0  0  0
    6.2478   -2.4889   -4.2780 N   0  0  0  0  0  0  0  0  0  0  0  0
    5.0969   -1.8044   -4.4512 C   0  0  0  0  0  0  0  0  0  0  0  0
    4.7694   -1.3649   -5.7580 N   0  0  0  0  0  0  0  0  0  0  0  0
    5.7101   -1.2266   -6.8074 C   0  0  0  0  0  0  0  0  0  0  0  0
    6.9786   -0.6853   -6.5328 C   0  0  0  0  0  0  0  0  0  0  0  0
    7.9636   -0.6464   -7.5135 C   0  0  0  0  0  0  0  0  0  0  0  0
    9.2035   -0.1584   -7.2079 O   0  0  0  0  0  0  0  0  0  0  0  0
    7.6871   -1.1092   -8.8003 C   0  0  0  0  0  0  0  0  0  0  0  0
    8.8985   -1.1478  -10.0217 Cl  0  0  0  0  0  0  0  0  0  0  0  0
    6.4042   -1.5753   -9.1126 C   0  0  0  0  0  0  0  0  0  0  0  0
    5.4205   -1.6207   -8.1236 C   0  0  0  0  0  0  0  0  0  0  0  0
    3.8455   -2.1986   -8.5421 Cl  0  0  0  0  0  0  0  0  0  0  0  0
    4.2942   -1.4283   -3.3699 C   0  0  0  0  0  0  0  0  0  0  0  0
    3.0882   -0.7016   -3.4804 C   0  0  0  0  0  0  0  0  0  0  0  0
    2.4493   -0.1713   -2.3563 C   0  0  0  0  0  0  0  0  0  0  0  0
    1.3423    0.5450   -2.7071 O   0  0  0  0  0  0  0  0  0  0  0  0
    0.7028    1.3688   -1.7496 C   0  0  0  0  0  0  0  0  0  0  0  0
    3.1041    1.5007    1.4753 H   0  0  0  0  0  0  0  0  0  0  0  0
    4.4400    0.6928    0.6657 H   0  0  0  0  0  0  0  0  0  0  0  0
    3.4028   -0.2155    1.8179 H   0  0  0  0  0  0  0  0  0  0  0  0
    4.5400   -1.5063   -0.0218 H   0  0  0  0  0  0  0  0  0  0  0  0
    7.5147   -3.3405   -2.8909 H   0  0  0  0  0  0  0  0  0  0  0  0
    3.8776   -1.7467   -6.0652 H   0  0  0  0  0  0  0  0  0  0  0  0
    7.1915   -0.3202   -5.5311 H   0  0  0  0  0  0  0  0  0  0  0  0
    9.2328    0.0610   -6.2588 H   0  0  0  0  0  0  0  0  0  0  0  0
    6.1811   -1.9207  -10.1207 H   0  0  0  0  0  0  0  0  0  0  0  0
    2.6630   -0.4895   -4.4598 H   0  0  0  0  0  0  0  0  0  0  0  0
    0.0320    2.0357   -2.3023 H   0  0  0  0  0  0  0  0  0  0  0  0
    1.4096    2.0078   -1.2131 H   0  0  0  0  0  0  0  0  0  0  0  0
    0.0896    0.7693   -1.0711 H   0  0  0  0  0  0  0  0  0  0  0  0
  1  2  1  0  0  0  0
  1 25  1  0  0  0  0
  1 26  1  0  0  0  0
  1 27  1  0  0  0  0
  2  3  1  0  0  0  0
  3  4  1  0  0  0  0
  3 22  2  0  0  0  0
  4  5  2  0  0  0  0
  4 28  1  0  0  0  0
  5  6  1  0  0  0  0
  5 20  1  0  0  0  0
  6  7  2  0  0  0  0
  7  8  1  0  0  0  0
  7 29  1  0  0  0  0
  8  9  2  0  0  0  0
  9 10  1  0  0  0  0
  9 20  1  0  0  0  0
 10 11  1  0  0  0  0
 10 30  1  0  0  0  0
 11 12  1  0  0  0  0
 11 18  2  0  0  0  0
 12 13  2  0  0  0  0
 12 31  1  0  0  0  0
 13 14  1  0  0  0  0
 13 15  1  0  0  0  0
 14 32  1  0  0  0  0
 15 16  1  0  0  0  0
 15 17  2  0  0  0  0
 17 18  1  0  0  0  0
 17 33  1  0  0  0  0
 18 19  1  0  0  0  0
 20 21  2  0  0  0  0
 21 22  1  0  0  0  0
 21 34  1  0  0  0  0
 22 23  1  0  0  0  0
 23 24  1  0  0  0  0
 24 35  1  0  0  0  0
 24 36  1  0  0  0  0
 24 37  1  0  0  0  0
M  END
$$$$
