CHEMBL248976
 OpenBabel04072215363D

 49 52  0  0  0  0  0  0  0  0999 V2000
    1.0497    0.4111    0.2645 O   0  0  0  0  0  0  0  0  0  0  0  0
    2.2069   -0.0017    0.2840 C   0  0  0  0  0  0  0  0  0  0  0  0
    2.6701   -1.1822   -0.2652 N   0  0  0  0  0  0  0  0  0  0  0  0
    1.9009   -2.1434   -0.9451 C   0  0  0  0  0  0  0  0  0  0  0  0
    0.5402   -1.9916   -1.2028 C   0  0  0  0  0  0  0  0  0  0  0  0
   -0.1975   -3.0219   -1.7879 C   0  0  0  0  0  0  0  0  0  0  0  0
    0.3971   -4.2362   -2.1575 C   0  0  0  0  0  0  0  0  0  0  0  0
   -0.4261   -5.3649   -2.6553 C   0  0  0  0  0  0  0  0  0  0  0  0
   -1.6153   -5.1514   -3.3794 C   0  0  0  0  0  0  0  0  0  0  0  0
   -2.4352   -6.2157   -3.7681 C   0  0  0  0  0  0  0  0  0  0  0  0
   -2.0738   -7.5225   -3.4596 C   0  0  0  0  0  0  0  0  0  0  0  0
   -0.8988   -7.7645   -2.7625 C   0  0  0  0  0  0  0  0  0  0  0  0
   -0.0881   -6.6987   -2.3586 C   0  0  0  0  0  0  0  0  0  0  0  0
    1.7873   -4.3434   -1.9698 C   0  0  0  0  0  0  0  0  0  0  0  0
    2.5290   -3.3162   -1.3625 C   0  0  0  0  0  0  0  0  0  0  0  0
    3.2165    0.8692    0.9374 C   0  0  0  0  0  0  0  0  0  0  0  0
    2.9228    2.2462    0.9558 C   0  0  0  0  0  0  0  0  0  0  0  0
    3.8024    3.1397    1.5410 C   0  0  0  0  0  0  0  0  0  0  0  0
    4.9546    2.6245    2.0914 C   0  0  0  0  0  0  0  0  0  0  0  0
    5.2833    1.3105    2.0667 N   0  0  0  0  0  0  0  0  0  0  0  0
    4.4275    0.4304    1.4920 C   0  0  0  0  0  0  0  0  0  0  0  0
    4.7726   -0.9457    1.5056 N   0  0  0  0  0  0  0  0  0  0  0  0
    6.1855   -1.1687    1.8127 C   0  0  0  0  0  0  0  0  0  0  0  0
    6.4842   -2.6468    1.9225 C   0  0  0  0  0  0  0  0  0  0  0  0
    6.6319   -3.4386    0.7815 C   0  0  0  0  0  0  0  0  0  0  0  0
    6.9928   -4.7689    0.9403 C   0  0  0  0  0  0  0  0  0  0  0  0
    7.2049   -5.3528    2.1372 N   0  0  0  0  0  0  0  0  0  0  0  0
    7.0403   -4.5769    3.2266 C   0  0  0  0  0  0  0  0  0  0  0  0
    6.6807   -3.2391    3.1729 C   0  0  0  0  0  0  0  0  0  0  0  0
    3.6484   -1.3994   -0.0929 H   0  0  0  0  0  0  0  0  0  0  0  0
    0.0018   -1.0888   -0.9391 H   0  0  0  0  0  0  0  0  0  0  0  0
   -1.2669   -2.8620   -1.9035 H   0  0  0  0  0  0  0  0  0  0  0  0
   -1.9304   -4.1448   -3.6456 H   0  0  0  0  0  0  0  0  0  0  0  0
   -3.3596   -6.0180   -4.3047 H   0  0  0  0  0  0  0  0  0  0  0  0
   -2.7113   -8.3498   -3.7562 H   0  0  0  0  0  0  0  0  0  0  0  0
   -0.6096   -8.7809   -2.5084 H   0  0  0  0  0  0  0  0  0  0  0  0
    0.8029   -6.9231   -1.7771 H   0  0  0  0  0  0  0  0  0  0  0  0
    2.3152   -5.2437   -2.2770 H   0  0  0  0  0  0  0  0  0  0  0  0
    3.5940   -3.4665   -1.2069 H   0  0  0  0  0  0  0  0  0  0  0  0
    2.0041    2.6145    0.4999 H   0  0  0  0  0  0  0  0  0  0  0  0
    3.5879    4.2018    1.5618 H   0  0  0  0  0  0  0  0  0  0  0  0
    5.6730    3.2733    2.5846 H   0  0  0  0  0  0  0  0  0  0  0  0
    4.1706   -1.4041    2.1914 H   0  0  0  0  0  0  0  0  0  0  0  0
    6.4879   -0.6832    2.7500 H   0  0  0  0  0  0  0  0  0  0  0  0
    6.8077   -0.7522    1.0091 H   0  0  0  0  0  0  0  0  0  0  0  0
    6.4923   -3.0294   -0.2120 H   0  0  0  0  0  0  0  0  0  0  0  0
    7.1417   -5.4172    0.0789 H   0  0  0  0  0  0  0  0  0  0  0  0
    7.2236   -5.0687    4.1769 H   0  0  0  0  0  0  0  0  0  0  0  0
    6.5822   -2.6713    4.0939 H   0  0  0  0  0  0  0  0  0  0  0  0
  1  2  2  0  0  0  0
  2  3  1  0  0  0  0
  2 16  1  0  0  0  0
  3  4  1  0  0  0  0
  3 30  1  0  0  0  0
  4  5  1  0  0  0  0
  4 15  2  0  0  0  0
  5  6  2  0  0  0  0
  5 31  1  0  0  0  0
  6  7  1  0  0  0  0
  6 32  1  0  0  0  0
  7  8  1  0  0  0  0
  7 14  2  0  0  0  0
  8  9  1  0  0  0  0
  8 13  2  0  0  0  0
  9 10  2  0  0  0  0
  9 33  1  0  0  0  0
 10 11  1  0  0  0  0
 10 34  1  0  0  0  0
 11 12  2  0  0  0  0
 11 35  1  0  0  0  0
 12 13  1  0  0  0  0
 12 36  1  0  0  0  0
 13 37  1  0  0  0  0
 14 15  1  0  0  0  0
 14 38  1  0  0  0  0
 15 39  1  0  0  0  0
 16 17  1  0  0  0  0
 16 21  2  0  0  0  0
 17 18  2  0  0  0  0
 17 40  1  0  0  0  0
 18 19  1  0  0  0  0
 18 41  1  0  0  0  0
 19 20  2  0  0  0  0
 19 42  1  0  0  0  0
 20 21  1  0  0  0  0
 21 22  1  0  0  0  0
 22 23  1  0  0  0  0
 22 43  1  0  0  0  0
 23 24  1  0  0  0  0
 23 44  1  0  0  0  0
 23 45  1  0  0  0  0
 24 25  1  0  0  0  0
 24 29  2  0  0  0  0
 25 26  2  0  0  0  0
 25 46  1  0  0  0  0
 26 27  1  0  0  0  0
 26 47  1  0  0  0  0
 27 28  2  0  0  0  0
 28 29  1  0  0  0  0
 28 48  1  0  0  0  0
 29 49  1  0  0  0  0
M  END
$$$$
