CHEMBL1973178
 OpenBabel04072215363D

 50 53  0  0  0  0  0  0  0  0999 V2000
    2.3558    1.1138    0.0078 C   0  0  0  0  0  0  0  0  0  0  0  0
    2.2816   -0.3007   -0.1435 O   0  0  0  0  0  0  0  0  0  0  0  0
    3.0454   -0.8150   -1.1764 C   0  0  0  0  0  0  0  0  0  0  0  0
    2.5612   -1.9798   -1.7677 C   0  0  0  0  0  0  0  0  0  0  0  0
    3.2522   -2.5897   -2.8160 C   0  0  0  0  0  0  0  0  0  0  0  0
    4.4864   -2.0934   -3.3078 C   0  0  0  0  0  0  0  0  0  0  0  0
    5.1381   -2.7383   -4.4659 C   0  0  0  0  0  0  0  0  0  0  0  0
    5.6906   -1.9710   -5.4908 C   0  0  0  0  0  0  0  0  0  0  0  0
    6.3506   -2.5533   -6.5719 C   0  0  0  0  0  0  0  0  0  0  0  0
    6.4121   -3.9377   -6.7248 C   0  0  0  0  0  0  0  0  0  0  0  0
    7.0307   -4.5506   -7.8410 N   0  0  0  0  0  0  0  0  0  0  0  0
    7.8535   -3.8909   -8.7340 C   0  0  0  0  0  0  0  0  0  0  0  0
    8.2768   -2.7494   -8.5765 O   0  0  0  0  0  0  0  0  0  0  0  0
    8.1273   -4.6457   -9.8684 N   0  0  0  0  0  0  0  0  0  0  0  0
    8.9194   -4.0660  -10.8899 C   0  0  0  0  0  0  0  0  0  0  0  0
   10.0833   -3.3527  -10.5771 C   0  0  0  0  0  0  0  0  0  0  0  0
   10.7623   -2.6211  -11.5529 C   0  0  0  0  0  0  0  0  0  0  0  0
   10.3125   -2.6413  -12.8679 C   0  0  0  0  0  0  0  0  0  0  0  0
   10.8596   -1.9702  -13.9174 O   0  0  0  0  0  0  0  0  0  0  0  0
   12.2291   -1.5979  -13.8769 C   0  0  0  0  0  0  0  0  0  0  0  0
   12.9617   -2.2929  -12.9819 F   0  0  0  0  0  0  0  0  0  0  0  0
   12.7618   -1.8225  -15.1004 F   0  0  0  0  0  0  0  0  0  0  0  0
   12.3383   -0.2798  -13.6083 F   0  0  0  0  0  0  0  0  0  0  0  0
    9.1627   -3.3779  -13.1843 C   0  0  0  0  0  0  0  0  0  0  0  0
    8.4794   -4.1121  -12.2090 C   0  0  0  0  0  0  0  0  0  0  0  0
    5.7955   -4.7301   -5.7572 C   0  0  0  0  0  0  0  0  0  0  0  0
    5.1824   -4.1368   -4.6354 C   0  0  0  0  0  0  0  0  0  0  0  0
    5.0206   -0.9292   -2.6691 C   0  0  0  0  0  0  0  0  0  0  0  0
    6.1765   -0.0741   -2.7387 C   0  0  0  0  0  0  0  0  0  0  0  0
    7.2364   -0.2119   -3.5611 N   0  0  0  0  0  0  0  0  0  0  0  0
    6.1044    0.9311   -1.8680 N   0  0  0  0  0  0  0  0  0  0  0  0
    4.9322    0.7530   -1.1806 O   0  0  0  0  0  0  0  0  0  0  0  0
    4.2750   -0.3396   -1.6453 C   0  0  0  0  0  0  0  0  0  0  0  0
    1.5719    1.4128    0.7108 H   0  0  0  0  0  0  0  0  0  0  0  0
    2.1680    1.6282   -0.9413 H   0  0  0  0  0  0  0  0  0  0  0  0
    3.3108    1.4194    0.4449 H   0  0  0  0  0  0  0  0  0  0  0  0
    1.6190   -2.4027   -1.4246 H   0  0  0  0  0  0  0  0  0  0  0  0
    2.7983   -3.4680   -3.2755 H   0  0  0  0  0  0  0  0  0  0  0  0
    5.6295   -0.8842   -5.4697 H   0  0  0  0  0  0  0  0  0  0  0  0
    6.7903   -1.8669   -7.2875 H   0  0  0  0  0  0  0  0  0  0  0  0
    7.0208   -5.5588   -7.8928 H   0  0  0  0  0  0  0  0  0  0  0  0
    7.3640   -5.2350  -10.1692 H   0  0  0  0  0  0  0  0  0  0  0  0
   10.4469   -3.3182   -9.5516 H   0  0  0  0  0  0  0  0  0  0  0  0
   11.6119   -2.0260  -11.2314 H   0  0  0  0  0  0  0  0  0  0  0  0
    8.7786   -3.3592  -14.2019 H   0  0  0  0  0  0  0  0  0  0  0  0
    7.5701   -4.6383  -12.4831 H   0  0  0  0  0  0  0  0  0  0  0  0
    5.7820   -5.8134   -5.8478 H   0  0  0  0  0  0  0  0  0  0  0  0
    4.7297   -4.7934   -3.8944 H   0  0  0  0  0  0  0  0  0  0  0  0
    7.4770   -1.1053   -3.9737 H   0  0  0  0  0  0  0  0  0  0  0  0
    8.0281    0.4077   -3.4197 H   0  0  0  0  0  0  0  0  0  0  0  0
  1  2  1  0  0  0  0
  1 34  1  0  0  0  0
  1 35  1  0  0  0  0
  1 36  1  0  0  0  0
  2  3  1  0  0  0  0
  3  4  1  0  0  0  0
  3 33  2  0  0  0  0
  4  5  2  0  0  0  0
  4 37  1  0  0  0  0
  5  6  1  0  0  0  0
  5 38  1  0  0  0  0
  6  7  1  0  0  0  0
  6 28  2  0  0  0  0
  7  8  1  0  0  0  0
  7 27  2  0  0  0  0
  8  9  2  0  0  0  0
  8 39  1  0  0  0  0
  9 10  1  0  0  0  0
  9 40  1  0  0  0  0
 10 11  1  0  0  0  0
 10 26  2  0  0  0  0
 11 12  1  0  0  0  0
 11 41  1  0  0  0  0
 12 13  2  0  0  0  0
 12 14  1  0  0  0  0
 14 15  1  0  0  0  0
 14 42  1  0  0  0  0
 15 16  1  0  0  0  0
 15 25  2  0  0  0  0
 16 17  2  0  0  0  0
 16 43  1  0  0  0  0
 17 18  1  0  0  0  0
 17 44  1  0  0  0  0
 18 19  1  0  0  0  0
 18 24  2  0  0  0  0
 19 20  1  0  0  0  0
 20 21  1  0  0  0  0
 20 22  1  0  0  0  0
 20 23  1  0  0  0  0
 24 25  1  0  0  0  0
 24 45  1  0  0  0  0
 25 46  1  0  0  0  0
 26 27  1  0  0  0  0
 26 47  1  0  0  0  0
 27 48  1  0  0  0  0
 28 29  1  0  0  0  0
 28 33  1  0  0  0  0
 29 30  1  0  0  0  0
 29 31  2  0  0  0  0
 30 49  1  0  0  0  0
 30 50  1  0  0  0  0
 31 32  1  0  0  0  0
 32 33  1  0  0  0  0
M  END
$$$$
