CHEMBL4083001
 OpenBabel04072215383D

 52 56  0  0  0  0  0  0  0  0999 V2000
    0.0381    1.8603   -3.2111 N   0  0  0  0  0  0  0  0  0  0  0  0
   -0.4579    0.8041   -2.5500 C   0  0  0  0  0  0  0  0  0  0  0  0
   -0.6628   -0.3350   -3.2047 N   0  0  0  0  0  0  0  0  0  0  0  0
   -1.1406   -1.1587   -2.2724 N   0  0  0  0  0  0  0  0  0  0  0  0
   -1.2422   -0.6075   -1.0251 C   0  0  0  0  0  0  0  0  0  0  0  0
   -1.6894   -1.1817    0.1683 C   0  0  0  0  0  0  0  0  0  0  0  0
   -1.6873   -0.3792    1.3011 C   0  0  0  0  0  0  0  0  0  0  0  0
   -1.2658    0.9461    1.2272 C   0  0  0  0  0  0  0  0  0  0  0  0
   -0.8280    1.5483    0.0174 C   0  0  0  0  0  0  0  0  0  0  0  0
   -0.4824    2.9876   -0.0081 C   0  0  0  0  0  0  0  0  0  0  0  0
    0.5696    3.4894   -0.7769 C   0  0  0  0  0  0  0  0  0  0  0  0
    0.7593    4.8626   -0.9625 C   0  0  0  0  0  0  0  0  0  0  0  0
    0.0047    5.7842   -0.2419 C   0  0  0  0  0  0  0  0  0  0  0  0
    0.2037    7.1749   -0.3390 N   0  0  0  0  0  0  0  0  0  0  0  0
    0.8347    7.8208   -1.3840 C   0  0  0  0  0  0  0  0  0  0  0  0
    1.2477    7.3123   -2.4224 O   0  0  0  0  0  0  0  0  0  0  0  0
    1.0827    9.2729   -1.1726 C   0  0  0  0  0  0  0  0  0  0  0  0
    2.2783    9.5789   -0.3310 C   0  0  0  0  0  0  0  0  0  0  0  0
    2.0960   10.0519    0.7816 O   0  0  0  0  0  0  0  0  0  0  0  0
    3.4775    9.2619   -0.9367 N   0  0  0  0  0  0  0  0  0  0  0  0
    4.7709    9.5053   -0.4129 C   0  0  0  0  0  0  0  0  0  0  0  0
    4.9745   10.1206    0.8172 C   0  0  0  0  0  0  0  0  0  0  0  0
    6.2651   10.3800    1.2844 C   0  0  0  0  0  0  0  0  0  0  0  0
    7.3704   10.0261    0.5147 C   0  0  0  0  0  0  0  0  0  0  0  0
    8.9348   10.3917    1.1549 Cl  0  0  0  0  0  0  0  0  0  0  0  0
    7.1772    9.3983   -0.7148 C   0  0  0  0  0  0  0  0  0  0  0  0
    8.5051    8.9392   -1.7278 Cl  0  0  0  0  0  0  0  0  0  0  0  0
    5.8801    9.1350   -1.1849 C   0  0  0  0  0  0  0  0  0  0  0  0
   -0.0561   10.2941   -1.1670 C   0  0  0  0  0  0  0  0  0  0  0  0
    0.8137   10.1830   -2.3760 C   0  0  0  0  0  0  0  0  0  0  0  0
   -0.9509    5.3079    0.6521 C   0  0  0  0  0  0  0  0  0  0  0  0
   -1.2107    3.9317    0.7414 C   0  0  0  0  0  0  0  0  0  0  0  0
   -0.8057    0.7175   -1.1521 C   0  0  0  0  0  0  0  0  0  0  0  0
    0.1088    1.7817   -4.2185 H   0  0  0  0  0  0  0  0  0  0  0  0
   -0.1169    2.8078   -2.8961 H   0  0  0  0  0  0  0  0  0  0  0  0
   -1.3865   -2.1010   -2.5504 H   0  0  0  0  0  0  0  0  0  0  0  0
   -2.0241   -2.2131    0.2162 H   0  0  0  0  0  0  0  0  0  0  0  0
   -2.0242   -0.7856    2.2523 H   0  0  0  0  0  0  0  0  0  0  0  0
   -1.2837    1.5300    2.1464 H   0  0  0  0  0  0  0  0  0  0  0  0
    1.2517    2.8092   -1.2838 H   0  0  0  0  0  0  0  0  0  0  0  0
    1.5369    5.1714   -1.6543 H   0  0  0  0  0  0  0  0  0  0  0  0
   -0.1349    7.7431    0.4301 H   0  0  0  0  0  0  0  0  0  0  0  0
    3.4214    8.7989   -1.8422 H   0  0  0  0  0  0  0  0  0  0  0  0
    4.1533   10.4200    1.4585 H   0  0  0  0  0  0  0  0  0  0  0  0
    6.3898   10.8675    2.2485 H   0  0  0  0  0  0  0  0  0  0  0  0
    5.7519    8.6577   -2.1460 H   0  0  0  0  0  0  0  0  0  0  0  0
    0.0550   11.1999   -0.5746 H   0  0  0  0  0  0  0  0  0  0  0  0
   -1.0808    9.9530   -1.2433 H   0  0  0  0  0  0  0  0  0  0  0  0
    1.5291   10.9707   -2.5834 H   0  0  0  0  0  0  0  0  0  0  0  0
    0.3723    9.7456   -3.2660 H   0  0  0  0  0  0  0  0  0  0  0  0
   -1.5488    5.9908    1.2494 H   0  0  0  0  0  0  0  0  0  0  0  0
   -2.0106    3.6088    1.4055 H   0  0  0  0  0  0  0  0  0  0  0  0
  1  2  1  0  0  0  0
  1 34  1  0  0  0  0
  1 35  1  0  0  0  0
  2  3  2  0  0  0  0
  2 33  1  0  0  0  0
  3  4  1  0  0  0  0
  4  5  1  0  0  0  0
  4 36  1  0  0  0  0
  5  6  1  0  0  0  0
  5 33  2  0  0  0  0
  6  7  2  0  0  0  0
  6 37  1  0  0  0  0
  7  8  1  0  0  0  0
  7 38  1  0  0  0  0
  8  9  2  0  0  0  0
  8 39  1  0  0  0  0
  9 10  1  0  0  0  0
  9 33  1  0  0  0  0
 10 11  1  0  0  0  0
 10 32  2  0  0  0  0
 11 12  2  0  0  0  0
 11 40  1  0  0  0  0
 12 13  1  0  0  0  0
 12 41  1  0  0  0  0
 13 14  1  0  0  0  0
 13 31  2  0  0  0  0
 14 15  1  0  0  0  0
 14 42  1  0  0  0  0
 15 16  2  0  0  0  0
 15 17  1  0  0  0  0
 17 18  1  0  0  0  0
 17 29  1  0  0  0  0
 17 30  1  0  0  0  0
 18 19  2  0  0  0  0
 18 20  1  0  0  0  0
 20 21  1  0  0  0  0
 20 43  1  0  0  0  0
 21 22  1  0  0  0  0
 21 28  2  0  0  0  0
 22 23  2  0  0  0  0
 22 44  1  0  0  0  0
 23 24  1  0  0  0  0
 23 45  1  0  0  0  0
 24 25  1  0  0  0  0
 24 26  2  0  0  0  0
 26 27  1  0  0  0  0
 26 28  1  0  0  0  0
 28 46  1  0  0  0  0
 29 30  1  0  0  0  0
 29 47  1  0  0  0  0
 29 48  1  0  0  0  0
 30 49  1  0  0  0  0
 30 50  1  0  0  0  0
 31 32  1  0  0  0  0
 31 51  1  0  0  0  0
 32 52  1  0  0  0  0
M  END
$$$$
