CHEMBL390156
 OpenBabel04072215373D

 63 68  0  0  0  0  0  0  0  0999 V2000
    1.8000    0.0376   -1.2403 C   0  0  0  0  0  0  0  0  0  0  0  0
    0.3565    0.2295   -1.1738 N   0  0  0  0  0  0  0  0  0  0  0  0
   -0.3289   -1.0079   -0.7698 C   0  0  0  0  0  0  0  0  0  0  0  0
   -1.8578   -0.7874   -0.7342 C   0  0  0  0  0  0  0  0  0  0  0  0
   -2.2922    0.2517    0.2268 N   0  0  0  0  0  0  0  0  0  0  0  0
   -2.0735   -0.1110    1.6407 C   0  0  0  0  0  0  0  0  0  0  0  0
   -2.7803   -1.3806    2.0872 C   0  0  0  0  0  0  0  0  0  0  0  0
   -2.1270   -2.6357    1.9515 C   0  0  0  0  0  0  0  0  0  0  0  0
   -2.7560   -3.8403    2.2685 C   0  0  0  0  0  0  0  0  0  0  0  0
   -4.0212   -3.7578    2.7859 C   0  0  0  0  0  0  0  0  0  0  0  0
   -4.6880   -2.5173    2.9944 C   0  0  0  0  0  0  0  0  0  0  0  0
   -4.0789   -1.3272    2.6237 C   0  0  0  0  0  0  0  0  0  0  0  0
   -6.0673   -2.6815    3.6587 C   0  0  0  0  0  0  0  0  0  0  0  0
   -6.0624   -4.1704    3.7401 C   0  0  0  0  0  0  0  0  0  0  0  0
   -6.8461   -5.2431    4.1649 C   0  0  0  0  0  0  0  0  0  0  0  0
   -8.1518   -5.1190    4.8069 C   0  0  0  0  0  0  0  0  0  0  0  0
   -8.5791   -4.0274    5.5351 C   0  0  0  0  0  0  0  0  0  0  0  0
  -10.1714   -4.2223    6.1180 S   0  0  0  0  0  0  0  0  0  0  0  0
  -10.2929   -5.7724    5.4149 C   0  0  0  0  0  0  0  0  0  0  0  0
  -11.4637   -6.5663    5.5309 C   0  0  0  0  0  0  0  0  0  0  0  0
  -12.5561   -7.2651    5.6669 C   0  0  0  0  0  0  0  0  0  0  0  0
  -13.8295   -8.0797    5.8254 C   0  0  0  0  0  0  0  0  0  0  0  0
  -13.5798   -9.4382    5.4776 O   0  0  0  0  0  0  0  0  0  0  0  0
  -14.6558  -10.2814    5.5785 C   0  0  0  0  0  0  0  0  0  0  0  0
  -15.9379   -9.9160    5.9975 C   0  0  0  0  0  0  0  0  0  0  0  0
  -16.9507  -10.8730    6.0881 C   0  0  0  0  0  0  0  0  0  0  0  0
  -16.6936  -12.1976    5.7450 C   0  0  0  0  0  0  0  0  0  0  0  0
  -15.4238  -12.5659    5.3051 C   0  0  0  0  0  0  0  0  0  0  0  0
  -14.4072  -11.6109    5.2280 C   0  0  0  0  0  0  0  0  0  0  0  0
   -9.1476   -6.1383    4.7461 C   0  0  0  0  0  0  0  0  0  0  0  0
   -6.2412   -6.4271    3.9109 N   0  0  0  0  0  0  0  0  0  0  0  0
   -5.0522   -6.0811    3.3501 N   0  0  0  0  0  0  0  0  0  0  0  0
   -4.9293   -4.7434    3.2437 C   0  0  0  0  0  0  0  0  0  0  0  0
   -1.5517    1.4935   -0.1155 C   0  0  0  0  0  0  0  0  0  0  0  0
   -0.0115    1.3277   -0.2595 C   0  0  0  0  0  0  0  0  0  0  0  0
    2.0461   -0.7741   -1.9347 H   0  0  0  0  0  0  0  0  0  0  0  0
    2.2364   -0.2026   -0.2645 H   0  0  0  0  0  0  0  0  0  0  0  0
    2.2863    0.9389   -1.6279 H   0  0  0  0  0  0  0  0  0  0  0  0
    0.0387   -1.3412    0.2080 H   0  0  0  0  0  0  0  0  0  0  0  0
   -0.1103   -1.8120   -1.4813 H   0  0  0  0  0  0  0  0  0  0  0  0
   -2.3802   -1.7336   -0.5640 H   0  0  0  0  0  0  0  0  0  0  0  0
   -2.1840   -0.4794   -1.7382 H   0  0  0  0  0  0  0  0  0  0  0  0
   -2.4487    0.7094    2.2683 H   0  0  0  0  0  0  0  0  0  0  0  0
   -1.0102   -0.2009    1.8911 H   0  0  0  0  0  0  0  0  0  0  0  0
   -1.1090   -2.6752    1.5731 H   0  0  0  0  0  0  0  0  0  0  0  0
   -2.2565   -4.7881    2.1180 H   0  0  0  0  0  0  0  0  0  0  0  0
   -4.5903   -0.3772    2.7531 H   0  0  0  0  0  0  0  0  0  0  0  0
   -6.8684   -2.3024    3.0204 H   0  0  0  0  0  0  0  0  0  0  0  0
   -6.0687   -2.2174    4.6483 H   0  0  0  0  0  0  0  0  0  0  0  0
   -8.0375   -3.1224    5.7673 H   0  0  0  0  0  0  0  0  0  0  0  0
  -14.5824   -7.6481    5.1546 H   0  0  0  0  0  0  0  0  0  0  0  0
  -14.1537   -7.9976    6.8697 H   0  0  0  0  0  0  0  0  0  0  0  0
  -16.1891   -8.8957    6.2658 H   0  0  0  0  0  0  0  0  0  0  0  0
  -17.9402  -10.5798    6.4286 H   0  0  0  0  0  0  0  0  0  0  0  0
  -17.4832  -12.9404    5.8196 H   0  0  0  0  0  0  0  0  0  0  0  0
  -15.2234  -13.5966    5.0249 H   0  0  0  0  0  0  0  0  0  0  0  0
  -13.4157  -11.9066    4.8932 H   0  0  0  0  0  0  0  0  0  0  0  0
   -9.0248   -7.0835    4.2283 H   0  0  0  0  0  0  0  0  0  0  0  0
   -4.4062   -6.8124    3.0756 H   0  0  0  0  0  0  0  0  0  0  0  0
   -1.7725    2.2815    0.6148 H   0  0  0  0  0  0  0  0  0  0  0  0
   -1.9458    1.8636   -1.0722 H   0  0  0  0  0  0  0  0  0  0  0  0
    0.4276    1.1637    0.7330 H   0  0  0  0  0  0  0  0  0  0  0  0
    0.4003    2.2691   -0.6420 H   0  0  0  0  0  0  0  0  0  0  0  0
  1  2  1  0  0  0  0
  1 36  1  0  0  0  0
  1 37  1  0  0  0  0
  1 38  1  0  0  0  0
  2  3  1  0  0  0  0
  2 35  1  0  0  0  0
  3  4  1  0  0  0  0
  3 39  1  0  0  0  0
  3 40  1  0  0  0  0
  4  5  1  0  0  0  0
  4 41  1  0  0  0  0
  4 42  1  0  0  0  0
  5  6  1  0  0  0  0
  5 34  1  0  0  0  0
  6  7  1  0  0  0  0
  6 43  1  0  0  0  0
  6 44  1  0  0  0  0
  7  8  1  0  0  0  0
  7 12  2  0  0  0  0
  8  9  2  0  0  0  0
  8 45  1  0  0  0  0
  9 10  1  0  0  0  0
  9 46  1  0  0  0  0
 10 11  2  0  0  0  0
 10 33  1  0  0  0  0
 11 12  1  0  0  0  0
 11 13  1  0  0  0  0
 12 47  1  0  0  0  0
 13 14  1  0  0  0  0
 13 48  1  0  0  0  0
 13 49  1  0  0  0  0
 14 15  1  0  0  0  0
 14 33  2  0  0  0  0
 15 16  1  0  0  0  0
 15 31  2  0  0  0  0
 16 17  2  0  0  0  0
 16 30  1  0  0  0  0
 17 18  1  0  0  0  0
 17 50  1  0  0  0  0
 18 19  1  0  0  0  0
 19 20  1  0  0  0  0
 19 30  2  0  0  0  0
 20 21  3  0  0  0  0
 21 22  1  0  0  0  0
 22 23  1  0  0  0  0
 22 51  1  0  0  0  0
 22 52  1  0  0  0  0
 23 24  1  0  0  0  0
 24 25  1  0  0  0  0
 24 29  2  0  0  0  0
 25 26  2  0  0  0  0
 25 53  1  0  0  0  0
 26 27  1  0  0  0  0
 26 54  1  0  0  0  0
 27 28  2  0  0  0  0
 27 55  1  0  0  0  0
 28 29  1  0  0  0  0
 28 56  1  0  0  0  0
 29 57  1  0  0  0  0
 30 58  1  0  0  0  0
 31 32  1  0  0  0  0
 32 33  1  0  0  0  0
 32 59  1  0  0  0  0
 34 35  1  0  0  0  0
 34 60  1  0  0  0  0
 34 61  1  0  0  0  0
 35 62  1  0  0  0  0
 35 63  1  0  0  0  0
M  END
$$$$
