CHEMBL2031913
 OpenBabel04072215363D

 71 76  0  0  0  0  0  0  0  0999 V2000
    2.6916   -1.8117    7.9197 C   0  0  0  0  0  0  0  0  0  0  0  0
    3.9093   -1.3503    7.3402 O   0  0  0  0  0  0  0  0  0  0  0  0
    4.6105   -2.2671    6.6048 C   0  0  0  0  0  0  0  0  0  0  0  0
    4.2570   -3.5984    6.4462 C   0  0  0  0  0  0  0  0  0  0  0  0
    5.0511   -4.4345    5.6699 C   0  0  0  0  0  0  0  0  0  0  0  0
    6.1605   -3.9404    4.9516 C   0  0  0  0  0  0  0  0  0  0  0  0
    6.8940   -4.6923    4.0007 C   0  0  0  0  0  0  0  0  0  0  0  0
    6.6000   -5.9923    3.6158 O   0  0  0  0  0  0  0  0  0  0  0  0
    5.3200   -6.3328    3.2159 C   0  0  0  0  0  0  0  0  0  0  0  0
    4.3436   -5.4280    2.8235 C   0  0  0  0  0  0  0  0  0  0  0  0
    3.0281   -5.8580    2.5920 C   0  0  0  0  0  0  0  0  0  0  0  0
    2.6662   -7.2101    2.6385 C   0  0  0  0  0  0  0  0  0  0  0  0
    1.3377   -7.6742    2.3906 N   0  0  0  0  0  0  0  0  0  0  0  0
    0.2508   -6.8701    2.0898 C   0  0  0  0  0  0  0  0  0  0  0  0
    0.2983   -5.6515    1.9417 O   0  0  0  0  0  0  0  0  0  0  0  0
   -1.0596   -7.5296    1.8946 C   0  0  0  0  0  0  0  0  0  0  0  0
   -2.2942   -6.9946    2.0720 C   0  0  0  0  0  0  0  0  0  0  0  0
   -2.6640   -5.7221    2.8355 C   0  0  0  0  0  0  0  0  0  0  0  0
   -2.7040   -4.4937    1.9238 C   0  0  0  0  0  0  0  0  0  0  0  0
   -2.9909   -3.2328    2.7255 C   0  0  0  0  0  0  0  0  0  0  0  0
   -2.0470   -3.0813    3.7810 O   0  0  0  0  0  0  0  0  0  0  0  0
   -2.1568   -4.1182    4.7493 C   0  0  0  0  0  0  0  0  0  0  0  0
   -1.8789   -5.4875    4.1414 C   0  0  0  0  0  0  0  0  0  0  0  0
   -3.2784   -7.7784    1.4460 N   0  0  0  0  0  0  0  0  0  0  0  0
   -4.7072   -7.8172    1.7348 C   0  0  0  0  0  0  0  0  0  0  0  0
   -2.6572   -8.9906    1.0893 N   0  0  0  0  0  0  0  0  0  0  0  0
   -3.2535   -9.9429    0.2423 C   0  0  0  0  0  0  0  0  0  0  0  0
   -3.1427  -11.2970    0.5757 C   0  0  0  0  0  0  0  0  0  0  0  0
   -3.7778  -12.2695   -0.1993 C   0  0  0  0  0  0  0  0  0  0  0  0
   -4.4924  -11.8979   -1.3369 C   0  0  0  0  0  0  0  0  0  0  0  0
   -4.5910  -10.5520   -1.6881 C   0  0  0  0  0  0  0  0  0  0  0  0
   -3.9890   -9.5740   -0.8900 C   0  0  0  0  0  0  0  0  0  0  0  0
   -1.2808   -8.8747    1.3049 C   0  0  0  0  0  0  0  0  0  0  0  0
   -0.3806   -9.6677    1.0752 O   0  0  0  0  0  0  0  0  0  0  0  0
    3.6719   -8.1309    2.9481 C   0  0  0  0  0  0  0  0  0  0  0  0
    4.9782   -7.6901    3.2404 C   0  0  0  0  0  0  0  0  0  0  0  0
    5.8969   -8.6045    3.5844 F   0  0  0  0  0  0  0  0  0  0  0  0
    8.0335   -4.1462    3.4183 C   0  0  0  0  0  0  0  0  0  0  0  0
    8.3699   -2.8464    3.7454 C   0  0  0  0  0  0  0  0  0  0  0  0
    7.6433   -2.0697    4.5778 N   0  0  0  0  0  0  0  0  0  0  0  0
    6.5540   -2.6009    5.1615 C   0  0  0  0  0  0  0  0  0  0  0  0
    5.7740   -1.7962    5.9872 C   0  0  0  0  0  0  0  0  0  0  0  0
    2.2547   -0.9922    8.4966 H   0  0  0  0  0  0  0  0  0  0  0  0
    2.8735   -2.6412    8.6122 H   0  0  0  0  0  0  0  0  0  0  0  0
    1.9717   -2.0987    7.1445 H   0  0  0  0  0  0  0  0  0  0  0  0
    3.3670   -4.0238    6.8955 H   0  0  0  0  0  0  0  0  0  0  0  0
    4.7598   -5.4781    5.5966 H   0  0  0  0  0  0  0  0  0  0  0  0
    4.5482   -4.3640    2.7492 H   0  0  0  0  0  0  0  0  0  0  0  0
    2.3086   -5.0731    2.3848 H   0  0  0  0  0  0  0  0  0  0  0  0
    1.1916   -8.6822    2.3789 H   0  0  0  0  0  0  0  0  0  0  0  0
   -3.6933   -5.8489    3.2005 H   0  0  0  0  0  0  0  0  0  0  0  0
   -3.4737   -4.6171    1.1518 H   0  0  0  0  0  0  0  0  0  0  0  0
   -1.7474   -4.3734    1.4067 H   0  0  0  0  0  0  0  0  0  0  0  0
   -4.0052   -3.2465    3.1425 H   0  0  0  0  0  0  0  0  0  0  0  0
   -2.9158   -2.3542    2.0767 H   0  0  0  0  0  0  0  0  0  0  0  0
   -3.1485   -4.0801    5.2132 H   0  0  0  0  0  0  0  0  0  0  0  0
   -1.4221   -3.9142    5.5362 H   0  0  0  0  0  0  0  0  0  0  0  0
   -2.1305   -6.2660    4.8733 H   0  0  0  0  0  0  0  0  0  0  0  0
   -0.8024   -5.5562    3.9905 H   0  0  0  0  0  0  0  0  0  0  0  0
   -5.0559   -6.9668    2.3231 H   0  0  0  0  0  0  0  0  0  0  0  0
   -4.9801   -8.7281    2.2780 H   0  0  0  0  0  0  0  0  0  0  0  0
   -5.2787   -7.7814    0.8012 H   0  0  0  0  0  0  0  0  0  0  0  0
   -2.5997  -11.5974    1.4684 H   0  0  0  0  0  0  0  0  0  0  0  0
   -3.7144  -13.3161    0.0867 H   0  0  0  0  0  0  0  0  0  0  0  0
   -4.9680  -12.6585   -1.9518 H   0  0  0  0  0  0  0  0  0  0  0  0
   -5.1317  -10.2657   -2.5870 H   0  0  0  0  0  0  0  0  0  0  0  0
   -4.0613   -8.5302   -1.1848 H   0  0  0  0  0  0  0  0  0  0  0  0
    3.4709   -9.1978    2.9948 H   0  0  0  0  0  0  0  0  0  0  0  0
    8.6410   -4.7142    2.7239 H   0  0  0  0  0  0  0  0  0  0  0  0
    9.2535   -2.3712    3.3263 H   0  0  0  0  0  0  0  0  0  0  0  0
    6.0713   -0.7599    6.1369 H   0  0  0  0  0  0  0  0  0  0  0  0
  1  2  1  0  0  0  0
  1 43  1  0  0  0  0
  1 44  1  0  0  0  0
  1 45  1  0  0  0  0
  2  3  1  0  0  0  0
  3  4  1  0  0  0  0
  3 42  2  0  0  0  0
  4  5  2  0  0  0  0
  4 46  1  0  0  0  0
  5  6  1  0  0  0  0
  5 47  1  0  0  0  0
  6  7  1  0  0  0  0
  6 41  2  0  0  0  0
  7  8  1  0  0  0  0
  7 38  2  0  0  0  0
  8  9  1  0  0  0  0
  9 10  1  0  0  0  0
  9 36  2  0  0  0  0
 10 11  2  0  0  0  0
 10 48  1  0  0  0  0
 11 12  1  0  0  0  0
 11 49  1  0  0  0  0
 12 13  1  0  0  0  0
 12 35  2  0  0  0  0
 13 14  1  0  0  0  0
 13 50  1  0  0  0  0
 14 15  2  0  0  0  0
 14 16  1  0  0  0  0
 16 17  2  0  0  0  0
 16 33  1  0  0  0  0
 17 18  1  0  0  0  0
 17 24  1  0  0  0  0
 18 19  1  0  0  0  0
 18 23  1  0  0  0  0
 18 51  1  0  0  0  0
 19 20  1  0  0  0  0
 19 52  1  0  0  0  0
 19 53  1  0  0  0  0
 20 21  1  0  0  0  0
 20 54  1  0  0  0  0
 20 55  1  0  0  0  0
 21 22  1  0  0  0  0
 22 23  1  0  0  0  0
 22 56  1  0  0  0  0
 22 57  1  0  0  0  0
 23 58  1  0  0  0  0
 23 59  1  0  0  0  0
 24 25  1  0  0  0  0
 24 26  1  0  0  0  0
 25 60  1  0  0  0  0
 25 61  1  0  0  0  0
 25 62  1  0  0  0  0
 26 27  1  0  0  0  0
 26 33  1  0  0  0  0
 27 28  1  0  0  0  0
 27 32  2  0  0  0  0
 28 29  2  0  0  0  0
 28 63  1  0  0  0  0
 29 30  1  0  0  0  0
 29 64  1  0  0  0  0
 30 31  2  0  0  0  0
 30 65  1  0  0  0  0
 31 32  1  0  0  0  0
 31 66  1  0  0  0  0
 32 67  1  0  0  0  0
 33 34  2  0  0  0  0
 35 36  1  0  0  0  0
 35 68  1  0  0  0  0
 36 37  1  0  0  0  0
 38 39  1  0  0  0  0
 38 69  1  0  0  0  0
 39 40  2  0  0  0  0
 39 70  1  0  0  0  0
 40 41  1  0  0  0  0
 41 42  1  0  0  0  0
 42 71  1  0  0  0  0
M  END
$$$$
