CHEMBL385958
 OpenBabel04072215373D

 65 70  0  0  0  0  0  0  0  0999 V2000
    3.7407    5.0301   -1.2296 C   0  0  0  0  0  0  0  0  0  0  0  0
    2.4991    4.6151   -0.7178 C   0  0  0  0  0  0  0  0  0  0  0  0
    2.1253    3.2599   -0.6874 C   0  0  0  0  0  0  0  0  0  0  0  0
    0.9244    2.8337   -0.0754 N   0  0  0  0  0  0  0  0  0  0  0  0
   -0.2563    3.6114    0.0267 C   0  0  0  0  0  0  0  0  0  0  0  0
   -0.5163    4.4533   -0.9997 N   0  0  0  0  0  0  0  0  0  0  0  0
   -1.6685    5.1158   -0.9680 C   0  0  0  0  0  0  0  0  0  0  0  0
   -2.6080    5.0080   -0.0293 N   0  0  0  0  0  0  0  0  0  0  0  0
   -2.3509    4.1760    0.9922 C   0  0  0  0  0  0  0  0  0  0  0  0
   -3.3221    4.0847    1.9801 C   0  0  0  0  0  0  0  0  0  0  0  0
   -3.1377    3.3090    3.1226 C   0  0  0  0  0  0  0  0  0  0  0  0
   -4.1382    3.3609    4.0699 O   0  0  0  0  0  0  0  0  0  0  0  0
   -3.7107    3.0035    5.3946 C   0  0  0  0  0  0  0  0  0  0  0  0
   -4.6430    3.5762    6.4768 C   0  0  0  0  0  0  0  0  0  0  0  0
   -4.1218    3.3732    7.8494 N   0  0  0  0  0  0  0  0  0  0  0  0
   -3.9914    1.9648    8.2533 C   0  0  0  0  0  0  0  0  0  0  0  0
   -5.3676    1.5785    8.7514 C   0  0  0  0  0  0  0  0  0  0  0  0
   -5.7962    2.8184    9.5105 C   0  0  0  0  0  0  0  0  0  0  0  0
   -5.0271    3.9661    8.8555 C   0  0  0  0  0  0  0  0  0  0  0  0
   -1.9633    2.5626    3.2520 C   0  0  0  0  0  0  0  0  0  0  0  0
   -0.9527    2.6641    2.2923 C   0  0  0  0  0  0  0  0  0  0  0  0
    0.2691    2.0467    2.4434 O   0  0  0  0  0  0  0  0  0  0  0  0
    0.7480    1.7678    3.7744 C   0  0  0  0  0  0  0  0  0  0  0  0
    2.1839    2.2897    3.8966 C   0  0  0  0  0  0  0  0  0  0  0  0
    2.8706    1.7333    5.1333 C   0  0  0  0  0  0  0  0  0  0  0  0
    2.7983    0.3099    5.1486 O   0  0  0  0  0  0  0  0  0  0  0  0
    1.4547   -0.1498    5.2561 C   0  0  0  0  0  0  0  0  0  0  0  0
    0.6498    0.2626    4.0354 C   0  0  0  0  0  0  0  0  0  0  0  0
   -1.1580    3.4439    1.1091 C   0  0  0  0  0  0  0  0  0  0  0  0
    3.0642    2.3537   -1.1627 C   0  0  0  0  0  0  0  0  0  0  0  0
    4.2869    2.7649   -1.6555 C   0  0  0  0  0  0  0  0  0  0  0  0
    4.6513    4.0929   -1.7066 C   0  0  0  0  0  0  0  0  0  0  0  0
    5.0746    1.7260   -2.0455 O   0  0  0  0  0  0  0  0  0  0  0  0
    4.2560    0.6103   -1.6471 C   0  0  0  0  0  0  0  0  0  0  0  0
    2.9376    0.9943   -1.2078 O   0  0  0  0  0  0  0  0  0  0  0  0
    3.9868    6.0885   -1.2364 H   0  0  0  0  0  0  0  0  0  0  0  0
    1.8248    5.3742   -0.3282 H   0  0  0  0  0  0  0  0  0  0  0  0
    1.1336    2.3934    0.8204 H   0  0  0  0  0  0  0  0  0  0  0  0
   -1.8543    5.8090   -1.7817 H   0  0  0  0  0  0  0  0  0  0  0  0
   -4.2411    4.6567    1.8697 H   0  0  0  0  0  0  0  0  0  0  0  0
   -2.7093    3.4084    5.5849 H   0  0  0  0  0  0  0  0  0  0  0  0
   -3.6936    1.9105    5.4545 H   0  0  0  0  0  0  0  0  0  0  0  0
   -5.6586    3.1816    6.3510 H   0  0  0  0  0  0  0  0  0  0  0  0
   -4.7177    4.6575    6.2943 H   0  0  0  0  0  0  0  0  0  0  0  0
   -3.2750    1.9121    9.0843 H   0  0  0  0  0  0  0  0  0  0  0  0
   -3.6129    1.2916    7.4813 H   0  0  0  0  0  0  0  0  0  0  0  0
   -5.3521    0.6870    9.3852 H   0  0  0  0  0  0  0  0  0  0  0  0
   -6.0475    1.3894    7.9124 H   0  0  0  0  0  0  0  0  0  0  0  0
   -5.5052    2.7277   10.5640 H   0  0  0  0  0  0  0  0  0  0  0  0
   -6.8798    2.9619    9.4687 H   0  0  0  0  0  0  0  0  0  0  0  0
   -4.4223    4.4772    9.6158 H   0  0  0  0  0  0  0  0  0  0  0  0
   -5.7061    4.7168    8.4377 H   0  0  0  0  0  0  0  0  0  0  0  0
   -1.8425    1.9094    4.1029 H   0  0  0  0  0  0  0  0  0  0  0  0
    0.1759    2.3073    4.5379 H   0  0  0  0  0  0  0  0  0  0  0  0
    2.1691    3.3862    3.9461 H   0  0  0  0  0  0  0  0  0  0  0  0
    2.7594    2.0336    2.9988 H   0  0  0  0  0  0  0  0  0  0  0  0
    2.4240    2.1295    6.0537 H   0  0  0  0  0  0  0  0  0  0  0  0
    3.9281    2.0157    5.1377 H   0  0  0  0  0  0  0  0  0  0  0  0
    1.0085    0.2377    6.1794 H   0  0  0  0  0  0  0  0  0  0  0  0
    1.4782   -1.2418    5.3382 H   0  0  0  0  0  0  0  0  0  0  0  0
   -0.3990   -0.0259    4.1721 H   0  0  0  0  0  0  0  0  0  0  0  0
    1.0033   -0.2902    3.1560 H   0  0  0  0  0  0  0  0  0  0  0  0
    5.6204    4.3940   -2.0888 H   0  0  0  0  0  0  0  0  0  0  0  0
    4.7542    0.0963   -0.8162 H   0  0  0  0  0  0  0  0  0  0  0  0
    4.1781   -0.0864   -2.4898 H   0  0  0  0  0  0  0  0  0  0  0  0
  1  2  1  0  0  0  0
  1 32  2  0  0  0  0
  1 36  1  0  0  0  0
  2  3  2  0  0  0  0
  2 37  1  0  0  0  0
  3  4  1  0  0  0  0
  3 30  1  0  0  0  0
  4  5  1  0  0  0  0
  4 38  1  0  0  0  0
  5  6  1  0  0  0  0
  5 29  2  0  0  0  0
  6  7  2  0  0  0  0
  7  8  1  0  0  0  0
  7 39  1  0  0  0  0
  8  9  2  0  0  0  0
  9 10  1  0  0  0  0
  9 29  1  0  0  0  0
 10 11  2  0  0  0  0
 10 40  1  0  0  0  0
 11 12  1  0  0  0  0
 11 20  1  0  0  0  0
 12 13  1  0  0  0  0
 13 14  1  0  0  0  0
 13 41  1  0  0  0  0
 13 42  1  0  0  0  0
 14 15  1  0  0  0  0
 14 43  1  0  0  0  0
 14 44  1  0  0  0  0
 15 16  1  0  0  0  0
 15 19  1  0  0  0  0
 16 17  1  0  0  0  0
 16 45  1  0  0  0  0
 16 46  1  0  0  0  0
 17 18  1  0  0  0  0
 17 47  1  0  0  0  0
 17 48  1  0  0  0  0
 18 19  1  0  0  0  0
 18 49  1  0  0  0  0
 18 50  1  0  0  0  0
 19 51  1  0  0  0  0
 19 52  1  0  0  0  0
 20 21  2  0  0  0  0
 20 53  1  0  0  0  0
 21 22  1  0  0  0  0
 21 29  1  0  0  0  0
 22 23  1  0  0  0  0
 23 24  1  0  0  0  0
 23 28  1  0  0  0  0
 23 54  1  0  0  0  0
 24 25  1  0  0  0  0
 24 55  1  0  0  0  0
 24 56  1  0  0  0  0
 25 26  1  0  0  0  0
 25 57  1  0  0  0  0
 25 58  1  0  0  0  0
 26 27  1  0  0  0  0
 27 28  1  0  0  0  0
 27 59  1  0  0  0  0
 27 60  1  0  0  0  0
 28 61  1  0  0  0  0
 28 62  1  0  0  0  0
 30 31  2  0  0  0  0
 30 35  1  0  0  0  0
 31 32  1  0  0  0  0
 31 33  1  0  0  0  0
 32 63  1  0  0  0  0
 33 34  1  0  0  0  0
 34 35  1  0  0  0  0
 34 64  1  0  0  0  0
 34 65  1  0  0  0  0
M  END
$$$$
