CHEMBL3958721
 OpenBabel04072215373D

 54 58  0  0  1  0  0  0  0  0999 V2000
    4.8755   -0.7872   -1.6834 C   0  0  0  0  0  0  0  0  0  0  0  0
    3.6129   -0.9056   -0.9981 O   0  0  0  0  0  0  0  0  0  0  0  0
    3.7802   -1.2237    0.3260 C   0  0  0  0  0  0  0  0  0  0  0  0
    4.8061   -0.6197    1.0491 C   0  0  0  0  0  0  0  0  0  0  0  0
    5.2793   -1.1808    2.2463 C   0  0  0  0  0  0  0  0  0  0  0  0
    6.3854   -0.6581    2.9439 C   0  0  0  0  0  0  0  0  0  0  0  0
    6.8488    0.6391    2.5735 N   0  0  0  0  0  0  0  0  0  0  0  0
    8.0405    1.3161    2.8970 C   0  0  0  0  0  0  0  0  0  0  0  0
    9.2208    0.6575    3.2367 C   0  0  0  0  0  0  0  0  0  0  0  0
   10.3991    1.3722    3.4855 C   0  0  0  0  0  0  0  0  0  0  0  0
   10.4203    2.7613    3.3560 C   0  0  0  0  0  0  0  0  0  0  0  0
   12.0596    3.6517    3.7031 Br  0  0  0  0  0  0  0  0  0  0  0  0
    9.2595    3.4344    2.9710 C   0  0  0  0  0  0  0  0  0  0  0  0
    9.1975    5.1507    2.7652 Cl  0  0  0  0  0  0  0  0  0  0  0  0
    8.0841    2.7109    2.7309 C   0  0  0  0  0  0  0  0  0  0  0  0
    6.9751   -1.3507    3.9255 N   0  0  0  0  0  0  0  0  0  0  0  0
    6.3980   -2.5128    4.2547 C   0  0  0  0  0  0  0  0  0  0  0  0
    5.2569   -3.0160    3.7555 N   0  0  0  0  0  0  0  0  0  0  0  0
    4.6896   -2.3452    2.7346 C   0  0  0  0  0  0  0  0  0  0  0  0
    3.5015   -2.7723    2.1246 C   0  0  0  0  0  0  0  0  0  0  0  0
    2.9889   -2.1844    0.9490 C   0  0  0  0  0  0  0  0  0  0  0  0
    1.7553   -2.6470    0.5620 O   0  0  0  0  0  0  0  0  0  0  0  0
    0.9704   -1.9328   -0.4111 C   0  0  2  0  0  0  0  0  0  0  0  0
    0.7946   -0.4272   -0.1835 C   0  0  0  0  0  0  0  0  0  0  0  0
   -0.5869   -0.0506   -0.2491 O   0  0  0  0  0  0  0  0  0  0  0  0
   -1.3710   -1.2071   -0.5280 C   0  0  2  0  0  0  0  0  0  0  0  0
   -2.3850   -1.4343    0.6028 C   0  0  1  0  0  0  0  0  0  0  0  0
   -3.7002   -0.7968    0.5052 N   0  0  0  0  0  0  0  0  0  0  0  0
   -4.5034   -1.1599   -0.6278 C   0  0  0  0  0  0  0  0  0  0  0  0
   -3.8992   -2.0310   -1.4579 F   0  0  0  0  0  0  0  0  0  0  0  0
   -5.6678   -1.7004   -0.2218 F   0  0  0  0  0  0  0  0  0  0  0  0
   -4.7818   -0.0434   -1.3306 F   0  0  0  0  0  0  0  0  0  0  0  0
   -2.3246   -2.9441    0.7961 C   0  0  0  0  0  0  0  0  0  0  0  0
   -0.9387   -3.2749    0.5740 O   0  0  0  0  0  0  0  0  0  0  0  0
   -0.4768   -2.4433   -0.5051 C   0  0  2  0  0  0  0  0  0  0  0  0
    4.7034   -0.8597   -2.7594 H   0  0  0  0  0  0  0  0  0  0  0  0
    5.5746   -1.5867   -1.4005 H   0  0  0  0  0  0  0  0  0  0  0  0
    5.3289    0.1921   -1.4894 H   0  0  0  0  0  0  0  0  0  0  0  0
    5.3236    0.2356    0.6303 H   0  0  0  0  0  0  0  0  0  0  0  0
    6.0523    1.2695    2.5711 H   0  0  0  0  0  0  0  0  0  0  0  0
    9.2381   -0.4249    3.3344 H   0  0  0  0  0  0  0  0  0  0  0  0
   11.2932    0.8231    3.7711 H   0  0  0  0  0  0  0  0  0  0  0  0
    7.1974    3.2501    2.4036 H   0  0  0  0  0  0  0  0  0  0  0  0
    6.9138   -3.1147    4.9977 H   0  0  0  0  0  0  0  0  0  0  0  0
    2.9706   -3.6138    2.5675 H   0  0  0  0  0  0  0  0  0  0  0  0
    1.4368   -2.1000   -1.3900 H   0  0  0  0  0  0  0  0  0  0  0  0
    1.2885    0.1269   -0.9903 H   0  0  0  0  0  0  0  0  0  0  0  0
    1.2000   -0.0741    0.7672 H   0  0  0  0  0  0  0  0  0  0  0  0
   -1.8271   -1.0655   -1.5119 H   0  0  0  0  0  0  0  0  0  0  0  0
   -1.9462   -0.9976    1.5115 H   0  0  0  0  0  0  0  0  0  0  0  0
   -3.5701    0.2073    0.4073 H   0  0  0  0  0  0  0  0  0  0  0  0
   -2.9390   -3.4996    0.0797 H   0  0  0  0  0  0  0  0  0  0  0  0
   -2.6118   -3.2459    1.8079 H   0  0  0  0  0  0  0  0  0  0  0  0
   -0.6198   -3.0196   -1.4278 H   0  0  0  0  0  0  0  0  0  0  0  0
  1  2  1  0  0  0  0
  1 36  1  0  0  0  0
  1 37  1  0  0  0  0
  1 38  1  0  0  0  0
  2  3  1  0  0  0  0
  3  4  1  0  0  0  0
  3 21  2  0  0  0  0
  4  5  2  0  0  0  0
  4 39  1  0  0  0  0
  5  6  1  0  0  0  0
  5 19  1  0  0  0  0
  6  7  1  0  0  0  0
  6 16  2  0  0  0  0
  7  8  1  0  0  0  0
  7 40  1  0  0  0  0
  8  9  1  0  0  0  0
  8 15  2  0  0  0  0
  9 10  2  0  0  0  0
  9 41  1  0  0  0  0
 10 11  1  0  0  0  0
 10 42  1  0  0  0  0
 11 12  1  0  0  0  0
 11 13  2  0  0  0  0
 13 14  1  0  0  0  0
 13 15  1  0  0  0  0
 15 43  1  0  0  0  0
 16 17  1  0  0  0  0
 17 18  2  0  0  0  0
 17 44  1  0  0  0  0
 18 19  1  0  0  0  0
 19 20  2  0  0  0  0
 20 21  1  0  0  0  0
 20 45  1  0  0  0  0
 21 22  1  0  0  0  0
 22 23  1  0  0  0  0
 23 24  1  0  0  0  0
 23 35  1  0  0  0  0
 23 46  1  6  0  0  0
 24 25  1  0  0  0  0
 24 47  1  0  0  0  0
 24 48  1  0  0  0  0
 25 26  1  0  0  0  0
 26 27  1  0  0  0  0
 26 35  1  0  0  0  0
 26 49  1  6  0  0  0
 27 28  1  0  0  0  0
 27 33  1  0  0  0  0
 27 50  1  1  0  0  0
 28 29  1  0  0  0  0
 28 51  1  0  0  0  0
 29 30  1  0  0  0  0
 29 31  1  0  0  0  0
 29 32  1  0  0  0  0
 33 34  1  0  0  0  0
 33 52  1  0  0  0  0
 33 53  1  0  0  0  0
 34 35  1  0  0  0  0
 35 54  1  6  0  0  0
M  END
$$$$
