CHEMBL225090
 OpenBabel04072215363D

 66 71  0  0  0  0  0  0  0  0999 V2000
    1.9252    0.0317   -1.0606 C   0  0  0  0  0  0  0  0  0  0  0  0
    0.4777    0.2186   -1.0888 N   0  0  0  0  0  0  0  0  0  0  0  0
   -0.2220   -1.0283   -0.7401 C   0  0  0  0  0  0  0  0  0  0  0  0
   -1.7544   -0.8279   -0.7213 C   0  0  0  0  0  0  0  0  0  0  0  0
   -2.2213    0.2045    0.2299 N   0  0  0  0  0  0  0  0  0  0  0  0
   -2.0319   -0.1569    1.6472 C   0  0  0  0  0  0  0  0  0  0  0  0
   -2.7561   -1.4194    2.0891 C   0  0  0  0  0  0  0  0  0  0  0  0
   -2.1018   -2.6769    1.9988 C   0  0  0  0  0  0  0  0  0  0  0  0
   -2.7359   -3.8704    2.3513 C   0  0  0  0  0  0  0  0  0  0  0  0
   -4.0173   -3.7738    2.8347 C   0  0  0  0  0  0  0  0  0  0  0  0
   -4.6895   -2.5304    2.9838 C   0  0  0  0  0  0  0  0  0  0  0  0
   -4.0686   -1.3523    2.5912 C   0  0  0  0  0  0  0  0  0  0  0  0
   -6.0929   -2.6741    3.6057 C   0  0  0  0  0  0  0  0  0  0  0  0
   -6.1010   -4.1605    3.7241 C   0  0  0  0  0  0  0  0  0  0  0  0
   -6.8906   -5.2250    4.1662 C   0  0  0  0  0  0  0  0  0  0  0  0
   -8.2308   -5.1199    4.7534 C   0  0  0  0  0  0  0  0  0  0  0  0
   -8.7509   -5.9983    5.6809 C   0  0  0  0  0  0  0  0  0  0  0  0
  -10.3387   -5.5711    6.1539 S   0  0  0  0  0  0  0  0  0  0  0  0
  -10.3633   -4.2328    5.0908 C   0  0  0  0  0  0  0  0  0  0  0  0
  -11.4966   -3.3773    4.9366 C   0  0  0  0  0  0  0  0  0  0  0  0
  -12.4585   -2.6662    4.8216 C   0  0  0  0  0  0  0  0  0  0  0  0
  -13.6463   -1.7982    4.7184 C   0  0  0  0  0  0  0  0  0  0  0  0
  -13.8518   -1.0076    6.0099 C   0  0  0  0  0  0  0  0  0  0  0  0
  -14.9982   -0.1566    5.8982 O   0  0  0  0  0  0  0  0  0  0  0  0
  -15.2880    0.6008    7.0069 C   0  0  0  0  0  0  0  0  0  0  0  0
  -14.5619    0.6022    8.2011 C   0  0  0  0  0  0  0  0  0  0  0  0
  -14.9508    1.4159    9.2692 C   0  0  0  0  0  0  0  0  0  0  0  0
  -16.0693    2.2362    9.1528 C   0  0  0  0  0  0  0  0  0  0  0  0
  -16.7995    2.2438    7.9661 C   0  0  0  0  0  0  0  0  0  0  0  0
  -16.4092    1.4288    6.8980 C   0  0  0  0  0  0  0  0  0  0  0  0
   -9.1691   -4.0962    4.4132 C   0  0  0  0  0  0  0  0  0  0  0  0
   -6.2500   -6.4063    4.0181 N   0  0  0  0  0  0  0  0  0  0  0  0
   -5.0612   -6.0759    3.4494 N   0  0  0  0  0  0  0  0  0  0  0  0
   -4.9411   -4.7456    3.2955 C   0  0  0  0  0  0  0  0  0  0  0  0
   -1.4880    1.4553   -0.0923 C   0  0  0  0  0  0  0  0  0  0  0  0
    0.0568    1.3110   -0.1910 C   0  0  0  0  0  0  0  0  0  0  0  0
    2.2216   -0.7793   -1.7358 H   0  0  0  0  0  0  0  0  0  0  0  0
    2.2948   -0.2079   -0.0570 H   0  0  0  0  0  0  0  0  0  0  0  0
    2.4348    0.9353   -1.4114 H   0  0  0  0  0  0  0  0  0  0  0  0
    0.1250   -1.3988    0.2318 H   0  0  0  0  0  0  0  0  0  0  0  0
    0.0139   -1.8032   -1.4789 H   0  0  0  0  0  0  0  0  0  0  0  0
   -2.2603   -1.7833   -0.5510 H   0  0  0  0  0  0  0  0  0  0  0  0
   -2.0755   -0.5295   -1.7295 H   0  0  0  0  0  0  0  0  0  0  0  0
   -2.4145    0.6669    2.2661 H   0  0  0  0  0  0  0  0  0  0  0  0
   -0.9735   -0.2513    1.9175 H   0  0  0  0  0  0  0  0  0  0  0  0
   -1.0800   -2.7265    1.6316 H   0  0  0  0  0  0  0  0  0  0  0  0
   -2.2275   -4.8212    2.2509 H   0  0  0  0  0  0  0  0  0  0  0  0
   -4.5835   -0.4000    2.6776 H   0  0  0  0  0  0  0  0  0  0  0  0
   -6.8623   -2.3041    2.9271 H   0  0  0  0  0  0  0  0  0  0  0  0
   -6.1311   -2.1917    4.5859 H   0  0  0  0  0  0  0  0  0  0  0  0
   -8.2661   -6.8661    6.1085 H   0  0  0  0  0  0  0  0  0  0  0  0
  -14.5388   -2.3999    4.5087 H   0  0  0  0  0  0  0  0  0  0  0  0
  -13.5431   -1.1077    3.8731 H   0  0  0  0  0  0  0  0  0  0  0  0
  -12.9594   -0.3968    6.1972 H   0  0  0  0  0  0  0  0  0  0  0  0
  -13.9969   -1.7140    6.8374 H   0  0  0  0  0  0  0  0  0  0  0  0
  -13.6836   -0.0187    8.3395 H   0  0  0  0  0  0  0  0  0  0  0  0
  -14.3761    1.4062   10.1916 H   0  0  0  0  0  0  0  0  0  0  0  0
  -16.3686    2.8681    9.9852 H   0  0  0  0  0  0  0  0  0  0  0  0
  -17.6718    2.8850    7.8715 H   0  0  0  0  0  0  0  0  0  0  0  0
  -16.9850    1.4435    5.9763 H   0  0  0  0  0  0  0  0  0  0  0  0
   -8.9947   -3.3127    3.6876 H   0  0  0  0  0  0  0  0  0  0  0  0
   -4.4093   -6.8158    3.2103 H   0  0  0  0  0  0  0  0  0  0  0  0
   -1.7375    2.2391    0.6335 H   0  0  0  0  0  0  0  0  0  0  0  0
   -1.8607    1.8233   -1.0582 H   0  0  0  0  0  0  0  0  0  0  0  0
    0.4673    1.1597    0.8155 H   0  0  0  0  0  0  0  0  0  0  0  0
    0.4650    2.2579   -0.5647 H   0  0  0  0  0  0  0  0  0  0  0  0
  1  2  1  0  0  0  0
  1 37  1  0  0  0  0
  1 38  1  0  0  0  0
  1 39  1  0  0  0  0
  2  3  1  0  0  0  0
  2 36  1  0  0  0  0
  3  4  1  0  0  0  0
  3 40  1  0  0  0  0
  3 41  1  0  0  0  0
  4  5  1  0  0  0  0
  4 42  1  0  0  0  0
  4 43  1  0  0  0  0
  5  6  1  0  0  0  0
  5 35  1  0  0  0  0
  6  7  1  0  0  0  0
  6 44  1  0  0  0  0
  6 45  1  0  0  0  0
  7  8  1  0  0  0  0
  7 12  2  0  0  0  0
  8  9  2  0  0  0  0
  8 46  1  0  0  0  0
  9 10  1  0  0  0  0
  9 47  1  0  0  0  0
 10 11  2  0  0  0  0
 10 34  1  0  0  0  0
 11 12  1  0  0  0  0
 11 13  1  0  0  0  0
 12 48  1  0  0  0  0
 13 14  1  0  0  0  0
 13 49  1  0  0  0  0
 13 50  1  0  0  0  0
 14 15  1  0  0  0  0
 14 34  2  0  0  0  0
 15 16  1  0  0  0  0
 15 32  2  0  0  0  0
 16 17  2  0  0  0  0
 16 31  1  0  0  0  0
 17 18  1  0  0  0  0
 17 51  1  0  0  0  0
 18 19  1  0  0  0  0
 19 20  1  0  0  0  0
 19 31  2  0  0  0  0
 20 21  3  0  0  0  0
 21 22  1  0  0  0  0
 22 23  1  0  0  0  0
 22 52  1  0  0  0  0
 22 53  1  0  0  0  0
 23 24  1  0  0  0  0
 23 54  1  0  0  0  0
 23 55  1  0  0  0  0
 24 25  1  0  0  0  0
 25 26  1  0  0  0  0
 25 30  2  0  0  0  0
 26 27  2  0  0  0  0
 26 56  1  0  0  0  0
 27 28  1  0  0  0  0
 27 57  1  0  0  0  0
 28 29  2  0  0  0  0
 28 58  1  0  0  0  0
 29 30  1  0  0  0  0
 29 59  1  0  0  0  0
 30 60  1  0  0  0  0
 31 61  1  0  0  0  0
 32 33  1  0  0  0  0
 33 34  1  0  0  0  0
 33 62  1  0  0  0  0
 35 36  1  0  0  0  0
 35 63  1  0  0  0  0
 35 64  1  0  0  0  0
 36 65  1  0  0  0  0
 36 66  1  0  0  0  0
M  END
$$$$
