CHEMBL1242025
 OpenBabel04072215363D

 42 45  0  0  0  0  0  0  0  0999 V2000
    2.4866    0.1879    0.0206 C   0  0  0  0  0  0  0  0  0  0  0  0
    0.9861    0.1280    0.0895 C   0  0  0  0  0  0  0  0  0  0  0  0
    0.2482    1.3192   -0.0043 C   0  0  0  0  0  0  0  0  0  0  0  0
   -1.1496    1.2969   -0.0383 C   0  0  0  0  0  0  0  0  0  0  0  0
   -1.8337    0.0823    0.0235 C   0  0  0  0  0  0  0  0  0  0  0  0
   -3.2876    0.0112   -0.1289 C   0  0  0  0  0  0  0  0  0  0  0  0
   -4.0503    1.0140    0.3484 N   0  0  0  0  0  0  0  0  0  0  0  0
   -5.3048    0.6317    0.0651 N   0  0  0  0  0  0  0  0  0  0  0  0
   -5.3849   -0.5515   -0.5930 C   0  0  0  0  0  0  0  0  0  0  0  0
   -6.5218   -1.1409   -0.9990 N   0  0  0  0  0  0  0  0  0  0  0  0
   -6.2730   -2.3033   -1.6129 C   0  0  0  0  0  0  0  0  0  0  0  0
   -5.0785   -2.8822   -1.8271 N   0  0  0  0  0  0  0  0  0  0  0  0
   -3.9548   -2.2533   -1.4073 C   0  0  0  0  0  0  0  0  0  0  0  0
   -2.7883   -2.9491   -1.6387 N   0  0  0  0  0  0  0  0  0  0  0  0
   -4.0911   -1.0108   -0.7487 C   0  0  0  0  0  0  0  0  0  0  0  0
   -1.1003   -1.0810    0.2383 C   0  0  0  0  0  0  0  0  0  0  0  0
    0.3002   -1.0868    0.2379 C   0  0  0  0  0  0  0  0  0  0  0  0
    1.0442   -2.2371    0.3724 O   0  0  0  0  0  0  0  0  0  0  0  0
    0.2927   -3.3994    0.7513 C   0  0  0  0  0  0  0  0  0  0  0  0
    1.1372   -4.5487    1.2351 C   0  0  0  0  0  0  0  0  0  0  0  0
    2.5275   -4.5679    1.1116 C   0  0  0  0  0  0  0  0  0  0  0  0
    3.2583   -5.6393    1.6244 C   0  0  0  0  0  0  0  0  0  0  0  0
    2.6025   -6.7019    2.2470 C   0  0  0  0  0  0  0  0  0  0  0  0
    1.2133   -6.7060    2.3538 C   0  0  0  0  0  0  0  0  0  0  0  0
    0.4836   -5.6363    1.8429 C   0  0  0  0  0  0  0  0  0  0  0  0
    2.8404    1.2252   -0.0055 H   0  0  0  0  0  0  0  0  0  0  0  0
    2.8448   -0.3027   -0.8904 H   0  0  0  0  0  0  0  0  0  0  0  0
    2.9350   -0.2891    0.8966 H   0  0  0  0  0  0  0  0  0  0  0  0
    0.7575    2.2792   -0.0629 H   0  0  0  0  0  0  0  0  0  0  0  0
   -1.6974    2.2331   -0.1214 H   0  0  0  0  0  0  0  0  0  0  0  0
   -6.0778    1.2256    0.3460 H   0  0  0  0  0  0  0  0  0  0  0  0
   -7.1357   -2.8502   -1.9844 H   0  0  0  0  0  0  0  0  0  0  0  0
   -2.9106   -3.8086   -2.1620 H   0  0  0  0  0  0  0  0  0  0  0  0
   -1.8883   -2.4972   -1.6575 H   0  0  0  0  0  0  0  0  0  0  0  0
   -1.6617   -1.9917    0.4080 H   0  0  0  0  0  0  0  0  0  0  0  0
   -0.2978   -3.7472   -0.1070 H   0  0  0  0  0  0  0  0  0  0  0  0
   -0.3600   -3.1459    1.5958 H   0  0  0  0  0  0  0  0  0  0  0  0
    3.0532   -3.7487    0.6319 H   0  0  0  0  0  0  0  0  0  0  0  0
    4.3424   -5.6494    1.5428 H   0  0  0  0  0  0  0  0  0  0  0  0
    3.1725   -7.5352    2.6555 H   0  0  0  0  0  0  0  0  0  0  0  0
    0.6994   -7.5341    2.8333 H   0  0  0  0  0  0  0  0  0  0  0  0
   -0.6007   -5.6430    1.9347 H   0  0  0  0  0  0  0  0  0  0  0  0
  1  2  1  0  0  0  0
  1 26  1  0  0  0  0
  1 27  1  0  0  0  0
  1 28  1  0  0  0  0
  2  3  1  0  0  0  0
  2 17  2  0  0  0  0
  3  4  2  0  0  0  0
  3 29  1  0  0  0  0
  4  5  1  0  0  0  0
  4 30  1  0  0  0  0
  5  6  1  0  0  0  0
  5 16  2  0  0  0  0
  6  7  2  0  0  0  0
  6 15  1  0  0  0  0
  7  8  1  0  0  0  0
  8  9  1  0  0  0  0
  8 31  1  0  0  0  0
  9 10  1  0  0  0  0
  9 15  2  0  0  0  0
 10 11  2  0  0  0  0
 11 12  1  0  0  0  0
 11 32  1  0  0  0  0
 12 13  2  0  0  0  0
 13 14  1  0  0  0  0
 13 15  1  0  0  0  0
 14 33  1  0  0  0  0
 14 34  1  0  0  0  0
 16 17  1  0  0  0  0
 16 35  1  0  0  0  0
 17 18  1  0  0  0  0
 18 19  1  0  0  0  0
 19 20  1  0  0  0  0
 19 36  1  0  0  0  0
 19 37  1  0  0  0  0
 20 21  1  0  0  0  0
 20 25  2  0  0  0  0
 21 22  2  0  0  0  0
 21 38  1  0  0  0  0
 22 23  1  0  0  0  0
 22 39  1  0  0  0  0
 23 24  2  0  0  0  0
 23 40  1  0  0  0  0
 24 25  1  0  0  0  0
 24 41  1  0  0  0  0
 25 42  1  0  0  0  0
M  END
$$$$
