CHEMBL2206663
 OpenBabel04072215363D

 44 47  0  0  0  0  0  0  0  0999 V2000
    1.1434    0.2180    0.5519 O   0  0  0  0  0  0  0  0  0  0  0  0
    2.2511    0.0280    0.0578 C   0  0  0  0  0  0  0  0  0  0  0  0
    2.8292    0.8539   -0.9014 N   0  0  0  0  0  0  0  0  0  0  0  0
    2.2036    1.9909   -1.4785 C   0  0  0  0  0  0  0  0  0  0  0  0
    1.0849    2.6097   -0.9055 C   0  0  0  0  0  0  0  0  0  0  0  0
    0.4103    3.6358   -1.5656 C   0  0  0  0  0  0  0  0  0  0  0  0
    0.8577    4.0752   -2.8033 C   0  0  0  0  0  0  0  0  0  0  0  0
    2.0177    3.5253   -3.3474 C   0  0  0  0  0  0  0  0  0  0  0  0
    2.4589    3.8934   -4.6414 O   0  0  0  0  0  0  0  0  0  0  0  0
    2.3761    5.2203   -5.0531 C   0  0  0  0  0  0  0  0  0  0  0  0
    2.4074    5.2609   -6.5346 C   0  0  0  0  0  0  0  0  0  0  0  0
    2.3245    6.4725   -7.1021 C   0  0  0  0  0  0  0  0  0  0  0  0
    2.2207    7.6172   -6.2767 C   0  0  0  0  0  0  0  0  0  0  0  0
    2.1333    8.8987   -6.5697 N   0  0  0  0  0  0  0  0  0  0  0  0
    2.0362    9.5371   -5.3566 C   0  0  0  0  0  0  0  0  0  0  0  0
    2.0604    8.6350   -4.3197 C   0  0  0  0  0  0  0  0  0  0  0  0
    2.1981    7.4084   -4.9066 N   0  0  0  0  0  0  0  0  0  0  0  0
    2.2811    6.2248   -4.2444 N   0  0  0  0  0  0  0  0  0  0  0  0
    2.6959    2.4856   -2.6952 C   0  0  0  0  0  0  0  0  0  0  0  0
    3.0546   -1.0617    0.3546 N   0  0  0  0  0  0  0  0  0  0  0  0
    2.7086   -2.1575    1.1847 C   0  0  0  0  0  0  0  0  0  0  0  0
    1.4715   -2.2923    1.8222 C   0  0  0  0  0  0  0  0  0  0  0  0
    1.1877   -3.4001    2.6233 C   0  0  0  0  0  0  0  0  0  0  0  0
    2.1353   -4.4033    2.7853 C   0  0  0  0  0  0  0  0  0  0  0  0
    3.3766   -4.3081    2.1432 C   0  0  0  0  0  0  0  0  0  0  0  0
    4.3949   -5.4124    2.2726 C   0  0  0  0  0  0  0  0  0  0  0  0
    3.9858   -6.4453    3.0611 F   0  0  0  0  0  0  0  0  0  0  0  0
    4.7113   -5.9663    1.0688 F   0  0  0  0  0  0  0  0  0  0  0  0
    5.5706   -4.9789    2.8039 F   0  0  0  0  0  0  0  0  0  0  0  0
    3.6578   -3.1740    1.3538 C   0  0  0  0  0  0  0  0  0  0  0  0
    3.6357    0.4944   -1.3867 H   0  0  0  0  0  0  0  0  0  0  0  0
    0.6941    2.3060    0.0607 H   0  0  0  0  0  0  0  0  0  0  0  0
   -0.4789    4.0719   -1.1173 H   0  0  0  0  0  0  0  0  0  0  0  0
    0.2935    4.8412   -3.3246 H   0  0  0  0  0  0  0  0  0  0  0  0
    2.4664    4.3425   -7.1013 H   0  0  0  0  0  0  0  0  0  0  0  0
    2.3213    6.6064   -8.1777 H   0  0  0  0  0  0  0  0  0  0  0  0
    1.9496   10.6145   -5.2936 H   0  0  0  0  0  0  0  0  0  0  0  0
    1.9982    8.7446   -3.2477 H   0  0  0  0  0  0  0  0  0  0  0  0
    3.5700    2.0463   -3.1651 H   0  0  0  0  0  0  0  0  0  0  0  0
    3.9882   -1.0585   -0.0240 H   0  0  0  0  0  0  0  0  0  0  0  0
    0.6847   -1.5519    1.7206 H   0  0  0  0  0  0  0  0  0  0  0  0
    0.2187   -3.4753    3.1109 H   0  0  0  0  0  0  0  0  0  0  0  0
    1.8955   -5.2644    3.4073 H   0  0  0  0  0  0  0  0  0  0  0  0
    4.6273   -3.1071    0.8630 H   0  0  0  0  0  0  0  0  0  0  0  0
  1  2  2  0  0  0  0
  2  3  1  0  0  0  0
  2 20  1  0  0  0  0
  3  4  1  0  0  0  0
  3 31  1  0  0  0  0
  4  5  1  0  0  0  0
  4 19  2  0  0  0  0
  5  6  2  0  0  0  0
  5 32  1  0  0  0  0
  6  7  1  0  0  0  0
  6 33  1  0  0  0  0
  7  8  2  0  0  0  0
  7 34  1  0  0  0  0
  8  9  1  0  0  0  0
  8 19  1  0  0  0  0
  9 10  1  0  0  0  0
 10 11  1  0  0  0  0
 10 18  2  0  0  0  0
 11 12  2  0  0  0  0
 11 35  1  0  0  0  0
 12 13  1  0  0  0  0
 12 36  1  0  0  0  0
 13 14  2  0  0  0  0
 13 17  1  0  0  0  0
 14 15  1  0  0  0  0
 15 16  2  0  0  0  0
 15 37  1  0  0  0  0
 16 17  1  0  0  0  0
 16 38  1  0  0  0  0
 17 18  1  0  0  0  0
 19 39  1  0  0  0  0
 20 21  1  0  0  0  0
 20 40  1  0  0  0  0
 21 22  1  0  0  0  0
 21 30  2  0  0  0  0
 22 23  2  0  0  0  0
 22 41  1  0  0  0  0
 23 24  1  0  0  0  0
 23 42  1  0  0  0  0
 24 25  2  0  0  0  0
 24 43  1  0  0  0  0
 25 26  1  0  0  0  0
 25 30  1  0  0  0  0
 26 27  1  0  0  0  0
 26 28  1  0  0  0  0
 26 29  1  0  0  0  0
 30 44  1  0  0  0  0
M  END
$$$$
