CHEMBL3979836
 OpenBabel04072215373D

 49 52  0  0  0  0  0  0  0  0999 V2000
   -1.7427   -3.2694   -1.8531 C   0  0  0  0  0  0  0  0  0  0  0  0
   -0.9948   -1.9784   -2.0586 C   0  0  0  0  0  0  0  0  0  0  0  0
   -1.6912   -0.9190   -2.6851 C   0  0  0  0  0  0  0  0  0  0  0  0
   -1.0868    0.3139   -2.9257 C   0  0  0  0  0  0  0  0  0  0  0  0
    0.2119    0.5267   -2.4997 C   0  0  0  0  0  0  0  0  0  0  0  0
    0.9021   -0.4982   -1.8573 C   0  0  0  0  0  0  0  0  0  0  0  0
    0.3414   -1.7720   -1.6525 C   0  0  0  0  0  0  0  0  0  0  0  0
    1.1152   -2.8104   -1.0625 N   0  0  0  0  0  0  0  0  0  0  0  0
    2.4914   -2.7809   -1.0069 C   0  0  0  0  0  0  0  0  0  0  0  0
    3.2039   -1.9165   -1.5096 O   0  0  0  0  0  0  0  0  0  0  0  0
    3.0788   -3.8476   -0.3330 N   0  0  0  0  0  0  0  0  0  0  0  0
    4.4803   -3.8185   -0.1061 C   0  0  0  0  0  0  0  0  0  0  0  0
    5.0966   -2.6942    0.4648 C   0  0  0  0  0  0  0  0  0  0  0  0
    6.4701   -2.6835    0.7502 C   0  0  0  0  0  0  0  0  0  0  0  0
    7.2470   -3.8145    0.4871 C   0  0  0  0  0  0  0  0  0  0  0  0
    8.5189   -4.0875    1.2807 C   0  0  0  0  0  0  0  0  0  0  0  0
    8.9198   -5.4154    1.5265 C   0  0  0  0  0  0  0  0  0  0  0  0
    8.0960   -5.7481    2.6603 C   0  0  0  0  0  0  0  0  0  0  0  0
    7.4473   -6.9116    3.0999 C   0  0  0  0  0  0  0  0  0  0  0  0
    6.6030   -6.8235    4.2137 C   0  0  0  0  0  0  0  0  0  0  0  0
    6.4657   -5.6293    4.9255 C   0  0  0  0  0  0  0  0  0  0  0  0
    7.1304   -4.4684    4.5295 C   0  0  0  0  0  0  0  0  0  0  0  0
    7.8784   -4.5528    3.3534 C   0  0  0  0  0  0  0  0  0  0  0  0
    8.5926   -3.6140    2.6196 N   0  0  0  0  0  0  0  0  0  0  0  0
    9.2129   -2.4642    3.1278 C   0  0  0  0  0  0  0  0  0  0  0  0
   10.4176   -2.2151    2.5349 N   0  0  0  0  0  0  0  0  0  0  0  0
    8.7836   -1.8807    4.1123 O   0  0  0  0  0  0  0  0  0  0  0  0
    6.6417   -4.8778   -0.2226 C   0  0  0  0  0  0  0  0  0  0  0  0
    5.2635   -4.9049   -0.4703 C   0  0  0  0  0  0  0  0  0  0  0  0
   -2.6396   -3.2995   -2.4858 H   0  0  0  0  0  0  0  0  0  0  0  0
   -2.0674   -3.3537   -0.8123 H   0  0  0  0  0  0  0  0  0  0  0  0
   -1.1338   -4.1309   -2.1306 H   0  0  0  0  0  0  0  0  0  0  0  0
   -2.7209   -1.0558   -3.0110 H   0  0  0  0  0  0  0  0  0  0  0  0
   -1.6275    1.1092   -3.4320 H   0  0  0  0  0  0  0  0  0  0  0  0
    0.7065    1.4809   -2.6657 H   0  0  0  0  0  0  0  0  0  0  0  0
    1.8954   -0.2455   -1.5011 H   0  0  0  0  0  0  0  0  0  0  0  0
    0.6475   -3.6583   -0.7890 H   0  0  0  0  0  0  0  0  0  0  0  0
    2.6672   -4.7513   -0.5287 H   0  0  0  0  0  0  0  0  0  0  0  0
    4.4993   -1.8313    0.7515 H   0  0  0  0  0  0  0  0  0  0  0  0
    6.8834   -1.8227    1.2698 H   0  0  0  0  0  0  0  0  0  0  0  0
    9.1604   -6.1330    0.7506 H   0  0  0  0  0  0  0  0  0  0  0  0
    7.5271   -7.8353    2.5372 H   0  0  0  0  0  0  0  0  0  0  0  0
    6.0330   -7.6964    4.5198 H   0  0  0  0  0  0  0  0  0  0  0  0
    5.8138   -5.5913    5.7949 H   0  0  0  0  0  0  0  0  0  0  0  0
    7.0129   -3.5319    5.0649 H   0  0  0  0  0  0  0  0  0  0  0  0
   10.8824   -2.9514    2.0179 H   0  0  0  0  0  0  0  0  0  0  0  0
   11.0236   -1.6070    3.0742 H   0  0  0  0  0  0  0  0  0  0  0  0
    7.2157   -5.7603   -0.4923 H   0  0  0  0  0  0  0  0  0  0  0  0
    4.8276   -5.7771   -0.9472 H   0  0  0  0  0  0  0  0  0  0  0  0
  1  2  1  0  0  0  0
  1 30  1  0  0  0  0
  1 31  1  0  0  0  0
  1 32  1  0  0  0  0
  2  3  1  0  0  0  0
  2  7  2  0  0  0  0
  3  4  2  0  0  0  0
  3 33  1  0  0  0  0
  4  5  1  0  0  0  0
  4 34  1  0  0  0  0
  5  6  2  0  0  0  0
  5 35  1  0  0  0  0
  6  7  1  0  0  0  0
  6 36  1  0  0  0  0
  7  8  1  0  0  0  0
  8  9  1  0  0  0  0
  8 37  1  0  0  0  0
  9 10  2  0  0  0  0
  9 11  1  0  0  0  0
 11 12  1  0  0  0  0
 11 38  1  0  0  0  0
 12 13  1  0  0  0  0
 12 29  2  0  0  0  0
 13 14  2  0  0  0  0
 13 39  1  0  0  0  0
 14 15  1  0  0  0  0
 14 40  1  0  0  0  0
 15 16  1  0  0  0  0
 15 28  2  0  0  0  0
 16 17  2  0  0  0  0
 16 24  1  0  0  0  0
 17 18  1  0  0  0  0
 17 41  1  0  0  0  0
 18 19  1  0  0  0  0
 18 23  2  0  0  0  0
 19 20  2  0  0  0  0
 19 42  1  0  0  0  0
 20 21  1  0  0  0  0
 20 43  1  0  0  0  0
 21 22  2  0  0  0  0
 21 44  1  0  0  0  0
 22 23  1  0  0  0  0
 22 45  1  0  0  0  0
 23 24  1  0  0  0  0
 24 25  1  0  0  0  0
 25 26  1  0  0  0  0
 25 27  2  0  0  0  0
 26 46  1  0  0  0  0
 26 47  1  0  0  0  0
 28 29  1  0  0  0  0
 28 48  1  0  0  0  0
 29 49  1  0  0  0  0
M  END
$$$$
