CHEMBL224842
 OpenBabel04072215363D

 44 46  0  0  0  0  0  0  0  0999 V2000
    1.0777    0.4937    1.2656 C   0  0  0  0  0  0  0  0  0  0  0  0
    2.4004    0.0689    0.1604 S   0  0  0  0  0  0  0  0  0  0  0  0
    3.0537   -1.0901    0.7460 O   0  0  0  0  0  0  0  0  0  0  0  0
    1.8170   -0.0190   -1.1627 O   0  0  0  0  0  0  0  0  0  0  0  0
    3.5931    1.4299    0.2093 C   0  0  0  0  0  0  0  0  0  0  0  0
    3.0829    2.7691   -0.3166 C   0  0  0  0  0  0  0  0  0  0  0  0
    2.9994    2.8646   -1.8480 C   0  0  0  0  0  0  0  0  0  0  0  0
    4.1813    2.3595   -2.5638 N   0  0  0  0  0  0  0  0  0  0  0  0
    3.9021    2.2276   -4.0179 C   0  0  0  0  0  0  0  0  0  0  0  0
    3.6663    3.5274   -4.7525 C   0  0  0  0  0  0  0  0  0  0  0  0
    2.4727    3.7812   -5.4236 C   0  0  0  0  0  0  0  0  0  0  0  0
    2.3554    4.9687   -6.1267 C   0  0  0  0  0  0  0  0  0  0  0  0
    3.3189    5.9155   -6.1824 N   0  0  0  0  0  0  0  0  0  0  0  0
    4.4671    5.6827   -5.5119 C   0  0  0  0  0  0  0  0  0  0  0  0
    5.3918    6.7289   -5.5481 N   0  0  0  0  0  0  0  0  0  0  0  0
    6.2941    7.0010   -4.5806 C   0  0  0  0  0  0  0  0  0  0  0  0
    6.8515    6.1277   -3.7695 N   0  0  0  0  0  0  0  0  0  0  0  0
    7.6308    6.7553   -2.8253 C   0  0  0  0  0  0  0  0  0  0  0  0
    7.6846    8.1212   -2.9360 C   0  0  0  0  0  0  0  0  0  0  0  0
    8.3944    8.9915   -2.0669 C   0  0  0  0  0  0  0  0  0  0  0  0
    8.9651    9.6853   -1.3317 N   0  0  0  0  0  0  0  0  0  0  0  0
    6.7790    8.6342   -4.2926 S   0  0  0  0  0  0  0  0  0  0  0  0
    4.6758    4.4899   -4.8227 C   0  0  0  0  0  0  0  0  0  0  0  0
    4.6227    1.0455   -2.0686 C   0  0  0  0  0  0  0  0  0  0  0  0
    4.8588    1.0438   -0.5596 C   0  0  0  0  0  0  0  0  0  0  0  0
    0.3619   -0.3347    1.2367 H   0  0  0  0  0  0  0  0  0  0  0  0
    0.5874    1.4022    0.9177 H   0  0  0  0  0  0  0  0  0  0  0  0
    1.4626    0.6044    2.2796 H   0  0  0  0  0  0  0  0  0  0  0  0
    3.8454    1.5351    1.2724 H   0  0  0  0  0  0  0  0  0  0  0  0
    3.7793    3.5473    0.0289 H   0  0  0  0  0  0  0  0  0  0  0  0
    2.1098    3.0202    0.1177 H   0  0  0  0  0  0  0  0  0  0  0  0
    2.8838    3.9301   -2.0890 H   0  0  0  0  0  0  0  0  0  0  0  0
    2.0858    2.3660   -2.1871 H   0  0  0  0  0  0  0  0  0  0  0  0
    3.0512    1.5522   -4.1788 H   0  0  0  0  0  0  0  0  0  0  0  0
    4.7620    1.7535   -4.5121 H   0  0  0  0  0  0  0  0  0  0  0  0
    1.6551    3.0691   -5.4176 H   0  0  0  0  0  0  0  0  0  0  0  0
    1.4511    5.1994   -6.6834 H   0  0  0  0  0  0  0  0  0  0  0  0
    4.9744    7.5021   -6.0546 H   0  0  0  0  0  0  0  0  0  0  0  0
    8.1065    6.1555   -2.0592 H   0  0  0  0  0  0  0  0  0  0  0  0
    5.6191    4.2834   -4.3293 H   0  0  0  0  0  0  0  0  0  0  0  0
    5.5683    0.7741   -2.5539 H   0  0  0  0  0  0  0  0  0  0  0  0
    3.9076    0.2637   -2.3445 H   0  0  0  0  0  0  0  0  0  0  0  0
    5.6601    1.7550   -0.3197 H   0  0  0  0  0  0  0  0  0  0  0  0
    5.2182    0.0563   -0.2486 H   0  0  0  0  0  0  0  0  0  0  0  0
  1  2  1  0  0  0  0
  1 26  1  0  0  0  0
  1 27  1  0  0  0  0
  1 28  1  0  0  0  0
  2  3  2  0  0  0  0
  2  4  2  0  0  0  0
  2  5  1  0  0  0  0
  5  6  1  0  0  0  0
  5 25  1  0  0  0  0
  5 29  1  0  0  0  0
  6  7  1  0  0  0  0
  6 30  1  0  0  0  0
  6 31  1  0  0  0  0
  7  8  1  0  0  0  0
  7 32  1  0  0  0  0
  7 33  1  0  0  0  0
  8  9  1  0  0  0  0
  8 24  1  0  0  0  0
  9 10  1  0  0  0  0
  9 34  1  0  0  0  0
  9 35  1  0  0  0  0
 10 11  1  0  0  0  0
 10 23  2  0  0  0  0
 11 12  2  0  0  0  0
 11 36  1  0  0  0  0
 12 13  1  0  0  0  0
 12 37  1  0  0  0  0
 13 14  2  0  0  0  0
 14 15  1  0  0  0  0
 14 23  1  0  0  0  0
 15 16  1  0  0  0  0
 15 38  1  0  0  0  0
 16 17  2  0  0  0  0
 16 22  1  0  0  0  0
 17 18  1  0  0  0  0
 18 19  2  0  0  0  0
 18 39  1  0  0  0  0
 19 20  1  0  0  0  0
 19 22  1  0  0  0  0
 20 21  3  0  0  0  0
 23 40  1  0  0  0  0
 24 25  1  0  0  0  0
 24 41  1  0  0  0  0
 24 42  1  0  0  0  0
 25 43  1  0  0  0  0
 25 44  1  0  0  0  0
M  END
$$$$
