CHEMBL1973540
 OpenBabel04072215363D

 46 50  0  0  0  0  0  0  0  0999 V2000
    1.0430    0.1370    0.2834 O   0  0  0  0  0  0  0  0  0  0  0  0
    2.2598    0.1170    0.2823 C   0  0  0  0  0  0  0  0  0  0  0  0
    3.1283    1.1893    0.0658 N   0  0  0  0  0  0  0  0  0  0  0  0
    4.4654    0.8212    0.0759 C   0  0  0  0  0  0  0  0  0  0  0  0
    5.5602    1.6597   -0.0951 C   0  0  0  0  0  0  0  0  0  0  0  0
    6.8320    1.0404   -0.0785 C   0  0  0  0  0  0  0  0  0  0  0  0
    6.9617   -0.3609    0.0728 C   0  0  0  0  0  0  0  0  0  0  0  0
    8.1023   -1.1465    0.0594 N   0  0  0  0  0  0  0  0  0  0  0  0
    7.7575   -2.4157    0.1905 C   0  0  0  0  0  0  0  0  0  0  0  0
    6.0723   -2.7363    0.3642 S   0  0  0  0  0  0  0  0  0  0  0  0
    5.8105   -1.0903    0.2602 C   0  0  0  0  0  0  0  0  0  0  0  0
    4.5536   -0.5759    0.2960 C   0  0  0  0  0  0  0  0  0  0  0  0
    3.1545   -1.0706    0.5122 C   0  0  0  0  0  0  0  0  0  0  0  0
    2.7556   -2.2768    0.9161 C   0  0  0  0  0  0  0  0  0  0  0  0
    1.5108   -2.7996    1.1587 N   0  0  0  0  0  0  0  0  0  0  0  0
    1.2802   -4.0908    1.6654 C   0  0  0  0  0  0  0  0  0  0  0  0
    2.1939   -4.7143    2.5357 C   0  0  0  0  0  0  0  0  0  0  0  0
    2.0417   -6.0454    2.9244 C   0  0  0  0  0  0  0  0  0  0  0  0
    0.9579   -6.7732    2.4390 C   0  0  0  0  0  0  0  0  0  0  0  0
    0.7663   -8.4777    2.9191 S   0  0  0  0  0  0  0  0  0  0  0  0
   -0.0111   -9.1493    1.8989 O   0  0  0  0  0  0  0  0  0  0  0  0
    2.0794   -8.9642    3.2899 O   0  0  0  0  0  0  0  0  0  0  0  0
   -0.1323   -8.3888    4.3493 N   0  0  0  0  0  0  0  0  0  0  0  0
   -1.4178   -7.8323    4.2008 C   0  0  0  0  0  0  0  0  0  0  0  0
   -2.4976   -8.5836    3.7746 C   0  0  0  0  0  0  0  0  0  0  0  0
   -3.7078   -7.9255    3.5830 C   0  0  0  0  0  0  0  0  0  0  0  0
   -3.7744   -6.5503    3.7876 C   0  0  0  0  0  0  0  0  0  0  0  0
   -2.6261   -5.8908    4.1985 C   0  0  0  0  0  0  0  0  0  0  0  0
   -1.4469   -6.5087    4.4277 N   0  0  0  0  0  0  0  0  0  0  0  0
    0.0446   -6.1826    1.5589 C   0  0  0  0  0  0  0  0  0  0  0  0
    0.2011   -4.8418    1.1885 C   0  0  0  0  0  0  0  0  0  0  0  0
    2.7856    2.1231   -0.1079 H   0  0  0  0  0  0  0  0  0  0  0  0
    5.4522    2.7290   -0.2305 H   0  0  0  0  0  0  0  0  0  0  0  0
    7.7313    1.6350   -0.2068 H   0  0  0  0  0  0  0  0  0  0  0  0
    8.4804   -3.2216    0.1836 H   0  0  0  0  0  0  0  0  0  0  0  0
    3.5215   -3.0171    1.1015 H   0  0  0  0  0  0  0  0  0  0  0  0
    0.7123   -2.2547    0.8373 H   0  0  0  0  0  0  0  0  0  0  0  0
    3.0396   -4.1588    2.9349 H   0  0  0  0  0  0  0  0  0  0  0  0
    2.7733   -6.4976    3.5896 H   0  0  0  0  0  0  0  0  0  0  0  0
    0.3921   -7.8603    5.0433 H   0  0  0  0  0  0  0  0  0  0  0  0
   -2.4021   -9.6490    3.5980 H   0  0  0  0  0  0  0  0  0  0  0  0
   -4.5877   -8.4785    3.2660 H   0  0  0  0  0  0  0  0  0  0  0  0
   -4.6980   -6.0048    3.6269 H   0  0  0  0  0  0  0  0  0  0  0  0
   -2.6220   -4.8143    4.3483 H   0  0  0  0  0  0  0  0  0  0  0  0
   -0.7915   -6.7541    1.1635 H   0  0  0  0  0  0  0  0  0  0  0  0
   -0.5090   -4.3980    0.4954 H   0  0  0  0  0  0  0  0  0  0  0  0
  1  2  2  0  0  0  0
  2  3  1  0  0  0  0
  2 13  1  0  0  0  0
  3  4  1  0  0  0  0
  3 32  1  0  0  0  0
  4  5  1  0  0  0  0
  4 12  2  0  0  0  0
  5  6  2  0  0  0  0
  5 33  1  0  0  0  0
  6  7  1  0  0  0  0
  6 34  1  0  0  0  0
  7  8  1  0  0  0  0
  7 11  2  0  0  0  0
  8  9  2  0  0  0  0
  9 10  1  0  0  0  0
  9 35  1  0  0  0  0
 10 11  1  0  0  0  0
 11 12  1  0  0  0  0
 12 13  1  0  0  0  0
 13 14  2  3  0  0  0
 14 15  1  0  0  0  0
 14 36  1  0  0  0  0
 15 16  1  0  0  0  0
 15 37  1  0  0  0  0
 16 17  1  0  0  0  0
 16 31  2  0  0  0  0
 17 18  2  0  0  0  0
 17 38  1  0  0  0  0
 18 19  1  0  0  0  0
 18 39  1  0  0  0  0
 19 20  1  0  0  0  0
 19 30  2  0  0  0  0
 20 21  2  0  0  0  0
 20 22  2  0  0  0  0
 20 23  1  0  0  0  0
 23 24  1  0  0  0  0
 23 40  1  0  0  0  0
 24 25  1  0  0  0  0
 24 29  2  0  0  0  0
 25 26  2  0  0  0  0
 25 41  1  0  0  0  0
 26 27  1  0  0  0  0
 26 42  1  0  0  0  0
 27 28  2  0  0  0  0
 27 43  1  0  0  0  0
 28 29  1  0  0  0  0
 28 44  1  0  0  0  0
 30 31  1  0  0  0  0
 30 45  1  0  0  0  0
 31 46  1  0  0  0  0
M  END
$$$$
