CHEMBL3959805
 OpenBabel04072215373D

 52 55  0  0  0  0  0  0  0  0999 V2000
    1.1595   -0.4845    0.1523 O   0  0  0  0  0  0  0  0  0  0  0  0
    2.2783   -0.0504   -0.0906 C   0  0  0  0  0  0  0  0  0  0  0  0
    2.8823    0.9829    0.6127 N   0  0  0  0  0  0  0  0  0  0  0  0
    2.2969    1.6991    1.6849 C   0  0  0  0  0  0  0  0  0  0  0  0
    1.1449    1.2766    2.3512 C   0  0  0  0  0  0  0  0  0  0  0  0
    0.5772    2.0503    3.3659 C   0  0  0  0  0  0  0  0  0  0  0  0
    1.2019    3.2211    3.7930 C   0  0  0  0  0  0  0  0  0  0  0  0
    0.7362    4.0014    4.8317 O   0  0  0  0  0  0  0  0  0  0  0  0
    0.1697    3.3868    5.9320 C   0  0  0  0  0  0  0  0  0  0  0  0
    0.5217    2.1123    6.3667 C   0  0  0  0  0  0  0  0  0  0  0  0
   -0.1735    1.5770    7.4250 C   0  0  0  0  0  0  0  0  0  0  0  0
   -1.1198    2.2520    8.1000 N   0  0  0  0  0  0  0  0  0  0  0  0
   -1.4073    3.5110    7.7352 C   0  0  0  0  0  0  0  0  0  0  0  0
   -2.3587    4.2365    8.4717 N   0  0  0  0  0  0  0  0  0  0  0  0
   -3.0558    3.7134    9.5531 C   0  0  0  0  0  0  0  0  0  0  0  0
   -2.9635    2.5874   10.0241 O   0  0  0  0  0  0  0  0  0  0  0  0
   -3.9879    4.6870   10.1942 C   0  0  0  0  0  0  0  0  0  0  0  0
   -3.8639    4.9528   11.6780 C   0  0  0  0  0  0  0  0  0  0  0  0
   -5.0453    4.1866   11.1601 C   0  0  0  0  0  0  0  0  0  0  0  0
   -0.7775    4.1216    6.6547 C   0  0  0  0  0  0  0  0  0  0  0  0
    2.3442    3.6630    3.1256 C   0  0  0  0  0  0  0  0  0  0  0  0
    2.8932    2.9026    2.0814 C   0  0  0  0  0  0  0  0  0  0  0  0
    3.0813   -0.5063   -1.1271 N   0  0  0  0  0  0  0  0  0  0  0  0
    2.7247   -1.4749   -2.0954 C   0  0  0  0  0  0  0  0  0  0  0  0
    1.4803   -2.1013   -2.1428 C   0  0  0  0  0  0  0  0  0  0  0  0
    1.2006   -3.0666   -3.1108 C   0  0  0  0  0  0  0  0  0  0  0  0
    2.1508   -3.4094   -4.0738 C   0  0  0  0  0  0  0  0  0  0  0  0
    1.6985   -4.6435   -5.1877 Cl  0  0  0  0  0  0  0  0  0  0  0  0
    3.3897   -2.7631   -4.0891 C   0  0  0  0  0  0  0  0  0  0  0  0
    4.4420   -2.9828   -5.1446 C   0  0  0  0  0  0  0  0  0  0  0  0
    4.1565   -3.8869   -6.1156 F   0  0  0  0  0  0  0  0  0  0  0  0
    4.7277   -1.8223   -5.8059 F   0  0  0  0  0  0  0  0  0  0  0  0
    5.6273   -3.3871   -4.6040 F   0  0  0  0  0  0  0  0  0  0  0  0
    3.6689   -1.8104   -3.0745 C   0  0  0  0  0  0  0  0  0  0  0  0
    3.7329    1.3660    0.2319 H   0  0  0  0  0  0  0  0  0  0  0  0
    0.6549    0.3365    2.1177 H   0  0  0  0  0  0  0  0  0  0  0  0
   -0.3410    1.6960    3.8276 H   0  0  0  0  0  0  0  0  0  0  0  0
    1.2886    1.5185    5.8839 H   0  0  0  0  0  0  0  0  0  0  0  0
    0.0011    0.5622    7.7670 H   0  0  0  0  0  0  0  0  0  0  0  0
   -2.5365    5.1876    8.2015 H   0  0  0  0  0  0  0  0  0  0  0  0
   -4.2879    5.5256    9.5741 H   0  0  0  0  0  0  0  0  0  0  0  0
   -4.0323    5.9602   12.0386 H   0  0  0  0  0  0  0  0  0  0  0  0
   -3.1184    4.3972   12.2391 H   0  0  0  0  0  0  0  0  0  0  0  0
   -6.0114    4.6747   11.1636 H   0  0  0  0  0  0  0  0  0  0  0  0
   -5.0893    3.1231   11.3721 H   0  0  0  0  0  0  0  0  0  0  0  0
   -1.0181    5.1348    6.3533 H   0  0  0  0  0  0  0  0  0  0  0  0
    2.8136    4.5994    3.4156 H   0  0  0  0  0  0  0  0  0  0  0  0
    3.7795    3.2776    1.5765 H   0  0  0  0  0  0  0  0  0  0  0  0
    4.0217   -0.1456   -1.1693 H   0  0  0  0  0  0  0  0  0  0  0  0
    0.6865   -1.8723   -1.4395 H   0  0  0  0  0  0  0  0  0  0  0  0
    0.2233   -3.5457   -3.1021 H   0  0  0  0  0  0  0  0  0  0  0  0
    4.6431   -1.3207   -3.0771 H   0  0  0  0  0  0  0  0  0  0  0  0
  1  2  2  0  0  0  0
  2  3  1  0  0  0  0
  2 23  1  0  0  0  0
  3  4  1  0  0  0  0
  3 35  1  0  0  0  0
  4  5  1  0  0  0  0
  4 22  2  0  0  0  0
  5  6  2  0  0  0  0
  5 36  1  0  0  0  0
  6  7  1  0  0  0  0
  6 37  1  0  0  0  0
  7  8  1  0  0  0  0
  7 21  2  0  0  0  0
  8  9  1  0  0  0  0
  9 10  1  0  0  0  0
  9 20  2  0  0  0  0
 10 11  2  0  0  0  0
 10 38  1  0  0  0  0
 11 12  1  0  0  0  0
 11 39  1  0  0  0  0
 12 13  2  0  0  0  0
 13 14  1  0  0  0  0
 13 20  1  0  0  0  0
 14 15  1  0  0  0  0
 14 40  1  0  0  0  0
 15 16  2  0  0  0  0
 15 17  1  0  0  0  0
 17 18  1  0  0  0  0
 17 19  1  0  0  0  0
 17 41  1  0  0  0  0
 18 19  1  0  0  0  0
 18 42  1  0  0  0  0
 18 43  1  0  0  0  0
 19 44  1  0  0  0  0
 19 45  1  0  0  0  0
 20 46  1  0  0  0  0
 21 22  1  0  0  0  0
 21 47  1  0  0  0  0
 22 48  1  0  0  0  0
 23 24  1  0  0  0  0
 23 49  1  0  0  0  0
 24 25  1  0  0  0  0
 24 34  2  0  0  0  0
 25 26  2  0  0  0  0
 25 50  1  0  0  0  0
 26 27  1  0  0  0  0
 26 51  1  0  0  0  0
 27 28  1  0  0  0  0
 27 29  2  0  0  0  0
 29 30  1  0  0  0  0
 29 34  1  0  0  0  0
 30 31  1  0  0  0  0
 30 32  1  0  0  0  0
 30 33  1  0  0  0  0
 34 52  1  0  0  0  0
M  END
$$$$
