CHEMBL3949132
 OpenBabel04072215373D

 72 75  0  0  1  0  0  0  0  0999 V2000
    1.7878   -4.8072    2.4167 C   0  0  0  0  0  0  0  0  0  0  0  0
    1.8541   -3.7293    1.5640 O   0  0  0  0  0  0  0  0  0  0  0  0
    2.9279   -2.9752    1.1936 C   0  0  0  0  0  0  0  0  0  0  0  0
    2.6380   -1.9074    0.3391 C   0  0  0  0  0  0  0  0  0  0  0  0
    3.6242   -1.0179   -0.0798 C   0  0  0  0  0  0  0  0  0  0  0  0
    3.3768    0.0280   -0.9102 O   0  0  0  0  0  0  0  0  0  0  0  0
    2.1585    0.3596   -1.4614 C   0  0  0  0  0  0  0  0  0  0  0  0
    4.9182   -1.1893    0.3789 C   0  0  0  0  0  0  0  0  0  0  0  0
    5.2875   -2.2481    1.2308 C   0  0  0  0  0  0  0  0  0  0  0  0
    6.6193   -2.2133    1.7862 N   0  0  0  0  0  0  0  0  0  0  0  0
    7.1028   -0.8680    2.2668 C   0  0  0  0  0  0  0  0  0  0  0  0
    6.1416   -0.1480    3.2798 C   0  0  0  0  0  0  0  0  0  0  0  0
    6.6482    1.2495    3.7957 C   0  0  0  0  0  0  0  0  0  0  0  0
    5.6304    1.9210    4.6559 N   0  0  0  0  0  0  0  0  0  0  0  0
    5.3101    1.2160    5.9134 C   0  0  0  0  0  0  0  0  0  0  0  0
    5.6000    2.1869    7.0466 C   0  0  0  0  0  0  0  0  0  0  0  0
    5.1680    3.4871    6.4205 C   0  0  0  0  0  0  0  0  0  0  0  0
    5.7863    3.3657    5.0190 C   0  0  1  0  0  0  0  0  0  0  0  0
    7.2420    3.8828    5.0291 C   0  0  0  0  0  0  0  0  0  0  0  0
    7.5433   -3.3280    1.9934 C   0  0  0  0  0  0  0  0  0  0  0  0
    8.0972   -3.3472    3.2669 C   0  0  0  0  0  0  0  0  0  0  0  0
    9.2073   -4.0583    3.5653 C   0  0  0  0  0  0  0  0  0  0  0  0
    9.8249   -4.8328    2.6340 C   0  0  0  0  0  0  0  0  0  0  0  0
   10.9982   -5.3331    3.0107 N   0  0  0  0  0  0  0  0  0  0  0  0
   11.7010   -6.1402    2.2409 C   0  0  0  0  0  0  0  0  0  0  0  0
   11.1984   -6.5952    1.0262 C   0  0  0  0  0  0  0  0  0  0  0  0
   11.9759   -7.8352    0.5215 C   0  0  0  0  0  0  0  0  0  0  0  0
   12.9930   -8.4639    1.2977 C   0  0  0  0  0  0  0  0  0  0  0  0
   13.3823   -9.6060    0.7422 N   0  0  0  0  0  0  0  0  0  0  0  0
   12.7044   -9.7642   -0.3682 N   0  0  0  0  0  0  0  0  0  0  0  0
   12.8277  -10.9995   -1.1277 C   0  0  0  0  0  0  0  0  0  0  0  0
   11.8703   -8.6991   -0.5793 C   0  0  0  0  0  0  0  0  0  0  0  0
   10.0057   -6.0052    0.5435 N   0  0  0  0  0  0  0  0  0  0  0  0
    9.3032   -5.0581    1.3423 C   0  0  0  0  0  0  0  0  0  0  0  0
    8.1100   -4.2623    0.9922 C   0  0  0  0  0  0  0  0  0  0  0  0
    4.2732   -3.1719    1.6369 C   0  0  0  0  0  0  0  0  0  0  0  0
   -0.9750   -2.3017    0.4823 Cl  0  0  0  0  0  0  0  0  0  0  0  0
    0.7206   -5.1205    2.4965 H   0  0  0  0  0  0  0  0  0  0  0  0
    2.1331   -4.5278    3.4327 H   0  0  0  0  0  0  0  0  0  0  0  0
    2.3660   -5.6584    2.0082 H   0  0  0  0  0  0  0  0  0  0  0  0
    1.6271   -1.7592    0.0144 H   0  0  0  0  0  0  0  0  0  0  0  0
    2.3033    1.2134   -2.1546 H   0  0  0  0  0  0  0  0  0  0  0  0
    1.4409    0.6581   -0.6674 H   0  0  0  0  0  0  0  0  0  0  0  0
    1.7594   -0.4993   -2.0406 H   0  0  0  0  0  0  0  0  0  0  0  0
    5.6439   -0.4582    0.0661 H   0  0  0  0  0  0  0  0  0  0  0  0
    7.2745   -0.1974    1.4061 H   0  0  0  0  0  0  0  0  0  0  0  0
    8.1025   -0.9367    2.7459 H   0  0  0  0  0  0  0  0  0  0  0  0
    5.9728   -0.8232    4.1419 H   0  0  0  0  0  0  0  0  0  0  0  0
    5.1651    0.0280    2.7863 H   0  0  0  0  0  0  0  0  0  0  0  0
    6.8408    1.8936    2.9103 H   0  0  0  0  0  0  0  0  0  0  0  0
    7.6046    1.1352    4.3534 H   0  0  0  0  0  0  0  0  0  0  0  0
    5.8448    0.2588    6.0699 H   0  0  0  0  0  0  0  0  0  0  0  0
    4.2149    1.0184    5.8924 H   0  0  0  0  0  0  0  0  0  0  0  0
    6.6941    2.2150    7.2354 H   0  0  0  0  0  0  0  0  0  0  0  0
    5.0850    1.9316    7.9977 H   0  0  0  0  0  0  0  0  0  0  0  0
    5.4428    4.3999    6.9957 H   0  0  0  0  0  0  0  0  0  0  0  0
    4.0577    3.4625    6.3295 H   0  0  0  0  0  0  0  0  0  0  0  0
    5.2237    4.0253    4.3219 H   0  0  0  0  0  0  0  0  0  0  0  0
    7.9062    3.2813    5.6793 H   0  0  0  0  0  0  0  0  0  0  0  0
    7.2574    4.9340    5.4006 H   0  0  0  0  0  0  0  0  0  0  0  0
    7.6525    3.8990    3.9998 H   0  0  0  0  0  0  0  0  0  0  0  0
    7.7016   -2.7166    4.0500 H   0  0  0  0  0  0  0  0  0  0  0  0
    9.6408   -3.9689    4.5484 H   0  0  0  0  0  0  0  0  0  0  0  0
   12.6186   -6.4432    2.6872 H   0  0  0  0  0  0  0  0  0  0  0  0
   13.4075   -8.2029    2.2563 H   0  0  0  0  0  0  0  0  0  0  0  0
   13.4878  -11.7142   -0.5729 H   0  0  0  0  0  0  0  0  0  0  0  0
   13.2661  -10.8188   -2.1256 H   0  0  0  0  0  0  0  0  0  0  0  0
   11.8308  -11.4777   -1.1989 H   0  0  0  0  0  0  0  0  0  0  0  0
   11.1955   -8.6231   -1.4172 H   0  0  0  0  0  0  0  0  0  0  0  0
    7.7042   -4.2882   -0.0152 H   0  0  0  0  0  0  0  0  0  0  0  0
    4.4970   -3.9698    2.3356 H   0  0  0  0  0  0  0  0  0  0  0  0
   -0.4533   -1.9823   -0.7532 H   0  0  0  0  0  0  0  0  0  0  0  0
  1  2  1  0  0  0  0
  1 38  1  0  0  0  0
  1 39  1  0  0  0  0
  1 40  1  0  0  0  0
  2  3  1  0  0  0  0
  3  4  1  0  0  0  0
  3 36  2  0  0  0  0
  4  5  2  0  0  0  0
  4 41  1  0  0  0  0
  5  6  1  0  0  0  0
  5  8  1  0  0  0  0
  6  7  1  0  0  0  0
  7 42  1  0  0  0  0
  7 43  1  0  0  0  0
  7 44  1  0  0  0  0
  8  9  2  0  0  0  0
  8 45  1  0  0  0  0
  9 10  1  0  0  0  0
  9 36  1  0  0  0  0
 10 11  1  0  0  0  0
 10 20  1  0  0  0  0
 11 12  1  0  0  0  0
 11 46  1  0  0  0  0
 11 47  1  0  0  0  0
 12 13  1  0  0  0  0
 12 48  1  0  0  0  0
 12 49  1  0  0  0  0
 13 14  1  0  0  0  0
 13 50  1  0  0  0  0
 13 51  1  0  0  0  0
 14 15  1  0  0  0  0
 14 18  1  0  0  0  0
 15 16  1  0  0  0  0
 15 52  1  0  0  0  0
 15 53  1  0  0  0  0
 16 17  1  0  0  0  0
 16 54  1  0  0  0  0
 16 55  1  0  0  0  0
 17 18  1  0  0  0  0
 17 56  1  0  0  0  0
 17 57  1  0  0  0  0
 18 19  1  0  0  0  0
 18 58  1  6  0  0  0
 19 59  1  0  0  0  0
 19 60  1  0  0  0  0
 19 61  1  0  0  0  0
 20 21  1  0  0  0  0
 20 35  2  0  0  0  0
 21 22  2  0  0  0  0
 21 62  1  0  0  0  0
 22 23  1  0  0  0  0
 22 63  1  0  0  0  0
 23 24  1  0  0  0  0
 23 34  2  0  0  0  0
 24 25  2  0  0  0  0
 25 26  1  0  0  0  0
 25 64  1  0  0  0  0
 26 27  1  0  0  0  0
 26 33  2  0  0  0  0
 27 28  1  0  0  0  0
 27 32  2  0  0  0  0
 28 29  2  0  0  0  0
 28 65  1  0  0  0  0
 29 30  1  0  0  0  0
 30 31  1  0  0  0  0
 30 32  1  0  0  0  0
 31 66  1  0  0  0  0
 31 67  1  0  0  0  0
 31 68  1  0  0  0  0
 32 69  1  0  0  0  0
 33 34  1  0  0  0  0
 34 35  1  0  0  0  0
 35 70  1  0  0  0  0
 36 71  1  0  0  0  0
 37 72  1  0  0  0  0
M  END
$$$$
