CHEMBL4445843
 OpenBabel04072215383D

 48 51  0  0  0  0  0  0  0  0999 V2000
    0.9998    0.1419   -0.0740 O   0  0  0  0  0  0  0  0  0  0  0  0
    2.2134   -0.0033   -0.1788 C   0  0  0  0  0  0  0  0  0  0  0  0
    2.9364   -1.0980    0.2577 N   0  0  0  0  0  0  0  0  0  0  0  0
    2.3468   -2.1854    0.8813 C   0  0  0  0  0  0  0  0  0  0  0  0
    0.9992   -2.4656    1.1752 C   0  0  0  0  0  0  0  0  0  0  0  0
    0.8429   -3.6327    1.8012 N   0  0  0  0  0  0  0  0  0  0  0  0
    2.1024   -4.1203    1.9394 N   0  0  0  0  0  0  0  0  0  0  0  0
    2.3321   -5.3520    2.6161 C   0  0  0  0  0  0  0  0  0  0  0  0
    1.2361   -6.0737    3.1198 C   0  0  0  0  0  0  0  0  0  0  0  0
    1.4359   -7.2773    3.7977 C   0  0  0  0  0  0  0  0  0  0  0  0
    2.7266   -7.7671    3.9808 C   0  0  0  0  0  0  0  0  0  0  0  0
    3.8190   -7.0571    3.4850 C   0  0  0  0  0  0  0  0  0  0  0  0
    3.6268   -5.8528    2.8009 C   0  0  0  0  0  0  0  0  0  0  0  0
    3.0337   -3.2727    1.3670 C   0  0  0  0  0  0  0  0  0  0  0  0
    2.9956    1.0973   -0.8010 C   0  0  0  0  0  0  0  0  0  0  0  0
    2.5377    2.4112   -0.6227 C   0  0  0  0  0  0  0  0  0  0  0  0
    3.1998    3.4811   -1.2298 C   0  0  0  0  0  0  0  0  0  0  0  0
    4.3098    3.2333   -2.0331 C   0  0  0  0  0  0  0  0  0  0  0  0
    4.9889    4.3003   -2.6787 N   0  0  0  0  0  0  0  0  0  0  0  0
    6.2304    5.0873   -1.8399 S   0  0  0  0  0  0  0  0  0  0  0  0
    6.6513    6.1856   -2.6837 O   0  0  0  0  0  0  0  0  0  0  0  0
    5.7957    5.3142   -0.4785 O   0  0  0  0  0  0  0  0  0  0  0  0
    7.5467    3.8980   -1.8368 C   0  0  0  0  0  0  0  0  0  0  0  0
    8.0511    3.4283   -3.0538 C   0  0  0  0  0  0  0  0  0  0  0  0
    9.0778    2.4841   -3.0509 C   0  0  0  0  0  0  0  0  0  0  0  0
    9.6033    2.0267   -1.8406 C   0  0  0  0  0  0  0  0  0  0  0  0
    9.1031    2.5075   -0.6289 C   0  0  0  0  0  0  0  0  0  0  0  0
    8.0694    3.4438   -0.6225 C   0  0  0  0  0  0  0  0  0  0  0  0
    4.7751    1.9286   -2.2096 C   0  0  0  0  0  0  0  0  0  0  0  0
    4.1202    0.8561   -1.5980 C   0  0  0  0  0  0  0  0  0  0  0  0
    3.9436   -1.0969    0.1958 H   0  0  0  0  0  0  0  0  0  0  0  0
    0.1210   -1.8671    0.9668 H   0  0  0  0  0  0  0  0  0  0  0  0
    0.2183   -5.7091    2.9905 H   0  0  0  0  0  0  0  0  0  0  0  0
    0.5820   -7.8280    4.1845 H   0  0  0  0  0  0  0  0  0  0  0  0
    2.8811   -8.7019    4.5137 H   0  0  0  0  0  0  0  0  0  0  0  0
    4.8250   -7.4411    3.6339 H   0  0  0  0  0  0  0  0  0  0  0  0
    4.5061   -5.3331    2.4375 H   0  0  0  0  0  0  0  0  0  0  0  0
    4.0853   -3.5081    1.3625 H   0  0  0  0  0  0  0  0  0  0  0  0
    1.6565    2.6014   -0.0118 H   0  0  0  0  0  0  0  0  0  0  0  0
    2.8364    4.4928   -1.0707 H   0  0  0  0  0  0  0  0  0  0  0  0
    4.4165    4.9806   -3.1794 H   0  0  0  0  0  0  0  0  0  0  0  0
    7.6476    3.7903   -3.9966 H   0  0  0  0  0  0  0  0  0  0  0  0
    9.4765    2.1099   -3.9910 H   0  0  0  0  0  0  0  0  0  0  0  0
   10.4130    1.3002   -1.8414 H   0  0  0  0  0  0  0  0  0  0  0  0
    9.5252    2.1578    0.3104 H   0  0  0  0  0  0  0  0  0  0  0  0
    7.6864    3.8175    0.3247 H   0  0  0  0  0  0  0  0  0  0  0  0
    5.6279    1.7340   -2.8542 H   0  0  0  0  0  0  0  0  0  0  0  0
    4.4720   -0.1523   -1.7949 H   0  0  0  0  0  0  0  0  0  0  0  0
  1  2  2  0  0  0  0
  2  3  1  0  0  0  0
  2 15  1  0  0  0  0
  3  4  1  0  0  0  0
  3 31  1  0  0  0  0
  4  5  1  0  0  0  0
  4 14  2  0  0  0  0
  5  6  2  0  0  0  0
  5 32  1  0  0  0  0
  6  7  1  0  0  0  0
  7  8  1  0  0  0  0
  7 14  1  0  0  0  0
  8  9  1  0  0  0  0
  8 13  2  0  0  0  0
  9 10  2  0  0  0  0
  9 33  1  0  0  0  0
 10 11  1  0  0  0  0
 10 34  1  0  0  0  0
 11 12  2  0  0  0  0
 11 35  1  0  0  0  0
 12 13  1  0  0  0  0
 12 36  1  0  0  0  0
 13 37  1  0  0  0  0
 14 38  1  0  0  0  0
 15 16  1  0  0  0  0
 15 30  2  0  0  0  0
 16 17  2  0  0  0  0
 16 39  1  0  0  0  0
 17 18  1  0  0  0  0
 17 40  1  0  0  0  0
 18 19  1  0  0  0  0
 18 29  2  0  0  0  0
 19 20  1  0  0  0  0
 19 41  1  0  0  0  0
 20 21  2  0  0  0  0
 20 22  2  0  0  0  0
 20 23  1  0  0  0  0
 23 24  1  0  0  0  0
 23 28  2  0  0  0  0
 24 25  2  0  0  0  0
 24 42  1  0  0  0  0
 25 26  1  0  0  0  0
 25 43  1  0  0  0  0
 26 27  2  0  0  0  0
 26 44  1  0  0  0  0
 27 28  1  0  0  0  0
 27 45  1  0  0  0  0
 28 46  1  0  0  0  0
 29 30  1  0  0  0  0
 29 47  1  0  0  0  0
 30 48  1  0  0  0  0
M  END
$$$$
