CHEMBL3694663
 OpenBabel04072215373D

 66 70  0  0  0  0  0  0  0  0999 V2000
    2.5853   -0.3843   -1.2899 O   0  0  0  0  0  0  0  0  0  0  0  0
    2.5102   -0.8382   -0.1567 C   0  0  0  0  0  0  0  0  0  0  0  0
    1.4962   -1.7034    0.1989 N   0  0  0  0  0  0  0  0  0  0  0  0
    0.4199   -1.9582   -0.7675 C   0  0  0  0  0  0  0  0  0  0  0  0
   -0.6901   -0.8969   -0.7928 C   0  0  0  0  0  0  0  0  0  0  0  0
   -0.5052    0.0513    0.1559 F   0  0  0  0  0  0  0  0  0  0  0  0
   -0.7886   -0.2828   -1.9886 F   0  0  0  0  0  0  0  0  0  0  0  0
   -1.8887   -1.4768   -0.5331 F   0  0  0  0  0  0  0  0  0  0  0  0
    3.3704   -0.6133    0.8948 N   0  0  0  0  0  0  0  0  0  0  0  0
    4.5484    0.1653    0.8796 C   0  0  0  0  0  0  0  0  0  0  0  0
    5.0155    0.8169   -0.2618 C   0  0  0  0  0  0  0  0  0  0  0  0
    6.2302    1.4947   -0.2393 C   0  0  0  0  0  0  0  0  0  0  0  0
    6.9719    1.5529    0.9364 C   0  0  0  0  0  0  0  0  0  0  0  0
    6.4751    1.0137    2.1295 C   0  0  0  0  0  0  0  0  0  0  0  0
    7.1736    1.2272    3.4050 C   0  0  0  0  0  0  0  0  0  0  0  0
    7.3226    0.3912    4.5008 C   0  0  0  0  0  0  0  0  0  0  0  0
    8.0470    0.9751    5.5078 N   0  0  0  0  0  0  0  0  0  0  0  0
    8.3397    2.1799    5.0690 C   0  0  0  0  0  0  0  0  0  0  0  0
    9.0697    3.2448    5.6810 C   0  0  0  0  0  0  0  0  0  0  0  0
    9.2322    4.4356    5.0511 C   0  0  0  0  0  0  0  0  0  0  0  0
    9.9821    5.5442    5.7037 C   0  0  0  0  0  0  0  0  0  0  0  0
   10.1273    6.6622    4.9636 N   0  0  0  0  0  0  0  0  0  0  0  0
   10.7577    7.6855    5.5428 C   0  0  0  0  0  0  0  0  0  0  0  0
   11.2667    7.6153    6.8111 C   0  0  0  0  0  0  0  0  0  0  0  0
   11.0974    6.4263    7.5044 C   0  0  0  0  0  0  0  0  0  0  0  0
   11.5703    6.3664    8.8079 N   0  0  0  0  0  0  0  0  0  0  0  0
   10.9970    5.3775    9.7254 C   0  0  0  0  0  0  0  0  0  0  0  0
   11.3042    5.8410   11.1816 C   0  0  0  0  0  0  0  0  0  0  0  0
   12.7420    6.1275   11.4833 N   0  0  0  0  0  0  0  0  0  0  0  0
   13.4985    4.8611   11.5951 C   0  0  0  0  0  0  0  0  0  0  0  0
   14.9774    5.0537   11.9708 C   0  0  0  0  0  0  0  0  0  0  0  0
   15.0999    5.8360   13.1539 O   0  0  0  0  0  0  0  0  0  0  0  0
   13.2670    7.0303   10.4278 C   0  0  0  0  0  0  0  0  0  0  0  0
   13.0162    6.5508    8.9804 C   0  0  0  0  0  0  0  0  0  0  0  0
   10.4363    5.3886    6.9636 N   0  0  0  0  0  0  0  0  0  0  0  0
    8.6381    4.6153    3.7204 C   0  0  0  0  0  0  0  0  0  0  0  0
    7.9343    3.6298    3.1514 C   0  0  0  0  0  0  0  0  0  0  0  0
    7.8055    2.4042    3.8010 N   0  0  0  0  0  0  0  0  0  0  0  0
    5.2774    0.2797    2.0769 C   0  0  0  0  0  0  0  0  0  0  0  0
    1.2236   -1.6824    1.1712 H   0  0  0  0  0  0  0  0  0  0  0  0
   -0.0055   -2.9298   -0.4983 H   0  0  0  0  0  0  0  0  0  0  0  0
    0.8529   -2.0575   -1.7675 H   0  0  0  0  0  0  0  0  0  0  0  0
    3.1771   -1.1164    1.7469 H   0  0  0  0  0  0  0  0  0  0  0  0
    4.4706    0.8002   -1.1995 H   0  0  0  0  0  0  0  0  0  0  0  0
    6.5956    1.9787   -1.1410 H   0  0  0  0  0  0  0  0  0  0  0  0
    7.9387    2.0478    0.9030 H   0  0  0  0  0  0  0  0  0  0  0  0
    6.9494   -0.6186    4.6115 H   0  0  0  0  0  0  0  0  0  0  0  0
    9.4712    3.0547    6.6734 H   0  0  0  0  0  0  0  0  0  0  0  0
   10.8418    8.5901    4.9509 H   0  0  0  0  0  0  0  0  0  0  0  0
   11.7408    8.4745    7.2641 H   0  0  0  0  0  0  0  0  0  0  0  0
   11.4165    4.3798    9.5408 H   0  0  0  0  0  0  0  0  0  0  0  0
    9.9085    5.3113    9.6081 H   0  0  0  0  0  0  0  0  0  0  0  0
   10.9016    5.1174   11.9003 H   0  0  0  0  0  0  0  0  0  0  0  0
   10.7478    6.7724   11.3586 H   0  0  0  0  0  0  0  0  0  0  0  0
   13.4386    4.2611   10.6814 H   0  0  0  0  0  0  0  0  0  0  0  0
   13.0374    4.2774   12.4019 H   0  0  0  0  0  0  0  0  0  0  0  0
   15.5394    5.5466   11.1719 H   0  0  0  0  0  0  0  0  0  0  0  0
   15.4473    4.0825   12.1512 H   0  0  0  0  0  0  0  0  0  0  0  0
   14.4199    6.5340   13.0793 H   0  0  0  0  0  0  0  0  0  0  0  0
   14.3310    7.2384   10.5732 H   0  0  0  0  0  0  0  0  0  0  0  0
   12.7708    8.0034   10.5525 H   0  0  0  0  0  0  0  0  0  0  0  0
   13.5480    5.6141    8.7796 H   0  0  0  0  0  0  0  0  0  0  0  0
   13.4292    7.3027    8.2982 H   0  0  0  0  0  0  0  0  0  0  0  0
    8.7654    5.5668    3.2122 H   0  0  0  0  0  0  0  0  0  0  0  0
    7.4594    3.7676    2.1908 H   0  0  0  0  0  0  0  0  0  0  0  0
    4.9003   -0.1891    2.9830 H   0  0  0  0  0  0  0  0  0  0  0  0
  1  2  2  0  0  0  0
  2  3  1  0  0  0  0
  2  9  1  0  0  0  0
  3  4  1  0  0  0  0
  3 40  1  0  0  0  0
  4  5  1  0  0  0  0
  4 41  1  0  0  0  0
  4 42  1  0  0  0  0
  5  6  1  0  0  0  0
  5  7  1  0  0  0  0
  5  8  1  0  0  0  0
  9 10  1  0  0  0  0
  9 43  1  0  0  0  0
 10 11  1  0  0  0  0
 10 39  2  0  0  0  0
 11 12  2  0  0  0  0
 11 44  1  0  0  0  0
 12 13  1  0  0  0  0
 12 45  1  0  0  0  0
 13 14  2  0  0  0  0
 13 46  1  0  0  0  0
 14 15  1  0  0  0  0
 14 39  1  0  0  0  0
 15 16  2  0  0  0  0
 15 38  1  0  0  0  0
 16 17  1  0  0  0  0
 16 47  1  0  0  0  0
 17 18  2  0  0  0  0
 18 19  1  0  0  0  0
 18 38  1  0  0  0  0
 19 20  2  0  0  0  0
 19 48  1  0  0  0  0
 20 21  1  0  0  0  0
 20 36  1  0  0  0  0
 21 22  1  0  0  0  0
 21 35  2  0  0  0  0
 22 23  2  0  0  0  0
 23 24  1  0  0  0  0
 23 49  1  0  0  0  0
 24 25  2  0  0  0  0
 24 50  1  0  0  0  0
 25 26  1  0  0  0  0
 25 35  1  0  0  0  0
 26 27  1  0  0  0  0
 26 34  1  0  0  0  0
 27 28  1  0  0  0  0
 27 51  1  0  0  0  0
 27 52  1  0  0  0  0
 28 29  1  0  0  0  0
 28 53  1  0  0  0  0
 28 54  1  0  0  0  0
 29 30  1  0  0  0  0
 29 33  1  0  0  0  0
 30 31  1  0  0  0  0
 30 55  1  0  0  0  0
 30 56  1  0  0  0  0
 31 32  1  0  0  0  0
 31 57  1  0  0  0  0
 31 58  1  0  0  0  0
 32 59  1  0  0  0  0
 33 34  1  0  0  0  0
 33 60  1  0  0  0  0
 33 61  1  0  0  0  0
 34 62  1  0  0  0  0
 34 63  1  0  0  0  0
 36 37  2  0  0  0  0
 36 64  1  0  0  0  0
 37 38  1  0  0  0  0
 37 65  1  0  0  0  0
 39 66  1  0  0  0  0
M  END
$$$$
