CHEMBL402846
 OpenBabel04072215373D

 48 51  0  0  0  0  0  0  0  0999 V2000
    2.8290    0.8629   -2.3858 C   0  0  0  0  0  0  0  0  0  0  0  0
    1.4245    0.5577   -1.9490 C   0  0  0  0  0  0  0  0  0  0  0  0
    0.9311   -0.7452   -2.0564 C   0  0  0  0  0  0  0  0  0  0  0  0
   -0.3558   -1.0365   -1.6200 C   0  0  0  0  0  0  0  0  0  0  0  0
   -1.1619   -0.0317   -1.0917 C   0  0  0  0  0  0  0  0  0  0  0  0
   -2.3318   -0.4314   -0.5809 F   0  0  0  0  0  0  0  0  0  0  0  0
   -0.7267    1.2993   -1.0263 C   0  0  0  0  0  0  0  0  0  0  0  0
   -1.5128    2.4000   -0.5843 N   0  0  0  0  0  0  0  0  0  0  0  0
   -2.8901    2.4210   -0.4664 C   0  0  0  0  0  0  0  0  0  0  0  0
   -3.6342    1.4914   -0.7286 O   0  0  0  0  0  0  0  0  0  0  0  0
   -3.3725    3.6728   -0.0799 N   0  0  0  0  0  0  0  0  0  0  0  0
   -4.7629    3.8572    0.1207 C   0  0  0  0  0  0  0  0  0  0  0  0
   -5.5182    2.9325    0.8429 C   0  0  0  0  0  0  0  0  0  0  0  0
   -6.9147    3.0234    0.8724 C   0  0  0  0  0  0  0  0  0  0  0  0
   -7.6012    4.0494    0.1971 C   0  0  0  0  0  0  0  0  0  0  0  0
   -9.0775    4.0460    0.1283 C   0  0  0  0  0  0  0  0  0  0  0  0
   -9.8685    3.6599    1.2226 C   0  0  0  0  0  0  0  0  0  0  0  0
  -11.2205    3.5795    1.2597 N   0  0  0  0  0  0  0  0  0  0  0  0
  -11.9142    3.9051    0.1548 C   0  0  0  0  0  0  0  0  0  0  0  0
  -11.2238    4.3069   -0.9793 C   0  0  0  0  0  0  0  0  0  0  0  0
   -9.8249    4.3750   -1.0376 C   0  0  0  0  0  0  0  0  0  0  0  0
   -9.5830    4.7690   -2.3968 C   0  0  0  0  0  0  0  0  0  0  0  0
   -8.3881    4.9019   -2.9896 N   0  0  0  0  0  0  0  0  0  0  0  0
  -10.6992    4.9855   -3.0824 N   0  0  0  0  0  0  0  0  0  0  0  0
  -11.6754    4.6920   -2.2134 N   0  0  0  0  0  0  0  0  0  0  0  0
  -13.0505    4.7843   -2.6435 C   0  0  0  0  0  0  0  0  0  0  0  0
   -6.8093    5.0457   -0.3990 C   0  0  0  0  0  0  0  0  0  0  0  0
   -5.4077    4.9494   -0.4523 C   0  0  0  0  0  0  0  0  0  0  0  0
    0.5930    1.5729   -1.4319 C   0  0  0  0  0  0  0  0  0  0  0  0
    3.3368   -0.0372   -2.7496 H   0  0  0  0  0  0  0  0  0  0  0  0
    3.4099    1.2515   -1.5424 H   0  0  0  0  0  0  0  0  0  0  0  0
    2.8252    1.5960   -3.1967 H   0  0  0  0  0  0  0  0  0  0  0  0
    1.5457   -1.5454   -2.4628 H   0  0  0  0  0  0  0  0  0  0  0  0
   -0.7428   -2.0499   -1.6667 H   0  0  0  0  0  0  0  0  0  0  0  0
   -1.0363    3.2781   -0.4471 H   0  0  0  0  0  0  0  0  0  0  0  0
   -2.8789    4.4508   -0.4918 H   0  0  0  0  0  0  0  0  0  0  0  0
   -5.0334    2.1021    1.3517 H   0  0  0  0  0  0  0  0  0  0  0  0
   -7.4549    2.2389    1.3995 H   0  0  0  0  0  0  0  0  0  0  0  0
   -9.4026    3.3835    2.1668 H   0  0  0  0  0  0  0  0  0  0  0  0
  -12.9936    3.8306    0.2119 H   0  0  0  0  0  0  0  0  0  0  0  0
   -7.6388    4.2769   -2.7099 H   0  0  0  0  0  0  0  0  0  0  0  0
   -8.4314    5.0183   -3.9962 H   0  0  0  0  0  0  0  0  0  0  0  0
  -13.0890    5.1262   -3.6811 H   0  0  0  0  0  0  0  0  0  0  0  0
  -13.5664    5.4999   -1.9990 H   0  0  0  0  0  0  0  0  0  0  0  0
  -13.5044    3.7936   -2.5637 H   0  0  0  0  0  0  0  0  0  0  0  0
   -7.2822    5.8983   -0.8850 H   0  0  0  0  0  0  0  0  0  0  0  0
   -4.8548    5.6942   -1.0177 H   0  0  0  0  0  0  0  0  0  0  0  0
    0.9858    2.5865   -1.3742 H   0  0  0  0  0  0  0  0  0  0  0  0
  1  2  1  0  0  0  0
  1 30  1  0  0  0  0
  1 31  1  0  0  0  0
  1 32  1  0  0  0  0
  2  3  1  0  0  0  0
  2 29  2  0  0  0  0
  3  4  2  0  0  0  0
  3 33  1  0  0  0  0
  4  5  1  0  0  0  0
  4 34  1  0  0  0  0
  5  6  1  0  0  0  0
  5  7  2  0  0  0  0
  7  8  1  0  0  0  0
  7 29  1  0  0  0  0
  8  9  1  0  0  0  0
  8 35  1  0  0  0  0
  9 10  2  0  0  0  0
  9 11  1  0  0  0  0
 11 12  1  0  0  0  0
 11 36  1  0  0  0  0
 12 13  1  0  0  0  0
 12 28  2  0  0  0  0
 13 14  2  0  0  0  0
 13 37  1  0  0  0  0
 14 15  1  0  0  0  0
 14 38  1  0  0  0  0
 15 16  1  0  0  0  0
 15 27  2  0  0  0  0
 16 17  1  0  0  0  0
 16 21  2  0  0  0  0
 17 18  2  0  0  0  0
 17 39  1  0  0  0  0
 18 19  1  0  0  0  0
 19 20  2  0  0  0  0
 19 40  1  0  0  0  0
 20 21  1  0  0  0  0
 20 25  1  0  0  0  0
 21 22  1  0  0  0  0
 22 23  1  0  0  0  0
 22 24  2  0  0  0  0
 23 41  1  0  0  0  0
 23 42  1  0  0  0  0
 24 25  1  0  0  0  0
 25 26  1  0  0  0  0
 26 43  1  0  0  0  0
 26 44  1  0  0  0  0
 26 45  1  0  0  0  0
 27 28  1  0  0  0  0
 27 46  1  0  0  0  0
 28 47  1  0  0  0  0
 29 48  1  0  0  0  0
M  END
$$$$
