CHEMBL1834657
 OpenBabel04072215363D

 77 79  0  0  0  0  0  0  0  0999 V2000
    0.6928    0.9700   -3.8275 C   0  0  0  0  0  0  0  0  0  0  0  0
    1.4705   -0.1080   -3.0800 C   0  0  0  0  0  0  0  0  0  0  0  0
    2.3059   -0.9134   -3.9747 N   0  0  0  0  0  0  0  0  0  0  0  0
    1.5368   -2.0399   -4.5294 C   0  0  0  0  0  0  0  0  0  0  0  0
    1.1098   -3.0922   -3.4879 C   0  0  0  0  0  0  0  0  0  0  0  0
    2.2432   -3.6091   -2.6785 N   0  0  0  0  0  0  0  0  0  0  0  0
    2.5028   -4.9744   -2.7595 C   0  0  0  0  0  0  0  0  0  0  0  0
    3.7737   -5.5251   -2.5802 C   0  0  0  0  0  0  0  0  0  0  0  0
    4.0736   -6.7895   -3.0753 C   0  0  0  0  0  0  0  0  0  0  0  0
    3.0843   -7.5569   -3.6796 C   0  0  0  0  0  0  0  0  0  0  0  0
    3.3935   -8.6430   -4.5216 N   0  0  0  0  0  0  0  0  0  0  0  0
    4.4660   -9.5214   -4.2708 C   0  0  0  0  0  0  0  0  0  0  0  0
    4.9898  -10.2200   -5.3308 C   0  0  0  0  0  0  0  0  0  0  0  0
    5.9153  -11.1745   -5.0240 C   0  0  0  0  0  0  0  0  0  0  0  0
    6.4476  -11.9585   -6.0555 N   0  0  0  0  0  0  0  0  0  0  0  0
    6.2125  -13.3862   -5.9345 C   0  0  0  0  0  0  0  0  0  0  0  0
    7.0353  -11.4601   -7.2049 C   0  0  0  0  0  0  0  0  0  0  0  0
    7.3668  -12.1985   -8.1437 O   0  0  0  0  0  0  0  0  0  0  0  0
    7.3070  -10.1002   -7.1961 N   0  0  0  0  0  0  0  0  0  0  0  0
    7.8876   -9.4214   -8.3097 C   0  0  0  0  0  0  0  0  0  0  0  0
    7.3750   -9.5304   -9.6291 C   0  0  0  0  0  0  0  0  0  0  0  0
    5.8036  -10.2514   -9.8390 Cl  0  0  0  0  0  0  0  0  0  0  0  0
    8.0569   -8.9025  -10.6887 C   0  0  0  0  0  0  0  0  0  0  0  0
    7.7929   -8.8710  -12.0318 O   0  0  0  0  0  0  0  0  0  0  0  0
    6.7525   -9.6458  -12.5994 C   0  0  0  0  0  0  0  0  0  0  0  0
    9.1916   -8.1174  -10.4041 C   0  0  0  0  0  0  0  0  0  0  0  0
    9.6427   -7.9103   -9.1015 C   0  0  0  0  0  0  0  0  0  0  0  0
   10.6861   -7.0878   -8.7653 O   0  0  0  0  0  0  0  0  0  0  0  0
   11.3317   -6.3657   -9.8078 C   0  0  0  0  0  0  0  0  0  0  0  0
    8.9858   -8.5785   -8.0576 C   0  0  0  0  0  0  0  0  0  0  0  0
    9.5549   -8.3797   -6.4198 Cl  0  0  0  0  0  0  0  0  0  0  0  0
    6.3062  -11.4598   -3.7682 N   0  0  0  0  0  0  0  0  0  0  0  0
    5.7733  -10.6966   -2.8118 C   0  0  0  0  0  0  0  0  0  0  0  0
    4.8672   -9.7364   -3.0046 N   0  0  0  0  0  0  0  0  0  0  0  0
    1.7708   -7.1173   -3.6508 C   0  0  0  0  0  0  0  0  0  0  0  0
    1.4811   -5.8700   -3.1270 C   0  0  0  0  0  0  0  0  0  0  0  0
    3.2929   -2.6422   -2.3067 C   0  0  0  0  0  0  0  0  0  0  0  0
    3.4989   -1.5115   -3.3407 C   0  0  0  0  0  0  0  0  0  0  0  0
    1.0499   -0.0692    0.0522 O   0  0  0  0  0  0  0  0  0  0  0  0
    2.5983   -0.0692    0.0522 P   0  0  0  0  0  0  0  0  0  0  0  0
    2.7376    1.5308    0.3309 O   0  0  0  0  0  0  0  0  0  0  0  0
    2.7099   -0.4977    1.6183 O   0  0  0  0  0  0  0  0  0  0  0  0
    4.3283   -0.0692    0.0522 O   0  0  0  0  0  0  0  0  0  0  0  0
   -0.1642    1.2963   -3.2272 H   0  0  0  0  0  0  0  0  0  0  0  0
    0.3105    0.6300   -4.7938 H   0  0  0  0  0  0  0  0  0  0  0  0
    1.3303    1.8439   -3.9967 H   0  0  0  0  0  0  0  0  0  0  0  0
    0.7623   -0.7113   -2.5025 H   0  0  0  0  0  0  0  0  0  0  0  0
    2.1000    0.4199   -2.3655 H   0  0  0  0  0  0  0  0  0  0  0  0
    2.1520   -2.5335   -5.2965 H   0  0  0  0  0  0  0  0  0  0  0  0
    0.6522   -1.6752   -5.0596 H   0  0  0  0  0  0  0  0  0  0  0  0
    0.6139   -3.8594   -4.0873 H   0  0  0  0  0  0  0  0  0  0  0  0
    0.3439   -2.7124   -2.8051 H   0  0  0  0  0  0  0  0  0  0  0  0
    4.5999   -4.9786   -2.1433 H   0  0  0  0  0  0  0  0  0  0  0  0
    5.1092   -7.1242   -3.0441 H   0  0  0  0  0  0  0  0  0  0  0  0
    3.4762   -8.2620   -5.4602 H   0  0  0  0  0  0  0  0  0  0  0  0
    4.6397  -10.0545   -6.3406 H   0  0  0  0  0  0  0  0  0  0  0  0
    5.4749  -13.6090   -5.1554 H   0  0  0  0  0  0  0  0  0  0  0  0
    7.1630  -13.8800   -5.7041 H   0  0  0  0  0  0  0  0  0  0  0  0
    5.8250  -13.7735   -6.8820 H   0  0  0  0  0  0  0  0  0  0  0  0
    7.6496   -9.7853   -6.2897 H   0  0  0  0  0  0  0  0  0  0  0  0
    6.8289   -9.5517  -13.6876 H   0  0  0  0  0  0  0  0  0  0  0  0
    5.7760   -9.2411  -12.3210 H   0  0  0  0  0  0  0  0  0  0  0  0
    6.8565  -10.7078  -12.3599 H   0  0  0  0  0  0  0  0  0  0  0  0
    9.6900   -7.6472  -11.2485 H   0  0  0  0  0  0  0  0  0  0  0  0
   12.0041   -5.6377   -9.3440 H   0  0  0  0  0  0  0  0  0  0  0  0
   10.6194   -5.8029  -10.4202 H   0  0  0  0  0  0  0  0  0  0  0  0
   11.9352   -7.0414  -10.4221 H   0  0  0  0  0  0  0  0  0  0  0  0
    6.0989  -10.8639   -1.7933 H   0  0  0  0  0  0  0  0  0  0  0  0
    0.9769   -7.7179   -4.0822 H   0  0  0  0  0  0  0  0  0  0  0  0
    0.4383   -5.5744   -3.0990 H   0  0  0  0  0  0  0  0  0  0  0  0
    4.2806   -3.0943   -2.1863 H   0  0  0  0  0  0  0  0  0  0  0  0
    3.0470   -2.2403   -1.3232 H   0  0  0  0  0  0  0  0  0  0  0  0
    4.0969   -1.9435   -4.1567 H   0  0  0  0  0  0  0  0  0  0  0  0
    4.1410   -0.7321   -2.9133 H   0  0  0  0  0  0  0  0  0  0  0  0
    2.0252    1.7856    0.9493 H   0  0  0  0  0  0  0  0  0  0  0  0
    1.8013   -0.6233    1.9559 H   0  0  0  0  0  0  0  0  0  0  0  0
    4.5591    0.8322    0.3523 H   0  0  0  0  0  0  0  0  0  0  0  0
  1  2  1  0  0  0  0
  1 44  1  0  0  0  0
  1 45  1  0  0  0  0
  1 46  1  0  0  0  0
  2  3  1  0  0  0  0
  2 47  1  0  0  0  0
  2 48  1  0  0  0  0
  3  4  1  0  0  0  0
  3 38  1  0  0  0  0
  4  5  1  0  0  0  0
  4 49  1  0  0  0  0
  4 50  1  0  0  0  0
  5  6  1  0  0  0  0
  5 51  1  0  0  0  0
  5 52  1  0  0  0  0
  6  7  1  0  0  0  0
  6 37  1  0  0  0  0
  7  8  1  0  0  0  0
  7 36  2  0  0  0  0
  8  9  2  0  0  0  0
  8 53  1  0  0  0  0
  9 10  1  0  0  0  0
  9 54  1  0  0  0  0
 10 11  1  0  0  0  0
 10 35  2  0  0  0  0
 11 12  1  0  0  0  0
 11 55  1  0  0  0  0
 12 13  1  0  0  0  0
 12 34  2  0  0  0  0
 13 14  2  0  0  0  0
 13 56  1  0  0  0  0
 14 15  1  0  0  0  0
 14 32  1  0  0  0  0
 15 16  1  0  0  0  0
 15 17  1  0  0  0  0
 16 57  1  0  0  0  0
 16 58  1  0  0  0  0
 16 59  1  0  0  0  0
 17 18  2  0  0  0  0
 17 19  1  0  0  0  0
 19 20  1  0  0  0  0
 19 60  1  0  0  0  0
 20 21  1  0  0  0  0
 20 30  2  0  0  0  0
 21 22  1  0  0  0  0
 21 23  2  0  0  0  0
 23 24  1  0  0  0  0
 23 26  1  0  0  0  0
 24 25  1  0  0  0  0
 25 61  1  0  0  0  0
 25 62  1  0  0  0  0
 25 63  1  0  0  0  0
 26 27  2  0  0  0  0
 26 64  1  0  0  0  0
 27 28  1  0  0  0  0
 27 30  1  0  0  0  0
 28 29  1  0  0  0  0
 29 65  1  0  0  0  0
 29 66  1  0  0  0  0
 29 67  1  0  0  0  0
 30 31  1  0  0  0  0
 32 33  2  0  0  0  0
 33 34  1  0  0  0  0
 33 68  1  0  0  0  0
 35 36  1  0  0  0  0
 35 69  1  0  0  0  0
 36 70  1  0  0  0  0
 37 38  1  0  0  0  0
 37 71  1  0  0  0  0
 37 72  1  0  0  0  0
 38 73  1  0  0  0  0
 38 74  1  0  0  0  0
 39 40  2  0  0  0  0
 40 41  1  0  0  0  0
 40 42  1  0  0  0  0
 40 43  1  0  0  0  0
 41 75  1  0  0  0  0
 42 76  1  0  0  0  0
 43 77  1  0  0  0  0
M  END
$$$$
