CHEMBL4074672
 OpenBabel04072215383D

 46 50  0  0  0  0  0  0  0  0999 V2000
    2.8460   -0.5702    0.8763 O   0  0  0  0  0  0  0  0  0  0  0  0
    2.3143    0.1345    0.0502 C   0  0  0  0  0  0  0  0  0  0  0  0
    1.0344    0.0630   -0.4958 N   0  0  0  0  0  0  0  0  0  0  0  0
    0.0922   -0.8367    0.0034 C   0  0  0  0  0  0  0  0  0  0  0  0
   -1.1011   -1.2563   -0.6543 C   0  0  0  0  0  0  0  0  0  0  0  0
   -1.7213   -2.1079    0.2418 C   0  0  0  0  0  0  0  0  0  0  0  0
   -3.0523   -2.8289    0.0509 C   0  0  0  0  0  0  0  0  0  0  0  0
   -3.9349   -3.1927    1.2286 C   0  0  0  0  0  0  0  0  0  0  0  0
   -3.1523   -4.2639    0.5551 C   0  0  0  0  0  0  0  0  0  0  0  0
   -0.9397   -2.2101    1.3470 O   0  0  0  0  0  0  0  0  0  0  0  0
    0.1754   -1.4167    1.2009 N   0  0  0  0  0  0  0  0  0  0  0  0
    3.1002    1.0893   -0.6409 N   0  0  0  0  0  0  0  0  0  0  0  0
    4.2960    0.7963   -1.2908 C   0  0  0  0  0  0  0  0  0  0  0  0
    4.7953    1.9487   -1.8545 C   0  0  0  0  0  0  0  0  0  0  0  0
    3.9250    3.0156   -1.5101 C   0  0  0  0  0  0  0  0  0  0  0  0
    3.9347    4.4111   -1.7700 C   0  0  0  0  0  0  0  0  0  0  0  0
    2.8945    5.2220   -1.2927 C   0  0  0  0  0  0  0  0  0  0  0  0
    2.9341    6.5675   -1.6261 O   0  0  0  0  0  0  0  0  0  0  0  0
    2.4301    7.5000   -0.7170 C   0  0  0  0  0  0  0  0  0  0  0  0
    2.0317    8.7319   -1.2036 C   0  0  0  0  0  0  0  0  0  0  0  0
    1.7084    9.6898   -0.2535 C   0  0  0  0  0  0  0  0  0  0  0  0
    1.4826   11.1349   -0.6358 C   0  0  0  0  0  0  0  0  0  0  0  0
    2.7026   11.8739   -0.5997 O   0  0  0  0  0  0  0  0  0  0  0  0
    1.6709    9.4021    1.0685 N   0  0  0  0  0  0  0  0  0  0  0  0
    2.0046    8.1517    1.4164 C   0  0  0  0  0  0  0  0  0  0  0  0
    2.4326    7.1952    0.5923 N   0  0  0  0  0  0  0  0  0  0  0  0
    1.8342    4.6320   -0.6038 C   0  0  0  0  0  0  0  0  0  0  0  0
    1.8148    3.2605   -0.3140 C   0  0  0  0  0  0  0  0  0  0  0  0
    2.8620    2.4575   -0.7873 C   0  0  0  0  0  0  0  0  0  0  0  0
    0.8563    0.4741   -1.3983 H   0  0  0  0  0  0  0  0  0  0  0  0
   -1.4447   -0.9898   -1.6405 H   0  0  0  0  0  0  0  0  0  0  0  0
   -3.5962   -2.5515   -0.8469 H   0  0  0  0  0  0  0  0  0  0  0  0
   -5.0097   -3.2071    1.0750 H   0  0  0  0  0  0  0  0  0  0  0  0
   -3.6466   -2.9036    2.2325 H   0  0  0  0  0  0  0  0  0  0  0  0
   -3.6808   -4.9820   -0.0628 H   0  0  0  0  0  0  0  0  0  0  0  0
   -2.3531   -4.7106    1.1393 H   0  0  0  0  0  0  0  0  0  0  0  0
    4.6540   -0.2266   -1.3381 H   0  0  0  0  0  0  0  0  0  0  0  0
    5.6915    2.0174   -2.4577 H   0  0  0  0  0  0  0  0  0  0  0  0
    4.7490    4.8507   -2.3405 H   0  0  0  0  0  0  0  0  0  0  0  0
    1.9991    8.9460   -2.2638 H   0  0  0  0  0  0  0  0  0  0  0  0
    0.7817   11.6086    0.0603 H   0  0  0  0  0  0  0  0  0  0  0  0
    1.0661   11.2165   -1.6425 H   0  0  0  0  0  0  0  0  0  0  0  0
    2.9982   11.8765    0.3290 H   0  0  0  0  0  0  0  0  0  0  0  0
    1.9196    7.8839    2.4627 H   0  0  0  0  0  0  0  0  0  0  0  0
    0.9980    5.2358   -0.2604 H   0  0  0  0  0  0  0  0  0  0  0  0
    0.9964    2.8454    0.2686 H   0  0  0  0  0  0  0  0  0  0  0  0
  1  2  2  0  0  0  0
  2  3  1  0  0  0  0
  2 12  1  0  0  0  0
  3  4  1  0  0  0  0
  3 30  1  0  0  0  0
  4  5  1  0  0  0  0
  4 11  2  0  0  0  0
  5  6  2  0  0  0  0
  5 31  1  0  0  0  0
  6  7  1  0  0  0  0
  6 10  1  0  0  0  0
  7  8  1  0  0  0  0
  7  9  1  0  0  0  0
  7 32  1  0  0  0  0
  8  9  1  0  0  0  0
  8 33  1  0  0  0  0
  8 34  1  0  0  0  0
  9 35  1  0  0  0  0
  9 36  1  0  0  0  0
 10 11  1  0  0  0  0
 12 13  1  0  0  0  0
 12 29  1  0  0  0  0
 13 14  2  0  0  0  0
 13 37  1  0  0  0  0
 14 15  1  0  0  0  0
 14 38  1  0  0  0  0
 15 16  1  0  0  0  0
 15 29  2  0  0  0  0
 16 17  2  0  0  0  0
 16 39  1  0  0  0  0
 17 18  1  0  0  0  0
 17 27  1  0  0  0  0
 18 19  1  0  0  0  0
 19 20  1  0  0  0  0
 19 26  2  0  0  0  0
 20 21  2  0  0  0  0
 20 40  1  0  0  0  0
 21 22  1  0  0  0  0
 21 24  1  0  0  0  0
 22 23  1  0  0  0  0
 22 41  1  0  0  0  0
 22 42  1  0  0  0  0
 23 43  1  0  0  0  0
 24 25  2  0  0  0  0
 25 26  1  0  0  0  0
 25 44  1  0  0  0  0
 27 28  2  0  0  0  0
 27 45  1  0  0  0  0
 28 29  1  0  0  0  0
 28 46  1  0  0  0  0
M  END
$$$$
