CHEMBL3962203
 OpenBabel04072215373D

 58 61  0  0  1  0  0  0  0  0999 V2000
    2.6123   -0.4795    1.2475 C   0  0  0  0  0  0  0  0  0  0  0  0
    2.5093    0.0285   -0.0749 O   0  0  0  0  0  0  0  0  0  0  0  0
    3.2079   -0.5315   -1.1023 C   0  0  0  0  0  0  0  0  0  0  0  0
    4.3066   -1.3496   -0.8647 C   0  0  0  0  0  0  0  0  0  0  0  0
    4.9159   -2.0816   -1.9024 C   0  0  0  0  0  0  0  0  0  0  0  0
    5.9363   -3.0149   -1.6949 C   0  0  0  0  0  0  0  0  0  0  0  0
    6.3772   -3.2563   -0.3616 N   0  0  0  0  0  0  0  0  0  0  0  0
    7.5232   -3.9579    0.0614 C   0  0  0  0  0  0  0  0  0  0  0  0
    8.6563   -4.0862   -0.7476 C   0  0  0  0  0  0  0  0  0  0  0  0
    9.7820   -4.7784   -0.3065 C   0  0  0  0  0  0  0  0  0  0  0  0
    9.8158   -5.3121    0.9804 C   0  0  0  0  0  0  0  0  0  0  0  0
   11.2267   -6.1869    1.4519 Cl  0  0  0  0  0  0  0  0  0  0  0  0
    8.7259   -5.1209    1.8332 C   0  0  0  0  0  0  0  0  0  0  0  0
    8.7114   -5.7027    3.4611 Cl  0  0  0  0  0  0  0  0  0  0  0  0
    7.5922   -4.4357    1.3772 C   0  0  0  0  0  0  0  0  0  0  0  0
    6.4837   -3.6993   -2.7168 N   0  0  0  0  0  0  0  0  0  0  0  0
    6.0043   -3.4411   -3.9380 C   0  0  0  0  0  0  0  0  0  0  0  0
    5.0352   -2.5745   -4.2438 N   0  0  0  0  0  0  0  0  0  0  0  0
    4.4932   -1.8971   -3.2237 C   0  0  0  0  0  0  0  0  0  0  0  0
    3.4809   -0.9819   -3.4668 C   0  0  0  0  0  0  0  0  0  0  0  0
    2.8331   -0.2795   -2.4341 C   0  0  0  0  0  0  0  0  0  0  0  0
    1.8956    0.6144   -2.9123 O   0  0  0  0  0  0  0  0  0  0  0  0
    1.2289    1.4135   -1.9437 C   0  0  0  0  0  0  0  0  0  0  0  0
    0.7675    2.7549   -2.4967 C   0  0  0  0  0  0  0  0  0  0  0  0
    0.1397    3.5628   -1.3399 C   0  0  3  0  0  0  0  0  0  0  0  0
   -0.2418    4.9974   -1.7241 C   0  0  0  0  0  0  0  0  0  0  0  0
    0.9337    5.8419   -1.9762 N   0  0  0  0  0  0  0  0  0  0  0  0
    1.9002    5.7929   -0.8518 C   0  0  0  0  0  0  0  0  0  0  0  0
    3.2077    6.4110   -1.3694 C   0  0  0  0  0  0  0  0  0  0  0  0
    1.3880    6.6207    0.3410 C   0  0  0  0  0  0  0  0  0  0  0  0
    2.1851    4.3430   -0.3843 C   0  0  0  0  0  0  0  0  0  0  0  0
    0.9770    3.5987   -0.1627 O   0  0  0  0  0  0  0  0  0  0  0  0
    3.1851    0.2247    1.8582 H   0  0  0  0  0  0  0  0  0  0  0  0
    3.0426   -1.4811    1.3235 H   0  0  0  0  0  0  0  0  0  0  0  0
    1.5990   -0.5413    1.6538 H   0  0  0  0  0  0  0  0  0  0  0  0
    4.7164   -1.4246    0.1368 H   0  0  0  0  0  0  0  0  0  0  0  0
    5.5712   -3.4634    0.2226 H   0  0  0  0  0  0  0  0  0  0  0  0
    8.6757   -3.6573   -1.7454 H   0  0  0  0  0  0  0  0  0  0  0  0
   10.6285   -4.8927   -0.9783 H   0  0  0  0  0  0  0  0  0  0  0  0
    6.7563   -4.2861    2.0566 H   0  0  0  0  0  0  0  0  0  0  0  0
    6.4481   -3.9899   -4.7626 H   0  0  0  0  0  0  0  0  0  0  0  0
    3.1707   -0.8095   -4.4964 H   0  0  0  0  0  0  0  0  0  0  0  0
    1.9163    1.6873   -1.1519 H   0  0  0  0  0  0  0  0  0  0  0  0
    0.3763    0.8486   -1.5513 H   0  0  0  0  0  0  0  0  0  0  0  0
    0.0572    2.6230   -3.3201 H   0  0  0  0  0  0  0  0  0  0  0  0
    1.6340    3.2716   -2.9282 H   0  0  0  0  0  0  0  0  0  0  0  0
   -0.7738    3.0393   -1.0316 H   0  0  0  0  0  0  0  0  0  0  0  0
   -0.8331    5.4370   -0.9116 H   0  0  0  0  0  0  0  0  0  0  0  0
   -0.8799    4.9880   -2.6134 H   0  0  0  0  0  0  0  0  0  0  0  0
    0.6315    6.8028   -2.1304 H   0  0  0  0  0  0  0  0  0  0  0  0
    3.0590    7.4450   -1.7008 H   0  0  0  0  0  0  0  0  0  0  0  0
    3.6040    5.8434   -2.2207 H   0  0  0  0  0  0  0  0  0  0  0  0
    3.9790    6.4168   -0.5911 H   0  0  0  0  0  0  0  0  0  0  0  0
    1.1435    7.6454    0.0411 H   0  0  0  0  0  0  0  0  0  0  0  0
    2.1510    6.6821    1.1263 H   0  0  0  0  0  0  0  0  0  0  0  0
    0.4949    6.1791    0.7957 H   0  0  0  0  0  0  0  0  0  0  0  0
    2.7357    4.3469    0.5644 H   0  0  0  0  0  0  0  0  0  0  0  0
    2.8208    3.8067   -1.0982 H   0  0  0  0  0  0  0  0  0  0  0  0
  1  2  1  0  0  0  0
  1 33  1  0  0  0  0
  1 34  1  0  0  0  0
  1 35  1  0  0  0  0
  2  3  1  0  0  0  0
  3  4  1  0  0  0  0
  3 21  2  0  0  0  0
  4  5  2  0  0  0  0
  4 36  1  0  0  0  0
  5  6  1  0  0  0  0
  5 19  1  0  0  0  0
  6  7  1  0  0  0  0
  6 16  2  0  0  0  0
  7  8  1  0  0  0  0
  7 37  1  0  0  0  0
  8  9  1  0  0  0  0
  8 15  2  0  0  0  0
  9 10  2  0  0  0  0
  9 38  1  0  0  0  0
 10 11  1  0  0  0  0
 10 39  1  0  0  0  0
 11 12  1  0  0  0  0
 11 13  2  0  0  0  0
 13 14  1  0  0  0  0
 13 15  1  0  0  0  0
 15 40  1  0  0  0  0
 16 17  1  0  0  0  0
 17 18  2  0  0  0  0
 17 41  1  0  0  0  0
 18 19  1  0  0  0  0
 19 20  2  0  0  0  0
 20 21  1  0  0  0  0
 20 42  1  0  0  0  0
 21 22  1  0  0  0  0
 22 23  1  0  0  0  0
 23 24  1  0  0  0  0
 23 43  1  0  0  0  0
 23 44  1  0  0  0  0
 24 25  1  0  0  0  0
 24 45  1  0  0  0  0
 24 46  1  0  0  0  0
 25 26  1  0  0  0  0
 25 32  1  0  0  0  0
 25 47  1  0  0  0  0
 26 27  1  0  0  0  0
 26 48  1  0  0  0  0
 26 49  1  0  0  0  0
 27 28  1  0  0  0  0
 27 50  1  0  0  0  0
 28 29  1  0  0  0  0
 28 30  1  0  0  0  0
 28 31  1  0  0  0  0
 29 51  1  0  0  0  0
 29 52  1  0  0  0  0
 29 53  1  0  0  0  0
 30 54  1  0  0  0  0
 30 55  1  0  0  0  0
 30 56  1  0  0  0  0
 31 32  1  0  0  0  0
 31 57  1  0  0  0  0
 31 58  1  0  0  0  0
M  END
$$$$
