CHEMBL4788376
 OpenBabel04072215383D

 63 65  0  0  0  0  0  0  0  0999 V2000
    4.6762    2.2065    1.2396 C   0  0  0  0  0  0  0  0  0  0  0  0
    4.3427    1.6160   -0.1257 C   0  0  0  0  0  0  0  0  0  0  0  0
    4.7911    0.2285   -0.3466 N   0  0  0  0  0  0  0  0  0  0  0  0
    4.2737   -0.7207    0.6624 C   0  0  0  0  0  0  0  0  0  0  0  0
    2.7592   -0.9310    0.7102 C   0  0  0  0  0  0  0  0  0  0  0  0
    4.4621   -0.2166   -1.7241 C   0  0  0  0  0  0  0  0  0  0  0  0
    5.0657    0.6314   -2.8682 C   0  0  0  0  0  0  0  0  0  0  0  0
    6.5148    0.6802   -2.8870 N   0  0  0  0  0  0  0  0  0  0  0  0
    7.1709    1.4170   -3.8568 C   0  0  0  0  0  0  0  0  0  0  0  0
    6.5485    2.0498   -4.7078 O   0  0  0  0  0  0  0  0  0  0  0  0
    8.6439    1.4318   -3.7947 C   0  0  0  0  0  0  0  0  0  0  0  0
    9.4939    0.4390   -3.3110 C   0  0  0  0  0  0  0  0  0  0  0  0
    9.2423   -0.9143   -2.7418 C   0  0  0  0  0  0  0  0  0  0  0  0
   10.7932    0.8531   -3.5292 N   0  0  0  0  0  0  0  0  0  0  0  0
   10.8204    2.0618   -4.1779 C   0  0  0  0  0  0  0  0  0  0  0  0
   12.0763    2.6231   -4.5490 C   0  0  0  0  0  0  0  0  0  0  0  0
   12.6754    2.3733   -5.7279 C   0  0  0  0  0  0  0  0  0  0  0  0
   12.1598    1.4338   -6.7980 C   0  0  0  0  0  0  0  0  0  0  0  0
   11.2248    0.6578   -6.7604 O   0  0  0  0  0  0  0  0  0  0  0  0
   13.0300    1.5897   -7.8625 N   0  0  0  0  0  0  0  0  0  0  0  0
   14.0632    2.4646   -7.5581 C   0  0  0  0  0  0  0  0  0  0  0  0
   15.1163    2.7822   -8.3903 C   0  0  0  0  0  0  0  0  0  0  0  0
   16.0925    3.6423   -7.8899 C   0  0  0  0  0  0  0  0  0  0  0  0
   16.0071    4.1655   -6.5817 C   0  0  0  0  0  0  0  0  0  0  0  0
   17.1375    5.0445   -6.0791 C   0  0  0  0  0  0  0  0  0  0  0  0
   16.9503    6.5254   -6.4084 C   0  0  0  0  0  0  0  0  0  0  0  0
   18.1052    7.3203   -5.9321 C   0  0  0  0  0  0  0  0  0  0  0  0
   19.0103    7.9385   -5.5580 N   0  0  0  0  0  0  0  0  0  0  0  0
   14.8973    3.8372   -5.7621 C   0  0  0  0  0  0  0  0  0  0  0  0
   13.9239    2.9748   -6.2608 C   0  0  0  0  0  0  0  0  0  0  0  0
    9.5038    2.4651   -4.3426 C   0  0  0  0  0  0  0  0  0  0  0  0
    9.0397    3.7139   -5.0132 C   0  0  0  0  0  0  0  0  0  0  0  0
    4.5393    3.2934    1.2041 H   0  0  0  0  0  0  0  0  0  0  0  0
    5.7172    2.0139    1.5172 H   0  0  0  0  0  0  0  0  0  0  0  0
    4.0196    1.8183    2.0235 H   0  0  0  0  0  0  0  0  0  0  0  0
    4.8478    2.2668   -0.8453 H   0  0  0  0  0  0  0  0  0  0  0  0
    3.2666    1.7167   -0.3093 H   0  0  0  0  0  0  0  0  0  0  0  0
    4.6129   -0.4101    1.6577 H   0  0  0  0  0  0  0  0  0  0  0  0
    4.7497   -1.6985    0.5082 H   0  0  0  0  0  0  0  0  0  0  0  0
    2.2048    0.0109    0.6849 H   0  0  0  0  0  0  0  0  0  0  0  0
    2.4835   -1.4417    1.6398 H   0  0  0  0  0  0  0  0  0  0  0  0
    2.4174   -1.5564   -0.1208 H   0  0  0  0  0  0  0  0  0  0  0  0
    3.3735   -0.2237   -1.8630 H   0  0  0  0  0  0  0  0  0  0  0  0
    4.8096   -1.2499   -1.8538 H   0  0  0  0  0  0  0  0  0  0  0  0
    4.6916    1.6601   -2.8412 H   0  0  0  0  0  0  0  0  0  0  0  0
    4.7385    0.2168   -3.8292 H   0  0  0  0  0  0  0  0  0  0  0  0
    7.0170    0.4327   -2.0452 H   0  0  0  0  0  0  0  0  0  0  0  0
    8.1846   -1.1824   -2.7233 H   0  0  0  0  0  0  0  0  0  0  0  0
    9.6219   -0.9747   -1.7169 H   0  0  0  0  0  0  0  0  0  0  0  0
    9.7444   -1.6783   -3.3446 H   0  0  0  0  0  0  0  0  0  0  0  0
   11.6104    0.2986   -3.3153 H   0  0  0  0  0  0  0  0  0  0  0  0
   12.5122    3.3403   -3.8593 H   0  0  0  0  0  0  0  0  0  0  0  0
   12.9255    1.0691   -8.7198 H   0  0  0  0  0  0  0  0  0  0  0  0
   15.1983    2.3677   -9.3899 H   0  0  0  0  0  0  0  0  0  0  0  0
   16.9476    3.8866   -8.5253 H   0  0  0  0  0  0  0  0  0  0  0  0
   18.0791    4.6888   -6.5230 H   0  0  0  0  0  0  0  0  0  0  0  0
   17.2597    4.9003   -4.9976 H   0  0  0  0  0  0  0  0  0  0  0  0
   16.0324    6.9015   -5.9410 H   0  0  0  0  0  0  0  0  0  0  0  0
   16.8400    6.6674   -7.4866 H   0  0  0  0  0  0  0  0  0  0  0  0
   14.8213    4.2299   -4.7526 H   0  0  0  0  0  0  0  0  0  0  0  0
    9.8804    4.3391   -5.3298 H   0  0  0  0  0  0  0  0  0  0  0  0
    8.4229    4.3064   -4.3296 H   0  0  0  0  0  0  0  0  0  0  0  0
    8.4508    3.4764   -5.9047 H   0  0  0  0  0  0  0  0  0  0  0  0
  1  2  1  0  0  0  0
  1 33  1  0  0  0  0
  1 34  1  0  0  0  0
  1 35  1  0  0  0  0
  2  3  1  0  0  0  0
  2 36  1  0  0  0  0
  2 37  1  0  0  0  0
  3  4  1  0  0  0  0
  3  6  1  0  0  0  0
  4  5  1  0  0  0  0
  4 38  1  0  0  0  0
  4 39  1  0  0  0  0
  5 40  1  0  0  0  0
  5 41  1  0  0  0  0
  5 42  1  0  0  0  0
  6  7  1  0  0  0  0
  6 43  1  0  0  0  0
  6 44  1  0  0  0  0
  7  8  1  0  0  0  0
  7 45  1  0  0  0  0
  7 46  1  0  0  0  0
  8  9  1  0  0  0  0
  8 47  1  0  0  0  0
  9 10  2  0  0  0  0
  9 11  1  0  0  0  0
 11 12  2  0  0  0  0
 11 31  1  0  0  0  0
 12 13  1  0  0  0  0
 12 14  1  0  0  0  0
 13 48  1  0  0  0  0
 13 49  1  0  0  0  0
 13 50  1  0  0  0  0
 14 15  1  0  0  0  0
 14 51  1  0  0  0  0
 15 16  1  0  0  0  0
 15 31  2  0  0  0  0
 16 17  2  0  0  0  0
 16 52  1  0  0  0  0
 17 18  1  0  0  0  0
 17 30  1  0  0  0  0
 18 19  2  0  0  0  0
 18 20  1  0  0  0  0
 20 21  1  0  0  0  0
 20 53  1  0  0  0  0
 21 22  1  0  0  0  0
 21 30  2  0  0  0  0
 22 23  2  0  0  0  0
 22 54  1  0  0  0  0
 23 24  1  0  0  0  0
 23 55  1  0  0  0  0
 24 25  1  0  0  0  0
 24 29  2  0  0  0  0
 25 26  1  0  0  0  0
 25 56  1  0  0  0  0
 25 57  1  0  0  0  0
 26 27  1  0  0  0  0
 26 58  1  0  0  0  0
 26 59  1  0  0  0  0
 27 28  3  0  0  0  0
 29 30  1  0  0  0  0
 29 60  1  0  0  0  0
 31 32  1  0  0  0  0
 32 61  1  0  0  0  0
 32 62  1  0  0  0  0
 32 63  1  0  0  0  0
M  END
$$$$
