CHEMBL396144
 OpenBabel04072215373D

 40 42  0  0  0  0  0  0  0  0999 V2000
    2.1118    0.0764   -0.0766 C   0  0  0  0  0  0  0  0  0  0  0  0
    0.6745   -0.0494   -0.0216 N   0  0  0  0  0  0  0  0  0  0  0  0
   -0.1995    0.9909    0.1172 C   0  0  0  0  0  0  0  0  0  0  0  0
   -1.4401    0.5675    0.2312 N   0  0  0  0  0  0  0  0  0  0  0  0
   -1.3589   -0.7839    0.1062 C   0  0  0  0  0  0  0  0  0  0  0  0
   -2.4500   -1.5839    0.1134 N   0  0  0  0  0  0  0  0  0  0  0  0
   -3.6851   -1.1175    0.7329 C   0  0  0  0  0  0  0  0  0  0  0  0
   -4.6354   -0.4802   -0.2472 C   0  0  0  0  0  0  0  0  0  0  0  0
   -5.5248   -1.2485   -1.0053 C   0  0  0  0  0  0  0  0  0  0  0  0
   -6.4253   -0.5973   -1.8367 C   0  0  0  0  0  0  0  0  0  0  0  0
   -6.4927    0.7443   -1.9681 N   0  0  0  0  0  0  0  0  0  0  0  0
   -5.6092    1.4672   -1.2470 C   0  0  0  0  0  0  0  0  0  0  0  0
   -4.6736    0.9092   -0.3910 C   0  0  0  0  0  0  0  0  0  0  0  0
   -0.0530   -1.2222   -0.0161 C   0  0  0  0  0  0  0  0  0  0  0  0
    0.4990   -2.5591   -0.0869 C   0  0  0  0  0  0  0  0  0  0  0  0
    1.6572   -2.7599   -0.4366 O   0  0  0  0  0  0  0  0  0  0  0  0
   -0.4022   -3.5462    0.2741 N   0  0  0  0  0  0  0  0  0  0  0  0
   -0.2124   -4.9384    0.2549 C   0  0  0  0  0  0  0  0  0  0  0  0
    1.0284   -5.5479    0.0575 C   0  0  0  0  0  0  0  0  0  0  0  0
    1.1401   -6.9384   -0.0100 C   0  0  0  0  0  0  0  0  0  0  0  0
    0.0051   -7.7352    0.1175 C   0  0  0  0  0  0  0  0  0  0  0  0
   -1.2338   -7.1374    0.3400 C   0  0  0  0  0  0  0  0  0  0  0  0
   -2.6378   -8.1187    0.4888 Cl  0  0  0  0  0  0  0  0  0  0  0  0
   -1.3454   -5.7470    0.4254 C   0  0  0  0  0  0  0  0  0  0  0  0
    2.3844    1.1348   -0.1132 H   0  0  0  0  0  0  0  0  0  0  0  0
    2.4823   -0.4206   -0.9761 H   0  0  0  0  0  0  0  0  0  0  0  0
    2.5307   -0.3781    0.8245 H   0  0  0  0  0  0  0  0  0  0  0  0
    0.1175    2.0257    0.1391 H   0  0  0  0  0  0  0  0  0  0  0  0
   -2.6404   -2.0440   -0.7755 H   0  0  0  0  0  0  0  0  0  0  0  0
   -3.4905   -0.4490    1.5813 H   0  0  0  0  0  0  0  0  0  0  0  0
   -4.1837   -1.9928    1.1688 H   0  0  0  0  0  0  0  0  0  0  0  0
   -5.5385   -2.3310   -0.9405 H   0  0  0  0  0  0  0  0  0  0  0  0
   -7.1458   -1.1538   -2.4285 H   0  0  0  0  0  0  0  0  0  0  0  0
   -5.6791    2.5437   -1.3711 H   0  0  0  0  0  0  0  0  0  0  0  0
   -3.9898    1.5481    0.1605 H   0  0  0  0  0  0  0  0  0  0  0  0
   -1.3280   -3.2057    0.5234 H   0  0  0  0  0  0  0  0  0  0  0  0
    1.9394   -4.9632   -0.0367 H   0  0  0  0  0  0  0  0  0  0  0  0
    2.1147   -7.3938   -0.1680 H   0  0  0  0  0  0  0  0  0  0  0  0
    0.0934   -8.8159    0.0430 H   0  0  0  0  0  0  0  0  0  0  0  0
   -2.3226   -5.3036    0.5922 H   0  0  0  0  0  0  0  0  0  0  0  0
  1  2  1  0  0  0  0
  1 25  1  0  0  0  0
  1 26  1  0  0  0  0
  1 27  1  0  0  0  0
  2  3  1  0  0  0  0
  2 14  1  0  0  0  0
  3  4  2  0  0  0  0
  3 28  1  0  0  0  0
  4  5  1  0  0  0  0
  5  6  1  0  0  0  0
  5 14  2  0  0  0  0
  6  7  1  0  0  0  0
  6 29  1  0  0  0  0
  7  8  1  0  0  0  0
  7 30  1  0  0  0  0
  7 31  1  0  0  0  0
  8  9  1  0  0  0  0
  8 13  2  0  0  0  0
  9 10  2  0  0  0  0
  9 32  1  0  0  0  0
 10 11  1  0  0  0  0
 10 33  1  0  0  0  0
 11 12  2  0  0  0  0
 12 13  1  0  0  0  0
 12 34  1  0  0  0  0
 13 35  1  0  0  0  0
 14 15  1  0  0  0  0
 15 16  2  0  0  0  0
 15 17  1  0  0  0  0
 17 18  1  0  0  0  0
 17 36  1  0  0  0  0
 18 19  1  0  0  0  0
 18 24  2  0  0  0  0
 19 20  2  0  0  0  0
 19 37  1  0  0  0  0
 20 21  1  0  0  0  0
 20 38  1  0  0  0  0
 21 22  2  0  0  0  0
 21 39  1  0  0  0  0
 22 23  1  0  0  0  0
 22 24  1  0  0  0  0
 24 40  1  0  0  0  0
M  END
$$$$
