CHEMBL3926556
 OpenBabel04072215373D

 68 70  0  0  1  0  0  0  0  0999 V2000
    3.8160   -5.7833   -0.9429 C   0  0  0  0  0  0  0  0  0  0  0  0
    3.9115   -4.7767    0.1689 O   0  0  0  0  0  0  0  0  0  0  0  0
    4.2970   -4.5518    1.4864 C   0  0  0  0  0  0  0  0  0  0  0  0
    4.2680   -3.2911    2.4490 C   0  0  2  0  0  0  0  0  0  0  0  0
    2.9400   -2.8832    2.4483 O   0  0  0  0  0  0  0  0  0  0  0  0
    5.0659   -2.0343    2.0107 C   0  0  0  0  0  0  0  0  0  0  0  0
    6.5820   -2.2119    1.9253 N   0  0  0  0  0  0  0  0  0  0  0  0
    7.3623   -1.4170    0.9527 C   0  0  0  0  0  0  0  0  0  0  0  0
    6.8660   -0.3493    0.7306 C   0  0  0  0  0  0  0  0  0  0  0  0
    7.0893    0.8174   -0.4415 C   0  0  0  0  0  0  0  0  0  0  0  0
    6.2873    2.1591   -0.8373 O   0  0  0  0  0  0  0  0  0  0  0  0
    4.9613    2.9659   -0.3137 C   0  0  0  0  0  0  0  0  0  0  0  0
    8.3633    0.6837   -0.8067 C   0  0  0  0  0  0  0  0  0  0  0  0
    9.1133   -0.4627   -0.3880 C   0  0  0  0  0  0  0  0  0  0  0  0
   10.3891   -0.5256   -0.7127 O   0  0  0  0  0  0  0  0  0  0  0  0
   11.1287   -1.6143   -0.3247 C   0  0  0  0  0  0  0  0  0  0  0  0
    8.5165   -1.5488    0.3604 C   0  0  0  0  0  0  0  0  0  0  0  0
    7.3037   -2.9364    2.9097 C   0  0  0  0  0  0  0  0  0  0  0  0
    6.6569   -2.8053    4.0617 C   0  0  0  0  0  0  0  0  0  0  0  0
    6.9067   -3.6006    4.9754 C   0  0  0  0  0  0  0  0  0  0  0  0
    7.8017   -4.4797    4.9035 C   0  0  0  0  0  0  0  0  0  0  0  0
    7.8268   -4.9101    5.9209 N   0  0  0  0  0  0  0  0  0  0  0  0
    7.8170   -5.2965    6.9543 C   0  0  0  0  0  0  0  0  0  0  0  0
    8.5617   -6.3074    7.0237 C   0  0  0  0  0  0  0  0  0  0  0  0
    8.1111   -6.6811    8.9368 C   0  0  0  0  0  0  0  0  0  0  0  0
    8.7124   -7.8359    9.6681 C   0  0  0  0  0  0  0  0  0  0  0  0
    8.0985   -8.1250   10.8752 N   0  0  0  0  0  0  0  0  0  0  0  0
    7.1032   -7.2781   11.0566 N   0  0  0  0  0  0  0  0  0  0  0  0
    6.1967   -7.3090   12.2678 C   0  0  0  0  0  0  0  0  0  0  0  0
    5.4657   -8.6524   12.3694 C   0  0  0  0  0  0  0  0  0  0  0  0
    7.0370   -7.1305   13.5213 C   0  0  0  0  0  0  0  0  0  0  0  0
    7.0422   -6.4136    9.9419 C   0  0  0  0  0  0  0  0  0  0  0  0
    9.2936   -6.2411    5.3361 N   0  0  0  0  0  0  0  0  0  0  0  0
    8.7144   -5.0124    4.1865 C   0  0  0  0  0  0  0  0  0  0  0  0
    8.4795   -3.9644    2.8038 C   0  0  0  0  0  0  0  0  0  0  0  0
    0.7994    0.0920   -0.0073 Cl  0  0  0  0  0  0  0  0  0  0  0  0
    2.8473   -5.9104   -1.6383 H   0  0  0  0  0  0  0  0  0  0  0  0
    4.7090   -5.9526   -1.1210 H   0  0  0  0  0  0  0  0  0  0  0  0
    3.4095   -5.1072   -1.1498 H   0  0  0  0  0  0  0  0  0  0  0  0
    5.3792   -4.5988    1.3611 H   0  0  0  0  0  0  0  0  0  0  0  0
    3.5752   -5.2268    1.8260 H   0  0  0  0  0  0  0  0  0  0  0  0
    4.5509   -3.5239    3.5156 H   0  0  0  0  0  0  0  0  0  0  0  0
    2.6100   -2.9150    1.5048 H   0  0  0  0  0  0  0  0  0  0  0  0
    4.8646   -1.2608    2.7710 H   0  0  0  0  0  0  0  0  0  0  0  0
    4.5544   -1.7051    1.0634 H   0  0  0  0  0  0  0  0  0  0  0  0
    6.2407   -0.2875    1.7243 H   0  0  0  0  0  0  0  0  0  0  0  0
    4.8983    3.9676    0.0617 H   0  0  0  0  0  0  0  0  0  0  0  0
    4.6765    3.1198    0.9612 H   0  0  0  0  0  0  0  0  0  0  0  0
    4.0221    2.3603   -0.2069 H   0  0  0  0  0  0  0  0  0  0  0  0
    8.7215    1.5310   -1.3499 H   0  0  0  0  0  0  0  0  0  0  0  0
   12.1308   -1.4796   -0.6827 H   0  0  0  0  0  0  0  0  0  0  0  0
   10.6955   -2.5670   -0.7274 H   0  0  0  0  0  0  0  0  0  0  0  0
   11.1192   -1.6839    0.7872 H   0  0  0  0  0  0  0  0  0  0  0  0
    8.8988   -2.4710    0.5545 H   0  0  0  0  0  0  0  0  0  0  0  0
    5.8710   -2.1659    4.3292 H   0  0  0  0  0  0  0  0  0  0  0  0
    6.3227   -3.6155    5.8910 H   0  0  0  0  0  0  0  0  0  0  0  0
    7.1756   -4.8047    7.6334 H   0  0  0  0  0  0  0  0  0  0  0  0
    9.4914   -8.4898    9.3441 H   0  0  0  0  0  0  0  0  0  0  0  0
    5.4033   -6.5075   12.2739 H   0  0  0  0  0  0  0  0  0  0  0  0
    6.2121   -9.4668   12.3876 H   0  0  0  0  0  0  0  0  0  0  0  0
    4.7976   -8.7928   11.5033 H   0  0  0  0  0  0  0  0  0  0  0  0
    4.8541   -8.7163   13.2975 H   0  0  0  0  0  0  0  0  0  0  0  0
    7.8047   -7.9298   13.5438 H   0  0  0  0  0  0  0  0  0  0  0  0
    6.4416   -7.1832   14.4449 H   0  0  0  0  0  0  0  0  0  0  0  0
    7.5403   -6.1476   13.4730 H   0  0  0  0  0  0  0  0  0  0  0  0
    6.2201   -5.7732    9.8804 H   0  0  0  0  0  0  0  0  0  0  0  0
    8.9226   -3.6709    1.7493 H   0  0  0  0  0  0  0  0  0  0  0  0
    2.1315    0.2488   -0.1563 H   0  0  0  0  0  0  0  0  0  0  0  0
  1  2  1  0  0  0  0
  1 37  1  0  0  0  0
  1 38  1  0  0  0  0
  1 39  1  0  0  0  0
  2  3  1  0  0  0  0
  3 40  1  0  0  0  0
  3 41  1  0  0  0  0
  4  6  1  0  0  0  0
  4  5  1  0  0  0  0
  4  3  1  0  0  0  0
  4 42  1  1  0  0  0
  5 43  1  0  0  0  0
  6  7  1  0  0  0  0
  6 44  1  0  0  0  0
  6 45  1  0  0  0  0
  7  8  1  0  0  0  0
  7 18  1  0  0  0  0
  8  9  1  0  0  0  0
  8 17  2  0  0  0  0
  9 10  2  0  0  0  0
  9 46  1  0  0  0  0
 10 11  1  0  0  0  0
 10 13  1  0  0  0  0
 11 12  1  0  0  0  0
 12 47  1  0  0  0  0
 12 48  1  0  0  0  0
 12 49  1  0  0  0  0
 13 14  2  0  0  0  0
 13 50  1  0  0  0  0
 14 15  1  0  0  0  0
 14 17  1  0  0  0  0
 15 16  1  0  0  0  0
 16 51  1  0  0  0  0
 16 52  1  0  0  0  0
 16 53  1  0  0  0  0
 17 54  1  0  0  0  0
 18 19  1  0  0  0  0
 18 35  2  0  0  0  0
 19 20  2  0  0  0  0
 19 55  1  0  0  0  0
 20 21  1  0  0  0  0
 20 56  1  0  0  0  0
 21 22  1  0  0  0  0
 21 34  2  0  0  0  0
 22 23  2  0  0  0  0
 23 24  1  0  0  0  0
 23 57  1  0  0  0  0
 24 25  1  0  0  0  0
 24 33  2  0  0  0  0
 25 26  1  0  0  0  0
 25 32  2  0  0  0  0
 26 27  2  0  0  0  0
 26 58  1  0  0  0  0
 27 28  1  0  0  0  0
 28 29  1  0  0  0  0
 28 32  1  0  0  0  0
 29 30  1  0  0  0  0
 29 31  1  0  0  0  0
 29 59  1  0  0  0  0
 30 60  1  0  0  0  0
 30 61  1  0  0  0  0
 30 62  1  0  0  0  0
 31 63  1  0  0  0  0
 31 64  1  0  0  0  0
 31 65  1  0  0  0  0
 32 66  1  0  0  0  0
 33 34  1  0  0  0  0
 34 35  1  0  0  0  0
 35 67  1  0  0  0  0
 36 68  1  0  0  0  0
M  END
$$$$
