CHEMBL270342
 OpenBabel04072215363D

 49 53  0  0  0  0  0  0  0  0999 V2000
    5.0960    4.0291  -12.6849 C   0  0  0  0  0  0  0  0  0  0  0  0
    4.7901    2.6593  -12.4418 O   0  0  0  0  0  0  0  0  0  0  0  0
    4.8818    2.2667  -11.1342 C   0  0  0  0  0  0  0  0  0  0  0  0
    4.7624    3.1185  -10.0463 C   0  0  0  0  0  0  0  0  0  0  0  0
    4.8803    2.6039   -8.7569 C   0  0  0  0  0  0  0  0  0  0  0  0
    5.0451    1.2186   -8.5285 C   0  0  0  0  0  0  0  0  0  0  0  0
    5.0563    0.6117   -7.2499 C   0  0  0  0  0  0  0  0  0  0  0  0
    4.9199    1.2958   -6.0580 O   0  0  0  0  0  0  0  0  0  0  0  0
    3.8246    2.0998   -5.8324 C   0  0  0  0  0  0  0  0  0  0  0  0
    3.9445    2.9864   -4.7681 C   0  0  0  0  0  0  0  0  0  0  0  0
    2.9073    3.8777   -4.4642 C   0  0  0  0  0  0  0  0  0  0  0  0
    1.7317    3.9602   -5.2553 C   0  0  0  0  0  0  0  0  0  0  0  0
    0.6334    4.8511   -5.0461 C   0  0  0  0  0  0  0  0  0  0  0  0
    0.4981    5.7875   -3.8919 C   0  0  0  0  0  0  0  0  0  0  0  0
   -0.5970    5.9072   -3.3470 O   0  0  0  0  0  0  0  0  0  0  0  0
    1.6063    6.5242   -3.5210 N   0  0  0  0  0  0  0  0  0  0  0  0
    1.5685    7.4065   -2.3937 C   0  0  0  0  0  0  0  0  0  0  0  0
    2.8190    8.0397   -1.8533 C   0  0  0  0  0  0  0  0  0  0  0  0
    2.1264    6.9666   -1.0659 C   0  0  0  0  0  0  0  0  0  0  0  0
   -0.4823    4.8243   -5.9063 C   0  0  0  0  0  0  0  0  0  0  0  0
   -0.5335    3.9435   -6.9783 C   0  0  0  0  0  0  0  0  0  0  0  0
    0.5147    3.0555   -7.1842 C   0  0  0  0  0  0  0  0  0  0  0  0
    1.6322    3.0415   -6.3362 C   0  0  0  0  0  0  0  0  0  0  0  0
    2.6452    2.0973   -6.5750 C   0  0  0  0  0  0  0  0  0  0  0  0
    5.3019   -0.7525   -7.1253 C   0  0  0  0  0  0  0  0  0  0  0  0
    5.4703   -1.4870   -8.2763 C   0  0  0  0  0  0  0  0  0  0  0  0
    5.3993   -0.9605   -9.5181 N   0  0  0  0  0  0  0  0  0  0  0  0
    5.1839    0.3611   -9.6406 C   0  0  0  0  0  0  0  0  0  0  0  0
    5.0963    0.9026  -10.9206 C   0  0  0  0  0  0  0  0  0  0  0  0
    5.1335    4.1790  -13.7718 H   0  0  0  0  0  0  0  0  0  0  0  0
    6.0787    4.2903  -12.2767 H   0  0  0  0  0  0  0  0  0  0  0  0
    4.3162    4.6874  -12.2859 H   0  0  0  0  0  0  0  0  0  0  0  0
    4.5534    4.1769  -10.1549 H   0  0  0  0  0  0  0  0  0  0  0  0
    4.8122    3.3003   -7.9285 H   0  0  0  0  0  0  0  0  0  0  0  0
    4.8492    2.9871   -4.1640 H   0  0  0  0  0  0  0  0  0  0  0  0
    3.0447    4.5056   -3.5888 H   0  0  0  0  0  0  0  0  0  0  0  0
    2.4264    6.5236   -4.1132 H   0  0  0  0  0  0  0  0  0  0  0  0
    0.6625    8.0110   -2.3584 H   0  0  0  0  0  0  0  0  0  0  0  0
    2.7494    9.0581   -1.4865 H   0  0  0  0  0  0  0  0  0  0  0  0
    3.7720    7.7955   -2.3152 H   0  0  0  0  0  0  0  0  0  0  0  0
    1.5814    7.2548   -0.1740 H   0  0  0  0  0  0  0  0  0  0  0  0
    2.5978    5.9948   -0.9982 H   0  0  0  0  0  0  0  0  0  0  0  0
   -1.3247    5.4905   -5.7281 H   0  0  0  0  0  0  0  0  0  0  0  0
   -1.3983    3.9316   -7.6365 H   0  0  0  0  0  0  0  0  0  0  0  0
    0.4491    2.3626   -8.0221 H   0  0  0  0  0  0  0  0  0  0  0  0
    2.5121    1.3768   -7.3793 H   0  0  0  0  0  0  0  0  0  0  0  0
    5.3585   -1.2261   -6.1518 H   0  0  0  0  0  0  0  0  0  0  0  0
    5.6704   -2.5536   -8.2399 H   0  0  0  0  0  0  0  0  0  0  0  0
    5.1924    0.2429  -11.7730 H   0  0  0  0  0  0  0  0  0  0  0  0
  1  2  1  0  0  0  0
  1 30  1  0  0  0  0
  1 31  1  0  0  0  0
  1 32  1  0  0  0  0
  2  3  1  0  0  0  0
  3  4  1  0  0  0  0
  3 29  2  0  0  0  0
  4  5  2  0  0  0  0
  4 33  1  0  0  0  0
  5  6  1  0  0  0  0
  5 34  1  0  0  0  0
  6  7  1  0  0  0  0
  6 28  2  0  0  0  0
  7  8  1  0  0  0  0
  7 25  2  0  0  0  0
  8  9  1  0  0  0  0
  9 10  1  0  0  0  0
  9 24  2  0  0  0  0
 10 11  2  0  0  0  0
 10 35  1  0  0  0  0
 11 12  1  0  0  0  0
 11 36  1  0  0  0  0
 12 13  1  0  0  0  0
 12 23  2  0  0  0  0
 13 14  1  0  0  0  0
 13 20  2  0  0  0  0
 14 15  2  0  0  0  0
 14 16  1  0  0  0  0
 16 17  1  0  0  0  0
 16 37  1  0  0  0  0
 17 18  1  0  0  0  0
 17 19  1  0  0  0  0
 17 38  1  0  0  0  0
 18 19  1  0  0  0  0
 18 39  1  0  0  0  0
 18 40  1  0  0  0  0
 19 41  1  0  0  0  0
 19 42  1  0  0  0  0
 20 21  1  0  0  0  0
 20 43  1  0  0  0  0
 21 22  2  0  0  0  0
 21 44  1  0  0  0  0
 22 23  1  0  0  0  0
 22 45  1  0  0  0  0
 23 24  1  0  0  0  0
 24 46  1  0  0  0  0
 25 26  1  0  0  0  0
 25 47  1  0  0  0  0
 26 27  2  0  0  0  0
 26 48  1  0  0  0  0
 27 28  1  0  0  0  0
 28 29  1  0  0  0  0
 29 49  1  0  0  0  0
M  END
$$$$
