CHEMBL3358977
 OpenBabel04072215363D

 48 51  0  0  0  0  0  0  0  0999 V2000
    5.8492   -1.0801    3.9391 C   0  0  0  0  0  0  0  0  0  0  0  0
    5.6240   -0.4724    2.6726 O   0  0  0  0  0  0  0  0  0  0  0  0
    4.8851   -1.1708    1.7500 C   0  0  0  0  0  0  0  0  0  0  0  0
    4.5380   -2.5224    1.9069 C   0  0  0  0  0  0  0  0  0  0  0  0
    3.7653   -3.1676    0.9421 C   0  0  0  0  0  0  0  0  0  0  0  0
    3.3541   -4.5820    1.1451 C   0  0  0  0  0  0  0  0  0  0  0  0
    3.0634   -4.9745    2.3526 N   0  0  0  0  0  0  0  0  0  0  0  0
    2.5639   -6.2428    2.4859 C   0  0  0  0  0  0  0  0  0  0  0  0
    1.9159   -6.5016    3.7220 C   0  0  0  0  0  0  0  0  0  0  0  0
    2.4929   -6.9689    4.8855 C   0  0  0  0  0  0  0  0  0  0  0  0
    1.4658   -7.0891    5.7820 N   0  0  0  0  0  0  0  0  0  0  0  0
    0.2749   -7.1768    5.0892 C   0  0  0  0  0  0  0  0  0  0  0  0
   -0.9583   -7.7529    5.4039 C   0  0  0  0  0  0  0  0  0  0  0  0
   -1.9948   -7.5735    4.4764 C   0  0  0  0  0  0  0  0  0  0  0  0
   -1.8186   -6.7534    3.3664 C   0  0  0  0  0  0  0  0  0  0  0  0
   -2.8349   -6.5142    2.4837 O   0  0  0  0  0  0  0  0  0  0  0  0
   -0.5852   -6.1936    3.0631 C   0  0  0  0  0  0  0  0  0  0  0  0
    0.5032   -6.5263    3.8856 C   0  0  0  0  0  0  0  0  0  0  0  0
    2.4682   -7.1348    1.4860 C   0  0  0  0  0  0  0  0  0  0  0  0
    2.8453   -6.7928    0.2177 N   0  0  0  0  0  0  0  0  0  0  0  0
    3.2705   -5.5223   -0.0786 C   0  0  0  0  0  0  0  0  0  0  0  0
    3.5528   -5.1713   -1.2153 O   0  0  0  0  0  0  0  0  0  0  0  0
    3.2856   -2.4644   -0.1610 C   0  0  0  0  0  0  0  0  0  0  0  0
    3.6025   -1.1193   -0.3253 C   0  0  0  0  0  0  0  0  0  0  0  0
    3.1435   -0.3820   -1.3976 O   0  0  0  0  0  0  0  0  0  0  0  0
    1.9205   -0.8161   -1.9626 C   0  0  0  0  0  0  0  0  0  0  0  0
    4.4474   -0.4750    0.6074 C   0  0  0  0  0  0  0  0  0  0  0  0
    4.7013    0.8553    0.3381 O   0  0  0  0  0  0  0  0  0  0  0  0
    6.0220    1.3012    0.6353 C   0  0  0  0  0  0  0  0  0  0  0  0
    6.3646   -0.3489    4.5700 H   0  0  0  0  0  0  0  0  0  0  0  0
    6.5012   -1.9534    3.8473 H   0  0  0  0  0  0  0  0  0  0  0  0
    4.9053   -1.3377    4.4329 H   0  0  0  0  0  0  0  0  0  0  0  0
    4.8525   -3.0890    2.7778 H   0  0  0  0  0  0  0  0  0  0  0  0
    3.5162   -7.1935    5.1487 H   0  0  0  0  0  0  0  0  0  0  0  0
    1.5661   -7.1708    6.7849 H   0  0  0  0  0  0  0  0  0  0  0  0
   -1.0933   -8.3738    6.2836 H   0  0  0  0  0  0  0  0  0  0  0  0
   -2.9394   -8.0859    4.6387 H   0  0  0  0  0  0  0  0  0  0  0  0
   -3.6345   -6.9698    2.7998 H   0  0  0  0  0  0  0  0  0  0  0  0
   -0.4487   -5.5891    2.1698 H   0  0  0  0  0  0  0  0  0  0  0  0
    2.0263   -8.1148    1.6156 H   0  0  0  0  0  0  0  0  0  0  0  0
    2.7128   -7.4375   -0.5556 H   0  0  0  0  0  0  0  0  0  0  0  0
    2.6415   -2.9756   -0.8799 H   0  0  0  0  0  0  0  0  0  0  0  0
    1.5538   -0.0291   -2.6286 H   0  0  0  0  0  0  0  0  0  0  0  0
    1.1522   -0.9848   -1.1921 H   0  0  0  0  0  0  0  0  0  0  0  0
    2.0630   -1.7213   -2.5700 H   0  0  0  0  0  0  0  0  0  0  0  0
    6.2409    2.1486   -0.0220 H   0  0  0  0  0  0  0  0  0  0  0  0
    6.7853    0.5353    0.4512 H   0  0  0  0  0  0  0  0  0  0  0  0
    6.0749    1.6744    1.6639 H   0  0  0  0  0  0  0  0  0  0  0  0
  1  2  1  0  0  0  0
  1 30  1  0  0  0  0
  1 31  1  0  0  0  0
  1 32  1  0  0  0  0
  2  3  1  0  0  0  0
  3  4  1  0  0  0  0
  3 27  2  0  0  0  0
  4  5  2  0  0  0  0
  4 33  1  0  0  0  0
  5  6  1  0  0  0  0
  5 23  1  0  0  0  0
  6  7  2  0  0  0  0
  6 21  1  0  0  0  0
  7  8  1  0  0  0  0
  8  9  1  0  0  0  0
  8 19  2  0  0  0  0
  9 10  2  0  0  0  0
  9 18  1  0  0  0  0
 10 11  1  0  0  0  0
 10 34  1  0  0  0  0
 11 12  1  0  0  0  0
 11 35  1  0  0  0  0
 12 13  1  0  0  0  0
 12 18  2  0  0  0  0
 13 14  2  0  0  0  0
 13 36  1  0  0  0  0
 14 15  1  0  0  0  0
 14 37  1  0  0  0  0
 15 16  1  0  0  0  0
 15 17  2  0  0  0  0
 16 38  1  0  0  0  0
 17 18  1  0  0  0  0
 17 39  1  0  0  0  0
 19 20  1  0  0  0  0
 19 40  1  0  0  0  0
 20 21  1  0  0  0  0
 20 41  1  0  0  0  0
 21 22  2  0  0  0  0
 23 24  2  0  0  0  0
 23 42  1  0  0  0  0
 24 25  1  0  0  0  0
 24 27  1  0  0  0  0
 25 26  1  0  0  0  0
 26 43  1  0  0  0  0
 26 44  1  0  0  0  0
 26 45  1  0  0  0  0
 27 28  1  0  0  0  0
 28 29  1  0  0  0  0
 29 46  1  0  0  0  0
 29 47  1  0  0  0  0
 29 48  1  0  0  0  0
M  END
$$$$
