CHEMBL1940871
 OpenBabel04072215363D

 33 35  0  0  0  0  0  0  0  0999 V2000
   -1.4586    2.6911    0.0051 C   0  0  0  0  0  0  0  0  0  0  0  0
   -1.7108    1.2059    0.0041 C   0  0  0  0  0  0  0  0  0  0  0  0
   -3.0274    0.7223    0.0012 C   0  0  0  0  0  0  0  0  0  0  0  0
   -3.2722   -0.6458   -0.0016 C   0  0  0  0  0  0  0  0  0  0  0  0
   -2.2023   -1.5400   -0.0095 C   0  0  0  0  0  0  0  0  0  0  0  0
   -0.8774   -1.0671   -0.0107 C   0  0  0  0  0  0  0  0  0  0  0  0
    0.2244   -1.9430   -0.0307 C   0  0  0  0  0  0  0  0  0  0  0  0
    1.5397   -1.4548   -0.0320 C   0  0  0  0  0  0  0  0  0  0  0  0
    2.6406   -2.4398   -0.0483 C   0  0  0  0  0  0  0  0  0  0  0  0
    3.8188   -2.2445   -0.6616 C   0  0  0  0  0  0  0  0  0  0  0  0
    4.9193   -3.2573   -0.6382 C   0  0  0  0  0  0  0  0  0  0  0  0
    4.6589   -4.4394   -0.4281 O   0  0  0  0  0  0  0  0  0  0  0  0
    6.2549   -2.7321   -0.9035 C   0  0  0  0  0  0  0  0  0  0  0  0
    6.7846   -1.4922   -0.5790 C   0  0  0  0  0  0  0  0  0  0  0  0
    8.1181   -1.3234   -1.0572 C   0  0  0  0  0  0  0  0  0  0  0  0
    8.5487   -2.4443   -1.7188 C   0  0  0  0  0  0  0  0  0  0  0  0
   10.3973   -2.6021   -2.6007 I   0  0  0  0  0  0  0  0  0  0  0  0
    7.4034   -3.6954   -1.7365 S   0  0  0  0  0  0  0  0  0  0  0  0
    1.6576   -0.0658    0.0361 C   0  0  0  0  0  0  0  0  0  0  0  0
    3.1549    0.7782    0.1978 Cl  0  0  0  0  0  0  0  0  0  0  0  0
    0.6237    0.8021    0.0381 N   0  0  0  0  0  0  0  0  0  0  0  0
   -0.6269    0.3211    0.0076 C   0  0  0  0  0  0  0  0  0  0  0  0
   -2.3935    3.2601   -0.0040 H   0  0  0  0  0  0  0  0  0  0  0  0
   -0.8876    2.9775   -0.8849 H   0  0  0  0  0  0  0  0  0  0  0  0
   -0.9008    2.9807    0.9019 H   0  0  0  0  0  0  0  0  0  0  0  0
   -3.8670    1.4154    0.0018 H   0  0  0  0  0  0  0  0  0  0  0  0
   -4.2949   -1.0150    0.0006 H   0  0  0  0  0  0  0  0  0  0  0  0
   -2.4109   -2.6068   -0.0127 H   0  0  0  0  0  0  0  0  0  0  0  0
    0.0468   -3.0177   -0.0511 H   0  0  0  0  0  0  0  0  0  0  0  0
    2.4492   -3.3846    0.4595 H   0  0  0  0  0  0  0  0  0  0  0  0
    4.0438   -1.3409   -1.2128 H   0  0  0  0  0  0  0  0  0  0  0  0
    6.2469   -0.7337   -0.0222 H   0  0  0  0  0  0  0  0  0  0  0  0
    8.7082   -0.4237   -0.9183 H   0  0  0  0  0  0  0  0  0  0  0  0
  1  2  1  0  0  0  0
  1 23  1  0  0  0  0
  1 24  1  0  0  0  0
  1 25  1  0  0  0  0
  2  3  1  0  0  0  0
  2 22  2  0  0  0  0
  3  4  2  0  0  0  0
  3 26  1  0  0  0  0
  4  5  1  0  0  0  0
  4 27  1  0  0  0  0
  5  6  2  0  0  0  0
  5 28  1  0  0  0  0
  6  7  1  0  0  0  0
  6 22  1  0  0  0  0
  7  8  2  0  0  0  0
  7 29  1  0  0  0  0
  8  9  1  0  0  0  0
  8 19  1  0  0  0  0
  9 10  2  0  0  0  0
  9 30  1  0  0  0  0
 10 11  1  0  0  0  0
 10 31  1  0  0  0  0
 11 12  2  0  0  0  0
 11 13  1  0  0  0  0
 13 14  2  0  0  0  0
 13 18  1  0  0  0  0
 14 15  1  0  0  0  0
 14 32  1  0  0  0  0
 15 16  2  0  0  0  0
 15 33  1  0  0  0  0
 16 17  1  0  0  0  0
 16 18  1  0  0  0  0
 19 20  1  0  0  0  0
 19 21  2  0  0  0  0
 21 22  1  0  0  0  0
M  END
$$$$
