CHEMBL3924928
 OpenBabel04072215373D

 51 54  0  0  0  0  0  0  0  0999 V2000
    2.8039   -2.9749    0.1928 O   0  0  0  0  0  0  0  0  0  0  0  0
    2.3092   -1.8751    0.4110 C   0  0  0  0  0  0  0  0  0  0  0  0
    0.9687   -1.5760    0.2122 N   0  0  0  0  0  0  0  0  0  0  0  0
    0.0039   -2.5000   -0.2665 C   0  0  0  0  0  0  0  0  0  0  0  0
    0.2041   -3.8806   -0.2517 C   0  0  0  0  0  0  0  0  0  0  0  0
   -0.7404   -4.7495   -0.7978 C   0  0  0  0  0  0  0  0  0  0  0  0
   -1.9173   -4.2573   -1.3607 C   0  0  0  0  0  0  0  0  0  0  0  0
   -2.9957   -5.4314   -2.0171 Cl  0  0  0  0  0  0  0  0  0  0  0  0
   -2.1657   -2.8809   -1.3662 C   0  0  0  0  0  0  0  0  0  0  0  0
   -3.4033   -2.2516   -1.9507 C   0  0  0  0  0  0  0  0  0  0  0  0
   -4.2805   -3.0842   -2.5672 F   0  0  0  0  0  0  0  0  0  0  0  0
   -4.1292   -1.5944   -1.0008 F   0  0  0  0  0  0  0  0  0  0  0  0
   -3.0915   -1.3043   -2.8834 F   0  0  0  0  0  0  0  0  0  0  0  0
   -1.1953   -2.0127   -0.7968 C   0  0  0  0  0  0  0  0  0  0  0  0
    3.0476   -0.7778    0.8235 N   0  0  0  0  0  0  0  0  0  0  0  0
    4.4650   -0.7686    0.9325 C   0  0  0  0  0  0  0  0  0  0  0  0
    5.2447   -1.9234    1.0531 C   0  0  0  0  0  0  0  0  0  0  0  0
    6.6418   -1.8510    1.0151 C   0  0  0  0  0  0  0  0  0  0  0  0
    7.2776   -0.6182    0.8787 C   0  0  0  0  0  0  0  0  0  0  0  0
    8.6472   -0.6448    0.7323 O   0  0  0  0  0  0  0  0  0  0  0  0
    9.3939    0.3518    1.3492 C   0  0  0  0  0  0  0  0  0  0  0  0
   10.6601    0.5768    0.8497 C   0  0  0  0  0  0  0  0  0  0  0  0
   11.3937    1.5456    1.5027 C   0  0  0  0  0  0  0  0  0  0  0  0
   12.7118    1.7973    1.0789 N   0  0  0  0  0  0  0  0  0  0  0  0
   13.5643    2.6803    1.7107 C   0  0  0  0  0  0  0  0  0  0  0  0
   13.3078    3.3909    2.6741 O   0  0  0  0  0  0  0  0  0  0  0  0
   14.9498    2.7840    1.1662 C   0  0  0  0  0  0  0  0  0  0  0  0
   15.1607    3.2948   -0.2393 C   0  0  0  0  0  0  0  0  0  0  0  0
   15.5829    1.8998    0.1230 C   0  0  0  0  0  0  0  0  0  0  0  0
   10.8903    2.2342    2.5341 N   0  0  0  0  0  0  0  0  0  0  0  0
    9.6599    1.9285    2.9454 C   0  0  0  0  0  0  0  0  0  0  0  0
    8.8780    0.9943    2.4100 N   0  0  0  0  0  0  0  0  0  0  0  0
    6.5093    0.5455    0.7971 C   0  0  0  0  0  0  0  0  0  0  0  0
    5.1190    0.4632    0.8553 C   0  0  0  0  0  0  0  0  0  0  0  0
    4.3973    1.5921    0.7663 F   0  0  0  0  0  0  0  0  0  0  0  0
    0.7066   -0.6016    0.2245 H   0  0  0  0  0  0  0  0  0  0  0  0
    1.0907   -4.3301    0.1848 H   0  0  0  0  0  0  0  0  0  0  0  0
   -0.5352   -5.8183   -0.7835 H   0  0  0  0  0  0  0  0  0  0  0  0
   -1.3865   -0.9398   -0.8106 H   0  0  0  0  0  0  0  0  0  0  0  0
    2.6119    0.1345    0.7976 H   0  0  0  0  0  0  0  0  0  0  0  0
    4.7952   -2.9057    1.1703 H   0  0  0  0  0  0  0  0  0  0  0  0
    7.2235   -2.7675    1.0808 H   0  0  0  0  0  0  0  0  0  0  0  0
   11.0378    0.0137    0.0098 H   0  0  0  0  0  0  0  0  0  0  0  0
   13.0565    1.2827    0.2859 H   0  0  0  0  0  0  0  0  0  0  0  0
   15.6393    3.1631    1.9189 H   0  0  0  0  0  0  0  0  0  0  0  0
   15.9244    4.0530   -0.3751 H   0  0  0  0  0  0  0  0  0  0  0  0
   14.2966    3.4225   -0.8808 H   0  0  0  0  0  0  0  0  0  0  0  0
   16.6482    1.7089    0.2222 H   0  0  0  0  0  0  0  0  0  0  0  0
   15.0432    1.0668   -0.3032 H   0  0  0  0  0  0  0  0  0  0  0  0
    9.2664    2.4919    3.7829 H   0  0  0  0  0  0  0  0  0  0  0  0
    6.9698    1.5201    0.6771 H   0  0  0  0  0  0  0  0  0  0  0  0
  1  2  2  0  0  0  0
  2  3  1  0  0  0  0
  2 15  1  0  0  0  0
  3  4  1  0  0  0  0
  3 36  1  0  0  0  0
  4  5  1  0  0  0  0
  4 14  2  0  0  0  0
  5  6  2  0  0  0  0
  5 37  1  0  0  0  0
  6  7  1  0  0  0  0
  6 38  1  0  0  0  0
  7  8  1  0  0  0  0
  7  9  2  0  0  0  0
  9 10  1  0  0  0  0
  9 14  1  0  0  0  0
 10 11  1  0  0  0  0
 10 12  1  0  0  0  0
 10 13  1  0  0  0  0
 14 39  1  0  0  0  0
 15 16  1  0  0  0  0
 15 40  1  0  0  0  0
 16 17  1  0  0  0  0
 16 34  2  0  0  0  0
 17 18  2  0  0  0  0
 17 41  1  0  0  0  0
 18 19  1  0  0  0  0
 18 42  1  0  0  0  0
 19 20  1  0  0  0  0
 19 33  2  0  0  0  0
 20 21  1  0  0  0  0
 21 22  1  0  0  0  0
 21 32  2  0  0  0  0
 22 23  2  0  0  0  0
 22 43  1  0  0  0  0
 23 24  1  0  0  0  0
 23 30  1  0  0  0  0
 24 25  1  0  0  0  0
 24 44  1  0  0  0  0
 25 26  2  0  0  0  0
 25 27  1  0  0  0  0
 27 28  1  0  0  0  0
 27 29  1  0  0  0  0
 27 45  1  0  0  0  0
 28 29  1  0  0  0  0
 28 46  1  0  0  0  0
 28 47  1  0  0  0  0
 29 48  1  0  0  0  0
 29 49  1  0  0  0  0
 30 31  2  0  0  0  0
 31 32  1  0  0  0  0
 31 50  1  0  0  0  0
 33 34  1  0  0  0  0
 33 51  1  0  0  0  0
 34 35  1  0  0  0  0
M  END
$$$$
