CHEMBL4217649
 OpenBabel04072215383D

 69 74  0  0  0  0  0  0  0  0999 V2000
    1.2464   -0.4248    0.7630 C   0  0  0  0  0  0  0  0  0  0  0  0
    2.2033   -0.3449   -0.4220 C   0  0  0  0  0  0  0  0  0  0  0  0
    2.5037   -1.6553   -1.0183 N   0  0  0  0  0  0  0  0  0  0  0  0
    3.1688   -2.5884   -0.0744 C   0  0  0  0  0  0  0  0  0  0  0  0
    4.6080   -2.1898    0.3076 C   0  0  0  0  0  0  0  0  0  0  0  0
    5.3946   -2.0664   -0.9152 N   0  0  0  0  0  0  0  0  0  0  0  0
    6.6629   -2.5718   -1.0344 C   0  0  0  0  0  0  0  0  0  0  0  0
    7.0147   -3.7756   -0.4304 C   0  0  0  0  0  0  0  0  0  0  0  0
    8.2794   -4.3307   -0.6335 C   0  0  0  0  0  0  0  0  0  0  0  0
    9.1930   -3.6709   -1.4478 C   0  0  0  0  0  0  0  0  0  0  0  0
   10.4890   -4.2660   -1.7461 C   0  0  0  0  0  0  0  0  0  0  0  0
   11.0665   -5.1295   -0.8873 N   0  0  0  0  0  0  0  0  0  0  0  0
   12.2170   -5.4984   -1.5077 N   0  0  0  0  0  0  0  0  0  0  0  0
   13.0961   -6.4874   -0.9021 C   0  0  0  0  0  0  0  0  0  0  0  0
   13.1740   -7.7386   -1.7018 C   0  0  0  0  0  0  0  0  0  0  0  0
   12.2549   -8.3477   -2.5334 C   0  0  0  0  0  0  0  0  0  0  0  0
   12.9204   -9.4295   -3.0307 N   0  0  0  0  0  0  0  0  0  0  0  0
   12.4428  -10.4055   -3.9924 C   0  0  0  0  0  0  0  0  0  0  0  0
   12.8105  -10.0076   -5.4000 C   0  0  0  0  0  0  0  0  0  0  0  0
   14.0192  -10.4416   -5.9648 C   0  0  0  0  0  0  0  0  0  0  0  0
   14.3920  -10.0288   -7.2446 C   0  0  0  0  0  0  0  0  0  0  0  0
   13.5637   -9.1770   -7.9722 C   0  0  0  0  0  0  0  0  0  0  0  0
   12.3570   -8.7448   -7.4255 C   0  0  0  0  0  0  0  0  0  0  0  0
   11.9801   -9.1579   -6.1464 C   0  0  0  0  0  0  0  0  0  0  0  0
   14.1409   -9.5455   -2.4771 N   0  0  0  0  0  0  0  0  0  0  0  0
   14.3133   -8.5066   -1.6712 N   0  0  0  0  0  0  0  0  0  0  0  0
   12.3979   -4.8823   -2.7144 C   0  0  0  0  0  0  0  0  0  0  0  0
   13.4366   -5.0242   -3.5487 N   0  0  0  0  0  0  0  0  0  0  0  0
   13.2926   -4.3528   -4.6979 C   0  0  0  0  0  0  0  0  0  0  0  0
   14.3106   -4.3382   -5.6260 N   0  0  0  0  0  0  0  0  0  0  0  0
   15.3247   -5.3613   -5.5743 C   0  0  0  0  0  0  0  0  0  0  0  0
   12.2179   -3.6173   -5.0373 N   0  0  0  0  0  0  0  0  0  0  0  0
   11.2028   -3.4749   -4.1530 C   0  0  0  0  0  0  0  0  0  0  0  0
   11.2715   -4.1163   -2.9246 C   0  0  0  0  0  0  0  0  0  0  0  0
    8.7813   -2.4612   -1.9849 C   0  0  0  0  0  0  0  0  0  0  0  0
    7.5494   -1.9172   -1.8132 N   0  0  0  0  0  0  0  0  0  0  0  0
    4.8687   -1.1237   -1.9058 C   0  0  0  0  0  0  0  0  0  0  0  0
    3.3880   -1.4931   -2.2091 C   0  0  0  0  0  0  0  0  0  0  0  0
    0.9971    0.5841    1.1067 H   0  0  0  0  0  0  0  0  0  0  0  0
    1.6867   -0.9521    1.6144 H   0  0  0  0  0  0  0  0  0  0  0  0
    0.3152   -0.9284    0.4843 H   0  0  0  0  0  0  0  0  0  0  0  0
    3.1092    0.1864   -0.1107 H   0  0  0  0  0  0  0  0  0  0  0  0
    1.7201    0.2791   -1.1841 H   0  0  0  0  0  0  0  0  0  0  0  0
    3.2033   -3.5771   -0.5531 H   0  0  0  0  0  0  0  0  0  0  0  0
    2.5701   -2.7367    0.8291 H   0  0  0  0  0  0  0  0  0  0  0  0
    5.0049   -2.9278    1.0110 H   0  0  0  0  0  0  0  0  0  0  0  0
    4.6188   -1.2326    0.8461 H   0  0  0  0  0  0  0  0  0  0  0  0
    6.3002   -4.3403    0.1579 H   0  0  0  0  0  0  0  0  0  0  0  0
    8.5247   -5.2828   -0.1724 H   0  0  0  0  0  0  0  0  0  0  0  0
   12.7153   -6.7095    0.1011 H   0  0  0  0  0  0  0  0  0  0  0  0
   14.0803   -6.0183   -0.7998 H   0  0  0  0  0  0  0  0  0  0  0  0
   11.2500   -8.0889   -2.8327 H   0  0  0  0  0  0  0  0  0  0  0  0
   11.3551  -10.4847   -3.8806 H   0  0  0  0  0  0  0  0  0  0  0  0
   12.8671  -11.3812   -3.7283 H   0  0  0  0  0  0  0  0  0  0  0  0
   14.6879  -11.0915   -5.4025 H   0  0  0  0  0  0  0  0  0  0  0  0
   15.3353  -10.3637   -7.6688 H   0  0  0  0  0  0  0  0  0  0  0  0
   13.8617   -8.8454   -8.9635 H   0  0  0  0  0  0  0  0  0  0  0  0
   11.7131   -8.0775   -7.9929 H   0  0  0  0  0  0  0  0  0  0  0  0
   11.0393   -8.7992   -5.7346 H   0  0  0  0  0  0  0  0  0  0  0  0
   13.9226   -4.1096   -6.5325 H   0  0  0  0  0  0  0  0  0  0  0  0
   15.4906   -5.7756   -4.5748 H   0  0  0  0  0  0  0  0  0  0  0  0
   16.2738   -4.9192   -5.8933 H   0  0  0  0  0  0  0  0  0  0  0  0
   15.0863   -6.1804   -6.2595 H   0  0  0  0  0  0  0  0  0  0  0  0
   10.3720   -2.8607   -4.4778 H   0  0  0  0  0  0  0  0  0  0  0  0
    9.4397   -1.8441   -2.5858 H   0  0  0  0  0  0  0  0  0  0  0  0
    5.4206   -1.1578   -2.8530 H   0  0  0  0  0  0  0  0  0  0  0  0
    4.9390   -0.0986   -1.5230 H   0  0  0  0  0  0  0  0  0  0  0  0
    3.3840   -2.4506   -2.7488 H   0  0  0  0  0  0  0  0  0  0  0  0
    2.9566   -0.7633   -2.9048 H   0  0  0  0  0  0  0  0  0  0  0  0
  1  2  1  0  0  0  0
  1 39  1  0  0  0  0
  1 40  1  0  0  0  0
  1 41  1  0  0  0  0
  2  3  1  0  0  0  0
  2 42  1  0  0  0  0
  2 43  1  0  0  0  0
  3  4  1  0  0  0  0
  3 38  1  0  0  0  0
  4  5  1  0  0  0  0
  4 44  1  0  0  0  0
  4 45  1  0  0  0  0
  5  6  1  0  0  0  0
  5 46  1  0  0  0  0
  5 47  1  0  0  0  0
  6  7  1  0  0  0  0
  6 37  1  0  0  0  0
  7  8  1  0  0  0  0
  7 36  2  0  0  0  0
  8  9  2  0  0  0  0
  8 48  1  0  0  0  0
  9 10  1  0  0  0  0
  9 49  1  0  0  0  0
 10 11  1  0  0  0  0
 10 35  2  0  0  0  0
 11 12  2  0  0  0  0
 11 34  1  0  0  0  0
 12 13  1  0  0  0  0
 13 14  1  0  0  0  0
 13 27  1  0  0  0  0
 14 15  1  0  0  0  0
 14 50  1  0  0  0  0
 14 51  1  0  0  0  0
 15 16  2  0  0  0  0
 15 26  1  0  0  0  0
 16 17  1  0  0  0  0
 16 52  1  0  0  0  0
 17 18  1  0  0  0  0
 17 25  1  0  0  0  0
 18 19  1  0  0  0  0
 18 53  1  0  0  0  0
 18 54  1  0  0  0  0
 19 20  1  0  0  0  0
 19 24  2  0  0  0  0
 20 21  2  0  0  0  0
 20 55  1  0  0  0  0
 21 22  1  0  0  0  0
 21 56  1  0  0  0  0
 22 23  2  0  0  0  0
 22 57  1  0  0  0  0
 23 24  1  0  0  0  0
 23 58  1  0  0  0  0
 24 59  1  0  0  0  0
 25 26  2  0  0  0  0
 27 28  1  0  0  0  0
 27 34  2  0  0  0  0
 28 29  2  0  0  0  0
 29 30  1  0  0  0  0
 29 32  1  0  0  0  0
 30 31  1  0  0  0  0
 30 60  1  0  0  0  0
 31 61  1  0  0  0  0
 31 62  1  0  0  0  0
 31 63  1  0  0  0  0
 32 33  2  0  0  0  0
 33 34  1  0  0  0  0
 33 64  1  0  0  0  0
 35 36  1  0  0  0  0
 35 65  1  0  0  0  0
 37 38  1  0  0  0  0
 37 66  1  0  0  0  0
 37 67  1  0  0  0  0
 38 68  1  0  0  0  0
 38 69  1  0  0  0  0
M  END
$$$$
