CHEMBL3977192
 OpenBabel04072215373D

 24 25  0  0  0  0  0  0  0  0999 V2000
    2.7745   -0.6302   -0.3829 N   0  0  0  0  0  0  0  0  0  0  0  0
    3.7017   -0.1234   -1.2358 C   0  0  0  0  0  0  0  0  0  0  0  0
    3.6094   -0.3849   -2.8692 S   0  0  0  0  0  0  0  0  0  0  0  0
    4.7182    0.5808   -0.6538 N   0  0  0  0  0  0  0  0  0  0  0  0
    4.5934    0.9671    0.6979 N   0  0  0  0  0  0  0  0  0  0  0  0
    5.3002    2.1719    0.9978 C   0  0  0  0  0  0  0  0  0  0  0  0
    6.3022    2.5858    0.1826 N   0  0  0  0  0  0  0  0  0  0  0  0
    7.0401    3.6877    0.4954 N   0  0  0  0  0  0  0  0  0  0  0  0
    6.7495    4.3805    1.6138 C   0  0  0  0  0  0  0  0  0  0  0  0
    5.7230    4.0261    2.4813 C   0  0  0  0  0  0  0  0  0  0  0  0
    5.4139    4.7895    3.6235 C   0  0  0  0  0  0  0  0  0  0  0  0
    4.3585    4.4249    4.4572 C   0  0  0  0  0  0  0  0  0  0  0  0
    3.6076    3.2907    4.1715 C   0  0  0  0  0  0  0  0  0  0  0  0
    3.9132    2.5206    3.0472 C   0  0  0  0  0  0  0  0  0  0  0  0
    4.9721    2.8762    2.1771 C   0  0  0  0  0  0  0  0  0  0  0  0
    1.9352   -1.0364   -0.7746 H   0  0  0  0  0  0  0  0  0  0  0  0
    2.7067   -0.1816    0.5205 H   0  0  0  0  0  0  0  0  0  0  0  0
    5.3785    1.1044   -1.2320 H   0  0  0  0  0  0  0  0  0  0  0  0
    4.9818    0.2441    1.3087 H   0  0  0  0  0  0  0  0  0  0  0  0
    7.3781    5.2461    1.7874 H   0  0  0  0  0  0  0  0  0  0  0  0
    5.9851    5.6858    3.8608 H   0  0  0  0  0  0  0  0  0  0  0  0
    4.1140    5.0326    5.3256 H   0  0  0  0  0  0  0  0  0  0  0  0
    2.7757    3.0097    4.8121 H   0  0  0  0  0  0  0  0  0  0  0  0
    3.2952    1.6507    2.8346 H   0  0  0  0  0  0  0  0  0  0  0  0
  1  2  1  0  0  0  0
  1 16  1  0  0  0  0
  1 17  1  0  0  0  0
  2  3  2  0  0  0  0
  2  4  1  0  0  0  0
  4  5  1  0  0  0  0
  4 18  1  0  0  0  0
  5  6  1  0  0  0  0
  5 19  1  0  0  0  0
  6  7  1  0  0  0  0
  6 15  2  0  0  0  0
  7  8  2  0  0  0  0
  8  9  1  0  0  0  0
  9 10  2  0  0  0  0
  9 20  1  0  0  0  0
 10 11  1  0  0  0  0
 10 15  1  0  0  0  0
 11 12  2  0  0  0  0
 11 21  1  0  0  0  0
 12 13  1  0  0  0  0
 12 22  1  0  0  0  0
 13 14  2  0  0  0  0
 13 23  1  0  0  0  0
 14 15  1  0  0  0  0
 14 24  1  0  0  0  0
M  END
$$$$
