CHEMBL2063322
 OpenBabel04072215363D

 64 67  0  0  0  0  0  0  0  0999 V2000
    3.3818    0.8567    1.1578 C   0  0  0  0  0  0  0  0  0  0  0  0
    2.8663    1.8972    0.1788 C   0  0  0  0  0  0  0  0  0  0  0  0
    3.4738    1.6466   -1.0956 O   0  0  0  0  0  0  0  0  0  0  0  0
    4.6827    2.2312   -1.2742 C   0  0  0  0  0  0  0  0  0  0  0  0
    5.1512    3.1234   -0.5843 O   0  0  0  0  0  0  0  0  0  0  0  0
    5.3259    1.6008   -2.2898 N   0  0  0  0  0  0  0  0  0  0  0  0
    6.6956    1.8771   -2.6229 C   0  0  0  0  0  0  0  0  0  0  0  0
    6.7885    2.8811   -3.7382 C   0  0  0  0  0  0  0  0  0  0  0  0
    6.7683    4.2490   -3.4434 C   0  0  0  0  0  0  0  0  0  0  0  0
    6.8182    5.1918   -4.4674 C   0  0  0  0  0  0  0  0  0  0  0  0
    6.8793    4.7855   -5.8083 C   0  0  0  0  0  0  0  0  0  0  0  0
    6.9354    5.7876   -6.8686 C   0  0  0  0  0  0  0  0  0  0  0  0
    7.5140    7.0795   -6.7738 C   0  0  0  0  0  0  0  0  0  0  0  0
    7.2967    7.6860   -7.9850 C   0  0  0  0  0  0  0  0  0  0  0  0
    7.6584    8.9620   -8.3989 N   0  0  0  0  0  0  0  0  0  0  0  0
    8.3814    9.8793   -7.5593 C   0  0  0  0  0  0  0  0  0  0  0  0
    8.7551    9.5651   -6.4374 O   0  0  0  0  0  0  0  0  0  0  0  0
    8.7006   11.2066   -8.1230 C   0  0  0  0  0  0  0  0  0  0  0  0
    7.9117   11.7982   -9.1069 C   0  0  0  0  0  0  0  0  0  0  0  0
    8.2640   13.0564   -9.5988 C   0  0  0  0  0  0  0  0  0  0  0  0
    9.3869   13.7589   -9.1283 C   0  0  0  0  0  0  0  0  0  0  0  0
    9.6487   15.0241   -9.6105 N   0  0  0  0  0  0  0  0  0  0  0  0
   10.4299   16.0135   -8.8502 C   0  0  0  0  0  0  0  0  0  0  0  0
    9.9129   17.4332   -9.1968 C   0  0  0  0  0  0  0  0  0  0  0  0
    9.9431   17.7196  -10.6513 N   0  0  0  0  0  0  0  0  0  0  0  0
    9.3793   19.0396  -10.9239 C   0  0  0  0  0  0  0  0  0  0  0  0
    9.1845   16.6755  -11.3769 C   0  0  0  0  0  0  0  0  0  0  0  0
    9.6969   15.2518  -11.0672 C   0  0  0  0  0  0  0  0  0  0  0  0
   10.1460   13.1528   -8.1217 C   0  0  0  0  0  0  0  0  0  0  0  0
    9.8118   11.8918   -7.6198 C   0  0  0  0  0  0  0  0  0  0  0  0
    6.6251    6.7525   -8.7296 N   0  0  0  0  0  0  0  0  0  0  0  0
    6.4194    5.5898   -8.0910 N   0  0  0  0  0  0  0  0  0  0  0  0
    6.8893    3.4185   -6.1048 C   0  0  0  0  0  0  0  0  0  0  0  0
    6.8435    2.4723   -5.0770 C   0  0  0  0  0  0  0  0  0  0  0  0
    2.9514    0.9985    2.1520 H   0  0  0  0  0  0  0  0  0  0  0  0
    4.4734    0.9006    1.2356 H   0  0  0  0  0  0  0  0  0  0  0  0
    3.1352   -0.1499    0.8031 H   0  0  0  0  0  0  0  0  0  0  0  0
    3.0609    2.9154    0.5353 H   0  0  0  0  0  0  0  0  0  0  0  0
    1.7835    1.7962    0.0569 H   0  0  0  0  0  0  0  0  0  0  0  0
    4.8189    0.8658   -2.7606 H   0  0  0  0  0  0  0  0  0  0  0  0
    7.1665    0.9319   -2.9142 H   0  0  0  0  0  0  0  0  0  0  0  0
    7.2326    2.2432   -1.7394 H   0  0  0  0  0  0  0  0  0  0  0  0
    6.6984    4.5863   -2.4095 H   0  0  0  0  0  0  0  0  0  0  0  0
    6.7864    6.2445   -4.1980 H   0  0  0  0  0  0  0  0  0  0  0  0
    8.0188    7.4804   -5.9073 H   0  0  0  0  0  0  0  0  0  0  0  0
    7.4392    9.2302   -9.3476 H   0  0  0  0  0  0  0  0  0  0  0  0
    6.9975   11.3433   -9.4734 H   0  0  0  0  0  0  0  0  0  0  0  0
    7.6068   13.5284  -10.3279 H   0  0  0  0  0  0  0  0  0  0  0  0
   11.4952   15.9245   -9.0958 H   0  0  0  0  0  0  0  0  0  0  0  0
   10.3158   15.8712   -7.7697 H   0  0  0  0  0  0  0  0  0  0  0  0
   10.5296   18.1662   -8.6640 H   0  0  0  0  0  0  0  0  0  0  0  0
    8.8859   17.5307   -8.8185 H   0  0  0  0  0  0  0  0  0  0  0  0
    9.9585   19.8161  -10.4133 H   0  0  0  0  0  0  0  0  0  0  0  0
    8.3344   19.1205  -10.6030 H   0  0  0  0  0  0  0  0  0  0  0  0
    9.4279   19.2609  -11.9960 H   0  0  0  0  0  0  0  0  0  0  0  0
    9.2652   16.8446  -12.4568 H   0  0  0  0  0  0  0  0  0  0  0  0
    8.1193   16.7275  -11.1121 H   0  0  0  0  0  0  0  0  0  0  0  0
   10.7308   15.1390  -11.4195 H   0  0  0  0  0  0  0  0  0  0  0  0
    9.0921   14.5333  -11.6304 H   0  0  0  0  0  0  0  0  0  0  0  0
   11.0240   13.6501   -7.7143 H   0  0  0  0  0  0  0  0  0  0  0  0
   10.4252   11.4560   -6.8325 H   0  0  0  0  0  0  0  0  0  0  0  0
    6.2743    6.8354   -9.6763 H   0  0  0  0  0  0  0  0  0  0  0  0
    6.9343    3.0820   -7.1385 H   0  0  0  0  0  0  0  0  0  0  0  0
    6.8466    1.4143   -5.3292 H   0  0  0  0  0  0  0  0  0  0  0  0
  1  2  1  0  0  0  0
  1 35  1  0  0  0  0
  1 36  1  0  0  0  0
  1 37  1  0  0  0  0
  2  3  1  0  0  0  0
  2 38  1  0  0  0  0
  2 39  1  0  0  0  0
  3  4  1  0  0  0  0
  4  5  2  0  0  0  0
  4  6  1  0  0  0  0
  6  7  1  0  0  0  0
  6 40  1  0  0  0  0
  7  8  1  0  0  0  0
  7 41  1  0  0  0  0
  7 42  1  0  0  0  0
  8  9  1  0  0  0  0
  8 34  2  0  0  0  0
  9 10  2  0  0  0  0
  9 43  1  0  0  0  0
 10 11  1  0  0  0  0
 10 44  1  0  0  0  0
 11 12  1  0  0  0  0
 11 33  2  0  0  0  0
 12 13  1  0  0  0  0
 12 32  2  0  0  0  0
 13 14  2  0  0  0  0
 13 45  1  0  0  0  0
 14 15  1  0  0  0  0
 14 31  1  0  0  0  0
 15 16  1  0  0  0  0
 15 46  1  0  0  0  0
 16 17  2  0  0  0  0
 16 18  1  0  0  0  0
 18 19  1  0  0  0  0
 18 30  2  0  0  0  0
 19 20  2  0  0  0  0
 19 47  1  0  0  0  0
 20 21  1  0  0  0  0
 20 48  1  0  0  0  0
 21 22  1  0  0  0  0
 21 29  2  0  0  0  0
 22 23  1  0  0  0  0
 22 28  1  0  0  0  0
 23 24  1  0  0  0  0
 23 49  1  0  0  0  0
 23 50  1  0  0  0  0
 24 25  1  0  0  0  0
 24 51  1  0  0  0  0
 24 52  1  0  0  0  0
 25 26  1  0  0  0  0
 25 27  1  0  0  0  0
 26 53  1  0  0  0  0
 26 54  1  0  0  0  0
 26 55  1  0  0  0  0
 27 28  1  0  0  0  0
 27 56  1  0  0  0  0
 27 57  1  0  0  0  0
 28 58  1  0  0  0  0
 28 59  1  0  0  0  0
 29 30  1  0  0  0  0
 29 60  1  0  0  0  0
 30 61  1  0  0  0  0
 31 32  1  0  0  0  0
 31 62  1  0  0  0  0
 33 34  1  0  0  0  0
 33 63  1  0  0  0  0
 34 64  1  0  0  0  0
M  END
$$$$
