CHEMBL251739
 OpenBabel04072215363D

 58 63  0  0  0  0  0  0  0  0999 V2000
    2.3113    0.4949   -0.7569 C   0  0  0  0  0  0  0  0  0  0  0  0
    2.7027   -0.5828    0.2438 C   0  0  0  0  0  0  0  0  0  0  0  0
    3.0715   -0.0390    1.5563 N   0  0  0  0  0  0  0  0  0  0  0  0
    2.0863   -0.1229    2.6420 C   0  0  0  0  0  0  0  0  0  0  0  0
    0.6396    0.2052    2.3086 C   0  0  0  0  0  0  0  0  0  0  0  0
    4.4338    0.3250    1.7131 C   0  0  0  0  0  0  0  0  0  0  0  0
    5.1895    0.3702    0.7409 O   0  0  0  0  0  0  0  0  0  0  0  0
    5.0149    0.6252    3.0549 C   0  0  0  0  0  0  0  0  0  0  0  0
    4.6562   -0.1028    4.2101 C   0  0  0  0  0  0  0  0  0  0  0  0
    5.1578    0.2127    5.4747 C   0  0  0  0  0  0  0  0  0  0  0  0
    6.1253    1.1993    5.6334 C   0  0  0  0  0  0  0  0  0  0  0  0
    6.5811    1.8146    4.4698 C   0  0  0  0  0  0  0  0  0  0  0  0
    7.5910    2.7169    4.2709 N   0  0  0  0  0  0  0  0  0  0  0  0
    7.6876    2.9653    2.9278 C   0  0  0  0  0  0  0  0  0  0  0  0
    8.7713    3.8152    2.3530 C   0  0  0  0  0  0  0  0  0  0  0  0
    9.7247    4.3593    3.1342 N   0  0  0  0  0  0  0  0  0  0  0  0
   10.4755    5.0604    2.2531 N   0  0  0  0  0  0  0  0  0  0  0  0
   10.0090    5.0197    0.9719 C   0  0  0  0  0  0  0  0  0  0  0  0
   10.5123    5.6773   -0.0867 N   0  0  0  0  0  0  0  0  0  0  0  0
    9.7825    5.4621   -1.2186 C   0  0  0  0  0  0  0  0  0  0  0  0
    8.6634    4.6236   -1.3703 C   0  0  0  0  0  0  0  0  0  0  0  0
    7.9456    4.4850   -2.6654 C   0  0  0  0  0  0  0  0  0  0  0  0
    8.6836    4.4562   -3.8586 C   0  0  0  0  0  0  0  0  0  0  0  0
    8.1759    4.2976   -5.1004 N   0  0  0  0  0  0  0  0  0  0  0  0
    6.8442    4.1134   -5.1760 C   0  0  0  0  0  0  0  0  0  0  0  0
    5.9800    4.1091   -4.0836 C   0  0  0  0  0  0  0  0  0  0  0  0
    4.6027    3.8753   -4.2626 C   0  0  0  0  0  0  0  0  0  0  0  0
    3.7318    3.8688   -3.1771 C   0  0  0  0  0  0  0  0  0  0  0  0
    4.2211    4.1468   -1.9116 C   0  0  0  0  0  0  0  0  0  0  0  0
    5.5830    4.4066   -1.7321 C   0  0  0  0  0  0  0  0  0  0  0  0
    6.5239    4.3409   -2.7948 C   0  0  0  0  0  0  0  0  0  0  0  0
    8.2754    3.9087   -0.2248 C   0  0  0  0  0  0  0  0  0  0  0  0
    8.9213    4.1682    0.9927 C   0  0  0  0  0  0  0  0  0  0  0  0
    6.7206    2.3633    2.2681 N   0  0  0  0  0  0  0  0  0  0  0  0
    6.0548    1.5774    3.1951 C   0  0  0  0  0  0  0  0  0  0  0  0
    2.0586    0.0399   -1.7205 H   0  0  0  0  0  0  0  0  0  0  0  0
    3.1302    1.2016   -0.9232 H   0  0  0  0  0  0  0  0  0  0  0  0
    1.4428    1.0646   -0.4140 H   0  0  0  0  0  0  0  0  0  0  0  0
    3.5511   -1.1484   -0.1601 H   0  0  0  0  0  0  0  0  0  0  0  0
    1.8922   -1.3084    0.3651 H   0  0  0  0  0  0  0  0  0  0  0  0
    2.3773    0.5536    3.4479 H   0  0  0  0  0  0  0  0  0  0  0  0
    2.1262   -1.1532    3.0145 H   0  0  0  0  0  0  0  0  0  0  0  0
    0.5408    1.2306    1.9435 H   0  0  0  0  0  0  0  0  0  0  0  0
    0.0343    0.1101    3.2183 H   0  0  0  0  0  0  0  0  0  0  0  0
    0.2160   -0.4765    1.5670 H   0  0  0  0  0  0  0  0  0  0  0  0
    3.9768   -0.9451    4.1390 H   0  0  0  0  0  0  0  0  0  0  0  0
    4.8037   -0.3363    6.3449 H   0  0  0  0  0  0  0  0  0  0  0  0
    6.5399    1.4328    6.6086 H   0  0  0  0  0  0  0  0  0  0  0  0
    8.2285    3.0932    4.9560 H   0  0  0  0  0  0  0  0  0  0  0  0
   11.2890    5.5649    2.5822 H   0  0  0  0  0  0  0  0  0  0  0  0
   10.1584    6.0362   -2.0652 H   0  0  0  0  0  0  0  0  0  0  0  0
    9.7676    4.5459   -3.8545 H   0  0  0  0  0  0  0  0  0  0  0  0
    6.4728    3.9600   -6.1862 H   0  0  0  0  0  0  0  0  0  0  0  0
    4.2016    3.6783   -5.2541 H   0  0  0  0  0  0  0  0  0  0  0  0
    2.6764    3.6546   -3.3194 H   0  0  0  0  0  0  0  0  0  0  0  0
    3.5547    4.1510   -1.0523 H   0  0  0  0  0  0  0  0  0  0  0  0
    5.8938    4.6560   -0.7210 H   0  0  0  0  0  0  0  0  0  0  0  0
    7.4642    3.1847   -0.2420 H   0  0  0  0  0  0  0  0  0  0  0  0
  1  2  1  0  0  0  0
  1 36  1  0  0  0  0
  1 37  1  0  0  0  0
  1 38  1  0  0  0  0
  2  3  1  0  0  0  0
  2 39  1  0  0  0  0
  2 40  1  0  0  0  0
  3  4  1  0  0  0  0
  3  6  1  0  0  0  0
  4  5  1  0  0  0  0
  4 41  1  0  0  0  0
  4 42  1  0  0  0  0
  5 43  1  0  0  0  0
  5 44  1  0  0  0  0
  5 45  1  0  0  0  0
  6  7  2  0  0  0  0
  6  8  1  0  0  0  0
  8  9  1  0  0  0  0
  8 35  2  0  0  0  0
  9 10  2  0  0  0  0
  9 46  1  0  0  0  0
 10 11  1  0  0  0  0
 10 47  1  0  0  0  0
 11 12  2  0  0  0  0
 11 48  1  0  0  0  0
 12 13  1  0  0  0  0
 12 35  1  0  0  0  0
 13 14  1  0  0  0  0
 13 49  1  0  0  0  0
 14 15  1  0  0  0  0
 14 34  2  0  0  0  0
 15 16  2  0  0  0  0
 15 33  1  0  0  0  0
 16 17  1  0  0  0  0
 17 18  1  0  0  0  0
 17 50  1  0  0  0  0
 18 19  1  0  0  0  0
 18 33  2  0  0  0  0
 19 20  2  0  0  0  0
 20 21  1  0  0  0  0
 20 51  1  0  0  0  0
 21 22  1  0  0  0  0
 21 32  2  0  0  0  0
 22 23  1  0  0  0  0
 22 31  2  0  0  0  0
 23 24  2  0  0  0  0
 23 52  1  0  0  0  0
 24 25  1  0  0  0  0
 25 26  2  0  0  0  0
 25 53  1  0  0  0  0
 26 27  1  0  0  0  0
 26 31  1  0  0  0  0
 27 28  2  0  0  0  0
 27 54  1  0  0  0  0
 28 29  1  0  0  0  0
 28 55  1  0  0  0  0
 29 30  2  0  0  0  0
 29 56  1  0  0  0  0
 30 31  1  0  0  0  0
 30 57  1  0  0  0  0
 32 33  1  0  0  0  0
 32 58  1  0  0  0  0
 34 35  1  0  0  0  0
M  END
$$$$
