CHEMBL1988692
 OpenBabel04072215363D

 36 38  0  0  0  0  0  0  0  0999 V2000
    2.5402    1.2782   -0.5482 C   0  0  0  0  0  0  0  0  0  0  0  0
    2.6898   -0.0573    0.1747 C   0  0  0  0  0  0  0  0  0  0  0  0
    1.3549   -0.5211    0.7466 C   0  0  0  0  0  0  0  0  0  0  0  0
    3.1957   -1.0447   -0.7748 N   0  0  0  0  0  0  0  0  0  0  0  0
    4.5402   -1.3140   -0.8759 C   0  0  0  0  0  0  0  0  0  0  0  0
    5.3751   -1.1765    0.1351 N   0  0  0  0  0  0  0  0  0  0  0  0
    6.6114   -1.5727   -0.2995 N   0  0  0  0  0  0  0  0  0  0  0  0
    6.6517   -2.0485   -1.5887 C   0  0  0  0  0  0  0  0  0  0  0  0
    7.5820   -2.5964   -2.1478 O   0  0  0  0  0  0  0  0  0  0  0  0
    5.2800   -1.7881   -2.0920 C   0  0  0  0  0  0  0  0  0  0  0  0
    4.7788   -1.8066   -3.3387 C   0  0  0  0  0  0  0  0  0  0  0  0
    5.5190   -2.0444   -4.5322 C   0  0  0  0  0  0  0  0  0  0  0  0
    5.3666   -1.5922   -5.8331 C   0  0  0  0  0  0  0  0  0  0  0  0
    6.4892   -2.0308   -6.5954 C   0  0  0  0  0  0  0  0  0  0  0  0
    6.9429   -1.8156   -7.9115 C   0  0  0  0  0  0  0  0  0  0  0  0
    8.1591   -2.3835   -8.3198 C   0  0  0  0  0  0  0  0  0  0  0  0
    8.9144   -3.1615   -7.4440 C   0  0  0  0  0  0  0  0  0  0  0  0
    8.4779   -3.3966   -6.1392 C   0  0  0  0  0  0  0  0  0  0  0  0
    7.2659   -2.8171   -5.7518 C   0  0  0  0  0  0  0  0  0  0  0  0
    6.6269   -2.8563   -4.5373 N   0  0  0  0  0  0  0  0  0  0  0  0
    2.1831    2.0550    0.1360 H   0  0  0  0  0  0  0  0  0  0  0  0
    1.8283    1.2008   -1.3781 H   0  0  0  0  0  0  0  0  0  0  0  0
    3.4983    1.6051   -0.9643 H   0  0  0  0  0  0  0  0  0  0  0  0
    3.3832    0.0728    1.0140 H   0  0  0  0  0  0  0  0  0  0  0  0
    0.6213   -0.7155   -0.0428 H   0  0  0  0  0  0  0  0  0  0  0  0
    0.9388    0.2374    1.4193 H   0  0  0  0  0  0  0  0  0  0  0  0
    1.4791   -1.4453    1.3217 H   0  0  0  0  0  0  0  0  0  0  0  0
    2.6207   -1.1739   -1.5978 H   0  0  0  0  0  0  0  0  0  0  0  0
    7.3945   -1.6214    0.3395 H   0  0  0  0  0  0  0  0  0  0  0  0
    3.7479   -1.4930   -3.4882 H   0  0  0  0  0  0  0  0  0  0  0  0
    4.5793   -0.9380   -6.1849 H   0  0  0  0  0  0  0  0  0  0  0  0
    6.3733   -1.1973   -8.5985 H   0  0  0  0  0  0  0  0  0  0  0  0
    8.5243   -2.2047   -9.3277 H   0  0  0  0  0  0  0  0  0  0  0  0
    9.8599   -3.5860   -7.7729 H   0  0  0  0  0  0  0  0  0  0  0  0
    9.0653   -3.9929   -5.4488 H   0  0  0  0  0  0  0  0  0  0  0  0
    7.0281   -3.3066   -3.7213 H   0  0  0  0  0  0  0  0  0  0  0  0
  1  2  1  0  0  0  0
  1 21  1  0  0  0  0
  1 22  1  0  0  0  0
  1 23  1  0  0  0  0
  2  3  1  0  0  0  0
  2  4  1  0  0  0  0
  2 24  1  0  0  0  0
  3 25  1  0  0  0  0
  3 26  1  0  0  0  0
  3 27  1  0  0  0  0
  4  5  1  0  0  0  0
  4 28  1  0  0  0  0
  5  6  2  0  0  0  0
  5 10  1  0  0  0  0
  6  7  1  0  0  0  0
  7  8  1  0  0  0  0
  7 29  1  0  0  0  0
  8  9  2  0  0  0  0
  8 10  1  0  0  0  0
 10 11  2  3  0  0  0
 11 12  1  0  0  0  0
 11 30  1  0  0  0  0
 12 13  2  0  0  0  0
 12 20  1  0  0  0  0
 13 14  1  0  0  0  0
 13 31  1  0  0  0  0
 14 15  1  0  0  0  0
 14 19  2  0  0  0  0
 15 16  2  0  0  0  0
 15 32  1  0  0  0  0
 16 17  1  0  0  0  0
 16 33  1  0  0  0  0
 17 18  2  0  0  0  0
 17 34  1  0  0  0  0
 18 19  1  0  0  0  0
 18 35  1  0  0  0  0
 19 20  1  0  0  0  0
 20 36  1  0  0  0  0
M  END
$$$$
