CHEMBL4071058
 OpenBabel04072215383D

 52 54  0  0  0  0  0  0  0  0999 V2000
    7.9979   -2.6234   -3.1267 C   0  0  0  0  0  0  0  0  0  0  0  0
    7.1475   -2.0954   -4.2896 C   0  0  0  0  0  0  0  0  0  0  0  0
    8.0037   -1.6722   -5.4896 C   0  0  0  0  0  0  0  0  0  0  0  0
    6.2134   -3.2297   -4.7477 C   0  0  0  0  0  0  0  0  0  0  0  0
    6.2861   -1.0128   -3.8380 O   0  0  0  0  0  0  0  0  0  0  0  0
    6.8470    0.1395   -3.3992 C   0  0  0  0  0  0  0  0  0  0  0  0
    8.0332    0.4301   -3.4202 O   0  0  0  0  0  0  0  0  0  0  0  0
    5.8952    0.9732   -2.9033 N   0  0  0  0  0  0  0  0  0  0  0  0
    6.2578    2.2538   -2.3386 C   0  0  0  0  0  0  0  0  0  0  0  0
    6.3216    3.3298   -3.4204 C   0  0  0  0  0  0  0  0  0  0  0  0
    5.3214    3.9979   -3.6782 O   0  0  0  0  0  0  0  0  0  0  0  0
    7.5308    3.3703   -4.1063 N   0  0  0  0  0  0  0  0  0  0  0  0
    7.8125    4.2304   -5.1916 C   0  0  0  0  0  0  0  0  0  0  0  0
    7.0951    5.3983   -5.4340 C   0  0  0  0  0  0  0  0  0  0  0  0
    7.3288    6.1483   -6.5894 C   0  0  0  0  0  0  0  0  0  0  0  0
    8.2553    5.7567   -7.5370 C   0  0  0  0  0  0  0  0  0  0  0  0
    8.3558    6.4919   -8.6474 N   0  0  0  0  0  0  0  0  0  0  0  0
    9.2335    6.0758   -9.5603 C   0  0  0  0  0  0  0  0  0  0  0  0
   10.0217    5.0066   -9.4533 N   0  0  0  0  0  0  0  0  0  0  0  0
    9.9160    4.2720   -8.3274 C   0  0  0  0  0  0  0  0  0  0  0  0
   10.7201    3.0974   -8.2182 N   0  0  0  0  0  0  0  0  0  0  0  0
   11.7657    2.7750   -9.1214 C   0  0  0  0  0  0  0  0  0  0  0  0
   12.7368    3.7297   -9.4599 C   0  0  0  0  0  0  0  0  0  0  0  0
   13.7317    3.4474  -10.3964 C   0  0  0  0  0  0  0  0  0  0  0  0
   13.7750    2.1953  -11.0019 C   0  0  0  0  0  0  0  0  0  0  0  0
   12.8323    1.2303  -10.6505 C   0  0  0  0  0  0  0  0  0  0  0  0
   12.8877   -0.4684  -11.4815 Br  0  0  0  0  0  0  0  0  0  0  0  0
   11.8374    1.5071   -9.7087 C   0  0  0  0  0  0  0  0  0  0  0  0
    9.0230    4.6074   -7.2954 C   0  0  0  0  0  0  0  0  0  0  0  0
    8.8257    3.8766   -6.0872 C   0  0  0  0  0  0  0  0  0  0  0  0
    8.6055   -3.4813   -3.4331 H   0  0  0  0  0  0  0  0  0  0  0  0
    7.3588   -2.9337   -2.2914 H   0  0  0  0  0  0  0  0  0  0  0  0
    8.6743   -1.8608   -2.7307 H   0  0  0  0  0  0  0  0  0  0  0  0
    8.5864   -2.5134   -5.8791 H   0  0  0  0  0  0  0  0  0  0  0  0
    8.7131   -0.8795   -5.2392 H   0  0  0  0  0  0  0  0  0  0  0  0
    7.3720   -1.2816   -6.2954 H   0  0  0  0  0  0  0  0  0  0  0  0
    6.7826   -4.0965   -5.1040 H   0  0  0  0  0  0  0  0  0  0  0  0
    5.5544   -2.8961   -5.5571 H   0  0  0  0  0  0  0  0  0  0  0  0
    5.5622   -3.5609   -3.9309 H   0  0  0  0  0  0  0  0  0  0  0  0
    4.9248    0.7289   -3.0570 H   0  0  0  0  0  0  0  0  0  0  0  0
    7.2199    2.1859   -1.8210 H   0  0  0  0  0  0  0  0  0  0  0  0
    5.4942    2.5350   -1.6062 H   0  0  0  0  0  0  0  0  0  0  0  0
    8.1497    2.5722   -3.9648 H   0  0  0  0  0  0  0  0  0  0  0  0
    6.3365    5.7576   -4.7444 H   0  0  0  0  0  0  0  0  0  0  0  0
    6.7409    7.0480   -6.7625 H   0  0  0  0  0  0  0  0  0  0  0  0
    9.3057    6.6496  -10.4771 H   0  0  0  0  0  0  0  0  0  0  0  0
   10.1137    2.3029   -8.0439 H   0  0  0  0  0  0  0  0  0  0  0  0
   12.7059    4.7173   -9.0037 H   0  0  0  0  0  0  0  0  0  0  0  0
   14.4582    4.2115  -10.6594 H   0  0  0  0  0  0  0  0  0  0  0  0
   14.5389    1.9854  -11.7451 H   0  0  0  0  0  0  0  0  0  0  0  0
   11.1029    0.7468   -9.4639 H   0  0  0  0  0  0  0  0  0  0  0  0
    9.4415    3.0032   -5.8855 H   0  0  0  0  0  0  0  0  0  0  0  0
  1  2  1  0  0  0  0
  1 31  1  0  0  0  0
  1 32  1  0  0  0  0
  1 33  1  0  0  0  0
  2  3  1  0  0  0  0
  2  4  1  0  0  0  0
  2  5  1  0  0  0  0
  3 34  1  0  0  0  0
  3 35  1  0  0  0  0
  3 36  1  0  0  0  0
  4 37  1  0  0  0  0
  4 38  1  0  0  0  0
  4 39  1  0  0  0  0
  5  6  1  0  0  0  0
  6  7  2  0  0  0  0
  6  8  1  0  0  0  0
  8  9  1  0  0  0  0
  8 40  1  0  0  0  0
  9 10  1  0  0  0  0
  9 41  1  0  0  0  0
  9 42  1  0  0  0  0
 10 11  2  0  0  0  0
 10 12  1  0  0  0  0
 12 13  1  0  0  0  0
 12 43  1  0  0  0  0
 13 14  1  0  0  0  0
 13 30  2  0  0  0  0
 14 15  2  0  0  0  0
 14 44  1  0  0  0  0
 15 16  1  0  0  0  0
 15 45  1  0  0  0  0
 16 17  1  0  0  0  0
 16 29  2  0  0  0  0
 17 18  2  0  0  0  0
 18 19  1  0  0  0  0
 18 46  1  0  0  0  0
 19 20  2  0  0  0  0
 20 21  1  0  0  0  0
 20 29  1  0  0  0  0
 21 22  1  0  0  0  0
 21 47  1  0  0  0  0
 22 23  1  0  0  0  0
 22 28  2  0  0  0  0
 23 24  2  0  0  0  0
 23 48  1  0  0  0  0
 24 25  1  0  0  0  0
 24 49  1  0  0  0  0
 25 26  2  0  0  0  0
 25 50  1  0  0  0  0
 26 27  1  0  0  0  0
 26 28  1  0  0  0  0
 28 51  1  0  0  0  0
 29 30  1  0  0  0  0
 30 52  1  0  0  0  0
M  END
$$$$
