CHEMBL3894545
 OpenBabel04072215373D

 44 47  0  0  0  0  0  0  0  0999 V2000
    2.6251   -0.3199   -1.5524 C   0  0  0  0  0  0  0  0  0  0  0  0
    1.2881   -0.1788   -0.8835 C   0  0  0  0  0  0  0  0  0  0  0  0
    0.7514   -1.2215   -0.1214 C   0  0  0  0  0  0  0  0  0  0  0  0
   -0.4928   -1.0734    0.4936 C   0  0  0  0  0  0  0  0  0  0  0  0
   -1.2078    0.1135    0.3457 C   0  0  0  0  0  0  0  0  0  0  0  0
   -2.3954    0.2147    0.9632 F   0  0  0  0  0  0  0  0  0  0  0  0
   -0.7035    1.1638   -0.4158 C   0  0  0  0  0  0  0  0  0  0  0  0
   -1.4373    2.4411   -0.6277 C   0  0  0  0  0  0  0  0  0  0  0  0
   -0.9013    3.2887   -1.3430 O   0  0  0  0  0  0  0  0  0  0  0  0
   -2.6649    2.5902   -0.0011 N   0  0  0  0  0  0  0  0  0  0  0  0
   -3.4456    3.7352   -0.0812 C   0  0  0  0  0  0  0  0  0  0  0  0
   -3.1267    4.8765   -0.7852 C   0  0  0  0  0  0  0  0  0  0  0  0
   -4.2514    6.1315   -0.5515 S   0  0  0  0  0  0  0  0  0  0  0  0
   -5.1840    5.1739    0.5272 C   0  0  0  0  0  0  0  0  0  0  0  0
   -6.2902    5.7607    1.2395 C   0  0  0  0  0  0  0  0  0  0  0  0
   -6.3376    7.0783    1.6665 C   0  0  0  0  0  0  0  0  0  0  0  0
   -7.5744    7.2967    2.3024 C   0  0  0  0  0  0  0  0  0  0  0  0
   -8.1766    8.4480    2.8598 C   0  0  0  0  0  0  0  0  0  0  0  0
   -9.4548    8.3549    3.4121 C   0  0  0  0  0  0  0  0  0  0  0  0
  -10.1236    7.1386    3.4239 C   0  0  0  0  0  0  0  0  0  0  0  0
   -9.5373    5.9845    2.8854 C   0  0  0  0  0  0  0  0  0  0  0  0
   -8.2508    6.0752    2.3241 C   0  0  0  0  0  0  0  0  0  0  0  0
   -7.4473    5.1084    1.6804 N   0  0  0  0  0  0  0  0  0  0  0  0
   -7.8008    3.7342    1.5775 C   0  0  0  0  0  0  0  0  0  0  0  0
   -7.8669    3.2437    0.2931 N   0  0  0  0  0  0  0  0  0  0  0  0
   -8.0566    3.0728    2.5567 O   0  0  0  0  0  0  0  0  0  0  0  0
   -4.6916    3.8890    0.6004 C   0  0  0  0  0  0  0  0  0  0  0  0
    0.5554    1.0098   -1.0247 C   0  0  0  0  0  0  0  0  0  0  0  0
    3.0629   -1.3065   -1.3687 H   0  0  0  0  0  0  0  0  0  0  0  0
    3.3213    0.4330   -1.1699 H   0  0  0  0  0  0  0  0  0  0  0  0
    2.5200   -0.1974   -2.6352 H   0  0  0  0  0  0  0  0  0  0  0  0
    1.2970   -2.1557   -0.0028 H   0  0  0  0  0  0  0  0  0  0  0  0
   -0.9107   -1.8818    1.0863 H   0  0  0  0  0  0  0  0  0  0  0  0
   -2.9675    1.8782    0.6553 H   0  0  0  0  0  0  0  0  0  0  0  0
   -2.2683    5.0643   -1.4081 H   0  0  0  0  0  0  0  0  0  0  0  0
   -5.5722    7.8232    1.5077 H   0  0  0  0  0  0  0  0  0  0  0  0
   -7.6550    9.3973    2.8520 H   0  0  0  0  0  0  0  0  0  0  0  0
   -9.9258    9.2406    3.8343 H   0  0  0  0  0  0  0  0  0  0  0  0
  -11.1185    7.0763    3.8613 H   0  0  0  0  0  0  0  0  0  0  0  0
  -10.0817    5.0445    2.9107 H   0  0  0  0  0  0  0  0  0  0  0  0
   -7.4972    3.6955   -0.5245 H   0  0  0  0  0  0  0  0  0  0  0  0
   -8.1124    2.2589    0.2177 H   0  0  0  0  0  0  0  0  0  0  0  0
   -5.1552    3.1158    1.2000 H   0  0  0  0  0  0  0  0  0  0  0  0
    0.9713    1.8245   -1.6194 H   0  0  0  0  0  0  0  0  0  0  0  0
  1  2  1  0  0  0  0
  1 29  1  0  0  0  0
  1 30  1  0  0  0  0
  1 31  1  0  0  0  0
  2  3  1  0  0  0  0
  2 28  2  0  0  0  0
  3  4  2  0  0  0  0
  3 32  1  0  0  0  0
  4  5  1  0  0  0  0
  4 33  1  0  0  0  0
  5  6  1  0  0  0  0
  5  7  2  0  0  0  0
  7  8  1  0  0  0  0
  7 28  1  0  0  0  0
  8  9  2  0  0  0  0
  8 10  1  0  0  0  0
 10 11  1  0  0  0  0
 10 34  1  0  0  0  0
 11 12  2  0  0  0  0
 11 27  1  0  0  0  0
 12 13  1  0  0  0  0
 12 35  1  0  0  0  0
 13 14  1  0  0  0  0
 14 15  1  0  0  0  0
 14 27  2  0  0  0  0
 15 16  2  0  0  0  0
 15 23  1  0  0  0  0
 16 17  1  0  0  0  0
 16 36  1  0  0  0  0
 17 18  1  0  0  0  0
 17 22  2  0  0  0  0
 18 19  2  0  0  0  0
 18 37  1  0  0  0  0
 19 20  1  0  0  0  0
 19 38  1  0  0  0  0
 20 21  2  0  0  0  0
 20 39  1  0  0  0  0
 21 22  1  0  0  0  0
 21 40  1  0  0  0  0
 22 23  1  0  0  0  0
 23 24  1  0  0  0  0
 24 25  1  0  0  0  0
 24 26  2  0  0  0  0
 25 41  1  0  0  0  0
 25 42  1  0  0  0  0
 27 43  1  0  0  0  0
 28 44  1  0  0  0  0
M  END
$$$$
