CHEMBL3919045
 OpenBabel04072215373D

 52 55  0  0  0  0  0  0  0  0999 V2000
    3.7237    5.0254   -8.4139 C   0  0  0  0  0  0  0  0  0  0  0  0
    3.8739    3.6435   -8.7189 O   0  0  0  0  0  0  0  0  0  0  0  0
    3.9700    2.7741   -7.6620 C   0  0  0  0  0  0  0  0  0  0  0  0
    3.4560    3.0758   -6.3934 C   0  0  0  0  0  0  0  0  0  0  0  0
    3.4677    2.1405   -5.3496 C   0  0  0  0  0  0  0  0  0  0  0  0
    2.9547    2.4470   -4.0710 N   0  0  0  0  0  0  0  0  0  0  0  0
    1.8248    3.2391   -3.8376 C   0  0  0  0  0  0  0  0  0  0  0  0
    1.8070    3.9870   -2.7241 N   0  0  0  0  0  0  0  0  0  0  0  0
    0.7154    4.7626   -2.5272 C   0  0  0  0  0  0  0  0  0  0  0  0
   -0.3535    4.8197   -3.3946 C   0  0  0  0  0  0  0  0  0  0  0  0
   -0.2551    3.9852   -4.4941 C   0  0  0  0  0  0  0  0  0  0  0  0
    0.8210    3.2155   -4.7279 N   0  0  0  0  0  0  0  0  0  0  0  0
   -1.3409    3.9359   -5.5363 C   0  0  0  0  0  0  0  0  0  0  0  0
   -2.6543    4.4510   -4.9599 C   0  0  0  0  0  0  0  0  0  0  0  0
   -2.4139    5.7481   -4.3324 N   0  0  0  0  0  0  0  0  0  0  0  0
   -2.8607    7.0019   -4.7791 C   0  0  0  0  0  0  0  0  0  0  0  0
   -2.6908    7.9845   -4.0542 O   0  0  0  0  0  0  0  0  0  0  0  0
   -3.4919    7.1200   -6.0934 C   0  0  0  0  0  0  0  0  0  0  0  0
   -3.2799    6.4518   -7.2885 C   0  0  0  0  0  0  0  0  0  0  0  0
   -4.1499    6.8777   -8.3370 C   0  0  0  0  0  0  0  0  0  0  0  0
   -4.9478    7.9231   -7.9423 C   0  0  0  0  0  0  0  0  0  0  0  0
   -4.6764    8.3573   -6.3129 S   0  0  0  0  0  0  0  0  0  0  0  0
   -1.5614    5.6766   -3.1438 C   0  0  0  0  0  0  0  0  0  0  0  0
    4.0664    0.9001   -5.5679 C   0  0  0  0  0  0  0  0  0  0  0  0
    4.5518    0.5596   -6.8364 C   0  0  0  0  0  0  0  0  0  0  0  0
    5.1118   -0.6673   -7.1105 O   0  0  0  0  0  0  0  0  0  0  0  0
    4.5305   -1.7684   -6.4195 C   0  0  0  0  0  0  0  0  0  0  0  0
    4.5284    1.5028   -7.8864 C   0  0  0  0  0  0  0  0  0  0  0  0
    5.0076    1.0469   -9.0936 O   0  0  0  0  0  0  0  0  0  0  0  0
    5.6821    1.9942   -9.9114 C   0  0  0  0  0  0  0  0  0  0  0  0
    3.7690    5.5809   -9.3557 H   0  0  0  0  0  0  0  0  0  0  0  0
    4.5415    5.3773   -7.7763 H   0  0  0  0  0  0  0  0  0  0  0  0
    2.7487    5.2349   -7.9631 H   0  0  0  0  0  0  0  0  0  0  0  0
    2.9949    4.0390   -6.2026 H   0  0  0  0  0  0  0  0  0  0  0  0
    3.6644    2.7285   -3.4055 H   0  0  0  0  0  0  0  0  0  0  0  0
    0.7376    5.3531   -1.6147 H   0  0  0  0  0  0  0  0  0  0  0  0
   -1.4657    2.9134   -5.9073 H   0  0  0  0  0  0  0  0  0  0  0  0
   -1.0103    4.5604   -6.3738 H   0  0  0  0  0  0  0  0  0  0  0  0
   -3.0174    3.7711   -4.1779 H   0  0  0  0  0  0  0  0  0  0  0  0
   -3.4434    4.4886   -5.7102 H   0  0  0  0  0  0  0  0  0  0  0  0
   -2.5455    5.6746   -7.4331 H   0  0  0  0  0  0  0  0  0  0  0  0
   -4.1649    6.4527   -9.3330 H   0  0  0  0  0  0  0  0  0  0  0  0
   -5.6737    8.4611   -8.5363 H   0  0  0  0  0  0  0  0  0  0  0  0
   -2.1622    5.2235   -2.3446 H   0  0  0  0  0  0  0  0  0  0  0  0
   -1.2496    6.6720   -2.8150 H   0  0  0  0  0  0  0  0  0  0  0  0
    4.1112    0.1936   -4.7457 H   0  0  0  0  0  0  0  0  0  0  0  0
    4.8262   -2.6845   -6.9399 H   0  0  0  0  0  0  0  0  0  0  0  0
    3.4356   -1.7222   -6.4226 H   0  0  0  0  0  0  0  0  0  0  0  0
    4.9164   -1.8284   -5.3971 H   0  0  0  0  0  0  0  0  0  0  0  0
    6.3304    1.4386  -10.5965 H   0  0  0  0  0  0  0  0  0  0  0  0
    6.3188    2.6691   -9.3289 H   0  0  0  0  0  0  0  0  0  0  0  0
    4.9700    2.5480  -10.5299 H   0  0  0  0  0  0  0  0  0  0  0  0
  1  2  1  0  0  0  0
  1 31  1  0  0  0  0
  1 32  1  0  0  0  0
  1 33  1  0  0  0  0
  2  3  1  0  0  0  0
  3  4  1  0  0  0  0
  3 28  2  0  0  0  0
  4  5  2  0  0  0  0
  4 34  1  0  0  0  0
  5  6  1  0  0  0  0
  5 24  1  0  0  0  0
  6  7  1  0  0  0  0
  6 35  1  0  0  0  0
  7  8  1  0  0  0  0
  7 12  2  0  0  0  0
  8  9  2  0  0  0  0
  9 10  1  0  0  0  0
  9 36  1  0  0  0  0
 10 11  2  0  0  0  0
 10 23  1  0  0  0  0
 11 12  1  0  0  0  0
 11 13  1  0  0  0  0
 13 14  1  0  0  0  0
 13 37  1  0  0  0  0
 13 38  1  0  0  0  0
 14 15  1  0  0  0  0
 14 39  1  0  0  0  0
 14 40  1  0  0  0  0
 15 16  1  0  0  0  0
 15 23  1  0  0  0  0
 16 17  2  0  0  0  0
 16 18  1  0  0  0  0
 18 19  2  0  0  0  0
 18 22  1  0  0  0  0
 19 20  1  0  0  0  0
 19 41  1  0  0  0  0
 20 21  2  0  0  0  0
 20 42  1  0  0  0  0
 21 22  1  0  0  0  0
 21 43  1  0  0  0  0
 23 44  1  0  0  0  0
 23 45  1  0  0  0  0
 24 25  2  0  0  0  0
 24 46  1  0  0  0  0
 25 26  1  0  0  0  0
 25 28  1  0  0  0  0
 26 27  1  0  0  0  0
 27 47  1  0  0  0  0
 27 48  1  0  0  0  0
 27 49  1  0  0  0  0
 28 29  1  0  0  0  0
 29 30  1  0  0  0  0
 30 50  1  0  0  0  0
 30 51  1  0  0  0  0
 30 52  1  0  0  0  0
M  END
$$$$
