CHEMBL523684
 OpenBabel04072215383D

 49 52  0  0  0  0  0  0  0  0999 V2000
    3.6480    3.4705   -4.0283 O   0  0  0  0  0  0  0  0  0  0  0  0
    2.6258    3.4218   -3.3547 C   0  0  0  0  0  0  0  0  0  0  0  0
    2.5736    3.8409   -1.9276 C   0  0  0  0  0  0  0  0  0  0  0  0
    3.6573    4.3315   -1.3031 C   0  0  0  0  0  0  0  0  0  0  0  0
    3.6173    4.6571    0.0865 C   0  0  0  0  0  0  0  0  0  0  0  0
    2.8686    4.0942    1.1066 C   0  0  0  0  0  0  0  0  0  0  0  0
    3.0937    4.7079    2.3719 C   0  0  0  0  0  0  0  0  0  0  0  0
    4.0230    5.7301    2.3082 C   0  0  0  0  0  0  0  0  0  0  0  0
    4.4598    6.5812    3.4190 C   0  0  0  0  0  0  0  0  0  0  0  0
    3.9807    6.4337    4.5417 O   0  0  0  0  0  0  0  0  0  0  0  0
    5.3878    7.5606    3.0936 N   0  0  0  0  0  0  0  0  0  0  0  0
    5.9663    8.5061    3.9714 C   0  0  0  0  0  0  0  0  0  0  0  0
    5.9419    8.3772    5.3568 C   0  0  0  0  0  0  0  0  0  0  0  0
    6.5398    9.3394    6.1699 C   0  0  0  0  0  0  0  0  0  0  0  0
    7.1716   10.4497    5.6082 C   0  0  0  0  0  0  0  0  0  0  0  0
    7.2232   10.6079    4.2188 C   0  0  0  0  0  0  0  0  0  0  0  0
    7.9526   11.6891    3.6701 N   0  0  0  0  0  0  0  0  0  0  0  0
    8.5793   11.6703    2.4681 C   0  0  0  0  0  0  0  0  0  0  0  0
    8.5968   10.6496    1.6414 N   0  0  0  0  0  0  0  0  0  0  0  0
    9.3782   10.9038    0.5489 C   0  0  0  0  0  0  0  0  0  0  0  0
    9.9884   12.1395    0.5213 C   0  0  0  0  0  0  0  0  0  0  0  0
   10.8992   12.6877   -0.4835 C   0  0  0  0  0  0  0  0  0  0  0  0
   10.8025   12.2908   -1.8248 C   0  0  0  0  0  0  0  0  0  0  0  0
   11.6814   12.8133   -2.7669 C   0  0  0  0  0  0  0  0  0  0  0  0
   12.6440   13.7098   -2.3485 C   0  0  0  0  0  0  0  0  0  0  0  0
   12.7942   14.1000   -1.0642 N   0  0  0  0  0  0  0  0  0  0  0  0
   11.9215   13.5765   -0.1680 C   0  0  0  0  0  0  0  0  0  0  0  0
    9.4879   13.0282    1.9094 S   0  0  0  0  0  0  0  0  0  0  0  0
    6.6148    9.6178    3.4192 C   0  0  0  0  0  0  0  0  0  0  0  0
    4.6334    5.8970    0.7158 S   0  0  0  0  0  0  0  0  0  0  0  0
    1.4239    2.9495   -3.8133 N   0  0  0  0  0  0  0  0  0  0  0  0
    1.3352    2.5013   -5.1472 O   0  0  0  0  0  0  0  0  0  0  0  0
    1.6308    3.7188   -1.4090 H   0  0  0  0  0  0  0  0  0  0  0  0
    4.5880    4.4838   -1.8475 H   0  0  0  0  0  0  0  0  0  0  0  0
    2.1846    3.2674    0.9576 H   0  0  0  0  0  0  0  0  0  0  0  0
    2.5905    4.4149    3.2883 H   0  0  0  0  0  0  0  0  0  0  0  0
    5.6251    7.6474    2.1121 H   0  0  0  0  0  0  0  0  0  0  0  0
    5.4943    7.5121    5.8343 H   0  0  0  0  0  0  0  0  0  0  0  0
    6.5221    9.2043    7.2485 H   0  0  0  0  0  0  0  0  0  0  0  0
    7.6453   11.1686    6.2711 H   0  0  0  0  0  0  0  0  0  0  0  0
    8.1371   12.4550    4.2995 H   0  0  0  0  0  0  0  0  0  0  0  0
    9.4854   10.1254   -0.1962 H   0  0  0  0  0  0  0  0  0  0  0  0
   10.0438   11.5845   -2.1490 H   0  0  0  0  0  0  0  0  0  0  0  0
   11.6106   12.5247   -3.8165 H   0  0  0  0  0  0  0  0  0  0  0  0
   13.3478   14.1482   -3.0463 H   0  0  0  0  0  0  0  0  0  0  0  0
   12.1011   13.8986    0.8545 H   0  0  0  0  0  0  0  0  0  0  0  0
    6.6187    9.7335    2.3394 H   0  0  0  0  0  0  0  0  0  0  0  0
    0.5596    2.9485   -3.2862 H   0  0  0  0  0  0  0  0  0  0  0  0
    2.2303    2.1474   -5.3259 H   0  0  0  0  0  0  0  0  0  0  0  0
  1  2  2  0  0  0  0
  2  3  1  0  0  0  0
  2 31  1  0  0  0  0
  3  4  2  0  0  0  0
  3 33  1  0  0  0  0
  4  5  1  0  0  0  0
  4 34  1  0  0  0  0
  5  6  2  0  0  0  0
  5 30  1  0  0  0  0
  6  7  1  0  0  0  0
  6 35  1  0  0  0  0
  7  8  2  0  0  0  0
  7 36  1  0  0  0  0
  8  9  1  0  0  0  0
  8 30  1  0  0  0  0
  9 10  2  0  0  0  0
  9 11  1  0  0  0  0
 11 12  1  0  0  0  0
 11 37  1  0  0  0  0
 12 13  1  0  0  0  0
 12 29  2  0  0  0  0
 13 14  2  0  0  0  0
 13 38  1  0  0  0  0
 14 15  1  0  0  0  0
 14 39  1  0  0  0  0
 15 16  2  0  0  0  0
 15 40  1  0  0  0  0
 16 17  1  0  0  0  0
 16 29  1  0  0  0  0
 17 18  1  0  0  0  0
 17 41  1  0  0  0  0
 18 19  2  0  0  0  0
 18 28  1  0  0  0  0
 19 20  1  0  0  0  0
 20 21  2  0  0  0  0
 20 42  1  0  0  0  0
 21 22  1  0  0  0  0
 21 28  1  0  0  0  0
 22 23  1  0  0  0  0
 22 27  2  0  0  0  0
 23 24  2  0  0  0  0
 23 43  1  0  0  0  0
 24 25  1  0  0  0  0
 24 44  1  0  0  0  0
 25 26  2  0  0  0  0
 25 45  1  0  0  0  0
 26 27  1  0  0  0  0
 27 46  1  0  0  0  0
 29 47  1  0  0  0  0
 31 32  1  0  0  0  0
 31 48  1  0  0  0  0
 32 49  1  0  0  0  0
M  END
$$$$
