CHEMBL3706835
 OpenBabel04072215373D

 50 52  0  0  0  0  0  0  0  0999 V2000
    1.1588   -0.9373    0.2253 C   0  0  0  0  0  0  0  0  0  0  0  0
    2.4106   -0.2795    0.2412 O   0  0  0  0  0  0  0  0  0  0  0  0
    2.8879    0.0053    1.5606 C   0  0  0  0  0  0  0  0  0  0  0  0
    4.2008    0.7474    1.3550 C   0  0  0  0  0  0  0  0  0  0  0  0
    4.8582    1.1024    2.5537 O   0  0  0  0  0  0  0  0  0  0  0  0
    6.2185    1.2882    2.5042 C   0  0  0  0  0  0  0  0  0  0  0  0
    6.7898    1.0879    3.7851 C   0  0  0  0  0  0  0  0  0  0  0  0
    8.1586    1.1392    4.0451 C   0  0  0  0  0  0  0  0  0  0  0  0
    8.6143    0.8912    5.2799 N   0  0  0  0  0  0  0  0  0  0  0  0
    9.9398    0.9404    5.4568 C   0  0  0  0  0  0  0  0  0  0  0  0
   10.8504    1.2305    4.5231 N   0  0  0  0  0  0  0  0  0  0  0  0
   10.3874    1.4864    3.2878 C   0  0  0  0  0  0  0  0  0  0  0  0
   11.3054    1.7731    2.2503 N   0  0  0  0  0  0  0  0  0  0  0  0
   12.6908    1.7383    2.3090 C   0  0  0  0  0  0  0  0  0  0  0  0
   13.4727    1.0041    3.1105 C   0  0  0  0  0  0  0  0  0  0  0  0
   14.9450    1.0508    3.0827 C   0  0  0  0  0  0  0  0  0  0  0  0
   15.5985    0.3266    3.8307 O   0  0  0  0  0  0  0  0  0  0  0  0
   15.6042    1.9839    2.1157 C   0  0  0  0  0  0  0  0  0  0  0  0
   16.9903    2.0367    2.1612 O   0  0  0  0  0  0  0  0  0  0  0  0
   17.6322    3.0141    1.3365 C   0  0  0  0  0  0  0  0  0  0  0  0
   19.1349    3.0200    1.5550 C   0  0  0  0  0  0  0  0  0  0  0  0
   19.7076    3.8281    0.6230 F   0  0  0  0  0  0  0  0  0  0  0  0
   19.4276    3.5668    2.7621 F   0  0  0  0  0  0  0  0  0  0  0  0
   14.8288    2.6953    1.2844 C   0  0  0  0  0  0  0  0  0  0  0  0
   13.3604    2.6137    1.2957 C   0  0  0  0  0  0  0  0  0  0  0  0
   12.6981    3.2691    0.4937 O   0  0  0  0  0  0  0  0  0  0  0  0
    9.0118    1.4321    2.9845 C   0  0  0  0  0  0  0  0  0  0  0  0
    8.4565    1.6330    1.6982 C   0  0  0  0  0  0  0  0  0  0  0  0
    7.0755    1.5797    1.4379 C   0  0  0  0  0  0  0  0  0  0  0  0
    6.8622    1.7194    0.0985 O   0  0  0  0  0  0  0  0  0  0  0  0
    5.7777    2.4606   -0.4274 C   0  0  0  0  0  0  0  0  0  0  0  0
    0.8939   -1.1217   -0.8201 H   0  0  0  0  0  0  0  0  0  0  0  0
    0.3886   -0.3040    0.6730 H   0  0  0  0  0  0  0  0  0  0  0  0
    1.2236   -1.8965    0.7445 H   0  0  0  0  0  0  0  0  0  0  0  0
    3.0367   -0.9171    2.1307 H   0  0  0  0  0  0  0  0  0  0  0  0
    2.1701    0.6380    2.0970 H   0  0  0  0  0  0  0  0  0  0  0  0
    3.9082    1.6683    0.8515 H   0  0  0  0  0  0  0  0  0  0  0  0
    4.8410    0.1339    0.7122 H   0  0  0  0  0  0  0  0  0  0  0  0
    6.1306    0.8358    4.6165 H   0  0  0  0  0  0  0  0  0  0  0  0
   10.3150    0.7219    6.4512 H   0  0  0  0  0  0  0  0  0  0  0  0
   10.9889    2.5433    1.6575 H   0  0  0  0  0  0  0  0  0  0  0  0
   13.0573    0.3196    3.8392 H   0  0  0  0  0  0  0  0  0  0  0  0
   17.2425    4.0121    1.5690 H   0  0  0  0  0  0  0  0  0  0  0  0
   17.4363    2.7820    0.2834 H   0  0  0  0  0  0  0  0  0  0  0  0
   19.5840    2.0256    1.4945 H   0  0  0  0  0  0  0  0  0  0  0  0
   15.2187    3.3850    0.5476 H   0  0  0  0  0  0  0  0  0  0  0  0
    9.1178    1.8153    0.8517 H   0  0  0  0  0  0  0  0  0  0  0  0
    6.1407    3.0907   -1.2451 H   0  0  0  0  0  0  0  0  0  0  0  0
    5.2844    3.1090    0.3012 H   0  0  0  0  0  0  0  0  0  0  0  0
    5.0835    1.7528   -0.8926 H   0  0  0  0  0  0  0  0  0  0  0  0
  1  2  1  0  0  0  0
  1 32  1  0  0  0  0
  1 33  1  0  0  0  0
  1 34  1  0  0  0  0
  2  3  1  0  0  0  0
  3  4  1  0  0  0  0
  3 35  1  0  0  0  0
  3 36  1  0  0  0  0
  4  5  1  0  0  0  0
  4 37  1  0  0  0  0
  4 38  1  0  0  0  0
  5  6  1  0  0  0  0
  6  7  1  0  0  0  0
  6 29  2  0  0  0  0
  7  8  2  0  0  0  0
  7 39  1  0  0  0  0
  8  9  1  0  0  0  0
  8 27  1  0  0  0  0
  9 10  2  0  0  0  0
 10 11  1  0  0  0  0
 10 40  1  0  0  0  0
 11 12  2  0  0  0  0
 12 13  1  0  0  0  0
 12 27  1  0  0  0  0
 13 14  1  0  0  0  0
 13 41  1  0  0  0  0
 14 15  2  0  0  0  0
 14 25  1  0  0  0  0
 15 16  1  0  0  0  0
 15 42  1  0  0  0  0
 16 17  2  0  0  0  0
 16 18  1  0  0  0  0
 18 19  1  0  0  0  0
 18 24  2  0  0  0  0
 19 20  1  0  0  0  0
 20 21  1  0  0  0  0
 20 43  1  0  0  0  0
 20 44  1  0  0  0  0
 21 22  1  0  0  0  0
 21 23  1  0  0  0  0
 21 45  1  0  0  0  0
 24 25  1  0  0  0  0
 24 46  1  0  0  0  0
 25 26  2  0  0  0  0
 27 28  2  0  0  0  0
 28 29  1  0  0  0  0
 28 47  1  0  0  0  0
 29 30  1  0  0  0  0
 30 31  1  0  0  0  0
 31 48  1  0  0  0  0
 31 49  1  0  0  0  0
 31 50  1  0  0  0  0
M  END
$$$$
