CHEMBL318835
 OpenBabel04072215363D

 49 52  0  0  0  0  0  0  0  0999 V2000
    2.8255   -4.5655    0.2573 C   0  0  0  0  0  0  0  0  0  0  0  0
    2.4250   -3.3895    1.0339 N   0  0  0  0  0  0  0  0  0  0  0  0
    0.9622   -3.2888    1.0508 C   0  0  0  0  0  0  0  0  0  0  0  0
    2.9448   -3.4290    2.4107 C   0  0  0  0  0  0  0  0  0  0  0  0
    4.4740   -3.3830    2.5012 C   0  0  0  0  0  0  0  0  0  0  0  0
    5.0572   -2.1462    1.8225 C   0  0  0  0  0  0  0  0  0  0  0  0
    6.5132   -2.1616    1.8351 N   0  0  0  0  0  0  0  0  0  0  0  0
    7.2758   -1.6512    2.8526 C   0  0  0  0  0  0  0  0  0  0  0  0
    8.6073   -1.7913    2.5132 C   0  0  0  0  0  0  0  0  0  0  0  0
    9.6962   -1.3107    3.3512 C   0  0  0  0  0  0  0  0  0  0  0  0
   10.9143   -1.9794    3.4195 C   0  0  0  0  0  0  0  0  0  0  0  0
   11.9885   -1.5453    4.1213 N   0  0  0  0  0  0  0  0  0  0  0  0
   11.8319   -0.3876    4.8060 C   0  0  0  0  0  0  0  0  0  0  0  0
   10.6514    0.3509    4.8487 C   0  0  0  0  0  0  0  0  0  0  0  0
   10.5282    1.5871    5.6189 C   0  0  0  0  0  0  0  0  0  0  0  0
    9.6729    2.7050    5.3330 C   0  0  0  0  0  0  0  0  0  0  0  0
    9.7820    3.7126    6.2654 C   0  0  0  0  0  0  0  0  0  0  0  0
   10.9015    3.3285    7.4943 S   0  0  0  0  0  0  0  0  0  0  0  0
   11.2401    1.8083    6.7836 C   0  0  0  0  0  0  0  0  0  0  0  0
    9.5737   -0.1330    4.0982 C   0  0  0  0  0  0  0  0  0  0  0  0
    8.6458   -2.4288    1.2289 C   0  0  0  0  0  0  0  0  0  0  0  0
    9.6826   -2.8179    0.3494 C   0  0  0  0  0  0  0  0  0  0  0  0
    9.3792   -3.4325   -0.8685 C   0  0  0  0  0  0  0  0  0  0  0  0
    8.0559   -3.6519   -1.2327 C   0  0  0  0  0  0  0  0  0  0  0  0
    7.0071   -3.2632   -0.3951 C   0  0  0  0  0  0  0  0  0  0  0  0
    7.3239   -2.6537    0.8312 C   0  0  0  0  0  0  0  0  0  0  0  0
    2.4161   -4.5110   -0.7578 H   0  0  0  0  0  0  0  0  0  0  0  0
    2.4882   -5.5003    0.7181 H   0  0  0  0  0  0  0  0  0  0  0  0
    3.9117   -4.6103    0.1354 H   0  0  0  0  0  0  0  0  0  0  0  0
    0.5676   -3.2368    0.0296 H   0  0  0  0  0  0  0  0  0  0  0  0
    0.6444   -2.3693    1.5546 H   0  0  0  0  0  0  0  0  0  0  0  0
    0.4956   -4.1415    1.5574 H   0  0  0  0  0  0  0  0  0  0  0  0
    2.5820   -4.3222    2.9365 H   0  0  0  0  0  0  0  0  0  0  0  0
    2.5575   -2.5620    2.9622 H   0  0  0  0  0  0  0  0  0  0  0  0
    4.9109   -4.2955    2.0785 H   0  0  0  0  0  0  0  0  0  0  0  0
    4.7609   -3.3848    3.5608 H   0  0  0  0  0  0  0  0  0  0  0  0
    4.7349   -1.2336    2.3387 H   0  0  0  0  0  0  0  0  0  0  0  0
    4.7382   -2.0543    0.7796 H   0  0  0  0  0  0  0  0  0  0  0  0
    6.8047   -1.2288    3.7304 H   0  0  0  0  0  0  0  0  0  0  0  0
   11.0759   -2.9195    2.9003 H   0  0  0  0  0  0  0  0  0  0  0  0
   12.7281   -0.0619    5.3264 H   0  0  0  0  0  0  0  0  0  0  0  0
    9.0110    2.7748    4.4777 H   0  0  0  0  0  0  0  0  0  0  0  0
    9.2564    4.6578    6.2823 H   0  0  0  0  0  0  0  0  0  0  0  0
   11.9467    1.1543    7.2761 H   0  0  0  0  0  0  0  0  0  0  0  0
    8.6340    0.4119    4.0847 H   0  0  0  0  0  0  0  0  0  0  0  0
   10.7231   -2.6373    0.6033 H   0  0  0  0  0  0  0  0  0  0  0  0
   10.1841   -3.7330   -1.5327 H   0  0  0  0  0  0  0  0  0  0  0  0
    7.8331   -4.1232   -2.1866 H   0  0  0  0  0  0  0  0  0  0  0  0
    5.9790   -3.4264   -0.6995 H   0  0  0  0  0  0  0  0  0  0  0  0
  1  2  1  0  0  0  0
  1 27  1  0  0  0  0
  1 28  1  0  0  0  0
  1 29  1  0  0  0  0
  2  3  1  0  0  0  0
  2  4  1  0  0  0  0
  3 30  1  0  0  0  0
  3 31  1  0  0  0  0
  3 32  1  0  0  0  0
  4  5  1  0  0  0  0
  4 33  1  0  0  0  0
  4 34  1  0  0  0  0
  5  6  1  0  0  0  0
  5 35  1  0  0  0  0
  5 36  1  0  0  0  0
  6  7  1  0  0  0  0
  6 37  1  0  0  0  0
  6 38  1  0  0  0  0
  7  8  1  0  0  0  0
  7 26  1  0  0  0  0
  8  9  2  0  0  0  0
  8 39  1  0  0  0  0
  9 10  1  0  0  0  0
  9 21  1  0  0  0  0
 10 11  1  0  0  0  0
 10 20  2  0  0  0  0
 11 12  2  0  0  0  0
 11 40  1  0  0  0  0
 12 13  1  0  0  0  0
 13 14  2  0  0  0  0
 13 41  1  0  0  0  0
 14 15  1  0  0  0  0
 14 20  1  0  0  0  0
 15 16  1  0  0  0  0
 15 19  2  0  0  0  0
 16 17  2  0  0  0  0
 16 42  1  0  0  0  0
 17 18  1  0  0  0  0
 17 43  1  0  0  0  0
 18 19  1  0  0  0  0
 19 44  1  0  0  0  0
 20 45  1  0  0  0  0
 21 22  1  0  0  0  0
 21 26  2  0  0  0  0
 22 23  2  0  0  0  0
 22 46  1  0  0  0  0
 23 24  1  0  0  0  0
 23 47  1  0  0  0  0
 24 25  2  0  0  0  0
 24 48  1  0  0  0  0
 25 26  1  0  0  0  0
 25 49  1  0  0  0  0
M  END
$$$$
