CHEMBL2036865
 OpenBabel04072215363D

 39 42  0  0  0  0  0  0  0  0999 V2000
   -1.6585   -0.9420    2.6005 C   0  0  0  0  0  0  0  0  0  0  0  0
   -1.2314   -0.7423    1.2357 N   0  0  0  0  0  0  0  0  0  0  0  0
   -1.9370   -0.9479    0.0617 C   0  0  0  0  0  0  0  0  0  0  0  0
   -3.3150   -1.4451   -0.0501 C   0  0  0  0  0  0  0  0  0  0  0  0
   -4.1204   -1.0809   -1.1021 C   0  0  0  0  0  0  0  0  0  0  0  0
   -5.4096   -1.5484   -1.0417 C   0  0  0  0  0  0  0  0  0  0  0  0
   -5.8883   -2.3100   -0.0366 N   0  0  0  0  0  0  0  0  0  0  0  0
   -5.0121   -2.6714    0.9093 C   0  0  0  0  0  0  0  0  0  0  0  0
   -5.4612   -3.4752    1.9529 N   0  0  0  0  0  0  0  0  0  0  0  0
   -4.7212   -4.4056    2.6993 C   0  0  0  0  0  0  0  0  0  0  0  0
   -5.1173   -4.7265    4.0032 C   0  0  0  0  0  0  0  0  0  0  0  0
   -4.3285   -5.5590    4.8102 C   0  0  0  0  0  0  0  0  0  0  0  0
   -3.1378   -6.0818    4.3136 C   0  0  0  0  0  0  0  0  0  0  0  0
   -2.3577   -6.8832    5.1016 O   0  0  0  0  0  0  0  0  0  0  0  0
   -2.7324   -5.7826    3.0124 C   0  0  0  0  0  0  0  0  0  0  0  0
   -1.2554   -6.3908    2.3597 Cl  0  0  0  0  0  0  0  0  0  0  0  0
   -3.5209   -4.9526    2.2179 C   0  0  0  0  0  0  0  0  0  0  0  0
   -3.7367   -2.2579    0.9258 N   0  0  0  0  0  0  0  0  0  0  0  0
   -1.2025   -0.5698   -0.9771 N   0  0  0  0  0  0  0  0  0  0  0  0
   -0.0087   -0.1282   -0.4707 C   0  0  0  0  0  0  0  0  0  0  0  0
    1.1156    0.3775   -1.1405 C   0  0  0  0  0  0  0  0  0  0  0  0
    2.2211    0.7934   -0.3868 C   0  0  0  0  0  0  0  0  0  0  0  0
    2.2060    0.7095    1.0063 C   0  0  0  0  0  0  0  0  0  0  0  0
    1.0929    0.2064    1.6893 C   0  0  0  0  0  0  0  0  0  0  0  0
    0.0021   -0.2095    0.9145 C   0  0  0  0  0  0  0  0  0  0  0  0
   -2.6490   -1.3741    2.6757 H   0  0  0  0  0  0  0  0  0  0  0  0
   -1.6732    0.0327    3.0983 H   0  0  0  0  0  0  0  0  0  0  0  0
   -0.9421   -1.6077    3.0912 H   0  0  0  0  0  0  0  0  0  0  0  0
   -3.7648   -0.4545   -1.9080 H   0  0  0  0  0  0  0  0  0  0  0  0
   -6.1242   -1.3090   -1.8249 H   0  0  0  0  0  0  0  0  0  0  0  0
   -6.4669   -3.5484    1.9698 H   0  0  0  0  0  0  0  0  0  0  0  0
   -6.0257   -4.2971    4.4194 H   0  0  0  0  0  0  0  0  0  0  0  0
   -4.6502   -5.7672    5.8254 H   0  0  0  0  0  0  0  0  0  0  0  0
   -2.7835   -6.9998    5.9631 H   0  0  0  0  0  0  0  0  0  0  0  0
   -3.1915   -4.7363    1.2043 H   0  0  0  0  0  0  0  0  0  0  0  0
    1.1196    0.4445   -2.2221 H   0  0  0  0  0  0  0  0  0  0  0  0
    3.0979    1.1876   -0.8943 H   0  0  0  0  0  0  0  0  0  0  0  0
    3.0748    1.0395    1.5722 H   0  0  0  0  0  0  0  0  0  0  0  0
    1.0851    0.1459    2.7724 H   0  0  0  0  0  0  0  0  0  0  0  0
  1  2  1  0  0  0  0
  1 26  1  0  0  0  0
  1 27  1  0  0  0  0
  1 28  1  0  0  0  0
  2  3  1  0  0  0  0
  2 25  1  0  0  0  0
  3  4  1  0  0  0  0
  3 19  2  0  0  0  0
  4  5  1  0  0  0  0
  4 18  2  0  0  0  0
  5  6  2  0  0  0  0
  5 29  1  0  0  0  0
  6  7  1  0  0  0  0
  6 30  1  0  0  0  0
  7  8  2  0  0  0  0
  8  9  1  0  0  0  0
  8 18  1  0  0  0  0
  9 10  1  0  0  0  0
  9 31  1  0  0  0  0
 10 11  1  0  0  0  0
 10 17  2  0  0  0  0
 11 12  2  0  0  0  0
 11 32  1  0  0  0  0
 12 13  1  0  0  0  0
 12 33  1  0  0  0  0
 13 14  1  0  0  0  0
 13 15  2  0  0  0  0
 14 34  1  0  0  0  0
 15 16  1  0  0  0  0
 15 17  1  0  0  0  0
 17 35  1  0  0  0  0
 19 20  1  0  0  0  0
 20 21  1  0  0  0  0
 20 25  2  0  0  0  0
 21 22  2  0  0  0  0
 21 36  1  0  0  0  0
 22 23  1  0  0  0  0
 22 37  1  0  0  0  0
 23 24  2  0  0  0  0
 23 38  1  0  0  0  0
 24 25  1  0  0  0  0
 24 39  1  0  0  0  0
M  END
$$$$
