CHEMBL1794060
 OpenBabel04072215363D

 40 41  0  0  0  0  0  0  0  0999 V2000
    0.8097   -0.0396    0.4860 C   0  0  0  0  0  0  0  0  0  0  0  0
    2.1849    0.0924    0.4979 O   0  0  0  0  0  0  0  0  0  0  0  0
    3.0518   -0.7833    1.0755 C   0  0  0  0  0  0  0  0  0  0  0  0
    2.7203   -2.1394    1.2088 C   0  0  0  0  0  0  0  0  0  0  0  0
    3.5668   -3.0207    1.8689 C   0  0  0  0  0  0  0  0  0  0  0  0
    4.7772   -2.5704    2.4325 C   0  0  0  0  0  0  0  0  0  0  0  0
    5.6109   -3.3954    3.2536 N   0  0  0  0  0  0  0  0  0  0  0  0
    5.1362   -4.5429    3.9514 C   0  0  0  0  0  0  0  0  0  0  0  0
    5.7497   -5.0435    5.0428 N   0  0  0  0  0  0  0  0  0  0  0  0
    4.9107   -6.0067    5.4740 C   0  0  0  0  0  0  0  0  0  0  0  0
    3.8285   -6.0615    4.6150 C   0  0  0  0  0  0  0  0  0  0  0  0
    2.6469   -6.9480    4.6615 C   0  0  0  0  0  0  0  0  0  0  0  0
    2.4440   -7.8444    5.7245 C   0  0  0  0  0  0  0  0  0  0  0  0
    1.3168   -8.6713    5.7431 C   0  0  0  0  0  0  0  0  0  0  0  0
    0.3862   -8.6161    4.7025 C   0  0  0  0  0  0  0  0  0  0  0  0
    0.5789   -7.7305    3.6403 C   0  0  0  0  0  0  0  0  0  0  0  0
    1.7004   -6.8973    3.6192 C   0  0  0  0  0  0  0  0  0  0  0  0
    4.0001   -5.1440    3.7031 O   0  0  0  0  0  0  0  0  0  0  0  0
    5.1421   -1.2294    2.2401 C   0  0  0  0  0  0  0  0  0  0  0  0
    4.2989   -0.3246    1.5772 C   0  0  0  0  0  0  0  0  0  0  0  0
    4.7176    0.9696    1.5077 O   0  0  0  0  0  0  0  0  0  0  0  0
    4.0373    2.0428    0.9744 C   0  0  0  0  0  0  0  0  0  0  0  0
    1.0726   -0.5053   -2.8933 Cl  0  0  0  0  0  0  0  0  0  0  0  0
    0.3722    0.8146   -0.0684 H   0  0  0  0  0  0  0  0  0  0  0  0
    0.4282   -0.0190    1.5284 H   0  0  0  0  0  0  0  0  0  0  0  0
    0.4857   -0.9764   -0.0088 H   0  0  0  0  0  0  0  0  0  0  0  0
    1.7926   -2.5343    0.8208 H   0  0  0  0  0  0  0  0  0  0  0  0
    3.2281   -4.0381    1.9308 H   0  0  0  0  0  0  0  0  0  0  0  0
    6.5128   -3.0078    3.5711 H   0  0  0  0  0  0  0  0  0  0  0  0
    5.0816   -6.6116    6.3526 H   0  0  0  0  0  0  0  0  0  0  0  0
    3.1486   -7.9041    6.5418 H   0  0  0  0  0  0  0  0  0  0  0  0
    1.1641   -9.3558    6.5675 H   0  0  0  0  0  0  0  0  0  0  0  0
   -0.4839   -9.2589    4.7185 H   0  0  0  0  0  0  0  0  0  0  0  0
   -0.1410   -7.6900    2.8322 H   0  0  0  0  0  0  0  0  0  0  0  0
    1.8310   -6.2192    2.7842 H   0  0  0  0  0  0  0  0  0  0  0  0
    6.0715   -0.8622    2.6635 H   0  0  0  0  0  0  0  0  0  0  0  0
    4.6477    2.9586    1.1053 H   0  0  0  0  0  0  0  0  0  0  0  0
    3.0764    2.1922    1.5129 H   0  0  0  0  0  0  0  0  0  0  0  0
    3.8603    1.8876   -0.1102 H   0  0  0  0  0  0  0  0  0  0  0  0
    1.7756   -1.2744   -1.9939 H   0  0  0  0  0  0  0  0  0  0  0  0
  1  2  1  0  0  0  0
  1 24  1  0  0  0  0
  1 25  1  0  0  0  0
  1 26  1  0  0  0  0
  2  3  1  0  0  0  0
  3  4  1  0  0  0  0
  3 20  2  0  0  0  0
  4  5  2  0  0  0  0
  4 27  1  0  0  0  0
  5  6  1  0  0  0  0
  5 28  1  0  0  0  0
  6  7  1  0  0  0  0
  6 19  2  0  0  0  0
  7  8  1  0  0  0  0
  7 29  1  0  0  0  0
  8  9  2  0  0  0  0
  8 18  1  0  0  0  0
  9 10  1  0  0  0  0
 10 11  2  0  0  0  0
 10 30  1  0  0  0  0
 11 12  1  0  0  0  0
 11 18  1  0  0  0  0
 12 13  1  0  0  0  0
 12 17  2  0  0  0  0
 13 14  2  0  0  0  0
 13 31  1  0  0  0  0
 14 15  1  0  0  0  0
 14 32  1  0  0  0  0
 15 16  2  0  0  0  0
 15 33  1  0  0  0  0
 16 17  1  0  0  0  0
 16 34  1  0  0  0  0
 17 35  1  0  0  0  0
 19 20  1  0  0  0  0
 19 36  1  0  0  0  0
 20 21  1  0  0  0  0
 21 22  1  0  0  0  0
 22 37  1  0  0  0  0
 22 38  1  0  0  0  0
 22 39  1  0  0  0  0
 23 40  1  0  0  0  0
M  END
$$$$
