CHEMBL3612235
 OpenBabel04072215363D

 41 44  0  0  0  0  0  0  0  0999 V2000
    2.4917   -1.2459    0.4274 O   0  0  0  0  0  0  0  0  0  0  0  0
    2.1244   -0.3361   -0.3079 C   0  0  0  0  0  0  0  0  0  0  0  0
    0.7962   -0.0083   -0.5428 N   0  0  0  0  0  0  0  0  0  0  0  0
   -0.3323   -0.6707   -0.0047 C   0  0  0  0  0  0  0  0  0  0  0  0
   -0.2687   -1.5749    1.0595 C   0  0  0  0  0  0  0  0  0  0  0  0
   -1.4141   -2.2438    1.5003 C   0  0  0  0  0  0  0  0  0  0  0  0
   -2.6402   -2.0072    0.8874 C   0  0  0  0  0  0  0  0  0  0  0  0
   -2.7244   -1.0855   -0.1531 C   0  0  0  0  0  0  0  0  0  0  0  0
   -1.5779   -0.4130   -0.5911 C   0  0  0  0  0  0  0  0  0  0  0  0
    2.9817    0.4733   -1.0388 N   0  0  0  0  0  0  0  0  0  0  0  0
    4.3866    0.3468   -1.1373 C   0  0  0  0  0  0  0  0  0  0  0  0
    5.1220   -0.6689   -0.5220 C   0  0  0  0  0  0  0  0  0  0  0  0
    6.5142   -0.7300   -0.6546 C   0  0  0  0  0  0  0  0  0  0  0  0
    7.1928    0.2098   -1.4279 C   0  0  0  0  0  0  0  0  0  0  0  0
    8.9677    0.1572   -1.5488 S   0  0  0  0  0  0  0  0  0  0  0  0
    9.2126   -0.8529   -2.9916 C   0  0  0  0  0  0  0  0  0  0  0  0
    8.8138   -2.1896   -3.0246 C   0  0  0  0  0  0  0  0  0  0  0  0
    9.0871   -2.9462   -4.1469 C   0  0  0  0  0  0  0  0  0  0  0  0
    9.7268   -2.5037   -5.2418 N   0  0  0  0  0  0  0  0  0  0  0  0
   10.1221   -1.2029   -5.2120 C   0  0  0  0  0  0  0  0  0  0  0  0
   10.8227   -0.5534   -6.2702 C   0  0  0  0  0  0  0  0  0  0  0  0
   11.1002    0.7627   -5.9882 C   0  0  0  0  0  0  0  0  0  0  0  0
   10.5282    1.2184   -4.4467 S   0  0  0  0  0  0  0  0  0  0  0  0
    9.8872   -0.3549   -4.1246 C   0  0  0  0  0  0  0  0  0  0  0  0
    6.4663    1.2261   -2.0516 C   0  0  0  0  0  0  0  0  0  0  0  0
    5.0741    1.2947   -1.9065 C   0  0  0  0  0  0  0  0  0  0  0  0
    0.6131    0.6345   -1.2969 H   0  0  0  0  0  0  0  0  0  0  0  0
    0.6624   -1.7856    1.5761 H   0  0  0  0  0  0  0  0  0  0  0  0
   -1.3381   -2.9547    2.3192 H   0  0  0  0  0  0  0  0  0  0  0  0
   -3.5259   -2.5405    1.2221 H   0  0  0  0  0  0  0  0  0  0  0  0
   -3.6818   -0.8985   -0.6323 H   0  0  0  0  0  0  0  0  0  0  0  0
   -1.6738    0.2906   -1.4129 H   0  0  0  0  0  0  0  0  0  0  0  0
    2.5720    1.2676   -1.5052 H   0  0  0  0  0  0  0  0  0  0  0  0
    4.6502   -1.4346    0.0841 H   0  0  0  0  0  0  0  0  0  0  0  0
    7.0522   -1.5196   -0.1369 H   0  0  0  0  0  0  0  0  0  0  0  0
    8.3052   -2.6483   -2.1836 H   0  0  0  0  0  0  0  0  0  0  0  0
    8.7864   -3.9908   -4.1890 H   0  0  0  0  0  0  0  0  0  0  0  0
   11.1042   -1.0434   -7.1930 H   0  0  0  0  0  0  0  0  0  0  0  0
   11.6147    1.4791   -6.6140 H   0  0  0  0  0  0  0  0  0  0  0  0
    6.9776    1.9805   -2.6451 H   0  0  0  0  0  0  0  0  0  0  0  0
    4.5420    2.1035   -2.4006 H   0  0  0  0  0  0  0  0  0  0  0  0
  1  2  2  0  0  0  0
  2  3  1  0  0  0  0
  2 10  1  0  0  0  0
  3  4  1  0  0  0  0
  3 27  1  0  0  0  0
  4  5  1  0  0  0  0
  4  9  2  0  0  0  0
  5  6  2  0  0  0  0
  5 28  1  0  0  0  0
  6  7  1  0  0  0  0
  6 29  1  0  0  0  0
  7  8  2  0  0  0  0
  7 30  1  0  0  0  0
  8  9  1  0  0  0  0
  8 31  1  0  0  0  0
  9 32  1  0  0  0  0
 10 11  1  0  0  0  0
 10 33  1  0  0  0  0
 11 12  1  0  0  0  0
 11 26  2  0  0  0  0
 12 13  2  0  0  0  0
 12 34  1  0  0  0  0
 13 14  1  0  0  0  0
 13 35  1  0  0  0  0
 14 15  1  0  0  0  0
 14 25  2  0  0  0  0
 15 16  1  0  0  0  0
 16 17  1  0  0  0  0
 16 24  2  0  0  0  0
 17 18  2  0  0  0  0
 17 36  1  0  0  0  0
 18 19  1  0  0  0  0
 18 37  1  0  0  0  0
 19 20  2  0  0  0  0
 20 21  1  0  0  0  0
 20 24  1  0  0  0  0
 21 22  2  0  0  0  0
 21 38  1  0  0  0  0
 22 23  1  0  0  0  0
 22 39  1  0  0  0  0
 23 24  1  0  0  0  0
 25 26  1  0  0  0  0
 25 40  1  0  0  0  0
 26 41  1  0  0  0  0
M  END
$$$$
