CHEMBL3940334
 OpenBabel04072215373D

 60 64  0  0  1  0  0  0  0  0999 V2000
    1.9571   -2.1046   -5.4420 C   0  0  0  0  0  0  0  0  0  0  0  0
    2.0425   -0.7356   -5.0594 O   0  0  0  0  0  0  0  0  0  0  0  0
    2.9685   -0.4652   -4.0856 C   0  0  0  0  0  0  0  0  0  0  0  0
    2.5998    0.5389   -3.1914 C   0  0  0  0  0  0  0  0  0  0  0  0
    3.4417    0.8685   -2.1343 C   0  0  0  0  0  0  0  0  0  0  0  0
    3.1840    1.8259   -1.1874 O   0  0  0  0  0  0  0  0  0  0  0  0
    2.0264    2.6302   -1.3917 C   0  0  0  0  0  0  0  0  0  0  0  0
    4.6525    0.1747   -1.9697 C   0  0  0  0  0  0  0  0  0  0  0  0
    5.0636   -0.8216   -2.8658 C   0  0  0  0  0  0  0  0  0  0  0  0
    6.2228   -1.6059   -2.6934 N   0  0  0  0  0  0  0  0  0  0  0  0
    6.6765   -1.9605   -1.2946 C   0  0  0  0  0  0  0  0  0  0  0  0
    5.7463   -2.7220   -0.3125 C   0  0  3  0  0  0  0  0  0  0  0  0
    5.2636   -4.1257   -0.6506 C   0  0  0  0  0  0  0  0  0  0  0  0
    4.0793   -4.3025    0.2832 C   0  0  0  0  0  0  0  0  0  0  0  0
    3.5771   -2.8924    0.5215 C   0  0  0  0  0  0  0  0  0  0  0  0
    4.6060   -1.9783    0.1261 O   0  0  0  0  0  0  0  0  0  0  0  0
    7.4268   -1.5189   -3.5001 C   0  0  0  0  0  0  0  0  0  0  0  0
    7.9746   -2.7551   -3.8224 C   0  0  0  0  0  0  0  0  0  0  0  0
    9.3454   -2.8794   -3.9201 C   0  0  0  0  0  0  0  0  0  0  0  0
   10.1718   -1.7820   -3.8639 C   0  0  0  0  0  0  0  0  0  0  0  0
   11.4665   -2.0852   -3.7259 N   0  0  0  0  0  0  0  0  0  0  0  0
   12.3294   -1.0699   -3.8444 C   0  0  0  0  0  0  0  0  0  0  0  0
   11.9351    0.1961   -4.2134 C   0  0  0  0  0  0  0  0  0  0  0  0
   12.9707    1.0437   -4.7768 C   0  0  0  0  0  0  0  0  0  0  0  0
   13.3641    1.1838   -6.1366 C   0  0  0  0  0  0  0  0  0  0  0  0
   14.5286    1.8295   -6.2818 N   0  0  0  0  0  0  0  0  0  0  0  0
   14.8892    2.1034   -5.0173 N   0  0  0  0  0  0  0  0  0  0  0  0
   15.9332    3.0642   -4.7469 C   0  0  0  0  0  0  0  0  0  0  0  0
   14.0883    1.4921   -4.0894 C   0  0  0  0  0  0  0  0  0  0  0  0
   10.5833    0.5330   -4.2192 N   0  0  0  0  0  0  0  0  0  0  0  0
    9.6630   -0.4726   -3.9480 C   0  0  0  0  0  0  0  0  0  0  0  0
    8.2423   -0.3617   -3.6903 C   0  0  0  0  0  0  0  0  0  0  0  0
    4.2086   -1.1026   -3.9515 C   0  0  0  0  0  0  0  0  0  0  0  0
    0.9780   -2.2633   -5.9062 H   0  0  0  0  0  0  0  0  0  0  0  0
    2.0257   -2.7791   -4.5808 H   0  0  0  0  0  0  0  0  0  0  0  0
    2.7249   -2.3382   -6.1846 H   0  0  0  0  0  0  0  0  0  0  0  0
    1.6389    1.0214   -3.3339 H   0  0  0  0  0  0  0  0  0  0  0  0
    2.0029    3.3924   -0.6070 H   0  0  0  0  0  0  0  0  0  0  0  0
    1.1114    2.0346   -1.3031 H   0  0  0  0  0  0  0  0  0  0  0  0
    2.0670    3.1492   -2.3557 H   0  0  0  0  0  0  0  0  0  0  0  0
    5.2653    0.4212   -1.1086 H   0  0  0  0  0  0  0  0  0  0  0  0
    7.0315   -1.0473   -0.8058 H   0  0  0  0  0  0  0  0  0  0  0  0
    7.5460   -2.6322   -1.3656 H   0  0  0  0  0  0  0  0  0  0  0  0
    6.3582   -2.8407    0.5953 H   0  0  0  0  0  0  0  0  0  0  0  0
    6.0296   -4.8881   -0.4575 H   0  0  0  0  0  0  0  0  0  0  0  0
    4.9435   -4.2194   -1.6910 H   0  0  0  0  0  0  0  0  0  0  0  0
    4.3988   -4.7499    1.2330 H   0  0  0  0  0  0  0  0  0  0  0  0
    3.3014   -4.9557   -0.1284 H   0  0  0  0  0  0  0  0  0  0  0  0
    3.3189   -2.7182    1.5748 H   0  0  0  0  0  0  0  0  0  0  0  0
    2.6940   -2.6839   -0.0873 H   0  0  0  0  0  0  0  0  0  0  0  0
    7.3601   -3.6508   -3.7918 H   0  0  0  0  0  0  0  0  0  0  0  0
    9.7857   -3.8674   -3.9621 H   0  0  0  0  0  0  0  0  0  0  0  0
   13.3713   -1.3307   -3.7079 H   0  0  0  0  0  0  0  0  0  0  0  0
   12.8756    0.8047   -7.0259 H   0  0  0  0  0  0  0  0  0  0  0  0
   16.2919    3.4975   -5.6846 H   0  0  0  0  0  0  0  0  0  0  0  0
   16.7526    2.5764   -4.2144 H   0  0  0  0  0  0  0  0  0  0  0  0
   15.4920    3.8523   -4.1301 H   0  0  0  0  0  0  0  0  0  0  0  0
   14.3675    1.4631   -3.0457 H   0  0  0  0  0  0  0  0  0  0  0  0
    7.8172    0.6313   -3.5611 H   0  0  0  0  0  0  0  0  0  0  0  0
    4.5087   -1.8608   -4.6694 H   0  0  0  0  0  0  0  0  0  0  0  0
  1  2  1  0  0  0  0
  1 34  1  0  0  0  0
  1 35  1  0  0  0  0
  1 36  1  0  0  0  0
  2  3  1  0  0  0  0
  3  4  1  0  0  0  0
  3 33  2  0  0  0  0
  4  5  2  0  0  0  0
  4 37  1  0  0  0  0
  5  6  1  0  0  0  0
  5  8  1  0  0  0  0
  6  7  1  0  0  0  0
  7 38  1  0  0  0  0
  7 39  1  0  0  0  0
  7 40  1  0  0  0  0
  8  9  2  0  0  0  0
  8 41  1  0  0  0  0
  9 10  1  0  0  0  0
  9 33  1  0  0  0  0
 10 11  1  0  0  0  0
 10 17  1  0  0  0  0
 11 12  1  0  0  0  0
 11 42  1  0  0  0  0
 11 43  1  0  0  0  0
 12 13  1  0  0  0  0
 12 16  1  0  0  0  0
 12 44  1  0  0  0  0
 13 14  1  0  0  0  0
 13 45  1  0  0  0  0
 13 46  1  0  0  0  0
 14 15  1  0  0  0  0
 14 47  1  0  0  0  0
 14 48  1  0  0  0  0
 15 16  1  0  0  0  0
 15 49  1  0  0  0  0
 15 50  1  0  0  0  0
 17 18  1  0  0  0  0
 17 32  2  0  0  0  0
 18 19  2  0  0  0  0
 18 51  1  0  0  0  0
 19 20  1  0  0  0  0
 19 52  1  0  0  0  0
 20 21  1  0  0  0  0
 20 31  2  0  0  0  0
 21 22  2  0  0  0  0
 22 23  1  0  0  0  0
 22 53  1  0  0  0  0
 23 24  1  0  0  0  0
 23 30  2  0  0  0  0
 24 25  1  0  0  0  0
 24 29  2  0  0  0  0
 25 26  2  0  0  0  0
 25 54  1  0  0  0  0
 26 27  1  0  0  0  0
 27 28  1  0  0  0  0
 27 29  1  0  0  0  0
 28 55  1  0  0  0  0
 28 56  1  0  0  0  0
 28 57  1  0  0  0  0
 29 58  1  0  0  0  0
 30 31  1  0  0  0  0
 31 32  1  0  0  0  0
 32 59  1  0  0  0  0
 33 60  1  0  0  0  0
M  END
$$$$
