CHEMBL1968406
 OpenBabel04072215363D

 51 55  0  0  0  0  0  0  0  0999 V2000
    4.7476   -2.0549    0.1228 C   0  0  0  0  0  0  0  0  0  0  0  0
    5.0207   -0.6190    0.5247 C   0  0  0  0  0  0  0  0  0  0  0  0
    5.3833    0.4260   -0.5269 C   0  0  0  0  0  0  0  0  0  0  0  0
    5.5228    1.7169   -0.0024 C   0  0  0  0  0  0  0  0  0  0  0  0
    5.8304    2.7773   -0.8313 C   0  0  0  0  0  0  0  0  0  0  0  0
    6.0301    2.5918   -2.2075 C   0  0  0  0  0  0  0  0  0  0  0  0
    5.9709    1.3488   -2.8052 C   0  0  0  0  0  0  0  0  0  0  0  0
    6.2372    1.1928   -4.2030 N   0  0  0  0  0  0  0  0  0  0  0  0
    6.8378    2.1482   -5.0705 C   0  0  0  0  0  0  0  0  0  0  0  0
    7.3873    3.1780   -4.6967 O   0  0  0  0  0  0  0  0  0  0  0  0
    6.7478    1.7995   -6.4299 N   0  0  0  0  0  0  0  0  0  0  0  0
    7.3109    2.3910   -7.6343 C   0  0  0  0  0  0  0  0  0  0  0  0
    8.1203    3.5157   -7.8593 C   0  0  0  0  0  0  0  0  0  0  0  0
    8.7518    3.8145   -9.1915 C   0  0  0  0  0  0  0  0  0  0  0  0
    8.6343    2.9746  -10.3423 C   0  0  0  0  0  0  0  0  0  0  0  0
    7.8149    1.8464  -10.0182 C   0  0  0  0  0  0  0  0  0  0  0  0
    7.1041    1.6436   -8.7802 C   0  0  0  0  0  0  0  0  0  0  0  0
    7.8557    0.5766  -10.8181 C   0  0  0  0  0  0  0  0  0  0  0  0
    9.1902    0.3027  -11.4561 C   0  0  0  0  0  0  0  0  0  0  0  0
   10.1422    1.4577  -11.4000 C   0  0  0  0  0  0  0  0  0  0  0  0
   11.6097    1.2443  -12.2450 S   0  0  0  0  0  0  0  0  0  0  0  0
   10.6442    1.7542  -13.5590 C   0  0  0  0  0  0  0  0  0  0  0  0
   10.7542    1.1775  -14.7645 N   0  0  0  0  0  0  0  0  0  0  0  0
   10.2419    1.9348  -15.7108 C   0  0  0  0  0  0  0  0  0  0  0  0
    9.9036    3.2181  -15.5383 N   0  0  0  0  0  0  0  0  0  0  0  0
    9.9477    3.7737  -14.2762 C   0  0  0  0  0  0  0  0  0  0  0  0
   10.6424    4.9952  -14.3395 N   0  0  0  0  0  0  0  0  0  0  0  0
    9.9200    2.9025  -13.1329 C   0  0  0  0  0  0  0  0  0  0  0  0
    9.7604    2.8061  -11.5070 C   0  0  0  0  0  0  0  0  0  0  0  0
    5.6025    0.2425   -1.9360 C   0  0  0  0  0  0  0  0  0  0  0  0
    4.4979   -2.6438    1.0178 H   0  0  0  0  0  0  0  0  0  0  0  0
    5.6247   -2.5139   -0.3379 H   0  0  0  0  0  0  0  0  0  0  0  0
    3.8987   -2.1230   -0.5613 H   0  0  0  0  0  0  0  0  0  0  0  0
    5.8251   -0.6356    1.2767 H   0  0  0  0  0  0  0  0  0  0  0  0
    4.1251   -0.2624    1.0596 H   0  0  0  0  0  0  0  0  0  0  0  0
    5.3857    1.9015    1.0642 H   0  0  0  0  0  0  0  0  0  0  0  0
    5.9116    3.7932   -0.4142 H   0  0  0  0  0  0  0  0  0  0  0  0
    6.2379    3.4914   -2.7871 H   0  0  0  0  0  0  0  0  0  0  0  0
    6.1056    0.2350   -4.5828 H   0  0  0  0  0  0  0  0  0  0  0  0
    6.1858    0.9755   -6.5877 H   0  0  0  0  0  0  0  0  0  0  0  0
    8.3485    4.1755   -7.0202 H   0  0  0  0  0  0  0  0  0  0  0  0
    9.4112    4.6839   -9.2232 H   0  0  0  0  0  0  0  0  0  0  0  0
    6.5064    0.7363   -8.6927 H   0  0  0  0  0  0  0  0  0  0  0  0
    7.0255    0.5687  -11.5305 H   0  0  0  0  0  0  0  0  0  0  0  0
    7.7009   -0.2748  -10.1407 H   0  0  0  0  0  0  0  0  0  0  0  0
    9.6693   -0.5817  -11.0347 H   0  0  0  0  0  0  0  0  0  0  0  0
    8.9619    0.0687  -12.5061 H   0  0  0  0  0  0  0  0  0  0  0  0
   10.1919    1.5093  -16.7096 H   0  0  0  0  0  0  0  0  0  0  0  0
   10.9309    5.0853  -15.3139 H   0  0  0  0  0  0  0  0  0  0  0  0
   10.0720    5.7801  -14.0817 H   0  0  0  0  0  0  0  0  0  0  0  0
    5.4940   -0.7647   -2.3337 H   0  0  0  0  0  0  0  0  0  0  0  0
  1  2  1  0  0  0  0
  1 31  1  0  0  0  0
  1 32  1  0  0  0  0
  1 33  1  0  0  0  0
  2  3  1  0  0  0  0
  2 34  1  0  0  0  0
  2 35  1  0  0  0  0
  3  4  1  0  0  0  0
  3 30  2  0  0  0  0
  4  5  2  0  0  0  0
  4 36  1  0  0  0  0
  5  6  1  0  0  0  0
  5 37  1  0  0  0  0
  6  7  2  0  0  0  0
  6 38  1  0  0  0  0
  7  8  1  0  0  0  0
  7 30  1  0  0  0  0
  8  9  1  0  0  0  0
  8 39  1  0  0  0  0
  9 10  2  0  0  0  0
  9 11  1  0  0  0  0
 11 12  1  0  0  0  0
 11 40  1  0  0  0  0
 12 13  1  0  0  0  0
 12 17  2  0  0  0  0
 13 14  2  0  0  0  0
 13 41  1  0  0  0  0
 14 15  1  0  0  0  0
 14 42  1  0  0  0  0
 15 16  2  0  0  0  0
 15 29  1  0  0  0  0
 16 17  1  0  0  0  0
 16 18  1  0  0  0  0
 17 43  1  0  0  0  0
 18 19  1  0  0  0  0
 18 44  1  0  0  0  0
 18 45  1  0  0  0  0
 19 20  1  0  0  0  0
 19 46  1  0  0  0  0
 19 47  1  0  0  0  0
 20 21  1  0  0  0  0
 20 29  2  0  0  0  0
 21 22  1  0  0  0  0
 22 23  1  0  0  0  0
 22 28  2  0  0  0  0
 23 24  2  0  0  0  0
 24 25  1  0  0  0  0
 24 48  1  0  0  0  0
 25 26  2  0  0  0  0
 26 27  1  0  0  0  0
 26 28  1  0  0  0  0
 27 49  1  0  0  0  0
 27 50  1  0  0  0  0
 28 29  1  0  0  0  0
 30 51  1  0  0  0  0
M  END
$$$$
