CHEMBL4576489
 OpenBabel04072215393D

123133  0  0  1  0  0  0  0  0999 V2000
    5.2228    2.9612    3.5396 C   0  0  0  0  0  0  0  0  0  0  0  0
    4.6609    2.8541    2.2846 O   0  0  0  0  0  0  0  0  0  0  0  0
    3.4088    3.3605    2.3690 C   0  0  2  0  0  0  0  0  0  0  0  0
    2.5345    3.4349    1.2714 C   0  0  2  0  0  0  0  0  0  0  0  0
    2.5752    2.2378    0.4555 N   0  0  0  0  0  0  0  0  0  0  0  0
    3.8025    1.9650   -0.1539 C   0  0  0  0  0  0  0  0  0  0  0  0
    1.5124    2.3514   -0.4647 C   0  0  0  0  0  0  0  0  0  0  0  0
    0.9833    1.2014   -1.2366 C   0  0  0  0  0  0  0  0  0  0  0  0
    0.5317   -0.0034   -0.7977 O   0  0  0  0  0  0  0  0  0  0  0  0
   -0.4930    0.2345    0.0670 C   0  0  0  0  0  0  0  0  0  0  0  0
   -1.8340    0.9943   -0.2788 C   0  0  0  0  0  0  0  0  0  0  0  0
   -2.7436    0.6897   -1.3084 O   0  0  0  0  0  0  0  0  0  0  0  0
   -3.3290   -0.5002   -0.9595 C   0  0  0  0  0  0  0  0  0  0  0  0
   -4.2905   -0.8094   -2.0698 C   0  0  0  0  0  0  0  0  0  0  0  0
   -3.5704   -0.7833   -3.2836 O   0  0  0  0  0  0  0  0  0  0  0  0
   -2.7011   -1.8728   -3.1148 C   0  0  0  0  0  0  0  0  0  0  0  0
   -1.6969   -2.1987   -4.0915 C   0  0  0  0  0  0  0  0  0  0  0  0
   -0.8324   -3.3132   -3.7219 N   0  0  0  0  0  0  0  0  0  0  0  0
   -0.3751   -3.6058   -2.4810 C   0  0  0  0  0  0  0  0  0  0  0  0
   -0.7835   -3.0075   -1.5152 O   0  0  0  0  0  0  0  0  0  0  0  0
    1.0016   -4.0555   -2.4704 C   0  0  0  0  0  0  0  0  0  0  0  0
    1.5884   -4.3523   -1.1447 C   0  0  0  0  0  0  0  0  0  0  0  0
    2.9659   -4.7092   -1.4822 C   0  0  0  0  0  0  0  0  0  0  0  0
    4.1792   -4.1600   -1.5667 N   0  3  0  0  0  0  0  0  0  0  0  0
    4.6712   -4.9748   -2.4108 C   0  0  0  0  0  0  0  0  0  0  0  0
    4.4682   -4.7527   -3.7477 C   0  0  0  0  0  0  0  0  0  0  0  0
    4.3122   -3.5711   -4.5874 C   0  0  0  0  0  0  0  0  0  0  0  0
    3.5202   -2.4006   -4.9044 C   0  0  0  0  0  0  0  0  0  0  0  0
    2.3864   -1.5707   -5.1467 C   0  0  0  0  0  0  0  0  0  0  0  0
    4.4995   -1.4425   -5.0186 C   0  0  0  0  0  0  0  0  0  0  0  0
    5.3210   -1.9612   -5.4214 C   0  0  0  0  0  0  0  0  0  0  0  0
    5.5686   -0.7898   -6.7689 C   0  0  0  0  0  0  0  0  0  0  0  0
    5.3794   -2.9628   -4.2701 N   0  0  0  0  0  0  0  0  0  0  0  0
    4.9131   -2.8199   -1.9381 B   0  5  0  0  0  0  0  0  0  0  0  0
    4.5521   -2.3148   -0.1792 F   0  0  0  0  0  0  0  0  0  0  0  0
    3.7579   -2.0622   -1.6364 F   0  0  0  0  0  0  0  0  0  0  0  0
    4.2866   -6.2636   -2.1953 C   0  0  0  0  0  0  0  0  0  0  0  0
    3.0746   -6.1330   -1.7709 C   0  0  0  0  0  0  0  0  0  0  0  0
    2.6633    4.9875    0.8943 C   0  0  0  0  0  0  0  0  0  0  0  0
    2.8717    6.2583    2.4714 C   0  0  1  0  0  0  0  0  0  0  0  0
    2.1069    5.1531    2.8555 O   0  0  0  0  0  0  0  0  0  0  0  0
    3.0602    4.4235    3.4103 C   0  0  1  0  0  0  0  0  0  0  0  0
    2.5109    3.6460    4.4702 C   0  0  0  0  0  0  0  0  0  0  0  0
    3.8114    5.3843    4.1937 N   0  0  0  0  0  0  0  0  0  0  0  0
    2.9492    6.4410    4.7731 C   0  0  0  0  0  0  0  0  0  0  0  0
    1.4233    6.7117    4.9282 C   0  0  0  0  0  0  0  0  0  0  0  0
    1.3934    7.1406    6.2165 C   0  0  0  0  0  0  0  0  0  0  0  0
    2.4669    7.9013    6.5821 C   0  0  0  0  0  0  0  0  0  0  0  0
    3.0890    8.5372    5.4357 C   0  0  0  0  0  0  0  0  0  0  0  0
    3.3717    7.7069    4.4197 C   0  0  0  0  0  0  0  0  0  0  0  0
    4.2721    7.7463    3.2971 C   0  0  0  0  0  0  0  0  0  0  0  0
    4.9776    8.1670    2.2018 C   0  0  0  0  0  0  0  0  0  0  0  0
    6.1769    7.7142    2.1841 C   0  0  0  0  0  0  0  0  0  0  0  0
    6.6539    7.3656    3.2567 C   0  0  0  0  0  0  0  0  0  0  0  0
    7.5938    7.1933    3.5832 C   0  0  0  0  0  0  0  0  0  0  0  0
    7.7571    5.0051    3.0301 C   0  0  0  0  0  0  0  0  0  0  0  0
    8.0289    4.0123    4.2493 C   0  0  0  0  0  0  0  0  0  0  0  0
    8.0682    4.7693    5.2828 C   0  0  0  0  0  0  0  0  0  0  0  0
    8.8128    6.1653    4.9818 C   0  0  0  0  0  0  0  0  0  0  0  0
    7.3104    7.0719    4.6697 C   0  0  0  0  0  0  0  0  0  0  0  0
    5.6708    6.4334    4.2076 N   0  0  0  0  0  0  0  0  0  0  0  0
    5.8788    6.1674    3.8956 C   0  0  0  0  0  0  0  0  0  0  0  0
    4.8801    5.9964    3.3646 C   0  0  0  0  0  0  0  0  0  0  0  0
    6.4772    7.2736    0.8916 C   0  0  0  0  0  0  0  0  0  0  0  0
    5.9460    6.2349    0.4187 O   0  0  0  0  0  0  0  0  0  0  0  0
    6.2279    8.3775    0.2591 N   0  0  0  0  0  0  0  0  0  0  0  0
    5.0267    8.9102    1.0059 C   0  0  0  0  0  0  0  0  0  0  0  0
    5.2841    2.0337    4.0199 H   0  0  0  0  0  0  0  0  0  0  0  0
    5.9767    3.6303    3.4780 H   0  0  0  0  0  0  0  0  0  0  0  0
    4.7709    3.4891    4.3746 H   0  0  0  0  0  0  0  0  0  0  0  0
    2.7948    2.5558    2.6132 H   0  0  0  0  0  0  0  0  0  0  0  0
    1.4218    3.4094    1.6539 H   0  0  0  0  0  0  0  0  0  0  0  0
    4.4932    1.6797    0.6091 H   0  0  0  0  0  0  0  0  0  0  0  0
    3.5031    1.0626   -0.6367 H   0  0  0  0  0  0  0  0  0  0  0  0
    4.1803    2.7835   -0.7867 H   0  0  0  0  0  0  0  0  0  0  0  0
    1.8396    2.9316   -1.3421 H   0  0  0  0  0  0  0  0  0  0  0  0
    0.9061    3.1721   -0.1990 H   0  0  0  0  0  0  0  0  0  0  0  0
    0.1478    1.7876   -1.5791 H   0  0  0  0  0  0  0  0  0  0  0  0
    1.6539    0.8972   -1.9857 H   0  0  0  0  0  0  0  0  0  0  0  0
   -0.4724   -0.6881    0.5982 H   0  0  0  0  0  0  0  0  0  0  0  0
   -0.1427    0.8639    0.8690 H   0  0  0  0  0  0  0  0  0  0  0  0
   -2.2683    0.4857    0.5894 H   0  0  0  0  0  0  0  0  0  0  0  0
   -2.0618    1.9280    0.1579 H   0  0  0  0  0  0  0  0  0  0  0  0
   -3.7557   -0.6278    0.0120 H   0  0  0  0  0  0  0  0  0  0  0  0
   -2.3459   -1.0359   -0.7403 H   0  0  0  0  0  0  0  0  0  0  0  0
   -4.7001   -1.8263   -1.8453 H   0  0  0  0  0  0  0  0  0  0  0  0
   -5.1218   -0.0985   -2.1283 H   0  0  0  0  0  0  0  0  0  0  0  0
   -3.1597   -2.8105   -2.8869 H   0  0  0  0  0  0  0  0  0  0  0  0
   -2.2327   -1.7586   -2.3399 H   0  0  0  0  0  0  0  0  0  0  0  0
   -1.0740   -1.4074   -4.5413 H   0  0  0  0  0  0  0  0  0  0  0  0
   -2.3725   -2.4539   -4.8818 H   0  0  0  0  0  0  0  0  0  0  0  0
   -0.2603   -3.5945   -4.5145 H   0  0  0  0  0  0  0  0  0  0  0  0
    1.1666   -4.8054   -3.2379 H   0  0  0  0  0  0  0  0  0  0  0  0
    1.5901   -3.2168   -2.8621 H   0  0  0  0  0  0  0  0  0  0  0  0
    1.4741   -3.4979   -0.5275 H   0  0  0  0  0  0  0  0  0  0  0  0
    1.1192   -5.1732   -0.5621 H   0  0  0  0  0  0  0  0  0  0  0  0
    5.4019   -5.1041   -4.0895 H   0  0  0  0  0  0  0  0  0  0  0  0
    2.6811   -1.1025   -6.1491 H   0  0  0  0  0  0  0  0  0  0  0  0
    1.5736   -2.0829   -5.4466 H   0  0  0  0  0  0  0  0  0  0  0  0
    2.2673   -0.7284   -4.4523 H   0  0  0  0  0  0  0  0  0  0  0  0
    4.7934   -0.4213   -4.5002 H   0  0  0  0  0  0  0  0  0  0  0  0
    4.5833   -0.4450   -7.4677 H   0  0  0  0  0  0  0  0  0  0  0  0
    4.7746    0.1660   -6.3800 H   0  0  0  0  0  0  0  0  0  0  0  0
    5.4875    0.3011   -6.9984 H   0  0  0  0  0  0  0  0  0  0  0  0
    4.8368   -7.1427   -2.2305 H   0  0  0  0  0  0  0  0  0  0  0  0
    2.4404   -6.9293   -1.5527 H   0  0  0  0  0  0  0  0  0  0  0  0
    2.1177    4.7421   -0.1917 H   0  0  0  0  0  0  0  0  0  0  0  0
    3.5740    5.1250    0.3909 H   0  0  0  0  0  0  0  0  0  0  0  0
    2.0524    6.3038    1.2579 H   0  0  0  0  0  0  0  0  0  0  0  0
    2.1585    4.1887    5.2110 H   0  0  0  0  0  0  0  0  0  0  0  0
    1.5287    3.6254    4.0448 H   0  0  0  0  0  0  0  0  0  0  0  0
    2.3098    2.6084    4.4474 H   0  0  0  0  0  0  0  0  0  0  0  0
    0.4129    6.4009    4.5332 H   0  0  0  0  0  0  0  0  0  0  0  0
    0.6802    6.9580    6.9450 H   0  0  0  0  0  0  0  0  0  0  0  0
    2.8416    7.6546    7.5176 H   0  0  0  0  0  0  0  0  0  0  0  0
    3.0458    9.5486    5.2673 H   0  0  0  0  0  0  0  0  0  0  0  0
    7.2720    3.9124    2.0439 H   0  0  0  0  0  0  0  0  0  0  0  0
    7.4187    2.9229    4.6480 H   0  0  0  0  0  0  0  0  0  0  0  0
    6.6844    4.5842    5.7400 H   0  0  0  0  0  0  0  0  0  0  0  0
   10.4598    6.3419    3.5589 H   0  0  0  0  0  0  0  0  0  0  0  0
    7.0340    9.0300    0.3392 H   0  0  0  0  0  0  0  0  0  0  0  0
    4.8752    9.9569    1.1141 H   0  0  0  0  0  0  0  0  0  0  0  0
    4.1985    8.5100    0.4973 H   0  0  0  0  0  0  0  0  0  0  0  0
  1  2  1  0  0  0  0
  1 68  1  0  0  0  0
  1 69  1  0  0  0  0
  1 70  1  0  0  0  0
  2  3  1  0  0  0  0
  3  4  1  0  0  0  0
  3 42  1  0  0  0  0
  3 71  1  1  0  0  0
  4 39  1  0  0  0  0
  4  5  1  0  0  0  0
  4 72  1  1  0  0  0
  5  6  1  0  0  0  0
  5  7  1  0  0  0  0
  6 73  1  0  0  0  0
  6 74  1  0  0  0  0
  6 75  1  0  0  0  0
  7  8  1  0  0  0  0
  7 76  1  0  0  0  0
  7 77  1  0  0  0  0
  8  9  1  0  0  0  0
  8 78  1  0  0  0  0
  8 79  1  0  0  0  0
  9 10  1  0  0  0  0
 10 11  1  0  0  0  0
 10 80  1  0  0  0  0
 10 81  1  0  0  0  0
 11 12  1  0  0  0  0
 11 82  1  0  0  0  0
 11 83  1  0  0  0  0
 12 13  1  0  0  0  0
 13 14  1  0  0  0  0
 13 84  1  0  0  0  0
 13 85  1  0  0  0  0
 14 15  1  0  0  0  0
 14 86  1  0  0  0  0
 14 87  1  0  0  0  0
 15 16  1  0  0  0  0
 16 17  1  0  0  0  0
 16 88  1  0  0  0  0
 16 89  1  0  0  0  0
 17 18  1  0  0  0  0
 17 90  1  0  0  0  0
 17 91  1  0  0  0  0
 18 19  1  0  0  0  0
 18 92  1  0  0  0  0
 19 20  2  0  0  0  0
 19 21  1  0  0  0  0
 21 22  1  0  0  0  0
 21 93  1  0  0  0  0
 21 94  1  0  0  0  0
 22 23  1  0  0  0  0
 22 95  1  0  0  0  0
 22 96  1  0  0  0  0
 23 24  2  0  0  0  0
 23 38  1  0  0  0  0
 24 25  1  0  0  0  0
 24 34  1  0  0  0  0
 25 26  2  0  0  0  0
 25 37  1  0  0  0  0
 26 27  1  0  0  0  0
 26 97  1  0  0  0  0
 27 28  2  0  0  0  0
 27 33  1  0  0  0  0
 28 29  1  0  0  0  0
 28 30  1  0  0  0  0
 29 98  1  0  0  0  0
 29 99  1  0  0  0  0
 29100  1  0  0  0  0
 30 31  2  0  0  0  0
 30101  1  0  0  0  0
 31 32  1  0  0  0  0
 31 33  1  0  0  0  0
 32102  1  0  0  0  0
 32103  1  0  0  0  0
 32104  1  0  0  0  0
 33 34  1  0  0  0  0
 34 35  1  0  0  0  0
 34 36  1  0  0  0  0
 37 38  2  0  0  0  0
 37105  1  0  0  0  0
 38106  1  0  0  0  0
 39 40  1  0  0  0  0
 39107  1  0  0  0  0
 39108  1  0  0  0  0
 40 41  1  0  0  0  0
 40 61  1  0  0  0  0
 40109  1  6  0  0  0
 41 42  1  0  0  0  0
 42 43  1  1  0  0  0
 42 44  1  0  0  0  0
 43110  1  0  0  0  0
 43111  1  0  0  0  0
 43112  1  0  0  0  0
 44 45  1  0  0  0  0
 44 63  1  0  0  0  0
 45 46  1  0  0  0  0
 45 50  2  0  0  0  0
 46 47  2  0  0  0  0
 46113  1  0  0  0  0
 47 48  1  0  0  0  0
 47114  1  0  0  0  0
 48 49  2  0  0  0  0
 48115  1  0  0  0  0
 49 50  1  0  0  0  0
 49116  1  0  0  0  0
 50 51  1  0  0  0  0
 51 52  1  0  0  0  0
 51 63  2  0  0  0  0
 52 53  2  0  0  0  0
 52 67  1  0  0  0  0
 53 54  1  0  0  0  0
 53 64  1  0  0  0  0
 54 55  1  0  0  0  0
 54 62  2  0  0  0  0
 55 56  1  0  0  0  0
 55 60  2  0  0  0  0
 56 57  2  0  0  0  0
 56117  1  0  0  0  0
 57 58  1  0  0  0  0
 57118  1  0  0  0  0
 58 59  2  0  0  0  0
 58119  1  0  0  0  0
 59 60  1  0  0  0  0
 59120  1  0  0  0  0
 60 61  1  0  0  0  0
 61 62  1  0  0  0  0
 62 63  1  0  0  0  0
 64 65  2  0  0  0  0
 64 66  1  0  0  0  0
 66 67  1  0  0  0  0
 66121  1  0  0  0  0
 67122  1  0  0  0  0
 67123  1  0  0  0  0
M  CHG  2  24   1  34  -1
M  END
$$$$
