CHEMBL1681940
 OpenBabel04072215363D

 45 47  0  0  0  0  0  0  0  0999 V2000
    9.6505   -5.8986    4.7655 C   0  0  0  0  0  0  0  0  0  0  0  0
    9.0223   -4.6276    4.6166 O   0  0  0  0  0  0  0  0  0  0  0  0
    7.9462   -4.7838    3.7359 N   0  0  0  0  0  0  0  0  0  0  0  0
    7.3157   -3.6587    3.5960 C   0  0  0  0  0  0  0  0  0  0  0  0
    6.1240   -3.5655    2.7332 C   0  0  0  0  0  0  0  0  0  0  0  0
    5.3418   -4.6789    2.4406 C   0  0  0  0  0  0  0  0  0  0  0  0
    5.5337   -5.9182    3.0454 N   0  0  0  0  0  0  0  0  0  0  0  0
    4.2653   -4.6176    1.6414 N   0  0  0  0  0  0  0  0  0  0  0  0
    3.9854   -3.4256    1.1069 C   0  0  0  0  0  0  0  0  0  0  0  0
    4.6856   -2.3052    1.2895 N   0  0  0  0  0  0  0  0  0  0  0  0
    5.7421   -2.3821    2.1320 C   0  0  0  0  0  0  0  0  0  0  0  0
    6.4786   -1.2159    2.3630 O   0  0  0  0  0  0  0  0  0  0  0  0
    5.8211   -0.0176    2.1499 C   0  0  0  0  0  0  0  0  0  0  0  0
    4.5470    0.2111    2.6618 C   0  0  0  0  0  0  0  0  0  0  0  0
    3.8652    1.3861    2.3542 C   0  0  0  0  0  0  0  0  0  0  0  0
    4.4372    2.3756    1.5475 C   0  0  0  0  0  0  0  0  0  0  0  0
    3.6953    3.5263    1.1383 N   0  0  0  0  0  0  0  0  0  0  0  0
    2.3159    3.6240    1.2038 C   0  0  0  0  0  0  0  0  0  0  0  0
    1.5862    2.7335    1.6310 O   0  0  0  0  0  0  0  0  0  0  0  0
    1.8140    4.8152    0.7152 N   0  0  0  0  0  0  0  0  0  0  0  0
    0.4140    4.9813    0.6955 C   0  0  0  0  0  0  0  0  0  0  0  0
   -0.3649    4.6519    1.8050 C   0  0  0  0  0  0  0  0  0  0  0  0
   -1.7462    4.5931    1.6679 C   0  0  0  0  0  0  0  0  0  0  0  0
   -2.3078    4.8865    0.4349 C   0  0  0  0  0  0  0  0  0  0  0  0
   -1.4613    5.2814   -0.5914 C   0  0  0  0  0  0  0  0  0  0  0  0
   -0.1134    5.3665   -0.4824 N   0  0  0  0  0  0  0  0  0  0  0  0
    5.7681    2.1877    1.1343 C   0  0  0  0  0  0  0  0  0  0  0  0
    6.5807    3.3962    0.1974 Cl  0  0  0  0  0  0  0  0  0  0  0  0
    6.4586    0.9953    1.4300 C   0  0  0  0  0  0  0  0  0  0  0  0
   10.5502   -5.7770    5.3731 H   0  0  0  0  0  0  0  0  0  0  0  0
    9.9368   -6.2979    3.7868 H   0  0  0  0  0  0  0  0  0  0  0  0
    8.9739   -6.5979    5.2682 H   0  0  0  0  0  0  0  0  0  0  0  0
    7.6543   -2.7435    4.1127 H   0  0  0  0  0  0  0  0  0  0  0  0
    6.5239   -6.1636    3.1013 H   0  0  0  0  0  0  0  0  0  0  0  0
    4.9505   -6.6151    2.5958 H   0  0  0  0  0  0  0  0  0  0  0  0
    3.1022   -3.3588    0.4807 H   0  0  0  0  0  0  0  0  0  0  0  0
    4.0356   -0.5408    3.2556 H   0  0  0  0  0  0  0  0  0  0  0  0
    2.8632    1.4735    2.7613 H   0  0  0  0  0  0  0  0  0  0  0  0
    4.2031    4.2346    0.6241 H   0  0  0  0  0  0  0  0  0  0  0  0
    2.2427    5.1610   -0.1300 H   0  0  0  0  0  0  0  0  0  0  0  0
    0.0953    4.3783    2.7494 H   0  0  0  0  0  0  0  0  0  0  0  0
   -2.3637    4.2774    2.5038 H   0  0  0  0  0  0  0  0  0  0  0  0
   -3.3766    4.7987    0.2757 H   0  0  0  0  0  0  0  0  0  0  0  0
   -1.8607    5.5201   -1.5730 H   0  0  0  0  0  0  0  0  0  0  0  0
    7.4731    0.8479    1.0707 H   0  0  0  0  0  0  0  0  0  0  0  0
  1  2  1  0  0  0  0
  1 30  1  0  0  0  0
  1 31  1  0  0  0  0
  1 32  1  0  0  0  0
  2  3  1  0  0  0  0
  3  4  2  0  0  0  0
  4  5  1  0  0  0  0
  4 33  1  0  0  0  0
  5  6  1  0  0  0  0
  5 11  2  0  0  0  0
  6  7  1  0  0  0  0
  6  8  2  0  0  0  0
  7 34  1  0  0  0  0
  7 35  1  0  0  0  0
  8  9  1  0  0  0  0
  9 10  2  0  0  0  0
  9 36  1  0  0  0  0
 10 11  1  0  0  0  0
 11 12  1  0  0  0  0
 12 13  1  0  0  0  0
 13 14  1  0  0  0  0
 13 29  2  0  0  0  0
 14 15  2  0  0  0  0
 14 37  1  0  0  0  0
 15 16  1  0  0  0  0
 15 38  1  0  0  0  0
 16 17  1  0  0  0  0
 16 27  2  0  0  0  0
 17 18  1  0  0  0  0
 17 39  1  0  0  0  0
 18 19  2  0  0  0  0
 18 20  1  0  0  0  0
 20 21  1  0  0  0  0
 20 40  1  0  0  0  0
 21 22  1  0  0  0  0
 21 26  2  0  0  0  0
 22 23  2  0  0  0  0
 22 41  1  0  0  0  0
 23 24  1  0  0  0  0
 23 42  1  0  0  0  0
 24 25  2  0  0  0  0
 24 43  1  0  0  0  0
 25 26  1  0  0  0  0
 25 44  1  0  0  0  0
 27 28  1  0  0  0  0
 27 29  1  0  0  0  0
 29 45  1  0  0  0  0
M  END
$$$$
