CHEMBL2086397
 OpenBabel04072215363D

 55 59  0  0  0  0  0  0  0  0999 V2000
    1.1932    2.5787    0.9933 C   0  0  0  0  0  0  0  0  0  0  0  0
    2.2939    2.4044    0.1086 O   0  0  0  0  0  0  0  0  0  0  0  0
    3.3592    1.6837    0.7419 C   0  0  0  0  0  0  0  0  0  0  0  0
    4.5165    1.5202   -0.2420 C   0  0  0  0  0  0  0  0  0  0  0  0
    5.0280    2.8164   -0.6560 N   0  0  0  0  0  0  0  0  0  0  0  0
    6.3336    2.9955   -1.0528 C   0  0  0  0  0  0  0  0  0  0  0  0
    7.1812    2.1157   -1.0231 O   0  0  0  0  0  0  0  0  0  0  0  0
    6.6770    4.3532   -1.5678 C   0  0  0  0  0  0  0  0  0  0  0  0
    7.7132    4.4531   -2.5157 C   0  0  0  0  0  0  0  0  0  0  0  0
    8.0666    5.6861   -3.0545 C   0  0  0  0  0  0  0  0  0  0  0  0
    7.3742    6.7961   -2.6063 C   0  0  0  0  0  0  0  0  0  0  0  0
    6.3695    6.7461   -1.6298 C   0  0  0  0  0  0  0  0  0  0  0  0
    6.0079    5.5099   -1.1112 C   0  0  0  0  0  0  0  0  0  0  0  0
    5.9268    8.1518   -1.4129 C   0  0  0  0  0  0  0  0  0  0  0  0
    5.0753    8.6847   -0.5005 C   0  0  0  0  0  0  0  0  0  0  0  0
    4.5159    7.8419    0.5796 C   0  0  0  0  0  0  0  0  0  0  0  0
    5.2537    7.6689    1.7630 C   0  0  0  0  0  0  0  0  0  0  0  0
    4.7039    6.9794    2.8418 C   0  0  0  0  0  0  0  0  0  0  0  0
    3.4202    6.4486    2.7417 C   0  0  0  0  0  0  0  0  0  0  0  0
    2.6899    6.5961    1.5608 C   0  0  0  0  0  0  0  0  0  0  0  0
    3.2326    7.2954    0.4808 C   0  0  0  0  0  0  0  0  0  0  0  0
    4.8229   10.0975   -0.4502 C   0  0  0  0  0  0  0  0  0  0  0  0
    3.8931   10.8662   -0.9927 N   0  0  0  0  0  0  0  0  0  0  0  0
    4.1427   12.1461   -0.5262 C   0  0  0  0  0  0  0  0  0  0  0  0
    3.5078   13.3706   -0.8001 C   0  0  0  0  0  0  0  0  0  0  0  0
    4.0149   14.5452   -0.2154 C   0  0  0  0  0  0  0  0  0  0  0  0
    5.1117   14.5018    0.6484 C   0  0  0  0  0  0  0  0  0  0  0  0
    5.7249   13.2895    0.9717 C   0  0  0  0  0  0  0  0  0  0  0  0
    5.2161   12.1449    0.3552 C   0  0  0  0  0  0  0  0  0  0  0  0
    5.5921   10.8330    0.4231 N   0  0  0  0  0  0  0  0  0  0  0  0
    6.7414    8.9881   -2.3868 C   0  0  0  0  0  0  0  0  0  0  0  0
    6.7627   10.1935   -2.5323 O   0  0  0  0  0  0  0  0  0  0  0  0
    7.5703    8.0964   -3.0412 N   0  0  0  0  0  0  0  0  0  0  0  0
    0.4073    3.1254    0.4654 H   0  0  0  0  0  0  0  0  0  0  0  0
    1.4958    3.1611    1.8690 H   0  0  0  0  0  0  0  0  0  0  0  0
    0.7950    1.6084    1.3056 H   0  0  0  0  0  0  0  0  0  0  0  0
    2.9969    0.6976    1.0525 H   0  0  0  0  0  0  0  0  0  0  0  0
    3.6937    2.2412    1.6245 H   0  0  0  0  0  0  0  0  0  0  0  0
    4.1782    1.0113   -1.1514 H   0  0  0  0  0  0  0  0  0  0  0  0
    5.3200    0.9304    0.2097 H   0  0  0  0  0  0  0  0  0  0  0  0
    4.3238    3.4859   -0.9400 H   0  0  0  0  0  0  0  0  0  0  0  0
    8.2389    3.5509   -2.8423 H   0  0  0  0  0  0  0  0  0  0  0  0
    8.8559    5.7634   -3.7946 H   0  0  0  0  0  0  0  0  0  0  0  0
    5.2379    5.4229   -0.3540 H   0  0  0  0  0  0  0  0  0  0  0  0
    6.2512    8.0898    1.8609 H   0  0  0  0  0  0  0  0  0  0  0  0
    5.2697    6.8737    3.7640 H   0  0  0  0  0  0  0  0  0  0  0  0
    2.9821    5.9312    3.5913 H   0  0  0  0  0  0  0  0  0  0  0  0
    1.6855    6.1875    1.4900 H   0  0  0  0  0  0  0  0  0  0  0  0
    2.6443    7.4320   -0.4242 H   0  0  0  0  0  0  0  0  0  0  0  0
    2.6547   13.4113   -1.4682 H   0  0  0  0  0  0  0  0  0  0  0  0
    3.5550   15.5042   -0.4450 H   0  0  0  0  0  0  0  0  0  0  0  0
    5.5009   15.4249    1.0740 H   0  0  0  0  0  0  0  0  0  0  0  0
    6.5722   13.2472    1.6468 H   0  0  0  0  0  0  0  0  0  0  0  0
    6.3241   10.4649    1.0071 H   0  0  0  0  0  0  0  0  0  0  0  0
    8.2427    8.3967   -3.7308 H   0  0  0  0  0  0  0  0  0  0  0  0
  1  2  1  0  0  0  0
  1 34  1  0  0  0  0
  1 35  1  0  0  0  0
  1 36  1  0  0  0  0
  2  3  1  0  0  0  0
  3  4  1  0  0  0  0
  3 37  1  0  0  0  0
  3 38  1  0  0  0  0
  4  5  1  0  0  0  0
  4 39  1  0  0  0  0
  4 40  1  0  0  0  0
  5  6  1  0  0  0  0
  5 41  1  0  0  0  0
  6  7  2  0  0  0  0
  6  8  1  0  0  0  0
  8  9  1  0  0  0  0
  8 13  2  0  0  0  0
  9 10  2  0  0  0  0
  9 42  1  0  0  0  0
 10 11  1  0  0  0  0
 10 43  1  0  0  0  0
 11 12  2  0  0  0  0
 11 33  1  0  0  0  0
 12 13  1  0  0  0  0
 12 14  1  0  0  0  0
 13 44  1  0  0  0  0
 14 15  2  3  0  0  0
 14 31  1  0  0  0  0
 15 16  1  0  0  0  0
 15 22  1  0  0  0  0
 16 17  1  0  0  0  0
 16 21  2  0  0  0  0
 17 18  2  0  0  0  0
 17 45  1  0  0  0  0
 18 19  1  0  0  0  0
 18 46  1  0  0  0  0
 19 20  2  0  0  0  0
 19 47  1  0  0  0  0
 20 21  1  0  0  0  0
 20 48  1  0  0  0  0
 21 49  1  0  0  0  0
 22 23  2  0  0  0  0
 22 30  1  0  0  0  0
 23 24  1  0  0  0  0
 24 25  1  0  0  0  0
 24 29  2  0  0  0  0
 25 26  2  0  0  0  0
 25 50  1  0  0  0  0
 26 27  1  0  0  0  0
 26 51  1  0  0  0  0
 27 28  2  0  0  0  0
 27 52  1  0  0  0  0
 28 29  1  0  0  0  0
 28 53  1  0  0  0  0
 29 30  1  0  0  0  0
 30 54  1  0  0  0  0
 31 32  2  0  0  0  0
 31 33  1  0  0  0  0
 33 55  1  0  0  0  0
M  END
$$$$
