CHEMBL1965660
 OpenBabel04072215363D

 34 36  0  0  0  0  0  0  0  0999 V2000
    1.8036    0.0507   -1.1182 N   0  0  0  0  0  0  0  0  0  0  0  0
    2.4059   -0.1126    0.0974 C   0  0  0  0  0  0  0  0  0  0  0  0
    2.2879    0.7511    0.9618 O   0  0  0  0  0  0  0  0  0  0  0  0
    3.1814   -1.3425    0.2447 C   0  0  0  0  0  0  0  0  0  0  0  0
    2.9198   -2.5693   -0.4360 C   0  0  0  0  0  0  0  0  0  0  0  0
    3.8242   -3.5244   -0.0199 C   0  0  0  0  0  0  0  0  0  0  0  0
    3.9625   -4.9344   -0.3811 C   0  0  0  0  0  0  0  0  0  0  0  0
    3.1447   -5.5185   -1.3252 C   0  0  0  0  0  0  0  0  0  0  0  0
    3.3667   -6.8494   -1.5601 C   0  0  0  0  0  0  0  0  0  0  0  0
    4.3154   -7.5588   -0.9297 N   0  0  0  0  0  0  0  0  0  0  0  0
    5.0692   -6.8980   -0.0468 C   0  0  0  0  0  0  0  0  0  0  0  0
    6.0374   -7.6301    0.6085 N   0  0  0  0  0  0  0  0  0  0  0  0
    4.9293   -5.6068    0.2744 N   0  0  0  0  0  0  0  0  0  0  0  0
    4.6422   -2.8947    0.8894 N   0  0  0  0  0  0  0  0  0  0  0  0
    4.2780   -1.5711    1.0837 C   0  0  0  0  0  0  0  0  0  0  0  0
    5.0187   -0.6731    2.0053 C   0  0  0  0  0  0  0  0  0  0  0  0
    5.1756    0.6801    1.6482 C   0  0  0  0  0  0  0  0  0  0  0  0
    5.7987    1.6018    2.4959 C   0  0  0  0  0  0  0  0  0  0  0  0
    6.3206    1.1761    3.7089 C   0  0  0  0  0  0  0  0  0  0  0  0
    7.0845    2.3063    4.7556 Cl  0  0  0  0  0  0  0  0  0  0  0  0
    6.2275   -0.1615    4.0763 C   0  0  0  0  0  0  0  0  0  0  0  0
    5.5786   -1.0798    3.2358 C   0  0  0  0  0  0  0  0  0  0  0  0
    5.5025   -2.7120    3.8163 Cl  0  0  0  0  0  0  0  0  0  0  0  0
    1.3299    0.9270   -1.2835 H   0  0  0  0  0  0  0  0  0  0  0  0
    1.9742   -0.5668   -1.8979 H   0  0  0  0  0  0  0  0  0  0  0  0
    2.1124   -2.7399   -1.1358 H   0  0  0  0  0  0  0  0  0  0  0  0
    2.3720   -4.9795   -1.8542 H   0  0  0  0  0  0  0  0  0  0  0  0
    2.7708   -7.4006   -2.2828 H   0  0  0  0  0  0  0  0  0  0  0  0
    5.7855   -8.6089    0.5877 H   0  0  0  0  0  0  0  0  0  0  0  0
    6.2307   -7.2221    1.5127 H   0  0  0  0  0  0  0  0  0  0  0  0
    5.3901   -3.3701    1.3811 H   0  0  0  0  0  0  0  0  0  0  0  0
    4.7901    1.0523    0.7021 H   0  0  0  0  0  0  0  0  0  0  0  0
    5.8582    2.6468    2.2005 H   0  0  0  0  0  0  0  0  0  0  0  0
    6.6484   -0.4887    5.0239 H   0  0  0  0  0  0  0  0  0  0  0  0
  1  2  1  0  0  0  0
  1 24  1  0  0  0  0
  1 25  1  0  0  0  0
  2  3  2  0  0  0  0
  2  4  1  0  0  0  0
  4  5  1  0  0  0  0
  4 15  2  0  0  0  0
  5  6  2  0  0  0  0
  5 26  1  0  0  0  0
  6  7  1  0  0  0  0
  6 14  1  0  0  0  0
  7  8  1  0  0  0  0
  7 13  2  0  0  0  0
  8  9  2  0  0  0  0
  8 27  1  0  0  0  0
  9 10  1  0  0  0  0
  9 28  1  0  0  0  0
 10 11  2  0  0  0  0
 11 12  1  0  0  0  0
 11 13  1  0  0  0  0
 12 29  1  0  0  0  0
 12 30  1  0  0  0  0
 14 15  1  0  0  0  0
 14 31  1  0  0  0  0
 15 16  1  0  0  0  0
 16 17  1  0  0  0  0
 16 22  2  0  0  0  0
 17 18  2  0  0  0  0
 17 32  1  0  0  0  0
 18 19  1  0  0  0  0
 18 33  1  0  0  0  0
 19 20  1  0  0  0  0
 19 21  2  0  0  0  0
 21 22  1  0  0  0  0
 21 34  1  0  0  0  0
 22 23  1  0  0  0  0
M  END
$$$$
