CHEMBL3921469
 OpenBabel04072215373D

 69 72  0  0  0  0  0  0  0  0999 V2000
    0.3347    3.7350   -1.3883 C   0  0  0  0  0  0  0  0  0  0  0  0
    1.6577    3.9119   -1.9046 O   0  0  0  0  0  0  0  0  0  0  0  0
    2.6409    3.0949   -1.4004 C   0  0  0  0  0  0  0  0  0  0  0  0
    2.4400    2.1566   -0.3871 C   0  0  0  0  0  0  0  0  0  0  0  0
    3.4902    1.3387    0.0212 C   0  0  0  0  0  0  0  0  0  0  0  0
    3.4112    0.3611    0.9787 O   0  0  0  0  0  0  0  0  0  0  0  0
    2.1676    0.2183    1.6574 C   0  0  0  0  0  0  0  0  0  0  0  0
    4.7458    1.4615   -0.5927 C   0  0  0  0  0  0  0  0  0  0  0  0
    4.9903    2.3809   -1.6273 C   0  0  0  0  0  0  0  0  0  0  0  0
    6.1744    2.3582   -2.4127 N   0  0  0  0  0  0  0  0  0  0  0  0
    6.8014    0.9929   -2.6186 C   0  0  0  0  0  0  0  0  0  0  0  0
    5.9323   -0.1529   -3.1817 C   0  0  0  0  0  0  0  0  0  0  0  0
    5.5339   -0.0712   -4.6690 C   0  0  0  0  0  0  0  0  0  0  0  0
    4.9058   -1.3503   -5.0628 N   0  0  0  0  0  0  0  0  0  0  0  0
    4.3661   -1.4650   -6.4430 C   0  0  0  0  0  0  0  0  0  0  0  0
    3.3069   -0.3864   -6.7235 C   0  0  0  0  0  0  0  0  0  0  0  0
    5.4869   -1.4022   -7.4932 C   0  0  0  0  0  0  0  0  0  0  0  0
    3.6676   -2.8478   -6.5985 C   0  0  0  0  0  0  0  0  0  0  0  0
    2.6534   -2.9583   -5.6934 F   0  0  0  0  0  0  0  0  0  0  0  0
    7.2424    3.3390   -2.4804 C   0  0  0  0  0  0  0  0  0  0  0  0
    7.9020    3.3787   -3.7067 C   0  0  0  0  0  0  0  0  0  0  0  0
    9.2314    3.7507   -3.7686 C   0  0  0  0  0  0  0  0  0  0  0  0
    9.8731    4.2759   -2.6824 C   0  0  0  0  0  0  0  0  0  0  0  0
   11.2032    4.3995   -2.8465 N   0  0  0  0  0  0  0  0  0  0  0  0
   11.8572    5.0999   -1.9164 C   0  0  0  0  0  0  0  0  0  0  0  0
   11.2005    5.7447   -0.8900 C   0  0  0  0  0  0  0  0  0  0  0  0
   11.9376    6.8435   -0.2622 C   0  0  0  0  0  0  0  0  0  0  0  0
   11.8511    8.2376   -0.5344 C   0  0  0  0  0  0  0  0  0  0  0  0
   12.8690    8.9387   -0.0193 N   0  0  0  0  0  0  0  0  0  0  0  0
   13.6285    8.0021    0.5720 N   0  0  0  0  0  0  0  0  0  0  0  0
   14.7216    8.3865    1.4356 C   0  0  0  0  0  0  0  0  0  0  0  0
   13.1924    6.7276    0.3213 C   0  0  0  0  0  0  0  0  0  0  0  0
    9.8603    5.4964   -0.6391 N   0  0  0  0  0  0  0  0  0  0  0  0
    9.1660    4.6604   -1.5238 C   0  0  0  0  0  0  0  0  0  0  0  0
    7.8292    4.0910   -1.4220 C   0  0  0  0  0  0  0  0  0  0  0  0
    3.9153    3.2155   -1.9959 C   0  0  0  0  0  0  0  0  0  0  0  0
   -0.3417    4.3936   -1.9461 H   0  0  0  0  0  0  0  0  0  0  0  0
    0.2909    4.0288   -0.3312 H   0  0  0  0  0  0  0  0  0  0  0  0
   -0.0189    2.7045   -1.5319 H   0  0  0  0  0  0  0  0  0  0  0  0
    1.4655    2.0500    0.0715 H   0  0  0  0  0  0  0  0  0  0  0  0
    2.2896   -0.5527    2.4240 H   0  0  0  0  0  0  0  0  0  0  0  0
    1.3794   -0.1145    0.9730 H   0  0  0  0  0  0  0  0  0  0  0  0
    1.8836    1.1468    2.1640 H   0  0  0  0  0  0  0  0  0  0  0  0
    5.5270    0.7820   -0.2656 H   0  0  0  0  0  0  0  0  0  0  0  0
    7.2360    0.6706   -1.6632 H   0  0  0  0  0  0  0  0  0  0  0  0
    7.6593    1.0453   -3.3001 H   0  0  0  0  0  0  0  0  0  0  0  0
    5.0410   -0.3188   -2.5717 H   0  0  0  0  0  0  0  0  0  0  0  0
    6.5459   -1.0601   -3.0705 H   0  0  0  0  0  0  0  0  0  0  0  0
    6.4278    0.1002   -5.2779 H   0  0  0  0  0  0  0  0  0  0  0  0
    4.8483    0.7688   -4.8062 H   0  0  0  0  0  0  0  0  0  0  0  0
    4.1437   -1.5654   -4.4133 H   0  0  0  0  0  0  0  0  0  0  0  0
    3.7333    0.6208   -6.7155 H   0  0  0  0  0  0  0  0  0  0  0  0
    2.4999   -0.4226   -5.9823 H   0  0  0  0  0  0  0  0  0  0  0  0
    2.8500   -0.5325   -7.7098 H   0  0  0  0  0  0  0  0  0  0  0  0
    6.0096   -0.4406   -7.4827 H   0  0  0  0  0  0  0  0  0  0  0  0
    5.0803   -1.5389   -8.5036 H   0  0  0  0  0  0  0  0  0  0  0  0
    6.2249   -2.1980   -7.3340 H   0  0  0  0  0  0  0  0  0  0  0  0
    4.3578   -3.6809   -6.4290 H   0  0  0  0  0  0  0  0  0  0  0  0
    3.2288   -2.9676   -7.5971 H   0  0  0  0  0  0  0  0  0  0  0  0
    7.4434    2.9411   -4.5886 H   0  0  0  0  0  0  0  0  0  0  0  0
    9.7903    3.5808   -4.6830 H   0  0  0  0  0  0  0  0  0  0  0  0
   12.9257    5.1920   -2.0760 H   0  0  0  0  0  0  0  0  0  0  0  0
   11.1140    8.7635   -1.1269 H   0  0  0  0  0  0  0  0  0  0  0  0
   14.8043    9.4766    1.4720 H   0  0  0  0  0  0  0  0  0  0  0  0
   15.6529    7.9514    1.0649 H   0  0  0  0  0  0  0  0  0  0  0  0
   14.4946    8.0056    2.4349 H   0  0  0  0  0  0  0  0  0  0  0  0
   13.8013    5.8728    0.5871 H   0  0  0  0  0  0  0  0  0  0  0  0
    7.3014    4.1939   -0.4750 H   0  0  0  0  0  0  0  0  0  0  0  0
    4.0405    3.9194   -2.8159 H   0  0  0  0  0  0  0  0  0  0  0  0
  1  2  1  0  0  0  0
  1 37  1  0  0  0  0
  1 38  1  0  0  0  0
  1 39  1  0  0  0  0
  2  3  1  0  0  0  0
  3  4  1  0  0  0  0
  3 36  2  0  0  0  0
  4  5  2  0  0  0  0
  4 40  1  0  0  0  0
  5  6  1  0  0  0  0
  5  8  1  0  0  0  0
  6  7  1  0  0  0  0
  7 41  1  0  0  0  0
  7 42  1  0  0  0  0
  7 43  1  0  0  0  0
  8  9  2  0  0  0  0
  8 44  1  0  0  0  0
  9 10  1  0  0  0  0
  9 36  1  0  0  0  0
 10 11  1  0  0  0  0
 10 20  1  0  0  0  0
 11 12  1  0  0  0  0
 11 45  1  0  0  0  0
 11 46  1  0  0  0  0
 12 13  1  0  0  0  0
 12 47  1  0  0  0  0
 12 48  1  0  0  0  0
 13 14  1  0  0  0  0
 13 49  1  0  0  0  0
 13 50  1  0  0  0  0
 14 15  1  0  0  0  0
 14 51  1  0  0  0  0
 15 16  1  0  0  0  0
 15 17  1  0  0  0  0
 15 18  1  0  0  0  0
 16 52  1  0  0  0  0
 16 53  1  0  0  0  0
 16 54  1  0  0  0  0
 17 55  1  0  0  0  0
 17 56  1  0  0  0  0
 17 57  1  0  0  0  0
 18 19  1  0  0  0  0
 18 58  1  0  0  0  0
 18 59  1  0  0  0  0
 20 21  1  0  0  0  0
 20 35  2  0  0  0  0
 21 22  2  0  0  0  0
 21 60  1  0  0  0  0
 22 23  1  0  0  0  0
 22 61  1  0  0  0  0
 23 24  1  0  0  0  0
 23 34  2  0  0  0  0
 24 25  2  0  0  0  0
 25 26  1  0  0  0  0
 25 62  1  0  0  0  0
 26 27  1  0  0  0  0
 26 33  2  0  0  0  0
 27 28  1  0  0  0  0
 27 32  2  0  0  0  0
 28 29  2  0  0  0  0
 28 63  1  0  0  0  0
 29 30  1  0  0  0  0
 30 31  1  0  0  0  0
 30 32  1  0  0  0  0
 31 64  1  0  0  0  0
 31 65  1  0  0  0  0
 31 66  1  0  0  0  0
 32 67  1  0  0  0  0
 33 34  1  0  0  0  0
 34 35  1  0  0  0  0
 35 68  1  0  0  0  0
 36 69  1  0  0  0  0
M  END
$$$$
