CHEMBL4790527
 OpenBabel04072215383D

 69 74  0  0  0  0  0  0  0  0999 V2000
   11.2166  -12.4947   -2.1172 C   0  0  0  0  0  0  0  0  0  0  0  0
   10.9009  -11.1519   -1.8000 O   0  0  0  0  0  0  0  0  0  0  0  0
   10.9805  -10.8636   -0.3998 C   0  0  0  0  0  0  0  0  0  0  0  0
   10.5270   -9.4148   -0.2479 C   0  0  0  0  0  0  0  0  0  0  0  0
   10.6080   -8.9343    1.0831 O   0  0  0  0  0  0  0  0  0  0  0  0
   10.7208   -7.5786    1.2831 C   0  0  0  0  0  0  0  0  0  0  0  0
   11.2776   -7.2954    2.5480 C   0  0  0  0  0  0  0  0  0  0  0  0
   11.5953   -6.0118    2.9857 C   0  0  0  0  0  0  0  0  0  0  0  0
   12.1773   -5.8591    4.1843 N   0  0  0  0  0  0  0  0  0  0  0  0
   12.5052   -4.6097    4.5529 C   0  0  0  0  0  0  0  0  0  0  0  0
   12.3051   -3.4996    3.8425 N   0  0  0  0  0  0  0  0  0  0  0  0
   11.6637   -3.6816    2.6704 C   0  0  0  0  0  0  0  0  0  0  0  0
   11.3851   -2.5445    1.9180 O   0  0  0  0  0  0  0  0  0  0  0  0
   10.9009   -1.4313    2.5801 C   0  0  0  0  0  0  0  0  0  0  0  0
   11.1845   -0.1861    2.0090 C   0  0  0  0  0  0  0  0  0  0  0  0
   10.6178    0.9914    2.5353 C   0  0  0  0  0  0  0  0  0  0  0  0
    9.7498    0.9480    3.6369 C   0  0  0  0  0  0  0  0  0  0  0  0
    9.0719    2.1154    4.0617 N   0  0  0  0  0  0  0  0  0  0  0  0
    7.7381    2.2138    4.5358 C   0  0  0  0  0  0  0  0  0  0  0  0
    7.0419    1.0655    4.7375 N   0  0  0  0  0  0  0  0  0  0  0  0
    5.7951    1.1132    5.2465 C   0  0  0  0  0  0  0  0  0  0  0  0
    5.1532    2.2866    5.5725 C   0  0  0  0  0  0  0  0  0  0  0  0
    5.8298    3.4797    5.3529 C   0  0  0  0  0  0  0  0  0  0  0  0
    5.2290    4.6974    5.7087 N   0  0  0  0  0  0  0  0  0  0  0  0
    5.8606    5.8863    5.4662 C   0  0  0  0  0  0  0  0  0  0  0  0
    7.0912    6.0083    4.9521 C   0  0  0  0  0  0  0  0  0  0  0  0
    7.6480    7.3383    4.6858 C   0  0  0  0  0  0  0  0  0  0  0  0
    8.3405    8.0436    5.6823 C   0  0  0  0  0  0  0  0  0  0  0  0
    8.8441    9.3208    5.4183 C   0  0  0  0  0  0  0  0  0  0  0  0
    8.6537    9.8875    4.1640 C   0  0  0  0  0  0  0  0  0  0  0  0
    9.1365   11.1097    3.9133 F   0  0  0  0  0  0  0  0  0  0  0  0
    7.9661    9.2086    3.1677 C   0  0  0  0  0  0  0  0  0  0  0  0
    7.4618    7.9312    3.4271 C   0  0  0  0  0  0  0  0  0  0  0  0
    7.8197    4.7480    4.5782 C   0  0  0  0  0  0  0  0  0  0  0  0
    8.9122    4.7827    4.0228 O   0  0  0  0  0  0  0  0  0  0  0  0
    7.1436    3.4480    4.8429 C   0  0  0  0  0  0  0  0  0  0  0  0
    9.5329   -0.2977    4.2357 C   0  0  0  0  0  0  0  0  0  0  0  0
   10.0683   -1.4688    3.6982 C   0  0  0  0  0  0  0  0  0  0  0  0
    9.7000   -2.6322    4.2561 F   0  0  0  0  0  0  0  0  0  0  0  0
   11.3122   -4.9377    2.1442 C   0  0  0  0  0  0  0  0  0  0  0  0
   10.7240   -5.1943    0.8767 C   0  0  0  0  0  0  0  0  0  0  0  0
   10.4170   -6.5008    0.4423 C   0  0  0  0  0  0  0  0  0  0  0  0
    9.9789   -6.5405   -0.8530 O   0  0  0  0  0  0  0  0  0  0  0  0
    8.7383   -7.1884   -1.1132 C   0  0  0  0  0  0  0  0  0  0  0  0
   11.1612  -12.6018   -3.2050 H   0  0  0  0  0  0  0  0  0  0  0  0
   10.4906  -13.1753   -1.6650 H   0  0  0  0  0  0  0  0  0  0  0  0
   12.2314  -12.7401   -1.7936 H   0  0  0  0  0  0  0  0  0  0  0  0
   12.0025  -11.0019   -0.0325 H   0  0  0  0  0  0  0  0  0  0  0  0
   10.3157  -11.5312    0.1626 H   0  0  0  0  0  0  0  0  0  0  0  0
    9.4762   -9.4291   -0.5375 H   0  0  0  0  0  0  0  0  0  0  0  0
   11.1079   -8.7972   -0.9407 H   0  0  0  0  0  0  0  0  0  0  0  0
   11.5154   -8.1279    3.2099 H   0  0  0  0  0  0  0  0  0  0  0  0
   12.9769   -4.4925    5.5230 H   0  0  0  0  0  0  0  0  0  0  0  0
   11.8253   -0.1258    1.1325 H   0  0  0  0  0  0  0  0  0  0  0  0
   10.8327    1.9391    2.0454 H   0  0  0  0  0  0  0  0  0  0  0  0
    9.3696    2.9783    3.6030 H   0  0  0  0  0  0  0  0  0  0  0  0
    5.3210    0.1477    5.3872 H   0  0  0  0  0  0  0  0  0  0  0  0
    4.1517    2.2604    5.9832 H   0  0  0  0  0  0  0  0  0  0  0  0
    4.2313    4.7146    5.8901 H   0  0  0  0  0  0  0  0  0  0  0  0
    5.2590    6.7564    5.7217 H   0  0  0  0  0  0  0  0  0  0  0  0
    8.4922    7.6050    6.6660 H   0  0  0  0  0  0  0  0  0  0  0  0
    9.3868    9.8700    6.1808 H   0  0  0  0  0  0  0  0  0  0  0  0
    7.8263    9.6696    2.1964 H   0  0  0  0  0  0  0  0  0  0  0  0
    6.9254    7.4001    2.6424 H   0  0  0  0  0  0  0  0  0  0  0  0
    8.9061   -0.3898    5.1166 H   0  0  0  0  0  0  0  0  0  0  0  0
   10.5278   -4.3592    0.2056 H   0  0  0  0  0  0  0  0  0  0  0  0
    8.0422   -6.4798   -1.5694 H   0  0  0  0  0  0  0  0  0  0  0  0
    8.2660   -7.6285   -0.2291 H   0  0  0  0  0  0  0  0  0  0  0  0
    8.9219   -7.9578   -1.8725 H   0  0  0  0  0  0  0  0  0  0  0  0
  1  2  1  0  0  0  0
  1 45  1  0  0  0  0
  1 46  1  0  0  0  0
  1 47  1  0  0  0  0
  2  3  1  0  0  0  0
  3  4  1  0  0  0  0
  3 48  1  0  0  0  0
  3 49  1  0  0  0  0
  4  5  1  0  0  0  0
  4 50  1  0  0  0  0
  4 51  1  0  0  0  0
  5  6  1  0  0  0  0
  6  7  1  0  0  0  0
  6 42  2  0  0  0  0
  7  8  2  0  0  0  0
  7 52  1  0  0  0  0
  8  9  1  0  0  0  0
  8 40  1  0  0  0  0
  9 10  2  0  0  0  0
 10 11  1  0  0  0  0
 10 53  1  0  0  0  0
 11 12  2  0  0  0  0
 12 13  1  0  0  0  0
 12 40  1  0  0  0  0
 13 14  1  0  0  0  0
 14 15  1  0  0  0  0
 14 38  2  0  0  0  0
 15 16  2  0  0  0  0
 15 54  1  0  0  0  0
 16 17  1  0  0  0  0
 16 55  1  0  0  0  0
 17 18  1  0  0  0  0
 17 37  2  0  0  0  0
 18 19  1  0  0  0  0
 18 56  1  0  0  0  0
 19 20  1  0  0  0  0
 19 36  2  0  0  0  0
 20 21  2  0  0  0  0
 21 22  1  0  0  0  0
 21 57  1  0  0  0  0
 22 23  2  0  0  0  0
 22 58  1  0  0  0  0
 23 24  1  0  0  0  0
 23 36  1  0  0  0  0
 24 25  1  0  0  0  0
 24 59  1  0  0  0  0
 25 26  2  0  0  0  0
 25 60  1  0  0  0  0
 26 27  1  0  0  0  0
 26 34  1  0  0  0  0
 27 28  1  0  0  0  0
 27 33  2  0  0  0  0
 28 29  2  0  0  0  0
 28 61  1  0  0  0  0
 29 30  1  0  0  0  0
 29 62  1  0  0  0  0
 30 31  1  0  0  0  0
 30 32  2  0  0  0  0
 32 33  1  0  0  0  0
 32 63  1  0  0  0  0
 33 64  1  0  0  0  0
 34 35  2  0  0  0  0
 34 36  1  0  0  0  0
 37 38  1  0  0  0  0
 37 65  1  0  0  0  0
 38 39  1  0  0  0  0
 40 41  2  0  0  0  0
 41 42  1  0  0  0  0
 41 66  1  0  0  0  0
 42 43  1  0  0  0  0
 43 44  1  0  0  0  0
 44 67  1  0  0  0  0
 44 68  1  0  0  0  0
 44 69  1  0  0  0  0
M  END
$$$$
