CHEMBL3982880
 OpenBabel04072215373D

 63 67  0  0  0  0  0  0  0  0999 V2000
    6.6660   -0.5685    2.5838 C   0  0  0  0  0  0  0  0  0  0  0  0
    6.5986   -0.7745    1.0611 C   0  0  0  0  0  0  0  0  0  0  0  0
    5.3914   -0.2896    0.4036 N   0  0  0  0  0  0  0  0  0  0  0  0
    4.2685   -0.1785    1.1522 N   0  0  0  0  0  0  0  0  0  0  0  0
    3.3456    0.3007    0.3217 C   0  0  0  0  0  0  0  0  0  0  0  0
    1.9837    0.6270    0.8023 C   0  0  0  0  0  0  0  0  0  0  0  0
    3.8560    0.4511   -0.9769 C   0  0  0  0  0  0  0  0  0  0  0  0
    5.2004    0.1102   -0.9169 C   0  0  0  0  0  0  0  0  0  0  0  0
    6.1771    0.1391   -2.0069 C   0  0  0  0  0  0  0  0  0  0  0  0
    7.1524   -0.5932   -2.0285 O   0  0  0  0  0  0  0  0  0  0  0  0
    5.8631    1.1104   -2.9726 N   0  0  0  0  0  0  0  0  0  0  0  0
    6.5250    1.4380   -4.1915 C   0  0  0  0  0  0  0  0  0  0  0  0
    7.5612    0.6463   -4.7116 C   0  0  0  0  0  0  0  0  0  0  0  0
    8.2455    0.9889   -5.8881 C   0  0  0  0  0  0  0  0  0  0  0  0
    9.2815    0.2278   -6.4645 N   0  0  0  0  0  0  0  0  0  0  0  0
   10.0684   -0.8746   -6.0841 C   0  0  0  0  0  0  0  0  0  0  0  0
   10.1970   -1.3586   -4.7799 C   0  0  0  0  0  0  0  0  0  0  0  0
   10.9985   -2.4782   -4.4694 C   0  0  0  0  0  0  0  0  0  0  0  0
   11.7535   -3.0833   -5.4912 C   0  0  0  0  0  0  0  0  0  0  0  0
   12.7700   -4.0863   -5.5954 C   0  0  0  0  0  0  0  0  0  0  0  0
   13.3943   -4.7519   -4.4889 C   0  0  0  0  0  0  0  0  0  0  0  0
   14.4176   -5.6204   -4.5962 C   0  0  0  0  0  0  0  0  0  0  0  0
   15.0819   -6.2489   -3.4474 C   0  0  0  0  0  0  0  0  0  0  0  0
   16.0953   -7.1845   -3.6397 C   0  0  0  0  0  0  0  0  0  0  0  0
   16.6955   -7.7669   -2.5236 C   0  0  0  0  0  0  0  0  0  0  0  0
   16.2755   -7.3956   -1.2528 C   0  0  0  0  0  0  0  0  0  0  0  0
   15.2694   -6.4515   -1.1508 C   0  0  0  0  0  0  0  0  0  0  0  0
   14.6672   -5.8750   -2.2133 N   0  0  0  0  0  0  0  0  0  0  0  0
   13.1364   -4.2765   -6.8738 N   0  0  0  0  0  0  0  0  0  0  0  0
   12.4020   -3.3906   -7.5589 N   0  0  0  0  0  0  0  0  0  0  0  0
   11.5825   -2.6197   -6.7862 C   0  0  0  0  0  0  0  0  0  0  0  0
   10.7357   -1.5583   -7.1187 C   0  0  0  0  0  0  0  0  0  0  0  0
    7.8520    2.1537   -6.5540 C   0  0  0  0  0  0  0  0  0  0  0  0
    8.4827    2.5169   -7.6864 F   0  0  0  0  0  0  0  0  0  0  0  0
    6.7991    2.9373   -6.1020 C   0  0  0  0  0  0  0  0  0  0  0  0
    6.1183    2.5868   -4.9210 C   0  0  0  0  0  0  0  0  0  0  0  0
    4.9443    3.4544   -4.5440 C   0  0  0  0  0  0  0  0  0  0  0  0
    7.6312   -0.9151    2.9694 H   0  0  0  0  0  0  0  0  0  0  0  0
    5.8884   -1.1370    3.1129 H   0  0  0  0  0  0  0  0  0  0  0  0
    6.5531    0.4847    2.8628 H   0  0  0  0  0  0  0  0  0  0  0  0
    6.6582   -1.8462    0.8476 H   0  0  0  0  0  0  0  0  0  0  0  0
    7.4511   -0.2667    0.6022 H   0  0  0  0  0  0  0  0  0  0  0  0
    1.9006    0.5041    1.8863 H   0  0  0  0  0  0  0  0  0  0  0  0
    1.2385   -0.0141    0.3223 H   0  0  0  0  0  0  0  0  0  0  0  0
    1.7468    1.6695    0.5638 H   0  0  0  0  0  0  0  0  0  0  0  0
    3.3107    0.7804   -1.8499 H   0  0  0  0  0  0  0  0  0  0  0  0
    5.1059    1.7227   -2.7258 H   0  0  0  0  0  0  0  0  0  0  0  0
    7.7991   -0.2863   -4.2207 H   0  0  0  0  0  0  0  0  0  0  0  0
    9.5530    0.6102   -7.3687 H   0  0  0  0  0  0  0  0  0  0  0  0
    9.7254   -0.8505   -3.9455 H   0  0  0  0  0  0  0  0  0  0  0  0
   11.0496   -2.8312   -3.4434 H   0  0  0  0  0  0  0  0  0  0  0  0
   13.0306   -4.4947   -3.4973 H   0  0  0  0  0  0  0  0  0  0  0  0
   14.8009   -5.8779   -5.5801 H   0  0  0  0  0  0  0  0  0  0  0  0
   16.4172   -7.4671   -4.6366 H   0  0  0  0  0  0  0  0  0  0  0  0
   17.4836   -8.5043   -2.6460 H   0  0  0  0  0  0  0  0  0  0  0  0
   16.7205   -7.8283   -0.3641 H   0  0  0  0  0  0  0  0  0  0  0  0
   14.9064   -6.1213   -0.1823 H   0  0  0  0  0  0  0  0  0  0  0  0
   12.5382   -3.3277   -8.5596 H   0  0  0  0  0  0  0  0  0  0  0  0
   10.6248   -1.2462   -8.1508 H   0  0  0  0  0  0  0  0  0  0  0  0
    6.5194    3.8109   -6.6834 H   0  0  0  0  0  0  0  0  0  0  0  0
    4.9347    4.3848   -5.1261 H   0  0  0  0  0  0  0  0  0  0  0  0
    4.9879    3.7450   -3.4924 H   0  0  0  0  0  0  0  0  0  0  0  0
    4.0058    2.9308   -4.7516 H   0  0  0  0  0  0  0  0  0  0  0  0
  1  2  1  0  0  0  0
  1 38  1  0  0  0  0
  1 39  1  0  0  0  0
  1 40  1  0  0  0  0
  2  3  1  0  0  0  0
  2 41  1  0  0  0  0
  2 42  1  0  0  0  0
  3  4  1  0  0  0  0
  3  8  1  0  0  0  0
  4  5  2  0  0  0  0
  5  6  1  0  0  0  0
  5  7  1  0  0  0  0
  6 43  1  0  0  0  0
  6 44  1  0  0  0  0
  6 45  1  0  0  0  0
  7  8  2  0  0  0  0
  7 46  1  0  0  0  0
  8  9  1  0  0  0  0
  9 10  2  0  0  0  0
  9 11  1  0  0  0  0
 11 12  1  0  0  0  0
 11 47  1  0  0  0  0
 12 13  1  0  0  0  0
 12 36  2  0  0  0  0
 13 14  2  0  0  0  0
 13 48  1  0  0  0  0
 14 15  1  0  0  0  0
 14 33  1  0  0  0  0
 15 16  1  0  0  0  0
 15 49  1  0  0  0  0
 16 17  1  0  0  0  0
 16 32  2  0  0  0  0
 17 18  2  0  0  0  0
 17 50  1  0  0  0  0
 18 19  1  0  0  0  0
 18 51  1  0  0  0  0
 19 20  1  0  0  0  0
 19 31  2  0  0  0  0
 20 21  1  0  0  0  0
 20 29  2  0  0  0  0
 21 22  2  0  0  0  0
 21 52  1  0  0  0  0
 22 23  1  0  0  0  0
 22 53  1  0  0  0  0
 23 24  1  0  0  0  0
 23 28  2  0  0  0  0
 24 25  2  0  0  0  0
 24 54  1  0  0  0  0
 25 26  1  0  0  0  0
 25 55  1  0  0  0  0
 26 27  2  0  0  0  0
 26 56  1  0  0  0  0
 27 28  1  0  0  0  0
 27 57  1  0  0  0  0
 29 30  1  0  0  0  0
 30 31  1  0  0  0  0
 30 58  1  0  0  0  0
 31 32  1  0  0  0  0
 32 59  1  0  0  0  0
 33 34  1  0  0  0  0
 33 35  2  0  0  0  0
 35 36  1  0  0  0  0
 35 60  1  0  0  0  0
 36 37  1  0  0  0  0
 37 61  1  0  0  0  0
 37 62  1  0  0  0  0
 37 63  1  0  0  0  0
M  END
$$$$
