CHEMBL3746273
 OpenBabel04072215373D

 58 63  0  0  1  0  0  0  0  0999 V2000
    2.4043   -0.7397    0.8190 C   0  0  0  0  0  0  0  0  0  0  0  0
    3.9306   -0.5781    0.8474 C   0  0  2  0  0  0  0  0  0  0  0  0
    4.3469    0.8819    1.1009 C   0  0  0  0  0  0  0  0  0  0  0  0
    4.2071    1.7271   -0.1284 C   0  0  0  0  0  0  0  0  0  0  0  0
    4.1260    1.1687   -1.3963 C   0  0  0  0  0  0  0  0  0  0  0  0
    3.9795    1.9145   -2.5139 N   0  0  0  0  0  0  0  0  0  0  0  0
    3.9198    3.2406   -2.3396 C   0  0  0  0  0  0  0  0  0  0  0  0
    4.0199    3.8819   -1.1735 N   0  0  0  0  0  0  0  0  0  0  0  0
    4.2021    3.1031   -0.0885 C   0  0  0  0  0  0  0  0  0  0  0  0
    4.3855    3.7061    1.1521 O   0  0  0  0  0  0  0  0  0  0  0  0
    5.0971    4.8866    1.1861 C   0  0  0  0  0  0  0  0  0  0  0  0
    6.1108    5.1824    0.2759 C   0  0  0  0  0  0  0  0  0  0  0  0
    6.7770    6.3989    0.3136 C   0  0  0  0  0  0  0  0  0  0  0  0
    6.4135    7.3138    1.3030 C   0  0  0  0  0  0  0  0  0  0  0  0
    5.4726    7.0096    2.2891 C   0  0  0  0  0  0  0  0  0  0  0  0
    5.4455    8.1128    3.1905 C   0  0  0  0  0  0  0  0  0  0  0  0
    6.3876    9.0232    2.7547 C   0  0  0  0  0  0  0  0  0  0  0  0
    6.9113    8.5926    1.5444 N   0  0  0  0  0  0  0  0  0  0  0  0
    7.9000    9.2274    0.7841 C   0  0  0  0  0  0  0  0  0  0  0  0
    8.8982    9.6521    1.3629 O   0  0  0  0  0  0  0  0  0  0  0  0
    7.5603    9.3474   -0.5571 N   0  0  0  0  0  0  0  0  0  0  0  0
    8.4228   10.0801   -1.3644 C   0  0  0  0  0  0  0  0  0  0  0  0
    9.7931    9.8075   -1.5946 C   0  0  0  0  0  0  0  0  0  0  0  0
   10.2653   10.8858   -2.3093 C   0  0  0  0  0  0  0  0  0  0  0  0
   11.7031   11.1767   -2.7970 C   0  0  0  0  0  0  0  0  0  0  0  0
   11.9366   12.4901   -3.5033 C   0  0  0  0  0  0  0  0  0  0  0  0
   12.5272    9.9782   -3.2545 C   0  0  0  0  0  0  0  0  0  0  0  0
   12.8646   10.6403   -1.9650 C   0  0  0  0  0  0  0  0  0  0  0  0
    9.1753   11.6970   -2.4816 N   0  0  0  0  0  0  0  0  0  0  0  0
    8.0167   11.1622   -2.0204 N   0  0  0  0  0  0  0  0  0  0  0  0
    4.7922    5.7750    2.2263 C   0  0  0  0  0  0  0  0  0  0  0  0
    4.1432   -0.3372   -1.5688 C   0  0  0  0  0  0  0  0  0  0  0  0
    4.5773   -1.0886   -0.3749 N   0  0  0  0  0  0  0  0  0  0  0  0
    1.9711   -0.4340    1.7775 H   0  0  0  0  0  0  0  0  0  0  0  0
    2.1280   -1.7846    0.6442 H   0  0  0  0  0  0  0  0  0  0  0  0
    1.9264   -0.1308    0.0443 H   0  0  0  0  0  0  0  0  0  0  0  0
    4.2956   -1.1786    1.6896 H   0  0  0  0  0  0  0  0  0  0  0  0
    5.3971    0.9129    1.4190 H   0  0  0  0  0  0  0  0  0  0  0  0
    3.7412    1.2953    1.9162 H   0  0  0  0  0  0  0  0  0  0  0  0
    3.7845    3.8524   -3.2245 H   0  0  0  0  0  0  0  0  0  0  0  0
    6.3779    4.4894   -0.5141 H   0  0  0  0  0  0  0  0  0  0  0  0
    7.5515    6.6148   -0.4159 H   0  0  0  0  0  0  0  0  0  0  0  0
    4.8280    8.2105    4.0722 H   0  0  0  0  0  0  0  0  0  0  0  0
    6.6908    9.9751    3.1717 H   0  0  0  0  0  0  0  0  0  0  0  0
    6.5777    9.4622   -0.7681 H   0  0  0  0  0  0  0  0  0  0  0  0
   10.3536    8.9476   -1.2604 H   0  0  0  0  0  0  0  0  0  0  0  0
   11.2270   12.6200   -4.3266 H   0  0  0  0  0  0  0  0  0  0  0  0
   12.9458   12.5554   -3.9263 H   0  0  0  0  0  0  0  0  0  0  0  0
   11.8174   13.3234   -2.8025 H   0  0  0  0  0  0  0  0  0  0  0  0
   13.2161   10.1076   -4.0834 H   0  0  0  0  0  0  0  0  0  0  0  0
   12.0968    8.9845   -3.2140 H   0  0  0  0  0  0  0  0  0  0  0  0
   13.7867   11.2134   -1.9255 H   0  0  0  0  0  0  0  0  0  0  0  0
   12.6722   10.0958   -1.0479 H   0  0  0  0  0  0  0  0  0  0  0  0
    9.1515   12.6170   -2.9063 H   0  0  0  0  0  0  0  0  0  0  0  0
    4.0347    5.5181    2.9610 H   0  0  0  0  0  0  0  0  0  0  0  0
    4.8189   -0.5889   -2.3947 H   0  0  0  0  0  0  0  0  0  0  0  0
    3.1434   -0.6707   -1.8689 H   0  0  0  0  0  0  0  0  0  0  0  0
    5.5866   -0.9599   -0.2835 H   0  0  0  0  0  0  0  0  0  0  0  0
  1 34  1  0  0  0  0
  1 35  1  0  0  0  0
  1 36  1  0  0  0  0
  2  3  1  0  0  0  0
  2 33  1  0  0  0  0
  2  1  1  0  0  0  0
  2 37  1  1  0  0  0
  3  4  1  0  0  0  0
  3 38  1  0  0  0  0
  3 39  1  0  0  0  0
  4  5  1  0  0  0  0
  4  9  2  0  0  0  0
  5  6  2  0  0  0  0
  5 32  1  0  0  0  0
  6  7  1  0  0  0  0
  7  8  2  0  0  0  0
  7 40  1  0  0  0  0
  8  9  1  0  0  0  0
  9 10  1  0  0  0  0
 10 11  1  0  0  0  0
 11 12  1  0  0  0  0
 11 31  2  0  0  0  0
 12 13  2  0  0  0  0
 12 41  1  0  0  0  0
 13 14  1  0  0  0  0
 13 42  1  0  0  0  0
 14 15  2  0  0  0  0
 14 18  1  0  0  0  0
 15 16  1  0  0  0  0
 15 31  1  0  0  0  0
 16 17  2  0  0  0  0
 16 43  1  0  0  0  0
 17 18  1  0  0  0  0
 17 44  1  0  0  0  0
 18 19  1  0  0  0  0
 19 20  2  0  0  0  0
 19 21  1  0  0  0  0
 21 22  1  0  0  0  0
 21 45  1  0  0  0  0
 22 23  1  0  0  0  0
 22 30  2  0  0  0  0
 23 24  2  0  0  0  0
 23 46  1  0  0  0  0
 24 25  1  0  0  0  0
 24 29  1  0  0  0  0
 25 26  1  0  0  0  0
 25 27  1  0  0  0  0
 25 28  1  0  0  0  0
 26 47  1  0  0  0  0
 26 48  1  0  0  0  0
 26 49  1  0  0  0  0
 27 28  1  0  0  0  0
 27 50  1  0  0  0  0
 27 51  1  0  0  0  0
 28 52  1  0  0  0  0
 28 53  1  0  0  0  0
 29 30  1  0  0  0  0
 29 54  1  0  0  0  0
 31 55  1  0  0  0  0
 32 33  1  0  0  0  0
 32 56  1  0  0  0  0
 32 57  1  0  0  0  0
 33 58  1  0  0  0  0
M  END
$$$$
