CHEMBL198601
 OpenBabel04072215363D

 57 60  0  0  0  0  0  0  0  0999 V2000
   12.3473    7.4806    0.3967 C   0  0  0  0  0  0  0  0  0  0  0  0
   11.5879    6.2597    0.3049 N   0  0  0  0  0  0  0  0  0  0  0  0
   10.9045    5.9383   -0.8469 C   0  0  0  0  0  0  0  0  0  0  0  0
   10.8773    6.6620   -1.8362 O   0  0  0  0  0  0  0  0  0  0  0  0
   10.1809    4.6124   -0.7550 C   0  0  0  0  0  0  0  0  0  0  0  0
    9.4451    4.3101   -2.0563 C   0  0  0  0  0  0  0  0  0  0  0  0
    8.5640    3.0840   -1.9849 C   0  0  0  0  0  0  0  0  0  0  0  0
    8.9653    1.8082   -3.0599 S   0  0  0  0  0  0  0  0  0  0  0  0
    7.6913    0.8346   -2.5227 C   0  0  0  0  0  0  0  0  0  0  0  0
    7.5377   -0.3810   -3.0637 N   0  0  0  0  0  0  0  0  0  0  0  0
    6.5086   -1.0427   -2.5441 C   0  0  0  0  0  0  0  0  0  0  0  0
    5.6683   -0.6115   -1.5986 N   0  0  0  0  0  0  0  0  0  0  0  0
    5.8406    0.6201   -1.0881 C   0  0  0  0  0  0  0  0  0  0  0  0
    4.9028    0.9672   -0.1264 N   0  0  0  0  0  0  0  0  0  0  0  0
    6.9204    1.4340   -1.5381 C   0  0  0  0  0  0  0  0  0  0  0  0
    7.4405    2.7745   -1.2130 C   0  0  0  0  0  0  0  0  0  0  0  0
    6.9137    3.6928   -0.1817 C   0  0  0  0  0  0  0  0  0  0  0  0
    6.5045    3.1773    1.0471 C   0  0  0  0  0  0  0  0  0  0  0  0
    5.8475    3.9758    1.9857 C   0  0  0  0  0  0  0  0  0  0  0  0
    5.6958    5.3461    1.7863 C   0  0  0  0  0  0  0  0  0  0  0  0
    5.0033    6.1899    2.6823 N   0  0  0  0  0  0  0  0  0  0  0  0
    4.3602    5.7886    3.8402 C   0  0  0  0  0  0  0  0  0  0  0  0
    4.4019    4.6598    4.3185 O   0  0  0  0  0  0  0  0  0  0  0  0
    3.5893    6.8094    4.3785 N   0  0  0  0  0  0  0  0  0  0  0  0
    2.8650    6.6072    5.5759 C   0  0  0  0  0  0  0  0  0  0  0  0
    1.5408    7.0379    5.6429 C   0  0  0  0  0  0  0  0  0  0  0  0
    0.7858    6.7820    6.7887 C   0  0  0  0  0  0  0  0  0  0  0  0
    1.3666    6.1465    7.8885 C   0  0  0  0  0  0  0  0  0  0  0  0
    2.7072    5.7518    7.8511 C   0  0  0  0  0  0  0  0  0  0  0  0
    3.3625    5.1054    9.0353 C   0  0  0  0  0  0  0  0  0  0  0  0
    3.4458    5.9731    6.6816 C   0  0  0  0  0  0  0  0  0  0  0  0
    6.2200    5.9005    0.6181 C   0  0  0  0  0  0  0  0  0  0  0  0
    6.7786    5.0753   -0.3746 C   0  0  0  0  0  0  0  0  0  0  0  0
   12.7649    7.5603    1.4026 H   0  0  0  0  0  0  0  0  0  0  0  0
   11.6926    8.3324    0.1934 H   0  0  0  0  0  0  0  0  0  0  0  0
   13.1511    7.4570   -0.3437 H   0  0  0  0  0  0  0  0  0  0  0  0
   11.6121    5.6039    1.0746 H   0  0  0  0  0  0  0  0  0  0  0  0
    9.4965    4.6706    0.0958 H   0  0  0  0  0  0  0  0  0  0  0  0
   10.9094    3.8232   -0.5407 H   0  0  0  0  0  0  0  0  0  0  0  0
   10.2008    4.1904   -2.8461 H   0  0  0  0  0  0  0  0  0  0  0  0
    8.8458    5.1642   -2.3894 H   0  0  0  0  0  0  0  0  0  0  0  0
    6.3240   -2.0403   -2.9316 H   0  0  0  0  0  0  0  0  0  0  0  0
    4.1451    0.2946   -0.1085 H   0  0  0  0  0  0  0  0  0  0  0  0
    4.6274    1.9398   -0.1172 H   0  0  0  0  0  0  0  0  0  0  0  0
    6.6337    2.1233    1.2871 H   0  0  0  0  0  0  0  0  0  0  0  0
    5.4600    3.4680    2.8621 H   0  0  0  0  0  0  0  0  0  0  0  0
    5.0041    7.1796    2.4846 H   0  0  0  0  0  0  0  0  0  0  0  0
    3.1564    7.4123    3.6952 H   0  0  0  0  0  0  0  0  0  0  0  0
    1.0640    7.5143    4.7919 H   0  0  0  0  0  0  0  0  0  0  0  0
   -0.2624    7.0668    6.8216 H   0  0  0  0  0  0  0  0  0  0  0  0
    0.7640    5.9596    8.7741 H   0  0  0  0  0  0  0  0  0  0  0  0
    2.6612    4.9893    9.8678 H   0  0  0  0  0  0  0  0  0  0  0  0
    4.1953    5.7250    9.3845 H   0  0  0  0  0  0  0  0  0  0  0  0
    3.7399    4.1126    8.7708 H   0  0  0  0  0  0  0  0  0  0  0  0
    4.4839    5.6479    6.6398 H   0  0  0  0  0  0  0  0  0  0  0  0
    6.1688    6.9711    0.4354 H   0  0  0  0  0  0  0  0  0  0  0  0
    7.0933    5.5497   -1.2986 H   0  0  0  0  0  0  0  0  0  0  0  0
  1  2  1  0  0  0  0
  1 34  1  0  0  0  0
  1 35  1  0  0  0  0
  1 36  1  0  0  0  0
  2  3  1  0  0  0  0
  2 37  1  0  0  0  0
  3  4  2  0  0  0  0
  3  5  1  0  0  0  0
  5  6  1  0  0  0  0
  5 38  1  0  0  0  0
  5 39  1  0  0  0  0
  6  7  1  0  0  0  0
  6 40  1  0  0  0  0
  6 41  1  0  0  0  0
  7  8  1  0  0  0  0
  7 16  2  0  0  0  0
  8  9  1  0  0  0  0
  9 10  1  0  0  0  0
  9 15  2  0  0  0  0
 10 11  2  0  0  0  0
 11 12  1  0  0  0  0
 11 42  1  0  0  0  0
 12 13  2  0  0  0  0
 13 14  1  0  0  0  0
 13 15  1  0  0  0  0
 14 43  1  0  0  0  0
 14 44  1  0  0  0  0
 15 16  1  0  0  0  0
 16 17  1  0  0  0  0
 17 18  1  0  0  0  0
 17 33  2  0  0  0  0
 18 19  2  0  0  0  0
 18 45  1  0  0  0  0
 19 20  1  0  0  0  0
 19 46  1  0  0  0  0
 20 21  1  0  0  0  0
 20 32  2  0  0  0  0
 21 22  1  0  0  0  0
 21 47  1  0  0  0  0
 22 23  2  0  0  0  0
 22 24  1  0  0  0  0
 24 25  1  0  0  0  0
 24 48  1  0  0  0  0
 25 26  1  0  0  0  0
 25 31  2  0  0  0  0
 26 27  2  0  0  0  0
 26 49  1  0  0  0  0
 27 28  1  0  0  0  0
 27 50  1  0  0  0  0
 28 29  2  0  0  0  0
 28 51  1  0  0  0  0
 29 30  1  0  0  0  0
 29 31  1  0  0  0  0
 30 52  1  0  0  0  0
 30 53  1  0  0  0  0
 30 54  1  0  0  0  0
 31 55  1  0  0  0  0
 32 33  1  0  0  0  0
 32 56  1  0  0  0  0
 33 57  1  0  0  0  0
M  END
$$$$
