CHEMBL4516406
 OpenBabel04072215383D

 53 56  0  0  0  0  0  0  0  0999 V2000
   -0.6693    5.9786   -2.1040 C   0  0  0  0  0  0  0  0  0  0  0  0
    0.5121    5.6401   -2.8194 O   0  0  0  0  0  0  0  0  0  0  0  0
    1.6603    5.4934   -2.0829 C   0  0  0  0  0  0  0  0  0  0  0  0
    1.6358    5.1803   -0.7110 C   0  0  0  0  0  0  0  0  0  0  0  0
    2.8020    4.9620    0.0255 C   0  0  0  0  0  0  0  0  0  0  0  0
    2.7921    4.6621    1.5187 C   0  0  0  0  0  0  0  0  0  0  0  0
    1.4343    4.3246    2.1629 C   0  0  0  0  0  0  0  0  0  0  0  0
    0.7962    3.3226    1.8534 O   0  0  0  0  0  0  0  0  0  0  0  0
    0.9894    5.2888    3.0599 N   0  0  0  0  0  0  0  0  0  0  0  0
   -0.2819    5.2768    3.6895 C   0  0  0  0  0  0  0  0  0  0  0  0
   -0.9683    6.5022    3.6805 C   0  0  0  0  0  0  0  0  0  0  0  0
   -2.2321    6.6416    4.2484 C   0  0  0  0  0  0  0  0  0  0  0  0
   -2.7372    5.5094    4.8668 C   0  0  0  0  0  0  0  0  0  0  0  0
   -3.9393    5.4279    5.4809 O   0  0  0  0  0  0  0  0  0  0  0  0
   -4.0237    4.1281    5.9144 C   0  0  0  0  0  0  0  0  0  0  0  0
   -5.3271    3.8039    6.5131 C   0  0  0  0  0  0  0  0  0  0  0  0
   -6.4377    4.6331    6.2433 C   0  0  0  0  0  0  0  0  0  0  0  0
   -7.7099    4.3539    6.7470 C   0  0  0  0  0  0  0  0  0  0  0  0
   -7.8971    3.2364    7.5500 C   0  0  0  0  0  0  0  0  0  0  0  0
   -6.8145    2.4079    7.8466 C   0  0  0  0  0  0  0  0  0  0  0  0
   -5.5315    2.6866    7.3290 C   0  0  0  0  0  0  0  0  0  0  0  0
   -2.9386    3.4100    5.6578 N   0  0  0  0  0  0  0  0  0  0  0  0
   -2.1155    4.2803    4.9481 C   0  0  0  0  0  0  0  0  0  0  0  0
   -0.8476    4.1415    4.3224 C   0  0  0  0  0  0  0  0  0  0  0  0
    4.0351    5.0577   -0.6561 C   0  0  0  0  0  0  0  0  0  0  0  0
    4.0822    5.3450   -2.0340 C   0  0  0  0  0  0  0  0  0  0  0  0
    5.2619    5.4673   -2.7316 O   0  0  0  0  0  0  0  0  0  0  0  0
    6.3022    4.5666   -2.3707 C   0  0  0  0  0  0  0  0  0  0  0  0
    2.8938    5.5910   -2.7499 C   0  0  0  0  0  0  0  0  0  0  0  0
    3.0611    5.8427   -4.0955 O   0  0  0  0  0  0  0  0  0  0  0  0
    2.1316    6.7272   -4.7086 C   0  0  0  0  0  0  0  0  0  0  0  0
   -1.4546    6.1900   -2.8351 H   0  0  0  0  0  0  0  0  0  0  0  0
   -0.5168    6.8815   -1.5022 H   0  0  0  0  0  0  0  0  0  0  0  0
   -1.0154    5.1435   -1.4872 H   0  0  0  0  0  0  0  0  0  0  0  0
    0.6835    5.0633   -0.2073 H   0  0  0  0  0  0  0  0  0  0  0  0
    3.2375    5.5235    2.0340 H   0  0  0  0  0  0  0  0  0  0  0  0
    3.4426    3.8009    1.7134 H   0  0  0  0  0  0  0  0  0  0  0  0
    1.4096    6.2041    2.9482 H   0  0  0  0  0  0  0  0  0  0  0  0
   -0.5471    7.3654    3.1695 H   0  0  0  0  0  0  0  0  0  0  0  0
   -2.7989    7.5616    4.2044 H   0  0  0  0  0  0  0  0  0  0  0  0
   -6.3232    5.5142    5.6151 H   0  0  0  0  0  0  0  0  0  0  0  0
   -8.5435    5.0061    6.5049 H   0  0  0  0  0  0  0  0  0  0  0  0
   -8.8903    3.0046    7.9301 H   0  0  0  0  0  0  0  0  0  0  0  0
   -6.9683    1.5368    8.4804 H   0  0  0  0  0  0  0  0  0  0  0  0
   -4.7075    2.0253    7.5822 H   0  0  0  0  0  0  0  0  0  0  0  0
   -0.3213    3.1931    4.3660 H   0  0  0  0  0  0  0  0  0  0  0  0
    4.9576    4.9158   -0.1000 H   0  0  0  0  0  0  0  0  0  0  0  0
    7.0064    4.5133   -3.2045 H   0  0  0  0  0  0  0  0  0  0  0  0
    5.9260    3.5542   -2.1840 H   0  0  0  0  0  0  0  0  0  0  0  0
    6.8447    4.9466   -1.4989 H   0  0  0  0  0  0  0  0  0  0  0  0
    2.5963    7.1149   -5.6247 H   0  0  0  0  0  0  0  0  0  0  0  0
    1.8950    7.5868   -4.0731 H   0  0  0  0  0  0  0  0  0  0  0  0
    1.2307    6.1914   -5.0180 H   0  0  0  0  0  0  0  0  0  0  0  0
  1  2  1  0  0  0  0
  1 32  1  0  0  0  0
  1 33  1  0  0  0  0
  1 34  1  0  0  0  0
  2  3  1  0  0  0  0
  3  4  1  0  0  0  0
  3 29  2  0  0  0  0
  4  5  2  0  0  0  0
  4 35  1  0  0  0  0
  5  6  1  0  0  0  0
  5 25  1  0  0  0  0
  6  7  1  0  0  0  0
  6 36  1  0  0  0  0
  6 37  1  0  0  0  0
  7  8  2  0  0  0  0
  7  9  1  0  0  0  0
  9 10  1  0  0  0  0
  9 38  1  0  0  0  0
 10 11  1  0  0  0  0
 10 24  2  0  0  0  0
 11 12  2  0  0  0  0
 11 39  1  0  0  0  0
 12 13  1  0  0  0  0
 12 40  1  0  0  0  0
 13 14  1  0  0  0  0
 13 23  2  0  0  0  0
 14 15  1  0  0  0  0
 15 16  1  0  0  0  0
 15 22  2  0  0  0  0
 16 17  1  0  0  0  0
 16 21  2  0  0  0  0
 17 18  2  0  0  0  0
 17 41  1  0  0  0  0
 18 19  1  0  0  0  0
 18 42  1  0  0  0  0
 19 20  2  0  0  0  0
 19 43  1  0  0  0  0
 20 21  1  0  0  0  0
 20 44  1  0  0  0  0
 21 45  1  0  0  0  0
 22 23  1  0  0  0  0
 23 24  1  0  0  0  0
 24 46  1  0  0  0  0
 25 26  2  0  0  0  0
 25 47  1  0  0  0  0
 26 27  1  0  0  0  0
 26 29  1  0  0  0  0
 27 28  1  0  0  0  0
 28 48  1  0  0  0  0
 28 49  1  0  0  0  0
 28 50  1  0  0  0  0
 29 30  1  0  0  0  0
 30 31  1  0  0  0  0
 31 51  1  0  0  0  0
 31 52  1  0  0  0  0
 31 53  1  0  0  0  0
M  END
$$$$
