CHEMBL3656052
 OpenBabel04072215373D

 56 59  0  0  0  0  0  0  0  0999 V2000
    2.6101    0.6163    0.4761 C   0  0  0  0  0  0  0  0  0  0  0  0
    2.0650   -0.4240   -0.7680 S   0  0  3  0  0  0  0  0  0  0  0  0
    0.4770   -1.0222   -0.4090 C   0  0  0  0  0  0  0  0  0  0  0  0
    1.7996    0.5028   -1.8403 O   0  0  0  0  0  0  0  0  0  0  0  0
    3.1266   -1.5289   -1.3092 N   0  0  0  0  0  0  0  0  0  0  0  0
    3.6848   -2.4397   -0.4599 C   0  0  0  0  0  0  0  0  0  0  0  0
    3.3882   -2.5230    0.7288 O   0  0  0  0  0  0  0  0  0  0  0  0
    4.6848   -3.3189   -1.0621 C   0  0  0  0  0  0  0  0  0  0  0  0
    5.1422   -3.3656   -2.3689 C   0  0  0  0  0  0  0  0  0  0  0  0
    6.1127   -4.3353   -2.4577 N   0  0  0  0  0  0  0  0  0  0  0  0
    6.3062   -4.9292   -1.2323 C   0  0  0  0  0  0  0  0  0  0  0  0
    7.2798   -5.9933   -1.0144 C   0  0  0  0  0  0  0  0  0  0  0  0
    7.4285   -6.5815    0.2329 C   0  0  0  0  0  0  0  0  0  0  0  0
    8.2707   -7.6804    0.3641 C   0  0  0  0  0  0  0  0  0  0  0  0
    8.4231   -8.3912    1.5389 O   0  0  0  0  0  0  0  0  0  0  0  0
    7.3460   -8.5249    2.3992 C   0  0  0  0  0  0  0  0  0  0  0  0
    6.0176   -8.5900    1.9677 C   0  0  0  0  0  0  0  0  0  0  0  0
    4.9857   -8.6353    2.8979 C   0  0  0  0  0  0  0  0  0  0  0  0
    5.2776   -8.7348    4.2564 C   0  0  0  0  0  0  0  0  0  0  0  0
    6.6001   -8.8149    4.7010 C   0  0  0  0  0  0  0  0  0  0  0  0
    6.9316   -9.0692    6.0509 N   0  0  0  0  0  0  0  0  0  0  0  0
    6.0778   -9.5667    7.0307 C   0  0  0  0  0  0  0  0  0  0  0  0
    4.8899   -9.8281    6.8596 O   0  0  0  0  0  0  0  0  0  0  0  0
    6.7285   -9.8117    8.3092 C   0  0  0  0  0  0  0  0  0  0  0  0
    8.0378   -9.4402    8.4773 O   0  0  0  0  0  0  0  0  0  0  0  0
    8.3880   -9.7697    9.7452 C   0  0  0  0  0  0  0  0  0  0  0  0
    7.3349  -10.3587   10.4018 C   0  0  0  0  0  0  0  0  0  0  0  0
    6.2536  -10.3972    9.4786 C   0  0  0  0  0  0  0  0  0  0  0  0
    4.8985  -10.9584    9.7178 C   0  0  0  0  0  0  0  0  0  0  0  0
    7.6360   -8.6601    3.7658 C   0  0  0  0  0  0  0  0  0  0  0  0
    9.0368   -8.0724   -0.7270 C   0  0  0  0  0  0  0  0  0  0  0  0
    8.8636   -7.3925   -1.9246 C   0  0  0  0  0  0  0  0  0  0  0  0
    7.9846   -6.3776   -2.1034 N   0  0  0  0  0  0  0  0  0  0  0  0
    5.4131   -4.3265   -0.3651 C   0  0  0  0  0  0  0  0  0  0  0  0
    1.9862    1.4493    0.8306 H   0  0  0  0  0  0  0  0  0  0  0  0
    3.5959    0.4726    0.9472 H   0  0  0  0  0  0  0  0  0  0  0  0
   -0.1784   -0.1838   -0.1664 H   0  0  0  0  0  0  0  0  0  0  0  0
    0.5419   -1.7020    0.4414 H   0  0  0  0  0  0  0  0  0  0  0  0
    0.0956   -1.5542   -1.2827 H   0  0  0  0  0  0  0  0  0  0  0  0
    3.3693   -1.4823   -2.2857 H   0  0  0  0  0  0  0  0  0  0  0  0
    4.8795   -2.7966   -3.2498 H   0  0  0  0  0  0  0  0  0  0  0  0
    6.6334   -4.5922   -3.2878 H   0  0  0  0  0  0  0  0  0  0  0  0
    6.8634   -6.2126    1.0794 H   0  0  0  0  0  0  0  0  0  0  0  0
    5.7614   -8.5744    0.9124 H   0  0  0  0  0  0  0  0  0  0  0  0
    3.9499   -8.6053    2.5699 H   0  0  0  0  0  0  0  0  0  0  0  0
    4.4406   -8.7557    4.9475 H   0  0  0  0  0  0  0  0  0  0  0  0
    7.9099   -9.0229    6.3174 H   0  0  0  0  0  0  0  0  0  0  0  0
    9.4022   -9.5269   10.0314 H   0  0  0  0  0  0  0  0  0  0  0  0
    7.3409  -10.7193   11.4208 H   0  0  0  0  0  0  0  0  0  0  0  0
    4.8220  -11.3869   10.7228 H   0  0  0  0  0  0  0  0  0  0  0  0
    4.6772  -11.7540    8.9989 H   0  0  0  0  0  0  0  0  0  0  0  0
    4.1340  -10.1805    9.6252 H   0  0  0  0  0  0  0  0  0  0  0  0
    8.6758   -8.6741    4.0822 H   0  0  0  0  0  0  0  0  0  0  0  0
    9.7454   -8.8893   -0.6518 H   0  0  0  0  0  0  0  0  0  0  0  0
    9.4427   -7.6618   -2.8047 H   0  0  0  0  0  0  0  0  0  0  0  0
    5.2888   -4.5613    0.6858 H   0  0  0  0  0  0  0  0  0  0  0  0
  1  2  2  0  0  0  0
  1 35  1  0  0  0  0
  1 36  1  0  0  0  0
  2  3  1  0  0  0  0
  2  4  2  0  0  0  0
  2  5  1  0  0  0  0
  3 37  1  0  0  0  0
  3 38  1  0  0  0  0
  3 39  1  0  0  0  0
  5  6  1  0  0  0  0
  5 40  1  0  0  0  0
  6  7  2  0  0  0  0
  6  8  1  0  0  0  0
  8  9  2  0  0  0  0
  8 34  1  0  0  0  0
  9 10  1  0  0  0  0
  9 41  1  0  0  0  0
 10 11  1  0  0  0  0
 10 42  1  0  0  0  0
 11 12  1  0  0  0  0
 11 34  2  0  0  0  0
 12 13  1  0  0  0  0
 12 33  2  0  0  0  0
 13 14  2  0  0  0  0
 13 43  1  0  0  0  0
 14 15  1  0  0  0  0
 14 31  1  0  0  0  0
 15 16  1  0  0  0  0
 16 17  1  0  0  0  0
 16 30  2  0  0  0  0
 17 18  2  0  0  0  0
 17 44  1  0  0  0  0
 18 19  1  0  0  0  0
 18 45  1  0  0  0  0
 19 20  2  0  0  0  0
 19 46  1  0  0  0  0
 20 21  1  0  0  0  0
 20 30  1  0  0  0  0
 21 22  1  0  0  0  0
 21 47  1  0  0  0  0
 22 23  2  0  0  0  0
 22 24  1  0  0  0  0
 24 25  1  0  0  0  0
 24 28  2  0  0  0  0
 25 26  1  0  0  0  0
 26 27  2  0  0  0  0
 26 48  1  0  0  0  0
 27 28  1  0  0  0  0
 27 49  1  0  0  0  0
 28 29  1  0  0  0  0
 29 50  1  0  0  0  0
 29 51  1  0  0  0  0
 29 52  1  0  0  0  0
 30 53  1  0  0  0  0
 31 32  2  0  0  0  0
 31 54  1  0  0  0  0
 32 33  1  0  0  0  0
 32 55  1  0  0  0  0
 34 56  1  0  0  0  0
M  END
$$$$
