CHEMBL271188
 OpenBabel04072215363D

 56 59  0  0  0  0  0  0  0  0999 V2000
    0.8765    0.9244   -1.9108 C   0  0  0  0  0  0  0  0  0  0  0  0
    2.2754    0.6986   -2.0234 O   0  0  0  0  0  0  0  0  0  0  0  0
    2.9946    1.3296   -0.9596 C   0  0  0  0  0  0  0  0  0  0  0  0
    4.4782    0.9755   -1.0871 C   0  0  0  0  0  0  0  0  0  0  0  0
    5.0637    1.4551   -2.3315 N   0  0  0  0  0  0  0  0  0  0  0  0
    6.4275    1.3379   -2.5398 C   0  0  0  0  0  0  0  0  0  0  0  0
    7.1910    0.9471   -1.6636 O   0  0  0  0  0  0  0  0  0  0  0  0
    6.9461    1.7424   -3.8899 C   0  0  0  0  0  0  0  0  0  0  0  0
    6.3536    2.8584   -4.5019 C   0  0  0  0  0  0  0  0  0  0  0  0
    6.8645    3.3547   -5.6974 C   0  0  0  0  0  0  0  0  0  0  0  0
    7.9828    2.7578   -6.2753 C   0  0  0  0  0  0  0  0  0  0  0  0
    8.6028    1.6440   -5.6853 C   0  0  0  0  0  0  0  0  0  0  0  0
    9.7606    1.0802   -6.2714 C   0  0  0  0  0  0  0  0  0  0  0  0
   10.3931   -0.0298   -5.7033 C   0  0  0  0  0  0  0  0  0  0  0  0
   11.5560   -0.4728   -6.3168 O   0  0  0  0  0  0  0  0  0  0  0  0
   12.5476   -1.0528   -5.5326 C   0  0  0  0  0  0  0  0  0  0  0  0
   12.8572   -0.5490   -4.2719 C   0  0  0  0  0  0  0  0  0  0  0  0
   13.7734   -1.2472   -3.5139 C   0  0  0  0  0  0  0  0  0  0  0  0
   14.4057   -2.3650   -3.9382 N   0  0  0  0  0  0  0  0  0  0  0  0
   14.1593   -2.8155   -5.1873 C   0  0  0  0  0  0  0  0  0  0  0  0
   14.7738   -3.9875   -5.6321 C   0  0  0  0  0  0  0  0  0  0  0  0
   14.5677   -4.5361   -6.9174 C   0  0  0  0  0  0  0  0  0  0  0  0
   14.9869   -5.8365   -7.0294 O   0  0  0  0  0  0  0  0  0  0  0  0
   16.0142   -6.1306   -7.9652 C   0  0  0  0  0  0  0  0  0  0  0  0
   13.7478   -3.8465   -7.8127 C   0  0  0  0  0  0  0  0  0  0  0  0
   13.3594   -4.0949   -9.0934 O   0  0  0  0  0  0  0  0  0  0  0  0
   13.7853   -5.2341   -9.8029 C   0  0  0  0  0  0  0  0  0  0  0  0
   13.1109   -2.6701   -7.3579 C   0  0  0  0  0  0  0  0  0  0  0  0
   13.2650   -2.1664   -6.0461 C   0  0  0  0  0  0  0  0  0  0  0  0
    9.8158   -0.6373   -4.5986 C   0  0  0  0  0  0  0  0  0  0  0  0
    8.6919   -0.0689   -3.9881 C   0  0  0  0  0  0  0  0  0  0  0  0
    8.0677    1.0976   -4.4907 C   0  0  0  0  0  0  0  0  0  0  0  0
    0.3756    0.3969   -2.7268 H   0  0  0  0  0  0  0  0  0  0  0  0
    0.6560    1.9926   -1.9955 H   0  0  0  0  0  0  0  0  0  0  0  0
    0.4985    0.5351   -0.9603 H   0  0  0  0  0  0  0  0  0  0  0  0
    2.6153    0.9715    0.0053 H   0  0  0  0  0  0  0  0  0  0  0  0
    2.8550    2.4133   -1.0208 H   0  0  0  0  0  0  0  0  0  0  0  0
    4.6149   -0.1117   -1.0703 H   0  0  0  0  0  0  0  0  0  0  0  0
    5.0411    1.4068   -0.2514 H   0  0  0  0  0  0  0  0  0  0  0  0
    4.4483    1.4924   -3.1359 H   0  0  0  0  0  0  0  0  0  0  0  0
    5.5150    3.3735   -4.0377 H   0  0  0  0  0  0  0  0  0  0  0  0
    6.4104    4.2239   -6.1652 H   0  0  0  0  0  0  0  0  0  0  0  0
    8.3806    3.1857   -7.1948 H   0  0  0  0  0  0  0  0  0  0  0  0
   10.1851    1.5216   -7.1720 H   0  0  0  0  0  0  0  0  0  0  0  0
   12.3782    0.3373   -3.8704 H   0  0  0  0  0  0  0  0  0  0  0  0
   14.0103   -0.9294   -2.5026 H   0  0  0  0  0  0  0  0  0  0  0  0
   15.4008   -4.5256   -4.9203 H   0  0  0  0  0  0  0  0  0  0  0  0
   16.7928   -6.7208   -7.4715 H   0  0  0  0  0  0  0  0  0  0  0  0
   16.4711   -5.2498   -8.4247 H   0  0  0  0  0  0  0  0  0  0  0  0
   15.5918   -6.7894   -8.7300 H   0  0  0  0  0  0  0  0  0  0  0  0
   13.2350   -5.2485  -10.7492 H   0  0  0  0  0  0  0  0  0  0  0  0
   13.5362   -6.1572   -9.2692 H   0  0  0  0  0  0  0  0  0  0  0  0
   14.8411   -5.1577  -10.0662 H   0  0  0  0  0  0  0  0  0  0  0  0
   12.4332   -2.1577   -8.0417 H   0  0  0  0  0  0  0  0  0  0  0  0
   10.2375   -1.5421   -4.1688 H   0  0  0  0  0  0  0  0  0  0  0  0
    8.3096   -0.5592   -3.0946 H   0  0  0  0  0  0  0  0  0  0  0  0
  1  2  1  0  0  0  0
  1 33  1  0  0  0  0
  1 34  1  0  0  0  0
  1 35  1  0  0  0  0
  2  3  1  0  0  0  0
  3  4  1  0  0  0  0
  3 36  1  0  0  0  0
  3 37  1  0  0  0  0
  4  5  1  0  0  0  0
  4 38  1  0  0  0  0
  4 39  1  0  0  0  0
  5  6  1  0  0  0  0
  5 40  1  0  0  0  0
  6  7  2  0  0  0  0
  6  8  1  0  0  0  0
  8  9  1  0  0  0  0
  8 32  2  0  0  0  0
  9 10  2  0  0  0  0
  9 41  1  0  0  0  0
 10 11  1  0  0  0  0
 10 42  1  0  0  0  0
 11 12  2  0  0  0  0
 11 43  1  0  0  0  0
 12 13  1  0  0  0  0
 12 32  1  0  0  0  0
 13 14  2  0  0  0  0
 13 44  1  0  0  0  0
 14 15  1  0  0  0  0
 14 30  1  0  0  0  0
 15 16  1  0  0  0  0
 16 17  1  0  0  0  0
 16 29  2  0  0  0  0
 17 18  2  0  0  0  0
 17 45  1  0  0  0  0
 18 19  1  0  0  0  0
 18 46  1  0  0  0  0
 19 20  2  0  0  0  0
 20 21  1  0  0  0  0
 20 29  1  0  0  0  0
 21 22  2  0  0  0  0
 21 47  1  0  0  0  0
 22 23  1  0  0  0  0
 22 25  1  0  0  0  0
 23 24  1  0  0  0  0
 24 48  1  0  0  0  0
 24 49  1  0  0  0  0
 24 50  1  0  0  0  0
 25 26  1  0  0  0  0
 25 28  2  0  0  0  0
 26 27  1  0  0  0  0
 27 51  1  0  0  0  0
 27 52  1  0  0  0  0
 27 53  1  0  0  0  0
 28 29  1  0  0  0  0
 28 54  1  0  0  0  0
 30 31  2  0  0  0  0
 30 55  1  0  0  0  0
 31 32  1  0  0  0  0
 31 56  1  0  0  0  0
M  END
$$$$
