CHEMBL3905685
 OpenBabel04072215373D

 37 39  0  0  0  0  0  0  0  0999 V2000
    2.3670   -0.7990   -2.0478 C   0  0  0  0  0  0  0  0  0  0  0  0
    0.9420   -0.5597   -1.6470 C   0  0  0  0  0  0  0  0  0  0  0  0
    0.3424    0.6905   -1.8382 C   0  0  0  0  0  0  0  0  0  0  0  0
   -0.9726    0.9122   -1.4368 C   0  0  0  0  0  0  0  0  0  0  0  0
   -1.7051   -0.1108   -0.8345 C   0  0  0  0  0  0  0  0  0  0  0  0
   -1.1249   -1.3747   -0.6477 C   0  0  0  0  0  0  0  0  0  0  0  0
   -1.8388   -2.4733    0.0548 C   0  0  0  0  0  0  0  0  0  0  0  0
   -1.1814   -3.3283    0.6641 O   0  0  0  0  0  0  0  0  0  0  0  0
   -3.2785   -2.5038    0.0609 C   0  0  0  0  0  0  0  0  0  0  0  0
   -4.1997   -2.0897   -0.9291 C   0  0  0  0  0  0  0  0  0  0  0  0
   -5.4580   -2.2984   -0.5813 N   0  0  0  0  0  0  0  0  0  0  0  0
   -5.3886   -2.9005    0.6343 N   0  0  0  0  0  0  0  0  0  0  0  0
   -6.5511   -3.3133    1.3215 C   0  0  0  0  0  0  0  0  0  0  0  0
   -6.5368   -3.3113    2.7296 C   0  0  0  0  0  0  0  0  0  0  0  0
   -7.6311   -3.7857    3.4319 C   0  0  0  0  0  0  0  0  0  0  0  0
   -7.6499   -3.8061    4.7912 O   0  0  0  0  0  0  0  0  0  0  0  0
   -8.7410   -4.2583    2.7592 C   0  0  0  0  0  0  0  0  0  0  0  0
   -8.7744   -4.2486    1.3627 C   0  0  0  0  0  0  0  0  0  0  0  0
   -7.6857   -3.7665    0.6303 C   0  0  0  0  0  0  0  0  0  0  0  0
   -7.7934   -3.9211   -1.0883 Cl  0  0  0  0  0  0  0  0  0  0  0  0
   -4.0690   -3.0154    1.0668 C   0  0  0  0  0  0  0  0  0  0  0  0
   -3.6859   -3.5880    2.2435 N   0  0  0  0  0  0  0  0  0  0  0  0
    0.1981   -1.5892   -1.0551 C   0  0  0  0  0  0  0  0  0  0  0  0
    2.8191    0.1014   -2.4759 H   0  0  0  0  0  0  0  0  0  0  0  0
    2.4197   -1.5933   -2.7991 H   0  0  0  0  0  0  0  0  0  0  0  0
    2.9605   -1.0876   -1.1739 H   0  0  0  0  0  0  0  0  0  0  0  0
    0.9028    1.5054   -2.2909 H   0  0  0  0  0  0  0  0  0  0  0  0
   -1.4253    1.8912   -1.5774 H   0  0  0  0  0  0  0  0  0  0  0  0
   -2.7135    0.1154   -0.4991 H   0  0  0  0  0  0  0  0  0  0  0  0
   -4.0013   -1.6358   -1.8941 H   0  0  0  0  0  0  0  0  0  0  0  0
   -5.6827   -2.9251    3.2746 H   0  0  0  0  0  0  0  0  0  0  0  0
   -6.8421   -3.3830    5.1328 H   0  0  0  0  0  0  0  0  0  0  0  0
   -9.5923   -4.6473    3.3174 H   0  0  0  0  0  0  0  0  0  0  0  0
   -9.6448   -4.6449    0.8448 H   0  0  0  0  0  0  0  0  0  0  0  0
   -4.3032   -4.2484    2.7150 H   0  0  0  0  0  0  0  0  0  0  0  0
   -2.7151   -3.9067    2.3138 H   0  0  0  0  0  0  0  0  0  0  0  0
    0.6613   -2.5622   -0.8948 H   0  0  0  0  0  0  0  0  0  0  0  0
  1  2  1  0  0  0  0
  1 24  1  0  0  0  0
  1 25  1  0  0  0  0
  1 26  1  0  0  0  0
  2  3  1  0  0  0  0
  2 23  2  0  0  0  0
  3  4  2  0  0  0  0
  3 27  1  0  0  0  0
  4  5  1  0  0  0  0
  4 28  1  0  0  0  0
  5  6  2  0  0  0  0
  5 29  1  0  0  0  0
  6  7  1  0  0  0  0
  6 23  1  0  0  0  0
  7  8  2  0  0  0  0
  7  9  1  0  0  0  0
  9 10  1  0  0  0  0
  9 21  2  0  0  0  0
 10 11  2  0  0  0  0
 10 30  1  0  0  0  0
 11 12  1  0  0  0  0
 12 13  1  0  0  0  0
 12 21  1  0  0  0  0
 13 14  1  0  0  0  0
 13 19  2  0  0  0  0
 14 15  2  0  0  0  0
 14 31  1  0  0  0  0
 15 16  1  0  0  0  0
 15 17  1  0  0  0  0
 16 32  1  0  0  0  0
 17 18  2  0  0  0  0
 17 33  1  0  0  0  0
 18 19  1  0  0  0  0
 18 34  1  0  0  0  0
 19 20  1  0  0  0  0
 21 22  1  0  0  0  0
 22 35  1  0  0  0  0
 22 36  1  0  0  0  0
 23 37  1  0  0  0  0
M  END
$$$$
