CHEMBL3895520
 OpenBabel04072215373D

 53 57  0  0  0  0  0  0  0  0999 V2000
   -5.3428   -5.0820    5.0543 C   0  0  0  0  0  0  0  0  0  0  0  0
   -4.4609   -4.7501    3.8857 C   0  0  0  0  0  0  0  0  0  0  0  0
   -3.1305   -5.1871    3.8898 C   0  0  0  0  0  0  0  0  0  0  0  0
   -2.2940   -4.8699    2.8241 C   0  0  0  0  0  0  0  0  0  0  0  0
   -2.7744   -4.1002    1.7557 C   0  0  0  0  0  0  0  0  0  0  0  0
   -4.1058   -3.6424    1.7124 C   0  0  0  0  0  0  0  0  0  0  0  0
   -4.6511   -2.8386    0.6446 N   0  0  0  0  0  0  0  0  0  0  0  0
   -3.9286   -2.3011   -0.4115 C   0  0  0  0  0  0  0  0  0  0  0  0
   -2.7159   -2.4730   -0.5449 O   0  0  0  0  0  0  0  0  0  0  0  0
   -4.5961   -1.4041   -1.4517 C   0  0  0  0  0  0  0  0  0  0  0  0
   -3.6622   -0.6969   -2.2348 C   0  0  0  0  0  0  0  0  0  0  0  0
   -4.0638    0.1806   -3.2237 C   0  0  0  0  0  0  0  0  0  0  0  0
   -5.4217    0.3458   -3.4801 C   0  0  0  0  0  0  0  0  0  0  0  0
   -6.4387   -0.3778   -2.8068 C   0  0  0  0  0  0  0  0  0  0  0  0
   -7.7956   -0.2009   -3.2254 N   0  0  0  0  0  0  0  0  0  0  0  0
   -8.9050   -0.9348   -2.6031 C   0  0  0  0  0  0  0  0  0  0  0  0
  -10.3426   -0.6716   -3.1682 C   0  0  0  0  0  0  0  0  0  0  0  0
  -10.4870   -0.2071   -4.6008 C   0  0  0  0  0  0  0  0  0  0  0  0
   -9.3309    0.2403   -5.2293 C   0  0  0  0  0  0  0  0  0  0  0  0
   -9.4586    0.7557   -6.5169 C   0  0  0  0  0  0  0  0  0  0  0  0
  -10.6242    0.9786   -7.1487 N   0  0  0  0  0  0  0  0  0  0  0  0
  -11.7429    0.5885   -6.5447 C   0  0  0  0  0  0  0  0  0  0  0  0
  -12.9278    0.8769   -7.2118 C   0  0  0  0  0  0  0  0  0  0  0  0
  -14.1545    0.3956   -6.7675 C   0  0  0  0  0  0  0  0  0  0  0  0
  -14.1961   -0.3834   -5.6268 C   0  0  0  0  0  0  0  0  0  0  0  0
  -13.0139   -0.5989   -4.8791 C   0  0  0  0  0  0  0  0  0  0  0  0
  -11.7543   -0.0947   -5.2990 C   0  0  0  0  0  0  0  0  0  0  0  0
   -7.9610    0.2630   -4.6180 C   0  0  0  0  0  0  0  0  0  0  0  0
   -5.9886   -1.2294   -1.7452 C   0  0  0  0  0  0  0  0  0  0  0  0
   -4.9301   -3.9842    2.7960 C   0  0  0  0  0  0  0  0  0  0  0  0
   -4.8276   -5.7189    5.7807 H   0  0  0  0  0  0  0  0  0  0  0  0
   -6.2322   -5.6233    4.7184 H   0  0  0  0  0  0  0  0  0  0  0  0
   -5.6448   -4.1671    5.5753 H   0  0  0  0  0  0  0  0  0  0  0  0
   -2.7472   -5.7837    4.7144 H   0  0  0  0  0  0  0  0  0  0  0  0
   -1.2621   -5.2090    2.8255 H   0  0  0  0  0  0  0  0  0  0  0  0
   -2.0687   -3.8941    0.9606 H   0  0  0  0  0  0  0  0  0  0  0  0
   -5.6261   -2.5922    0.7335 H   0  0  0  0  0  0  0  0  0  0  0  0
   -2.5895   -0.8190   -2.0765 H   0  0  0  0  0  0  0  0  0  0  0  0
   -3.3240    0.7324   -3.7976 H   0  0  0  0  0  0  0  0  0  0  0  0
   -5.6514    1.0743   -4.2523 H   0  0  0  0  0  0  0  0  0  0  0  0
   -8.9331   -0.6702   -1.5365 H   0  0  0  0  0  0  0  0  0  0  0  0
   -8.7040   -2.0095   -2.6597 H   0  0  0  0  0  0  0  0  0  0  0  0
  -10.9142   -1.5983   -3.0345 H   0  0  0  0  0  0  0  0  0  0  0  0
  -10.8241    0.0870   -2.5363 H   0  0  0  0  0  0  0  0  0  0  0  0
   -8.5828    1.0401   -7.0967 H   0  0  0  0  0  0  0  0  0  0  0  0
  -12.8867    1.4815   -8.1187 H   0  0  0  0  0  0  0  0  0  0  0  0
  -15.0574    0.6162   -7.3357 H   0  0  0  0  0  0  0  0  0  0  0  0
  -15.1397   -0.8235   -5.3167 H   0  0  0  0  0  0  0  0  0  0  0  0
  -13.0969   -1.2103   -3.9843 H   0  0  0  0  0  0  0  0  0  0  0  0
   -7.3115   -0.3210   -5.2833 H   0  0  0  0  0  0  0  0  0  0  0  0
   -7.6623    1.3193   -4.6543 H   0  0  0  0  0  0  0  0  0  0  0  0
   -6.7140   -1.7876   -1.1636 H   0  0  0  0  0  0  0  0  0  0  0  0
   -5.9701   -3.6487    2.8163 H   0  0  0  0  0  0  0  0  0  0  0  0
  1  2  1  0  0  0  0
  1 31  1  0  0  0  0
  1 32  1  0  0  0  0
  1 33  1  0  0  0  0
  2  3  1  0  0  0  0
  2 30  2  0  0  0  0
  3  4  2  0  0  0  0
  3 34  1  0  0  0  0
  4  5  1  0  0  0  0
  4 35  1  0  0  0  0
  5  6  2  0  0  0  0
  5 36  1  0  0  0  0
  6  7  1  0  0  0  0
  6 30  1  0  0  0  0
  7  8  1  0  0  0  0
  7 37  1  0  0  0  0
  8  9  2  0  0  0  0
  8 10  1  0  0  0  0
 10 11  1  0  0  0  0
 10 29  2  0  0  0  0
 11 12  2  0  0  0  0
 11 38  1  0  0  0  0
 12 13  1  0  0  0  0
 12 39  1  0  0  0  0
 13 14  2  0  0  0  0
 13 40  1  0  0  0  0
 14 15  1  0  0  0  0
 14 29  1  0  0  0  0
 15 16  1  0  0  0  0
 15 28  1  0  0  0  0
 16 17  1  0  0  0  0
 16 41  1  0  0  0  0
 16 42  1  0  0  0  0
 17 18  1  0  0  0  0
 17 43  1  0  0  0  0
 17 44  1  0  0  0  0
 18 19  1  0  0  0  0
 18 27  2  0  0  0  0
 19 20  2  0  0  0  0
 19 28  1  0  0  0  0
 20 21  1  0  0  0  0
 20 45  1  0  0  0  0
 21 22  2  0  0  0  0
 22 23  1  0  0  0  0
 22 27  1  0  0  0  0
 23 24  2  0  0  0  0
 23 46  1  0  0  0  0
 24 25  1  0  0  0  0
 24 47  1  0  0  0  0
 25 26  2  0  0  0  0
 25 48  1  0  0  0  0
 26 27  1  0  0  0  0
 26 49  1  0  0  0  0
 28 50  1  0  0  0  0
 28 51  1  0  0  0  0
 29 52  1  0  0  0  0
 30 53  1  0  0  0  0
M  END
$$$$
