CHEMBL271386
 OpenBabel04072215363D

 45 48  0  0  0  0  0  0  0  0999 V2000
    3.4528    2.9513   -1.8738 N   0  0  0  0  0  0  0  0  0  0  0  0
    3.1408    1.6496   -1.7123 C   0  0  0  0  0  0  0  0  0  0  0  0
    3.8719    0.6827   -2.2704 N   0  0  0  0  0  0  0  0  0  0  0  0
    3.3050   -0.5025   -1.8654 O   0  0  0  0  0  0  0  0  0  0  0  0
    2.2262   -0.2480   -1.0844 C   0  0  0  0  0  0  0  0  0  0  0  0
    1.4346   -1.2352   -0.5031 C   0  0  0  0  0  0  0  0  0  0  0  0
    0.3641   -0.7956    0.2623 C   0  0  0  0  0  0  0  0  0  0  0  0
    0.1093    0.5699    0.3972 C   0  0  0  0  0  0  0  0  0  0  0  0
    0.9157    1.5811   -0.2047 C   0  0  0  0  0  0  0  0  0  0  0  0
    0.5615    3.0132   -0.0362 C   0  0  0  0  0  0  0  0  0  0  0  0
   -0.0372    3.4609    1.1484 C   0  0  0  0  0  0  0  0  0  0  0  0
   -0.4502    4.7874    1.3132 C   0  0  0  0  0  0  0  0  0  0  0  0
   -0.2269    5.7388    0.3201 C   0  0  0  0  0  0  0  0  0  0  0  0
   -0.6356    7.0887    0.4269 N   0  0  0  0  0  0  0  0  0  0  0  0
   -1.3032    7.6425    1.4959 C   0  0  0  0  0  0  0  0  0  0  0  0
   -1.5366    7.0700    2.5610 O   0  0  0  0  0  0  0  0  0  0  0  0
   -1.7457    8.9321    1.2371 N   0  0  0  0  0  0  0  0  0  0  0  0
   -2.4837    9.6099    2.2429 C   0  0  0  0  0  0  0  0  0  0  0  0
   -2.0386    9.6498    3.5709 C   0  0  0  0  0  0  0  0  0  0  0  0
   -2.8237   10.2378    4.5743 C   0  0  0  0  0  0  0  0  0  0  0  0
   -2.3378   10.2928    6.0034 C   0  0  0  0  0  0  0  0  0  0  0  0
   -1.1042    9.7468    6.1887 F   0  0  0  0  0  0  0  0  0  0  0  0
   -2.2469   11.5733    6.4606 F   0  0  0  0  0  0  0  0  0  0  0  0
   -3.1691    9.6477    6.8670 F   0  0  0  0  0  0  0  0  0  0  0  0
   -4.0745   10.7753    4.2264 C   0  0  0  0  0  0  0  0  0  0  0  0
   -4.5137   10.7522    2.8991 C   0  0  0  0  0  0  0  0  0  0  0  0
   -3.7067   10.1912    1.9146 C   0  0  0  0  0  0  0  0  0  0  0  0
   -4.1485   10.1430    0.6486 F   0  0  0  0  0  0  0  0  0  0  0  0
    0.3996    5.3266   -0.8501 C   0  0  0  0  0  0  0  0  0  0  0  0
    0.7310    3.9740   -1.0436 C   0  0  0  0  0  0  0  0  0  0  0  0
    2.0361    1.1254   -0.9608 C   0  0  0  0  0  0  0  0  0  0  0  0
    4.3248    3.1528   -2.3522 H   0  0  0  0  0  0  0  0  0  0  0  0
    3.2394    3.6152   -1.1373 H   0  0  0  0  0  0  0  0  0  0  0  0
    1.6464   -2.2881   -0.6460 H   0  0  0  0  0  0  0  0  0  0  0  0
   -0.2891   -1.5180    0.7476 H   0  0  0  0  0  0  0  0  0  0  0  0
   -0.7671    0.8500    0.9821 H   0  0  0  0  0  0  0  0  0  0  0  0
   -0.2291    2.7805    1.9769 H   0  0  0  0  0  0  0  0  0  0  0  0
   -0.9547    5.0217    2.2429 H   0  0  0  0  0  0  0  0  0  0  0  0
   -0.3715    7.7124   -0.3210 H   0  0  0  0  0  0  0  0  0  0  0  0
   -2.0846    9.0729    0.2942 H   0  0  0  0  0  0  0  0  0  0  0  0
   -1.0803    9.2010    3.8335 H   0  0  0  0  0  0  0  0  0  0  0  0
   -4.7116   11.2119    4.9946 H   0  0  0  0  0  0  0  0  0  0  0  0
   -5.4878   11.1508    2.6319 H   0  0  0  0  0  0  0  0  0  0  0  0
    0.6128    6.0292   -1.6538 H   0  0  0  0  0  0  0  0  0  0  0  0
    1.1132    3.6850   -2.0202 H   0  0  0  0  0  0  0  0  0  0  0  0
  1  2  1  0  0  0  0
  1 32  1  0  0  0  0
  1 33  1  0  0  0  0
  2  3  2  0  0  0  0
  2 31  1  0  0  0  0
  3  4  1  0  0  0  0
  4  5  1  0  0  0  0
  5  6  1  0  0  0  0
  5 31  2  0  0  0  0
  6  7  2  0  0  0  0
  6 34  1  0  0  0  0
  7  8  1  0  0  0  0
  7 35  1  0  0  0  0
  8  9  2  0  0  0  0
  8 36  1  0  0  0  0
  9 10  1  0  0  0  0
  9 31  1  0  0  0  0
 10 11  1  0  0  0  0
 10 30  2  0  0  0  0
 11 12  2  0  0  0  0
 11 37  1  0  0  0  0
 12 13  1  0  0  0  0
 12 38  1  0  0  0  0
 13 14  1  0  0  0  0
 13 29  2  0  0  0  0
 14 15  1  0  0  0  0
 14 39  1  0  0  0  0
 15 16  2  0  0  0  0
 15 17  1  0  0  0  0
 17 18  1  0  0  0  0
 17 40  1  0  0  0  0
 18 19  1  0  0  0  0
 18 27  2  0  0  0  0
 19 20  2  0  0  0  0
 19 41  1  0  0  0  0
 20 21  1  0  0  0  0
 20 25  1  0  0  0  0
 21 22  1  0  0  0  0
 21 23  1  0  0  0  0
 21 24  1  0  0  0  0
 25 26  2  0  0  0  0
 25 42  1  0  0  0  0
 26 27  1  0  0  0  0
 26 43  1  0  0  0  0
 27 28  1  0  0  0  0
 29 30  1  0  0  0  0
 29 44  1  0  0  0  0
 30 45  1  0  0  0  0
M  END
$$$$
