CHEMBL3975714
 OpenBabel04072215373D

 50 53  0  0  0  0  0  0  0  0999 V2000
    1.8957   -1.2643   -0.8397 C   0  0  0  0  0  0  0  0  0  0  0  0
    3.2365   -1.0267   -0.4180 O   0  0  0  0  0  0  0  0  0  0  0  0
    3.3996   -0.7391    0.9125 C   0  0  0  0  0  0  0  0  0  0  0  0
    2.5712   -1.1961    1.9270 C   0  0  0  0  0  0  0  0  0  0  0  0
    2.8543   -0.8364    3.2380 C   0  0  0  0  0  0  0  0  0  0  0  0
    2.0519   -1.2733    4.2186 F   0  0  0  0  0  0  0  0  0  0  0  0
    3.9419   -0.0234    3.5583 C   0  0  0  0  0  0  0  0  0  0  0  0
    4.8066    0.4440    2.5606 C   0  0  0  0  0  0  0  0  0  0  0  0
    5.9006    1.3058    2.8411 N   0  0  0  0  0  0  0  0  0  0  0  0
    6.6581    1.0702    4.1031 C   0  0  0  0  0  0  0  0  0  0  0  0
    6.8488    2.3448    4.9697 C   0  0  0  0  0  0  0  0  0  0  0  0
    5.5988    2.9369    5.4562 N   0  0  0  0  0  0  0  0  0  0  0  0
    6.3992    2.3116    1.9758 C   0  0  0  0  0  0  0  0  0  0  0  0
    5.5106    3.0934    1.2274 C   0  0  0  0  0  0  0  0  0  0  0  0
    5.9668    4.1649    0.4583 C   0  0  0  0  0  0  0  0  0  0  0  0
    7.3091    4.5008    0.4266 C   0  0  0  0  0  0  0  0  0  0  0  0
    7.7019    5.5798   -0.2712 N   0  0  0  0  0  0  0  0  0  0  0  0
    9.0213    5.8795   -0.2136 C   0  0  0  0  0  0  0  0  0  0  0  0
    9.9387    5.1288    0.5064 C   0  0  0  0  0  0  0  0  0  0  0  0
   11.3360    5.5118    0.5914 C   0  0  0  0  0  0  0  0  0  0  0  0
   12.0286    6.6210    0.0500 C   0  0  0  0  0  0  0  0  0  0  0  0
   13.3231    6.6344    0.3754 N   0  0  0  0  0  0  0  0  0  0  0  0
   13.4692    5.5327    1.1307 N   0  0  0  0  0  0  0  0  0  0  0  0
   14.7587    5.2104    1.6922 C   0  0  0  0  0  0  0  0  0  0  0  0
   12.3112    4.8275    1.2906 C   0  0  0  0  0  0  0  0  0  0  0  0
    9.5485    4.0231    1.1874 N   0  0  0  0  0  0  0  0  0  0  0  0
    8.2339    3.7149    1.1517 C   0  0  0  0  0  0  0  0  0  0  0  0
    7.7653    2.6247    1.8768 C   0  0  0  0  0  0  0  0  0  0  0  0
    4.5165    0.0481    1.2352 C   0  0  0  0  0  0  0  0  0  0  0  0
    1.9000   -1.3729   -1.9284 H   0  0  0  0  0  0  0  0  0  0  0  0
    1.2492   -0.4159   -0.5899 H   0  0  0  0  0  0  0  0  0  0  0  0
    1.5000   -2.1963   -0.4212 H   0  0  0  0  0  0  0  0  0  0  0  0
    1.7170   -1.8359    1.7434 H   0  0  0  0  0  0  0  0  0  0  0  0
    4.0661    0.2582    4.5988 H   0  0  0  0  0  0  0  0  0  0  0  0
    7.6417    0.6494    3.8602 H   0  0  0  0  0  0  0  0  0  0  0  0
    6.1909    0.3064    4.7345 H   0  0  0  0  0  0  0  0  0  0  0  0
    7.4021    3.1182    4.4282 H   0  0  0  0  0  0  0  0  0  0  0  0
    7.4655    2.0835    5.8364 H   0  0  0  0  0  0  0  0  0  0  0  0
    5.0561    3.2407    4.6447 H   0  0  0  0  0  0  0  0  0  0  0  0
    5.8182    3.7863    5.9776 H   0  0  0  0  0  0  0  0  0  0  0  0
    4.4398    2.9040    1.2707 H   0  0  0  0  0  0  0  0  0  0  0  0
    5.2536    4.7693   -0.0959 H   0  0  0  0  0  0  0  0  0  0  0  0
    9.3049    6.7647   -0.7701 H   0  0  0  0  0  0  0  0  0  0  0  0
   11.6486    7.4266   -0.5637 H   0  0  0  0  0  0  0  0  0  0  0  0
   15.5045    5.9199    1.3234 H   0  0  0  0  0  0  0  0  0  0  0  0
   15.0263    4.1972    1.3842 H   0  0  0  0  0  0  0  0  0  0  0  0
   14.6859    5.2777    2.7803 H   0  0  0  0  0  0  0  0  0  0  0  0
   12.2716    3.9210    1.8787 H   0  0  0  0  0  0  0  0  0  0  0  0
    8.5081    2.0302    2.4009 H   0  0  0  0  0  0  0  0  0  0  0  0
    5.1720    0.3563    0.4226 H   0  0  0  0  0  0  0  0  0  0  0  0
  1  2  1  0  0  0  0
  1 30  1  0  0  0  0
  1 31  1  0  0  0  0
  1 32  1  0  0  0  0
  2  3  1  0  0  0  0
  3  4  1  0  0  0  0
  3 29  2  0  0  0  0
  4  5  2  0  0  0  0
  4 33  1  0  0  0  0
  5  6  1  0  0  0  0
  5  7  1  0  0  0  0
  7  8  2  0  0  0  0
  7 34  1  0  0  0  0
  8  9  1  0  0  0  0
  8 29  1  0  0  0  0
  9 10  1  0  0  0  0
  9 13  1  0  0  0  0
 10 11  1  0  0  0  0
 10 35  1  0  0  0  0
 10 36  1  0  0  0  0
 11 12  1  0  0  0  0
 11 37  1  0  0  0  0
 11 38  1  0  0  0  0
 12 39  1  0  0  0  0
 12 40  1  0  0  0  0
 13 14  1  0  0  0  0
 13 28  2  0  0  0  0
 14 15  2  0  0  0  0
 14 41  1  0  0  0  0
 15 16  1  0  0  0  0
 15 42  1  0  0  0  0
 16 17  1  0  0  0  0
 16 27  2  0  0  0  0
 17 18  2  0  0  0  0
 18 19  1  0  0  0  0
 18 43  1  0  0  0  0
 19 20  1  0  0  0  0
 19 26  2  0  0  0  0
 20 21  1  0  0  0  0
 20 25  2  0  0  0  0
 21 22  2  0  0  0  0
 21 44  1  0  0  0  0
 22 23  1  0  0  0  0
 23 24  1  0  0  0  0
 23 25  1  0  0  0  0
 24 45  1  0  0  0  0
 24 46  1  0  0  0  0
 24 47  1  0  0  0  0
 25 48  1  0  0  0  0
 26 27  1  0  0  0  0
 27 28  1  0  0  0  0
 28 49  1  0  0  0  0
 29 50  1  0  0  0  0
M  END
$$$$
