CHEMBL397090
 OpenBabel04072215373D

 60 63  0  0  0  0  0  0  0  0999 V2000
   -0.4675    8.4630   -1.9788 C   0  0  0  0  0  0  0  0  0  0  0  0
    0.1901    9.7226   -1.7088 N   0  0  0  0  0  0  0  0  0  0  0  0
    1.3766    9.7026   -0.9892 C   0  0  0  0  0  0  0  0  0  0  0  0
    2.3560    8.7188   -1.1564 C   0  0  0  0  0  0  0  0  0  0  0  0
    3.5143    8.7287   -0.3756 C   0  0  0  0  0  0  0  0  0  0  0  0
    4.5344    7.6515   -0.4252 C   0  0  0  0  0  0  0  0  0  0  0  0
    5.8999    7.9815   -0.2762 C   0  0  0  0  0  0  0  0  0  0  0  0
    6.8888    7.0029   -0.2207 C   0  0  0  0  0  0  0  0  0  0  0  0
    6.4969    5.6858   -0.2775 C   0  0  0  0  0  0  0  0  0  0  0  0
    5.2154    5.3070   -0.4116 N   0  0  0  0  0  0  0  0  0  0  0  0
    4.2690    6.2769   -0.5664 C   0  0  0  0  0  0  0  0  0  0  0  0
    2.9911    5.8376   -0.9372 O   0  0  0  0  0  0  0  0  0  0  0  0
    2.9496    4.7042   -1.7444 C   0  0  0  0  0  0  0  0  0  0  0  0
    3.9055    4.5029   -2.7584 C   0  0  0  0  0  0  0  0  0  0  0  0
    4.0116    3.2885   -3.4330 C   0  0  0  0  0  0  0  0  0  0  0  0
    5.0360    3.0074   -4.3734 N   0  0  0  0  0  0  0  0  0  0  0  0
    6.0701    3.8573   -4.7315 C   0  0  0  0  0  0  0  0  0  0  0  0
    6.3051    4.9676   -4.2675 O   0  0  0  0  0  0  0  0  0  0  0  0
    6.9626    3.3930   -5.8267 C   0  0  0  0  0  0  0  0  0  0  0  0
    7.4658    4.3777   -6.6865 C   0  0  0  0  0  0  0  0  0  0  0  0
    8.2994    4.0292   -7.7419 C   0  0  0  0  0  0  0  0  0  0  0  0
    8.6642    2.6969   -7.9263 C   0  0  0  0  0  0  0  0  0  0  0  0
    8.2176    1.7092   -7.0437 C   0  0  0  0  0  0  0  0  0  0  0  0
    8.5489    0.3819   -7.1230 O   0  0  0  0  0  0  0  0  0  0  0  0
    9.8161    0.0652   -7.7224 C   0  0  0  0  0  0  0  0  0  0  0  0
    9.7986    0.4014   -9.0382 F   0  0  0  0  0  0  0  0  0  0  0  0
   10.7791    0.8094   -7.1142 F   0  0  0  0  0  0  0  0  0  0  0  0
   10.1401   -1.4201   -7.5672 C   0  0  0  0  0  0  0  0  0  0  0  0
    9.2244   -2.1917   -8.2155 F   0  0  0  0  0  0  0  0  0  0  0  0
   11.3464   -1.7184   -8.1214 F   0  0  0  0  0  0  0  0  0  0  0  0
    7.3428    2.0554   -6.0028 C   0  0  0  0  0  0  0  0  0  0  0  0
    3.0710    2.2968   -3.1584 C   0  0  0  0  0  0  0  0  0  0  0  0
    2.0311    2.5330   -2.2462 C   0  0  0  0  0  0  0  0  0  0  0  0
    1.9507    3.7451   -1.5371 C   0  0  0  0  0  0  0  0  0  0  0  0
    0.8028    3.9888   -0.6031 C   0  0  0  0  0  0  0  0  0  0  0  0
    3.6714    9.8188    0.4942 C   0  0  0  0  0  0  0  0  0  0  0  0
    2.6828   10.7852    0.5641 C   0  0  0  0  0  0  0  0  0  0  0  0
    1.5391   10.7338   -0.1420 N   0  0  0  0  0  0  0  0  0  0  0  0
   -1.4425    8.6555   -2.4355 H   0  0  0  0  0  0  0  0  0  0  0  0
   -0.6314    7.8826   -1.0634 H   0  0  0  0  0  0  0  0  0  0  0  0
    0.1054    7.8606   -2.6913 H   0  0  0  0  0  0  0  0  0  0  0  0
   -0.3942   10.4286   -1.2656 H   0  0  0  0  0  0  0  0  0  0  0  0
    2.2004    7.9451   -1.8970 H   0  0  0  0  0  0  0  0  0  0  0  0
    6.2144    9.0217   -0.2202 H   0  0  0  0  0  0  0  0  0  0  0  0
    7.9361    7.2655   -0.1290 H   0  0  0  0  0  0  0  0  0  0  0  0
    7.2175    4.8754   -0.2403 H   0  0  0  0  0  0  0  0  0  0  0  0
    4.6031    5.3069   -2.9561 H   0  0  0  0  0  0  0  0  0  0  0  0
    4.9718    2.1121   -4.8389 H   0  0  0  0  0  0  0  0  0  0  0  0
    7.2018    5.4234   -6.5360 H   0  0  0  0  0  0  0  0  0  0  0  0
    8.6687    4.7954   -8.4192 H   0  0  0  0  0  0  0  0  0  0  0  0
    9.3016    2.4724   -8.7759 H   0  0  0  0  0  0  0  0  0  0  0  0
   10.1589   -1.7214   -6.5169 H   0  0  0  0  0  0  0  0  0  0  0  0
    7.0084    1.2869   -5.3124 H   0  0  0  0  0  0  0  0  0  0  0  0
    3.1208    1.3248   -3.6451 H   0  0  0  0  0  0  0  0  0  0  0  0
    1.2950    1.7513   -2.0745 H   0  0  0  0  0  0  0  0  0  0  0  0
    0.1494    3.1104   -0.5346 H   0  0  0  0  0  0  0  0  0  0  0  0
    0.1916    4.8187   -0.9756 H   0  0  0  0  0  0  0  0  0  0  0  0
    1.1581    4.2186    0.4041 H   0  0  0  0  0  0  0  0  0  0  0  0
    4.5465    9.9263    1.1278 H   0  0  0  0  0  0  0  0  0  0  0  0
    2.7894   11.6468    1.2165 H   0  0  0  0  0  0  0  0  0  0  0  0
  1  2  1  0  0  0  0
  1 39  1  0  0  0  0
  1 40  1  0  0  0  0
  1 41  1  0  0  0  0
  2  3  1  0  0  0  0
  2 42  1  0  0  0  0
  3  4  1  0  0  0  0
  3 38  2  0  0  0  0
  4  5  2  0  0  0  0
  4 43  1  0  0  0  0
  5  6  1  0  0  0  0
  5 36  1  0  0  0  0
  6  7  1  0  0  0  0
  6 11  2  0  0  0  0
  7  8  2  0  0  0  0
  7 44  1  0  0  0  0
  8  9  1  0  0  0  0
  8 45  1  0  0  0  0
  9 10  2  0  0  0  0
  9 46  1  0  0  0  0
 10 11  1  0  0  0  0
 11 12  1  0  0  0  0
 12 13  1  0  0  0  0
 13 14  1  0  0  0  0
 13 34  2  0  0  0  0
 14 15  2  0  0  0  0
 14 47  1  0  0  0  0
 15 16  1  0  0  0  0
 15 32  1  0  0  0  0
 16 17  1  0  0  0  0
 16 48  1  0  0  0  0
 17 18  2  0  0  0  0
 17 19  1  0  0  0  0
 19 20  1  0  0  0  0
 19 31  2  0  0  0  0
 20 21  2  0  0  0  0
 20 49  1  0  0  0  0
 21 22  1  0  0  0  0
 21 50  1  0  0  0  0
 22 23  2  0  0  0  0
 22 51  1  0  0  0  0
 23 24  1  0  0  0  0
 23 31  1  0  0  0  0
 24 25  1  0  0  0  0
 25 26  1  0  0  0  0
 25 27  1  0  0  0  0
 25 28  1  0  0  0  0
 28 29  1  0  0  0  0
 28 30  1  0  0  0  0
 28 52  1  0  0  0  0
 31 53  1  0  0  0  0
 32 33  2  0  0  0  0
 32 54  1  0  0  0  0
 33 34  1  0  0  0  0
 33 55  1  0  0  0  0
 34 35  1  0  0  0  0
 35 56  1  0  0  0  0
 35 57  1  0  0  0  0
 35 58  1  0  0  0  0
 36 37  2  0  0  0  0
 36 59  1  0  0  0  0
 37 38  1  0  0  0  0
 37 60  1  0  0  0  0
M  END
$$$$
