CHEMBL3220326
 OpenBabel04072215363D

 78 80  0  0  0  0  0  0  0  0999 V2000
    2.5710    1.6568   -1.1318 C   0  0  0  0  0  0  0  0  0  0  0  0
    3.4578    0.8116   -0.4071 O   0  0  0  0  0  0  0  0  0  0  0  0
    3.5465   -0.4955   -0.8134 C   0  0  0  0  0  0  0  0  0  0  0  0
    3.2400   -0.9039   -2.1163 C   0  0  0  0  0  0  0  0  0  0  0  0
    3.5216   -2.1974   -2.6197 C   0  0  0  0  0  0  0  0  0  0  0  0
    3.2678   -2.5144   -4.0625 C   0  0  0  0  0  0  0  0  0  0  0  0
    3.3937   -1.4413   -4.9745 C   0  0  0  0  0  0  0  0  0  0  0  0
    3.1572   -1.5331   -6.3417 C   0  0  0  0  0  0  0  0  0  0  0  0
    3.2584   -0.4041   -7.1937 N   0  0  0  0  0  0  0  0  0  0  0  0
    3.9634    0.7491   -6.8770 C   0  0  0  0  0  0  0  0  0  0  0  0
    4.6247    0.9113   -5.8569 O   0  0  0  0  0  0  0  0  0  0  0  0
    3.8443    1.7302   -7.8488 N   0  0  0  0  0  0  0  0  0  0  0  0
    4.5566    2.9493   -7.6832 C   0  0  0  0  0  0  0  0  0  0  0  0
    5.9445    2.9001   -7.4471 C   0  0  0  0  0  0  0  0  0  0  0  0
    6.6716    4.0739   -7.2274 C   0  0  0  0  0  0  0  0  0  0  0  0
    8.0072    4.1225   -6.9261 O   0  0  0  0  0  0  0  0  0  0  0  0
    8.7886    3.0574   -7.4719 C   0  0  0  0  0  0  0  0  0  0  0  0
   10.2460    3.2620   -7.0727 C   0  0  0  0  0  0  0  0  0  0  0  0
   11.1534    2.1800   -7.6693 C   0  0  0  0  0  0  0  0  0  0  0  0
   11.1288    2.1211   -9.1421 N   0  0  0  0  0  0  0  0  0  0  0  0
   11.5947    3.3685   -9.7521 C   0  0  0  0  0  0  0  0  0  0  0  0
   11.9433    1.0012   -9.6176 C   0  0  0  0  0  0  0  0  0  0  0  0
    6.0081    5.2930   -7.2405 C   0  0  0  0  0  0  0  0  0  0  0  0
    4.6303    5.3524   -7.4763 C   0  0  0  0  0  0  0  0  0  0  0  0
    3.8926    4.1822   -7.6952 C   0  0  0  0  0  0  0  0  0  0  0  0
    2.3916    4.2702   -7.7693 C   0  0  0  0  0  0  0  0  0  0  0  0
    2.7823   -2.7655   -6.8570 C   0  0  0  0  0  0  0  0  0  0  0  0
    2.6845   -3.8846   -6.0045 C   0  0  0  0  0  0  0  0  0  0  0  0
    2.2319   -5.0778   -6.5129 O   0  0  0  0  0  0  0  0  0  0  0  0
    2.8807   -5.5174   -7.7027 C   0  0  0  0  0  0  0  0  0  0  0  0
    2.9174   -3.7742   -4.6067 C   0  0  0  0  0  0  0  0  0  0  0  0
    2.7673   -4.8109   -3.7156 O   0  0  0  0  0  0  0  0  0  0  0  0
    2.9888   -6.1323   -4.2010 C   0  0  0  0  0  0  0  0  0  0  0  0
    4.1285   -3.0904   -1.7268 C   0  0  0  0  0  0  0  0  0  0  0  0
    4.3798   -2.7211   -0.3955 C   0  0  0  0  0  0  0  0  0  0  0  0
    4.0615   -1.4368    0.0790 C   0  0  0  0  0  0  0  0  0  0  0  0
    4.2429   -1.1482    1.5378 C   0  0  0  0  0  0  0  0  0  0  0  0
    3.2885   -0.1840    2.2276 C   0  0  0  0  0  0  0  0  0  0  0  0
    5.1751   -1.7797    2.1970 N   0  0  0  0  0  0  0  0  0  0  0  0
    5.1689   -1.4222    3.5522 O   0  0  0  0  0  0  0  0  0  0  0  0
    2.4806    2.5982   -0.5821 H   0  0  0  0  0  0  0  0  0  0  0  0
    1.5735    1.2091   -1.1954 H   0  0  0  0  0  0  0  0  0  0  0  0
    2.9657    1.8925   -2.1253 H   0  0  0  0  0  0  0  0  0  0  0  0
    2.7980   -0.1735   -2.7853 H   0  0  0  0  0  0  0  0  0  0  0  0
    3.6809   -0.4781   -4.5711 H   0  0  0  0  0  0  0  0  0  0  0  0
    2.9863   -0.5181   -8.1591 H   0  0  0  0  0  0  0  0  0  0  0  0
    2.9246    1.7954   -8.2591 H   0  0  0  0  0  0  0  0  0  0  0  0
    6.4243    1.9329   -7.4017 H   0  0  0  0  0  0  0  0  0  0  0  0
    8.6805    3.0673   -8.5621 H   0  0  0  0  0  0  0  0  0  0  0  0
    8.4672    2.0883   -7.0736 H   0  0  0  0  0  0  0  0  0  0  0  0
   10.3241    3.2335   -5.9777 H   0  0  0  0  0  0  0  0  0  0  0  0
   10.5818    4.2673   -7.3518 H   0  0  0  0  0  0  0  0  0  0  0  0
   10.8140    1.2123   -7.2736 H   0  0  0  0  0  0  0  0  0  0  0  0
   12.1771    2.3266   -7.3038 H   0  0  0  0  0  0  0  0  0  0  0  0
   10.9144    4.1969   -9.5287 H   0  0  0  0  0  0  0  0  0  0  0  0
   11.6055    3.2826  -10.8439 H   0  0  0  0  0  0  0  0  0  0  0  0
   12.6004    3.6409   -9.4147 H   0  0  0  0  0  0  0  0  0  0  0  0
   11.5704    0.0523   -9.2168 H   0  0  0  0  0  0  0  0  0  0  0  0
   12.9966    1.1082   -9.3347 H   0  0  0  0  0  0  0  0  0  0  0  0
   11.8856    0.9219  -10.7092 H   0  0  0  0  0  0  0  0  0  0  0  0
    6.5647    6.2085   -7.0432 H   0  0  0  0  0  0  0  0  0  0  0  0
    4.1425    6.3213   -7.4512 H   0  0  0  0  0  0  0  0  0  0  0  0
    2.0504    5.3110   -7.7722 H   0  0  0  0  0  0  0  0  0  0  0  0
    1.9501    3.7830   -6.8951 H   0  0  0  0  0  0  0  0  0  0  0  0
    2.0171    3.7959   -8.6814 H   0  0  0  0  0  0  0  0  0  0  0  0
    2.5643   -2.8693   -7.9100 H   0  0  0  0  0  0  0  0  0  0  0  0
    2.8487   -6.6113   -7.7113 H   0  0  0  0  0  0  0  0  0  0  0  0
    3.9331   -5.2151   -7.7523 H   0  0  0  0  0  0  0  0  0  0  0  0
    2.3297   -5.1579   -8.5773 H   0  0  0  0  0  0  0  0  0  0  0  0
    3.1918   -6.7835   -3.3456 H   0  0  0  0  0  0  0  0  0  0  0  0
    3.8612   -6.1869   -4.8625 H   0  0  0  0  0  0  0  0  0  0  0  0
    2.0893   -6.5255   -4.6847 H   0  0  0  0  0  0  0  0  0  0  0  0
    4.4270   -4.0806   -2.0561 H   0  0  0  0  0  0  0  0  0  0  0  0
    4.8354   -3.4517    0.2702 H   0  0  0  0  0  0  0  0  0  0  0  0
    2.5049    0.2032    1.5766 H   0  0  0  0  0  0  0  0  0  0  0  0
    3.8560    0.6558    2.6390 H   0  0  0  0  0  0  0  0  0  0  0  0
    2.7754   -0.7072    3.0393 H   0  0  0  0  0  0  0  0  0  0  0  0
    5.9066   -1.9458    3.9094 H   0  0  0  0  0  0  0  0  0  0  0  0
  1  2  1  0  0  0  0
  1 41  1  0  0  0  0
  1 42  1  0  0  0  0
  1 43  1  0  0  0  0
  2  3  1  0  0  0  0
  3  4  1  0  0  0  0
  3 36  2  0  0  0  0
  4  5  2  0  0  0  0
  4 44  1  0  0  0  0
  5  6  1  0  0  0  0
  5 34  1  0  0  0  0
  6  7  1  0  0  0  0
  6 31  2  0  0  0  0
  7  8  2  0  0  0  0
  7 45  1  0  0  0  0
  8  9  1  0  0  0  0
  8 27  1  0  0  0  0
  9 10  1  0  0  0  0
  9 46  1  0  0  0  0
 10 11  2  0  0  0  0
 10 12  1  0  0  0  0
 12 13  1  0  0  0  0
 12 47  1  0  0  0  0
 13 14  1  0  0  0  0
 13 25  2  0  0  0  0
 14 15  2  0  0  0  0
 14 48  1  0  0  0  0
 15 16  1  0  0  0  0
 15 23  1  0  0  0  0
 16 17  1  0  0  0  0
 17 18  1  0  0  0  0
 17 49  1  0  0  0  0
 17 50  1  0  0  0  0
 18 19  1  0  0  0  0
 18 51  1  0  0  0  0
 18 52  1  0  0  0  0
 19 20  1  0  0  0  0
 19 53  1  0  0  0  0
 19 54  1  0  0  0  0
 20 21  1  0  0  0  0
 20 22  1  0  0  0  0
 21 55  1  0  0  0  0
 21 56  1  0  0  0  0
 21 57  1  0  0  0  0
 22 58  1  0  0  0  0
 22 59  1  0  0  0  0
 22 60  1  0  0  0  0
 23 24  2  0  0  0  0
 23 61  1  0  0  0  0
 24 25  1  0  0  0  0
 24 62  1  0  0  0  0
 25 26  1  0  0  0  0
 26 63  1  0  0  0  0
 26 64  1  0  0  0  0
 26 65  1  0  0  0  0
 27 28  2  0  0  0  0
 27 66  1  0  0  0  0
 28 29  1  0  0  0  0
 28 31  1  0  0  0  0
 29 30  1  0  0  0  0
 30 67  1  0  0  0  0
 30 68  1  0  0  0  0
 30 69  1  0  0  0  0
 31 32  1  0  0  0  0
 32 33  1  0  0  0  0
 33 70  1  0  0  0  0
 33 71  1  0  0  0  0
 33 72  1  0  0  0  0
 34 35  2  0  0  0  0
 34 73  1  0  0  0  0
 35 36  1  0  0  0  0
 35 74  1  0  0  0  0
 36 37  1  0  0  0  0
 37 38  1  0  0  0  0
 37 39  2  0  0  0  0
 38 75  1  0  0  0  0
 38 76  1  0  0  0  0
 38 77  1  0  0  0  0
 39 40  1  0  0  0  0
 40 78  1  0  0  0  0
M  END
$$$$
