CHEMBL2003524
 OpenBabel04072215363D

 35 37  0  0  0  0  0  0  0  0999 V2000
    1.0321    0.0057    0.0879 C   0  0  0  0  0  0  0  0  0  0  0  0
    2.5531    0.0369    0.1138 C   0  0  0  0  0  0  0  0  0  0  0  0
    3.0933   -0.0454    1.5250 C   0  0  0  0  0  0  0  0  0  0  0  0
    3.2835    1.1637    2.1293 N   0  0  0  0  0  0  0  0  0  0  0  0
    3.7394    1.1025    3.3880 C   0  0  0  0  0  0  0  0  0  0  0  0
    4.0296   -0.0418    4.0858 C   0  0  0  0  0  0  0  0  0  0  0  0
    3.8264   -1.2821    3.4997 C   0  0  0  0  0  0  0  0  0  0  0  0
    4.0713   -2.4872    4.1855 C   0  0  0  0  0  0  0  0  0  0  0  0
    3.7770   -3.7340    3.6247 C   0  0  0  0  0  0  0  0  0  0  0  0
    3.9477   -4.9051    4.3101 O   0  0  0  0  0  0  0  0  0  0  0  0
    4.4172   -4.8451    5.6529 C   0  0  0  0  0  0  0  0  0  0  0  0
    3.2740   -3.7764    2.3176 C   0  0  0  0  0  0  0  0  0  0  0  0
    2.9038   -4.8722    1.5811 O   0  0  0  0  0  0  0  0  0  0  0  0
    2.9901   -6.1573    2.1792 C   0  0  0  0  0  0  0  0  0  0  0  0
    3.0810   -2.5740    1.6087 C   0  0  0  0  0  0  0  0  0  0  0  0
    3.3295   -1.3027    2.1755 C   0  0  0  0  0  0  0  0  0  0  0  0
    4.4613    0.3635    5.4269 C   0  0  0  0  0  0  0  0  0  0  0  0
    4.7884   -0.3699    6.3339 O   0  0  0  0  0  0  0  0  0  0  0  0
    4.4059    1.7229    5.4574 N   0  0  0  0  0  0  0  0  0  0  0  0
    3.9606    2.2471    4.2841 C   0  0  0  0  0  0  0  0  0  0  0  0
    3.7702    3.4248    4.0479 O   0  0  0  0  0  0  0  0  0  0  0  0
    0.6712    0.0081   -0.9458 H   0  0  0  0  0  0  0  0  0  0  0  0
    0.6134    0.8828    0.5933 H   0  0  0  0  0  0  0  0  0  0  0  0
    0.6365   -0.8865    0.5837 H   0  0  0  0  0  0  0  0  0  0  0  0
    2.8966    0.9735   -0.3434 H   0  0  0  0  0  0  0  0  0  0  0  0
    2.9675   -0.7615   -0.5096 H   0  0  0  0  0  0  0  0  0  0  0  0
    4.4812   -2.4290    5.1891 H   0  0  0  0  0  0  0  0  0  0  0  0
    4.3455   -5.8506    6.0773 H   0  0  0  0  0  0  0  0  0  0  0  0
    3.8000   -4.1879    6.2750 H   0  0  0  0  0  0  0  0  0  0  0  0
    5.4689   -4.5421    5.6738 H   0  0  0  0  0  0  0  0  0  0  0  0
    2.5686   -6.8814    1.4752 H   0  0  0  0  0  0  0  0  0  0  0  0
    2.3897   -6.2208    3.0923 H   0  0  0  0  0  0  0  0  0  0  0  0
    4.0348   -6.4369    2.3501 H   0  0  0  0  0  0  0  0  0  0  0  0
    2.6955   -2.6560    0.5932 H   0  0  0  0  0  0  0  0  0  0  0  0
    4.6147    2.2763    6.2772 H   0  0  0  0  0  0  0  0  0  0  0  0
  1  2  1  0  0  0  0
  1 22  1  0  0  0  0
  1 23  1  0  0  0  0
  1 24  1  0  0  0  0
  2  3  1  0  0  0  0
  2 25  1  0  0  0  0
  2 26  1  0  0  0  0
  3  4  1  0  0  0  0
  3 16  2  0  0  0  0
  4  5  2  0  0  0  0
  5  6  1  0  0  0  0
  5 20  1  0  0  0  0
  6  7  2  0  0  0  0
  6 17  1  0  0  0  0
  7  8  1  0  0  0  0
  7 16  1  0  0  0  0
  8  9  2  0  0  0  0
  8 27  1  0  0  0  0
  9 10  1  0  0  0  0
  9 12  1  0  0  0  0
 10 11  1  0  0  0  0
 11 28  1  0  0  0  0
 11 29  1  0  0  0  0
 11 30  1  0  0  0  0
 12 13  1  0  0  0  0
 12 15  2  0  0  0  0
 13 14  1  0  0  0  0
 14 31  1  0  0  0  0
 14 32  1  0  0  0  0
 14 33  1  0  0  0  0
 15 16  1  0  0  0  0
 15 34  1  0  0  0  0
 17 18  2  0  0  0  0
 17 19  1  0  0  0  0
 19 20  1  0  0  0  0
 19 35  1  0  0  0  0
 20 21  2  0  0  0  0
M  END
$$$$
