CHEMBL4241633
 OpenBabel04072215383D

 30 32  0  0  1  0  0  0  0  0999 V2000
    1.1066   -0.2030    0.7695 O   0  0  0  0  0  0  0  0  0  0  0  0
    2.2827   -0.1343    0.4264 C   0  0  0  0  0  0  0  0  0  0  0  0
    3.0512   -1.3460    0.0892 C   0  0  0  0  0  0  0  0  0  0  0  0
    2.4917   -2.6151    0.2534 C   0  0  0  0  0  0  0  0  0  0  0  0
    3.2566   -3.7467   -0.0331 C   0  0  0  0  0  0  0  0  0  0  0  0
    4.5793   -3.6066   -0.4588 C   0  0  0  0  0  0  0  0  0  0  0  0
    5.1339   -2.3362   -0.6214 C   0  0  0  0  0  0  0  0  0  0  0  0
    4.3590   -1.2043   -0.3763 C   0  0  0  0  0  0  0  0  0  0  0  0
    4.9507    0.0087   -0.6216 O   0  0  0  0  0  0  0  0  0  0  0  0
    4.0099    1.0913   -0.8527 C   0  0  1  0  0  0  0  0  0  0  0  0
    3.3834    1.0103   -2.2491 C   0  0  0  0  0  0  0  0  0  0  0  0
    2.0901    1.4894   -2.5199 C   0  0  0  0  0  0  0  0  0  0  0  0
    1.5346    1.3817   -3.7998 C   0  0  0  0  0  0  0  0  0  0  0  0
    2.2705    0.8071   -4.8308 C   0  0  0  0  0  0  0  0  0  0  0  0
    1.5774    0.6571   -6.3975 Cl  0  0  0  0  0  0  0  0  0  0  0  0
    3.5644    0.3562   -4.5976 C   0  0  0  0  0  0  0  0  0  0  0  0
    4.1202    0.4672   -3.3192 C   0  0  0  0  0  0  0  0  0  0  0  0
    3.0520    1.1764    0.3504 C   0  0  2  0  0  0  0  0  0  0  0  0
    3.7706    1.4228    1.5623 O   0  0  0  0  0  0  0  0  0  0  0  0
    1.4664   -2.7263    0.6036 H   0  0  0  0  0  0  0  0  0  0  0  0
    2.8238   -4.7374    0.0806 H   0  0  0  0  0  0  0  0  0  0  0  0
    5.1765   -4.4905   -0.6724 H   0  0  0  0  0  0  0  0  0  0  0  0
    6.1611   -2.2321   -0.9614 H   0  0  0  0  0  0  0  0  0  0  0  0
    4.6258    2.0003   -0.8486 H   0  0  0  0  0  0  0  0  0  0  0  0
    1.4740    1.9483   -1.7492 H   0  0  0  0  0  0  0  0  0  0  0  0
    0.5263    1.7441   -3.9805 H   0  0  0  0  0  0  0  0  0  0  0  0
    4.1462   -0.0873   -5.4015 H   0  0  0  0  0  0  0  0  0  0  0  0
    5.1360    0.1068   -3.1624 H   0  0  0  0  0  0  0  0  0  0  0  0
    2.3405    1.9983    0.2327 H   0  0  0  0  0  0  0  0  0  0  0  0
    4.4782    0.7552    1.6308 H   0  0  0  0  0  0  0  0  0  0  0  0
  1  2  2  0  0  0  0
  2  3  1  0  0  0  0
  2 18  1  0  0  0  0
  3  4  1  0  0  0  0
  3  8  2  0  0  0  0
  4  5  2  0  0  0  0
  4 20  1  0  0  0  0
  5  6  1  0  0  0  0
  5 21  1  0  0  0  0
  6  7  2  0  0  0  0
  6 22  1  0  0  0  0
  7  8  1  0  0  0  0
  7 23  1  0  0  0  0
  8  9  1  0  0  0  0
  9 10  1  0  0  0  0
 10 18  1  0  0  0  0
 10 11  1  0  0  0  0
 10 24  1  1  0  0  0
 11 12  1  0  0  0  0
 11 17  2  0  0  0  0
 12 13  2  0  0  0  0
 12 25  1  0  0  0  0
 13 14  1  0  0  0  0
 13 26  1  0  0  0  0
 14 15  1  0  0  0  0
 14 16  2  0  0  0  0
 16 17  1  0  0  0  0
 16 27  1  0  0  0  0
 17 28  1  0  0  0  0
 18 19  1  0  0  0  0
 18 29  1  6  0  0  0
 19 30  1  0  0  0  0
M  END
$$$$
