CHEMBL3690538
 OpenBabel04072215373D

 50 53  0  0  0  0  0  0  0  0999 V2000
    2.7384    1.0324   -0.7644 O   0  0  0  0  0  0  0  0  0  0  0  0
    2.5825   -0.1650   -0.5569 C   0  0  0  0  0  0  0  0  0  0  0  0
    1.4786   -0.8338   -1.0416 N   0  0  0  0  0  0  0  0  0  0  0  0
    0.4115   -0.0571   -1.6823 C   0  0  0  0  0  0  0  0  0  0  0  0
   -0.6201    0.5390   -0.7145 C   0  0  0  0  0  0  0  0  0  0  0  0
   -0.3658    0.1907    0.5694 F   0  0  0  0  0  0  0  0  0  0  0  0
   -0.6750    1.8836   -0.7817 F   0  0  0  0  0  0  0  0  0  0  0  0
   -1.8574    0.0651   -1.0069 F   0  0  0  0  0  0  0  0  0  0  0  0
    3.4206   -1.0093    0.1334 N   0  0  0  0  0  0  0  0  0  0  0  0
    4.6422   -0.6741    0.7580 C   0  0  0  0  0  0  0  0  0  0  0  0
    5.1616    0.6195    0.7651 C   0  0  0  0  0  0  0  0  0  0  0  0
    6.4061    0.8788    1.3302 C   0  0  0  0  0  0  0  0  0  0  0  0
    7.1275   -0.1536    1.9193 C   0  0  0  0  0  0  0  0  0  0  0  0
    6.5859   -1.4373    2.0351 C   0  0  0  0  0  0  0  0  0  0  0  0
    7.2590   -2.4835    2.8214 C   0  0  0  0  0  0  0  0  0  0  0  0
    7.3003   -3.8559    2.6307 C   0  0  0  0  0  0  0  0  0  0  0  0
    7.9819   -4.5009    3.6272 N   0  0  0  0  0  0  0  0  0  0  0  0
    8.3646   -3.5507    4.4520 C   0  0  0  0  0  0  0  0  0  0  0  0
    9.0818   -3.6240    5.6836 C   0  0  0  0  0  0  0  0  0  0  0  0
    9.3570   -2.5097    6.4073 C   0  0  0  0  0  0  0  0  0  0  0  0
   10.0909   -2.6581    7.6579 C   0  0  0  0  0  0  0  0  0  0  0  0
    9.9919   -1.8252    8.7091 C   0  0  0  0  0  0  0  0  0  0  0  0
   10.7320   -2.0242    9.9625 C   0  0  0  0  0  0  0  0  0  0  0  0
   10.6002   -1.1181   11.0132 C   0  0  0  0  0  0  0  0  0  0  0  0
   11.3105   -1.3519   12.1895 C   0  0  0  0  0  0  0  0  0  0  0  0
   12.1249   -2.4711   12.2850 C   0  0  0  0  0  0  0  0  0  0  0  0
   12.1949   -3.3214   11.1932 C   0  0  0  0  0  0  0  0  0  0  0  0
   11.5244   -3.1177   10.0396 N   0  0  0  0  0  0  0  0  0  0  0  0
    8.9536   -1.2077    5.8713 C   0  0  0  0  0  0  0  0  0  0  0  0
    8.2470   -1.1342    4.7360 C   0  0  0  0  0  0  0  0  0  0  0  0
    7.9560   -2.2936    4.0151 N   0  0  0  0  0  0  0  0  0  0  0  0
    5.3523   -1.6969    1.4104 C   0  0  0  0  0  0  0  0  0  0  0  0
    1.1769   -1.6241   -0.4899 H   0  0  0  0  0  0  0  0  0  0  0  0
   -0.0871   -0.7376   -2.3793 H   0  0  0  0  0  0  0  0  0  0  0  0
    0.8578    0.7468   -2.2787 H   0  0  0  0  0  0  0  0  0  0  0  0
    3.1824   -1.9898    0.1135 H   0  0  0  0  0  0  0  0  0  0  0  0
    4.6368    1.4556    0.3146 H   0  0  0  0  0  0  0  0  0  0  0  0
    6.8114    1.8866    1.3102 H   0  0  0  0  0  0  0  0  0  0  0  0
    8.1204    0.0767    2.2950 H   0  0  0  0  0  0  0  0  0  0  0  0
    6.8619   -4.4184    1.8161 H   0  0  0  0  0  0  0  0  0  0  0  0
    9.3665   -4.6128    6.0281 H   0  0  0  0  0  0  0  0  0  0  0  0
   10.7468   -3.5259    7.7265 H   0  0  0  0  0  0  0  0  0  0  0  0
    9.3306   -0.9654    8.6816 H   0  0  0  0  0  0  0  0  0  0  0  0
    9.9594   -0.2474   10.9291 H   0  0  0  0  0  0  0  0  0  0  0  0
   11.2268   -0.6583   13.0243 H   0  0  0  0  0  0  0  0  0  0  0  0
   12.6854   -2.6848   13.1874 H   0  0  0  0  0  0  0  0  0  0  0  0
   12.8174   -4.2105   11.2109 H   0  0  0  0  0  0  0  0  0  0  0  0
    9.2245   -0.3034    6.4058 H   0  0  0  0  0  0  0  0  0  0  0  0
    7.9044   -0.1819    4.3649 H   0  0  0  0  0  0  0  0  0  0  0  0
    4.9319   -2.6975    1.4545 H   0  0  0  0  0  0  0  0  0  0  0  0
  1  2  2  0  0  0  0
  2  3  1  0  0  0  0
  2  9  1  0  0  0  0
  3  4  1  0  0  0  0
  3 33  1  0  0  0  0
  4  5  1  0  0  0  0
  4 34  1  0  0  0  0
  4 35  1  0  0  0  0
  5  6  1  0  0  0  0
  5  7  1  0  0  0  0
  5  8  1  0  0  0  0
  9 10  1  0  0  0  0
  9 36  1  0  0  0  0
 10 11  1  0  0  0  0
 10 32  2  0  0  0  0
 11 12  2  0  0  0  0
 11 37  1  0  0  0  0
 12 13  1  0  0  0  0
 12 38  1  0  0  0  0
 13 14  2  0  0  0  0
 13 39  1  0  0  0  0
 14 15  1  0  0  0  0
 14 32  1  0  0  0  0
 15 16  2  0  0  0  0
 15 31  1  0  0  0  0
 16 17  1  0  0  0  0
 16 40  1  0  0  0  0
 17 18  2  0  0  0  0
 18 19  1  0  0  0  0
 18 31  1  0  0  0  0
 19 20  2  0  0  0  0
 19 41  1  0  0  0  0
 20 21  1  0  0  0  0
 20 29  1  0  0  0  0
 21 22  2  0  0  0  0
 21 42  1  0  0  0  0
 22 23  1  0  0  0  0
 22 43  1  0  0  0  0
 23 24  1  0  0  0  0
 23 28  2  0  0  0  0
 24 25  2  0  0  0  0
 24 44  1  0  0  0  0
 25 26  1  0  0  0  0
 25 45  1  0  0  0  0
 26 27  2  0  0  0  0
 26 46  1  0  0  0  0
 27 28  1  0  0  0  0
 27 47  1  0  0  0  0
 29 30  2  0  0  0  0
 29 48  1  0  0  0  0
 30 31  1  0  0  0  0
 30 49  1  0  0  0  0
 32 50  1  0  0  0  0
M  END
$$$$
