CHEMBL1964399
 OpenBabel04072215363D

 58 60  0  0  1  0  0  0  0  0999 V2000
    3.9867    3.2079   -0.0028 C   0  0  0  0  0  0  0  0  0  0  0  0
    4.4242    1.8571    0.1031 O   0  0  0  0  0  0  0  0  0  0  0  0
    4.5758    1.1685   -1.0706 C   0  0  0  0  0  0  0  0  0  0  0  0
    4.8002    1.8106   -2.2890 C   0  0  0  0  0  0  0  0  0  0  0  0
    4.9965    1.0763   -3.4610 C   0  0  0  0  0  0  0  0  0  0  0  0
    4.9616   -0.3160   -3.4646 C   0  0  0  0  0  0  0  0  0  0  0  0
    5.1093   -1.0863   -4.6341 N   0  0  0  0  0  0  0  0  0  0  0  0
    4.8800   -0.7361   -5.9687 C   0  0  0  0  0  0  0  0  0  0  0  0
    4.5534   -1.7418   -6.7902 N   0  0  0  0  0  0  0  0  0  0  0  0
    4.2226   -1.4121   -8.0530 C   0  0  0  0  0  0  0  0  0  0  0  0
    4.2068   -0.1237   -8.5269 C   0  0  0  0  0  0  0  0  0  0  0  0
    4.5729    0.8435   -7.6240 C   0  0  0  0  0  0  0  0  0  0  0  0
    4.5964    2.2200   -7.9187 N   0  0  0  0  0  0  0  0  0  0  0  0
    3.7726    2.8298   -8.7372 C   0  0  0  0  0  0  0  0  0  0  0  0
    2.6006    3.5391   -8.6734 C   0  0  0  0  0  0  0  0  0  0  0  0
    1.7303    3.9201   -7.7491 N   0  0  0  0  0  0  0  0  0  0  0  0
    0.5214    3.1009   -7.4519 C   0  0  3  0  0  0  0  0  0  0  0  0
    0.6201    2.6655   -5.9835 C   0  0  0  0  0  0  0  0  0  0  0  0
   -0.8167    3.8677   -7.7958 C   0  0  0  0  0  0  0  0  0  0  0  0
   -0.8958    4.1637   -9.3081 C   0  0  0  0  0  0  0  0  0  0  0  0
   -2.0522    3.0032   -7.4501 C   0  0  0  0  0  0  0  0  0  0  0  0
   -0.9593    5.2022   -7.0346 C   0  0  0  0  0  0  0  0  0  0  0  0
    2.6925    3.9029  -10.1086 C   0  0  0  0  0  0  0  0  0  0  0  0
    2.0899    4.5550  -10.9288 O   0  0  0  0  0  0  0  0  0  0  0  0
    3.9089    3.0624  -10.1939 C   0  0  0  0  0  0  0  0  0  0  0  0
    4.6545    2.7889  -11.1029 O   0  0  0  0  0  0  0  0  0  0  0  0
    4.9203    0.5425   -6.3658 N   0  0  0  0  0  0  0  0  0  0  0  0
    4.8002   -0.9586   -2.2310 C   0  0  0  0  0  0  0  0  0  0  0  0
    4.5836   -0.2350   -1.0427 C   0  0  0  0  0  0  0  0  0  0  0  0
    4.4307   -1.0372    0.0612 O   0  0  0  0  0  0  0  0  0  0  0  0
    3.5628   -0.5518    1.0790 C   0  0  0  0  0  0  0  0  0  0  0  0
    3.8045    3.5813    1.0089 H   0  0  0  0  0  0  0  0  0  0  0  0
    3.0462    3.2737   -0.5613 H   0  0  0  0  0  0  0  0  0  0  0  0
    4.7569    3.8449   -0.4494 H   0  0  0  0  0  0  0  0  0  0  0  0
    4.8559    2.8903   -2.3723 H   0  0  0  0  0  0  0  0  0  0  0  0
    5.1912    1.6374   -4.3672 H   0  0  0  0  0  0  0  0  0  0  0  0
    4.9219   -2.0746   -4.5376 H   0  0  0  0  0  0  0  0  0  0  0  0
    3.9463   -2.2464   -8.6910 H   0  0  0  0  0  0  0  0  0  0  0  0
    3.9170    0.0978   -9.5428 H   0  0  0  0  0  0  0  0  0  0  0  0
    4.7386    2.6223   -6.9878 H   0  0  0  0  0  0  0  0  0  0  0  0
    1.4662    4.9068   -7.7606 H   0  0  0  0  0  0  0  0  0  0  0  0
    0.5474    2.1836   -8.0587 H   0  0  0  0  0  0  0  0  0  0  0  0
    0.6145    3.5238   -5.3043 H   0  0  0  0  0  0  0  0  0  0  0  0
    1.5544    2.1220   -5.8067 H   0  0  0  0  0  0  0  0  0  0  0  0
   -0.1975    1.9956   -5.7010 H   0  0  0  0  0  0  0  0  0  0  0  0
   -0.8131    3.2442   -9.8984 H   0  0  0  0  0  0  0  0  0  0  0  0
   -0.1087    4.8514   -9.6260 H   0  0  0  0  0  0  0  0  0  0  0  0
   -1.8509    4.6359   -9.5687 H   0  0  0  0  0  0  0  0  0  0  0  0
   -2.0275    2.0433   -7.9772 H   0  0  0  0  0  0  0  0  0  0  0  0
   -2.9803    3.5125   -7.7397 H   0  0  0  0  0  0  0  0  0  0  0  0
   -2.1289    2.8046   -6.3768 H   0  0  0  0  0  0  0  0  0  0  0  0
   -0.1749    5.9172   -7.2989 H   0  0  0  0  0  0  0  0  0  0  0  0
   -0.9350    5.0556   -5.9507 H   0  0  0  0  0  0  0  0  0  0  0  0
   -1.9135    5.6869   -7.2738 H   0  0  0  0  0  0  0  0  0  0  0  0
    4.8119   -2.0449   -2.1764 H   0  0  0  0  0  0  0  0  0  0  0  0
    3.2755   -1.4044    1.7026 H   0  0  0  0  0  0  0  0  0  0  0  0
    2.6440   -0.1233    0.6640 H   0  0  0  0  0  0  0  0  0  0  0  0
    4.0806    0.1574    1.7306 H   0  0  0  0  0  0  0  0  0  0  0  0
  1  2  1  0  0  0  0
  1 32  1  0  0  0  0
  1 33  1  0  0  0  0
  1 34  1  0  0  0  0
  2  3  1  0  0  0  0
  3  4  1  0  0  0  0
  3 29  2  0  0  0  0
  4  5  2  0  0  0  0
  4 35  1  0  0  0  0
  5  6  1  0  0  0  0
  5 36  1  0  0  0  0
  6  7  1  0  0  0  0
  6 28  2  0  0  0  0
  7  8  1  0  0  0  0
  7 37  1  0  0  0  0
  8  9  1  0  0  0  0
  8 27  2  0  0  0  0
  9 10  2  0  0  0  0
 10 11  1  0  0  0  0
 10 38  1  0  0  0  0
 11 12  2  0  0  0  0
 11 39  1  0  0  0  0
 12 13  1  0  0  0  0
 12 27  1  0  0  0  0
 13 14  1  0  0  0  0
 13 40  1  0  0  0  0
 14 15  2  0  0  0  0
 14 25  1  0  0  0  0
 15 16  1  0  0  0  0
 15 23  1  0  0  0  0
 16 17  1  0  0  0  0
 16 41  1  0  0  0  0
 17 18  1  0  0  0  0
 17 19  1  0  0  0  0
 17 42  1  0  0  0  0
 18 43  1  0  0  0  0
 18 44  1  0  0  0  0
 18 45  1  0  0  0  0
 19 20  1  0  0  0  0
 19 21  1  0  0  0  0
 19 22  1  0  0  0  0
 20 46  1  0  0  0  0
 20 47  1  0  0  0  0
 20 48  1  0  0  0  0
 21 49  1  0  0  0  0
 21 50  1  0  0  0  0
 21 51  1  0  0  0  0
 22 52  1  0  0  0  0
 22 53  1  0  0  0  0
 22 54  1  0  0  0  0
 23 24  2  0  0  0  0
 23 25  1  0  0  0  0
 25 26  2  0  0  0  0
 28 29  1  0  0  0  0
 28 55  1  0  0  0  0
 29 30  1  0  0  0  0
 30 31  1  0  0  0  0
 31 56  1  0  0  0  0
 31 57  1  0  0  0  0
 31 58  1  0  0  0  0
M  END
$$$$
