CHEMBL3900295
 OpenBabel04072215373D

 57 61  0  0  0  0  0  0  0  0999 V2000
    3.1687   -0.9739   -0.6996 C   0  0  0  0  0  0  0  0  0  0  0  0
    2.3471   -0.4614    0.3568 O   0  0  0  0  0  0  0  0  0  0  0  0
    3.0226    0.2190    1.3359 C   0  0  0  0  0  0  0  0  0  0  0  0
    4.1623    0.9833    1.0622 C   0  0  0  0  0  0  0  0  0  0  0  0
    4.9138    1.5782    2.1052 C   0  0  0  0  0  0  0  0  0  0  0  0
    6.0775    2.3354    1.9395 C   0  0  0  0  0  0  0  0  0  0  0  0
    6.5532    2.6195    0.6283 N   0  0  0  0  0  0  0  0  0  0  0  0
    7.8621    3.0778    0.3683 C   0  0  0  0  0  0  0  0  0  0  0  0
    8.9626    2.4202    0.9360 C   0  0  0  0  0  0  0  0  0  0  0  0
   10.2545    2.9148    0.7722 C   0  0  0  0  0  0  0  0  0  0  0  0
   10.4636    4.0732    0.0255 C   0  0  0  0  0  0  0  0  0  0  0  0
   12.0796    4.6698   -0.0899 Cl  0  0  0  0  0  0  0  0  0  0  0  0
    9.3774    4.7134   -0.5830 C   0  0  0  0  0  0  0  0  0  0  0  0
    9.5639    6.1487   -1.5283 Cl  0  0  0  0  0  0  0  0  0  0  0  0
    8.0815    4.2096   -0.4200 C   0  0  0  0  0  0  0  0  0  0  0  0
    6.7749    2.8139    2.9886 N   0  0  0  0  0  0  0  0  0  0  0  0
    6.3063    2.5467    4.2062 C   0  0  0  0  0  0  0  0  0  0  0  0
    5.2033    1.8547    4.4762 N   0  0  0  0  0  0  0  0  0  0  0  0
    4.5245    1.3826    3.4294 C   0  0  0  0  0  0  0  0  0  0  0  0
    3.3614    0.6846    3.6793 C   0  0  0  0  0  0  0  0  0  0  0  0
    2.5490    0.1631    2.6534 C   0  0  0  0  0  0  0  0  0  0  0  0
    1.2947   -0.3805    2.9013 O   0  0  0  0  0  0  0  0  0  0  0  0
    0.7766    0.0378    4.1778 C   0  0  0  0  0  0  0  0  0  0  0  0
   -0.6808   -0.1217    4.4437 C   0  0  0  0  0  0  0  0  0  0  0  0
   -1.6984   -0.6292    3.6661 C   0  0  0  0  0  0  0  0  0  0  0  0
   -3.2068   -0.4304    4.4769 S   0  0  0  0  0  0  0  0  0  0  0  0
   -2.4013    0.3285    5.7946 C   0  0  0  0  0  0  0  0  0  0  0  0
   -3.1546    0.8976    6.9763 C   0  0  0  0  0  0  0  0  0  0  0  0
   -2.9597    2.3356    7.2767 N   0  0  0  0  0  0  0  0  0  0  0  0
   -3.4020    3.2389    6.2131 C   0  0  0  0  0  0  0  0  0  0  0  0
   -2.1678    3.5606    5.3923 C   0  0  0  0  0  0  0  0  0  0  0  0
   -1.0257    3.4845    6.3896 C   0  0  0  0  0  0  0  0  0  0  0  0
   -1.5709    2.7039    7.5830 C   0  0  0  0  0  0  0  0  0  0  0  0
   -1.0929    0.3621    5.6796 N   0  0  0  0  0  0  0  0  0  0  0  0
    2.8194   -1.9789   -0.9545 H   0  0  0  0  0  0  0  0  0  0  0  0
    4.2303   -1.0691   -0.4372 H   0  0  0  0  0  0  0  0  0  0  0  0
    3.0638   -0.3345   -1.5819 H   0  0  0  0  0  0  0  0  0  0  0  0
    4.4898    1.1212    0.0347 H   0  0  0  0  0  0  0  0  0  0  0  0
    5.8395    3.1367    0.1247 H   0  0  0  0  0  0  0  0  0  0  0  0
    8.8078    1.5272    1.5394 H   0  0  0  0  0  0  0  0  0  0  0  0
   11.0840    2.4003    1.2500 H   0  0  0  0  0  0  0  0  0  0  0  0
    7.2435    4.7297   -0.8771 H   0  0  0  0  0  0  0  0  0  0  0  0
    6.8708    2.9299    5.0508 H   0  0  0  0  0  0  0  0  0  0  0  0
    3.1001    0.5724    4.7272 H   0  0  0  0  0  0  0  0  0  0  0  0
    0.9531    1.1173    4.3007 H   0  0  0  0  0  0  0  0  0  0  0  0
    1.2990   -0.5192    4.9654 H   0  0  0  0  0  0  0  0  0  0  0  0
   -1.6411   -1.0691    2.6808 H   0  0  0  0  0  0  0  0  0  0  0  0
   -2.8587    0.3250    7.8658 H   0  0  0  0  0  0  0  0  0  0  0  0
   -4.2309    0.7169    6.8657 H   0  0  0  0  0  0  0  0  0  0  0  0
   -3.7701    4.1610    6.6807 H   0  0  0  0  0  0  0  0  0  0  0  0
   -4.2233    2.8421    5.6077 H   0  0  0  0  0  0  0  0  0  0  0  0
   -2.2309    4.5452    4.9187 H   0  0  0  0  0  0  0  0  0  0  0  0
   -2.0248    2.8248    4.5944 H   0  0  0  0  0  0  0  0  0  0  0  0
   -0.7247    4.4917    6.6999 H   0  0  0  0  0  0  0  0  0  0  0  0
   -0.1499    2.9993    5.9464 H   0  0  0  0  0  0  0  0  0  0  0  0
   -1.5735    3.3618    8.4610 H   0  0  0  0  0  0  0  0  0  0  0  0
   -0.9312    1.8550    7.8492 H   0  0  0  0  0  0  0  0  0  0  0  0
  1  2  1  0  0  0  0
  1 35  1  0  0  0  0
  1 36  1  0  0  0  0
  1 37  1  0  0  0  0
  2  3  1  0  0  0  0
  3  4  1  0  0  0  0
  3 21  2  0  0  0  0
  4  5  2  0  0  0  0
  4 38  1  0  0  0  0
  5  6  1  0  0  0  0
  5 19  1  0  0  0  0
  6  7  1  0  0  0  0
  6 16  2  0  0  0  0
  7  8  1  0  0  0  0
  7 39  1  0  0  0  0
  8  9  1  0  0  0  0
  8 15  2  0  0  0  0
  9 10  2  0  0  0  0
  9 40  1  0  0  0  0
 10 11  1  0  0  0  0
 10 41  1  0  0  0  0
 11 12  1  0  0  0  0
 11 13  2  0  0  0  0
 13 14  1  0  0  0  0
 13 15  1  0  0  0  0
 15 42  1  0  0  0  0
 16 17  1  0  0  0  0
 17 18  2  0  0  0  0
 17 43  1  0  0  0  0
 18 19  1  0  0  0  0
 19 20  2  0  0  0  0
 20 21  1  0  0  0  0
 20 44  1  0  0  0  0
 21 22  1  0  0  0  0
 22 23  1  0  0  0  0
 23 24  1  0  0  0  0
 23 45  1  0  0  0  0
 23 46  1  0  0  0  0
 24 25  2  0  0  0  0
 24 34  1  0  0  0  0
 25 26  1  0  0  0  0
 25 47  1  0  0  0  0
 26 27  1  0  0  0  0
 27 28  1  0  0  0  0
 27 34  2  0  0  0  0
 28 29  1  0  0  0  0
 28 48  1  0  0  0  0
 28 49  1  0  0  0  0
 29 30  1  0  0  0  0
 29 33  1  0  0  0  0
 30 31  1  0  0  0  0
 30 50  1  0  0  0  0
 30 51  1  0  0  0  0
 31 32  1  0  0  0  0
 31 52  1  0  0  0  0
 31 53  1  0  0  0  0
 32 33  1  0  0  0  0
 32 54  1  0  0  0  0
 32 55  1  0  0  0  0
 33 56  1  0  0  0  0
 33 57  1  0  0  0  0
M  END
$$$$
