CHEMBL3288854
 OpenBabel04072215363D

 59 62  0  0  0  0  0  0  0  0999 V2000
    2.6439    0.4598    0.0522 C   0  0  0  0  0  0  0  0  0  0  0  0
    1.1805    0.2166    0.0638 C   0  0  0  0  0  0  0  0  0  0  0  0
    0.7195   -1.0730    0.0411 N   0  0  0  0  0  0  0  0  0  0  0  0
   -0.6470   -1.1136   -0.0072 C   0  0  0  0  0  0  0  0  0  0  0  0
   -1.3510   -2.3467    0.0028 C   0  0  0  0  0  0  0  0  0  0  0  0
   -0.8696   -3.5993    0.0265 C   0  0  0  0  0  0  0  0  0  0  0  0
    0.5420   -4.1453    0.0440 C   0  0  0  0  0  0  0  0  0  0  0  0
    1.5889   -3.5323    0.0484 O   0  0  0  0  0  0  0  0  0  0  0  0
    0.4090   -5.5212    0.0542 N   0  0  0  0  0  0  0  0  0  0  0  0
   -0.9302   -5.9006    0.0519 C   0  0  0  0  0  0  0  0  0  0  0  0
   -1.4271   -7.1888    0.0625 C   0  0  0  0  0  0  0  0  0  0  0  0
   -2.8165   -7.3378    0.0627 C   0  0  0  0  0  0  0  0  0  0  0  0
   -3.6462   -6.2095    0.0532 C   0  0  0  0  0  0  0  0  0  0  0  0
   -4.9735   -6.3902    0.0584 F   0  0  0  0  0  0  0  0  0  0  0  0
   -3.1367   -4.9171    0.0419 C   0  0  0  0  0  0  0  0  0  0  0  0
   -1.7558   -4.7738    0.0408 C   0  0  0  0  0  0  0  0  0  0  0  0
   -1.0904    0.2062   -0.0441 C   0  0  0  0  0  0  0  0  0  0  0  0
   -2.5084    0.6764   -0.0334 C   0  0  0  0  0  0  0  0  0  0  0  0
    0.0768    1.0383   -0.0136 C   0  0  0  0  0  0  0  0  0  0  0  0
    0.1371    2.4223   -0.0256 N   0  0  0  0  0  0  0  0  0  0  0  0
   -0.4952    3.1533   -1.0152 C   0  0  0  0  0  0  0  0  0  0  0  0
   -1.0996    2.6840   -1.9803 O   0  0  0  0  0  0  0  0  0  0  0  0
   -0.3582    4.6507   -0.8605 C   0  0  0  0  0  0  0  0  0  0  0  0
   -1.7659    5.2545   -0.8736 C   0  0  0  0  0  0  0  0  0  0  0  0
   -1.7990    6.7163   -0.7048 N   0  0  0  0  0  0  0  0  0  0  0  0
   -1.1393    7.4360   -1.8122 C   0  0  0  0  0  0  0  0  0  0  0  0
   -1.2233    8.9689   -1.6168 C   0  0  0  0  0  0  0  0  0  0  0  0
   -2.5914    9.5037   -1.4718 N   0  0  0  0  0  0  0  0  0  0  0  0
   -3.3018    9.5095   -2.7484 C   0  0  0  0  0  0  0  0  0  0  0  0
   -3.3106    8.7150   -0.4509 C   0  0  0  0  0  0  0  0  0  0  0  0
   -3.2040    7.1784   -0.6122 C   0  0  0  0  0  0  0  0  0  0  0  0
    3.1969   -0.4875    0.0212 H   0  0  0  0  0  0  0  0  0  0  0  0
    2.9604    1.0013    0.9465 H   0  0  0  0  0  0  0  0  0  0  0  0
    2.9313    1.0302   -0.8364 H   0  0  0  0  0  0  0  0  0  0  0  0
    1.3293   -1.8839    0.0507 H   0  0  0  0  0  0  0  0  0  0  0  0
   -2.4316   -2.2321   -0.0150 H   0  0  0  0  0  0  0  0  0  0  0  0
    1.1966   -6.1449    0.0576 H   0  0  0  0  0  0  0  0  0  0  0  0
   -0.7742   -8.0518    0.0708 H   0  0  0  0  0  0  0  0  0  0  0  0
   -3.2616   -8.3267    0.0746 H   0  0  0  0  0  0  0  0  0  0  0  0
   -3.8099   -4.0702    0.0356 H   0  0  0  0  0  0  0  0  0  0  0  0
   -3.2194   -0.1512    0.0352 H   0  0  0  0  0  0  0  0  0  0  0  0
   -2.7547    1.2317   -0.9406 H   0  0  0  0  0  0  0  0  0  0  0  0
   -2.6823    1.3261    0.8310 H   0  0  0  0  0  0  0  0  0  0  0  0
    0.9458    2.8392    0.4145 H   0  0  0  0  0  0  0  0  0  0  0  0
    0.2450    5.0032   -1.7048 H   0  0  0  0  0  0  0  0  0  0  0  0
    0.1711    4.9110    0.0623 H   0  0  0  0  0  0  0  0  0  0  0  0
   -2.3173    4.7997   -0.0386 H   0  0  0  0  0  0  0  0  0  0  0  0
   -2.2971    4.9627   -1.7890 H   0  0  0  0  0  0  0  0  0  0  0  0
   -1.5821    7.1564   -2.7770 H   0  0  0  0  0  0  0  0  0  0  0  0
   -0.0768    7.1749   -1.8562 H   0  0  0  0  0  0  0  0  0  0  0  0
   -0.7042    9.4747   -2.4401 H   0  0  0  0  0  0  0  0  0  0  0  0
   -0.6606    9.2323   -0.7108 H   0  0  0  0  0  0  0  0  0  0  0  0
   -2.7510   10.1015   -3.4882 H   0  0  0  0  0  0  0  0  0  0  0  0
   -4.2803    9.9887   -2.6347 H   0  0  0  0  0  0  0  0  0  0  0  0
   -3.4593    8.5094   -3.1642 H   0  0  0  0  0  0  0  0  0  0  0  0
   -4.3677    9.0076   -0.4217 H   0  0  0  0  0  0  0  0  0  0  0  0
   -2.9031    8.9860    0.5319 H   0  0  0  0  0  0  0  0  0  0  0  0
   -3.7729    6.8643   -1.4991 H   0  0  0  0  0  0  0  0  0  0  0  0
   -3.6850    6.7125    0.2566 H   0  0  0  0  0  0  0  0  0  0  0  0
  1  2  1  0  0  0  0
  1 32  1  0  0  0  0
  1 33  1  0  0  0  0
  1 34  1  0  0  0  0
  2  3  1  0  0  0  0
  2 19  2  0  0  0  0
  3  4  1  0  0  0  0
  3 35  1  0  0  0  0
  4  5  1  0  0  0  0
  4 17  2  0  0  0  0
  5  6  2  0  0  0  0
  5 36  1  0  0  0  0
  6  7  1  0  0  0  0
  6 16  1  0  0  0  0
  7  8  2  0  0  0  0
  7  9  1  0  0  0  0
  9 10  1  0  0  0  0
  9 37  1  0  0  0  0
 10 11  1  0  0  0  0
 10 16  2  0  0  0  0
 11 12  2  0  0  0  0
 11 38  1  0  0  0  0
 12 13  1  0  0  0  0
 12 39  1  0  0  0  0
 13 14  1  0  0  0  0
 13 15  2  0  0  0  0
 15 16  1  0  0  0  0
 15 40  1  0  0  0  0
 17 18  1  0  0  0  0
 17 19  1  0  0  0  0
 18 41  1  0  0  0  0
 18 42  1  0  0  0  0
 18 43  1  0  0  0  0
 19 20  1  0  0  0  0
 20 21  1  0  0  0  0
 20 44  1  0  0  0  0
 21 22  2  0  0  0  0
 21 23  1  0  0  0  0
 23 24  1  0  0  0  0
 23 45  1  0  0  0  0
 23 46  1  0  0  0  0
 24 25  1  0  0  0  0
 24 47  1  0  0  0  0
 24 48  1  0  0  0  0
 25 26  1  0  0  0  0
 25 31  1  0  0  0  0
 26 27  1  0  0  0  0
 26 49  1  0  0  0  0
 26 50  1  0  0  0  0
 27 28  1  0  0  0  0
 27 51  1  0  0  0  0
 27 52  1  0  0  0  0
 28 29  1  0  0  0  0
 28 30  1  0  0  0  0
 29 53  1  0  0  0  0
 29 54  1  0  0  0  0
 29 55  1  0  0  0  0
 30 31  1  0  0  0  0
 30 56  1  0  0  0  0
 30 57  1  0  0  0  0
 31 58  1  0  0  0  0
 31 59  1  0  0  0  0
M  END
$$$$
