CHEMBL429410
 OpenBabel04072215383D

 62 66  0  0  1  0  0  0  0  0999 V2000
    5.5682    4.0488   -1.2120 C   0  0  0  0  0  0  0  0  0  0  0  0
    6.2471    2.8257   -1.5395 N   0  0  0  0  0  0  0  0  0  0  0  0
    6.0448    1.6740   -0.8120 C   0  0  0  0  0  0  0  0  0  0  0  0
    5.2881    1.6011    0.1508 O   0  0  0  0  0  0  0  0  0  0  0  0
    6.8347    0.4882   -1.2714 C   0  0  0  0  0  0  0  0  0  0  0  0
    6.6482   -0.7291   -0.6345 C   0  0  0  0  0  0  0  0  0  0  0  0
    7.4584   -1.7911   -1.0182 C   0  0  0  0  0  0  0  0  0  0  0  0
    7.3952   -3.0468   -0.4605 O   0  0  0  0  0  0  0  0  0  0  0  0
    7.1274   -3.1865    0.8860 C   0  0  0  0  0  0  0  0  0  0  0  0
    7.5920   -2.2981    1.8719 C   0  0  0  0  0  0  0  0  0  0  0  0
    7.3077   -2.4950    3.2305 C   0  0  0  0  0  0  0  0  0  0  0  0
    6.5937   -3.6461    3.5319 C   0  0  0  0  0  0  0  0  0  0  0  0
    6.2276   -4.0984    4.7658 O   0  0  0  0  0  0  0  0  0  0  0  0
    5.5668   -5.2725    4.5074 C   0  0  0  0  0  0  0  0  0  0  0  0
    5.1470   -5.9424    5.5961 N   0  0  0  0  0  0  0  0  0  0  0  0
    4.4224   -7.1468    5.6008 C   0  0  0  0  0  0  0  0  0  0  0  0
    4.5827   -8.0396    6.6647 C   0  0  0  0  0  0  0  0  0  0  0  0
    3.9696   -9.2972    6.6385 C   0  0  0  0  0  0  0  0  0  0  0  0
    3.1711   -9.6849    5.5545 C   0  0  0  0  0  0  0  0  0  0  0  0
    2.5888  -11.3107    5.5809 Cl  0  0  0  0  0  0  0  0  0  0  0  0
    2.9549   -8.7900    4.5039 C   0  0  0  0  0  0  0  0  0  0  0  0
    2.2279   -8.9711    3.3600 O   0  0  0  0  0  0  0  0  0  0  0  0
    1.0206   -9.7273    3.4284 C   0  0  0  0  0  0  0  0  0  0  0  0
   -0.0432   -9.1952    2.4289 C   0  0  1  0  0  0  0  0  0  0  0  0
   -0.4656   -7.7594    2.7566 C   0  0  0  0  0  0  0  0  0  0  0  0
    0.2486   -6.8699    1.7457 C   0  0  0  0  0  0  0  0  0  0  0  0
    0.9952   -7.8175    0.8214 C   0  0  0  0  0  0  0  0  0  0  0  0
    0.3015   -9.0916    0.9989 N   0  0  0  0  0  0  0  0  0  0  0  0
    1.0510  -10.2133    0.4592 C   0  0  0  0  0  0  0  0  0  0  0  0
    3.6084   -7.5472    4.5326 C   0  0  0  0  0  0  0  0  0  0  0  0
    5.4887   -5.5784    3.2281 N   0  0  0  0  0  0  0  0  0  0  0  0
    6.1440   -4.5600    2.5944 C   0  0  0  0  0  0  0  0  0  0  0  0
    6.4119   -4.3414    1.2393 C   0  0  0  0  0  0  0  0  0  0  0  0
    8.3560   -1.6259   -2.0692 C   0  0  0  0  0  0  0  0  0  0  0  0
    8.4514   -0.3794   -2.6655 C   0  0  0  0  0  0  0  0  0  0  0  0
    7.7220    0.6927   -2.2858 N   0  0  0  0  0  0  0  0  0  0  0  0
    5.8692    4.8230   -1.9207 H   0  0  0  0  0  0  0  0  0  0  0  0
    5.8332    4.3469   -0.1940 H   0  0  0  0  0  0  0  0  0  0  0  0
    4.4881    3.8862   -1.2684 H   0  0  0  0  0  0  0  0  0  0  0  0
    6.9093    2.7767   -2.3094 H   0  0  0  0  0  0  0  0  0  0  0  0
    5.9035   -0.8262    0.1472 H   0  0  0  0  0  0  0  0  0  0  0  0
    8.1860   -1.4294    1.5955 H   0  0  0  0  0  0  0  0  0  0  0  0
    7.6362   -1.8052    3.9974 H   0  0  0  0  0  0  0  0  0  0  0  0
    5.4675   -5.6106    6.4936 H   0  0  0  0  0  0  0  0  0  0  0  0
    5.2236   -7.7880    7.5062 H   0  0  0  0  0  0  0  0  0  0  0  0
    4.1492   -9.9885    7.4590 H   0  0  0  0  0  0  0  0  0  0  0  0
    0.5804   -9.6815    4.4325 H   0  0  0  0  0  0  0  0  0  0  0  0
    1.2481  -10.7699    3.1830 H   0  0  0  0  0  0  0  0  0  0  0  0
   -0.9181   -9.8507    2.5264 H   0  0  0  0  0  0  0  0  0  0  0  0
   -0.2346   -7.4660    3.7859 H   0  0  0  0  0  0  0  0  0  0  0  0
   -1.5497   -7.6503    2.6242 H   0  0  0  0  0  0  0  0  0  0  0  0
    0.9345   -6.1737    2.2394 H   0  0  0  0  0  0  0  0  0  0  0  0
   -0.4861   -6.2771    1.1882 H   0  0  0  0  0  0  0  0  0  0  0  0
    2.0511   -7.8719    1.1102 H   0  0  0  0  0  0  0  0  0  0  0  0
    0.9504   -7.4735   -0.2170 H   0  0  0  0  0  0  0  0  0  0  0  0
    1.2016  -10.0832   -0.6186 H   0  0  0  0  0  0  0  0  0  0  0  0
    0.4892  -11.1446    0.5881 H   0  0  0  0  0  0  0  0  0  0  0  0
    2.0364  -10.3343    0.9208 H   0  0  0  0  0  0  0  0  0  0  0  0
    3.4566   -6.8774    3.6876 H   0  0  0  0  0  0  0  0  0  0  0  0
    6.0796   -5.0532    0.4917 H   0  0  0  0  0  0  0  0  0  0  0  0
    8.9696   -2.4523   -2.4133 H   0  0  0  0  0  0  0  0  0  0  0  0
    9.1424   -0.2069   -3.4867 H   0  0  0  0  0  0  0  0  0  0  0  0
  1  2  1  0  0  0  0
  1 37  1  0  0  0  0
  1 38  1  0  0  0  0
  1 39  1  0  0  0  0
  2  3  1  0  0  0  0
  2 40  1  0  0  0  0
  3  4  2  0  0  0  0
  3  5  1  0  0  0  0
  5  6  1  0  0  0  0
  5 36  2  0  0  0  0
  6  7  2  0  0  0  0
  6 41  1  0  0  0  0
  7  8  1  0  0  0  0
  7 34  1  0  0  0  0
  8  9  1  0  0  0  0
  9 10  1  0  0  0  0
  9 33  2  0  0  0  0
 10 11  2  0  0  0  0
 10 42  1  0  0  0  0
 11 12  1  0  0  0  0
 11 43  1  0  0  0  0
 12 13  1  0  0  0  0
 12 32  2  0  0  0  0
 13 14  1  0  0  0  0
 14 15  1  0  0  0  0
 14 31  2  0  0  0  0
 15 16  1  0  0  0  0
 15 44  1  0  0  0  0
 16 17  1  0  0  0  0
 16 30  2  0  0  0  0
 17 18  2  0  0  0  0
 17 45  1  0  0  0  0
 18 19  1  0  0  0  0
 18 46  1  0  0  0  0
 19 20  1  0  0  0  0
 19 21  2  0  0  0  0
 21 22  1  0  0  0  0
 21 30  1  0  0  0  0
 22 23  1  0  0  0  0
 23 24  1  0  0  0  0
 23 47  1  0  0  0  0
 23 48  1  0  0  0  0
 24 25  1  0  0  0  0
 24 28  1  0  0  0  0
 24 49  1  1  0  0  0
 25 26  1  0  0  0  0
 25 50  1  0  0  0  0
 25 51  1  0  0  0  0
 26 27  1  0  0  0  0
 26 52  1  0  0  0  0
 26 53  1  0  0  0  0
 27 28  1  0  0  0  0
 27 54  1  0  0  0  0
 27 55  1  0  0  0  0
 28 29  1  0  0  0  0
 29 56  1  0  0  0  0
 29 57  1  0  0  0  0
 29 58  1  0  0  0  0
 30 59  1  0  0  0  0
 31 32  1  0  0  0  0
 32 33  1  0  0  0  0
 33 60  1  0  0  0  0
 34 35  2  0  0  0  0
 34 61  1  0  0  0  0
 35 36  1  0  0  0  0
 35 62  1  0  0  0  0
M  END
$$$$
