CHEMBL3968039
 OpenBabel04072215373D

 81 85  0  0  0  0  0  0  0  0999 V2000
    2.7504    1.0370   -0.6453 C   0  0  0  0  0  0  0  0  0  0  0  0
    2.4710   -0.3194   -0.2612 O   0  0  0  0  0  0  0  0  0  0  0  0
    3.0598   -0.7732    0.8984 C   0  0  0  0  0  0  0  0  0  0  0  0
    4.2335   -0.1294    1.3212 C   0  0  0  0  0  0  0  0  0  0  0  0
    4.9423   -0.4857    2.4501 C   0  0  0  0  0  0  0  0  0  0  0  0
    6.0771    0.2064    2.9773 C   0  0  0  0  0  0  0  0  0  0  0  0
    6.3881    1.5112    2.5056 N   0  0  0  0  0  0  0  0  0  0  0  0
    7.6850    2.1231    2.4748 C   0  0  0  0  0  0  0  0  0  0  0  0
    7.8167    3.4430    2.0424 C   0  0  0  0  0  0  0  0  0  0  0  0
    9.0734    3.9676    1.6955 C   0  0  0  0  0  0  0  0  0  0  0  0
   10.2332    3.1968    1.7277 C   0  0  0  0  0  0  0  0  0  0  0  0
   11.4795    3.7809    1.2950 N   0  0  0  0  0  0  0  0  0  0  0  0
   11.5638    4.9192    0.5064 C   0  0  0  0  0  0  0  0  0  0  0  0
   10.5955    5.5523    0.0448 O   0  0  0  0  0  0  0  0  0  0  0  0
   12.8418    5.2901    0.1634 N   0  0  0  0  0  0  0  0  0  0  0  0
   13.0240    6.4135   -0.6937 C   0  0  0  0  0  0  0  0  0  0  0  0
   13.6761    6.2262   -1.9086 C   0  0  0  0  0  0  0  0  0  0  0  0
   13.9621    7.3162   -2.7297 C   0  0  0  0  0  0  0  0  0  0  0  0
   13.6248    8.6225   -2.3412 C   0  0  0  0  0  0  0  0  0  0  0  0
   14.0641    9.7671   -3.2146 C   0  0  0  0  0  0  0  0  0  0  0  0
   12.9269    8.8183   -1.1326 C   0  0  0  0  0  0  0  0  0  0  0  0
   12.5734   10.1899   -0.6212 C   0  0  0  0  0  0  0  0  0  0  0  0
   12.6069    7.7000   -0.3275 C   0  0  0  0  0  0  0  0  0  0  0  0
   10.0943    1.8595    2.1571 C   0  0  0  0  0  0  0  0  0  0  0  0
   11.3079    0.6419    1.9714 Cl  0  0  0  0  0  0  0  0  0  0  0  0
    8.8319    1.3670    2.5614 C   0  0  0  0  0  0  0  0  0  0  0  0
    6.8271   -0.3258    3.9383 N   0  0  0  0  0  0  0  0  0  0  0  0
    6.4398   -1.4823    4.4499 C   0  0  0  0  0  0  0  0  0  0  0  0
    5.3337   -2.1502    4.1187 N   0  0  0  0  0  0  0  0  0  0  0  0
    4.5858   -1.6559    3.1266 C   0  0  0  0  0  0  0  0  0  0  0  0
    3.4201   -2.3226    2.7106 C   0  0  0  0  0  0  0  0  0  0  0  0
    2.6333   -1.9044    1.6286 C   0  0  0  0  0  0  0  0  0  0  0  0
    1.5516   -2.7279    1.3820 O   0  0  0  0  0  0  0  0  0  0  0  0
    1.2233   -2.8192    0.0026 C   0  0  0  0  0  0  0  0  0  0  0  0
    0.0616   -3.7335   -0.3080 C   0  0  0  0  0  0  0  0  0  0  0  0
   -0.1648   -3.7275   -1.8349 C   0  0  0  0  0  0  0  0  0  0  0  0
   -1.2840   -4.5761   -2.2461 N   0  0  0  0  0  0  0  0  0  0  0  0
   -1.4682   -4.5228   -3.7094 C   0  0  0  0  0  0  0  0  0  0  0  0
   -2.6875   -5.3693   -4.1315 C   0  0  0  0  0  0  0  0  0  0  0  0
   -2.5764   -6.7947   -3.7676 N   0  0  0  0  0  0  0  0  0  0  0  0
   -1.5755   -7.4678   -4.5931 C   0  0  0  0  0  0  0  0  0  0  0  0
   -2.2534   -6.8964   -2.3283 C   0  0  0  0  0  0  0  0  0  0  0  0
   -1.0953   -5.9874   -1.8434 C   0  0  0  0  0  0  0  0  0  0  0  0
    3.2572    1.0776   -1.6169 H   0  0  0  0  0  0  0  0  0  0  0  0
    3.3331    1.6431    0.0632 H   0  0  0  0  0  0  0  0  0  0  0  0
    1.8030    1.5683   -0.7366 H   0  0  0  0  0  0  0  0  0  0  0  0
    4.6784    0.5861    0.6549 H   0  0  0  0  0  0  0  0  0  0  0  0
    5.6211    2.1371    2.6152 H   0  0  0  0  0  0  0  0  0  0  0  0
    6.9455    4.0895    1.9161 H   0  0  0  0  0  0  0  0  0  0  0  0
    9.0870    4.9913    1.3353 H   0  0  0  0  0  0  0  0  0  0  0  0
   12.3225    3.2690    1.4483 H   0  0  0  0  0  0  0  0  0  0  0  0
   13.4360    4.4994   -0.0506 H   0  0  0  0  0  0  0  0  0  0  0  0
   13.9696    5.2326   -2.2352 H   0  0  0  0  0  0  0  0  0  0  0  0
   14.4984    7.1447   -3.6602 H   0  0  0  0  0  0  0  0  0  0  0  0
   14.6054    9.4141   -4.0988 H   0  0  0  0  0  0  0  0  0  0  0  0
   14.7442   10.4260   -2.6631 H   0  0  0  0  0  0  0  0  0  0  0  0
   13.1992   10.3378   -3.5660 H   0  0  0  0  0  0  0  0  0  0  0  0
   12.8700   10.9869   -1.3074 H   0  0  0  0  0  0  0  0  0  0  0  0
   13.0871   10.3760    0.3286 H   0  0  0  0  0  0  0  0  0  0  0  0
   11.4929   10.2746   -0.4716 H   0  0  0  0  0  0  0  0  0  0  0  0
   12.0920    7.8527    0.6184 H   0  0  0  0  0  0  0  0  0  0  0  0
    8.7475    0.3148    2.8341 H   0  0  0  0  0  0  0  0  0  0  0  0
    7.0656   -1.9119    5.2154 H   0  0  0  0  0  0  0  0  0  0  0  0
    3.1543   -3.2447    3.2357 H   0  0  0  0  0  0  0  0  0  0  0  0
    2.0931   -3.1978   -0.5388 H   0  0  0  0  0  0  0  0  0  0  0  0
    0.8999   -1.8266   -0.3302 H   0  0  0  0  0  0  0  0  0  0  0  0
   -0.8438   -3.4038    0.2161 H   0  0  0  0  0  0  0  0  0  0  0  0
    0.3048   -4.7264    0.0828 H   0  0  0  0  0  0  0  0  0  0  0  0
    0.7511   -4.0574   -2.3572 H   0  0  0  0  0  0  0  0  0  0  0  0
   -0.3365   -2.6954   -2.1711 H   0  0  0  0  0  0  0  0  0  0  0  0
   -0.5652   -4.8635   -4.2292 H   0  0  0  0  0  0  0  0  0  0  0  0
   -1.6587   -3.4949   -4.0473 H   0  0  0  0  0  0  0  0  0  0  0  0
   -2.8527   -5.2606   -5.2098 H   0  0  0  0  0  0  0  0  0  0  0  0
   -3.5861   -4.9558   -3.6522 H   0  0  0  0  0  0  0  0  0  0  0  0
   -1.8104   -7.3419   -5.6557 H   0  0  0  0  0  0  0  0  0  0  0  0
   -1.5846   -8.5449   -4.3930 H   0  0  0  0  0  0  0  0  0  0  0  0
   -0.5560   -7.1028   -4.4292 H   0  0  0  0  0  0  0  0  0  0  0  0
   -2.0417   -7.9384   -2.0629 H   0  0  0  0  0  0  0  0  0  0  0  0
   -3.1560   -6.6264   -1.7639 H   0  0  0  0  0  0  0  0  0  0  0  0
   -0.1401   -6.3731   -2.2239 H   0  0  0  0  0  0  0  0  0  0  0  0
   -1.0568   -6.0647   -0.7507 H   0  0  0  0  0  0  0  0  0  0  0  0
  1  2  1  0  0  0  0
  1 44  1  0  0  0  0
  1 45  1  0  0  0  0
  1 46  1  0  0  0  0
  2  3  1  0  0  0  0
  3  4  1  0  0  0  0
  3 32  2  0  0  0  0
  4  5  2  0  0  0  0
  4 47  1  0  0  0  0
  5  6  1  0  0  0  0
  5 30  1  0  0  0  0
  6  7  1  0  0  0  0
  6 27  2  0  0  0  0
  7  8  1  0  0  0  0
  7 48  1  0  0  0  0
  8  9  1  0  0  0  0
  8 26  2  0  0  0  0
  9 10  2  0  0  0  0
  9 49  1  0  0  0  0
 10 11  1  0  0  0  0
 10 50  1  0  0  0  0
 11 12  1  0  0  0  0
 11 24  2  0  0  0  0
 12 13  1  0  0  0  0
 12 51  1  0  0  0  0
 13 14  2  0  0  0  0
 13 15  1  0  0  0  0
 15 16  1  0  0  0  0
 15 52  1  0  0  0  0
 16 17  1  0  0  0  0
 16 23  2  0  0  0  0
 17 18  2  0  0  0  0
 17 53  1  0  0  0  0
 18 19  1  0  0  0  0
 18 54  1  0  0  0  0
 19 20  1  0  0  0  0
 19 21  2  0  0  0  0
 20 55  1  0  0  0  0
 20 56  1  0  0  0  0
 20 57  1  0  0  0  0
 21 22  1  0  0  0  0
 21 23  1  0  0  0  0
 22 58  1  0  0  0  0
 22 59  1  0  0  0  0
 22 60  1  0  0  0  0
 23 61  1  0  0  0  0
 24 25  1  0  0  0  0
 24 26  1  0  0  0  0
 26 62  1  0  0  0  0
 27 28  1  0  0  0  0
 28 29  2  0  0  0  0
 28 63  1  0  0  0  0
 29 30  1  0  0  0  0
 30 31  2  0  0  0  0
 31 32  1  0  0  0  0
 31 64  1  0  0  0  0
 32 33  1  0  0  0  0
 33 34  1  0  0  0  0
 34 35  1  0  0  0  0
 34 65  1  0  0  0  0
 34 66  1  0  0  0  0
 35 36  1  0  0  0  0
 35 67  1  0  0  0  0
 35 68  1  0  0  0  0
 36 37  1  0  0  0  0
 36 69  1  0  0  0  0
 36 70  1  0  0  0  0
 37 38  1  0  0  0  0
 37 43  1  0  0  0  0
 38 39  1  0  0  0  0
 38 71  1  0  0  0  0
 38 72  1  0  0  0  0
 39 40  1  0  0  0  0
 39 73  1  0  0  0  0
 39 74  1  0  0  0  0
 40 41  1  0  0  0  0
 40 42  1  0  0  0  0
 41 75  1  0  0  0  0
 41 76  1  0  0  0  0
 41 77  1  0  0  0  0
 42 43  1  0  0  0  0
 42 78  1  0  0  0  0
 42 79  1  0  0  0  0
 43 80  1  0  0  0  0
 43 81  1  0  0  0  0
M  END
$$$$
