CHEMBL1940848
 OpenBabel04072215363D

 33 35  0  0  0  0  0  0  0  0999 V2000
    4.5792    0.2515   -0.0095 C   0  0  0  0  0  0  0  0  0  0  0  0
    3.1082   -0.0380   -0.0045 C   0  0  0  0  0  0  0  0  0  0  0  0
    2.6288   -1.3488   -0.0063 C   0  0  0  0  0  0  0  0  0  0  0  0
    1.2507   -1.5946   -0.0067 C   0  0  0  0  0  0  0  0  0  0  0  0
    0.3225   -0.5621   -0.0079 C   0  0  0  0  0  0  0  0  0  0  0  0
   -0.9889   -0.8469   -0.0104 N   0  0  0  0  0  0  0  0  0  0  0  0
   -1.8627    0.1868   -0.0161 C   0  0  0  0  0  0  0  0  0  0  0  0
   -3.5012   -0.3532   -0.0312 Cl  0  0  0  0  0  0  0  0  0  0  0  0
   -1.5112    1.5398   -0.0327 C   0  0  0  0  0  0  0  0  0  0  0  0
   -2.5001    2.6359   -0.0158 C   0  0  0  0  0  0  0  0  0  0  0  0
   -2.3156    3.8282   -0.6072 C   0  0  0  0  0  0  0  0  0  0  0  0
   -3.3638    4.8987   -0.5362 C   0  0  0  0  0  0  0  0  0  0  0  0
   -4.2401    4.8286    0.3223 O   0  0  0  0  0  0  0  0  0  0  0  0
   -3.2392    5.9865   -1.4966 C   0  0  0  0  0  0  0  0  0  0  0  0
   -2.6954    5.9799   -2.7713 C   0  0  0  0  0  0  0  0  0  0  0  0
   -2.7484    7.2627   -3.3957 C   0  0  0  0  0  0  0  0  0  0  0  0
   -3.3313    8.1894   -2.5701 C   0  0  0  0  0  0  0  0  0  0  0  0
   -3.5584    9.9889   -3.0379 Br  0  0  0  0  0  0  0  0  0  0  0  0
   -3.8336    7.5447   -1.0877 S   0  0  0  0  0  0  0  0  0  0  0  0
   -0.1374    1.8062   -0.0070 C   0  0  0  0  0  0  0  0  0  0  0  0
    0.8017    0.7622   -0.0044 C   0  0  0  0  0  0  0  0  0  0  0  0
    2.1859    1.0136    0.0004 C   0  0  0  0  0  0  0  0  0  0  0  0
    5.1716   -0.6693   -0.0228 H   0  0  0  0  0  0  0  0  0  0  0  0
    4.8555    0.8167    0.8865 H   0  0  0  0  0  0  0  0  0  0  0  0
    4.8451    0.8337   -0.8979 H   0  0  0  0  0  0  0  0  0  0  0  0
    3.3168   -2.1916   -0.0066 H   0  0  0  0  0  0  0  0  0  0  0  0
    0.8932   -2.6218   -0.0051 H   0  0  0  0  0  0  0  0  0  0  0  0
   -3.4388    2.4322    0.4994 H   0  0  0  0  0  0  0  0  0  0  0  0
   -1.4109    4.0735   -1.1488 H   0  0  0  0  0  0  0  0  0  0  0  0
   -2.2897    5.0966   -3.2517 H   0  0  0  0  0  0  0  0  0  0  0  0
   -2.3809    7.4781   -4.3918 H   0  0  0  0  0  0  0  0  0  0  0  0
    0.2225    2.8321    0.0213 H   0  0  0  0  0  0  0  0  0  0  0  0
    2.5521    2.0387    0.0037 H   0  0  0  0  0  0  0  0  0  0  0  0
  1  2  1  0  0  0  0
  1 23  1  0  0  0  0
  1 24  1  0  0  0  0
  1 25  1  0  0  0  0
  2  3  1  0  0  0  0
  2 22  2  0  0  0  0
  3  4  2  0  0  0  0
  3 26  1  0  0  0  0
  4  5  1  0  0  0  0
  4 27  1  0  0  0  0
  5  6  1  0  0  0  0
  5 21  2  0  0  0  0
  6  7  2  0  0  0  0
  7  8  1  0  0  0  0
  7  9  1  0  0  0  0
  9 10  1  0  0  0  0
  9 20  2  0  0  0  0
 10 11  2  0  0  0  0
 10 28  1  0  0  0  0
 11 12  1  0  0  0  0
 11 29  1  0  0  0  0
 12 13  2  0  0  0  0
 12 14  1  0  0  0  0
 14 15  2  0  0  0  0
 14 19  1  0  0  0  0
 15 16  1  0  0  0  0
 15 30  1  0  0  0  0
 16 17  2  0  0  0  0
 16 31  1  0  0  0  0
 17 18  1  0  0  0  0
 17 19  1  0  0  0  0
 20 21  1  0  0  0  0
 20 32  1  0  0  0  0
 21 22  1  0  0  0  0
 22 33  1  0  0  0  0
M  END
$$$$
