CHEMBL2047245
 OpenBabel04072215363D

 44 47  0  0  0  0  0  0  0  0999 V2000
    2.6336    0.3274    1.0469 C   0  0  0  0  0  0  0  0  0  0  0  0
    1.8108   -0.0925   -0.1717 C   0  0  0  0  0  0  0  0  0  0  0  0
    0.6136    0.8414   -0.3736 C   0  0  0  0  0  0  0  0  0  0  0  0
    2.6504   -0.1672   -1.4341 C   0  0  0  0  0  0  0  0  0  0  0  0
    2.7429   -1.3722   -2.1418 C   0  0  0  0  0  0  0  0  0  0  0  0
    3.4412   -1.4416   -3.3547 C   0  0  0  0  0  0  0  0  0  0  0  0
    4.0406   -0.3056   -3.9024 C   0  0  0  0  0  0  0  0  0  0  0  0
    4.6843   -0.3870   -5.1479 N   0  0  0  0  0  0  0  0  0  0  0  0
    4.9119    0.6601   -6.0681 C   0  0  0  0  0  0  0  0  0  0  0  0
    4.0467    1.6932   -6.1198 N   0  0  0  0  0  0  0  0  0  0  0  0
    4.3978    2.7827   -6.8189 C   0  0  0  0  0  0  0  0  0  0  0  0
    3.4372    3.7663   -6.9394 N   0  0  0  0  0  0  0  0  0  0  0  0
    5.6013    3.0091   -7.3452 N   0  0  0  0  0  0  0  0  0  0  0  0
    6.4210    1.9472   -7.2994 C   0  0  0  0  0  0  0  0  0  0  0  0
    6.0807    0.6989   -6.7869 C   0  0  0  0  0  0  0  0  0  0  0  0
    7.1859   -0.2079   -6.9543 C   0  0  0  0  0  0  0  0  0  0  0  0
    7.2533   -1.5870   -6.8662 C   0  0  0  0  0  0  0  0  0  0  0  0
    8.4915   -2.2056   -7.0482 C   0  0  0  0  0  0  0  0  0  0  0  0
    9.6443   -1.4412   -7.2876 C   0  0  0  0  0  0  0  0  0  0  0  0
    9.5627   -0.0557   -7.4559 C   0  0  0  0  0  0  0  0  0  0  0  0
    8.3163    0.5379   -7.3489 C   0  0  0  0  0  0  0  0  0  0  0  0
    7.9049    1.9657   -7.6584 C   0  0  0  0  0  0  0  0  0  0  0  0
    4.0014    0.8813   -3.1591 C   0  0  0  0  0  0  0  0  0  0  0  0
    3.3111    0.9547   -1.9465 C   0  0  0  0  0  0  0  0  0  0  0  0
    2.0131    0.3163    1.9498 H   0  0  0  0  0  0  0  0  0  0  0  0
    3.0443    1.3369    0.9397 H   0  0  0  0  0  0  0  0  0  0  0  0
    3.4718   -0.3595    1.2073 H   0  0  0  0  0  0  0  0  0  0  0  0
    1.4096   -1.0923    0.0382 H   0  0  0  0  0  0  0  0  0  0  0  0
    0.9255    1.8833   -0.5073 H   0  0  0  0  0  0  0  0  0  0  0  0
   -0.0557    0.8024    0.4922 H   0  0  0  0  0  0  0  0  0  0  0  0
    0.0344    0.5522   -1.2582 H   0  0  0  0  0  0  0  0  0  0  0  0
    2.2590   -2.2697   -1.7666 H   0  0  0  0  0  0  0  0  0  0  0  0
    3.4839   -2.3919   -3.8789 H   0  0  0  0  0  0  0  0  0  0  0  0
    4.6912   -1.2979   -5.5794 H   0  0  0  0  0  0  0  0  0  0  0  0
    2.7388    3.6422   -6.2143 H   0  0  0  0  0  0  0  0  0  0  0  0
    3.8609    4.6721   -7.0422 H   0  0  0  0  0  0  0  0  0  0  0  0
    6.3695   -2.1915   -6.7010 H   0  0  0  0  0  0  0  0  0  0  0  0
    8.5617   -3.2904   -7.0037 H   0  0  0  0  0  0  0  0  0  0  0  0
   10.6064   -1.9418   -7.3723 H   0  0  0  0  0  0  0  0  0  0  0  0
   10.4518    0.5268   -7.6740 H   0  0  0  0  0  0  0  0  0  0  0  0
    8.0331    2.1847   -8.7211 H   0  0  0  0  0  0  0  0  0  0  0  0
    8.4444    2.6796   -7.0289 H   0  0  0  0  0  0  0  0  0  0  0  0
    4.5055    1.7739   -3.5218 H   0  0  0  0  0  0  0  0  0  0  0  0
    3.2856    1.9051   -1.4164 H   0  0  0  0  0  0  0  0  0  0  0  0
  1  2  1  0  0  0  0
  1 25  1  0  0  0  0
  1 26  1  0  0  0  0
  1 27  1  0  0  0  0
  2  3  1  0  0  0  0
  2  4  1  0  0  0  0
  2 28  1  0  0  0  0
  3 29  1  0  0  0  0
  3 30  1  0  0  0  0
  3 31  1  0  0  0  0
  4  5  1  0  0  0  0
  4 24  2  0  0  0  0
  5  6  2  0  0  0  0
  5 32  1  0  0  0  0
  6  7  1  0  0  0  0
  6 33  1  0  0  0  0
  7  8  1  0  0  0  0
  7 23  2  0  0  0  0
  8  9  1  0  0  0  0
  8 34  1  0  0  0  0
  9 10  1  0  0  0  0
  9 15  2  0  0  0  0
 10 11  2  0  0  0  0
 11 12  1  0  0  0  0
 11 13  1  0  0  0  0
 12 35  1  0  0  0  0
 12 36  1  0  0  0  0
 13 14  2  0  0  0  0
 14 15  1  0  0  0  0
 14 22  1  0  0  0  0
 15 16  1  0  0  0  0
 16 17  1  0  0  0  0
 16 21  2  0  0  0  0
 17 18  2  0  0  0  0
 17 37  1  0  0  0  0
 18 19  1  0  0  0  0
 18 38  1  0  0  0  0
 19 20  2  0  0  0  0
 19 39  1  0  0  0  0
 20 21  1  0  0  0  0
 20 40  1  0  0  0  0
 21 22  1  0  0  0  0
 22 41  1  0  0  0  0
 22 42  1  0  0  0  0
 23 24  1  0  0  0  0
 23 43  1  0  0  0  0
 24 44  1  0  0  0  0
M  END
$$$$
