CHEMBL420609
 OpenBabel04072215383D

 49 52  0  0  0  0  0  0  0  0999 V2000
    1.5385   -1.5317    0.7175 C   0  0  0  0  0  0  0  0  0  0  0  0
    2.8696   -1.0999    0.4702 O   0  0  0  0  0  0  0  0  0  0  0  0
    3.4481   -0.2742    1.3955 C   0  0  0  0  0  0  0  0  0  0  0  0
    2.8250    0.2607    2.5392 C   0  0  0  0  0  0  0  0  0  0  0  0
    3.5328    1.0850    3.4393 C   0  0  0  0  0  0  0  0  0  0  0  0
    4.8629    1.3685    3.1760 C   0  0  0  0  0  0  0  0  0  0  0  0
    5.4547    0.8484    2.0212 C   0  0  0  0  0  0  0  0  0  0  0  0
    4.7841    0.0350    1.1279 C   0  0  0  0  0  0  0  0  0  0  0  0
    6.7730    1.2722    1.9120 N   0  0  0  0  0  0  0  0  0  0  0  0
    7.1361    2.0957    2.9651 C   0  0  0  0  0  0  0  0  0  0  0  0
    8.2087    2.6578    3.0865 O   0  0  0  0  0  0  0  0  0  0  0  0
    5.9138    2.1536    3.8569 C   0  0  0  0  0  0  0  0  0  0  0  0
    5.8231    2.7626    5.0540 C   0  0  0  0  0  0  0  0  0  0  0  0
    6.9130    3.4404    5.6660 C   0  0  0  0  0  0  0  0  0  0  0  0
    7.0850    4.7762    5.3821 N   0  0  0  0  0  0  0  0  0  0  0  0
    8.2074    5.2369    6.0105 C   0  0  0  0  0  0  0  0  0  0  0  0
    8.7775    4.1954    6.7144 C   0  0  0  0  0  0  0  0  0  0  0  0
    7.9367    3.0462    6.5268 C   0  0  0  0  0  0  0  0  0  0  0  0
    8.1593    1.6565    7.0592 C   0  0  0  0  0  0  0  0  0  0  0  0
    8.1612    1.5861    8.5839 C   0  0  0  0  0  0  0  0  0  0  0  0
    8.3472    0.1744    9.0806 C   0  0  0  0  0  0  0  0  0  0  0  0
    8.4621   -0.8190    8.3822 O   0  0  0  0  0  0  0  0  0  0  0  0
    8.3787    0.1109   10.4345 O   0  0  0  0  0  0  0  0  0  0  0  0
   10.0929    4.3543    7.4166 C   0  0  0  0  0  0  0  0  0  0  0  0
   10.5040    5.8356    7.5509 C   0  0  0  0  0  0  0  0  0  0  0  0
   10.2337    6.6371    6.2673 C   0  0  0  0  0  0  0  0  0  0  0  0
    8.7400    6.6240    5.8978 C   0  0  0  0  0  0  0  0  0  0  0  0
    1.2740   -2.2593   -0.0572 H   0  0  0  0  0  0  0  0  0  0  0  0
    0.8386   -0.6937    0.6419 H   0  0  0  0  0  0  0  0  0  0  0  0
    1.4521   -2.0358    1.6856 H   0  0  0  0  0  0  0  0  0  0  0  0
    1.7810    0.0514    2.7541 H   0  0  0  0  0  0  0  0  0  0  0  0
    3.0306    1.4847    4.3149 H   0  0  0  0  0  0  0  0  0  0  0  0
    5.2748   -0.3603    0.2453 H   0  0  0  0  0  0  0  0  0  0  0  0
    7.4039    1.0527    1.1566 H   0  0  0  0  0  0  0  0  0  0  0  0
    4.8990    2.7121    5.6214 H   0  0  0  0  0  0  0  0  0  0  0  0
    6.5080    5.3171    4.7530 H   0  0  0  0  0  0  0  0  0  0  0  0
    9.1051    1.2706    6.6591 H   0  0  0  0  0  0  0  0  0  0  0  0
    7.3753    0.9894    6.6775 H   0  0  0  0  0  0  0  0  0  0  0  0
    7.2154    1.9704    8.9815 H   0  0  0  0  0  0  0  0  0  0  0  0
    8.9813    2.1802    8.9947 H   0  0  0  0  0  0  0  0  0  0  0  0
    8.2816    0.9798   10.8688 H   0  0  0  0  0  0  0  0  0  0  0  0
   10.8606    3.8214    6.8424 H   0  0  0  0  0  0  0  0  0  0  0  0
   10.0659    3.9146    8.4165 H   0  0  0  0  0  0  0  0  0  0  0  0
   11.5668    5.8974    7.8132 H   0  0  0  0  0  0  0  0  0  0  0  0
    9.9475    6.2951    8.3783 H   0  0  0  0  0  0  0  0  0  0  0  0
   10.8220    6.2061    5.4469 H   0  0  0  0  0  0  0  0  0  0  0  0
   10.5724    7.6719    6.3937 H   0  0  0  0  0  0  0  0  0  0  0  0
    8.6045    7.0221    4.8869 H   0  0  0  0  0  0  0  0  0  0  0  0
    8.1904    7.2739    6.5897 H   0  0  0  0  0  0  0  0  0  0  0  0
  1  2  1  0  0  0  0
  1 28  1  0  0  0  0
  1 29  1  0  0  0  0
  1 30  1  0  0  0  0
  2  3  1  0  0  0  0
  3  4  1  0  0  0  0
  3  8  2  0  0  0  0
  4  5  2  0  0  0  0
  4 31  1  0  0  0  0
  5  6  1  0  0  0  0
  5 32  1  0  0  0  0
  6  7  2  0  0  0  0
  6 12  1  0  0  0  0
  7  8  1  0  0  0  0
  7  9  1  0  0  0  0
  8 33  1  0  0  0  0
  9 10  1  0  0  0  0
  9 34  1  0  0  0  0
 10 11  2  0  0  0  0
 10 12  1  0  0  0  0
 12 13  2  0  0  0  0
 13 14  1  0  0  0  0
 13 35  1  0  0  0  0
 14 15  1  0  0  0  0
 14 18  2  0  0  0  0
 15 16  1  0  0  0  0
 15 36  1  0  0  0  0
 16 17  2  0  0  0  0
 16 27  1  0  0  0  0
 17 18  1  0  0  0  0
 17 24  1  0  0  0  0
 18 19  1  0  0  0  0
 19 20  1  0  0  0  0
 19 37  1  0  0  0  0
 19 38  1  0  0  0  0
 20 21  1  0  0  0  0
 20 39  1  0  0  0  0
 20 40  1  0  0  0  0
 21 22  2  0  0  0  0
 21 23  1  0  0  0  0
 23 41  1  0  0  0  0
 24 25  1  0  0  0  0
 24 42  1  0  0  0  0
 24 43  1  0  0  0  0
 25 26  1  0  0  0  0
 25 44  1  0  0  0  0
 25 45  1  0  0  0  0
 26 27  1  0  0  0  0
 26 46  1  0  0  0  0
 26 47  1  0  0  0  0
 27 48  1  0  0  0  0
 27 49  1  0  0  0  0
M  END
$$$$
