CHEMBL3893979
 OpenBabel04072215373D

 56 60  0  0  1  0  0  0  0  0999 V2000
    1.3505   -0.4349    1.4425 C   0  0  0  0  0  0  0  0  0  0  0  0
    2.9836   -0.4035    0.6489 S   0  0  0  0  0  0  0  0  0  0  0  0
    3.3019    1.3547    0.6710 C   0  0  0  0  0  0  0  0  0  0  0  0
    2.4226    2.2396    0.0427 C   0  0  0  0  0  0  0  0  0  0  0  0
    2.6913    3.6015    0.0402 C   0  0  0  0  0  0  0  0  0  0  0  0
    3.8246    4.0853    0.6824 C   0  0  0  0  0  0  0  0  0  0  0  0
    4.7007    3.2205    1.3582 C   0  0  0  0  0  0  0  0  0  0  0  0
    5.8224    3.6970    2.1108 N   0  0  0  0  0  0  0  0  0  0  0  0
    5.9335    4.9909    2.5602 C   0  0  0  0  0  0  0  0  0  0  0  0
    5.0908    5.8560    2.3624 O   0  0  0  0  0  0  0  0  0  0  0  0
    7.1085    5.2192    3.2704 N   0  0  0  0  0  0  0  0  0  0  0  0
    7.4001    6.4637    3.8951 C   0  0  0  0  0  0  0  0  0  0  0  0
    6.3999    7.3784    4.2414 C   0  0  0  0  0  0  0  0  0  0  0  0
    6.7079    8.6538    4.7166 C   0  0  0  0  0  0  0  0  0  0  0  0
    8.0348    9.0459    4.8904 C   0  0  0  0  0  0  0  0  0  0  0  0
    8.3271   10.4996    5.2500 C   0  0  3  0  0  0  0  0  0  0  0  0
    8.9854   10.6556    6.6309 C   0  0  0  0  0  0  0  0  0  0  0  0
    9.9824   11.7570    6.7308 N   0  0  0  0  0  0  0  0  0  0  0  0
   10.8070   11.7933    5.7377 C   0  0  0  0  0  0  0  0  0  0  0  0
   12.1410   12.3943    5.8168 C   0  0  0  0  0  0  0  0  0  0  0  0
   12.4263   13.6307    6.3767 C   0  0  0  0  0  0  0  0  0  0  0  0
   13.7637   14.0234    6.4530 C   0  0  0  0  0  0  0  0  0  0  0  0
   14.7850   13.1387    6.0729 C   0  0  0  0  0  0  0  0  0  0  0  0
   14.4807   11.9078    5.4853 C   0  0  0  0  0  0  0  0  0  0  0  0
   13.1469   11.5926    5.2719 C   0  0  0  0  0  0  0  0  0  0  0  0
   12.7681   10.5840    4.3648 N   0  0  0  0  0  0  0  0  0  0  0  0
   11.5529   10.7401    3.7073 C   0  0  0  0  0  0  0  0  0  0  0  0
   11.4252   10.4673    2.5187 O   0  0  0  0  0  0  0  0  0  0  0  0
   10.5409   11.1840    4.5341 N   0  0  0  0  0  0  0  0  0  0  0  0
    9.1526   11.1694    4.1511 C   0  0  0  0  0  0  0  0  0  0  0  0
    9.0410    8.0945    4.6443 C   0  0  0  0  0  0  0  0  0  0  0  0
    8.7269    6.8129    4.1540 C   0  0  0  0  0  0  0  0  0  0  0  0
    4.4472    1.8428    1.3049 C   0  0  0  0  0  0  0  0  0  0  0  0
    1.0250   -1.4739    1.5425 H   0  0  0  0  0  0  0  0  0  0  0  0
    0.6038    0.0991    0.8487 H   0  0  0  0  0  0  0  0  0  0  0  0
    1.4061    0.0091    2.4402 H   0  0  0  0  0  0  0  0  0  0  0  0
    1.5314    1.8849   -0.4701 H   0  0  0  0  0  0  0  0  0  0  0  0
    2.0208    4.2976   -0.4542 H   0  0  0  0  0  0  0  0  0  0  0  0
    3.9973    5.1579    0.6357 H   0  0  0  0  0  0  0  0  0  0  0  0
    6.3911    2.9932    2.5563 H   0  0  0  0  0  0  0  0  0  0  0  0
    7.8911    4.6214    3.0487 H   0  0  0  0  0  0  0  0  0  0  0  0
    5.3469    7.1396    4.1263 H   0  0  0  0  0  0  0  0  0  0  0  0
    5.8893    9.3434    4.9092 H   0  0  0  0  0  0  0  0  0  0  0  0
    7.3676   11.0337    5.2855 H   0  0  0  0  0  0  0  0  0  0  0  0
    9.4910    9.7275    6.9365 H   0  0  0  0  0  0  0  0  0  0  0  0
    8.2110   10.8169    7.3901 H   0  0  0  0  0  0  0  0  0  0  0  0
   11.6274   14.2921    6.6982 H   0  0  0  0  0  0  0  0  0  0  0  0
   14.0177   15.0178    6.8136 H   0  0  0  0  0  0  0  0  0  0  0  0
   15.8251   13.4352    6.1923 H   0  0  0  0  0  0  0  0  0  0  0  0
   15.2783   11.2573    5.1410 H   0  0  0  0  0  0  0  0  0  0  0  0
   13.4702   10.0383    3.8879 H   0  0  0  0  0  0  0  0  0  0  0  0
    9.0075   10.7200    3.1632 H   0  0  0  0  0  0  0  0  0  0  0  0
    8.8447   12.2219    4.0766 H   0  0  0  0  0  0  0  0  0  0  0  0
   10.0881    8.3508    4.7920 H   0  0  0  0  0  0  0  0  0  0  0  0
    9.5395    6.1254    3.9358 H   0  0  0  0  0  0  0  0  0  0  0  0
    5.1296    1.1458    1.7888 H   0  0  0  0  0  0  0  0  0  0  0  0
  1  2  1  0  0  0  0
  1 34  1  0  0  0  0
  1 35  1  0  0  0  0
  1 36  1  0  0  0  0
  2  3  1  0  0  0  0
  3  4  1  0  0  0  0
  3 33  2  0  0  0  0
  4  5  2  0  0  0  0
  4 37  1  0  0  0  0
  5  6  1  0  0  0  0
  5 38  1  0  0  0  0
  6  7  2  0  0  0  0
  6 39  1  0  0  0  0
  7  8  1  0  0  0  0
  7 33  1  0  0  0  0
  8  9  1  0  0  0  0
  8 40  1  0  0  0  0
  9 10  2  0  0  0  0
  9 11  1  0  0  0  0
 11 12  1  0  0  0  0
 11 41  1  0  0  0  0
 12 13  1  0  0  0  0
 12 32  2  0  0  0  0
 13 14  2  0  0  0  0
 13 42  1  0  0  0  0
 14 15  1  0  0  0  0
 14 43  1  0  0  0  0
 15 16  1  0  0  0  0
 15 31  2  0  0  0  0
 16 17  1  0  0  0  0
 16 30  1  0  0  0  0
 16 44  1  0  0  0  0
 17 18  1  0  0  0  0
 17 45  1  0  0  0  0
 17 46  1  0  0  0  0
 18 19  2  0  0  0  0
 19 20  1  0  0  0  0
 19 29  1  0  0  0  0
 20 21  1  0  0  0  0
 20 25  2  0  0  0  0
 21 22  2  0  0  0  0
 21 47  1  0  0  0  0
 22 23  1  0  0  0  0
 22 48  1  0  0  0  0
 23 24  2  0  0  0  0
 23 49  1  0  0  0  0
 24 25  1  0  0  0  0
 24 50  1  0  0  0  0
 25 26  1  0  0  0  0
 26 27  1  0  0  0  0
 26 51  1  0  0  0  0
 27 28  2  0  0  0  0
 27 29  1  0  0  0  0
 29 30  1  0  0  0  0
 30 52  1  0  0  0  0
 30 53  1  0  0  0  0
 31 32  1  0  0  0  0
 31 54  1  0  0  0  0
 32 55  1  0  0  0  0
 33 56  1  0  0  0  0
M  END
$$$$
