CHEMBL3891736
 OpenBabel04072215373D

 70 74  0  0  0  0  0  0  0  0999 V2000
    1.1272    0.4494    4.6689 C   0  0  0  0  0  0  0  0  0  0  0  0
    2.4854    0.8428    4.6336 O   0  0  0  0  0  0  0  0  0  0  0  0
    3.0803    0.7402    3.4111 C   0  0  0  0  0  0  0  0  0  0  0  0
    2.5306    0.3152    2.2616 C   0  0  0  0  0  0  0  0  0  0  0  0
    3.2389    0.4549    1.0649 C   0  0  0  0  0  0  0  0  0  0  0  0
    2.7008    0.1000   -0.1419 O   0  0  0  0  0  0  0  0  0  0  0  0
    1.3753   -0.4121   -0.0345 C   0  0  0  0  0  0  0  0  0  0  0  0
    4.5288    1.0153    1.0187 C   0  0  0  0  0  0  0  0  0  0  0  0
    5.1392    1.5176    2.1581 C   0  0  0  0  0  0  0  0  0  0  0  0
    6.4495    2.1843    2.0509 N   0  0  0  0  0  0  0  0  0  0  0  0
    7.0818    2.2952    0.6831 C   0  0  0  0  0  0  0  0  0  0  0  0
    6.6971    3.5635   -0.0713 C   0  0  0  0  0  0  0  0  0  0  0  0
    7.3880    3.6169   -1.4929 C   0  0  0  0  0  0  0  0  0  0  0  0
    8.8461    3.9853   -1.3530 C   0  0  0  0  0  0  0  0  0  0  0  0
    8.9130    5.2586   -0.6425 N   0  0  0  0  0  0  0  0  0  0  0  0
   10.3183    5.6675   -0.4905 C   0  0  0  0  0  0  0  0  0  0  0  0
   11.0465    5.8500   -1.8287 C   0  0  0  0  0  0  0  0  0  0  0  0
   10.2199    5.5895   -2.8661 F   0  0  0  0  0  0  0  0  0  0  0  0
   11.5337    7.1020   -1.9890 F   0  0  0  0  0  0  0  0  0  0  0  0
   12.1065    5.0221   -1.9095 F   0  0  0  0  0  0  0  0  0  0  0  0
    8.2993    5.1800    0.6890 C   0  0  0  0  0  0  0  0  0  0  0  0
    6.8512    4.8791    0.6064 C   0  0  0  0  0  0  0  0  0  0  0  0
    7.5299    2.0833    3.0660 C   0  0  0  0  0  0  0  0  0  0  0  0
    8.3414    3.1792    3.1540 C   0  0  0  0  0  0  0  0  0  0  0  0
    9.4344    3.0461    3.9315 C   0  0  0  0  0  0  0  0  0  0  0  0
    9.8275    1.8605    4.5374 C   0  0  0  0  0  0  0  0  0  0  0  0
   11.0893    1.8758    4.3016 N   0  0  0  0  0  0  0  0  0  0  0  0
   11.7249    2.4708    5.2519 C   0  0  0  0  0  0  0  0  0  0  0  0
   11.8933    1.7585    6.3285 C   0  0  0  0  0  0  0  0  0  0  0  0
   13.4839    2.4552    6.8269 C   0  0  0  0  0  0  0  0  0  0  0  0
   14.2529    3.7844    6.7117 C   0  0  0  0  0  0  0  0  0  0  0  0
   15.2066    4.0597    7.6587 N   0  0  0  0  0  0  0  0  0  0  0  0
   15.1175    3.0835    8.5739 N   0  0  0  0  0  0  0  0  0  0  0  0
   15.9958    3.0950    9.7971 C   0  0  0  0  0  0  0  0  0  0  0  0
   14.0694    2.1915    8.1585 C   0  0  0  0  0  0  0  0  0  0  0  0
   10.6473    0.7184    6.2467 N   0  0  0  0  0  0  0  0  0  0  0  0
    9.2545    0.8281    5.1041 C   0  0  0  0  0  0  0  0  0  0  0  0
    7.9093    0.9568    3.9842 C   0  0  0  0  0  0  0  0  0  0  0  0
    4.3669    1.2228    3.3283 C   0  0  0  0  0  0  0  0  0  0  0  0
    0.7260    0.6930    5.6563 H   0  0  0  0  0  0  0  0  0  0  0  0
    1.0655   -0.6313    4.5177 H   0  0  0  0  0  0  0  0  0  0  0  0
    0.5258    0.9885    3.9355 H   0  0  0  0  0  0  0  0  0  0  0  0
    1.5481   -0.1083    2.3143 H   0  0  0  0  0  0  0  0  0  0  0  0
    1.0267   -0.6513   -1.0341 H   0  0  0  0  0  0  0  0  0  0  0  0
    0.6890    0.3317    0.3971 H   0  0  0  0  0  0  0  0  0  0  0  0
    1.3702   -1.3336    0.5625 H   0  0  0  0  0  0  0  0  0  0  0  0
    5.0506    1.0556    0.0709 H   0  0  0  0  0  0  0  0  0  0  0  0
    6.9027    1.4189    0.0400 H   0  0  0  0  0  0  0  0  0  0  0  0
    8.1548    2.3441    0.8658 H   0  0  0  0  0  0  0  0  0  0  0  0
    5.6161    3.5655    0.0491 H   0  0  0  0  0  0  0  0  0  0  0  0
    6.8989    4.3459   -2.1628 H   0  0  0  0  0  0  0  0  0  0  0  0
    7.3658    2.6548   -2.0230 H   0  0  0  0  0  0  0  0  0  0  0  0
    9.3070    4.0400   -2.3489 H   0  0  0  0  0  0  0  0  0  0  0  0
    9.3721    3.1985   -0.8035 H   0  0  0  0  0  0  0  0  0  0  0  0
   10.8466    4.9014    0.0906 H   0  0  0  0  0  0  0  0  0  0  0  0
   10.3612    6.5988    0.0883 H   0  0  0  0  0  0  0  0  0  0  0  0
    8.2966    6.1268    1.2154 H   0  0  0  0  0  0  0  0  0  0  0  0
    8.8036    4.4190    1.2918 H   0  0  0  0  0  0  0  0  0  0  0  0
    6.3035    5.6546    0.0441 H   0  0  0  0  0  0  0  0  0  0  0  0
    6.3924    4.8236    1.5984 H   0  0  0  0  0  0  0  0  0  0  0  0
    8.3282    4.0513    2.5138 H   0  0  0  0  0  0  0  0  0  0  0  0
   10.1785    3.8386    3.8767 H   0  0  0  0  0  0  0  0  0  0  0  0
   12.1548    3.4073    5.0292 H   0  0  0  0  0  0  0  0  0  0  0  0
   14.2025    4.6348    6.0265 H   0  0  0  0  0  0  0  0  0  0  0  0
   16.8163    3.8463    9.7651 H   0  0  0  0  0  0  0  0  0  0  0  0
   16.4988    2.1262    9.9347 H   0  0  0  0  0  0  0  0  0  0  0  0
   15.4369    3.3216   10.7206 H   0  0  0  0  0  0  0  0  0  0  0  0
   13.8153    1.4833    8.9245 H   0  0  0  0  0  0  0  0  0  0  0  0
    7.2786    0.0563    3.7558 H   0  0  0  0  0  0  0  0  0  0  0  0
    4.6194    1.3303    4.3678 H   0  0  0  0  0  0  0  0  0  0  0  0
  1  2  1  0  0  0  0
  1 40  1  0  0  0  0
  1 41  1  0  0  0  0
  1 42  1  0  0  0  0
  2  3  1  0  0  0  0
  3  4  1  0  0  0  0
  3 39  2  0  0  0  0
  4  5  2  0  0  0  0
  4 43  1  0  0  0  0
  5  6  1  0  0  0  0
  5  8  1  0  0  0  0
  6  7  1  0  0  0  0
  7 44  1  0  0  0  0
  7 45  1  0  0  0  0
  7 46  1  0  0  0  0
  8  9  2  0  0  0  0
  8 47  1  0  0  0  0
  9 10  1  0  0  0  0
  9 39  1  0  0  0  0
 10 11  1  0  0  0  0
 10 23  1  0  0  0  0
 11 12  1  0  0  0  0
 11 48  1  0  0  0  0
 11 49  1  0  0  0  0
 12 13  1  0  0  0  0
 12 22  1  0  0  0  0
 12 50  1  0  0  0  0
 13 14  1  0  0  0  0
 13 51  1  0  0  0  0
 13 52  1  0  0  0  0
 14 15  1  0  0  0  0
 14 53  1  0  0  0  0
 14 54  1  0  0  0  0
 15 16  1  0  0  0  0
 15 21  1  0  0  0  0
 16 17  1  0  0  0  0
 16 55  1  0  0  0  0
 16 56  1  0  0  0  0
 17 18  1  0  0  0  0
 17 19  1  0  0  0  0
 17 20  1  0  0  0  0
 21 22  1  0  0  0  0
 21 57  1  0  0  0  0
 21 58  1  0  0  0  0
 22 59  1  0  0  0  0
 22 60  1  0  0  0  0
 23 24  1  0  0  0  0
 23 38  2  0  0  0  0
 24 25  2  0  0  0  0
 24 61  1  0  0  0  0
 25 26  1  0  0  0  0
 25 62  1  0  0  0  0
 26 27  1  0  0  0  0
 26 37  2  0  0  0  0
 27 28  2  0  0  0  0
 28 29  1  0  0  0  0
 28 63  1  0  0  0  0
 29 30  1  0  0  0  0
 29 36  2  0  0  0  0
 30 31  1  0  0  0  0
 30 35  2  0  0  0  0
 31 32  2  0  0  0  0
 31 64  1  0  0  0  0
 32 33  1  0  0  0  0
 33 34  1  0  0  0  0
 33 35  1  0  0  0  0
 34 65  1  0  0  0  0
 34 66  1  0  0  0  0
 34 67  1  0  0  0  0
 35 68  1  0  0  0  0
 36 37  1  0  0  0  0
 37 38  1  0  0  0  0
 38 69  1  0  0  0  0
 39 70  1  0  0  0  0
M  END
$$$$
