CHEMBL392987
 OpenBabel04072215373D

 44 46  0  0  0  0  0  0  0  0999 V2000
    2.1047    0.0905    0.0013 C   0  0  0  0  0  0  0  0  0  0  0  0
    0.6648   -0.0276    0.0179 N   0  0  0  0  0  0  0  0  0  0  0  0
   -0.2141    1.0151   -0.0324 C   0  0  0  0  0  0  0  0  0  0  0  0
   -1.4567    0.5940   -0.1015 N   0  0  0  0  0  0  0  0  0  0  0  0
   -1.3668   -0.7638   -0.0584 C   0  0  0  0  0  0  0  0  0  0  0  0
   -2.4588   -1.5506   -0.0504 N   0  0  0  0  0  0  0  0  0  0  0  0
   -3.7304   -1.1111   -0.5808 C   0  0  0  0  0  0  0  0  0  0  0  0
   -4.8072   -1.1233    0.4711 C   0  0  0  0  0  0  0  0  0  0  0  0
   -4.7433   -0.2501    1.5610 C   0  0  0  0  0  0  0  0  0  0  0  0
   -5.7911   -0.2400    2.4678 C   0  0  0  0  0  0  0  0  0  0  0  0
   -6.8812   -1.0309    2.3665 N   0  0  0  0  0  0  0  0  0  0  0  0
   -6.9236   -1.8700    1.3105 C   0  0  0  0  0  0  0  0  0  0  0  0
   -5.9255   -1.9548    0.3513 C   0  0  0  0  0  0  0  0  0  0  0  0
   -0.0615   -1.2001   -0.0159 C   0  0  0  0  0  0  0  0  0  0  0  0
    0.4915   -2.5285   -0.0357 C   0  0  0  0  0  0  0  0  0  0  0  0
    1.5861   -2.7736    0.4564 O   0  0  0  0  0  0  0  0  0  0  0  0
   -0.2890   -3.4376   -0.7317 N   0  0  0  0  0  0  0  0  0  0  0  0
   -0.0396   -4.8137   -0.8863 C   0  0  0  0  0  0  0  0  0  0  0  0
    0.8519   -5.5191   -0.0785 C   0  0  0  0  0  0  0  0  0  0  0  0
    1.0864   -6.8841   -0.2846 C   0  0  0  0  0  0  0  0  0  0  0  0
    0.3986   -7.5706   -1.2789 C   0  0  0  0  0  0  0  0  0  0  0  0
    0.5133   -8.8927   -1.5780 O   0  0  0  0  0  0  0  0  0  0  0  0
    0.9878   -9.8001   -0.5937 C   0  0  0  0  0  0  0  0  0  0  0  0
    0.8756   -9.3448    0.6715 F   0  0  0  0  0  0  0  0  0  0  0  0
    0.2568  -10.9351   -0.6826 F   0  0  0  0  0  0  0  0  0  0  0  0
    2.2778  -10.1111   -0.8404 F   0  0  0  0  0  0  0  0  0  0  0  0
   -0.4938   -6.8651   -2.0925 C   0  0  0  0  0  0  0  0  0  0  0  0
   -0.7251   -5.5002   -1.8904 C   0  0  0  0  0  0  0  0  0  0  0  0
    2.3836    1.1442   -0.0815 H   0  0  0  0  0  0  0  0  0  0  0  0
    2.4912   -0.4544   -0.8646 H   0  0  0  0  0  0  0  0  0  0  0  0
    2.5004   -0.3226    0.9315 H   0  0  0  0  0  0  0  0  0  0  0  0
    0.1003    2.0514   -0.0248 H   0  0  0  0  0  0  0  0  0  0  0  0
   -2.4496   -2.4763    0.3664 H   0  0  0  0  0  0  0  0  0  0  0  0
   -3.9980   -1.8032   -1.3884 H   0  0  0  0  0  0  0  0  0  0  0  0
   -3.6853   -0.1167   -1.0416 H   0  0  0  0  0  0  0  0  0  0  0  0
   -3.8955    0.4168    1.6909 H   0  0  0  0  0  0  0  0  0  0  0  0
   -5.7826    0.4302    3.3225 H   0  0  0  0  0  0  0  0  0  0  0  0
   -7.8149   -2.4880    1.2468 H   0  0  0  0  0  0  0  0  0  0  0  0
   -6.0353   -2.6446   -0.4786 H   0  0  0  0  0  0  0  0  0  0  0  0
   -1.0458   -3.0349   -1.2741 H   0  0  0  0  0  0  0  0  0  0  0  0
    1.3718   -5.0359    0.7442 H   0  0  0  0  0  0  0  0  0  0  0  0
    1.8185   -7.3654    0.3578 H   0  0  0  0  0  0  0  0  0  0  0  0
   -1.0147   -7.3837   -2.8950 H   0  0  0  0  0  0  0  0  0  0  0  0
   -1.4268   -4.9876   -2.5417 H   0  0  0  0  0  0  0  0  0  0  0  0
  1  2  1  0  0  0  0
  1 29  1  0  0  0  0
  1 30  1  0  0  0  0
  1 31  1  0  0  0  0
  2  3  1  0  0  0  0
  2 14  1  0  0  0  0
  3  4  2  0  0  0  0
  3 32  1  0  0  0  0
  4  5  1  0  0  0  0
  5  6  1  0  0  0  0
  5 14  2  0  0  0  0
  6  7  1  0  0  0  0
  6 33  1  0  0  0  0
  7  8  1  0  0  0  0
  7 34  1  0  0  0  0
  7 35  1  0  0  0  0
  8  9  1  0  0  0  0
  8 13  2  0  0  0  0
  9 10  2  0  0  0  0
  9 36  1  0  0  0  0
 10 11  1  0  0  0  0
 10 37  1  0  0  0  0
 11 12  2  0  0  0  0
 12 13  1  0  0  0  0
 12 38  1  0  0  0  0
 13 39  1  0  0  0  0
 14 15  1  0  0  0  0
 15 16  2  0  0  0  0
 15 17  1  0  0  0  0
 17 18  1  0  0  0  0
 17 40  1  0  0  0  0
 18 19  1  0  0  0  0
 18 28  2  0  0  0  0
 19 20  2  0  0  0  0
 19 41  1  0  0  0  0
 20 21  1  0  0  0  0
 20 42  1  0  0  0  0
 21 22  1  0  0  0  0
 21 27  2  0  0  0  0
 22 23  1  0  0  0  0
 23 24  1  0  0  0  0
 23 25  1  0  0  0  0
 23 26  1  0  0  0  0
 27 28  1  0  0  0  0
 27 43  1  0  0  0  0
 28 44  1  0  0  0  0
M  END
$$$$
