CHEMBL4758900
 OpenBabel04072215383D

 53 56  0  0  0  0  0  0  0  0999 V2000
    6.4542   -2.7086    9.5950 C   0  0  0  0  0  0  0  0  0  0  0  0
    6.8979   -3.8507    8.8603 O   0  0  0  0  0  0  0  0  0  0  0  0
    6.1351   -4.1557    7.7621 C   0  0  0  0  0  0  0  0  0  0  0  0
    4.7631   -3.8740    7.7175 C   0  0  0  0  0  0  0  0  0  0  0  0
    4.0054   -4.0579    6.5740 C   0  0  0  0  0  0  0  0  0  0  0  0
    2.7217   -3.6976    6.6264 N   0  0  0  0  0  0  0  0  0  0  0  0
    2.0140   -3.8656    5.5104 C   0  0  0  0  0  0  0  0  0  0  0  0
    2.4703   -4.3827    4.3720 N   0  0  0  0  0  0  0  0  0  0  0  0
    3.7635   -4.7643    4.3366 C   0  0  0  0  0  0  0  0  0  0  0  0
    4.2539   -5.3772    3.1535 N   0  0  0  0  0  0  0  0  0  0  0  0
    3.4276   -5.8754    2.1207 C   0  0  0  0  0  0  0  0  0  0  0  0
    3.8054   -5.7372    0.7868 C   0  0  0  0  0  0  0  0  0  0  0  0
    2.9385   -6.1358   -0.2388 C   0  0  0  0  0  0  0  0  0  0  0  0
    1.6882   -6.6977    0.0454 C   0  0  0  0  0  0  0  0  0  0  0  0
    0.7163   -7.0021   -0.9366 N   0  0  0  0  0  0  0  0  0  0  0  0
    0.8411   -6.7550   -2.2899 C   0  0  0  0  0  0  0  0  0  0  0  0
    1.8435   -6.3288   -2.8545 O   0  0  0  0  0  0  0  0  0  0  0  0
   -0.3459   -7.0120   -3.1549 C   0  0  0  0  0  0  0  0  0  0  0  0
   -1.6697   -6.9907   -2.7042 C   0  0  0  0  0  0  0  0  0  0  0  0
   -2.7154   -7.1613   -3.6204 C   0  0  0  0  0  0  0  0  0  0  0  0
   -2.4472   -7.3292   -4.9833 C   0  0  0  0  0  0  0  0  0  0  0  0
   -1.1285   -7.3356   -5.4503 C   0  0  0  0  0  0  0  0  0  0  0  0
   -0.7916   -7.4565   -6.9165 C   0  0  0  0  0  0  0  0  0  0  0  0
   -1.8851   -7.5218   -7.7226 F   0  0  0  0  0  0  0  0  0  0  0  0
   -0.0572   -6.4008   -7.3664 F   0  0  0  0  0  0  0  0  0  0  0  0
   -0.0544   -8.5678   -7.1905 F   0  0  0  0  0  0  0  0  0  0  0  0
   -0.0892   -7.1909   -4.5237 C   0  0  0  0  0  0  0  0  0  0  0  0
    1.3595   -6.9387    1.3785 C   0  0  0  0  0  0  0  0  0  0  0  0
    2.2295   -6.5448    2.3970 C   0  0  0  0  0  0  0  0  0  0  0  0
    4.6154   -4.5969    5.4397 C   0  0  0  0  0  0  0  0  0  0  0  0
    5.9867   -4.9466    5.4909 C   0  0  0  0  0  0  0  0  0  0  0  0
    6.7417   -4.7491    6.6512 C   0  0  0  0  0  0  0  0  0  0  0  0
    8.0540   -5.1165    6.5254 O   0  0  0  0  0  0  0  0  0  0  0  0
    8.6752   -5.6460    7.6922 C   0  0  0  0  0  0  0  0  0  0  0  0
    7.2882   -2.3493   10.2031 H   0  0  0  0  0  0  0  0  0  0  0  0
    5.6376   -2.9824   10.2715 H   0  0  0  0  0  0  0  0  0  0  0  0
    6.1503   -1.8891    8.9320 H   0  0  0  0  0  0  0  0  0  0  0  0
    4.2468   -3.4819    8.5895 H   0  0  0  0  0  0  0  0  0  0  0  0
    0.9750   -3.5578    5.5292 H   0  0  0  0  0  0  0  0  0  0  0  0
    5.0451   -4.8499    2.7973 H   0  0  0  0  0  0  0  0  0  0  0  0
    4.7525   -5.2798    0.5156 H   0  0  0  0  0  0  0  0  0  0  0  0
    3.2753   -5.9653   -1.2548 H   0  0  0  0  0  0  0  0  0  0  0  0
   -0.1444   -7.4076   -0.5956 H   0  0  0  0  0  0  0  0  0  0  0  0
   -1.9172   -6.8028   -1.6657 H   0  0  0  0  0  0  0  0  0  0  0  0
   -3.7484   -7.1342   -3.2771 H   0  0  0  0  0  0  0  0  0  0  0  0
   -3.2764   -7.4365   -5.6832 H   0  0  0  0  0  0  0  0  0  0  0  0
    0.9435   -7.1895   -4.8803 H   0  0  0  0  0  0  0  0  0  0  0  0
    0.4178   -7.4018    1.6560 H   0  0  0  0  0  0  0  0  0  0  0  0
    1.9410   -6.7277    3.4321 H   0  0  0  0  0  0  0  0  0  0  0  0
    6.4763   -5.3820    4.6223 H   0  0  0  0  0  0  0  0  0  0  0  0
    9.4333   -6.3645    7.3629 H   0  0  0  0  0  0  0  0  0  0  0  0
    7.9781   -6.1859    8.3422 H   0  0  0  0  0  0  0  0  0  0  0  0
    9.1898   -4.8494    8.2374 H   0  0  0  0  0  0  0  0  0  0  0  0
  1  2  1  0  0  0  0
  1 35  1  0  0  0  0
  1 36  1  0  0  0  0
  1 37  1  0  0  0  0
  2  3  1  0  0  0  0
  3  4  1  0  0  0  0
  3 32  2  0  0  0  0
  4  5  2  0  0  0  0
  4 38  1  0  0  0  0
  5  6  1  0  0  0  0
  5 30  1  0  0  0  0
  6  7  2  0  0  0  0
  7  8  1  0  0  0  0
  7 39  1  0  0  0  0
  8  9  2  0  0  0  0
  9 10  1  0  0  0  0
  9 30  1  0  0  0  0
 10 11  1  0  0  0  0
 10 40  1  0  0  0  0
 11 12  1  0  0  0  0
 11 29  2  0  0  0  0
 12 13  2  0  0  0  0
 12 41  1  0  0  0  0
 13 14  1  0  0  0  0
 13 42  1  0  0  0  0
 14 15  1  0  0  0  0
 14 28  2  0  0  0  0
 15 16  1  0  0  0  0
 15 43  1  0  0  0  0
 16 17  2  0  0  0  0
 16 18  1  0  0  0  0
 18 19  1  0  0  0  0
 18 27  2  0  0  0  0
 19 20  2  0  0  0  0
 19 44  1  0  0  0  0
 20 21  1  0  0  0  0
 20 45  1  0  0  0  0
 21 22  2  0  0  0  0
 21 46  1  0  0  0  0
 22 23  1  0  0  0  0
 22 27  1  0  0  0  0
 23 24  1  0  0  0  0
 23 25  1  0  0  0  0
 23 26  1  0  0  0  0
 27 47  1  0  0  0  0
 28 29  1  0  0  0  0
 28 48  1  0  0  0  0
 29 49  1  0  0  0  0
 30 31  2  0  0  0  0
 31 32  1  0  0  0  0
 31 50  1  0  0  0  0
 32 33  1  0  0  0  0
 33 34  1  0  0  0  0
 34 51  1  0  0  0  0
 34 52  1  0  0  0  0
 34 53  1  0  0  0  0
M  END
$$$$
