CHEMBL219253
 OpenBabel04072215363D

 66 72  0  0  0  0  0  0  0  0999 V2000
    3.9168   -0.4480   -3.2659 C   0  0  0  0  0  0  0  0  0  0  0  0
    3.2991    0.4597   -2.2125 C   0  0  0  0  0  0  0  0  0  0  0  0
    3.7323    0.1280   -0.7717 C   0  0  0  0  0  0  0  0  0  0  0  0
    5.1628    0.2791   -0.5189 N   0  0  0  0  0  0  0  0  0  0  0  0
    5.8393    1.5101   -0.6297 C   0  0  0  0  0  0  0  0  0  0  0  0
    5.3627    2.8196   -0.7944 C   0  0  0  0  0  0  0  0  0  0  0  0
    6.2897    3.8522   -1.0072 C   0  0  0  0  0  0  0  0  0  0  0  0
    7.6659    3.6257   -1.0084 C   0  0  0  0  0  0  0  0  0  0  0  0
    8.6513    4.6258   -1.1870 N   0  0  0  0  0  0  0  0  0  0  0  0
    8.4133    5.9633   -1.4612 C   0  0  0  0  0  0  0  0  0  0  0  0
    7.2979    6.4425   -1.6205 O   0  0  0  0  0  0  0  0  0  0  0  0
    9.5825    6.7038   -1.5322 N   0  0  0  0  0  0  0  0  0  0  0  0
    9.6191    8.1179   -1.7128 C   0  0  0  0  0  0  0  0  0  0  0  0
    8.5245    8.9290   -1.3854 C   0  0  0  0  0  0  0  0  0  0  0  0
    8.5236   10.2948   -1.6720 C   0  0  0  0  0  0  0  0  0  0  0  0
    9.6363   10.8824   -2.2595 C   0  0  0  0  0  0  0  0  0  0  0  0
   10.7669   10.1094   -2.5266 C   0  0  0  0  0  0  0  0  0  0  0  0
   10.7627    8.7365   -2.2441 C   0  0  0  0  0  0  0  0  0  0  0  0
   12.1912    7.8264   -2.5999 Cl  0  0  0  0  0  0  0  0  0  0  0  0
    8.1301    2.3156   -0.8384 C   0  0  0  0  0  0  0  0  0  0  0  0
    7.2152    1.2521   -0.6869 C   0  0  0  0  0  0  0  0  0  0  0  0
    7.2418   -0.1291   -0.6821 C   0  0  0  0  0  0  0  0  0  0  0  0
    8.3328   -0.8611   -1.1887 C   0  0  0  0  0  0  0  0  0  0  0  0
    8.0353   -2.1713   -1.6165 C   0  0  0  0  0  0  0  0  0  0  0  0
    6.7798   -2.7841   -1.4474 C   0  0  0  0  0  0  0  0  0  0  0  0
    6.0026   -2.1833   -0.4056 C   0  0  0  0  0  0  0  0  0  0  0  0
    6.0747   -0.7719   -0.4003 C   0  0  0  0  0  0  0  0  0  0  0  0
    6.0076   -3.0594    0.9177 C   0  0  0  0  0  0  0  0  0  0  0  0
    7.0354   -4.2680    0.8963 C   0  0  0  0  0  0  0  0  0  0  0  0
    6.8112   -4.9919   -0.3838 C   0  0  0  0  0  0  0  0  0  0  0  0
    6.4080   -6.2506   -0.5512 N   0  0  0  0  0  0  0  0  0  0  0  0
    5.9454   -6.2423   -1.8276 N   0  0  0  0  0  0  0  0  0  0  0  0
    5.2883   -7.4121   -2.3581 C   0  0  0  0  0  0  0  0  0  0  0  0
    5.9670   -4.9986   -2.4125 C   0  0  0  0  0  0  0  0  0  0  0  0
    6.6874   -4.2173   -1.5475 C   0  0  0  0  0  0  0  0  0  0  0  0
    9.2711   -2.7727   -2.0618 C   0  0  0  0  0  0  0  0  0  0  0  0
    9.5763   -3.8787   -2.4669 O   0  0  0  0  0  0  0  0  0  0  0  0
   10.2133   -1.7556   -1.9136 N   0  0  0  0  0  0  0  0  0  0  0  0
    9.7241   -0.4939   -1.4095 C   0  0  0  0  0  0  0  0  0  0  0  0
    3.5231   -0.1974   -4.2573 H   0  0  0  0  0  0  0  0  0  0  0  0
    3.6851   -1.4976   -3.0641 H   0  0  0  0  0  0  0  0  0  0  0  0
    5.0037   -0.3318   -3.3053 H   0  0  0  0  0  0  0  0  0  0  0  0
    2.2068    0.3794   -2.2792 H   0  0  0  0  0  0  0  0  0  0  0  0
    3.5419    1.4973   -2.4671 H   0  0  0  0  0  0  0  0  0  0  0  0
    3.4413   -0.8962   -0.5164 H   0  0  0  0  0  0  0  0  0  0  0  0
    3.2173    0.7973   -0.0718 H   0  0  0  0  0  0  0  0  0  0  0  0
    4.2996    3.0445   -0.8188 H   0  0  0  0  0  0  0  0  0  0  0  0
    5.8795    4.8429   -1.1759 H   0  0  0  0  0  0  0  0  0  0  0  0
    9.6105    4.3501   -1.0976 H   0  0  0  0  0  0  0  0  0  0  0  0
   10.4355    6.2178   -1.7751 H   0  0  0  0  0  0  0  0  0  0  0  0
    7.6417    8.5187   -0.9034 H   0  0  0  0  0  0  0  0  0  0  0  0
    7.6400   10.8854   -1.4419 H   0  0  0  0  0  0  0  0  0  0  0  0
    9.6216   11.9418   -2.5026 H   0  0  0  0  0  0  0  0  0  0  0  0
   11.6399   10.5826   -2.9686 H   0  0  0  0  0  0  0  0  0  0  0  0
    9.1920    2.1127   -0.8521 H   0  0  0  0  0  0  0  0  0  0  0  0
    5.0000   -3.4673    1.0548 H   0  0  0  0  0  0  0  0  0  0  0  0
    6.2501   -2.4230    1.7763 H   0  0  0  0  0  0  0  0  0  0  0  0
    6.9332   -4.9210    1.7664 H   0  0  0  0  0  0  0  0  0  0  0  0
    8.0652   -3.8766    0.9015 H   0  0  0  0  0  0  0  0  0  0  0  0
    5.5098   -8.2735   -1.7233 H   0  0  0  0  0  0  0  0  0  0  0  0
    5.6576   -7.5895   -3.3709 H   0  0  0  0  0  0  0  0  0  0  0  0
    4.2120   -7.2210   -2.3703 H   0  0  0  0  0  0  0  0  0  0  0  0
    5.4357   -4.7878   -3.3302 H   0  0  0  0  0  0  0  0  0  0  0  0
   11.1866   -1.9721   -2.0593 H   0  0  0  0  0  0  0  0  0  0  0  0
    9.8452    0.2662   -2.1819 H   0  0  0  0  0  0  0  0  0  0  0  0
   10.2389   -0.2372   -0.4810 H   0  0  0  0  0  0  0  0  0  0  0  0
  1  2  1  0  0  0  0
  1 40  1  0  0  0  0
  1 41  1  0  0  0  0
  1 42  1  0  0  0  0
  2  3  1  0  0  0  0
  2 43  1  0  0  0  0
  2 44  1  0  0  0  0
  3  4  1  0  0  0  0
  3 45  1  0  0  0  0
  3 46  1  0  0  0  0
  4  5  1  0  0  0  0
  4 27  1  0  0  0  0
  5  6  1  0  0  0  0
  5 21  2  0  0  0  0
  6  7  2  0  0  0  0
  6 47  1  0  0  0  0
  7  8  1  0  0  0  0
  7 48  1  0  0  0  0
  8  9  1  0  0  0  0
  8 20  2  0  0  0  0
  9 10  1  0  0  0  0
  9 49  1  0  0  0  0
 10 11  2  0  0  0  0
 10 12  1  0  0  0  0
 12 13  1  0  0  0  0
 12 50  1  0  0  0  0
 13 14  1  0  0  0  0
 13 18  2  0  0  0  0
 14 15  2  0  0  0  0
 14 51  1  0  0  0  0
 15 16  1  0  0  0  0
 15 52  1  0  0  0  0
 16 17  2  0  0  0  0
 16 53  1  0  0  0  0
 17 18  1  0  0  0  0
 17 54  1  0  0  0  0
 18 19  1  0  0  0  0
 20 21  1  0  0  0  0
 20 55  1  0  0  0  0
 21 22  1  0  0  0  0
 22 23  1  0  0  0  0
 22 27  2  0  0  0  0
 23 24  2  0  0  0  0
 23 39  1  0  0  0  0
 24 25  1  0  0  0  0
 24 36  1  0  0  0  0
 25 26  2  0  0  0  0
 25 35  1  0  0  0  0
 26 27  1  0  0  0  0
 26 28  1  0  0  0  0
 28 29  1  0  0  0  0
 28 56  1  0  0  0  0
 28 57  1  0  0  0  0
 29 30  1  0  0  0  0
 29 58  1  0  0  0  0
 29 59  1  0  0  0  0
 30 31  2  0  0  0  0
 30 35  1  0  0  0  0
 31 32  1  0  0  0  0
 32 33  1  0  0  0  0
 32 34  1  0  0  0  0
 33 60  1  0  0  0  0
 33 61  1  0  0  0  0
 33 62  1  0  0  0  0
 34 35  2  0  0  0  0
 34 63  1  0  0  0  0
 36 37  2  0  0  0  0
 36 38  1  0  0  0  0
 38 39  1  0  0  0  0
 38 64  1  0  0  0  0
 39 65  1  0  0  0  0
 39 66  1  0  0  0  0
M  END
$$$$
