CHEMBL3706817
 OpenBabel04072215373D

 60 63  0  0  0  0  0  0  0  0999 V2000
   10.7841   -8.4573    3.9301 C   0  0  0  0  0  0  0  0  0  0  0  0
   10.5754   -7.2856    4.0825 C   0  0  0  0  0  0  0  0  0  0  0  0
   10.3322   -5.8516    4.2814 C   0  0  0  0  0  0  0  0  0  0  0  0
   10.5511   -5.1666    3.0565 O   0  0  0  0  0  0  0  0  0  0  0  0
   10.3490   -3.8064    3.0287 C   0  0  0  0  0  0  0  0  0  0  0  0
   10.4315   -2.9932    4.0904 C   0  0  0  0  0  0  0  0  0  0  0  0
   10.2156   -1.5375    3.9924 C   0  0  0  0  0  0  0  0  0  0  0  0
   10.2264   -0.8266    4.9938 O   0  0  0  0  0  0  0  0  0  0  0  0
   10.0141   -0.9468    2.6405 C   0  0  0  0  0  0  0  0  0  0  0  0
    9.9679    0.4382    2.5991 N   0  0  0  0  0  0  0  0  0  0  0  0
   10.8188    1.1809    1.7392 C   0  0  0  0  0  0  0  0  0  0  0  0
   11.7478    0.5246    1.0157 N   0  0  0  0  0  0  0  0  0  0  0  0
   12.4974    1.2580    0.1912 C   0  0  0  0  0  0  0  0  0  0  0  0
   12.4010    2.5772    0.0156 N   0  0  0  0  0  0  0  0  0  0  0  0
   11.4550    3.2055    0.7210 C   0  0  0  0  0  0  0  0  0  0  0  0
   11.2449    4.5532    0.4990 C   0  0  0  0  0  0  0  0  0  0  0  0
   10.1706    5.2953    1.0601 C   0  0  0  0  0  0  0  0  0  0  0  0
    9.8661    6.5613    0.5678 O   0  0  0  0  0  0  0  0  0  0  0  0
   10.4536    6.7838   -0.7383 C   0  0  0  0  0  0  0  0  0  0  0  0
    9.8849    7.9348   -1.5629 C   0  0  0  0  0  0  0  0  0  0  0  0
   10.4552    7.8101   -3.0021 C   0  0  0  0  0  0  0  0  0  0  0  0
    9.9812    8.8157   -3.9668 N   0  0  0  0  0  0  0  0  0  0  0  0
    8.5286    8.7513   -4.1917 C   0  0  0  0  0  0  0  0  0  0  0  0
    8.3453    7.7182   -5.2842 C   0  0  0  0  0  0  0  0  0  0  0  0
    9.4844    8.0507   -6.2225 C   0  0  0  0  0  0  0  0  0  0  0  0
   10.5856    8.5839   -5.3054 C   0  0  0  0  0  0  0  0  0  0  0  0
    9.4100    4.6721    2.0540 C   0  0  0  0  0  0  0  0  0  0  0  0
    8.3975    5.0924    2.8563 O   0  0  0  0  0  0  0  0  0  0  0  0
    7.8835    6.4032    2.8364 C   0  0  0  0  0  0  0  0  0  0  0  0
    9.6549    3.3145    2.3205 C   0  0  0  0  0  0  0  0  0  0  0  0
   10.6284    2.5631    1.6289 C   0  0  0  0  0  0  0  0  0  0  0  0
    9.8928   -1.7623    1.5878 C   0  0  0  0  0  0  0  0  0  0  0  0
   10.0190   -3.2191    1.7000 C   0  0  0  0  0  0  0  0  0  0  0  0
    9.8480   -3.9185    0.7019 O   0  0  0  0  0  0  0  0  0  0  0  0
   10.9764   -9.4912    3.7836 H   0  0  0  0  0  0  0  0  0  0  0  0
   11.0140   -5.4832    5.0549 H   0  0  0  0  0  0  0  0  0  0  0  0
    9.2953   -5.6898    4.5988 H   0  0  0  0  0  0  0  0  0  0  0  0
   10.6772   -3.3245    5.0900 H   0  0  0  0  0  0  0  0  0  0  0  0
   10.0238    0.8253    3.5453 H   0  0  0  0  0  0  0  0  0  0  0  0
   13.2433    0.7334   -0.3953 H   0  0  0  0  0  0  0  0  0  0  0  0
   11.9393    4.9975   -0.2092 H   0  0  0  0  0  0  0  0  0  0  0  0
   10.2933    5.8835   -1.3479 H   0  0  0  0  0  0  0  0  0  0  0  0
   11.5272    6.9757   -0.6134 H   0  0  0  0  0  0  0  0  0  0  0  0
   10.1656    8.8968   -1.1200 H   0  0  0  0  0  0  0  0  0  0  0  0
    8.7948    7.8733   -1.5417 H   0  0  0  0  0  0  0  0  0  0  0  0
   10.2602    6.7986   -3.3844 H   0  0  0  0  0  0  0  0  0  0  0  0
   11.5491    7.9001   -2.9306 H   0  0  0  0  0  0  0  0  0  0  0  0
    8.1962    9.7339   -4.5485 H   0  0  0  0  0  0  0  0  0  0  0  0
    7.9341    8.5258   -3.3052 H   0  0  0  0  0  0  0  0  0  0  0  0
    7.3677    7.7879   -5.7681 H   0  0  0  0  0  0  0  0  0  0  0  0
    8.4607    6.7015   -4.8895 H   0  0  0  0  0  0  0  0  0  0  0  0
    9.1680    8.8351   -6.9212 H   0  0  0  0  0  0  0  0  0  0  0  0
    9.8006    7.1823   -6.8084 H   0  0  0  0  0  0  0  0  0  0  0  0
   10.9686    9.5307   -5.7036 H   0  0  0  0  0  0  0  0  0  0  0  0
   11.4337    7.8879   -5.2808 H   0  0  0  0  0  0  0  0  0  0  0  0
    7.1507    6.4474    3.6548 H   0  0  0  0  0  0  0  0  0  0  0  0
    7.3414    6.5960    1.9095 H   0  0  0  0  0  0  0  0  0  0  0  0
    8.6468    7.1543    3.0461 H   0  0  0  0  0  0  0  0  0  0  0  0
    9.0248    2.8240    3.0617 H   0  0  0  0  0  0  0  0  0  0  0  0
    9.7207   -1.3777    0.5881 H   0  0  0  0  0  0  0  0  0  0  0  0
  1  2  3  0  0  0  0
  1 35  1  0  0  0  0
  2  3  1  0  0  0  0
  3  4  1  0  0  0  0
  3 36  1  0  0  0  0
  3 37  1  0  0  0  0
  4  5  1  0  0  0  0
  5  6  2  0  0  0  0
  5 33  1  0  0  0  0
  6  7  1  0  0  0  0
  6 38  1  0  0  0  0
  7  8  2  0  0  0  0
  7  9  1  0  0  0  0
  9 10  1  0  0  0  0
  9 32  2  0  0  0  0
 10 11  1  0  0  0  0
 10 39  1  0  0  0  0
 11 12  1  0  0  0  0
 11 31  2  0  0  0  0
 12 13  2  0  0  0  0
 13 14  1  0  0  0  0
 13 40  1  0  0  0  0
 14 15  2  0  0  0  0
 15 16  1  0  0  0  0
 15 31  1  0  0  0  0
 16 17  2  0  0  0  0
 16 41  1  0  0  0  0
 17 18  1  0  0  0  0
 17 27  1  0  0  0  0
 18 19  1  0  0  0  0
 19 20  1  0  0  0  0
 19 42  1  0  0  0  0
 19 43  1  0  0  0  0
 20 21  1  0  0  0  0
 20 44  1  0  0  0  0
 20 45  1  0  0  0  0
 21 22  1  0  0  0  0
 21 46  1  0  0  0  0
 21 47  1  0  0  0  0
 22 23  1  0  0  0  0
 22 26  1  0  0  0  0
 23 24  1  0  0  0  0
 23 48  1  0  0  0  0
 23 49  1  0  0  0  0
 24 25  1  0  0  0  0
 24 50  1  0  0  0  0
 24 51  1  0  0  0  0
 25 26  1  0  0  0  0
 25 52  1  0  0  0  0
 25 53  1  0  0  0  0
 26 54  1  0  0  0  0
 26 55  1  0  0  0  0
 27 28  1  0  0  0  0
 27 30  2  0  0  0  0
 28 29  1  0  0  0  0
 29 56  1  0  0  0  0
 29 57  1  0  0  0  0
 29 58  1  0  0  0  0
 30 31  1  0  0  0  0
 30 59  1  0  0  0  0
 32 33  1  0  0  0  0
 32 60  1  0  0  0  0
 33 34  2  0  0  0  0
M  END
$$$$
