CHEMBL2322143
 OpenBabel04072215363D

 35 38  0  0  0  0  0  0  0  0999 V2000
   -2.9630   -0.7752   -0.0294 C   0  0  0  0  0  0  0  0  0  0  0  0
   -1.7777   -1.4877   -0.0598 C   0  0  0  0  0  0  0  0  0  0  0  0
   -0.7468   -0.5319   -0.0479 C   0  0  0  0  0  0  0  0  0  0  0  0
   -1.3078    0.7284   -0.0269 C   0  0  0  0  0  0  0  0  0  0  0  0
   -0.6956    1.9430   -0.0171 N   0  0  0  0  0  0  0  0  0  0  0  0
    0.6131    1.8711   -0.0349 C   0  0  0  0  0  0  0  0  0  0  0  0
    1.3465    0.6181   -0.0600 C   0  0  0  0  0  0  0  0  0  0  0  0
    2.6964    0.3542   -0.0862 C   0  0  0  0  0  0  0  0  0  0  0  0
    2.8386   -1.0536   -0.0912 C   0  0  0  0  0  0  0  0  0  0  0  0
    1.5748   -1.6280   -0.0348 C   0  0  0  0  0  0  0  0  0  0  0  0
    1.1845   -3.0756    0.0886 C   0  0  0  0  0  0  0  0  0  0  0  0
    2.2358   -3.8958    0.8555 C   0  0  0  0  0  0  0  0  0  0  0  0
    1.7641   -5.3342    1.0466 C   0  0  0  0  0  0  0  0  0  0  0  0
    1.4370   -5.9942   -0.2901 C   0  0  0  0  0  0  0  0  0  0  0  0
    0.4448   -5.1690   -1.1076 C   0  0  0  0  0  0  0  0  0  0  0  0
    0.9088   -3.7210   -1.2777 C   0  0  0  0  0  0  0  0  0  0  0  0
    0.6637   -0.5877   -0.0553 N   0  0  0  0  0  0  0  0  0  0  0  0
   -2.6652    0.5692   -0.0113 N   0  0  0  0  0  0  0  0  0  0  0  0
   -3.9932   -1.1067   -0.0207 H   0  0  0  0  0  0  0  0  0  0  0  0
   -1.7082   -2.5651   -0.0880 H   0  0  0  0  0  0  0  0  0  0  0  0
    1.1883    2.8112   -0.0265 H   0  0  0  0  0  0  0  0  0  0  0  0
    3.4932    1.0868   -0.0878 H   0  0  0  0  0  0  0  0  0  0  0  0
    3.7772   -1.5955   -0.0899 H   0  0  0  0  0  0  0  0  0  0  0  0
    0.2716   -3.1292    0.6920 H   0  0  0  0  0  0  0  0  0  0  0  0
    2.4278   -3.4429    1.8364 H   0  0  0  0  0  0  0  0  0  0  0  0
    3.1920   -3.9020    0.3160 H   0  0  0  0  0  0  0  0  0  0  0  0
    0.8733   -5.3422    1.6873 H   0  0  0  0  0  0  0  0  0  0  0  0
    2.5367   -5.9104    1.5663 H   0  0  0  0  0  0  0  0  0  0  0  0
    1.0274   -6.9949   -0.1140 H   0  0  0  0  0  0  0  0  0  0  0  0
    2.3615   -6.1233   -0.8662 H   0  0  0  0  0  0  0  0  0  0  0  0
   -0.5315   -5.1778   -0.6070 H   0  0  0  0  0  0  0  0  0  0  0  0
    0.3018   -5.6322   -2.0902 H   0  0  0  0  0  0  0  0  0  0  0  0
    0.1419   -3.1607   -1.8258 H   0  0  0  0  0  0  0  0  0  0  0  0
    1.8126   -3.6975   -1.9014 H   0  0  0  0  0  0  0  0  0  0  0  0
   -3.3264    1.3306    0.0108 H   0  0  0  0  0  0  0  0  0  0  0  0
  1  2  2  0  0  0  0
  1 18  1  0  0  0  0
  1 19  1  0  0  0  0
  2  3  1  0  0  0  0
  2 20  1  0  0  0  0
  3  4  2  0  0  0  0
  3 17  1  0  0  0  0
  4  5  1  0  0  0  0
  4 18  1  0  0  0  0
  5  6  2  0  0  0  0
  6  7  1  0  0  0  0
  6 21  1  0  0  0  0
  7  8  2  0  0  0  0
  7 17  1  0  0  0  0
  8  9  1  0  0  0  0
  8 22  1  0  0  0  0
  9 10  2  0  0  0  0
  9 23  1  0  0  0  0
 10 11  1  0  0  0  0
 10 17  1  0  0  0  0
 11 12  1  0  0  0  0
 11 16  1  0  0  0  0
 11 24  1  0  0  0  0
 12 13  1  0  0  0  0
 12 25  1  0  0  0  0
 12 26  1  0  0  0  0
 13 14  1  0  0  0  0
 13 27  1  0  0  0  0
 13 28  1  0  0  0  0
 14 15  1  0  0  0  0
 14 29  1  0  0  0  0
 14 30  1  0  0  0  0
 15 16  1  0  0  0  0
 15 31  1  0  0  0  0
 15 32  1  0  0  0  0
 16 33  1  0  0  0  0
 16 34  1  0  0  0  0
 18 35  1  0  0  0  0
M  END
$$$$
