CHEMBL428225
 OpenBabel04072215383D

 39 42  0  0  0  0  0  0  0  0999 V2000
    1.2916    1.6010   -1.3506 C   0  0  0  0  0  0  0  0  0  0  0  0
    2.4510    1.5468   -2.1751 O   0  0  0  0  0  0  0  0  0  0  0  0
    3.1461    0.3640   -2.1734 C   0  0  0  0  0  0  0  0  0  0  0  0
    2.8323   -0.7494   -1.3873 C   0  0  0  0  0  0  0  0  0  0  0  0
    3.5856   -1.9273   -1.4702 C   0  0  0  0  0  0  0  0  0  0  0  0
    4.6698   -1.9712   -2.3531 C   0  0  0  0  0  0  0  0  0  0  0  0
    5.5284   -3.0026   -2.6178 N   0  0  0  0  0  0  0  0  0  0  0  0
    6.3847   -2.5310   -3.5016 C   0  0  0  0  0  0  0  0  0  0  0  0
    7.5352   -3.2858   -4.0872 C   0  0  0  0  0  0  0  0  0  0  0  0
    8.4048   -2.6858   -4.9174 N   0  0  0  0  0  0  0  0  0  0  0  0
    9.2882   -3.6576   -5.2063 N   0  0  0  0  0  0  0  0  0  0  0  0
    9.0112   -4.8513   -4.6090 C   0  0  0  0  0  0  0  0  0  0  0  0
    7.8583   -4.6573   -3.8830 C   0  0  0  0  0  0  0  0  0  0  0  0
    7.1371   -5.6409   -3.1379 C   0  0  0  0  0  0  0  0  0  0  0  0
    7.4298   -6.9491   -3.0487 C   0  0  0  0  0  0  0  0  0  0  0  0
    6.5844   -7.9301   -2.3521 C   0  0  0  0  0  0  0  0  0  0  0  0
    5.1937   -7.8116   -2.2657 C   0  0  0  0  0  0  0  0  0  0  0  0
    4.4448   -8.8114   -1.6471 C   0  0  0  0  0  0  0  0  0  0  0  0
    5.1105   -9.9143   -1.1415 C   0  0  0  0  0  0  0  0  0  0  0  0
    6.4473  -10.0788   -1.2145 N   0  0  0  0  0  0  0  0  0  0  0  0
    7.1478   -9.0880   -1.8196 C   0  0  0  0  0  0  0  0  0  0  0  0
    6.0933   -1.2277   -3.8203 N   0  0  0  0  0  0  0  0  0  0  0  0
    4.9841   -0.8487   -3.1078 C   0  0  0  0  0  0  0  0  0  0  0  0
    4.2458    0.3367   -3.0487 C   0  0  0  0  0  0  0  0  0  0  0  0
    0.8204    2.5779   -1.4921 H   0  0  0  0  0  0  0  0  0  0  0  0
    1.5604    1.5101   -0.2927 H   0  0  0  0  0  0  0  0  0  0  0  0
    0.5622    0.8362   -1.6399 H   0  0  0  0  0  0  0  0  0  0  0  0
    1.9990   -0.7431   -0.6925 H   0  0  0  0  0  0  0  0  0  0  0  0
    3.3403   -2.7937   -0.8664 H   0  0  0  0  0  0  0  0  0  0  0  0
   10.0583   -3.4399   -5.8306 H   0  0  0  0  0  0  0  0  0  0  0  0
    9.6421   -5.7147   -4.7666 H   0  0  0  0  0  0  0  0  0  0  0  0
    6.2488   -5.2810   -2.6238 H   0  0  0  0  0  0  0  0  0  0  0  0
    8.3208   -7.3507   -3.5223 H   0  0  0  0  0  0  0  0  0  0  0  0
    4.6740   -6.9556   -2.6874 H   0  0  0  0  0  0  0  0  0  0  0  0
    3.3663   -8.7316   -1.5713 H   0  0  0  0  0  0  0  0  0  0  0  0
    4.5686  -10.7195   -0.6544 H   0  0  0  0  0  0  0  0  0  0  0  0
    8.2194   -9.2642   -1.8648 H   0  0  0  0  0  0  0  0  0  0  0  0
    6.6247   -0.6752   -4.4777 H   0  0  0  0  0  0  0  0  0  0  0  0
    4.4995    1.2010   -3.6532 H   0  0  0  0  0  0  0  0  0  0  0  0
  1  2  1  0  0  0  0
  1 25  1  0  0  0  0
  1 26  1  0  0  0  0
  1 27  1  0  0  0  0
  2  3  1  0  0  0  0
  3  4  1  0  0  0  0
  3 24  2  0  0  0  0
  4  5  2  0  0  0  0
  4 28  1  0  0  0  0
  5  6  1  0  0  0  0
  5 29  1  0  0  0  0
  6  7  1  0  0  0  0
  6 23  2  0  0  0  0
  7  8  2  0  0  0  0
  8  9  1  0  0  0  0
  8 22  1  0  0  0  0
  9 10  2  0  0  0  0
  9 13  1  0  0  0  0
 10 11  1  0  0  0  0
 11 12  1  0  0  0  0
 11 30  1  0  0  0  0
 12 13  2  0  0  0  0
 12 31  1  0  0  0  0
 13 14  1  0  0  0  0
 14 15  2  0  0  0  0
 14 32  1  0  0  0  0
 15 16  1  0  0  0  0
 15 33  1  0  0  0  0
 16 17  1  0  0  0  0
 16 21  2  0  0  0  0
 17 18  2  0  0  0  0
 17 34  1  0  0  0  0
 18 19  1  0  0  0  0
 18 35  1  0  0  0  0
 19 20  2  0  0  0  0
 19 36  1  0  0  0  0
 20 21  1  0  0  0  0
 21 37  1  0  0  0  0
 22 23  1  0  0  0  0
 22 38  1  0  0  0  0
 23 24  1  0  0  0  0
 24 39  1  0  0  0  0
M  END
$$$$
