CHEMBL1971271
 OpenBabel04072215363D

 43 46  0  0  0  0  0  0  0  0999 V2000
    6.6618   -4.2650   -4.2022 C   0  0  0  0  0  0  0  0  0  0  0  0
    6.4407   -4.0130   -2.8198 O   0  0  0  0  0  0  0  0  0  0  0  0
    7.3022   -3.1532   -2.1930 C   0  0  0  0  0  0  0  0  0  0  0  0
    8.3999   -2.5288   -2.7769 C   0  0  0  0  0  0  0  0  0  0  0  0
    9.1879   -1.6389   -2.0377 C   0  0  0  0  0  0  0  0  0  0  0  0
    8.8731   -1.3737   -0.7045 C   0  0  0  0  0  0  0  0  0  0  0  0
    7.7803   -2.0123   -0.1149 C   0  0  0  0  0  0  0  0  0  0  0  0
    7.2838   -1.5617    1.5351 S   0  0  0  0  0  0  0  0  0  0  0  0
    7.7850   -0.2301    1.8150 O   0  0  0  0  0  0  0  0  0  0  0  0
    5.8759   -1.8733    1.6628 O   0  0  0  0  0  0  0  0  0  0  0  0
    8.0796   -2.6486    2.5300 N   0  0  0  0  0  0  0  0  0  0  0  0
    9.4953   -2.7594    2.5415 C   0  0  0  0  0  0  0  0  0  0  0  0
   10.3183   -1.8464    3.2303 C   0  0  0  0  0  0  0  0  0  0  0  0
   11.6966   -2.1062    3.4131 C   0  0  0  0  0  0  0  0  0  0  0  0
   12.2153   -3.3121    2.9497 C   0  0  0  0  0  0  0  0  0  0  0  0
   11.3437   -4.2082    2.3080 C   0  0  0  0  0  0  0  0  0  0  0  0
   10.0254   -3.9238    2.0101 C   0  0  0  0  0  0  0  0  0  0  0  0
   11.8625   -5.5607    2.5787 C   0  0  0  0  0  0  0  0  0  0  0  0
   11.5661   -6.7132    2.0388 N   0  0  0  0  0  0  0  0  0  0  0  0
   10.6880   -6.5597    0.9641 O   0  0  0  0  0  0  0  0  0  0  0  0
   12.9468   -5.3999    3.5574 C   0  0  0  0  0  0  0  0  0  0  0  0
   13.5371   -6.3027    4.4107 C   0  0  0  0  0  0  0  0  0  0  0  0
   14.7345   -5.9071    4.9980 C   0  0  0  0  0  0  0  0  0  0  0  0
   15.3262   -4.6794    4.6404 C   0  0  0  0  0  0  0  0  0  0  0  0
   14.6153   -3.7260    3.8949 C   0  0  0  0  0  0  0  0  0  0  0  0
   13.3463   -4.0628    3.4706 C   0  0  0  0  0  0  0  0  0  0  0  0
    6.9935   -2.8985   -0.8537 C   0  0  0  0  0  0  0  0  0  0  0  0
    5.8171   -4.8542   -4.5727 H   0  0  0  0  0  0  0  0  0  0  0  0
    7.5726   -4.8554   -4.3451 H   0  0  0  0  0  0  0  0  0  0  0  0
    6.6944   -3.3393   -4.7863 H   0  0  0  0  0  0  0  0  0  0  0  0
    8.6687   -2.6871   -3.8162 H   0  0  0  0  0  0  0  0  0  0  0  0
   10.0333   -1.1383   -2.4979 H   0  0  0  0  0  0  0  0  0  0  0  0
    9.4675   -0.6658   -0.1340 H   0  0  0  0  0  0  0  0  0  0  0  0
    7.5473   -3.5068    2.6781 H   0  0  0  0  0  0  0  0  0  0  0  0
    9.8658   -0.9992    3.7481 H   0  0  0  0  0  0  0  0  0  0  0  0
   12.2736   -1.4784    4.0893 H   0  0  0  0  0  0  0  0  0  0  0  0
    9.3866   -4.6680    1.5546 H   0  0  0  0  0  0  0  0  0  0  0  0
   10.7916   -7.4054    0.4903 H   0  0  0  0  0  0  0  0  0  0  0  0
   13.0727   -7.2583    4.6242 H   0  0  0  0  0  0  0  0  0  0  0  0
   15.2366   -6.5698    5.6985 H   0  0  0  0  0  0  0  0  0  0  0  0
   16.3391   -4.4630    4.9737 H   0  0  0  0  0  0  0  0  0  0  0  0
   15.0694   -2.7737    3.6413 H   0  0  0  0  0  0  0  0  0  0  0  0
    6.1234   -3.3743   -0.4076 H   0  0  0  0  0  0  0  0  0  0  0  0
  1  2  1  0  0  0  0
  1 28  1  0  0  0  0
  1 29  1  0  0  0  0
  1 30  1  0  0  0  0
  2  3  1  0  0  0  0
  3  4  1  0  0  0  0
  3 27  2  0  0  0  0
  4  5  2  0  0  0  0
  4 31  1  0  0  0  0
  5  6  1  0  0  0  0
  5 32  1  0  0  0  0
  6  7  2  0  0  0  0
  6 33  1  0  0  0  0
  7  8  1  0  0  0  0
  7 27  1  0  0  0  0
  8  9  2  0  0  0  0
  8 10  2  0  0  0  0
  8 11  1  0  0  0  0
 11 12  1  0  0  0  0
 11 34  1  0  0  0  0
 12 13  1  0  0  0  0
 12 17  2  0  0  0  0
 13 14  2  0  0  0  0
 13 35  1  0  0  0  0
 14 15  1  0  0  0  0
 14 36  1  0  0  0  0
 15 16  2  0  0  0  0
 15 26  1  0  0  0  0
 16 17  1  0  0  0  0
 16 18  1  0  0  0  0
 17 37  1  0  0  0  0
 18 19  2  3  0  0  0
 18 21  1  0  0  0  0
 19 20  1  0  0  0  0
 20 38  1  0  0  0  0
 21 22  1  0  0  0  0
 21 26  2  0  0  0  0
 22 23  2  0  0  0  0
 22 39  1  0  0  0  0
 23 24  1  0  0  0  0
 23 40  1  0  0  0  0
 24 25  2  0  0  0  0
 24 41  1  0  0  0  0
 25 26  1  0  0  0  0
 25 42  1  0  0  0  0
 27 43  1  0  0  0  0
M  END
$$$$
