CHEMBL3891619
 OpenBabel04072215373D

 66 69  0  0  0  0  0  0  0  0999 V2000
    3.1325   -0.4101   -5.0975 C   0  0  0  0  0  0  0  0  0  0  0  0
    3.8880   -1.3751   -4.4521 O   0  0  0  0  0  0  0  0  0  0  0  0
    3.9705   -1.4812   -3.1028 C   0  0  0  0  0  0  0  0  0  0  0  0
    3.0188   -0.8693   -2.2804 C   0  0  0  0  0  0  0  0  0  0  0  0
    3.1247   -0.9050   -0.8963 C   0  0  0  0  0  0  0  0  0  0  0  0
    2.1533   -0.3419   -0.1052 O   0  0  0  0  0  0  0  0  0  0  0  0
    1.0353    0.3567   -0.5499 C   0  0  0  0  0  0  0  0  0  0  0  0
    1.3834    1.8115   -0.8782 C   0  0  0  0  0  0  0  0  0  0  0  0
    1.7724    2.4863    0.2866 O   0  0  0  0  0  0  0  0  0  0  0  0
    4.2497   -1.5428   -0.3337 C   0  0  0  0  0  0  0  0  0  0  0  0
    5.2502   -2.1959   -1.1444 C   0  0  0  0  0  0  0  0  0  0  0  0
    6.3944   -2.8684   -0.5315 N   0  0  0  0  0  0  0  0  0  0  0  0
    6.6952   -2.5378    0.9081 C   0  0  0  0  0  0  0  0  0  0  0  0
    7.3850   -1.1611    1.1369 C   0  0  0  0  0  0  0  0  0  0  0  0
    8.7383   -0.8875    0.4356 C   0  0  0  0  0  0  0  0  0  0  0  0
    8.6534   -1.2569    1.9410 C   0  0  0  0  0  0  0  0  0  0  0  0
    7.2522   -3.9426   -1.1034 C   0  0  0  0  0  0  0  0  0  0  0  0
    7.4774   -4.9623   -0.1722 C   0  0  0  0  0  0  0  0  0  0  0  0
    8.4869   -5.8295   -0.2606 C   0  0  0  0  0  0  0  0  0  0  0  0
    9.2763   -5.8552   -1.3462 C   0  0  0  0  0  0  0  0  0  0  0  0
   10.3350   -6.6400   -1.2217 N   0  0  0  0  0  0  0  0  0  0  0  0
   11.1567   -6.8779   -2.2206 C   0  0  0  0  0  0  0  0  0  0  0  0
   10.8590   -6.4474   -3.5003 C   0  0  0  0  0  0  0  0  0  0  0  0
   11.5555   -7.3535   -4.5457 C   0  0  0  0  0  0  0  0  0  0  0  0
   11.4515   -7.4950   -5.9285 C   0  0  0  0  0  0  0  0  0  0  0  0
   12.0773   -8.6447   -6.3176 N   0  0  0  0  0  0  0  0  0  0  0  0
   12.6021   -9.2216   -5.2435 N   0  0  0  0  0  0  0  0  0  0  0  0
   13.2419  -10.5650   -5.1809 C   0  0  0  0  0  0  0  0  0  0  0  0
   12.5486  -11.4803   -4.1299 C   0  0  0  0  0  0  0  0  0  0  0  0
   11.1698  -11.5651   -4.3706 O   0  0  0  0  0  0  0  0  0  0  0  0
   12.3674   -8.4589   -4.1852 C   0  0  0  0  0  0  0  0  0  0  0  0
    9.8279   -5.4846   -3.6402 N   0  0  0  0  0  0  0  0  0  0  0  0
    9.0380   -5.1173   -2.5147 C   0  0  0  0  0  0  0  0  0  0  0  0
    7.9872   -4.0630   -2.3923 C   0  0  0  0  0  0  0  0  0  0  0  0
    5.0517   -2.1766   -2.5341 C   0  0  0  0  0  0  0  0  0  0  0  0
   -0.5650   -0.8183    2.4734 Cl  0  0  0  0  0  0  0  0  0  0  0  0
    3.3272   -0.4514   -6.1839 H   0  0  0  0  0  0  0  0  0  0  0  0
    3.4335    0.5962   -4.7236 H   0  0  0  0  0  0  0  0  0  0  0  0
    2.0431   -0.5522   -4.9233 H   0  0  0  0  0  0  0  0  0  0  0  0
    2.1886   -0.3617   -2.7366 H   0  0  0  0  0  0  0  0  0  0  0  0
    0.2433    0.3790    0.2197 H   0  0  0  0  0  0  0  0  0  0  0  0
    0.5545   -0.1534   -1.4140 H   0  0  0  0  0  0  0  0  0  0  0  0
    0.5104    2.3318   -1.3354 H   0  0  0  0  0  0  0  0  0  0  0  0
    2.2115    1.8508   -1.6142 H   0  0  0  0  0  0  0  0  0  0  0  0
    0.9624    2.5452    0.8616 H   0  0  0  0  0  0  0  0  0  0  0  0
    4.2961   -1.5273    0.7461 H   0  0  0  0  0  0  0  0  0  0  0  0
    7.4232   -3.2163    1.3568 H   0  0  0  0  0  0  0  0  0  0  0  0
    5.8275   -2.7032    1.5772 H   0  0  0  0  0  0  0  0  0  0  0  0
    6.7733   -0.2522    1.3037 H   0  0  0  0  0  0  0  0  0  0  0  0
    9.8104   -1.1709    0.3324 H   0  0  0  0  0  0  0  0  0  0  0  0
    8.4782   -1.4572   -0.4749 H   0  0  0  0  0  0  0  0  0  0  0  0
    9.1107   -0.3845    2.4507 H   0  0  0  0  0  0  0  0  0  0  0  0
    9.1643   -2.2456    2.0701 H   0  0  0  0  0  0  0  0  0  0  0  0
    6.9138   -5.0459    0.7457 H   0  0  0  0  0  0  0  0  0  0  0  0
    8.6855   -6.4955    0.5657 H   0  0  0  0  0  0  0  0  0  0  0  0
   11.9401   -7.5431   -1.9398 H   0  0  0  0  0  0  0  0  0  0  0  0
   10.8911   -6.8802   -6.6139 H   0  0  0  0  0  0  0  0  0  0  0  0
   14.3118  -10.4790   -4.8666 H   0  0  0  0  0  0  0  0  0  0  0  0
   13.1978  -11.0561   -6.1638 H   0  0  0  0  0  0  0  0  0  0  0  0
   12.7342  -11.1347   -3.0829 H   0  0  0  0  0  0  0  0  0  0  0  0
   12.9757  -12.5084   -4.1630 H   0  0  0  0  0  0  0  0  0  0  0  0
   10.7437  -10.8480   -3.8292 H   0  0  0  0  0  0  0  0  0  0  0  0
   12.7055   -8.8002   -3.2213 H   0  0  0  0  0  0  0  0  0  0  0  0
    7.8397   -3.3576   -3.1991 H   0  0  0  0  0  0  0  0  0  0  0  0
    5.7487   -2.6524   -3.1931 H   0  0  0  0  0  0  0  0  0  0  0  0
    0.7790   -0.6831    2.2011 H   0  0  0  0  0  0  0  0  0  0  0  0
  1  2  1  0  0  0  0
  1 37  1  0  0  0  0
  1 38  1  0  0  0  0
  1 39  1  0  0  0  0
  2  3  1  0  0  0  0
  3  4  1  0  0  0  0
  3 35  2  0  0  0  0
  4  5  2  0  0  0  0
  4 40  1  0  0  0  0
  5  6  1  0  0  0  0
  5 10  1  0  0  0  0
  6  7  1  0  0  0  0
  7  8  1  0  0  0  0
  7 41  1  0  0  0  0
  7 42  1  0  0  0  0
  8  9  1  0  0  0  0
  8 43  1  0  0  0  0
  8 44  1  0  0  0  0
  9 45  1  0  0  0  0
 10 11  2  0  0  0  0
 10 46  1  0  0  0  0
 11 12  1  0  0  0  0
 11 35  1  0  0  0  0
 12 13  1  0  0  0  0
 12 17  1  0  0  0  0
 13 14  1  0  0  0  0
 13 47  1  0  0  0  0
 13 48  1  0  0  0  0
 14 15  1  0  0  0  0
 14 16  1  0  0  0  0
 14 49  1  0  0  0  0
 15 16  1  0  0  0  0
 15 50  1  0  0  0  0
 15 51  1  0  0  0  0
 16 52  1  0  0  0  0
 16 53  1  0  0  0  0
 17 18  1  0  0  0  0
 17 34  2  0  0  0  0
 18 19  2  0  0  0  0
 18 54  1  0  0  0  0
 19 20  1  0  0  0  0
 19 55  1  0  0  0  0
 20 21  1  0  0  0  0
 20 33  2  0  0  0  0
 21 22  2  0  0  0  0
 22 23  1  0  0  0  0
 22 56  1  0  0  0  0
 23 24  1  0  0  0  0
 23 32  2  0  0  0  0
 24 25  1  0  0  0  0
 24 31  2  0  0  0  0
 25 26  2  0  0  0  0
 25 57  1  0  0  0  0
 26 27  1  0  0  0  0
 27 28  1  0  0  0  0
 27 31  1  0  0  0  0
 28 29  1  0  0  0  0
 28 58  1  0  0  0  0
 28 59  1  0  0  0  0
 29 30  1  0  0  0  0
 29 60  1  0  0  0  0
 29 61  1  0  0  0  0
 30 62  1  0  0  0  0
 31 63  1  0  0  0  0
 32 33  1  0  0  0  0
 33 34  1  0  0  0  0
 34 64  1  0  0  0  0
 35 65  1  0  0  0  0
 36 66  1  0  0  0  0
M  END
$$$$
