CHEMBL3109276
 OpenBabel04072215363D

 61 65  0  0  0  0  0  0  0  0999 V2000
    7.0105   -1.2548   -5.4266 C   0  0  0  0  0  0  0  0  0  0  0  0
    6.9171   -0.3640   -4.2019 C   0  0  0  0  0  0  0  0  0  0  0  0
    5.7139   -0.9821   -3.0273 S   0  0  0  0  0  0  0  0  0  0  0  0
    4.4293   -1.0452   -3.7031 O   0  0  0  0  0  0  0  0  0  0  0  0
    6.2617   -2.1401   -2.3549 O   0  0  0  0  0  0  0  0  0  0  0  0
    5.5936    0.3162   -1.8175 C   0  0  0  0  0  0  0  0  0  0  0  0
    4.3931    0.9755   -1.5837 C   0  0  0  0  0  0  0  0  0  0  0  0
    4.3631    2.0590   -0.6979 C   0  0  0  0  0  0  0  0  0  0  0  0
    5.5347    2.4926   -0.0626 C   0  0  0  0  0  0  0  0  0  0  0  0
    5.6171    3.5975    0.7535 O   0  0  0  0  0  0  0  0  0  0  0  0
    4.3980    4.0660    1.3213 C   0  0  0  0  0  0  0  0  0  0  0  0
    6.7548    1.8198   -0.2964 C   0  0  0  0  0  0  0  0  0  0  0  0
    7.9393    2.2928    0.3176 N   0  0  0  0  0  0  0  0  0  0  0  0
    9.1860    1.9405   -0.0344 C   0  0  0  0  0  0  0  0  0  0  0  0
    9.5937    0.9334   -0.7754 N   0  0  0  0  0  0  0  0  0  0  0  0
   10.9373    1.0884   -0.8627 C   0  0  0  0  0  0  0  0  0  0  0  0
   11.3230    2.2119   -0.1728 C   0  0  0  0  0  0  0  0  0  0  0  0
   12.5940    2.8786    0.0191 C   0  0  0  0  0  0  0  0  0  0  0  0
   13.7376    2.3350   -0.5776 C   0  0  0  0  0  0  0  0  0  0  0  0
   14.9890    2.9557   -0.4994 C   0  0  0  0  0  0  0  0  0  0  0  0
   16.1458    2.4069   -1.2288 C   0  0  0  0  0  0  0  0  0  0  0  0
   15.9905    1.7764   -2.4751 C   0  0  0  0  0  0  0  0  0  0  0  0
   17.0879    1.2734   -3.1628 C   0  0  0  0  0  0  0  0  0  0  0  0
   18.3383    1.4236   -2.5925 C   0  0  0  0  0  0  0  0  0  0  0  0
   18.5487    2.0254   -1.4042 N   0  0  0  0  0  0  0  0  0  0  0  0
   17.4555    2.4962   -0.7555 C   0  0  0  0  0  0  0  0  0  0  0  0
   15.0693    4.1412    0.2447 C   0  0  0  0  0  0  0  0  0  0  0  0
   13.9405    4.7409    0.8397 C   0  0  0  0  0  0  0  0  0  0  0  0
   14.0464    6.0493    1.5111 C   0  0  0  0  0  0  0  0  0  0  0  0
   13.2430    6.4002    2.6036 C   0  0  0  0  0  0  0  0  0  0  0  0
   13.3761    7.6479    3.2080 C   0  0  0  0  0  0  0  0  0  0  0  0
   14.3180    8.5240    2.7055 C   0  0  0  0  0  0  0  0  0  0  0  0
   15.1083    8.2477    1.6474 N   0  0  0  0  0  0  0  0  0  0  0  0
   14.9436    7.0329    1.0797 C   0  0  0  0  0  0  0  0  0  0  0  0
   12.7083    4.0763    0.7258 C   0  0  0  0  0  0  0  0  0  0  0  0
   10.1972    2.7645    0.3827 O   0  0  0  0  0  0  0  0  0  0  0  0
    6.7490    0.7047   -1.1475 C   0  0  0  0  0  0  0  0  0  0  0  0
    7.7330   -0.8490   -6.1419 H   0  0  0  0  0  0  0  0  0  0  0  0
    6.0425   -1.3340   -5.9318 H   0  0  0  0  0  0  0  0  0  0  0  0
    7.3297   -2.2657   -5.1540 H   0  0  0  0  0  0  0  0  0  0  0  0
    6.6110    0.6451   -4.4965 H   0  0  0  0  0  0  0  0  0  0  0  0
    7.8897   -0.3120   -3.7034 H   0  0  0  0  0  0  0  0  0  0  0  0
    3.4845    0.6653   -2.0935 H   0  0  0  0  0  0  0  0  0  0  0  0
    3.4146    2.5663   -0.5562 H   0  0  0  0  0  0  0  0  0  0  0  0
    4.6425    4.8936    1.9948 H   0  0  0  0  0  0  0  0  0  0  0  0
    3.9176    3.2812    1.9146 H   0  0  0  0  0  0  0  0  0  0  0  0
    3.7183    4.4587    0.5582 H   0  0  0  0  0  0  0  0  0  0  0  0
    7.8013    3.1493    0.8434 H   0  0  0  0  0  0  0  0  0  0  0  0
   11.5454    0.3990   -1.4293 H   0  0  0  0  0  0  0  0  0  0  0  0
   13.6500    1.4048   -1.1351 H   0  0  0  0  0  0  0  0  0  0  0  0
   15.0087    1.6839   -2.9350 H   0  0  0  0  0  0  0  0  0  0  0  0
   16.9665    0.7851   -4.1230 H   0  0  0  0  0  0  0  0  0  0  0  0
   19.2274    1.0568   -3.0931 H   0  0  0  0  0  0  0  0  0  0  0  0
   17.6832    2.9636    0.1993 H   0  0  0  0  0  0  0  0  0  0  0  0
   16.0360    4.6327    0.3398 H   0  0  0  0  0  0  0  0  0  0  0  0
   12.5097    5.7047    3.0049 H   0  0  0  0  0  0  0  0  0  0  0  0
   12.7600    7.9233    4.0557 H   0  0  0  0  0  0  0  0  0  0  0  0
   14.4716    9.5018    3.1516 H   0  0  0  0  0  0  0  0  0  0  0  0
   15.5861    6.8711    0.2126 H   0  0  0  0  0  0  0  0  0  0  0  0
   11.8117    4.5123    1.1622 H   0  0  0  0  0  0  0  0  0  0  0  0
    7.6484    0.1237   -1.3215 H   0  0  0  0  0  0  0  0  0  0  0  0
  1  2  1  0  0  0  0
  1 38  1  0  0  0  0
  1 39  1  0  0  0  0
  1 40  1  0  0  0  0
  2  3  1  0  0  0  0
  2 41  1  0  0  0  0
  2 42  1  0  0  0  0
  3  4  2  0  0  0  0
  3  5  2  0  0  0  0
  3  6  1  0  0  0  0
  6  7  1  0  0  0  0
  6 37  2  0  0  0  0
  7  8  2  0  0  0  0
  7 43  1  0  0  0  0
  8  9  1  0  0  0  0
  8 44  1  0  0  0  0
  9 10  1  0  0  0  0
  9 12  2  0  0  0  0
 10 11  1  0  0  0  0
 11 45  1  0  0  0  0
 11 46  1  0  0  0  0
 11 47  1  0  0  0  0
 12 13  1  0  0  0  0
 12 37  1  0  0  0  0
 13 14  1  0  0  0  0
 13 48  1  0  0  0  0
 14 15  2  0  0  0  0
 14 36  1  0  0  0  0
 15 16  1  0  0  0  0
 16 17  2  0  0  0  0
 16 49  1  0  0  0  0
 17 18  1  0  0  0  0
 17 36  1  0  0  0  0
 18 19  1  0  0  0  0
 18 35  2  0  0  0  0
 19 20  2  0  0  0  0
 19 50  1  0  0  0  0
 20 21  1  0  0  0  0
 20 27  1  0  0  0  0
 21 22  1  0  0  0  0
 21 26  2  0  0  0  0
 22 23  2  0  0  0  0
 22 51  1  0  0  0  0
 23 24  1  0  0  0  0
 23 52  1  0  0  0  0
 24 25  2  0  0  0  0
 24 53  1  0  0  0  0
 25 26  1  0  0  0  0
 26 54  1  0  0  0  0
 27 28  2  0  0  0  0
 27 55  1  0  0  0  0
 28 29  1  0  0  0  0
 28 35  1  0  0  0  0
 29 30  1  0  0  0  0
 29 34  2  0  0  0  0
 30 31  2  0  0  0  0
 30 56  1  0  0  0  0
 31 32  1  0  0  0  0
 31 57  1  0  0  0  0
 32 33  2  0  0  0  0
 32 58  1  0  0  0  0
 33 34  1  0  0  0  0
 34 59  1  0  0  0  0
 35 60  1  0  0  0  0
 37 61  1  0  0  0  0
M  END
$$$$
