CHEMBL3656041
 OpenBabel04072215373D

 59 63  0  0  1  0  0  0  0  0999 V2000
   -0.3434    0.9320    2.3300 C   0  0  0  0  0  0  0  0  0  0  0  0
   -1.5666    0.9450    1.4882 C   0  0  0  0  0  0  0  0  0  0  0  0
   -2.2014    2.0881    0.9252 C   0  0  0  0  0  0  0  0  0  0  0  0
   -3.2879    1.6283    0.2212 C   0  0  0  0  0  0  0  0  0  0  0  0
   -3.3696    0.2777    0.3036 O   0  0  0  0  0  0  0  0  0  0  0  0
   -2.3276   -0.1469    1.0856 C   0  0  0  0  0  0  0  0  0  0  0  0
   -2.1842   -1.5674    1.3626 C   0  0  0  0  0  0  0  0  0  0  0  0
   -1.3068   -1.9915    2.1081 O   0  0  0  0  0  0  0  0  0  0  0  0
   -3.0968   -2.3635    0.6764 N   0  0  0  0  0  0  0  0  0  0  0  0
   -3.1941   -3.7710    0.7243 C   0  0  0  0  0  0  0  0  0  0  0  0
   -2.5425   -4.5448    1.6885 C   0  0  0  0  0  0  0  0  0  0  0  0
   -2.5794   -5.9381    1.6328 C   0  0  0  0  0  0  0  0  0  0  0  0
   -3.2893   -6.5756    0.6206 C   0  0  0  0  0  0  0  0  0  0  0  0
   -4.0471   -5.8194   -0.2746 C   0  0  0  0  0  0  0  0  0  0  0  0
   -4.8416   -6.3660   -1.2603 O   0  0  0  0  0  0  0  0  0  0  0  0
   -5.4117   -7.6058   -1.0690 C   0  0  0  0  0  0  0  0  0  0  0  0
   -5.9015   -8.0676    0.1502 C   0  0  0  0  0  0  0  0  0  0  0  0
   -6.4168   -9.3506    0.2022 C   0  0  0  0  0  0  0  0  0  0  0  0
   -6.5250  -10.1612   -0.8715 N   0  0  0  0  0  0  0  0  0  0  0  0
   -6.1059   -9.6594   -2.0580 C   0  0  0  0  0  0  0  0  0  0  0  0
   -6.3182  -10.5439   -3.1944 C   0  0  0  0  0  0  0  0  0  0  0  0
   -6.0619  -10.3891   -4.5441 C   0  0  0  0  0  0  0  0  0  0  0  0
   -6.5020  -11.5560   -5.2425 C   0  0  0  0  0  0  0  0  0  0  0  0
   -6.3722  -11.7346   -6.6912 C   0  0  0  0  0  0  0  0  0  0  0  0
   -6.3258  -10.7532   -7.4310 O   0  0  0  0  0  0  0  0  0  0  0  0
   -6.2062  -13.0112   -7.2012 N   0  0  0  0  0  0  0  0  0  0  0  0
   -5.8760  -13.1918   -8.6047 C   0  0  0  0  0  0  0  0  0  0  0  0
   -5.8139  -14.6997   -8.8161 C   0  0  0  0  0  0  0  0  0  0  0  0
   -5.4986  -15.2428   -7.4287 C   0  0  1  0  0  0  0  0  0  0  0  0
   -4.0923  -15.1852   -7.1882 O   0  0  0  0  0  0  0  0  0  0  0  0
   -6.2386  -14.2866   -6.4996 C   0  0  0  0  0  0  0  0  0  0  0  0
   -7.0604  -12.3732   -4.2798 C   0  0  0  0  0  0  0  0  0  0  0  0
   -6.8931  -11.7839   -3.0517 N   0  0  0  0  0  0  0  0  0  0  0  0
   -5.5446   -8.3988   -2.2009 C   0  0  0  0  0  0  0  0  0  0  0  0
   -3.9761   -4.4196   -0.2407 C   0  0  0  0  0  0  0  0  0  0  0  0
    0.0819    1.9362    2.4198 H   0  0  0  0  0  0  0  0  0  0  0  0
    0.4211    0.2822    1.8928 H   0  0  0  0  0  0  0  0  0  0  0  0
   -0.5735    0.5722    3.3397 H   0  0  0  0  0  0  0  0  0  0  0  0
   -1.8977    3.1214    1.0261 H   0  0  0  0  0  0  0  0  0  0  0  0
   -4.0583    2.1143   -0.3585 H   0  0  0  0  0  0  0  0  0  0  0  0
   -3.6771   -1.8715    0.0075 H   0  0  0  0  0  0  0  0  0  0  0  0
   -1.9884   -4.0919    2.5049 H   0  0  0  0  0  0  0  0  0  0  0  0
   -2.0444   -6.5226    2.3768 H   0  0  0  0  0  0  0  0  0  0  0  0
   -3.2553   -7.6585    0.5634 H   0  0  0  0  0  0  0  0  0  0  0  0
   -5.8681   -7.4627    1.0488 H   0  0  0  0  0  0  0  0  0  0  0  0
   -6.7666   -9.7718    1.1405 H   0  0  0  0  0  0  0  0  0  0  0  0
   -5.6011   -9.5273   -5.0092 H   0  0  0  0  0  0  0  0  0  0  0  0
   -4.9045  -12.7199   -8.7928 H   0  0  0  0  0  0  0  0  0  0  0  0
   -6.6263  -12.7105   -9.2398 H   0  0  0  0  0  0  0  0  0  0  0  0
   -5.0645  -14.9691   -9.5661 H   0  0  0  0  0  0  0  0  0  0  0  0
   -6.7939  -15.0620   -9.1445 H   0  0  0  0  0  0  0  0  0  0  0  0
   -5.8183  -16.2798   -7.2948 H   0  0  0  0  0  0  0  0  0  0  0  0
   -3.8496  -14.2481   -7.0711 H   0  0  0  0  0  0  0  0  0  0  0  0
   -5.7583  -14.2212   -5.5221 H   0  0  0  0  0  0  0  0  0  0  0  0
   -7.2934  -14.5666   -6.4019 H   0  0  0  0  0  0  0  0  0  0  0  0
   -7.5595  -13.3310   -4.3382 H   0  0  0  0  0  0  0  0  0  0  0  0
   -7.1764  -12.1613   -2.1546 H   0  0  0  0  0  0  0  0  0  0  0  0
   -5.2181   -8.0310   -3.1662 H   0  0  0  0  0  0  0  0  0  0  0  0
   -4.5178   -3.8510   -0.9917 H   0  0  0  0  0  0  0  0  0  0  0  0
  1  2  1  0  0  0  0
  1 36  1  0  0  0  0
  1 37  1  0  0  0  0
  1 38  1  0  0  0  0
  2  3  1  0  0  0  0
  2  6  2  0  0  0  0
  3  4  2  0  0  0  0
  3 39  1  0  0  0  0
  4  5  1  0  0  0  0
  4 40  1  0  0  0  0
  5  6  1  0  0  0  0
  6  7  1  0  0  0  0
  7  8  2  0  0  0  0
  7  9  1  0  0  0  0
  9 10  1  0  0  0  0
  9 41  1  0  0  0  0
 10 11  1  0  0  0  0
 10 35  2  0  0  0  0
 11 12  2  0  0  0  0
 11 42  1  0  0  0  0
 12 13  1  0  0  0  0
 12 43  1  0  0  0  0
 13 14  2  0  0  0  0
 13 44  1  0  0  0  0
 14 15  1  0  0  0  0
 14 35  1  0  0  0  0
 15 16  1  0  0  0  0
 16 17  1  0  0  0  0
 16 34  2  0  0  0  0
 17 18  2  0  0  0  0
 17 45  1  0  0  0  0
 18 19  1  0  0  0  0
 18 46  1  0  0  0  0
 19 20  2  0  0  0  0
 20 21  1  0  0  0  0
 20 34  1  0  0  0  0
 21 22  2  0  0  0  0
 21 33  1  0  0  0  0
 22 23  1  0  0  0  0
 22 47  1  0  0  0  0
 23 24  1  0  0  0  0
 23 32  2  0  0  0  0
 24 25  2  0  0  0  0
 24 26  1  0  0  0  0
 26 27  1  0  0  0  0
 26 31  1  0  0  0  0
 27 28  1  0  0  0  0
 27 48  1  0  0  0  0
 27 49  1  0  0  0  0
 28 29  1  0  0  0  0
 28 50  1  0  0  0  0
 28 51  1  0  0  0  0
 29 30  1  0  0  0  0
 29 31  1  0  0  0  0
 29 52  1  1  0  0  0
 30 53  1  0  0  0  0
 31 54  1  0  0  0  0
 31 55  1  0  0  0  0
 32 33  1  0  0  0  0
 32 56  1  0  0  0  0
 33 57  1  0  0  0  0
 34 58  1  0  0  0  0
 35 59  1  0  0  0  0
M  END
$$$$
