CHEMBL1080639
 OpenBabel04072215353D

 58 62  0  0  0  0  0  0  0  0999 V2000
    8.7943    3.1527    1.9520 C   0  0  0  0  0  0  0  0  0  0  0  0
    7.9408    3.1102    0.7973 O   0  0  0  0  0  0  0  0  0  0  0  0
    7.8325    4.3021    0.1088 C   0  0  0  0  0  0  0  0  0  0  0  0
    8.7104    5.3807    0.3601 C   0  0  0  0  0  0  0  0  0  0  0  0
    8.6157    6.5811   -0.3280 C   0  0  0  0  0  0  0  0  0  0  0  0
    7.6242    6.7169   -1.2940 C   0  0  0  0  0  0  0  0  0  0  0  0
    7.5092    8.3251   -2.2792 Br  0  0  0  0  0  0  0  0  0  0  0  0
    6.7469    5.6702   -1.5582 C   0  0  0  0  0  0  0  0  0  0  0  0
    6.8344    4.4326   -0.8949 C   0  0  0  0  0  0  0  0  0  0  0  0
    5.9207    3.3702   -1.2226 N   0  0  0  0  0  0  0  0  0  0  0  0
    5.2534    3.3034   -2.4510 C   0  0  0  0  0  0  0  0  0  0  0  0
    5.4744    4.0550   -3.3975 O   0  0  0  0  0  0  0  0  0  0  0  0
    4.2648    2.3240   -2.5168 N   0  0  0  0  0  0  0  0  0  0  0  0
    3.5089    2.1747   -3.7248 C   0  0  0  0  0  0  0  0  0  0  0  0
    2.1157    2.1373   -3.6782 C   0  0  0  0  0  0  0  0  0  0  0  0
    1.3668    2.0474   -4.8674 C   0  0  0  0  0  0  0  0  0  0  0  0
    2.0161    1.9699   -6.0989 C   0  0  0  0  0  0  0  0  0  0  0  0
    3.4110    2.0067   -6.1623 C   0  0  0  0  0  0  0  0  0  0  0  0
    4.0795    1.9695   -7.4711 C   0  0  0  0  0  0  0  0  0  0  0  0
    4.3372    3.1330   -8.1060 C   0  0  0  0  0  0  0  0  0  0  0  0
    4.8599    3.0636   -9.3802 N   0  0  0  0  0  0  0  0  0  0  0  0
    5.2269    4.0417  -10.2697 C   0  0  0  0  0  0  0  0  0  0  0  0
    5.6673    3.3532  -11.3820 C   0  0  0  0  0  0  0  0  0  0  0  0
    5.5690    1.9917  -11.2046 N   0  0  0  0  0  0  0  0  0  0  0  0
    5.0745    1.8629   -9.9856 C   0  0  0  0  0  0  0  0  0  0  0  0
    4.8058    0.6361   -9.2452 C   0  0  0  0  0  0  0  0  0  0  0  0
    5.0120   -0.6084   -9.7973 N   0  0  0  0  0  0  0  0  0  0  0  0
    5.3928   -1.7641   -9.0227 C   0  0  0  0  0  0  0  0  0  0  0  0
    6.7552   -2.2722   -9.4349 C   0  0  0  0  0  0  0  0  0  0  0  0
    7.9031   -1.4856   -9.2740 C   0  0  0  0  0  0  0  0  0  0  0  0
    9.1356   -2.0191   -9.6205 C   0  0  0  0  0  0  0  0  0  0  0  0
    9.3056   -3.2685  -10.1052 N   0  0  0  0  0  0  0  0  0  0  0  0
    8.1901   -4.0127  -10.2541 C   0  0  0  0  0  0  0  0  0  0  0  0
    6.9135   -3.5672   -9.9390 C   0  0  0  0  0  0  0  0  0  0  0  0
    4.3407    0.7171   -8.0196 N   0  0  0  0  0  0  0  0  0  0  0  0
    4.1486    2.0995   -4.9702 C   0  0  0  0  0  0  0  0  0  0  0  0
    8.7031    2.2126    2.5018 H   0  0  0  0  0  0  0  0  0  0  0  0
    8.4936    3.9601    2.6318 H   0  0  0  0  0  0  0  0  0  0  0  0
    9.8498    3.2619    1.6689 H   0  0  0  0  0  0  0  0  0  0  0  0
    9.5171    5.3205    1.0880 H   0  0  0  0  0  0  0  0  0  0  0  0
    9.3019    7.3919   -0.1145 H   0  0  0  0  0  0  0  0  0  0  0  0
    5.9760    5.8548   -2.2947 H   0  0  0  0  0  0  0  0  0  0  0  0
    5.9847    2.5355   -0.6624 H   0  0  0  0  0  0  0  0  0  0  0  0
    3.7724    2.1436   -1.6519 H   0  0  0  0  0  0  0  0  0  0  0  0
    1.5787    2.2550   -2.7416 H   0  0  0  0  0  0  0  0  0  0  0  0
    0.2799    2.0555   -4.8339 H   0  0  0  0  0  0  0  0  0  0  0  0
    1.4291    1.8849   -7.0151 H   0  0  0  0  0  0  0  0  0  0  0  0
    4.1373    4.1082   -7.6879 H   0  0  0  0  0  0  0  0  0  0  0  0
    5.1615    5.0899  -10.0396 H   0  0  0  0  0  0  0  0  0  0  0  0
    6.0537    3.7752  -12.3032 H   0  0  0  0  0  0  0  0  0  0  0  0
    5.1484   -0.6483  -10.8016 H   0  0  0  0  0  0  0  0  0  0  0  0
    4.6367   -2.5424   -9.1723 H   0  0  0  0  0  0  0  0  0  0  0  0
    5.4197   -1.5591   -7.9457 H   0  0  0  0  0  0  0  0  0  0  0  0
    7.8428   -0.4754   -8.8806 H   0  0  0  0  0  0  0  0  0  0  0  0
   10.0489   -1.4405   -9.5104 H   0  0  0  0  0  0  0  0  0  0  0  0
    8.3528   -5.0138  -10.6434 H   0  0  0  0  0  0  0  0  0  0  0  0
    6.0657   -4.2287  -10.0782 H   0  0  0  0  0  0  0  0  0  0  0  0
    5.2362    2.1115   -5.0278 H   0  0  0  0  0  0  0  0  0  0  0  0
  1  2  1  0  0  0  0
  1 37  1  0  0  0  0
  1 38  1  0  0  0  0
  1 39  1  0  0  0  0
  2  3  1  0  0  0  0
  3  4  1  0  0  0  0
  3  9  2  0  0  0  0
  4  5  2  0  0  0  0
  4 40  1  0  0  0  0
  5  6  1  0  0  0  0
  5 41  1  0  0  0  0
  6  7  1  0  0  0  0
  6  8  2  0  0  0  0
  8  9  1  0  0  0  0
  8 42  1  0  0  0  0
  9 10  1  0  0  0  0
 10 11  1  0  0  0  0
 10 43  1  0  0  0  0
 11 12  2  0  0  0  0
 11 13  1  0  0  0  0
 13 14  1  0  0  0  0
 13 44  1  0  0  0  0
 14 15  1  0  0  0  0
 14 36  2  0  0  0  0
 15 16  2  0  0  0  0
 15 45  1  0  0  0  0
 16 17  1  0  0  0  0
 16 46  1  0  0  0  0
 17 18  2  0  0  0  0
 17 47  1  0  0  0  0
 18 19  1  0  0  0  0
 18 36  1  0  0  0  0
 19 20  2  0  0  0  0
 19 35  1  0  0  0  0
 20 21  1  0  0  0  0
 20 48  1  0  0  0  0
 21 22  1  0  0  0  0
 21 25  1  0  0  0  0
 22 23  2  0  0  0  0
 22 49  1  0  0  0  0
 23 24  1  0  0  0  0
 23 50  1  0  0  0  0
 24 25  2  0  0  0  0
 25 26  1  0  0  0  0
 26 27  1  0  0  0  0
 26 35  2  0  0  0  0
 27 28  1  0  0  0  0
 27 51  1  0  0  0  0
 28 29  1  0  0  0  0
 28 52  1  0  0  0  0
 28 53  1  0  0  0  0
 29 30  1  0  0  0  0
 29 34  2  0  0  0  0
 30 31  2  0  0  0  0
 30 54  1  0  0  0  0
 31 32  1  0  0  0  0
 31 55  1  0  0  0  0
 32 33  2  0  0  0  0
 33 34  1  0  0  0  0
 33 56  1  0  0  0  0
 34 57  1  0  0  0  0
 36 58  1  0  0  0  0
M  END
$$$$
