CHEMBL3909752
 OpenBabel04072215373D

 65 70  0  0  0  0  0  0  0  0999 V2000
    0.1101    0.4283   -4.4825 C   0  0  0  0  0  0  0  0  0  0  0  0
    1.4823    0.6082   -4.8368 O   0  0  0  0  0  0  0  0  0  0  0  0
    2.3958    0.7653   -3.8231 C   0  0  0  0  0  0  0  0  0  0  0  0
    2.0741    0.9402   -2.4774 C   0  0  0  0  0  0  0  0  0  0  0  0
    3.0947    0.9953   -1.5275 C   0  0  0  0  0  0  0  0  0  0  0  0
    2.9121    1.1026   -0.1749 O   0  0  0  0  0  0  0  0  0  0  0  0
    1.7176    1.7453    0.2459 C   0  0  0  0  0  0  0  0  0  0  0  0
    4.4304    0.8419   -1.9147 C   0  0  0  0  0  0  0  0  0  0  0  0
    4.7905    0.6476   -3.2504 C   0  0  0  0  0  0  0  0  0  0  0  0
    6.0767    0.1901   -3.6347 N   0  0  0  0  0  0  0  0  0  0  0  0
    6.6886   -0.8138   -2.6874 C   0  0  0  0  0  0  0  0  0  0  0  0
    6.0158   -2.0670   -2.1394 C   0  0  0  0  0  0  0  0  0  0  0  0
    6.2615   -2.6010   -0.8772 C   0  0  0  0  0  0  0  0  0  0  0  0
    5.7930   -3.9284   -0.8394 C   0  0  0  0  0  0  0  0  0  0  0  0
    5.9282   -4.8442    0.1514 N   0  0  0  0  0  0  0  0  0  0  0  0
    5.4451   -6.0709   -0.1347 C   0  0  0  0  0  0  0  0  0  0  0  0
    4.8399   -6.4371   -1.3255 C   0  0  0  0  0  0  0  0  0  0  0  0
    4.6940   -5.4807   -2.3322 C   0  0  0  0  0  0  0  0  0  0  0  0
    5.1927   -4.1973   -2.0691 C   0  0  0  0  0  0  0  0  0  0  0  0
    5.2546   -3.0164   -2.8084 N   0  0  0  0  0  0  0  0  0  0  0  0
    4.6045   -2.8383   -4.0889 C   0  0  0  0  0  0  0  0  0  0  0  0
    7.1927    0.9534   -4.1788 C   0  0  0  0  0  0  0  0  0  0  0  0
    7.9838    0.2330   -5.0735 C   0  0  0  0  0  0  0  0  0  0  0  0
    9.3277    0.5309   -5.2097 C   0  0  0  0  0  0  0  0  0  0  0  0
    9.8899    1.6243   -4.6041 C   0  0  0  0  0  0  0  0  0  0  0  0
   11.2273    1.6610   -4.6423 N   0  0  0  0  0  0  0  0  0  0  0  0
   11.8108    2.8129   -4.2921 C   0  0  0  0  0  0  0  0  0  0  0  0
   11.0661    3.9427   -4.0298 C   0  0  0  0  0  0  0  0  0  0  0  0
   11.7079    5.1979   -4.4139 C   0  0  0  0  0  0  0  0  0  0  0  0
   12.1850    6.3343   -3.7190 C   0  0  0  0  0  0  0  0  0  0  0  0
   12.8256    7.2069   -4.5162 N   0  0  0  0  0  0  0  0  0  0  0  0
   12.7469    6.6423   -5.7342 N   0  0  0  0  0  0  0  0  0  0  0  0
   13.0843    7.3864   -6.9272 C   0  0  0  0  0  0  0  0  0  0  0  0
   12.2236    5.3836   -5.6948 C   0  0  0  0  0  0  0  0  0  0  0  0
    9.6979    3.8600   -3.8072 N   0  0  0  0  0  0  0  0  0  0  0  0
    9.0798    2.6259   -4.0295 C   0  0  0  0  0  0  0  0  0  0  0  0
    7.7086    2.2100   -3.7457 C   0  0  0  0  0  0  0  0  0  0  0  0
    3.7506    0.6718   -4.2054 C   0  0  0  0  0  0  0  0  0  0  0  0
   -0.3982   -0.0519   -5.3262 H   0  0  0  0  0  0  0  0  0  0  0  0
   -0.3689    1.3978   -4.3112 H   0  0  0  0  0  0  0  0  0  0  0  0
   -0.0302   -0.2320   -3.6193 H   0  0  0  0  0  0  0  0  0  0  0  0
    1.0409    0.9973   -2.1600 H   0  0  0  0  0  0  0  0  0  0  0  0
    1.8165    1.9520    1.3157 H   0  0  0  0  0  0  0  0  0  0  0  0
    0.8498    1.0926    0.1105 H   0  0  0  0  0  0  0  0  0  0  0  0
    1.5790    2.7012   -0.2698 H   0  0  0  0  0  0  0  0  0  0  0  0
    5.1853    0.8294   -1.1346 H   0  0  0  0  0  0  0  0  0  0  0  0
    7.0737   -0.2539   -1.8219 H   0  0  0  0  0  0  0  0  0  0  0  0
    7.5846   -1.2436   -3.1584 H   0  0  0  0  0  0  0  0  0  0  0  0
    6.8397   -2.1277   -0.0949 H   0  0  0  0  0  0  0  0  0  0  0  0
    5.5746   -6.8029    0.6612 H   0  0  0  0  0  0  0  0  0  0  0  0
    4.4908   -7.4567   -1.4704 H   0  0  0  0  0  0  0  0  0  0  0  0
    4.2304   -5.7447   -3.2760 H   0  0  0  0  0  0  0  0  0  0  0  0
    4.2092   -3.7921   -4.4478 H   0  0  0  0  0  0  0  0  0  0  0  0
    5.3250   -2.4525   -4.8106 H   0  0  0  0  0  0  0  0  0  0  0  0
    3.7675   -2.1540   -3.9433 H   0  0  0  0  0  0  0  0  0  0  0  0
    7.5968   -0.6705   -5.5374 H   0  0  0  0  0  0  0  0  0  0  0  0
    9.9683   -0.1347   -5.7810 H   0  0  0  0  0  0  0  0  0  0  0  0
   12.8893    2.8344   -4.3662 H   0  0  0  0  0  0  0  0  0  0  0  0
   12.1185    6.5667   -2.6651 H   0  0  0  0  0  0  0  0  0  0  0  0
   13.0484    8.4570   -6.7106 H   0  0  0  0  0  0  0  0  0  0  0  0
   12.3405    7.1529   -7.6961 H   0  0  0  0  0  0  0  0  0  0  0  0
   14.0804    7.0963   -7.2700 H   0  0  0  0  0  0  0  0  0  0  0  0
   12.2145    4.7536   -6.5751 H   0  0  0  0  0  0  0  0  0  0  0  0
    7.0929    2.8666   -3.1342 H   0  0  0  0  0  0  0  0  0  0  0  0
    3.9829    0.5031   -5.2551 H   0  0  0  0  0  0  0  0  0  0  0  0
  1  2  1  0  0  0  0
  1 39  1  0  0  0  0
  1 40  1  0  0  0  0
  1 41  1  0  0  0  0
  2  3  1  0  0  0  0
  3  4  1  0  0  0  0
  3 38  2  0  0  0  0
  4  5  2  0  0  0  0
  4 42  1  0  0  0  0
  5  6  1  0  0  0  0
  5  8  1  0  0  0  0
  6  7  1  0  0  0  0
  7 43  1  0  0  0  0
  7 44  1  0  0  0  0
  7 45  1  0  0  0  0
  8  9  2  0  0  0  0
  8 46  1  0  0  0  0
  9 10  1  0  0  0  0
  9 38  1  0  0  0  0
 10 11  1  0  0  0  0
 10 22  1  0  0  0  0
 11 12  1  0  0  0  0
 11 47  1  0  0  0  0
 11 48  1  0  0  0  0
 12 13  2  0  0  0  0
 12 20  1  0  0  0  0
 13 14  1  0  0  0  0
 13 49  1  0  0  0  0
 14 15  1  0  0  0  0
 14 19  2  0  0  0  0
 15 16  2  0  0  0  0
 16 17  1  0  0  0  0
 16 50  1  0  0  0  0
 17 18  2  0  0  0  0
 17 51  1  0  0  0  0
 18 19  1  0  0  0  0
 18 52  1  0  0  0  0
 19 20  1  0  0  0  0
 20 21  1  0  0  0  0
 21 53  1  0  0  0  0
 21 54  1  0  0  0  0
 21 55  1  0  0  0  0
 22 23  1  0  0  0  0
 22 37  2  0  0  0  0
 23 24  2  0  0  0  0
 23 56  1  0  0  0  0
 24 25  1  0  0  0  0
 24 57  1  0  0  0  0
 25 26  1  0  0  0  0
 25 36  2  0  0  0  0
 26 27  2  0  0  0  0
 27 28  1  0  0  0  0
 27 58  1  0  0  0  0
 28 29  1  0  0  0  0
 28 35  2  0  0  0  0
 29 30  1  0  0  0  0
 29 34  2  0  0  0  0
 30 31  2  0  0  0  0
 30 59  1  0  0  0  0
 31 32  1  0  0  0  0
 32 33  1  0  0  0  0
 32 34  1  0  0  0  0
 33 60  1  0  0  0  0
 33 61  1  0  0  0  0
 33 62  1  0  0  0  0
 34 63  1  0  0  0  0
 35 36  1  0  0  0  0
 36 37  1  0  0  0  0
 37 64  1  0  0  0  0
 38 65  1  0  0  0  0
M  END
$$$$
