CHEMBL193955
 OpenBabel04072215363D

 49 51  0  0  0  0  0  0  0  0999 V2000
    3.1058   -0.9979    7.2366 C   0  0  0  0  0  0  0  0  0  0  0  0
    3.1785   -0.2671    5.9007 C   0  0  0  0  0  0  0  0  0  0  0  0
    3.7786   -1.1707    4.8538 C   0  0  0  0  0  0  0  0  0  0  0  0
    5.1489   -1.1477    4.5843 C   0  0  0  0  0  0  0  0  0  0  0  0
    5.7092   -2.0918    3.7240 C   0  0  0  0  0  0  0  0  0  0  0  0
    4.9109   -3.0890    3.1536 C   0  0  0  0  0  0  0  0  0  0  0  0
    3.5383   -3.1395    3.4200 C   0  0  0  0  0  0  0  0  0  0  0  0
    2.6987   -4.2428    2.9766 C   0  0  0  0  0  0  0  0  0  0  0  0
    1.3625   -4.5449    3.1180 C   0  0  0  0  0  0  0  0  0  0  0  0
    1.1090   -5.8040    2.6589 N   0  0  0  0  0  0  0  0  0  0  0  0
    2.2812   -6.2328    2.2407 C   0  0  0  0  0  0  0  0  0  0  0  0
    2.6197   -7.4507    1.7753 N   0  0  0  0  0  0  0  0  0  0  0  0
    1.9706   -8.6420    2.1816 C   0  0  0  0  0  0  0  0  0  0  0  0
    1.3606   -8.6994    3.4570 C   0  0  0  0  0  0  0  0  0  0  0  0
    0.5993   -9.7988    3.8589 C   0  0  0  0  0  0  0  0  0  0  0  0
   -0.1374   -9.7955    5.4779 S   0  0  0  0  0  0  0  0  0  0  0  0
   -0.9352  -11.0052    5.5882 O   0  0  0  0  0  0  0  0  0  0  0  0
    0.9321   -9.5268    6.4150 O   0  0  0  0  0  0  0  0  0  0  0  0
   -1.2603   -8.4059    5.4743 C   0  0  0  0  0  0  0  0  0  0  0  0
   -1.9945   -8.2899    6.7993 C   0  0  0  0  0  0  0  0  0  0  0  0
    0.4500  -10.8920    3.0169 C   0  0  0  0  0  0  0  0  0  0  0  0
    1.0736  -10.8708    1.7691 C   0  0  0  0  0  0  0  0  0  0  0  0
    1.8449   -9.7705    1.3467 C   0  0  0  0  0  0  0  0  0  0  0  0
    2.3052   -9.9247    0.0647 O   0  0  0  0  0  0  0  0  0  0  0  0
    3.5486   -9.3352   -0.2772 C   0  0  0  0  0  0  0  0  0  0  0  0
    3.2941   -5.3206    2.3671 O   0  0  0  0  0  0  0  0  0  0  0  0
    2.9803   -2.1447    4.2389 C   0  0  0  0  0  0  0  0  0  0  0  0
    2.6947   -0.3465    8.0123 H   0  0  0  0  0  0  0  0  0  0  0  0
    4.0993   -1.3302    7.5583 H   0  0  0  0  0  0  0  0  0  0  0  0
    2.4681   -1.8873    7.1683 H   0  0  0  0  0  0  0  0  0  0  0  0
    3.7761    0.6456    6.0040 H   0  0  0  0  0  0  0  0  0  0  0  0
    2.1748    0.0497    5.5915 H   0  0  0  0  0  0  0  0  0  0  0  0
    5.7922   -0.4175    5.0704 H   0  0  0  0  0  0  0  0  0  0  0  0
    6.7795   -2.0784    3.5330 H   0  0  0  0  0  0  0  0  0  0  0  0
    5.3817   -3.8441    2.5288 H   0  0  0  0  0  0  0  0  0  0  0  0
    0.5844   -3.9459    3.5680 H   0  0  0  0  0  0  0  0  0  0  0  0
    3.5816   -7.5735    1.4975 H   0  0  0  0  0  0  0  0  0  0  0  0
    1.4827   -7.8704    4.1519 H   0  0  0  0  0  0  0  0  0  0  0  0
   -1.9742   -8.5498    4.6576 H   0  0  0  0  0  0  0  0  0  0  0  0
   -0.6796   -7.4975    5.2928 H   0  0  0  0  0  0  0  0  0  0  0  0
   -2.5861   -9.1878    7.0054 H   0  0  0  0  0  0  0  0  0  0  0  0
   -2.6740   -7.4311    6.7896 H   0  0  0  0  0  0  0  0  0  0  0  0
   -1.2932   -8.1572    7.6302 H   0  0  0  0  0  0  0  0  0  0  0  0
   -0.1360  -11.7588    3.3145 H   0  0  0  0  0  0  0  0  0  0  0  0
    0.9518  -11.7226    1.1031 H   0  0  0  0  0  0  0  0  0  0  0  0
    3.9511   -9.8807   -1.1370 H   0  0  0  0  0  0  0  0  0  0  0  0
    4.2828   -9.4137    0.5314 H   0  0  0  0  0  0  0  0  0  0  0  0
    3.4042   -8.2982   -0.5928 H   0  0  0  0  0  0  0  0  0  0  0  0
    1.9161   -2.1545    4.4657 H   0  0  0  0  0  0  0  0  0  0  0  0
  1  2  1  0  0  0  0
  1 28  1  0  0  0  0
  1 29  1  0  0  0  0
  1 30  1  0  0  0  0
  2  3  1  0  0  0  0
  2 31  1  0  0  0  0
  2 32  1  0  0  0  0
  3  4  1  0  0  0  0
  3 27  2  0  0  0  0
  4  5  2  0  0  0  0
  4 33  1  0  0  0  0
  5  6  1  0  0  0  0
  5 34  1  0  0  0  0
  6  7  2  0  0  0  0
  6 35  1  0  0  0  0
  7  8  1  0  0  0  0
  7 27  1  0  0  0  0
  8  9  2  0  0  0  0
  8 26  1  0  0  0  0
  9 10  1  0  0  0  0
  9 36  1  0  0  0  0
 10 11  2  0  0  0  0
 11 12  1  0  0  0  0
 11 26  1  0  0  0  0
 12 13  1  0  0  0  0
 12 37  1  0  0  0  0
 13 14  1  0  0  0  0
 13 23  2  0  0  0  0
 14 15  2  0  0  0  0
 14 38  1  0  0  0  0
 15 16  1  0  0  0  0
 15 21  1  0  0  0  0
 16 17  2  0  0  0  0
 16 18  2  0  0  0  0
 16 19  1  0  0  0  0
 19 20  1  0  0  0  0
 19 39  1  0  0  0  0
 19 40  1  0  0  0  0
 20 41  1  0  0  0  0
 20 42  1  0  0  0  0
 20 43  1  0  0  0  0
 21 22  2  0  0  0  0
 21 44  1  0  0  0  0
 22 23  1  0  0  0  0
 22 45  1  0  0  0  0
 23 24  1  0  0  0  0
 24 25  1  0  0  0  0
 25 46  1  0  0  0  0
 25 47  1  0  0  0  0
 25 48  1  0  0  0  0
 27 49  1  0  0  0  0
M  END
$$$$
