CHEMBL3545335
 OpenBabel04072215363D

 57 61  0  0  0  0  0  0  0  0999 V2000
   -3.2271   -0.5537    2.1493 C   0  0  0  0  0  0  0  0  0  0  0  0
   -2.7870   -1.8607    1.6108 C   0  0  0  0  0  0  0  0  0  0  0  0
   -1.4766   -2.3363    1.3790 C   0  0  0  0  0  0  0  0  0  0  0  0
   -1.6173   -3.6357    0.9102 C   0  0  0  0  0  0  0  0  0  0  0  0
   -0.6340   -4.6318    0.5273 C   0  0  0  0  0  0  0  0  0  0  0  0
   -0.9861   -5.7229    0.0966 O   0  0  0  0  0  0  0  0  0  0  0  0
    0.6959   -4.3007    0.7102 N   0  0  0  0  0  0  0  0  0  0  0  0
    1.7919   -5.1190    0.3124 C   0  0  0  0  0  0  0  0  0  0  0  0
    1.6654   -6.1805   -0.5923 C   0  0  0  0  0  0  0  0  0  0  0  0
    2.7587   -6.9798   -0.9510 C   0  0  0  0  0  0  0  0  0  0  0  0
    2.5578   -8.0580   -1.8249 N   0  0  0  0  0  0  0  0  0  0  0  0
    3.1425   -9.3356   -1.8511 C   0  0  0  0  0  0  0  0  0  0  0  0
    3.2406   -9.9950   -3.0804 C   0  0  0  0  0  0  0  0  0  0  0  0
    3.8323  -11.2601   -3.1906 C   0  0  0  0  0  0  0  0  0  0  0  0
    4.3453  -11.8862   -2.0376 C   0  0  0  0  0  0  0  0  0  0  0  0
    4.9629  -13.1366   -1.7118 C   0  0  0  0  0  0  0  0  0  0  0  0
    5.2510  -14.2207   -2.6050 C   0  0  0  0  0  0  0  0  0  0  0  0
    5.5598  -14.0959   -3.9070 C   0  0  0  0  0  0  0  0  0  0  0  0
    5.8320  -15.1711   -4.8634 C   0  0  0  0  0  0  0  0  0  0  0  0
    5.3095  -16.4576   -4.7582 C   0  0  0  0  0  0  0  0  0  0  0  0
    5.5594  -17.3674   -5.7854 C   0  0  0  0  0  0  0  0  0  0  0  0
    6.3148  -16.9704   -6.8826 C   0  0  0  0  0  0  0  0  0  0  0  0
    6.7928  -15.6718   -6.9065 C   0  0  0  0  0  0  0  0  0  0  0  0
    6.5586  -14.7704   -5.9304 N   0  0  0  0  0  0  0  0  0  0  0  0
    5.2072  -13.2291   -0.3958 N   0  0  0  0  0  0  0  0  0  0  0  0
    4.7997  -12.0500    0.0985 N   0  0  0  0  0  0  0  0  0  0  0  0
    4.2513  -11.2085   -0.8283 C   0  0  0  0  0  0  0  0  0  0  0  0
    3.6772   -9.9371   -0.7015 C   0  0  0  0  0  0  0  0  0  0  0  0
    4.0061   -6.7059   -0.3815 C   0  0  0  0  0  0  0  0  0  0  0  0
    4.1593   -5.6379    0.5002 C   0  0  0  0  0  0  0  0  0  0  0  0
    3.0603   -4.8495    0.8361 C   0  0  0  0  0  0  0  0  0  0  0  0
    3.2247   -3.8370    1.6997 F   0  0  0  0  0  0  0  0  0  0  0  0
   -2.9851   -3.8290    0.8443 N   0  0  0  0  0  0  0  0  0  0  0  0
   -3.7459   -4.9735    0.3939 C   0  0  0  0  0  0  0  0  0  0  0  0
   -3.6995   -2.7732    1.2810 N   0  0  0  0  0  0  0  0  0  0  0  0
   -2.3738    0.0872    2.3873 H   0  0  0  0  0  0  0  0  0  0  0  0
   -3.8103   -0.6987    3.0652 H   0  0  0  0  0  0  0  0  0  0  0  0
   -3.8572   -0.0310    1.4217 H   0  0  0  0  0  0  0  0  0  0  0  0
   -0.5589   -1.7915    1.5489 H   0  0  0  0  0  0  0  0  0  0  0  0
    0.9270   -3.4871    1.2666 H   0  0  0  0  0  0  0  0  0  0  0  0
    0.7094   -6.4259   -1.0410 H   0  0  0  0  0  0  0  0  0  0  0  0
    1.7965   -7.9360   -2.4853 H   0  0  0  0  0  0  0  0  0  0  0  0
    2.8599   -9.5200   -3.9822 H   0  0  0  0  0  0  0  0  0  0  0  0
    3.8740  -11.7408   -4.1625 H   0  0  0  0  0  0  0  0  0  0  0  0
    5.2382  -15.2046   -2.1465 H   0  0  0  0  0  0  0  0  0  0  0  0
    5.6644  -13.1097   -4.3495 H   0  0  0  0  0  0  0  0  0  0  0  0
    4.6983  -16.7544   -3.9141 H   0  0  0  0  0  0  0  0  0  0  0  0
    5.1555  -18.3748   -5.7351 H   0  0  0  0  0  0  0  0  0  0  0  0
    6.5210  -17.6502   -7.6996 H   0  0  0  0  0  0  0  0  0  0  0  0
    7.3878  -15.3081   -7.7394 H   0  0  0  0  0  0  0  0  0  0  0  0
    4.9031  -11.8853    1.0931 H   0  0  0  0  0  0  0  0  0  0  0  0
    3.6013   -9.4577    0.2685 H   0  0  0  0  0  0  0  0  0  0  0  0
    4.8684   -7.3048   -0.6573 H   0  0  0  0  0  0  0  0  0  0  0  0
    5.1354   -5.4197    0.9273 H   0  0  0  0  0  0  0  0  0  0  0  0
   -3.1266   -5.7706    0.0015 H   0  0  0  0  0  0  0  0  0  0  0  0
   -4.4191   -4.6406   -0.4010 H   0  0  0  0  0  0  0  0  0  0  0  0
   -4.3199   -5.3535    1.2434 H   0  0  0  0  0  0  0  0  0  0  0  0
  1  2  1  0  0  0  0
  1 36  1  0  0  0  0
  1 37  1  0  0  0  0
  1 38  1  0  0  0  0
  2  3  1  0  0  0  0
  2 35  2  0  0  0  0
  3  4  2  0  0  0  0
  3 39  1  0  0  0  0
  4  5  1  0  0  0  0
  4 33  1  0  0  0  0
  5  6  2  0  0  0  0
  5  7  1  0  0  0  0
  7  8  1  0  0  0  0
  7 40  1  0  0  0  0
  8  9  1  0  0  0  0
  8 31  2  0  0  0  0
  9 10  2  0  0  0  0
  9 41  1  0  0  0  0
 10 11  1  0  0  0  0
 10 29  1  0  0  0  0
 11 12  1  0  0  0  0
 11 42  1  0  0  0  0
 12 13  1  0  0  0  0
 12 28  2  0  0  0  0
 13 14  2  0  0  0  0
 13 43  1  0  0  0  0
 14 15  1  0  0  0  0
 14 44  1  0  0  0  0
 15 16  1  0  0  0  0
 15 27  2  0  0  0  0
 16 17  1  0  0  0  0
 16 25  2  0  0  0  0
 17 18  2  0  0  0  0
 17 45  1  0  0  0  0
 18 19  1  0  0  0  0
 18 46  1  0  0  0  0
 19 20  1  0  0  0  0
 19 24  2  0  0  0  0
 20 21  2  0  0  0  0
 20 47  1  0  0  0  0
 21 22  1  0  0  0  0
 21 48  1  0  0  0  0
 22 23  2  0  0  0  0
 22 49  1  0  0  0  0
 23 24  1  0  0  0  0
 23 50  1  0  0  0  0
 25 26  1  0  0  0  0
 26 27  1  0  0  0  0
 26 51  1  0  0  0  0
 27 28  1  0  0  0  0
 28 52  1  0  0  0  0
 29 30  2  0  0  0  0
 29 53  1  0  0  0  0
 30 31  1  0  0  0  0
 30 54  1  0  0  0  0
 31 32  1  0  0  0  0
 33 34  1  0  0  0  0
 33 35  1  0  0  0  0
 34 55  1  0  0  0  0
 34 56  1  0  0  0  0
 34 57  1  0  0  0  0
M  END
$$$$
