CHEMBL147180
 OpenBabel04072215363D

 51 54  0  0  0  0  0  0  0  0999 V2000
    2.5525    0.9596    0.5697 C   0  0  0  0  0  0  0  0  0  0  0  0
    2.4479   -0.1728   -0.2984 O   0  0  0  0  0  0  0  0  0  0  0  0
    3.2554   -1.2441   -0.0106 C   0  0  0  0  0  0  0  0  0  0  0  0
    4.4272   -1.1151    0.7420 C   0  0  0  0  0  0  0  0  0  0  0  0
    5.1425   -2.2513    1.1877 C   0  0  0  0  0  0  0  0  0  0  0  0
    6.1538   -2.2376    2.1569 C   0  0  0  0  0  0  0  0  0  0  0  0
    6.4373   -1.0363    2.8575 N   0  0  0  0  0  0  0  0  0  0  0  0
    7.1347   -0.9803    4.0864 C   0  0  0  0  0  0  0  0  0  0  0  0
    6.8388   -1.8646    5.1348 C   0  0  0  0  0  0  0  0  0  0  0  0
    7.6030   -1.8673    6.3032 C   0  0  0  0  0  0  0  0  0  0  0  0
    8.6610   -0.9707    6.4367 C   0  0  0  0  0  0  0  0  0  0  0  0
    9.6488   -1.0260    7.8442 Cl  0  0  0  0  0  0  0  0  0  0  0  0
    8.9339   -0.0430    5.4357 C   0  0  0  0  0  0  0  0  0  0  0  0
    8.1623   -0.0491    4.2777 C   0  0  0  0  0  0  0  0  0  0  0  0
    8.4357    0.8361    3.3060 F   0  0  0  0  0  0  0  0  0  0  0  0
    6.7888   -3.3655    2.5303 N   0  0  0  0  0  0  0  0  0  0  0  0
    6.4085   -4.4998    1.9455 C   0  0  0  0  0  0  0  0  0  0  0  0
    5.4286   -4.6242    1.0461 N   0  0  0  0  0  0  0  0  0  0  0  0
    4.7883   -3.5066    0.6952 C   0  0  0  0  0  0  0  0  0  0  0  0
    3.6950   -3.6166   -0.1413 C   0  0  0  0  0  0  0  0  0  0  0  0
    2.8730   -2.5188   -0.4608 C   0  0  0  0  0  0  0  0  0  0  0  0
    1.6906   -2.6506   -1.1761 O   0  0  0  0  0  0  0  0  0  0  0  0
    1.1961   -4.0015   -1.2639 C   0  0  0  0  0  0  0  0  0  0  0  0
   -0.2430   -4.0992   -1.8107 C   0  0  0  0  0  0  0  0  0  0  0  0
   -0.8337   -5.4225   -1.5342 N   0  0  0  0  0  0  0  0  0  0  0  0
   -0.2081   -6.5575   -2.2107 C   0  0  0  0  0  0  0  0  0  0  0  0
   -1.1992   -7.0753   -3.2331 C   0  0  0  0  0  0  0  0  0  0  0  0
   -2.5532   -6.6029   -2.7559 C   0  0  0  0  0  0  0  0  0  0  0  0
   -2.2783   -5.4855   -1.7603 C   0  0  0  0  0  0  0  0  0  0  0  0
    3.1696    1.7304    0.0958 H   0  0  0  0  0  0  0  0  0  0  0  0
    2.9466    0.7304    1.5674 H   0  0  0  0  0  0  0  0  0  0  0  0
    1.5496    1.3632    0.7275 H   0  0  0  0  0  0  0  0  0  0  0  0
    4.7801   -0.1316    1.0486 H   0  0  0  0  0  0  0  0  0  0  0  0
    6.7360   -0.3062    2.2165 H   0  0  0  0  0  0  0  0  0  0  0  0
    6.0202   -2.5743    5.0328 H   0  0  0  0  0  0  0  0  0  0  0  0
    7.3796   -2.5829    7.0910 H   0  0  0  0  0  0  0  0  0  0  0  0
    9.7487    0.6650    5.5318 H   0  0  0  0  0  0  0  0  0  0  0  0
    6.9288   -5.4043    2.2439 H   0  0  0  0  0  0  0  0  0  0  0  0
    3.4636   -4.6151   -0.4958 H   0  0  0  0  0  0  0  0  0  0  0  0
    1.1951   -4.4427   -0.2590 H   0  0  0  0  0  0  0  0  0  0  0  0
    1.8563   -4.5702   -1.9274 H   0  0  0  0  0  0  0  0  0  0  0  0
   -0.2607   -3.8680   -2.8833 H   0  0  0  0  0  0  0  0  0  0  0  0
   -0.8404   -3.3228   -1.3167 H   0  0  0  0  0  0  0  0  0  0  0  0
   -0.0177   -7.3369   -1.4631 H   0  0  0  0  0  0  0  0  0  0  0  0
    0.7517   -6.3350   -2.6864 H   0  0  0  0  0  0  0  0  0  0  0  0
   -1.1634   -8.1678   -3.3187 H   0  0  0  0  0  0  0  0  0  0  0  0
   -0.9837   -6.6572   -4.2241 H   0  0  0  0  0  0  0  0  0  0  0  0
   -3.0982   -7.4226   -2.2745 H   0  0  0  0  0  0  0  0  0  0  0  0
   -3.1599   -6.2511   -3.5972 H   0  0  0  0  0  0  0  0  0  0  0  0
   -2.7743   -5.7166   -0.8101 H   0  0  0  0  0  0  0  0  0  0  0  0
   -2.7012   -4.5411   -2.1186 H   0  0  0  0  0  0  0  0  0  0  0  0
  1  2  1  0  0  0  0
  1 30  1  0  0  0  0
  1 31  1  0  0  0  0
  1 32  1  0  0  0  0
  2  3  1  0  0  0  0
  3  4  1  0  0  0  0
  3 21  2  0  0  0  0
  4  5  2  0  0  0  0
  4 33  1  0  0  0  0
  5  6  1  0  0  0  0
  5 19  1  0  0  0  0
  6  7  1  0  0  0  0
  6 16  2  0  0  0  0
  7  8  1  0  0  0  0
  7 34  1  0  0  0  0
  8  9  1  0  0  0  0
  8 14  2  0  0  0  0
  9 10  2  0  0  0  0
  9 35  1  0  0  0  0
 10 11  1  0  0  0  0
 10 36  1  0  0  0  0
 11 12  1  0  0  0  0
 11 13  2  0  0  0  0
 13 14  1  0  0  0  0
 13 37  1  0  0  0  0
 14 15  1  0  0  0  0
 16 17  1  0  0  0  0
 17 18  2  0  0  0  0
 17 38  1  0  0  0  0
 18 19  1  0  0  0  0
 19 20  2  0  0  0  0
 20 21  1  0  0  0  0
 20 39  1  0  0  0  0
 21 22  1  0  0  0  0
 22 23  1  0  0  0  0
 23 24  1  0  0  0  0
 23 40  1  0  0  0  0
 23 41  1  0  0  0  0
 24 25  1  0  0  0  0
 24 42  1  0  0  0  0
 24 43  1  0  0  0  0
 25 26  1  0  0  0  0
 25 29  1  0  0  0  0
 26 27  1  0  0  0  0
 26 44  1  0  0  0  0
 26 45  1  0  0  0  0
 27 28  1  0  0  0  0
 27 46  1  0  0  0  0
 27 47  1  0  0  0  0
 28 29  1  0  0  0  0
 28 48  1  0  0  0  0
 28 49  1  0  0  0  0
 29 50  1  0  0  0  0
 29 51  1  0  0  0  0
M  END
$$$$
