CHEMBL3690552
 OpenBabel04072215373D

 47 50  0  0  0  0  0  0  0  0999 V2000
    3.6721   -0.2622    3.2212 O   0  0  0  0  0  0  0  0  0  0  0  0
    3.8505   -1.4737    3.1899 C   0  0  0  0  0  0  0  0  0  0  0  0
    3.3608   -2.2944    4.1873 N   0  0  0  0  0  0  0  0  0  0  0  0
    2.7246   -1.6768    5.3553 C   0  0  0  0  0  0  0  0  0  0  0  0
    3.6911   -1.2131    6.4541 C   0  0  0  0  0  0  0  0  0  0  0  0
    4.9755   -1.5257    6.1610 F   0  0  0  0  0  0  0  0  0  0  0  0
    3.6210    0.1149    6.6764 F   0  0  0  0  0  0  0  0  0  0  0  0
    3.3965   -1.8370    7.6215 F   0  0  0  0  0  0  0  0  0  0  0  0
    4.4940   -2.1950    2.2171 N   0  0  0  0  0  0  0  0  0  0  0  0
    5.1162   -1.6962    1.0509 C   0  0  0  0  0  0  0  0  0  0  0  0
    5.1639   -0.3448    0.7141 C   0  0  0  0  0  0  0  0  0  0  0  0
    5.7953    0.0681   -0.4593 C   0  0  0  0  0  0  0  0  0  0  0  0
    6.4329   -0.8621   -1.2783 C   0  0  0  0  0  0  0  0  0  0  0  0
    6.4393   -2.2214   -0.9427 C   0  0  0  0  0  0  0  0  0  0  0  0
    7.1840   -3.1691   -1.7792 C   0  0  0  0  0  0  0  0  0  0  0  0
    7.4036   -3.1444   -3.1502 C   0  0  0  0  0  0  0  0  0  0  0  0
    8.1798   -4.1869   -3.5727 N   0  0  0  0  0  0  0  0  0  0  0  0
    8.4568   -4.8647   -2.4833 C   0  0  0  0  0  0  0  0  0  0  0  0
    9.2153   -6.0568   -2.3174 C   0  0  0  0  0  0  0  0  0  0  0  0
    9.4094   -6.6005   -1.0906 C   0  0  0  0  0  0  0  0  0  0  0  0
   10.1722   -7.8682   -0.9666 C   0  0  0  0  0  0  0  0  0  0  0  0
   11.2574   -8.1633   -1.7941 C   0  0  0  0  0  0  0  0  0  0  0  0
   11.9007   -9.3919   -1.6639 C   0  0  0  0  0  0  0  0  0  0  0  0
   11.4566  -10.2779   -0.6976 C   0  0  0  0  0  0  0  0  0  0  0  0
   12.0279  -11.5017   -0.5343 O   0  0  0  0  0  0  0  0  0  0  0  0
   10.4013   -9.9004    0.1156 C   0  0  0  0  0  0  0  0  0  0  0  0
    9.7544   -8.7167    0.0043 N   0  0  0  0  0  0  0  0  0  0  0  0
    8.8144   -5.9416    0.0773 C   0  0  0  0  0  0  0  0  0  0  0  0
    8.1102   -4.8089   -0.0710 C   0  0  0  0  0  0  0  0  0  0  0  0
    7.9027   -4.2804   -1.3472 N   0  0  0  0  0  0  0  0  0  0  0  0
    5.7261   -2.6264    0.1970 C   0  0  0  0  0  0  0  0  0  0  0  0
    3.9008   -3.1305    4.3679 H   0  0  0  0  0  0  0  0  0  0  0  0
    2.0395   -2.4281    5.7604 H   0  0  0  0  0  0  0  0  0  0  0  0
    2.1155   -0.8284    5.0235 H   0  0  0  0  0  0  0  0  0  0  0  0
    4.4883   -3.1984    2.3286 H   0  0  0  0  0  0  0  0  0  0  0  0
    4.7090    0.4180    1.3372 H   0  0  0  0  0  0  0  0  0  0  0  0
    5.8018    1.1221   -0.7250 H   0  0  0  0  0  0  0  0  0  0  0  0
    6.9378   -0.5049   -2.1732 H   0  0  0  0  0  0  0  0  0  0  0  0
    7.0306   -2.4176   -3.8612 H   0  0  0  0  0  0  0  0  0  0  0  0
    9.6070   -6.4996   -3.2259 H   0  0  0  0  0  0  0  0  0  0  0  0
   11.6083   -7.4545   -2.5378 H   0  0  0  0  0  0  0  0  0  0  0  0
   12.7307   -9.6297   -2.3195 H   0  0  0  0  0  0  0  0  0  0  0  0
   12.6954  -11.6285   -1.2300 H   0  0  0  0  0  0  0  0  0  0  0  0
   10.0331  -10.5630    0.8927 H   0  0  0  0  0  0  0  0  0  0  0  0
    8.9643   -6.3898    1.0552 H   0  0  0  0  0  0  0  0  0  0  0  0
    7.6964   -4.2924    0.7813 H   0  0  0  0  0  0  0  0  0  0  0  0
    5.6430   -3.6839    0.4295 H   0  0  0  0  0  0  0  0  0  0  0  0
  1  2  2  0  0  0  0
  2  3  1  0  0  0  0
  2  9  1  0  0  0  0
  3  4  1  0  0  0  0
  3 32  1  0  0  0  0
  4  5  1  0  0  0  0
  4 33  1  0  0  0  0
  4 34  1  0  0  0  0
  5  6  1  0  0  0  0
  5  7  1  0  0  0  0
  5  8  1  0  0  0  0
  9 10  1  0  0  0  0
  9 35  1  0  0  0  0
 10 11  1  0  0  0  0
 10 31  2  0  0  0  0
 11 12  2  0  0  0  0
 11 36  1  0  0  0  0
 12 13  1  0  0  0  0
 12 37  1  0  0  0  0
 13 14  2  0  0  0  0
 13 38  1  0  0  0  0
 14 15  1  0  0  0  0
 14 31  1  0  0  0  0
 15 16  2  0  0  0  0
 15 30  1  0  0  0  0
 16 17  1  0  0  0  0
 16 39  1  0  0  0  0
 17 18  2  0  0  0  0
 18 19  1  0  0  0  0
 18 30  1  0  0  0  0
 19 20  2  0  0  0  0
 19 40  1  0  0  0  0
 20 21  1  0  0  0  0
 20 28  1  0  0  0  0
 21 22  1  0  0  0  0
 21 27  2  0  0  0  0
 22 23  2  0  0  0  0
 22 41  1  0  0  0  0
 23 24  1  0  0  0  0
 23 42  1  0  0  0  0
 24 25  1  0  0  0  0
 24 26  2  0  0  0  0
 25 43  1  0  0  0  0
 26 27  1  0  0  0  0
 26 44  1  0  0  0  0
 28 29  2  0  0  0  0
 28 45  1  0  0  0  0
 29 30  1  0  0  0  0
 29 46  1  0  0  0  0
 31 47  1  0  0  0  0
M  END
$$$$
