CHEMBL3696076
 OpenBabel04072215373D

 69 72  0  0  0  0  0  0  0  0999 V2000
   -5.6389   -5.5915    3.4601 C   0  0  0  0  0  0  0  0  0  0  0  0
   -5.3336   -4.2031    2.9914 C   0  0  0  0  0  0  0  0  0  0  0  0
   -6.3683   -3.3348    2.6610 C   0  0  0  0  0  0  0  0  0  0  0  0
   -6.0912   -2.0419    2.2231 C   0  0  0  0  0  0  0  0  0  0  0  0
   -4.7796   -1.5683    2.1224 C   0  0  0  0  0  0  0  0  0  0  0  0
   -4.4647   -0.2590    1.6812 N   0  0  0  0  0  0  0  0  0  0  0  0
   -5.3897    0.7320    1.4389 C   0  0  0  0  0  0  0  0  0  0  0  0
   -6.5927    0.6421    1.6532 O   0  0  0  0  0  0  0  0  0  0  0  0
   -4.8257    1.8632    0.8600 N   0  0  0  0  0  0  0  0  0  0  0  0
   -5.6657    2.9583    0.5456 C   0  0  0  0  0  0  0  0  0  0  0  0
   -6.6179    3.4128    1.4627 C   0  0  0  0  0  0  0  0  0  0  0  0
   -7.5090    4.4237    1.1140 C   0  0  0  0  0  0  0  0  0  0  0  0
   -7.4592    5.0141   -0.1552 C   0  0  0  0  0  0  0  0  0  0  0  0
   -8.3590    6.1389   -0.4575 C   0  0  0  0  0  0  0  0  0  0  0  0
   -8.6082    6.9869    0.5499 N   0  0  0  0  0  0  0  0  0  0  0  0
   -9.5302    8.2392    0.0234 S   0  0  0  0  0  0  0  0  0  0  0  0
   -9.6572    7.6925   -1.5793 C   0  0  0  0  0  0  0  0  0  0  0  0
  -10.3141    8.4735   -2.5205 N   0  0  0  0  0  0  0  0  0  0  0  0
  -11.5692    8.9638   -2.2335 C   0  0  0  0  0  0  0  0  0  0  0  0
  -12.2269    8.6963   -1.2331 O   0  0  0  0  0  0  0  0  0  0  0  0
  -12.0445    9.7910   -3.2172 N   0  0  0  0  0  0  0  0  0  0  0  0
  -13.3377   10.4416   -3.0763 C   0  0  0  0  0  0  0  0  0  0  0  0
  -13.3379   11.5993   -2.0694 C   0  0  0  0  0  0  0  0  0  0  0  0
  -12.4420   12.7672   -2.5047 C   0  0  0  0  0  0  0  0  0  0  0  0
  -12.5316   13.9490   -1.6275 N   0  0  0  0  0  0  0  0  0  0  0  0
  -11.6859   15.0579   -2.1331 C   0  0  0  0  0  0  0  0  0  0  0  0
  -10.1782   14.8533   -1.8947 C   0  0  0  0  0  0  0  0  0  0  0  0
   -9.8923   14.6385   -0.5081 O   0  0  0  0  0  0  0  0  0  0  0  0
  -10.6306   13.5174   -0.0038 C   0  0  0  0  0  0  0  0  0  0  0  0
  -12.1421   13.6992   -0.2205 C   0  0  0  0  0  0  0  0  0  0  0  0
   -8.9934    6.4853   -1.7199 C   0  0  0  0  0  0  0  0  0  0  0  0
   -9.0315    5.7531   -2.9723 C   0  0  0  0  0  0  0  0  0  0  0  0
   -9.0859    4.3919   -2.8855 N   0  0  0  0  0  0  0  0  0  0  0  0
   -9.0957    6.3102   -4.0651 O   0  0  0  0  0  0  0  0  0  0  0  0
   -6.4859    4.5705   -1.0639 C   0  0  0  0  0  0  0  0  0  0  0  0
   -5.5837    3.5562   -0.7110 C   0  0  0  0  0  0  0  0  0  0  0  0
   -3.7351   -2.4385    2.4553 C   0  0  0  0  0  0  0  0  0  0  0  0
   -4.0153   -3.7471    2.8821 C   0  0  0  0  0  0  0  0  0  0  0  0
   -6.7221   -5.7727    3.4824 H   0  0  0  0  0  0  0  0  0  0  0  0
   -5.2616   -5.7418    4.4766 H   0  0  0  0  0  0  0  0  0  0  0  0
   -5.1954   -6.3273    2.7865 H   0  0  0  0  0  0  0  0  0  0  0  0
   -7.4067   -3.6525    2.7328 H   0  0  0  0  0  0  0  0  0  0  0  0
   -6.9495   -1.4317    1.9693 H   0  0  0  0  0  0  0  0  0  0  0  0
   -3.4903    0.0097    1.6800 H   0  0  0  0  0  0  0  0  0  0  0  0
   -4.0570    1.6829    0.2313 H   0  0  0  0  0  0  0  0  0  0  0  0
   -6.6829    2.9817    2.4588 H   0  0  0  0  0  0  0  0  0  0  0  0
   -8.2392    4.7530    1.8533 H   0  0  0  0  0  0  0  0  0  0  0  0
  -10.1695    8.2019   -3.4895 H   0  0  0  0  0  0  0  0  0  0  0  0
  -11.3969   10.1335   -3.9115 H   0  0  0  0  0  0  0  0  0  0  0  0
  -14.0584    9.6866   -2.7363 H   0  0  0  0  0  0  0  0  0  0  0  0
  -13.6539   10.7811   -4.0665 H   0  0  0  0  0  0  0  0  0  0  0  0
  -13.0161   11.2189   -1.0948 H   0  0  0  0  0  0  0  0  0  0  0  0
  -14.3686   11.9568   -1.9514 H   0  0  0  0  0  0  0  0  0  0  0  0
  -12.7698   13.0716   -3.5079 H   0  0  0  0  0  0  0  0  0  0  0  0
  -11.4094   12.4179   -2.6023 H   0  0  0  0  0  0  0  0  0  0  0  0
  -11.9953   15.9707   -1.6066 H   0  0  0  0  0  0  0  0  0  0  0  0
  -11.8801   15.2394   -3.1964 H   0  0  0  0  0  0  0  0  0  0  0  0
   -9.6314   15.7491   -2.2065 H   0  0  0  0  0  0  0  0  0  0  0  0
   -9.7838   14.0127   -2.4763 H   0  0  0  0  0  0  0  0  0  0  0  0
  -10.4219   13.4485    1.0689 H   0  0  0  0  0  0  0  0  0  0  0  0
  -10.2599   12.5988   -0.4723 H   0  0  0  0  0  0  0  0  0  0  0  0
  -12.4639   14.5753    0.3586 H   0  0  0  0  0  0  0  0  0  0  0  0
  -12.6910   12.8567    0.2097 H   0  0  0  0  0  0  0  0  0  0  0  0
   -9.2543    3.9093   -2.0115 H   0  0  0  0  0  0  0  0  0  0  0  0
   -9.2347    3.8754   -3.7422 H   0  0  0  0  0  0  0  0  0  0  0  0
   -6.4103    5.0070   -2.0554 H   0  0  0  0  0  0  0  0  0  0  0  0
   -4.8608    3.2131   -1.4453 H   0  0  0  0  0  0  0  0  0  0  0  0
   -2.7009   -2.1211    2.3817 H   0  0  0  0  0  0  0  0  0  0  0  0
   -3.1891   -4.4071    3.1343 H   0  0  0  0  0  0  0  0  0  0  0  0
  1  2  1  0  0  0  0
  1 39  1  0  0  0  0
  1 40  1  0  0  0  0
  1 41  1  0  0  0  0
  2  3  1  0  0  0  0
  2 38  2  0  0  0  0
  3  4  2  0  0  0  0
  3 42  1  0  0  0  0
  4  5  1  0  0  0  0
  4 43  1  0  0  0  0
  5  6  1  0  0  0  0
  5 37  2  0  0  0  0
  6  7  1  0  0  0  0
  6 44  1  0  0  0  0
  7  8  2  0  0  0  0
  7  9  1  0  0  0  0
  9 10  1  0  0  0  0
  9 45  1  0  0  0  0
 10 11  1  0  0  0  0
 10 36  2  0  0  0  0
 11 12  2  0  0  0  0
 11 46  1  0  0  0  0
 12 13  1  0  0  0  0
 12 47  1  0  0  0  0
 13 14  1  0  0  0  0
 13 35  2  0  0  0  0
 14 15  2  0  0  0  0
 14 31  1  0  0  0  0
 15 16  1  0  0  0  0
 16 17  1  0  0  0  0
 17 18  1  0  0  0  0
 17 31  2  0  0  0  0
 18 19  1  0  0  0  0
 18 48  1  0  0  0  0
 19 20  2  0  0  0  0
 19 21  1  0  0  0  0
 21 22  1  0  0  0  0
 21 49  1  0  0  0  0
 22 23  1  0  0  0  0
 22 50  1  0  0  0  0
 22 51  1  0  0  0  0
 23 24  1  0  0  0  0
 23 52  1  0  0  0  0
 23 53  1  0  0  0  0
 24 25  1  0  0  0  0
 24 54  1  0  0  0  0
 24 55  1  0  0  0  0
 25 26  1  0  0  0  0
 25 30  1  0  0  0  0
 26 27  1  0  0  0  0
 26 56  1  0  0  0  0
 26 57  1  0  0  0  0
 27 28  1  0  0  0  0
 27 58  1  0  0  0  0
 27 59  1  0  0  0  0
 28 29  1  0  0  0  0
 29 30  1  0  0  0  0
 29 60  1  0  0  0  0
 29 61  1  0  0  0  0
 30 62  1  0  0  0  0
 30 63  1  0  0  0  0
 31 32  1  0  0  0  0
 32 33  1  0  0  0  0
 32 34  2  0  0  0  0
 33 64  1  0  0  0  0
 33 65  1  0  0  0  0
 35 36  1  0  0  0  0
 35 66  1  0  0  0  0
 36 67  1  0  0  0  0
 37 38  1  0  0  0  0
 37 68  1  0  0  0  0
 38 69  1  0  0  0  0
M  END
$$$$
