CHEMBL3932302
 OpenBabel04072215373D

 57 60  0  0  0  0  0  0  0  0999 V2000
    5.4435    0.9814   -0.1711 C   0  0  0  0  0  0  0  0  0  0  0  0
    4.3080   -0.3723   -0.3349 S   0  0  0  0  0  0  0  0  0  0  0  0
    2.9615    0.1306   -0.1443 O   0  0  0  0  0  0  0  0  0  0  0  0
    4.6693   -1.1033   -1.5345 O   0  0  0  0  0  0  0  0  0  0  0  0
    4.6490   -1.4335    1.0482 C   0  0  0  0  0  0  0  0  0  0  0  0
    4.5282   -0.9047    2.3308 C   0  0  0  0  0  0  0  0  0  0  0  0
    4.7423   -1.6937    3.4647 C   0  0  0  0  0  0  0  0  0  0  0  0
    4.6708   -1.1625    4.7805 N   0  0  0  0  0  0  0  0  0  0  0  0
    4.6612    0.1905    5.0713 C   0  0  0  0  0  0  0  0  0  0  0  0
    4.7621    1.0748    4.2222 O   0  0  0  0  0  0  0  0  0  0  0  0
    4.5495    0.4778    6.4182 N   0  0  0  0  0  0  0  0  0  0  0  0
    4.4803    1.8336    6.8044 C   0  0  0  0  0  0  0  0  0  0  0  0
    3.6345    2.7162    6.1352 C   0  0  0  0  0  0  0  0  0  0  0  0
    3.7195    4.0796    6.4020 C   0  0  0  0  0  0  0  0  0  0  0  0
    4.5946    4.5300    7.3840 C   0  0  0  0  0  0  0  0  0  0  0  0
    4.7744    5.8555    7.7167 O   0  0  0  0  0  0  0  0  0  0  0  0
    3.6883    6.7127    7.6991 C   0  0  0  0  0  0  0  0  0  0  0  0
    2.3925    6.3005    7.9946 C   0  0  0  0  0  0  0  0  0  0  0  0
    1.3845    7.2305    7.8963 C   0  0  0  0  0  0  0  0  0  0  0  0
    1.5990    8.5212    7.5942 N   0  0  0  0  0  0  0  0  0  0  0  0
    2.8553    8.9470    7.3815 C   0  0  0  0  0  0  0  0  0  0  0  0
    3.0760   10.3116    7.1097 N   0  0  0  0  0  0  0  0  0  0  0  0
    2.0583   11.2473    7.0251 C   0  0  0  0  0  0  0  0  0  0  0  0
    0.8602   11.0523    7.1637 O   0  0  0  0  0  0  0  0  0  0  0  0
    2.4568   12.6526    6.7036 C   0  0  0  0  0  0  0  0  0  0  0  0
    3.1178   12.9516    5.3767 C   0  0  0  0  0  0  0  0  0  0  0  0
    3.8417   13.2352    6.6638 C   0  0  0  0  0  0  0  0  0  0  0  0
    3.9342    8.0655    7.4225 C   0  0  0  0  0  0  0  0  0  0  0  0
    5.3757    3.5713    8.0244 C   0  0  0  0  0  0  0  0  0  0  0  0
    5.3176    2.2295    7.7828 N   0  0  0  0  0  0  0  0  0  0  0  0
    5.0153   -3.0559    3.2839 C   0  0  0  0  0  0  0  0  0  0  0  0
    5.1185   -3.6086    1.9861 C   0  0  0  0  0  0  0  0  0  0  0  0
    5.3720   -5.0826    1.7707 C   0  0  0  0  0  0  0  0  0  0  0  0
    5.4445   -5.7952    2.9285 F   0  0  0  0  0  0  0  0  0  0  0  0
    4.3927   -5.6708    1.0304 F   0  0  0  0  0  0  0  0  0  0  0  0
    6.5375   -5.3197    1.1096 F   0  0  0  0  0  0  0  0  0  0  0  0
    4.9552   -2.7773    0.8647 C   0  0  0  0  0  0  0  0  0  0  0  0
    5.2882    1.6505   -1.0212 H   0  0  0  0  0  0  0  0  0  0  0  0
    6.4643    0.5960   -0.1852 H   0  0  0  0  0  0  0  0  0  0  0  0
    5.2428    1.5231    0.7549 H   0  0  0  0  0  0  0  0  0  0  0  0
    4.2157    0.1306    2.4127 H   0  0  0  0  0  0  0  0  0  0  0  0
    4.6834   -1.8096    5.5558 H   0  0  0  0  0  0  0  0  0  0  0  0
    5.1276   -0.0686    7.0388 H   0  0  0  0  0  0  0  0  0  0  0  0
    2.9436    2.3613    5.3761 H   0  0  0  0  0  0  0  0  0  0  0  0
    3.1052    4.7637    5.8245 H   0  0  0  0  0  0  0  0  0  0  0  0
    2.1500    5.2823    8.2715 H   0  0  0  0  0  0  0  0  0  0  0  0
    0.3452    6.9628    8.0587 H   0  0  0  0  0  0  0  0  0  0  0  0
    4.0244   10.6127    6.9583 H   0  0  0  0  0  0  0  0  0  0  0  0
    1.6836   13.3530    7.0148 H   0  0  0  0  0  0  0  0  0  0  0  0
    2.7128   13.7801    4.8074 H   0  0  0  0  0  0  0  0  0  0  0  0
    3.4558   12.1222    4.7693 H   0  0  0  0  0  0  0  0  0  0  0  0
    3.9448   14.2790    6.9508 H   0  0  0  0  0  0  0  0  0  0  0  0
    4.6999   12.6360    6.9221 H   0  0  0  0  0  0  0  0  0  0  0  0
    4.9478    8.4046    7.2414 H   0  0  0  0  0  0  0  0  0  0  0  0
    6.1118    3.8659    8.7677 H   0  0  0  0  0  0  0  0  0  0  0  0
    5.1561   -3.7048    4.1471 H   0  0  0  0  0  0  0  0  0  0  0  0
    5.0296   -3.1925   -0.1404 H   0  0  0  0  0  0  0  0  0  0  0  0
  1  2  1  0  0  0  0
  1 38  1  0  0  0  0
  1 39  1  0  0  0  0
  1 40  1  0  0  0  0
  2  3  2  0  0  0  0
  2  4  2  0  0  0  0
  2  5  1  0  0  0  0
  5  6  1  0  0  0  0
  5 37  2  0  0  0  0
  6  7  2  0  0  0  0
  6 41  1  0  0  0  0
  7  8  1  0  0  0  0
  7 31  1  0  0  0  0
  8  9  1  0  0  0  0
  8 42  1  0  0  0  0
  9 10  2  0  0  0  0
  9 11  1  0  0  0  0
 11 12  1  0  0  0  0
 11 43  1  0  0  0  0
 12 13  1  0  0  0  0
 12 30  2  0  0  0  0
 13 14  2  0  0  0  0
 13 44  1  0  0  0  0
 14 15  1  0  0  0  0
 14 45  1  0  0  0  0
 15 16  1  0  0  0  0
 15 29  2  0  0  0  0
 16 17  1  0  0  0  0
 17 18  1  0  0  0  0
 17 28  2  0  0  0  0
 18 19  2  0  0  0  0
 18 46  1  0  0  0  0
 19 20  1  0  0  0  0
 19 47  1  0  0  0  0
 20 21  2  0  0  0  0
 21 22  1  0  0  0  0
 21 28  1  0  0  0  0
 22 23  1  0  0  0  0
 22 48  1  0  0  0  0
 23 24  2  0  0  0  0
 23 25  1  0  0  0  0
 25 26  1  0  0  0  0
 25 27  1  0  0  0  0
 25 49  1  0  0  0  0
 26 27  1  0  0  0  0
 26 50  1  0  0  0  0
 26 51  1  0  0  0  0
 27 52  1  0  0  0  0
 27 53  1  0  0  0  0
 28 54  1  0  0  0  0
 29 30  1  0  0  0  0
 29 55  1  0  0  0  0
 31 32  2  0  0  0  0
 31 56  1  0  0  0  0
 32 33  1  0  0  0  0
 32 37  1  0  0  0  0
 33 34  1  0  0  0  0
 33 35  1  0  0  0  0
 33 36  1  0  0  0  0
 37 57  1  0  0  0  0
M  END
$$$$
