CHEMBL92973
 OpenBabel04072215383D

 36 39  0  0  0  0  0  0  0  0999 V2000
    2.4704    0.0144    0.1730 C   0  0  0  0  0  0  0  0  0  0  0  0
    0.9714    0.0095    0.1006 C   0  0  0  0  0  0  0  0  0  0  0  0
    0.2850   -1.0270   -0.5421 C   0  0  0  0  0  0  0  0  0  0  0  0
   -1.1118   -1.0277   -0.5902 C   0  0  0  0  0  0  0  0  0  0  0  0
   -1.8397    0.0094    0.0039 C   0  0  0  0  0  0  0  0  0  0  0  0
   -3.2989   -0.0071   -0.0276 C   0  0  0  0  0  0  0  0  0  0  0  0
   -4.0828    0.5977   -1.1464 C   0  0  0  0  0  0  0  0  0  0  0  0
   -5.3778    0.5965   -1.2692 N   0  0  0  0  0  0  0  0  0  0  0  0
   -6.0813   -0.0199   -0.2632 C   0  0  0  0  0  0  0  0  0  0  0  0
   -7.4349   -0.2446   -0.0629 C   0  0  0  0  0  0  0  0  0  0  0  0
   -8.5158    0.1316   -0.9642 C   0  0  0  0  0  0  0  0  0  0  0  0
   -8.3262    0.2034   -2.3456 C   0  0  0  0  0  0  0  0  0  0  0  0
   -9.4063    0.5234   -3.1525 C   0  0  0  0  0  0  0  0  0  0  0  0
  -10.6473    0.7715   -2.6849 N   0  0  0  0  0  0  0  0  0  0  0  0
  -10.8113    0.7028   -1.3484 C   0  0  0  0  0  0  0  0  0  0  0  0
   -9.7936    0.3910   -0.4596 C   0  0  0  0  0  0  0  0  0  0  0  0
   -7.4946   -0.9124    1.1803 C   0  0  0  0  0  0  0  0  0  0  0  0
   -6.2998   -1.1160    1.7320 N   0  0  0  0  0  0  0  0  0  0  0  0
   -5.4274   -0.5843    0.8426 N   0  0  0  0  0  0  0  0  0  0  0  0
   -4.0409   -0.5726    0.9367 C   0  0  0  0  0  0  0  0  0  0  0  0
   -1.1565    1.0473    0.6448 C   0  0  0  0  0  0  0  0  0  0  0  0
    0.2398    1.0471    0.6916 C   0  0  0  0  0  0  0  0  0  0  0  0
    2.9009   -0.8478   -0.3468 H   0  0  0  0  0  0  0  0  0  0  0  0
    2.7965   -0.0258    1.2174 H   0  0  0  0  0  0  0  0  0  0  0  0
    2.8683    0.9208   -0.2944 H   0  0  0  0  0  0  0  0  0  0  0  0
    0.8320   -1.8451   -1.0060 H   0  0  0  0  0  0  0  0  0  0  0  0
   -1.6231   -1.8485   -1.0891 H   0  0  0  0  0  0  0  0  0  0  0  0
   -3.4831    1.0876   -1.9328 H   0  0  0  0  0  0  0  0  0  0  0  0
   -7.3627    0.0056   -2.8024 H   0  0  0  0  0  0  0  0  0  0  0  0
   -9.2961    0.5839   -4.2314 H   0  0  0  0  0  0  0  0  0  0  0  0
  -11.8175    0.9101   -0.9953 H   0  0  0  0  0  0  0  0  0  0  0  0
  -10.0091    0.3624    0.6026 H   0  0  0  0  0  0  0  0  0  0  0  0
   -8.3703   -1.2734    1.7049 H   0  0  0  0  0  0  0  0  0  0  0  0
   -3.6267   -1.0516    1.8143 H   0  0  0  0  0  0  0  0  0  0  0  0
   -1.7022    1.8613    1.1178 H   0  0  0  0  0  0  0  0  0  0  0  0
    0.7564    1.8601    1.1975 H   0  0  0  0  0  0  0  0  0  0  0  0
  1  2  1  0  0  0  0
  1 23  1  0  0  0  0
  1 24  1  0  0  0  0
  1 25  1  0  0  0  0
  2  3  1  0  0  0  0
  2 22  2  0  0  0  0
  3  4  2  0  0  0  0
  3 26  1  0  0  0  0
  4  5  1  0  0  0  0
  4 27  1  0  0  0  0
  5  6  1  0  0  0  0
  5 21  2  0  0  0  0
  6  7  1  0  0  0  0
  6 20  2  0  0  0  0
  7  8  2  0  0  0  0
  7 28  1  0  0  0  0
  8  9  1  0  0  0  0
  9 10  2  0  0  0  0
  9 19  1  0  0  0  0
 10 11  1  0  0  0  0
 10 17  1  0  0  0  0
 11 12  1  0  0  0  0
 11 16  2  0  0  0  0
 12 13  2  0  0  0  0
 12 29  1  0  0  0  0
 13 14  1  0  0  0  0
 13 30  1  0  0  0  0
 14 15  2  0  0  0  0
 15 16  1  0  0  0  0
 15 31  1  0  0  0  0
 16 32  1  0  0  0  0
 17 18  2  0  0  0  0
 17 33  1  0  0  0  0
 18 19  1  0  0  0  0
 19 20  1  0  0  0  0
 20 34  1  0  0  0  0
 21 22  1  0  0  0  0
 21 35  1  0  0  0  0
 22 36  1  0  0  0  0
M  END
$$$$
