CHEMBL4778826
 OpenBabel04072215383D

 45 47  0  0  0  0  0  0  0  0999 V2000
    1.0659   -0.0404    0.0754 C   0  0  0  0  0  0  0  0  0  0  0  0
    2.4848    0.0554   -0.0159 O   0  0  0  0  0  0  0  0  0  0  0  0
    3.0959   -0.6808   -0.9932 C   0  0  0  0  0  0  0  0  0  0  0  0
    2.4278   -1.0834   -2.1557 C   0  0  0  0  0  0  0  0  0  0  0  0
    3.0896   -1.7992   -3.1598 C   0  0  0  0  0  0  0  0  0  0  0  0
    4.4476   -2.1147   -3.0482 C   0  0  0  0  0  0  0  0  0  0  0  0
    5.1354   -2.9498   -4.0579 C   0  0  0  0  0  0  0  0  0  0  0  0
    4.7644   -3.0385   -5.3481 C   0  0  0  0  0  0  0  0  0  0  0  0
    5.4044   -4.0082   -6.2913 C   0  0  0  0  0  0  0  0  0  0  0  0
    6.4318   -4.6163   -6.0100 O   0  0  0  0  0  0  0  0  0  0  0  0
    4.6778   -4.1812   -7.5519 C   0  0  0  0  0  0  0  0  0  0  0  0
    3.5423   -3.4802   -7.8622 N   0  0  0  0  0  0  0  0  0  0  0  0
    3.1710   -3.8015   -9.0870 N   0  0  0  0  0  0  0  0  0  0  0  0
    3.9815   -4.7870   -9.5483 N   0  0  0  0  0  0  0  0  0  0  0  0
    3.7026   -5.3787  -10.8114 C   0  0  0  0  0  0  0  0  0  0  0  0
    3.0497   -4.6033  -11.7863 C   0  0  0  0  0  0  0  0  0  0  0  0
    2.7691   -5.1386  -13.0472 C   0  0  0  0  0  0  0  0  0  0  0  0
    3.1058   -6.4597  -13.3231 C   0  0  0  0  0  0  0  0  0  0  0  0
    2.7499   -7.1227  -14.8735 Cl  0  0  0  0  0  0  0  0  0  0  0  0
    3.7174   -7.2502  -12.3543 C   0  0  0  0  0  0  0  0  0  0  0  0
    4.0204   -6.7122  -11.0952 C   0  0  0  0  0  0  0  0  0  0  0  0
    4.9957   -5.0128   -8.6260 C   0  0  0  0  0  0  0  0  0  0  0  0
    6.2072   -5.8454   -8.8357 C   0  0  0  0  0  0  0  0  0  0  0  0
    5.1206   -1.6981   -1.8908 C   0  0  0  0  0  0  0  0  0  0  0  0
    4.4600   -0.9931   -0.8608 C   0  0  0  0  0  0  0  0  0  0  0  0
    5.2851   -0.6617    0.1867 O   0  0  0  0  0  0  0  0  0  0  0  0
    4.6860   -0.5498    1.4739 C   0  0  0  0  0  0  0  0  0  0  0  0
    0.7520    0.4659    0.9934 H   0  0  0  0  0  0  0  0  0  0  0  0
    0.7441   -1.0853    0.1433 H   0  0  0  0  0  0  0  0  0  0  0  0
    0.5793    0.4702   -0.7614 H   0  0  0  0  0  0  0  0  0  0  0  0
    1.3826   -0.8443   -2.3237 H   0  0  0  0  0  0  0  0  0  0  0  0
    2.5094   -2.1115   -4.0236 H   0  0  0  0  0  0  0  0  0  0  0  0
    5.9604   -3.5556   -3.6847 H   0  0  0  0  0  0  0  0  0  0  0  0
    3.9584   -2.4323   -5.7438 H   0  0  0  0  0  0  0  0  0  0  0  0
    2.7823   -3.5656  -11.5917 H   0  0  0  0  0  0  0  0  0  0  0  0
    2.2911   -4.5184  -13.8011 H   0  0  0  0  0  0  0  0  0  0  0  0
    3.9502   -8.2912  -12.5676 H   0  0  0  0  0  0  0  0  0  0  0  0
    4.4470   -7.3743  -10.3465 H   0  0  0  0  0  0  0  0  0  0  0  0
    6.2715   -6.2912   -9.8284 H   0  0  0  0  0  0  0  0  0  0  0  0
    6.2547   -6.6491   -8.0947 H   0  0  0  0  0  0  0  0  0  0  0  0
    7.1042   -5.2263   -8.7261 H   0  0  0  0  0  0  0  0  0  0  0  0
    6.1768   -1.9253   -1.7611 H   0  0  0  0  0  0  0  0  0  0  0  0
    5.4902   -0.5778    2.2165 H   0  0  0  0  0  0  0  0  0  0  0  0
    4.0149   -1.3890    1.6854 H   0  0  0  0  0  0  0  0  0  0  0  0
    4.1805    0.4123    1.5972 H   0  0  0  0  0  0  0  0  0  0  0  0
  1  2  1  0  0  0  0
  1 28  1  0  0  0  0
  1 29  1  0  0  0  0
  1 30  1  0  0  0  0
  2  3  1  0  0  0  0
  3  4  1  0  0  0  0
  3 25  2  0  0  0  0
  4  5  2  0  0  0  0
  4 31  1  0  0  0  0
  5  6  1  0  0  0  0
  5 32  1  0  0  0  0
  6  7  1  0  0  0  0
  6 24  2  0  0  0  0
  7  8  2  0  0  0  0
  7 33  1  0  0  0  0
  8  9  1  0  0  0  0
  8 34  1  0  0  0  0
  9 10  2  0  0  0  0
  9 11  1  0  0  0  0
 11 12  1  0  0  0  0
 11 22  2  0  0  0  0
 12 13  2  0  0  0  0
 13 14  1  0  0  0  0
 14 15  1  0  0  0  0
 14 22  1  0  0  0  0
 15 16  1  0  0  0  0
 15 21  2  0  0  0  0
 16 17  2  0  0  0  0
 16 35  1  0  0  0  0
 17 18  1  0  0  0  0
 17 36  1  0  0  0  0
 18 19  1  0  0  0  0
 18 20  2  0  0  0  0
 20 21  1  0  0  0  0
 20 37  1  0  0  0  0
 21 38  1  0  0  0  0
 22 23  1  0  0  0  0
 23 39  1  0  0  0  0
 23 40  1  0  0  0  0
 23 41  1  0  0  0  0
 24 25  1  0  0  0  0
 24 42  1  0  0  0  0
 25 26  1  0  0  0  0
 26 27  1  0  0  0  0
 27 43  1  0  0  0  0
 27 44  1  0  0  0  0
 27 45  1  0  0  0  0
M  END
$$$$
