CHEMBL3985263
 OpenBabel04072215373D

 65 68  0  0  0  0  0  0  0  0999 V2000
    2.6099    0.3251    0.0767 C   0  0  0  0  0  0  0  0  0  0  0  0
    1.1251    0.0919    0.1299 C   0  0  0  0  0  0  0  0  0  0  0  0
    0.3383    1.2712    0.2062 C   0  0  0  0  0  0  0  0  0  0  0  0
   -1.0505    1.2608    0.1476 C   0  0  0  0  0  0  0  0  0  0  0  0
   -1.8261    2.3965    0.2219 O   0  0  0  0  0  0  0  0  0  0  0  0
   -1.3554    3.5468   -0.4139 C   0  0  0  0  0  0  0  0  0  0  0  0
   -1.7822    4.7715    0.0668 C   0  0  0  0  0  0  0  0  0  0  0  0
   -1.3275    5.8790   -0.6238 C   0  0  0  0  0  0  0  0  0  0  0  0
   -1.7759    7.1649   -0.2621 N   0  0  0  0  0  0  0  0  0  0  0  0
   -1.4805    8.3100   -0.9909 C   0  0  0  0  0  0  0  0  0  0  0  0
   -0.8193    8.3955   -2.0070 O   0  0  0  0  0  0  0  0  0  0  0  0
   -2.0639    9.5580   -0.4043 C   0  0  0  0  0  0  0  0  0  0  0  0
   -1.9361   10.8877   -1.1222 C   0  0  0  0  0  0  0  0  0  0  0  0
   -1.1074   10.6167    0.0990 C   0  0  0  0  0  0  0  0  0  0  0  0
   -0.4786    5.7671   -1.6523 N   0  0  0  0  0  0  0  0  0  0  0  0
   -0.1262    4.5418   -2.0355 C   0  0  0  0  0  0  0  0  0  0  0  0
   -0.5503    3.4087   -1.4828 N   0  0  0  0  0  0  0  0  0  0  0  0
   -1.6824    0.0268    0.0828 C   0  0  0  0  0  0  0  0  0  0  0  0
   -0.9236   -1.1587    0.0472 C   0  0  0  0  0  0  0  0  0  0  0  0
    0.4851   -1.1673    0.0917 C   0  0  0  0  0  0  0  0  0  0  0  0
    1.2287   -2.3946    0.1250 N   0  0  0  0  0  0  0  0  0  0  0  0
    0.6878   -3.6604    0.4010 C   0  0  0  0  0  0  0  0  0  0  0  0
   -0.5066   -3.8737    0.6016 O   0  0  0  0  0  0  0  0  0  0  0  0
    1.6397   -4.6687    0.5040 N   0  0  0  0  0  0  0  0  0  0  0  0
    1.2299   -6.0029    0.8301 C   0  0  0  0  0  0  0  0  0  0  0  0
    1.8591   -6.6889    1.8838 C   0  0  0  0  0  0  0  0  0  0  0  0
    1.4472   -7.9770    2.2875 C   0  0  0  0  0  0  0  0  0  0  0  0
    2.0495   -8.5806    3.3789 N   0  0  0  0  0  0  0  0  0  0  0  0
    1.4292   -9.5702    4.2599 C   0  0  0  0  0  0  0  0  0  0  0  0
    2.1268  -10.9229    4.1311 C   0  0  0  0  0  0  0  0  0  0  0  0
    1.5410   -9.0771    5.7035 C   0  0  0  0  0  0  0  0  0  0  0  0
    0.3926   -8.5698    1.5902 C   0  0  0  0  0  0  0  0  0  0  0  0
   -0.1978   -7.9477    0.4762 C   0  0  0  0  0  0  0  0  0  0  0  0
   -1.2050   -8.7035   -0.3570 C   0  0  0  0  0  0  0  0  0  0  0  0
   -1.4289   -9.9764    0.0862 F   0  0  0  0  0  0  0  0  0  0  0  0
   -2.4286   -8.1119   -0.4055 F   0  0  0  0  0  0  0  0  0  0  0  0
   -0.8011   -8.8420   -1.6520 F   0  0  0  0  0  0  0  0  0  0  0  0
    0.2084   -6.6481    0.1215 C   0  0  0  0  0  0  0  0  0  0  0  0
    2.8470    1.3826    0.2626 H   0  0  0  0  0  0  0  0  0  0  0  0
    2.9964    0.0922   -0.9197 H   0  0  0  0  0  0  0  0  0  0  0  0
    3.1333   -0.2498    0.8422 H   0  0  0  0  0  0  0  0  0  0  0  0
    0.8409    2.2352    0.2920 H   0  0  0  0  0  0  0  0  0  0  0  0
   -2.4419    4.8345    0.9210 H   0  0  0  0  0  0  0  0  0  0  0  0
   -2.3776    7.2487    0.5427 H   0  0  0  0  0  0  0  0  0  0  0  0
   -2.9913    9.4236    0.1437 H   0  0  0  0  0  0  0  0  0  0  0  0
   -2.7418   11.6076   -1.0351 H   0  0  0  0  0  0  0  0  0  0  0  0
   -1.4288   10.9169   -2.0826 H   0  0  0  0  0  0  0  0  0  0  0  0
   -1.3609   11.1380    1.0127 H   0  0  0  0  0  0  0  0  0  0  0  0
   -0.0445   10.4617   -0.0519 H   0  0  0  0  0  0  0  0  0  0  0  0
    0.5642    4.4683   -2.8676 H   0  0  0  0  0  0  0  0  0  0  0  0
   -2.7668   -0.0439    0.0315 H   0  0  0  0  0  0  0  0  0  0  0  0
   -1.4910   -2.0840   -0.0399 H   0  0  0  0  0  0  0  0  0  0  0  0
    2.2285   -2.3302   -0.0281 H   0  0  0  0  0  0  0  0  0  0  0  0
    2.5231   -4.3734    0.8975 H   0  0  0  0  0  0  0  0  0  0  0  0
    2.6347   -6.1875    2.4539 H   0  0  0  0  0  0  0  0  0  0  0  0
    2.9963   -8.2959    3.6027 H   0  0  0  0  0  0  0  0  0  0  0  0
    0.3638   -9.6993    4.0399 H   0  0  0  0  0  0  0  0  0  0  0  0
    3.1839  -10.8595    4.4136 H   0  0  0  0  0  0  0  0  0  0  0  0
    2.0754  -11.3058    3.1073 H   0  0  0  0  0  0  0  0  0  0  0  0
    1.6531  -11.6611    4.7897 H   0  0  0  0  0  0  0  0  0  0  0  0
    2.5883   -8.9812    6.0122 H   0  0  0  0  0  0  0  0  0  0  0  0
    1.0504   -9.7755    6.3909 H   0  0  0  0  0  0  0  0  0  0  0  0
    1.0681   -8.0970    5.8199 H   0  0  0  0  0  0  0  0  0  0  0  0
    0.0523   -9.5650    1.8707 H   0  0  0  0  0  0  0  0  0  0  0  0
   -0.2633   -6.1554   -0.7285 H   0  0  0  0  0  0  0  0  0  0  0  0
  1  2  1  0  0  0  0
  1 39  1  0  0  0  0
  1 40  1  0  0  0  0
  1 41  1  0  0  0  0
  2  3  1  0  0  0  0
  2 20  2  0  0  0  0
  3  4  2  0  0  0  0
  3 42  1  0  0  0  0
  4  5  1  0  0  0  0
  4 18  1  0  0  0  0
  5  6  1  0  0  0  0
  6  7  1  0  0  0  0
  6 17  2  0  0  0  0
  7  8  2  0  0  0  0
  7 43  1  0  0  0  0
  8  9  1  0  0  0  0
  8 15  1  0  0  0  0
  9 10  1  0  0  0  0
  9 44  1  0  0  0  0
 10 11  2  0  0  0  0
 10 12  1  0  0  0  0
 12 13  1  0  0  0  0
 12 14  1  0  0  0  0
 12 45  1  0  0  0  0
 13 14  1  0  0  0  0
 13 46  1  0  0  0  0
 13 47  1  0  0  0  0
 14 48  1  0  0  0  0
 14 49  1  0  0  0  0
 15 16  2  0  0  0  0
 16 17  1  0  0  0  0
 16 50  1  0  0  0  0
 18 19  2  0  0  0  0
 18 51  1  0  0  0  0
 19 20  1  0  0  0  0
 19 52  1  0  0  0  0
 20 21  1  0  0  0  0
 21 22  1  0  0  0  0
 21 53  1  0  0  0  0
 22 23  2  0  0  0  0
 22 24  1  0  0  0  0
 24 25  1  0  0  0  0
 24 54  1  0  0  0  0
 25 26  1  0  0  0  0
 25 38  2  0  0  0  0
 26 27  2  0  0  0  0
 26 55  1  0  0  0  0
 27 28  1  0  0  0  0
 27 32  1  0  0  0  0
 28 29  1  0  0  0  0
 28 56  1  0  0  0  0
 29 30  1  0  0  0  0
 29 31  1  0  0  0  0
 29 57  1  0  0  0  0
 30 58  1  0  0  0  0
 30 59  1  0  0  0  0
 30 60  1  0  0  0  0
 31 61  1  0  0  0  0
 31 62  1  0  0  0  0
 31 63  1  0  0  0  0
 32 33  2  0  0  0  0
 32 64  1  0  0  0  0
 33 34  1  0  0  0  0
 33 38  1  0  0  0  0
 34 35  1  0  0  0  0
 34 36  1  0  0  0  0
 34 37  1  0  0  0  0
 38 65  1  0  0  0  0
M  END
$$$$
