CHEMBL2430257
 OpenBabel04072215363D

 60 63  0  0  0  0  0  0  0  0999 V2000
    4.8920   -0.4644    2.4715 C   0  0  0  0  0  0  0  0  0  0  0  0
    4.4804    0.6548    1.5202 C   0  0  0  0  0  0  0  0  0  0  0  0
    4.8624    0.4444    0.1115 N   0  0  0  0  0  0  0  0  0  0  0  0
    4.3921   -0.8363   -0.4493 C   0  0  0  0  0  0  0  0  0  0  0  0
    2.8802   -1.0022   -0.5957 C   0  0  0  0  0  0  0  0  0  0  0  0
    4.4354    1.5790   -0.7416 C   0  0  0  0  0  0  0  0  0  0  0  0
    5.0197    2.9431   -0.3471 C   0  0  0  0  0  0  0  0  0  0  0  0
    6.4664    2.9653   -0.3572 N   0  0  0  0  0  0  0  0  0  0  0  0
    7.1176    4.1319   -0.0301 C   0  0  0  0  0  0  0  0  0  0  0  0
    6.4989    5.1606    0.2329 O   0  0  0  0  0  0  0  0  0  0  0  0
    8.5797    4.0630    0.0545 C   0  0  0  0  0  0  0  0  0  0  0  0
    9.4798    3.3087   -0.6897 C   0  0  0  0  0  0  0  0  0  0  0  0
    9.2791    2.3450   -1.8066 C   0  0  0  0  0  0  0  0  0  0  0  0
   10.7604    3.6440   -0.2718 N   0  0  0  0  0  0  0  0  0  0  0  0
   10.7126    4.6075    0.7013 C   0  0  0  0  0  0  0  0  0  0  0  0
    9.3748    4.8735    0.9239 C   0  0  0  0  0  0  0  0  0  0  0  0
    8.8586    5.8613    1.9039 C   0  0  0  0  0  0  0  0  0  0  0  0
    9.9223    6.5676    2.7265 C   0  0  0  0  0  0  0  0  0  0  0  0
   11.3983    6.2844    2.4287 C   0  0  0  0  0  0  0  0  0  0  0  0
   11.8049    5.2511    1.3753 C   0  0  0  0  0  0  0  0  0  0  0  0
   13.1360    5.0503    1.1678 C   0  0  0  0  0  0  0  0  0  0  0  0
   13.8163    4.1038    0.1840 C   0  0  0  0  0  0  0  0  0  0  0  0
   13.3096    3.3327   -0.6104 O   0  0  0  0  0  0  0  0  0  0  0  0
   15.1768    4.2793    0.3618 N   0  0  0  0  0  0  0  0  0  0  0  0
   15.4510    5.2211    1.3423 C   0  0  0  0  0  0  0  0  0  0  0  0
   16.7046    5.6301    1.7730 C   0  0  0  0  0  0  0  0  0  0  0  0
   17.8193    5.1145    1.2370 F   0  0  0  0  0  0  0  0  0  0  0  0
   16.8018    6.5882    2.7740 C   0  0  0  0  0  0  0  0  0  0  0  0
   15.6377    7.1250    3.3288 C   0  0  0  0  0  0  0  0  0  0  0  0
   14.3789    6.7019    2.8816 C   0  0  0  0  0  0  0  0  0  0  0  0
   14.2709    5.7380    1.8794 C   0  0  0  0  0  0  0  0  0  0  0  0
    4.7851   -0.1244    3.5075 H   0  0  0  0  0  0  0  0  0  0  0  0
    5.9385   -0.7495    2.3223 H   0  0  0  0  0  0  0  0  0  0  0  0
    4.2621   -1.3507    2.3509 H   0  0  0  0  0  0  0  0  0  0  0  0
    4.9859    1.5517    1.8935 H   0  0  0  0  0  0  0  0  0  0  0  0
    3.4033    0.8347    1.6178 H   0  0  0  0  0  0  0  0  0  0  0  0
    4.7859   -1.6670    0.1469 H   0  0  0  0  0  0  0  0  0  0  0  0
    4.8495   -0.9736   -1.4380 H   0  0  0  0  0  0  0  0  0  0  0  0
    2.3410   -0.7259    0.3145 H   0  0  0  0  0  0  0  0  0  0  0  0
    2.6405   -2.0481   -0.8142 H   0  0  0  0  0  0  0  0  0  0  0  0
    2.4936   -0.3989   -1.4236 H   0  0  0  0  0  0  0  0  0  0  0  0
    3.3425    1.6706   -0.7466 H   0  0  0  0  0  0  0  0  0  0  0  0
    4.7504    1.3761   -1.7736 H   0  0  0  0  0  0  0  0  0  0  0  0
    4.6729    3.2572    0.6440 H   0  0  0  0  0  0  0  0  0  0  0  0
    4.6689    3.7074   -1.0508 H   0  0  0  0  0  0  0  0  0  0  0  0
    6.9615    2.0902   -0.2368 H   0  0  0  0  0  0  0  0  0  0  0  0
    8.2299    2.2704   -2.1050 H   0  0  0  0  0  0  0  0  0  0  0  0
    9.6159    1.3447   -1.5177 H   0  0  0  0  0  0  0  0  0  0  0  0
    9.8381    2.6602   -2.6935 H   0  0  0  0  0  0  0  0  0  0  0  0
   11.6130    3.2556   -0.6668 H   0  0  0  0  0  0  0  0  0  0  0  0
    8.1681    5.3527    2.5888 H   0  0  0  0  0  0  0  0  0  0  0  0
    8.2724    6.6210    1.3738 H   0  0  0  0  0  0  0  0  0  0  0  0
    9.7403    6.3563    3.7887 H   0  0  0  0  0  0  0  0  0  0  0  0
    9.7600    7.6511    2.6429 H   0  0  0  0  0  0  0  0  0  0  0  0
   11.8299    5.9663    3.3858 H   0  0  0  0  0  0  0  0  0  0  0  0
   11.8282    7.2478    2.1273 H   0  0  0  0  0  0  0  0  0  0  0  0
   15.8798    3.7764   -0.1622 H   0  0  0  0  0  0  0  0  0  0  0  0
   17.7754    6.9209    3.1246 H   0  0  0  0  0  0  0  0  0  0  0  0
   15.6994    7.8773    4.1130 H   0  0  0  0  0  0  0  0  0  0  0  0
   13.5268    7.1657    3.3598 H   0  0  0  0  0  0  0  0  0  0  0  0
  1  2  1  0  0  0  0
  1 32  1  0  0  0  0
  1 33  1  0  0  0  0
  1 34  1  0  0  0  0
  2  3  1  0  0  0  0
  2 35  1  0  0  0  0
  2 36  1  0  0  0  0
  3  4  1  0  0  0  0
  3  6  1  0  0  0  0
  4  5  1  0  0  0  0
  4 37  1  0  0  0  0
  4 38  1  0  0  0  0
  5 39  1  0  0  0  0
  5 40  1  0  0  0  0
  5 41  1  0  0  0  0
  6  7  1  0  0  0  0
  6 42  1  0  0  0  0
  6 43  1  0  0  0  0
  7  8  1  0  0  0  0
  7 44  1  0  0  0  0
  7 45  1  0  0  0  0
  8  9  1  0  0  0  0
  8 46  1  0  0  0  0
  9 10  2  0  0  0  0
  9 11  1  0  0  0  0
 11 12  2  0  0  0  0
 11 16  1  0  0  0  0
 12 13  1  0  0  0  0
 12 14  1  0  0  0  0
 13 47  1  0  0  0  0
 13 48  1  0  0  0  0
 13 49  1  0  0  0  0
 14 15  1  0  0  0  0
 14 50  1  0  0  0  0
 15 16  2  0  0  0  0
 15 20  1  0  0  0  0
 16 17  1  0  0  0  0
 17 18  1  0  0  0  0
 17 51  1  0  0  0  0
 17 52  1  0  0  0  0
 18 19  1  0  0  0  0
 18 53  1  0  0  0  0
 18 54  1  0  0  0  0
 19 20  1  0  0  0  0
 19 55  1  0  0  0  0
 19 56  1  0  0  0  0
 20 21  2  0  0  0  0
 21 22  1  0  0  0  0
 21 31  1  0  0  0  0
 22 23  2  0  0  0  0
 22 24  1  0  0  0  0
 24 25  1  0  0  0  0
 24 57  1  0  0  0  0
 25 26  1  0  0  0  0
 25 31  2  0  0  0  0
 26 27  1  0  0  0  0
 26 28  2  0  0  0  0
 28 29  1  0  0  0  0
 28 58  1  0  0  0  0
 29 30  2  0  0  0  0
 29 59  1  0  0  0  0
 30 31  1  0  0  0  0
 30 60  1  0  0  0  0
M  END
$$$$
