CHEMBL2031901
 OpenBabel04072215363D

 59 63  0  0  0  0  0  0  0  0999 V2000
    3.8327    4.9964   12.2282 C   0  0  0  0  0  0  0  0  0  0  0  0
    4.3239    5.8664   11.2117 O   0  0  0  0  0  0  0  0  0  0  0  0
    4.5552    5.2921    9.9911 C   0  0  0  0  0  0  0  0  0  0  0  0
    4.4075    3.9435    9.7048 C   0  0  0  0  0  0  0  0  0  0  0  0
    4.6634    3.4795    8.4198 C   0  0  0  0  0  0  0  0  0  0  0  0
    4.9871    4.3635    7.3681 C   0  0  0  0  0  0  0  0  0  0  0  0
    5.0974    3.9795    6.0100 C   0  0  0  0  0  0  0  0  0  0  0  0
    4.8697    2.7014    5.5261 O   0  0  0  0  0  0  0  0  0  0  0  0
    3.7114    2.0338    5.8541 C   0  0  0  0  0  0  0  0  0  0  0  0
    3.7347    0.6425    5.7739 C   0  0  0  0  0  0  0  0  0  0  0  0
    2.6201   -0.1053    6.1879 C   0  0  0  0  0  0  0  0  0  0  0  0
    1.4989    0.5606    6.6744 C   0  0  0  0  0  0  0  0  0  0  0  0
    0.3894   -0.1893    7.1150 N   0  0  0  0  0  0  0  0  0  0  0  0
   -0.7515    0.3723    7.6642 C   0  0  0  0  0  0  0  0  0  0  0  0
   -0.8850    1.5505    7.9826 O   0  0  0  0  0  0  0  0  0  0  0  0
   -1.8864   -0.5630    7.8531 C   0  0  0  0  0  0  0  0  0  0  0  0
   -3.1909   -0.2651    8.0495 C   0  0  0  0  0  0  0  0  0  0  0  0
   -3.8076    1.0893    8.2276 C   0  0  0  0  0  0  0  0  0  0  0  0
   -3.9999   -1.4083    8.0589 N   0  0  0  0  0  0  0  0  0  0  0  0
   -5.2756   -1.5179    8.7652 C   0  0  0  0  0  0  0  0  0  0  0  0
   -3.1260   -2.5083    8.1308 N   0  0  0  0  0  0  0  0  0  0  0  0
   -3.5533   -3.8281    7.8942 C   0  0  0  0  0  0  0  0  0  0  0  0
   -3.0236   -4.8587    8.6797 C   0  0  0  0  0  0  0  0  0  0  0  0
   -3.4760   -6.1705    8.5208 C   0  0  0  0  0  0  0  0  0  0  0  0
   -4.4297   -6.4649    7.5477 C   0  0  0  0  0  0  0  0  0  0  0  0
   -4.9472   -5.4464    6.7471 C   0  0  0  0  0  0  0  0  0  0  0  0
   -4.5248   -4.1271    6.9323 C   0  0  0  0  0  0  0  0  0  0  0  0
   -1.8257   -2.0518    7.8766 C   0  0  0  0  0  0  0  0  0  0  0  0
   -0.7960   -2.6815    7.6757 O   0  0  0  0  0  0  0  0  0  0  0  0
    1.4513    1.9043    6.7019 N   0  0  0  0  0  0  0  0  0  0  0  0
    2.5289    2.6113    6.2842 C   0  0  0  0  0  0  0  0  0  0  0  0
    5.5222    4.9052    5.0606 C   0  0  0  0  0  0  0  0  0  0  0  0
    5.7590    6.1993    5.4766 C   0  0  0  0  0  0  0  0  0  0  0  0
    5.5849    6.6197    6.7470 N   0  0  0  0  0  0  0  0  0  0  0  0
    5.1974    5.7295    7.6743 C   0  0  0  0  0  0  0  0  0  0  0  0
    4.9795    6.1587    8.9776 C   0  0  0  0  0  0  0  0  0  0  0  0
    3.7058    5.5789   13.1447 H   0  0  0  0  0  0  0  0  0  0  0  0
    4.5507    4.1967   12.4415 H   0  0  0  0  0  0  0  0  0  0  0  0
    2.8549    4.5836   11.9547 H   0  0  0  0  0  0  0  0  0  0  0  0
    4.0782    3.2217   10.4436 H   0  0  0  0  0  0  0  0  0  0  0  0
    4.5635    2.4124    8.2473 H   0  0  0  0  0  0  0  0  0  0  0  0
    4.6261    0.1357    5.4127 H   0  0  0  0  0  0  0  0  0  0  0  0
    2.6562   -1.1881    6.1359 H   0  0  0  0  0  0  0  0  0  0  0  0
    0.4282   -1.2000    7.0110 H   0  0  0  0  0  0  0  0  0  0  0  0
   -3.1384    1.9194    8.0027 H   0  0  0  0  0  0  0  0  0  0  0  0
   -4.1343    1.2113    9.2670 H   0  0  0  0  0  0  0  0  0  0  0  0
   -4.6801    1.2024    7.5767 H   0  0  0  0  0  0  0  0  0  0  0  0
   -5.6936   -0.5406    9.0246 H   0  0  0  0  0  0  0  0  0  0  0  0
   -5.1779   -2.0947    9.6909 H   0  0  0  0  0  0  0  0  0  0  0  0
   -6.0138   -2.0076    8.1217 H   0  0  0  0  0  0  0  0  0  0  0  0
   -2.2922   -4.6383    9.4534 H   0  0  0  0  0  0  0  0  0  0  0  0
   -3.0876   -6.9606    9.1589 H   0  0  0  0  0  0  0  0  0  0  0  0
   -4.7676   -7.4894    7.4115 H   0  0  0  0  0  0  0  0  0  0  0  0
   -5.6771   -5.6812    5.9761 H   0  0  0  0  0  0  0  0  0  0  0  0
   -4.9283   -3.3439    6.2961 H   0  0  0  0  0  0  0  0  0  0  0  0
    2.4002    3.6865    6.3604 H   0  0  0  0  0  0  0  0  0  0  0  0
    5.6592    4.6289    4.0217 H   0  0  0  0  0  0  0  0  0  0  0  0
    6.1018    6.9609    4.7819 H   0  0  0  0  0  0  0  0  0  0  0  0
    5.1214    7.2124    9.2083 H   0  0  0  0  0  0  0  0  0  0  0  0
  1  2  1  0  0  0  0
  1 37  1  0  0  0  0
  1 38  1  0  0  0  0
  1 39  1  0  0  0  0
  2  3  1  0  0  0  0
  3  4  1  0  0  0  0
  3 36  2  0  0  0  0
  4  5  2  0  0  0  0
  4 40  1  0  0  0  0
  5  6  1  0  0  0  0
  5 41  1  0  0  0  0
  6  7  1  0  0  0  0
  6 35  2  0  0  0  0
  7  8  1  0  0  0  0
  7 32  2  0  0  0  0
  8  9  1  0  0  0  0
  9 10  1  0  0  0  0
  9 31  2  0  0  0  0
 10 11  2  0  0  0  0
 10 42  1  0  0  0  0
 11 12  1  0  0  0  0
 11 43  1  0  0  0  0
 12 13  1  0  0  0  0
 12 30  2  0  0  0  0
 13 14  1  0  0  0  0
 13 44  1  0  0  0  0
 14 15  2  0  0  0  0
 14 16  1  0  0  0  0
 16 17  2  0  0  0  0
 16 28  1  0  0  0  0
 17 18  1  0  0  0  0
 17 19  1  0  0  0  0
 18 45  1  0  0  0  0
 18 46  1  0  0  0  0
 18 47  1  0  0  0  0
 19 20  1  0  0  0  0
 19 21  1  0  0  0  0
 20 48  1  0  0  0  0
 20 49  1  0  0  0  0
 20 50  1  0  0  0  0
 21 22  1  0  0  0  0
 21 28  1  0  0  0  0
 22 23  1  0  0  0  0
 22 27  2  0  0  0  0
 23 24  2  0  0  0  0
 23 51  1  0  0  0  0
 24 25  1  0  0  0  0
 24 52  1  0  0  0  0
 25 26  2  0  0  0  0
 25 53  1  0  0  0  0
 26 27  1  0  0  0  0
 26 54  1  0  0  0  0
 27 55  1  0  0  0  0
 28 29  2  0  0  0  0
 30 31  1  0  0  0  0
 31 56  1  0  0  0  0
 32 33  1  0  0  0  0
 32 57  1  0  0  0  0
 33 34  2  0  0  0  0
 33 58  1  0  0  0  0
 34 35  1  0  0  0  0
 35 36  1  0  0  0  0
 36 59  1  0  0  0  0
M  END
$$$$
