CHEMBL4075917
 OpenBabel04072215383D

 57 61  0  0  1  0  0  0  0  0999 V2000
    2.6121   -3.3442   -1.0899 C   0  0  0  0  0  0  0  0  0  0  0  0
    1.5323   -2.5460   -0.4617 C   0  0  0  0  0  0  0  0  0  0  0  0
    0.3409   -3.0950   -0.1922 N   0  0  0  0  0  0  0  0  0  0  0  0
   -0.3784   -2.0747    0.3064 N   0  0  0  0  0  0  0  0  0  0  0  0
    0.2830   -0.8791    0.3227 C   0  0  0  0  0  0  0  0  0  0  0  0
   -0.1165    0.4033    0.6858 C   0  0  0  0  0  0  0  0  0  0  0  0
    0.8263    1.4307    0.5307 C   0  0  0  0  0  0  0  0  0  0  0  0
    2.1475    1.1911    0.0949 C   0  0  0  0  0  0  0  0  0  0  0  0
    3.1225    2.3014   -0.0570 C   0  0  0  0  0  0  0  0  0  0  0  0
    3.2028    3.2454    0.9950 C   0  0  0  0  0  0  0  0  0  0  0  0
    4.1748    4.2408    1.0647 C   0  0  0  0  0  0  0  0  0  0  0  0
    4.2260    5.1886    2.0807 N   0  0  0  0  0  0  0  0  0  0  0  0
    3.6018    4.9774    3.4012 C   0  0  1  0  0  0  0  0  0  0  0  0
    4.5538    4.1656    4.3198 C   0  0  0  0  0  0  0  0  0  0  0  0
    5.7952    4.8251    4.5748 O   0  0  0  0  0  0  0  0  0  0  0  0
    3.0750    6.3007    3.9503 C   0  0  0  0  0  0  0  0  0  0  0  0
    2.1046    7.0046    3.2098 C   0  0  0  0  0  0  0  0  0  0  0  0
    1.4893    8.1488    3.7249 C   0  0  0  0  0  0  0  0  0  0  0  0
    1.8346    8.6127    4.9902 C   0  0  0  0  0  0  0  0  0  0  0  0
    2.8038    7.9413    5.7329 C   0  0  0  0  0  0  0  0  0  0  0  0
    3.4190    6.7976    5.2164 C   0  0  0  0  0  0  0  0  0  0  0  0
    5.0435    4.2651   -0.0201 C   0  0  0  0  0  0  0  0  0  0  0  0
    4.9978    3.4246   -1.0901 N   0  0  0  0  0  0  0  0  0  0  0  0
    4.0206    2.4700   -1.1341 C   0  0  0  0  0  0  0  0  0  0  0  0
    4.0466    1.6504   -2.3871 C   0  0  0  0  0  0  0  0  0  0  0  0
    5.2859    1.2686   -2.9511 C   0  0  0  0  0  0  0  0  0  0  0  0
    5.3622    0.4396   -4.0780 C   0  0  0  0  0  0  0  0  0  0  0  0
    4.1958   -0.0462   -4.6481 C   0  0  0  0  0  0  0  0  0  0  0  0
    4.2646   -0.8640   -5.7070 F   0  0  0  0  0  0  0  0  0  0  0  0
    2.9563    0.3237   -4.1514 C   0  0  0  0  0  0  0  0  0  0  0  0
    2.8911    1.1982   -3.0624 C   0  0  0  0  0  0  0  0  0  0  0  0
    1.6505    1.6331   -2.6769 O   0  0  0  0  0  0  0  0  0  0  0  0
    2.5197   -0.1377   -0.1870 C   0  0  0  0  0  0  0  0  0  0  0  0
    1.5635   -1.1668   -0.1283 C   0  0  0  0  0  0  0  0  0  0  0  0
    2.3360   -4.3987   -1.1775 H   0  0  0  0  0  0  0  0  0  0  0  0
    3.5327   -3.2787   -0.5012 H   0  0  0  0  0  0  0  0  0  0  0  0
    2.8205   -2.9640   -2.0964 H   0  0  0  0  0  0  0  0  0  0  0  0
   -1.3308   -2.2553    0.5940 H   0  0  0  0  0  0  0  0  0  0  0  0
   -1.1228    0.6197    1.0395 H   0  0  0  0  0  0  0  0  0  0  0  0
    0.5033    2.4494    0.7463 H   0  0  0  0  0  0  0  0  0  0  0  0
    2.4596    3.1686    1.7797 H   0  0  0  0  0  0  0  0  0  0  0  0
    5.0348    5.8018    2.1001 H   0  0  0  0  0  0  0  0  0  0  0  0
    2.6941    4.3711    3.3159 H   0  0  0  0  0  0  0  0  0  0  0  0
    4.7902    3.1967    3.8657 H   0  0  0  0  0  0  0  0  0  0  0  0
    4.0754    3.9632    5.2844 H   0  0  0  0  0  0  0  0  0  0  0  0
    6.2723    4.8575    3.7295 H   0  0  0  0  0  0  0  0  0  0  0  0
    1.8065    6.6434    2.2261 H   0  0  0  0  0  0  0  0  0  0  0  0
    0.7296    8.6658    3.1440 H   0  0  0  0  0  0  0  0  0  0  0  0
    1.3461    9.4911    5.4024 H   0  0  0  0  0  0  0  0  0  0  0  0
    3.0718    8.2983    6.7236 H   0  0  0  0  0  0  0  0  0  0  0  0
    4.1585    6.2981    5.8377 H   0  0  0  0  0  0  0  0  0  0  0  0
    5.8487    4.9938   -0.0703 H   0  0  0  0  0  0  0  0  0  0  0  0
    6.2129    1.6275   -2.5069 H   0  0  0  0  0  0  0  0  0  0  0  0
    6.3242    0.1685   -4.5057 H   0  0  0  0  0  0  0  0  0  0  0  0
    2.0620   -0.0533   -4.6343 H   0  0  0  0  0  0  0  0  0  0  0  0
    1.0038    0.9304   -2.8619 H   0  0  0  0  0  0  0  0  0  0  0  0
    3.5312   -0.3760   -0.5046 H   0  0  0  0  0  0  0  0  0  0  0  0
  1  2  1  0  0  0  0
  1 35  1  0  0  0  0
  1 36  1  0  0  0  0
  1 37  1  0  0  0  0
  2  3  2  0  0  0  0
  2 34  1  0  0  0  0
  3  4  1  0  0  0  0
  4  5  1  0  0  0  0
  4 38  1  0  0  0  0
  5  6  1  0  0  0  0
  5 34  2  0  0  0  0
  6  7  2  0  0  0  0
  6 39  1  0  0  0  0
  7  8  1  0  0  0  0
  7 40  1  0  0  0  0
  8  9  1  0  0  0  0
  8 33  2  0  0  0  0
  9 10  1  0  0  0  0
  9 24  2  0  0  0  0
 10 11  2  0  0  0  0
 10 41  1  0  0  0  0
 11 12  1  0  0  0  0
 11 22  1  0  0  0  0
 12 13  1  0  0  0  0
 12 42  1  0  0  0  0
 13 14  1  0  0  0  0
 13 16  1  0  0  0  0
 13 43  1  6  0  0  0
 14 15  1  0  0  0  0
 14 44  1  0  0  0  0
 14 45  1  0  0  0  0
 15 46  1  0  0  0  0
 16 17  1  0  0  0  0
 16 21  2  0  0  0  0
 17 18  2  0  0  0  0
 17 47  1  0  0  0  0
 18 19  1  0  0  0  0
 18 48  1  0  0  0  0
 19 20  2  0  0  0  0
 19 49  1  0  0  0  0
 20 21  1  0  0  0  0
 20 50  1  0  0  0  0
 21 51  1  0  0  0  0
 22 23  2  0  0  0  0
 22 52  1  0  0  0  0
 23 24  1  0  0  0  0
 24 25  1  0  0  0  0
 25 26  1  0  0  0  0
 25 31  2  0  0  0  0
 26 27  2  0  0  0  0
 26 53  1  0  0  0  0
 27 28  1  0  0  0  0
 27 54  1  0  0  0  0
 28 29  1  0  0  0  0
 28 30  2  0  0  0  0
 30 31  1  0  0  0  0
 30 55  1  0  0  0  0
 31 32  1  0  0  0  0
 32 56  1  0  0  0  0
 33 34  1  0  0  0  0
 33 57  1  0  0  0  0
M  END
$$$$
