CHEMBL3797507
 OpenBabel04072215373D

 69 73  0  0  0  0  0  0  0  0999 V2000
    1.5726   -1.1357    1.2506 C   0  0  0  0  0  0  0  0  0  0  0  0
    2.7934   -0.2468    1.0349 C   0  0  0  0  0  0  0  0  0  0  0  0
    4.0185   -0.7832    1.6531 N   0  0  0  0  0  0  0  0  0  0  0  0
    5.1604    0.1482    1.4586 C   0  0  0  0  0  0  0  0  0  0  0  0
    5.6550    0.2834   -0.0012 C   0  0  0  0  0  0  0  0  0  0  0  0
    5.8554   -1.0237   -0.6554 N   0  0  0  0  0  0  0  0  0  0  0  0
    7.1103   -1.4612   -1.0548 C   0  0  0  0  0  0  0  0  0  0  0  0
    7.2381   -2.3095   -2.1564 C   0  0  0  0  0  0  0  0  0  0  0  0
    8.4892   -2.7563   -2.5839 C   0  0  0  0  0  0  0  0  0  0  0  0
    9.6610   -2.3557   -1.9037 C   0  0  0  0  0  0  0  0  0  0  0  0
   10.9748   -2.7366   -2.2396 C   0  0  0  0  0  0  0  0  0  0  0  0
   11.2022   -3.5871   -3.3509 N   0  0  0  0  0  0  0  0  0  0  0  0
   12.3459   -4.2456   -3.6519 C   0  0  0  0  0  0  0  0  0  0  0  0
   13.3511   -4.6043   -2.7260 C   0  0  0  0  0  0  0  0  0  0  0  0
   14.3968   -5.1059   -3.4689 C   0  0  0  0  0  0  0  0  0  0  0  0
   15.8054   -5.4524   -3.1008 C   0  0  0  0  0  0  0  0  0  0  0  0
   15.9479   -5.8516   -1.6233 C   0  0  0  0  0  0  0  0  0  0  0  0
   17.3848   -6.0379   -1.1445 C   0  0  0  0  0  0  0  0  0  0  0  0
   18.1341   -4.9409   -0.6294 C   0  0  0  0  0  0  0  0  0  0  0  0
   17.4159   -3.3601   -0.7336 Cl  0  0  0  0  0  0  0  0  0  0  0  0
   19.4102   -5.1501   -0.0694 C   0  0  0  0  0  0  0  0  0  0  0  0
   20.2927   -4.2782    0.5105 O   0  0  0  0  0  0  0  0  0  0  0  0
   20.0143   -2.8950    0.6290 C   0  0  0  0  0  0  0  0  0  0  0  0
   19.9392   -6.4542   -0.0505 C   0  0  0  0  0  0  0  0  0  0  0  0
   19.2525   -7.5372   -0.5922 C   0  0  0  0  0  0  0  0  0  0  0  0
   19.7300   -8.8226   -0.6098 O   0  0  0  0  0  0  0  0  0  0  0  0
   21.0089   -9.0777   -0.0429 C   0  0  0  0  0  0  0  0  0  0  0  0
   17.9793   -7.3208   -1.1499 C   0  0  0  0  0  0  0  0  0  0  0  0
   17.1443   -8.6744   -1.8599 Cl  0  0  0  0  0  0  0  0  0  0  0  0
   13.9092   -5.1678   -4.7452 N   0  0  0  0  0  0  0  0  0  0  0  0
   12.6748   -4.6445   -4.8840 N   0  0  0  0  0  0  0  0  0  0  0  0
   12.0243   -2.3486   -1.4910 N   0  0  0  0  0  0  0  0  0  0  0  0
   11.7821   -1.5798   -0.4317 C   0  0  0  0  0  0  0  0  0  0  0  0
   10.5861   -1.1353   -0.0460 N   0  0  0  0  0  0  0  0  0  0  0  0
    9.5414   -1.5252   -0.7829 C   0  0  0  0  0  0  0  0  0  0  0  0
    8.2808   -1.0881   -0.3901 C   0  0  0  0  0  0  0  0  0  0  0  0
    4.8255   -2.0497   -0.4041 C   0  0  0  0  0  0  0  0  0  0  0  0
    4.4278   -2.0895    1.0883 C   0  0  0  0  0  0  0  0  0  0  0  0
    0.6812   -0.6510    0.8396 H   0  0  0  0  0  0  0  0  0  0  0  0
    1.4007   -1.3180    2.3157 H   0  0  0  0  0  0  0  0  0  0  0  0
    1.6733   -2.0999    0.7428 H   0  0  0  0  0  0  0  0  0  0  0  0
    2.5710    0.7291    1.4842 H   0  0  0  0  0  0  0  0  0  0  0  0
    2.9095   -0.0728   -0.0405 H   0  0  0  0  0  0  0  0  0  0  0  0
    5.9938   -0.2062    2.0792 H   0  0  0  0  0  0  0  0  0  0  0  0
    4.9044    1.1392    1.8525 H   0  0  0  0  0  0  0  0  0  0  0  0
    6.5569    0.9055   -0.0244 H   0  0  0  0  0  0  0  0  0  0  0  0
    4.9111    0.8379   -0.5860 H   0  0  0  0  0  0  0  0  0  0  0  0
    6.3547   -2.6143   -2.7137 H   0  0  0  0  0  0  0  0  0  0  0  0
    8.5376   -3.4253   -3.4397 H   0  0  0  0  0  0  0  0  0  0  0  0
   10.6945   -3.2714   -4.1667 H   0  0  0  0  0  0  0  0  0  0  0  0
   13.3487   -4.4195   -1.6616 H   0  0  0  0  0  0  0  0  0  0  0  0
   16.4256   -4.5725   -3.3132 H   0  0  0  0  0  0  0  0  0  0  0  0
   16.1748   -6.2574   -3.7463 H   0  0  0  0  0  0  0  0  0  0  0  0
   15.3593   -6.7558   -1.4296 H   0  0  0  0  0  0  0  0  0  0  0  0
   15.4623   -5.1139   -0.9733 H   0  0  0  0  0  0  0  0  0  0  0  0
   20.8629   -2.4302    1.1414 H   0  0  0  0  0  0  0  0  0  0  0  0
   19.1345   -2.7157    1.2532 H   0  0  0  0  0  0  0  0  0  0  0  0
   19.9424   -2.4222   -0.3545 H   0  0  0  0  0  0  0  0  0  0  0  0
   20.9198   -6.5849    0.4034 H   0  0  0  0  0  0  0  0  0  0  0  0
   21.2101  -10.1492   -0.1442 H   0  0  0  0  0  0  0  0  0  0  0  0
   21.0262   -8.8385    1.0256 H   0  0  0  0  0  0  0  0  0  0  0  0
   21.7947   -8.5404   -0.5833 H   0  0  0  0  0  0  0  0  0  0  0  0
   14.3733   -5.5184   -5.5762 H   0  0  0  0  0  0  0  0  0  0  0  0
   12.6328   -1.2978    0.1759 H   0  0  0  0  0  0  0  0  0  0  0  0
    8.2297   -0.4633    0.4951 H   0  0  0  0  0  0  0  0  0  0  0  0
    5.1610   -3.0559   -0.6857 H   0  0  0  0  0  0  0  0  0  0  0  0
    3.9518   -1.8295   -1.0280 H   0  0  0  0  0  0  0  0  0  0  0  0
    5.2853   -2.4545    1.6708 H   0  0  0  0  0  0  0  0  0  0  0  0
    3.6479   -2.8416    1.2450 H   0  0  0  0  0  0  0  0  0  0  0  0
  1  2  1  0  0  0  0
  1 39  1  0  0  0  0
  1 40  1  0  0  0  0
  1 41  1  0  0  0  0
  2  3  1  0  0  0  0
  2 42  1  0  0  0  0
  2 43  1  0  0  0  0
  3  4  1  0  0  0  0
  3 38  1  0  0  0  0
  4  5  1  0  0  0  0
  4 44  1  0  0  0  0
  4 45  1  0  0  0  0
  5  6  1  0  0  0  0
  5 46  1  0  0  0  0
  5 47  1  0  0  0  0
  6  7  1  0  0  0  0
  6 37  1  0  0  0  0
  7  8  1  0  0  0  0
  7 36  2  0  0  0  0
  8  9  2  0  0  0  0
  8 48  1  0  0  0  0
  9 10  1  0  0  0  0
  9 49  1  0  0  0  0
 10 11  1  0  0  0  0
 10 35  2  0  0  0  0
 11 12  1  0  0  0  0
 11 32  2  0  0  0  0
 12 13  1  0  0  0  0
 12 50  1  0  0  0  0
 13 14  1  0  0  0  0
 13 31  2  0  0  0  0
 14 15  2  0  0  0  0
 14 51  1  0  0  0  0
 15 16  1  0  0  0  0
 15 30  1  0  0  0  0
 16 17  1  0  0  0  0
 16 52  1  0  0  0  0
 16 53  1  0  0  0  0
 17 18  1  0  0  0  0
 17 54  1  0  0  0  0
 17 55  1  0  0  0  0
 18 19  1  0  0  0  0
 18 28  2  0  0  0  0
 19 20  1  0  0  0  0
 19 21  2  0  0  0  0
 21 22  1  0  0  0  0
 21 24  1  0  0  0  0
 22 23  1  0  0  0  0
 23 56  1  0  0  0  0
 23 57  1  0  0  0  0
 23 58  1  0  0  0  0
 24 25  2  0  0  0  0
 24 59  1  0  0  0  0
 25 26  1  0  0  0  0
 25 28  1  0  0  0  0
 26 27  1  0  0  0  0
 27 60  1  0  0  0  0
 27 61  1  0  0  0  0
 27 62  1  0  0  0  0
 28 29  1  0  0  0  0
 30 31  1  0  0  0  0
 30 63  1  0  0  0  0
 32 33  1  0  0  0  0
 33 34  2  0  0  0  0
 33 64  1  0  0  0  0
 34 35  1  0  0  0  0
 35 36  1  0  0  0  0
 36 65  1  0  0  0  0
 37 38  1  0  0  0  0
 37 66  1  0  0  0  0
 37 67  1  0  0  0  0
 38 68  1  0  0  0  0
 38 69  1  0  0  0  0
M  END
$$$$
