CHEMBL1090360
 OpenBabel04072215363D

 72 78  0  0  0  0  0  0  0  0999 V2000
    2.7148    0.5920   -1.1824 O   0  0  0  0  0  0  0  0  0  0  0  0
    2.5754   -0.4396   -0.5317 C   0  0  0  0  0  0  0  0  0  0  0  0
    1.3271   -1.2954   -0.7012 C   0  0  0  0  0  0  0  0  0  0  0  0
    1.3997   -2.2552   -1.8644 C   0  0  0  0  0  0  0  0  0  0  0  0
    1.2094   -3.6253   -1.6643 C   0  0  0  0  0  0  0  0  0  0  0  0
    1.2181   -4.5060   -2.7480 C   0  0  0  0  0  0  0  0  0  0  0  0
    1.4176   -4.0237   -4.0399 C   0  0  0  0  0  0  0  0  0  0  0  0
    1.6114   -2.6602   -4.2495 C   0  0  0  0  0  0  0  0  0  0  0  0
    1.6003   -1.7772   -3.1678 C   0  0  0  0  0  0  0  0  0  0  0  0
    3.4553   -0.9364    0.4154 N   0  0  0  0  0  0  0  0  0  0  0  0
    4.6522   -0.3397    0.8701 C   0  0  0  0  0  0  0  0  0  0  0  0
    5.1711    0.8570    0.3785 C   0  0  0  0  0  0  0  0  0  0  0  0
    6.3766    1.3615    0.8742 C   0  0  0  0  0  0  0  0  0  0  0  0
    7.0628    0.6833    1.8820 C   0  0  0  0  0  0  0  0  0  0  0  0
    6.5462   -0.5055    2.4102 C   0  0  0  0  0  0  0  0  0  0  0  0
    7.2228   -1.1549    3.5290 C   0  0  0  0  0  0  0  0  0  0  0  0
    7.8765   -0.3952    4.4910 N   0  0  0  0  0  0  0  0  0  0  0  0
    8.3027   -1.2850    5.3342 C   0  0  0  0  0  0  0  0  0  0  0  0
    9.1938   -1.2151    6.8231 S   0  0  0  0  0  0  0  0  0  0  0  0
    9.0768   -2.9747    6.9327 C   0  0  0  0  0  0  0  0  0  0  0  0
    8.4210   -3.5217    5.8987 C   0  0  0  0  0  0  0  0  0  0  0  0
    7.9806   -2.5659    5.0013 N   0  0  0  0  0  0  0  0  0  0  0  0
    7.2906   -2.5315    3.8084 C   0  0  0  0  0  0  0  0  0  0  0  0
    6.8898   -3.7150    3.0525 C   0  0  0  0  0  0  0  0  0  0  0  0
    6.4611   -4.8919    3.6076 C   0  0  0  0  0  0  0  0  0  0  0  0
    6.2227   -5.9156    2.7218 C   0  0  0  0  0  0  0  0  0  0  0  0
    6.3366   -5.7955    1.3852 N   0  0  0  0  0  0  0  0  0  0  0  0
    6.7345   -4.6048    0.9253 C   0  0  0  0  0  0  0  0  0  0  0  0
    6.8595   -4.4441   -0.4548 N   0  0  0  0  0  0  0  0  0  0  0  0
    7.7312   -3.5603   -1.1198 C   0  0  0  0  0  0  0  0  0  0  0  0
    8.8784   -3.0590   -0.4936 C   0  0  0  0  0  0  0  0  0  0  0  0
    9.6830   -2.1238   -1.1222 C   0  0  0  0  0  0  0  0  0  0  0  0
    9.3614   -1.6984   -2.4059 C   0  0  0  0  0  0  0  0  0  0  0  0
    8.2561   -2.2083   -3.1047 C   0  0  0  0  0  0  0  0  0  0  0  0
    7.9999   -1.8114   -4.3998 N   0  0  0  0  0  0  0  0  0  0  0  0
    9.0757   -1.4550   -5.3354 C   0  0  0  0  0  0  0  0  0  0  0  0
    8.8367   -0.0450   -5.8866 C   0  0  0  0  0  0  0  0  0  0  0  0
    7.5419    0.0566   -6.5034 O   0  0  0  0  0  0  0  0  0  0  0  0
    6.5100   -0.2238   -5.5388 C   0  0  0  0  0  0  0  0  0  0  0  0
    6.6439   -1.6377   -4.9375 C   0  0  0  0  0  0  0  0  0  0  0  0
    7.4424   -3.1347   -2.4276 C   0  0  0  0  0  0  0  0  0  0  0  0
    7.0096   -3.5673    1.7279 N   0  0  0  0  0  0  0  0  0  0  0  0
    5.3389   -1.0010    1.8951 C   0  0  0  0  0  0  0  0  0  0  0  0
    0.4766   -0.6151   -0.8491 H   0  0  0  0  0  0  0  0  0  0  0  0
    1.1213   -1.8272    0.2328 H   0  0  0  0  0  0  0  0  0  0  0  0
    1.0351   -4.0224   -0.6669 H   0  0  0  0  0  0  0  0  0  0  0  0
    1.0579   -5.5687   -2.5854 H   0  0  0  0  0  0  0  0  0  0  0  0
    1.4138   -4.7081   -4.8836 H   0  0  0  0  0  0  0  0  0  0  0  0
    1.7599   -2.2796   -5.2575 H   0  0  0  0  0  0  0  0  0  0  0  0
    1.7411   -0.7140   -3.3522 H   0  0  0  0  0  0  0  0  0  0  0  0
    3.2468   -1.8464    0.8003 H   0  0  0  0  0  0  0  0  0  0  0  0
    4.6659    1.4242   -0.3959 H   0  0  0  0  0  0  0  0  0  0  0  0
    6.7768    2.2899    0.4739 H   0  0  0  0  0  0  0  0  0  0  0  0
    7.9964    1.0927    2.2616 H   0  0  0  0  0  0  0  0  0  0  0  0
    9.5070   -3.5222    7.7613 H   0  0  0  0  0  0  0  0  0  0  0  0
    8.2361   -4.5718    5.7513 H   0  0  0  0  0  0  0  0  0  0  0  0
    6.3179   -5.0334    4.6684 H   0  0  0  0  0  0  0  0  0  0  0  0
    5.9355   -6.9024    3.0738 H   0  0  0  0  0  0  0  0  0  0  0  0
    6.6649   -5.3067   -0.9407 H   0  0  0  0  0  0  0  0  0  0  0  0
    9.1582   -3.3863    0.5032 H   0  0  0  0  0  0  0  0  0  0  0  0
   10.5475   -1.7167   -0.6093 H   0  0  0  0  0  0  0  0  0  0  0  0
    9.9824   -0.9226   -2.8433 H   0  0  0  0  0  0  0  0  0  0  0  0
    9.0533   -2.1774   -6.1599 H   0  0  0  0  0  0  0  0  0  0  0  0
   10.0765   -1.5193   -4.8970 H   0  0  0  0  0  0  0  0  0  0  0  0
    9.5886    0.1862   -6.6476 H   0  0  0  0  0  0  0  0  0  0  0  0
    8.9178    0.7098   -5.0949 H   0  0  0  0  0  0  0  0  0  0  0  0
    5.5475   -0.1274   -6.0512 H   0  0  0  0  0  0  0  0  0  0  0  0
    6.5479    0.5395   -4.7523 H   0  0  0  0  0  0  0  0  0  0  0  0
    6.4871   -2.3852   -5.7239 H   0  0  0  0  0  0  0  0  0  0  0  0
    5.8633   -1.7700   -4.1812 H   0  0  0  0  0  0  0  0  0  0  0  0
    6.5646   -3.5400   -2.9219 H   0  0  0  0  0  0  0  0  0  0  0  0
    4.9177   -1.9103    2.3119 H   0  0  0  0  0  0  0  0  0  0  0  0
  1  2  2  0  0  0  0
  2  3  1  0  0  0  0
  2 10  1  0  0  0  0
  3  4  1  0  0  0  0
  3 44  1  0  0  0  0
  3 45  1  0  0  0  0
  4  5  1  0  0  0  0
  4  9  2  0  0  0  0
  5  6  2  0  0  0  0
  5 46  1  0  0  0  0
  6  7  1  0  0  0  0
  6 47  1  0  0  0  0
  7  8  2  0  0  0  0
  7 48  1  0  0  0  0
  8  9  1  0  0  0  0
  8 49  1  0  0  0  0
  9 50  1  0  0  0  0
 10 11  1  0  0  0  0
 10 51  1  0  0  0  0
 11 12  1  0  0  0  0
 11 43  2  0  0  0  0
 12 13  2  0  0  0  0
 12 52  1  0  0  0  0
 13 14  1  0  0  0  0
 13 53  1  0  0  0  0
 14 15  2  0  0  0  0
 14 54  1  0  0  0  0
 15 16  1  0  0  0  0
 15 43  1  0  0  0  0
 16 17  1  0  0  0  0
 16 23  2  0  0  0  0
 17 18  2  0  0  0  0
 18 19  1  0  0  0  0
 18 22  1  0  0  0  0
 19 20  1  0  0  0  0
 20 21  2  0  0  0  0
 20 55  1  0  0  0  0
 21 22  1  0  0  0  0
 21 56  1  0  0  0  0
 22 23  1  0  0  0  0
 23 24  1  0  0  0  0
 24 25  1  0  0  0  0
 24 42  2  0  0  0  0
 25 26  2  0  0  0  0
 25 57  1  0  0  0  0
 26 27  1  0  0  0  0
 26 58  1  0  0  0  0
 27 28  2  0  0  0  0
 28 29  1  0  0  0  0
 28 42  1  0  0  0  0
 29 30  1  0  0  0  0
 29 59  1  0  0  0  0
 30 31  1  0  0  0  0
 30 41  2  0  0  0  0
 31 32  2  0  0  0  0
 31 60  1  0  0  0  0
 32 33  1  0  0  0  0
 32 61  1  0  0  0  0
 33 34  2  0  0  0  0
 33 62  1  0  0  0  0
 34 35  1  0  0  0  0
 34 41  1  0  0  0  0
 35 36  1  0  0  0  0
 35 40  1  0  0  0  0
 36 37  1  0  0  0  0
 36 63  1  0  0  0  0
 36 64  1  0  0  0  0
 37 38  1  0  0  0  0
 37 65  1  0  0  0  0
 37 66  1  0  0  0  0
 38 39  1  0  0  0  0
 39 40  1  0  0  0  0
 39 67  1  0  0  0  0
 39 68  1  0  0  0  0
 40 69  1  0  0  0  0
 40 70  1  0  0  0  0
 41 71  1  0  0  0  0
 43 72  1  0  0  0  0
M  END
$$$$
