CHEMBL3909047
 OpenBabel04072215373D

 66 69  0  0  1  0  0  0  0  0999 V2000
    2.1874   -0.6544    1.1465 C   0  0  0  0  0  0  0  0  0  0  0  0
    0.8762   -0.2899    0.5450 C   0  0  0  0  0  0  0  0  0  0  0  0
    0.4869    1.0230    0.1547 C   0  0  0  0  0  0  0  0  0  0  0  0
   -0.7790    0.9229   -0.3586 C   0  0  0  0  0  0  0  0  0  0  0  0
   -1.2097   -0.3643   -0.3214 O   0  0  0  0  0  0  0  0  0  0  0  0
   -0.2041   -1.1152    0.2302 C   0  0  0  0  0  0  0  0  0  0  0  0
   -0.4217   -2.5511    0.3716 C   0  0  0  0  0  0  0  0  0  0  0  0
    0.4237   -3.2745    0.8894 O   0  0  0  0  0  0  0  0  0  0  0  0
   -1.6189   -3.0021   -0.1775 N   0  0  0  0  0  0  0  0  0  0  0  0
   -2.0727   -4.3437   -0.2011 C   0  0  0  0  0  0  0  0  0  0  0  0
   -1.5356   -5.3280    0.6337 C   0  0  0  0  0  0  0  0  0  0  0  0
   -1.9272   -6.6586    0.5087 C   0  0  0  0  0  0  0  0  0  0  0  0
   -2.8478   -7.0263   -0.4727 C   0  0  0  0  0  0  0  0  0  0  0  0
   -3.4126   -6.0522   -1.3010 C   0  0  0  0  0  0  0  0  0  0  0  0
   -4.2653   -6.4512   -2.3855 C   0  0  0  0  0  0  0  0  0  0  0  0
   -4.9065   -6.8274   -3.3339 C   0  0  0  0  0  0  0  0  0  0  0  0
   -5.6423   -7.3133   -4.4693 C   0  0  0  0  0  0  0  0  0  0  0  0
   -6.3562   -6.4089   -5.2674 C   0  0  0  0  0  0  0  0  0  0  0  0
   -7.0638   -6.8742   -6.3760 C   0  0  0  0  0  0  0  0  0  0  0  0
   -7.7831   -5.9666   -7.3179 C   0  0  0  0  0  0  0  0  0  0  0  0
   -8.3636   -6.5020   -8.2483 O   0  0  0  0  0  0  0  0  0  0  0  0
   -7.7025   -4.5542   -7.1939 N   0  0  0  0  0  0  0  0  0  0  0  0
   -8.8783   -3.6665   -7.6849 S   0  0  3  0  0  0  0  0  0  0  0  0
   -8.9097   -3.7434   -9.4693 C   0  0  0  0  0  0  0  0  0  0  0  0
  -10.2307   -3.8599   -7.1972 O   0  0  0  0  0  0  0  0  0  0  0  0
   -8.4250   -1.9699   -7.3613 C   0  0  0  0  0  0  0  0  0  0  0  0
   -9.5264   -1.0204   -7.7647 C   0  0  0  0  0  0  0  0  0  0  0  0
   -9.5656   -0.5473   -8.9113 O   0  0  0  0  0  0  0  0  0  0  0  0
  -10.4627   -0.6935   -6.8145 N   0  0  0  0  0  0  0  0  0  0  0  0
  -11.6361    0.1055   -7.1298 C   0  0  0  0  0  0  0  0  0  0  0  0
  -12.4305    0.2129   -5.8290 C   0  0  0  0  0  0  0  0  0  0  0  0
  -11.8480   -0.8724   -4.9258 C   0  0  2  0  0  0  0  0  0  0  0  0
  -11.9595   -0.5415   -3.5509 O   0  0  0  0  0  0  0  0  0  0  0  0
  -10.4009   -0.9669   -5.3887 C   0  0  0  0  0  0  0  0  0  0  0  0
   -7.0606   -8.2453   -6.6080 C   0  0  0  0  0  0  0  0  0  0  0  0
   -6.3835   -9.1464   -5.8498 N   0  0  0  0  0  0  0  0  0  0  0  0
   -5.6678   -8.6761   -4.8067 C   0  0  0  0  0  0  0  0  0  0  0  0
   -4.8583   -9.6183   -4.1783 N   0  0  0  0  0  0  0  0  0  0  0  0
   -3.0620   -4.7042   -1.1302 C   0  0  0  0  0  0  0  0  0  0  0  0
    2.8499    0.2200    1.1881 H   0  0  0  0  0  0  0  0  0  0  0  0
    2.6939   -1.4181    0.5505 H   0  0  0  0  0  0  0  0  0  0  0  0
    2.0647   -1.0200    2.1692 H   0  0  0  0  0  0  0  0  0  0  0  0
    1.0655    1.9347    0.2383 H   0  0  0  0  0  0  0  0  0  0  0  0
   -1.4738    1.6331   -0.7763 H   0  0  0  0  0  0  0  0  0  0  0  0
   -2.1195   -2.3271   -0.7483 H   0  0  0  0  0  0  0  0  0  0  0  0
   -0.7973   -5.0884    1.3922 H   0  0  0  0  0  0  0  0  0  0  0  0
   -1.4819   -7.4094    1.1567 H   0  0  0  0  0  0  0  0  0  0  0  0
   -3.0972   -8.0762   -0.5940 H   0  0  0  0  0  0  0  0  0  0  0  0
   -6.3395   -5.3469   -5.0367 H   0  0  0  0  0  0  0  0  0  0  0  0
   -9.1845   -4.7531   -9.7773 H   0  0  0  0  0  0  0  0  0  0  0  0
   -7.9157   -3.4935   -9.8455 H   0  0  0  0  0  0  0  0  0  0  0  0
   -9.6539   -3.0451   -9.8520 H   0  0  0  0  0  0  0  0  0  0  0  0
   -7.5052   -1.7365   -7.9037 H   0  0  0  0  0  0  0  0  0  0  0  0
   -8.2042   -1.8798   -6.2972 H   0  0  0  0  0  0  0  0  0  0  0  0
  -12.2088   -0.3828   -7.9244 H   0  0  0  0  0  0  0  0  0  0  0  0
  -11.3124    1.0907   -7.4838 H   0  0  0  0  0  0  0  0  0  0  0  0
  -13.5022    0.0628   -5.9931 H   0  0  0  0  0  0  0  0  0  0  0  0
  -12.3145    1.2092   -5.3860 H   0  0  0  0  0  0  0  0  0  0  0  0
  -12.3572   -1.8262   -5.0996 H   0  0  0  0  0  0  0  0  0  0  0  0
  -11.7155    0.3920   -3.4291 H   0  0  0  0  0  0  0  0  0  0  0  0
   -9.9488   -1.9320   -5.1470 H   0  0  0  0  0  0  0  0  0  0  0  0
   -9.7814   -0.1827   -4.9411 H   0  0  0  0  0  0  0  0  0  0  0  0
   -7.6013   -8.6854   -7.4456 H   0  0  0  0  0  0  0  0  0  0  0  0
   -5.1203  -10.5434   -4.5027 H   0  0  0  0  0  0  0  0  0  0  0  0
   -4.8207   -9.5284   -3.1702 H   0  0  0  0  0  0  0  0  0  0  0  0
   -3.5147   -3.9552   -1.7722 H   0  0  0  0  0  0  0  0  0  0  0  0
  1  2  1  0  0  0  0
  1 40  1  0  0  0  0
  1 41  1  0  0  0  0
  1 42  1  0  0  0  0
  2  3  1  0  0  0  0
  2  6  2  0  0  0  0
  3  4  2  0  0  0  0
  3 43  1  0  0  0  0
  4  5  1  0  0  0  0
  4 44  1  0  0  0  0
  5  6  1  0  0  0  0
  6  7  1  0  0  0  0
  7  8  2  0  0  0  0
  7  9  1  0  0  0  0
  9 10  1  0  0  0  0
  9 45  1  0  0  0  0
 10 11  1  0  0  0  0
 10 39  2  0  0  0  0
 11 12  2  0  0  0  0
 11 46  1  0  0  0  0
 12 13  1  0  0  0  0
 12 47  1  0  0  0  0
 13 14  2  0  0  0  0
 13 48  1  0  0  0  0
 14 15  1  0  0  0  0
 14 39  1  0  0  0  0
 15 16  3  0  0  0  0
 16 17  1  0  0  0  0
 17 18  1  0  0  0  0
 17 37  2  0  0  0  0
 18 19  2  0  0  0  0
 18 49  1  0  0  0  0
 19 20  1  0  0  0  0
 19 35  1  0  0  0  0
 20 21  2  0  0  0  0
 20 22  1  0  0  0  0
 22 23  2  0  0  0  0
 23 24  1  0  0  0  0
 23 25  2  0  0  0  0
 23 26  1  0  0  0  0
 24 50  1  0  0  0  0
 24 51  1  0  0  0  0
 24 52  1  0  0  0  0
 26 27  1  0  0  0  0
 26 53  1  0  0  0  0
 26 54  1  0  0  0  0
 27 28  2  0  0  0  0
 27 29  1  0  0  0  0
 29 30  1  0  0  0  0
 29 34  1  0  0  0  0
 30 31  1  0  0  0  0
 30 55  1  0  0  0  0
 30 56  1  0  0  0  0
 31 32  1  0  0  0  0
 31 57  1  0  0  0  0
 31 58  1  0  0  0  0
 32 33  1  0  0  0  0
 32 34  1  0  0  0  0
 32 59  1  6  0  0  0
 33 60  1  0  0  0  0
 34 61  1  0  0  0  0
 34 62  1  0  0  0  0
 35 36  2  0  0  0  0
 35 63  1  0  0  0  0
 36 37  1  0  0  0  0
 37 38  1  0  0  0  0
 38 64  1  0  0  0  0
 38 65  1  0  0  0  0
 39 66  1  0  0  0  0
M  END
$$$$
