CHEMBL2022850
 OpenBabel04072215363D

 56 60  0  0  0  0  0  0  0  0999 V2000
   -2.1085    1.0467    0.8850 C   0  0  0  0  0  0  0  0  0  0  0  0
   -0.6799    0.9099    1.0277 N   0  0  0  0  0  0  0  0  0  0  0  0
   -0.0099    0.2223    1.9978 C   0  0  0  0  0  0  0  0  0  0  0  0
    1.3361    0.3457    1.7062 C   0  0  0  0  0  0  0  0  0  0  0  0
    2.4035   -0.2446    2.4898 C   0  0  0  0  0  0  0  0  0  0  0  0
    2.3078   -0.3667    3.8652 C   0  0  0  0  0  0  0  0  0  0  0  0
    3.2572   -0.8836    4.6572 N   0  0  0  0  0  0  0  0  0  0  0  0
    4.4132   -1.3251    4.1248 C   0  0  0  0  0  0  0  0  0  0  0  0
    5.3055   -1.7822    5.0834 N   0  0  0  0  0  0  0  0  0  0  0  0
    4.6352   -1.2834    2.7134 C   0  0  0  0  0  0  0  0  0  0  0  0
    5.7698   -1.7144    1.8696 C   0  0  0  0  0  0  0  0  0  0  0  0
    7.0347   -2.3586    2.2515 C   0  0  0  0  0  0  0  0  0  0  0  0
    7.0540   -3.3057    3.2696 C   0  0  0  0  0  0  0  0  0  0  0  0
    8.2539   -3.8405    3.7295 C   0  0  0  0  0  0  0  0  0  0  0  0
    9.4606   -3.5597    3.0900 C   0  0  0  0  0  0  0  0  0  0  0  0
   10.6792   -4.1452    3.5023 N   0  0  0  0  0  0  0  0  0  0  0  0
   10.7615   -5.2864    4.2815 C   0  0  0  0  0  0  0  0  0  0  0  0
    9.8114   -5.9999    4.5837 O   0  0  0  0  0  0  0  0  0  0  0  0
   12.0559   -5.5280    4.7128 N   0  0  0  0  0  0  0  0  0  0  0  0
   12.3614   -6.6906    5.4586 C   0  0  0  0  0  0  0  0  0  0  0  0
   11.8134   -7.9353    5.1232 C   0  0  0  0  0  0  0  0  0  0  0  0
   12.0975   -9.0665    5.8879 C   0  0  0  0  0  0  0  0  0  0  0  0
   12.9146   -8.9572    7.0106 C   0  0  0  0  0  0  0  0  0  0  0  0
   13.4523   -7.7107    7.3613 C   0  0  0  0  0  0  0  0  0  0  0  0
   14.2712   -7.5369    8.5862 C   0  0  0  0  0  0  0  0  0  0  0  0
   14.0863   -8.4258    9.6069 N   0  0  0  0  0  0  0  0  0  0  0  0
   15.0599   -6.5986    8.7023 O   0  0  0  0  0  0  0  0  0  0  0  0
   13.2067   -6.5850    6.5616 C   0  0  0  0  0  0  0  0  0  0  0  0
    9.4534   -2.6682    2.0165 C   0  0  0  0  0  0  0  0  0  0  0  0
    8.2514   -2.0618    1.6107 C   0  0  0  0  0  0  0  0  0  0  0  0
    5.5260   -1.4818    0.5325 C   0  0  0  0  0  0  0  0  0  0  0  0
    4.0168   -0.7893    0.2409 S   0  0  0  0  0  0  0  0  0  0  0  0
    3.6021   -0.7343    1.9194 C   0  0  0  0  0  0  0  0  0  0  0  0
    1.3512    1.1668    0.5549 C   0  0  0  0  0  0  0  0  0  0  0  0
    0.1302    1.5068    0.1398 N   0  0  0  0  0  0  0  0  0  0  0  0
   -2.6055    0.6192    1.7599 H   0  0  0  0  0  0  0  0  0  0  0  0
   -2.4147    0.5132   -0.0189 H   0  0  0  0  0  0  0  0  0  0  0  0
   -2.3492    2.1096    0.8036 H   0  0  0  0  0  0  0  0  0  0  0  0
   -0.5394   -0.2975    2.7852 H   0  0  0  0  0  0  0  0  0  0  0  0
    1.4281   -0.0220    4.4031 H   0  0  0  0  0  0  0  0  0  0  0  0
    4.9612   -1.5429    6.0070 H   0  0  0  0  0  0  0  0  0  0  0  0
    6.2725   -1.5474    4.9052 H   0  0  0  0  0  0  0  0  0  0  0  0
    6.1369   -3.6379    3.7503 H   0  0  0  0  0  0  0  0  0  0  0  0
    8.2013   -4.4811    4.6045 H   0  0  0  0  0  0  0  0  0  0  0  0
   11.5158   -3.8908    2.9978 H   0  0  0  0  0  0  0  0  0  0  0  0
   12.5873   -4.6953    4.9268 H   0  0  0  0  0  0  0  0  0  0  0  0
   11.1581   -8.0396    4.2612 H   0  0  0  0  0  0  0  0  0  0  0  0
   11.6701  -10.0264    5.6097 H   0  0  0  0  0  0  0  0  0  0  0  0
   13.1308   -9.8475    7.5902 H   0  0  0  0  0  0  0  0  0  0  0  0
   13.2841   -9.0357    9.6521 H   0  0  0  0  0  0  0  0  0  0  0  0
   14.5607   -8.2131   10.4749 H   0  0  0  0  0  0  0  0  0  0  0  0
   13.6228   -5.6234    6.8517 H   0  0  0  0  0  0  0  0  0  0  0  0
   10.3661   -2.4365    1.4742 H   0  0  0  0  0  0  0  0  0  0  0  0
    8.2859   -1.3604    0.7797 H   0  0  0  0  0  0  0  0  0  0  0  0
    6.1629   -1.7072   -0.3125 H   0  0  0  0  0  0  0  0  0  0  0  0
    2.2041    1.5387   -0.0022 H   0  0  0  0  0  0  0  0  0  0  0  0
  1  2  1  0  0  0  0
  1 36  1  0  0  0  0
  1 37  1  0  0  0  0
  1 38  1  0  0  0  0
  2  3  1  0  0  0  0
  2 35  1  0  0  0  0
  3  4  2  0  0  0  0
  3 39  1  0  0  0  0
  4  5  1  0  0  0  0
  4 34  1  0  0  0  0
  5  6  1  0  0  0  0
  5 33  2  0  0  0  0
  6  7  2  0  0  0  0
  6 40  1  0  0  0  0
  7  8  1  0  0  0  0
  8  9  1  0  0  0  0
  8 10  2  0  0  0  0
  9 41  1  0  0  0  0
  9 42  1  0  0  0  0
 10 11  1  0  0  0  0
 10 33  1  0  0  0  0
 11 12  1  0  0  0  0
 11 31  2  0  0  0  0
 12 13  1  0  0  0  0
 12 30  2  0  0  0  0
 13 14  2  0  0  0  0
 13 43  1  0  0  0  0
 14 15  1  0  0  0  0
 14 44  1  0  0  0  0
 15 16  1  0  0  0  0
 15 29  2  0  0  0  0
 16 17  1  0  0  0  0
 16 45  1  0  0  0  0
 17 18  2  0  0  0  0
 17 19  1  0  0  0  0
 19 20  1  0  0  0  0
 19 46  1  0  0  0  0
 20 21  1  0  0  0  0
 20 28  2  0  0  0  0
 21 22  2  0  0  0  0
 21 47  1  0  0  0  0
 22 23  1  0  0  0  0
 22 48  1  0  0  0  0
 23 24  2  0  0  0  0
 23 49  1  0  0  0  0
 24 25  1  0  0  0  0
 24 28  1  0  0  0  0
 25 26  1  0  0  0  0
 25 27  2  0  0  0  0
 26 50  1  0  0  0  0
 26 51  1  0  0  0  0
 28 52  1  0  0  0  0
 29 30  1  0  0  0  0
 29 53  1  0  0  0  0
 30 54  1  0  0  0  0
 31 32  1  0  0  0  0
 31 55  1  0  0  0  0
 32 33  1  0  0  0  0
 34 35  2  0  0  0  0
 34 56  1  0  0  0  0
M  END
$$$$
