CHEMBL2349005
 OpenBabel04072215363D

 46 49  0  0  0  0  0  0  0  0999 V2000
    6.1761   -0.2345    7.9623 C   0  0  0  0  0  0  0  0  0  0  0  0
    6.4311    0.6491    6.7694 C   0  0  0  0  0  0  0  0  0  0  0  0
    5.6182    1.5080    6.4509 O   0  0  0  0  0  0  0  0  0  0  0  0
    7.6243    0.3399    6.1394 N   0  0  0  0  0  0  0  0  0  0  0  0
    8.0756    0.9914    5.0179 C   0  0  0  0  0  0  0  0  0  0  0  0
    9.1047    0.5579    4.2116 C   0  0  0  0  0  0  0  0  0  0  0  0
    9.1250    1.4402    3.1614 N   0  0  0  0  0  0  0  0  0  0  0  0
    9.9203    1.3432    2.0611 N   0  0  0  0  0  0  0  0  0  0  0  0
    9.6815    2.2951    1.2159 C   0  0  0  0  0  0  0  0  0  0  0  0
   10.3303    2.4529    0.0012 O   0  0  0  0  0  0  0  0  0  0  0  0
   11.5296    1.7559   -0.2409 C   0  0  0  0  0  0  0  0  0  0  0  0
   11.6849    1.1802   -1.4973 C   0  0  0  0  0  0  0  0  0  0  0  0
   12.8894    0.5605   -1.8096 C   0  0  0  0  0  0  0  0  0  0  0  0
   13.9355    0.5601   -0.8813 C   0  0  0  0  0  0  0  0  0  0  0  0
   13.8017    1.1942    0.3596 C   0  0  0  0  0  0  0  0  0  0  0  0
   14.8614    1.3093    1.2924 N   0  0  0  0  0  0  0  0  0  0  0  0
   16.1997    1.1223    0.9934 C   0  0  0  0  0  0  0  0  0  0  0  0
   16.6570    0.8615   -0.1165 O   0  0  0  0  0  0  0  0  0  0  0  0
   17.1802    1.3065    2.0954 C   0  0  0  0  0  0  0  0  0  0  0  0
   16.8857    1.0355    3.4356 C   0  0  0  0  0  0  0  0  0  0  0  0
   17.8963    1.1298    4.4042 C   0  0  0  0  0  0  0  0  0  0  0  0
   19.1917    1.4928    4.0332 C   0  0  0  0  0  0  0  0  0  0  0  0
   19.4705    1.7721    2.7015 C   0  0  0  0  0  0  0  0  0  0  0  0
   20.7156    2.1126    2.3443 F   0  0  0  0  0  0  0  0  0  0  0  0
   18.4816    1.6845    1.7342 C   0  0  0  0  0  0  0  0  0  0  0  0
   12.5760    1.7733    0.6898 C   0  0  0  0  0  0  0  0  0  0  0  0
    8.7115    3.4044    1.3484 C   0  0  0  0  0  0  0  0  0  0  0  0
    8.0003    3.4383    2.4812 C   0  0  0  0  0  0  0  0  0  0  0  0
    8.1727    2.4073    3.4308 C   0  0  0  0  0  0  0  0  0  0  0  0
    7.5452    2.1581    4.5547 N   0  0  0  0  0  0  0  0  0  0  0  0
    5.1431   -0.0982    8.2976 H   0  0  0  0  0  0  0  0  0  0  0  0
    6.8535    0.0404    8.7738 H   0  0  0  0  0  0  0  0  0  0  0  0
    6.3135   -1.2861    7.6963 H   0  0  0  0  0  0  0  0  0  0  0  0
    8.1360   -0.4801    6.4297 H   0  0  0  0  0  0  0  0  0  0  0  0
    9.7571   -0.2989    4.2363 H   0  0  0  0  0  0  0  0  0  0  0  0
   10.8848    1.2174   -2.2292 H   0  0  0  0  0  0  0  0  0  0  0  0
   13.0329    0.0910   -2.7790 H   0  0  0  0  0  0  0  0  0  0  0  0
   14.8545    0.0550   -1.1637 H   0  0  0  0  0  0  0  0  0  0  0  0
   14.6305    1.7232    2.1868 H   0  0  0  0  0  0  0  0  0  0  0  0
   15.8978    0.7024    3.7450 H   0  0  0  0  0  0  0  0  0  0  0  0
   17.6811    0.8963    5.4454 H   0  0  0  0  0  0  0  0  0  0  0  0
   19.9893    1.5472    4.7673 H   0  0  0  0  0  0  0  0  0  0  0  0
   18.7363    1.8918    0.6965 H   0  0  0  0  0  0  0  0  0  0  0  0
   12.4386    2.2762    1.6416 H   0  0  0  0  0  0  0  0  0  0  0  0
    8.6253    4.1485    0.5672 H   0  0  0  0  0  0  0  0  0  0  0  0
    7.2795    4.2218    2.6880 H   0  0  0  0  0  0  0  0  0  0  0  0
  1  2  1  0  0  0  0
  1 31  1  0  0  0  0
  1 32  1  0  0  0  0
  1 33  1  0  0  0  0
  2  3  2  0  0  0  0
  2  4  1  0  0  0  0
  4  5  1  0  0  0  0
  4 34  1  0  0  0  0
  5  6  2  0  0  0  0
  5 30  1  0  0  0  0
  6  7  1  0  0  0  0
  6 35  1  0  0  0  0
  7  8  1  0  0  0  0
  7 29  1  0  0  0  0
  8  9  2  0  0  0  0
  9 10  1  0  0  0  0
  9 27  1  0  0  0  0
 10 11  1  0  0  0  0
 11 12  1  0  0  0  0
 11 26  2  0  0  0  0
 12 13  2  0  0  0  0
 12 36  1  0  0  0  0
 13 14  1  0  0  0  0
 13 37  1  0  0  0  0
 14 15  2  0  0  0  0
 14 38  1  0  0  0  0
 15 16  1  0  0  0  0
 15 26  1  0  0  0  0
 16 17  1  0  0  0  0
 16 39  1  0  0  0  0
 17 18  2  0  0  0  0
 17 19  1  0  0  0  0
 19 20  1  0  0  0  0
 19 25  2  0  0  0  0
 20 21  2  0  0  0  0
 20 40  1  0  0  0  0
 21 22  1  0  0  0  0
 21 41  1  0  0  0  0
 22 23  2  0  0  0  0
 22 42  1  0  0  0  0
 23 24  1  0  0  0  0
 23 25  1  0  0  0  0
 25 43  1  0  0  0  0
 26 44  1  0  0  0  0
 27 28  2  0  0  0  0
 27 45  1  0  0  0  0
 28 29  1  0  0  0  0
 28 46  1  0  0  0  0
 29 30  2  0  0  0  0
M  END
$$$$
