CHEMBL4442365
 OpenBabel04072215383D

 54 58  0  0  0  0  0  0  0  0999 V2000
    0.9169   -0.0832   -0.0583 C   0  0  0  0  0  0  0  0  0  0  0  0
    2.4225   -0.0399    0.0096 C   0  0  0  0  0  0  0  0  0  0  0  0
    3.1085   -1.1952    0.0022 C   0  0  0  0  0  0  0  0  0  0  0  0
    4.5654   -1.2006   -0.0426 C   0  0  0  0  0  0  0  0  0  0  0  0
    5.2599   -2.4020   -0.1568 C   0  0  0  0  0  0  0  0  0  0  0  0
    6.6357   -2.3473   -0.2133 C   0  0  0  0  0  0  0  0  0  0  0  0
    7.3381   -1.2001   -0.1303 N   0  0  0  0  0  0  0  0  0  0  0  0
    6.6688   -0.0228    0.0071 C   0  0  0  0  0  0  0  0  0  0  0  0
    7.4266    1.1598    0.0956 N   0  0  0  0  0  0  0  0  0  0  0  0
    8.7669    1.3512   -0.2540 C   0  0  0  0  0  0  0  0  0  0  0  0
    9.2552    0.8223   -1.4541 C   0  0  0  0  0  0  0  0  0  0  0  0
   10.6015    0.9179   -1.7894 C   0  0  0  0  0  0  0  0  0  0  0  0
   11.5066    1.4450   -0.8671 C   0  0  0  0  0  0  0  0  0  0  0  0
   12.8736    1.4136   -1.0545 O   0  0  0  0  0  0  0  0  0  0  0  0
   13.4186    0.3313   -1.7236 C   0  0  0  0  0  0  0  0  0  0  0  0
   12.9324   -0.9687   -1.5589 C   0  0  0  0  0  0  0  0  0  0  0  0
   13.4666   -1.9721   -2.3427 C   0  0  0  0  0  0  0  0  0  0  0  0
   14.4764   -1.7815   -3.2158 N   0  0  0  0  0  0  0  0  0  0  0  0
   14.9968   -0.5396   -3.3068 C   0  0  0  0  0  0  0  0  0  0  0  0
   16.0274   -0.4115   -4.2396 N   0  0  0  0  0  0  0  0  0  0  0  0
   14.5014    0.5488   -2.5778 C   0  0  0  0  0  0  0  0  0  0  0  0
   15.2251    2.1138   -2.7204 Cl  0  0  0  0  0  0  0  0  0  0  0  0
   11.0210    2.0233    0.3042 C   0  0  0  0  0  0  0  0  0  0  0  0
   11.8681    2.5849    1.1805 F   0  0  0  0  0  0  0  0  0  0  0  0
    9.6598    1.9900    0.6122 C   0  0  0  0  0  0  0  0  0  0  0  0
    5.2689    0.0050    0.0168 C   0  0  0  0  0  0  0  0  0  0  0  0
    4.5041    1.2757    0.0605 C   0  0  0  0  0  0  0  0  0  0  0  0
    5.1271    2.3336    0.1701 O   0  0  0  0  0  0  0  0  0  0  0  0
    3.0912    1.1930    0.0049 N   0  0  0  0  0  0  0  0  0  0  0  0
    2.4034    2.4453   -0.0297 C   0  0  0  0  0  0  0  0  0  0  0  0
    2.6131    3.3231   -1.1110 C   0  0  0  0  0  0  0  0  0  0  0  0
    2.0052    4.5795   -1.1250 C   0  0  0  0  0  0  0  0  0  0  0  0
    1.2098    4.9620   -0.0513 C   0  0  0  0  0  0  0  0  0  0  0  0
    0.6500    6.1785   -0.0465 F   0  0  0  0  0  0  0  0  0  0  0  0
    0.9977    4.1080    1.0258 C   0  0  0  0  0  0  0  0  0  0  0  0
    1.5928    2.8434    1.0344 C   0  0  0  0  0  0  0  0  0  0  0  0
    0.5465   -1.1087   -0.1709 H   0  0  0  0  0  0  0  0  0  0  0  0
    0.5486    0.4829   -0.9196 H   0  0  0  0  0  0  0  0  0  0  0  0
    0.4678    0.3118    0.8567 H   0  0  0  0  0  0  0  0  0  0  0  0
    2.5982   -2.1542   -0.0032 H   0  0  0  0  0  0  0  0  0  0  0  0
    4.7512   -3.3574   -0.2194 H   0  0  0  0  0  0  0  0  0  0  0  0
    7.2316   -3.2481   -0.3317 H   0  0  0  0  0  0  0  0  0  0  0  0
    6.9473    1.9365    0.5488 H   0  0  0  0  0  0  0  0  0  0  0  0
    8.5724    0.3243   -2.1385 H   0  0  0  0  0  0  0  0  0  0  0  0
   10.9267    0.5190   -2.7454 H   0  0  0  0  0  0  0  0  0  0  0  0
   12.1258   -1.1983   -0.8706 H   0  0  0  0  0  0  0  0  0  0  0  0
   13.0735   -2.9841   -2.2979 H   0  0  0  0  0  0  0  0  0  0  0  0
   16.2599   -1.3439   -4.5704 H   0  0  0  0  0  0  0  0  0  0  0  0
   16.8219    0.0881   -3.8564 H   0  0  0  0  0  0  0  0  0  0  0  0
    9.3213    2.4136    1.5526 H   0  0  0  0  0  0  0  0  0  0  0  0
    3.2513    3.0312   -1.9425 H   0  0  0  0  0  0  0  0  0  0  0  0
    2.1615    5.2633   -1.9522 H   0  0  0  0  0  0  0  0  0  0  0  0
    0.3919    4.4403    1.8628 H   0  0  0  0  0  0  0  0  0  0  0  0
    1.4636    2.1996    1.8988 H   0  0  0  0  0  0  0  0  0  0  0  0
  1  2  1  0  0  0  0
  1 37  1  0  0  0  0
  1 38  1  0  0  0  0
  1 39  1  0  0  0  0
  2  3  2  0  0  0  0
  2 29  1  0  0  0  0
  3  4  1  0  0  0  0
  3 40  1  0  0  0  0
  4  5  1  0  0  0  0
  4 26  2  0  0  0  0
  5  6  2  0  0  0  0
  5 41  1  0  0  0  0
  6  7  1  0  0  0  0
  6 42  1  0  0  0  0
  7  8  2  0  0  0  0
  8  9  1  0  0  0  0
  8 26  1  0  0  0  0
  9 10  1  0  0  0  0
  9 43  1  0  0  0  0
 10 11  1  0  0  0  0
 10 25  2  0  0  0  0
 11 12  2  0  0  0  0
 11 44  1  0  0  0  0
 12 13  1  0  0  0  0
 12 45  1  0  0  0  0
 13 14  1  0  0  0  0
 13 23  2  0  0  0  0
 14 15  1  0  0  0  0
 15 16  1  0  0  0  0
 15 21  2  0  0  0  0
 16 17  2  0  0  0  0
 16 46  1  0  0  0  0
 17 18  1  0  0  0  0
 17 47  1  0  0  0  0
 18 19  2  0  0  0  0
 19 20  1  0  0  0  0
 19 21  1  0  0  0  0
 20 48  1  0  0  0  0
 20 49  1  0  0  0  0
 21 22  1  0  0  0  0
 23 24  1  0  0  0  0
 23 25  1  0  0  0  0
 25 50  1  0  0  0  0
 26 27  1  0  0  0  0
 27 28  2  0  0  0  0
 27 29  1  0  0  0  0
 29 30  1  0  0  0  0
 30 31  1  0  0  0  0
 30 36  2  0  0  0  0
 31 32  2  0  0  0  0
 31 51  1  0  0  0  0
 32 33  1  0  0  0  0
 32 52  1  0  0  0  0
 33 34  1  0  0  0  0
 33 35  2  0  0  0  0
 35 36  1  0  0  0  0
 35 53  1  0  0  0  0
 36 54  1  0  0  0  0
M  END
$$$$
