CHEMBL3930429
 OpenBabel04072215373D

 57 61  0  0  1  0  0  0  0  0999 V2000
   -3.7700   -7.9224   -8.0445 C   0  0  0  0  0  0  0  0  0  0  0  0
   -4.4253   -7.2594   -6.9583 O   0  0  0  0  0  0  0  0  0  0  0  0
   -4.8314   -5.9758   -7.2117 C   0  0  0  0  0  0  0  0  0  0  0  0
   -5.3119   -5.5740   -8.4604 C   0  0  0  0  0  0  0  0  0  0  0  0
   -5.6180   -4.2162   -8.7176 C   0  0  0  0  0  0  0  0  0  0  0  0
   -6.0608   -3.7029   -9.9425 C   0  0  0  0  0  0  0  0  0  0  0  0
   -6.3219   -4.5905  -11.0260 N   0  0  0  0  0  0  0  0  0  0  0  0
   -6.4109   -4.1495  -12.3581 C   0  0  0  0  0  0  0  0  0  0  0  0
   -5.4120   -3.3188  -12.8893 C   0  0  0  0  0  0  0  0  0  0  0  0
   -5.5309   -2.7825  -14.1674 C   0  0  0  0  0  0  0  0  0  0  0  0
   -6.6534   -3.0779  -14.9422 C   0  0  0  0  0  0  0  0  0  0  0  0
   -6.7756   -2.3275  -16.4904 Cl  0  0  0  0  0  0  0  0  0  0  0  0
   -7.6347   -3.9422  -14.4404 C   0  0  0  0  0  0  0  0  0  0  0  0
   -9.0457   -4.3596  -15.3478 Cl  0  0  0  0  0  0  0  0  0  0  0  0
   -7.5072   -4.4850  -13.1558 C   0  0  0  0  0  0  0  0  0  0  0  0
   -6.2574   -2.3836  -10.1382 N   0  0  0  0  0  0  0  0  0  0  0  0
   -6.0223   -1.5735   -9.1077 C   0  0  0  0  0  0  0  0  0  0  0  0
   -5.6268   -1.9567   -7.8941 N   0  0  0  0  0  0  0  0  0  0  0  0
   -5.4304   -3.2641   -7.7172 C   0  0  0  0  0  0  0  0  0  0  0  0
   -5.0319   -3.6898   -6.4668 C   0  0  0  0  0  0  0  0  0  0  0  0
   -4.7966   -5.0417   -6.1721 C   0  0  0  0  0  0  0  0  0  0  0  0
   -4.5407   -5.4874   -4.8887 O   0  0  0  0  0  0  0  0  0  0  0  0
   -5.0245   -4.5807   -3.8852 C   0  0  0  0  0  0  0  0  0  0  0  0
   -5.0694   -5.1109   -2.4955 C   0  0  0  0  0  0  0  0  0  0  0  0
   -4.8050   -6.3788   -2.0234 C   0  0  0  0  0  0  0  0  0  0  0  0
   -4.8864   -6.3897   -0.3049 S   0  0  0  0  0  0  0  0  0  0  0  0
   -5.2132   -4.7028   -0.3161 C   0  0  0  0  0  0  0  0  0  0  0  0
   -5.1046   -3.8096    0.8902 C   0  0  2  0  0  0  0  0  0  0  0  0
   -3.6812   -3.2356    0.9351 C   0  0  0  0  0  0  0  0  0  0  0  0
   -3.4265   -2.9097    2.3965 C   0  0  0  0  0  0  0  0  0  0  0  0
   -4.6882   -3.3510    3.1206 C   0  0  0  0  0  0  0  0  0  0  0  0
   -5.2545   -4.3833    2.2413 N   0  0  0  0  0  0  0  0  0  0  0  0
   -6.6440   -4.6624    2.5870 C   0  0  0  0  0  0  0  0  0  0  0  0
   -5.3873   -4.1868   -1.5144 N   0  0  0  0  0  0  0  0  0  0  0  0
   -2.8596   -8.3949   -7.6631 H   0  0  0  0  0  0  0  0  0  0  0  0
   -3.4614   -7.2609   -8.8631 H   0  0  0  0  0  0  0  0  0  0  0  0
   -4.4289   -8.7041   -8.4344 H   0  0  0  0  0  0  0  0  0  0  0  0
   -5.4379   -6.3052   -9.2540 H   0  0  0  0  0  0  0  0  0  0  0  0
   -7.0665   -5.2266  -10.7562 H   0  0  0  0  0  0  0  0  0  0  0  0
   -4.5431   -3.0655  -12.2839 H   0  0  0  0  0  0  0  0  0  0  0  0
   -4.7557   -2.1170  -14.5376 H   0  0  0  0  0  0  0  0  0  0  0  0
   -8.2889   -5.1325  -12.7674 H   0  0  0  0  0  0  0  0  0  0  0  0
   -6.1684   -0.5111   -9.2654 H   0  0  0  0  0  0  0  0  0  0  0  0
   -4.9161   -2.9131   -5.7167 H   0  0  0  0  0  0  0  0  0  0  0  0
   -6.0436   -4.2482   -4.1271 H   0  0  0  0  0  0  0  0  0  0  0  0
   -4.3501   -3.7138   -3.8526 H   0  0  0  0  0  0  0  0  0  0  0  0
   -4.5350   -7.2607   -2.5850 H   0  0  0  0  0  0  0  0  0  0  0  0
   -5.8108   -2.9747    0.7626 H   0  0  0  0  0  0  0  0  0  0  0  0
   -3.5866   -2.3516    0.2945 H   0  0  0  0  0  0  0  0  0  0  0  0
   -2.9330   -3.9633    0.5924 H   0  0  0  0  0  0  0  0  0  0  0  0
   -3.2279   -1.8428    2.5382 H   0  0  0  0  0  0  0  0  0  0  0  0
   -2.5533   -3.4680    2.7526 H   0  0  0  0  0  0  0  0  0  0  0  0
   -5.3658   -2.4922    3.2214 H   0  0  0  0  0  0  0  0  0  0  0  0
   -4.4640   -3.7341    4.1205 H   0  0  0  0  0  0  0  0  0  0  0  0
   -6.7144   -4.9893    3.6310 H   0  0  0  0  0  0  0  0  0  0  0  0
   -7.0428   -5.4778    1.9756 H   0  0  0  0  0  0  0  0  0  0  0  0
   -7.2939   -3.7886    2.4624 H   0  0  0  0  0  0  0  0  0  0  0  0
  1  2  1  0  0  0  0
  1 35  1  0  0  0  0
  1 36  1  0  0  0  0
  1 37  1  0  0  0  0
  2  3  1  0  0  0  0
  3  4  1  0  0  0  0
  3 21  2  0  0  0  0
  4  5  2  0  0  0  0
  4 38  1  0  0  0  0
  5  6  1  0  0  0  0
  5 19  1  0  0  0  0
  6  7  1  0  0  0  0
  6 16  2  0  0  0  0
  7  8  1  0  0  0  0
  7 39  1  0  0  0  0
  8  9  1  0  0  0  0
  8 15  2  0  0  0  0
  9 10  2  0  0  0  0
  9 40  1  0  0  0  0
 10 11  1  0  0  0  0
 10 41  1  0  0  0  0
 11 12  1  0  0  0  0
 11 13  2  0  0  0  0
 13 14  1  0  0  0  0
 13 15  1  0  0  0  0
 15 42  1  0  0  0  0
 16 17  1  0  0  0  0
 17 18  2  0  0  0  0
 17 43  1  0  0  0  0
 18 19  1  0  0  0  0
 19 20  2  0  0  0  0
 20 21  1  0  0  0  0
 20 44  1  0  0  0  0
 21 22  1  0  0  0  0
 22 23  1  0  0  0  0
 23 24  1  0  0  0  0
 23 45  1  0  0  0  0
 23 46  1  0  0  0  0
 24 25  2  0  0  0  0
 24 34  1  0  0  0  0
 25 26  1  0  0  0  0
 25 47  1  0  0  0  0
 26 27  1  0  0  0  0
 27 34  2  0  0  0  0
 28 29  1  0  0  0  0
 28 32  1  0  0  0  0
 28 27  1  0  0  0  0
 28 48  1  6  0  0  0
 29 30  1  0  0  0  0
 29 49  1  0  0  0  0
 29 50  1  0  0  0  0
 30 31  1  0  0  0  0
 30 51  1  0  0  0  0
 30 52  1  0  0  0  0
 31 32  1  0  0  0  0
 31 53  1  0  0  0  0
 31 54  1  0  0  0  0
 32 33  1  0  0  0  0
 33 55  1  0  0  0  0
 33 56  1  0  0  0  0
 33 57  1  0  0  0  0
M  END
$$$$
