CHEMBL4169626
 OpenBabel04072215383D

 48 52  0  0  0  0  0  0  0  0999 V2000
    4.7726    2.8479    4.1675 C   0  0  0  0  0  0  0  0  0  0  0  0
    5.2277    2.0834    3.0328 N   0  0  0  0  0  0  0  0  0  0  0  0
    5.2744    2.6457    1.8027 N   0  0  0  0  0  0  0  0  0  0  0  0
    5.7577    1.6642    1.0323 C   0  0  0  0  0  0  0  0  0  0  0  0
    6.0061    0.4829    1.7522 C   0  0  0  0  0  0  0  0  0  0  0  0
    6.4975   -0.7956    1.5237 C   0  0  0  0  0  0  0  0  0  0  0  0
    6.9300   -1.1701    0.2538 O   0  0  0  0  0  0  0  0  0  0  0  0
    8.0168   -2.0204    0.1820 C   0  0  0  0  0  0  0  0  0  0  0  0
    8.0830   -2.8658   -0.9322 C   0  0  0  0  0  0  0  0  0  0  0  0
    9.1223   -3.7961   -1.0807 C   0  0  0  0  0  0  0  0  0  0  0  0
   10.0870   -3.8370   -0.0649 C   0  0  0  0  0  0  0  0  0  0  0  0
   10.0651   -2.9665    1.0133 C   0  0  0  0  0  0  0  0  0  0  0  0
    9.0410   -2.0252    1.1330 C   0  0  0  0  0  0  0  0  0  0  0  0
   11.1164   -3.1922    1.8451 N   0  0  0  0  0  0  0  0  0  0  0  0
   11.8068   -4.1876    1.3331 C   0  0  0  0  0  0  0  0  0  0  0  0
   12.9353   -4.7447    1.8470 N   0  0  0  0  0  0  0  0  0  0  0  0
   13.5193   -4.3890    3.0899 C   0  0  0  0  0  0  0  0  0  0  0  0
   14.1999   -5.3614    3.8366 C   0  0  0  0  0  0  0  0  0  0  0  0
   14.6462   -5.0948    5.1379 C   0  0  0  0  0  0  0  0  0  0  0  0
   14.4278   -3.8454    5.7148 C   0  0  0  0  0  0  0  0  0  0  0  0
   13.7828   -2.8409    4.9862 C   0  0  0  0  0  0  0  0  0  0  0  0
   13.5385   -1.4735    5.5715 C   0  0  0  0  0  0  0  0  0  0  0  0
   13.9726   -1.3518    6.8599 F   0  0  0  0  0  0  0  0  0  0  0  0
   14.1712   -0.4855    4.8785 F   0  0  0  0  0  0  0  0  0  0  0  0
   12.2207   -1.1305    5.5962 F   0  0  0  0  0  0  0  0  0  0  0  0
   13.3424   -3.1281    3.6820 C   0  0  0  0  0  0  0  0  0  0  0  0
   11.1864   -4.6355    0.1793 N   0  0  0  0  0  0  0  0  0  0  0  0
   11.5240   -5.7724   -0.6408 C   0  0  0  0  0  0  0  0  0  0  0  0
    6.5471   -1.6828    2.5514 N   0  0  0  0  0  0  0  0  0  0  0  0
    6.1895   -1.2500    3.7754 C   0  0  0  0  0  0  0  0  0  0  0  0
    5.7313   -0.0345    4.1218 N   0  0  0  0  0  0  0  0  0  0  0  0
    5.6507    0.7862    3.0579 C   0  0  0  0  0  0  0  0  0  0  0  0
    4.4972    3.8546    3.8430 H   0  0  0  0  0  0  0  0  0  0  0  0
    5.5845    2.9029    4.8967 H   0  0  0  0  0  0  0  0  0  0  0  0
    3.9023    2.3459    4.5975 H   0  0  0  0  0  0  0  0  0  0  0  0
    5.9100    1.8466   -0.0238 H   0  0  0  0  0  0  0  0  0  0  0  0
    7.3062   -2.8175   -1.6923 H   0  0  0  0  0  0  0  0  0  0  0  0
    9.1594   -4.4627   -1.9357 H   0  0  0  0  0  0  0  0  0  0  0  0
    9.0507   -1.3589    1.9869 H   0  0  0  0  0  0  0  0  0  0  0  0
   13.3717   -5.5463    1.4120 H   0  0  0  0  0  0  0  0  0  0  0  0
   14.3596   -6.3571    3.4305 H   0  0  0  0  0  0  0  0  0  0  0  0
   15.1441   -5.8723    5.7127 H   0  0  0  0  0  0  0  0  0  0  0  0
   14.7544   -3.6589    6.7369 H   0  0  0  0  0  0  0  0  0  0  0  0
   12.8425   -2.3350    3.1276 H   0  0  0  0  0  0  0  0  0  0  0  0
   12.1756   -6.4607   -0.1012 H   0  0  0  0  0  0  0  0  0  0  0  0
   12.0109   -5.4065   -1.5478 H   0  0  0  0  0  0  0  0  0  0  0  0
   10.6012   -6.3003   -0.9009 H   0  0  0  0  0  0  0  0  0  0  0  0
    6.2946   -1.9715    4.5812 H   0  0  0  0  0  0  0  0  0  0  0  0
  1  2  1  0  0  0  0
  1 33  1  0  0  0  0
  1 34  1  0  0  0  0
  1 35  1  0  0  0  0
  2  3  1  0  0  0  0
  2 32  1  0  0  0  0
  3  4  2  0  0  0  0
  4  5  1  0  0  0  0
  4 36  1  0  0  0  0
  5  6  1  0  0  0  0
  5 32  2  0  0  0  0
  6  7  1  0  0  0  0
  6 29  2  0  0  0  0
  7  8  1  0  0  0  0
  8  9  1  0  0  0  0
  8 13  2  0  0  0  0
  9 10  2  0  0  0  0
  9 37  1  0  0  0  0
 10 11  1  0  0  0  0
 10 38  1  0  0  0  0
 11 12  2  0  0  0  0
 11 27  1  0  0  0  0
 12 13  1  0  0  0  0
 12 14  1  0  0  0  0
 13 39  1  0  0  0  0
 14 15  2  0  0  0  0
 15 16  1  0  0  0  0
 15 27  1  0  0  0  0
 16 17  1  0  0  0  0
 16 40  1  0  0  0  0
 17 18  1  0  0  0  0
 17 26  2  0  0  0  0
 18 19  2  0  0  0  0
 18 41  1  0  0  0  0
 19 20  1  0  0  0  0
 19 42  1  0  0  0  0
 20 21  2  0  0  0  0
 20 43  1  0  0  0  0
 21 22  1  0  0  0  0
 21 26  1  0  0  0  0
 22 23  1  0  0  0  0
 22 24  1  0  0  0  0
 22 25  1  0  0  0  0
 26 44  1  0  0  0  0
 27 28  1  0  0  0  0
 28 45  1  0  0  0  0
 28 46  1  0  0  0  0
 28 47  1  0  0  0  0
 29 30  1  0  0  0  0
 30 31  2  0  0  0  0
 30 48  1  0  0  0  0
 31 32  1  0  0  0  0
M  END
$$$$
