CHEMBL347999
 OpenBabel04072215363D

 48 53  0  0  0  0  0  0  0  0999 V2000
    0.9875   -0.1413   -0.0206 O   0  0  0  0  0  0  0  0  0  0  0  0
    2.1942   -0.0256    0.1672 C   0  0  0  0  0  0  0  0  0  0  0  0
    3.0427   -1.1198    0.2040 N   0  0  0  0  0  0  0  0  0  0  0  0
    4.4492   -0.8324    0.4027 C   0  0  0  0  0  0  0  0  0  0  0  0
    4.3898    0.6279    0.4307 C   0  0  0  0  0  0  0  0  0  0  0  0
    3.0699    1.1023    0.3290 C   0  0  0  0  0  0  0  0  0  0  0  0
    2.7933    2.4477    0.2198 C   0  0  0  0  0  0  0  0  0  0  0  0
    3.8306    3.3098   -0.1712 C   0  0  0  0  0  0  0  0  0  0  0  0
    5.1084    2.9317    0.1702 C   0  0  0  0  0  0  0  0  0  0  0  0
    5.3950    1.6247    0.4687 C   0  0  0  0  0  0  0  0  0  0  0  0
    6.7109    1.3510    0.7785 C   0  0  0  0  0  0  0  0  0  0  0  0
    7.4819    0.2169    1.1168 C   0  0  0  0  0  0  0  0  0  0  0  0
    8.8325    0.3593    1.4571 C   0  0  0  0  0  0  0  0  0  0  0  0
    9.4027    1.6184    1.4582 C   0  0  0  0  0  0  0  0  0  0  0  0
    8.6664    2.7663    1.1141 C   0  0  0  0  0  0  0  0  0  0  0  0
    7.3045    2.6253    0.7678 C   0  0  0  0  0  0  0  0  0  0  0  0
    6.3123    3.5803    0.4129 N   0  0  0  0  0  0  0  0  0  0  0  0
    6.5278    5.0194    0.5073 C   0  0  0  0  0  0  0  0  0  0  0  0
    5.5753    5.8039    1.4196 C   0  0  0  0  0  0  0  0  0  0  0  0
    5.5456    5.3485    2.8725 C   0  0  0  0  0  0  0  0  0  0  0  0
    6.8196    5.5289    3.4735 O   0  0  0  0  0  0  0  0  0  0  0  0
    3.2536    4.3478   -1.1134 C   0  0  0  0  0  0  0  0  0  0  0  0
    1.7480    4.1338   -0.9302 C   0  0  0  0  0  0  0  0  0  0  0  0
    0.6525    4.7795   -1.4764 C   0  0  0  0  0  0  0  0  0  0  0  0
   -0.6242    4.4497   -0.9872 C   0  0  0  0  0  0  0  0  0  0  0  0
   -0.7927    3.5112    0.0431 C   0  0  0  0  0  0  0  0  0  0  0  0
    0.3040    2.8044    0.5183 C   0  0  0  0  0  0  0  0  0  0  0  0
    1.5447    3.0745   -0.0356 C   0  0  0  0  0  0  0  0  0  0  0  0
    2.6725   -2.0316   -0.0232 H   0  0  0  0  0  0  0  0  0  0  0  0
    5.0214   -1.2132   -0.4455 H   0  0  0  0  0  0  0  0  0  0  0  0
    4.7630   -1.2642    1.3517 H   0  0  0  0  0  0  0  0  0  0  0  0
    7.0469   -0.7745    1.1422 H   0  0  0  0  0  0  0  0  0  0  0  0
    9.4047   -0.5206    1.7222 H   0  0  0  0  0  0  0  0  0  0  0  0
   10.4502    1.7158    1.7380 H   0  0  0  0  0  0  0  0  0  0  0  0
    9.1610    3.7324    1.1268 H   0  0  0  0  0  0  0  0  0  0  0  0
    6.4817    5.4101   -0.5163 H   0  0  0  0  0  0  0  0  0  0  0  0
    7.5501    5.1912    0.8590 H   0  0  0  0  0  0  0  0  0  0  0  0
    4.5575    5.7827    1.0269 H   0  0  0  0  0  0  0  0  0  0  0  0
    5.8969    6.8534    1.3963 H   0  0  0  0  0  0  0  0  0  0  0  0
    5.2326    4.3056    2.9816 H   0  0  0  0  0  0  0  0  0  0  0  0
    4.8298    5.9650    3.4285 H   0  0  0  0  0  0  0  0  0  0  0  0
    7.3273    4.7117    3.3269 H   0  0  0  0  0  0  0  0  0  0  0  0
    3.5298    4.0760   -2.1398 H   0  0  0  0  0  0  0  0  0  0  0  0
    3.5598    5.3657   -0.8820 H   0  0  0  0  0  0  0  0  0  0  0  0
    0.7566    5.5157   -2.2650 H   0  0  0  0  0  0  0  0  0  0  0  0
   -1.5087    4.9323   -1.3987 H   0  0  0  0  0  0  0  0  0  0  0  0
   -1.7769    3.3088    0.4568 H   0  0  0  0  0  0  0  0  0  0  0  0
    0.1909    2.0617    1.3033 H   0  0  0  0  0  0  0  0  0  0  0  0
  1  2  2  0  0  0  0
  2  3  1  0  0  0  0
  2  6  1  0  0  0  0
  3  4  1  0  0  0  0
  3 29  1  0  0  0  0
  4  5  1  0  0  0  0
  4 30  1  0  0  0  0
  4 31  1  0  0  0  0
  5  6  1  0  0  0  0
  5 10  2  0  0  0  0
  6  7  2  0  0  0  0
  7  8  1  0  0  0  0
  7 28  1  0  0  0  0
  8  9  2  0  0  0  0
  8 22  1  0  0  0  0
  9 10  1  0  0  0  0
  9 17  1  0  0  0  0
 10 11  1  0  0  0  0
 11 12  1  0  0  0  0
 11 16  2  0  0  0  0
 12 13  2  0  0  0  0
 12 32  1  0  0  0  0
 13 14  1  0  0  0  0
 13 33  1  0  0  0  0
 14 15  2  0  0  0  0
 14 34  1  0  0  0  0
 15 16  1  0  0  0  0
 15 35  1  0  0  0  0
 16 17  1  0  0  0  0
 17 18  1  0  0  0  0
 18 19  1  0  0  0  0
 18 36  1  0  0  0  0
 18 37  1  0  0  0  0
 19 20  1  0  0  0  0
 19 38  1  0  0  0  0
 19 39  1  0  0  0  0
 20 21  1  0  0  0  0
 20 40  1  0  0  0  0
 20 41  1  0  0  0  0
 21 42  1  0  0  0  0
 22 23  1  0  0  0  0
 22 43  1  0  0  0  0
 22 44  1  0  0  0  0
 23 24  1  0  0  0  0
 23 28  2  0  0  0  0
 24 25  2  0  0  0  0
 24 45  1  0  0  0  0
 25 26  1  0  0  0  0
 25 46  1  0  0  0  0
 26 27  2  0  0  0  0
 26 47  1  0  0  0  0
 27 28  1  0  0  0  0
 27 48  1  0  0  0  0
M  END
$$$$
