CHEMBL3321905
 OpenBabel04072215363D

 41 45  0  0  0  0  0  0  0  0999 V2000
   -1.6038   -0.2257   -0.1387 Br  0  0  0  0  0  0  0  0  0  0  0  0
    0.2844   -0.1578   -0.0941 C   0  0  0  0  0  0  0  0  0  0  0  0
    1.0056   -0.2082   -1.2839 C   0  0  0  0  0  0  0  0  0  0  0  0
    2.4028   -0.1653   -1.2539 C   0  0  0  0  0  0  0  0  0  0  0  0
    3.0854   -0.0728   -0.0328 C   0  0  0  0  0  0  0  0  0  0  0  0
    4.5450   -0.0321    0.0330 C   0  0  0  0  0  0  0  0  0  0  0  0
    5.2614    0.5458    0.9785 N   0  0  0  0  0  0  0  0  0  0  0  0
    6.5733    0.3240    0.6488 C   0  0  0  0  0  0  0  0  0  0  0  0
    7.7361    0.7246    1.3093 C   0  0  0  0  0  0  0  0  0  0  0  0
    8.9695    0.3414    0.7683 C   0  0  0  0  0  0  0  0  0  0  0  0
    9.0717   -0.4043   -0.4212 C   0  0  0  0  0  0  0  0  0  0  0  0
   10.3333   -0.8412   -0.8946 N   0  0  0  0  0  0  0  0  0  0  0  0
   11.5644   -0.1704   -0.6810 C   0  0  0  0  0  0  0  0  0  0  0  0
   11.5407    1.1727   -0.5862 N   0  0  0  0  0  0  0  0  0  0  0  0
   12.6961    1.7798   -0.3177 C   0  0  0  0  0  0  0  0  0  0  0  0
   13.8728    1.1791   -0.1271 N   0  0  0  0  0  0  0  0  0  0  0  0
   13.8906   -0.1522   -0.2355 C   0  0  0  0  0  0  0  0  0  0  0  0
   15.0887   -0.8135   -0.0020 C   0  0  0  0  0  0  0  0  0  0  0  0
   15.1960   -2.2033   -0.0919 C   0  0  0  0  0  0  0  0  0  0  0  0
   14.0823   -2.9592   -0.4320 C   0  0  0  0  0  0  0  0  0  0  0  0
   12.8633   -2.3208   -0.6568 C   0  0  0  0  0  0  0  0  0  0  0  0
   12.7535   -0.9104   -0.5512 C   0  0  0  0  0  0  0  0  0  0  0  0
    7.8985   -0.8295   -1.0685 C   0  0  0  0  0  0  0  0  0  0  0  0
    6.6766   -0.4299   -0.5117 C   0  0  0  0  0  0  0  0  0  0  0  0
    5.3743   -0.6412   -0.8828 N   0  0  0  0  0  0  0  0  0  0  0  0
    2.3420   -0.0054    1.1547 C   0  0  0  0  0  0  0  0  0  0  0  0
    0.9431   -0.0533    1.1264 C   0  0  0  0  0  0  0  0  0  0  0  0
    0.4922   -0.2728   -2.2403 H   0  0  0  0  0  0  0  0  0  0  0  0
    2.9421   -0.1775   -2.1969 H   0  0  0  0  0  0  0  0  0  0  0  0
    7.6815    1.3076    2.2211 H   0  0  0  0  0  0  0  0  0  0  0  0
    9.8678    0.6364    1.3058 H   0  0  0  0  0  0  0  0  0  0  0  0
   10.3101   -1.2354   -1.8272 H   0  0  0  0  0  0  0  0  0  0  0  0
   12.6729    2.8608   -0.2393 H   0  0  0  0  0  0  0  0  0  0  0  0
   15.9639   -0.2284    0.2731 H   0  0  0  0  0  0  0  0  0  0  0  0
   16.1487   -2.6858    0.1113 H   0  0  0  0  0  0  0  0  0  0  0  0
   14.1586   -4.0413   -0.5046 H   0  0  0  0  0  0  0  0  0  0  0  0
   11.9912   -2.9251   -0.8947 H   0  0  0  0  0  0  0  0  0  0  0  0
    7.9320   -1.4361   -1.9659 H   0  0  0  0  0  0  0  0  0  0  0  0
    5.0685   -1.1778   -1.6790 H   0  0  0  0  0  0  0  0  0  0  0  0
    2.8551    0.0826    2.1115 H   0  0  0  0  0  0  0  0  0  0  0  0
    0.3906   -0.0077    2.0601 H   0  0  0  0  0  0  0  0  0  0  0  0
  1  2  1  0  0  0  0
  2  3  1  0  0  0  0
  2 27  2  0  0  0  0
  3  4  2  0  0  0  0
  3 28  1  0  0  0  0
  4  5  1  0  0  0  0
  4 29  1  0  0  0  0
  5  6  1  0  0  0  0
  5 26  2  0  0  0  0
  6  7  2  0  0  0  0
  6 25  1  0  0  0  0
  7  8  1  0  0  0  0
  8  9  1  0  0  0  0
  8 24  2  0  0  0  0
  9 10  2  0  0  0  0
  9 30  1  0  0  0  0
 10 11  1  0  0  0  0
 10 31  1  0  0  0  0
 11 12  1  0  0  0  0
 11 23  2  0  0  0  0
 12 13  1  0  0  0  0
 12 32  1  0  0  0  0
 13 14  1  0  0  0  0
 13 22  2  0  0  0  0
 14 15  2  0  0  0  0
 15 16  1  0  0  0  0
 15 33  1  0  0  0  0
 16 17  2  0  0  0  0
 17 18  1  0  0  0  0
 17 22  1  0  0  0  0
 18 19  2  0  0  0  0
 18 34  1  0  0  0  0
 19 20  1  0  0  0  0
 19 35  1  0  0  0  0
 20 21  2  0  0  0  0
 20 36  1  0  0  0  0
 21 22  1  0  0  0  0
 21 37  1  0  0  0  0
 23 24  1  0  0  0  0
 23 38  1  0  0  0  0
 24 25  1  0  0  0  0
 25 39  1  0  0  0  0
 26 27  1  0  0  0  0
 26 40  1  0  0  0  0
 27 41  1  0  0  0  0
M  END
$$$$
