CHEMBL502543
 OpenBabel04072215383D

 36 39  0  0  0  0  0  0  0  0999 V2000
    3.8049    1.4385    2.0075 N   0  0  0  0  0  0  0  0  0  0  0  0
    2.6904    1.5385    1.1769 C   0  0  0  0  0  0  0  0  0  0  0  0
    1.7607    2.5347    1.3734 C   0  0  0  0  0  0  0  0  0  0  0  0
    0.6831    2.5483    0.5129 C   0  0  0  0  0  0  0  0  0  0  0  0
   -0.3308    3.6098    0.6180 C   0  0  0  0  0  0  0  0  0  0  0  0
   -1.3782    3.7136   -0.2131 C   0  0  0  0  0  0  0  0  0  0  0  0
   -2.2805    4.7926   -0.0839 C   0  0  0  0  0  0  0  0  0  0  0  0
   -3.4502    5.0566    0.6307 C   0  0  0  0  0  0  0  0  0  0  0  0
   -4.1648    4.1433    1.5105 C   0  0  0  0  0  0  0  0  0  0  0  0
   -4.8675    4.6529    2.6113 C   0  0  0  0  0  0  0  0  0  0  0  0
   -5.6442    3.8111    3.4121 C   0  0  0  0  0  0  0  0  0  0  0  0
   -5.7293    2.4518    3.1173 C   0  0  0  0  0  0  0  0  0  0  0  0
   -5.0233    1.9304    2.0355 C   0  0  0  0  0  0  0  0  0  0  0  0
   -4.2434    2.7711    1.2376 C   0  0  0  0  0  0  0  0  0  0  0  0
   -3.9220    6.3407    0.3793 N   0  0  0  0  0  0  0  0  0  0  0  0
   -3.0883    6.7983   -0.5096 C   0  0  0  0  0  0  0  0  0  0  0  0
   -2.9556    8.2744   -1.4150 S   0  0  0  0  0  0  0  0  0  0  0  0
   -1.5096    7.6211   -2.2023 C   0  0  0  0  0  0  0  0  0  0  0  0
   -1.1956    6.3856   -1.7777 C   0  0  0  0  0  0  0  0  0  0  0  0
   -2.0903    5.9289   -0.8315 N   0  0  0  0  0  0  0  0  0  0  0  0
    0.5220    1.6335   -0.4614 N   0  0  0  0  0  0  0  0  0  0  0  0
    1.4714    0.6930   -0.5407 C   0  0  0  0  0  0  0  0  0  0  0  0
    2.5621    0.6024    0.2321 N   0  0  0  0  0  0  0  0  0  0  0  0
    4.3205    2.3082    2.0717 H   0  0  0  0  0  0  0  0  0  0  0  0
    4.3830    0.6788    1.6553 H   0  0  0  0  0  0  0  0  0  0  0  0
    1.8797    3.2630    2.1639 H   0  0  0  0  0  0  0  0  0  0  0  0
   -0.1820    4.3402    1.4079 H   0  0  0  0  0  0  0  0  0  0  0  0
   -1.5458    2.9906   -1.0109 H   0  0  0  0  0  0  0  0  0  0  0  0
   -4.8280    5.7170    2.8374 H   0  0  0  0  0  0  0  0  0  0  0  0
   -6.1969    4.2217    4.2529 H   0  0  0  0  0  0  0  0  0  0  0  0
   -6.3547    1.8010    3.7224 H   0  0  0  0  0  0  0  0  0  0  0  0
   -5.0940    0.8724    1.7971 H   0  0  0  0  0  0  0  0  0  0  0  0
   -3.7321    2.3422    0.3808 H   0  0  0  0  0  0  0  0  0  0  0  0
   -0.9636    8.1890   -2.9443 H   0  0  0  0  0  0  0  0  0  0  0  0
   -0.3683    5.7708   -2.0996 H   0  0  0  0  0  0  0  0  0  0  0  0
    1.3470   -0.0660   -1.3052 H   0  0  0  0  0  0  0  0  0  0  0  0
  1  2  1  0  0  0  0
  1 24  1  0  0  0  0
  1 25  1  0  0  0  0
  2  3  1  0  0  0  0
  2 23  2  0  0  0  0
  3  4  2  0  0  0  0
  3 26  1  0  0  0  0
  4  5  1  0  0  0  0
  4 21  1  0  0  0  0
  5  6  2  0  0  0  0
  5 27  1  0  0  0  0
  6  7  1  0  0  0  0
  6 28  1  0  0  0  0
  7  8  2  0  0  0  0
  7 20  1  0  0  0  0
  8  9  1  0  0  0  0
  8 15  1  0  0  0  0
  9 10  1  0  0  0  0
  9 14  2  0  0  0  0
 10 11  2  0  0  0  0
 10 29  1  0  0  0  0
 11 12  1  0  0  0  0
 11 30  1  0  0  0  0
 12 13  2  0  0  0  0
 12 31  1  0  0  0  0
 13 14  1  0  0  0  0
 13 32  1  0  0  0  0
 14 33  1  0  0  0  0
 15 16  2  0  0  0  0
 16 17  1  0  0  0  0
 16 20  1  0  0  0  0
 17 18  1  0  0  0  0
 18 19  2  0  0  0  0
 18 34  1  0  0  0  0
 19 20  1  0  0  0  0
 19 35  1  0  0  0  0
 21 22  2  0  0  0  0
 22 23  1  0  0  0  0
 22 36  1  0  0  0  0
M  END
$$$$
