CHEMBL1982466
 OpenBabel04072215363D

 55 59  0  0  0  0  0  0  0  0999 V2000
    2.0714   -0.2751    2.3555 C   0  0  0  0  0  0  0  0  0  0  0  0
    0.6558   -0.1378    1.8826 C   0  0  0  0  0  0  0  0  0  0  0  0
    0.0448    1.1131    1.8685 C   0  0  0  0  0  0  0  0  0  0  0  0
   -1.2720    1.2513    1.4295 C   0  0  0  0  0  0  0  0  0  0  0  0
   -2.0083    0.1529    0.9770 C   0  0  0  0  0  0  0  0  0  0  0  0
   -3.3439    0.2570    0.5094 N   0  0  0  0  0  0  0  0  0  0  0  0
   -4.0212    1.4439    0.2992 C   0  0  0  0  0  0  0  0  0  0  0  0
   -3.5283    2.5614    0.4137 O   0  0  0  0  0  0  0  0  0  0  0  0
   -5.3596    1.2426   -0.0260 N   0  0  0  0  0  0  0  0  0  0  0  0
   -6.1927    2.3620   -0.2717 C   0  0  0  0  0  0  0  0  0  0  0  0
   -5.7284    3.4545   -1.0059 C   0  0  0  0  0  0  0  0  0  0  0  0
   -6.4640    4.6375   -1.0566 C   0  0  0  0  0  0  0  0  0  0  0  0
   -7.7075    4.7401   -0.4162 C   0  0  0  0  0  0  0  0  0  0  0  0
   -8.4163    6.0314   -0.3960 C   0  0  0  0  0  0  0  0  0  0  0  0
   -8.3743    6.8170   -1.5299 C   0  0  0  0  0  0  0  0  0  0  0  0
   -9.1378    8.3079   -1.3437 S   0  0  0  0  0  0  0  0  0  0  0  0
   -9.6715    7.9423    0.2579 C   0  0  0  0  0  0  0  0  0  0  0  0
  -10.4674    8.7546    1.1025 C   0  0  0  0  0  0  0  0  0  0  0  0
  -11.0218   10.0291    0.6884 C   0  0  0  0  0  0  0  0  0  0  0  0
  -11.5120   10.4899   -0.5562 C   0  0  0  0  0  0  0  0  0  0  0  0
  -11.9821   11.7397   -0.5037 N   0  0  0  0  0  0  0  0  0  0  0  0
  -11.8050   12.0881    0.7795 N   0  0  0  0  0  0  0  0  0  0  0  0
  -12.2279   13.3883    1.2397 C   0  0  0  0  0  0  0  0  0  0  0  0
  -11.2404   11.1011    1.5374 C   0  0  0  0  0  0  0  0  0  0  0  0
  -10.6982    8.2378    2.3634 C   0  0  0  0  0  0  0  0  0  0  0  0
  -10.2219    7.0693    2.8233 N   0  0  0  0  0  0  0  0  0  0  0  0
   -9.4628    6.2951    2.0236 C   0  0  0  0  0  0  0  0  0  0  0  0
   -9.0053    5.1405    2.6483 N   0  0  0  0  0  0  0  0  0  0  0  0
   -9.1731    6.6872    0.6849 C   0  0  0  0  0  0  0  0  0  0  0  0
   -8.2259    3.5915    0.1952 C   0  0  0  0  0  0  0  0  0  0  0  0
   -7.4681    2.4124    0.2858 C   0  0  0  0  0  0  0  0  0  0  0  0
   -1.4005   -1.1055    1.0005 C   0  0  0  0  0  0  0  0  0  0  0  0
   -0.0781   -1.2490    1.4507 C   0  0  0  0  0  0  0  0  0  0  0  0
    2.4853    0.6951    2.6549 H   0  0  0  0  0  0  0  0  0  0  0  0
    2.7026   -0.6712    1.5546 H   0  0  0  0  0  0  0  0  0  0  0  0
    2.1186   -0.9378    3.2243 H   0  0  0  0  0  0  0  0  0  0  0  0
    0.5803    2.0013    2.1969 H   0  0  0  0  0  0  0  0  0  0  0  0
   -1.6833    2.2543    1.4610 H   0  0  0  0  0  0  0  0  0  0  0  0
   -3.7810   -0.5854    0.1653 H   0  0  0  0  0  0  0  0  0  0  0  0
   -5.7894    0.4478    0.4239 H   0  0  0  0  0  0  0  0  0  0  0  0
   -4.7604    3.4213   -1.5018 H   0  0  0  0  0  0  0  0  0  0  0  0
   -6.0196    5.4837   -1.5756 H   0  0  0  0  0  0  0  0  0  0  0  0
   -7.9004    6.5987   -2.4765 H   0  0  0  0  0  0  0  0  0  0  0  0
  -11.5583    9.9683   -1.5021 H   0  0  0  0  0  0  0  0  0  0  0  0
  -12.5905   13.9765    0.3925 H   0  0  0  0  0  0  0  0  0  0  0  0
  -11.3724   13.8870    1.7008 H   0  0  0  0  0  0  0  0  0  0  0  0
  -13.0309   13.2487    1.9681 H   0  0  0  0  0  0  0  0  0  0  0  0
  -11.0503   11.2498    2.5914 H   0  0  0  0  0  0  0  0  0  0  0  0
  -11.3110    8.7730    3.0899 H   0  0  0  0  0  0  0  0  0  0  0  0
   -9.1968    5.2153    3.6429 H   0  0  0  0  0  0  0  0  0  0  0  0
   -8.0454    4.9155    2.4179 H   0  0  0  0  0  0  0  0  0  0  0  0
   -9.2101    3.6097    0.6585 H   0  0  0  0  0  0  0  0  0  0  0  0
   -7.8610    1.5807    0.8634 H   0  0  0  0  0  0  0  0  0  0  0  0
   -1.9355   -1.9908    0.6696 H   0  0  0  0  0  0  0  0  0  0  0  0
    0.3779   -2.2367    1.4596 H   0  0  0  0  0  0  0  0  0  0  0  0
  1  2  1  0  0  0  0
  1 34  1  0  0  0  0
  1 35  1  0  0  0  0
  1 36  1  0  0  0  0
  2  3  1  0  0  0  0
  2 33  2  0  0  0  0
  3  4  2  0  0  0  0
  3 37  1  0  0  0  0
  4  5  1  0  0  0  0
  4 38  1  0  0  0  0
  5  6  1  0  0  0  0
  5 32  2  0  0  0  0
  6  7  1  0  0  0  0
  6 39  1  0  0  0  0
  7  8  2  0  0  0  0
  7  9  1  0  0  0  0
  9 10  1  0  0  0  0
  9 40  1  0  0  0  0
 10 11  1  0  0  0  0
 10 31  2  0  0  0  0
 11 12  2  0  0  0  0
 11 41  1  0  0  0  0
 12 13  1  0  0  0  0
 12 42  1  0  0  0  0
 13 14  1  0  0  0  0
 13 30  2  0  0  0  0
 14 15  2  0  0  0  0
 14 29  1  0  0  0  0
 15 16  1  0  0  0  0
 15 43  1  0  0  0  0
 16 17  1  0  0  0  0
 17 18  1  0  0  0  0
 17 29  2  0  0  0  0
 18 19  1  0  0  0  0
 18 25  2  0  0  0  0
 19 20  1  0  0  0  0
 19 24  2  0  0  0  0
 20 21  2  0  0  0  0
 20 44  1  0  0  0  0
 21 22  1  0  0  0  0
 22 23  1  0  0  0  0
 22 24  1  0  0  0  0
 23 45  1  0  0  0  0
 23 46  1  0  0  0  0
 23 47  1  0  0  0  0
 24 48  1  0  0  0  0
 25 26  1  0  0  0  0
 25 49  1  0  0  0  0
 26 27  2  0  0  0  0
 27 28  1  0  0  0  0
 27 29  1  0  0  0  0
 28 50  1  0  0  0  0
 28 51  1  0  0  0  0
 30 31  1  0  0  0  0
 30 52  1  0  0  0  0
 31 53  1  0  0  0  0
 32 33  1  0  0  0  0
 32 54  1  0  0  0  0
 33 55  1  0  0  0  0
M  END
$$$$
