CHEMBL602703
 OpenBabel04072215383D

 60 64  0  0  1  0  0  0  0  0999 V2000
   -1.0412    3.9890   -0.5020 C   0  0  0  0  0  0  0  0  0  0  0  0
   -1.4918    2.7474    0.0715 N   0  0  0  0  0  0  0  0  0  0  0  0
   -1.1556    2.2422    1.2926 C   0  0  0  0  0  0  0  0  0  0  0  0
   -1.8116    1.1310    1.5470 N   0  0  0  0  0  0  0  0  0  0  0  0
   -2.5730    0.8956    0.4265 C   0  0  0  0  0  0  0  0  0  0  0  0
   -3.4862   -0.2697    0.2788 C   0  0  0  0  0  0  0  0  0  0  0  0
   -3.7718   -1.1479    1.2989 C   0  0  0  0  0  0  0  0  0  0  0  0
   -4.6661   -2.1806    0.8914 C   0  0  0  0  0  0  0  0  0  0  0  0
   -5.1392   -3.1689    1.6980 N   0  0  0  0  0  0  0  0  0  0  0  0
   -5.8997   -4.0985    1.0935 C   0  0  0  0  0  0  0  0  0  0  0  0
   -6.1976   -4.1324   -0.2545 C   0  0  0  0  0  0  0  0  0  0  0  0
   -5.7782   -3.0781   -1.0648 C   0  0  0  0  0  0  0  0  0  0  0  0
   -6.0178   -3.0092   -2.4191 O   0  0  0  0  0  0  0  0  0  0  0  0
   -7.2244   -3.4245   -2.9262 C   0  0  0  0  0  0  0  0  0  0  0  0
   -7.2159   -3.8599   -4.2499 C   0  0  0  0  0  0  0  0  0  0  0  0
   -8.4097   -4.2560   -4.8681 C   0  0  0  0  0  0  0  0  0  0  0  0
   -9.6274   -4.2336   -4.1755 C   0  0  0  0  0  0  0  0  0  0  0  0
  -10.8021   -4.4930   -4.8514 N   0  0  0  0  0  0  0  0  0  0  0  0
  -12.1302   -4.0003   -4.3985 C   0  0  3  0  0  0  0  0  0  0  0  0
  -12.3279   -2.5650   -4.9238 C   0  0  0  0  0  0  0  0  0  0  0  0
  -13.5603   -1.9505   -4.3018 C   0  0  0  0  0  0  0  0  0  0  0  0
  -14.0312   -2.4092   -3.2647 O   0  0  0  0  0  0  0  0  0  0  0  0
  -14.0778   -0.8840   -5.0214 N   0  0  0  0  0  0  0  0  0  0  0  0
  -15.3119   -0.3022   -4.6621 C   0  0  0  0  0  0  0  0  0  0  0  0
  -15.6327   -0.0229   -3.3309 C   0  0  0  0  0  0  0  0  0  0  0  0
  -16.9188    0.3998   -2.9911 C   0  0  0  0  0  0  0  0  0  0  0  0
  -17.8848    0.5430   -3.9817 C   0  0  0  0  0  0  0  0  0  0  0  0
  -17.5449    0.3238   -5.3163 C   0  0  0  0  0  0  0  0  0  0  0  0
  -16.2608   -0.0800   -5.6666 C   0  0  0  0  0  0  0  0  0  0  0  0
  -13.2910   -4.9396   -4.8178 C   0  0  0  0  0  0  0  0  0  0  0  0
  -12.8125   -6.0229   -5.4855 F   0  0  0  0  0  0  0  0  0  0  0  0
  -13.9681   -5.4082   -3.7470 F   0  0  0  0  0  0  0  0  0  0  0  0
  -14.1723   -4.3385   -5.6483 F   0  0  0  0  0  0  0  0  0  0  0  0
   -9.6088   -3.8204   -2.8439 C   0  0  0  0  0  0  0  0  0  0  0  0
   -8.4384   -3.3751   -2.2471 C   0  0  0  0  0  0  0  0  0  0  0  0
   -8.5308   -2.9042   -0.9965 F   0  0  0  0  0  0  0  0  0  0  0  0
   -4.9867   -2.0882   -0.4624 C   0  0  0  0  0  0  0  0  0  0  0  0
   -4.2990   -0.6766   -1.1615 S   0  0  0  0  0  0  0  0  0  0  0  0
   -2.3747    1.8850   -0.5111 C   0  0  0  0  0  0  0  0  0  0  0  0
   -0.2609    4.4248    0.1257 H   0  0  0  0  0  0  0  0  0  0  0  0
   -1.8991    4.6651   -0.5585 H   0  0  0  0  0  0  0  0  0  0  0  0
   -0.6503    3.7886   -1.5026 H   0  0  0  0  0  0  0  0  0  0  0  0
   -0.4439    2.7167    1.9570 H   0  0  0  0  0  0  0  0  0  0  0  0
   -3.3636   -1.0625    2.2981 H   0  0  0  0  0  0  0  0  0  0  0  0
   -6.2875   -4.8698    1.7549 H   0  0  0  0  0  0  0  0  0  0  0  0
   -6.7868   -4.9524   -0.6488 H   0  0  0  0  0  0  0  0  0  0  0  0
   -6.2869   -3.8688   -4.8151 H   0  0  0  0  0  0  0  0  0  0  0  0
   -8.3812   -4.5553   -5.9139 H   0  0  0  0  0  0  0  0  0  0  0  0
  -10.7712   -5.0481   -5.7033 H   0  0  0  0  0  0  0  0  0  0  0  0
  -12.1595   -3.9869   -3.3057 H   0  0  0  0  0  0  0  0  0  0  0  0
  -12.3991   -2.5597   -6.0173 H   0  0  0  0  0  0  0  0  0  0  0  0
  -11.4787   -1.9286   -4.6435 H   0  0  0  0  0  0  0  0  0  0  0  0
  -13.8230   -0.8268   -5.9994 H   0  0  0  0  0  0  0  0  0  0  0  0
  -14.8925   -0.1465   -2.5448 H   0  0  0  0  0  0  0  0  0  0  0  0
  -17.1663    0.5871   -1.9495 H   0  0  0  0  0  0  0  0  0  0  0  0
  -18.9031    0.8105   -3.7102 H   0  0  0  0  0  0  0  0  0  0  0  0
  -18.3109    0.4231   -6.0872 H   0  0  0  0  0  0  0  0  0  0  0  0
  -16.0321   -0.2717   -6.7094 H   0  0  0  0  0  0  0  0  0  0  0  0
  -10.4918   -3.8297   -2.2177 H   0  0  0  0  0  0  0  0  0  0  0  0
   -2.7953    2.0562   -1.4913 H   0  0  0  0  0  0  0  0  0  0  0  0
  1  2  1  0  0  0  0
  1 40  1  0  0  0  0
  1 41  1  0  0  0  0
  1 42  1  0  0  0  0
  2  3  1  0  0  0  0
  2 39  1  0  0  0  0
  3  4  2  0  0  0  0
  3 43  1  0  0  0  0
  4  5  1  0  0  0  0
  5  6  1  0  0  0  0
  5 39  2  0  0  0  0
  6  7  2  0  0  0  0
  6 38  1  0  0  0  0
  7  8  1  0  0  0  0
  7 44  1  0  0  0  0
  8  9  1  0  0  0  0
  8 37  2  0  0  0  0
  9 10  2  0  0  0  0
 10 11  1  0  0  0  0
 10 45  1  0  0  0  0
 11 12  2  0  0  0  0
 11 46  1  0  0  0  0
 12 13  1  0  0  0  0
 12 37  1  0  0  0  0
 13 14  1  0  0  0  0
 14 15  1  0  0  0  0
 14 35  2  0  0  0  0
 15 16  2  0  0  0  0
 15 47  1  0  0  0  0
 16 17  1  0  0  0  0
 16 48  1  0  0  0  0
 17 18  1  0  0  0  0
 17 34  2  0  0  0  0
 18 19  1  0  0  0  0
 18 49  1  0  0  0  0
 19 20  1  0  0  0  0
 19 30  1  0  0  0  0
 19 50  1  0  0  0  0
 20 21  1  0  0  0  0
 20 51  1  0  0  0  0
 20 52  1  0  0  0  0
 21 22  2  0  0  0  0
 21 23  1  0  0  0  0
 23 24  1  0  0  0  0
 23 53  1  0  0  0  0
 24 25  1  0  0  0  0
 24 29  2  0  0  0  0
 25 26  2  0  0  0  0
 25 54  1  0  0  0  0
 26 27  1  0  0  0  0
 26 55  1  0  0  0  0
 27 28  2  0  0  0  0
 27 56  1  0  0  0  0
 28 29  1  0  0  0  0
 28 57  1  0  0  0  0
 29 58  1  0  0  0  0
 30 31  1  0  0  0  0
 30 32  1  0  0  0  0
 30 33  1  0  0  0  0
 34 35  1  0  0  0  0
 34 59  1  0  0  0  0
 35 36  1  0  0  0  0
 37 38  1  0  0  0  0
 39 60  1  0  0  0  0
M  END
$$$$
