CHEMBL475708
 OpenBabel04072215383D

 48 50  0  0  0  0  0  0  0  0999 V2000
    3.1500    1.4240    0.1195 C   0  0  0  0  0  0  0  0  0  0  0  0
    2.4715    0.0524   -0.1236 C   0  0  0  0  0  0  0  0  0  0  0  0
    0.9437    0.2544   -0.0820 C   0  0  0  0  0  0  0  0  0  0  0  0
    2.8705   -0.3779   -1.5519 C   0  0  0  0  0  0  0  0  0  0  0  0
    2.8504   -0.9860    0.9487 C   0  0  0  0  0  0  0  0  0  0  0  0
    3.1841   -0.5796    2.2488 C   0  0  0  0  0  0  0  0  0  0  0  0
    3.4741   -1.5008    3.2614 C   0  0  0  0  0  0  0  0  0  0  0  0
    3.4274   -2.8692    3.0230 C   0  0  0  0  0  0  0  0  0  0  0  0
    3.6696   -3.8346    4.0228 N   0  0  0  0  0  0  0  0  0  0  0  0
    3.9443   -3.6031    5.3669 C   0  0  0  0  0  0  0  0  0  0  0  0
    4.0260   -2.5023    5.9030 O   0  0  0  0  0  0  0  0  0  0  0  0
    4.1436   -4.8395    6.1520 C   0  0  0  0  0  0  0  0  0  0  0  0
    4.0640   -6.0341    5.5422 N   0  0  0  0  0  0  0  0  0  0  0  0
    4.3658   -7.2283    6.6477 S   0  0  0  0  0  0  0  0  0  0  0  0
    4.6287   -6.1936    7.9783 C   0  0  0  0  0  0  0  0  0  0  0  0
    4.4642   -4.8881    7.5692 C   0  0  0  0  0  0  0  0  0  0  0  0
    4.5663   -3.8001    8.3862 N   0  0  0  0  0  0  0  0  0  0  0  0
    5.4627   -3.7487    9.5320 C   0  0  0  0  0  0  0  0  0  0  0  0
    5.9853   -2.3553    9.8134 C   0  0  0  0  0  0  0  0  0  0  0  0
    6.2870   -1.9847   11.1310 C   0  0  0  0  0  0  0  0  0  0  0  0
    6.8231   -0.7277   11.3740 C   0  0  0  0  0  0  0  0  0  0  0  0
    7.0840    0.1754   10.4078 N   0  0  0  0  0  0  0  0  0  0  0  0
    6.8065   -0.2004    9.1416 C   0  0  0  0  0  0  0  0  0  0  0  0
    6.2794   -1.4376    8.7980 C   0  0  0  0  0  0  0  0  0  0  0  0
    3.1056   -3.2996    1.7332 C   0  0  0  0  0  0  0  0  0  0  0  0
    2.8141   -2.3717    0.7140 C   0  0  0  0  0  0  0  0  0  0  0  0
    2.9266    2.1290   -0.6892 H   0  0  0  0  0  0  0  0  0  0  0  0
    4.2400    1.3195    0.1799 H   0  0  0  0  0  0  0  0  0  0  0  0
    2.8046    1.9017    1.0430 H   0  0  0  0  0  0  0  0  0  0  0  0
    0.6221    0.9943   -0.8244 H   0  0  0  0  0  0  0  0  0  0  0  0
    0.6125    0.6087    0.9014 H   0  0  0  0  0  0  0  0  0  0  0  0
    0.4092   -0.6793   -0.2922 H   0  0  0  0  0  0  0  0  0  0  0  0
    2.5872    0.3905   -2.2827 H   0  0  0  0  0  0  0  0  0  0  0  0
    2.3752   -1.3012   -1.8674 H   0  0  0  0  0  0  0  0  0  0  0  0
    3.9531   -0.5273   -1.6332 H   0  0  0  0  0  0  0  0  0  0  0  0
    3.2141    0.4689    2.5276 H   0  0  0  0  0  0  0  0  0  0  0  0
    3.7254   -1.0919    4.2327 H   0  0  0  0  0  0  0  0  0  0  0  0
    3.6273   -4.8140    3.7631 H   0  0  0  0  0  0  0  0  0  0  0  0
    4.8534   -6.5810    8.9602 H   0  0  0  0  0  0  0  0  0  0  0  0
    4.2702   -2.8885    8.0271 H   0  0  0  0  0  0  0  0  0  0  0  0
    6.3343   -4.3984    9.3833 H   0  0  0  0  0  0  0  0  0  0  0  0
    4.9135   -4.1143   10.4078 H   0  0  0  0  0  0  0  0  0  0  0  0
    6.1186   -2.6617   11.9622 H   0  0  0  0  0  0  0  0  0  0  0  0
    7.0699   -0.4091   12.3830 H   0  0  0  0  0  0  0  0  0  0  0  0
    7.0320    0.5406    8.3798 H   0  0  0  0  0  0  0  0  0  0  0  0
    6.1078   -1.6677    7.7507 H   0  0  0  0  0  0  0  0  0  0  0  0
    3.0564   -4.3604    1.4974 H   0  0  0  0  0  0  0  0  0  0  0  0
    2.5381   -2.7644   -0.2618 H   0  0  0  0  0  0  0  0  0  0  0  0
  1  2  1  0  0  0  0
  1 27  1  0  0  0  0
  1 28  1  0  0  0  0
  1 29  1  0  0  0  0
  2  3  1  0  0  0  0
  2  4  1  0  0  0  0
  2  5  1  0  0  0  0
  3 30  1  0  0  0  0
  3 31  1  0  0  0  0
  3 32  1  0  0  0  0
  4 33  1  0  0  0  0
  4 34  1  0  0  0  0
  4 35  1  0  0  0  0
  5  6  1  0  0  0  0
  5 26  2  0  0  0  0
  6  7  2  0  0  0  0
  6 36  1  0  0  0  0
  7  8  1  0  0  0  0
  7 37  1  0  0  0  0
  8  9  1  0  0  0  0
  8 25  2  0  0  0  0
  9 10  1  0  0  0  0
  9 38  1  0  0  0  0
 10 11  2  0  0  0  0
 10 12  1  0  0  0  0
 12 13  2  0  0  0  0
 12 16  1  0  0  0  0
 13 14  1  0  0  0  0
 14 15  1  0  0  0  0
 15 16  2  0  0  0  0
 15 39  1  0  0  0  0
 16 17  1  0  0  0  0
 17 18  1  0  0  0  0
 17 40  1  0  0  0  0
 18 19  1  0  0  0  0
 18 41  1  0  0  0  0
 18 42  1  0  0  0  0
 19 20  1  0  0  0  0
 19 24  2  0  0  0  0
 20 21  2  0  0  0  0
 20 43  1  0  0  0  0
 21 22  1  0  0  0  0
 21 44  1  0  0  0  0
 22 23  2  0  0  0  0
 23 24  1  0  0  0  0
 23 45  1  0  0  0  0
 24 46  1  0  0  0  0
 25 26  1  0  0  0  0
 25 47  1  0  0  0  0
 26 48  1  0  0  0  0
M  END
$$$$
