CHEMBL3753811
 OpenBabel04072215373D

 37 39  0  0  0  0  0  0  0  0999 V2000
    0.9324    0.0044   -0.0662 O   0  0  0  0  0  0  0  0  0  0  0  0
    2.1390   -0.2058    0.0074 C   0  0  0  0  0  0  0  0  0  0  0  0
    2.8058   -1.3314   -0.4095 N   0  0  0  0  0  0  0  0  0  0  0  0
    2.1595   -2.4146   -0.9224 C   0  0  0  0  0  0  0  0  0  0  0  0
    0.9304   -2.5321   -1.3564 N   0  0  0  0  0  0  0  0  0  0  0  0
    0.6982   -3.8366   -1.7310 C   0  0  0  0  0  0  0  0  0  0  0  0
    1.7674   -4.6980   -1.5854 C   0  0  0  0  0  0  0  0  0  0  0  0
    3.1164   -3.8311   -0.9789 S   0  0  0  0  0  0  0  0  0  0  0  0
    2.9135    0.7141    0.6856 N   0  0  0  0  0  0  0  0  0  0  0  0
    4.3097    0.7540    0.7921 C   0  0  0  0  0  0  0  0  0  0  0  0
    5.0649    0.7448   -0.3982 C   0  0  0  0  0  0  0  0  0  0  0  0
    6.4584    0.9426   -0.4075 C   0  0  0  0  0  0  0  0  0  0  0  0
    7.2079    1.0097   -1.6809 C   0  0  0  0  0  0  0  0  0  0  0  0
    6.6492    1.5688   -2.8414 C   0  0  0  0  0  0  0  0  0  0  0  0
    7.3561    1.5814   -4.0440 C   0  0  0  0  0  0  0  0  0  0  0  0
    8.6301    1.0469   -4.0584 C   0  0  0  0  0  0  0  0  0  0  0  0
    9.2262    0.5175   -2.9715 N   0  0  0  0  0  0  0  0  0  0  0  0
    8.5053    0.5109   -1.8217 C   0  0  0  0  0  0  0  0  0  0  0  0
    7.0840    1.1054    0.8364 C   0  0  0  0  0  0  0  0  0  0  0  0
    6.3448    1.0906    2.0274 C   0  0  0  0  0  0  0  0  0  0  0  0
    4.9577    0.9159    2.0163 C   0  0  0  0  0  0  0  0  0  0  0  0
    4.3858    0.9635    3.2522 O   0  0  0  0  0  0  0  0  0  0  0  0
    3.3347    0.0625    3.5840 C   0  0  0  0  0  0  0  0  0  0  0  0
    3.1145   -0.8924    2.6598 F   0  0  0  0  0  0  0  0  0  0  0  0
    3.6570   -0.5635    4.7378 F   0  0  0  0  0  0  0  0  0  0  0  0
    2.2045    0.7696    3.7831 F   0  0  0  0  0  0  0  0  0  0  0  0
    3.7385   -1.5016   -0.0711 H   0  0  0  0  0  0  0  0  0  0  0  0
   -0.2795   -4.1147   -2.1046 H   0  0  0  0  0  0  0  0  0  0  0  0
    1.8177   -5.7554   -1.8043 H   0  0  0  0  0  0  0  0  0  0  0  0
    2.3546    1.3068    1.2910 H   0  0  0  0  0  0  0  0  0  0  0  0
    4.5382    0.6485   -1.3460 H   0  0  0  0  0  0  0  0  0  0  0  0
    5.6551    2.0101   -2.8277 H   0  0  0  0  0  0  0  0  0  0  0  0
    6.9179    1.9992   -4.9438 H   0  0  0  0  0  0  0  0  0  0  0  0
    9.2213    1.0321   -4.9695 H   0  0  0  0  0  0  0  0  0  0  0  0
    9.0300    0.0561   -0.9855 H   0  0  0  0  0  0  0  0  0  0  0  0
    8.1580    1.2810    0.9029 H   0  0  0  0  0  0  0  0  0  0  0  0
    6.8661    1.2272    2.9744 H   0  0  0  0  0  0  0  0  0  0  0  0
  1  2  2  0  0  0  0
  2  3  1  0  0  0  0
  2  9  1  0  0  0  0
  3  4  1  0  0  0  0
  3 27  1  0  0  0  0
  4  5  2  0  0  0  0
  4  8  1  0  0  0  0
  5  6  1  0  0  0  0
  6  7  2  0  0  0  0
  6 28  1  0  0  0  0
  7  8  1  0  0  0  0
  7 29  1  0  0  0  0
  9 10  1  0  0  0  0
  9 30  1  0  0  0  0
 10 11  1  0  0  0  0
 10 21  2  0  0  0  0
 11 12  2  0  0  0  0
 11 31  1  0  0  0  0
 12 13  1  0  0  0  0
 12 19  1  0  0  0  0
 13 14  1  0  0  0  0
 13 18  2  0  0  0  0
 14 15  2  0  0  0  0
 14 32  1  0  0  0  0
 15 16  1  0  0  0  0
 15 33  1  0  0  0  0
 16 17  2  0  0  0  0
 16 34  1  0  0  0  0
 17 18  1  0  0  0  0
 18 35  1  0  0  0  0
 19 20  2  0  0  0  0
 19 36  1  0  0  0  0
 20 21  1  0  0  0  0
 20 37  1  0  0  0  0
 21 22  1  0  0  0  0
 22 23  1  0  0  0  0
 23 24  1  0  0  0  0
 23 25  1  0  0  0  0
 23 26  1  0  0  0  0
M  END
$$$$
