CHEMBL3747063
 OpenBabel04072215373D

 50 53  0  0  0  0  0  0  0  0999 V2000
    2.9561   -0.7741   -1.6524 C   0  0  0  0  0  0  0  0  0  0  0  0
    2.5537   -1.7874   -0.6809 N   0  0  0  0  0  0  0  0  0  0  0  0
    3.3490   -3.0150   -0.8335 C   0  0  0  0  0  0  0  0  0  0  0  0
    4.8232   -2.8293   -0.5386 C   0  0  0  0  0  0  0  0  0  0  0  0
    5.2179   -2.3465    0.6940 C   0  0  0  0  0  0  0  0  0  0  0  0
    6.5737   -2.2890    0.9285 C   0  0  0  0  0  0  0  0  0  0  0  0
    7.1152   -1.9108    2.1393 O   0  0  0  0  0  0  0  0  0  0  0  0
    6.4583   -2.2063    3.3154 C   0  0  0  0  0  0  0  0  0  0  0  0
    5.6843   -3.3480    3.5346 C   0  0  0  0  0  0  0  0  0  0  0  0
    4.9894   -3.5416    4.7389 C   0  0  0  0  0  0  0  0  0  0  0  0
    5.1482   -2.5874    5.7591 C   0  0  0  0  0  0  0  0  0  0  0  0
    5.9775   -1.4712    5.5782 C   0  0  0  0  0  0  0  0  0  0  0  0
    5.9273   -0.6961    6.7609 C   0  0  0  0  0  0  0  0  0  0  0  0
    5.0170   -1.2859    7.5950 C   0  0  0  0  0  0  0  0  0  0  0  0
    4.5263   -2.4410    7.0042 N   0  0  0  0  0  0  0  0  0  0  0  0
    3.4642   -3.1760    7.5630 C   0  0  0  0  0  0  0  0  0  0  0  0
    2.5059   -2.5472    7.9890 O   0  0  0  0  0  0  0  0  0  0  0  0
    3.7688   -4.5195    7.7280 N   0  0  0  0  0  0  0  0  0  0  0  0
    2.9368   -5.3982    8.4791 C   0  0  0  0  0  0  0  0  0  0  0  0
    1.5664   -5.1626    8.6466 C   0  0  0  0  0  0  0  0  0  0  0  0
    0.7826   -5.9904    9.4524 C   0  0  0  0  0  0  0  0  0  0  0  0
    1.3602   -7.0692   10.1103 C   0  0  0  0  0  0  0  0  0  0  0  0
    2.7263   -7.3420    9.9528 C   0  0  0  0  0  0  0  0  0  0  0  0
    3.3585   -8.4884   10.7064 C   0  0  0  0  0  0  0  0  0  0  0  0
    2.4976   -9.1324   11.5456 F   0  0  0  0  0  0  0  0  0  0  0  0
    3.8578   -9.4457    9.8788 F   0  0  0  0  0  0  0  0  0  0  0  0
    4.4003   -8.0852   11.4859 F   0  0  0  0  0  0  0  0  0  0  0  0
    3.5038   -6.5142    9.1091 C   0  0  0  0  0  0  0  0  0  0  0  0
    6.6430   -1.2863    4.3489 C   0  0  0  0  0  0  0  0  0  0  0  0
    7.4871   -2.5558   -0.0230 N   0  0  0  0  0  0  0  0  0  0  0  0
    7.0015   -2.9536   -1.2057 C   0  0  0  0  0  0  0  0  0  0  0  0
    5.7085   -3.1366   -1.5099 N   0  0  0  0  0  0  0  0  0  0  0  0
    2.3405    0.1194   -1.5153 H   0  0  0  0  0  0  0  0  0  0  0  0
    2.8210   -1.1289   -2.6788 H   0  0  0  0  0  0  0  0  0  0  0  0
    3.9977   -0.4660   -1.5144 H   0  0  0  0  0  0  0  0  0  0  0  0
    1.5740   -2.0196   -0.8410 H   0  0  0  0  0  0  0  0  0  0  0  0
    3.2119   -3.4394   -1.8355 H   0  0  0  0  0  0  0  0  0  0  0  0
    2.9650   -3.7635   -0.1279 H   0  0  0  0  0  0  0  0  0  0  0  0
    4.4832   -2.0515    1.4315 H   0  0  0  0  0  0  0  0  0  0  0  0
    5.5775   -4.0976    2.7532 H   0  0  0  0  0  0  0  0  0  0  0  0
    4.3181   -4.3889    4.8467 H   0  0  0  0  0  0  0  0  0  0  0  0
    6.4570    0.2282    6.9566 H   0  0  0  0  0  0  0  0  0  0  0  0
    4.6511   -0.9936    8.5714 H   0  0  0  0  0  0  0  0  0  0  0  0
    4.7311   -4.8045    7.5800 H   0  0  0  0  0  0  0  0  0  0  0  0
    1.0699   -4.3297    8.1563 H   0  0  0  0  0  0  0  0  0  0  0  0
   -0.2765   -5.7757    9.5763 H   0  0  0  0  0  0  0  0  0  0  0  0
    0.7394   -7.6905   10.7555 H   0  0  0  0  0  0  0  0  0  0  0  0
    4.5661   -6.7277    9.0025 H   0  0  0  0  0  0  0  0  0  0  0  0
    7.2668   -0.4092    4.1941 H   0  0  0  0  0  0  0  0  0  0  0  0
    7.7221   -3.1508   -1.9921 H   0  0  0  0  0  0  0  0  0  0  0  0
  1  2  1  0  0  0  0
  1 33  1  0  0  0  0
  1 34  1  0  0  0  0
  1 35  1  0  0  0  0
  2  3  1  0  0  0  0
  2 36  1  0  0  0  0
  3  4  1  0  0  0  0
  3 37  1  0  0  0  0
  3 38  1  0  0  0  0
  4  5  1  0  0  0  0
  4 32  2  0  0  0  0
  5  6  2  0  0  0  0
  5 39  1  0  0  0  0
  6  7  1  0  0  0  0
  6 30  1  0  0  0  0
  7  8  1  0  0  0  0
  8  9  1  0  0  0  0
  8 29  2  0  0  0  0
  9 10  2  0  0  0  0
  9 40  1  0  0  0  0
 10 11  1  0  0  0  0
 10 41  1  0  0  0  0
 11 12  2  0  0  0  0
 11 15  1  0  0  0  0
 12 13  1  0  0  0  0
 12 29  1  0  0  0  0
 13 14  2  0  0  0  0
 13 42  1  0  0  0  0
 14 15  1  0  0  0  0
 14 43  1  0  0  0  0
 15 16  1  0  0  0  0
 16 17  2  0  0  0  0
 16 18  1  0  0  0  0
 18 19  1  0  0  0  0
 18 44  1  0  0  0  0
 19 20  1  0  0  0  0
 19 28  2  0  0  0  0
 20 21  2  0  0  0  0
 20 45  1  0  0  0  0
 21 22  1  0  0  0  0
 21 46  1  0  0  0  0
 22 23  2  0  0  0  0
 22 47  1  0  0  0  0
 23 24  1  0  0  0  0
 23 28  1  0  0  0  0
 24 25  1  0  0  0  0
 24 26  1  0  0  0  0
 24 27  1  0  0  0  0
 28 48  1  0  0  0  0
 29 49  1  0  0  0  0
 30 31  2  0  0  0  0
 31 32  1  0  0  0  0
 31 50  1  0  0  0  0
M  END
$$$$
