CHEMBL3905825
 OpenBabel04072215373D

 54 57  0  0  0  0  0  0  0  0999 V2000
    6.0862   -0.2636   -1.7497 C   0  0  0  0  0  0  0  0  0  0  0  0
    4.8252   -0.0623   -0.9254 C   0  0  0  0  0  0  0  0  0  0  0  0
    3.7619   -0.2571   -1.7633 F   0  0  0  0  0  0  0  0  0  0  0  0
    4.7520   -1.0781   -0.0166 F   0  0  0  0  0  0  0  0  0  0  0  0
    4.7736    1.3024   -0.2638 C   0  0  0  0  0  0  0  0  0  0  0  0
    4.2152    2.3731   -0.9754 C   0  0  0  0  0  0  0  0  0  0  0  0
    4.0567    3.6076   -0.3724 C   0  0  0  0  0  0  0  0  0  0  0  0
    4.4792    3.8015    0.9439 C   0  0  0  0  0  0  0  0  0  0  0  0
    4.1294    4.9671    1.5009 F   0  0  0  0  0  0  0  0  0  0  0  0
    5.1322    2.7874    1.6687 C   0  0  0  0  0  0  0  0  0  0  0  0
    5.6762    2.9630    2.9794 N   0  0  0  0  0  0  0  0  0  0  0  0
    5.9748    4.1858    3.5611 C   0  0  0  0  0  0  0  0  0  0  0  0
    5.8538    5.2761    3.0122 O   0  0  0  0  0  0  0  0  0  0  0  0
    6.5199    4.0741    4.8330 N   0  0  0  0  0  0  0  0  0  0  0  0
    6.8257    5.2661    5.5575 C   0  0  0  0  0  0  0  0  0  0  0  0
    5.8571    6.2569    5.7724 C   0  0  0  0  0  0  0  0  0  0  0  0
    6.1835    7.4432    6.4492 C   0  0  0  0  0  0  0  0  0  0  0  0
    7.4872    7.6608    6.9036 C   0  0  0  0  0  0  0  0  0  0  0  0
    7.7105    8.8200    7.6206 O   0  0  0  0  0  0  0  0  0  0  0  0
    8.9022    9.5145    7.4208 C   0  0  0  0  0  0  0  0  0  0  0  0
    9.2940   10.3868    8.4232 C   0  0  0  0  0  0  0  0  0  0  0  0
   10.4557   11.0931    8.1890 C   0  0  0  0  0  0  0  0  0  0  0  0
   10.8871   12.0560    9.1260 N   0  0  0  0  0  0  0  0  0  0  0  0
   11.9876   12.8686    8.9262 C   0  0  0  0  0  0  0  0  0  0  0  0
   12.7633   12.8477    7.9780 O   0  0  0  0  0  0  0  0  0  0  0  0
   12.2241   13.8866   10.0034 C   0  0  0  0  0  0  0  0  0  0  0  0
   12.7893   15.2429    9.6248 C   0  0  0  0  0  0  0  0  0  0  0  0
   13.6479   14.2609   10.3650 C   0  0  0  0  0  0  0  0  0  0  0  0
   11.1721   10.9065    7.0742 N   0  0  0  0  0  0  0  0  0  0  0  0
   10.6988   10.0522    6.1642 C   0  0  0  0  0  0  0  0  0  0  0  0
    9.5638    9.3634    6.2628 N   0  0  0  0  0  0  0  0  0  0  0  0
    8.4372    6.6519    6.7122 C   0  0  0  0  0  0  0  0  0  0  0  0
    9.6855    6.7827    7.1849 F   0  0  0  0  0  0  0  0  0  0  0  0
    8.1141    5.4614    6.0511 C   0  0  0  0  0  0  0  0  0  0  0  0
    5.2409    1.5229    1.0563 C   0  0  0  0  0  0  0  0  0  0  0  0
    6.0467   -1.2362   -2.2539 H   0  0  0  0  0  0  0  0  0  0  0  0
    6.9814   -0.2519   -1.1213 H   0  0  0  0  0  0  0  0  0  0  0  0
    6.1868    0.5007   -2.5277 H   0  0  0  0  0  0  0  0  0  0  0  0
    3.8565    2.2335   -1.9973 H   0  0  0  0  0  0  0  0  0  0  0  0
    3.5811    4.4309   -0.8909 H   0  0  0  0  0  0  0  0  0  0  0  0
    5.9859    2.1355    3.4660 H   0  0  0  0  0  0  0  0  0  0  0  0
    7.1944    3.3279    4.9219 H   0  0  0  0  0  0  0  0  0  0  0  0
    4.8391    6.1140    5.4148 H   0  0  0  0  0  0  0  0  0  0  0  0
    5.4146    8.1955    6.6091 H   0  0  0  0  0  0  0  0  0  0  0  0
    8.7034   10.5030    9.3199 H   0  0  0  0  0  0  0  0  0  0  0  0
   10.3345   12.1854    9.9608 H   0  0  0  0  0  0  0  0  0  0  0  0
   11.5098   13.8870   10.8205 H   0  0  0  0  0  0  0  0  0  0  0  0
   12.4490   16.1208   10.1602 H   0  0  0  0  0  0  0  0  0  0  0  0
   13.0247   15.4291    8.5804 H   0  0  0  0  0  0  0  0  0  0  0  0
   13.8843   14.4743   11.3997 H   0  0  0  0  0  0  0  0  0  0  0  0
   14.4572   13.7882    9.8153 H   0  0  0  0  0  0  0  0  0  0  0  0
   11.2977    9.9135    5.2720 H   0  0  0  0  0  0  0  0  0  0  0  0
    8.9003    4.7319    5.8909 H   0  0  0  0  0  0  0  0  0  0  0  0
    5.6930    0.6893    1.5931 H   0  0  0  0  0  0  0  0  0  0  0  0
  1  2  1  0  0  0  0
  1 36  1  0  0  0  0
  1 37  1  0  0  0  0
  1 38  1  0  0  0  0
  2  3  1  0  0  0  0
  2  4  1  0  0  0  0
  2  5  1  0  0  0  0
  5  6  1  0  0  0  0
  5 35  2  0  0  0  0
  6  7  2  0  0  0  0
  6 39  1  0  0  0  0
  7  8  1  0  0  0  0
  7 40  1  0  0  0  0
  8  9  1  0  0  0  0
  8 10  2  0  0  0  0
 10 11  1  0  0  0  0
 10 35  1  0  0  0  0
 11 12  1  0  0  0  0
 11 41  1  0  0  0  0
 12 13  2  0  0  0  0
 12 14  1  0  0  0  0
 14 15  1  0  0  0  0
 14 42  1  0  0  0  0
 15 16  1  0  0  0  0
 15 34  2  0  0  0  0
 16 17  2  0  0  0  0
 16 43  1  0  0  0  0
 17 18  1  0  0  0  0
 17 44  1  0  0  0  0
 18 19  1  0  0  0  0
 18 32  2  0  0  0  0
 19 20  1  0  0  0  0
 20 21  1  0  0  0  0
 20 31  2  0  0  0  0
 21 22  2  0  0  0  0
 21 45  1  0  0  0  0
 22 23  1  0  0  0  0
 22 29  1  0  0  0  0
 23 24  1  0  0  0  0
 23 46  1  0  0  0  0
 24 25  2  0  0  0  0
 24 26  1  0  0  0  0
 26 27  1  0  0  0  0
 26 28  1  0  0  0  0
 26 47  1  0  0  0  0
 27 28  1  0  0  0  0
 27 48  1  0  0  0  0
 27 49  1  0  0  0  0
 28 50  1  0  0  0  0
 28 51  1  0  0  0  0
 29 30  2  0  0  0  0
 30 31  1  0  0  0  0
 30 52  1  0  0  0  0
 32 33  1  0  0  0  0
 32 34  1  0  0  0  0
 34 53  1  0  0  0  0
 35 54  1  0  0  0  0
M  END
$$$$
