CHEMBL2023495
 OpenBabel04072215363D

 55 58  0  0  0  0  0  0  0  0999 V2000
   -1.7506    7.7889    7.5338 C   0  0  0  0  0  0  0  0  0  0  0  0
   -1.7824    6.4665    6.7957 C   0  0  0  0  0  0  0  0  0  0  0  0
   -1.6480    6.6328    5.3613 N   0  0  0  0  0  0  0  0  0  0  0  0
   -0.4748    6.7063    4.6807 C   0  0  0  0  0  0  0  0  0  0  0  0
   -0.8026    6.8171    3.3519 C   0  0  0  0  0  0  0  0  0  0  0  0
    0.0440    6.9011    2.2460 N   0  0  0  0  0  0  0  0  0  0  0  0
    1.4233    6.9281    2.3380 C   0  0  0  0  0  0  0  0  0  0  0  0
    2.0820    6.8548    3.3803 O   0  0  0  0  0  0  0  0  0  0  0  0
    2.1499    6.9367    1.0054 C   0  0  0  0  0  0  0  0  0  0  0  0
    1.5129    7.7666   -0.0841 C   0  0  0  0  0  0  0  0  0  0  0  0
    0.7864    7.0797   -1.0017 N   0  0  0  0  0  0  0  0  0  0  0  0
    0.3478    7.7654   -2.0860 C   0  0  0  0  0  0  0  0  0  0  0  0
    0.5701    9.1152   -2.3051 C   0  0  0  0  0  0  0  0  0  0  0  0
    0.1616    9.5954   -3.5439 O   0  0  0  0  0  0  0  0  0  0  0  0
    0.7104   10.7835   -4.0075 C   0  0  0  0  0  0  0  0  0  0  0  0
    2.0663   11.0373   -3.9118 C   0  0  0  0  0  0  0  0  0  0  0  0
    2.4487   12.3569   -3.9336 C   0  0  0  0  0  0  0  0  0  0  0  0
    1.5670   13.3853   -3.9386 N   0  0  0  0  0  0  0  0  0  0  0  0
    0.2669   13.1000   -4.1334 C   0  0  0  0  0  0  0  0  0  0  0  0
   -0.7364   14.0266   -3.9001 C   0  0  0  0  0  0  0  0  0  0  0  0
   -2.0603   13.6676   -4.1196 C   0  0  0  0  0  0  0  0  0  0  0  0
   -3.0195   14.1779   -3.2815 O   0  0  0  0  0  0  0  0  0  0  0  0
   -4.0995   13.2592   -3.0171 C   0  0  0  0  0  0  0  0  0  0  0  0
   -2.3399   12.6344   -4.9924 C   0  0  0  0  0  0  0  0  0  0  0  0
   -1.4214   11.6019   -5.0090 C   0  0  0  0  0  0  0  0  0  0  0  0
   -0.1587   11.8001   -4.4141 C   0  0  0  0  0  0  0  0  0  0  0  0
    1.1829    9.8351   -1.2630 C   0  0  0  0  0  0  0  0  0  0  0  0
    1.6990    9.1536   -0.1483 C   0  0  0  0  0  0  0  0  0  0  0  0
    2.3982    9.7033    0.8877 O   0  0  0  0  0  0  0  0  0  0  0  0
    2.6665   11.0979    0.8726 C   0  0  0  0  0  0  0  0  0  0  0  0
   -2.2137    6.7911    3.3282 C   0  0  0  0  0  0  0  0  0  0  0  0
   -2.7371    6.6804    4.5725 N   0  0  0  0  0  0  0  0  0  0  0  0
   -1.8365    7.6206    8.6124 H   0  0  0  0  0  0  0  0  0  0  0  0
   -2.5794    8.4387    7.2231 H   0  0  0  0  0  0  0  0  0  0  0  0
   -0.8171    8.3280    7.3469 H   0  0  0  0  0  0  0  0  0  0  0  0
   -2.7187    5.9344    6.9830 H   0  0  0  0  0  0  0  0  0  0  0  0
   -0.9588    5.8250    7.1237 H   0  0  0  0  0  0  0  0  0  0  0  0
    0.4841    6.6955    5.1839 H   0  0  0  0  0  0  0  0  0  0  0  0
   -0.3836    6.9183    1.3358 H   0  0  0  0  0  0  0  0  0  0  0  0
    2.2354    5.8947    0.6733 H   0  0  0  0  0  0  0  0  0  0  0  0
    3.1762    7.2860    1.1756 H   0  0  0  0  0  0  0  0  0  0  0  0
   -0.1893    7.1667   -2.8172 H   0  0  0  0  0  0  0  0  0  0  0  0
    2.7857   10.2511   -3.7364 H   0  0  0  0  0  0  0  0  0  0  0  0
    3.4934   12.6430   -3.8811 H   0  0  0  0  0  0  0  0  0  0  0  0
   -0.4817   14.9603   -3.4053 H   0  0  0  0  0  0  0  0  0  0  0  0
   -4.3389   13.2495   -1.9489 H   0  0  0  0  0  0  0  0  0  0  0  0
   -3.9022   12.2069   -3.2744 H   0  0  0  0  0  0  0  0  0  0  0  0
   -4.9654   13.6066   -3.5821 H   0  0  0  0  0  0  0  0  0  0  0  0
   -3.3277   12.5124   -5.4257 H   0  0  0  0  0  0  0  0  0  0  0  0
   -1.7004   10.6505   -5.4527 H   0  0  0  0  0  0  0  0  0  0  0  0
    1.2867   10.9125   -1.3321 H   0  0  0  0  0  0  0  0  0  0  0  0
    3.2789   11.3248    1.7529 H   0  0  0  0  0  0  0  0  0  0  0  0
    1.7408   11.6743    0.9528 H   0  0  0  0  0  0  0  0  0  0  0  0
    3.2427   11.3842   -0.0123 H   0  0  0  0  0  0  0  0  0  0  0  0
   -2.8935    6.8490    2.4977 H   0  0  0  0  0  0  0  0  0  0  0  0
  1  2  1  0  0  0  0
  1 33  1  0  0  0  0
  1 34  1  0  0  0  0
  1 35  1  0  0  0  0
  2  3  1  0  0  0  0
  2 36  1  0  0  0  0
  2 37  1  0  0  0  0
  3  4  1  0  0  0  0
  3 32  1  0  0  0  0
  4  5  2  0  0  0  0
  4 38  1  0  0  0  0
  5  6  1  0  0  0  0
  5 31  1  0  0  0  0
  6  7  1  0  0  0  0
  6 39  1  0  0  0  0
  7  8  2  0  0  0  0
  7  9  1  0  0  0  0
  9 10  1  0  0  0  0
  9 40  1  0  0  0  0
  9 41  1  0  0  0  0
 10 11  1  0  0  0  0
 10 28  2  0  0  0  0
 11 12  2  0  0  0  0
 12 13  1  0  0  0  0
 12 42  1  0  0  0  0
 13 14  1  0  0  0  0
 13 27  2  0  0  0  0
 14 15  1  0  0  0  0
 15 16  1  0  0  0  0
 15 26  2  0  0  0  0
 16 17  2  0  0  0  0
 16 43  1  0  0  0  0
 17 18  1  0  0  0  0
 17 44  1  0  0  0  0
 18 19  2  0  0  0  0
 19 20  1  0  0  0  0
 19 26  1  0  0  0  0
 20 21  2  0  0  0  0
 20 45  1  0  0  0  0
 21 22  1  0  0  0  0
 21 24  1  0  0  0  0
 22 23  1  0  0  0  0
 23 46  1  0  0  0  0
 23 47  1  0  0  0  0
 23 48  1  0  0  0  0
 24 25  2  0  0  0  0
 24 49  1  0  0  0  0
 25 26  1  0  0  0  0
 25 50  1  0  0  0  0
 27 28  1  0  0  0  0
 27 51  1  0  0  0  0
 28 29  1  0  0  0  0
 29 30  1  0  0  0  0
 30 52  1  0  0  0  0
 30 53  1  0  0  0  0
 30 54  1  0  0  0  0
 31 32  2  0  0  0  0
 31 55  1  0  0  0  0
M  END
$$$$
