CHEMBL3962736
 OpenBabel04072215373D

 68 72  0  0  1  0  0  0  0  0999 V2000
    0.3203    2.8665   -2.3918 C   0  0  0  0  0  0  0  0  0  0  0  0
    1.6375    3.3349   -2.6810 O   0  0  0  0  0  0  0  0  0  0  0  0
    2.6064    2.5977   -2.0674 C   0  0  0  0  0  0  0  0  0  0  0  0
    2.4750    1.9572   -0.8880 C   0  0  0  0  0  0  0  0  0  0  0  0
    3.4986    1.1926   -0.3563 C   0  0  0  0  0  0  0  0  0  0  0  0
    3.3676    0.5183    0.8222 O   0  0  0  0  0  0  0  0  0  0  0  0
    2.0940    0.6784    1.4483 C   0  0  0  0  0  0  0  0  0  0  0  0
    4.6989    1.0729   -1.0333 C   0  0  0  0  0  0  0  0  0  0  0  0
    4.8858    1.5936   -2.3020 C   0  0  0  0  0  0  0  0  0  0  0  0
    6.0699    1.3415   -3.0303 N   0  0  0  0  0  0  0  0  0  0  0  0
    6.7638   -0.0211   -2.8170 C   0  0  0  0  0  0  0  0  0  0  0  0
    5.8454   -1.1580   -2.3937 C   0  0  0  0  0  0  0  0  0  0  0  0
    4.7427   -1.5616   -3.3336 C   0  0  0  0  0  0  0  0  0  0  0  0
    3.9517   -2.6693   -2.7585 N   0  0  0  0  0  0  0  0  0  0  0  0
    2.8627   -3.0959   -3.6564 C   0  0  0  0  0  0  0  0  0  0  0  0
    1.6693   -3.4471   -2.7652 C   0  0  0  0  0  0  0  0  0  0  0  0
    2.1474   -3.2018   -1.3419 C   0  0  3  0  0  0  0  0  0  0  0  0
    2.5723   -4.4343   -0.7535 O   0  0  0  0  0  0  0  0  0  0  0  0
    3.3118   -2.2372   -1.4942 C   0  0  0  0  0  0  0  0  0  0  0  0
    6.9684    2.3501   -3.5721 C   0  0  0  0  0  0  0  0  0  0  0  0
    7.6233    1.9708   -4.7279 C   0  0  0  0  0  0  0  0  0  0  0  0
    8.5260    2.8295   -5.2343 C   0  0  0  0  0  0  0  0  0  0  0  0
    8.8509    4.0346   -4.7180 C   0  0  0  0  0  0  0  0  0  0  0  0
   10.1121    4.0850   -4.8404 N   0  0  0  0  0  0  0  0  0  0  0  0
   10.5342    4.4704   -5.9717 C   0  0  0  0  0  0  0  0  0  0  0  0
   10.7498    5.7174   -5.7815 C   0  0  0  0  0  0  0  0  0  0  0  0
   11.9651    5.9370   -7.1451 C   0  0  0  0  0  0  0  0  0  0  0  0
   12.7072    4.9462   -8.2353 C   0  0  0  0  0  0  0  0  0  0  0  0
   13.2115    5.5105   -9.3812 N   0  0  0  0  0  0  0  0  0  0  0  0
   12.8239    6.7916   -9.3459 N   0  0  0  0  0  0  0  0  0  0  0  0
   13.1388    7.7295  -10.4895 C   0  0  0  0  0  0  0  0  0  0  0  0
   12.0510    6.9890   -8.1025 C   0  0  0  0  0  0  0  0  0  0  0  0
    9.5595    6.1061   -4.6280 N   0  0  0  0  0  0  0  0  0  0  0  0
    8.4246    5.0016   -3.9828 C   0  0  0  0  0  0  0  0  0  0  0  0
    7.4816    3.7971   -3.0921 C   0  0  0  0  0  0  0  0  0  0  0  0
    3.8313    2.4611   -2.7065 C   0  0  0  0  0  0  0  0  0  0  0  0
   -0.3946    3.4310   -2.9889 H   0  0  0  0  0  0  0  0  0  0  0  0
    0.0989    3.0276   -1.3356 H   0  0  0  0  0  0  0  0  0  0  0  0
    0.1826    1.8069   -2.6467 H   0  0  0  0  0  0  0  0  0  0  0  0
    1.5533    2.1053   -0.3746 H   0  0  0  0  0  0  0  0  0  0  0  0
    2.0988    0.0975    2.3671 H   0  0  0  0  0  0  0  0  0  0  0  0
    1.2771    0.3033    0.8144 H   0  0  0  0  0  0  0  0  0  0  0  0
    1.9167    1.7294    1.7110 H   0  0  0  0  0  0  0  0  0  0  0  0
    5.5261    0.5329   -0.5570 H   0  0  0  0  0  0  0  0  0  0  0  0
    7.5590    0.0151   -2.0422 H   0  0  0  0  0  0  0  0  0  0  0  0
    7.2006   -0.3143   -3.7610 H   0  0  0  0  0  0  0  0  0  0  0  0
    5.3113   -0.8051   -1.5427 H   0  0  0  0  0  0  0  0  0  0  0  0
    6.4582   -2.0496   -2.2565 H   0  0  0  0  0  0  0  0  0  0  0  0
    5.2170   -1.8548   -4.2644 H   0  0  0  0  0  0  0  0  0  0  0  0
    4.1317   -0.6725   -3.4606 H   0  0  0  0  0  0  0  0  0  0  0  0
    3.1510   -3.9743   -4.2524 H   0  0  0  0  0  0  0  0  0  0  0  0
    2.5783   -2.3163   -4.3720 H   0  0  0  0  0  0  0  0  0  0  0  0
    1.3530   -4.4835   -2.9173 H   0  0  0  0  0  0  0  0  0  0  0  0
    0.8229   -2.7934   -3.0096 H   0  0  0  0  0  0  0  0  0  0  0  0
    1.3538   -2.8034   -0.7049 H   0  0  0  0  0  0  0  0  0  0  0  0
    3.2982   -4.7762   -1.3075 H   0  0  0  0  0  0  0  0  0  0  0  0
    4.0108   -2.3020   -0.6513 H   0  0  0  0  0  0  0  0  0  0  0  0
    2.9651   -1.1985   -1.5666 H   0  0  0  0  0  0  0  0  0  0  0  0
    7.6288    0.9970   -5.1727 H   0  0  0  0  0  0  0  0  0  0  0  0
    9.1612    2.5283   -6.0751 H   0  0  0  0  0  0  0  0  0  0  0  0
   10.8304    3.7506   -6.6911 H   0  0  0  0  0  0  0  0  0  0  0  0
   12.9038    3.8764   -8.2806 H   0  0  0  0  0  0  0  0  0  0  0  0
   13.8472    7.3187  -11.2478 H   0  0  0  0  0  0  0  0  0  0  0  0
   13.6011    8.6567  -10.1187 H   0  0  0  0  0  0  0  0  0  0  0  0
   12.2277    7.9993  -11.0460 H   0  0  0  0  0  0  0  0  0  0  0  0
   11.6238    7.9717   -8.1231 H   0  0  0  0  0  0  0  0  0  0  0  0
    6.7620    3.8768   -2.0661 H   0  0  0  0  0  0  0  0  0  0  0  0
    3.8184    3.1713   -3.4932 H   0  0  0  0  0  0  0  0  0  0  0  0
  1  2  1  0  0  0  0
  1 37  1  0  0  0  0
  1 38  1  0  0  0  0
  1 39  1  0  0  0  0
  2  3  1  0  0  0  0
  3  4  1  0  0  0  0
  3 36  2  0  0  0  0
  4  5  2  0  0  0  0
  4 40  1  0  0  0  0
  5  6  1  0  0  0  0
  5  8  1  0  0  0  0
  6  7  1  0  0  0  0
  7 41  1  0  0  0  0
  7 42  1  0  0  0  0
  7 43  1  0  0  0  0
  8  9  2  0  0  0  0
  8 44  1  0  0  0  0
  9 10  1  0  0  0  0
  9 36  1  0  0  0  0
 10 11  1  0  0  0  0
 10 20  1  0  0  0  0
 11 12  1  0  0  0  0
 11 45  1  0  0  0  0
 11 46  1  0  0  0  0
 12 13  1  0  0  0  0
 12 47  1  0  0  0  0
 12 48  1  0  0  0  0
 13 14  1  0  0  0  0
 13 49  1  0  0  0  0
 13 50  1  0  0  0  0
 14 15  1  0  0  0  0
 14 19  1  0  0  0  0
 15 16  1  0  0  0  0
 15 51  1  0  0  0  0
 15 52  1  0  0  0  0
 16 17  1  0  0  0  0
 16 53  1  0  0  0  0
 16 54  1  0  0  0  0
 17 18  1  0  0  0  0
 17 19  1  0  0  0  0
 17 55  1  0  0  0  0
 18 56  1  0  0  0  0
 19 57  1  0  0  0  0
 19 58  1  0  0  0  0
 20 21  1  0  0  0  0
 20 35  2  0  0  0  0
 21 22  2  0  0  0  0
 21 59  1  0  0  0  0
 22 23  1  0  0  0  0
 22 60  1  0  0  0  0
 23 24  1  0  0  0  0
 23 34  2  0  0  0  0
 24 25  2  0  0  0  0
 25 26  1  0  0  0  0
 25 61  1  0  0  0  0
 26 27  1  0  0  0  0
 26 33  2  0  0  0  0
 27 28  1  0  0  0  0
 27 32  2  0  0  0  0
 28 29  2  0  0  0  0
 28 62  1  0  0  0  0
 29 30  1  0  0  0  0
 30 31  1  0  0  0  0
 30 32  1  0  0  0  0
 31 63  1  0  0  0  0
 31 64  1  0  0  0  0
 31 65  1  0  0  0  0
 32 66  1  0  0  0  0
 33 34  1  0  0  0  0
 34 35  1  0  0  0  0
 35 67  1  0  0  0  0
 36 68  1  0  0  0  0
M  END
$$$$
