CHEMBL101797
 OpenBabel04072215353D

 26 28  0  0  0  0  0  0  0  0999 V2000
   -2.9843    0.5619   -0.0730 O   0  0  0  0  0  0  0  0  0  0  0  0
   -1.7830    0.3813   -0.0509 C   0  0  0  0  0  0  0  0  0  0  0  0
   -0.7890    1.3448   -0.0183 N   0  0  0  0  0  0  0  0  0  0  0  0
    0.4772    0.7654    0.0012 C   0  0  0  0  0  0  0  0  0  0  0  0
    1.6865    1.4322    0.0195 C   0  0  0  0  0  0  0  0  0  0  0  0
    2.8465    0.6561    0.0010 C   0  0  0  0  0  0  0  0  0  0  0  0
    2.7702   -0.7476   -0.0391 C   0  0  0  0  0  0  0  0  0  0  0  0
    1.5324   -1.4012   -0.0445 C   0  0  0  0  0  0  0  0  0  0  0  0
    0.3836   -0.6317   -0.0130 C   0  0  0  0  0  0  0  0  0  0  0  0
   -1.0514   -0.9352   -0.0132 C   0  0  0  0  0  0  0  0  0  0  0  0
   -1.7495   -2.0771    0.0735 C   0  0  0  0  0  0  0  0  0  0  0  0
   -1.1442   -3.3391    0.2447 C   0  0  0  0  0  0  0  0  0  0  0  0
   -0.6705   -4.3078   -0.6154 C   0  0  0  0  0  0  0  0  0  0  0  0
   -0.1835   -5.3781    0.1762 C   0  0  0  0  0  0  0  0  0  0  0  0
   -0.3858   -5.0394    1.4956 C   0  0  0  0  0  0  0  0  0  0  0  0
   -0.9787   -3.8046    1.5273 N   0  0  0  0  0  0  0  0  0  0  0  0
   -0.9864    2.3331   -0.0243 H   0  0  0  0  0  0  0  0  0  0  0  0
    1.7413    2.5143    0.0427 H   0  0  0  0  0  0  0  0  0  0  0  0
    3.8211    1.1391    0.0103 H   0  0  0  0  0  0  0  0  0  0  0  0
    3.6858   -1.3350   -0.0693 H   0  0  0  0  0  0  0  0  0  0  0  0
    1.4942   -2.4840   -0.0826 H   0  0  0  0  0  0  0  0  0  0  0  0
   -2.8377   -2.0422    0.0628 H   0  0  0  0  0  0  0  0  0  0  0  0
   -0.6682   -4.2494   -1.6963 H   0  0  0  0  0  0  0  0  0  0  0  0
    0.2623   -6.2986   -0.1781 H   0  0  0  0  0  0  0  0  0  0  0  0
   -0.1661   -5.5698    2.4123 H   0  0  0  0  0  0  0  0  0  0  0  0
   -1.2445   -3.3048    2.3668 H   0  0  0  0  0  0  0  0  0  0  0  0
  1  2  2  0  0  0  0
  2  3  1  0  0  0  0
  2 10  1  0  0  0  0
  3  4  1  0  0  0  0
  3 17  1  0  0  0  0
  4  5  1  0  0  0  0
  4  9  2  0  0  0  0
  5  6  2  0  0  0  0
  5 18  1  0  0  0  0
  6  7  1  0  0  0  0
  6 19  1  0  0  0  0
  7  8  2  0  0  0  0
  7 20  1  0  0  0  0
  8  9  1  0  0  0  0
  8 21  1  0  0  0  0
  9 10  1  0  0  0  0
 10 11  2  0  0  0  0
 11 12  1  0  0  0  0
 11 22  1  0  0  0  0
 12 13  2  0  0  0  0
 12 16  1  0  0  0  0
 13 14  1  0  0  0  0
 13 23  1  0  0  0  0
 14 15  2  0  0  0  0
 14 24  1  0  0  0  0
 15 16  1  0  0  0  0
 15 25  1  0  0  0  0
 16 26  1  0  0  0  0
M  END
$$$$
