CHEMBL3976219
 OpenBabel04072215373D

 73 77  0  0  0  0  0  0  0  0999 V2000
    4.1672   -2.0523   -5.1823 C   0  0  0  0  0  0  0  0  0  0  0  0
    4.3952   -1.3936   -3.9401 O   0  0  0  0  0  0  0  0  0  0  0  0
    5.3981   -0.4732   -3.9705 C   0  0  0  0  0  0  0  0  0  0  0  0
    6.1559   -0.1589   -5.0432 C   0  0  0  0  0  0  0  0  0  0  0  0
    7.0515    0.9047   -5.0429 C   0  0  0  0  0  0  0  0  0  0  0  0
    7.7905    1.2517   -6.1362 O   0  0  0  0  0  0  0  0  0  0  0  0
    7.5814    0.4443   -7.2951 C   0  0  0  0  0  0  0  0  0  0  0  0
    7.1895    1.6922   -3.9091 C   0  0  0  0  0  0  0  0  0  0  0  0
    6.3808    1.4889   -2.8039 C   0  0  0  0  0  0  0  0  0  0  0  0
    6.3743    2.4414   -1.7181 N   0  0  0  0  0  0  0  0  0  0  0  0
    5.1310    2.6561   -0.8740 C   0  0  0  0  0  0  0  0  0  0  0  0
    5.0769    1.7662    0.2906 C   0  0  0  0  0  0  0  0  0  0  0  0
    5.6884    1.2631    1.5953 C   0  0  0  0  0  0  0  0  0  0  0  0
    6.0456    0.5154    0.3404 C   0  0  0  0  0  0  0  0  0  0  0  0
    7.3607    3.5016   -1.5525 C   0  0  0  0  0  0  0  0  0  0  0  0
    7.6160    3.8734   -0.2658 C   0  0  0  0  0  0  0  0  0  0  0  0
    8.4725    4.8928   -0.0615 C   0  0  0  0  0  0  0  0  0  0  0  0
    9.0947    5.5739   -1.0556 C   0  0  0  0  0  0  0  0  0  0  0  0
    9.1354    6.7230   -0.5305 N   0  0  0  0  0  0  0  0  0  0  0  0
   10.0665    7.0531    0.2746 C   0  0  0  0  0  0  0  0  0  0  0  0
   10.9459    7.5594   -0.4978 C   0  0  0  0  0  0  0  0  0  0  0  0
   11.4856    8.7281    0.8261 C   0  0  0  0  0  0  0  0  0  0  0  0
   12.7025    9.8670    0.6669 C   0  0  0  0  0  0  0  0  0  0  0  0
   13.1973   10.6577    1.6725 N   0  0  0  0  0  0  0  0  0  0  0  0
   12.6057   10.1574    2.7719 N   0  0  0  0  0  0  0  0  0  0  0  0
   12.8287   10.7840    4.1850 C   0  0  0  0  0  0  0  0  0  0  0  0
   13.7802   12.0065    4.1608 C   0  0  0  0  0  0  0  0  0  0  0  0
   11.4980   11.3015    4.7867 C   0  0  0  0  0  0  0  0  0  0  0  0
   13.4227    9.7443    5.1823 C   0  0  0  0  0  0  0  0  0  0  0  0
   12.8454    9.4194    6.2158 O   0  0  0  0  0  0  0  0  0  0  0  0
   14.6363    9.1292    4.9665 N   0  0  0  0  0  0  0  0  0  0  0  0
   15.1427    8.1638    5.9477 C   0  0  0  0  0  0  0  0  0  0  0  0
   14.6922    6.7453    5.6469 C   0  0  0  0  0  0  0  0  0  0  0  0
   15.1461    6.3140    4.3715 O   0  0  0  0  0  0  0  0  0  0  0  0
   11.7625    8.9585    2.3069 C   0  0  0  0  0  0  0  0  0  0  0  0
   10.4976    6.8762   -2.1095 N   0  0  0  0  0  0  0  0  0  0  0  0
    9.2909    5.6266   -2.3307 C   0  0  0  0  0  0  0  0  0  0  0  0
    8.0550    4.3576   -2.5959 C   0  0  0  0  0  0  0  0  0  0  0  0
    5.6520    0.2782   -2.8639 C   0  0  0  0  0  0  0  0  0  0  0  0
    3.3081   -2.7220   -5.0731 H   0  0  0  0  0  0  0  0  0  0  0  0
    5.0408   -2.6568   -5.4389 H   0  0  0  0  0  0  0  0  0  0  0  0
    3.9373   -1.3608   -5.9982 H   0  0  0  0  0  0  0  0  0  0  0  0
    6.0691   -0.7940   -5.8891 H   0  0  0  0  0  0  0  0  0  0  0  0
    8.2212    0.8178   -8.0961 H   0  0  0  0  0  0  0  0  0  0  0  0
    6.5413    0.4947   -7.6439 H   0  0  0  0  0  0  0  0  0  0  0  0
    7.8601   -0.5983   -7.1002 H   0  0  0  0  0  0  0  0  0  0  0  0
    7.9404    2.4672   -3.8690 H   0  0  0  0  0  0  0  0  0  0  0  0
    4.2231    2.4038   -1.4435 H   0  0  0  0  0  0  0  0  0  0  0  0
    5.1483    3.6866   -0.5623 H   0  0  0  0  0  0  0  0  0  0  0  0
    4.0131    1.9034    0.4610 H   0  0  0  0  0  0  0  0  0  0  0  0
    5.0538    0.7077    2.3088 H   0  0  0  0  0  0  0  0  0  0  0  0
    6.2657    1.8916    2.2472 H   0  0  0  0  0  0  0  0  0  0  0  0
    5.7269   -0.5279    0.2177 H   0  0  0  0  0  0  0  0  0  0  0  0
    7.0087    0.4921   -0.1706 H   0  0  0  0  0  0  0  0  0  0  0  0
    7.1387    3.5440    0.6335 H   0  0  0  0  0  0  0  0  0  0  0  0
    8.7275    5.2697    0.9286 H   0  0  0  0  0  0  0  0  0  0  0  0
    9.7673    7.0161    1.3277 H   0  0  0  0  0  0  0  0  0  0  0  0
   13.1507   10.0909   -0.2824 H   0  0  0  0  0  0  0  0  0  0  0  0
   13.3806   12.8144    3.5387 H   0  0  0  0  0  0  0  0  0  0  0  0
   14.7516   11.7079    3.7666 H   0  0  0  0  0  0  0  0  0  0  0  0
   13.9467   12.4318    5.1677 H   0  0  0  0  0  0  0  0  0  0  0  0
   11.0625   12.0977    4.1734 H   0  0  0  0  0  0  0  0  0  0  0  0
   11.6249   11.7145    5.8034 H   0  0  0  0  0  0  0  0  0  0  0  0
   10.7822   10.4816    4.8532 H   0  0  0  0  0  0  0  0  0  0  0  0
   15.1950    9.3082    4.1473 H   0  0  0  0  0  0  0  0  0  0  0  0
   14.8055    8.4478    6.9535 H   0  0  0  0  0  0  0  0  0  0  0  0
   16.2402    8.1992    5.9593 H   0  0  0  0  0  0  0  0  0  0  0  0
   13.6009    6.6860    5.6762 H   0  0  0  0  0  0  0  0  0  0  0  0
   15.0929    6.0665    6.4058 H   0  0  0  0  0  0  0  0  0  0  0  0
   14.7821    6.9166    3.6989 H   0  0  0  0  0  0  0  0  0  0  0  0
   11.4154    8.4924    3.1890 H   0  0  0  0  0  0  0  0  0  0  0  0
    7.5490    4.0475   -3.5646 H   0  0  0  0  0  0  0  0  0  0  0  0
    5.1880   -0.1857   -2.0332 H   0  0  0  0  0  0  0  0  0  0  0  0
  1  2  1  0  0  0  0
  1 40  1  0  0  0  0
  1 41  1  0  0  0  0
  1 42  1  0  0  0  0
  2  3  1  0  0  0  0
  3  4  1  0  0  0  0
  3 39  2  0  0  0  0
  4  5  2  0  0  0  0
  4 43  1  0  0  0  0
  5  6  1  0  0  0  0
  5  8  1  0  0  0  0
  6  7  1  0  0  0  0
  7 44  1  0  0  0  0
  7 45  1  0  0  0  0
  7 46  1  0  0  0  0
  8  9  2  0  0  0  0
  8 47  1  0  0  0  0
  9 10  1  0  0  0  0
  9 39  1  0  0  0  0
 10 11  1  0  0  0  0
 10 15  1  0  0  0  0
 11 12  1  0  0  0  0
 11 48  1  0  0  0  0
 11 49  1  0  0  0  0
 12 13  1  0  0  0  0
 12 14  1  0  0  0  0
 12 50  1  0  0  0  0
 13 14  1  0  0  0  0
 13 51  1  0  0  0  0
 13 52  1  0  0  0  0
 14 53  1  0  0  0  0
 14 54  1  0  0  0  0
 15 16  1  0  0  0  0
 15 38  2  0  0  0  0
 16 17  2  0  0  0  0
 16 55  1  0  0  0  0
 17 18  1  0  0  0  0
 17 56  1  0  0  0  0
 18 19  1  0  0  0  0
 18 37  2  0  0  0  0
 19 20  2  0  0  0  0
 20 21  1  0  0  0  0
 20 57  1  0  0  0  0
 21 22  1  0  0  0  0
 21 36  2  0  0  0  0
 22 23  1  0  0  0  0
 22 35  2  0  0  0  0
 23 24  2  0  0  0  0
 23 58  1  0  0  0  0
 24 25  1  0  0  0  0
 25 26  1  0  0  0  0
 25 35  1  0  0  0  0
 26 27  1  0  0  0  0
 26 28  1  0  0  0  0
 26 29  1  0  0  0  0
 27 59  1  0  0  0  0
 27 60  1  0  0  0  0
 27 61  1  0  0  0  0
 28 62  1  0  0  0  0
 28 63  1  0  0  0  0
 28 64  1  0  0  0  0
 29 30  2  0  0  0  0
 29 31  1  0  0  0  0
 31 32  1  0  0  0  0
 31 65  1  0  0  0  0
 32 33  1  0  0  0  0
 32 66  1  0  0  0  0
 32 67  1  0  0  0  0
 33 34  1  0  0  0  0
 33 68  1  0  0  0  0
 33 69  1  0  0  0  0
 34 70  1  0  0  0  0
 35 71  1  0  0  0  0
 36 37  1  0  0  0  0
 37 38  1  0  0  0  0
 38 72  1  0  0  0  0
 39 73  1  0  0  0  0
M  END
$$$$
