CHEMBL3742328
 OpenBabel04072215373D

 58 61  0  0  0  0  0  0  0  0999 V2000
   16.8429    9.1962   -0.2556 C   0  0  0  0  0  0  0  0  0  0  0  0
   15.7655   10.2243    0.0354 C   0  0  0  0  0  0  0  0  0  0  0  0
   14.5284    9.5901    0.4459 N   0  0  0  0  0  0  0  0  0  0  0  0
   13.5406    9.2851   -0.4746 C   0  0  0  0  0  0  0  0  0  0  0  0
   13.6434    9.5754   -1.6605 O   0  0  0  0  0  0  0  0  0  0  0  0
   12.3222    8.5887    0.0563 C   0  0  0  0  0  0  0  0  0  0  0  0
   11.8712    8.9336    1.3431 C   0  0  0  0  0  0  0  0  0  0  0  0
   10.7188    8.3569    1.8669 C   0  0  0  0  0  0  0  0  0  0  0  0
    9.9981    7.4369    1.1096 C   0  0  0  0  0  0  0  0  0  0  0  0
   10.4127    7.0784   -0.1820 C   0  0  0  0  0  0  0  0  0  0  0  0
    9.6567    6.1529   -0.9248 C   0  0  0  0  0  0  0  0  0  0  0  0
   10.0427    5.7721   -2.2092 C   0  0  0  0  0  0  0  0  0  0  0  0
    9.2223    4.8804   -2.8636 O   0  0  0  0  0  0  0  0  0  0  0  0
    9.8141    3.9658   -3.7275 C   0  0  0  0  0  0  0  0  0  0  0  0
    9.0552    3.5584   -4.7972 C   0  0  0  0  0  0  0  0  0  0  0  0
    9.6826    2.6937   -5.6500 C   0  0  0  0  0  0  0  0  0  0  0  0
   10.9469    2.2747   -5.4756 N   0  0  0  0  0  0  0  0  0  0  0  0
   11.5960    2.6897   -4.3709 C   0  0  0  0  0  0  0  0  0  0  0  0
   12.8893    2.2471   -4.1219 N   0  0  0  0  0  0  0  0  0  0  0  0
   13.8861    1.8938   -5.0421 C   0  0  0  0  0  0  0  0  0  0  0  0
   14.8817    0.9940   -4.6551 C   0  0  0  0  0  0  0  0  0  0  0  0
   15.8521    0.5738   -5.5659 C   0  0  0  0  0  0  0  0  0  0  0  0
   15.8531    1.0666   -6.8716 C   0  0  0  0  0  0  0  0  0  0  0  0
   14.8729    1.9734   -7.2899 C   0  0  0  0  0  0  0  0  0  0  0  0
   14.8879    2.5898   -8.6647 C   0  0  0  0  0  0  0  0  0  0  0  0
   14.6213    1.3994   -9.9690 S   0  0  0  0  0  0  0  0  0  0  0  0
   13.0537    0.6434   -9.5977 C   0  0  0  0  0  0  0  0  0  0  0  0
   14.4361    2.1553  -11.1998 O   0  0  0  0  0  0  0  0  0  0  0  0
   15.6448    0.3716   -9.9129 O   0  0  0  0  0  0  0  0  0  0  0  0
   13.8975    2.3746   -6.3608 C   0  0  0  0  0  0  0  0  0  0  0  0
   11.0521    3.5045   -3.4609 N   0  0  0  0  0  0  0  0  0  0  0  0
   11.1682    6.3519   -2.7814 C   0  0  0  0  0  0  0  0  0  0  0  0
   11.9426    7.2504   -2.0445 C   0  0  0  0  0  0  0  0  0  0  0  0
   11.5891    7.6535   -0.7344 C   0  0  0  0  0  0  0  0  0  0  0  0
   17.7662    9.6901   -0.5731 H   0  0  0  0  0  0  0  0  0  0  0  0
   16.5299    8.5083   -1.0479 H   0  0  0  0  0  0  0  0  0  0  0  0
   17.0616    8.6004    0.6368 H   0  0  0  0  0  0  0  0  0  0  0  0
   15.5894   10.8404   -0.8535 H   0  0  0  0  0  0  0  0  0  0  0  0
   16.0801   10.8855    0.8483 H   0  0  0  0  0  0  0  0  0  0  0  0
   14.4722    9.2237    1.3859 H   0  0  0  0  0  0  0  0  0  0  0  0
   12.3881    9.6841    1.9354 H   0  0  0  0  0  0  0  0  0  0  0  0
   10.3695    8.6354    2.8580 H   0  0  0  0  0  0  0  0  0  0  0  0
    9.0934    7.0065    1.5357 H   0  0  0  0  0  0  0  0  0  0  0  0
    8.7544    5.7167   -0.5013 H   0  0  0  0  0  0  0  0  0  0  0  0
    8.0488    3.9116   -4.9649 H   0  0  0  0  0  0  0  0  0  0  0  0
    9.1836    2.3002   -6.5289 H   0  0  0  0  0  0  0  0  0  0  0  0
   13.2103    2.5678   -3.2187 H   0  0  0  0  0  0  0  0  0  0  0  0
   14.8882    0.5883   -3.6466 H   0  0  0  0  0  0  0  0  0  0  0  0
   16.6075   -0.1445   -5.2570 H   0  0  0  0  0  0  0  0  0  0  0  0
   16.6334    0.7329   -7.5545 H   0  0  0  0  0  0  0  0  0  0  0  0
   15.8458    3.0834   -8.8508 H   0  0  0  0  0  0  0  0  0  0  0  0
   14.0973    3.3441   -8.7702 H   0  0  0  0  0  0  0  0  0  0  0  0
   12.2998    1.4247   -9.5108 H   0  0  0  0  0  0  0  0  0  0  0  0
   13.1377    0.0659   -8.6776 H   0  0  0  0  0  0  0  0  0  0  0  0
   12.8039   -0.0209  -10.4295 H   0  0  0  0  0  0  0  0  0  0  0  0
   13.1479    3.1058   -6.6589 H   0  0  0  0  0  0  0  0  0  0  0  0
   11.4738    6.1135   -3.7958 H   0  0  0  0  0  0  0  0  0  0  0  0
   12.8351    7.6392   -2.5295 H   0  0  0  0  0  0  0  0  0  0  0  0
  1  2  1  0  0  0  0
  1 35  1  0  0  0  0
  1 36  1  0  0  0  0
  1 37  1  0  0  0  0
  2  3  1  0  0  0  0
  2 38  1  0  0  0  0
  2 39  1  0  0  0  0
  3  4  1  0  0  0  0
  3 40  1  0  0  0  0
  4  5  2  0  0  0  0
  4  6  1  0  0  0  0
  6  7  1  0  0  0  0
  6 34  2  0  0  0  0
  7  8  2  0  0  0  0
  7 41  1  0  0  0  0
  8  9  1  0  0  0  0
  8 42  1  0  0  0  0
  9 10  2  0  0  0  0
  9 43  1  0  0  0  0
 10 11  1  0  0  0  0
 10 34  1  0  0  0  0
 11 12  2  0  0  0  0
 11 44  1  0  0  0  0
 12 13  1  0  0  0  0
 12 32  1  0  0  0  0
 13 14  1  0  0  0  0
 14 15  1  0  0  0  0
 14 31  2  0  0  0  0
 15 16  2  0  0  0  0
 15 45  1  0  0  0  0
 16 17  1  0  0  0  0
 16 46  1  0  0  0  0
 17 18  2  0  0  0  0
 18 19  1  0  0  0  0
 18 31  1  0  0  0  0
 19 20  1  0  0  0  0
 19 47  1  0  0  0  0
 20 21  1  0  0  0  0
 20 30  2  0  0  0  0
 21 22  2  0  0  0  0
 21 48  1  0  0  0  0
 22 23  1  0  0  0  0
 22 49  1  0  0  0  0
 23 24  2  0  0  0  0
 23 50  1  0  0  0  0
 24 25  1  0  0  0  0
 24 30  1  0  0  0  0
 25 26  1  0  0  0  0
 25 51  1  0  0  0  0
 25 52  1  0  0  0  0
 26 27  1  0  0  0  0
 26 28  2  0  0  0  0
 26 29  2  0  0  0  0
 27 53  1  0  0  0  0
 27 54  1  0  0  0  0
 27 55  1  0  0  0  0
 30 56  1  0  0  0  0
 32 33  2  0  0  0  0
 32 57  1  0  0  0  0
 33 34  1  0  0  0  0
 33 58  1  0  0  0  0
M  END
$$$$
