CHEMBL248222
 OpenBabel04072215363D

 60 64  0  0  1  0  0  0  0  0999 V2000
    1.1490   -0.0590    0.3361 C   0  0  0  0  0  0  0  0  0  0  0  0
    2.5604   -0.0263    0.1299 O   0  0  0  0  0  0  0  0  0  0  0  0
    3.1376    1.2133    0.0101 C   0  0  0  0  0  0  0  0  0  0  0  0
    4.2526    1.2502   -0.8253 C   0  0  0  0  0  0  0  0  0  0  0  0
    4.9670    2.4181   -1.0612 C   0  0  0  0  0  0  0  0  0  0  0  0
    6.0011    2.3238   -1.8912 N   0  0  0  0  0  0  0  0  0  0  0  0
    6.6504    3.4570   -2.2128 C   0  0  0  0  0  0  0  0  0  0  0  0
    6.3397    4.7255   -1.7327 C   0  0  0  0  0  0  0  0  0  0  0  0
    7.0493    5.8006   -2.3447 C   0  0  0  0  0  0  0  0  0  0  0  0
    7.6611    6.5920   -2.9377 N   0  0  0  0  0  0  0  0  0  0  0  0
    5.3211    4.8430   -0.7726 C   0  0  0  0  0  0  0  0  0  0  0  0
    4.8774    6.0896   -0.2043 N   0  0  0  0  0  0  0  0  0  0  0  0
    5.6699    7.3385   -0.0616 C   0  0  2  0  0  0  0  0  0  0  0  0
    6.8221    7.4196    0.8919 C   0  0  0  0  0  0  0  0  0  0  0  0
    5.5363    8.1316    1.2414 C   0  0  1  0  0  0  0  0  0  0  0  0
    5.5656    9.6453    1.4146 C   0  0  0  0  0  0  0  0  0  0  0  0
    4.7539   10.5270    0.6912 C   0  0  0  0  0  0  0  0  0  0  0  0
    4.6736   11.8953    1.0183 C   0  0  0  0  0  0  0  0  0  0  0  0
    5.4135   12.4055    2.0779 C   0  0  0  0  0  0  0  0  0  0  0  0
    6.2552   11.5675    2.7958 C   0  0  0  0  0  0  0  0  0  0  0  0
    6.3305   10.2086    2.4585 C   0  0  0  0  0  0  0  0  0  0  0  0
    4.5762    3.6358   -0.4493 C   0  0  0  0  0  0  0  0  0  0  0  0
    3.4644    3.5657    0.4363 C   0  0  0  0  0  0  0  0  0  0  0  0
    2.7603    2.3774    0.6789 C   0  0  0  0  0  0  0  0  0  0  0  0
    1.7326    2.2704    1.5644 O   0  0  0  0  0  0  0  0  0  0  0  0
    1.3082    3.4076    2.3000 C   0  0  0  0  0  0  0  0  0  0  0  0
    0.1633    2.9384    3.1911 C   0  0  0  0  0  0  0  0  0  0  0  0
   -0.3875    4.0881    4.0226 C   0  0  0  0  0  0  0  0  0  0  0  0
   -1.5006    3.6526    4.9301 C   0  0  0  0  0  0  0  0  0  0  0  0
   -2.8406    3.7099    4.5363 C   0  0  0  0  0  0  0  0  0  0  0  0
   -3.8397    3.2916    5.4185 C   0  0  0  0  0  0  0  0  0  0  0  0
   -3.4537    2.8270    6.6627 C   0  0  0  0  0  0  0  0  0  0  0  0
   -2.1753    2.7447    7.0795 N   0  0  0  0  0  0  0  0  0  0  0  0
   -1.2276    3.1579    6.1993 C   0  0  0  0  0  0  0  0  0  0  0  0
    0.8116   -1.0890    0.1849 H   0  0  0  0  0  0  0  0  0  0  0  0
    0.6222    0.5767   -0.3841 H   0  0  0  0  0  0  0  0  0  0  0  0
    0.8830    0.1940    1.3657 H   0  0  0  0  0  0  0  0  0  0  0  0
    4.5660    0.3350   -1.3246 H   0  0  0  0  0  0  0  0  0  0  0  0
    7.4573    3.3069   -2.9333 H   0  0  0  0  0  0  0  0  0  0  0  0
    4.3133    5.9222    0.6217 H   0  0  0  0  0  0  0  0  0  0  0  0
    5.7206    7.9186   -0.9794 H   0  0  0  0  0  0  0  0  0  0  0  0
    7.6782    8.0047    0.5743 H   0  0  0  0  0  0  0  0  0  0  0  0
    7.0819    6.5459    1.4764 H   0  0  0  0  0  0  0  0  0  0  0  0
    4.9188    7.6562    2.0028 H   0  0  0  0  0  0  0  0  0  0  0  0
    4.1303   10.1554   -0.1207 H   0  0  0  0  0  0  0  0  0  0  0  0
    4.0184   12.5530    0.4535 H   0  0  0  0  0  0  0  0  0  0  0  0
    5.3298   13.4592    2.3557 H   0  0  0  0  0  0  0  0  0  0  0  0
    6.8379   11.9533    3.6233 H   0  0  0  0  0  0  0  0  0  0  0  0
    6.9757    9.5647    3.0535 H   0  0  0  0  0  0  0  0  0  0  0  0
    3.1428    4.4613    0.9509 H   0  0  0  0  0  0  0  0  0  0  0  0
    0.9544    4.1872    1.6161 H   0  0  0  0  0  0  0  0  0  0  0  0
    2.1302    3.7871    2.9181 H   0  0  0  0  0  0  0  0  0  0  0  0
    0.5200    2.1226    3.8350 H   0  0  0  0  0  0  0  0  0  0  0  0
   -0.6238    2.4921    2.5684 H   0  0  0  0  0  0  0  0  0  0  0  0
   -0.7417    4.8909    3.3643 H   0  0  0  0  0  0  0  0  0  0  0  0
    0.4169    4.5254    4.6269 H   0  0  0  0  0  0  0  0  0  0  0  0
   -3.1185    4.0792    3.5531 H   0  0  0  0  0  0  0  0  0  0  0  0
   -4.8827    3.3289    5.1414 H   0  0  0  0  0  0  0  0  0  0  0  0
   -4.1930    2.4911    7.3811 H   0  0  0  0  0  0  0  0  0  0  0  0
   -0.2096    3.0758    6.5681 H   0  0  0  0  0  0  0  0  0  0  0  0
  1  2  1  0  0  0  0
  1 35  1  0  0  0  0
  1 36  1  0  0  0  0
  1 37  1  0  0  0  0
  2  3  1  0  0  0  0
  3  4  1  0  0  0  0
  3 24  2  0  0  0  0
  4  5  2  0  0  0  0
  4 38  1  0  0  0  0
  5  6  1  0  0  0  0
  5 22  1  0  0  0  0
  6  7  2  0  0  0  0
  7  8  1  0  0  0  0
  7 39  1  0  0  0  0
  8  9  1  0  0  0  0
  8 11  2  0  0  0  0
  9 10  3  0  0  0  0
 11 12  1  0  0  0  0
 11 22  1  0  0  0  0
 12 13  1  0  0  0  0
 12 40  1  0  0  0  0
 13 14  1  0  0  0  0
 13 15  1  0  0  0  0
 13 41  1  6  0  0  0
 14 15  1  0  0  0  0
 14 42  1  0  0  0  0
 14 43  1  0  0  0  0
 15 16  1  0  0  0  0
 15 44  1  1  0  0  0
 16 17  1  0  0  0  0
 16 21  2  0  0  0  0
 17 18  2  0  0  0  0
 17 45  1  0  0  0  0
 18 19  1  0  0  0  0
 18 46  1  0  0  0  0
 19 20  2  0  0  0  0
 19 47  1  0  0  0  0
 20 21  1  0  0  0  0
 20 48  1  0  0  0  0
 21 49  1  0  0  0  0
 22 23  2  0  0  0  0
 23 24  1  0  0  0  0
 23 50  1  0  0  0  0
 24 25  1  0  0  0  0
 25 26  1  0  0  0  0
 26 27  1  0  0  0  0
 26 51  1  0  0  0  0
 26 52  1  0  0  0  0
 27 28  1  0  0  0  0
 27 53  1  0  0  0  0
 27 54  1  0  0  0  0
 28 29  1  0  0  0  0
 28 55  1  0  0  0  0
 28 56  1  0  0  0  0
 29 30  1  0  0  0  0
 29 34  2  0  0  0  0
 30 31  2  0  0  0  0
 30 57  1  0  0  0  0
 31 32  1  0  0  0  0
 31 58  1  0  0  0  0
 32 33  2  0  0  0  0
 32 59  1  0  0  0  0
 33 34  1  0  0  0  0
 34 60  1  0  0  0  0
M  END
$$$$
