CHEMBL1242572
 OpenBabel04072215363D

 41 45  0  0  0  0  0  0  0  0999 V2000
    1.1225    0.2131   -0.0349 N   0  0  0  0  0  0  0  0  0  0  0  0
    2.4981    0.0374   -0.0744 C   0  0  0  0  0  0  0  0  0  0  0  0
    3.2262    1.1728   -0.0692 N   0  0  0  0  0  0  0  0  0  0  0  0
    4.5672    1.0793   -0.0624 C   0  0  0  0  0  0  0  0  0  0  0  0
    5.3168   -0.0311   -0.0469 N   0  0  0  0  0  0  0  0  0  0  0  0
    4.5518   -1.1399   -0.0661 C   0  0  0  0  0  0  0  0  0  0  0  0
    3.1698   -1.1989   -0.0969 C   0  0  0  0  0  0  0  0  0  0  0  0
    2.8638   -2.6000   -0.1506 C   0  0  0  0  0  0  0  0  0  0  0  0
    1.5605   -3.2755   -0.2672 C   0  0  0  0  0  0  0  0  0  0  0  0
    0.5025   -2.6787   -0.9710 C   0  0  0  0  0  0  0  0  0  0  0  0
   -0.7640   -3.2795   -1.0612 C   0  0  0  0  0  0  0  0  0  0  0  0
   -0.9428   -4.5492   -0.4951 C   0  0  0  0  0  0  0  0  0  0  0  0
   -1.9988   -5.4808   -0.4043 C   0  0  0  0  0  0  0  0  0  0  0  0
   -1.6386   -6.6020    0.2297 N   0  0  0  0  0  0  0  0  0  0  0  0
   -0.3506   -6.3840    0.5443 N   0  0  0  0  0  0  0  0  0  0  0  0
    0.1224   -5.1597    0.1548 C   0  0  0  0  0  0  0  0  0  0  0  0
    1.3755   -4.5494    0.3013 C   0  0  0  0  0  0  0  0  0  0  0  0
    3.9922   -3.3383   -0.0789 N   0  0  0  0  0  0  0  0  0  0  0  0
    4.9919   -2.4331   -0.0592 N   0  0  0  0  0  0  0  0  0  0  0  0
    6.3738   -2.8695   -0.0478 C   0  0  0  0  0  0  0  0  0  0  0  0
    6.7604   -3.7453   -1.2410 C   0  0  0  0  0  0  0  0  0  0  0  0
    7.9941   -4.5216   -0.7856 C   0  0  0  0  0  0  0  0  0  0  0  0
    8.0567   -4.3910    0.7360 C   0  0  0  0  0  0  0  0  0  0  0  0
    6.7491   -3.7313    1.1569 C   0  0  0  0  0  0  0  0  0  0  0  0
    0.8994    1.1767    0.1861 H   0  0  0  0  0  0  0  0  0  0  0  0
    0.6258   -0.4825    0.5095 H   0  0  0  0  0  0  0  0  0  0  0  0
    5.1078    2.0233   -0.0649 H   0  0  0  0  0  0  0  0  0  0  0  0
    0.6434   -1.7349   -1.4948 H   0  0  0  0  0  0  0  0  0  0  0  0
   -1.5736   -2.7799   -1.5855 H   0  0  0  0  0  0  0  0  0  0  0  0
   -3.0067   -5.3957   -0.7885 H   0  0  0  0  0  0  0  0  0  0  0  0
    0.1596   -7.1186    1.0246 H   0  0  0  0  0  0  0  0  0  0  0  0
    2.1880   -5.0529    0.8189 H   0  0  0  0  0  0  0  0  0  0  0  0
    7.0104   -1.9749   -0.0508 H   0  0  0  0  0  0  0  0  0  0  0  0
    6.9638   -3.1476   -2.1360 H   0  0  0  0  0  0  0  0  0  0  0  0
    5.9632   -4.4527   -1.5005 H   0  0  0  0  0  0  0  0  0  0  0  0
    8.9040   -4.1121   -1.2377 H   0  0  0  0  0  0  0  0  0  0  0  0
    7.9233   -5.5708   -1.0915 H   0  0  0  0  0  0  0  0  0  0  0  0
    8.9068   -3.7576    1.0163 H   0  0  0  0  0  0  0  0  0  0  0  0
    8.1967   -5.3610    1.2238 H   0  0  0  0  0  0  0  0  0  0  0  0
    6.8680   -3.1387    2.0686 H   0  0  0  0  0  0  0  0  0  0  0  0
    5.9936   -4.5001    1.3560 H   0  0  0  0  0  0  0  0  0  0  0  0
  1  2  1  0  0  0  0
  1 25  1  0  0  0  0
  1 26  1  0  0  0  0
  2  3  1  0  0  0  0
  2  7  2  0  0  0  0
  3  4  2  0  0  0  0
  4  5  1  0  0  0  0
  4 27  1  0  0  0  0
  5  6  2  0  0  0  0
  6  7  1  0  0  0  0
  6 19  1  0  0  0  0
  7  8  1  0  0  0  0
  8  9  1  0  0  0  0
  8 18  2  0  0  0  0
  9 10  1  0  0  0  0
  9 17  2  0  0  0  0
 10 11  2  0  0  0  0
 10 28  1  0  0  0  0
 11 12  1  0  0  0  0
 11 29  1  0  0  0  0
 12 13  1  0  0  0  0
 12 16  2  0  0  0  0
 13 14  2  0  0  0  0
 13 30  1  0  0  0  0
 14 15  1  0  0  0  0
 15 16  1  0  0  0  0
 15 31  1  0  0  0  0
 16 17  1  0  0  0  0
 17 32  1  0  0  0  0
 18 19  1  0  0  0  0
 19 20  1  0  0  0  0
 20 21  1  0  0  0  0
 20 24  1  0  0  0  0
 20 33  1  0  0  0  0
 21 22  1  0  0  0  0
 21 34  1  0  0  0  0
 21 35  1  0  0  0  0
 22 23  1  0  0  0  0
 22 36  1  0  0  0  0
 22 37  1  0  0  0  0
 23 24  1  0  0  0  0
 23 38  1  0  0  0  0
 23 39  1  0  0  0  0
 24 40  1  0  0  0  0
 24 41  1  0  0  0  0
M  END
$$$$
