CHEMBL3633760
 OpenBabel04072215373D

 50 52  0  0  0  0  0  0  0  0999 V2000
    2.8006   -0.2902    1.4475 C   0  0  0  0  0  0  0  0  0  0  0  0
    2.4632    0.0752    0.1157 O   0  0  0  0  0  0  0  0  0  0  0  0
    3.1300   -0.4771   -0.9390 C   0  0  0  0  0  0  0  0  0  0  0  0
    4.3388   -1.1716   -0.8221 C   0  0  0  0  0  0  0  0  0  0  0  0
    4.9620   -1.7686   -1.9096 C   0  0  0  0  0  0  0  0  0  0  0  0
    6.1017   -2.4291   -1.6893 N   0  0  0  0  0  0  0  0  0  0  0  0
    6.6810   -2.9926   -2.7514 C   0  0  0  0  0  0  0  0  0  0  0  0
    6.2393   -2.9322   -4.0064 N   0  0  0  0  0  0  0  0  0  0  0  0
    5.0989   -2.2493   -4.2249 C   0  0  0  0  0  0  0  0  0  0  0  0
    4.6371   -2.1093   -5.5642 N   0  0  0  0  0  0  0  0  0  0  0  0
    5.1970   -2.8059   -6.6607 C   0  0  0  0  0  0  0  0  0  0  0  0
    5.3749   -4.1961   -6.6063 C   0  0  0  0  0  0  0  0  0  0  0  0
    5.9936   -4.8844   -7.6501 C   0  0  0  0  0  0  0  0  0  0  0  0
    6.4378   -4.1869   -8.7700 C   0  0  0  0  0  0  0  0  0  0  0  0
    6.2412   -2.8096   -8.8449 C   0  0  0  0  0  0  0  0  0  0  0  0
    6.7975   -1.9451  -10.2266 Cl  0  0  0  0  0  0  0  0  0  0  0  0
    5.6164   -2.1175   -7.8043 C   0  0  0  0  0  0  0  0  0  0  0  0
    4.3794   -1.6536   -3.1752 C   0  0  0  0  0  0  0  0  0  0  0  0
    3.1552   -0.9593   -3.3113 C   0  0  0  0  0  0  0  0  0  0  0  0
    2.5566   -0.3422   -2.2106 C   0  0  0  0  0  0  0  0  0  0  0  0
    1.3816    0.3038   -2.4978 O   0  0  0  0  0  0  0  0  0  0  0  0
    1.2679    1.6194   -1.9468 C   0  0  0  0  0  0  0  0  0  0  0  0
    0.1121    2.3535   -2.6346 C   0  0  0  0  0  0  0  0  0  0  0  0
   -1.2030    1.5841   -2.4837 C   0  0  0  0  0  0  0  0  0  0  0  0
   -2.4053    2.3655   -3.0066 C   0  0  0  0  0  0  0  0  0  0  0  0
   -3.6854    1.5675   -2.8560 C   0  0  0  0  0  0  0  0  0  0  0  0
   -3.7627    0.4620   -2.3253 O   0  0  0  0  0  0  0  0  0  0  0  0
   -4.7923    2.1942   -3.3773 N   0  0  0  0  0  0  0  0  0  0  0  0
   -6.0224    1.5278   -3.1661 O   0  0  0  0  0  0  0  0  0  0  0  0
    3.2989    0.5548    1.9317 H   0  0  0  0  0  0  0  0  0  0  0  0
    3.4116   -1.1897    1.5478 H   0  0  0  0  0  0  0  0  0  0  0  0
    1.8661   -0.4864    1.9816 H   0  0  0  0  0  0  0  0  0  0  0  0
    4.8472   -1.2661    0.1315 H   0  0  0  0  0  0  0  0  0  0  0  0
    7.5986   -3.5444   -2.5799 H   0  0  0  0  0  0  0  0  0  0  0  0
    4.5145   -1.1218   -5.7638 H   0  0  0  0  0  0  0  0  0  0  0  0
    5.0447   -4.7483   -5.7285 H   0  0  0  0  0  0  0  0  0  0  0  0
    6.1407   -5.9583   -7.5764 H   0  0  0  0  0  0  0  0  0  0  0  0
    6.9369   -4.7191   -9.5743 H   0  0  0  0  0  0  0  0  0  0  0  0
    5.4920   -1.0411   -7.8760 H   0  0  0  0  0  0  0  0  0  0  0  0
    2.6575   -0.9016   -4.2765 H   0  0  0  0  0  0  0  0  0  0  0  0
    2.1966    2.1832   -2.0989 H   0  0  0  0  0  0  0  0  0  0  0  0
    1.0382    1.5717   -0.8789 H   0  0  0  0  0  0  0  0  0  0  0  0
    0.3352    2.4763   -3.7011 H   0  0  0  0  0  0  0  0  0  0  0  0
    0.0172    3.3545   -2.1975 H   0  0  0  0  0  0  0  0  0  0  0  0
   -1.3628    1.3373   -1.4266 H   0  0  0  0  0  0  0  0  0  0  0  0
   -1.1328    0.6306   -3.0219 H   0  0  0  0  0  0  0  0  0  0  0  0
   -2.2676    2.6083   -4.0664 H   0  0  0  0  0  0  0  0  0  0  0  0
   -2.5168    3.3027   -2.4489 H   0  0  0  0  0  0  0  0  0  0  0  0
   -4.8392    3.1897   -3.5620 H   0  0  0  0  0  0  0  0  0  0  0  0
   -5.7370    0.7002   -2.7172 H   0  0  0  0  0  0  0  0  0  0  0  0
  1  2  1  0  0  0  0
  1 30  1  0  0  0  0
  1 31  1  0  0  0  0
  1 32  1  0  0  0  0
  2  3  1  0  0  0  0
  3  4  1  0  0  0  0
  3 20  2  0  0  0  0
  4  5  2  0  0  0  0
  4 33  1  0  0  0  0
  5  6  1  0  0  0  0
  5 18  1  0  0  0  0
  6  7  2  0  0  0  0
  7  8  1  0  0  0  0
  7 34  1  0  0  0  0
  8  9  2  0  0  0  0
  9 10  1  0  0  0  0
  9 18  1  0  0  0  0
 10 11  1  0  0  0  0
 10 35  1  0  0  0  0
 11 12  1  0  0  0  0
 11 17  2  0  0  0  0
 12 13  2  0  0  0  0
 12 36  1  0  0  0  0
 13 14  1  0  0  0  0
 13 37  1  0  0  0  0
 14 15  2  0  0  0  0
 14 38  1  0  0  0  0
 15 16  1  0  0  0  0
 15 17  1  0  0  0  0
 17 39  1  0  0  0  0
 18 19  2  0  0  0  0
 19 20  1  0  0  0  0
 19 40  1  0  0  0  0
 20 21  1  0  0  0  0
 21 22  1  0  0  0  0
 22 23  1  0  0  0  0
 22 41  1  0  0  0  0
 22 42  1  0  0  0  0
 23 24  1  0  0  0  0
 23 43  1  0  0  0  0
 23 44  1  0  0  0  0
 24 25  1  0  0  0  0
 24 45  1  0  0  0  0
 24 46  1  0  0  0  0
 25 26  1  0  0  0  0
 25 47  1  0  0  0  0
 25 48  1  0  0  0  0
 26 27  2  0  0  0  0
 26 28  1  0  0  0  0
 28 29  1  0  0  0  0
 28 49  1  0  0  0  0
 29 50  1  0  0  0  0
M  END
$$$$
