CHEMBL2409775
 OpenBabel04072215363D

 53 57  0  0  0  0  0  0  0  0999 V2000
   -2.3137    0.6037   -0.9866 C   0  0  0  0  0  0  0  0  0  0  0  0
   -1.0130    0.0206   -0.5859 C   0  0  0  0  0  0  0  0  0  0  0  0
   -0.6000   -1.3322   -0.5684 C   0  0  0  0  0  0  0  0  0  0  0  0
    0.7137   -1.3293   -0.1209 C   0  0  0  0  0  0  0  0  0  0  0  0
    1.6585   -2.4097    0.0972 C   0  0  0  0  0  0  0  0  0  0  0  0
    2.8022   -2.1656    0.4800 O   0  0  0  0  0  0  0  0  0  0  0  0
    1.2280   -3.7030   -0.1776 N   0  0  0  0  0  0  0  0  0  0  0  0
    2.0221   -4.8711    0.0215 C   0  0  0  0  0  0  0  0  0  0  0  0
    3.1624   -4.8627    0.8380 C   0  0  0  0  0  0  0  0  0  0  0  0
    4.0173   -5.9584    0.9014 C   0  0  0  0  0  0  0  0  0  0  0  0
    3.7153   -7.1074    0.1884 C   0  0  0  0  0  0  0  0  0  0  0  0
    2.5012   -7.1999   -0.4965 C   0  0  0  0  0  0  0  0  0  0  0  0
    2.0797   -8.3587   -1.1184 O   0  0  0  0  0  0  0  0  0  0  0  0
    2.4691   -9.6091   -0.6418 C   0  0  0  0  0  0  0  0  0  0  0  0
    2.6135   -9.8575    0.7959 C   0  0  0  0  0  0  0  0  0  0  0  0
    3.0452  -11.0424    1.2716 C   0  0  0  0  0  0  0  0  0  0  0  0
    3.2916  -12.1118    0.3692 C   0  0  0  0  0  0  0  0  0  0  0  0
    3.6780  -13.3559    0.5502 N   0  0  0  0  0  0  0  0  0  0  0  0
    3.7337  -13.8480   -0.7240 C   0  0  0  0  0  0  0  0  0  0  0  0
    4.1606  -15.1359   -0.8937 N   0  0  0  0  0  0  0  0  0  0  0  0
    4.4445  -15.6957   -2.1122 C   0  0  0  0  0  0  0  0  0  0  0  0
    4.3765  -15.1679   -3.2125 O   0  0  0  0  0  0  0  0  0  0  0  0
    4.9552  -17.0991   -2.0058 C   0  0  0  0  0  0  0  0  0  0  0  0
    6.3905  -17.3833   -2.3893 C   0  0  0  0  0  0  0  0  0  0  0  0
    5.2756  -17.8958   -3.2524 C   0  0  0  0  0  0  0  0  0  0  0  0
    3.3615  -12.9949   -1.6742 N   0  0  0  0  0  0  0  0  0  0  0  0
    3.0827  -11.8703   -0.9897 N   0  0  0  0  0  0  0  0  0  0  0  0
    2.6714  -10.6356   -1.4852 C   0  0  0  0  0  0  0  0  0  0  0  0
    1.6717   -6.0702   -0.6128 C   0  0  0  0  0  0  0  0  0  0  0  0
    0.9917    0.0060    0.1128 N   0  0  0  0  0  0  0  0  0  0  0  0
    2.1889    0.6457    0.6113 C   0  0  0  0  0  0  0  0  0  0  0  0
   -0.0390    0.8281   -0.1686 N   0  0  0  0  0  0  0  0  0  0  0  0
   -3.0124   -0.1688   -1.3186 H   0  0  0  0  0  0  0  0  0  0  0  0
   -2.1755    1.3152   -1.8081 H   0  0  0  0  0  0  0  0  0  0  0  0
   -2.7685    1.1392   -0.1461 H   0  0  0  0  0  0  0  0  0  0  0  0
   -1.1996   -2.1851   -0.8515 H   0  0  0  0  0  0  0  0  0  0  0  0
    0.3637   -3.8157   -0.6874 H   0  0  0  0  0  0  0  0  0  0  0  0
    3.4279   -4.0027    1.4437 H   0  0  0  0  0  0  0  0  0  0  0  0
    4.9192   -5.9034    1.5049 H   0  0  0  0  0  0  0  0  0  0  0  0
    4.4209   -7.9322    0.2115 H   0  0  0  0  0  0  0  0  0  0  0  0
    2.3834   -9.0572    1.4926 H   0  0  0  0  0  0  0  0  0  0  0  0
    3.1939  -11.2063    2.3331 H   0  0  0  0  0  0  0  0  0  0  0  0
    4.3477  -15.6298   -0.0362 H   0  0  0  0  0  0  0  0  0  0  0  0
    4.5466  -17.6733   -1.1795 H   0  0  0  0  0  0  0  0  0  0  0  0
    6.9473  -18.1004   -1.7993 H   0  0  0  0  0  0  0  0  0  0  0  0
    6.9893  -16.5678   -2.7832 H   0  0  0  0  0  0  0  0  0  0  0  0
    5.0730  -18.9600   -3.2467 H   0  0  0  0  0  0  0  0  0  0  0  0
    5.1245  -17.4253   -4.2189 H   0  0  0  0  0  0  0  0  0  0  0  0
    2.5566  -10.5678   -2.5584 H   0  0  0  0  0  0  0  0  0  0  0  0
    0.7744   -6.1383   -1.2210 H   0  0  0  0  0  0  0  0  0  0  0  0
    2.9922   -0.0520    0.8201 H   0  0  0  0  0  0  0  0  0  0  0  0
    1.9324    1.1706    1.5364 H   0  0  0  0  0  0  0  0  0  0  0  0
    2.5306    1.3602   -0.1432 H   0  0  0  0  0  0  0  0  0  0  0  0
  1  2  1  0  0  0  0
  1 33  1  0  0  0  0
  1 34  1  0  0  0  0
  1 35  1  0  0  0  0
  2  3  1  0  0  0  0
  2 32  2  0  0  0  0
  3  4  2  0  0  0  0
  3 36  1  0  0  0  0
  4  5  1  0  0  0  0
  4 30  1  0  0  0  0
  5  6  2  0  0  0  0
  5  7  1  0  0  0  0
  7  8  1  0  0  0  0
  7 37  1  0  0  0  0
  8  9  1  0  0  0  0
  8 29  2  0  0  0  0
  9 10  2  0  0  0  0
  9 38  1  0  0  0  0
 10 11  1  0  0  0  0
 10 39  1  0  0  0  0
 11 12  2  0  0  0  0
 11 40  1  0  0  0  0
 12 13  1  0  0  0  0
 12 29  1  0  0  0  0
 13 14  1  0  0  0  0
 14 15  1  0  0  0  0
 14 28  2  0  0  0  0
 15 16  2  0  0  0  0
 15 41  1  0  0  0  0
 16 17  1  0  0  0  0
 16 42  1  0  0  0  0
 17 18  2  0  0  0  0
 17 27  1  0  0  0  0
 18 19  1  0  0  0  0
 19 20  1  0  0  0  0
 19 26  2  0  0  0  0
 20 21  1  0  0  0  0
 20 43  1  0  0  0  0
 21 22  2  0  0  0  0
 21 23  1  0  0  0  0
 23 24  1  0  0  0  0
 23 25  1  0  0  0  0
 23 44  1  0  0  0  0
 24 25  1  0  0  0  0
 24 45  1  0  0  0  0
 24 46  1  0  0  0  0
 25 47  1  0  0  0  0
 25 48  1  0  0  0  0
 26 27  1  0  0  0  0
 27 28  1  0  0  0  0
 28 49  1  0  0  0  0
 29 50  1  0  0  0  0
 30 31  1  0  0  0  0
 30 32  1  0  0  0  0
 31 51  1  0  0  0  0
 31 52  1  0  0  0  0
 31 53  1  0  0  0  0
M  END
$$$$
