CHEMBL3321894
 OpenBabel04072215363D

 44 48  0  0  0  0  0  0  0  0999 V2000
    2.2353    0.1621    1.1094 C   0  0  0  0  0  0  0  0  0  0  0  0
    0.8524    0.1077    0.5302 C   0  0  0  0  0  0  0  0  0  0  0  0
    0.2498    1.2440   -0.0170 C   0  0  0  0  0  0  0  0  0  0  0  0
   -1.0351    1.1752   -0.5565 C   0  0  0  0  0  0  0  0  0  0  0  0
   -1.7281   -0.0375   -0.5634 C   0  0  0  0  0  0  0  0  0  0  0  0
   -1.1405   -1.1861   -0.0213 C   0  0  0  0  0  0  0  0  0  0  0  0
   -1.8454   -2.4620    0.0027 C   0  0  0  0  0  0  0  0  0  0  0  0
   -1.6882   -3.4080    0.9082 N   0  0  0  0  0  0  0  0  0  0  0  0
   -2.5209   -4.4263    0.5354 C   0  0  0  0  0  0  0  0  0  0  0  0
   -2.7441   -5.6557    1.1560 C   0  0  0  0  0  0  0  0  0  0  0  0
   -3.6561   -6.5408    0.5663 C   0  0  0  0  0  0  0  0  0  0  0  0
   -4.3482   -6.2220   -0.6179 C   0  0  0  0  0  0  0  0  0  0  0  0
   -5.3772   -7.0655   -1.1274 N   0  0  0  0  0  0  0  0  0  0  0  0
   -5.4251   -8.4694   -0.9629 C   0  0  0  0  0  0  0  0  0  0  0  0
   -4.2458   -9.1156   -0.8894 N   0  0  0  0  0  0  0  0  0  0  0  0
   -4.2917  -10.4133   -0.6309 C   0  0  0  0  0  0  0  0  0  0  0  0
   -5.3983  -11.1447   -0.4625 N   0  0  0  0  0  0  0  0  0  0  0  0
   -6.5677  -10.5110   -0.5781 C   0  0  0  0  0  0  0  0  0  0  0  0
   -7.7463  -11.2318   -0.3864 C   0  0  0  0  0  0  0  0  0  0  0  0
   -9.0065  -10.6346   -0.4922 C   0  0  0  0  0  0  0  0  0  0  0  0
   -9.1044   -9.2877   -0.8144 C   0  0  0  0  0  0  0  0  0  0  0  0
   -7.9385   -8.5458   -1.0152 C   0  0  0  0  0  0  0  0  0  0  0  0
   -6.6606   -9.1471   -0.8775 C   0  0  0  0  0  0  0  0  0  0  0  0
   -4.1325   -4.9744   -1.2313 C   0  0  0  0  0  0  0  0  0  0  0  0
   -3.2061   -4.1132   -0.6304 C   0  0  0  0  0  0  0  0  0  0  0  0
   -2.7544   -2.8617   -0.9526 N   0  0  0  0  0  0  0  0  0  0  0  0
    0.1451   -1.1006    0.5313 C   0  0  0  0  0  0  0  0  0  0  0  0
    2.6479    1.1753    1.0665 H   0  0  0  0  0  0  0  0  0  0  0  0
    2.9044   -0.4970    0.5475 H   0  0  0  0  0  0  0  0  0  0  0  0
    2.2203   -0.1500    2.1586 H   0  0  0  0  0  0  0  0  0  0  0  0
    0.7725    2.1964   -0.0160 H   0  0  0  0  0  0  0  0  0  0  0  0
   -1.5026    2.0671   -0.9608 H   0  0  0  0  0  0  0  0  0  0  0  0
   -2.7360   -0.0628   -0.9652 H   0  0  0  0  0  0  0  0  0  0  0  0
   -2.2261   -5.9068    2.0738 H   0  0  0  0  0  0  0  0  0  0  0  0
   -3.8076   -7.4983    1.0576 H   0  0  0  0  0  0  0  0  0  0  0  0
   -5.5963   -6.8437   -2.0933 H   0  0  0  0  0  0  0  0  0  0  0  0
   -3.3355  -10.9236   -0.5389 H   0  0  0  0  0  0  0  0  0  0  0  0
   -7.6803  -12.2898   -0.1366 H   0  0  0  0  0  0  0  0  0  0  0  0
   -9.9055  -11.2234   -0.3228 H   0  0  0  0  0  0  0  0  0  0  0  0
  -10.0752   -8.8101   -0.8988 H   0  0  0  0  0  0  0  0  0  0  0  0
   -8.0250   -7.4930   -1.2716 H   0  0  0  0  0  0  0  0  0  0  0  0
   -4.6600   -4.6896   -2.1337 H   0  0  0  0  0  0  0  0  0  0  0  0
   -3.0167   -2.3214   -1.7625 H   0  0  0  0  0  0  0  0  0  0  0  0
    0.5957   -1.9922    0.9696 H   0  0  0  0  0  0  0  0  0  0  0  0
  1  2  1  0  0  0  0
  1 28  1  0  0  0  0
  1 29  1  0  0  0  0
  1 30  1  0  0  0  0
  2  3  1  0  0  0  0
  2 27  2  0  0  0  0
  3  4  2  0  0  0  0
  3 31  1  0  0  0  0
  4  5  1  0  0  0  0
  4 32  1  0  0  0  0
  5  6  2  0  0  0  0
  5 33  1  0  0  0  0
  6  7  1  0  0  0  0
  6 27  1  0  0  0  0
  7  8  2  0  0  0  0
  7 26  1  0  0  0  0
  8  9  1  0  0  0  0
  9 10  1  0  0  0  0
  9 25  2  0  0  0  0
 10 11  2  0  0  0  0
 10 34  1  0  0  0  0
 11 12  1  0  0  0  0
 11 35  1  0  0  0  0
 12 13  1  0  0  0  0
 12 24  2  0  0  0  0
 13 14  1  0  0  0  0
 13 36  1  0  0  0  0
 14 15  1  0  0  0  0
 14 23  2  0  0  0  0
 15 16  2  0  0  0  0
 16 17  1  0  0  0  0
 16 37  1  0  0  0  0
 17 18  2  0  0  0  0
 18 19  1  0  0  0  0
 18 23  1  0  0  0  0
 19 20  2  0  0  0  0
 19 38  1  0  0  0  0
 20 21  1  0  0  0  0
 20 39  1  0  0  0  0
 21 22  2  0  0  0  0
 21 40  1  0  0  0  0
 22 23  1  0  0  0  0
 22 41  1  0  0  0  0
 24 25  1  0  0  0  0
 24 42  1  0  0  0  0
 25 26  1  0  0  0  0
 26 43  1  0  0  0  0
 27 44  1  0  0  0  0
M  END
$$$$
