CHEMBL3985195
 OpenBabel04072215373D

 43 46  0  0  0  0  0  0  0  0999 V2000
    3.5774   -3.9777   -1.3911 N   0  0  0  0  0  0  0  0  0  0  0  0
    2.7391   -2.9400   -1.6603 C   0  0  0  0  0  0  0  0  0  0  0  0
    1.5309   -3.0419   -1.8152 O   0  0  0  0  0  0  0  0  0  0  0  0
    3.4052   -1.7081   -1.8620 N   0  0  0  0  0  0  0  0  0  0  0  0
    4.4981   -1.1686   -1.1605 C   0  0  0  0  0  0  0  0  0  0  0  0
    5.1381   -1.7383    0.0070 C   0  0  0  0  0  0  0  0  0  0  0  0
    4.5591   -2.4846    1.0136 C   0  0  0  0  0  0  0  0  0  0  0  0
    5.4937   -3.0145    1.9601 C   0  0  0  0  0  0  0  0  0  0  0  0
    5.2320   -3.9118    2.9995 N   0  0  0  0  0  0  0  0  0  0  0  0
    4.0129   -4.5447    3.1539 C   0  0  0  0  0  0  0  0  0  0  0  0
    3.0727   -4.4029    2.3817 O   0  0  0  0  0  0  0  0  0  0  0  0
    3.9605   -5.3452    4.2876 N   0  0  0  0  0  0  0  0  0  0  0  0
    2.7978   -6.0436    4.7047 C   0  0  0  0  0  0  0  0  0  0  0  0
    1.7245   -6.3184    3.8445 C   0  0  0  0  0  0  0  0  0  0  0  0
    0.5361   -6.8674    4.3251 C   0  0  0  0  0  0  0  0  0  0  0  0
    0.4270   -7.1791    5.6715 C   0  0  0  0  0  0  0  0  0  0  0  0
   -0.7382   -7.6630    6.1267 F   0  0  0  0  0  0  0  0  0  0  0  0
    1.5103   -6.9843    6.5274 C   0  0  0  0  0  0  0  0  0  0  0  0
    1.3795   -7.3934    8.1956 Cl  0  0  0  0  0  0  0  0  0  0  0  0
    2.6997   -6.4297    6.0459 C   0  0  0  0  0  0  0  0  0  0  0  0
    6.7518   -2.5047    1.7256 C   0  0  0  0  0  0  0  0  0  0  0  0
    6.8083   -1.5119    0.3303 S   0  0  0  0  0  0  0  0  0  0  0  0
    4.8017    0.0504   -1.7433 C   0  0  0  0  0  0  0  0  0  0  0  0
    3.9167    0.2784   -2.8212 C   0  0  0  0  0  0  0  0  0  0  0  0
    3.7844    1.3230   -3.7588 C   0  0  0  0  0  0  0  0  0  0  0  0
    2.8088    1.2353   -4.7560 C   0  0  0  0  0  0  0  0  0  0  0  0
    1.9628    0.1347   -4.8179 C   0  0  0  0  0  0  0  0  0  0  0  0
    2.0612   -0.8975   -3.8807 C   0  0  0  0  0  0  0  0  0  0  0  0
    3.0463   -0.8073   -2.8765 C   0  0  0  0  0  0  0  0  0  0  0  0
    3.1587   -4.8782   -1.1984 H   0  0  0  0  0  0  0  0  0  0  0  0
    4.5828   -3.8977   -1.3749 H   0  0  0  0  0  0  0  0  0  0  0  0
    3.4960   -2.6889    1.0263 H   0  0  0  0  0  0  0  0  0  0  0  0
    6.0150   -4.2080    3.5623 H   0  0  0  0  0  0  0  0  0  0  0  0
    4.6780   -5.1983    4.9818 H   0  0  0  0  0  0  0  0  0  0  0  0
    1.7698   -6.1037    2.7799 H   0  0  0  0  0  0  0  0  0  0  0  0
   -0.3043   -7.0264    3.6566 H   0  0  0  0  0  0  0  0  0  0  0  0
    3.5231   -6.2655    6.7359 H   0  0  0  0  0  0  0  0  0  0  0  0
    7.6609   -2.6732    2.2852 H   0  0  0  0  0  0  0  0  0  0  0  0
    5.5825    0.7255   -1.4167 H   0  0  0  0  0  0  0  0  0  0  0  0
    4.4469    2.1830   -3.7208 H   0  0  0  0  0  0  0  0  0  0  0  0
    2.7167    2.0309   -5.4908 H   0  0  0  0  0  0  0  0  0  0  0  0
    1.2151    0.0705   -5.6052 H   0  0  0  0  0  0  0  0  0  0  0  0
    1.3957   -1.7547   -3.9453 H   0  0  0  0  0  0  0  0  0  0  0  0
  1  2  1  0  0  0  0
  1 30  1  0  0  0  0
  1 31  1  0  0  0  0
  2  3  2  0  0  0  0
  2  4  1  0  0  0  0
  4  5  1  0  0  0  0
  4 29  1  0  0  0  0
  5  6  1  0  0  0  0
  5 23  2  0  0  0  0
  6  7  2  0  0  0  0
  6 22  1  0  0  0  0
  7  8  1  0  0  0  0
  7 32  1  0  0  0  0
  8  9  1  0  0  0  0
  8 21  2  0  0  0  0
  9 10  1  0  0  0  0
  9 33  1  0  0  0  0
 10 11  2  0  0  0  0
 10 12  1  0  0  0  0
 12 13  1  0  0  0  0
 12 34  1  0  0  0  0
 13 14  1  0  0  0  0
 13 20  2  0  0  0  0
 14 15  2  0  0  0  0
 14 35  1  0  0  0  0
 15 16  1  0  0  0  0
 15 36  1  0  0  0  0
 16 17  1  0  0  0  0
 16 18  2  0  0  0  0
 18 19  1  0  0  0  0
 18 20  1  0  0  0  0
 20 37  1  0  0  0  0
 21 22  1  0  0  0  0
 21 38  1  0  0  0  0
 23 24  1  0  0  0  0
 23 39  1  0  0  0  0
 24 25  1  0  0  0  0
 24 29  2  0  0  0  0
 25 26  2  0  0  0  0
 25 40  1  0  0  0  0
 26 27  1  0  0  0  0
 26 41  1  0  0  0  0
 27 28  2  0  0  0  0
 27 42  1  0  0  0  0
 28 29  1  0  0  0  0
 28 43  1  0  0  0  0
M  END
$$$$
