CHEMBL1079945
 OpenBabel04072215353D

 57 61  0  0  0  0  0  0  0  0999 V2000
    2.5810    0.0389    0.0721 C   0  0  0  0  0  0  0  0  0  0  0  0
    1.0756    0.0380    0.1883 C   0  0  0  0  0  0  0  0  0  0  0  0
    0.4123    1.2697    0.1267 C   0  0  0  0  0  0  0  0  0  0  0  0
   -0.9794    1.3298    0.1458 C   0  0  0  0  0  0  0  0  0  0  0  0
   -1.7366    0.1641    0.1587 C   0  0  0  0  0  0  0  0  0  0  0  0
   -3.1523    0.1364    0.1343 N   0  0  0  0  0  0  0  0  0  0  0  0
   -3.9865    1.2398    0.1779 C   0  0  0  0  0  0  0  0  0  0  0  0
   -3.6425    2.4132    0.2483 O   0  0  0  0  0  0  0  0  0  0  0  0
   -5.4499    0.9622    0.1883 C   0  0  0  0  0  0  0  0  0  0  0  0
   -6.0250   -0.1157   -0.4934 C   0  0  0  0  0  0  0  0  0  0  0  0
   -7.4137   -0.2710   -0.4959 C   0  0  0  0  0  0  0  0  0  0  0  0
   -8.2291    0.6399    0.1828 C   0  0  0  0  0  0  0  0  0  0  0  0
   -7.6679    1.7176    0.8807 C   0  0  0  0  0  0  0  0  0  0  0  0
   -8.5223    2.7035    1.6383 C   0  0  0  0  0  0  0  0  0  0  0  0
   -9.8549    2.4285    1.5727 F   0  0  0  0  0  0  0  0  0  0  0  0
   -8.2162    2.7380    2.9651 F   0  0  0  0  0  0  0  0  0  0  0  0
   -8.3819    3.9798    1.1870 F   0  0  0  0  0  0  0  0  0  0  0  0
   -6.2741    1.8736    0.8666 C   0  0  0  0  0  0  0  0  0  0  0  0
   -1.0686   -1.0656    0.2093 C   0  0  0  0  0  0  0  0  0  0  0  0
    0.3223   -1.1536    0.3316 C   0  0  0  0  0  0  0  0  0  0  0  0
    1.0059   -2.3664    0.5321 N   0  0  0  0  0  0  0  0  0  0  0  0
    0.6649   -3.5320    1.1548 C   0  0  0  0  0  0  0  0  0  0  0  0
    1.6447   -4.2285    1.7070 N   0  0  0  0  0  0  0  0  0  0  0  0
    1.7604   -5.2913    0.8519 C   0  0  0  0  0  0  0  0  0  0  0  0
    2.8540   -6.1387    0.6356 C   0  0  0  0  0  0  0  0  0  0  0  0
    2.7715   -7.0679   -0.4041 C   0  0  0  0  0  0  0  0  0  0  0  0
    1.6016   -7.1999   -1.1598 C   0  0  0  0  0  0  0  0  0  0  0  0
    0.4741   -6.4090   -0.9092 C   0  0  0  0  0  0  0  0  0  0  0  0
    0.6081   -5.4307    0.0817 C   0  0  0  0  0  0  0  0  0  0  0  0
   -0.2328   -4.4595    0.6207 N   0  0  0  0  0  0  0  0  0  0  0  0
   -1.6482   -4.5332    0.7455 C   0  0  0  0  0  0  0  0  0  0  0  0
   -2.2974   -3.7952    1.7224 C   0  0  0  0  0  0  0  0  0  0  0  0
   -3.6697   -3.9282    1.7846 C   0  0  0  0  0  0  0  0  0  0  0  0
   -4.4210   -3.1705    2.6817 N   0  0  0  0  0  0  0  0  0  0  0  0
   -4.3611   -4.7211    0.9617 N   0  0  0  0  0  0  0  0  0  0  0  0
   -3.6443   -5.4289    0.0794 C   0  0  0  0  0  0  0  0  0  0  0  0
   -2.3142   -5.3816   -0.0690 N   0  0  0  0  0  0  0  0  0  0  0  0
    2.9784    1.0543   -0.0326 H   0  0  0  0  0  0  0  0  0  0  0  0
    2.8849   -0.5193   -0.8214 H   0  0  0  0  0  0  0  0  0  0  0  0
    3.0473   -0.4019    0.9575 H   0  0  0  0  0  0  0  0  0  0  0  0
    0.9751    2.1982    0.0686 H   0  0  0  0  0  0  0  0  0  0  0  0
   -1.4341    2.3140    0.1230 H   0  0  0  0  0  0  0  0  0  0  0  0
   -3.5815   -0.7791    0.1906 H   0  0  0  0  0  0  0  0  0  0  0  0
   -5.4180   -0.8187   -1.0573 H   0  0  0  0  0  0  0  0  0  0  0  0
   -7.8668   -1.0972   -1.0406 H   0  0  0  0  0  0  0  0  0  0  0  0
   -9.3105    0.5068    0.1597 H   0  0  0  0  0  0  0  0  0  0  0  0
   -5.8218    2.7190    1.3876 H   0  0  0  0  0  0  0  0  0  0  0  0
   -1.6536   -1.9657    0.1249 H   0  0  0  0  0  0  0  0  0  0  0  0
    1.9915   -2.1922    0.7089 H   0  0  0  0  0  0  0  0  0  0  0  0
    3.7612   -6.0152    1.2160 H   0  0  0  0  0  0  0  0  0  0  0  0
    3.6364   -7.6862   -0.6342 H   0  0  0  0  0  0  0  0  0  0  0  0
    1.5696   -7.9279   -1.9672 H   0  0  0  0  0  0  0  0  0  0  0  0
   -0.4326   -6.5167   -1.4943 H   0  0  0  0  0  0  0  0  0  0  0  0
   -1.7753   -3.1389    2.4078 H   0  0  0  0  0  0  0  0  0  0  0  0
   -4.0890   -3.2642    3.6371 H   0  0  0  0  0  0  0  0  0  0  0  0
   -5.3932   -3.4619    2.5976 H   0  0  0  0  0  0  0  0  0  0  0  0
   -4.1934   -6.0996   -0.5722 H   0  0  0  0  0  0  0  0  0  0  0  0
  1  2  1  0  0  0  0
  1 38  1  0  0  0  0
  1 39  1  0  0  0  0
  1 40  1  0  0  0  0
  2  3  1  0  0  0  0
  2 20  2  0  0  0  0
  3  4  2  0  0  0  0
  3 41  1  0  0  0  0
  4  5  1  0  0  0  0
  4 42  1  0  0  0  0
  5  6  1  0  0  0  0
  5 19  2  0  0  0  0
  6  7  1  0  0  0  0
  6 43  1  0  0  0  0
  7  8  2  0  0  0  0
  7  9  1  0  0  0  0
  9 10  1  0  0  0  0
  9 18  2  0  0  0  0
 10 11  2  0  0  0  0
 10 44  1  0  0  0  0
 11 12  1  0  0  0  0
 11 45  1  0  0  0  0
 12 13  2  0  0  0  0
 12 46  1  0  0  0  0
 13 14  1  0  0  0  0
 13 18  1  0  0  0  0
 14 15  1  0  0  0  0
 14 16  1  0  0  0  0
 14 17  1  0  0  0  0
 18 47  1  0  0  0  0
 19 20  1  0  0  0  0
 19 48  1  0  0  0  0
 20 21  1  0  0  0  0
 21 22  1  0  0  0  0
 21 49  1  0  0  0  0
 22 23  2  0  0  0  0
 22 30  1  0  0  0  0
 23 24  1  0  0  0  0
 24 25  1  0  0  0  0
 24 29  2  0  0  0  0
 25 26  2  0  0  0  0
 25 50  1  0  0  0  0
 26 27  1  0  0  0  0
 26 51  1  0  0  0  0
 27 28  2  0  0  0  0
 27 52  1  0  0  0  0
 28 29  1  0  0  0  0
 28 53  1  0  0  0  0
 29 30  1  0  0  0  0
 30 31  1  0  0  0  0
 31 32  1  0  0  0  0
 31 37  2  0  0  0  0
 32 33  2  0  0  0  0
 32 54  1  0  0  0  0
 33 34  1  0  0  0  0
 33 35  1  0  0  0  0
 34 55  1  0  0  0  0
 34 56  1  0  0  0  0
 35 36  2  0  0  0  0
 36 37  1  0  0  0  0
 36 57  1  0  0  0  0
M  END
$$$$
