CHEMBL202109
 OpenBabel04072215363D

 37 39  0  0  0  0  0  0  0  0999 V2000
    1.2522   -0.5407    0.1443 O   0  0  0  0  0  0  0  0  0  0  0  0
    2.3191    0.0536   -0.0081 C   0  0  0  0  0  0  0  0  0  0  0  0
    2.8830    0.2611   -1.2598 N   0  0  0  0  0  0  0  0  0  0  0  0
    2.2946   -0.1381   -2.4796 C   0  0  0  0  0  0  0  0  0  0  0  0
    0.9333   -0.4226   -2.6023 C   0  0  0  0  0  0  0  0  0  0  0  0
    0.4088   -0.8958   -3.8009 C   0  0  0  0  0  0  0  0  0  0  0  0
    1.2325   -1.0818   -4.9098 C   0  0  0  0  0  0  0  0  0  0  0  0
    0.4662   -1.7014   -6.3247 Cl  0  0  0  0  0  0  0  0  0  0  0  0
    2.5948   -0.7706   -4.8325 C   0  0  0  0  0  0  0  0  0  0  0  0
    3.5611   -0.9504   -5.9738 C   0  0  0  0  0  0  0  0  0  0  0  0
    3.0672   -1.5035   -7.1101 F   0  0  0  0  0  0  0  0  0  0  0  0
    4.1146    0.2379   -6.3560 F   0  0  0  0  0  0  0  0  0  0  0  0
    4.6166   -1.7396   -5.6183 F   0  0  0  0  0  0  0  0  0  0  0  0
    3.1081   -0.2721   -3.6078 C   0  0  0  0  0  0  0  0  0  0  0  0
    3.0696    0.5337    1.1387 C   0  0  0  0  0  0  0  0  0  0  0  0
    4.5600    1.3703    1.0031 S   0  0  0  0  0  0  0  0  0  0  0  0
    4.6217    1.5130    2.7077 C   0  0  0  0  0  0  0  0  0  0  0  0
    3.6306    0.9618    3.3715 N   0  0  0  0  0  0  0  0  0  0  0  0
    2.7265    0.3966    2.4812 C   0  0  0  0  0  0  0  0  0  0  0  0
    1.5236   -0.3277    3.0236 C   0  0  0  0  0  0  0  0  0  0  0  0
    0.9849    0.2244    4.3403 C   0  0  0  0  0  0  0  0  0  0  0  0
   -0.2319   -0.5131    4.7853 C   0  0  0  0  0  0  0  0  0  0  0  0
   -0.3057   -1.6745    5.5862 C   0  0  0  0  0  0  0  0  0  0  0  0
   -1.5626   -2.0787    5.7807 N   0  0  0  0  0  0  0  0  0  0  0  0
   -2.3482   -1.1717    5.0889 O   0  0  0  0  0  0  0  0  0  0  0  0
   -1.5510   -0.2479    4.4972 C   0  0  0  0  0  0  0  0  0  0  0  0
    3.8417    0.5849   -1.2737 H   0  0  0  0  0  0  0  0  0  0  0  0
    0.2366   -0.2867   -1.7791 H   0  0  0  0  0  0  0  0  0  0  0  0
   -0.6522   -1.1302   -3.8493 H   0  0  0  0  0  0  0  0  0  0  0  0
    4.1705   -0.0338   -3.5412 H   0  0  0  0  0  0  0  0  0  0  0  0
    5.4343    2.0270    3.2055 H   0  0  0  0  0  0  0  0  0  0  0  0
    1.7810   -1.3895    3.1300 H   0  0  0  0  0  0  0  0  0  0  0  0
    0.7006   -0.2762    2.3049 H   0  0  0  0  0  0  0  0  0  0  0  0
    0.7408    1.2884    4.2210 H   0  0  0  0  0  0  0  0  0  0  0  0
    1.7511    0.1639    5.1224 H   0  0  0  0  0  0  0  0  0  0  0  0
    0.4987   -2.2429    6.0318 H   0  0  0  0  0  0  0  0  0  0  0  0
   -2.0652    0.5064    3.9199 H   0  0  0  0  0  0  0  0  0  0  0  0
  1  2  2  0  0  0  0
  2  3  1  0  0  0  0
  2 15  1  0  0  0  0
  3  4  1  0  0  0  0
  3 27  1  0  0  0  0
  4  5  1  0  0  0  0
  4 14  2  0  0  0  0
  5  6  2  0  0  0  0
  5 28  1  0  0  0  0
  6  7  1  0  0  0  0
  6 29  1  0  0  0  0
  7  8  1  0  0  0  0
  7  9  2  0  0  0  0
  9 10  1  0  0  0  0
  9 14  1  0  0  0  0
 10 11  1  0  0  0  0
 10 12  1  0  0  0  0
 10 13  1  0  0  0  0
 14 30  1  0  0  0  0
 15 16  1  0  0  0  0
 15 19  2  0  0  0  0
 16 17  1  0  0  0  0
 17 18  2  0  0  0  0
 17 31  1  0  0  0  0
 18 19  1  0  0  0  0
 19 20  1  0  0  0  0
 20 21  1  0  0  0  0
 20 32  1  0  0  0  0
 20 33  1  0  0  0  0
 21 22  1  0  0  0  0
 21 34  1  0  0  0  0
 21 35  1  0  0  0  0
 22 23  1  0  0  0  0
 22 26  2  0  0  0  0
 23 24  2  0  0  0  0
 23 36  1  0  0  0  0
 24 25  1  0  0  0  0
 25 26  1  0  0  0  0
 26 37  1  0  0  0  0
M  END
$$$$
