CHEMBL3985678
 OpenBabel04072215373D

 62 65  0  0  1  0  0  0  0  0999 V2000
    0.8966   -2.7092   -3.6152 C   0  0  0  0  0  0  0  0  0  0  0  0
    1.8784   -3.3670   -2.8117 O   0  0  0  0  0  0  0  0  0  0  0  0
    2.8340   -2.5701   -2.2273 C   0  0  0  0  0  0  0  0  0  0  0  0
    2.6909   -1.1949   -2.0353 C   0  0  0  0  0  0  0  0  0  0  0  0
    3.6947   -0.4806   -1.3885 C   0  0  0  0  0  0  0  0  0  0  0  0
    3.6713    0.8625   -1.1178 O   0  0  0  0  0  0  0  0  0  0  0  0
    2.5655    1.6044   -1.6197 C   0  0  0  0  0  0  0  0  0  0  0  0
    4.8424   -1.1463   -0.9303 C   0  0  0  0  0  0  0  0  0  0  0  0
    5.0205   -2.5286   -1.0842 C   0  0  0  0  0  0  0  0  0  0  0  0
    6.1048   -3.2312   -0.4916 N   0  0  0  0  0  0  0  0  0  0  0  0
    6.6292   -2.6712    0.8214 C   0  0  0  0  0  0  0  0  0  0  0  0
    5.6045   -2.6151    1.9952 C   0  0  3  0  0  0  0  0  0  0  0  0
    5.1435   -3.9200    2.3812 O   0  0  0  0  0  0  0  0  0  0  0  0
    6.1429   -1.9216    3.2841 C   0  0  0  0  0  0  0  0  0  0  0  0
    7.3024   -2.6628    3.9718 C   0  0  0  0  0  0  0  0  0  0  0  0
    6.5403   -0.4637    3.0563 C   0  0  0  0  0  0  0  0  0  0  0  0
    7.2062   -3.8818   -1.1660 C   0  0  0  0  0  0  0  0  0  0  0  0
    7.7027   -5.0149   -0.5265 C   0  0  0  0  0  0  0  0  0  0  0  0
    9.0019   -5.4364   -0.7589 C   0  0  0  0  0  0  0  0  0  0  0  0
    9.8004   -4.8231   -1.6914 C   0  0  0  0  0  0  0  0  0  0  0  0
   11.0812   -5.2105   -1.6564 N   0  0  0  0  0  0  0  0  0  0  0  0
   11.8709   -4.7461   -2.6304 C   0  0  0  0  0  0  0  0  0  0  0  0
   11.3781   -3.9766   -3.6685 C   0  0  0  0  0  0  0  0  0  0  0  0
   12.2470   -3.8128   -4.8217 C   0  0  0  0  0  0  0  0  0  0  0  0
   12.2900   -4.5609   -6.0252 C   0  0  0  0  0  0  0  0  0  0  0  0
   13.3564   -4.2711   -6.7805 N   0  0  0  0  0  0  0  0  0  0  0  0
   13.9962   -3.3313   -6.0640 N   0  0  0  0  0  0  0  0  0  0  0  0
   15.0186   -2.5155   -6.6764 C   0  0  0  0  0  0  0  0  0  0  0  0
   13.4681   -3.1616   -4.8126 C   0  0  0  0  0  0  0  0  0  0  0  0
   10.0943   -3.4812   -3.6365 N   0  0  0  0  0  0  0  0  0  0  0  0
    9.2723   -3.8649   -2.5945 C   0  0  0  0  0  0  0  0  0  0  0  0
    7.9513   -3.3803   -2.2704 C   0  0  0  0  0  0  0  0  0  0  0  0
    3.9906   -3.2255   -1.7511 C   0  0  0  0  0  0  0  0  0  0  0  0
    0.2471   -3.4717   -4.0571 H   0  0  0  0  0  0  0  0  0  0  0  0
    1.3709   -2.1584   -4.4350 H   0  0  0  0  0  0  0  0  0  0  0  0
    0.2530   -2.0489   -3.0227 H   0  0  0  0  0  0  0  0  0  0  0  0
    1.7914   -0.6901   -2.3603 H   0  0  0  0  0  0  0  0  0  0  0  0
    2.7233    2.6553   -1.3589 H   0  0  0  0  0  0  0  0  0  0  0  0
    1.6284    1.2827   -1.1527 H   0  0  0  0  0  0  0  0  0  0  0  0
    2.5082    1.5366   -2.7112 H   0  0  0  0  0  0  0  0  0  0  0  0
    5.5891   -0.5453   -0.4227 H   0  0  0  0  0  0  0  0  0  0  0  0
    7.0814   -1.6945    0.6349 H   0  0  0  0  0  0  0  0  0  0  0  0
    7.4452   -3.3057    1.1926 H   0  0  0  0  0  0  0  0  0  0  0  0
    4.7107   -2.0672    1.6832 H   0  0  0  0  0  0  0  0  0  0  0  0
    5.7970   -4.5809    2.1023 H   0  0  0  0  0  0  0  0  0  0  0  0
    5.3191   -1.9272    4.0118 H   0  0  0  0  0  0  0  0  0  0  0  0
    8.2065   -2.6709    3.3574 H   0  0  0  0  0  0  0  0  0  0  0  0
    7.0351   -3.6961    4.2143 H   0  0  0  0  0  0  0  0  0  0  0  0
    7.5566   -2.1687    4.9180 H   0  0  0  0  0  0  0  0  0  0  0  0
    7.4451   -0.3771    2.4470 H   0  0  0  0  0  0  0  0  0  0  0  0
    6.7445    0.0312    4.0128 H   0  0  0  0  0  0  0  0  0  0  0  0
    5.7427    0.0956    2.5573 H   0  0  0  0  0  0  0  0  0  0  0  0
    7.1186   -5.5068    0.2484 H   0  0  0  0  0  0  0  0  0  0  0  0
    9.4190   -6.2225   -0.1408 H   0  0  0  0  0  0  0  0  0  0  0  0
   12.9061   -5.0567   -2.5862 H   0  0  0  0  0  0  0  0  0  0  0  0
   11.6107   -5.3318   -6.3701 H   0  0  0  0  0  0  0  0  0  0  0  0
   15.1429   -2.7995   -7.7253 H   0  0  0  0  0  0  0  0  0  0  0  0
   15.9587   -2.6375   -6.1342 H   0  0  0  0  0  0  0  0  0  0  0  0
   14.6774   -1.4778   -6.6209 H   0  0  0  0  0  0  0  0  0  0  0  0
   13.9786   -2.5709   -4.0661 H   0  0  0  0  0  0  0  0  0  0  0  0
    7.5563   -2.5515   -2.8536 H   0  0  0  0  0  0  0  0  0  0  0  0
    4.0503   -4.3075   -1.8530 H   0  0  0  0  0  0  0  0  0  0  0  0
  1  2  1  0  0  0  0
  1 34  1  0  0  0  0
  1 35  1  0  0  0  0
  1 36  1  0  0  0  0
  2  3  1  0  0  0  0
  3  4  1  0  0  0  0
  3 33  2  0  0  0  0
  4  5  2  0  0  0  0
  4 37  1  0  0  0  0
  5  6  1  0  0  0  0
  5  8  1  0  0  0  0
  6  7  1  0  0  0  0
  7 38  1  0  0  0  0
  7 39  1  0  0  0  0
  7 40  1  0  0  0  0
  8  9  2  0  0  0  0
  8 41  1  0  0  0  0
  9 10  1  0  0  0  0
  9 33  1  0  0  0  0
 10 11  1  0  0  0  0
 10 17  1  0  0  0  0
 11 12  1  0  0  0  0
 11 42  1  0  0  0  0
 11 43  1  0  0  0  0
 12 13  1  0  0  0  0
 12 14  1  0  0  0  0
 12 44  1  0  0  0  0
 13 45  1  0  0  0  0
 14 15  1  0  0  0  0
 14 16  1  0  0  0  0
 14 46  1  0  0  0  0
 15 47  1  0  0  0  0
 15 48  1  0  0  0  0
 15 49  1  0  0  0  0
 16 50  1  0  0  0  0
 16 51  1  0  0  0  0
 16 52  1  0  0  0  0
 17 18  1  0  0  0  0
 17 32  2  0  0  0  0
 18 19  2  0  0  0  0
 18 53  1  0  0  0  0
 19 20  1  0  0  0  0
 19 54  1  0  0  0  0
 20 21  1  0  0  0  0
 20 31  2  0  0  0  0
 21 22  2  0  0  0  0
 22 23  1  0  0  0  0
 22 55  1  0  0  0  0
 23 24  1  0  0  0  0
 23 30  2  0  0  0  0
 24 25  1  0  0  0  0
 24 29  2  0  0  0  0
 25 26  2  0  0  0  0
 25 56  1  0  0  0  0
 26 27  1  0  0  0  0
 27 28  1  0  0  0  0
 27 29  1  0  0  0  0
 28 57  1  0  0  0  0
 28 58  1  0  0  0  0
 28 59  1  0  0  0  0
 29 60  1  0  0  0  0
 30 31  1  0  0  0  0
 31 32  1  0  0  0  0
 32 61  1  0  0  0  0
 33 62  1  0  0  0  0
M  END
$$$$
