CHEMBL1242750
 OpenBabel04072215363D

 45 48  0  0  0  0  0  0  0  0999 V2000
    1.1011    0.2686    0.0968 N   0  0  0  0  0  0  0  0  0  0  0  0
    2.4819    0.1106    0.0991 C   0  0  0  0  0  0  0  0  0  0  0  0
    3.1920    1.2585    0.1306 N   0  0  0  0  0  0  0  0  0  0  0  0
    4.5343    1.1872    0.1613 C   0  0  0  0  0  0  0  0  0  0  0  0
    5.2974    0.0850    0.1676 N   0  0  0  0  0  0  0  0  0  0  0  0
    4.5544   -1.0334    0.1288 C   0  0  0  0  0  0  0  0  0  0  0  0
    3.1686   -1.1140    0.0789 C   0  0  0  0  0  0  0  0  0  0  0  0
    2.8909   -2.5205    0.0040 C   0  0  0  0  0  0  0  0  0  0  0  0
    1.6020   -3.2106   -0.1555 C   0  0  0  0  0  0  0  0  0  0  0  0
    0.5548   -2.6344   -0.8955 C   0  0  0  0  0  0  0  0  0  0  0  0
   -0.6784   -3.2793   -1.0270 C   0  0  0  0  0  0  0  0  0  0  0  0
   -0.8466   -4.5375   -0.4714 C   0  0  0  0  0  0  0  0  0  0  0  0
   -2.0146   -5.1798   -0.6143 F   0  0  0  0  0  0  0  0  0  0  0  0
    0.1956   -5.1498    0.2162 C   0  0  0  0  0  0  0  0  0  0  0  0
    0.0494   -6.4112    0.7206 O   0  0  0  0  0  0  0  0  0  0  0  0
    1.4108   -4.4921    0.3896 C   0  0  0  0  0  0  0  0  0  0  0  0
    4.0264   -3.2398    0.0744 N   0  0  0  0  0  0  0  0  0  0  0  0
    5.0142   -2.3196    0.0993 N   0  0  0  0  0  0  0  0  0  0  0  0
    6.4224   -2.7338    0.0295 C   0  0  0  0  0  0  0  0  0  0  0  0
    6.6984   -3.4844   -1.2823 C   0  0  0  0  0  0  0  0  0  0  0  0
    8.0812   -4.1272   -1.3661 C   0  0  0  0  0  0  0  0  0  0  0  0
    8.1072   -5.5429   -0.7957 C   0  0  0  0  0  0  0  0  0  0  0  0
    8.0046   -5.6349    0.7231 C   0  0  0  0  0  0  0  0  0  0  0  0
    6.7891   -4.9477    1.3437 C   0  0  0  0  0  0  0  0  0  0  0  0
    6.8834   -3.4231    1.3239 C   0  0  0  0  0  0  0  0  0  0  0  0
    0.8674    1.2314    0.3097 H   0  0  0  0  0  0  0  0  0  0  0  0
    0.6027   -0.4237    0.6411 H   0  0  0  0  0  0  0  0  0  0  0  0
    5.0598    2.1363    0.1835 H   0  0  0  0  0  0  0  0  0  0  0  0
    0.6882   -1.6813   -1.4018 H   0  0  0  0  0  0  0  0  0  0  0  0
   -1.4909   -2.8134   -1.5751 H   0  0  0  0  0  0  0  0  0  0  0  0
   -0.8248   -6.7325    0.4291 H   0  0  0  0  0  0  0  0  0  0  0  0
    2.2123   -4.9886    0.9326 H   0  0  0  0  0  0  0  0  0  0  0  0
    6.9895   -1.7955   -0.0244 H   0  0  0  0  0  0  0  0  0  0  0  0
    6.6045   -2.7612   -2.1051 H   0  0  0  0  0  0  0  0  0  0  0  0
    5.9301   -4.2435   -1.4772 H   0  0  0  0  0  0  0  0  0  0  0  0
    8.8434   -3.4970   -0.8932 H   0  0  0  0  0  0  0  0  0  0  0  0
    8.3528   -4.1990   -2.4274 H   0  0  0  0  0  0  0  0  0  0  0  0
    9.0473   -6.0199   -1.0999 H   0  0  0  0  0  0  0  0  0  0  0  0
    7.3051   -6.1376   -1.2506 H   0  0  0  0  0  0  0  0  0  0  0  0
    8.9236   -5.2404    1.1737 H   0  0  0  0  0  0  0  0  0  0  0  0
    7.9705   -6.6996    0.9909 H   0  0  0  0  0  0  0  0  0  0  0  0
    6.7443   -5.2615    2.3944 H   0  0  0  0  0  0  0  0  0  0  0  0
    5.8613   -5.2988    0.8784 H   0  0  0  0  0  0  0  0  0  0  0  0
    7.9283   -3.1357    1.5176 H   0  0  0  0  0  0  0  0  0  0  0  0
    6.3140   -3.0227    2.1730 H   0  0  0  0  0  0  0  0  0  0  0  0
  1  2  1  0  0  0  0
  1 26  1  0  0  0  0
  1 27  1  0  0  0  0
  2  3  1  0  0  0  0
  2  7  2  0  0  0  0
  3  4  2  0  0  0  0
  4  5  1  0  0  0  0
  4 28  1  0  0  0  0
  5  6  2  0  0  0  0
  6  7  1  0  0  0  0
  6 18  1  0  0  0  0
  7  8  1  0  0  0  0
  8  9  1  0  0  0  0
  8 17  2  0  0  0  0
  9 10  1  0  0  0  0
  9 16  2  0  0  0  0
 10 11  2  0  0  0  0
 10 29  1  0  0  0  0
 11 12  1  0  0  0  0
 11 30  1  0  0  0  0
 12 13  1  0  0  0  0
 12 14  2  0  0  0  0
 14 15  1  0  0  0  0
 14 16  1  0  0  0  0
 15 31  1  0  0  0  0
 16 32  1  0  0  0  0
 17 18  1  0  0  0  0
 18 19  1  0  0  0  0
 19 20  1  0  0  0  0
 19 25  1  0  0  0  0
 19 33  1  0  0  0  0
 20 21  1  0  0  0  0
 20 34  1  0  0  0  0
 20 35  1  0  0  0  0
 21 22  1  0  0  0  0
 21 36  1  0  0  0  0
 21 37  1  0  0  0  0
 22 23  1  0  0  0  0
 22 38  1  0  0  0  0
 22 39  1  0  0  0  0
 23 24  1  0  0  0  0
 23 40  1  0  0  0  0
 23 41  1  0  0  0  0
 24 25  1  0  0  0  0
 24 42  1  0  0  0  0
 24 43  1  0  0  0  0
 25 44  1  0  0  0  0
 25 45  1  0  0  0  0
M  END
$$$$
