CHEMBL3741916
 OpenBabel04072215373D

 65 69  0  0  0  0  0  0  0  0999 V2000
    7.2286    0.8200   -0.7404 C   0  0  0  0  0  0  0  0  0  0  0  0
    5.8150    1.8943   -0.6591 S   0  0  0  0  0  0  0  0  0  0  0  0
    4.6274    1.0695   -0.5300 O   0  0  0  0  0  0  0  0  0  0  0  0
    6.1055    2.8901    0.3596 O   0  0  0  0  0  0  0  0  0  0  0  0
    5.7895    2.7519   -2.2293 C   0  0  0  0  0  0  0  0  0  0  0  0
    5.7126    1.8196   -3.4166 C   0  0  0  0  0  0  0  0  0  0  0  0
    4.6051    0.9935   -3.6297 C   0  0  0  0  0  0  0  0  0  0  0  0
    4.5205    0.2164   -4.7875 C   0  0  0  0  0  0  0  0  0  0  0  0
    5.5134    0.2735   -5.7581 C   0  0  0  0  0  0  0  0  0  0  0  0
    6.6379    1.0874   -5.5674 C   0  0  0  0  0  0  0  0  0  0  0  0
    7.5839    1.1736   -6.6011 N   0  0  0  0  0  0  0  0  0  0  0  0
    8.9383    1.5029   -6.4706 C   0  0  0  0  0  0  0  0  0  0  0  0
    9.4654    2.2411   -7.4609 N   0  0  0  0  0  0  0  0  0  0  0  0
   10.7652    2.5681   -7.3495 C   0  0  0  0  0  0  0  0  0  0  0  0
   11.5577    2.1733   -6.3015 C   0  0  0  0  0  0  0  0  0  0  0  0
   10.9436    1.3747   -5.3617 C   0  0  0  0  0  0  0  0  0  0  0  0
   11.5828    0.8566   -4.2528 O   0  0  0  0  0  0  0  0  0  0  0  0
   12.9412    0.6788   -4.3203 C   0  0  0  0  0  0  0  0  0  0  0  0
   13.7103    1.2292   -3.2977 C   0  0  0  0  0  0  0  0  0  0  0  0
   15.0975    1.2374   -3.4224 C   0  0  0  0  0  0  0  0  0  0  0  0
   15.7148    0.5927   -4.5214 C   0  0  0  0  0  0  0  0  0  0  0  0
   17.1065    0.5211   -4.7000 C   0  0  0  0  0  0  0  0  0  0  0  0
   17.5834    0.9452   -6.1513 C   0  0  0  0  0  0  0  0  0  0  0  0
   16.8610    1.6282   -6.8718 O   0  0  0  0  0  0  0  0  0  0  0  0
   18.8482    0.4627   -6.5256 N   0  0  0  0  0  0  0  0  0  0  0  0
   19.4854    0.4539   -7.7907 C   0  0  0  0  0  0  0  0  0  0  0  0
   18.9310    0.9569   -8.9656 C   0  0  0  0  0  0  0  0  0  0  0  0
   19.6521    0.8995  -10.1729 C   0  0  0  0  0  0  0  0  0  0  0  0
   20.9308    0.3480  -10.2223 C   0  0  0  0  0  0  0  0  0  0  0  0
   21.5084   -0.1750   -9.0593 C   0  0  0  0  0  0  0  0  0  0  0  0
   22.8949   -0.7754   -9.0864 C   0  0  0  0  0  0  0  0  0  0  0  0
   23.4829   -0.7633  -10.3143 F   0  0  0  0  0  0  0  0  0  0  0  0
   23.7569   -0.1294   -8.2521 F   0  0  0  0  0  0  0  0  0  0  0  0
   22.9006   -2.0778   -8.6829 F   0  0  0  0  0  0  0  0  0  0  0  0
   20.7704   -0.1232   -7.8583 C   0  0  0  0  0  0  0  0  0  0  0  0
   17.5451   -0.7617   -4.4378 C   0  0  0  0  0  0  0  0  0  0  0  0
   16.8276   -1.7890   -5.0429 C   0  0  0  0  0  0  0  0  0  0  0  0
   15.5711   -1.5045   -5.6096 C   0  0  0  0  0  0  0  0  0  0  0  0
   14.9280   -0.3208   -5.2273 C   0  0  0  0  0  0  0  0  0  0  0  0
   13.5436   -0.1430   -5.2735 C   0  0  0  0  0  0  0  0  0  0  0  0
    9.6374    1.0649   -5.4154 N   0  0  0  0  0  0  0  0  0  0  0  0
    6.7162    1.8628   -4.4016 C   0  0  0  0  0  0  0  0  0  0  0  0
    7.2934    0.2864    0.2119 H   0  0  0  0  0  0  0  0  0  0  0  0
    8.1237    1.4283   -0.8825 H   0  0  0  0  0  0  0  0  0  0  0  0
    7.1032    0.1057   -1.5533 H   0  0  0  0  0  0  0  0  0  0  0  0
    6.6972    3.3645   -2.2611 H   0  0  0  0  0  0  0  0  0  0  0  0
    4.9275    3.4269   -2.2250 H   0  0  0  0  0  0  0  0  0  0  0  0
    3.7887    0.9515   -2.9136 H   0  0  0  0  0  0  0  0  0  0  0  0
    3.6556   -0.4379   -4.9307 H   0  0  0  0  0  0  0  0  0  0  0  0
    5.4360   -0.3376   -6.6529 H   0  0  0  0  0  0  0  0  0  0  0  0
    7.2391    1.7100   -7.3880 H   0  0  0  0  0  0  0  0  0  0  0  0
   11.1653    3.1738   -8.1580 H   0  0  0  0  0  0  0  0  0  0  0  0
   12.5953    2.4715   -6.2470 H   0  0  0  0  0  0  0  0  0  0  0  0
   13.2320    1.6479   -2.4172 H   0  0  0  0  0  0  0  0  0  0  0  0
   15.7034    1.6678   -2.6251 H   0  0  0  0  0  0  0  0  0  0  0  0
   19.3672   -0.0117   -5.7963 H   0  0  0  0  0  0  0  0  0  0  0  0
   17.9389    1.3945   -8.9815 H   0  0  0  0  0  0  0  0  0  0  0  0
   19.2071    1.2972  -11.0863 H   0  0  0  0  0  0  0  0  0  0  0  0
   21.4694    0.3272  -11.1672 H   0  0  0  0  0  0  0  0  0  0  0  0
   21.2264   -0.5447   -6.9637 H   0  0  0  0  0  0  0  0  0  0  0  0
   18.4363   -0.9319   -3.8428 H   0  0  0  0  0  0  0  0  0  0  0  0
   17.2105   -2.8050   -5.0367 H   0  0  0  0  0  0  0  0  0  0  0  0
   15.0151   -2.2934   -6.1087 H   0  0  0  0  0  0  0  0  0  0  0  0
   12.9310   -0.7366   -5.9456 H   0  0  0  0  0  0  0  0  0  0  0  0
    7.5674    2.5287   -4.2679 H   0  0  0  0  0  0  0  0  0  0  0  0
  1  2  1  0  0  0  0
  1 43  1  0  0  0  0
  1 44  1  0  0  0  0
  1 45  1  0  0  0  0
  2  3  2  0  0  0  0
  2  4  2  0  0  0  0
  2  5  1  0  0  0  0
  5  6  1  0  0  0  0
  5 46  1  0  0  0  0
  5 47  1  0  0  0  0
  6  7  1  0  0  0  0
  6 42  2  0  0  0  0
  7  8  2  0  0  0  0
  7 48  1  0  0  0  0
  8  9  1  0  0  0  0
  8 49  1  0  0  0  0
  9 10  2  0  0  0  0
  9 50  1  0  0  0  0
 10 11  1  0  0  0  0
 10 42  1  0  0  0  0
 11 12  1  0  0  0  0
 11 51  1  0  0  0  0
 12 13  1  0  0  0  0
 12 41  2  0  0  0  0
 13 14  2  0  0  0  0
 14 15  1  0  0  0  0
 14 52  1  0  0  0  0
 15 16  2  0  0  0  0
 15 53  1  0  0  0  0
 16 17  1  0  0  0  0
 16 41  1  0  0  0  0
 17 18  1  0  0  0  0
 18 19  1  0  0  0  0
 18 40  2  0  0  0  0
 19 20  2  0  0  0  0
 19 54  1  0  0  0  0
 20 21  1  0  0  0  0
 20 55  1  0  0  0  0
 21 22  1  0  0  0  0
 21 39  2  0  0  0  0
 22 23  1  0  0  0  0
 22 36  2  0  0  0  0
 23 24  2  0  0  0  0
 23 25  1  0  0  0  0
 25 26  1  0  0  0  0
 25 56  1  0  0  0  0
 26 27  1  0  0  0  0
 26 35  2  0  0  0  0
 27 28  2  0  0  0  0
 27 57  1  0  0  0  0
 28 29  1  0  0  0  0
 28 58  1  0  0  0  0
 29 30  2  0  0  0  0
 29 59  1  0  0  0  0
 30 31  1  0  0  0  0
 30 35  1  0  0  0  0
 31 32  1  0  0  0  0
 31 33  1  0  0  0  0
 31 34  1  0  0  0  0
 35 60  1  0  0  0  0
 36 37  1  0  0  0  0
 36 61  1  0  0  0  0
 37 38  2  0  0  0  0
 37 62  1  0  0  0  0
 38 39  1  0  0  0  0
 38 63  1  0  0  0  0
 39 40  1  0  0  0  0
 40 64  1  0  0  0  0
 42 65  1  0  0  0  0
M  END
$$$$
