CHEMBL3690506
 OpenBabel04072215373D

 58 62  0  0  0  0  0  0  0  0999 V2000
    4.7355   -4.2415   -1.5036 O   0  0  0  0  0  0  0  0  0  0  0  0
    4.9340   -3.3501   -2.3135 C   0  0  0  0  0  0  0  0  0  0  0  0
    4.7250   -3.5248   -3.6641 N   0  0  0  0  0  0  0  0  0  0  0  0
    4.3807   -4.8622   -4.1563 C   0  0  0  0  0  0  0  0  0  0  0  0
    5.5733   -5.7998   -4.3926 C   0  0  0  0  0  0  0  0  0  0  0  0
    6.7539   -5.1924   -4.1284 F   0  0  0  0  0  0  0  0  0  0  0  0
    5.5001   -6.9214   -3.6489 F   0  0  0  0  0  0  0  0  0  0  0  0
    5.6127   -6.1760   -5.6953 F   0  0  0  0  0  0  0  0  0  0  0  0
    5.3643   -2.0745   -2.0384 N   0  0  0  0  0  0  0  0  0  0  0  0
    5.7596   -1.5728   -0.7821 C   0  0  0  0  0  0  0  0  0  0  0  0
    5.7007   -2.2681    0.4210 C   0  0  0  0  0  0  0  0  0  0  0  0
    6.1510   -1.7752    1.6041 N   0  0  0  0  0  0  0  0  0  0  0  0
    6.6839   -0.5330    1.5874 C   0  0  0  0  0  0  0  0  0  0  0  0
    6.7462    0.2699    0.4563 C   0  0  0  0  0  0  0  0  0  0  0  0
    7.2162    1.6511    0.4656 C   0  0  0  0  0  0  0  0  0  0  0  0
    7.9951    2.3208   -0.4654 C   0  0  0  0  0  0  0  0  0  0  0  0
    7.9246    3.6776   -0.3122 N   0  0  0  0  0  0  0  0  0  0  0  0
    7.0860    3.8618    0.6826 C   0  0  0  0  0  0  0  0  0  0  0  0
    6.4293    5.0401    1.1327 C   0  0  0  0  0  0  0  0  0  0  0  0
    5.5226    4.9705    2.1328 C   0  0  0  0  0  0  0  0  0  0  0  0
    4.6429    6.0464    2.4059 C   0  0  0  0  0  0  0  0  0  0  0  0
    4.7612    7.0893    3.3307 C   0  0  0  0  0  0  0  0  0  0  0  0
    3.6828    7.8740    3.3228 N   0  0  0  0  0  0  0  0  0  0  0  0
    2.8652    7.3171    2.4055 N   0  0  0  0  0  0  0  0  0  0  0  0
    1.5228    7.8410    2.1719 C   0  0  0  0  0  0  0  0  0  0  0  0
    1.5212    9.3034    1.7187 C   0  0  0  0  0  0  0  0  0  0  0  0
    1.7378   10.2682    2.8856 C   0  0  0  0  0  0  0  0  0  0  0  0
    0.7932   10.0379    3.9756 N   0  0  0  0  0  0  0  0  0  0  0  0
    0.8676    8.6654    4.4792 C   0  0  0  0  0  0  0  0  0  0  0  0
    0.6058    7.6368    3.3804 C   0  0  0  0  0  0  0  0  0  0  0  0
    3.4167    6.2211    1.8054 C   0  0  0  0  0  0  0  0  0  0  0  0
    5.3289    3.7176    2.8635 C   0  0  0  0  0  0  0  0  0  0  0  0
    5.8982    2.5942    2.4050 C   0  0  0  0  0  0  0  0  0  0  0  0
    6.7171    2.6568    1.2777 N   0  0  0  0  0  0  0  0  0  0  0  0
    6.2703   -0.2760   -0.7425 C   0  0  0  0  0  0  0  0  0  0  0  0
    5.3131   -2.9716   -4.2715 H   0  0  0  0  0  0  0  0  0  0  0  0
    3.8426   -4.7079   -5.0966 H   0  0  0  0  0  0  0  0  0  0  0  0
    3.6822   -5.3292   -3.4530 H   0  0  0  0  0  0  0  0  0  0  0  0
    5.4139   -1.4383   -2.8202 H   0  0  0  0  0  0  0  0  0  0  0  0
    5.2821   -3.2657    0.4981 H   0  0  0  0  0  0  0  0  0  0  0  0
    7.0601   -0.1981    2.5499 H   0  0  0  0  0  0  0  0  0  0  0  0
    8.5356    1.8903   -1.2995 H   0  0  0  0  0  0  0  0  0  0  0  0
    6.5828    5.9510    0.5635 H   0  0  0  0  0  0  0  0  0  0  0  0
    5.5703    7.3087    4.0142 H   0  0  0  0  0  0  0  0  0  0  0  0
    1.1213    7.2368    1.3414 H   0  0  0  0  0  0  0  0  0  0  0  0
    0.5485    9.5258    1.2606 H   0  0  0  0  0  0  0  0  0  0  0  0
    2.2777    9.4709    0.9424 H   0  0  0  0  0  0  0  0  0  0  0  0
    1.6053   11.2928    2.5194 H   0  0  0  0  0  0  0  0  0  0  0  0
    2.7706   10.2226    3.2529 H   0  0  0  0  0  0  0  0  0  0  0  0
   -0.1527   10.2378    3.6586 H   0  0  0  0  0  0  0  0  0  0  0  0
    0.1123    8.5434    5.2637 H   0  0  0  0  0  0  0  0  0  0  0  0
    1.8306    8.4887    4.9699 H   0  0  0  0  0  0  0  0  0  0  0  0
   -0.4368    7.7346    3.0501 H   0  0  0  0  0  0  0  0  0  0  0  0
    0.7124    6.6224    3.7847 H   0  0  0  0  0  0  0  0  0  0  0  0
    2.8961    5.6579    1.0427 H   0  0  0  0  0  0  0  0  0  0  0  0
    4.6812    3.7086    3.7352 H   0  0  0  0  0  0  0  0  0  0  0  0
    5.7258    1.6392    2.8791 H   0  0  0  0  0  0  0  0  0  0  0  0
    6.2962    0.3255   -1.6484 H   0  0  0  0  0  0  0  0  0  0  0  0
  1  2  2  0  0  0  0
  2  3  1  0  0  0  0
  2  9  1  0  0  0  0
  3  4  1  0  0  0  0
  3 36  1  0  0  0  0
  4  5  1  0  0  0  0
  4 37  1  0  0  0  0
  4 38  1  0  0  0  0
  5  6  1  0  0  0  0
  5  7  1  0  0  0  0
  5  8  1  0  0  0  0
  9 10  1  0  0  0  0
  9 39  1  0  0  0  0
 10 11  1  0  0  0  0
 10 35  2  0  0  0  0
 11 12  2  0  0  0  0
 11 40  1  0  0  0  0
 12 13  1  0  0  0  0
 13 14  2  0  0  0  0
 13 41  1  0  0  0  0
 14 15  1  0  0  0  0
 14 35  1  0  0  0  0
 15 16  2  0  0  0  0
 15 34  1  0  0  0  0
 16 17  1  0  0  0  0
 16 42  1  0  0  0  0
 17 18  2  0  0  0  0
 18 19  1  0  0  0  0
 18 34  1  0  0  0  0
 19 20  2  0  0  0  0
 19 43  1  0  0  0  0
 20 21  1  0  0  0  0
 20 32  1  0  0  0  0
 21 22  1  0  0  0  0
 21 31  2  0  0  0  0
 22 23  2  0  0  0  0
 22 44  1  0  0  0  0
 23 24  1  0  0  0  0
 24 25  1  0  0  0  0
 24 31  1  0  0  0  0
 25 26  1  0  0  0  0
 25 30  1  0  0  0  0
 25 45  1  0  0  0  0
 26 27  1  0  0  0  0
 26 46  1  0  0  0  0
 26 47  1  0  0  0  0
 27 28  1  0  0  0  0
 27 48  1  0  0  0  0
 27 49  1  0  0  0  0
 28 29  1  0  0  0  0
 28 50  1  0  0  0  0
 29 30  1  0  0  0  0
 29 51  1  0  0  0  0
 29 52  1  0  0  0  0
 30 53  1  0  0  0  0
 30 54  1  0  0  0  0
 31 55  1  0  0  0  0
 32 33  2  0  0  0  0
 32 56  1  0  0  0  0
 33 34  1  0  0  0  0
 33 57  1  0  0  0  0
 35 58  1  0  0  0  0
M  END
$$$$
