CHEMBL45750
 OpenBabel04072215383D

 43 46  0  0  0  0  0  0  0  0999 V2000
    0.6537    0.5879   -0.4643 C   0  0  0  0  0  0  0  0  0  0  0  0
    2.0543    0.4531   -0.6806 O   0  0  0  0  0  0  0  0  0  0  0  0
    2.5036    0.8338   -1.9236 C   0  0  0  0  0  0  0  0  0  0  0  0
    1.9362    1.9125   -2.6169 C   0  0  0  0  0  0  0  0  0  0  0  0
    2.5088    2.3736   -3.8023 C   0  0  0  0  0  0  0  0  0  0  0  0
    3.6650    1.7768   -4.2923 C   0  0  0  0  0  0  0  0  0  0  0  0
    4.2291    0.6934   -3.6157 C   0  0  0  0  0  0  0  0  0  0  0  0
    3.6407    0.1783   -2.4485 C   0  0  0  0  0  0  0  0  0  0  0  0
    4.2723   -0.9362   -1.8451 N   0  0  0  0  0  0  0  0  0  0  0  0
    3.6600   -1.9253   -1.0748 C   0  0  0  0  0  0  0  0  0  0  0  0
    4.4083   -2.5208   -0.1345 N   0  0  0  0  0  0  0  0  0  0  0  0
    3.7899   -3.4151    0.6605 C   0  0  0  0  0  0  0  0  0  0  0  0
    2.4518   -3.7248    0.5748 C   0  0  0  0  0  0  0  0  0  0  0  0
    1.7850   -3.1190   -0.4659 C   0  0  0  0  0  0  0  0  0  0  0  0
    0.4084   -3.3879   -0.6922 N   0  0  0  0  0  0  0  0  0  0  0  0
   -0.5287   -3.6374    0.2891 C   0  0  0  0  0  0  0  0  0  0  0  0
   -1.7454   -3.6067   -0.3419 C   0  0  0  0  0  0  0  0  0  0  0  0
   -1.5873   -3.4364   -1.6865 N   0  0  0  0  0  0  0  0  0  0  0  0
   -0.2802   -3.3673   -1.9107 C   0  0  0  0  0  0  0  0  0  0  0  0
    0.3155   -3.3581   -3.2635 C   0  0  0  0  0  0  0  0  0  0  0  0
   -0.3938   -2.7870   -4.3297 C   0  0  0  0  0  0  0  0  0  0  0  0
    0.1478   -2.7574   -5.6198 C   0  0  0  0  0  0  0  0  0  0  0  0
    1.4115   -3.2939   -5.8615 C   0  0  0  0  0  0  0  0  0  0  0  0
    2.1156   -3.8942   -4.8250 C   0  0  0  0  0  0  0  0  0  0  0  0
    1.5558   -3.9529   -3.5471 C   0  0  0  0  0  0  0  0  0  0  0  0
    2.3858   -2.2590   -1.3027 N   0  0  0  0  0  0  0  0  0  0  0  0
    0.4002    0.0242    0.4425 H   0  0  0  0  0  0  0  0  0  0  0  0
    0.0689    0.1718   -1.2902 H   0  0  0  0  0  0  0  0  0  0  0  0
    0.3887    1.6321   -0.2796 H   0  0  0  0  0  0  0  0  0  0  0  0
    1.0616    2.4302   -2.2388 H   0  0  0  0  0  0  0  0  0  0  0  0
    2.0614    3.2124   -4.3288 H   0  0  0  0  0  0  0  0  0  0  0  0
    4.1251    2.1488   -5.2038 H   0  0  0  0  0  0  0  0  0  0  0  0
    5.1233    0.2251   -4.0216 H   0  0  0  0  0  0  0  0  0  0  0  0
    5.1485   -0.7006   -1.4011 H   0  0  0  0  0  0  0  0  0  0  0  0
    4.4291   -3.8924    1.3982 H   0  0  0  0  0  0  0  0  0  0  0  0
    2.0036   -4.4451    1.2419 H   0  0  0  0  0  0  0  0  0  0  0  0
   -0.2728   -3.7103    1.3357 H   0  0  0  0  0  0  0  0  0  0  0  0
   -2.7284   -3.6931    0.1030 H   0  0  0  0  0  0  0  0  0  0  0  0
   -1.3798   -2.3597   -4.1576 H   0  0  0  0  0  0  0  0  0  0  0  0
   -0.4148   -2.3096   -6.4338 H   0  0  0  0  0  0  0  0  0  0  0  0
    1.8447   -3.2486   -6.8570 H   0  0  0  0  0  0  0  0  0  0  0  0
    3.1032   -4.3113   -4.9999 H   0  0  0  0  0  0  0  0  0  0  0  0
    2.1277   -4.4540   -2.7721 H   0  0  0  0  0  0  0  0  0  0  0  0
  1  2  1  0  0  0  0
  1 27  1  0  0  0  0
  1 28  1  0  0  0  0
  1 29  1  0  0  0  0
  2  3  1  0  0  0  0
  3  4  1  0  0  0  0
  3  8  2  0  0  0  0
  4  5  2  0  0  0  0
  4 30  1  0  0  0  0
  5  6  1  0  0  0  0
  5 31  1  0  0  0  0
  6  7  2  0  0  0  0
  6 32  1  0  0  0  0
  7  8  1  0  0  0  0
  7 33  1  0  0  0  0
  8  9  1  0  0  0  0
  9 10  1  0  0  0  0
  9 34  1  0  0  0  0
 10 11  1  0  0  0  0
 10 26  2  0  0  0  0
 11 12  2  0  0  0  0
 12 13  1  0  0  0  0
 12 35  1  0  0  0  0
 13 14  2  0  0  0  0
 13 36  1  0  0  0  0
 14 15  1  0  0  0  0
 14 26  1  0  0  0  0
 15 16  1  0  0  0  0
 15 19  1  0  0  0  0
 16 17  2  0  0  0  0
 16 37  1  0  0  0  0
 17 18  1  0  0  0  0
 17 38  1  0  0  0  0
 18 19  2  0  0  0  0
 19 20  1  0  0  0  0
 20 21  1  0  0  0  0
 20 25  2  0  0  0  0
 21 22  2  0  0  0  0
 21 39  1  0  0  0  0
 22 23  1  0  0  0  0
 22 40  1  0  0  0  0
 23 24  2  0  0  0  0
 23 41  1  0  0  0  0
 24 25  1  0  0  0  0
 24 42  1  0  0  0  0
 25 43  1  0  0  0  0
M  END
$$$$
