CHEMBL3690504
 OpenBabel04072215373D

 69 72  0  0  0  0  0  0  0  0999 V2000
   -2.0804   -2.2271   -1.2032 C   0  0  0  0  0  0  0  0  0  0  0  0
   -1.2401   -1.1174   -0.6443 C   0  0  0  0  0  0  0  0  0  0  0  0
   -1.8076    0.1697   -0.6008 C   0  0  0  0  0  0  0  0  0  0  0  0
   -1.1359    1.2318   -0.0029 C   0  0  0  0  0  0  0  0  0  0  0  0
   -1.7513    2.5714    0.0337 C   0  0  0  0  0  0  0  0  0  0  0  0
   -1.5160    3.5578   -1.0187 C   0  0  0  0  0  0  0  0  0  0  0  0
   -2.0995    4.7663   -0.9488 C   0  0  0  0  0  0  0  0  0  0  0  0
   -2.9755    5.0681    0.1019 N   0  0  0  0  0  0  0  0  0  0  0  0
   -3.7444    6.2065    0.3781 C   0  0  0  0  0  0  0  0  0  0  0  0
   -3.8955    7.4185   -0.4528 C   0  0  0  0  0  0  0  0  0  0  0  0
   -3.8433    7.3320   -1.8482 C   0  0  0  0  0  0  0  0  0  0  0  0
   -3.9695    8.4631   -2.6433 C   0  0  0  0  0  0  0  0  0  0  0  0
   -4.2410    9.6959   -2.0617 C   0  0  0  0  0  0  0  0  0  0  0  0
   -4.3989    9.8197   -0.6809 C   0  0  0  0  0  0  0  0  0  0  0  0
   -4.7841   11.0450   -0.0711 N   0  0  0  0  0  0  0  0  0  0  0  0
   -5.1509   12.1969   -0.7420 C   0  0  0  0  0  0  0  0  0  0  0  0
   -5.2160   12.3576   -1.9552 O   0  0  0  0  0  0  0  0  0  0  0  0
   -5.4093   13.2543    0.0967 N   0  0  0  0  0  0  0  0  0  0  0  0
   -5.8013   14.5369   -0.5102 C   0  0  0  0  0  0  0  0  0  0  0  0
   -7.2602   14.6668   -0.9737 C   0  0  0  0  0  0  0  0  0  0  0  0
   -8.0108   13.6021   -0.6159 F   0  0  0  0  0  0  0  0  0  0  0  0
   -7.8296   15.7586   -0.3924 F   0  0  0  0  0  0  0  0  0  0  0  0
   -7.3654   14.8293   -2.3090 F   0  0  0  0  0  0  0  0  0  0  0  0
   -4.1822    8.6801    0.1239 C   0  0  0  0  0  0  0  0  0  0  0  0
   -4.3682    5.8922    1.5776 C   0  0  0  0  0  0  0  0  0  0  0  0
   -4.0508    4.6377    2.0236 N   0  0  0  0  0  0  0  0  0  0  0  0
   -3.2282    4.1491    1.1234 C   0  0  0  0  0  0  0  0  0  0  0  0
   -2.5867    2.8732    1.0551 C   0  0  0  0  0  0  0  0  0  0  0  0
    0.1122    0.9498    0.5342 C   0  0  0  0  0  0  0  0  0  0  0  0
    0.6865   -0.2848    0.5395 N   0  0  0  0  0  0  0  0  0  0  0  0
    0.0265   -1.3060   -0.0697 C   0  0  0  0  0  0  0  0  0  0  0  0
    0.6003   -2.6030    0.0222 N   0  0  0  0  0  0  0  0  0  0  0  0
    1.1952   -2.9793    1.2922 C   0  0  0  0  0  0  0  0  0  0  0  0
    1.0682   -3.3118   -1.0892 C   0  0  0  0  0  0  0  0  0  0  0  0
    1.6711   -4.3719   -0.9987 O   0  0  0  0  0  0  0  0  0  0  0  0
    0.9090   -2.6513   -2.2766 O   0  0  0  0  0  0  0  0  0  0  0  0
    2.0658   -2.5289   -3.1450 C   0  0  0  0  0  0  0  0  0  0  0  0
    2.5082   -3.8366   -3.8169 C   0  0  0  0  0  0  0  0  0  0  0  0
    1.6496   -1.5368   -4.2427 C   0  0  0  0  0  0  0  0  0  0  0  0
    3.2215   -1.9070   -2.3485 C   0  0  0  0  0  0  0  0  0  0  0  0
   -3.0591   -1.8475   -1.5201 H   0  0  0  0  0  0  0  0  0  0  0  0
   -2.2669   -2.9883   -0.4397 H   0  0  0  0  0  0  0  0  0  0  0  0
   -1.6183   -2.6771   -2.0834 H   0  0  0  0  0  0  0  0  0  0  0  0
   -2.8007    0.3368   -1.0138 H   0  0  0  0  0  0  0  0  0  0  0  0
   -0.8714    3.2922   -1.8516 H   0  0  0  0  0  0  0  0  0  0  0  0
   -1.9110    5.5198   -1.6988 H   0  0  0  0  0  0  0  0  0  0  0  0
   -3.7313    6.3807   -2.3564 H   0  0  0  0  0  0  0  0  0  0  0  0
   -3.8890    8.3868   -3.7248 H   0  0  0  0  0  0  0  0  0  0  0  0
   -4.3406   10.5378   -2.7352 H   0  0  0  0  0  0  0  0  0  0  0  0
   -4.8590   11.0530    0.9328 H   0  0  0  0  0  0  0  0  0  0  0  0
   -5.7804   13.0395    1.0172 H   0  0  0  0  0  0  0  0  0  0  0  0
   -5.1439   14.7197   -1.3697 H   0  0  0  0  0  0  0  0  0  0  0  0
   -5.5762   15.3099    0.2302 H   0  0  0  0  0  0  0  0  0  0  0  0
   -4.2559    8.7687    1.2042 H   0  0  0  0  0  0  0  0  0  0  0  0
   -5.0649    6.5080    2.1325 H   0  0  0  0  0  0  0  0  0  0  0  0
   -2.8066    2.1668    1.8493 H   0  0  0  0  0  0  0  0  0  0  0  0
    0.7100    1.7305    1.0000 H   0  0  0  0  0  0  0  0  0  0  0  0
    0.8645   -2.3367    2.1139 H   0  0  0  0  0  0  0  0  0  0  0  0
    2.2887   -2.9607    1.2211 H   0  0  0  0  0  0  0  0  0  0  0  0
    0.8893   -4.0072    1.5210 H   0  0  0  0  0  0  0  0  0  0  0  0
    1.7164   -4.2542   -4.4480 H   0  0  0  0  0  0  0  0  0  0  0  0
    2.7825   -4.6111   -3.0966 H   0  0  0  0  0  0  0  0  0  0  0  0
    3.3877   -3.6644   -4.4509 H   0  0  0  0  0  0  0  0  0  0  0  0
    0.8649   -1.9584   -4.8818 H   0  0  0  0  0  0  0  0  0  0  0  0
    2.4972   -1.2625   -4.8802 H   0  0  0  0  0  0  0  0  0  0  0  0
    1.2350   -0.6216   -3.8046 H   0  0  0  0  0  0  0  0  0  0  0  0
    3.5782   -2.5862   -1.5668 H   0  0  0  0  0  0  0  0  0  0  0  0
    2.8873   -0.9934   -1.8437 H   0  0  0  0  0  0  0  0  0  0  0  0
    4.0714   -1.6624   -2.9921 H   0  0  0  0  0  0  0  0  0  0  0  0
  1  2  1  0  0  0  0
  1 41  1  0  0  0  0
  1 42  1  0  0  0  0
  1 43  1  0  0  0  0
  2  3  1  0  0  0  0
  2 31  2  0  0  0  0
  3  4  2  0  0  0  0
  3 44  1  0  0  0  0
  4  5  1  0  0  0  0
  4 29  1  0  0  0  0
  5  6  1  0  0  0  0
  5 28  2  0  0  0  0
  6  7  2  0  0  0  0
  6 45  1  0  0  0  0
  7  8  1  0  0  0  0
  7 46  1  0  0  0  0
  8  9  1  0  0  0  0
  8 27  1  0  0  0  0
  9 10  1  0  0  0  0
  9 25  2  0  0  0  0
 10 11  1  0  0  0  0
 10 24  2  0  0  0  0
 11 12  2  0  0  0  0
 11 47  1  0  0  0  0
 12 13  1  0  0  0  0
 12 48  1  0  0  0  0
 13 14  2  0  0  0  0
 13 49  1  0  0  0  0
 14 15  1  0  0  0  0
 14 24  1  0  0  0  0
 15 16  1  0  0  0  0
 15 50  1  0  0  0  0
 16 17  2  0  0  0  0
 16 18  1  0  0  0  0
 18 19  1  0  0  0  0
 18 51  1  0  0  0  0
 19 20  1  0  0  0  0
 19 52  1  0  0  0  0
 19 53  1  0  0  0  0
 20 21  1  0  0  0  0
 20 22  1  0  0  0  0
 20 23  1  0  0  0  0
 24 54  1  0  0  0  0
 25 26  1  0  0  0  0
 25 55  1  0  0  0  0
 26 27  2  0  0  0  0
 27 28  1  0  0  0  0
 28 56  1  0  0  0  0
 29 30  2  0  0  0  0
 29 57  1  0  0  0  0
 30 31  1  0  0  0  0
 31 32  1  0  0  0  0
 32 33  1  0  0  0  0
 32 34  1  0  0  0  0
 33 58  1  0  0  0  0
 33 59  1  0  0  0  0
 33 60  1  0  0  0  0
 34 35  2  0  0  0  0
 34 36  1  0  0  0  0
 36 37  1  0  0  0  0
 37 38  1  0  0  0  0
 37 39  1  0  0  0  0
 37 40  1  0  0  0  0
 38 61  1  0  0  0  0
 38 62  1  0  0  0  0
 38 63  1  0  0  0  0
 39 64  1  0  0  0  0
 39 65  1  0  0  0  0
 39 66  1  0  0  0  0
 40 67  1  0  0  0  0
 40 68  1  0  0  0  0
 40 69  1  0  0  0  0
M  END
$$$$
