CHEMBL593306
 OpenBabel04072215383D

 75 80  0  0  0  0  0  0  0  0999 V2000
    0.4320   -2.1459   -0.0882 C   0  0  0  0  0  0  0  0  0  0  0  0
    0.8656   -1.9060    1.2462 O   0  0  0  0  0  0  0  0  0  0  0  0
    2.1687   -2.2103    1.5354 C   0  0  0  0  0  0  0  0  0  0  0  0
    3.0899   -2.7721    0.6559 C   0  0  0  0  0  0  0  0  0  0  0  0
    4.4048   -3.0377    1.0690 C   0  0  0  0  0  0  0  0  0  0  0  0
    4.8027   -2.7513    2.3899 C   0  0  0  0  0  0  0  0  0  0  0  0
    6.0518   -2.9980    2.9478 N   0  0  0  0  0  0  0  0  0  0  0  0
    6.0708   -2.6257    4.2120 C   0  0  0  0  0  0  0  0  0  0  0  0
    7.1959   -2.8534    5.1413 C   0  0  0  0  0  0  0  0  0  0  0  0
    7.4505   -2.0267    6.2463 C   0  0  0  0  0  0  0  0  0  0  0  0
    8.4733   -2.3244    7.1652 C   0  0  0  0  0  0  0  0  0  0  0  0
    9.2989   -3.4321    6.9865 C   0  0  0  0  0  0  0  0  0  0  0  0
   10.3019   -3.8589    7.8798 N   0  0  0  0  0  0  0  0  0  0  0  0
   10.8005   -3.3249    9.1030 C   0  0  0  0  0  0  0  0  0  0  0  0
   10.2066   -2.2526    9.6601 N   0  0  0  0  0  0  0  0  0  0  0  0
   10.7353   -1.7900   10.8002 C   0  0  0  0  0  0  0  0  0  0  0  0
   11.7954   -2.2896   11.4218 N   0  0  0  0  0  0  0  0  0  0  0  0
   12.3707   -3.3503   10.8624 C   0  0  0  0  0  0  0  0  0  0  0  0
   13.5111   -3.8343   11.4759 C   0  0  0  0  0  0  0  0  0  0  0  0
   14.2230   -4.9601   11.0179 C   0  0  0  0  0  0  0  0  0  0  0  0
   15.3309   -5.4209   11.7045 O   0  0  0  0  0  0  0  0  0  0  0  0
   15.3514   -5.0220   13.0804 C   0  0  0  0  0  0  0  0  0  0  0  0
   16.1954   -5.9336   13.9594 C   0  0  0  0  0  0  0  0  0  0  0  0
   16.0819   -5.4584   15.4288 C   0  0  0  0  0  0  0  0  0  0  0  0
   14.7109   -5.4116   15.9663 N   0  0  0  0  0  0  0  0  0  0  0  0
   14.0119   -6.7066   15.9504 C   0  0  0  0  0  0  0  0  0  0  0  0
   12.5437   -6.5108   16.3964 C   0  0  0  0  0  0  0  0  0  0  0  0
   12.4090   -6.0311   17.7838 N   0  0  0  0  0  0  0  0  0  0  0  0
   12.7634   -7.0805   18.7371 C   0  0  0  0  0  0  0  0  0  0  0  0
   13.2384   -4.8163   17.9485 C   0  0  0  0  0  0  0  0  0  0  0  0
   14.6759   -4.8813   17.3496 C   0  0  0  0  0  0  0  0  0  0  0  0
   13.7895   -5.6024    9.8712 C   0  0  0  0  0  0  0  0  0  0  0  0
   14.3483   -6.6810    9.2324 O   0  0  0  0  0  0  0  0  0  0  0  0
   15.5986   -7.1584    9.7244 C   0  0  0  0  0  0  0  0  0  0  0  0
   12.6149   -5.1301    9.2373 C   0  0  0  0  0  0  0  0  0  0  0  0
   11.9136   -3.9716    9.7050 C   0  0  0  0  0  0  0  0  0  0  0  0
    9.0495   -4.2503    5.8704 C   0  0  0  0  0  0  0  0  0  0  0  0
    8.0266   -3.9635    4.9572 C   0  0  0  0  0  0  0  0  0  0  0  0
    4.5994   -1.9371    4.7850 S   0  0  0  0  0  0  0  0  0  0  0  0
    3.8665   -2.1862    3.2538 C   0  0  0  0  0  0  0  0  0  0  0  0
    2.5501   -1.9083    2.8492 C   0  0  0  0  0  0  0  0  0  0  0  0
   -0.6067   -1.8065   -0.1699 H   0  0  0  0  0  0  0  0  0  0  0  0
    0.4541   -3.2149   -0.3218 H   0  0  0  0  0  0  0  0  0  0  0  0
    1.0272   -1.5714   -0.8076 H   0  0  0  0  0  0  0  0  0  0  0  0
    2.8215   -3.0260   -0.3655 H   0  0  0  0  0  0  0  0  0  0  0  0
    5.1192   -3.4744    0.3775 H   0  0  0  0  0  0  0  0  0  0  0  0
    6.8527   -1.1351    6.4233 H   0  0  0  0  0  0  0  0  0  0  0  0
    8.6059   -1.6556    8.0096 H   0  0  0  0  0  0  0  0  0  0  0  0
   11.0656   -4.2682    7.3481 H   0  0  0  0  0  0  0  0  0  0  0  0
   10.2749   -0.9162   11.2443 H   0  0  0  0  0  0  0  0  0  0  0  0
   13.8373   -3.2718   12.3497 H   0  0  0  0  0  0  0  0  0  0  0  0
   14.3339   -5.0615   13.4710 H   0  0  0  0  0  0  0  0  0  0  0  0
   15.7533   -4.0033   13.1372 H   0  0  0  0  0  0  0  0  0  0  0  0
   17.2417   -5.9040   13.6385 H   0  0  0  0  0  0  0  0  0  0  0  0
   15.8817   -6.9757   13.8450 H   0  0  0  0  0  0  0  0  0  0  0  0
   16.4788   -4.4331   15.4551 H   0  0  0  0  0  0  0  0  0  0  0  0
   16.7315   -6.0705   16.0600 H   0  0  0  0  0  0  0  0  0  0  0  0
   14.5259   -7.4264   16.6018 H   0  0  0  0  0  0  0  0  0  0  0  0
   13.9934   -7.1446   14.9483 H   0  0  0  0  0  0  0  0  0  0  0  0
   11.9816   -7.4447   16.2626 H   0  0  0  0  0  0  0  0  0  0  0  0
   12.0614   -5.7833   15.7293 H   0  0  0  0  0  0  0  0  0  0  0  0
   12.1700   -7.9831   18.5435 H   0  0  0  0  0  0  0  0  0  0  0  0
   12.5284   -6.7686   19.7590 H   0  0  0  0  0  0  0  0  0  0  0  0
   13.8208   -7.3607   18.7026 H   0  0  0  0  0  0  0  0  0  0  0  0
   13.2927   -4.5363   19.0083 H   0  0  0  0  0  0  0  0  0  0  0  0
   12.7050   -3.9918   17.4564 H   0  0  0  0  0  0  0  0  0  0  0  0
   15.3016   -5.5027   18.0022 H   0  0  0  0  0  0  0  0  0  0  0  0
   15.0940   -3.8672   17.3656 H   0  0  0  0  0  0  0  0  0  0  0  0
   15.9555   -7.9411    9.0461 H   0  0  0  0  0  0  0  0  0  0  0  0
   15.4753   -7.6191   10.7093 H   0  0  0  0  0  0  0  0  0  0  0  0
   16.3600   -6.3713    9.7285 H   0  0  0  0  0  0  0  0  0  0  0  0
   12.2625   -5.6676    8.3657 H   0  0  0  0  0  0  0  0  0  0  0  0
    9.6444   -5.1469    5.7129 H   0  0  0  0  0  0  0  0  0  0  0  0
    7.8644   -4.6357    4.1167 H   0  0  0  0  0  0  0  0  0  0  0  0
    1.8379   -1.4740    3.5419 H   0  0  0  0  0  0  0  0  0  0  0  0
  1  2  1  0  0  0  0
  1 42  1  0  0  0  0
  1 43  1  0  0  0  0
  1 44  1  0  0  0  0
  2  3  1  0  0  0  0
  3  4  1  0  0  0  0
  3 41  2  0  0  0  0
  4  5  2  0  0  0  0
  4 45  1  0  0  0  0
  5  6  1  0  0  0  0
  5 46  1  0  0  0  0
  6  7  1  0  0  0  0
  6 40  2  0  0  0  0
  7  8  2  0  0  0  0
  8  9  1  0  0  0  0
  8 39  1  0  0  0  0
  9 10  1  0  0  0  0
  9 38  2  0  0  0  0
 10 11  2  0  0  0  0
 10 47  1  0  0  0  0
 11 12  1  0  0  0  0
 11 48  1  0  0  0  0
 12 13  1  0  0  0  0
 12 37  2  0  0  0  0
 13 14  1  0  0  0  0
 13 49  1  0  0  0  0
 14 15  1  0  0  0  0
 14 36  2  0  0  0  0
 15 16  2  0  0  0  0
 16 17  1  0  0  0  0
 16 50  1  0  0  0  0
 17 18  2  0  0  0  0
 18 19  1  0  0  0  0
 18 36  1  0  0  0  0
 19 20  2  0  0  0  0
 19 51  1  0  0  0  0
 20 21  1  0  0  0  0
 20 32  1  0  0  0  0
 21 22  1  0  0  0  0
 22 23  1  0  0  0  0
 22 52  1  0  0  0  0
 22 53  1  0  0  0  0
 23 24  1  0  0  0  0
 23 54  1  0  0  0  0
 23 55  1  0  0  0  0
 24 25  1  0  0  0  0
 24 56  1  0  0  0  0
 24 57  1  0  0  0  0
 25 26  1  0  0  0  0
 25 31  1  0  0  0  0
 26 27  1  0  0  0  0
 26 58  1  0  0  0  0
 26 59  1  0  0  0  0
 27 28  1  0  0  0  0
 27 60  1  0  0  0  0
 27 61  1  0  0  0  0
 28 29  1  0  0  0  0
 28 30  1  0  0  0  0
 29 62  1  0  0  0  0
 29 63  1  0  0  0  0
 29 64  1  0  0  0  0
 30 31  1  0  0  0  0
 30 65  1  0  0  0  0
 30 66  1  0  0  0  0
 31 67  1  0  0  0  0
 31 68  1  0  0  0  0
 32 33  1  0  0  0  0
 32 35  2  0  0  0  0
 33 34  1  0  0  0  0
 34 69  1  0  0  0  0
 34 70  1  0  0  0  0
 34 71  1  0  0  0  0
 35 36  1  0  0  0  0
 35 72  1  0  0  0  0
 37 38  1  0  0  0  0
 37 73  1  0  0  0  0
 38 74  1  0  0  0  0
 39 40  1  0  0  0  0
 40 41  1  0  0  0  0
 41 75  1  0  0  0  0
M  END
$$$$
