CHEMBL1945171
 OpenBabel04072215363D

 57 60  0  0  0  0  0  0  0  0999 V2000
    2.5436    0.1761   -0.0517 C   0  0  0  0  0  0  0  0  0  0  0  0
    1.0448    0.0923   -0.0104 C   0  0  0  0  0  0  0  0  0  0  0  0
    0.3185    1.3040   -0.0324 C   0  0  0  0  0  0  0  0  0  0  0  0
   -1.0754    1.3162   -0.0197 C   0  0  0  0  0  0  0  0  0  0  0  0
   -1.7742    0.1145   -0.0171 C   0  0  0  0  0  0  0  0  0  0  0  0
   -3.2814    0.0695   -0.0066 C   0  0  0  0  0  0  0  0  0  0  0  0
   -3.8241    0.0471    1.4247 C   0  0  0  0  0  0  0  0  0  0  0  0
   -5.3550   -0.0271    1.4789 C   0  0  0  0  0  0  0  0  0  0  0  0
   -5.9331   -1.2141    0.8317 N   0  0  0  0  0  0  0  0  0  0  0  0
   -5.4956   -2.4441    1.4763 C   0  0  0  0  0  0  0  0  0  0  0  0
   -7.3972   -1.1561    0.8504 C   0  0  0  0  0  0  0  0  0  0  0  0
   -1.0579   -1.0844    0.0302 C   0  0  0  0  0  0  0  0  0  0  0  0
    0.3474   -1.1353    0.0868 C   0  0  0  0  0  0  0  0  0  0  0  0
    1.0329   -2.3635    0.1929 N   0  0  0  0  0  0  0  0  0  0  0  0
    0.5837   -3.6320    0.5886 C   0  0  0  0  0  0  0  0  0  0  0  0
    1.5435   -4.4801    0.9884 N   0  0  0  0  0  0  0  0  0  0  0  0
    1.1502   -5.6914    1.4250 C   0  0  0  0  0  0  0  0  0  0  0  0
   -0.1629   -6.1003    1.4720 C   0  0  0  0  0  0  0  0  0  0  0  0
   -1.0920   -5.1750    1.0540 C   0  0  0  0  0  0  0  0  0  0  0  0
   -0.7207   -3.9609    0.5956 N   0  0  0  0  0  0  0  0  0  0  0  0
   -2.5461   -5.4496    1.0998 C   0  0  0  0  0  0  0  0  0  0  0  0
   -3.3569   -5.0941    0.0034 C   0  0  0  0  0  0  0  0  0  0  0  0
   -4.7323   -5.3521   -0.0001 C   0  0  0  0  0  0  0  0  0  0  0  0
   -5.3381   -5.8875    1.1315 C   0  0  0  0  0  0  0  0  0  0  0  0
   -7.0360   -6.1679    1.1554 Cl  0  0  0  0  0  0  0  0  0  0  0  0
   -4.5783   -6.1919    2.2536 C   0  0  0  0  0  0  0  0  0  0  0  0
   -3.1839   -6.0478    2.2153 C   0  0  0  0  0  0  0  0  0  0  0  0
   -2.5022   -6.5903    3.3266 N   0  0  0  0  0  0  0  0  0  0  0  0
   -1.3370   -7.3089    3.2802 C   0  0  0  0  0  0  0  0  0  0  0  0
   -0.8432   -8.1301    4.6535 S   0  0  0  0  0  0  0  0  0  0  0  0
   -0.5853   -7.4395    1.9725 C   0  0  0  0  0  0  0  0  0  0  0  0
    2.8789    1.1834   -0.3292 H   0  0  0  0  0  0  0  0  0  0  0  0
    2.9515   -0.5053   -0.8051 H   0  0  0  0  0  0  0  0  0  0  0  0
    2.9688   -0.0582    0.9286 H   0  0  0  0  0  0  0  0  0  0  0  0
    0.8450    2.2561   -0.0565 H   0  0  0  0  0  0  0  0  0  0  0  0
   -1.6080    2.2636   -0.0212 H   0  0  0  0  0  0  0  0  0  0  0  0
   -3.6116   -0.8178   -0.5625 H   0  0  0  0  0  0  0  0  0  0  0  0
   -3.6812    0.9325   -0.5509 H   0  0  0  0  0  0  0  0  0  0  0  0
   -3.5035    0.9548    1.9496 H   0  0  0  0  0  0  0  0  0  0  0  0
   -3.3797   -0.7874    1.9882 H   0  0  0  0  0  0  0  0  0  0  0  0
   -5.7469    0.8735    0.9916 H   0  0  0  0  0  0  0  0  0  0  0  0
   -5.6710    0.0203    2.5281 H   0  0  0  0  0  0  0  0  0  0  0  0
   -4.4299   -2.6232    1.3095 H   0  0  0  0  0  0  0  0  0  0  0  0
   -6.0324   -3.2822    1.0330 H   0  0  0  0  0  0  0  0  0  0  0  0
   -5.6909   -2.4528    2.5533 H   0  0  0  0  0  0  0  0  0  0  0  0
   -7.7616   -0.2542    0.3479 H   0  0  0  0  0  0  0  0  0  0  0  0
   -7.7963   -1.1758    1.8715 H   0  0  0  0  0  0  0  0  0  0  0  0
   -7.8193   -2.0087    0.3039 H   0  0  0  0  0  0  0  0  0  0  0  0
   -1.6353   -2.0015    0.0169 H   0  0  0  0  0  0  0  0  0  0  0  0
    2.0195   -2.3060    0.3965 H   0  0  0  0  0  0  0  0  0  0  0  0
    1.9563   -6.3394    1.7590 H   0  0  0  0  0  0  0  0  0  0  0  0
   -2.9121   -4.6128   -0.8679 H   0  0  0  0  0  0  0  0  0  0  0  0
   -5.3295   -5.0850   -0.8689 H   0  0  0  0  0  0  0  0  0  0  0  0
   -5.0676   -6.6135    3.1284 H   0  0  0  0  0  0  0  0  0  0  0  0
   -3.0297   -6.7247    4.1851 H   0  0  0  0  0  0  0  0  0  0  0  0
   -1.2423   -7.9185    1.2325 H   0  0  0  0  0  0  0  0  0  0  0  0
    0.2800   -8.1039    2.0720 H   0  0  0  0  0  0  0  0  0  0  0  0
  1  2  1  0  0  0  0
  1 32  1  0  0  0  0
  1 33  1  0  0  0  0
  1 34  1  0  0  0  0
  2  3  1  0  0  0  0
  2 13  2  0  0  0  0
  3  4  2  0  0  0  0
  3 35  1  0  0  0  0
  4  5  1  0  0  0  0
  4 36  1  0  0  0  0
  5  6  1  0  0  0  0
  5 12  2  0  0  0  0
  6  7  1  0  0  0  0
  6 37  1  0  0  0  0
  6 38  1  0  0  0  0
  7  8  1  0  0  0  0
  7 39  1  0  0  0  0
  7 40  1  0  0  0  0
  8  9  1  0  0  0  0
  8 41  1  0  0  0  0
  8 42  1  0  0  0  0
  9 10  1  0  0  0  0
  9 11  1  0  0  0  0
 10 43  1  0  0  0  0
 10 44  1  0  0  0  0
 10 45  1  0  0  0  0
 11 46  1  0  0  0  0
 11 47  1  0  0  0  0
 11 48  1  0  0  0  0
 12 13  1  0  0  0  0
 12 49  1  0  0  0  0
 13 14  1  0  0  0  0
 14 15  1  0  0  0  0
 14 50  1  0  0  0  0
 15 16  1  0  0  0  0
 15 20  2  0  0  0  0
 16 17  2  0  0  0  0
 17 18  1  0  0  0  0
 17 51  1  0  0  0  0
 18 19  2  0  0  0  0
 18 31  1  0  0  0  0
 19 20  1  0  0  0  0
 19 21  1  0  0  0  0
 21 22  1  0  0  0  0
 21 27  2  0  0  0  0
 22 23  2  0  0  0  0
 22 52  1  0  0  0  0
 23 24  1  0  0  0  0
 23 53  1  0  0  0  0
 24 25  1  0  0  0  0
 24 26  2  0  0  0  0
 26 27  1  0  0  0  0
 26 54  1  0  0  0  0
 27 28  1  0  0  0  0
 28 29  1  0  0  0  0
 28 55  1  0  0  0  0
 29 30  2  0  0  0  0
 29 31  1  0  0  0  0
 31 56  1  0  0  0  0
 31 57  1  0  0  0  0
M  END
$$$$
