CHEMBL602043
 OpenBabel04072215383D

 37 40  0  0  0  0  0  0  0  0999 V2000
    1.2605   -0.5411    0.5482 O   0  0  0  0  0  0  0  0  0  0  0  0
    2.4042   -0.2450    0.2090 C   0  0  0  0  0  0  0  0  0  0  0  0
    3.1020   -0.9673   -0.9239 C   0  0  0  0  0  0  0  0  0  0  0  0
    4.3473   -1.6218   -0.4434 C   0  0  0  0  0  0  0  0  0  0  0  0
    4.4886   -2.9913   -0.3751 C   0  0  0  0  0  0  0  0  0  0  0  0
    5.5803   -3.6040    0.1120 N   0  0  0  0  0  0  0  0  0  0  0  0
    6.5855   -2.8173    0.5153 C   0  0  0  0  0  0  0  0  0  0  0  0
    7.6971   -3.4557    1.0594 N   0  0  0  0  0  0  0  0  0  0  0  0
    9.0159   -2.9919    1.1289 C   0  0  0  0  0  0  0  0  0  0  0  0
    9.8538   -3.4391    2.1586 C   0  0  0  0  0  0  0  0  0  0  0  0
   11.1447   -2.9193    2.3050 C   0  0  0  0  0  0  0  0  0  0  0  0
   11.6181   -1.9547    1.4151 C   0  0  0  0  0  0  0  0  0  0  0  0
   10.7933   -1.5231    0.3824 C   0  0  0  0  0  0  0  0  0  0  0  0
   11.2014   -0.5886   -0.5185 O   0  0  0  0  0  0  0  0  0  0  0  0
    9.5126   -2.0313    0.2388 C   0  0  0  0  0  0  0  0  0  0  0  0
    6.5387   -1.4718    0.4621 N   0  0  0  0  0  0  0  0  0  0  0  0
    5.4183   -0.8818    0.0084 C   0  0  0  0  0  0  0  0  0  0  0  0
    5.4010    0.5901    0.0467 C   0  0  0  0  0  0  0  0  0  0  0  0
    6.5440    1.3168   -0.2991 C   0  0  0  0  0  0  0  0  0  0  0  0
    6.6424    2.6703   -0.2868 N   0  0  0  0  0  0  0  0  0  0  0  0
    5.5721    3.3530    0.1552 C   0  0  0  0  0  0  0  0  0  0  0  0
    4.4028    2.7468    0.5727 C   0  0  0  0  0  0  0  0  0  0  0  0
    4.2951    1.3570    0.4650 C   0  0  0  0  0  0  0  0  0  0  0  0
    3.0319    0.8199    0.7919 N   0  0  0  0  0  0  0  0  0  0  0  0
    3.3218   -0.2534   -1.7279 H   0  0  0  0  0  0  0  0  0  0  0  0
    2.4107   -1.7018   -1.3493 H   0  0  0  0  0  0  0  0  0  0  0  0
    3.7002   -3.6610   -0.7087 H   0  0  0  0  0  0  0  0  0  0  0  0
    7.5584   -4.4524    1.1123 H   0  0  0  0  0  0  0  0  0  0  0  0
    9.4905   -4.1667    2.8804 H   0  0  0  0  0  0  0  0  0  0  0  0
   11.7728   -3.2552    3.1263 H   0  0  0  0  0  0  0  0  0  0  0  0
   12.6169   -1.5529    1.5430 H   0  0  0  0  0  0  0  0  0  0  0  0
   12.0653   -0.2426   -0.2385 H   0  0  0  0  0  0  0  0  0  0  0  0
    8.8995   -1.6739   -0.5836 H   0  0  0  0  0  0  0  0  0  0  0  0
    7.4516    0.8088   -0.6219 H   0  0  0  0  0  0  0  0  0  0  0  0
    5.6721    4.4346    0.1509 H   0  0  0  0  0  0  0  0  0  0  0  0
    3.5734    3.3599    0.9076 H   0  0  0  0  0  0  0  0  0  0  0  0
    2.4127    1.3646    1.3821 H   0  0  0  0  0  0  0  0  0  0  0  0
  1  2  2  0  0  0  0
  2  3  1  0  0  0  0
  2 24  1  0  0  0  0
  3  4  1  0  0  0  0
  3 25  1  0  0  0  0
  3 26  1  0  0  0  0
  4  5  1  0  0  0  0
  4 17  2  0  0  0  0
  5  6  2  0  0  0  0
  5 27  1  0  0  0  0
  6  7  1  0  0  0  0
  7  8  1  0  0  0  0
  7 16  2  0  0  0  0
  8  9  1  0  0  0  0
  8 28  1  0  0  0  0
  9 10  1  0  0  0  0
  9 15  2  0  0  0  0
 10 11  2  0  0  0  0
 10 29  1  0  0  0  0
 11 12  1  0  0  0  0
 11 30  1  0  0  0  0
 12 13  2  0  0  0  0
 12 31  1  0  0  0  0
 13 14  1  0  0  0  0
 13 15  1  0  0  0  0
 14 32  1  0  0  0  0
 15 33  1  0  0  0  0
 16 17  1  0  0  0  0
 17 18  1  0  0  0  0
 18 19  1  0  0  0  0
 18 23  2  0  0  0  0
 19 20  2  0  0  0  0
 19 34  1  0  0  0  0
 20 21  1  0  0  0  0
 21 22  2  0  0  0  0
 21 35  1  0  0  0  0
 22 23  1  0  0  0  0
 22 36  1  0  0  0  0
 23 24  1  0  0  0  0
 24 37  1  0  0  0  0
M  END
$$$$
