CHEMBL498551
 OpenBabel04072215383D

 50 54  0  0  0  0  0  0  0  0999 V2000
    2.4660    0.9591   -0.0766 C   0  0  0  0  0  0  0  0  0  0  0  0
    1.1113    0.4938   -0.3391 N   0  0  0  0  0  0  0  0  0  0  0  0
    0.6327   -0.4449    0.6907 C   0  0  0  0  0  0  0  0  0  0  0  0
   -0.7385   -1.0472    0.2995 C   0  0  0  0  0  0  0  0  0  0  0  0
   -1.7469   -0.0076   -0.0115 N   0  0  0  0  0  0  0  0  0  0  0  0
   -3.0352   -0.0341    0.5350 C   0  0  0  0  0  0  0  0  0  0  0  0
   -3.1712   -0.4893    1.8758 C   0  0  0  0  0  0  0  0  0  0  0  0
   -4.3680   -0.4350    2.5890 C   0  0  0  0  0  0  0  0  0  0  0  0
   -5.4722    0.1394    2.0032 C   0  0  0  0  0  0  0  0  0  0  0  0
   -5.3897    0.5719    0.6807 C   0  0  0  0  0  0  0  0  0  0  0  0
   -6.5086    1.2282    0.1859 N   0  0  0  0  0  0  0  0  0  0  0  0
   -6.5717    1.7809   -1.0459 C   0  0  0  0  0  0  0  0  0  0  0  0
   -7.5624    2.4534   -1.3386 O   0  0  0  0  0  0  0  0  0  0  0  0
   -5.4691    1.4664   -2.0232 C   0  0  0  0  0  0  0  0  0  0  0  0
   -5.6312    1.8963   -3.3912 C   0  0  0  0  0  0  0  0  0  0  0  0
   -4.8591    1.8481   -4.4770 N   0  0  0  0  0  0  0  0  0  0  0  0
   -5.5193    2.5883   -5.4519 C   0  0  0  0  0  0  0  0  0  0  0  0
   -5.1753    2.9097   -6.7791 C   0  0  0  0  0  0  0  0  0  0  0  0
   -6.0171    3.7692   -7.5135 C   0  0  0  0  0  0  0  0  0  0  0  0
   -7.1797    4.2968   -6.9462 C   0  0  0  0  0  0  0  0  0  0  0  0
   -7.5650    3.9497   -5.6502 C   0  0  0  0  0  0  0  0  0  0  0  0
   -6.7106    3.0936   -4.9567 C   0  0  0  0  0  0  0  0  0  0  0  0
   -6.7964    2.5626   -3.7090 N   0  0  0  0  0  0  0  0  0  0  0  0
   -4.4108    0.7297   -1.5937 C   0  0  0  0  0  0  0  0  0  0  0  0
   -3.5178    0.1273   -2.4612 N   0  0  0  0  0  0  0  0  0  0  0  0
   -4.2277    0.4248   -0.1158 C   0  0  0  0  0  0  0  0  0  0  0  0
   -1.2611    1.1503   -0.8000 C   0  0  0  0  0  0  0  0  0  0  0  0
    0.1565    1.6175   -0.4011 C   0  0  0  0  0  0  0  0  0  0  0  0
    3.1598    0.1127   -0.0199 H   0  0  0  0  0  0  0  0  0  0  0  0
    2.5421    1.5351    0.8511 H   0  0  0  0  0  0  0  0  0  0  0  0
    2.8127    1.5868   -0.9056 H   0  0  0  0  0  0  0  0  0  0  0  0
    0.5553    0.0584    1.6648 H   0  0  0  0  0  0  0  0  0  0  0  0
    1.3468   -1.2687    0.8104 H   0  0  0  0  0  0  0  0  0  0  0  0
   -1.0467   -1.7301    1.0982 H   0  0  0  0  0  0  0  0  0  0  0  0
   -0.6159   -1.6756   -0.5900 H   0  0  0  0  0  0  0  0  0  0  0  0
   -2.3125   -0.8601    2.4278 H   0  0  0  0  0  0  0  0  0  0  0  0
   -4.4166   -0.7961    3.6123 H   0  0  0  0  0  0  0  0  0  0  0  0
   -6.3886    0.2506    2.5759 H   0  0  0  0  0  0  0  0  0  0  0  0
   -7.3024    1.4129    0.7834 H   0  0  0  0  0  0  0  0  0  0  0  0
   -4.2682    2.5078   -7.2178 H   0  0  0  0  0  0  0  0  0  0  0  0
   -5.7466    4.0439   -8.5331 H   0  0  0  0  0  0  0  0  0  0  0  0
   -7.7991    4.9867   -7.5152 H   0  0  0  0  0  0  0  0  0  0  0  0
   -8.4707    4.3416   -5.1989 H   0  0  0  0  0  0  0  0  0  0  0  0
   -7.5603    2.7188   -3.0612 H   0  0  0  0  0  0  0  0  0  0  0  0
   -3.3551    0.6407   -3.3306 H   0  0  0  0  0  0  0  0  0  0  0  0
   -2.7165   -0.3182   -2.0225 H   0  0  0  0  0  0  0  0  0  0  0  0
   -1.9408    2.0055   -0.7187 H   0  0  0  0  0  0  0  0  0  0  0  0
   -1.1907    0.8634   -1.8538 H   0  0  0  0  0  0  0  0  0  0  0  0
    0.1146    2.1460    0.5599 H   0  0  0  0  0  0  0  0  0  0  0  0
    0.4918    2.3398   -1.1558 H   0  0  0  0  0  0  0  0  0  0  0  0
  1  2  1  0  0  0  0
  1 29  1  0  0  0  0
  1 30  1  0  0  0  0
  1 31  1  0  0  0  0
  2  3  1  0  0  0  0
  2 28  1  0  0  0  0
  3  4  1  0  0  0  0
  3 32  1  0  0  0  0
  3 33  1  0  0  0  0
  4  5  1  0  0  0  0
  4 34  1  0  0  0  0
  4 35  1  0  0  0  0
  5  6  1  0  0  0  0
  5 27  1  0  0  0  0
  6  7  1  0  0  0  0
  6 26  2  0  0  0  0
  7  8  2  0  0  0  0
  7 36  1  0  0  0  0
  8  9  1  0  0  0  0
  8 37  1  0  0  0  0
  9 10  2  0  0  0  0
  9 38  1  0  0  0  0
 10 11  1  0  0  0  0
 10 26  1  0  0  0  0
 11 12  1  0  0  0  0
 11 39  1  0  0  0  0
 12 13  2  0  0  0  0
 12 14  1  0  0  0  0
 14 15  1  0  0  0  0
 14 24  2  0  0  0  0
 15 16  2  0  0  0  0
 15 23  1  0  0  0  0
 16 17  1  0  0  0  0
 17 18  1  0  0  0  0
 17 22  2  0  0  0  0
 18 19  2  0  0  0  0
 18 40  1  0  0  0  0
 19 20  1  0  0  0  0
 19 41  1  0  0  0  0
 20 21  2  0  0  0  0
 20 42  1  0  0  0  0
 21 22  1  0  0  0  0
 21 43  1  0  0  0  0
 22 23  1  0  0  0  0
 23 44  1  0  0  0  0
 24 25  1  0  0  0  0
 24 26  1  0  0  0  0
 25 45  1  0  0  0  0
 25 46  1  0  0  0  0
 27 28  1  0  0  0  0
 27 47  1  0  0  0  0
 27 48  1  0  0  0  0
 28 49  1  0  0  0  0
 28 50  1  0  0  0  0
M  END
$$$$
