CHEMBL3924172
 OpenBabel04072215373D

 61 64  0  0  0  0  0  0  0  0999 V2000
    2.5880    1.4478   -0.1388 C   0  0  0  0  0  0  0  0  0  0  0  0
    1.9873    0.4805    0.7285 O   0  0  0  0  0  0  0  0  0  0  0  0
    2.8875   -0.1269    1.5652 C   0  0  0  0  0  0  0  0  0  0  0  0
    2.6278   -1.4295    1.9329 C   0  0  0  0  0  0  0  0  0  0  0  0
    3.5556   -2.1087    2.7217 C   0  0  0  0  0  0  0  0  0  0  0  0
    3.4328   -3.4037    3.1421 O   0  0  0  0  0  0  0  0  0  0  0  0
    2.2513   -4.0376    2.6814 C   0  0  0  0  0  0  0  0  0  0  0  0
    4.7463   -1.4952    3.1081 C   0  0  0  0  0  0  0  0  0  0  0  0
    5.0777   -0.2203    2.6935 C   0  0  0  0  0  0  0  0  0  0  0  0
    6.3932    0.2805    2.8950 N   0  0  0  0  0  0  0  0  0  0  0  0
    6.8006    1.3478    1.8885 C   0  0  0  0  0  0  0  0  0  0  0  0
    6.9974    0.7729    0.5151 C   0  0  0  0  0  0  0  0  0  0  0  0
    7.1426    0.3084   -0.5927 C   0  0  0  0  0  0  0  0  0  0  0  0
    7.3172   -0.2510   -1.9697 C   0  0  0  0  0  0  0  0  0  0  0  0
    6.2550    0.2873   -2.9278 C   0  0  0  0  0  0  0  0  0  0  0  0
    8.7087    0.0513   -2.5283 C   0  0  0  0  0  0  0  0  0  0  0  0
    7.1768   -1.6728   -1.9527 O   0  0  0  0  0  0  0  0  0  0  0  0
    7.4719   -0.2464    3.7133 C   0  0  0  0  0  0  0  0  0  0  0  0
    8.1415    0.7356    4.4224 C   0  0  0  0  0  0  0  0  0  0  0  0
    9.2522    0.3476    5.1117 C   0  0  0  0  0  0  0  0  0  0  0  0
    9.7926   -0.8865    5.0473 C   0  0  0  0  0  0  0  0  0  0  0  0
   11.0686   -0.7472    4.9164 N   0  0  0  0  0  0  0  0  0  0  0  0
   11.6220   -1.1256    6.0260 C   0  0  0  0  0  0  0  0  0  0  0  0
   11.7332   -2.3349    6.6298 C   0  0  0  0  0  0  0  0  0  0  0  0
   13.0911   -1.6712    7.4658 C   0  0  0  0  0  0  0  0  0  0  0  0
   13.3941   -0.2901    7.9900 C   0  0  0  0  0  0  0  0  0  0  0  0
   14.5939   -0.0844    8.5484 N   0  0  0  0  0  0  0  0  0  0  0  0
   15.1884   -1.2795    8.4958 N   0  0  0  0  0  0  0  0  0  0  0  0
   16.5074   -1.4218    9.1372 C   0  0  0  0  0  0  0  0  0  0  0  0
   14.3500   -2.2322    7.8414 C   0  0  0  0  0  0  0  0  0  0  0  0
   10.5242   -2.8283    5.9116 N   0  0  0  0  0  0  0  0  0  0  0  0
    9.2799   -2.1049    4.9795 C   0  0  0  0  0  0  0  0  0  0  0  0
    7.9682   -1.6302    3.9875 C   0  0  0  0  0  0  0  0  0  0  0  0
    4.0257    0.4991    2.0837 C   0  0  0  0  0  0  0  0  0  0  0  0
    1.8162    1.8563   -0.7968 H   0  0  0  0  0  0  0  0  0  0  0  0
    3.3668    0.9964   -0.7670 H   0  0  0  0  0  0  0  0  0  0  0  0
    2.9965    2.2877    0.4294 H   0  0  0  0  0  0  0  0  0  0  0  0
    1.6888   -1.8769    1.6264 H   0  0  0  0  0  0  0  0  0  0  0  0
    2.2675   -5.0722    3.0195 H   0  0  0  0  0  0  0  0  0  0  0  0
    2.2083   -4.0380    1.5852 H   0  0  0  0  0  0  0  0  0  0  0  0
    1.3741   -3.5426    3.1114 H   0  0  0  0  0  0  0  0  0  0  0  0
    5.4176   -2.0375    3.7547 H   0  0  0  0  0  0  0  0  0  0  0  0
    7.7137    1.8863    2.1852 H   0  0  0  0  0  0  0  0  0  0  0  0
    6.0602    2.1678    1.8429 H   0  0  0  0  0  0  0  0  0  0  0  0
    6.3268    1.3731   -3.0437 H   0  0  0  0  0  0  0  0  0  0  0  0
    5.2496    0.0385   -2.5703 H   0  0  0  0  0  0  0  0  0  0  0  0
    6.3504   -0.1751   -3.9195 H   0  0  0  0  0  0  0  0  0  0  0  0
    8.8730    1.1282   -2.6359 H   0  0  0  0  0  0  0  0  0  0  0  0
    8.8539   -0.4159   -3.5124 H   0  0  0  0  0  0  0  0  0  0  0  0
    9.4933   -0.3550   -1.8804 H   0  0  0  0  0  0  0  0  0  0  0  0
    6.3377   -1.8747   -1.5065 H   0  0  0  0  0  0  0  0  0  0  0  0
    7.9844    1.7902    4.3775 H   0  0  0  0  0  0  0  0  0  0  0  0
    9.9023    1.0806    5.5634 H   0  0  0  0  0  0  0  0  0  0  0  0
   11.8811   -0.1756    6.4533 H   0  0  0  0  0  0  0  0  0  0  0  0
   12.7904    0.6143    7.9696 H   0  0  0  0  0  0  0  0  0  0  0  0
   16.9084   -0.4544    9.4984 H   0  0  0  0  0  0  0  0  0  0  0  0
   17.2443   -1.8288    8.4381 H   0  0  0  0  0  0  0  0  0  0  0  0
   16.4264   -2.0712   10.0152 H   0  0  0  0  0  0  0  0  0  0  0  0
   14.7841   -3.2094    7.7355 H   0  0  0  0  0  0  0  0  0  0  0  0
    7.4682   -2.3827    3.3416 H   0  0  0  0  0  0  0  0  0  0  0  0
    3.9987    1.5834    2.1133 H   0  0  0  0  0  0  0  0  0  0  0  0
  1  2  1  0  0  0  0
  1 35  1  0  0  0  0
  1 36  1  0  0  0  0
  1 37  1  0  0  0  0
  2  3  1  0  0  0  0
  3  4  1  0  0  0  0
  3 34  2  0  0  0  0
  4  5  2  0  0  0  0
  4 38  1  0  0  0  0
  5  6  1  0  0  0  0
  5  8  1  0  0  0  0
  6  7  1  0  0  0  0
  7 39  1  0  0  0  0
  7 40  1  0  0  0  0
  7 41  1  0  0  0  0
  8  9  2  0  0  0  0
  8 42  1  0  0  0  0
  9 10  1  0  0  0  0
  9 34  1  0  0  0  0
 10 11  1  0  0  0  0
 10 18  1  0  0  0  0
 11 12  1  0  0  0  0
 11 43  1  0  0  0  0
 11 44  1  0  0  0  0
 12 13  3  0  0  0  0
 13 14  1  0  0  0  0
 14 15  1  0  0  0  0
 14 16  1  0  0  0  0
 14 17  1  0  0  0  0
 15 45  1  0  0  0  0
 15 46  1  0  0  0  0
 15 47  1  0  0  0  0
 16 48  1  0  0  0  0
 16 49  1  0  0  0  0
 16 50  1  0  0  0  0
 17 51  1  0  0  0  0
 18 19  1  0  0  0  0
 18 33  2  0  0  0  0
 19 20  2  0  0  0  0
 19 52  1  0  0  0  0
 20 21  1  0  0  0  0
 20 53  1  0  0  0  0
 21 22  1  0  0  0  0
 21 32  2  0  0  0  0
 22 23  2  0  0  0  0
 23 24  1  0  0  0  0
 23 54  1  0  0  0  0
 24 25  1  0  0  0  0
 24 31  2  0  0  0  0
 25 26  1  0  0  0  0
 25 30  2  0  0  0  0
 26 27  2  0  0  0  0
 26 55  1  0  0  0  0
 27 28  1  0  0  0  0
 28 29  1  0  0  0  0
 28 30  1  0  0  0  0
 29 56  1  0  0  0  0
 29 57  1  0  0  0  0
 29 58  1  0  0  0  0
 30 59  1  0  0  0  0
 31 32  1  0  0  0  0
 32 33  1  0  0  0  0
 33 60  1  0  0  0  0
 34 61  1  0  0  0  0
M  END
$$$$
