CHEMBL3950023
 OpenBabel04072215373D

 62 65  0  0  1  0  0  0  0  0999 V2000
    1.2948   -3.1036   -0.8993 C   0  0  0  0  0  0  0  0  0  0  0  0
    1.6906   -1.6335   -0.7127 C   0  0  1  0  0  0  0  0  0  0  0  0
    2.8330   -1.5097    0.2068 N   0  0  0  0  0  0  0  0  0  0  0  0
    2.5687   -1.8812    1.5341 C   0  0  0  0  0  0  0  0  0  0  0  0
    1.3149   -1.8184    2.0435 N   0  0  0  0  0  0  0  0  0  0  0  0
    1.1101   -2.2243    3.3143 C   0  0  0  0  0  0  0  0  0  0  0  0
    2.0104   -2.6934    4.1954 N   0  0  0  0  0  0  0  0  0  0  0  0
    3.2371   -2.7287    3.6565 C   0  0  0  0  0  0  0  0  0  0  0  0
    4.3589   -3.1815    4.2962 N   0  0  0  0  0  0  0  0  0  0  0  0
    5.4527   -3.1181    3.4581 C   0  0  0  0  0  0  0  0  0  0  0  0
    6.7893   -3.6000    3.8142 C   0  0  0  0  0  0  0  0  0  0  0  0
    7.6268   -4.0872    2.8074 C   0  0  0  0  0  0  0  0  0  0  0  0
    8.9139   -4.5481    3.0947 C   0  0  0  0  0  0  0  0  0  0  0  0
    9.4039   -4.5355    4.3972 C   0  0  0  0  0  0  0  0  0  0  0  0
   10.6968   -4.9920    4.7448 N   0  0  0  0  0  0  0  0  0  0  0  0
   11.6621   -5.4737    3.8727 C   0  0  0  0  0  0  0  0  0  0  0  0
   11.5670   -5.5683    2.6529 O   0  0  0  0  0  0  0  0  0  0  0  0
   12.9086   -5.9822    4.5648 C   0  0  0  0  0  0  0  0  0  0  0  0
   12.7235   -7.4638    4.8737 C   0  0  0  0  0  0  0  0  0  0  0  0
   13.9391   -8.0368    5.4676 N   0  0  0  0  0  0  0  0  0  0  0  0
   13.7117   -9.4694    5.7705 C   0  0  0  0  0  0  0  0  0  0  0  0
   14.9540  -10.1001    6.3940 C   0  0  0  0  0  0  0  0  0  0  0  0
   14.9043  -11.0006    7.2306 O   0  0  0  0  0  0  0  0  0  0  0  0
   16.1402   -9.6176    5.9099 N   0  0  0  0  0  0  0  0  0  0  0  0
   17.3302  -10.1348    6.4596 O   0  0  0  0  0  0  0  0  0  0  0  0
    8.5698   -4.0541    5.4153 C   0  0  0  0  0  0  0  0  0  0  0  0
    7.2738   -3.5905    5.1273 C   0  0  0  0  0  0  0  0  0  0  0  0
    4.9878   -2.5875    2.2603 C   0  0  0  0  0  0  0  0  0  0  0  0
    3.5932   -2.3455    2.3763 C   0  0  0  0  0  0  0  0  0  0  0  0
    2.0412   -1.0479   -2.0782 C   0  0  0  0  0  0  0  0  0  0  0  0
    1.0308   -0.4525   -2.8541 C   0  0  0  0  0  0  0  0  0  0  0  0
    1.2993    0.0320   -4.1357 C   0  0  0  0  0  0  0  0  0  0  0  0
    2.5845   -0.0664   -4.6632 C   0  0  0  0  0  0  0  0  0  0  0  0
    3.5989   -0.6599   -3.9116 C   0  0  0  0  0  0  0  0  0  0  0  0
    3.3284   -1.1515   -2.6311 C   0  0  0  0  0  0  0  0  0  0  0  0
    0.9069   -3.5374    0.0279 H   0  0  0  0  0  0  0  0  0  0  0  0
    2.1517   -3.7123   -1.2106 H   0  0  0  0  0  0  0  0  0  0  0  0
    0.5123   -3.2115   -1.6585 H   0  0  0  0  0  0  0  0  0  0  0  0
    0.8399   -1.0606   -0.3206 H   0  0  0  0  0  0  0  0  0  0  0  0
    3.1331   -0.5371    0.2368 H   0  0  0  0  0  0  0  0  0  0  0  0
    0.0846   -2.1692    3.6667 H   0  0  0  0  0  0  0  0  0  0  0  0
    4.3495   -3.5562    5.2322 H   0  0  0  0  0  0  0  0  0  0  0  0
    7.2892   -4.1280    1.7742 H   0  0  0  0  0  0  0  0  0  0  0  0
    9.5008   -4.9129    2.2581 H   0  0  0  0  0  0  0  0  0  0  0  0
   10.9385   -4.9363    5.7267 H   0  0  0  0  0  0  0  0  0  0  0  0
   13.1065   -5.4010    5.4721 H   0  0  0  0  0  0  0  0  0  0  0  0
   13.7574   -5.8232    3.8881 H   0  0  0  0  0  0  0  0  0  0  0  0
   12.4755   -8.0004    3.9491 H   0  0  0  0  0  0  0  0  0  0  0  0
   11.8765   -7.5877    5.5601 H   0  0  0  0  0  0  0  0  0  0  0  0
   14.1500   -7.5512    6.3419 H   0  0  0  0  0  0  0  0  0  0  0  0
   13.4806  -10.0277    4.8567 H   0  0  0  0  0  0  0  0  0  0  0  0
   12.8863   -9.5754    6.4829 H   0  0  0  0  0  0  0  0  0  0  0  0
   16.1923   -8.8404    5.2570 H   0  0  0  0  0  0  0  0  0  0  0  0
   16.9928  -10.8114    7.0867 H   0  0  0  0  0  0  0  0  0  0  0  0
    8.9116   -4.0235    6.4469 H   0  0  0  0  0  0  0  0  0  0  0  0
    6.6661   -3.2059    5.9423 H   0  0  0  0  0  0  0  0  0  0  0  0
    5.5813   -2.4136    1.3716 H   0  0  0  0  0  0  0  0  0  0  0  0
    0.0166   -0.3787   -2.4668 H   0  0  0  0  0  0  0  0  0  0  0  0
    0.5021    0.4781   -4.7261 H   0  0  0  0  0  0  0  0  0  0  0  0
    2.7910    0.3039   -5.6637 H   0  0  0  0  0  0  0  0  0  0  0  0
    4.5984   -0.7475   -4.3299 H   0  0  0  0  0  0  0  0  0  0  0  0
    4.1289   -1.6331   -2.0737 H   0  0  0  0  0  0  0  0  0  0  0  0
  1  2  1  0  0  0  0
  1 36  1  0  0  0  0
  1 37  1  0  0  0  0
  1 38  1  0  0  0  0
  2  3  1  0  0  0  0
  2 30  1  0  0  0  0
  2 39  1  1  0  0  0
  3  4  1  0  0  0  0
  3 40  1  0  0  0  0
  4  5  1  0  0  0  0
  4 29  2  0  0  0  0
  5  6  2  0  0  0  0
  6  7  1  0  0  0  0
  6 41  1  0  0  0  0
  7  8  2  0  0  0  0
  8  9  1  0  0  0  0
  8 29  1  0  0  0  0
  9 10  1  0  0  0  0
  9 42  1  0  0  0  0
 10 11  1  0  0  0  0
 10 28  2  0  0  0  0
 11 12  1  0  0  0  0
 11 27  2  0  0  0  0
 12 13  2  0  0  0  0
 12 43  1  0  0  0  0
 13 14  1  0  0  0  0
 13 44  1  0  0  0  0
 14 15  1  0  0  0  0
 14 26  2  0  0  0  0
 15 16  1  0  0  0  0
 15 45  1  0  0  0  0
 16 17  2  0  0  0  0
 16 18  1  0  0  0  0
 18 19  1  0  0  0  0
 18 46  1  0  0  0  0
 18 47  1  0  0  0  0
 19 20  1  0  0  0  0
 19 48  1  0  0  0  0
 19 49  1  0  0  0  0
 20 21  1  0  0  0  0
 20 50  1  0  0  0  0
 21 22  1  0  0  0  0
 21 51  1  0  0  0  0
 21 52  1  0  0  0  0
 22 23  2  0  0  0  0
 22 24  1  0  0  0  0
 24 25  1  0  0  0  0
 24 53  1  0  0  0  0
 25 54  1  0  0  0  0
 26 27  1  0  0  0  0
 26 55  1  0  0  0  0
 27 56  1  0  0  0  0
 28 29  1  0  0  0  0
 28 57  1  0  0  0  0
 30 31  1  0  0  0  0
 30 35  2  0  0  0  0
 31 32  2  0  0  0  0
 31 58  1  0  0  0  0
 32 33  1  0  0  0  0
 32 59  1  0  0  0  0
 33 34  2  0  0  0  0
 33 60  1  0  0  0  0
 34 35  1  0  0  0  0
 34 61  1  0  0  0  0
 35 62  1  0  0  0  0
M  END
$$$$
