CHEMBL392990
 OpenBabel04072215373D

 56 60  0  0  0  0  0  0  0  0999 V2000
    1.3939   -0.1735   -0.6156 C   0  0  0  0  0  0  0  0  0  0  0  0
    0.8058    1.0294   -0.9933 C   0  0  0  0  0  0  0  0  0  0  0  0
   -0.5754    1.2026   -0.8651 C   0  0  0  0  0  0  0  0  0  0  0  0
   -1.3872    0.1745   -0.3641 C   0  0  0  0  0  0  0  0  0  0  0  0
   -2.8280    0.3842   -0.1749 C   0  0  0  0  0  0  0  0  0  0  0  0
   -3.4130    1.0911   -1.1800 O   0  0  0  0  0  0  0  0  0  0  0  0
   -4.7446    1.1295   -0.9408 C   0  0  0  0  0  0  0  0  0  0  0  0
   -5.5971    1.6966   -1.8117 N   0  0  0  0  0  0  0  0  0  0  0  0
   -6.8802    1.6114   -1.4260 C   0  0  0  0  0  0  0  0  0  0  0  0
   -7.3271    1.0467   -0.2413 C   0  0  0  0  0  0  0  0  0  0  0  0
   -6.4099    0.5033    0.6740 C   0  0  0  0  0  0  0  0  0  0  0  0
   -6.8466    0.0529    1.9306 N   0  0  0  0  0  0  0  0  0  0  0  0
   -7.9976   -0.8607    1.9631 C   0  0  0  0  0  0  0  0  0  0  0  0
   -8.0666   -1.5718    3.3366 C   0  0  0  0  0  0  0  0  0  0  0  0
   -9.2729   -2.3899    3.5743 N   0  0  0  0  0  0  0  0  0  0  0  0
   -9.2548   -2.9403    4.9516 C   0  0  0  0  0  0  0  0  0  0  0  0
   -8.2632   -4.1098    5.1689 C   0  0  0  0  0  0  0  0  0  0  0  0
   -8.4173   -5.2027    4.1924 N   0  0  0  0  0  0  0  0  0  0  0  0
   -8.4052   -4.6574    2.8247 C   0  0  0  0  0  0  0  0  0  0  0  0
   -9.4228   -3.5124    2.6254 C   0  0  0  0  0  0  0  0  0  0  0  0
   -5.0451    0.5058    0.2713 C   0  0  0  0  0  0  0  0  0  0  0  0
   -3.7850   -0.0038    0.7601 C   0  0  0  0  0  0  0  0  0  0  0  0
   -3.4917   -0.8515    1.9211 C   0  0  0  0  0  0  0  0  0  0  0  0
   -4.3123   -1.9498    2.2133 C   0  0  0  0  0  0  0  0  0  0  0  0
   -4.0234   -2.8012    3.2827 C   0  0  0  0  0  0  0  0  0  0  0  0
   -2.8688   -2.6046    4.0344 C   0  0  0  0  0  0  0  0  0  0  0  0
   -2.0295   -1.5317    3.7455 C   0  0  0  0  0  0  0  0  0  0  0  0
   -2.3585   -0.6384    2.7217 C   0  0  0  0  0  0  0  0  0  0  0  0
   -0.7809   -1.0468   -0.0287 C   0  0  0  0  0  0  0  0  0  0  0  0
    0.6016   -1.2121   -0.1365 C   0  0  0  0  0  0  0  0  0  0  0  0
    2.4707   -0.3052   -0.7005 H   0  0  0  0  0  0  0  0  0  0  0  0
    1.4199    1.8375   -1.3849 H   0  0  0  0  0  0  0  0  0  0  0  0
   -1.0153    2.1570   -1.1533 H   0  0  0  0  0  0  0  0  0  0  0  0
   -7.5915    2.0479   -2.1238 H   0  0  0  0  0  0  0  0  0  0  0  0
   -8.3885    1.0703   -0.0197 H   0  0  0  0  0  0  0  0  0  0  0  0
   -6.0706   -0.2490    2.5137 H   0  0  0  0  0  0  0  0  0  0  0  0
   -7.8956   -1.6084    1.1677 H   0  0  0  0  0  0  0  0  0  0  0  0
   -8.9246   -0.2997    1.7990 H   0  0  0  0  0  0  0  0  0  0  0  0
   -8.0284   -0.7891    4.1062 H   0  0  0  0  0  0  0  0  0  0  0  0
   -7.1543   -2.1652    3.4654 H   0  0  0  0  0  0  0  0  0  0  0  0
  -10.2673   -3.2966    5.1820 H   0  0  0  0  0  0  0  0  0  0  0  0
   -9.0523   -2.1441    5.6791 H   0  0  0  0  0  0  0  0  0  0  0  0
   -8.4122   -4.5207    6.1736 H   0  0  0  0  0  0  0  0  0  0  0  0
   -7.2303   -3.7442    5.1361 H   0  0  0  0  0  0  0  0  0  0  0  0
   -9.3310   -5.6312    4.3485 H   0  0  0  0  0  0  0  0  0  0  0  0
   -8.6382   -5.4686    2.1260 H   0  0  0  0  0  0  0  0  0  0  0  0
   -7.3933   -4.3164    2.5767 H   0  0  0  0  0  0  0  0  0  0  0  0
  -10.4344   -3.9230    2.7530 H   0  0  0  0  0  0  0  0  0  0  0  0
   -9.3938   -3.1610    1.5890 H   0  0  0  0  0  0  0  0  0  0  0  0
   -5.1832   -2.1665    1.5987 H   0  0  0  0  0  0  0  0  0  0  0  0
   -4.6861   -3.6325    3.5119 H   0  0  0  0  0  0  0  0  0  0  0  0
   -2.6167   -3.2934    4.8368 H   0  0  0  0  0  0  0  0  0  0  0  0
   -1.1086   -1.3946    4.3075 H   0  0  0  0  0  0  0  0  0  0  0  0
   -1.6869    0.1952    2.5263 H   0  0  0  0  0  0  0  0  0  0  0  0
   -1.3756   -1.8796    0.3334 H   0  0  0  0  0  0  0  0  0  0  0  0
    1.0566   -2.1515    0.1634 H   0  0  0  0  0  0  0  0  0  0  0  0
  1  2  1  0  0  0  0
  1 30  2  0  0  0  0
  1 31  1  0  0  0  0
  2  3  2  0  0  0  0
  2 32  1  0  0  0  0
  3  4  1  0  0  0  0
  3 33  1  0  0  0  0
  4  5  1  0  0  0  0
  4 29  2  0  0  0  0
  5  6  1  0  0  0  0
  5 22  2  0  0  0  0
  6  7  1  0  0  0  0
  7  8  1  0  0  0  0
  7 21  2  0  0  0  0
  8  9  2  0  0  0  0
  9 10  1  0  0  0  0
  9 34  1  0  0  0  0
 10 11  2  0  0  0  0
 10 35  1  0  0  0  0
 11 12  1  0  0  0  0
 11 21  1  0  0  0  0
 12 13  1  0  0  0  0
 12 36  1  0  0  0  0
 13 14  1  0  0  0  0
 13 37  1  0  0  0  0
 13 38  1  0  0  0  0
 14 15  1  0  0  0  0
 14 39  1  0  0  0  0
 14 40  1  0  0  0  0
 15 16  1  0  0  0  0
 15 20  1  0  0  0  0
 16 17  1  0  0  0  0
 16 41  1  0  0  0  0
 16 42  1  0  0  0  0
 17 18  1  0  0  0  0
 17 43  1  0  0  0  0
 17 44  1  0  0  0  0
 18 19  1  0  0  0  0
 18 45  1  0  0  0  0
 19 20  1  0  0  0  0
 19 46  1  0  0  0  0
 19 47  1  0  0  0  0
 20 48  1  0  0  0  0
 20 49  1  0  0  0  0
 21 22  1  0  0  0  0
 22 23  1  0  0  0  0
 23 24  1  0  0  0  0
 23 28  2  0  0  0  0
 24 25  2  0  0  0  0
 24 50  1  0  0  0  0
 25 26  1  0  0  0  0
 25 51  1  0  0  0  0
 26 27  2  0  0  0  0
 26 52  1  0  0  0  0
 27 28  1  0  0  0  0
 27 53  1  0  0  0  0
 28 54  1  0  0  0  0
 29 30  1  0  0  0  0
 29 55  1  0  0  0  0
 30 56  1  0  0  0  0
M  END
$$$$
