CHEMBL3671548
 OpenBabel04072215373D

 53 55  0  0  0  0  0  0  0  0999 V2000
    1.2379    2.6322    0.8338 C   0  0  0  0  0  0  0  0  0  0  0  0
    2.5365    2.6735    0.5065 C   0  0  0  0  0  0  0  0  0  0  0  0
    3.2114    1.4368    0.0319 C   0  0  0  0  0  0  0  0  0  0  0  0
    2.6270    0.6959   -0.7580 O   0  0  0  0  0  0  0  0  0  0  0  0
    4.5025    1.1900    0.4959 N   0  0  0  0  0  0  0  0  0  0  0  0
    5.2594    0.1173   -0.1449 C   0  0  0  0  0  0  0  0  0  0  0  0
    5.2171    2.0478    1.3770 C   0  0  0  0  0  0  0  0  0  0  0  0
    6.4003    2.6107    0.8886 C   0  0  0  0  0  0  0  0  0  0  0  0
    7.0980    3.6024    1.6100 C   0  0  0  0  0  0  0  0  0  0  0  0
    8.2090    4.3032    1.1163 C   0  0  0  0  0  0  0  0  0  0  0  0
    8.6592    4.0578   -0.2069 N   0  0  0  0  0  0  0  0  0  0  0  0
    9.4684    4.9451   -0.9508 C   0  0  0  0  0  0  0  0  0  0  0  0
    9.2173    6.3238   -0.9531 C   0  0  0  0  0  0  0  0  0  0  0  0
   10.0636    7.2047   -1.6294 C   0  0  0  0  0  0  0  0  0  0  0  0
   11.1621    6.7031   -2.3254 C   0  0  0  0  0  0  0  0  0  0  0  0
   12.3476    7.9029   -3.1776 Br  0  0  0  0  0  0  0  0  0  0  0  0
   11.4006    5.3330   -2.3837 C   0  0  0  0  0  0  0  0  0  0  0  0
   10.5458    4.4677   -1.7057 C   0  0  0  0  0  0  0  0  0  0  0  0
   10.7834    3.1469   -1.7522 F   0  0  0  0  0  0  0  0  0  0  0  0
    8.8259    5.2524    1.8410 N   0  0  0  0  0  0  0  0  0  0  0  0
    8.3251    5.5127    3.0495 C   0  0  0  0  0  0  0  0  0  0  0  0
    7.2519    4.9358    3.5964 N   0  0  0  0  0  0  0  0  0  0  0  0
    6.6359    3.9967    2.8710 C   0  0  0  0  0  0  0  0  0  0  0  0
    5.4895    3.4032    3.3660 C   0  0  0  0  0  0  0  0  0  0  0  0
    4.7782    2.4202    2.6552 C   0  0  0  0  0  0  0  0  0  0  0  0
    3.6979    1.9423    3.3457 O   0  0  0  0  0  0  0  0  0  0  0  0
    3.3910    0.5488    3.2645 C   0  0  0  0  0  0  0  0  0  0  0  0
    4.5266   -0.3865    3.6922 C   0  0  0  0  0  0  0  0  0  0  0  0
    4.1349   -1.7815    3.5650 N   0  0  0  0  0  0  0  0  0  0  0  0
    4.7006   -2.6262    2.6393 C   0  0  0  0  0  0  0  0  0  0  0  0
    4.0893   -4.0003    2.5995 C   0  0  0  0  0  0  0  0  0  0  0  0
    5.6334   -2.3153    1.9054 O   0  0  0  0  0  0  0  0  0  0  0  0
    0.7309    3.5156    1.2020 H   0  0  0  0  0  0  0  0  0  0  0  0
    0.6684    1.7111    0.7567 H   0  0  0  0  0  0  0  0  0  0  0  0
    3.1152    3.5841    0.5885 H   0  0  0  0  0  0  0  0  0  0  0  0
    4.6001   -0.7110   -0.4188 H   0  0  0  0  0  0  0  0  0  0  0  0
    6.0301   -0.2570    0.5353 H   0  0  0  0  0  0  0  0  0  0  0  0
    5.7298    0.5013   -1.0552 H   0  0  0  0  0  0  0  0  0  0  0  0
    6.7455    2.3421   -0.1078 H   0  0  0  0  0  0  0  0  0  0  0  0
    8.9517    3.0898   -0.3182 H   0  0  0  0  0  0  0  0  0  0  0  0
    8.3655    6.7225   -0.4057 H   0  0  0  0  0  0  0  0  0  0  0  0
    9.8622    8.2708   -1.5884 H   0  0  0  0  0  0  0  0  0  0  0  0
   12.2464    4.9278   -2.9276 H   0  0  0  0  0  0  0  0  0  0  0  0
    8.8303    6.2701    3.6374 H   0  0  0  0  0  0  0  0  0  0  0  0
    5.1216    3.7202    4.3396 H   0  0  0  0  0  0  0  0  0  0  0  0
    2.9826    0.2799    2.2904 H   0  0  0  0  0  0  0  0  0  0  0  0
    2.5550    0.3947    3.9590 H   0  0  0  0  0  0  0  0  0  0  0  0
    4.7802   -0.2077    4.7423 H   0  0  0  0  0  0  0  0  0  0  0  0
    5.4347   -0.2007    3.1126 H   0  0  0  0  0  0  0  0  0  0  0  0
    3.3978   -2.1279    4.1649 H   0  0  0  0  0  0  0  0  0  0  0  0
    3.1342   -4.0326    3.1307 H   0  0  0  0  0  0  0  0  0  0  0  0
    4.7795   -4.7134    3.0563 H   0  0  0  0  0  0  0  0  0  0  0  0
    3.9086   -4.2762    1.5567 H   0  0  0  0  0  0  0  0  0  0  0  0
  1  2  2  0  0  0  0
  1 33  1  0  0  0  0
  1 34  1  0  0  0  0
  2  3  1  0  0  0  0
  2 35  1  0  0  0  0
  3  4  2  0  0  0  0
  3  5  1  0  0  0  0
  5  6  1  0  0  0  0
  5  7  1  0  0  0  0
  6 36  1  0  0  0  0
  6 37  1  0  0  0  0
  6 38  1  0  0  0  0
  7  8  1  0  0  0  0
  7 25  2  0  0  0  0
  8  9  2  0  0  0  0
  8 39  1  0  0  0  0
  9 10  1  0  0  0  0
  9 23  1  0  0  0  0
 10 11  1  0  0  0  0
 10 20  2  0  0  0  0
 11 12  1  0  0  0  0
 11 40  1  0  0  0  0
 12 13  1  0  0  0  0
 12 18  2  0  0  0  0
 13 14  2  0  0  0  0
 13 41  1  0  0  0  0
 14 15  1  0  0  0  0
 14 42  1  0  0  0  0
 15 16  1  0  0  0  0
 15 17  2  0  0  0  0
 17 18  1  0  0  0  0
 17 43  1  0  0  0  0
 18 19  1  0  0  0  0
 20 21  1  0  0  0  0
 21 22  2  0  0  0  0
 21 44  1  0  0  0  0
 22 23  1  0  0  0  0
 23 24  2  0  0  0  0
 24 25  1  0  0  0  0
 24 45  1  0  0  0  0
 25 26  1  0  0  0  0
 26 27  1  0  0  0  0
 27 28  1  0  0  0  0
 27 46  1  0  0  0  0
 27 47  1  0  0  0  0
 28 29  1  0  0  0  0
 28 48  1  0  0  0  0
 28 49  1  0  0  0  0
 29 30  1  0  0  0  0
 29 50  1  0  0  0  0
 30 31  1  0  0  0  0
 30 32  2  0  0  0  0
 31 51  1  0  0  0  0
 31 52  1  0  0  0  0
 31 53  1  0  0  0  0
M  END
$$$$
