CHEMBL430812
 OpenBabel04072215383D

 58 62  0  0  0  0  0  0  0  0999 V2000
    0.9627   -0.0131    0.3182 O   0  0  0  0  0  0  0  0  0  0  0  0
    2.1836   -0.0337    0.1840 C   0  0  0  0  0  0  0  0  0  0  0  0
    2.9071    1.1319    0.1758 N   0  0  0  0  0  0  0  0  0  0  0  0
    4.1801    1.0895   -0.0300 C   0  0  0  0  0  0  0  0  0  0  0  0
    4.9243    2.3702   -0.0841 C   0  0  0  0  0  0  0  0  0  0  0  0
    4.5335    3.3857    0.7963 C   0  0  0  0  0  0  0  0  0  0  0  0
    5.1038    4.6564    0.7269 C   0  0  0  0  0  0  0  0  0  0  0  0
    6.0322    4.8769   -0.2990 C   0  0  0  0  0  0  0  0  0  0  0  0
    6.3892    3.8893   -1.2156 C   0  0  0  0  0  0  0  0  0  0  0  0
    5.8784    2.5935   -1.0824 C   0  0  0  0  0  0  0  0  0  0  0  0
    7.1886    4.3913   -2.2076 N   0  0  0  0  0  0  0  0  0  0  0  0
    7.2878    5.6729   -1.9384 C   0  0  0  0  0  0  0  0  0  0  0  0
    6.7020    6.0034   -0.7383 N   0  0  0  0  0  0  0  0  0  0  0  0
    6.8247    7.2477   -0.0853 C   0  0  0  0  0  0  0  0  0  0  0  0
    6.7975    8.4264   -0.8380 C   0  0  0  0  0  0  0  0  0  0  0  0
    7.0514    9.6448   -0.2131 C   0  0  0  0  0  0  0  0  0  0  0  0
    7.3584    9.6823    1.1474 C   0  0  0  0  0  0  0  0  0  0  0  0
    7.3659    8.5068    1.8997 C   0  0  0  0  0  0  0  0  0  0  0  0
    7.0793    7.2860    1.2907 C   0  0  0  0  0  0  0  0  0  0  0  0
    4.9616   -0.1454   -0.2175 C   0  0  0  0  0  0  0  0  0  0  0  0
    4.2455   -1.2614   -0.1685 C   0  0  0  0  0  0  0  0  0  0  0  0
    2.8825   -1.2346    0.0261 N   0  0  0  0  0  0  0  0  0  0  0  0
    2.1309   -2.4833   -0.0024 C   0  0  0  0  0  0  0  0  0  0  0  0
    1.5714   -2.8209   -1.3891 C   0  0  0  0  0  0  0  0  0  0  0  0
    2.6357   -3.0746   -2.4680 C   0  0  0  0  0  0  0  0  0  0  0  0
    3.6570   -4.0782   -2.1114 N   0  0  0  0  0  0  0  0  0  0  0  0
    3.0721   -5.4123   -1.9059 C   0  0  0  0  0  0  0  0  0  0  0  0
    4.1386   -6.4320   -1.5041 C   0  0  0  0  0  0  0  0  0  0  0  0
    5.2578   -6.4971   -2.5337 C   0  0  0  0  0  0  0  0  0  0  0  0
    5.8149   -5.1032   -2.7922 C   0  0  0  0  0  0  0  0  0  0  0  0
    4.7003   -4.1196   -3.1524 C   0  0  0  0  0  0  0  0  0  0  0  0
    3.7439    3.1998    1.5250 H   0  0  0  0  0  0  0  0  0  0  0  0
    4.7675    5.4523    1.3846 H   0  0  0  0  0  0  0  0  0  0  0  0
    6.1548    1.8402   -1.8097 H   0  0  0  0  0  0  0  0  0  0  0  0
    7.8313    6.3924   -2.5359 H   0  0  0  0  0  0  0  0  0  0  0  0
    6.5481    8.4165   -1.8965 H   0  0  0  0  0  0  0  0  0  0  0  0
    7.0221   10.5657   -0.7901 H   0  0  0  0  0  0  0  0  0  0  0  0
    7.5981   10.6304    1.6214 H   0  0  0  0  0  0  0  0  0  0  0  0
    7.6203    8.5407    2.9563 H   0  0  0  0  0  0  0  0  0  0  0  0
    7.1393    6.3766    1.8858 H   0  0  0  0  0  0  0  0  0  0  0  0
    6.0334   -0.1346   -0.3744 H   0  0  0  0  0  0  0  0  0  0  0  0
    4.7101   -2.2349   -0.2958 H   0  0  0  0  0  0  0  0  0  0  0  0
    1.2866   -2.3936    0.6946 H   0  0  0  0  0  0  0  0  0  0  0  0
    2.7561   -3.2942    0.3875 H   0  0  0  0  0  0  0  0  0  0  0  0
    0.9268   -2.0025   -1.7332 H   0  0  0  0  0  0  0  0  0  0  0  0
    0.9198   -3.6983   -1.2998 H   0  0  0  0  0  0  0  0  0  0  0  0
    3.1320   -2.1177   -2.6767 H   0  0  0  0  0  0  0  0  0  0  0  0
    2.1297   -3.3608   -3.3991 H   0  0  0  0  0  0  0  0  0  0  0  0
    2.5529   -5.7531   -2.8109 H   0  0  0  0  0  0  0  0  0  0  0  0
    2.3355   -5.3868   -1.0960 H   0  0  0  0  0  0  0  0  0  0  0  0
    3.6795   -7.4205   -1.3914 H   0  0  0  0  0  0  0  0  0  0  0  0
    4.5559   -6.1599   -0.5259 H   0  0  0  0  0  0  0  0  0  0  0  0
    4.8707   -6.9178   -3.4698 H   0  0  0  0  0  0  0  0  0  0  0  0
    6.0535   -7.1637   -2.1840 H   0  0  0  0  0  0  0  0  0  0  0  0
    6.5501   -5.1440   -3.6039 H   0  0  0  0  0  0  0  0  0  0  0  0
    6.3440   -4.7483   -1.8986 H   0  0  0  0  0  0  0  0  0  0  0  0
    4.2683   -4.3936   -4.1240 H   0  0  0  0  0  0  0  0  0  0  0  0
    5.1524   -3.1264   -3.2654 H   0  0  0  0  0  0  0  0  0  0  0  0
  1  2  2  0  0  0  0
  2  3  1  0  0  0  0
  2 22  1  0  0  0  0
  3  4  2  0  0  0  0
  4  5  1  0  0  0  0
  4 20  1  0  0  0  0
  5  6  1  0  0  0  0
  5 10  2  0  0  0  0
  6  7  2  0  0  0  0
  6 32  1  0  0  0  0
  7  8  1  0  0  0  0
  7 33  1  0  0  0  0
  8  9  2  0  0  0  0
  8 13  1  0  0  0  0
  9 10  1  0  0  0  0
  9 11  1  0  0  0  0
 10 34  1  0  0  0  0
 11 12  2  0  0  0  0
 12 13  1  0  0  0  0
 12 35  1  0  0  0  0
 13 14  1  0  0  0  0
 14 15  1  0  0  0  0
 14 19  2  0  0  0  0
 15 16  2  0  0  0  0
 15 36  1  0  0  0  0
 16 17  1  0  0  0  0
 16 37  1  0  0  0  0
 17 18  2  0  0  0  0
 17 38  1  0  0  0  0
 18 19  1  0  0  0  0
 18 39  1  0  0  0  0
 19 40  1  0  0  0  0
 20 21  2  0  0  0  0
 20 41  1  0  0  0  0
 21 22  1  0  0  0  0
 21 42  1  0  0  0  0
 22 23  1  0  0  0  0
 23 24  1  0  0  0  0
 23 43  1  0  0  0  0
 23 44  1  0  0  0  0
 24 25  1  0  0  0  0
 24 45  1  0  0  0  0
 24 46  1  0  0  0  0
 25 26  1  0  0  0  0
 25 47  1  0  0  0  0
 25 48  1  0  0  0  0
 26 27  1  0  0  0  0
 26 31  1  0  0  0  0
 27 28  1  0  0  0  0
 27 49  1  0  0  0  0
 27 50  1  0  0  0  0
 28 29  1  0  0  0  0
 28 51  1  0  0  0  0
 28 52  1  0  0  0  0
 29 30  1  0  0  0  0
 29 53  1  0  0  0  0
 29 54  1  0  0  0  0
 30 31  1  0  0  0  0
 30 55  1  0  0  0  0
 30 56  1  0  0  0  0
 31 57  1  0  0  0  0
 31 58  1  0  0  0  0
M  END
$$$$
