CHEMBL245770
 OpenBabel04072215363D

 43 46  0  0  0  0  0  0  0  0999 V2000
    1.1292   -0.0399    0.7680 C   0  0  0  0  0  0  0  0  0  0  0  0
    2.4013   -0.1961    0.1466 O   0  0  0  0  0  0  0  0  0  0  0  0
    3.1013    0.9512   -0.0974 C   0  0  0  0  0  0  0  0  0  0  0  0
    4.3096    0.8117   -0.7676 C   0  0  0  0  0  0  0  0  0  0  0  0
    5.1326    1.8411   -1.0859 N   0  0  0  0  0  0  0  0  0  0  0  0
    4.7151    3.0784   -0.7250 C   0  0  0  0  0  0  0  0  0  0  0  0
    3.5154    3.3425   -0.0717 C   0  0  0  0  0  0  0  0  0  0  0  0
    3.1434    4.7180    0.2924 C   0  0  0  0  0  0  0  0  0  0  0  0
    1.8675    5.1371    0.3540 C   0  0  0  0  0  0  0  0  0  0  0  0
    1.4511    6.4237    0.7871 C   0  0  0  0  0  0  0  0  0  0  0  0
    1.2509    7.5122   -0.0253 C   0  0  0  0  0  0  0  0  0  0  0  0
    0.7568    8.4908    0.7869 N   0  0  0  0  0  0  0  0  0  0  0  0
    0.6213    8.1162    2.0747 N   0  0  0  0  0  0  0  0  0  0  0  0
    1.0580    6.8456    2.0812 C   0  0  0  0  0  0  0  0  0  0  0  0
    1.0977    6.0316    3.3320 C   0  0  0  0  0  0  0  0  0  0  0  0
    1.5719    4.8054    3.4295 N   0  0  0  0  0  0  0  0  0  0  0  0
    1.4808    4.4849    4.7566 C   0  0  0  0  0  0  0  0  0  0  0  0
    1.8906    3.3215    5.4180 C   0  0  0  0  0  0  0  0  0  0  0  0
    1.6864    3.2228    6.8015 C   0  0  0  0  0  0  0  0  0  0  0  0
    1.0755    4.2599    7.5145 C   0  0  0  0  0  0  0  0  0  0  0  0
    0.8247    4.2511    8.8624 O   0  0  0  0  0  0  0  0  0  0  0  0
    1.2166    3.0875    9.5809 C   0  0  0  0  0  0  0  0  0  0  0  0
    0.6660    5.4341    6.8603 C   0  0  0  0  0  0  0  0  0  0  0  0
    0.8925    5.5128    5.4835 C   0  0  0  0  0  0  0  0  0  0  0  0
    0.6564    6.4883    4.5487 N   0  0  0  0  0  0  0  0  0  0  0  0
    2.7180    2.2400    0.2666 C   0  0  0  0  0  0  0  0  0  0  0  0
    0.6804   -1.0320    0.8720 H   0  0  0  0  0  0  0  0  0  0  0  0
    0.4585    0.5653    0.1481 H   0  0  0  0  0  0  0  0  0  0  0  0
    1.2312    0.3861    1.7718 H   0  0  0  0  0  0  0  0  0  0  0  0
    4.6620   -0.1694   -1.0741 H   0  0  0  0  0  0  0  0  0  0  0  0
    5.4011    3.8772   -0.9930 H   0  0  0  0  0  0  0  0  0  0  0  0
    3.9570    5.3949    0.5387 H   0  0  0  0  0  0  0  0  0  0  0  0
    1.0576    4.4523    0.1154 H   0  0  0  0  0  0  0  0  0  0  0  0
    1.3917    7.6686   -1.0852 H   0  0  0  0  0  0  0  0  0  0  0  0
    0.4763    9.4307    0.5268 H   0  0  0  0  0  0  0  0  0  0  0  0
    2.3662    2.5209    4.8624 H   0  0  0  0  0  0  0  0  0  0  0  0
    2.0227    2.3141    7.2895 H   0  0  0  0  0  0  0  0  0  0  0  0
    0.9314    3.2260   10.6279 H   0  0  0  0  0  0  0  0  0  0  0  0
    2.3028    2.9532    9.5480 H   0  0  0  0  0  0  0  0  0  0  0  0
    0.6955    2.1978    9.2107 H   0  0  0  0  0  0  0  0  0  0  0  0
    0.1987    6.2434    7.4114 H   0  0  0  0  0  0  0  0  0  0  0  0
    0.2542    7.4023    4.6990 H   0  0  0  0  0  0  0  0  0  0  0  0
    1.8059    2.4069    0.8291 H   0  0  0  0  0  0  0  0  0  0  0  0
  1  2  1  0  0  0  0
  1 27  1  0  0  0  0
  1 28  1  0  0  0  0
  1 29  1  0  0  0  0
  2  3  1  0  0  0  0
  3  4  1  0  0  0  0
  3 26  2  0  0  0  0
  4  5  2  0  0  0  0
  4 30  1  0  0  0  0
  5  6  1  0  0  0  0
  6  7  2  0  0  0  0
  6 31  1  0  0  0  0
  7  8  1  0  0  0  0
  7 26  1  0  0  0  0
  8  9  2  0  0  0  0
  8 32  1  0  0  0  0
  9 10  1  0  0  0  0
  9 33  1  0  0  0  0
 10 11  2  0  0  0  0
 10 14  1  0  0  0  0
 11 12  1  0  0  0  0
 11 34  1  0  0  0  0
 12 13  1  0  0  0  0
 12 35  1  0  0  0  0
 13 14  2  0  0  0  0
 14 15  1  0  0  0  0
 15 16  2  0  0  0  0
 15 25  1  0  0  0  0
 16 17  1  0  0  0  0
 17 18  1  0  0  0  0
 17 24  2  0  0  0  0
 18 19  2  0  0  0  0
 18 36  1  0  0  0  0
 19 20  1  0  0  0  0
 19 37  1  0  0  0  0
 20 21  1  0  0  0  0
 20 23  2  0  0  0  0
 21 22  1  0  0  0  0
 22 38  1  0  0  0  0
 22 39  1  0  0  0  0
 22 40  1  0  0  0  0
 23 24  1  0  0  0  0
 23 41  1  0  0  0  0
 24 25  1  0  0  0  0
 25 42  1  0  0  0  0
 26 43  1  0  0  0  0
M  END
$$$$
