CHEMBL3911207
 OpenBabel04072215373D

 52 55  0  0  1  0  0  0  0  0999 V2000
    2.3649    0.3284    1.0205 C   0  0  0  0  0  0  0  0  0  0  0  0
    2.2315   -0.0922   -0.3391 O   0  0  0  0  0  0  0  0  0  0  0  0
    3.0502   -1.1026   -0.7724 C   0  0  0  0  0  0  0  0  0  0  0  0
    4.1842   -1.5178   -0.0675 C   0  0  0  0  0  0  0  0  0  0  0  0
    4.9020   -2.6733   -0.4586 C   0  0  0  0  0  0  0  0  0  0  0  0
    5.8710   -3.3185    0.3169 C   0  0  0  0  0  0  0  0  0  0  0  0
    6.0951   -2.9006    1.6582 N   0  0  0  0  0  0  0  0  0  0  0  0
    6.7588   -3.6914    2.6226 C   0  0  0  0  0  0  0  0  0  0  0  0
    6.4329   -5.0519    2.7543 C   0  0  0  0  0  0  0  0  0  0  0  0
    7.1884   -5.8948    3.5656 C   0  0  0  0  0  0  0  0  0  0  0  0
    8.2604   -5.3720    4.2820 C   0  0  0  0  0  0  0  0  0  0  0  0
    9.3599   -6.5342    5.2875 Br  0  0  0  0  0  0  0  0  0  0  0  0
    8.5444   -4.0098    4.2437 C   0  0  0  0  0  0  0  0  0  0  0  0
    7.7870   -3.1705    3.4227 C   0  0  0  0  0  0  0  0  0  0  0  0
    8.1687   -1.4845    3.3735 Cl  0  0  0  0  0  0  0  0  0  0  0  0
    6.5217   -4.4171   -0.1235 N   0  0  0  0  0  0  0  0  0  0  0  0
    6.1812   -4.8883   -1.3207 C   0  0  0  0  0  0  0  0  0  0  0  0
    5.2414   -4.3795   -2.1174 N   0  0  0  0  0  0  0  0  0  0  0  0
    4.6011   -3.2971   -1.6652 C   0  0  0  0  0  0  0  0  0  0  0  0
    3.5459   -2.8142   -2.4115 C   0  0  0  0  0  0  0  0  0  0  0  0
    2.7136   -1.7749   -1.9574 C   0  0  0  0  0  0  0  0  0  0  0  0
    1.5524   -1.4246   -2.6308 O   0  0  0  0  0  0  0  0  0  0  0  0
    1.0537   -2.4750   -3.4788 C   0  0  0  0  0  0  0  0  0  0  0  0
   -0.4001   -2.3023   -3.9401 C   0  0  3  0  0  0  0  0  0  0  0  0
   -1.3952   -2.0926   -2.7884 C   0  0  0  0  0  0  0  0  0  0  0  0
   -1.5053   -3.3017   -1.9472 N   0  0  0  0  0  0  0  0  0  0  0  0
   -2.4400   -3.0753   -0.8499 C   0  0  0  0  0  0  0  0  0  0  0  0
   -1.9317   -4.4333   -2.7919 C   0  0  0  0  0  0  0  0  0  0  0  0
   -0.9838   -4.6347   -3.9861 C   0  0  0  0  0  0  0  0  0  0  0  0
   -0.8122   -3.4307   -4.7559 O   0  0  0  0  0  0  0  0  0  0  0  0
    2.9939    1.2232    1.0699 H   0  0  0  0  0  0  0  0  0  0  0  0
    2.7527   -0.4401    1.6984 H   0  0  0  0  0  0  0  0  0  0  0  0
    1.3701    0.5823    1.3963 H   0  0  0  0  0  0  0  0  0  0  0  0
    4.5131   -0.9888    0.8181 H   0  0  0  0  0  0  0  0  0  0  0  0
    6.3934   -1.9255    1.6859 H   0  0  0  0  0  0  0  0  0  0  0  0
    5.6098   -5.4710    2.1781 H   0  0  0  0  0  0  0  0  0  0  0  0
    6.9502   -6.9546    3.5985 H   0  0  0  0  0  0  0  0  0  0  0  0
    9.3716   -3.6023    4.8184 H   0  0  0  0  0  0  0  0  0  0  0  0
    6.6968   -5.7782   -1.6653 H   0  0  0  0  0  0  0  0  0  0  0  0
    3.3491   -3.3360   -3.3431 H   0  0  0  0  0  0  0  0  0  0  0  0
    1.1380   -3.4315   -2.9525 H   0  0  0  0  0  0  0  0  0  0  0  0
    1.6715   -2.5249   -4.3849 H   0  0  0  0  0  0  0  0  0  0  0  0
   -0.4496   -1.4206   -4.5900 H   0  0  0  0  0  0  0  0  0  0  0  0
   -2.3789   -1.8565   -3.2184 H   0  0  0  0  0  0  0  0  0  0  0  0
   -1.0834   -1.2320   -2.1864 H   0  0  0  0  0  0  0  0  0  0  0  0
   -2.0903   -2.2504   -0.2189 H   0  0  0  0  0  0  0  0  0  0  0  0
   -2.4991   -3.9604   -0.2081 H   0  0  0  0  0  0  0  0  0  0  0  0
   -3.4483   -2.8340   -1.2045 H   0  0  0  0  0  0  0  0  0  0  0  0
   -2.9453   -4.2584   -3.1744 H   0  0  0  0  0  0  0  0  0  0  0  0
   -1.9515   -5.3555   -2.1991 H   0  0  0  0  0  0  0  0  0  0  0  0
   -1.3960   -5.3969   -4.6561 H   0  0  0  0  0  0  0  0  0  0  0  0
   -0.0085   -5.0123   -3.6590 H   0  0  0  0  0  0  0  0  0  0  0  0
  1  2  1  0  0  0  0
  1 31  1  0  0  0  0
  1 32  1  0  0  0  0
  1 33  1  0  0  0  0
  2  3  1  0  0  0  0
  3  4  1  0  0  0  0
  3 21  2  0  0  0  0
  4  5  2  0  0  0  0
  4 34  1  0  0  0  0
  5  6  1  0  0  0  0
  5 19  1  0  0  0  0
  6  7  1  0  0  0  0
  6 16  2  0  0  0  0
  7  8  1  0  0  0  0
  7 35  1  0  0  0  0
  8  9  1  0  0  0  0
  8 14  2  0  0  0  0
  9 10  2  0  0  0  0
  9 36  1  0  0  0  0
 10 11  1  0  0  0  0
 10 37  1  0  0  0  0
 11 12  1  0  0  0  0
 11 13  2  0  0  0  0
 13 14  1  0  0  0  0
 13 38  1  0  0  0  0
 14 15  1  0  0  0  0
 16 17  1  0  0  0  0
 17 18  2  0  0  0  0
 17 39  1  0  0  0  0
 18 19  1  0  0  0  0
 19 20  2  0  0  0  0
 20 21  1  0  0  0  0
 20 40  1  0  0  0  0
 21 22  1  0  0  0  0
 22 23  1  0  0  0  0
 23 24  1  0  0  0  0
 23 41  1  0  0  0  0
 23 42  1  0  0  0  0
 24 25  1  0  0  0  0
 24 30  1  0  0  0  0
 24 43  1  0  0  0  0
 25 26  1  0  0  0  0
 25 44  1  0  0  0  0
 25 45  1  0  0  0  0
 26 27  1  0  0  0  0
 26 28  1  0  0  0  0
 27 46  1  0  0  0  0
 27 47  1  0  0  0  0
 27 48  1  0  0  0  0
 28 29  1  0  0  0  0
 28 49  1  0  0  0  0
 28 50  1  0  0  0  0
 29 30  1  0  0  0  0
 29 51  1  0  0  0  0
 29 52  1  0  0  0  0
M  END
$$$$
