CHEMBL193256
 OpenBabel04072215363D

 52 54  0  0  0  0  0  0  0  0999 V2000
    6.4980    0.5857    0.4336 C   0  0  0  0  0  0  0  0  0  0  0  0
    5.3178   -0.3155    0.7548 C   0  0  0  0  0  0  0  0  0  0  0  0
    5.1457   -1.2304   -0.3325 O   0  0  0  0  0  0  0  0  0  0  0  0
    4.4484   -0.7441   -1.4023 C   0  0  0  0  0  0  0  0  0  0  0  0
    3.7197    0.2371   -1.3543 O   0  0  0  0  0  0  0  0  0  0  0  0
    4.7720   -1.4714   -2.6339 C   0  0  0  0  0  0  0  0  0  0  0  0
    5.6308   -2.5490   -2.6722 C   0  0  0  0  0  0  0  0  0  0  0  0
    5.8020   -2.9332   -3.9592 N   0  0  0  0  0  0  0  0  0  0  0  0
    6.6030   -3.9442   -4.3169 N   0  0  0  0  0  0  0  0  0  0  0  0
    6.6904   -4.1163   -5.5920 C   0  0  0  0  0  0  0  0  0  0  0  0
    6.0602   -3.3755   -6.5518 N   0  0  0  0  0  0  0  0  0  0  0  0
    5.2719   -2.3930   -6.2141 C   0  0  0  0  0  0  0  0  0  0  0  0
    4.6477   -1.6853   -7.2237 N   0  0  0  0  0  0  0  0  0  0  0  0
    5.2207   -1.4819   -8.5023 C   0  0  0  0  0  0  0  0  0  0  0  0
    4.4014   -1.3896   -9.6301 C   0  0  0  0  0  0  0  0  0  0  0  0
    4.9481   -1.1223  -10.8888 C   0  0  0  0  0  0  0  0  0  0  0  0
    6.3251   -0.9115  -11.0442 C   0  0  0  0  0  0  0  0  0  0  0  0
    6.8845   -0.4654  -12.8069 Br  0  0  0  0  0  0  0  0  0  0  0  0
    7.1689   -0.9803   -9.9267 C   0  0  0  0  0  0  0  0  0  0  0  0
    8.6391   -0.7132   -9.9242 C   0  0  0  0  0  0  0  0  0  0  0  0
    9.1655   -0.2707   -8.9062 O   0  0  0  0  0  0  0  0  0  0  0  0
    9.3229   -0.9942  -11.0801 N   0  0  0  0  0  0  0  0  0  0  0  0
   10.7289   -0.8841  -11.0390 O   0  0  0  0  0  0  0  0  0  0  0  0
   11.0803    0.4137  -11.5152 C   0  0  0  0  0  0  0  0  0  0  0  0
    6.5969   -1.2577   -8.6673 C   0  0  0  0  0  0  0  0  0  0  0  0
    5.0812   -2.1276   -4.8035 C   0  0  0  0  0  0  0  0  0  0  0  0
    4.3802   -1.1979   -4.0142 C   0  0  0  0  0  0  0  0  0  0  0  0
    3.4670   -0.0297   -4.3655 C   0  0  0  0  0  0  0  0  0  0  0  0
    4.2513    1.2746   -4.5299 C   0  0  0  0  0  0  0  0  0  0  0  0
    2.4969   -0.2259   -5.5232 C   0  0  0  0  0  0  0  0  0  0  0  0
    6.7085    1.2710    1.2568 H   0  0  0  0  0  0  0  0  0  0  0  0
    6.3084    1.1706   -0.4734 H   0  0  0  0  0  0  0  0  0  0  0  0
    7.3915   -0.0168    0.2334 H   0  0  0  0  0  0  0  0  0  0  0  0
    4.4074    0.2604    0.9537 H   0  0  0  0  0  0  0  0  0  0  0  0
    5.5342   -0.9074    1.6499 H   0  0  0  0  0  0  0  0  0  0  0  0
    6.1734   -3.0519   -1.8826 H   0  0  0  0  0  0  0  0  0  0  0  0
    7.3294   -4.9332   -5.9623 H   0  0  0  0  0  0  0  0  0  0  0  0
    3.6618   -1.9110   -7.2777 H   0  0  0  0  0  0  0  0  0  0  0  0
    3.3259   -1.5254   -9.5477 H   0  0  0  0  0  0  0  0  0  0  0  0
    4.2800   -1.0575  -11.7460 H   0  0  0  0  0  0  0  0  0  0  0  0
    8.9451   -1.5922  -11.8050 H   0  0  0  0  0  0  0  0  0  0  0  0
   12.1696    0.4819  -11.5676 H   0  0  0  0  0  0  0  0  0  0  0  0
   10.7129    1.1857  -10.8312 H   0  0  0  0  0  0  0  0  0  0  0  0
   10.6707    0.5766  -12.5181 H   0  0  0  0  0  0  0  0  0  0  0  0
    7.2463   -1.2832   -7.7915 H   0  0  0  0  0  0  0  0  0  0  0  0
    2.7992    0.1102   -3.5060 H   0  0  0  0  0  0  0  0  0  0  0  0
    4.9860    1.2015   -5.3381 H   0  0  0  0  0  0  0  0  0  0  0  0
    4.7915    1.5291   -3.6099 H   0  0  0  0  0  0  0  0  0  0  0  0
    3.5781    2.1093   -4.7541 H   0  0  0  0  0  0  0  0  0  0  0  0
    2.9772   -0.0892   -6.4916 H   0  0  0  0  0  0  0  0  0  0  0  0
    1.7090    0.5367   -5.4791 H   0  0  0  0  0  0  0  0  0  0  0  0
    2.0111   -1.2054   -5.4856 H   0  0  0  0  0  0  0  0  0  0  0  0
  1  2  1  0  0  0  0
  1 31  1  0  0  0  0
  1 32  1  0  0  0  0
  1 33  1  0  0  0  0
  2  3  1  0  0  0  0
  2 34  1  0  0  0  0
  2 35  1  0  0  0  0
  3  4  1  0  0  0  0
  4  5  2  0  0  0  0
  4  6  1  0  0  0  0
  6  7  2  0  0  0  0
  6 27  1  0  0  0  0
  7  8  1  0  0  0  0
  7 36  1  0  0  0  0
  8  9  1  0  0  0  0
  8 26  1  0  0  0  0
  9 10  2  0  0  0  0
 10 11  1  0  0  0  0
 10 37  1  0  0  0  0
 11 12  2  0  0  0  0
 12 13  1  0  0  0  0
 12 26  1  0  0  0  0
 13 14  1  0  0  0  0
 13 38  1  0  0  0  0
 14 15  1  0  0  0  0
 14 25  2  0  0  0  0
 15 16  2  0  0  0  0
 15 39  1  0  0  0  0
 16 17  1  0  0  0  0
 16 40  1  0  0  0  0
 17 18  1  0  0  0  0
 17 19  2  0  0  0  0
 19 20  1  0  0  0  0
 19 25  1  0  0  0  0
 20 21  2  0  0  0  0
 20 22  1  0  0  0  0
 22 23  1  0  0  0  0
 22 41  1  0  0  0  0
 23 24  1  0  0  0  0
 24 42  1  0  0  0  0
 24 43  1  0  0  0  0
 24 44  1  0  0  0  0
 25 45  1  0  0  0  0
 26 27  2  0  0  0  0
 27 28  1  0  0  0  0
 28 29  1  0  0  0  0
 28 30  1  0  0  0  0
 28 46  1  0  0  0  0
 29 47  1  0  0  0  0
 29 48  1  0  0  0  0
 29 49  1  0  0  0  0
 30 50  1  0  0  0  0
 30 51  1  0  0  0  0
 30 52  1  0  0  0  0
M  END
$$$$
