CHEMBL373882
 OpenBabel04072215373D

 73 76  0  0  0  0  0  0  0  0999 V2000
   14.5954   -1.3379   -1.3887 C   0  0  0  0  0  0  0  0  0  0  0  0
   13.6773   -0.3057   -0.9659 N   0  0  0  0  0  0  0  0  0  0  0  0
   12.8105   -0.6408    0.0647 C   0  0  0  0  0  0  0  0  0  0  0  0
   13.1361   -1.5710    0.9500 N   0  0  0  0  0  0  0  0  0  0  0  0
   12.2434   -1.7646    1.9173 C   0  0  0  0  0  0  0  0  0  0  0  0
   11.0868   -1.1180    2.0713 N   0  0  0  0  0  0  0  0  0  0  0  0
   10.8563   -0.2026    1.1328 C   0  0  0  0  0  0  0  0  0  0  0  0
    9.7011    0.6978    1.2786 C   0  0  0  0  0  0  0  0  0  0  0  0
    9.7940    2.0097    0.7516 C   0  0  0  0  0  0  0  0  0  0  0  0
    8.7417    2.9142    0.8434 C   0  0  0  0  0  0  0  0  0  0  0  0
    7.6036    2.5038    1.4964 C   0  0  0  0  0  0  0  0  0  0  0  0
    7.4632    1.2786    2.0355 N   0  0  0  0  0  0  0  0  0  0  0  0
    8.4852    0.3813    1.8958 C   0  0  0  0  0  0  0  0  0  0  0  0
    8.2566   -0.9124    2.3766 O   0  0  0  0  0  0  0  0  0  0  0  0
    6.9378   -1.3284    2.4899 C   0  0  0  0  0  0  0  0  0  0  0  0
    5.9927   -1.0826    1.4853 C   0  0  0  0  0  0  0  0  0  0  0  0
    4.6640   -1.4647    1.6589 C   0  0  0  0  0  0  0  0  0  0  0  0
    4.2841   -2.1506    2.8093 C   0  0  0  0  0  0  0  0  0  0  0  0
    2.9921   -2.4884    2.9366 F   0  0  0  0  0  0  0  0  0  0  0  0
    5.2186   -2.4749    3.7955 C   0  0  0  0  0  0  0  0  0  0  0  0
    4.8164   -3.2179    5.0294 C   0  0  0  0  0  0  0  0  0  0  0  0
    5.5177   -3.0948    6.0329 O   0  0  0  0  0  0  0  0  0  0  0  0
    3.7365   -4.0883    4.8974 N   0  0  0  0  0  0  0  0  0  0  0  0
    3.3010   -4.9450    5.9412 C   0  0  0  0  0  0  0  0  0  0  0  0
    3.2982   -6.3211    5.6393 C   0  0  0  0  0  0  0  0  0  0  0  0
    3.0310   -7.2822    6.6249 C   0  0  0  0  0  0  0  0  0  0  0  0
    3.1170   -8.7588    6.3393 C   0  0  0  0  0  0  0  0  0  0  0  0
    3.4681   -9.0488    5.0551 F   0  0  0  0  0  0  0  0  0  0  0  0
    4.0333   -9.3922    7.1255 F   0  0  0  0  0  0  0  0  0  0  0  0
    1.9363   -9.4033    6.5561 F   0  0  0  0  0  0  0  0  0  0  0  0
    2.7099   -6.8410    7.9099 C   0  0  0  0  0  0  0  0  0  0  0  0
    2.6420   -5.4740    8.1944 C   0  0  0  0  0  0  0  0  0  0  0  0
    2.9175   -4.4840    7.2263 C   0  0  0  0  0  0  0  0  0  0  0  0
    2.7400   -3.1329    7.5385 N   0  0  0  0  0  0  0  0  0  0  0  0
    2.9627   -2.6733    8.9049 C   0  0  0  0  0  0  0  0  0  0  0  0
    1.8468   -2.3074    6.7085 C   0  0  0  0  0  0  0  0  0  0  0  0
    0.3856   -2.7769    6.7510 C   0  0  0  0  0  0  0  0  0  0  0  0
   -0.5133   -1.8310    5.9346 C   0  0  0  0  0  0  0  0  0  0  0  0
   -1.9299   -2.2428    5.8743 N   0  0  0  0  0  0  0  0  0  0  0  0
   -2.5601   -2.2692    7.1954 C   0  0  0  0  0  0  0  0  0  0  0  0
   -2.6812   -1.3408    4.9942 C   0  0  0  0  0  0  0  0  0  0  0  0
    6.5569   -2.0554    3.6291 C   0  0  0  0  0  0  0  0  0  0  0  0
   11.6846    0.0561    0.1087 N   0  0  0  0  0  0  0  0  0  0  0  0
   15.1820   -0.9727   -2.2385 H   0  0  0  0  0  0  0  0  0  0  0  0
   14.0651   -2.2392   -1.7124 H   0  0  0  0  0  0  0  0  0  0  0  0
   15.3035   -1.5956   -0.5939 H   0  0  0  0  0  0  0  0  0  0  0  0
   13.1334    0.1365   -1.6955 H   0  0  0  0  0  0  0  0  0  0  0  0
   12.4878   -2.5137    2.6615 H   0  0  0  0  0  0  0  0  0  0  0  0
   10.7102    2.3358    0.2582 H   0  0  0  0  0  0  0  0  0  0  0  0
    8.8178    3.9086    0.4192 H   0  0  0  0  0  0  0  0  0  0  0  0
    6.7438    3.1589    1.5987 H   0  0  0  0  0  0  0  0  0  0  0  0
    6.2742   -0.5452    0.5830 H   0  0  0  0  0  0  0  0  0  0  0  0
    3.9207   -1.2129    0.9087 H   0  0  0  0  0  0  0  0  0  0  0  0
    3.5240   -4.3869    3.9548 H   0  0  0  0  0  0  0  0  0  0  0  0
    3.5824   -6.6545    4.6427 H   0  0  0  0  0  0  0  0  0  0  0  0
    2.5016   -7.5609    8.7023 H   0  0  0  0  0  0  0  0  0  0  0  0
    2.3346   -5.1892    9.1984 H   0  0  0  0  0  0  0  0  0  0  0  0
    3.6375   -3.3257    9.4707 H   0  0  0  0  0  0  0  0  0  0  0  0
    2.0166   -2.5875    9.4508 H   0  0  0  0  0  0  0  0  0  0  0  0
    3.4366   -1.6859    8.8850 H   0  0  0  0  0  0  0  0  0  0  0  0
    2.1966   -2.2548    5.6747 H   0  0  0  0  0  0  0  0  0  0  0  0
    1.8884   -1.2737    7.0778 H   0  0  0  0  0  0  0  0  0  0  0  0
    0.0571   -2.8122    7.7954 H   0  0  0  0  0  0  0  0  0  0  0  0
    0.3006   -3.7940    6.3501 H   0  0  0  0  0  0  0  0  0  0  0  0
   -0.1201   -1.8055    4.9092 H   0  0  0  0  0  0  0  0  0  0  0  0
   -0.4309   -0.8107    6.3318 H   0  0  0  0  0  0  0  0  0  0  0  0
   -2.1228   -3.0484    7.8267 H   0  0  0  0  0  0  0  0  0  0  0  0
   -3.6244   -2.5188    7.1112 H   0  0  0  0  0  0  0  0  0  0  0  0
   -2.4748   -1.3068    7.7126 H   0  0  0  0  0  0  0  0  0  0  0  0
   -2.2623   -1.3444    3.9819 H   0  0  0  0  0  0  0  0  0  0  0  0
   -2.6835   -0.3087    5.3644 H   0  0  0  0  0  0  0  0  0  0  0  0
   -3.7221   -1.6722    4.9003 H   0  0  0  0  0  0  0  0  0  0  0  0
    7.2950   -2.2835    4.3955 H   0  0  0  0  0  0  0  0  0  0  0  0
  1  2  1  0  0  0  0
  1 44  1  0  0  0  0
  1 45  1  0  0  0  0
  1 46  1  0  0  0  0
  2  3  1  0  0  0  0
  2 47  1  0  0  0  0
  3  4  1  0  0  0  0
  3 43  2  0  0  0  0
  4  5  2  0  0  0  0
  5  6  1  0  0  0  0
  5 48  1  0  0  0  0
  6  7  2  0  0  0  0
  7  8  1  0  0  0  0
  7 43  1  0  0  0  0
  8  9  1  0  0  0  0
  8 13  2  0  0  0  0
  9 10  2  0  0  0  0
  9 49  1  0  0  0  0
 10 11  1  0  0  0  0
 10 50  1  0  0  0  0
 11 12  2  0  0  0  0
 11 51  1  0  0  0  0
 12 13  1  0  0  0  0
 13 14  1  0  0  0  0
 14 15  1  0  0  0  0
 15 16  1  0  0  0  0
 15 42  2  0  0  0  0
 16 17  2  0  0  0  0
 16 52  1  0  0  0  0
 17 18  1  0  0  0  0
 17 53  1  0  0  0  0
 18 19  1  0  0  0  0
 18 20  2  0  0  0  0
 20 21  1  0  0  0  0
 20 42  1  0  0  0  0
 21 22  2  0  0  0  0
 21 23  1  0  0  0  0
 23 24  1  0  0  0  0
 23 54  1  0  0  0  0
 24 25  1  0  0  0  0
 24 33  2  0  0  0  0
 25 26  2  0  0  0  0
 25 55  1  0  0  0  0
 26 27  1  0  0  0  0
 26 31  1  0  0  0  0
 27 28  1  0  0  0  0
 27 29  1  0  0  0  0
 27 30  1  0  0  0  0
 31 32  2  0  0  0  0
 31 56  1  0  0  0  0
 32 33  1  0  0  0  0
 32 57  1  0  0  0  0
 33 34  1  0  0  0  0
 34 35  1  0  0  0  0
 34 36  1  0  0  0  0
 35 58  1  0  0  0  0
 35 59  1  0  0  0  0
 35 60  1  0  0  0  0
 36 37  1  0  0  0  0
 36 61  1  0  0  0  0
 36 62  1  0  0  0  0
 37 38  1  0  0  0  0
 37 63  1  0  0  0  0
 37 64  1  0  0  0  0
 38 39  1  0  0  0  0
 38 65  1  0  0  0  0
 38 66  1  0  0  0  0
 39 40  1  0  0  0  0
 39 41  1  0  0  0  0
 40 67  1  0  0  0  0
 40 68  1  0  0  0  0
 40 69  1  0  0  0  0
 41 70  1  0  0  0  0
 41 71  1  0  0  0  0
 41 72  1  0  0  0  0
 42 73  1  0  0  0  0
M  END
$$$$
