CHEMBL3288507
 OpenBabel04072215363D

 50 54  0  0  0  0  0  0  0  0999 V2000
   -3.4964    2.9909    1.5434 N   0  0  0  0  0  0  0  0  0  0  0  0
   -3.2530    1.6826    1.3709 C   0  0  0  0  0  0  0  0  0  0  0  0
   -4.1378    0.7905    1.8069 N   0  0  0  0  0  0  0  0  0  0  0  0
   -3.6081   -0.3799    1.4516 N   0  0  0  0  0  0  0  0  0  0  0  0
   -2.4092   -0.2876    0.8002 C   0  0  0  0  0  0  0  0  0  0  0  0
   -1.5959   -1.2975    0.2818 C   0  0  0  0  0  0  0  0  0  0  0  0
   -0.4051   -0.9136   -0.3182 C   0  0  0  0  0  0  0  0  0  0  0  0
   -0.0462    0.4307   -0.3729 C   0  0  0  0  0  0  0  0  0  0  0  0
   -0.8602    1.4702    0.1507 C   0  0  0  0  0  0  0  0  0  0  0  0
   -0.3966    2.8755    0.0787 C   0  0  0  0  0  0  0  0  0  0  0  0
    0.3864    3.3443   -0.9865 C   0  0  0  0  0  0  0  0  0  0  0  0
    0.8396    4.6684   -1.0476 C   0  0  0  0  0  0  0  0  0  0  0  0
    0.4266    5.6365   -0.1017 C   0  0  0  0  0  0  0  0  0  0  0  0
    0.7311    7.0262   -0.1358 C   0  0  0  0  0  0  0  0  0  0  0  0
    1.5801    7.6953   -1.1640 C   0  0  0  0  0  0  0  0  0  0  0  0
    2.3312    8.5841   -0.7646 O   0  0  0  0  0  0  0  0  0  0  0  0
    1.4015    7.3244   -2.4865 N   0  0  0  0  0  0  0  0  0  0  0  0
    2.1025    7.8518   -3.5969 C   0  0  0  0  0  0  0  0  0  0  0  0
    3.2016    8.7066   -3.4760 C   0  0  0  0  0  0  0  0  0  0  0  0
    3.8005    9.2729   -4.6008 C   0  0  0  0  0  0  0  0  0  0  0  0
    3.3269    8.9702   -5.8726 C   0  0  0  0  0  0  0  0  0  0  0  0
    2.2621    8.0678   -6.0293 C   0  0  0  0  0  0  0  0  0  0  0  0
    1.7644    7.7049   -7.4038 C   0  0  0  0  0  0  0  0  0  0  0  0
    2.4268    8.3355   -8.4127 F   0  0  0  0  0  0  0  0  0  0  0  0
    1.8794    6.3707   -7.6591 F   0  0  0  0  0  0  0  0  0  0  0  0
    0.4466    8.0038   -7.5781 F   0  0  0  0  0  0  0  0  0  0  0  0
    1.6607    7.5118   -4.8820 C   0  0  0  0  0  0  0  0  0  0  0  0
    0.2650    7.8813    0.8840 C   0  0  0  0  0  0  0  0  0  0  0  0
   -0.5029    7.3933    1.9328 C   0  0  0  0  0  0  0  0  0  0  0  0
   -0.7960    6.0386    1.9843 C   0  0  0  0  0  0  0  0  0  0  0  0
   -0.3412    5.1609    0.9880 C   0  0  0  0  0  0  0  0  0  0  0  0
   -0.6591    3.8002    1.0945 C   0  0  0  0  0  0  0  0  0  0  0  0
   -2.1044    1.0782    0.7467 C   0  0  0  0  0  0  0  0  0  0  0  0
   -4.4170    3.2204    1.9017 H   0  0  0  0  0  0  0  0  0  0  0  0
   -3.1546    3.6603    0.8636 H   0  0  0  0  0  0  0  0  0  0  0  0
   -4.1181   -1.2245    1.6836 H   0  0  0  0  0  0  0  0  0  0  0  0
   -1.8725   -2.3455    0.3487 H   0  0  0  0  0  0  0  0  0  0  0  0
    0.2614   -1.6667   -0.7332 H   0  0  0  0  0  0  0  0  0  0  0  0
    0.9158    0.6675   -0.8240 H   0  0  0  0  0  0  0  0  0  0  0  0
    0.6784    2.6767   -1.7967 H   0  0  0  0  0  0  0  0  0  0  0  0
    1.5224    4.9191   -1.8532 H   0  0  0  0  0  0  0  0  0  0  0  0
    0.6288    6.7043   -2.6923 H   0  0  0  0  0  0  0  0  0  0  0  0
    3.6225    8.9639   -2.5089 H   0  0  0  0  0  0  0  0  0  0  0  0
    4.6345    9.9593   -4.4764 H   0  0  0  0  0  0  0  0  0  0  0  0
    3.7907    9.4356   -6.7386 H   0  0  0  0  0  0  0  0  0  0  0  0
    0.8246    6.8256   -5.0116 H   0  0  0  0  0  0  0  0  0  0  0  0
    0.5115    8.9424    0.8629 H   0  0  0  0  0  0  0  0  0  0  0  0
   -0.8588    8.0625    2.7109 H   0  0  0  0  0  0  0  0  0  0  0  0
   -1.4016    5.6672    2.8118 H   0  0  0  0  0  0  0  0  0  0  0  0
   -1.1470    3.4528    2.0062 H   0  0  0  0  0  0  0  0  0  0  0  0
  1  2  1  0  0  0  0
  1 34  1  0  0  0  0
  1 35  1  0  0  0  0
  2  3  2  0  0  0  0
  2 33  1  0  0  0  0
  3  4  1  0  0  0  0
  4  5  1  0  0  0  0
  4 36  1  0  0  0  0
  5  6  1  0  0  0  0
  5 33  2  0  0  0  0
  6  7  2  0  0  0  0
  6 37  1  0  0  0  0
  7  8  1  0  0  0  0
  7 38  1  0  0  0  0
  8  9  2  0  0  0  0
  8 39  1  0  0  0  0
  9 10  1  0  0  0  0
  9 33  1  0  0  0  0
 10 11  1  0  0  0  0
 10 32  2  0  0  0  0
 11 12  2  0  0  0  0
 11 40  1  0  0  0  0
 12 13  1  0  0  0  0
 12 41  1  0  0  0  0
 13 14  1  0  0  0  0
 13 31  2  0  0  0  0
 14 15  1  0  0  0  0
 14 28  2  0  0  0  0
 15 16  2  0  0  0  0
 15 17  1  0  0  0  0
 17 18  1  0  0  0  0
 17 42  1  0  0  0  0
 18 19  1  0  0  0  0
 18 27  2  0  0  0  0
 19 20  2  0  0  0  0
 19 43  1  0  0  0  0
 20 21  1  0  0  0  0
 20 44  1  0  0  0  0
 21 22  2  0  0  0  0
 21 45  1  0  0  0  0
 22 23  1  0  0  0  0
 22 27  1  0  0  0  0
 23 24  1  0  0  0  0
 23 25  1  0  0  0  0
 23 26  1  0  0  0  0
 27 46  1  0  0  0  0
 28 29  1  0  0  0  0
 28 47  1  0  0  0  0
 29 30  2  0  0  0  0
 29 48  1  0  0  0  0
 30 31  1  0  0  0  0
 30 49  1  0  0  0  0
 31 32  1  0  0  0  0
 32 50  1  0  0  0  0
M  END
$$$$
