CHEMBL1258913
 OpenBabel04072215363D

 71 76  0  0  1  0  0  0  0  0999 V2000
    0.3501    0.8922   -5.7741 O   0  0  0  0  0  0  0  0  0  0  0  0
    1.0217    0.5621   -6.7488 C   0  0  0  0  0  0  0  0  0  0  0  0
    0.5283   -0.1079   -7.8487 N   0  0  0  0  0  0  0  0  0  0  0  0
   -0.8066   -0.4425   -7.9626 C   0  0  0  0  0  0  0  0  0  0  0  0
   -1.1195   -1.6587   -8.4432 N   0  0  0  0  0  0  0  0  0  0  0  0
   -2.4596   -1.6478   -8.2262 N   0  0  0  0  0  0  0  0  0  0  0  0
   -3.0086   -0.4783   -7.7500 C   0  0  0  0  0  0  0  0  0  0  0  0
   -4.2527    0.0516   -7.3248 C   0  0  0  0  0  0  0  0  0  0  0  0
   -4.0881    1.3339   -6.8320 C   0  0  0  0  0  0  0  0  0  0  0  0
   -5.1033    2.1033   -6.0912 C   0  0  0  0  0  0  0  0  0  0  0  0
   -6.1992    1.6257   -5.8047 O   0  0  0  0  0  0  0  0  0  0  0  0
   -4.7575    3.3702   -5.6869 N   0  0  0  0  0  0  0  0  0  0  0  0
   -5.4810    4.1311   -4.6517 C   0  0  2  0  0  0  0  0  0  0  0  0
   -6.6719    4.9977   -5.2128 C   0  0  0  0  0  0  0  0  0  0  0  0
   -6.3052    6.1906   -6.0068 N   0  0  0  0  0  0  0  0  0  0  0  0
   -7.4721    7.0279   -6.3321 C   0  0  0  0  0  0  0  0  0  0  0  0
   -7.7834    6.7495   -7.7886 C   0  0  0  0  0  0  0  0  0  0  0  0
   -6.4031    6.5642   -8.3770 C   0  0  0  0  0  0  0  0  0  0  0  0
   -5.6576    5.8306   -7.2760 C   0  0  0  0  0  0  0  0  0  0  0  0
   -4.5405    4.9012   -3.7232 C   0  0  0  0  0  0  0  0  0  0  0  0
   -5.0426    5.5530   -2.5808 C   0  0  0  0  0  0  0  0  0  0  0  0
   -4.1873    6.1660   -1.6594 C   0  0  0  0  0  0  0  0  0  0  0  0
   -2.8107    6.1468   -1.8611 C   0  0  0  0  0  0  0  0  0  0  0  0
   -2.2919    5.5346   -2.9944 C   0  0  0  0  0  0  0  0  0  0  0  0
   -3.1444    4.9225   -3.9118 C   0  0  0  0  0  0  0  0  0  0  0  0
   -2.4766    1.9412   -7.0893 S   0  0  0  0  0  0  0  0  0  0  0  0
   -1.9500    0.3738   -7.6040 C   0  0  0  0  0  0  0  0  0  0  0  0
    2.4970    0.8161   -6.7224 C   0  0  0  0  0  0  0  0  0  0  0  0
    3.0834    1.1716   -5.5042 C   0  0  0  0  0  0  0  0  0  0  0  0
    4.4501    1.4659   -5.4217 C   0  0  0  0  0  0  0  0  0  0  0  0
    5.2882    1.4248   -6.5472 C   0  0  0  0  0  0  0  0  0  0  0  0
    6.6253    1.7314   -6.4572 N   0  0  0  0  0  0  0  0  0  0  0  0
    7.4468    1.4376   -5.2703 C   0  0  0  0  0  0  0  0  0  0  0  0
    8.1800    2.7080   -4.8143 C   0  0  0  0  0  0  0  0  0  0  0  0
    8.9577    3.2792   -5.8812 O   0  0  0  0  0  0  0  0  0  0  0  0
    8.1081    3.6139   -6.9923 C   0  0  0  0  0  0  0  0  0  0  0  0
    7.3778    2.3759   -7.5472 C   0  0  0  0  0  0  0  0  0  0  0  0
    4.6788    1.0730   -7.7607 C   0  0  0  0  0  0  0  0  0  0  0  0
    3.3087    0.7685   -7.8583 C   0  0  0  0  0  0  0  0  0  0  0  0
    1.1355   -0.7731   -8.3065 H   0  0  0  0  0  0  0  0  0  0  0  0
   -2.9798   -2.5068   -8.3689 H   0  0  0  0  0  0  0  0  0  0  0  0
   -5.1917   -0.4844   -7.2948 H   0  0  0  0  0  0  0  0  0  0  0  0
   -3.9443    3.7967   -6.1123 H   0  0  0  0  0  0  0  0  0  0  0  0
   -5.9534    3.3689   -4.0145 H   0  0  0  0  0  0  0  0  0  0  0  0
   -7.3497    4.3537   -5.7945 H   0  0  0  0  0  0  0  0  0  0  0  0
   -7.2562    5.3436   -4.3505 H   0  0  0  0  0  0  0  0  0  0  0  0
   -7.1792    8.0805   -6.2209 H   0  0  0  0  0  0  0  0  0  0  0  0
   -8.3432    6.8730   -5.6841 H   0  0  0  0  0  0  0  0  0  0  0  0
   -8.3305    7.5653   -8.2729 H   0  0  0  0  0  0  0  0  0  0  0  0
   -8.3706    5.8268   -7.8898 H   0  0  0  0  0  0  0  0  0  0  0  0
   -5.9347    7.5377   -8.5696 H   0  0  0  0  0  0  0  0  0  0  0  0
   -6.4214    5.9966   -9.3092 H   0  0  0  0  0  0  0  0  0  0  0  0
   -4.5985    6.0966   -7.2576 H   0  0  0  0  0  0  0  0  0  0  0  0
   -5.7387    4.7599   -7.4966 H   0  0  0  0  0  0  0  0  0  0  0  0
   -6.1132    5.5812   -2.3833 H   0  0  0  0  0  0  0  0  0  0  0  0
   -4.5972    6.6527   -0.7772 H   0  0  0  0  0  0  0  0  0  0  0  0
   -2.1432    6.6011   -1.1327 H   0  0  0  0  0  0  0  0  0  0  0  0
   -1.2182    5.5195   -3.1654 H   0  0  0  0  0  0  0  0  0  0  0  0
   -2.6730    4.4472   -4.7659 H   0  0  0  0  0  0  0  0  0  0  0  0
    2.4754    1.2392   -4.6033 H   0  0  0  0  0  0  0  0  0  0  0  0
    4.8397    1.7776   -4.4565 H   0  0  0  0  0  0  0  0  0  0  0  0
    8.1893    0.6806   -5.5553 H   0  0  0  0  0  0  0  0  0  0  0  0
    6.8751    1.0166   -4.4379 H   0  0  0  0  0  0  0  0  0  0  0  0
    8.8682    2.4678   -3.9976 H   0  0  0  0  0  0  0  0  0  0  0  0
    7.4728    3.4608   -4.4464 H   0  0  0  0  0  0  0  0  0  0  0  0
    8.7387    4.0557   -7.7701 H   0  0  0  0  0  0  0  0  0  0  0  0
    7.3902    4.3781   -6.6698 H   0  0  0  0  0  0  0  0  0  0  0  0
    8.1116    1.6605   -7.9376 H   0  0  0  0  0  0  0  0  0  0  0  0
    6.7375    2.6961   -8.3752 H   0  0  0  0  0  0  0  0  0  0  0  0
    5.2770    1.0070   -8.6676 H   0  0  0  0  0  0  0  0  0  0  0  0
    2.9035    0.5217   -8.8359 H   0  0  0  0  0  0  0  0  0  0  0  0
  1  2  2  0  0  0  0
  2  3  1  0  0  0  0
  2 28  1  0  0  0  0
  3  4  1  0  0  0  0
  3 40  1  0  0  0  0
  4  5  2  0  0  0  0
  4 27  1  0  0  0  0
  5  6  1  0  0  0  0
  6  7  1  0  0  0  0
  6 41  1  0  0  0  0
  7  8  1  0  0  0  0
  7 27  2  0  0  0  0
  8  9  2  0  0  0  0
  8 42  1  0  0  0  0
  9 10  1  0  0  0  0
  9 26  1  0  0  0  0
 10 11  2  0  0  0  0
 10 12  1  0  0  0  0
 12 43  1  0  0  0  0
 13 20  1  0  0  0  0
 13 14  1  0  0  0  0
 13 12  1  0  0  0  0
 13 44  1  1  0  0  0
 14 15  1  0  0  0  0
 14 45  1  0  0  0  0
 14 46  1  0  0  0  0
 15 16  1  0  0  0  0
 15 19  1  0  0  0  0
 16 17  1  0  0  0  0
 16 47  1  0  0  0  0
 16 48  1  0  0  0  0
 17 18  1  0  0  0  0
 17 49  1  0  0  0  0
 17 50  1  0  0  0  0
 18 19  1  0  0  0  0
 18 51  1  0  0  0  0
 18 52  1  0  0  0  0
 19 53  1  0  0  0  0
 19 54  1  0  0  0  0
 20 21  1  0  0  0  0
 20 25  2  0  0  0  0
 21 22  2  0  0  0  0
 21 55  1  0  0  0  0
 22 23  1  0  0  0  0
 22 56  1  0  0  0  0
 23 24  2  0  0  0  0
 23 57  1  0  0  0  0
 24 25  1  0  0  0  0
 24 58  1  0  0  0  0
 25 59  1  0  0  0  0
 26 27  1  0  0  0  0
 28 29  1  0  0  0  0
 28 39  2  0  0  0  0
 29 30  2  0  0  0  0
 29 60  1  0  0  0  0
 30 31  1  0  0  0  0
 30 61  1  0  0  0  0
 31 32  1  0  0  0  0
 31 38  2  0  0  0  0
 32 33  1  0  0  0  0
 32 37  1  0  0  0  0
 33 34  1  0  0  0  0
 33 62  1  0  0  0  0
 33 63  1  0  0  0  0
 34 35  1  0  0  0  0
 34 64  1  0  0  0  0
 34 65  1  0  0  0  0
 35 36  1  0  0  0  0
 36 37  1  0  0  0  0
 36 66  1  0  0  0  0
 36 67  1  0  0  0  0
 37 68  1  0  0  0  0
 37 69  1  0  0  0  0
 38 39  1  0  0  0  0
 38 70  1  0  0  0  0
 39 71  1  0  0  0  0
M  END
$$$$
