CHEMBL3896142
 OpenBabel04072215373D

 62 66  0  0  0  0  0  0  0  0999 V2000
    1.8126    1.3389    0.3745 C   0  0  0  0  0  0  0  0  0  0  0  0
    3.1548    1.0062    0.0369 O   0  0  0  0  0  0  0  0  0  0  0  0
    3.3463    0.4935   -1.2186 C   0  0  0  0  0  0  0  0  0  0  0  0
    4.4686   -0.3437   -1.3561 C   0  0  0  0  0  0  0  0  0  0  0  0
    4.8479   -0.9349   -2.5848 C   0  0  0  0  0  0  0  0  0  0  0  0
    6.0231   -1.7197   -2.7363 N   0  0  0  0  0  0  0  0  0  0  0  0
    6.4510   -2.6012   -1.6149 C   0  0  0  0  0  0  0  0  0  0  0  0
    7.9647   -2.4776   -1.2640 C   0  0  0  0  0  0  0  0  0  0  0  0
    8.4178   -1.2030   -0.6945 N   0  0  0  0  0  0  0  0  0  0  0  0
    7.8753   -0.8882    0.6282 C   0  0  0  0  0  0  0  0  0  0  0  0
    8.1538   -1.9701    1.6723 C   0  0  0  0  0  0  0  0  0  0  0  0
    8.4591    0.4484    1.0860 C   0  0  0  0  0  0  0  0  0  0  0  0
    6.7700   -1.8486   -3.9380 C   0  0  0  0  0  0  0  0  0  0  0  0
    7.3384   -3.0604   -4.3504 C   0  0  0  0  0  0  0  0  0  0  0  0
    8.1919   -3.1150   -5.4537 C   0  0  0  0  0  0  0  0  0  0  0  0
    8.4566   -1.9862   -6.2056 C   0  0  0  0  0  0  0  0  0  0  0  0
    9.2932   -2.0798   -7.2520 N   0  0  0  0  0  0  0  0  0  0  0  0
    9.4768   -0.9456   -7.9667 C   0  0  0  0  0  0  0  0  0  0  0  0
    8.8448    0.2514   -7.6613 C   0  0  0  0  0  0  0  0  0  0  0  0
    8.9893    1.4251   -8.4972 C   0  0  0  0  0  0  0  0  0  0  0  0
    9.7124    1.6310   -9.6939 C   0  0  0  0  0  0  0  0  0  0  0  0
    9.5463    2.8567  -10.1963 N   0  0  0  0  0  0  0  0  0  0  0  0
    8.7060    3.4413   -9.3236 N   0  0  0  0  0  0  0  0  0  0  0  0
    8.2351    4.7832   -9.5627 C   0  0  0  0  0  0  0  0  0  0  0  0
    8.3570    2.6335   -8.2825 C   0  0  0  0  0  0  0  0  0  0  0  0
    8.0242    0.3526   -6.5878 N   0  0  0  0  0  0  0  0  0  0  0  0
    7.8342   -0.7640   -5.8581 C   0  0  0  0  0  0  0  0  0  0  0  0
    7.0217   -0.7185   -4.7340 C   0  0  0  0  0  0  0  0  0  0  0  0
    4.0223   -0.6631   -3.6923 C   0  0  0  0  0  0  0  0  0  0  0  0
    2.9395    0.1865   -3.5510 C   0  0  0  0  0  0  0  0  0  0  0  0
    2.6022    0.7636   -2.3463 C   0  0  0  0  0  0  0  0  0  0  0  0
    1.5345    1.5916   -2.4703 O   0  0  0  0  0  0  0  0  0  0  0  0
    1.2838    1.5307   -3.8875 C   0  0  0  0  0  0  0  0  0  0  0  0
    2.1141    0.5709   -4.5654 O   0  0  0  0  0  0  0  0  0  0  0  0
    1.7890    1.5653    1.4453 H   0  0  0  0  0  0  0  0  0  0  0  0
    1.1395    0.4927    0.1989 H   0  0  0  0  0  0  0  0  0  0  0  0
    1.4725    2.2372   -0.1480 H   0  0  0  0  0  0  0  0  0  0  0  0
    5.0647   -0.4947   -0.4662 H   0  0  0  0  0  0  0  0  0  0  0  0
    6.2373   -3.6446   -1.8805 H   0  0  0  0  0  0  0  0  0  0  0  0
    5.8643   -2.4429   -0.7050 H   0  0  0  0  0  0  0  0  0  0  0  0
    8.5826   -2.6404   -2.1522 H   0  0  0  0  0  0  0  0  0  0  0  0
    8.2451   -3.3071   -0.6064 H   0  0  0  0  0  0  0  0  0  0  0  0
    8.1757   -0.4566   -1.3519 H   0  0  0  0  0  0  0  0  0  0  0  0
    6.7958   -0.7575    0.5628 H   0  0  0  0  0  0  0  0  0  0  0  0
    9.2240   -2.1877    1.7508 H   0  0  0  0  0  0  0  0  0  0  0  0
    7.6297   -2.9018    1.4341 H   0  0  0  0  0  0  0  0  0  0  0  0
    7.7960   -1.6536    2.6574 H   0  0  0  0  0  0  0  0  0  0  0  0
    9.5460    0.3929    1.2101 H   0  0  0  0  0  0  0  0  0  0  0  0
    8.0232    0.7457    2.0460 H   0  0  0  0  0  0  0  0  0  0  0  0
    8.2372    1.2440    0.3656 H   0  0  0  0  0  0  0  0  0  0  0  0
    7.1579   -3.9850   -3.8104 H   0  0  0  0  0  0  0  0  0  0  0  0
    8.6648   -4.0558   -5.7237 H   0  0  0  0  0  0  0  0  0  0  0  0
   10.1486   -1.0486   -8.8100 H   0  0  0  0  0  0  0  0  0  0  0  0
   10.3459    0.9388  -10.2331 H   0  0  0  0  0  0  0  0  0  0  0  0
    8.7014    5.1775  -10.4694 H   0  0  0  0  0  0  0  0  0  0  0  0
    8.5045    5.4022   -8.7037 H   0  0  0  0  0  0  0  0  0  0  0  0
    7.1499    4.7475   -9.6878 H   0  0  0  0  0  0  0  0  0  0  0  0
    7.6854    2.9637   -7.4999 H   0  0  0  0  0  0  0  0  0  0  0  0
    6.6011    0.2451   -4.4532 H   0  0  0  0  0  0  0  0  0  0  0  0
    4.2247   -1.0955   -4.6679 H   0  0  0  0  0  0  0  0  0  0  0  0
    1.4639    2.5214   -4.3207 H   0  0  0  0  0  0  0  0  0  0  0  0
    0.2331    1.2649   -4.0464 H   0  0  0  0  0  0  0  0  0  0  0  0
  1  2  1  0  0  0  0
  1 35  1  0  0  0  0
  1 36  1  0  0  0  0
  1 37  1  0  0  0  0
  2  3  1  0  0  0  0
  3  4  1  0  0  0  0
  3 31  2  0  0  0  0
  4  5  2  0  0  0  0
  4 38  1  0  0  0  0
  5  6  1  0  0  0  0
  5 29  1  0  0  0  0
  6  7  1  0  0  0  0
  6 13  1  0  0  0  0
  7  8  1  0  0  0  0
  7 39  1  0  0  0  0
  7 40  1  0  0  0  0
  8  9  1  0  0  0  0
  8 41  1  0  0  0  0
  8 42  1  0  0  0  0
  9 10  1  0  0  0  0
  9 43  1  0  0  0  0
 10 11  1  0  0  0  0
 10 12  1  0  0  0  0
 10 44  1  0  0  0  0
 11 45  1  0  0  0  0
 11 46  1  0  0  0  0
 11 47  1  0  0  0  0
 12 48  1  0  0  0  0
 12 49  1  0  0  0  0
 12 50  1  0  0  0  0
 13 14  1  0  0  0  0
 13 28  2  0  0  0  0
 14 15  2  0  0  0  0
 14 51  1  0  0  0  0
 15 16  1  0  0  0  0
 15 52  1  0  0  0  0
 16 17  1  0  0  0  0
 16 27  2  0  0  0  0
 17 18  2  0  0  0  0
 18 19  1  0  0  0  0
 18 53  1  0  0  0  0
 19 20  1  0  0  0  0
 19 26  2  0  0  0  0
 20 21  1  0  0  0  0
 20 25  2  0  0  0  0
 21 22  2  0  0  0  0
 21 54  1  0  0  0  0
 22 23  1  0  0  0  0
 23 24  1  0  0  0  0
 23 25  1  0  0  0  0
 24 55  1  0  0  0  0
 24 56  1  0  0  0  0
 24 57  1  0  0  0  0
 25 58  1  0  0  0  0
 26 27  1  0  0  0  0
 27 28  1  0  0  0  0
 28 59  1  0  0  0  0
 29 30  2  0  0  0  0
 29 60  1  0  0  0  0
 30 31  1  0  0  0  0
 30 34  1  0  0  0  0
 31 32  1  0  0  0  0
 32 33  1  0  0  0  0
 33 34  1  0  0  0  0
 33 61  1  0  0  0  0
 33 62  1  0  0  0  0
M  END
$$$$
