CHEMBL4570139
 OpenBabel04072215383D

 45 48  0  0  0  0  0  0  0  0999 V2000
    1.1211   -0.1254   -0.9742 O   0  0  0  0  0  0  0  0  0  0  0  0
    2.2506   -0.1204   -0.4885 C   0  0  0  0  0  0  0  0  0  0  0  0
    2.8580   -1.2121    0.1432 N   0  0  0  0  0  0  0  0  0  0  0  0
    2.1961   -2.4594    0.2734 C   0  0  0  0  0  0  0  0  0  0  0  0
    1.1279   -2.7518   -0.5582 C   0  0  0  0  0  0  0  0  0  0  0  0
    0.4858   -3.9901   -0.5162 C   0  0  0  0  0  0  0  0  0  0  0  0
    0.8620   -4.9939    0.3701 C   0  0  0  0  0  0  0  0  0  0  0  0
    0.0713   -6.1640    0.5254 N   0  0  0  0  0  0  0  0  0  0  0  0
    0.5302   -7.4589    0.8473 C   0  0  0  0  0  0  0  0  0  0  0  0
    1.8259   -7.8385    0.4319 C   0  0  0  0  0  0  0  0  0  0  0  0
    2.3754   -9.1383    0.5676 C   0  0  0  0  0  0  0  0  0  0  0  0
    1.6214  -10.1008    1.1593 C   0  0  0  0  0  0  0  0  0  0  0  0
    1.9406  -11.5254    1.2620 N   0  3  0  0  0  0  0  0  0  0  0  0
    2.9665  -11.8940    1.8548 O   0  0  0  0  0  0  0  0  0  0  0  0
    1.1319  -12.3012    0.7327 O   0  5  0  0  0  0  0  0  0  0  0  0
    0.5056   -9.6177    1.6843 C   0  0  0  0  0  0  0  0  0  0  0  0
   -0.1582  -10.3256    2.5337 N   0  0  0  0  0  0  0  0  0  0  0  0
   -0.7641  -11.0228    3.3535 C   0  0  0  0  0  0  0  0  0  0  0  0
   -1.6936  -10.0701    3.1061 N   0  0  0  0  0  0  0  0  0  0  0  0
   -1.4505   -8.7165    2.2346 C   0  0  0  0  0  0  0  0  0  0  0  0
   -2.2913   -7.7112    1.7241 O   0  0  0  0  0  0  0  0  0  0  0  0
   -0.1881   -8.4641    1.5890 C   0  0  0  0  0  0  0  0  0  0  0  0
    2.0027   -4.7346    1.1471 C   0  0  0  0  0  0  0  0  0  0  0  0
    2.6111   -3.4518    1.1647 C   0  0  0  0  0  0  0  0  0  0  0  0
    2.9667    1.1805   -0.4725 C   0  0  0  0  0  0  0  0  0  0  0  0
    2.2174    2.3630   -0.3739 C   0  0  0  0  0  0  0  0  0  0  0  0
    2.8515    3.6062   -0.2784 C   0  0  0  0  0  0  0  0  0  0  0  0
    4.2382    3.6805   -0.2859 C   0  0  0  0  0  0  0  0  0  0  0  0
    4.9819    2.5052   -0.3481 C   0  0  0  0  0  0  0  0  0  0  0  0
    4.3537    1.2687   -0.5398 C   0  0  0  0  0  0  0  0  0  0  0  0
    3.7696   -1.1161    0.5726 H   0  0  0  0  0  0  0  0  0  0  0  0
    0.7570   -2.0161   -1.2622 H   0  0  0  0  0  0  0  0  0  0  0  0
   -0.3325   -4.1288   -1.2052 H   0  0  0  0  0  0  0  0  0  0  0  0
   -0.9389   -6.0090    0.5723 H   0  0  0  0  0  0  0  0  0  0  0  0
    2.4240   -7.1304   -0.1396 H   0  0  0  0  0  0  0  0  0  0  0  0
    3.3835   -9.3859    0.2664 H   0  0  0  0  0  0  0  0  0  0  0  0
    0.2754  -11.4571    3.5786 H   0  0  0  0  0  0  0  0  0  0  0  0
   -3.1211   -7.2321    1.6188 H   0  0  0  0  0  0  0  0  0  0  0  0
    2.4386   -5.5274    1.7507 H   0  0  0  0  0  0  0  0  0  0  0  0
    3.3432   -3.2255    1.9382 H   0  0  0  0  0  0  0  0  0  0  0  0
    1.1308    2.3231   -0.3794 H   0  0  0  0  0  0  0  0  0  0  0  0
    2.2651    4.5134   -0.1626 H   0  0  0  0  0  0  0  0  0  0  0  0
    4.7422    4.6448   -0.2532 H   0  0  0  0  0  0  0  0  0  0  0  0
    6.0588    2.5617   -0.2258 H   0  0  0  0  0  0  0  0  0  0  0  0
    4.9517    0.3961   -0.7799 H   0  0  0  0  0  0  0  0  0  0  0  0
  1  2  2  0  0  0  0
  2  3  1  0  0  0  0
  2 25  1  0  0  0  0
  3  4  1  0  0  0  0
  3 31  1  0  0  0  0
  4  5  1  0  0  0  0
  4 24  2  0  0  0  0
  5  6  2  0  0  0  0
  5 32  1  0  0  0  0
  6  7  1  0  0  0  0
  6 33  1  0  0  0  0
  7  8  1  0  0  0  0
  7 23  2  0  0  0  0
  8  9  1  0  0  0  0
  8 34  1  0  0  0  0
  9 10  1  0  0  0  0
  9 22  2  0  0  0  0
 10 11  2  0  0  0  0
 10 35  1  0  0  0  0
 11 12  1  0  0  0  0
 11 36  1  0  0  0  0
 12 13  1  0  0  0  0
 12 16  2  0  0  0  0
 13 14  2  0  0  0  0
 13 15  1  0  0  0  0
 16 17  1  0  0  0  0
 16 22  1  0  0  0  0
 17 18  2  0  0  0  0
 18 19  1  0  0  0  0
 18 37  1  0  0  0  0
 19 20  2  0  0  0  0
 20 21  1  0  0  0  0
 20 22  1  0  0  0  0
 21 38  1  0  0  0  0
 23 24  1  0  0  0  0
 23 39  1  0  0  0  0
 24 40  1  0  0  0  0
 25 26  1  0  0  0  0
 25 30  2  0  0  0  0
 26 27  2  0  0  0  0
 26 41  1  0  0  0  0
 27 28  1  0  0  0  0
 27 42  1  0  0  0  0
 28 29  2  0  0  0  0
 28 43  1  0  0  0  0
 29 30  1  0  0  0  0
 29 44  1  0  0  0  0
 30 45  1  0  0  0  0
M  CHG  2  13   1  15  -1
M  END
$$$$
