CHEMBL3694687
 OpenBabel04072215373D

 52 55  0  0  0  0  0  0  0  0999 V2000
    2.5718    0.1983    1.3499 O   0  0  0  0  0  0  0  0  0  0  0  0
    2.2176   -0.2233    0.2573 C   0  0  0  0  0  0  0  0  0  0  0  0
    0.8988   -0.1638   -0.1377 N   0  0  0  0  0  0  0  0  0  0  0  0
   -0.1018    0.2944    0.8344 C   0  0  0  0  0  0  0  0  0  0  0  0
   -0.5740   -0.7661    1.8395 C   0  0  0  0  0  0  0  0  0  0  0  0
   -0.0228   -1.9776    1.5926 F   0  0  0  0  0  0  0  0  0  0  0  0
   -0.2947   -0.4292    3.1149 F   0  0  0  0  0  0  0  0  0  0  0  0
   -1.9180   -0.9236    1.7462 F   0  0  0  0  0  0  0  0  0  0  0  0
    3.0198   -0.7608   -0.7285 N   0  0  0  0  0  0  0  0  0  0  0  0
    4.4150   -0.9608   -0.6461 C   0  0  0  0  0  0  0  0  0  0  0  0
    5.1115   -0.8908    0.5622 C   0  0  0  0  0  0  0  0  0  0  0  0
    6.5030   -0.9912    0.5966 C   0  0  0  0  0  0  0  0  0  0  0  0
    7.2547   -0.9316    1.8957 C   0  0  0  0  0  0  0  0  0  0  0  0
    7.9648   -2.1530    2.0793 O   0  0  0  0  0  0  0  0  0  0  0  0
    7.1946   -1.1714   -0.6039 C   0  0  0  0  0  0  0  0  0  0  0  0
    6.5235   -1.3965   -1.8123 C   0  0  0  0  0  0  0  0  0  0  0  0
    7.2661   -1.7914   -3.0191 C   0  0  0  0  0  0  0  0  0  0  0  0
    7.0513   -1.4771   -4.3515 C   0  0  0  0  0  0  0  0  0  0  0  0
    7.9870   -2.0439   -5.1790 N   0  0  0  0  0  0  0  0  0  0  0  0
    8.7916   -2.7184   -4.3852 C   0  0  0  0  0  0  0  0  0  0  0  0
    9.9501   -3.5046   -4.6726 C   0  0  0  0  0  0  0  0  0  0  0  0
   10.6190   -4.1588   -3.6885 C   0  0  0  0  0  0  0  0  0  0  0  0
   11.8136   -4.9805   -4.0300 C   0  0  0  0  0  0  0  0  0  0  0  0
   12.1470   -6.0907   -3.2771 C   0  0  0  0  0  0  0  0  0  0  0  0
   13.2866   -6.7613   -3.6430 C   0  0  0  0  0  0  0  0  0  0  0  0
   14.0576   -6.3945   -4.6782 N   0  0  0  0  0  0  0  0  0  0  0  0
   13.6663   -5.3048   -5.3840 C   0  0  0  0  0  0  0  0  0  0  0  0
   14.5185   -4.8591   -6.5793 C   0  0  0  0  0  0  0  0  0  0  0  0
   15.6294   -5.6310   -6.7858 F   0  0  0  0  0  0  0  0  0  0  0  0
   13.8352   -4.8891   -7.7629 F   0  0  0  0  0  0  0  0  0  0  0  0
   14.9876   -3.5810   -6.4557 F   0  0  0  0  0  0  0  0  0  0  0  0
   12.5546   -4.5848   -5.0858 N   0  0  0  0  0  0  0  0  0  0  0  0
   10.1402   -4.0301   -2.3063 C   0  0  0  0  0  0  0  0  0  0  0  0
    9.0410   -3.3147   -2.0338 C   0  0  0  0  0  0  0  0  0  0  0  0
    8.3774   -2.6338   -3.0567 N   0  0  0  0  0  0  0  0  0  0  0  0
    5.1250   -1.2518   -1.8269 C   0  0  0  0  0  0  0  0  0  0  0  0
    0.6032   -0.8878   -0.7776 H   0  0  0  0  0  0  0  0  0  0  0  0
   -0.9532    0.6542    0.2494 H   0  0  0  0  0  0  0  0  0  0  0  0
    0.3032    1.1552    1.3801 H   0  0  0  0  0  0  0  0  0  0  0  0
    2.6030   -0.8336   -1.6452 H   0  0  0  0  0  0  0  0  0  0  0  0
    4.5854   -0.7550    1.5033 H   0  0  0  0  0  0  0  0  0  0  0  0
    6.5850   -0.7956    2.7507 H   0  0  0  0  0  0  0  0  0  0  0  0
    7.9702   -0.1046    1.8838 H   0  0  0  0  0  0  0  0  0  0  0  0
    7.2941   -2.8578    2.1002 H   0  0  0  0  0  0  0  0  0  0  0  0
    8.2830   -1.1695   -0.5662 H   0  0  0  0  0  0  0  0  0  0  0  0
    6.2687   -0.8519   -4.7632 H   0  0  0  0  0  0  0  0  0  0  0  0
   10.2565   -3.5637   -5.7127 H   0  0  0  0  0  0  0  0  0  0  0  0
   11.5553   -6.4348   -2.4397 H   0  0  0  0  0  0  0  0  0  0  0  0
   13.6224   -7.6375   -3.0950 H   0  0  0  0  0  0  0  0  0  0  0  0
   10.6852   -4.5051   -1.4975 H   0  0  0  0  0  0  0  0  0  0  0  0
    8.6639   -3.2413   -1.0241 H   0  0  0  0  0  0  0  0  0  0  0  0
    4.5871   -1.3670   -2.7637 H   0  0  0  0  0  0  0  0  0  0  0  0
  1  2  2  0  0  0  0
  2  3  1  0  0  0  0
  2  9  1  0  0  0  0
  3  4  1  0  0  0  0
  3 37  1  0  0  0  0
  4  5  1  0  0  0  0
  4 38  1  0  0  0  0
  4 39  1  0  0  0  0
  5  6  1  0  0  0  0
  5  7  1  0  0  0  0
  5  8  1  0  0  0  0
  9 10  1  0  0  0  0
  9 40  1  0  0  0  0
 10 11  1  0  0  0  0
 10 36  2  0  0  0  0
 11 12  2  0  0  0  0
 11 41  1  0  0  0  0
 12 13  1  0  0  0  0
 12 15  1  0  0  0  0
 13 14  1  0  0  0  0
 13 42  1  0  0  0  0
 13 43  1  0  0  0  0
 14 44  1  0  0  0  0
 15 16  2  0  0  0  0
 15 45  1  0  0  0  0
 16 17  1  0  0  0  0
 16 36  1  0  0  0  0
 17 18  2  0  0  0  0
 17 35  1  0  0  0  0
 18 19  1  0  0  0  0
 18 46  1  0  0  0  0
 19 20  2  0  0  0  0
 20 21  1  0  0  0  0
 20 35  1  0  0  0  0
 21 22  2  0  0  0  0
 21 47  1  0  0  0  0
 22 23  1  0  0  0  0
 22 33  1  0  0  0  0
 23 24  1  0  0  0  0
 23 32  2  0  0  0  0
 24 25  2  0  0  0  0
 24 48  1  0  0  0  0
 25 26  1  0  0  0  0
 25 49  1  0  0  0  0
 26 27  2  0  0  0  0
 27 28  1  0  0  0  0
 27 32  1  0  0  0  0
 28 29  1  0  0  0  0
 28 30  1  0  0  0  0
 28 31  1  0  0  0  0
 33 34  2  0  0  0  0
 33 50  1  0  0  0  0
 34 35  1  0  0  0  0
 34 51  1  0  0  0  0
 36 52  1  0  0  0  0
M  END
$$$$
