CHEMBL3984055
 OpenBabel04072215373D

 47 50  0  0  1  0  0  0  0  0999 V2000
    1.1790   -2.9070    0.7658 C   0  0  0  0  0  0  0  0  0  0  0  0
    1.7500   -1.5803    0.2425 C   0  0  1  0  0  0  0  0  0  0  0  0
    2.8975   -1.1432    1.0457 N   0  0  0  0  0  0  0  0  0  0  0  0
    2.6137   -0.8133    2.3764 C   0  0  0  0  0  0  0  0  0  0  0  0
    1.3683   -0.4436    2.7587 N   0  0  0  0  0  0  0  0  0  0  0  0
    1.1377   -0.1934    4.0646 C   0  0  0  0  0  0  0  0  0  0  0  0
    2.0050   -0.2543    5.0884 N   0  0  0  0  0  0  0  0  0  0  0  0
    3.2245   -0.6122    4.6659 C   0  0  0  0  0  0  0  0  0  0  0  0
    4.3118   -0.7850    5.4746 N   0  0  0  0  0  0  0  0  0  0  0  0
    5.4085   -1.1921    4.7447 C   0  0  0  0  0  0  0  0  0  0  0  0
    6.7070   -1.5134    5.3408 C   0  0  0  0  0  0  0  0  0  0  0  0
    6.8003   -2.0372    6.6388 C   0  0  0  0  0  0  0  0  0  0  0  0
    8.0427   -2.3883    7.1861 C   0  0  0  0  0  0  0  0  0  0  0  0
    9.2117   -2.2173    6.4374 C   0  0  0  0  0  0  0  0  0  0  0  0
   10.5446   -2.6244    6.9525 C   0  0  0  0  0  0  0  0  0  0  0  0
   11.4603   -2.9226    6.1905 O   0  0  0  0  0  0  0  0  0  0  0  0
   10.7108   -2.6094    8.3198 N   0  0  0  0  0  0  0  0  0  0  0  0
   12.0355   -2.8463    8.7621 O   0  0  0  0  0  0  0  0  0  0  0  0
    9.1280   -1.6973    5.1423 C   0  0  0  0  0  0  0  0  0  0  0  0
    7.8859   -1.3445    4.6030 C   0  0  0  0  0  0  0  0  0  0  0  0
    4.9894   -1.2320    3.4178 C   0  0  0  0  0  0  0  0  0  0  0  0
    3.6092   -0.8872    3.3656 C   0  0  0  0  0  0  0  0  0  0  0  0
    2.2205   -1.7637   -1.1999 C   0  0  0  0  0  0  0  0  0  0  0  0
    1.6386   -1.0152   -2.2382 C   0  0  0  0  0  0  0  0  0  0  0  0
    2.0328   -1.2165   -3.5634 C   0  0  0  0  0  0  0  0  0  0  0  0
    3.0089   -2.1614   -3.8558 C   0  0  0  0  0  0  0  0  0  0  0  0
    3.3747   -2.3590   -5.1282 F   0  0  0  0  0  0  0  0  0  0  0  0
    3.6092   -2.9029   -2.8476 C   0  0  0  0  0  0  0  0  0  0  0  0
    3.2214   -2.7004   -1.5226 C   0  0  0  0  0  0  0  0  0  0  0  0
    0.6907   -2.7800    1.7370 H   0  0  0  0  0  0  0  0  0  0  0  0
    1.9627   -3.6618    0.9009 H   0  0  0  0  0  0  0  0  0  0  0  0
    0.4325   -3.3154    0.0761 H   0  0  0  0  0  0  0  0  0  0  0  0
    0.9610   -0.8167    0.2540 H   0  0  0  0  0  0  0  0  0  0  0  0
    3.3245   -0.3210    0.6235 H   0  0  0  0  0  0  0  0  0  0  0  0
    0.1196    0.0862    4.3192 H   0  0  0  0  0  0  0  0  0  0  0  0
    4.2833   -0.6416    6.4733 H   0  0  0  0  0  0  0  0  0  0  0  0
    5.9075   -2.2229    7.2307 H   0  0  0  0  0  0  0  0  0  0  0  0
    8.0678   -2.8365    8.1775 H   0  0  0  0  0  0  0  0  0  0  0  0
   10.1283   -2.0550    8.9371 H   0  0  0  0  0  0  0  0  0  0  0  0
   12.5037   -3.0404    7.9191 H   0  0  0  0  0  0  0  0  0  0  0  0
   10.0268   -1.5717    4.5423 H   0  0  0  0  0  0  0  0  0  0  0  0
    7.8529   -0.9419    3.5924 H   0  0  0  0  0  0  0  0  0  0  0  0
    5.5924   -1.5273    2.5719 H   0  0  0  0  0  0  0  0  0  0  0  0
    0.8651   -0.2799   -2.0226 H   0  0  0  0  0  0  0  0  0  0  0  0
    1.5806   -0.6477   -4.3689 H   0  0  0  0  0  0  0  0  0  0  0  0
    4.3694   -3.6362   -3.0969 H   0  0  0  0  0  0  0  0  0  0  0  0
    3.6972   -3.2827   -0.7352 H   0  0  0  0  0  0  0  0  0  0  0  0
  1  2  1  0  0  0  0
  1 30  1  0  0  0  0
  1 31  1  0  0  0  0
  1 32  1  0  0  0  0
  2  3  1  0  0  0  0
  2 23  1  0  0  0  0
  2 33  1  1  0  0  0
  3  4  1  0  0  0  0
  3 34  1  0  0  0  0
  4  5  1  0  0  0  0
  4 22  2  0  0  0  0
  5  6  2  0  0  0  0
  6  7  1  0  0  0  0
  6 35  1  0  0  0  0
  7  8  2  0  0  0  0
  8  9  1  0  0  0  0
  8 22  1  0  0  0  0
  9 10  1  0  0  0  0
  9 36  1  0  0  0  0
 10 11  1  0  0  0  0
 10 21  2  0  0  0  0
 11 12  1  0  0  0  0
 11 20  2  0  0  0  0
 12 13  2  0  0  0  0
 12 37  1  0  0  0  0
 13 14  1  0  0  0  0
 13 38  1  0  0  0  0
 14 15  1  0  0  0  0
 14 19  2  0  0  0  0
 15 16  2  0  0  0  0
 15 17  1  0  0  0  0
 17 18  1  0  0  0  0
 17 39  1  0  0  0  0
 18 40  1  0  0  0  0
 19 20  1  0  0  0  0
 19 41  1  0  0  0  0
 20 42  1  0  0  0  0
 21 22  1  0  0  0  0
 21 43  1  0  0  0  0
 23 24  1  0  0  0  0
 23 29  2  0  0  0  0
 24 25  2  0  0  0  0
 24 44  1  0  0  0  0
 25 26  1  0  0  0  0
 25 45  1  0  0  0  0
 26 27  1  0  0  0  0
 26 28  2  0  0  0  0
 28 29  1  0  0  0  0
 28 46  1  0  0  0  0
 29 47  1  0  0  0  0
M  END
$$$$
