CHEMBL460702
 OpenBabel04072215383D

 55 58  0  0  0  0  0  0  0  0999 V2000
    0.8620    0.4472    2.4318 C   0  0  0  0  0  0  0  0  0  0  0  0
    2.2423   -0.1530    2.6106 C   0  0  0  0  0  0  0  0  0  0  0  0
    3.0420    0.1801    1.4764 O   0  0  0  0  0  0  0  0  0  0  0  0
    4.4128    0.2462    1.6326 C   0  0  0  0  0  0  0  0  0  0  0  0
    5.0259   -0.6189    2.6174 C   0  0  0  0  0  0  0  0  0  0  0  0
    6.3439   -0.5806    2.8307 C   0  0  0  0  0  0  0  0  0  0  0  0
    7.1692    0.2717    2.1178 N   0  0  0  0  0  0  0  0  0  0  0  0
    8.5730    0.3134    2.3846 C   0  0  0  0  0  0  0  0  0  0  0  0
    9.0380    0.3752    3.7070 C   0  0  0  0  0  0  0  0  0  0  0  0
   10.4073    0.4948    3.9629 C   0  0  0  0  0  0  0  0  0  0  0  0
   11.3042    0.5142    2.9050 C   0  0  0  0  0  0  0  0  0  0  0  0
   12.6129    0.6385    3.1552 F   0  0  0  0  0  0  0  0  0  0  0  0
   10.8683    0.4060    1.5915 C   0  0  0  0  0  0  0  0  0  0  0  0
    9.5001    0.3156    1.3298 C   0  0  0  0  0  0  0  0  0  0  0  0
    6.6444    1.1505    1.1511 C   0  0  0  0  0  0  0  0  0  0  0  0
    7.3050    2.0259    0.5852 O   0  0  0  0  0  0  0  0  0  0  0  0
    5.1745    1.0568    0.8659 C   0  0  0  0  0  0  0  0  0  0  0  0
    4.5576    1.8235   -0.2727 C   0  0  0  0  0  0  0  0  0  0  0  0
    3.5585    1.3901   -0.8380 O   0  0  0  0  0  0  0  0  0  0  0  0
    5.2153    2.9894   -0.6187 N   0  0  0  0  0  0  0  0  0  0  0  0
    5.0096    3.7584   -1.7867 C   0  0  0  0  0  0  0  0  0  0  0  0
    4.2069    3.3328   -2.8490 C   0  0  0  0  0  0  0  0  0  0  0  0
    4.1438    4.0657   -4.0350 C   0  0  0  0  0  0  0  0  0  0  0  0
    4.9355    5.2022   -4.1975 C   0  0  0  0  0  0  0  0  0  0  0  0
    5.0653    5.8574   -5.4027 O   0  0  0  0  0  0  0  0  0  0  0  0
    5.1275    5.0926   -6.5564 C   0  0  0  0  0  0  0  0  0  0  0  0
    5.7252    3.8289   -6.5901 C   0  0  0  0  0  0  0  0  0  0  0  0
    5.6391    3.0931   -7.7561 C   0  0  0  0  0  0  0  0  0  0  0  0
    5.0683    3.5504   -8.8888 N   0  0  0  0  0  0  0  0  0  0  0  0
    4.5701    4.8043   -8.8753 C   0  0  0  0  0  0  0  0  0  0  0  0
    3.9770    5.2054  -10.0737 N   0  0  0  0  0  0  0  0  0  0  0  0
    4.5792    5.6136   -7.7315 C   0  0  0  0  0  0  0  0  0  0  0  0
    3.9459    7.2232   -7.7815 Cl  0  0  0  0  0  0  0  0  0  0  0  0
    5.6484    5.6884   -3.1044 C   0  0  0  0  0  0  0  0  0  0  0  0
    6.3330    6.8375   -3.2016 F   0  0  0  0  0  0  0  0  0  0  0  0
    5.7003    4.9697   -1.9085 C   0  0  0  0  0  0  0  0  0  0  0  0
    0.1731    0.0526    3.1846 H   0  0  0  0  0  0  0  0  0  0  0  0
    0.4636    0.2397    1.4341 H   0  0  0  0  0  0  0  0  0  0  0  0
    0.9071    1.5353    2.5422 H   0  0  0  0  0  0  0  0  0  0  0  0
    2.1629   -1.2441    2.6717 H   0  0  0  0  0  0  0  0  0  0  0  0
    2.6759    0.2382    3.5382 H   0  0  0  0  0  0  0  0  0  0  0  0
    4.4312   -1.3489    3.1513 H   0  0  0  0  0  0  0  0  0  0  0  0
    6.8098   -1.2595    3.5384 H   0  0  0  0  0  0  0  0  0  0  0  0
    8.3423    0.4040    4.5413 H   0  0  0  0  0  0  0  0  0  0  0  0
   10.7694    0.6054    4.9807 H   0  0  0  0  0  0  0  0  0  0  0  0
   11.5879    0.4051    0.7795 H   0  0  0  0  0  0  0  0  0  0  0  0
    9.1666    0.2324    0.2975 H   0  0  0  0  0  0  0  0  0  0  0  0
    6.0213    3.2485   -0.0569 H   0  0  0  0  0  0  0  0  0  0  0  0
    3.6599    2.3960   -2.8165 H   0  0  0  0  0  0  0  0  0  0  0  0
    3.5241    3.6902   -4.8456 H   0  0  0  0  0  0  0  0  0  0  0  0
    6.2130    3.3961   -5.7233 H   0  0  0  0  0  0  0  0  0  0  0  0
    6.0237    2.0777   -7.8049 H   0  0  0  0  0  0  0  0  0  0  0  0
    4.1687    4.4917  -10.7706 H   0  0  0  0  0  0  0  0  0  0  0  0
    4.2793    6.1312  -10.3542 H   0  0  0  0  0  0  0  0  0  0  0  0
    6.2969    5.3666   -1.0933 H   0  0  0  0  0  0  0  0  0  0  0  0
  1  2  1  0  0  0  0
  1 37  1  0  0  0  0
  1 38  1  0  0  0  0
  1 39  1  0  0  0  0
  2  3  1  0  0  0  0
  2 40  1  0  0  0  0
  2 41  1  0  0  0  0
  3  4  1  0  0  0  0
  4  5  1  0  0  0  0
  4 17  2  0  0  0  0
  5  6  2  0  0  0  0
  5 42  1  0  0  0  0
  6  7  1  0  0  0  0
  6 43  1  0  0  0  0
  7  8  1  0  0  0  0
  7 15  1  0  0  0  0
  8  9  1  0  0  0  0
  8 14  2  0  0  0  0
  9 10  2  0  0  0  0
  9 44  1  0  0  0  0
 10 11  1  0  0  0  0
 10 45  1  0  0  0  0
 11 12  1  0  0  0  0
 11 13  2  0  0  0  0
 13 14  1  0  0  0  0
 13 46  1  0  0  0  0
 14 47  1  0  0  0  0
 15 16  2  0  0  0  0
 15 17  1  0  0  0  0
 17 18  1  0  0  0  0
 18 19  2  0  0  0  0
 18 20  1  0  0  0  0
 20 21  1  0  0  0  0
 20 48  1  0  0  0  0
 21 22  1  0  0  0  0
 21 36  2  0  0  0  0
 22 23  2  0  0  0  0
 22 49  1  0  0  0  0
 23 24  1  0  0  0  0
 23 50  1  0  0  0  0
 24 25  1  0  0  0  0
 24 34  2  0  0  0  0
 25 26  1  0  0  0  0
 26 27  1  0  0  0  0
 26 32  2  0  0  0  0
 27 28  2  0  0  0  0
 27 51  1  0  0  0  0
 28 29  1  0  0  0  0
 28 52  1  0  0  0  0
 29 30  2  0  0  0  0
 30 31  1  0  0  0  0
 30 32  1  0  0  0  0
 31 53  1  0  0  0  0
 31 54  1  0  0  0  0
 32 33  1  0  0  0  0
 34 35  1  0  0  0  0
 34 36  1  0  0  0  0
 36 55  1  0  0  0  0
M  END
$$$$
