CHEMBL1084546
 OpenBabel04072215363D

 55 58  0  0  0  0  0  0  0  0999 V2000
    4.6474   -6.1124    5.1714 C   0  0  0  0  0  0  0  0  0  0  0  0
    3.5293   -5.1851    5.3913 N   0  0  0  0  0  0  0  0  0  0  0  0
    3.6614   -3.8785    4.8626 C   0  0  0  0  0  0  0  0  0  0  0  0
    4.6906   -3.1705    5.3823 N   0  0  0  0  0  0  0  0  0  0  0  0
    4.8403   -1.9037    4.9444 C   0  0  0  0  0  0  0  0  0  0  0  0
    4.0118   -1.3111    4.0076 C   0  0  0  0  0  0  0  0  0  0  0  0
    2.9678   -2.0683    3.4834 C   0  0  0  0  0  0  0  0  0  0  0  0
    2.7810   -3.3935    3.8944 C   0  0  0  0  0  0  0  0  0  0  0  0
    1.6425   -4.2378    3.3776 C   0  0  0  0  0  0  0  0  0  0  0  0
    1.4380   -4.0163    1.9374 N   0  0  0  0  0  0  0  0  0  0  0  0
    0.4458   -4.8484    1.3833 C   0  0  0  0  0  0  0  0  0  0  0  0
   -0.5525   -5.2717    2.1911 N   0  0  0  0  0  0  0  0  0  0  0  0
   -1.5088   -6.0666    1.6853 C   0  0  0  0  0  0  0  0  0  0  0  0
   -2.5284   -6.4903    2.5385 N   0  0  0  0  0  0  0  0  0  0  0  0
   -3.1093   -7.7739    2.5774 C   0  0  0  0  0  0  0  0  0  0  0  0
   -4.4143   -7.9128    3.1023 C   0  0  0  0  0  0  0  0  0  0  0  0
   -5.0607   -9.1551    3.1400 C   0  0  0  0  0  0  0  0  0  0  0  0
   -4.3604  -10.2466    2.6781 C   0  0  0  0  0  0  0  0  0  0  0  0
   -3.0669  -10.1444    2.1798 C   0  0  0  0  0  0  0  0  0  0  0  0
   -2.4323   -8.9165    2.1128 C   0  0  0  0  0  0  0  0  0  0  0  0
   -2.5737  -11.5035    1.7838 C   0  0  0  0  0  0  0  0  0  0  0  0
   -3.7822  -12.3905    2.1099 C   0  0  0  0  0  0  0  0  0  0  0  0
   -3.8649  -13.5967    1.9520 O   0  0  0  0  0  0  0  0  0  0  0  0
   -4.7767  -11.5669    2.6280 N   0  0  0  0  0  0  0  0  0  0  0  0
   -1.5405   -6.4416    0.4036 N   0  0  0  0  0  0  0  0  0  0  0  0
   -0.5815   -5.9595   -0.3961 C   0  0  0  0  0  0  0  0  0  0  0  0
    0.4429   -5.1472    0.0359 C   0  0  0  0  0  0  0  0  0  0  0  0
    1.4686   -4.7354   -0.9530 C   0  0  0  0  0  0  0  0  0  0  0  0
    2.4732   -3.9606   -0.4550 F   0  0  0  0  0  0  0  0  0  0  0  0
    2.0962   -5.8141   -1.5062 F   0  0  0  0  0  0  0  0  0  0  0  0
    0.9449   -4.0435   -2.0023 F   0  0  0  0  0  0  0  0  0  0  0  0
    2.6800   -5.2984    6.8403 S   0  0  0  0  0  0  0  0  0  0  0  0
    3.7178   -4.4656    8.0326 C   0  0  0  0  0  0  0  0  0  0  0  0
    1.4517   -4.5384    6.7087 O   0  0  0  0  0  0  0  0  0  0  0  0
    2.6309   -6.7013    7.2049 O   0  0  0  0  0  0  0  0  0  0  0  0
    5.4000   -5.6948    4.4939 H   0  0  0  0  0  0  0  0  0  0  0  0
    4.2543   -7.0207    4.7018 H   0  0  0  0  0  0  0  0  0  0  0  0
    5.1492   -6.3855    6.1030 H   0  0  0  0  0  0  0  0  0  0  0  0
    5.6672   -1.3523    5.3851 H   0  0  0  0  0  0  0  0  0  0  0  0
    4.1680   -0.2830    3.6974 H   0  0  0  0  0  0  0  0  0  0  0  0
    2.2945   -1.6213    2.7547 H   0  0  0  0  0  0  0  0  0  0  0  0
    0.7452   -3.9903    3.9547 H   0  0  0  0  0  0  0  0  0  0  0  0
    1.8775   -5.2995    3.5205 H   0  0  0  0  0  0  0  0  0  0  0  0
    2.3244   -4.1019    1.4428 H   0  0  0  0  0  0  0  0  0  0  0  0
   -2.4298   -6.0482    3.4428 H   0  0  0  0  0  0  0  0  0  0  0  0
   -4.9461   -7.0310    3.4536 H   0  0  0  0  0  0  0  0  0  0  0  0
   -6.0730   -9.2424    3.5156 H   0  0  0  0  0  0  0  0  0  0  0  0
   -1.4241   -8.8495    1.7166 H   0  0  0  0  0  0  0  0  0  0  0  0
   -1.7209  -11.8093    2.3958 H   0  0  0  0  0  0  0  0  0  0  0  0
   -2.3540  -11.5579    0.7151 H   0  0  0  0  0  0  0  0  0  0  0  0
   -5.6752  -11.9155    2.9244 H   0  0  0  0  0  0  0  0  0  0  0  0
   -0.6641   -6.2708   -1.4350 H   0  0  0  0  0  0  0  0  0  0  0  0
    3.7566   -3.3998    7.8043 H   0  0  0  0  0  0  0  0  0  0  0  0
    4.7121   -4.9134    8.0328 H   0  0  0  0  0  0  0  0  0  0  0  0
    3.2575   -4.5960    9.0157 H   0  0  0  0  0  0  0  0  0  0  0  0
  1  2  1  0  0  0  0
  1 36  1  0  0  0  0
  1 37  1  0  0  0  0
  1 38  1  0  0  0  0
  2  3  1  0  0  0  0
  2 32  1  0  0  0  0
  3  4  1  0  0  0  0
  3  8  2  0  0  0  0
  4  5  2  0  0  0  0
  5  6  1  0  0  0  0
  5 39  1  0  0  0  0
  6  7  2  0  0  0  0
  6 40  1  0  0  0  0
  7  8  1  0  0  0  0
  7 41  1  0  0  0  0
  8  9  1  0  0  0  0
  9 10  1  0  0  0  0
  9 42  1  0  0  0  0
  9 43  1  0  0  0  0
 10 11  1  0  0  0  0
 10 44  1  0  0  0  0
 11 12  1  0  0  0  0
 11 27  2  0  0  0  0
 12 13  2  0  0  0  0
 13 14  1  0  0  0  0
 13 25  1  0  0  0  0
 14 15  1  0  0  0  0
 14 45  1  0  0  0  0
 15 16  1  0  0  0  0
 15 20  2  0  0  0  0
 16 17  2  0  0  0  0
 16 46  1  0  0  0  0
 17 18  1  0  0  0  0
 17 47  1  0  0  0  0
 18 19  2  0  0  0  0
 18 24  1  0  0  0  0
 19 20  1  0  0  0  0
 19 21  1  0  0  0  0
 20 48  1  0  0  0  0
 21 22  1  0  0  0  0
 21 49  1  0  0  0  0
 21 50  1  0  0  0  0
 22 23  2  0  0  0  0
 22 24  1  0  0  0  0
 24 51  1  0  0  0  0
 25 26  2  0  0  0  0
 26 27  1  0  0  0  0
 26 52  1  0  0  0  0
 27 28  1  0  0  0  0
 28 29  1  0  0  0  0
 28 30  1  0  0  0  0
 28 31  1  0  0  0  0
 32 33  1  0  0  0  0
 32 34  2  0  0  0  0
 32 35  2  0  0  0  0
 33 53  1  0  0  0  0
 33 54  1  0  0  0  0
 33 55  1  0  0  0  0
M  END
$$$$
