CHEMBL375670
 OpenBabel04072215373D

 43 46  0  0  0  0  0  0  0  0999 V2000
   -1.0652    2.1177   -3.1993 N   0  0  0  0  0  0  0  0  0  0  0  0
   -1.3385    1.0091   -2.4989 C   0  0  0  0  0  0  0  0  0  0  0  0
   -1.7161   -0.0905   -3.1449 N   0  0  0  0  0  0  0  0  0  0  0  0
   -1.9058   -0.9806   -2.1737 N   0  0  0  0  0  0  0  0  0  0  0  0
   -1.6576   -0.5094   -0.9166 C   0  0  0  0  0  0  0  0  0  0  0  0
   -1.7466   -1.1642    0.3184 C   0  0  0  0  0  0  0  0  0  0  0  0
   -1.4066   -0.4344    1.4487 C   0  0  0  0  0  0  0  0  0  0  0  0
   -0.9938    0.8939    1.3434 C   0  0  0  0  0  0  0  0  0  0  0  0
   -0.9077    1.5679    0.1017 C   0  0  0  0  0  0  0  0  0  0  0  0
   -0.4526    2.9726    0.0435 C   0  0  0  0  0  0  0  0  0  0  0  0
    0.4446    3.3968   -0.9356 C   0  0  0  0  0  0  0  0  0  0  0  0
    0.7928    4.7396   -1.0847 C   0  0  0  0  0  0  0  0  0  0  0  0
    0.3483    5.7094   -0.1862 C   0  0  0  0  0  0  0  0  0  0  0  0
    0.7228    7.0718   -0.2858 N   0  0  0  0  0  0  0  0  0  0  0  0
    1.3845    7.6386   -1.3639 C   0  0  0  0  0  0  0  0  0  0  0  0
    1.6131    7.0638   -2.4285 O   0  0  0  0  0  0  0  0  0  0  0  0
    1.8192    8.9278   -1.1090 N   0  0  0  0  0  0  0  0  0  0  0  0
    2.5662    9.6222   -2.0962 C   0  0  0  0  0  0  0  0  0  0  0  0
    3.7665   10.2349   -1.7304 C   0  0  0  0  0  0  0  0  0  0  0  0
    4.5708   10.8352   -2.7040 C   0  0  0  0  0  0  0  0  0  0  0  0
    4.1570   10.8642   -4.0369 C   0  0  0  0  0  0  0  0  0  0  0  0
    2.9425   10.2835   -4.3947 C   0  0  0  0  0  0  0  0  0  0  0  0
    2.4284   10.3267   -6.0367 Cl  0  0  0  0  0  0  0  0  0  0  0  0
    2.1497    9.6586   -3.4338 C   0  0  0  0  0  0  0  0  0  0  0  0
   -0.4618    5.2920    0.8729 C   0  0  0  0  0  0  0  0  0  0  0  0
   -0.8700    3.9455    0.9721 C   0  0  0  0  0  0  0  0  0  0  0  0
   -1.2598    0.8226   -1.0727 C   0  0  0  0  0  0  0  0  0  0  0  0
   -1.2398    2.0925   -4.1970 H   0  0  0  0  0  0  0  0  0  0  0  0
   -1.0821    3.0409   -2.7928 H   0  0  0  0  0  0  0  0  0  0  0  0
   -2.2038   -1.9123   -2.4410 H   0  0  0  0  0  0  0  0  0  0  0  0
   -2.0596   -2.1993    0.3891 H   0  0  0  0  0  0  0  0  0  0  0  0
   -1.4541   -0.9087    2.4263 H   0  0  0  0  0  0  0  0  0  0  0  0
   -0.7099    1.4109    2.2594 H   0  0  0  0  0  0  0  0  0  0  0  0
    0.8741    2.6842   -1.6383 H   0  0  0  0  0  0  0  0  0  0  0  0
    1.4257    4.9752   -1.9309 H   0  0  0  0  0  0  0  0  0  0  0  0
    0.3621    7.7067    0.4112 H   0  0  0  0  0  0  0  0  0  0  0  0
    2.0867    9.0943   -0.1472 H   0  0  0  0  0  0  0  0  0  0  0  0
    4.1265   10.1888   -0.7061 H   0  0  0  0  0  0  0  0  0  0  0  0
    5.5323   11.2608   -2.4291 H   0  0  0  0  0  0  0  0  0  0  0  0
    4.7865   11.3286   -4.7911 H   0  0  0  0  0  0  0  0  0  0  0  0
    1.2173    9.1888   -3.7331 H   0  0  0  0  0  0  0  0  0  0  0  0
   -0.8040    5.9947    1.6265 H   0  0  0  0  0  0  0  0  0  0  0  0
   -1.5296    3.6676    1.7940 H   0  0  0  0  0  0  0  0  0  0  0  0
  1  2  1  0  0  0  0
  1 28  1  0  0  0  0
  1 29  1  0  0  0  0
  2  3  2  0  0  0  0
  2 27  1  0  0  0  0
  3  4  1  0  0  0  0
  4  5  1  0  0  0  0
  4 30  1  0  0  0  0
  5  6  1  0  0  0  0
  5 27  2  0  0  0  0
  6  7  2  0  0  0  0
  6 31  1  0  0  0  0
  7  8  1  0  0  0  0
  7 32  1  0  0  0  0
  8  9  2  0  0  0  0
  8 33  1  0  0  0  0
  9 10  1  0  0  0  0
  9 27  1  0  0  0  0
 10 11  1  0  0  0  0
 10 26  2  0  0  0  0
 11 12  2  0  0  0  0
 11 34  1  0  0  0  0
 12 13  1  0  0  0  0
 12 35  1  0  0  0  0
 13 14  1  0  0  0  0
 13 25  2  0  0  0  0
 14 15  1  0  0  0  0
 14 36  1  0  0  0  0
 15 16  2  0  0  0  0
 15 17  1  0  0  0  0
 17 18  1  0  0  0  0
 17 37  1  0  0  0  0
 18 19  1  0  0  0  0
 18 24  2  0  0  0  0
 19 20  2  0  0  0  0
 19 38  1  0  0  0  0
 20 21  1  0  0  0  0
 20 39  1  0  0  0  0
 21 22  2  0  0  0  0
 21 40  1  0  0  0  0
 22 23  1  0  0  0  0
 22 24  1  0  0  0  0
 24 41  1  0  0  0  0
 25 26  1  0  0  0  0
 25 42  1  0  0  0  0
 26 43  1  0  0  0  0
M  END
$$$$
