CHEMBL385937
 OpenBabel04072215373D

 48 51  0  0  0  0  0  0  0  0999 V2000
    2.4864    0.0361   -0.0531 C   0  0  0  0  0  0  0  0  0  0  0  0
    0.9726    0.0135   -0.0929 C   0  0  0  0  0  0  0  0  0  0  0  0
    0.2730    1.2144   -0.0097 C   0  0  0  0  0  0  0  0  0  0  0  0
   -1.1264    1.2378    0.0015 C   0  0  0  0  0  0  0  0  0  0  0  0
   -1.8638    0.0551   -0.0194 C   0  0  0  0  0  0  0  0  0  0  0  0
   -3.3586    0.0166   -0.0023 C   0  0  0  0  0  0  0  0  0  0  0  0
   -3.8890   -0.9580    0.5272 O   0  0  0  0  0  0  0  0  0  0  0  0
   -4.0649    1.0336   -0.6499 N   0  0  0  0  0  0  0  0  0  0  0  0
   -5.4772    1.0233   -0.7450 C   0  0  0  0  0  0  0  0  0  0  0  0
   -6.2358    0.2469    0.1327 C   0  0  0  0  0  0  0  0  0  0  0  0
   -7.6239    0.2310    0.0660 C   0  0  0  0  0  0  0  0  0  0  0  0
   -8.2759    0.9713   -0.9092 C   0  0  0  0  0  0  0  0  0  0  0  0
   -7.5397    1.7519   -1.8121 C   0  0  0  0  0  0  0  0  0  0  0  0
   -8.2649    2.5066   -2.8941 C   0  0  0  0  0  0  0  0  0  0  0  0
   -9.6122    2.3165   -2.8443 F   0  0  0  0  0  0  0  0  0  0  0  0
   -8.0684    3.8506   -2.8159 F   0  0  0  0  0  0  0  0  0  0  0  0
   -7.8845    2.1466   -4.1521 F   0  0  0  0  0  0  0  0  0  0  0  0
   -6.1336    1.7990   -1.7068 C   0  0  0  0  0  0  0  0  0  0  0  0
   -1.1697   -1.1533   -0.0872 C   0  0  0  0  0  0  0  0  0  0  0  0
    0.2415   -1.1787   -0.1931 C   0  0  0  0  0  0  0  0  0  0  0  0
    0.9109   -2.4586   -0.1655 C   0  0  0  0  0  0  0  0  0  0  0  0
    0.2149   -3.3723    0.6092 C   0  0  0  0  0  0  0  0  0  0  0  0
    0.6222   -4.6148    0.7081 C   0  0  0  0  0  0  0  0  0  0  0  0
    1.8009   -4.8894    0.1724 C   0  0  0  0  0  0  0  0  0  0  0  0
    2.1868   -6.1004    0.3282 N   0  0  0  0  0  0  0  0  0  0  0  0
    2.4982   -7.2834    0.5176 C   0  0  0  0  0  0  0  0  0  0  0  0
    1.5358   -7.4067    1.5174 N   0  0  0  0  0  0  0  0  0  0  0  0
    3.2855   -6.8849   -0.5018 N   0  0  0  0  0  0  0  0  0  0  0  0
    3.3459   -5.3962   -1.2185 C   0  0  0  0  0  0  0  0  0  0  0  0
    2.5237   -4.2611   -0.7594 C   0  0  0  0  0  0  0  0  0  0  0  0
    2.0780   -2.8632   -0.8836 C   0  0  0  0  0  0  0  0  0  0  0  0
    2.8717    1.0576   -0.0352 H   0  0  0  0  0  0  0  0  0  0  0  0
    2.8871   -0.4621   -0.9387 H   0  0  0  0  0  0  0  0  0  0  0  0
    2.8999   -0.4442    0.8417 H   0  0  0  0  0  0  0  0  0  0  0  0
    0.8205    2.1505    0.0242 H   0  0  0  0  0  0  0  0  0  0  0  0
   -1.6072    2.2049    0.0274 H   0  0  0  0  0  0  0  0  0  0  0  0
   -3.5816    1.7310   -1.1969 H   0  0  0  0  0  0  0  0  0  0  0  0
   -5.7462   -0.3411    0.9038 H   0  0  0  0  0  0  0  0  0  0  0  0
   -8.1947   -0.3682    0.7686 H   0  0  0  0  0  0  0  0  0  0  0  0
   -9.3625    0.9292   -0.9719 H   0  0  0  0  0  0  0  0  0  0  0  0
   -5.5701    2.3849   -2.4307 H   0  0  0  0  0  0  0  0  0  0  0  0
   -1.7080   -2.1037   -0.0285 H   0  0  0  0  0  0  0  0  0  0  0  0
   -0.6755   -3.2060    1.1880 H   0  0  0  0  0  0  0  0  0  0  0  0
   -0.0167   -5.3552    1.1246 H   0  0  0  0  0  0  0  0  0  0  0  0
    1.0041   -6.5819    1.7418 H   0  0  0  0  0  0  0  0  0  0  0  0
    1.2146   -8.1604    2.0922 H   0  0  0  0  0  0  0  0  0  0  0  0
    3.9093   -5.3107   -2.1520 H   0  0  0  0  0  0  0  0  0  0  0  0
    2.5781   -2.1229   -1.5068 H   0  0  0  0  0  0  0  0  0  0  0  0
  1  2  1  0  0  0  0
  1 32  1  0  0  0  0
  1 33  1  0  0  0  0
  1 34  1  0  0  0  0
  2  3  1  0  0  0  0
  2 20  2  0  0  0  0
  3  4  2  0  0  0  0
  3 35  1  0  0  0  0
  4  5  1  0  0  0  0
  4 36  1  0  0  0  0
  5  6  1  0  0  0  0
  5 19  2  0  0  0  0
  6  7  2  0  0  0  0
  6  8  1  0  0  0  0
  8  9  1  0  0  0  0
  8 37  1  0  0  0  0
  9 10  1  0  0  0  0
  9 18  2  0  0  0  0
 10 11  2  0  0  0  0
 10 38  1  0  0  0  0
 11 12  1  0  0  0  0
 11 39  1  0  0  0  0
 12 13  2  0  0  0  0
 12 40  1  0  0  0  0
 13 14  1  0  0  0  0
 13 18  1  0  0  0  0
 14 15  1  0  0  0  0
 14 16  1  0  0  0  0
 14 17  1  0  0  0  0
 18 41  1  0  0  0  0
 19 20  1  0  0  0  0
 19 42  1  0  0  0  0
 20 21  1  0  0  0  0
 21 22  1  0  0  0  0
 21 31  2  0  0  0  0
 22 23  2  0  0  0  0
 22 43  1  0  0  0  0
 23 24  1  0  0  0  0
 23 44  1  0  0  0  0
 24 25  1  0  0  0  0
 24 30  2  0  0  0  0
 25 26  2  0  0  0  0
 26 27  1  0  0  0  0
 26 28  1  0  0  0  0
 27 45  1  0  0  0  0
 27 46  1  0  0  0  0
 28 29  2  0  0  0  0
 29 30  1  0  0  0  0
 29 47  1  0  0  0  0
 30 31  1  0  0  0  0
 31 48  1  0  0  0  0
M  END
$$$$
