CHEMBL2016911
 OpenBabel04072215363D

 56 60  0  0  0  0  0  0  0  0999 V2000
   -0.1180    0.3009    2.2031 C   0  0  0  0  0  0  0  0  0  0  0  0
    0.9810    1.1489    2.5151 O   0  0  0  0  0  0  0  0  0  0  0  0
    2.1396    0.5336    2.9047 C   0  0  0  0  0  0  0  0  0  0  0  0
    2.3119   -0.8419    3.0793 C   0  0  0  0  0  0  0  0  0  0  0  0
    3.5513   -1.3537    3.4734 C   0  0  0  0  0  0  0  0  0  0  0  0
    4.6168   -0.4851    3.6912 C   0  0  0  0  0  0  0  0  0  0  0  0
    5.8649   -0.9941    4.0642 N   0  0  0  0  0  0  0  0  0  0  0  0
    6.9681   -0.2100    4.2815 C   0  0  0  0  0  0  0  0  0  0  0  0
    8.0491   -0.7197    4.5778 O   0  0  0  0  0  0  0  0  0  0  0  0
    6.7981    1.2751    4.1454 C   0  0  0  0  0  0  0  0  0  0  0  0
    7.8642    2.1841    4.3986 C   0  0  0  0  0  0  0  0  0  0  0  0
    7.8652    3.5088    4.4344 N   0  0  0  0  0  0  0  0  0  0  0  0
    9.1447    3.8684    4.7442 C   0  0  0  0  0  0  0  0  0  0  0  0
    9.9480    2.7762    4.8875 C   0  0  0  0  0  0  0  0  0  0  0  0
    9.1319    1.7036    4.6691 N   0  0  0  0  0  0  0  0  0  0  0  0
   11.3745    2.7454    5.2215 C   0  0  0  0  0  0  0  0  0  0  0  0
   11.9131    4.0969    5.4304 N   0  0  0  0  0  0  0  0  0  0  0  0
   13.2662    4.1455    5.7694 C   0  0  0  0  0  0  0  0  0  0  0  0
   13.9298    3.1130    5.9217 O   0  0  0  0  0  0  0  0  0  0  0  0
   13.9416    5.5146    5.9716 C   0  0  0  0  0  0  0  0  0  0  0  0
   14.6050    6.0011    4.7361 N   0  0  0  0  0  0  0  0  0  0  0  0
   15.7305    5.1264    4.3183 C   0  0  0  0  0  0  0  0  0  0  0  0
   16.9387    5.1603    5.2726 C   0  0  0  0  0  0  0  0  0  0  0  0
   17.4146    6.4989    5.4792 O   0  0  0  0  0  0  0  0  0  0  0  0
   16.3670    7.3642    5.9322 C   0  0  0  0  0  0  0  0  0  0  0  0
   15.1760    7.3526    4.9569 C   0  0  0  0  0  0  0  0  0  0  0  0
   11.0992    5.3249    5.2740 C   0  0  0  0  0  0  0  0  0  0  0  0
    9.6009    5.2452    4.9323 C   0  0  0  0  0  0  0  0  0  0  0  0
    5.5978    1.7735    3.7871 C   0  0  0  0  0  0  0  0  0  0  0  0
    4.4575    0.8943    3.5324 C   0  0  0  0  0  0  0  0  0  0  0  0
    3.2145    1.3991    3.1389 C   0  0  0  0  0  0  0  0  0  0  0  0
   -0.9546    0.9337    1.8911 H   0  0  0  0  0  0  0  0  0  0  0  0
   -0.4396   -0.2656    3.0836 H   0  0  0  0  0  0  0  0  0  0  0  0
    0.1238   -0.3672    1.3698 H   0  0  0  0  0  0  0  0  0  0  0  0
    1.5016   -1.5445    2.9162 H   0  0  0  0  0  0  0  0  0  0  0  0
    3.6678   -2.4257    3.6026 H   0  0  0  0  0  0  0  0  0  0  0  0
    5.9982   -1.9902    4.1698 H   0  0  0  0  0  0  0  0  0  0  0  0
    9.3776    0.7175    4.7122 H   0  0  0  0  0  0  0  0  0  0  0  0
   11.9484    2.2700    4.4168 H   0  0  0  0  0  0  0  0  0  0  0  0
   11.5400    2.1688    6.1395 H   0  0  0  0  0  0  0  0  0  0  0  0
   14.6320    5.3991    6.8109 H   0  0  0  0  0  0  0  0  0  0  0  0
   13.2085    6.2538    6.3040 H   0  0  0  0  0  0  0  0  0  0  0  0
   16.0645    5.4803    3.3328 H   0  0  0  0  0  0  0  0  0  0  0  0
   15.3991    4.0968    4.1544 H   0  0  0  0  0  0  0  0  0  0  0  0
   17.7639    4.5883    4.8365 H   0  0  0  0  0  0  0  0  0  0  0  0
   16.7052    4.7065    6.2418 H   0  0  0  0  0  0  0  0  0  0  0  0
   16.7796    8.3759    5.9984 H   0  0  0  0  0  0  0  0  0  0  0  0
   16.0687    7.0739    6.9459 H   0  0  0  0  0  0  0  0  0  0  0  0
   15.5219    7.7300    3.9850 H   0  0  0  0  0  0  0  0  0  0  0  0
   14.3972    8.0470    5.2926 H   0  0  0  0  0  0  0  0  0  0  0  0
   11.5990    5.9511    4.5247 H   0  0  0  0  0  0  0  0  0  0  0  0
   11.1778    5.8673    6.2242 H   0  0  0  0  0  0  0  0  0  0  0  0
    9.3963    5.8370    4.0332 H   0  0  0  0  0  0  0  0  0  0  0  0
    9.0241    5.7067    5.7435 H   0  0  0  0  0  0  0  0  0  0  0  0
    5.4446    2.8444    3.6853 H   0  0  0  0  0  0  0  0  0  0  0  0
    3.0711    2.4690    3.0063 H   0  0  0  0  0  0  0  0  0  0  0  0
  1  2  1  0  0  0  0
  1 32  1  0  0  0  0
  1 33  1  0  0  0  0
  1 34  1  0  0  0  0
  2  3  1  0  0  0  0
  3  4  1  0  0  0  0
  3 31  2  0  0  0  0
  4  5  2  0  0  0  0
  4 35  1  0  0  0  0
  5  6  1  0  0  0  0
  5 36  1  0  0  0  0
  6  7  1  0  0  0  0
  6 30  2  0  0  0  0
  7  8  1  0  0  0  0
  7 37  1  0  0  0  0
  8  9  2  0  0  0  0
  8 10  1  0  0  0  0
 10 11  1  0  0  0  0
 10 29  2  0  0  0  0
 11 12  2  0  0  0  0
 11 15  1  0  0  0  0
 12 13  1  0  0  0  0
 13 14  2  0  0  0  0
 13 28  1  0  0  0  0
 14 15  1  0  0  0  0
 14 16  1  0  0  0  0
 15 38  1  0  0  0  0
 16 17  1  0  0  0  0
 16 39  1  0  0  0  0
 16 40  1  0  0  0  0
 17 18  1  0  0  0  0
 17 27  1  0  0  0  0
 18 19  2  0  0  0  0
 18 20  1  0  0  0  0
 20 21  1  0  0  0  0
 20 41  1  0  0  0  0
 20 42  1  0  0  0  0
 21 22  1  0  0  0  0
 21 26  1  0  0  0  0
 22 23  1  0  0  0  0
 22 43  1  0  0  0  0
 22 44  1  0  0  0  0
 23 24  1  0  0  0  0
 23 45  1  0  0  0  0
 23 46  1  0  0  0  0
 24 25  1  0  0  0  0
 25 26  1  0  0  0  0
 25 47  1  0  0  0  0
 25 48  1  0  0  0  0
 26 49  1  0  0  0  0
 26 50  1  0  0  0  0
 27 28  1  0  0  0  0
 27 51  1  0  0  0  0
 27 52  1  0  0  0  0
 28 53  1  0  0  0  0
 28 54  1  0  0  0  0
 29 30  1  0  0  0  0
 29 55  1  0  0  0  0
 30 31  1  0  0  0  0
 31 56  1  0  0  0  0
M  END
$$$$
