CHEMBL4211614
 OpenBabel04072215383D

 78 83  0  0  0  0  0  0  0  0999 V2000
    0.9291    0.2045   -0.0854 C   0  0  0  0  0  0  0  0  0  0  0  0
    2.4201    0.0327   -0.0753 C   0  0  0  0  0  0  0  0  0  0  0  0
    3.1026   -1.1862   -0.0933 C   0  0  0  0  0  0  0  0  0  0  0  0
    2.5641   -2.5501   -0.0928 C   0  0  0  0  0  0  0  0  0  0  0  0
    1.3677   -2.8196   -0.0855 O   0  0  0  0  0  0  0  0  0  0  0  0
    3.4963   -3.5666   -0.0878 N   0  0  0  0  0  0  0  0  0  0  0  0
    3.1290   -4.9696   -0.0465 C   0  0  0  0  0  0  0  0  0  0  0  0
    4.3883   -5.8170   -0.1094 C   0  0  0  0  0  0  0  0  0  0  0  0
    4.1337   -7.3282   -0.1609 C   0  0  0  0  0  0  0  0  0  0  0  0
    5.4145   -8.0515   -0.1642 N   0  0  0  0  0  0  0  0  0  0  0  0
    6.2349   -7.8347   -1.3757 C   0  0  0  0  0  0  0  0  0  0  0  0
    5.7597   -8.6342   -2.5935 C   0  0  0  0  0  0  0  0  0  0  0  0
    5.8043  -10.0343   -2.3079 O   0  0  0  0  0  0  0  0  0  0  0  0
    4.9445  -10.3427   -1.2046 C   0  0  0  0  0  0  0  0  0  0  0  0
    5.2668   -9.5072    0.0510 C   0  0  0  0  0  0  0  0  0  0  0  0
    4.8049   -0.9420   -0.1314 S   0  0  0  0  0  0  0  0  0  0  0  0
    4.6518    0.7403   -0.0876 C   0  0  0  0  0  0  0  0  0  0  0  0
    5.7594    1.5038   -0.0883 N   0  0  0  0  0  0  0  0  0  0  0  0
    5.4718    2.8049   -0.0236 C   0  0  0  0  0  0  0  0  0  0  0  0
    4.2564    3.3669    0.0354 N   0  0  0  0  0  0  0  0  0  0  0  0
    3.1695    2.5577    0.0001 C   0  0  0  0  0  0  0  0  0  0  0  0
    1.8998    3.1211    0.1223 O   0  0  0  0  0  0  0  0  0  0  0  0
    1.6165    4.3412   -0.4371 C   0  0  0  0  0  0  0  0  0  0  0  0
    2.4695    5.4483   -0.4576 C   0  0  0  0  0  0  0  0  0  0  0  0
    2.1040    6.6258   -1.1217 C   0  0  0  0  0  0  0  0  0  0  0  0
    0.8315    6.7483   -1.6733 C   0  0  0  0  0  0  0  0  0  0  0  0
    0.4089    7.9328   -2.2857 N   0  0  0  0  0  0  0  0  0  0  0  0
    1.1406    8.6471   -3.2200 C   0  0  0  0  0  0  0  0  0  0  0  0
    2.2234    8.3586   -3.7087 O   0  0  0  0  0  0  0  0  0  0  0  0
    0.4527    9.9090   -3.6133 C   0  0  0  0  0  0  0  0  0  0  0  0
    0.8997   11.0225   -2.7225 C   0  0  0  0  0  0  0  0  0  0  0  0
    0.1333   11.5340   -1.9256 O   0  0  0  0  0  0  0  0  0  0  0  0
    2.2224   11.3334   -3.0047 N   0  0  0  0  0  0  0  0  0  0  0  0
    2.9986   12.4051   -2.5584 C   0  0  0  0  0  0  0  0  0  0  0  0
    2.5644   13.3154   -1.5884 C   0  0  0  0  0  0  0  0  0  0  0  0
    3.3751   14.3949   -1.2409 C   0  0  0  0  0  0  0  0  0  0  0  0
    4.6076   14.5626   -1.8617 C   0  0  0  0  0  0  0  0  0  0  0  0
    5.3693   15.6154   -1.5475 F   0  0  0  0  0  0  0  0  0  0  0  0
    5.0620   13.6552   -2.8127 C   0  0  0  0  0  0  0  0  0  0  0  0
    4.2587   12.5681   -3.1559 C   0  0  0  0  0  0  0  0  0  0  0  0
   -0.4851    9.5113   -4.7865 C   0  0  0  0  0  0  0  0  0  0  0  0
    0.1956   10.7618   -4.9230 C   0  0  0  0  0  0  0  0  0  0  0  0
   -0.0778    5.7000   -1.5459 C   0  0  0  0  0  0  0  0  0  0  0  0
    0.3332    4.4975   -0.9676 C   0  0  0  0  0  0  0  0  0  0  0  0
   -0.5355    3.4750   -0.9370 F   0  0  0  0  0  0  0  0  0  0  0  0
    3.3289    1.1694   -0.0482 C   0  0  0  0  0  0  0  0  0  0  0  0
    0.3786   -0.7370   -0.1003 H   0  0  0  0  0  0  0  0  0  0  0  0
    0.6252    0.7667   -0.9747 H   0  0  0  0  0  0  0  0  0  0  0  0
    0.6067    0.7529    0.8045 H   0  0  0  0  0  0  0  0  0  0  0  0
    4.4749   -3.3057   -0.0607 H   0  0  0  0  0  0  0  0  0  0  0  0
    2.4706   -5.1734   -0.8985 H   0  0  0  0  0  0  0  0  0  0  0  0
    2.5646   -5.1530    0.8739 H   0  0  0  0  0  0  0  0  0  0  0  0
    5.0226   -5.5822    0.7556 H   0  0  0  0  0  0  0  0  0  0  0  0
    4.9400   -5.4903   -0.9967 H   0  0  0  0  0  0  0  0  0  0  0  0
    3.5066   -7.5920   -1.0203 H   0  0  0  0  0  0  0  0  0  0  0  0
    3.5700   -7.5988    0.7423 H   0  0  0  0  0  0  0  0  0  0  0  0
    7.2569   -8.1487   -1.1290 H   0  0  0  0  0  0  0  0  0  0  0  0
    6.3184   -6.7782   -1.6405 H   0  0  0  0  0  0  0  0  0  0  0  0
    6.4245   -8.4431   -3.4417 H   0  0  0  0  0  0  0  0  0  0  0  0
    4.7451   -8.3546   -2.9011 H   0  0  0  0  0  0  0  0  0  0  0  0
    5.0880  -11.4048   -0.9780 H   0  0  0  0  0  0  0  0  0  0  0  0
    3.9046  -10.2066   -1.5192 H   0  0  0  0  0  0  0  0  0  0  0  0
    6.2291   -9.8586    0.4455 H   0  0  0  0  0  0  0  0  0  0  0  0
    4.5303   -9.7188    0.8353 H   0  0  0  0  0  0  0  0  0  0  0  0
    6.3102    3.4912   -0.0126 H   0  0  0  0  0  0  0  0  0  0  0  0
    3.4297    5.4378    0.0470 H   0  0  0  0  0  0  0  0  0  0  0  0
    2.8041    7.4585   -1.1375 H   0  0  0  0  0  0  0  0  0  0  0  0
   -0.5590    8.2057   -2.1459 H   0  0  0  0  0  0  0  0  0  0  0  0
    2.6718   10.7337   -3.6967 H   0  0  0  0  0  0  0  0  0  0  0  0
    1.6049   13.1957   -1.1009 H   0  0  0  0  0  0  0  0  0  0  0  0
    3.0410   15.1145   -0.4946 H   0  0  0  0  0  0  0  0  0  0  0  0
    6.0284   13.8028   -3.2839 H   0  0  0  0  0  0  0  0  0  0  0  0
    4.6203   11.8684   -3.9068 H   0  0  0  0  0  0  0  0  0  0  0  0
   -1.5504    9.4612   -4.6340 H   0  0  0  0  0  0  0  0  0  0  0  0
   -0.1243    8.7571   -5.4952 H   0  0  0  0  0  0  0  0  0  0  0  0
   -0.4505   11.6416   -4.8134 H   0  0  0  0  0  0  0  0  0  0  0  0
    1.0222   10.9338   -5.5930 H   0  0  0  0  0  0  0  0  0  0  0  0
   -1.0824    5.7724   -1.9492 H   0  0  0  0  0  0  0  0  0  0  0  0
  1  2  1  0  0  0  0
  1 47  1  0  0  0  0
  1 48  1  0  0  0  0
  1 49  1  0  0  0  0
  2  3  2  0  0  0  0
  2 46  1  0  0  0  0
  3  4  1  0  0  0  0
  3 16  1  0  0  0  0
  4  5  2  0  0  0  0
  4  6  1  0  0  0  0
  6  7  1  0  0  0  0
  6 50  1  0  0  0  0
  7  8  1  0  0  0  0
  7 51  1  0  0  0  0
  7 52  1  0  0  0  0
  8  9  1  0  0  0  0
  8 53  1  0  0  0  0
  8 54  1  0  0  0  0
  9 10  1  0  0  0  0
  9 55  1  0  0  0  0
  9 56  1  0  0  0  0
 10 11  1  0  0  0  0
 10 15  1  0  0  0  0
 11 12  1  0  0  0  0
 11 57  1  0  0  0  0
 11 58  1  0  0  0  0
 12 13  1  0  0  0  0
 12 59  1  0  0  0  0
 12 60  1  0  0  0  0
 13 14  1  0  0  0  0
 14 15  1  0  0  0  0
 14 61  1  0  0  0  0
 14 62  1  0  0  0  0
 15 63  1  0  0  0  0
 15 64  1  0  0  0  0
 16 17  1  0  0  0  0
 17 18  1  0  0  0  0
 17 46  2  0  0  0  0
 18 19  2  0  0  0  0
 19 20  1  0  0  0  0
 19 65  1  0  0  0  0
 20 21  2  0  0  0  0
 21 22  1  0  0  0  0
 21 46  1  0  0  0  0
 22 23  1  0  0  0  0
 23 24  1  0  0  0  0
 23 44  2  0  0  0  0
 24 25  2  0  0  0  0
 24 66  1  0  0  0  0
 25 26  1  0  0  0  0
 25 67  1  0  0  0  0
 26 27  1  0  0  0  0
 26 43  2  0  0  0  0
 27 28  1  0  0  0  0
 27 68  1  0  0  0  0
 28 29  2  0  0  0  0
 28 30  1  0  0  0  0
 30 31  1  0  0  0  0
 30 41  1  0  0  0  0
 30 42  1  0  0  0  0
 31 32  2  0  0  0  0
 31 33  1  0  0  0  0
 33 34  1  0  0  0  0
 33 69  1  0  0  0  0
 34 35  1  0  0  0  0
 34 40  2  0  0  0  0
 35 36  2  0  0  0  0
 35 70  1  0  0  0  0
 36 37  1  0  0  0  0
 36 71  1  0  0  0  0
 37 38  1  0  0  0  0
 37 39  2  0  0  0  0
 39 40  1  0  0  0  0
 39 72  1  0  0  0  0
 40 73  1  0  0  0  0
 41 42  1  0  0  0  0
 41 74  1  0  0  0  0
 41 75  1  0  0  0  0
 42 76  1  0  0  0  0
 42 77  1  0  0  0  0
 43 44  1  0  0  0  0
 43 78  1  0  0  0  0
 44 45  1  0  0  0  0
M  END
$$$$
