CHEMBL1278233
 OpenBabel04072215363D

 57 60  0  0  0  0  0  0  0  0999 V2000
    0.9313    2.8184   -5.1780 C   0  0  0  0  0  0  0  0  0  0  0  0
    2.4394    2.6640   -5.0151 C   0  0  0  0  0  0  0  0  0  0  0  0
    2.8524    1.6954   -3.9822 N   0  0  0  0  0  0  0  0  0  0  0  0
    2.2702    0.3577   -4.1400 C   0  0  0  0  0  0  0  0  0  0  0  0
    2.7569   -0.4402   -5.3445 C   0  0  0  0  0  0  0  0  0  0  0  0
    4.3288    1.6977   -3.8873 C   0  0  0  0  0  0  0  0  0  0  0  0
    4.9218    0.8253   -2.7595 C   0  0  0  0  0  0  0  0  0  0  0  0
    6.3835    0.8438   -2.7504 N   0  0  0  0  0  0  0  0  0  0  0  0
    7.0814   -0.4310   -2.9974 C   0  0  0  0  0  0  0  0  0  0  0  0
    8.6231   -0.4401   -3.0453 C   0  0  0  0  0  0  0  0  0  0  0  0
    9.1799    0.8783   -2.6917 C   0  0  0  0  0  0  0  0  0  0  0  0
   10.5111    1.1789   -2.6239 N   0  0  0  0  0  0  0  0  0  0  0  0
   10.6639    2.5018   -2.2811 C   0  0  0  0  0  0  0  0  0  0  0  0
   11.9319    3.1114   -2.1276 C   0  0  0  0  0  0  0  0  0  0  0  0
   13.1599    2.5983   -2.2592 C   0  0  0  0  0  0  0  0  0  0  0  0
   13.6527    1.2197   -2.6171 C   0  0  0  0  0  0  0  0  0  0  0  0
   12.9945    0.2300   -2.8775 O   0  0  0  0  0  0  0  0  0  0  0  0
   15.0382    1.3137   -2.5903 N   0  0  0  0  0  0  0  0  0  0  0  0
   15.4566    2.5980   -2.2555 C   0  0  0  0  0  0  0  0  0  0  0  0
   16.7522    3.0556   -2.1329 C   0  0  0  0  0  0  0  0  0  0  0  0
   16.9329    4.3987   -1.7820 C   0  0  0  0  0  0  0  0  0  0  0  0
   15.8265    5.2355   -1.5662 C   0  0  0  0  0  0  0  0  0  0  0  0
   16.0959    7.0477   -1.0905 Br  0  0  0  0  0  0  0  0  0  0  0  0
   14.5216    4.7568   -1.6925 C   0  0  0  0  0  0  0  0  0  0  0  0
   14.3553    3.4268   -2.0395 C   0  0  0  0  0  0  0  0  0  0  0  0
    9.3919    3.0483   -2.1320 C   0  0  0  0  0  0  0  0  0  0  0  0
    9.0289    4.4531   -1.7830 C   0  0  0  0  0  0  0  0  0  0  0  0
    8.4562    2.0038   -2.3829 C   0  0  0  0  0  0  0  0  0  0  0  0
    7.0065    2.0297   -2.3596 C   0  0  0  0  0  0  0  0  0  0  0  0
    6.3859    3.0389   -2.0371 O   0  0  0  0  0  0  0  0  0  0  0  0
    0.7126    3.6942   -5.7980 H   0  0  0  0  0  0  0  0  0  0  0  0
    0.4374    2.9598   -4.2115 H   0  0  0  0  0  0  0  0  0  0  0  0
    0.4903    1.9491   -5.6759 H   0  0  0  0  0  0  0  0  0  0  0  0
    2.8299    3.6521   -4.7386 H   0  0  0  0  0  0  0  0  0  0  0  0
    2.8794    2.4162   -5.9888 H   0  0  0  0  0  0  0  0  0  0  0  0
    1.1776    0.4293   -4.1725 H   0  0  0  0  0  0  0  0  0  0  0  0
    2.4573   -0.2269   -3.2310 H   0  0  0  0  0  0  0  0  0  0  0  0
    2.7111    0.1417   -6.2691 H   0  0  0  0  0  0  0  0  0  0  0  0
    2.1280   -1.3256   -5.4801 H   0  0  0  0  0  0  0  0  0  0  0  0
    3.7865   -0.7845   -5.2040 H   0  0  0  0  0  0  0  0  0  0  0  0
    4.6491    2.7333   -3.7209 H   0  0  0  0  0  0  0  0  0  0  0  0
    4.7777    1.3997   -4.8440 H   0  0  0  0  0  0  0  0  0  0  0  0
    4.6073   -0.2172   -2.8670 H   0  0  0  0  0  0  0  0  0  0  0  0
    4.5668    1.1793   -1.7844 H   0  0  0  0  0  0  0  0  0  0  0  0
    6.6985   -0.8294   -3.9456 H   0  0  0  0  0  0  0  0  0  0  0  0
    6.7521   -1.1230   -2.2121 H   0  0  0  0  0  0  0  0  0  0  0  0
    8.9567   -0.7304   -4.0486 H   0  0  0  0  0  0  0  0  0  0  0  0
    9.0006   -1.2055   -2.3562 H   0  0  0  0  0  0  0  0  0  0  0  0
   11.2689    0.5248   -2.8025 H   0  0  0  0  0  0  0  0  0  0  0  0
   11.8691    4.1610   -1.8565 H   0  0  0  0  0  0  0  0  0  0  0  0
   15.6416    0.5310   -2.7927 H   0  0  0  0  0  0  0  0  0  0  0  0
   17.6045    2.4073   -2.2987 H   0  0  0  0  0  0  0  0  0  0  0  0
   17.9410    4.7938   -1.6761 H   0  0  0  0  0  0  0  0  0  0  0  0
   13.6756    5.4113   -1.5219 H   0  0  0  0  0  0  0  0  0  0  0  0
    9.9059    5.0872   -1.6312 H   0  0  0  0  0  0  0  0  0  0  0  0
    8.4426    4.4764   -0.8592 H   0  0  0  0  0  0  0  0  0  0  0  0
    8.4360    4.9021   -2.5868 H   0  0  0  0  0  0  0  0  0  0  0  0
  1  2  1  0  0  0  0
  1 31  1  0  0  0  0
  1 32  1  0  0  0  0
  1 33  1  0  0  0  0
  2  3  1  0  0  0  0
  2 34  1  0  0  0  0
  2 35  1  0  0  0  0
  3  4  1  0  0  0  0
  3  6  1  0  0  0  0
  4  5  1  0  0  0  0
  4 36  1  0  0  0  0
  4 37  1  0  0  0  0
  5 38  1  0  0  0  0
  5 39  1  0  0  0  0
  5 40  1  0  0  0  0
  6  7  1  0  0  0  0
  6 41  1  0  0  0  0
  6 42  1  0  0  0  0
  7  8  1  0  0  0  0
  7 43  1  0  0  0  0
  7 44  1  0  0  0  0
  8  9  1  0  0  0  0
  8 29  1  0  0  0  0
  9 10  1  0  0  0  0
  9 45  1  0  0  0  0
  9 46  1  0  0  0  0
 10 11  1  0  0  0  0
 10 47  1  0  0  0  0
 10 48  1  0  0  0  0
 11 12  1  0  0  0  0
 11 28  2  0  0  0  0
 12 13  1  0  0  0  0
 12 49  1  0  0  0  0
 13 14  1  0  0  0  0
 13 26  2  0  0  0  0
 14 15  2  0  0  0  0
 14 50  1  0  0  0  0
 15 16  1  0  0  0  0
 15 25  1  0  0  0  0
 16 17  2  0  0  0  0
 16 18  1  0  0  0  0
 18 19  1  0  0  0  0
 18 51  1  0  0  0  0
 19 20  1  0  0  0  0
 19 25  2  0  0  0  0
 20 21  2  0  0  0  0
 20 52  1  0  0  0  0
 21 22  1  0  0  0  0
 21 53  1  0  0  0  0
 22 23  1  0  0  0  0
 22 24  2  0  0  0  0
 24 25  1  0  0  0  0
 24 54  1  0  0  0  0
 26 27  1  0  0  0  0
 26 28  1  0  0  0  0
 27 55  1  0  0  0  0
 27 56  1  0  0  0  0
 27 57  1  0  0  0  0
 28 29  1  0  0  0  0
 29 30  2  0  0  0  0
M  END
$$$$
