CHEMBL3656108
 OpenBabel04072215373D

 70 73  0  0  0  0  0  0  0  0999 V2000
    1.2261   -2.7512   -2.2677 C   0  0  0  0  0  0  0  0  0  0  0  0
    2.3809   -2.0613   -1.7834 O   0  0  0  0  0  0  0  0  0  0  0  0
    3.1870   -1.5722   -2.7677 C   0  0  0  0  0  0  0  0  0  0  0  0
    2.9807   -1.6903   -3.9672 O   0  0  0  0  0  0  0  0  0  0  0  0
    4.3581   -0.8453   -2.1607 C   0  0  0  0  0  0  0  0  0  0  0  0
    5.3091   -0.2835   -3.1890 C   0  0  0  0  0  0  0  0  0  0  0  0
    5.3333    1.2409   -4.0225 S   0  0  3  0  0  0  0  0  0  0  0  0
    3.7496    1.6121   -4.6289 C   0  0  0  0  0  0  0  0  0  0  0  0
    5.4618    2.1652   -2.9258 O   0  0  0  0  0  0  0  0  0  0  0  0
    6.5662    1.4894   -5.0579 N   0  0  0  0  0  0  0  0  0  0  0  0
    6.7556    0.6620   -6.1290 C   0  0  0  0  0  0  0  0  0  0  0  0
    6.0332   -0.3013   -6.3686 O   0  0  0  0  0  0  0  0  0  0  0  0
    7.9024    0.9772   -6.9842 C   0  0  0  0  0  0  0  0  0  0  0  0
    8.8379    1.9950   -6.8840 C   0  0  0  0  0  0  0  0  0  0  0  0
    9.7529    1.8511   -7.9048 N   0  0  0  0  0  0  0  0  0  0  0  0
    9.4302    0.7635   -8.6823 C   0  0  0  0  0  0  0  0  0  0  0  0
   10.2405    0.3106   -9.8063 C   0  0  0  0  0  0  0  0  0  0  0  0
   10.2194   -1.0196  -10.1974 C   0  0  0  0  0  0  0  0  0  0  0  0
   11.0984   -1.4377  -11.1899 C   0  0  0  0  0  0  0  0  0  0  0  0
   11.2402   -2.7557  -11.5664 O   0  0  0  0  0  0  0  0  0  0  0  0
   11.1456   -3.7365  -10.5989 C   0  0  0  0  0  0  0  0  0  0  0  0
   10.6118   -4.9538  -10.9946 C   0  0  0  0  0  0  0  0  0  0  0  0
   10.4248   -5.9771  -10.0575 C   0  0  0  0  0  0  0  0  0  0  0  0
   10.7652   -5.8132   -8.7088 C   0  0  0  0  0  0  0  0  0  0  0  0
   10.5246   -6.8049   -7.7182 N   0  0  0  0  0  0  0  0  0  0  0  0
   10.0055   -8.0634   -7.9526 C   0  0  0  0  0  0  0  0  0  0  0  0
    9.7313   -8.5072   -9.0692 O   0  0  0  0  0  0  0  0  0  0  0  0
    9.7895   -8.8002   -6.7941 N   0  0  0  0  0  0  0  0  0  0  0  0
    9.2117  -10.0955   -6.9061 C   0  0  0  0  0  0  0  0  0  0  0  0
    8.0660  -10.3999   -6.1704 C   0  0  0  0  0  0  0  0  0  0  0  0
    7.4309  -11.6337   -6.3463 C   0  0  0  0  0  0  0  0  0  0  0  0
    7.9475  -12.5771   -7.2374 C   0  0  0  0  0  0  0  0  0  0  0  0
    9.0977  -12.2899   -7.9769 C   0  0  0  0  0  0  0  0  0  0  0  0
    9.6272  -13.2703   -8.9837 C   0  0  0  0  0  0  0  0  0  0  0  0
    9.7312  -11.0506   -7.7942 C   0  0  0  0  0  0  0  0  0  0  0  0
   11.3603   -4.6060   -8.3294 C   0  0  0  0  0  0  0  0  0  0  0  0
   11.5735   -3.5867   -9.2755 C   0  0  0  0  0  0  0  0  0  0  0  0
   11.8675   -0.4944  -11.8571 C   0  0  0  0  0  0  0  0  0  0  0  0
   11.7962    0.8211  -11.4236 C   0  0  0  0  0  0  0  0  0  0  0  0
   11.0306    1.2417  -10.3867 N   0  0  0  0  0  0  0  0  0  0  0  0
    8.2829    0.2220   -8.1319 C   0  0  0  0  0  0  0  0  0  0  0  0
    0.6309   -3.0668   -1.4061 H   0  0  0  0  0  0  0  0  0  0  0  0
    1.5227   -3.6427   -2.8289 H   0  0  0  0  0  0  0  0  0  0  0  0
    0.6113   -2.0899   -2.8869 H   0  0  0  0  0  0  0  0  0  0  0  0
    4.9189   -1.5317   -1.5198 H   0  0  0  0  0  0  0  0  0  0  0  0
    3.9739   -0.0084   -1.5703 H   0  0  0  0  0  0  0  0  0  0  0  0
    6.0872   -0.9912   -3.5264 H   0  0  0  0  0  0  0  0  0  0  0  0
    3.0193    1.4896   -3.8272 H   0  0  0  0  0  0  0  0  0  0  0  0
    3.5182    0.9311   -5.4496 H   0  0  0  0  0  0  0  0  0  0  0  0
    3.7407    2.6432   -4.9865 H   0  0  0  0  0  0  0  0  0  0  0  0
    7.1316    2.3074   -4.9067 H   0  0  0  0  0  0  0  0  0  0  0  0
    8.9559    2.8054   -6.1777 H   0  0  0  0  0  0  0  0  0  0  0  0
   10.5723    2.4265   -8.0619 H   0  0  0  0  0  0  0  0  0  0  0  0
    9.5737   -1.7283   -9.6925 H   0  0  0  0  0  0  0  0  0  0  0  0
   10.3150   -5.1243  -12.0263 H   0  0  0  0  0  0  0  0  0  0  0  0
    9.9925   -6.8959  -10.4349 H   0  0  0  0  0  0  0  0  0  0  0  0
   10.8173   -6.5868   -6.7731 H   0  0  0  0  0  0  0  0  0  0  0  0
    9.5068   -8.2567   -5.9904 H   0  0  0  0  0  0  0  0  0  0  0  0
    7.6073   -9.6622   -5.5196 H   0  0  0  0  0  0  0  0  0  0  0  0
    6.5100  -11.8527   -5.8119 H   0  0  0  0  0  0  0  0  0  0  0  0
    7.4333  -13.5273   -7.3673 H   0  0  0  0  0  0  0  0  0  0  0  0
    8.9889  -14.1582   -9.0515 H   0  0  0  0  0  0  0  0  0  0  0  0
   10.6336  -13.5998   -8.7079 H   0  0  0  0  0  0  0  0  0  0  0  0
    9.6562  -12.8116   -9.9778 H   0  0  0  0  0  0  0  0  0  0  0  0
   10.6254  -10.8208   -8.3713 H   0  0  0  0  0  0  0  0  0  0  0  0
   11.6651   -4.4185   -7.3072 H   0  0  0  0  0  0  0  0  0  0  0  0
   12.0494   -2.6654   -8.9525 H   0  0  0  0  0  0  0  0  0  0  0  0
   12.5185   -0.7784  -12.6761 H   0  0  0  0  0  0  0  0  0  0  0  0
   12.3840    1.5957  -11.9101 H   0  0  0  0  0  0  0  0  0  0  0  0
    7.7602   -0.6530   -8.5013 H   0  0  0  0  0  0  0  0  0  0  0  0
  1  2  1  0  0  0  0
  1 42  1  0  0  0  0
  1 43  1  0  0  0  0
  1 44  1  0  0  0  0
  2  3  1  0  0  0  0
  3  4  2  0  0  0  0
  3  5  1  0  0  0  0
  5  6  1  0  0  0  0
  5 45  1  0  0  0  0
  5 46  1  0  0  0  0
  6  7  2  0  0  0  0
  6 47  1  0  0  0  0
  7  8  1  0  0  0  0
  7  9  2  0  0  0  0
  7 10  1  0  0  0  0
  8 48  1  0  0  0  0
  8 49  1  0  0  0  0
  8 50  1  0  0  0  0
 10 11  1  0  0  0  0
 10 51  1  0  0  0  0
 11 12  2  0  0  0  0
 11 13  1  0  0  0  0
 13 14  2  0  0  0  0
 13 41  1  0  0  0  0
 14 15  1  0  0  0  0
 14 52  1  0  0  0  0
 15 16  1  0  0  0  0
 15 53  1  0  0  0  0
 16 17  1  0  0  0  0
 16 41  2  0  0  0  0
 17 18  1  0  0  0  0
 17 40  2  0  0  0  0
 18 19  2  0  0  0  0
 18 54  1  0  0  0  0
 19 20  1  0  0  0  0
 19 38  1  0  0  0  0
 20 21  1  0  0  0  0
 21 22  1  0  0  0  0
 21 37  2  0  0  0  0
 22 23  2  0  0  0  0
 22 55  1  0  0  0  0
 23 24  1  0  0  0  0
 23 56  1  0  0  0  0
 24 25  1  0  0  0  0
 24 36  2  0  0  0  0
 25 26  1  0  0  0  0
 25 57  1  0  0  0  0
 26 27  2  0  0  0  0
 26 28  1  0  0  0  0
 28 29  1  0  0  0  0
 28 58  1  0  0  0  0
 29 30  1  0  0  0  0
 29 35  2  0  0  0  0
 30 31  2  0  0  0  0
 30 59  1  0  0  0  0
 31 32  1  0  0  0  0
 31 60  1  0  0  0  0
 32 33  2  0  0  0  0
 32 61  1  0  0  0  0
 33 34  1  0  0  0  0
 33 35  1  0  0  0  0
 34 62  1  0  0  0  0
 34 63  1  0  0  0  0
 34 64  1  0  0  0  0
 35 65  1  0  0  0  0
 36 37  1  0  0  0  0
 36 66  1  0  0  0  0
 37 67  1  0  0  0  0
 38 39  2  0  0  0  0
 38 68  1  0  0  0  0
 39 40  1  0  0  0  0
 39 69  1  0  0  0  0
 41 70  1  0  0  0  0
M  END
$$$$
