CHEMBL426004
 OpenBabel04072215383D

 46 49  0  0  0  0  0  0  0  0999 V2000
    1.4393    1.2596    2.4976 C   0  0  0  0  0  0  0  0  0  0  0  0
    0.2345    0.5236    2.0078 C   0  0  0  0  0  0  0  0  0  0  0  0
   -1.0077    1.1525    1.9628 C   0  0  0  0  0  0  0  0  0  0  0  0
   -2.1311    0.4564    1.5270 C   0  0  0  0  0  0  0  0  0  0  0  0
   -2.0548   -0.8752    1.1045 C   0  0  0  0  0  0  0  0  0  0  0  0
   -3.1770   -1.6206    0.6625 N   0  0  0  0  0  0  0  0  0  0  0  0
   -4.4437   -1.1048    0.4484 C   0  0  0  0  0  0  0  0  0  0  0  0
   -4.7281    0.0894    0.5178 O   0  0  0  0  0  0  0  0  0  0  0  0
   -5.3868   -2.0877    0.1840 N   0  0  0  0  0  0  0  0  0  0  0  0
   -6.7416   -1.7213   -0.0121 C   0  0  0  0  0  0  0  0  0  0  0  0
   -7.0991   -0.6178   -0.7917 C   0  0  0  0  0  0  0  0  0  0  0  0
   -8.4229   -0.1631   -0.8273 C   0  0  0  0  0  0  0  0  0  0  0  0
   -9.4342   -0.8140   -0.1062 C   0  0  0  0  0  0  0  0  0  0  0  0
  -10.8285   -0.3133   -0.0869 C   0  0  0  0  0  0  0  0  0  0  0  0
  -11.4246    0.2772   -1.2293 C   0  0  0  0  0  0  0  0  0  0  0  0
  -12.7751    0.6307   -1.2715 C   0  0  0  0  0  0  0  0  0  0  0  0
  -13.6160    0.3607   -0.1961 C   0  0  0  0  0  0  0  0  0  0  0  0
  -13.0240   -0.1805    0.9467 C   0  0  0  0  0  0  0  0  0  0  0  0
  -13.5751   -0.5808    2.1339 N   0  0  0  0  0  0  0  0  0  0  0  0
  -12.6809   -0.9050    3.0751 N   0  0  0  0  0  0  0  0  0  0  0  0
  -11.5140   -0.7984    2.4474 C   0  0  0  0  0  0  0  0  0  0  0  0
  -10.3505   -0.9745    3.0943 N   0  0  0  0  0  0  0  0  0  0  0  0
  -11.6598   -0.4514    1.0637 C   0  0  0  0  0  0  0  0  0  0  0  0
   -9.0642   -1.9936    0.5716 C   0  0  0  0  0  0  0  0  0  0  0  0
   -7.7376   -2.4377    0.6377 C   0  0  0  0  0  0  0  0  0  0  0  0
   -0.8081   -1.5086    1.1437 C   0  0  0  0  0  0  0  0  0  0  0  0
    0.3118   -0.8092    1.5940 C   0  0  0  0  0  0  0  0  0  0  0  0
    1.4925   -1.4397    1.6260 F   0  0  0  0  0  0  0  0  0  0  0  0
    1.1895    2.2899    2.7779 H   0  0  0  0  0  0  0  0  0  0  0  0
    2.2046    1.3049    1.7170 H   0  0  0  0  0  0  0  0  0  0  0  0
    1.8484    0.7666    3.3848 H   0  0  0  0  0  0  0  0  0  0  0  0
   -1.1210    2.1892    2.2733 H   0  0  0  0  0  0  0  0  0  0  0  0
   -3.0693    1.0004    1.5326 H   0  0  0  0  0  0  0  0  0  0  0  0
   -3.0199   -2.5718    0.3527 H   0  0  0  0  0  0  0  0  0  0  0  0
   -5.2274   -2.9654    0.6584 H   0  0  0  0  0  0  0  0  0  0  0  0
   -6.3437   -0.0710   -1.3517 H   0  0  0  0  0  0  0  0  0  0  0  0
   -8.6355    0.7313   -1.4083 H   0  0  0  0  0  0  0  0  0  0  0  0
  -10.8322    0.4449   -2.1272 H   0  0  0  0  0  0  0  0  0  0  0  0
  -13.1828    1.0890   -2.1702 H   0  0  0  0  0  0  0  0  0  0  0  0
  -14.6770    0.5833   -0.2428 H   0  0  0  0  0  0  0  0  0  0  0  0
  -14.5589   -0.6392    2.3678 H   0  0  0  0  0  0  0  0  0  0  0  0
  -10.3928   -1.0042    4.1060 H   0  0  0  0  0  0  0  0  0  0  0  0
   -9.5076   -0.5365    2.7353 H   0  0  0  0  0  0  0  0  0  0  0  0
   -9.8134   -2.5708    1.1117 H   0  0  0  0  0  0  0  0  0  0  0  0
   -7.5041   -3.2928    1.2648 H   0  0  0  0  0  0  0  0  0  0  0  0
   -0.6853   -2.5421    0.8390 H   0  0  0  0  0  0  0  0  0  0  0  0
  1  2  1  0  0  0  0
  1 29  1  0  0  0  0
  1 30  1  0  0  0  0
  1 31  1  0  0  0  0
  2  3  1  0  0  0  0
  2 27  2  0  0  0  0
  3  4  2  0  0  0  0
  3 32  1  0  0  0  0
  4  5  1  0  0  0  0
  4 33  1  0  0  0  0
  5  6  1  0  0  0  0
  5 26  2  0  0  0  0
  6  7  1  0  0  0  0
  6 34  1  0  0  0  0
  7  8  2  0  0  0  0
  7  9  1  0  0  0  0
  9 10  1  0  0  0  0
  9 35  1  0  0  0  0
 10 11  1  0  0  0  0
 10 25  2  0  0  0  0
 11 12  2  0  0  0  0
 11 36  1  0  0  0  0
 12 13  1  0  0  0  0
 12 37  1  0  0  0  0
 13 14  1  0  0  0  0
 13 24  2  0  0  0  0
 14 15  1  0  0  0  0
 14 23  2  0  0  0  0
 15 16  2  0  0  0  0
 15 38  1  0  0  0  0
 16 17  1  0  0  0  0
 16 39  1  0  0  0  0
 17 18  2  0  0  0  0
 17 40  1  0  0  0  0
 18 19  1  0  0  0  0
 18 23  1  0  0  0  0
 19 20  1  0  0  0  0
 19 41  1  0  0  0  0
 20 21  2  0  0  0  0
 21 22  1  0  0  0  0
 21 23  1  0  0  0  0
 22 42  1  0  0  0  0
 22 43  1  0  0  0  0
 24 25  1  0  0  0  0
 24 44  1  0  0  0  0
 25 45  1  0  0  0  0
 26 27  1  0  0  0  0
 26 46  1  0  0  0  0
 27 28  1  0  0  0  0
M  END
$$$$
