CHEMBL500169
 OpenBabel04072215383D

 63 67  0  0  0  0  0  0  0  0999 V2000
    1.2557    0.5371    0.8560 C   0  0  0  0  0  0  0  0  0  0  0  0
    2.3473   -0.0799    0.0238 C   0  0  0  0  0  0  0  0  0  0  0  0
    2.7032   -1.2427    0.1998 O   0  0  0  0  0  0  0  0  0  0  0  0
    3.0183    0.7540   -1.0181 C   0  0  0  0  0  0  0  0  0  0  0  0
    2.6330    2.0853   -1.2832 C   0  0  0  0  0  0  0  0  0  0  0  0
    3.3186    2.8702   -2.2294 C   0  0  0  0  0  0  0  0  0  0  0  0
    4.3997    2.3180   -2.8921 C   0  0  0  0  0  0  0  0  0  0  0  0
    4.7514    0.9886   -2.6267 C   0  0  0  0  0  0  0  0  0  0  0  0
    4.0865    0.1864   -1.7196 C   0  0  0  0  0  0  0  0  0  0  0  0
    5.8865    0.6238   -3.3350 N   0  0  0  0  0  0  0  0  0  0  0  0
    6.4015    1.6964   -4.0395 C   0  0  0  0  0  0  0  0  0  0  0  0
    7.5171    1.7262   -4.5311 O   0  0  0  0  0  0  0  0  0  0  0  0
    5.3778    2.8089   -3.8854 C   0  0  0  0  0  0  0  0  0  0  0  0
    5.4905    3.9767   -4.5595 C   0  0  0  0  0  0  0  0  0  0  0  0
    6.3687    4.2271   -5.6032 N   0  0  0  0  0  0  0  0  0  0  0  0
    6.4307    3.4832   -6.7989 C   0  0  0  0  0  0  0  0  0  0  0  0
    5.3058    2.8219   -7.3110 C   0  0  0  0  0  0  0  0  0  0  0  0
    5.4238    1.8704   -8.3263 C   0  0  0  0  0  0  0  0  0  0  0  0
    6.6790    1.5542   -8.8518 C   0  0  0  0  0  0  0  0  0  0  0  0
    6.8469    0.3537   -9.7603 C   0  0  0  0  0  0  0  0  0  0  0  0
    6.0406    0.3758  -11.0011 N   0  0  0  0  0  0  0  0  0  0  0  0
    6.5005    1.4558  -11.8886 C   0  0  0  0  0  0  0  0  0  0  0  0
    5.8185    1.4267  -13.2565 C   0  0  0  0  0  0  0  0  0  0  0  0
    6.0206    0.0808  -13.9339 C   0  0  0  0  0  0  0  0  0  0  0  0
    5.4898   -1.0208  -13.0302 C   0  0  0  0  0  0  0  0  0  0  0  0
    6.1193   -0.9531  -11.6371 C   0  0  0  0  0  0  0  0  0  0  0  0
    7.7939    2.2857   -8.4147 C   0  0  0  0  0  0  0  0  0  0  0  0
    7.6677    3.2501   -7.4061 C   0  0  0  0  0  0  0  0  0  0  0  0
    4.6667    5.1488   -4.2005 C   0  0  0  0  0  0  0  0  0  0  0  0
    5.1426    6.0523   -3.2413 C   0  0  0  0  0  0  0  0  0  0  0  0
    4.3981    7.1897   -2.9097 C   0  0  0  0  0  0  0  0  0  0  0  0
    3.1756    7.4232   -3.5366 C   0  0  0  0  0  0  0  0  0  0  0  0
    2.6928    6.5304   -4.4937 C   0  0  0  0  0  0  0  0  0  0  0  0
    3.4435    5.4003   -4.8328 C   0  0  0  0  0  0  0  0  0  0  0  0
    0.8990   -0.1971    1.5851 H   0  0  0  0  0  0  0  0  0  0  0  0
    0.4146    0.8230    0.2203 H   0  0  0  0  0  0  0  0  0  0  0  0
    1.6424    1.3990    1.4062 H   0  0  0  0  0  0  0  0  0  0  0  0
    1.8050    2.5461   -0.7504 H   0  0  0  0  0  0  0  0  0  0  0  0
    3.0009    3.8929   -2.3995 H   0  0  0  0  0  0  0  0  0  0  0  0
    4.4042   -0.8348   -1.5356 H   0  0  0  0  0  0  0  0  0  0  0  0
    6.3971   -0.2382   -3.2280 H   0  0  0  0  0  0  0  0  0  0  0  0
    6.8709    5.1064   -5.5926 H   0  0  0  0  0  0  0  0  0  0  0  0
    4.3218    3.0212   -6.8990 H   0  0  0  0  0  0  0  0  0  0  0  0
    4.5401    1.3354   -8.6636 H   0  0  0  0  0  0  0  0  0  0  0  0
    6.5600   -0.5194   -9.1567 H   0  0  0  0  0  0  0  0  0  0  0  0
    7.9102    0.2145  -10.0000 H   0  0  0  0  0  0  0  0  0  0  0  0
    7.5876    1.4077  -12.0321 H   0  0  0  0  0  0  0  0  0  0  0  0
    6.2741    2.4262  -11.4312 H   0  0  0  0  0  0  0  0  0  0  0  0
    6.2254    2.2247  -13.8878 H   0  0  0  0  0  0  0  0  0  0  0  0
    4.7452    1.6240  -13.1414 H   0  0  0  0  0  0  0  0  0  0  0  0
    7.0882   -0.0808  -14.1332 H   0  0  0  0  0  0  0  0  0  0  0  0
    5.5048    0.0602  -14.8998 H   0  0  0  0  0  0  0  0  0  0  0  0
    5.7000   -1.9984  -13.4809 H   0  0  0  0  0  0  0  0  0  0  0  0
    4.3993   -0.9349  -12.9503 H   0  0  0  0  0  0  0  0  0  0  0  0
    7.1617   -1.2896  -11.7088 H   0  0  0  0  0  0  0  0  0  0  0  0
    5.5921   -1.6780  -11.0025 H   0  0  0  0  0  0  0  0  0  0  0  0
    8.7853    2.0618   -8.8013 H   0  0  0  0  0  0  0  0  0  0  0  0
    8.5620    3.7328   -7.0207 H   0  0  0  0  0  0  0  0  0  0  0  0
    6.0981    5.8812   -2.7530 H   0  0  0  0  0  0  0  0  0  0  0  0
    4.7745    7.8854   -2.1734 H   0  0  0  0  0  0  0  0  0  0  0  0
    2.5996    8.3114   -3.2857 H   0  0  0  0  0  0  0  0  0  0  0  0
    1.7479    6.7232   -4.9904 H   0  0  0  0  0  0  0  0  0  0  0  0
    3.0645    4.7182   -5.5910 H   0  0  0  0  0  0  0  0  0  0  0  0
  1  2  1  0  0  0  0
  1 35  1  0  0  0  0
  1 36  1  0  0  0  0
  1 37  1  0  0  0  0
  2  3  2  0  0  0  0
  2  4  1  0  0  0  0
  4  5  1  0  0  0  0
  4  9  2  0  0  0  0
  5  6  2  0  0  0  0
  5 38  1  0  0  0  0
  6  7  1  0  0  0  0
  6 39  1  0  0  0  0
  7  8  2  0  0  0  0
  7 13  1  0  0  0  0
  8  9  1  0  0  0  0
  8 10  1  0  0  0  0
  9 40  1  0  0  0  0
 10 11  1  0  0  0  0
 10 41  1  0  0  0  0
 11 12  2  0  0  0  0
 11 13  1  0  0  0  0
 13 14  2  0  0  0  0
 14 15  1  0  0  0  0
 14 29  1  0  0  0  0
 15 16  1  0  0  0  0
 15 42  1  0  0  0  0
 16 17  1  0  0  0  0
 16 28  2  0  0  0  0
 17 18  2  0  0  0  0
 17 43  1  0  0  0  0
 18 19  1  0  0  0  0
 18 44  1  0  0  0  0
 19 20  1  0  0  0  0
 19 27  2  0  0  0  0
 20 21  1  0  0  0  0
 20 45  1  0  0  0  0
 20 46  1  0  0  0  0
 21 22  1  0  0  0  0
 21 26  1  0  0  0  0
 22 23  1  0  0  0  0
 22 47  1  0  0  0  0
 22 48  1  0  0  0  0
 23 24  1  0  0  0  0
 23 49  1  0  0  0  0
 23 50  1  0  0  0  0
 24 25  1  0  0  0  0
 24 51  1  0  0  0  0
 24 52  1  0  0  0  0
 25 26  1  0  0  0  0
 25 53  1  0  0  0  0
 25 54  1  0  0  0  0
 26 55  1  0  0  0  0
 26 56  1  0  0  0  0
 27 28  1  0  0  0  0
 27 57  1  0  0  0  0
 28 58  1  0  0  0  0
 29 30  1  0  0  0  0
 29 34  2  0  0  0  0
 30 31  2  0  0  0  0
 30 59  1  0  0  0  0
 31 32  1  0  0  0  0
 31 60  1  0  0  0  0
 32 33  2  0  0  0  0
 32 61  1  0  0  0  0
 33 34  1  0  0  0  0
 33 62  1  0  0  0  0
 34 63  1  0  0  0  0
M  END
$$$$
