CHEMBL1738797
 OpenBabel04072215363D

 70 75  0  0  0  0  0  0  0  0999 V2000
    0.9288   -0.0125    0.0498 C   0  0  0  0  0  0  0  0  0  0  0  0
    2.4538   -0.1087    0.0587 C   0  0  0  0  0  0  0  0  0  0  0  0
    3.0021   -0.1200   -1.3503 C   0  0  0  0  0  0  0  0  0  0  0  0
    3.0687   -1.3813   -1.9909 C   0  0  0  0  0  0  0  0  0  0  0  0
    3.5247   -1.5166   -3.3119 C   0  0  0  0  0  0  0  0  0  0  0  0
    3.8382   -0.3692   -4.0552 C   0  0  0  0  0  0  0  0  0  0  0  0
    3.7289    0.8667   -3.4108 C   0  0  0  0  0  0  0  0  0  0  0  0
    3.4258    1.0280   -2.0468 C   0  0  0  0  0  0  0  0  0  0  0  0
    3.7080    2.2687   -1.4292 N   0  0  0  0  0  0  0  0  0  0  0  0
    4.7324    3.0749   -2.1270 C   0  0  0  0  0  0  0  0  0  0  0  0
    5.2912    4.1205   -1.1862 C   0  0  0  0  0  0  0  0  0  0  0  0
    4.1961    5.0817   -0.6932 C   0  0  0  0  0  0  0  0  0  0  0  0
    3.6569    6.0481   -1.6880 N   0  0  0  0  0  0  0  0  0  0  0  0
    4.6250    6.5942   -2.6705 C   0  0  0  0  0  0  0  0  0  0  0  0
    5.6245    7.6042   -2.0849 C   0  0  0  0  0  0  0  0  0  0  0  0
    4.9365    8.7138   -1.4980 O   0  0  0  0  0  0  0  0  0  0  0  0
    4.0451    8.2612   -0.4735 C   0  0  0  0  0  0  0  0  0  0  0  0
    3.0351    7.2244   -1.0115 C   0  0  0  0  0  0  0  0  0  0  0  0
    3.0494    4.2163   -0.1024 C   0  0  0  0  0  0  0  0  0  0  0  0
    2.5599    3.0941   -1.0319 C   0  0  0  0  0  0  0  0  0  0  0  0
    4.3292   -0.3961   -5.5115 C   0  0  0  0  0  0  0  0  0  0  0  0
    3.2955    0.3367   -6.3928 C   0  0  0  0  0  0  0  0  0  0  0  0
    5.7045    0.3068   -5.6203 C   0  0  0  0  0  0  0  0  0  0  0  0
    4.4659   -1.8173   -5.9757 C   0  0  0  0  0  0  0  0  0  0  0  0
    4.9088   -2.2106   -7.2085 N   0  0  0  0  0  0  0  0  0  0  0  0
    4.9021   -3.5841   -7.2908 C   0  0  0  0  0  0  0  0  0  0  0  0
    5.2614   -4.4243   -8.3519 C   0  0  0  0  0  0  0  0  0  0  0  0
    5.1490   -5.8041   -8.1431 C   0  0  0  0  0  0  0  0  0  0  0  0
    5.5033   -6.7019   -9.2025 C   0  0  0  0  0  0  0  0  0  0  0  0
    5.7825   -7.4198  -10.0654 N   0  0  0  0  0  0  0  0  0  0  0  0
    4.7031   -6.3221   -6.9265 C   0  0  0  0  0  0  0  0  0  0  0  0
    4.3483   -5.4648   -5.8798 C   0  0  0  0  0  0  0  0  0  0  0  0
    4.4430   -4.0718   -6.0644 C   0  0  0  0  0  0  0  0  0  0  0  0
    4.1650   -2.9508   -5.2458 C   0  0  0  0  0  0  0  0  0  0  0  0
    3.6612   -2.8893   -3.8837 C   0  0  0  0  0  0  0  0  0  0  0  0
    3.3710   -3.8809   -3.2338 O   0  0  0  0  0  0  0  0  0  0  0  0
    0.5422    0.0385    1.0721 H   0  0  0  0  0  0  0  0  0  0  0  0
    0.4772   -0.8819   -0.4407 H   0  0  0  0  0  0  0  0  0  0  0  0
    0.5726    0.8691   -0.4902 H   0  0  0  0  0  0  0  0  0  0  0  0
    2.7380   -1.0373    0.5723 H   0  0  0  0  0  0  0  0  0  0  0  0
    2.8970    0.6989    0.6494 H   0  0  0  0  0  0  0  0  0  0  0  0
    2.7912   -2.2792   -1.4362 H   0  0  0  0  0  0  0  0  0  0  0  0
    3.9398    1.7516   -4.0038 H   0  0  0  0  0  0  0  0  0  0  0  0
    4.3006    3.5642   -3.0105 H   0  0  0  0  0  0  0  0  0  0  0  0
    5.5701    2.4470   -2.4567 H   0  0  0  0  0  0  0  0  0  0  0  0
    6.1191    4.6511   -1.6668 H   0  0  0  0  0  0  0  0  0  0  0  0
    5.7332    3.6107   -0.3203 H   0  0  0  0  0  0  0  0  0  0  0  0
    4.6516    5.6429    0.1307 H   0  0  0  0  0  0  0  0  0  0  0  0
    4.0374    7.1137   -3.4407 H   0  0  0  0  0  0  0  0  0  0  0  0
    5.1507    5.8021   -3.2113 H   0  0  0  0  0  0  0  0  0  0  0  0
    6.2606    8.0003   -2.8835 H   0  0  0  0  0  0  0  0  0  0  0  0
    6.2800    7.1455   -1.3363 H   0  0  0  0  0  0  0  0  0  0  0  0
    3.5063    9.1371   -0.0983 H   0  0  0  0  0  0  0  0  0  0  0  0
    4.6361    7.8630    0.3587 H   0  0  0  0  0  0  0  0  0  0  0  0
    2.3948    7.7210   -1.7516 H   0  0  0  0  0  0  0  0  0  0  0  0
    2.3696    6.9153   -0.2000 H   0  0  0  0  0  0  0  0  0  0  0  0
    2.1913    4.8271    0.1951 H   0  0  0  0  0  0  0  0  0  0  0  0
    3.4214    3.7546    0.8225 H   0  0  0  0  0  0  0  0  0  0  0  0
    2.0535    3.5034   -1.9148 H   0  0  0  0  0  0  0  0  0  0  0  0
    1.8237    2.5185   -0.4724 H   0  0  0  0  0  0  0  0  0  0  0  0
    3.1596    1.3810   -6.0881 H   0  0  0  0  0  0  0  0  0  0  0  0
    2.3128   -0.1472   -6.3342 H   0  0  0  0  0  0  0  0  0  0  0  0
    3.5991    0.3496   -7.4447 H   0  0  0  0  0  0  0  0  0  0  0  0
    5.6657    1.3579   -5.3087 H   0  0  0  0  0  0  0  0  0  0  0  0
    6.0798    0.3045   -6.6504 H   0  0  0  0  0  0  0  0  0  0  0  0
    6.4578   -0.1868   -4.9936 H   0  0  0  0  0  0  0  0  0  0  0  0
    5.2056   -1.5908   -7.9544 H   0  0  0  0  0  0  0  0  0  0  0  0
    5.6148   -4.0209   -9.2968 H   0  0  0  0  0  0  0  0  0  0  0  0
    4.6197   -7.3977   -6.7726 H   0  0  0  0  0  0  0  0  0  0  0  0
    4.0013   -5.8641   -4.9324 H   0  0  0  0  0  0  0  0  0  0  0  0
  1  2  1  0  0  0  0
  1 37  1  0  0  0  0
  1 38  1  0  0  0  0
  1 39  1  0  0  0  0
  2  3  1  0  0  0  0
  2 40  1  0  0  0  0
  2 41  1  0  0  0  0
  3  4  1  0  0  0  0
  3  8  2  0  0  0  0
  4  5  2  0  0  0  0
  4 42  1  0  0  0  0
  5  6  1  0  0  0  0
  5 35  1  0  0  0  0
  6  7  2  0  0  0  0
  6 21  1  0  0  0  0
  7  8  1  0  0  0  0
  7 43  1  0  0  0  0
  8  9  1  0  0  0  0
  9 10  1  0  0  0  0
  9 20  1  0  0  0  0
 10 11  1  0  0  0  0
 10 44  1  0  0  0  0
 10 45  1  0  0  0  0
 11 12  1  0  0  0  0
 11 46  1  0  0  0  0
 11 47  1  0  0  0  0
 12 13  1  0  0  0  0
 12 19  1  0  0  0  0
 12 48  1  0  0  0  0
 13 14  1  0  0  0  0
 13 18  1  0  0  0  0
 14 15  1  0  0  0  0
 14 49  1  0  0  0  0
 14 50  1  0  0  0  0
 15 16  1  0  0  0  0
 15 51  1  0  0  0  0
 15 52  1  0  0  0  0
 16 17  1  0  0  0  0
 17 18  1  0  0  0  0
 17 53  1  0  0  0  0
 17 54  1  0  0  0  0
 18 55  1  0  0  0  0
 18 56  1  0  0  0  0
 19 20  1  0  0  0  0
 19 57  1  0  0  0  0
 19 58  1  0  0  0  0
 20 59  1  0  0  0  0
 20 60  1  0  0  0  0
 21 22  1  0  0  0  0
 21 23  1  0  0  0  0
 21 24  1  0  0  0  0
 22 61  1  0  0  0  0
 22 62  1  0  0  0  0
 22 63  1  0  0  0  0
 23 64  1  0  0  0  0
 23 65  1  0  0  0  0
 23 66  1  0  0  0  0
 24 25  1  0  0  0  0
 24 34  2  0  0  0  0
 25 26  1  0  0  0  0
 25 67  1  0  0  0  0
 26 27  1  0  0  0  0
 26 33  2  0  0  0  0
 27 28  2  0  0  0  0
 27 68  1  0  0  0  0
 28 29  1  0  0  0  0
 28 31  1  0  0  0  0
 29 30  3  0  0  0  0
 31 32  2  0  0  0  0
 31 69  1  0  0  0  0
 32 33  1  0  0  0  0
 32 70  1  0  0  0  0
 33 34  1  0  0  0  0
 34 35  1  0  0  0  0
 35 36  2  0  0  0  0
M  END
$$$$
