CHEMBL3948737
 OpenBabel04072215373D

 55 58  0  0  0  0  0  0  0  0999 V2000
    2.7078    1.2478    0.7610 C   0  0  0  0  0  0  0  0  0  0  0  0
    2.4487   -0.0994    0.1031 C   0  0  0  0  0  0  0  0  0  0  0  0
    2.9282   -0.1899   -1.2822 N   0  0  0  0  0  0  0  0  0  0  0  0
    2.0232    0.1623   -2.3847 C   0  0  0  0  0  0  0  0  0  0  0  0
    0.5306   -0.0497   -2.1957 C   0  0  0  0  0  0  0  0  0  0  0  0
    4.3119   -0.4633   -1.4568 C   0  0  0  0  0  0  0  0  0  0  0  0
    5.0164   -0.6870   -0.4687 O   0  0  0  0  0  0  0  0  0  0  0  0
    4.8994   -0.5796   -2.7934 C   0  0  0  0  0  0  0  0  0  0  0  0
    5.8787   -1.4847   -3.1760 C   0  0  0  0  0  0  0  0  0  0  0  0
    6.1695   -1.4384   -4.5713 C   0  0  0  0  0  0  0  0  0  0  0  0
    7.0207   -2.2649   -5.2374 N   0  0  0  0  0  0  0  0  0  0  0  0
    7.0289   -2.1364   -6.5791 C   0  0  0  0  0  0  0  0  0  0  0  0
    6.2324   -1.2710   -7.3048 C   0  0  0  0  0  0  0  0  0  0  0  0
    5.4158   -0.3815   -6.6119 C   0  0  0  0  0  0  0  0  0  0  0  0
    4.5241    0.4659   -7.2204 O   0  0  0  0  0  0  0  0  0  0  0  0
    4.9094    1.2045   -8.3114 C   0  0  0  0  0  0  0  0  0  0  0  0
    3.8655    1.6376   -9.1262 C   0  0  0  0  0  0  0  0  0  0  0  0
    4.1342    2.4255  -10.2387 C   0  0  0  0  0  0  0  0  0  0  0  0
    5.4497    2.7876  -10.5231 C   0  0  0  0  0  0  0  0  0  0  0  0
    6.5053    2.3853   -9.6953 C   0  0  0  0  0  0  0  0  0  0  0  0
    7.8474    2.7297   -9.9364 N   0  0  0  0  0  0  0  0  0  0  0  0
    8.2830    3.7305  -10.7874 C   0  0  0  0  0  0  0  0  0  0  0  0
    7.5281    4.5079  -11.3655 O   0  0  0  0  0  0  0  0  0  0  0  0
    9.7185    3.8220  -10.9414 C   0  0  0  0  0  0  0  0  0  0  0  0
   10.5508    2.9393  -10.2981 O   0  0  0  0  0  0  0  0  0  0  0  0
   11.8188    3.2620  -10.6600 C   0  0  0  0  0  0  0  0  0  0  0  0
   11.8215    4.3363  -11.5215 C   0  0  0  0  0  0  0  0  0  0  0  0
   10.4660    4.7077  -11.6994 C   0  0  0  0  0  0  0  0  0  0  0  0
    9.9193    5.8113  -12.5353 C   0  0  0  0  0  0  0  0  0  0  0  0
    6.2254    1.5927   -8.5817 C   0  0  0  0  0  0  0  0  0  0  0  0
    5.4125   -0.4655   -5.2138 C   0  0  0  0  0  0  0  0  0  0  0  0
    4.6041    0.5209   -4.0690 S   0  0  0  0  0  0  0  0  0  0  0  0
    2.3640    1.2235    1.8015 H   0  0  0  0  0  0  0  0  0  0  0  0
    2.1763    2.0537    0.2468 H   0  0  0  0  0  0  0  0  0  0  0  0
    3.7743    1.4939    0.7696 H   0  0  0  0  0  0  0  0  0  0  0  0
    1.3843   -0.3421    0.1493 H   0  0  0  0  0  0  0  0  0  0  0  0
    2.9505   -0.8744    0.6947 H   0  0  0  0  0  0  0  0  0  0  0  0
    2.2922   -0.4514   -3.2474 H   0  0  0  0  0  0  0  0  0  0  0  0
    2.1998    1.2171   -2.6234 H   0  0  0  0  0  0  0  0  0  0  0  0
    0.3103   -1.0824   -1.9105 H   0  0  0  0  0  0  0  0  0  0  0  0
    0.0173    0.1533   -3.1434 H   0  0  0  0  0  0  0  0  0  0  0  0
    0.1133    0.6279   -1.4465 H   0  0  0  0  0  0  0  0  0  0  0  0
    6.3143   -2.2071   -2.4967 H   0  0  0  0  0  0  0  0  0  0  0  0
    7.7216   -2.7991   -7.0936 H   0  0  0  0  0  0  0  0  0  0  0  0
    6.2620   -1.2856   -8.3891 H   0  0  0  0  0  0  0  0  0  0  0  0
    2.8373    1.3628   -8.8965 H   0  0  0  0  0  0  0  0  0  0  0  0
    3.3281    2.7643  -10.8824 H   0  0  0  0  0  0  0  0  0  0  0  0
    5.6174    3.3826  -11.4155 H   0  0  0  0  0  0  0  0  0  0  0  0
    8.5746    2.2642   -9.3998 H   0  0  0  0  0  0  0  0  0  0  0  0
   12.6011    2.6481  -10.2362 H   0  0  0  0  0  0  0  0  0  0  0  0
   12.6928    4.7945  -11.9670 H   0  0  0  0  0  0  0  0  0  0  0  0
   10.7170    6.3883  -13.0102 H   0  0  0  0  0  0  0  0  0  0  0  0
    9.3260    6.4973  -11.9198 H   0  0  0  0  0  0  0  0  0  0  0  0
    9.2733    5.4086  -13.3215 H   0  0  0  0  0  0  0  0  0  0  0  0
    7.0287    1.3125   -7.9079 H   0  0  0  0  0  0  0  0  0  0  0  0
  1  2  1  0  0  0  0
  1 33  1  0  0  0  0
  1 34  1  0  0  0  0
  1 35  1  0  0  0  0
  2  3  1  0  0  0  0
  2 36  1  0  0  0  0
  2 37  1  0  0  0  0
  3  4  1  0  0  0  0
  3  6  1  0  0  0  0
  4  5  1  0  0  0  0
  4 38  1  0  0  0  0
  4 39  1  0  0  0  0
  5 40  1  0  0  0  0
  5 41  1  0  0  0  0
  5 42  1  0  0  0  0
  6  7  2  0  0  0  0
  6  8  1  0  0  0  0
  8  9  2  0  0  0  0
  8 32  1  0  0  0  0
  9 10  1  0  0  0  0
  9 43  1  0  0  0  0
 10 11  1  0  0  0  0
 10 31  2  0  0  0  0
 11 12  2  0  0  0  0
 12 13  1  0  0  0  0
 12 44  1  0  0  0  0
 13 14  2  0  0  0  0
 13 45  1  0  0  0  0
 14 15  1  0  0  0  0
 14 31  1  0  0  0  0
 15 16  1  0  0  0  0
 16 17  1  0  0  0  0
 16 30  2  0  0  0  0
 17 18  2  0  0  0  0
 17 46  1  0  0  0  0
 18 19  1  0  0  0  0
 18 47  1  0  0  0  0
 19 20  2  0  0  0  0
 19 48  1  0  0  0  0
 20 21  1  0  0  0  0
 20 30  1  0  0  0  0
 21 22  1  0  0  0  0
 21 49  1  0  0  0  0
 22 23  2  0  0  0  0
 22 24  1  0  0  0  0
 24 25  1  0  0  0  0
 24 28  2  0  0  0  0
 25 26  1  0  0  0  0
 26 27  2  0  0  0  0
 26 50  1  0  0  0  0
 27 28  1  0  0  0  0
 27 51  1  0  0  0  0
 28 29  1  0  0  0  0
 29 52  1  0  0  0  0
 29 53  1  0  0  0  0
 29 54  1  0  0  0  0
 30 55  1  0  0  0  0
 31 32  1  0  0  0  0
M  END
$$$$
