CHEMBL3690388
 OpenBabel04072215373D

 63 66  0  0  0  0  0  0  0  0999 V2000
    3.5883    2.3213    0.7841 N   0  0  0  0  0  0  0  0  0  0  0  0
    3.7031    1.1462    0.2415 C   0  0  0  0  0  0  0  0  0  0  0  0
    2.9982    0.8145   -1.0983 C   0  0  0  0  0  0  0  0  0  0  0  0
    2.1444    1.8775   -1.7229 C   0  0  0  0  0  0  0  0  0  0  0  0
    2.5663    3.0481   -2.2312 C   0  0  0  0  0  0  0  0  0  0  0  0
    3.8798    3.4678   -2.1886 N   0  0  0  0  0  0  0  0  0  0  0  0
    1.5764    3.9610   -2.8318 C   0  0  0  0  0  0  0  0  0  0  0  0
    0.4055    4.4254   -2.0771 C   0  0  0  0  0  0  0  0  0  0  0  0
   -0.5140    5.2054   -2.6654 C   0  0  0  0  0  0  0  0  0  0  0  0
   -0.3323    5.6302   -3.9853 N   0  0  0  0  0  0  0  0  0  0  0  0
   -1.0877    6.4850   -4.7955 C   0  0  0  0  0  0  0  0  0  0  0  0
   -2.2773    7.2685   -4.4093 C   0  0  0  0  0  0  0  0  0  0  0  0
   -2.4051    7.7601   -3.1051 C   0  0  0  0  0  0  0  0  0  0  0  0
   -3.5159    8.4957   -2.7171 C   0  0  0  0  0  0  0  0  0  0  0  0
   -4.4848    8.8294   -3.6527 C   0  0  0  0  0  0  0  0  0  0  0  0
   -4.3633    8.4437   -4.9904 C   0  0  0  0  0  0  0  0  0  0  0  0
   -5.2862    8.8723   -5.9864 N   0  0  0  0  0  0  0  0  0  0  0  0
   -6.3301    9.7516   -5.7919 C   0  0  0  0  0  0  0  0  0  0  0  0
   -6.6367   10.3089   -4.7408 O   0  0  0  0  0  0  0  0  0  0  0  0
   -7.1017    9.9527   -6.9117 N   0  0  0  0  0  0  0  0  0  0  0  0
   -8.2459   10.8755   -6.8008 C   0  0  0  0  0  0  0  0  0  0  0  0
   -7.9360   12.3773   -6.9129 C   0  0  0  0  0  0  0  0  0  0  0  0
   -6.6411   12.6143   -7.2204 F   0  0  0  0  0  0  0  0  0  0  0  0
   -8.6802   12.9256   -7.9082 F   0  0  0  0  0  0  0  0  0  0  0  0
   -8.2319   13.0520   -5.7816 F   0  0  0  0  0  0  0  0  0  0  0  0
   -3.2730    7.6256   -5.3515 C   0  0  0  0  0  0  0  0  0  0  0  0
   -0.4028    6.4749   -6.0022 C   0  0  0  0  0  0  0  0  0  0  0  0
    0.7234    5.6980   -5.9620 N   0  0  0  0  0  0  0  0  0  0  0  0
    0.7664    5.2164   -4.7401 C   0  0  0  0  0  0  0  0  0  0  0  0
    1.7261    4.3626   -4.1159 C   0  0  0  0  0  0  0  0  0  0  0  0
    4.4615    0.1696    0.8646 N   0  0  0  0  0  0  0  0  0  0  0  0
    5.1205    0.4247    2.1591 C   0  0  0  0  0  0  0  0  0  0  0  0
    6.6530    0.3266    2.0105 C   0  0  0  0  0  0  0  0  0  0  0  0
    7.1001   -0.9628    1.4362 N   0  0  0  0  0  0  0  0  0  0  0  0
    6.4202   -1.1582    0.1394 C   0  0  0  0  0  0  0  0  0  0  0  0
    4.8796   -1.0907    0.2372 C   0  0  0  0  0  0  0  0  0  0  0  0
    2.9839    2.9304    0.2266 H   0  0  0  0  0  0  0  0  0  0  0  0
    2.3723   -0.0611   -0.9144 H   0  0  0  0  0  0  0  0  0  0  0  0
    3.7613    0.5108   -1.8250 H   0  0  0  0  0  0  0  0  0  0  0  0
    1.0922    1.6098   -1.8138 H   0  0  0  0  0  0  0  0  0  0  0  0
    4.4370    3.0123   -1.4665 H   0  0  0  0  0  0  0  0  0  0  0  0
    3.9772    4.4788   -2.1387 H   0  0  0  0  0  0  0  0  0  0  0  0
    0.2990    4.1169   -1.0415 H   0  0  0  0  0  0  0  0  0  0  0  0
   -1.3989    5.5179   -2.1325 H   0  0  0  0  0  0  0  0  0  0  0  0
   -1.6289    7.6098   -2.3616 H   0  0  0  0  0  0  0  0  0  0  0  0
   -3.6162    8.8392   -1.6916 H   0  0  0  0  0  0  0  0  0  0  0  0
   -5.3185    9.4201   -3.2917 H   0  0  0  0  0  0  0  0  0  0  0  0
   -5.1256    8.5440   -6.9271 H   0  0  0  0  0  0  0  0  0  0  0  0
   -6.6561    9.8646   -7.8136 H   0  0  0  0  0  0  0  0  0  0  0  0
   -8.7455   10.6959   -5.8408 H   0  0  0  0  0  0  0  0  0  0  0  0
   -8.9555   10.5853   -7.5823 H   0  0  0  0  0  0  0  0  0  0  0  0
   -3.1826    7.2781   -6.3782 H   0  0  0  0  0  0  0  0  0  0  0  0
   -0.6501    7.0275   -6.8994 H   0  0  0  0  0  0  0  0  0  0  0  0
    2.5696    4.0327   -4.7140 H   0  0  0  0  0  0  0  0  0  0  0  0
    4.7713   -0.3230    2.8821 H   0  0  0  0  0  0  0  0  0  0  0  0
    4.8664    1.4029    2.5808 H   0  0  0  0  0  0  0  0  0  0  0  0
    7.1211    0.4498    2.9931 H   0  0  0  0  0  0  0  0  0  0  0  0
    7.0198    1.1451    1.3787 H   0  0  0  0  0  0  0  0  0  0  0  0
    6.8023   -1.7070    2.0678 H   0  0  0  0  0  0  0  0  0  0  0  0
    6.7135   -2.1324   -0.2661 H   0  0  0  0  0  0  0  0  0  0  0  0
    6.7793   -0.4001   -0.5681 H   0  0  0  0  0  0  0  0  0  0  0  0
    4.5077   -1.9273    0.8410 H   0  0  0  0  0  0  0  0  0  0  0  0
    4.4643   -1.2250   -0.7647 H   0  0  0  0  0  0  0  0  0  0  0  0
  1  2  2  0  0  0  0
  1 37  1  0  0  0  0
  2  3  1  0  0  0  0
  2 31  1  0  0  0  0
  3  4  1  0  0  0  0
  3 38  1  0  0  0  0
  3 39  1  0  0  0  0
  4  5  2  0  0  0  0
  4 40  1  0  0  0  0
  5  6  1  0  0  0  0
  5  7  1  0  0  0  0
  6 41  1  0  0  0  0
  6 42  1  0  0  0  0
  7  8  1  0  0  0  0
  7 30  2  0  0  0  0
  8  9  2  0  0  0  0
  8 43  1  0  0  0  0
  9 10  1  0  0  0  0
  9 44  1  0  0  0  0
 10 11  1  0  0  0  0
 10 29  1  0  0  0  0
 11 12  1  0  0  0  0
 11 27  2  0  0  0  0
 12 13  1  0  0  0  0
 12 26  2  0  0  0  0
 13 14  2  0  0  0  0
 13 45  1  0  0  0  0
 14 15  1  0  0  0  0
 14 46  1  0  0  0  0
 15 16  2  0  0  0  0
 15 47  1  0  0  0  0
 16 17  1  0  0  0  0
 16 26  1  0  0  0  0
 17 18  1  0  0  0  0
 17 48  1  0  0  0  0
 18 19  2  0  0  0  0
 18 20  1  0  0  0  0
 20 21  1  0  0  0  0
 20 49  1  0  0  0  0
 21 22  1  0  0  0  0
 21 50  1  0  0  0  0
 21 51  1  0  0  0  0
 22 23  1  0  0  0  0
 22 24  1  0  0  0  0
 22 25  1  0  0  0  0
 26 52  1  0  0  0  0
 27 28  1  0  0  0  0
 27 53  1  0  0  0  0
 28 29  2  0  0  0  0
 29 30  1  0  0  0  0
 30 54  1  0  0  0  0
 31 32  1  0  0  0  0
 31 36  1  0  0  0  0
 32 33  1  0  0  0  0
 32 55  1  0  0  0  0
 32 56  1  0  0  0  0
 33 34  1  0  0  0  0
 33 57  1  0  0  0  0
 33 58  1  0  0  0  0
 34 35  1  0  0  0  0
 34 59  1  0  0  0  0
 35 36  1  0  0  0  0
 35 60  1  0  0  0  0
 35 61  1  0  0  0  0
 36 62  1  0  0  0  0
 36 63  1  0  0  0  0
M  END
$$$$
