CHEMBL1095358
 OpenBabel04072215363D

 81 87  0  0  1  0  0  0  0  0999 V2000
    5.1903   -3.1662    3.4238 C   0  0  0  0  0  0  0  0  0  0  0  0
    3.8145   -3.6665    3.4652 N   0  0  0  0  0  0  0  0  0  0  0  0
    3.4632   -4.0238    4.8419 C   0  0  0  0  0  0  0  0  0  0  0  0
    3.6200   -4.7950    2.5347 C   0  0  1  0  0  0  0  0  0  0  0  0
    2.1893   -5.3618    2.5720 C   0  0  0  0  0  0  0  0  0  0  0  0
    2.0852   -6.0796    1.2422 C   0  0  0  0  0  0  0  0  0  0  0  0
    2.7016   -5.1255    0.3372 N   0  0  0  0  0  0  0  0  0  0  0  0
    2.4421   -4.8150   -0.9873 C   0  0  0  0  0  0  0  0  0  0  0  0
    3.1764   -4.0685   -1.6327 O   0  0  0  0  0  0  0  0  0  0  0  0
    1.2710   -5.4028   -1.6874 C   0  0  0  0  0  0  0  0  0  0  0  0
    0.0461   -5.6267   -1.0610 C   0  0  0  0  0  0  0  0  0  0  0  0
   -0.9679   -6.3210   -1.7196 C   0  0  0  0  0  0  0  0  0  0  0  0
   -0.8264   -6.6888   -3.0627 C   0  0  0  0  0  0  0  0  0  0  0  0
   -1.9041   -7.4329   -3.7241 C   0  0  0  0  0  0  0  0  0  0  0  0
   -3.2553   -7.4411   -3.4333 C   0  0  0  0  0  0  0  0  0  0  0  0
   -4.0004   -8.3193   -4.2656 C   0  0  0  0  0  0  0  0  0  0  0  0
   -5.3446   -8.5076   -4.1935 N   0  0  0  0  0  0  0  0  0  0  0  0
   -5.8479   -9.4161   -5.0464 C   0  0  0  0  0  0  0  0  0  0  0  0
   -5.1109  -10.1410   -5.9643 C   0  0  0  0  0  0  0  0  0  0  0  0
   -3.7420   -9.8929   -6.0835 C   0  0  0  0  0  0  0  0  0  0  0  0
   -2.9027  -10.5214   -6.9766 O   0  0  0  0  0  0  0  0  0  0  0  0
   -3.3746  -10.8590   -8.2187 C   0  0  0  0  0  0  0  0  0  0  0  0
   -4.3436  -10.1285   -8.8994 C   0  0  0  0  0  0  0  0  0  0  0  0
   -4.8844  -10.6255  -10.0822 C   0  0  0  0  0  0  0  0  0  0  0  0
   -4.4139  -11.8169  -10.6399 C   0  0  0  0  0  0  0  0  0  0  0  0
   -4.9977  -12.4110  -11.7760 N   0  0  0  0  0  0  0  0  0  0  0  0
   -6.1104  -11.9532  -12.4558 C   0  0  0  0  0  0  0  0  0  0  0  0
   -6.6772  -10.8777  -12.2905 O   0  0  0  0  0  0  0  0  0  0  0  0
   -6.6325  -12.8957  -13.4208 C   0  0  0  0  0  0  0  0  0  0  0  0
   -5.9438  -13.7440  -14.2966 C   0  0  0  0  0  0  0  0  0  0  0  0
   -6.7670  -14.5275  -14.9856 N   0  0  0  0  0  0  0  0  0  0  0  0
   -8.0173  -14.0900  -14.6810 N   0  0  0  0  0  0  0  0  0  0  0  0
   -9.1209  -14.6328  -15.3996 C   0  0  0  0  0  0  0  0  0  0  0  0
   -8.9955  -15.9186  -15.9532 C   0  0  0  0  0  0  0  0  0  0  0  0
  -10.0667  -16.5043  -16.6254 C   0  0  0  0  0  0  0  0  0  0  0  0
  -11.2627  -15.8080  -16.7720 C   0  0  0  0  0  0  0  0  0  0  0  0
  -11.3808  -14.5149  -16.2674 C   0  0  0  0  0  0  0  0  0  0  0  0
  -10.3101  -13.9224  -15.5908 C   0  0  0  0  0  0  0  0  0  0  0  0
   -7.9779  -13.1705  -13.6526 C   0  0  0  0  0  0  0  0  0  0  0  0
   -9.1663  -12.7366  -12.8977 C   0  0  0  0  0  0  0  0  0  0  0  0
   -8.8596  -12.2124  -11.6844 F   0  0  0  0  0  0  0  0  0  0  0  0
   -9.8879  -11.7955  -13.5525 F   0  0  0  0  0  0  0  0  0  0  0  0
  -10.0004  -13.7752  -12.6348 F   0  0  0  0  0  0  0  0  0  0  0  0
   -3.3447  -12.4754  -10.0254 C   0  0  0  0  0  0  0  0  0  0  0  0
   -2.8326  -11.9906   -8.8226 C   0  0  0  0  0  0  0  0  0  0  0  0
   -1.8257  -12.6537   -8.2342 F   0  0  0  0  0  0  0  0  0  0  0  0
   -3.1874   -8.9807   -5.1792 C   0  0  0  0  0  0  0  0  0  0  0  0
   -1.5503   -8.5127   -5.0040 S   0  0  0  0  0  0  0  0  0  0  0  0
    0.3488   -6.3169   -3.7336 C   0  0  0  0  0  0  0  0  0  0  0  0
    1.3960   -5.6962   -3.0480 C   0  0  0  0  0  0  0  0  0  0  0  0
    3.8004   -4.4592    1.0284 C   0  0  0  0  0  0  0  0  0  0  0  0
    5.2844   -2.2704    4.0481 H   0  0  0  0  0  0  0  0  0  0  0  0
    5.4803   -2.8643    2.4125 H   0  0  0  0  0  0  0  0  0  0  0  0
    5.9091   -3.9125    3.7809 H   0  0  0  0  0  0  0  0  0  0  0  0
    3.6430   -3.1821    5.5195 H   0  0  0  0  0  0  0  0  0  0  0  0
    4.0367   -4.8860    5.2008 H   0  0  0  0  0  0  0  0  0  0  0  0
    2.3962   -4.2545    4.9321 H   0  0  0  0  0  0  0  0  0  0  0  0
    4.3131   -5.6098    2.7911 H   0  0  0  0  0  0  0  0  0  0  0  0
    1.4537   -4.5448    2.6085 H   0  0  0  0  0  0  0  0  0  0  0  0
    2.0084   -6.0299    3.4165 H   0  0  0  0  0  0  0  0  0  0  0  0
    1.0657   -6.3707    1.0201 H   0  0  0  0  0  0  0  0  0  0  0  0
    2.6958   -6.9888    1.2331 H   0  0  0  0  0  0  0  0  0  0  0  0
   -0.1468   -5.2682   -0.0562 H   0  0  0  0  0  0  0  0  0  0  0  0
   -1.8651   -6.5764   -1.1613 H   0  0  0  0  0  0  0  0  0  0  0  0
   -3.7122   -6.8447   -2.6547 H   0  0  0  0  0  0  0  0  0  0  0  0
   -6.9243   -9.5566   -4.9750 H   0  0  0  0  0  0  0  0  0  0  0  0
   -5.6158  -10.8687   -6.5898 H   0  0  0  0  0  0  0  0  0  0  0  0
   -4.7322   -9.1937   -8.5048 H   0  0  0  0  0  0  0  0  0  0  0  0
   -5.6997  -10.0590  -10.5185 H   0  0  0  0  0  0  0  0  0  0  0  0
   -4.6411  -13.3285  -12.0275 H   0  0  0  0  0  0  0  0  0  0  0  0
   -4.8758  -13.8375  -14.4537 H   0  0  0  0  0  0  0  0  0  0  0  0
   -8.0715  -16.4873  -15.8428 H   0  0  0  0  0  0  0  0  0  0  0  0
   -9.9680  -17.5094  -17.0317 H   0  0  0  0  0  0  0  0  0  0  0  0
  -12.1005  -16.2662  -17.2936 H   0  0  0  0  0  0  0  0  0  0  0  0
  -12.3045  -13.9585  -16.4096 H   0  0  0  0  0  0  0  0  0  0  0  0
  -10.4326  -12.8910  -15.2869 H   0  0  0  0  0  0  0  0  0  0  0  0
   -2.9101  -13.3803  -10.4378 H   0  0  0  0  0  0  0  0  0  0  0  0
    0.4757   -6.5128   -4.7960 H   0  0  0  0  0  0  0  0  0  0  0  0
    2.3091   -5.4417   -3.5834 H   0  0  0  0  0  0  0  0  0  0  0  0
    3.7742   -3.3871    0.8082 H   0  0  0  0  0  0  0  0  0  0  0  0
    4.7465   -4.8697    0.6534 H   0  0  0  0  0  0  0  0  0  0  0  0
  1  2  1  0  0  0  0
  1 52  1  0  0  0  0
  1 53  1  0  0  0  0
  1 54  1  0  0  0  0
  2  3  1  0  0  0  0
  3 55  1  0  0  0  0
  3 56  1  0  0  0  0
  3 57  1  0  0  0  0
  4  5  1  0  0  0  0
  4 51  1  0  0  0  0
  4  2  1  0  0  0  0
  4 58  1  1  0  0  0
  5  6  1  0  0  0  0
  5 59  1  0  0  0  0
  5 60  1  0  0  0  0
  6  7  1  0  0  0  0
  6 61  1  0  0  0  0
  6 62  1  0  0  0  0
  7  8  1  0  0  0  0
  7 51  1  0  0  0  0
  8  9  2  0  0  0  0
  8 10  1  0  0  0  0
 10 11  1  0  0  0  0
 10 50  2  0  0  0  0
 11 12  2  0  0  0  0
 11 63  1  0  0  0  0
 12 13  1  0  0  0  0
 12 64  1  0  0  0  0
 13 14  1  0  0  0  0
 13 49  2  0  0  0  0
 14 15  2  0  0  0  0
 14 48  1  0  0  0  0
 15 16  1  0  0  0  0
 15 65  1  0  0  0  0
 16 17  1  0  0  0  0
 16 47  2  0  0  0  0
 17 18  2  0  0  0  0
 18 19  1  0  0  0  0
 18 66  1  0  0  0  0
 19 20  2  0  0  0  0
 19 67  1  0  0  0  0
 20 21  1  0  0  0  0
 20 47  1  0  0  0  0
 21 22  1  0  0  0  0
 22 23  1  0  0  0  0
 22 45  2  0  0  0  0
 23 24  2  0  0  0  0
 23 68  1  0  0  0  0
 24 25  1  0  0  0  0
 24 69  1  0  0  0  0
 25 26  1  0  0  0  0
 25 44  2  0  0  0  0
 26 27  1  0  0  0  0
 26 70  1  0  0  0  0
 27 28  2  0  0  0  0
 27 29  1  0  0  0  0
 29 30  1  0  0  0  0
 29 39  2  0  0  0  0
 30 31  2  0  0  0  0
 30 71  1  0  0  0  0
 31 32  1  0  0  0  0
 32 33  1  0  0  0  0
 32 39  1  0  0  0  0
 33 34  1  0  0  0  0
 33 38  2  0  0  0  0
 34 35  2  0  0  0  0
 34 72  1  0  0  0  0
 35 36  1  0  0  0  0
 35 73  1  0  0  0  0
 36 37  2  0  0  0  0
 36 74  1  0  0  0  0
 37 38  1  0  0  0  0
 37 75  1  0  0  0  0
 38 76  1  0  0  0  0
 39 40  1  0  0  0  0
 40 41  1  0  0  0  0
 40 42  1  0  0  0  0
 40 43  1  0  0  0  0
 44 45  1  0  0  0  0
 44 77  1  0  0  0  0
 45 46  1  0  0  0  0
 47 48  1  0  0  0  0
 49 50  1  0  0  0  0
 49 78  1  0  0  0  0
 50 79  1  0  0  0  0
 51 80  1  0  0  0  0
 51 81  1  0  0  0  0
M  END
$$$$
