CHEMBL170137
 OpenBabel04072215363D

 59 63  0  0  0  0  0  0  0  0999 V2000
    1.5308    0.0872   -1.7846 C   0  0  0  0  0  0  0  0  0  0  0  0
    2.8887    0.0224   -1.3248 N   0  0  0  0  0  0  0  0  0  0  0  0
    3.3951   -1.1535   -0.8262 C   0  0  0  0  0  0  0  0  0  0  0  0
    2.7160   -2.1675   -0.7186 O   0  0  0  0  0  0  0  0  0  0  0  0
    4.7242   -1.0862   -0.4669 N   0  0  0  0  0  0  0  0  0  0  0  0
    5.5616    0.1143   -0.5002 C   0  0  0  0  0  0  0  0  0  0  0  0
    6.8749   -0.1878   -1.2377 C   0  0  0  0  0  0  0  0  0  0  0  0
    7.6529   -1.2851   -0.6171 N   0  0  0  0  0  0  0  0  0  0  0  0
    8.1218   -1.0038    0.7575 C   0  0  0  0  0  0  0  0  0  0  0  0
    9.0353    0.1943    0.9320 C   0  0  0  0  0  0  0  0  0  0  0  0
    8.5075    1.4715    1.1838 C   0  0  0  0  0  0  0  0  0  0  0  0
    9.3416    2.5822    1.3037 C   0  0  0  0  0  0  0  0  0  0  0  0
   10.7252    2.4228    1.2565 C   0  0  0  0  0  0  0  0  0  0  0  0
   11.5991    3.5956    1.3734 C   0  0  0  0  0  0  0  0  0  0  0  0
   12.0851    4.3107    0.1991 C   0  0  0  0  0  0  0  0  0  0  0  0
   12.9236    5.3399    0.3609 C   0  0  0  0  0  0  0  0  0  0  0  0
   13.2831    5.7560    1.6482 N   0  0  0  0  0  0  0  0  0  0  0  0
   14.1060    6.7828    2.0868 C   0  0  0  0  0  0  0  0  0  0  0  0
   14.7887    7.7914    1.2776 C   0  0  0  0  0  0  0  0  0  0  0  0
   14.2776    8.2455    0.0543 C   0  0  0  0  0  0  0  0  0  0  0  0
   14.8895    9.2923   -0.6370 C   0  0  0  0  0  0  0  0  0  0  0  0
   16.0032    9.9106   -0.0998 C   0  0  0  0  0  0  0  0  0  0  0  0
   16.5425    9.4661    1.1047 C   0  0  0  0  0  0  0  0  0  0  0  0
   15.9454    8.4017    1.7798 C   0  0  0  0  0  0  0  0  0  0  0  0
   14.0966    6.6552    3.4680 C   0  0  0  0  0  0  0  0  0  0  0  0
   13.3063    5.6259    3.8918 N   0  0  0  0  0  0  0  0  0  0  0  0
   12.8252    5.0990    2.7917 C   0  0  0  0  0  0  0  0  0  0  0  0
   11.9583    3.9878    2.6104 C   0  0  0  0  0  0  0  0  0  0  0  0
   11.2678    1.1444    1.0864 C   0  0  0  0  0  0  0  0  0  0  0  0
   10.4278    0.0423    0.9026 C   0  0  0  0  0  0  0  0  0  0  0  0
    6.7688   -2.4894   -0.6046 C   0  0  0  0  0  0  0  0  0  0  0  0
    5.3895   -2.2781    0.0702 C   0  0  0  0  0  0  0  0  0  0  0  0
    1.4163    1.0078   -2.3638 H   0  0  0  0  0  0  0  0  0  0  0  0
    0.8623    0.1011   -0.9220 H   0  0  0  0  0  0  0  0  0  0  0  0
    1.3185   -0.7787   -2.4155 H   0  0  0  0  0  0  0  0  0  0  0  0
    3.5364    0.5479   -1.8806 H   0  0  0  0  0  0  0  0  0  0  0  0
    5.7318    0.4104    0.5384 H   0  0  0  0  0  0  0  0  0  0  0  0
    5.0733    0.9686   -0.9707 H   0  0  0  0  0  0  0  0  0  0  0  0
    7.4777    0.7179   -1.3565 H   0  0  0  0  0  0  0  0  0  0  0  0
    6.6253   -0.4901   -2.2671 H   0  0  0  0  0  0  0  0  0  0  0  0
    8.6813   -1.8861    1.0958 H   0  0  0  0  0  0  0  0  0  0  0  0
    7.2973   -0.8985    1.4719 H   0  0  0  0  0  0  0  0  0  0  0  0
    7.4389    1.6237    1.2946 H   0  0  0  0  0  0  0  0  0  0  0  0
    8.9037    3.5687    1.4413 H   0  0  0  0  0  0  0  0  0  0  0  0
   11.7819    3.9824   -0.7892 H   0  0  0  0  0  0  0  0  0  0  0  0
   13.3395    5.8535   -0.4918 H   0  0  0  0  0  0  0  0  0  0  0  0
   13.3681    7.8496   -0.3672 H   0  0  0  0  0  0  0  0  0  0  0  0
   14.4595    9.6345   -1.5774 H   0  0  0  0  0  0  0  0  0  0  0  0
   16.4752   10.7551   -0.6189 H   0  0  0  0  0  0  0  0  0  0  0  0
   17.4101    9.9611    1.5300 H   0  0  0  0  0  0  0  0  0  0  0  0
   16.3835    8.0788    2.7199 H   0  0  0  0  0  0  0  0  0  0  0  0
   14.6149    7.2800    4.1833 H   0  0  0  0  0  0  0  0  0  0  0  0
   11.6262    3.4691    3.5050 H   0  0  0  0  0  0  0  0  0  0  0  0
   12.3466    1.0002    1.0918 H   0  0  0  0  0  0  0  0  0  0  0  0
   10.8693   -0.9413    0.7536 H   0  0  0  0  0  0  0  0  0  0  0  0
    7.2900   -3.3364   -0.1439 H   0  0  0  0  0  0  0  0  0  0  0  0
    6.5912   -2.7833   -1.6484 H   0  0  0  0  0  0  0  0  0  0  0  0
    5.5029   -2.1296    1.1514 H   0  0  0  0  0  0  0  0  0  0  0  0
    4.7734   -3.1703   -0.0650 H   0  0  0  0  0  0  0  0  0  0  0  0
  1  2  1  0  0  0  0
  1 33  1  0  0  0  0
  1 34  1  0  0  0  0
  1 35  1  0  0  0  0
  2  3  1  0  0  0  0
  2 36  1  0  0  0  0
  3  4  2  0  0  0  0
  3  5  1  0  0  0  0
  5  6  1  0  0  0  0
  5 32  1  0  0  0  0
  6  7  1  0  0  0  0
  6 37  1  0  0  0  0
  6 38  1  0  0  0  0
  7  8  1  0  0  0  0
  7 39  1  0  0  0  0
  7 40  1  0  0  0  0
  8  9  1  0  0  0  0
  8 31  1  0  0  0  0
  9 10  1  0  0  0  0
  9 41  1  0  0  0  0
  9 42  1  0  0  0  0
 10 11  1  0  0  0  0
 10 30  2  0  0  0  0
 11 12  2  0  0  0  0
 11 43  1  0  0  0  0
 12 13  1  0  0  0  0
 12 44  1  0  0  0  0
 13 14  1  0  0  0  0
 13 29  2  0  0  0  0
 14 15  1  0  0  0  0
 14 28  2  0  0  0  0
 15 16  2  0  0  0  0
 15 45  1  0  0  0  0
 16 17  1  0  0  0  0
 16 46  1  0  0  0  0
 17 18  1  0  0  0  0
 17 27  1  0  0  0  0
 18 19  1  0  0  0  0
 18 25  2  0  0  0  0
 19 20  1  0  0  0  0
 19 24  2  0  0  0  0
 20 21  2  0  0  0  0
 20 47  1  0  0  0  0
 21 22  1  0  0  0  0
 21 48  1  0  0  0  0
 22 23  2  0  0  0  0
 22 49  1  0  0  0  0
 23 24  1  0  0  0  0
 23 50  1  0  0  0  0
 24 51  1  0  0  0  0
 25 26  1  0  0  0  0
 25 52  1  0  0  0  0
 26 27  2  0  0  0  0
 27 28  1  0  0  0  0
 28 53  1  0  0  0  0
 29 30  1  0  0  0  0
 29 54  1  0  0  0  0
 30 55  1  0  0  0  0
 31 32  1  0  0  0  0
 31 56  1  0  0  0  0
 31 57  1  0  0  0  0
 32 58  1  0  0  0  0
 32 59  1  0  0  0  0
M  END
$$$$
