CHEMBL223361
 OpenBabel04072215363D

 46 49  0  0  0  0  0  0  0  0999 V2000
   -1.1026    2.1147   -3.1751 N   0  0  0  0  0  0  0  0  0  0  0  0
   -1.3812    1.0037   -2.4796 C   0  0  0  0  0  0  0  0  0  0  0  0
   -1.7777   -0.0925   -3.1197 N   0  0  0  0  0  0  0  0  0  0  0  0
   -1.9711   -0.9794   -2.1433 N   0  0  0  0  0  0  0  0  0  0  0  0
   -1.7097   -0.5058   -0.8869 C   0  0  0  0  0  0  0  0  0  0  0  0
   -1.8043   -1.1505    0.3488 C   0  0  0  0  0  0  0  0  0  0  0  0
   -1.4482   -0.4194    1.4758 C   0  0  0  0  0  0  0  0  0  0  0  0
   -1.0192    0.9017    1.3603 C   0  0  0  0  0  0  0  0  0  0  0  0
   -0.9326    1.5680    0.1120 C   0  0  0  0  0  0  0  0  0  0  0  0
   -0.4627    2.9671    0.0499 C   0  0  0  0  0  0  0  0  0  0  0  0
    0.4597    3.3757   -0.9150 C   0  0  0  0  0  0  0  0  0  0  0  0
    0.8444    4.7118   -1.0429 C   0  0  0  0  0  0  0  0  0  0  0  0
    0.3873    5.6842   -0.1520 C   0  0  0  0  0  0  0  0  0  0  0  0
    0.7703    7.0430   -0.2408 N   0  0  0  0  0  0  0  0  0  0  0  0
    1.3882    7.6203   -1.3278 C   0  0  0  0  0  0  0  0  0  0  0  0
    1.5463    7.0657   -2.4164 O   0  0  0  0  0  0  0  0  0  0  0  0
    1.8624    8.8952   -1.0691 N   0  0  0  0  0  0  0  0  0  0  0  0
    2.5908    9.5749   -2.0813 C   0  0  0  0  0  0  0  0  0  0  0  0
    2.1384    9.6112   -3.4066 C   0  0  0  0  0  0  0  0  0  0  0  0
    2.9396   10.1471   -4.4262 C   0  0  0  0  0  0  0  0  0  0  0  0
    2.4643   10.1492   -5.8596 C   0  0  0  0  0  0  0  0  0  0  0  0
    1.2133    9.6387   -6.0279 F   0  0  0  0  0  0  0  0  0  0  0  0
    2.4229   11.4069   -6.3826 F   0  0  0  0  0  0  0  0  0  0  0  0
    3.2779    9.4315   -6.6818 F   0  0  0  0  0  0  0  0  0  0  0  0
    4.2053   10.6581   -4.0936 C   0  0  0  0  0  0  0  0  0  0  0  0
    4.6420   10.6645   -2.7654 C   0  0  0  0  0  0  0  0  0  0  0  0
    3.8242   10.1437   -1.7669 C   0  0  0  0  0  0  0  0  0  0  0  0
    4.2686   10.1142   -0.5012 F   0  0  0  0  0  0  0  0  0  0  0  0
   -0.4568    5.2856    0.8839 C   0  0  0  0  0  0  0  0  0  0  0  0
   -0.8858    3.9464    0.9710 C   0  0  0  0  0  0  0  0  0  0  0  0
   -1.2971    0.8207   -1.0542 C   0  0  0  0  0  0  0  0  0  0  0  0
   -1.3263    2.0988   -4.1636 H   0  0  0  0  0  0  0  0  0  0  0  0
   -1.1709    3.0330   -2.7544 H   0  0  0  0  0  0  0  0  0  0  0  0
   -2.2836   -1.9084   -2.3983 H   0  0  0  0  0  0  0  0  0  0  0  0
   -2.1314   -2.1822    0.4307 H   0  0  0  0  0  0  0  0  0  0  0  0
   -1.4956   -0.8870    2.4567 H   0  0  0  0  0  0  0  0  0  0  0  0
   -0.7243    1.4218    2.2707 H   0  0  0  0  0  0  0  0  0  0  0  0
    0.8845    2.6579   -1.6153 H   0  0  0  0  0  0  0  0  0  0  0  0
    1.5169    4.9452   -1.8608 H   0  0  0  0  0  0  0  0  0  0  0  0
    0.4099    7.6793    0.4580 H   0  0  0  0  0  0  0  0  0  0  0  0
    2.2239    9.0144   -0.1309 H   0  0  0  0  0  0  0  0  0  0  0  0
    1.1665    9.1862   -3.6579 H   0  0  0  0  0  0  0  0  0  0  0  0
    4.8586   11.0438   -4.8755 H   0  0  0  0  0  0  0  0  0  0  0  0
    5.6265   11.0437   -2.5093 H   0  0  0  0  0  0  0  0  0  0  0  0
   -0.8060    5.9948    1.6277 H   0  0  0  0  0  0  0  0  0  0  0  0
   -1.5677    3.6779    1.7762 H   0  0  0  0  0  0  0  0  0  0  0  0
  1  2  1  0  0  0  0
  1 32  1  0  0  0  0
  1 33  1  0  0  0  0
  2  3  2  0  0  0  0
  2 31  1  0  0  0  0
  3  4  1  0  0  0  0
  4  5  1  0  0  0  0
  4 34  1  0  0  0  0
  5  6  1  0  0  0  0
  5 31  2  0  0  0  0
  6  7  2  0  0  0  0
  6 35  1  0  0  0  0
  7  8  1  0  0  0  0
  7 36  1  0  0  0  0
  8  9  2  0  0  0  0
  8 37  1  0  0  0  0
  9 10  1  0  0  0  0
  9 31  1  0  0  0  0
 10 11  1  0  0  0  0
 10 30  2  0  0  0  0
 11 12  2  0  0  0  0
 11 38  1  0  0  0  0
 12 13  1  0  0  0  0
 12 39  1  0  0  0  0
 13 14  1  0  0  0  0
 13 29  2  0  0  0  0
 14 15  1  0  0  0  0
 14 40  1  0  0  0  0
 15 16  2  0  0  0  0
 15 17  1  0  0  0  0
 17 18  1  0  0  0  0
 17 41  1  0  0  0  0
 18 19  1  0  0  0  0
 18 27  2  0  0  0  0
 19 20  2  0  0  0  0
 19 42  1  0  0  0  0
 20 21  1  0  0  0  0
 20 25  1  0  0  0  0
 21 22  1  0  0  0  0
 21 23  1  0  0  0  0
 21 24  1  0  0  0  0
 25 26  2  0  0  0  0
 25 43  1  0  0  0  0
 26 27  1  0  0  0  0
 26 44  1  0  0  0  0
 27 28  1  0  0  0  0
 29 30  1  0  0  0  0
 29 45  1  0  0  0  0
 30 46  1  0  0  0  0
M  END
$$$$
