CHEMBL473288
 OpenBabel04072215383D

 36 38  0  0  0  0  0  0  0  0999 V2000
    1.2016   -0.5215   -0.6438 O   0  0  0  0  0  0  0  0  0  0  0  0
    2.1855   -0.1116   -0.0305 C   0  0  0  0  0  0  0  0  0  0  0  0
    2.6874    1.1818   -0.1255 N   0  0  0  0  0  0  0  0  0  0  0  0
    2.1180    2.2034   -0.9180 C   0  0  0  0  0  0  0  0  0  0  0  0
    0.7979    2.1316   -1.3874 C   0  0  0  0  0  0  0  0  0  0  0  0
    0.2803    3.0969   -2.2515 C   0  0  0  0  0  0  0  0  0  0  0  0
    1.0772    4.1656   -2.6344 C   0  0  0  0  0  0  0  0  0  0  0  0
    0.3974    5.4424   -3.8487 Br  0  0  0  0  0  0  0  0  0  0  0  0
    2.3701    4.2902   -2.1284 C   0  0  0  0  0  0  0  0  0  0  0  0
    2.8872    3.3141   -1.2614 C   0  0  0  0  0  0  0  0  0  0  0  0
    2.9499   -1.0324    0.8268 C   0  0  0  0  0  0  0  0  0  0  0  0
    3.9854   -0.6036    1.5648 N   0  0  0  0  0  0  0  0  0  0  0  0
    4.5746   -1.8835    2.4448 S   0  0  0  0  0  0  0  0  0  0  0  0
    3.4999   -3.0585    1.8222 C   0  0  0  0  0  0  0  0  0  0  0  0
    2.6619   -2.4535    0.9147 C   0  0  0  0  0  0  0  0  0  0  0  0
    1.6536   -3.0655    0.2271 N   0  0  0  0  0  0  0  0  0  0  0  0
    1.7224   -4.4197   -0.2936 C   0  0  0  0  0  0  0  0  0  0  0  0
    1.7440   -4.5084   -1.8089 C   0  0  0  0  0  0  0  0  0  0  0  0
    1.8227   -3.4105   -2.6724 C   0  0  0  0  0  0  0  0  0  0  0  0
    1.8391   -3.6292   -4.0449 C   0  0  0  0  0  0  0  0  0  0  0  0
    1.7921   -4.8512   -4.6156 N   0  0  0  0  0  0  0  0  0  0  0  0
    1.7222   -5.9021   -3.7763 C   0  0  0  0  0  0  0  0  0  0  0  0
    1.6948   -5.7831   -2.3940 C   0  0  0  0  0  0  0  0  0  0  0  0
    3.5998    1.3287    0.3074 H   0  0  0  0  0  0  0  0  0  0  0  0
    0.1259    1.3300   -1.0944 H   0  0  0  0  0  0  0  0  0  0  0  0
   -0.7365    2.9889   -2.6184 H   0  0  0  0  0  0  0  0  0  0  0  0
    2.9929    5.1308   -2.4229 H   0  0  0  0  0  0  0  0  0  0  0  0
    3.9076    3.4228   -0.9012 H   0  0  0  0  0  0  0  0  0  0  0  0
    3.5184   -4.0824    2.1639 H   0  0  0  0  0  0  0  0  0  0  0  0
    1.0119   -2.4647   -0.3031 H   0  0  0  0  0  0  0  0  0  0  0  0
    0.8298   -4.9490    0.0607 H   0  0  0  0  0  0  0  0  0  0  0  0
    2.5972   -4.9556    0.0913 H   0  0  0  0  0  0  0  0  0  0  0  0
    1.8706   -2.3893   -2.3130 H   0  0  0  0  0  0  0  0  0  0  0  0
    1.8937   -2.7970   -4.7420 H   0  0  0  0  0  0  0  0  0  0  0  0
    1.6870   -6.8763   -4.2557 H   0  0  0  0  0  0  0  0  0  0  0  0
    1.6370   -6.6789   -1.7840 H   0  0  0  0  0  0  0  0  0  0  0  0
  1  2  2  0  0  0  0
  2  3  1  0  0  0  0
  2 11  1  0  0  0  0
  3  4  1  0  0  0  0
  3 24  1  0  0  0  0
  4  5  1  0  0  0  0
  4 10  2  0  0  0  0
  5  6  2  0  0  0  0
  5 25  1  0  0  0  0
  6  7  1  0  0  0  0
  6 26  1  0  0  0  0
  7  8  1  0  0  0  0
  7  9  2  0  0  0  0
  9 10  1  0  0  0  0
  9 27  1  0  0  0  0
 10 28  1  0  0  0  0
 11 12  2  0  0  0  0
 11 15  1  0  0  0  0
 12 13  1  0  0  0  0
 13 14  1  0  0  0  0
 14 15  2  0  0  0  0
 14 29  1  0  0  0  0
 15 16  1  0  0  0  0
 16 17  1  0  0  0  0
 16 30  1  0  0  0  0
 17 18  1  0  0  0  0
 17 31  1  0  0  0  0
 17 32  1  0  0  0  0
 18 19  1  0  0  0  0
 18 23  2  0  0  0  0
 19 20  2  0  0  0  0
 19 33  1  0  0  0  0
 20 21  1  0  0  0  0
 20 34  1  0  0  0  0
 21 22  2  0  0  0  0
 22 23  1  0  0  0  0
 22 35  1  0  0  0  0
 23 36  1  0  0  0  0
M  END
$$$$
