CHEMBL3935912
 OpenBabel04072215373D

 60 63  0  0  0  0  0  0  0  0999 V2000
    2.1825    1.7404    0.8503 C   0  0  0  0  0  0  0  0  0  0  0  0
    3.4516    1.3990    0.3000 O   0  0  0  0  0  0  0  0  0  0  0  0
    3.5346    1.2636   -1.0601 C   0  0  0  0  0  0  0  0  0  0  0  0
    2.5616    1.6731   -1.9718 C   0  0  0  0  0  0  0  0  0  0  0  0
    2.7519    1.4871   -3.3405 C   0  0  0  0  0  0  0  0  0  0  0  0
    1.8242    1.8282   -4.3033 O   0  0  0  0  0  0  0  0  0  0  0  0
    0.6409    2.5079   -3.8381 C   0  0  0  0  0  0  0  0  0  0  0  0
   -0.2632    2.8669   -5.0154 C   0  0  0  0  0  0  0  0  0  0  0  0
   -0.7771    1.6957   -5.6361 O   0  0  0  0  0  0  0  0  0  0  0  0
    3.9546    0.9127   -3.7954 C   0  0  0  0  0  0  0  0  0  0  0  0
    4.9710    0.5063   -2.9024 C   0  0  0  0  0  0  0  0  0  0  0  0
    6.1267   -0.1490   -3.3968 N   0  0  0  0  0  0  0  0  0  0  0  0
    6.7432   -1.2198   -2.5311 C   0  0  0  0  0  0  0  0  0  0  0  0
    5.8660   -2.3964   -2.0850 C   0  0  0  0  0  0  0  0  0  0  0  0
    5.4625   -3.3893   -3.1693 C   0  0  0  0  0  0  0  0  0  0  0  0
    4.8632   -4.5348   -2.5541 O   0  0  0  0  0  0  0  0  0  0  0  0
    7.2164    0.4525   -4.1467 C   0  0  0  0  0  0  0  0  0  0  0  0
    7.8047   -0.4028   -5.0767 C   0  0  0  0  0  0  0  0  0  0  0  0
    9.1288   -0.2301   -5.4264 C   0  0  0  0  0  0  0  0  0  0  0  0
    9.8591    0.8578   -5.0037 C   0  0  0  0  0  0  0  0  0  0  0  0
   11.1593    0.7777   -5.2664 N   0  0  0  0  0  0  0  0  0  0  0  0
   11.8832    1.8841   -5.0536 C   0  0  0  0  0  0  0  0  0  0  0  0
   11.3124    3.0761   -4.6676 C   0  0  0  0  0  0  0  0  0  0  0  0
   12.1252    4.2642   -4.9148 C   0  0  0  0  0  0  0  0  0  0  0  0
   12.1373    5.1088   -6.0593 C   0  0  0  0  0  0  0  0  0  0  0  0
   13.2003    5.9225   -6.1013 N   0  0  0  0  0  0  0  0  0  0  0  0
   13.8868    5.5961   -4.9939 N   0  0  0  0  0  0  0  0  0  0  0  0
   14.9959    6.4123   -4.5563 C   0  0  0  0  0  0  0  0  0  0  0  0
   13.3660    4.5086   -4.3447 C   0  0  0  0  0  0  0  0  0  0  0  0
    9.9934    3.1271   -4.2664 N   0  0  0  0  0  0  0  0  0  0  0  0
    9.2305    1.9567   -4.3712 C   0  0  0  0  0  0  0  0  0  0  0  0
    7.8885    1.6835   -3.8803 C   0  0  0  0  0  0  0  0  0  0  0  0
    4.7202    0.6881   -1.5329 C   0  0  0  0  0  0  0  0  0  0  0  0
    2.3186    1.9006    1.9241 H   0  0  0  0  0  0  0  0  0  0  0  0
    1.4704    0.9187    0.7179 H   0  0  0  0  0  0  0  0  0  0  0  0
    1.7861    2.6746    0.4388 H   0  0  0  0  0  0  0  0  0  0  0  0
    1.6487    2.1180   -1.6060 H   0  0  0  0  0  0  0  0  0  0  0  0
    0.9255    3.4359   -3.3286 H   0  0  0  0  0  0  0  0  0  0  0  0
    0.0832    1.8475   -3.1627 H   0  0  0  0  0  0  0  0  0  0  0  0
    0.2714    3.4486   -5.7697 H   0  0  0  0  0  0  0  0  0  0  0  0
   -1.1230    3.4518   -4.6636 H   0  0  0  0  0  0  0  0  0  0  0  0
   -0.0075    1.1326   -5.8495 H   0  0  0  0  0  0  0  0  0  0  0  0
    4.0809    0.7361   -4.8615 H   0  0  0  0  0  0  0  0  0  0  0  0
    7.1831   -0.7478   -1.6447 H   0  0  0  0  0  0  0  0  0  0  0  0
    7.5926   -1.6958   -3.0412 H   0  0  0  0  0  0  0  0  0  0  0  0
    4.9779   -2.0761   -1.5344 H   0  0  0  0  0  0  0  0  0  0  0  0
    6.4595   -2.9633   -1.3517 H   0  0  0  0  0  0  0  0  0  0  0  0
    6.3202   -3.7458   -3.7500 H   0  0  0  0  0  0  0  0  0  0  0  0
    4.7286   -2.9602   -3.8563 H   0  0  0  0  0  0  0  0  0  0  0  0
    5.5288   -4.9439   -1.9711 H   0  0  0  0  0  0  0  0  0  0  0  0
    7.2874   -1.3002   -5.4010 H   0  0  0  0  0  0  0  0  0  0  0  0
    9.6221   -1.0020   -6.0100 H   0  0  0  0  0  0  0  0  0  0  0  0
   12.9413    1.7890   -5.2686 H   0  0  0  0  0  0  0  0  0  0  0  0
   11.4420    5.1331   -6.8893 H   0  0  0  0  0  0  0  0  0  0  0  0
   15.1331    7.2551   -5.2401 H   0  0  0  0  0  0  0  0  0  0  0  0
   15.9045    5.8064   -4.5192 H   0  0  0  0  0  0  0  0  0  0  0  0
   14.7483    6.7900   -3.5604 H   0  0  0  0  0  0  0  0  0  0  0  0
   13.9120    4.0253   -3.5468 H   0  0  0  0  0  0  0  0  0  0  0  0
    7.4173    2.4253   -3.2360 H   0  0  0  0  0  0  0  0  0  0  0  0
    5.4457    0.3722   -0.7910 H   0  0  0  0  0  0  0  0  0  0  0  0
  1  2  1  0  0  0  0
  1 34  1  0  0  0  0
  1 35  1  0  0  0  0
  1 36  1  0  0  0  0
  2  3  1  0  0  0  0
  3  4  1  0  0  0  0
  3 33  2  0  0  0  0
  4  5  2  0  0  0  0
  4 37  1  0  0  0  0
  5  6  1  0  0  0  0
  5 10  1  0  0  0  0
  6  7  1  0  0  0  0
  7  8  1  0  0  0  0
  7 38  1  0  0  0  0
  7 39  1  0  0  0  0
  8  9  1  0  0  0  0
  8 40  1  0  0  0  0
  8 41  1  0  0  0  0
  9 42  1  0  0  0  0
 10 11  2  0  0  0  0
 10 43  1  0  0  0  0
 11 12  1  0  0  0  0
 11 33  1  0  0  0  0
 12 13  1  0  0  0  0
 12 17  1  0  0  0  0
 13 14  1  0  0  0  0
 13 44  1  0  0  0  0
 13 45  1  0  0  0  0
 14 15  1  0  0  0  0
 14 46  1  0  0  0  0
 14 47  1  0  0  0  0
 15 16  1  0  0  0  0
 15 48  1  0  0  0  0
 15 49  1  0  0  0  0
 16 50  1  0  0  0  0
 17 18  1  0  0  0  0
 17 32  2  0  0  0  0
 18 19  2  0  0  0  0
 18 51  1  0  0  0  0
 19 20  1  0  0  0  0
 19 52  1  0  0  0  0
 20 21  1  0  0  0  0
 20 31  2  0  0  0  0
 21 22  2  0  0  0  0
 22 23  1  0  0  0  0
 22 53  1  0  0  0  0
 23 24  1  0  0  0  0
 23 30  2  0  0  0  0
 24 25  1  0  0  0  0
 24 29  2  0  0  0  0
 25 26  2  0  0  0  0
 25 54  1  0  0  0  0
 26 27  1  0  0  0  0
 27 28  1  0  0  0  0
 27 29  1  0  0  0  0
 28 55  1  0  0  0  0
 28 56  1  0  0  0  0
 28 57  1  0  0  0  0
 29 58  1  0  0  0  0
 30 31  1  0  0  0  0
 31 32  1  0  0  0  0
 32 59  1  0  0  0  0
 33 60  1  0  0  0  0
M  END
$$$$
