CHEMBL2386794
 OpenBabel04072215363D

 77 81  0  0  0  0  0  0  0  0999 V2000
   -2.3941    3.9549    4.3633 C   0  0  0  0  0  0  0  0  0  0  0  0
   -1.5454    2.7757    4.2193 N   0  0  0  0  0  0  0  0  0  0  0  0
   -2.2973    1.5446    4.5006 C   0  0  0  0  0  0  0  0  0  0  0  0
   -1.3985    0.2993    4.3312 C   0  0  0  0  0  0  0  0  0  0  0  0
   -0.8264    0.1401    2.9748 N   0  0  0  0  0  0  0  0  0  0  0  0
   -1.8229   -0.1487    1.9276 C   0  0  0  0  0  0  0  0  0  0  0  0
   -2.6138   -1.4280    2.1392 C   0  0  0  0  0  0  0  0  0  0  0  0
   -3.8221   -1.4001    2.8536 C   0  0  0  0  0  0  0  0  0  0  0  0
   -4.5327   -2.5717    3.0979 C   0  0  0  0  0  0  0  0  0  0  0  0
   -4.0527   -3.7873    2.6045 C   0  0  0  0  0  0  0  0  0  0  0  0
   -4.8178   -5.0114    2.9154 C   0  0  0  0  0  0  0  0  0  0  0  0
   -6.0229   -4.9812    3.0877 O   0  0  0  0  0  0  0  0  0  0  0  0
   -4.0458   -6.2154    3.0989 N   0  0  0  0  0  0  0  0  0  0  0  0
   -4.6357   -7.4331    3.3962 C   0  0  0  0  0  0  0  0  0  0  0  0
   -5.9567   -7.7774    3.2881 C   0  0  0  0  0  0  0  0  0  0  0  0
   -6.0583   -9.1239    3.7234 C   0  0  0  0  0  0  0  0  0  0  0  0
   -7.2847   -9.9190    3.7824 C   0  0  0  0  0  0  0  0  0  0  0  0
   -8.4778   -9.3740    3.2934 C   0  0  0  0  0  0  0  0  0  0  0  0
   -9.6687  -10.0932    3.3323 C   0  0  0  0  0  0  0  0  0  0  0  0
   -9.6923  -11.3704    3.8674 C   0  0  0  0  0  0  0  0  0  0  0  0
  -10.8612  -12.1345    3.9325 N   0  0  0  0  0  0  0  0  0  0  0  0
  -12.1172  -11.8174    3.4809 C   0  0  0  0  0  0  0  0  0  0  0  0
  -12.4587  -10.7700    2.9360 O   0  0  0  0  0  0  0  0  0  0  0  0
  -13.0587  -12.8034    3.6007 N   0  0  0  0  0  0  0  0  0  0  0  0
  -12.9194  -14.0075    4.2423 C   0  0  0  0  0  0  0  0  0  0  0  0
  -13.8416  -15.0663    4.1695 C   0  0  0  0  0  0  0  0  0  0  0  0
  -13.2823  -16.0630    4.9358 C   0  0  0  0  0  0  0  0  0  0  0  0
  -13.7001  -17.4608    5.2736 C   0  0  0  0  0  0  0  0  0  0  0  0
  -13.7252  -18.2987    3.9845 C   0  0  0  0  0  0  0  0  0  0  0  0
  -12.7312  -18.1176    6.2745 C   0  0  0  0  0  0  0  0  0  0  0  0
  -15.1042  -17.4156    5.8972 C   0  0  0  0  0  0  0  0  0  0  0  0
  -12.1091  -15.6162    5.4528 O   0  0  0  0  0  0  0  0  0  0  0  0
  -11.8755  -14.3380    5.0123 N   0  0  0  0  0  0  0  0  0  0  0  0
   -8.5076  -11.9342    4.3607 C   0  0  0  0  0  0  0  0  0  0  0  0
   -7.3080  -11.2108    4.3188 C   0  0  0  0  0  0  0  0  0  0  0  0
   -4.8503   -9.5943    4.0747 N   0  0  0  0  0  0  0  0  0  0  0  0
   -4.0120   -8.5684    3.8463 N   0  0  0  0  0  0  0  0  0  0  0  0
   -2.8835   -3.8270    1.8387 C   0  0  0  0  0  0  0  0  0  0  0  0
   -2.1589   -2.6508    1.6228 C   0  0  0  0  0  0  0  0  0  0  0  0
   -0.1081    1.4053    2.6618 C   0  0  0  0  0  0  0  0  0  0  0  0
   -0.9318    2.7072    2.8800 C   0  0  0  0  0  0  0  0  0  0  0  0
   -2.8288    3.9938    5.3687 H   0  0  0  0  0  0  0  0  0  0  0  0
   -3.2139    3.9700    3.6361 H   0  0  0  0  0  0  0  0  0  0  0  0
   -1.8037    4.8691    4.2409 H   0  0  0  0  0  0  0  0  0  0  0  0
   -3.1738    1.4753    3.8459 H   0  0  0  0  0  0  0  0  0  0  0  0
   -2.6705    1.5629    5.5313 H   0  0  0  0  0  0  0  0  0  0  0  0
   -1.9336   -0.6025    4.6446 H   0  0  0  0  0  0  0  0  0  0  0  0
   -0.5639    0.3782    5.0433 H   0  0  0  0  0  0  0  0  0  0  0  0
   -1.2946   -0.2538    0.9700 H   0  0  0  0  0  0  0  0  0  0  0  0
   -2.5298    0.6756    1.7788 H   0  0  0  0  0  0  0  0  0  0  0  0
   -4.2114   -0.4621    3.2419 H   0  0  0  0  0  0  0  0  0  0  0  0
   -5.4511   -2.5271    3.6809 H   0  0  0  0  0  0  0  0  0  0  0  0
   -3.0352   -6.1588    3.0953 H   0  0  0  0  0  0  0  0  0  0  0  0
   -6.7612   -7.1516    2.9360 H   0  0  0  0  0  0  0  0  0  0  0  0
   -8.5285   -8.3792    2.8623 H   0  0  0  0  0  0  0  0  0  0  0  0
  -10.5575   -9.6137    2.9371 H   0  0  0  0  0  0  0  0  0  0  0  0
  -10.7796  -13.0427    4.3778 H   0  0  0  0  0  0  0  0  0  0  0  0
  -13.9348  -12.5947    3.1426 H   0  0  0  0  0  0  0  0  0  0  0  0
  -14.7652  -15.1163    3.6132 H   0  0  0  0  0  0  0  0  0  0  0  0
  -12.7240  -18.3716    3.5401 H   0  0  0  0  0  0  0  0  0  0  0  0
  -14.3820  -17.8540    3.2265 H   0  0  0  0  0  0  0  0  0  0  0  0
  -14.0812  -19.3150    4.1787 H   0  0  0  0  0  0  0  0  0  0  0  0
  -11.7194  -18.1996    5.8589 H   0  0  0  0  0  0  0  0  0  0  0  0
  -13.0623  -19.1271    6.5408 H   0  0  0  0  0  0  0  0  0  0  0  0
  -12.6575  -17.5360    7.2017 H   0  0  0  0  0  0  0  0  0  0  0  0
  -15.8328  -16.9605    5.2157 H   0  0  0  0  0  0  0  0  0  0  0  0
  -15.1061  -16.8208    6.8186 H   0  0  0  0  0  0  0  0  0  0  0  0
  -15.4626  -18.4212    6.1437 H   0  0  0  0  0  0  0  0  0  0  0  0
   -8.5020  -12.9358    4.7785 H   0  0  0  0  0  0  0  0  0  0  0  0
   -6.3991  -11.6650    4.7091 H   0  0  0  0  0  0  0  0  0  0  0  0
   -3.0319   -8.7090    4.0496 H   0  0  0  0  0  0  0  0  0  0  0  0
   -2.5324   -4.7483    1.3812 H   0  0  0  0  0  0  0  0  0  0  0  0
   -1.2413   -2.6850    1.0381 H   0  0  0  0  0  0  0  0  0  0  0  0
    0.2724    1.3797    1.6331 H   0  0  0  0  0  0  0  0  0  0  0  0
    0.7837    1.4516    3.3018 H   0  0  0  0  0  0  0  0  0  0  0  0
   -1.7020    2.7803    2.1015 H   0  0  0  0  0  0  0  0  0  0  0  0
   -0.2596    3.5634    2.7476 H   0  0  0  0  0  0  0  0  0  0  0  0
  1  2  1  0  0  0  0
  1 42  1  0  0  0  0
  1 43  1  0  0  0  0
  1 44  1  0  0  0  0
  2  3  1  0  0  0  0
  2 41  1  0  0  0  0
  3  4  1  0  0  0  0
  3 45  1  0  0  0  0
  3 46  1  0  0  0  0
  4  5  1  0  0  0  0
  4 47  1  0  0  0  0
  4 48  1  0  0  0  0
  5  6  1  0  0  0  0
  5 40  1  0  0  0  0
  6  7  1  0  0  0  0
  6 49  1  0  0  0  0
  6 50  1  0  0  0  0
  7  8  1  0  0  0  0
  7 39  2  0  0  0  0
  8  9  2  0  0  0  0
  8 51  1  0  0  0  0
  9 10  1  0  0  0  0
  9 52  1  0  0  0  0
 10 11  1  0  0  0  0
 10 38  2  0  0  0  0
 11 12  2  0  0  0  0
 11 13  1  0  0  0  0
 13 14  1  0  0  0  0
 13 53  1  0  0  0  0
 14 15  2  0  0  0  0
 14 37  1  0  0  0  0
 15 16  1  0  0  0  0
 15 54  1  0  0  0  0
 16 17  1  0  0  0  0
 16 36  2  0  0  0  0
 17 18  1  0  0  0  0
 17 35  2  0  0  0  0
 18 19  2  0  0  0  0
 18 55  1  0  0  0  0
 19 20  1  0  0  0  0
 19 56  1  0  0  0  0
 20 21  1  0  0  0  0
 20 34  2  0  0  0  0
 21 22  1  0  0  0  0
 21 57  1  0  0  0  0
 22 23  2  0  0  0  0
 22 24  1  0  0  0  0
 24 25  1  0  0  0  0
 24 58  1  0  0  0  0
 25 26  1  0  0  0  0
 25 33  2  0  0  0  0
 26 27  2  0  0  0  0
 26 59  1  0  0  0  0
 27 28  1  0  0  0  0
 27 32  1  0  0  0  0
 28 29  1  0  0  0  0
 28 30  1  0  0  0  0
 28 31  1  0  0  0  0
 29 60  1  0  0  0  0
 29 61  1  0  0  0  0
 29 62  1  0  0  0  0
 30 63  1  0  0  0  0
 30 64  1  0  0  0  0
 30 65  1  0  0  0  0
 31 66  1  0  0  0  0
 31 67  1  0  0  0  0
 31 68  1  0  0  0  0
 32 33  1  0  0  0  0
 34 35  1  0  0  0  0
 34 69  1  0  0  0  0
 35 70  1  0  0  0  0
 36 37  1  0  0  0  0
 37 71  1  0  0  0  0
 38 39  1  0  0  0  0
 38 72  1  0  0  0  0
 39 73  1  0  0  0  0
 40 41  1  0  0  0  0
 40 74  1  0  0  0  0
 40 75  1  0  0  0  0
 41 76  1  0  0  0  0
 41 77  1  0  0  0  0
M  END
$$$$
