CHEMBL3671533
 OpenBabel04072215373D

 61 63  0  0  0  0  0  0  0  0999 V2000
    2.3502    2.0977    0.7611 C   0  0  0  0  0  0  0  0  0  0  0  0
    2.9095    0.9227    0.4817 C   0  0  0  0  0  0  0  0  0  0  0  0
    3.6403    0.1391    1.5287 C   0  0  0  0  0  0  0  0  0  0  0  0
    3.4601    0.3442    2.7207 O   0  0  0  0  0  0  0  0  0  0  0  0
    4.4747   -0.8209    0.9484 N   0  0  0  0  0  0  0  0  0  0  0  0
    5.2471   -1.6956    1.7637 C   0  0  0  0  0  0  0  0  0  0  0  0
    6.5043   -1.2266    2.1615 C   0  0  0  0  0  0  0  0  0  0  0  0
    7.2940   -1.8985    3.1243 C   0  0  0  0  0  0  0  0  0  0  0  0
    8.4549   -1.3660    3.7467 C   0  0  0  0  0  0  0  0  0  0  0  0
    8.8321   -0.0079    3.5313 N   0  0  0  0  0  0  0  0  0  0  0  0
    9.5777    0.7928    4.4404 C   0  0  0  0  0  0  0  0  0  0  0  0
    9.3795    0.6367    5.8154 C   0  0  0  0  0  0  0  0  0  0  0  0
   10.2676    1.1908    6.7383 C   0  0  0  0  0  0  0  0  0  0  0  0
   11.3480    1.9485    6.2869 C   0  0  0  0  0  0  0  0  0  0  0  0
   12.6549    2.5278    7.5240 Br  0  0  0  0  0  0  0  0  0  0  0  0
   11.5006    2.2266    4.9324 C   0  0  0  0  0  0  0  0  0  0  0  0
   10.6050    1.6596    4.0191 C   0  0  0  0  0  0  0  0  0  0  0  0
   10.8066    1.8902    2.7134 F   0  0  0  0  0  0  0  0  0  0  0  0
    9.1957   -2.0954    4.5957 N   0  0  0  0  0  0  0  0  0  0  0  0
    8.7796   -3.3331    4.8447 C   0  0  0  0  0  0  0  0  0  0  0  0
    7.6545   -3.8975    4.3727 N   0  0  0  0  0  0  0  0  0  0  0  0
    6.9076   -3.1736    3.5370 C   0  0  0  0  0  0  0  0  0  0  0  0
    5.7131   -3.7044    3.0238 C   0  0  0  0  0  0  0  0  0  0  0  0
    4.8704   -2.9952    2.1453 C   0  0  0  0  0  0  0  0  0  0  0  0
    3.8008   -3.7523    1.6949 O   0  0  0  0  0  0  0  0  0  0  0  0
    3.4078   -3.4947    0.3497 C   0  0  0  0  0  0  0  0  0  0  0  0
    2.8184   -4.6860   -0.4058 C   0  0  0  0  0  0  0  0  0  0  0  0
    2.4701   -4.2952   -1.7712 N   0  0  0  0  0  0  0  0  0  0  0  0
    3.4110   -4.3848   -2.7824 C   0  0  0  0  0  0  0  0  0  0  0  0
    4.5203   -4.8130   -2.6099 O   0  0  0  0  0  0  0  0  0  0  0  0
    2.9058   -3.8913   -4.1356 C   0  0  0  0  0  0  0  0  0  0  0  0
    2.5344   -2.4117   -4.0235 C   0  0  0  0  0  0  0  0  0  0  0  0
    2.0303   -1.7755   -5.2523 N   0  0  0  0  0  0  0  0  0  0  0  0
    0.8228   -2.4247   -5.7637 C   0  0  0  0  0  0  0  0  0  0  0  0
    1.7387   -0.3638   -4.9674 C   0  0  0  0  0  0  0  0  0  0  0  0
    1.7424    2.6271    0.0297 H   0  0  0  0  0  0  0  0  0  0  0  0
    2.4620    2.5642    1.7388 H   0  0  0  0  0  0  0  0  0  0  0  0
    2.7604    0.4436   -0.4822 H   0  0  0  0  0  0  0  0  0  0  0  0
    4.9658   -0.4429    0.1413 H   0  0  0  0  0  0  0  0  0  0  0  0
    6.8673   -0.3063    1.7169 H   0  0  0  0  0  0  0  0  0  0  0  0
    8.9776    0.1980    2.5592 H   0  0  0  0  0  0  0  0  0  0  0  0
    8.5777   -0.0093    6.1693 H   0  0  0  0  0  0  0  0  0  0  0  0
   10.1433    0.9623    7.7928 H   0  0  0  0  0  0  0  0  0  0  0  0
   12.3445    2.8041    4.5670 H   0  0  0  0  0  0  0  0  0  0  0  0
    9.4072   -3.9318    5.4921 H   0  0  0  0  0  0  0  0  0  0  0  0
    5.4421   -4.7223    3.3055 H   0  0  0  0  0  0  0  0  0  0  0  0
    4.2536   -3.1113   -0.2393 H   0  0  0  0  0  0  0  0  0  0  0  0
    2.5924   -2.7702    0.3899 H   0  0  0  0  0  0  0  0  0  0  0  0
    1.8994   -5.0257    0.0852 H   0  0  0  0  0  0  0  0  0  0  0  0
    3.5112   -5.5344   -0.4447 H   0  0  0  0  0  0  0  0  0  0  0  0
    1.5087   -4.0736   -1.9976 H   0  0  0  0  0  0  0  0  0  0  0  0
    2.0520   -4.5095   -4.4272 H   0  0  0  0  0  0  0  0  0  0  0  0
    3.7000   -4.0364   -4.8768 H   0  0  0  0  0  0  0  0  0  0  0  0
    3.4365   -1.8733   -3.7032 H   0  0  0  0  0  0  0  0  0  0  0  0
    1.7976   -2.2815   -3.2223 H   0  0  0  0  0  0  0  0  0  0  0  0
    1.0324   -3.4461   -6.0963 H   0  0  0  0  0  0  0  0  0  0  0  0
    0.4427   -1.8942   -6.6446 H   0  0  0  0  0  0  0  0  0  0  0  0
    0.0261   -2.4568   -5.0123 H   0  0  0  0  0  0  0  0  0  0  0  0
    2.6397    0.1571   -4.6245 H   0  0  0  0  0  0  0  0  0  0  0  0
    0.9678   -0.2574   -4.1955 H   0  0  0  0  0  0  0  0  0  0  0  0
    1.3968    0.1560   -5.8690 H   0  0  0  0  0  0  0  0  0  0  0  0
  1  2  2  0  0  0  0
  1 36  1  0  0  0  0
  1 37  1  0  0  0  0
  2  3  1  0  0  0  0
  2 38  1  0  0  0  0
  3  4  2  0  0  0  0
  3  5  1  0  0  0  0
  5  6  1  0  0  0  0
  5 39  1  0  0  0  0
  6  7  1  0  0  0  0
  6 24  2  0  0  0  0
  7  8  2  0  0  0  0
  7 40  1  0  0  0  0
  8  9  1  0  0  0  0
  8 22  1  0  0  0  0
  9 10  1  0  0  0  0
  9 19  2  0  0  0  0
 10 11  1  0  0  0  0
 10 41  1  0  0  0  0
 11 12  1  0  0  0  0
 11 17  2  0  0  0  0
 12 13  2  0  0  0  0
 12 42  1  0  0  0  0
 13 14  1  0  0  0  0
 13 43  1  0  0  0  0
 14 15  1  0  0  0  0
 14 16  2  0  0  0  0
 16 17  1  0  0  0  0
 16 44  1  0  0  0  0
 17 18  1  0  0  0  0
 19 20  1  0  0  0  0
 20 21  2  0  0  0  0
 20 45  1  0  0  0  0
 21 22  1  0  0  0  0
 22 23  2  0  0  0  0
 23 24  1  0  0  0  0
 23 46  1  0  0  0  0
 24 25  1  0  0  0  0
 25 26  1  0  0  0  0
 26 27  1  0  0  0  0
 26 47  1  0  0  0  0
 26 48  1  0  0  0  0
 27 28  1  0  0  0  0
 27 49  1  0  0  0  0
 27 50  1  0  0  0  0
 28 29  1  0  0  0  0
 28 51  1  0  0  0  0
 29 30  2  0  0  0  0
 29 31  1  0  0  0  0
 31 32  1  0  0  0  0
 31 52  1  0  0  0  0
 31 53  1  0  0  0  0
 32 33  1  0  0  0  0
 32 54  1  0  0  0  0
 32 55  1  0  0  0  0
 33 34  1  0  0  0  0
 33 35  1  0  0  0  0
 34 56  1  0  0  0  0
 34 57  1  0  0  0  0
 34 58  1  0  0  0  0
 35 59  1  0  0  0  0
 35 60  1  0  0  0  0
 35 61  1  0  0  0  0
M  END
$$$$
