CHEMBL4648279
 OpenBabel04072215383D

 97102  0  0  0  0  0  0  0  0999 V2000
    4.8434   -8.7119   -3.4792 C   0  0  0  0  0  0  0  0  0  0  0  0
    6.0189   -7.7454   -3.4628 C   0  0  0  0  0  0  0  0  0  0  0  0
    5.5652   -6.4005   -3.8753 N   0  0  0  0  0  0  0  0  0  0  0  0
    6.7560   -5.2081   -4.0602 S   0  0  0  0  0  0  0  0  0  0  0  0
    7.9963   -5.8795   -4.4090 O   0  0  0  0  0  0  0  0  0  0  0  0
    6.2172   -4.1638   -4.8995 O   0  0  0  0  0  0  0  0  0  0  0  0
    6.9593   -4.4930   -2.4349 C   0  0  0  0  0  0  0  0  0  0  0  0
    8.2083   -4.6773   -1.8157 C   0  0  0  0  0  0  0  0  0  0  0  0
    8.5209   -4.0262   -0.6109 C   0  0  0  0  0  0  0  0  0  0  0  0
    7.6036   -3.1484   -0.0488 C   0  0  0  0  0  0  0  0  0  0  0  0
    6.3812   -2.9564   -0.6744 C   0  0  0  0  0  0  0  0  0  0  0  0
    5.9934   -3.6712   -1.8403 C   0  0  0  0  0  0  0  0  0  0  0  0
    4.6775   -3.4000   -2.3826 N   0  0  0  0  0  0  0  0  0  0  0  0
    3.5753   -3.1735   -1.4839 C   0  0  0  0  0  0  0  0  0  0  0  0
    3.6587   -3.7795   -0.2727 N   0  0  0  0  0  0  0  0  0  0  0  0
    2.7514   -3.5009    0.6722 C   0  0  0  0  0  0  0  0  0  0  0  0
    3.0939   -3.8710    1.9673 N   0  0  0  0  0  0  0  0  0  0  0  0
    2.4841   -3.5812    3.1890 C   0  0  0  0  0  0  0  0  0  0  0  0
    1.1108   -3.4090    3.3494 C   0  0  0  0  0  0  0  0  0  0  0  0
    0.5587   -3.1936    4.6116 C   0  0  0  0  0  0  0  0  0  0  0  0
    1.3519   -3.1264    5.7729 C   0  0  0  0  0  0  0  0  0  0  0  0
    0.6680   -3.0825    6.9982 N   0  0  0  0  0  0  0  0  0  0  0  0
    1.3596   -3.6287    8.1552 C   0  0  0  0  0  0  0  0  0  0  0  0
    0.3375   -4.0370    9.2016 C   0  0  0  0  0  0  0  0  0  0  0  0
   -0.6260   -2.9164    9.6123 C   0  0  0  0  0  0  0  0  0  0  0  0
   -0.2387   -2.0556   10.7501 N   0  0  0  0  0  0  0  0  0  0  0  0
    0.9774   -1.2474   10.6357 C   0  0  0  0  0  0  0  0  0  0  0  0
    2.2858   -1.9396   11.0723 C   0  0  0  0  0  0  0  0  0  0  0  0
    2.2308   -2.4889   12.4342 N   0  0  0  0  0  0  0  0  0  0  0  0
    3.4615   -3.2343   12.7074 C   0  0  0  0  0  0  0  0  0  0  0  0
    1.0484   -3.3587   12.5817 C   0  0  0  0  0  0  0  0  0  0  0  0
   -0.2740   -2.7232   12.0712 C   0  0  0  0  0  0  0  0  0  0  0  0
   -1.1261   -2.1328    8.3686 C   0  0  0  0  0  0  0  0  0  0  0  0
   -0.0746   -1.8472    7.2899 C   0  0  0  0  0  0  0  0  0  0  0  0
    2.7584   -3.2077    5.5978 C   0  0  0  0  0  0  0  0  0  0  0  0
    3.5720   -3.0935    6.7019 O   0  0  0  0  0  0  0  0  0  0  0  0
    4.9341   -2.7428    6.4728 C   0  0  0  0  0  0  0  0  0  0  0  0
    3.2930   -3.4386    4.3214 C   0  0  0  0  0  0  0  0  0  0  0  0
    1.6589   -2.7900    0.4358 N   0  0  0  0  0  0  0  0  0  0  0  0
    1.5549   -2.2370   -0.7822 C   0  0  0  0  0  0  0  0  0  0  0  0
    2.5068   -2.3307   -1.7903 C   0  0  0  0  0  0  0  0  0  0  0  0
    2.4062   -1.5494   -2.9830 N   0  0  0  0  0  0  0  0  0  0  0  0
    1.6851   -0.3529   -2.9953 C   0  0  0  0  0  0  0  0  0  0  0  0
    1.1668    0.1295   -1.9895 O   0  0  0  0  0  0  0  0  0  0  0  0
    1.5562    0.4447   -4.2439 C   0  0  0  0  0  0  0  0  0  0  0  0
    2.1849    0.1480   -5.4557 C   0  0  0  0  0  0  0  0  0  0  0  0
    1.9957    1.0119   -6.5388 C   0  0  0  0  0  0  0  0  0  0  0  0
    2.5880    0.7781   -7.7470 O   0  0  0  0  0  0  0  0  0  0  0  0
    1.1989    2.1513   -6.4445 C   0  0  0  0  0  0  0  0  0  0  0  0
    0.5664    2.4296   -5.2448 C   0  0  0  0  0  0  0  0  0  0  0  0
   -0.2412    3.5139   -5.0834 O   0  0  0  0  0  0  0  0  0  0  0  0
    0.7405    1.5920   -4.1553 C   0  0  0  0  0  0  0  0  0  0  0  0
    5.1159   -9.6486   -2.9794 H   0  0  0  0  0  0  0  0  0  0  0  0
    4.5516   -8.9602   -4.5068 H   0  0  0  0  0  0  0  0  0  0  0  0
    3.9663   -8.2964   -2.9741 H   0  0  0  0  0  0  0  0  0  0  0  0
    6.7769   -8.1236   -4.1574 H   0  0  0  0  0  0  0  0  0  0  0  0
    6.4421   -7.6997   -2.4557 H   0  0  0  0  0  0  0  0  0  0  0  0
    4.8033   -6.0303   -3.2984 H   0  0  0  0  0  0  0  0  0  0  0  0
    8.9791   -5.3055   -2.2630 H   0  0  0  0  0  0  0  0  0  0  0  0
    9.4912   -4.1802   -0.1390 H   0  0  0  0  0  0  0  0  0  0  0  0
    7.8423   -2.6144    0.8657 H   0  0  0  0  0  0  0  0  0  0  0  0
    5.7017   -2.2403   -0.2192 H   0  0  0  0  0  0  0  0  0  0  0  0
    4.7889   -2.5666   -2.9602 H   0  0  0  0  0  0  0  0  0  0  0  0
    4.0671   -4.1398    1.9859 H   0  0  0  0  0  0  0  0  0  0  0  0
    0.4386   -3.4984    2.4977 H   0  0  0  0  0  0  0  0  0  0  0  0
   -0.5256   -3.1445    4.7015 H   0  0  0  0  0  0  0  0  0  0  0  0
    2.0536   -2.8805    8.5314 H   0  0  0  0  0  0  0  0  0  0  0  0
    1.9277   -4.5308    7.8974 H   0  0  0  0  0  0  0  0  0  0  0  0
    0.8513   -4.4686   10.0603 H   0  0  0  0  0  0  0  0  0  0  0  0
   -0.2631   -4.8583    8.7866 H   0  0  0  0  0  0  0  0  0  0  0  0
   -1.5348   -3.4266    9.9663 H   0  0  0  0  0  0  0  0  0  0  0  0
    0.8405   -0.3672   11.2796 H   0  0  0  0  0  0  0  0  0  0  0  0
    1.0928   -0.8343    9.6327 H   0  0  0  0  0  0  0  0  0  0  0  0
    3.0967   -1.2050   11.0013 H   0  0  0  0  0  0  0  0  0  0  0  0
    2.5425   -2.7487   10.3897 H   0  0  0  0  0  0  0  0  0  0  0  0
    4.3384   -2.5924   12.5625 H   0  0  0  0  0  0  0  0  0  0  0  0
    3.5735   -4.1056   12.0492 H   0  0  0  0  0  0  0  0  0  0  0  0
    3.4838   -3.5794   13.7449 H   0  0  0  0  0  0  0  0  0  0  0  0
    0.9217   -3.6003   13.6440 H   0  0  0  0  0  0  0  0  0  0  0  0
    1.2074   -4.3152   12.0711 H   0  0  0  0  0  0  0  0  0  0  0  0
   -0.5716   -1.9600   12.8030 H   0  0  0  0  0  0  0  0  0  0  0  0
   -1.0709   -3.4767   12.1094 H   0  0  0  0  0  0  0  0  0  0  0  0
   -1.6249   -1.2026    8.6666 H   0  0  0  0  0  0  0  0  0  0  0  0
   -1.9092   -2.7447    7.8969 H   0  0  0  0  0  0  0  0  0  0  0  0
    0.6135   -1.0563    7.6047 H   0  0  0  0  0  0  0  0  0  0  0  0
   -0.5944   -1.4669    6.4023 H   0  0  0  0  0  0  0  0  0  0  0  0
    5.4245   -2.6319    7.4439 H   0  0  0  0  0  0  0  0  0  0  0  0
    5.0027   -1.7859    5.9452 H   0  0  0  0  0  0  0  0  0  0  0  0
    5.4737   -3.5310    5.9368 H   0  0  0  0  0  0  0  0  0  0  0  0
    4.3607   -3.5287    4.1775 H   0  0  0  0  0  0  0  0  0  0  0  0
    0.6322   -1.6757   -0.8943 H   0  0  0  0  0  0  0  0  0  0  0  0
    2.9888   -1.8024   -3.7664 H   0  0  0  0  0  0  0  0  0  0  0  0
    2.8154   -0.7241   -5.5701 H   0  0  0  0  0  0  0  0  0  0  0  0
    3.0694   -0.0632   -7.7225 H   0  0  0  0  0  0  0  0  0  0  0  0
    1.0829    2.8001   -7.3061 H   0  0  0  0  0  0  0  0  0  0  0  0
   -0.3196    3.9816   -5.9311 H   0  0  0  0  0  0  0  0  0  0  0  0
    0.2300    1.8434   -3.2256 H   0  0  0  0  0  0  0  0  0  0  0  0
  1  2  1  0  0  0  0
  1 53  1  0  0  0  0
  1 54  1  0  0  0  0
  1 55  1  0  0  0  0
  2  3  1  0  0  0  0
  2 56  1  0  0  0  0
  2 57  1  0  0  0  0
  3  4  1  0  0  0  0
  3 58  1  0  0  0  0
  4  5  2  0  0  0  0
  4  6  2  0  0  0  0
  4  7  1  0  0  0  0
  7  8  1  0  0  0  0
  7 12  2  0  0  0  0
  8  9  2  0  0  0  0
  8 59  1  0  0  0  0
  9 10  1  0  0  0  0
  9 60  1  0  0  0  0
 10 11  2  0  0  0  0
 10 61  1  0  0  0  0
 11 12  1  0  0  0  0
 11 62  1  0  0  0  0
 12 13  1  0  0  0  0
 13 14  1  0  0  0  0
 13 63  1  0  0  0  0
 14 15  1  0  0  0  0
 14 41  2  0  0  0  0
 15 16  2  0  0  0  0
 16 17  1  0  0  0  0
 16 39  1  0  0  0  0
 17 18  1  0  0  0  0
 17 64  1  0  0  0  0
 18 19  1  0  0  0  0
 18 38  2  0  0  0  0
 19 20  2  0  0  0  0
 19 65  1  0  0  0  0
 20 21  1  0  0  0  0
 20 66  1  0  0  0  0
 21 22  1  0  0  0  0
 21 35  2  0  0  0  0
 22 23  1  0  0  0  0
 22 34  1  0  0  0  0
 23 24  1  0  0  0  0
 23 67  1  0  0  0  0
 23 68  1  0  0  0  0
 24 25  1  0  0  0  0
 24 69  1  0  0  0  0
 24 70  1  0  0  0  0
 25 26  1  0  0  0  0
 25 33  1  0  0  0  0
 25 71  1  0  0  0  0
 26 27  1  0  0  0  0
 26 32  1  0  0  0  0
 27 28  1  0  0  0  0
 27 72  1  0  0  0  0
 27 73  1  0  0  0  0
 28 29  1  0  0  0  0
 28 74  1  0  0  0  0
 28 75  1  0  0  0  0
 29 30  1  0  0  0  0
 29 31  1  0  0  0  0
 30 76  1  0  0  0  0
 30 77  1  0  0  0  0
 30 78  1  0  0  0  0
 31 32  1  0  0  0  0
 31 79  1  0  0  0  0
 31 80  1  0  0  0  0
 32 81  1  0  0  0  0
 32 82  1  0  0  0  0
 33 34  1  0  0  0  0
 33 83  1  0  0  0  0
 33 84  1  0  0  0  0
 34 85  1  0  0  0  0
 34 86  1  0  0  0  0
 35 36  1  0  0  0  0
 35 38  1  0  0  0  0
 36 37  1  0  0  0  0
 37 87  1  0  0  0  0
 37 88  1  0  0  0  0
 37 89  1  0  0  0  0
 38 90  1  0  0  0  0
 39 40  2  0  0  0  0
 40 41  1  0  0  0  0
 40 91  1  0  0  0  0
 41 42  1  0  0  0  0
 42 43  1  0  0  0  0
 42 92  1  0  0  0  0
 43 44  2  0  0  0  0
 43 45  1  0  0  0  0
 45 46  1  0  0  0  0
 45 52  2  0  0  0  0
 46 47  2  0  0  0  0
 46 93  1  0  0  0  0
 47 48  1  0  0  0  0
 47 49  1  0  0  0  0
 48 94  1  0  0  0  0
 49 50  2  0  0  0  0
 49 95  1  0  0  0  0
 50 51  1  0  0  0  0
 50 52  1  0  0  0  0
 51 96  1  0  0  0  0
 52 97  1  0  0  0  0
M  END
$$$$
