CHEMBL3656118
 OpenBabel04072215373D

 61 64  0  0  0  0  0  0  0  0999 V2000
    3.9069   -1.3635   -0.3467 C   0  0  0  0  0  0  0  0  0  0  0  0
    3.3127   -0.6366    1.0882 S   0  0  3  0  0  0  0  0  0  0  0  0
    1.6147   -0.3031    0.9409 C   0  0  0  0  0  0  0  0  0  0  0  0
    3.3108   -1.7451    2.0116 O   0  0  0  0  0  0  0  0  0  0  0  0
    4.2008    0.5572    1.7254 N   0  0  0  0  0  0  0  0  0  0  0  0
    4.5365    1.6587    0.9834 C   0  0  0  0  0  0  0  0  0  0  0  0
    4.1863    1.8146   -0.1866 O   0  0  0  0  0  0  0  0  0  0  0  0
    5.3476    2.6497    1.6836 C   0  0  0  0  0  0  0  0  0  0  0  0
    5.8766    2.6191    2.9655 C   0  0  0  0  0  0  0  0  0  0  0  0
    6.5927    3.7741    3.1721 N   0  0  0  0  0  0  0  0  0  0  0  0
    6.5400    4.5745    2.0553 C   0  0  0  0  0  0  0  0  0  0  0  0
    7.1853    5.8815    1.9751 C   0  0  0  0  0  0  0  0  0  0  0  0
    7.0889    6.6506    0.8243 C   0  0  0  0  0  0  0  0  0  0  0  0
    7.6011    7.9445    0.8257 C   0  0  0  0  0  0  0  0  0  0  0  0
    7.4770    8.8182   -0.2405 O   0  0  0  0  0  0  0  0  0  0  0  0
    6.3559    8.7313   -1.0442 C   0  0  0  0  0  0  0  0  0  0  0  0
    5.0935    8.4134   -0.5533 C   0  0  0  0  0  0  0  0  0  0  0  0
    4.0260    8.2139   -1.4277 C   0  0  0  0  0  0  0  0  0  0  0  0
    4.1639    8.4070   -2.8048 C   0  0  0  0  0  0  0  0  0  0  0  0
    3.1079    8.1610   -3.7204 N   0  0  0  0  0  0  0  0  0  0  0  0
    1.8297    7.7350   -3.3825 C   0  0  0  0  0  0  0  0  0  0  0  0
    1.4087    7.6058   -2.2380 O   0  0  0  0  0  0  0  0  0  0  0  0
    1.0623    7.4150   -4.4977 N   0  0  0  0  0  0  0  0  0  0  0  0
   -0.2648    6.9394   -4.3251 C   0  0  0  0  0  0  0  0  0  0  0  0
   -0.6590    5.7796   -4.9931 C   0  0  0  0  0  0  0  0  0  0  0  0
   -1.9329    5.2483   -4.7752 C   0  0  0  0  0  0  0  0  0  0  0  0
   -2.8323    5.8942   -3.9247 C   0  0  0  0  0  0  0  0  0  0  0  0
   -2.4621    7.0721   -3.2692 C   0  0  0  0  0  0  0  0  0  0  0  0
   -3.4188    7.7774   -2.3526 C   0  0  0  0  0  0  0  0  0  0  0  0
   -1.1727    7.5862   -3.4742 C   0  0  0  0  0  0  0  0  0  0  0  0
    5.4070    8.8390   -3.2837 C   0  0  0  0  0  0  0  0  0  0  0  0
    6.5000    8.9960   -2.4078 C   0  0  0  0  0  0  0  0  0  0  0  0
    8.3017    8.3835    1.9411 C   0  0  0  0  0  0  0  0  0  0  0  0
    8.3914    7.5300    3.0334 C   0  0  0  0  0  0  0  0  0  0  0  0
    7.8323    6.2961    3.0887 N   0  0  0  0  0  0  0  0  0  0  0  0
    5.7706    3.8931    1.1285 C   0  0  0  0  0  0  0  0  0  0  0  0
    3.3968   -2.2267   -0.7966 H   0  0  0  0  0  0  0  0  0  0  0  0
    4.8083   -0.9774   -0.8446 H   0  0  0  0  0  0  0  0  0  0  0  0
    1.0977   -1.1989    0.5910 H   0  0  0  0  0  0  0  0  0  0  0  0
    1.4760    0.5093    0.2260 H   0  0  0  0  0  0  0  0  0  0  0  0
    1.2282   -0.0070    1.9181 H   0  0  0  0  0  0  0  0  0  0  0  0
    4.4397    0.4794    2.6980 H   0  0  0  0  0  0  0  0  0  0  0  0
    5.8185    1.8814    3.7535 H   0  0  0  0  0  0  0  0  0  0  0  0
    7.0950    4.0281    4.0155 H   0  0  0  0  0  0  0  0  0  0  0  0
    6.5801    6.2579   -0.0467 H   0  0  0  0  0  0  0  0  0  0  0  0
    4.9175    8.2617    0.5081 H   0  0  0  0  0  0  0  0  0  0  0  0
    3.0972    7.8875   -0.9760 H   0  0  0  0  0  0  0  0  0  0  0  0
    3.2820    8.3635   -4.6954 H   0  0  0  0  0  0  0  0  0  0  0  0
    1.5824    7.0039   -5.2582 H   0  0  0  0  0  0  0  0  0  0  0  0
    0.0345    5.2379   -5.6285 H   0  0  0  0  0  0  0  0  0  0  0  0
   -2.2212    4.3155   -5.2531 H   0  0  0  0  0  0  0  0  0  0  0  0
   -3.8194    5.4650   -3.7677 H   0  0  0  0  0  0  0  0  0  0  0  0
   -4.3537    7.2174   -2.2409 H   0  0  0  0  0  0  0  0  0  0  0  0
   -3.6663    8.7660   -2.7523 H   0  0  0  0  0  0  0  0  0  0  0  0
   -2.9801    7.8906   -1.3560 H   0  0  0  0  0  0  0  0  0  0  0  0
   -0.8750    8.4955   -2.9544 H   0  0  0  0  0  0  0  0  0  0  0  0
    5.5590    9.0418   -4.3416 H   0  0  0  0  0  0  0  0  0  0  0  0
    7.4665    9.3063   -2.7977 H   0  0  0  0  0  0  0  0  0  0  0  0
    8.7586    9.3660    1.9658 H   0  0  0  0  0  0  0  0  0  0  0  0
    8.9295    7.8324    3.9289 H   0  0  0  0  0  0  0  0  0  0  0  0
    5.5194    4.2388    0.1333 H   0  0  0  0  0  0  0  0  0  0  0  0
  1  2  2  0  0  0  0
  1 37  1  0  0  0  0
  1 38  1  0  0  0  0
  2  3  1  0  0  0  0
  2  4  2  0  0  0  0
  2  5  1  0  0  0  0
  3 39  1  0  0  0  0
  3 40  1  0  0  0  0
  3 41  1  0  0  0  0
  5  6  1  0  0  0  0
  5 42  1  0  0  0  0
  6  7  2  0  0  0  0
  6  8  1  0  0  0  0
  8  9  2  0  0  0  0
  8 36  1  0  0  0  0
  9 10  1  0  0  0  0
  9 43  1  0  0  0  0
 10 11  1  0  0  0  0
 10 44  1  0  0  0  0
 11 12  1  0  0  0  0
 11 36  2  0  0  0  0
 12 13  1  0  0  0  0
 12 35  2  0  0  0  0
 13 14  2  0  0  0  0
 13 45  1  0  0  0  0
 14 15  1  0  0  0  0
 14 33  1  0  0  0  0
 15 16  1  0  0  0  0
 16 17  1  0  0  0  0
 16 32  2  0  0  0  0
 17 18  2  0  0  0  0
 17 46  1  0  0  0  0
 18 19  1  0  0  0  0
 18 47  1  0  0  0  0
 19 20  1  0  0  0  0
 19 31  2  0  0  0  0
 20 21  1  0  0  0  0
 20 48  1  0  0  0  0
 21 22  2  0  0  0  0
 21 23  1  0  0  0  0
 23 24  1  0  0  0  0
 23 49  1  0  0  0  0
 24 25  1  0  0  0  0
 24 30  2  0  0  0  0
 25 26  2  0  0  0  0
 25 50  1  0  0  0  0
 26 27  1  0  0  0  0
 26 51  1  0  0  0  0
 27 28  2  0  0  0  0
 27 52  1  0  0  0  0
 28 29  1  0  0  0  0
 28 30  1  0  0  0  0
 29 53  1  0  0  0  0
 29 54  1  0  0  0  0
 29 55  1  0  0  0  0
 30 56  1  0  0  0  0
 31 32  1  0  0  0  0
 31 57  1  0  0  0  0
 32 58  1  0  0  0  0
 33 34  2  0  0  0  0
 33 59  1  0  0  0  0
 34 35  1  0  0  0  0
 34 60  1  0  0  0  0
 36 61  1  0  0  0  0
M  END
$$$$
