CHEMBL1908395
 OpenBabel04072215363D

 68 70  0  0  0  0  0  0  0  0999 V2000
    2.0487   -5.2043    3.8467 C   0  0  0  0  0  0  0  0  0  0  0  0
    3.2588   -5.9309    3.4205 N   0  0  0  0  0  0  0  0  0  0  0  0
    3.0126   -7.3790    3.4648 C   0  0  0  0  0  0  0  0  0  0  0  0
    3.7171   -5.5193    2.0723 C   0  0  0  0  0  0  0  0  0  0  0  0
    4.0253   -4.0365    2.0374 C   0  0  0  0  0  0  0  0  0  0  0  0
    3.3709   -3.3458    1.2681 O   0  0  0  0  0  0  0  0  0  0  0  0
    4.9367   -3.4515    2.8856 N   0  0  0  0  0  0  0  0  0  0  0  0
    5.0733   -1.9992    2.9535 C   0  0  0  0  0  0  0  0  0  0  0  0
    6.5571   -1.5797    2.8151 C   0  0  0  0  0  0  0  0  0  0  0  0
    7.4669   -2.3358    3.8235 C   0  0  0  0  0  0  0  0  0  0  0  0
    7.2459   -1.9759    5.3023 C   0  0  0  0  0  0  0  0  0  0  0  0
    6.3680   -0.9696    5.7189 C   0  0  0  0  0  0  0  0  0  0  0  0
    6.1297   -0.7398    7.0603 C   0  0  0  0  0  0  0  0  0  0  0  0
    6.7558   -1.5023    8.0691 C   0  0  0  0  0  0  0  0  0  0  0  0
    6.4974   -1.2285    9.4584 N   0  0  0  0  0  0  0  0  0  0  0  0
    5.3878   -0.6000    9.9555 C   0  0  0  0  0  0  0  0  0  0  0  0
    4.4711   -0.2466    9.2332 O   0  0  0  0  0  0  0  0  0  0  0  0
    5.2603   -0.3277   11.3911 C   0  0  0  0  0  0  0  0  0  0  0  0
    6.0899   -0.8154   12.3386 N   0  0  0  0  0  0  0  0  0  0  0  0
    5.6399   -0.2501   13.4711 C   0  0  0  0  0  0  0  0  0  0  0  0
    6.2130   -0.4737   14.8611 C   0  0  0  0  0  0  0  0  0  0  0  0
    6.6883   -0.6592   16.0142 N   0  0  0  0  0  0  0  0  0  0  0  0
    4.5502    0.5442   13.2102 C   0  0  0  0  0  0  0  0  0  0  0  0
    4.3012    0.4724   11.8988 N   0  0  0  0  0  0  0  0  0  0  0  0
    7.7107   -2.4928    7.6701 C   0  0  0  0  0  0  0  0  0  0  0  0
    8.4521   -3.3799    8.6389 C   0  0  0  0  0  0  0  0  0  0  0  0
    7.8253   -3.8737    9.7368 C   0  0  0  0  0  0  0  0  0  0  0  0
    8.5140   -4.7012   10.7931 C   0  0  0  0  0  0  0  0  0  0  0  0
   10.0412   -4.6162   10.6978 C   0  0  0  0  0  0  0  0  0  0  0  0
   10.4586   -4.8612    9.2614 C   0  0  0  0  0  0  0  0  0  0  0  0
    9.9185   -3.7345    8.3681 C   0  0  0  0  0  0  0  0  0  0  0  0
    7.9411   -2.6900    6.2920 C   0  0  0  0  0  0  0  0  0  0  0  0
    7.2413   -3.8524    3.5758 C   0  0  0  0  0  0  0  0  0  0  0  0
    5.7718   -4.2256    3.8036 C   0  0  0  0  0  0  0  0  0  0  0  0
   -0.4094   -1.2167   -2.1791 Cl  0  0  0  0  0  0  0  0  0  0  0  0
    1.7220   -5.5538    4.8499 H   0  0  0  0  0  0  0  0  0  0  0  0
    1.2186   -5.3452    3.1206 H   0  0  0  0  0  0  0  0  0  0  0  0
    2.2621   -4.1193    3.9512 H   0  0  0  0  0  0  0  0  0  0  0  0
    2.7772   -7.6900    4.5060 H   0  0  0  0  0  0  0  0  0  0  0  0
    3.9220   -7.9365    3.1549 H   0  0  0  0  0  0  0  0  0  0  0  0
    2.1647   -7.6620    2.8025 H   0  0  0  0  0  0  0  0  0  0  0  0
    2.9370   -5.7615    1.3145 H   0  0  0  0  0  0  0  0  0  0  0  0
    4.6370   -6.0775    1.7916 H   0  0  0  0  0  0  0  0  0  0  0  0
    4.6557   -1.6903    3.9269 H   0  0  0  0  0  0  0  0  0  0  0  0
    4.4702   -1.4691    2.1869 H   0  0  0  0  0  0  0  0  0  0  0  0
    6.6708   -0.4801    2.9247 H   0  0  0  0  0  0  0  0  0  0  0  0
    6.8860   -1.8383    1.7854 H   0  0  0  0  0  0  0  0  0  0  0  0
    8.5285   -2.0991    3.5943 H   0  0  0  0  0  0  0  0  0  0  0  0
    5.8433   -0.3341    5.0255 H   0  0  0  0  0  0  0  0  0  0  0  0
    5.4539    0.0696    7.2676 H   0  0  0  0  0  0  0  0  0  0  0  0
    7.2087   -1.5138   10.1438 H   0  0  0  0  0  0  0  0  0  0  0  0
    3.9602    1.1045   13.9237 H   0  0  0  0  0  0  0  0  0  0  0  0
    3.5329    0.9554   11.3821 H   0  0  0  0  0  0  0  0  0  0  0  0
    6.7639   -3.7008    9.8822 H   0  0  0  0  0  0  0  0  0  0  0  0
    8.1588   -5.7486   10.6841 H   0  0  0  0  0  0  0  0  0  0  0  0
    8.2245   -4.3370   11.8015 H   0  0  0  0  0  0  0  0  0  0  0  0
   10.4927   -5.3660   11.3816 H   0  0  0  0  0  0  0  0  0  0  0  0
   10.3916   -3.6046   11.0026 H   0  0  0  0  0  0  0  0  0  0  0  0
   10.0413   -5.8404    8.9361 H   0  0  0  0  0  0  0  0  0  0  0  0
   11.5648   -4.9048    9.1630 H   0  0  0  0  0  0  0  0  0  0  0  0
   10.0978   -4.0835    7.3345 H   0  0  0  0  0  0  0  0  0  0  0  0
   10.5068   -2.8036    8.5191 H   0  0  0  0  0  0  0  0  0  0  0  0
    8.6300   -3.4484    5.9706 H   0  0  0  0  0  0  0  0  0  0  0  0
    7.8881   -4.4776    4.2222 H   0  0  0  0  0  0  0  0  0  0  0  0
    7.5147   -4.1004    2.5264 H   0  0  0  0  0  0  0  0  0  0  0  0
    5.4838   -4.0000    4.8530 H   0  0  0  0  0  0  0  0  0  0  0  0
    5.6796   -5.3185    3.6637 H   0  0  0  0  0  0  0  0  0  0  0  0
    0.9516   -1.1952   -1.9803 H   0  0  0  0  0  0  0  0  0  0  0  0
  1  2  1  0  0  0  0
  1 36  1  0  0  0  0
  1 37  1  0  0  0  0
  1 38  1  0  0  0  0
  2  3  1  0  0  0  0
  2  4  1  0  0  0  0
  3 39  1  0  0  0  0
  3 40  1  0  0  0  0
  3 41  1  0  0  0  0
  4  5  1  0  0  0  0
  4 42  1  0  0  0  0
  4 43  1  0  0  0  0
  5  6  2  0  0  0  0
  5  7  1  0  0  0  0
  7  8  1  0  0  0  0
  7 34  1  0  0  0  0
  8  9  1  0  0  0  0
  8 44  1  0  0  0  0
  8 45  1  0  0  0  0
  9 10  1  0  0  0  0
  9 46  1  0  0  0  0
  9 47  1  0  0  0  0
 10 11  1  0  0  0  0
 10 33  1  0  0  0  0
 10 48  1  0  0  0  0
 11 12  1  0  0  0  0
 11 32  2  0  0  0  0
 12 13  2  0  0  0  0
 12 49  1  0  0  0  0
 13 14  1  0  0  0  0
 13 50  1  0  0  0  0
 14 15  1  0  0  0  0
 14 25  2  0  0  0  0
 15 16  1  0  0  0  0
 15 51  1  0  0  0  0
 16 17  2  0  0  0  0
 16 18  1  0  0  0  0
 18 19  2  0  0  0  0
 18 24  1  0  0  0  0
 19 20  1  0  0  0  0
 20 21  1  0  0  0  0
 20 23  2  0  0  0  0
 21 22  3  0  0  0  0
 23 24  1  0  0  0  0
 23 52  1  0  0  0  0
 24 53  1  0  0  0  0
 25 26  1  0  0  0  0
 25 32  1  0  0  0  0
 26 27  2  0  0  0  0
 26 31  1  0  0  0  0
 27 28  1  0  0  0  0
 27 54  1  0  0  0  0
 28 29  1  0  0  0  0
 28 55  1  0  0  0  0
 28 56  1  0  0  0  0
 29 30  1  0  0  0  0
 29 57  1  0  0  0  0
 29 58  1  0  0  0  0
 30 31  1  0  0  0  0
 30 59  1  0  0  0  0
 30 60  1  0  0  0  0
 31 61  1  0  0  0  0
 31 62  1  0  0  0  0
 32 63  1  0  0  0  0
 33 34  1  0  0  0  0
 33 64  1  0  0  0  0
 33 65  1  0  0  0  0
 34 66  1  0  0  0  0
 34 67  1  0  0  0  0
 35 68  1  0  0  0  0
M  END
$$$$
