CHEMBL598633
 OpenBabel04072215383D

 37 40  0  0  0  0  0  0  0  0999 V2000
    1.1006   -0.5224    0.5717 O   0  0  0  0  0  0  0  0  0  0  0  0
    2.2291   -0.1908    0.2140 C   0  0  0  0  0  0  0  0  0  0  0  0
    2.9309   -0.8831   -0.9361 C   0  0  0  0  0  0  0  0  0  0  0  0
    4.1832   -1.5364   -0.4697 C   0  0  0  0  0  0  0  0  0  0  0  0
    4.3331   -2.9025   -0.4100 C   0  0  0  0  0  0  0  0  0  0  0  0
    5.4269   -3.5122    0.0780 N   0  0  0  0  0  0  0  0  0  0  0  0
    6.4208   -2.7200    0.5005 C   0  0  0  0  0  0  0  0  0  0  0  0
    7.5319   -3.3534    1.0496 N   0  0  0  0  0  0  0  0  0  0  0  0
    8.8529   -2.8868    1.1033 C   0  0  0  0  0  0  0  0  0  0  0  0
    9.7068   -3.3422    2.1169 C   0  0  0  0  0  0  0  0  0  0  0  0
   11.0054   -2.8353    2.2404 C   0  0  0  0  0  0  0  0  0  0  0  0
   11.4605   -1.8872    1.3294 C   0  0  0  0  0  0  0  0  0  0  0  0
   12.7160   -1.3626    1.4090 O   0  0  0  0  0  0  0  0  0  0  0  0
   10.6403   -1.4383    0.3062 C   0  0  0  0  0  0  0  0  0  0  0  0
    9.3406   -1.9315    0.2012 C   0  0  0  0  0  0  0  0  0  0  0  0
    6.3643   -1.3792    0.4665 N   0  0  0  0  0  0  0  0  0  0  0  0
    5.2486   -0.7880   -0.0125 C   0  0  0  0  0  0  0  0  0  0  0  0
    5.2122    0.6933    0.0196 C   0  0  0  0  0  0  0  0  0  0  0  0
    6.3476    1.3178   -0.4052 N   0  0  0  0  0  0  0  0  0  0  0  0
    6.3954    2.6660   -0.3471 C   0  0  0  0  0  0  0  0  0  0  0  0
    5.3702    3.4495    0.1478 C   0  0  0  0  0  0  0  0  0  0  0  0
    4.2158    2.8157    0.5906 C   0  0  0  0  0  0  0  0  0  0  0  0
    4.0995    1.4268    0.4769 C   0  0  0  0  0  0  0  0  0  0  0  0
    2.8420    0.8810    0.8038 N   0  0  0  0  0  0  0  0  0  0  0  0
    3.1409   -0.1549   -1.7299 H   0  0  0  0  0  0  0  0  0  0  0  0
    2.2463   -1.6179   -1.3739 H   0  0  0  0  0  0  0  0  0  0  0  0
    3.5521   -3.5761   -0.7531 H   0  0  0  0  0  0  0  0  0  0  0  0
    7.4144   -4.3557    1.0382 H   0  0  0  0  0  0  0  0  0  0  0  0
    9.3477   -4.0642    2.8463 H   0  0  0  0  0  0  0  0  0  0  0  0
   11.6338   -3.1793    3.0549 H   0  0  0  0  0  0  0  0  0  0  0  0
   13.1521   -1.7287    2.1935 H   0  0  0  0  0  0  0  0  0  0  0  0
   10.9960   -0.6971   -0.4024 H   0  0  0  0  0  0  0  0  0  0  0  0
    8.7094   -1.5594   -0.6026 H   0  0  0  0  0  0  0  0  0  0  0  0
    7.3108    3.1137   -0.7247 H   0  0  0  0  0  0  0  0  0  0  0  0
    5.4566    4.5305    0.1659 H   0  0  0  0  0  0  0  0  0  0  0  0
    3.3893    3.4186    0.9580 H   0  0  0  0  0  0  0  0  0  0  0  0
    2.2219    1.4135    1.4035 H   0  0  0  0  0  0  0  0  0  0  0  0
  1  2  2  0  0  0  0
  2  3  1  0  0  0  0
  2 24  1  0  0  0  0
  3  4  1  0  0  0  0
  3 25  1  0  0  0  0
  3 26  1  0  0  0  0
  4  5  1  0  0  0  0
  4 17  2  0  0  0  0
  5  6  2  0  0  0  0
  5 27  1  0  0  0  0
  6  7  1  0  0  0  0
  7  8  1  0  0  0  0
  7 16  2  0  0  0  0
  8  9  1  0  0  0  0
  8 28  1  0  0  0  0
  9 10  1  0  0  0  0
  9 15  2  0  0  0  0
 10 11  2  0  0  0  0
 10 29  1  0  0  0  0
 11 12  1  0  0  0  0
 11 30  1  0  0  0  0
 12 13  1  0  0  0  0
 12 14  2  0  0  0  0
 13 31  1  0  0  0  0
 14 15  1  0  0  0  0
 14 32  1  0  0  0  0
 15 33  1  0  0  0  0
 16 17  1  0  0  0  0
 17 18  1  0  0  0  0
 18 19  1  0  0  0  0
 18 23  2  0  0  0  0
 19 20  2  0  0  0  0
 20 21  1  0  0  0  0
 20 34  1  0  0  0  0
 21 22  2  0  0  0  0
 21 35  1  0  0  0  0
 22 23  1  0  0  0  0
 22 36  1  0  0  0  0
 23 24  1  0  0  0  0
 24 37  1  0  0  0  0
M  END
$$$$
