CHEMBL3915268
 OpenBabel04072215373D

 67 71  0  0  0  0  0  0  0  0999 V2000
    0.5828    3.5665    2.3094 C   0  0  0  0  0  0  0  0  0  0  0  0
    1.9711    3.9049    2.2485 O   0  0  0  0  0  0  0  0  0  0  0  0
    2.8443    2.9110    1.8655 C   0  0  0  0  0  0  0  0  0  0  0  0
    2.4562    1.6007    1.5778 C   0  0  0  0  0  0  0  0  0  0  0  0
    3.4016    0.6841    1.1258 C   0  0  0  0  0  0  0  0  0  0  0  0
    3.1532   -0.6170    0.7705 O   0  0  0  0  0  0  0  0  0  0  0  0
    1.8221   -1.0892    0.9358 C   0  0  0  0  0  0  0  0  0  0  0  0
    4.7357    1.0808    0.9641 C   0  0  0  0  0  0  0  0  0  0  0  0
    5.1727    2.3881    1.2356 C   0  0  0  0  0  0  0  0  0  0  0  0
    6.4669    2.8391    0.8575 N   0  0  0  0  0  0  0  0  0  0  0  0
    7.0090    2.2519   -0.4381 C   0  0  0  0  0  0  0  0  0  0  0  0
    6.1315    2.5026   -1.6908 C   0  0  0  0  0  0  0  0  0  0  0  0
    6.7218    1.9221   -3.0307 C   0  0  0  0  0  0  0  0  0  0  0  0
    5.7841    2.2363   -4.2211 C   0  0  0  0  0  0  0  0  0  0  0  0
    4.5304    1.3561   -4.2205 C   0  0  0  0  0  0  0  0  0  0  0  0
    4.8658   -0.0691   -4.2109 N   0  0  0  0  0  0  0  0  0  0  0  0
    5.7060   -0.4109   -3.0612 C   0  0  0  0  0  0  0  0  0  0  0  0
    6.9905    0.4186   -3.0238 C   0  0  0  0  0  0  0  0  0  0  0  0
    7.5698    3.2868    1.6716 C   0  0  0  0  0  0  0  0  0  0  0  0
    8.3571    4.2761    1.0827 C   0  0  0  0  0  0  0  0  0  0  0  0
    9.6842    4.4136    1.4335 C   0  0  0  0  0  0  0  0  0  0  0  0
   10.2323    3.7130    2.4736 C   0  0  0  0  0  0  0  0  0  0  0  0
   11.5585    3.8085    2.5629 N   0  0  0  0  0  0  0  0  0  0  0  0
   12.1316    3.3061    3.6632 C   0  0  0  0  0  0  0  0  0  0  0  0
   11.3898    2.7895    4.6998 C   0  0  0  0  0  0  0  0  0  0  0  0
   12.0905    2.6910    5.9800 C   0  0  0  0  0  0  0  0  0  0  0  0
   12.0710    3.5921    7.0769 C   0  0  0  0  0  0  0  0  0  0  0  0
   13.0450    3.3605    7.9657 N   0  0  0  0  0  0  0  0  0  0  0  0
   13.7036    2.3128    7.4431 N   0  0  0  0  0  0  0  0  0  0  0  0
   14.7011    1.6139    8.2213 C   0  0  0  0  0  0  0  0  0  0  0  0
   13.2626    1.9780    6.1903 C   0  0  0  0  0  0  0  0  0  0  0  0
   10.0299    2.5668    4.5591 N   0  0  0  0  0  0  0  0  0  0  0  0
    9.4103    2.9762    3.3646 C   0  0  0  0  0  0  0  0  0  0  0  0
    8.0596    2.7296    2.8865 C   0  0  0  0  0  0  0  0  0  0  0  0
    4.1982    3.2919    1.7109 C   0  0  0  0  0  0  0  0  0  0  0  0
    0.0147    4.4795    2.5154 H   0  0  0  0  0  0  0  0  0  0  0  0
    0.3865    2.8629    3.1265 H   0  0  0  0  0  0  0  0  0  0  0  0
    0.2133    3.1682    1.3564 H   0  0  0  0  0  0  0  0  0  0  0  0
    1.4190    1.2980    1.6873 H   0  0  0  0  0  0  0  0  0  0  0  0
    1.8068   -2.1475    0.6593 H   0  0  0  0  0  0  0  0  0  0  0  0
    1.1287   -0.5607    0.2726 H   0  0  0  0  0  0  0  0  0  0  0  0
    1.5044   -1.0141    1.9809 H   0  0  0  0  0  0  0  0  0  0  0  0
    5.4306    0.3412    0.5798 H   0  0  0  0  0  0  0  0  0  0  0  0
    7.2082    1.1872   -0.2900 H   0  0  0  0  0  0  0  0  0  0  0  0
    7.9858    2.6849   -0.6898 H   0  0  0  0  0  0  0  0  0  0  0  0
    6.0138    3.5894   -1.8142 H   0  0  0  0  0  0  0  0  0  0  0  0
    5.1243    2.1091   -1.5350 H   0  0  0  0  0  0  0  0  0  0  0  0
    7.6711    2.4483   -3.2086 H   0  0  0  0  0  0  0  0  0  0  0  0
    6.3344    2.0572   -5.1552 H   0  0  0  0  0  0  0  0  0  0  0  0
    5.4973    3.2940   -4.2301 H   0  0  0  0  0  0  0  0  0  0  0  0
    3.9353    1.5684   -5.1163 H   0  0  0  0  0  0  0  0  0  0  0  0
    3.8875    1.5916   -3.3651 H   0  0  0  0  0  0  0  0  0  0  0  0
    5.3650   -0.2991   -5.0704 H   0  0  0  0  0  0  0  0  0  0  0  0
    5.9635   -1.4750   -3.1223 H   0  0  0  0  0  0  0  0  0  0  0  0
    5.1361   -0.2832   -2.1349 H   0  0  0  0  0  0  0  0  0  0  0  0
    7.5861    0.1735   -3.9140 H   0  0  0  0  0  0  0  0  0  0  0  0
    7.6029    0.1254   -2.1676 H   0  0  0  0  0  0  0  0  0  0  0  0
    7.9806    4.8447    0.2391 H   0  0  0  0  0  0  0  0  0  0  0  0
   10.3241    5.0565    0.8422 H   0  0  0  0  0  0  0  0  0  0  0  0
   13.2112    3.4021    3.7073 H   0  0  0  0  0  0  0  0  0  0  0  0
   11.4211    4.4433    7.2410 H   0  0  0  0  0  0  0  0  0  0  0  0
   14.7990    2.0774    9.2073 H   0  0  0  0  0  0  0  0  0  0  0  0
   15.6598    1.6394    7.6974 H   0  0  0  0  0  0  0  0  0  0  0  0
   14.3583    0.5822    8.3377 H   0  0  0  0  0  0  0  0  0  0  0  0
   13.8092    1.2721    5.5809 H   0  0  0  0  0  0  0  0  0  0  0  0
    7.4363    2.0378    3.4537 H   0  0  0  0  0  0  0  0  0  0  0  0
    4.4684    4.3293    1.8910 H   0  0  0  0  0  0  0  0  0  0  0  0
  1  2  1  0  0  0  0
  1 36  1  0  0  0  0
  1 37  1  0  0  0  0
  1 38  1  0  0  0  0
  2  3  1  0  0  0  0
  3  4  1  0  0  0  0
  3 35  2  0  0  0  0
  4  5  2  0  0  0  0
  4 39  1  0  0  0  0
  5  6  1  0  0  0  0
  5  8  1  0  0  0  0
  6  7  1  0  0  0  0
  7 40  1  0  0  0  0
  7 41  1  0  0  0  0
  7 42  1  0  0  0  0
  8  9  2  0  0  0  0
  8 43  1  0  0  0  0
  9 10  1  0  0  0  0
  9 35  1  0  0  0  0
 10 11  1  0  0  0  0
 10 19  1  0  0  0  0
 11 12  1  0  0  0  0
 11 44  1  0  0  0  0
 11 45  1  0  0  0  0
 12 13  1  0  0  0  0
 12 46  1  0  0  0  0
 12 47  1  0  0  0  0
 13 14  1  0  0  0  0
 13 18  1  0  0  0  0
 13 48  1  0  0  0  0
 14 15  1  0  0  0  0
 14 49  1  0  0  0  0
 14 50  1  0  0  0  0
 15 16  1  0  0  0  0
 15 51  1  0  0  0  0
 15 52  1  0  0  0  0
 16 17  1  0  0  0  0
 16 53  1  0  0  0  0
 17 18  1  0  0  0  0
 17 54  1  0  0  0  0
 17 55  1  0  0  0  0
 18 56  1  0  0  0  0
 18 57  1  0  0  0  0
 19 20  1  0  0  0  0
 19 34  2  0  0  0  0
 20 21  2  0  0  0  0
 20 58  1  0  0  0  0
 21 22  1  0  0  0  0
 21 59  1  0  0  0  0
 22 23  1  0  0  0  0
 22 33  2  0  0  0  0
 23 24  2  0  0  0  0
 24 25  1  0  0  0  0
 24 60  1  0  0  0  0
 25 26  1  0  0  0  0
 25 32  2  0  0  0  0
 26 27  1  0  0  0  0
 26 31  2  0  0  0  0
 27 28  2  0  0  0  0
 27 61  1  0  0  0  0
 28 29  1  0  0  0  0
 29 30  1  0  0  0  0
 29 31  1  0  0  0  0
 30 62  1  0  0  0  0
 30 63  1  0  0  0  0
 30 64  1  0  0  0  0
 31 65  1  0  0  0  0
 32 33  1  0  0  0  0
 33 34  1  0  0  0  0
 34 66  1  0  0  0  0
 35 67  1  0  0  0  0
M  END
$$$$
