CHEMBL2016906
 OpenBabel04072215363D

 53 56  0  0  0  0  0  0  0  0999 V2000
    3.0436    4.8483    4.8698 C   0  0  0  0  0  0  0  0  0  0  0  0
    3.2759    3.6132    4.0041 C   0  0  0  0  0  0  0  0  0  0  0  0
    3.9616    2.4827    4.6599 N   0  0  0  0  0  0  0  0  0  0  0  0
    3.2949    2.0246    5.8957 C   0  0  0  0  0  0  0  0  0  0  0  0
    1.9021    1.4243    5.6973 C   0  0  0  0  0  0  0  0  0  0  0  0
    4.1395    1.3656    3.6939 C   0  0  0  0  0  0  0  0  0  0  0  0
    4.9890    1.7613    2.4594 C   0  0  0  0  0  0  0  0  0  0  0  0
    4.4435    2.1021    1.4087 O   0  0  0  0  0  0  0  0  0  0  0  0
    6.3844    1.7080    2.5960 N   0  0  0  0  0  0  0  0  0  0  0  0
    7.1780    2.1014    1.4029 C   0  0  0  0  0  0  0  0  0  0  0  0
    8.7033    2.2920    1.5097 C   0  0  0  0  0  0  0  0  0  0  0  0
    9.1858    2.1759    2.8897 C   0  0  0  0  0  0  0  0  0  0  0  0
   10.4790    2.3392    3.2887 N   0  0  0  0  0  0  0  0  0  0  0  0
   10.4787    2.1199    4.5964 C   0  0  0  0  0  0  0  0  0  0  0  0
   11.5547    2.1410    5.5230 C   0  0  0  0  0  0  0  0  0  0  0  0
   12.7656    2.5261    5.0812 C   0  0  0  0  0  0  0  0  0  0  0  0
   13.9219    2.5345    5.9700 C   0  0  0  0  0  0  0  0  0  0  0  0
   15.1786    2.9515    5.5258 C   0  0  0  0  0  0  0  0  0  0  0  0
   16.2688    2.9283    6.3978 C   0  0  0  0  0  0  0  0  0  0  0  0
   16.1080    2.4838    7.7105 C   0  0  0  0  0  0  0  0  0  0  0  0
   14.8547    2.0661    8.1605 C   0  0  0  0  0  0  0  0  0  0  0  0
   13.7696    2.0981    7.2928 C   0  0  0  0  0  0  0  0  0  0  0  0
   12.5006    1.6988    7.7438 N   0  0  0  0  0  0  0  0  0  0  0  0
   11.3821    1.7266    6.9570 C   0  0  0  0  0  0  0  0  0  0  0  0
   10.2844    1.4100    7.4194 O   0  0  0  0  0  0  0  0  0  0  0  0
    9.2041    1.8240    5.0306 N   0  0  0  0  0  0  0  0  0  0  0  0
    8.3823    1.9009    3.9476 C   0  0  0  0  0  0  0  0  0  0  0  0
    6.9288    1.7580    3.9543 C   0  0  0  0  0  0  0  0  0  0  0  0
    2.7674    5.6918    4.2238 H   0  0  0  0  0  0  0  0  0  0  0  0
    3.9436    5.1363    5.4208 H   0  0  0  0  0  0  0  0  0  0  0  0
    2.2230    4.7015    5.5790 H   0  0  0  0  0  0  0  0  0  0  0  0
    3.8876    3.9575    3.1631 H   0  0  0  0  0  0  0  0  0  0  0  0
    2.3171    3.2923    3.5837 H   0  0  0  0  0  0  0  0  0  0  0  0
    3.2250    2.8541    6.6066 H   0  0  0  0  0  0  0  0  0  0  0  0
    3.9303    1.2867    6.3949 H   0  0  0  0  0  0  0  0  0  0  0  0
    1.3137    1.9706    4.9564 H   0  0  0  0  0  0  0  0  0  0  0  0
    1.3444    1.4613    6.6382 H   0  0  0  0  0  0  0  0  0  0  0  0
    1.9666    0.3802    5.3790 H   0  0  0  0  0  0  0  0  0  0  0  0
    3.1764    1.0124    3.3150 H   0  0  0  0  0  0  0  0  0  0  0  0
    4.6136    0.5062    4.1802 H   0  0  0  0  0  0  0  0  0  0  0  0
    6.7427    3.0279    1.0074 H   0  0  0  0  0  0  0  0  0  0  0  0
    6.9789    1.3421    0.6309 H   0  0  0  0  0  0  0  0  0  0  0  0
    8.9729    3.2720    1.0998 H   0  0  0  0  0  0  0  0  0  0  0  0
    9.2173    1.5456    0.8885 H   0  0  0  0  0  0  0  0  0  0  0  0
   12.9145    2.8220    4.0445 H   0  0  0  0  0  0  0  0  0  0  0  0
   15.3206    3.2957    4.5041 H   0  0  0  0  0  0  0  0  0  0  0  0
   17.2457    3.2598    6.0531 H   0  0  0  0  0  0  0  0  0  0  0  0
   16.9590    2.4662    8.3857 H   0  0  0  0  0  0  0  0  0  0  0  0
   14.7408    1.7215    9.1845 H   0  0  0  0  0  0  0  0  0  0  0  0
   12.3799    1.3997    8.7015 H   0  0  0  0  0  0  0  0  0  0  0  0
    8.9534    1.5985    5.9887 H   0  0  0  0  0  0  0  0  0  0  0  0
    6.4904    2.6208    4.4607 H   0  0  0  0  0  0  0  0  0  0  0  0
    6.6488    0.8415    4.4808 H   0  0  0  0  0  0  0  0  0  0  0  0
  1  2  1  0  0  0  0
  1 29  1  0  0  0  0
  1 30  1  0  0  0  0
  1 31  1  0  0  0  0
  2  3  1  0  0  0  0
  2 32  1  0  0  0  0
  2 33  1  0  0  0  0
  3  4  1  0  0  0  0
  3  6  1  0  0  0  0
  4  5  1  0  0  0  0
  4 34  1  0  0  0  0
  4 35  1  0  0  0  0
  5 36  1  0  0  0  0
  5 37  1  0  0  0  0
  5 38  1  0  0  0  0
  6  7  1  0  0  0  0
  6 39  1  0  0  0  0
  6 40  1  0  0  0  0
  7  8  2  0  0  0  0
  7  9  1  0  0  0  0
  9 10  1  0  0  0  0
  9 28  1  0  0  0  0
 10 11  1  0  0  0  0
 10 41  1  0  0  0  0
 10 42  1  0  0  0  0
 11 12  1  0  0  0  0
 11 43  1  0  0  0  0
 11 44  1  0  0  0  0
 12 13  1  0  0  0  0
 12 27  2  0  0  0  0
 13 14  2  0  0  0  0
 14 15  1  0  0  0  0
 14 26  1  0  0  0  0
 15 16  2  0  0  0  0
 15 24  1  0  0  0  0
 16 17  1  0  0  0  0
 16 45  1  0  0  0  0
 17 18  1  0  0  0  0
 17 22  2  0  0  0  0
 18 19  2  0  0  0  0
 18 46  1  0  0  0  0
 19 20  1  0  0  0  0
 19 47  1  0  0  0  0
 20 21  2  0  0  0  0
 20 48  1  0  0  0  0
 21 22  1  0  0  0  0
 21 49  1  0  0  0  0
 22 23  1  0  0  0  0
 23 24  1  0  0  0  0
 23 50  1  0  0  0  0
 24 25  2  0  0  0  0
 26 27  1  0  0  0  0
 26 51  1  0  0  0  0
 27 28  1  0  0  0  0
 28 52  1  0  0  0  0
 28 53  1  0  0  0  0
M  END
$$$$
