CHEMBL3907284
 OpenBabel04072215373D

 52 55  0  0  0  0  0  0  0  0999 V2000
   -0.6566    0.1274   -1.2901 C   0  0  0  0  0  0  0  0  0  0  0  0
    0.7258    0.4520   -0.7549 C   0  0  0  0  0  0  0  0  0  0  0  0
    1.5360    1.1315   -1.7400 N   0  0  0  0  0  0  0  0  0  0  0  0
    2.2769    0.4437   -2.6803 C   0  0  0  0  0  0  0  0  0  0  0  0
    2.2845   -0.7820   -2.7290 O   0  0  0  0  0  0  0  0  0  0  0  0
    3.0656    1.2625   -3.5911 C   0  0  0  0  0  0  0  0  0  0  0  0
    3.8982    0.8041   -4.5950 C   0  0  0  0  0  0  0  0  0  0  0  0
    4.5842    1.8532   -5.2692 C   0  0  0  0  0  0  0  0  0  0  0  0
    5.4822    1.6776   -6.2750 N   0  0  0  0  0  0  0  0  0  0  0  0
    6.0848    2.7936   -6.7193 C   0  0  0  0  0  0  0  0  0  0  0  0
    5.8434    4.0698   -6.2471 C   0  0  0  0  0  0  0  0  0  0  0  0
    4.8535    4.2569   -5.2806 C   0  0  0  0  0  0  0  0  0  0  0  0
    4.5015    5.4796   -4.7541 O   0  0  0  0  0  0  0  0  0  0  0  0
    4.5106    6.5922   -5.5603 C   0  0  0  0  0  0  0  0  0  0  0  0
    4.8277    7.7986   -4.9295 C   0  0  0  0  0  0  0  0  0  0  0  0
    4.9553    8.9674   -5.6759 C   0  0  0  0  0  0  0  0  0  0  0  0
    4.7575    8.9252   -7.0525 C   0  0  0  0  0  0  0  0  0  0  0  0
    4.3665    7.7306   -7.6744 C   0  0  0  0  0  0  0  0  0  0  0  0
    4.2542    7.7190   -9.1474 C   0  0  0  0  0  0  0  0  0  0  0  0
    4.9999    8.4699   -9.7580 O   0  0  0  0  0  0  0  0  0  0  0  0
    3.2801    6.8958   -9.6871 N   0  0  0  0  0  0  0  0  0  0  0  0
    2.9711    6.8471  -11.0677 C   0  0  0  0  0  0  0  0  0  0  0  0
    3.8498    7.3055  -12.0495 C   0  0  0  0  0  0  0  0  0  0  0  0
    3.4544    7.4085  -13.3879 C   0  0  0  0  0  0  0  0  0  0  0  0
    4.4042    7.9896  -14.3933 C   0  0  0  0  0  0  0  0  0  0  0  0
    2.1622    7.0156  -13.7493 C   0  0  0  0  0  0  0  0  0  0  0  0
    1.3026    6.4699  -12.7924 C   0  0  0  0  0  0  0  0  0  0  0  0
    1.7169    6.3758  -11.4653 C   0  0  0  0  0  0  0  0  0  0  0  0
    0.8711    5.8745  -10.5506 F   0  0  0  0  0  0  0  0  0  0  0  0
    4.2128    6.5658   -6.9244 C   0  0  0  0  0  0  0  0  0  0  0  0
    4.2453    3.1045   -4.7638 C   0  0  0  0  0  0  0  0  0  0  0  0
    3.0675    2.9708   -3.5207 S   0  0  0  0  0  0  0  0  0  0  0  0
   -1.2434   -0.4003   -0.5317 H   0  0  0  0  0  0  0  0  0  0  0  0
   -0.5992   -0.5055   -2.1814 H   0  0  0  0  0  0  0  0  0  0  0  0
   -1.1928    1.0417   -1.5643 H   0  0  0  0  0  0  0  0  0  0  0  0
    1.2317   -0.4670   -0.4416 H   0  0  0  0  0  0  0  0  0  0  0  0
    0.6491    1.1125    0.1147 H   0  0  0  0  0  0  0  0  0  0  0  0
    1.5280    2.1419   -1.7778 H   0  0  0  0  0  0  0  0  0  0  0  0
    4.0357   -0.2469   -4.8171 H   0  0  0  0  0  0  0  0  0  0  0  0
    6.8124    2.6314   -7.5115 H   0  0  0  0  0  0  0  0  0  0  0  0
    6.4122    4.9005   -6.6516 H   0  0  0  0  0  0  0  0  0  0  0  0
    5.0028    7.8230   -3.8567 H   0  0  0  0  0  0  0  0  0  0  0  0
    5.2362    9.9013   -5.1951 H   0  0  0  0  0  0  0  0  0  0  0  0
    4.9137    9.8232   -7.6485 H   0  0  0  0  0  0  0  0  0  0  0  0
    2.5836    6.4899   -9.0714 H   0  0  0  0  0  0  0  0  0  0  0  0
    4.8611    7.6043  -11.7905 H   0  0  0  0  0  0  0  0  0  0  0  0
    5.4078    8.1093  -13.9682 H   0  0  0  0  0  0  0  0  0  0  0  0
    4.0565    8.9766  -14.7127 H   0  0  0  0  0  0  0  0  0  0  0  0
    4.4924    7.3295  -15.2604 H   0  0  0  0  0  0  0  0  0  0  0  0
    1.8220    7.1326  -14.7757 H   0  0  0  0  0  0  0  0  0  0  0  0
    0.3051    6.1445  -13.0693 H   0  0  0  0  0  0  0  0  0  0  0  0
    3.9349    5.6359   -7.4102 H   0  0  0  0  0  0  0  0  0  0  0  0
  1  2  1  0  0  0  0
  1 33  1  0  0  0  0
  1 34  1  0  0  0  0
  1 35  1  0  0  0  0
  2  3  1  0  0  0  0
  2 36  1  0  0  0  0
  2 37  1  0  0  0  0
  3  4  1  0  0  0  0
  3 38  1  0  0  0  0
  4  5  2  0  0  0  0
  4  6  1  0  0  0  0
  6  7  2  0  0  0  0
  6 32  1  0  0  0  0
  7  8  1  0  0  0  0
  7 39  1  0  0  0  0
  8  9  1  0  0  0  0
  8 31  2  0  0  0  0
  9 10  2  0  0  0  0
 10 11  1  0  0  0  0
 10 40  1  0  0  0  0
 11 12  2  0  0  0  0
 11 41  1  0  0  0  0
 12 13  1  0  0  0  0
 12 31  1  0  0  0  0
 13 14  1  0  0  0  0
 14 15  1  0  0  0  0
 14 30  2  0  0  0  0
 15 16  2  0  0  0  0
 15 42  1  0  0  0  0
 16 17  1  0  0  0  0
 16 43  1  0  0  0  0
 17 18  2  0  0  0  0
 17 44  1  0  0  0  0
 18 19  1  0  0  0  0
 18 30  1  0  0  0  0
 19 20  2  0  0  0  0
 19 21  1  0  0  0  0
 21 22  1  0  0  0  0
 21 45  1  0  0  0  0
 22 23  1  0  0  0  0
 22 28  2  0  0  0  0
 23 24  2  0  0  0  0
 23 46  1  0  0  0  0
 24 25  1  0  0  0  0
 24 26  1  0  0  0  0
 25 47  1  0  0  0  0
 25 48  1  0  0  0  0
 25 49  1  0  0  0  0
 26 27  2  0  0  0  0
 26 50  1  0  0  0  0
 27 28  1  0  0  0  0
 27 51  1  0  0  0  0
 28 29  1  0  0  0  0
 30 52  1  0  0  0  0
 31 32  1  0  0  0  0
M  END
$$$$
