CHEMBL2105709
 OpenBabel04072215363D

 76 79  0  0  0  0  0  0  0  0999 V2000
    1.1182    3.4166   -4.9398 C   0  0  0  0  0  0  0  0  0  0  0  0
    1.3953    2.6638   -3.6233 C   0  0  0  0  0  0  0  0  0  0  0  0
    2.5830    3.3264   -2.9036 C   0  0  0  0  0  0  0  0  0  0  0  0
    0.1545    2.7695   -2.7018 C   0  0  0  0  0  0  0  0  0  0  0  0
    1.7046    1.2000   -3.9068 C   0  0  0  0  0  0  0  0  0  0  0  0
    2.7767    0.6885   -4.6382 C   0  0  0  0  0  0  0  0  0  0  0  0
    2.6158   -0.6832   -4.5510 C   0  0  0  0  0  0  0  0  0  0  0  0
    3.5041   -1.6720   -5.0782 N   0  0  0  0  0  0  0  0  0  0  0  0
    3.2958   -3.0227   -4.9034 C   0  0  0  0  0  0  0  0  0  0  0  0
    2.3118   -3.3981   -4.2961 O   0  0  0  0  0  0  0  0  0  0  0  0
    4.1933   -3.9387   -5.4042 N   0  0  0  0  0  0  0  0  0  0  0  0
    4.1565   -5.3832   -5.2539 C   0  0  0  0  0  0  0  0  0  0  0  0
    3.1406   -6.1109   -4.5717 C   0  0  0  0  0  0  0  0  0  0  0  0
    3.1869   -7.5172   -4.4679 C   0  0  0  0  0  0  0  0  0  0  0  0
    4.2405   -8.2468   -5.0383 C   0  0  0  0  0  0  0  0  0  0  0  0
    4.2046   -9.7381   -5.1660 C   0  0  0  0  0  0  0  0  0  0  0  0
    3.1652  -10.6250   -4.7637 C   0  0  0  0  0  0  0  0  0  0  0  0
    3.1647  -11.5736   -5.7227 N   0  0  0  0  0  0  0  0  0  0  0  0
    4.2581  -11.3871   -6.4509 C   0  0  0  0  0  0  0  0  0  0  0  0
    4.9383  -10.2933   -6.1521 N   0  0  0  0  0  0  0  0  0  0  0  0
    4.3740  -12.2611   -7.8545 S   0  0  0  0  0  0  0  0  0  0  0  0
    2.8070  -12.8069   -7.5411 C   0  0  0  0  0  0  0  0  0  0  0  0
    2.0370  -13.2910   -8.5353 C   0  0  0  0  0  0  0  0  0  0  0  0
    0.6396  -13.4005   -8.3872 C   0  0  0  0  0  0  0  0  0  0  0  0
   -0.1338  -13.5127   -9.5449 O   0  0  0  0  0  0  0  0  0  0  0  0
    0.5219  -13.3483  -10.7914 C   0  0  0  0  0  0  0  0  0  0  0  0
   -0.1526  -12.9934  -12.1354 C   0  0  0  0  0  0  0  0  0  0  0  0
   -1.1861  -13.9017  -12.6662 N   0  0  0  0  0  0  0  0  0  0  0  0
   -0.8809  -15.3438  -12.5912 C   0  0  0  0  0  0  0  0  0  0  0  0
    0.1216  -15.7910  -13.6719 C   0  0  0  0  0  0  0  0  0  0  0  0
   -0.3538  -15.4701  -14.9639 O   0  0  0  0  0  0  0  0  0  0  0  0
   -0.4825  -14.0683  -15.0778 C   0  0  0  0  0  0  0  0  0  0  0  0
   -1.5269  -13.5376  -14.0651 C   0  0  0  0  0  0  0  0  0  0  0  0
    0.1090  -13.2489   -7.0583 C   0  0  0  0  0  0  0  0  0  0  0  0
    0.9517  -12.7679   -5.9914 C   0  0  0  0  0  0  0  0  0  0  0  0
    2.2930  -12.4455   -6.3109 C   0  0  0  0  0  0  0  0  0  0  0  0
    5.2397   -7.5268   -5.7287 C   0  0  0  0  0  0  0  0  0  0  0  0
    5.1987   -6.1313   -5.8280 C   0  0  0  0  0  0  0  0  0  0  0  0
    1.5116   -0.9374   -3.8392 N   0  0  0  0  0  0  0  0  0  0  0  0
    0.9945    0.1907   -3.4778 O   0  0  0  0  0  0  0  0  0  0  0  0
   -0.5066   -1.2996    1.6285 Cl  0  0  0  0  0  0  0  0  0  0  0  0
    0.7538   -2.8829   -1.3441 Cl  0  0  0  0  0  0  0  0  0  0  0  0
    0.9491    4.4968   -4.7509 H   0  0  0  0  0  0  0  0  0  0  0  0
    0.2259    3.0053   -5.4530 H   0  0  0  0  0  0  0  0  0  0  0  0
    1.9902    3.3244   -5.6267 H   0  0  0  0  0  0  0  0  0  0  0  0
    2.3541    4.3903   -2.6715 H   0  0  0  0  0  0  0  0  0  0  0  0
    3.4929    3.3048   -3.5425 H   0  0  0  0  0  0  0  0  0  0  0  0
    2.8060    2.8026   -1.9483 H   0  0  0  0  0  0  0  0  0  0  0  0
   -0.0755    3.8323   -2.4611 H   0  0  0  0  0  0  0  0  0  0  0  0
    0.3452    2.2421   -1.7374 H   0  0  0  0  0  0  0  0  0  0  0  0
   -0.7405    2.3180   -3.1722 H   0  0  0  0  0  0  0  0  0  0  0  0
    3.5769    1.2422   -5.1049 H   0  0  0  0  0  0  0  0  0  0  0  0
    4.3396   -1.3533   -5.5942 H   0  0  0  0  0  0  0  0  0  0  0  0
    4.9975   -3.5536   -5.9242 H   0  0  0  0  0  0  0  0  0  0  0  0
    2.2843   -5.6392   -4.1313 H   0  0  0  0  0  0  0  0  0  0  0  0
    2.3644   -8.0328   -3.9906 H   0  0  0  0  0  0  0  0  0  0  0  0
    2.3594  -10.4395   -4.0697 H   0  0  0  0  0  0  0  0  0  0  0  0
    2.5501  -13.3911   -9.4719 H   0  0  0  0  0  0  0  0  0  0  0  0
    1.1679  -14.2325  -10.9516 H   0  0  0  0  0  0  0  0  0  0  0  0
    1.1505  -12.4270  -10.7032 H   0  0  0  0  0  0  0  0  0  0  0  0
    0.7064  -12.9552  -12.8497 H   0  0  0  0  0  0  0  0  0  0  0  0
   -0.5622  -11.9592  -12.1018 H   0  0  0  0  0  0  0  0  0  0  0  0
   -1.8306  -15.8948  -12.7560 H   0  0  0  0  0  0  0  0  0  0  0  0
   -0.5210  -15.6293  -11.5835 H   0  0  0  0  0  0  0  0  0  0  0  0
    0.2180  -16.8959  -13.6056 H   0  0  0  0  0  0  0  0  0  0  0  0
    1.1395  -15.3699  -13.5085 H   0  0  0  0  0  0  0  0  0  0  0  0
   -0.8334  -13.8311  -16.1053 H   0  0  0  0  0  0  0  0  0  0  0  0
    0.5122  -13.5768  -14.9822 H   0  0  0  0  0  0  0  0  0  0  0  0
   -2.5064  -13.9922  -14.3204 H   0  0  0  0  0  0  0  0  0  0  0  0
   -1.6316  -12.4358  -14.1862 H   0  0  0  0  0  0  0  0  0  0  0  0
   -0.9515  -13.3804   -6.8658 H   0  0  0  0  0  0  0  0  0  0  0  0
    0.5243  -12.5386   -5.0184 H   0  0  0  0  0  0  0  0  0  0  0  0
    6.0433   -8.0447   -6.2397 H   0  0  0  0  0  0  0  0  0  0  0  0
    5.9831   -5.6320   -6.3861 H   0  0  0  0  0  0  0  0  0  0  0  0
    0.7740   -0.8105    1.7441 H   0  0  0  0  0  0  0  0  0  0  0  0
    1.3778   -1.6967   -1.0288 H   0  0  0  0  0  0  0  0  0  0  0  0
  1  2  1  0  0  0  0
  1 43  1  0  0  0  0
  1 44  1  0  0  0  0
  1 45  1  0  0  0  0
  2  3  1  0  0  0  0
  2  4  1  0  0  0  0
  2  5  1  0  0  0  0
  3 46  1  0  0  0  0
  3 47  1  0  0  0  0
  3 48  1  0  0  0  0
  4 49  1  0  0  0  0
  4 50  1  0  0  0  0
  4 51  1  0  0  0  0
  5  6  2  0  0  0  0
  5 40  1  0  0  0  0
  6  7  1  0  0  0  0
  6 52  1  0  0  0  0
  7  8  1  0  0  0  0
  7 39  2  0  0  0  0
  8  9  1  0  0  0  0
  8 53  1  0  0  0  0
  9 10  2  0  0  0  0
  9 11  1  0  0  0  0
 11 12  1  0  0  0  0
 11 54  1  0  0  0  0
 12 13  1  0  0  0  0
 12 38  2  0  0  0  0
 13 14  2  0  0  0  0
 13 55  1  0  0  0  0
 14 15  1  0  0  0  0
 14 56  1  0  0  0  0
 15 16  1  0  0  0  0
 15 37  2  0  0  0  0
 16 17  2  0  0  0  0
 16 20  1  0  0  0  0
 17 18  1  0  0  0  0
 17 57  1  0  0  0  0
 18 19  1  0  0  0  0
 18 36  1  0  0  0  0
 19 20  2  0  0  0  0
 19 21  1  0  0  0  0
 21 22  1  0  0  0  0
 22 23  1  0  0  0  0
 22 36  2  0  0  0  0
 23 24  2  0  0  0  0
 23 58  1  0  0  0  0
 24 25  1  0  0  0  0
 24 34  1  0  0  0  0
 25 26  1  0  0  0  0
 26 27  1  0  0  0  0
 26 59  1  0  0  0  0
 26 60  1  0  0  0  0
 27 28  1  0  0  0  0
 27 61  1  0  0  0  0
 27 62  1  0  0  0  0
 28 29  1  0  0  0  0
 28 33  1  0  0  0  0
 29 30  1  0  0  0  0
 29 63  1  0  0  0  0
 29 64  1  0  0  0  0
 30 31  1  0  0  0  0
 30 65  1  0  0  0  0
 30 66  1  0  0  0  0
 31 32  1  0  0  0  0
 32 33  1  0  0  0  0
 32 67  1  0  0  0  0
 32 68  1  0  0  0  0
 33 69  1  0  0  0  0
 33 70  1  0  0  0  0
 34 35  2  0  0  0  0
 34 71  1  0  0  0  0
 35 36  1  0  0  0  0
 35 72  1  0  0  0  0
 37 38  1  0  0  0  0
 37 73  1  0  0  0  0
 38 74  1  0  0  0  0
 39 40  1  0  0  0  0
 41 75  1  0  0  0  0
 42 76  1  0  0  0  0
M  END
$$$$
