CHEMBL3897723
 OpenBabel04072215373D

 49 52  0  0  0  0  0  0  0  0999 V2000
    0.9137   -0.0416    0.0114 C   0  0  0  0  0  0  0  0  0  0  0  0
    2.1175   -0.2642    0.7349 O   0  0  0  0  0  0  0  0  0  0  0  0
    2.7221   -1.4809    0.5753 C   0  0  0  0  0  0  0  0  0  0  0  0
    2.2560   -2.5343   -0.2070 C   0  0  0  0  0  0  0  0  0  0  0  0
    2.9840   -3.7318   -0.2836 C   0  0  0  0  0  0  0  0  0  0  0  0
    4.1988   -3.8929    0.4019 C   0  0  0  0  0  0  0  0  0  0  0  0
    5.0032   -5.1311    0.3333 C   0  0  0  0  0  0  0  0  0  0  0  0
    5.0276   -5.9219   -0.7532 C   0  0  0  0  0  0  0  0  0  0  0  0
    5.8683   -7.1670   -0.8551 C   0  0  0  0  0  0  0  0  0  0  0  0
    6.9920   -7.2160   -0.1851 N   0  0  0  0  0  0  0  0  0  0  0  0
    7.8033   -8.3079   -0.3386 N   0  0  0  0  0  0  0  0  0  0  0  0
    9.2193   -8.0992   -0.1886 C   0  0  0  0  0  0  0  0  0  0  0  0
    9.7154   -6.9078    0.2224 N   0  0  0  0  0  0  0  0  0  0  0  0
   11.0567   -6.7296    0.4103 N   0  0  0  0  0  0  0  0  0  0  0  0
   11.8997   -7.7413    0.1372 C   0  0  0  0  0  0  0  0  0  0  0  0
   11.4767   -8.9799   -0.3261 C   0  0  0  0  0  0  0  0  0  0  0  0
   12.3958   -9.9946   -0.6579 C   0  0  0  0  0  0  0  0  0  0  0  0
   11.9537  -11.2376   -1.1068 C   0  0  0  0  0  0  0  0  0  0  0  0
   10.5908  -11.4881   -1.2034 C   0  0  0  0  0  0  0  0  0  0  0  0
    9.6713  -10.4810   -0.8916 C   0  0  0  0  0  0  0  0  0  0  0  0
   10.0902   -9.1938   -0.4643 C   0  0  0  0  0  0  0  0  0  0  0  0
    5.3119   -8.2294   -1.7830 C   0  0  0  0  0  0  0  0  0  0  0  0
    4.5845   -7.8863   -2.9370 C   0  0  0  0  0  0  0  0  0  0  0  0
    4.0278   -8.8710   -3.7627 C   0  0  0  0  0  0  0  0  0  0  0  0
    4.2297  -10.2147   -3.4717 C   0  0  0  0  0  0  0  0  0  0  0  0
    3.5752  -11.4242   -4.5024 Cl  0  0  0  0  0  0  0  0  0  0  0  0
    4.9552  -10.5806   -2.3442 C   0  0  0  0  0  0  0  0  0  0  0  0
    5.4637   -9.5934   -1.4908 C   0  0  0  0  0  0  0  0  0  0  0  0
    4.6440   -2.8368    1.2034 C   0  0  0  0  0  0  0  0  0  0  0  0
    3.9144   -1.6430    1.2834 C   0  0  0  0  0  0  0  0  0  0  0  0
    0.5730    0.9744    0.2340 H   0  0  0  0  0  0  0  0  0  0  0  0
    0.1279   -0.7339    0.3309 H   0  0  0  0  0  0  0  0  0  0  0  0
    1.0818   -0.1059   -1.0689 H   0  0  0  0  0  0  0  0  0  0  0  0
    1.3323   -2.4614   -0.7715 H   0  0  0  0  0  0  0  0  0  0  0  0
    2.5768   -4.5350   -0.8927 H   0  0  0  0  0  0  0  0  0  0  0  0
    5.6179   -5.3649    1.1992 H   0  0  0  0  0  0  0  0  0  0  0  0
    4.4395   -5.6446   -1.6128 H   0  0  0  0  0  0  0  0  0  0  0  0
    7.6026   -9.0301    0.3542 H   0  0  0  0  0  0  0  0  0  0  0  0
   12.9467   -7.5174    0.3108 H   0  0  0  0  0  0  0  0  0  0  0  0
   13.4675   -9.8144   -0.5874 H   0  0  0  0  0  0  0  0  0  0  0  0
   12.6720  -12.0057   -1.3832 H   0  0  0  0  0  0  0  0  0  0  0  0
   10.2404  -12.4624   -1.5368 H   0  0  0  0  0  0  0  0  0  0  0  0
    8.6136  -10.7072   -1.0030 H   0  0  0  0  0  0  0  0  0  0  0  0
    4.4376   -6.8536   -3.2365 H   0  0  0  0  0  0  0  0  0  0  0  0
    3.4470   -8.5770   -4.6334 H   0  0  0  0  0  0  0  0  0  0  0  0
    5.1208  -11.6297   -2.1136 H   0  0  0  0  0  0  0  0  0  0  0  0
    5.9660   -9.9218   -0.5892 H   0  0  0  0  0  0  0  0  0  0  0  0
    5.5730   -2.9214    1.7635 H   0  0  0  0  0  0  0  0  0  0  0  0
    4.2849   -0.8300    1.9029 H   0  0  0  0  0  0  0  0  0  0  0  0
  1  2  1  0  0  0  0
  1 31  1  0  0  0  0
  1 32  1  0  0  0  0
  1 33  1  0  0  0  0
  2  3  1  0  0  0  0
  3  4  1  0  0  0  0
  3 30  2  0  0  0  0
  4  5  2  0  0  0  0
  4 34  1  0  0  0  0
  5  6  1  0  0  0  0
  5 35  1  0  0  0  0
  6  7  1  0  0  0  0
  6 29  2  0  0  0  0
  7  8  2  0  0  0  0
  7 36  1  0  0  0  0
  8  9  1  0  0  0  0
  8 37  1  0  0  0  0
  9 10  2  0  0  0  0
  9 22  1  0  0  0  0
 10 11  1  0  0  0  0
 11 12  1  0  0  0  0
 11 38  1  0  0  0  0
 12 13  1  0  0  0  0
 12 21  2  0  0  0  0
 13 14  2  0  0  0  0
 14 15  1  0  0  0  0
 15 16  2  0  0  0  0
 15 39  1  0  0  0  0
 16 17  1  0  0  0  0
 16 21  1  0  0  0  0
 17 18  2  0  0  0  0
 17 40  1  0  0  0  0
 18 19  1  0  0  0  0
 18 41  1  0  0  0  0
 19 20  2  0  0  0  0
 19 42  1  0  0  0  0
 20 21  1  0  0  0  0
 20 43  1  0  0  0  0
 22 23  1  0  0  0  0
 22 28  2  0  0  0  0
 23 24  2  0  0  0  0
 23 44  1  0  0  0  0
 24 25  1  0  0  0  0
 24 45  1  0  0  0  0
 25 26  1  0  0  0  0
 25 27  2  0  0  0  0
 27 28  1  0  0  0  0
 27 46  1  0  0  0  0
 28 47  1  0  0  0  0
 29 30  1  0  0  0  0
 29 48  1  0  0  0  0
 30 49  1  0  0  0  0
M  END
$$$$
