CHEMBL4205605
 OpenBabel04072215383D

 68 72  0  0  0  0  0  0  0  0999 V2000
    3.5951    0.9936    1.4017 C   0  0  0  0  0  0  0  0  0  0  0  0
    3.5086    0.4413    0.0081 C   0  0  0  0  0  0  0  0  0  0  0  0
    4.1978   -0.6687   -0.4861 C   0  0  0  0  0  0  0  0  0  0  0  0
    5.1766   -1.5175    0.1997 C   0  0  0  0  0  0  0  0  0  0  0  0
    5.6035   -1.2775    1.3266 O   0  0  0  0  0  0  0  0  0  0  0  0
    5.6301   -2.6276   -0.4962 N   0  0  0  0  0  0  0  0  0  0  0  0
    6.7045   -3.4517    0.0401 C   0  0  0  0  0  0  0  0  0  0  0  0
    6.6862   -4.8553   -0.5313 C   0  0  0  0  0  0  0  0  0  0  0  0
    7.9499   -5.8402    0.2405 S   0  0  0  0  0  0  0  0  0  0  0  0
    7.7580   -7.4316   -0.5428 C   0  0  0  0  0  0  0  0  0  0  0  0
    9.2378   -5.3258   -0.1581 O   0  0  0  0  0  0  0  0  0  0  0  0
    7.6024   -6.0147    1.6250 O   0  0  0  0  0  0  0  0  0  0  0  0
    3.7690   -0.9910   -2.1190 S   0  0  0  0  0  0  0  0  0  0  0  0
    2.7133    0.3326   -2.1923 C   0  0  0  0  0  0  0  0  0  0  0  0
    2.0464    0.6054   -3.3267 N   0  0  0  0  0  0  0  0  0  0  0  0
    1.2547    1.6740   -3.2117 C   0  0  0  0  0  0  0  0  0  0  0  0
    1.0982    2.4557   -2.1380 N   0  0  0  0  0  0  0  0  0  0  0  0
    1.8216    2.1664   -1.0317 C   0  0  0  0  0  0  0  0  0  0  0  0
    1.7176    2.9816    0.0880 O   0  0  0  0  0  0  0  0  0  0  0  0
    1.4246    4.3129   -0.0940 C   0  0  0  0  0  0  0  0  0  0  0  0
    1.8918    5.0743   -1.1697 C   0  0  0  0  0  0  0  0  0  0  0  0
    1.5182    6.4153   -1.2924 C   0  0  0  0  0  0  0  0  0  0  0  0
    0.7727    7.0298   -0.2824 C   0  0  0  0  0  0  0  0  0  0  0  0
    0.4013    8.3694   -0.4467 N   0  0  0  0  0  0  0  0  0  0  0  0
    0.5232    9.3316    0.5349 C   0  0  0  0  0  0  0  0  0  0  0  0
    1.0052    9.2165    1.6482 O   0  0  0  0  0  0  0  0  0  0  0  0
   -0.0286   10.6538    0.1020 C   0  0  0  0  0  0  0  0  0  0  0  0
   -1.4621   10.7220    0.5212 C   0  0  0  0  0  0  0  0  0  0  0  0
   -2.3545   10.7089   -0.3031 O   0  0  0  0  0  0  0  0  0  0  0  0
   -1.5563   10.8034    1.9139 N   0  0  0  0  0  0  0  0  0  0  0  0
   -2.6817   11.0746    2.6968 C   0  0  0  0  0  0  0  0  0  0  0  0
   -3.9633   11.2108    2.1656 C   0  0  0  0  0  0  0  0  0  0  0  0
   -5.0252   11.5660    2.9959 C   0  0  0  0  0  0  0  0  0  0  0  0
   -4.8028   11.7780    4.3496 C   0  0  0  0  0  0  0  0  0  0  0  0
   -5.8223   12.1441    5.1363 F   0  0  0  0  0  0  0  0  0  0  0  0
   -3.5369   11.6220    4.8996 C   0  0  0  0  0  0  0  0  0  0  0  0
   -2.4736   11.2613    4.0716 C   0  0  0  0  0  0  0  0  0  0  0  0
    1.2200   11.4346   -0.4183 C   0  0  0  0  0  0  0  0  0  0  0  0
    0.2603   12.2185    0.2751 C   0  0  0  0  0  0  0  0  0  0  0  0
    0.3615    6.2934    0.8279 C   0  0  0  0  0  0  0  0  0  0  0  0
    0.6746    4.9382    0.9029 C   0  0  0  0  0  0  0  0  0  0  0  0
    0.2256    4.2295    1.9492 F   0  0  0  0  0  0  0  0  0  0  0  0
    2.6574    1.0391   -1.0062 C   0  0  0  0  0  0  0  0  0  0  0  0
    4.2601    0.4339    2.0582 H   0  0  0  0  0  0  0  0  0  0  0  0
    2.6036    0.9812    1.8678 H   0  0  0  0  0  0  0  0  0  0  0  0
    3.9551    2.0274    1.3758 H   0  0  0  0  0  0  0  0  0  0  0  0
    5.3979   -2.6752   -1.4815 H   0  0  0  0  0  0  0  0  0  0  0  0
    6.6155   -3.4818    1.1325 H   0  0  0  0  0  0  0  0  0  0  0  0
    7.6480   -2.9456   -0.1920 H   0  0  0  0  0  0  0  0  0  0  0  0
    6.8782   -4.8443   -1.6092 H   0  0  0  0  0  0  0  0  0  0  0  0
    5.7224   -5.3400   -0.3476 H   0  0  0  0  0  0  0  0  0  0  0  0
    7.9537   -7.3202   -1.6116 H   0  0  0  0  0  0  0  0  0  0  0  0
    6.7470   -7.7909   -0.3674 H   0  0  0  0  0  0  0  0  0  0  0  0
    8.4830   -8.1170   -0.0988 H   0  0  0  0  0  0  0  0  0  0  0  0
    0.6819    1.9499   -4.0925 H   0  0  0  0  0  0  0  0  0  0  0  0
    2.5347    4.6356   -1.9270 H   0  0  0  0  0  0  0  0  0  0  0  0
    1.8711    6.9840   -2.1487 H   0  0  0  0  0  0  0  0  0  0  0  0
    0.0982    8.6545   -1.3726 H   0  0  0  0  0  0  0  0  0  0  0  0
   -0.6743   10.7259    2.4163 H   0  0  0  0  0  0  0  0  0  0  0  0
   -4.1589   11.0548    1.1081 H   0  0  0  0  0  0  0  0  0  0  0  0
   -6.0220   11.6868    2.5850 H   0  0  0  0  0  0  0  0  0  0  0  0
   -3.3846   11.7918    5.9604 H   0  0  0  0  0  0  0  0  0  0  0  0
   -1.4844   11.1543    4.5103 H   0  0  0  0  0  0  0  0  0  0  0  0
    1.3754   11.5599   -1.4790 H   0  0  0  0  0  0  0  0  0  0  0  0
    2.1589   11.3227    0.1301 H   0  0  0  0  0  0  0  0  0  0  0  0
   -0.3347   12.8968   -0.3472 H   0  0  0  0  0  0  0  0  0  0  0  0
    0.4343   12.6085    1.2659 H   0  0  0  0  0  0  0  0  0  0  0  0
   -0.2537    6.7385    1.6026 H   0  0  0  0  0  0  0  0  0  0  0  0
  1  2  1  0  0  0  0
  1 44  1  0  0  0  0
  1 45  1  0  0  0  0
  1 46  1  0  0  0  0
  2  3  2  0  0  0  0
  2 43  1  0  0  0  0
  3  4  1  0  0  0  0
  3 13  1  0  0  0  0
  4  5  2  0  0  0  0
  4  6  1  0  0  0  0
  6  7  1  0  0  0  0
  6 47  1  0  0  0  0
  7  8  1  0  0  0  0
  7 48  1  0  0  0  0
  7 49  1  0  0  0  0
  8  9  1  0  0  0  0
  8 50  1  0  0  0  0
  8 51  1  0  0  0  0
  9 10  1  0  0  0  0
  9 11  2  0  0  0  0
  9 12  2  0  0  0  0
 10 52  1  0  0  0  0
 10 53  1  0  0  0  0
 10 54  1  0  0  0  0
 13 14  1  0  0  0  0
 14 15  1  0  0  0  0
 14 43  2  0  0  0  0
 15 16  2  0  0  0  0
 16 17  1  0  0  0  0
 16 55  1  0  0  0  0
 17 18  2  0  0  0  0
 18 19  1  0  0  0  0
 18 43  1  0  0  0  0
 19 20  1  0  0  0  0
 20 21  1  0  0  0  0
 20 41  2  0  0  0  0
 21 22  2  0  0  0  0
 21 56  1  0  0  0  0
 22 23  1  0  0  0  0
 22 57  1  0  0  0  0
 23 24  1  0  0  0  0
 23 40  2  0  0  0  0
 24 25  1  0  0  0  0
 24 58  1  0  0  0  0
 25 26  2  0  0  0  0
 25 27  1  0  0  0  0
 27 28  1  0  0  0  0
 27 38  1  0  0  0  0
 27 39  1  0  0  0  0
 28 29  2  0  0  0  0
 28 30  1  0  0  0  0
 30 31  1  0  0  0  0
 30 59  1  0  0  0  0
 31 32  1  0  0  0  0
 31 37  2  0  0  0  0
 32 33  2  0  0  0  0
 32 60  1  0  0  0  0
 33 34  1  0  0  0  0
 33 61  1  0  0  0  0
 34 35  1  0  0  0  0
 34 36  2  0  0  0  0
 36 37  1  0  0  0  0
 36 62  1  0  0  0  0
 37 63  1  0  0  0  0
 38 39  1  0  0  0  0
 38 64  1  0  0  0  0
 38 65  1  0  0  0  0
 39 66  1  0  0  0  0
 39 67  1  0  0  0  0
 40 41  1  0  0  0  0
 40 68  1  0  0  0  0
 41 42  1  0  0  0  0
M  END
$$$$
