CHEMBL247250
 OpenBabel04072215363D

 48 51  0  0  0  0  0  0  0  0999 V2000
    1.5279   -0.4082    2.0919 C   0  0  0  0  0  0  0  0  0  0  0  0
    2.5579    0.0581    1.1966 N   0  0  0  0  0  0  0  0  0  0  0  0
    3.4002    1.0661    1.6101 C   0  0  0  0  0  0  0  0  0  0  0  0
    3.3306    1.5712    2.7254 O   0  0  0  0  0  0  0  0  0  0  0  0
    4.2613    1.4413    0.6058 N   0  0  0  0  0  0  0  0  0  0  0  0
    5.1551    2.5041    0.7789 C   0  0  0  0  0  0  0  0  0  0  0  0
    5.9381    2.6185    1.9206 C   0  0  0  0  0  0  0  0  0  0  0  0
    6.7300    3.7526    2.0758 C   0  0  0  0  0  0  0  0  0  0  0  0
    6.7015    4.7531    1.1024 C   0  0  0  0  0  0  0  0  0  0  0  0
    7.4689    6.0353    1.2697 C   0  0  0  0  0  0  0  0  0  0  0  0
    6.9624    6.7735    2.4156 N   0  0  0  0  0  0  0  0  0  0  0  0
    7.5046    7.9648    2.7527 C   0  0  0  0  0  0  0  0  0  0  0  0
    8.7901    8.2500    2.3609 N   0  0  0  0  0  0  0  0  0  0  0  0
    9.1213    9.4402    2.8001 C   0  0  0  0  0  0  0  0  0  0  0  0
    7.9113   10.2958    3.6572 S   0  0  0  0  0  0  0  0  0  0  0  0
    6.8485    8.9552    3.4624 C   0  0  0  0  0  0  0  0  0  0  0  0
    5.4858    8.9450    3.9711 C   0  0  0  0  0  0  0  0  0  0  0  0
    4.8045    7.9223    3.9499 O   0  0  0  0  0  0  0  0  0  0  0  0
    5.0062   10.1789    4.3949 N   0  0  0  0  0  0  0  0  0  0  0  0
    3.7066   10.4691    4.8608 C   0  0  0  0  0  0  0  0  0  0  0  0
    2.7999    9.4813    5.2945 C   0  0  0  0  0  0  0  0  0  0  0  0
    1.4973    9.8140    5.6874 C   0  0  0  0  0  0  0  0  0  0  0  0
    1.1293   11.1376    5.6283 C   0  0  0  0  0  0  0  0  0  0  0  0
    2.0160   12.1124    5.2349 C   0  0  0  0  0  0  0  0  0  0  0  0
    3.3140   11.8150    4.8674 C   0  0  0  0  0  0  0  0  0  0  0  0
    1.4567   13.3527    5.2333 O   0  0  0  0  0  0  0  0  0  0  0  0
    0.1062   13.0139    5.5850 C   0  0  0  0  0  0  0  0  0  0  0  0
   -0.2723   13.7821    6.6354 F   0  0  0  0  0  0  0  0  0  0  0  0
   -0.6997   13.3242    4.5389 F   0  0  0  0  0  0  0  0  0  0  0  0
   -0.0992   11.6367    5.9255 O   0  0  0  0  0  0  0  0  0  0  0  0
    5.9230    4.5162   -0.0269 C   0  0  0  0  0  0  0  0  0  0  0  0
    5.1828    3.3997   -0.2281 N   0  0  0  0  0  0  0  0  0  0  0  0
    1.0784   -1.3118    1.6750 H   0  0  0  0  0  0  0  0  0  0  0  0
    0.7693    0.3740    2.1873 H   0  0  0  0  0  0  0  0  0  0  0  0
    1.9528   -0.6201    3.0771 H   0  0  0  0  0  0  0  0  0  0  0  0
    2.9750   -0.6127    0.5668 H   0  0  0  0  0  0  0  0  0  0  0  0
    3.8416    1.4486   -0.3122 H   0  0  0  0  0  0  0  0  0  0  0  0
    5.9256    1.8526    2.6884 H   0  0  0  0  0  0  0  0  0  0  0  0
    7.3364    3.8708    2.9707 H   0  0  0  0  0  0  0  0  0  0  0  0
    7.3667    6.6508    0.3678 H   0  0  0  0  0  0  0  0  0  0  0  0
    8.5297    5.7970    1.3908 H   0  0  0  0  0  0  0  0  0  0  0  0
    5.9740    6.6139    2.6275 H   0  0  0  0  0  0  0  0  0  0  0  0
   10.1016    9.8667    2.6256 H   0  0  0  0  0  0  0  0  0  0  0  0
    5.6129   10.9693    4.2168 H   0  0  0  0  0  0  0  0  0  0  0  0
    3.0857    8.4334    5.3438 H   0  0  0  0  0  0  0  0  0  0  0  0
    0.8010    9.0473    6.0105 H   0  0  0  0  0  0  0  0  0  0  0  0
    3.9790   12.6105    4.5494 H   0  0  0  0  0  0  0  0  0  0  0  0
    5.8490    5.2507   -0.8248 H   0  0  0  0  0  0  0  0  0  0  0  0
  1  2  1  0  0  0  0
  1 33  1  0  0  0  0
  1 34  1  0  0  0  0
  1 35  1  0  0  0  0
  2  3  1  0  0  0  0
  2 36  1  0  0  0  0
  3  4  2  0  0  0  0
  3  5  1  0  0  0  0
  5  6  1  0  0  0  0
  5 37  1  0  0  0  0
  6  7  1  0  0  0  0
  6 32  2  0  0  0  0
  7  8  2  0  0  0  0
  7 38  1  0  0  0  0
  8  9  1  0  0  0  0
  8 39  1  0  0  0  0
  9 10  1  0  0  0  0
  9 31  2  0  0  0  0
 10 11  1  0  0  0  0
 10 40  1  0  0  0  0
 10 41  1  0  0  0  0
 11 12  1  0  0  0  0
 11 42  1  0  0  0  0
 12 13  1  0  0  0  0
 12 16  2  0  0  0  0
 13 14  2  0  0  0  0
 14 15  1  0  0  0  0
 14 43  1  0  0  0  0
 15 16  1  0  0  0  0
 16 17  1  0  0  0  0
 17 18  2  0  0  0  0
 17 19  1  0  0  0  0
 19 20  1  0  0  0  0
 19 44  1  0  0  0  0
 20 21  1  0  0  0  0
 20 25  2  0  0  0  0
 21 22  2  0  0  0  0
 21 45  1  0  0  0  0
 22 23  1  0  0  0  0
 22 46  1  0  0  0  0
 23 24  2  0  0  0  0
 23 30  1  0  0  0  0
 24 25  1  0  0  0  0
 24 26  1  0  0  0  0
 25 47  1  0  0  0  0
 26 27  1  0  0  0  0
 27 28  1  0  0  0  0
 27 29  1  0  0  0  0
 27 30  1  0  0  0  0
 31 32  1  0  0  0  0
 31 48  1  0  0  0  0
M  END
$$$$
