CHEMBL1956895
 OpenBabel04072215363D

 47 51  0  0  0  0  0  0  0  0999 V2000
    1.1182    0.0577    0.1356 N   0  0  0  0  0  0  0  0  0  0  0  0
    2.4907    0.0739    0.0087 C   0  0  0  0  0  0  0  0  0  0  0  0
    3.0998   -1.1110    0.0554 N   0  0  0  0  0  0  0  0  0  0  0  0
    4.4573   -1.1859   -0.0179 C   0  0  0  0  0  0  0  0  0  0  0  0
    5.0804   -2.4416    0.0511 N   0  0  0  0  0  0  0  0  0  0  0  0
    4.6240   -3.5882    0.7150 C   0  0  0  0  0  0  0  0  0  0  0  0
    5.0130   -4.8540    0.2617 C   0  0  0  0  0  0  0  0  0  0  0  0
    4.5150   -6.0168    0.8366 C   0  0  0  0  0  0  0  0  0  0  0  0
    3.5919   -5.9373    1.9089 C   0  0  0  0  0  0  0  0  0  0  0  0
    3.1908   -4.6800    2.3420 C   0  0  0  0  0  0  0  0  0  0  0  0
    1.9472   -4.5312    3.7553 Br  0  0  0  0  0  0  0  0  0  0  0  0
    3.6833   -3.5088    1.7650 C   0  0  0  0  0  0  0  0  0  0  0  0
    5.1751    0.0180   -0.1696 C   0  0  0  0  0  0  0  0  0  0  0  0
    6.5347    0.4146   -0.1994 C   0  0  0  0  0  0  0  0  0  0  0  0
    6.5644    1.7914   -0.2927 C   0  0  0  0  0  0  0  0  0  0  0  0
    5.2653    2.2307   -0.4011 N   0  0  0  0  0  0  0  0  0  0  0  0
    4.8387    3.6176   -0.3869 C   0  0  0  0  0  0  0  0  0  0  0  0
    4.9910    4.3481   -1.7002 C   0  0  0  0  0  0  0  0  0  0  0  0
    6.2070    5.0074   -1.9569 C   0  0  0  0  0  0  0  0  0  0  0  0
    6.2935    5.9768   -2.9491 C   0  0  0  0  0  0  0  0  0  0  0  0
    5.1350    6.3897   -3.5942 C   0  0  0  0  0  0  0  0  0  0  0  0
    3.9449    5.6721   -3.4210 C   0  0  0  0  0  0  0  0  0  0  0  0
    2.7933    6.0336   -4.1164 C   0  0  0  0  0  0  0  0  0  0  0  0
    1.9122    5.0546   -4.5343 C   0  0  0  0  0  0  0  0  0  0  0  0
    1.9313    3.8412   -3.8708 C   0  0  0  0  0  0  0  0  0  0  0  0
    2.8218    3.6479   -2.8035 C   0  0  0  0  0  0  0  0  0  0  0  0
    3.9110    4.5300   -2.6063 C   0  0  0  0  0  0  0  0  0  0  0  0
    4.4124    1.1674   -0.2540 C   0  0  0  0  0  0  0  0  0  0  0  0
    3.0769    1.2546   -0.1707 N   0  0  0  0  0  0  0  0  0  0  0  0
    0.7667   -0.8512   -0.1347 H   0  0  0  0  0  0  0  0  0  0  0  0
    0.7157    0.8708   -0.3063 H   0  0  0  0  0  0  0  0  0  0  0  0
    6.0578   -2.4467   -0.1916 H   0  0  0  0  0  0  0  0  0  0  0  0
    5.6938   -4.9408   -0.5842 H   0  0  0  0  0  0  0  0  0  0  0  0
    4.7918   -6.9920    0.4552 H   0  0  0  0  0  0  0  0  0  0  0  0
    3.2258   -6.8732    2.3592 H   0  0  0  0  0  0  0  0  0  0  0  0
    3.3573   -2.5431    2.1196 H   0  0  0  0  0  0  0  0  0  0  0  0
    7.4063   -0.2196   -0.0835 H   0  0  0  0  0  0  0  0  0  0  0  0
    7.3929    2.4895   -0.2660 H   0  0  0  0  0  0  0  0  0  0  0  0
    5.4411    4.1224    0.3808 H   0  0  0  0  0  0  0  0  0  0  0  0
    3.8060    3.6810   -0.0238 H   0  0  0  0  0  0  0  0  0  0  0  0
    7.0916    4.7812   -1.3671 H   0  0  0  0  0  0  0  0  0  0  0  0
    7.2476    6.4380   -3.1876 H   0  0  0  0  0  0  0  0  0  0  0  0
    5.1906    7.1867   -4.3332 H   0  0  0  0  0  0  0  0  0  0  0  0
    2.5229    7.0817   -4.2197 H   0  0  0  0  0  0  0  0  0  0  0  0
    1.1978    5.2625   -5.3258 H   0  0  0  0  0  0  0  0  0  0  0  0
    1.2207    3.0679   -4.1472 H   0  0  0  0  0  0  0  0  0  0  0  0
    2.7315    2.7367   -2.2240 H   0  0  0  0  0  0  0  0  0  0  0  0
  1  2  1  0  0  0  0
  1 30  1  0  0  0  0
  1 31  1  0  0  0  0
  2  3  1  0  0  0  0
  2 29  2  0  0  0  0
  3  4  2  0  0  0  0
  4  5  1  0  0  0  0
  4 13  1  0  0  0  0
  5  6  1  0  0  0  0
  5 32  1  0  0  0  0
  6  7  1  0  0  0  0
  6 12  2  0  0  0  0
  7  8  2  0  0  0  0
  7 33  1  0  0  0  0
  8  9  1  0  0  0  0
  8 34  1  0  0  0  0
  9 10  2  0  0  0  0
  9 35  1  0  0  0  0
 10 11  1  0  0  0  0
 10 12  1  0  0  0  0
 12 36  1  0  0  0  0
 13 14  1  0  0  0  0
 13 28  2  0  0  0  0
 14 15  2  0  0  0  0
 14 37  1  0  0  0  0
 15 16  1  0  0  0  0
 15 38  1  0  0  0  0
 16 17  1  0  0  0  0
 16 28  1  0  0  0  0
 17 18  1  0  0  0  0
 17 39  1  0  0  0  0
 17 40  1  0  0  0  0
 18 19  1  0  0  0  0
 18 27  2  0  0  0  0
 19 20  2  0  0  0  0
 19 41  1  0  0  0  0
 20 21  1  0  0  0  0
 20 42  1  0  0  0  0
 21 22  2  0  0  0  0
 21 43  1  0  0  0  0
 22 23  1  0  0  0  0
 22 27  1  0  0  0  0
 23 24  2  0  0  0  0
 23 44  1  0  0  0  0
 24 25  1  0  0  0  0
 24 45  1  0  0  0  0
 25 26  2  0  0  0  0
 25 46  1  0  0  0  0
 26 27  1  0  0  0  0
 26 47  1  0  0  0  0
 28 29  1  0  0  0  0
M  END
$$$$
