CHEMBL3220328
 OpenBabel04072215363D

 79 82  0  0  0  0  0  0  0  0999 V2000
    2.2014   -0.5030   -1.7795 C   0  0  0  0  0  0  0  0  0  0  0  0
    3.2615   -0.1076   -0.9179 O   0  0  0  0  0  0  0  0  0  0  0  0
    3.4910   -0.8633    0.2034 C   0  0  0  0  0  0  0  0  0  0  0  0
    3.1449   -2.2176    0.3041 C   0  0  0  0  0  0  0  0  0  0  0  0
    3.5916   -3.0621    1.3581 C   0  0  0  0  0  0  0  0  0  0  0  0
    3.2844   -4.5340    1.3522 C   0  0  0  0  0  0  0  0  0  0  0  0
    3.1132   -5.1445    0.0974 C   0  0  0  0  0  0  0  0  0  0  0  0
    2.8540   -6.4923   -0.1346 C   0  0  0  0  0  0  0  0  0  0  0  0
    2.6969   -7.0185   -1.4549 N   0  0  0  0  0  0  0  0  0  0  0  0
    3.0954   -6.3315   -2.5887 C   0  0  0  0  0  0  0  0  0  0  0  0
    3.6292   -5.2366   -2.5535 O   0  0  0  0  0  0  0  0  0  0  0  0
    2.8481   -6.9960   -3.7806 N   0  0  0  0  0  0  0  0  0  0  0  0
    3.3075   -6.4798   -5.0360 C   0  0  0  0  0  0  0  0  0  0  0  0
    4.3810   -5.5716   -5.0935 C   0  0  0  0  0  0  0  0  0  0  0  0
    4.8138   -4.9755   -6.2767 C   0  0  0  0  0  0  0  0  0  0  0  0
    5.8483   -4.0746   -6.3646 O   0  0  0  0  0  0  0  0  0  0  0  0
    6.7293   -4.0556   -5.2263 C   0  0  0  0  0  0  0  0  0  0  0  0
    8.0776   -3.4172   -5.5962 C   0  0  0  0  0  0  0  0  0  0  0  0
    9.0940   -3.5628   -4.5347 N   0  0  0  0  0  0  0  0  0  0  0  0
    8.7844   -2.8372   -3.2946 C   0  0  0  0  0  0  0  0  0  0  0  0
    9.3947   -1.4626   -3.4692 C   0  0  0  0  0  0  0  0  0  0  0  0
   10.6620   -1.7403   -4.2519 C   0  0  0  0  0  0  0  0  0  0  0  0
   10.4094   -3.0626   -4.9690 C   0  0  0  0  0  0  0  0  0  0  0  0
    4.1657   -5.3080   -7.4545 C   0  0  0  0  0  0  0  0  0  0  0  0
    3.1386   -6.2621   -7.4420 C   0  0  0  0  0  0  0  0  0  0  0  0
    2.6947   -6.8555   -6.2402 C   0  0  0  0  0  0  0  0  0  0  0  0
    1.5467   -7.8237   -6.2935 C   0  0  0  0  0  0  0  0  0  0  0  0
    2.7425   -7.3125    0.9760 C   0  0  0  0  0  0  0  0  0  0  0  0
    2.9088   -6.7771    2.2663 C   0  0  0  0  0  0  0  0  0  0  0  0
    2.6905   -7.5821    3.3606 O   0  0  0  0  0  0  0  0  0  0  0  0
    3.3793   -8.8276    3.3422 C   0  0  0  0  0  0  0  0  0  0  0  0
    3.1764   -5.3935    2.4697 C   0  0  0  0  0  0  0  0  0  0  0  0
    3.2813   -4.7977    3.7068 O   0  0  0  0  0  0  0  0  0  0  0  0
    3.7323   -5.6039    4.7892 C   0  0  0  0  0  0  0  0  0  0  0  0
    4.4153   -2.4652    2.3146 C   0  0  0  0  0  0  0  0  0  0  0  0
    4.7035   -1.0924    2.2758 C   0  0  0  0  0  0  0  0  0  0  0  0
    4.2101   -0.2772    1.2463 C   0  0  0  0  0  0  0  0  0  0  0  0
    4.4225    1.1998    1.3477 C   0  0  0  0  0  0  0  0  0  0  0  0
    3.3527    2.1391    0.7959 C   0  0  0  0  0  0  0  0  0  0  0  0
    5.4847    1.6491    1.9515 N   0  0  0  0  0  0  0  0  0  0  0  0
    5.4898    3.0518    1.9928 O   0  0  0  0  0  0  0  0  0  0  0  0
    2.1054    0.2614   -2.5578 H   0  0  0  0  0  0  0  0  0  0  0  0
    1.2557   -0.5436   -1.2306 H   0  0  0  0  0  0  0  0  0  0  0  0
    2.4151   -1.4511   -2.2815 H   0  0  0  0  0  0  0  0  0  0  0  0
    2.5381   -2.6400   -0.4899 H   0  0  0  0  0  0  0  0  0  0  0  0
    3.1981   -4.4856   -0.7517 H   0  0  0  0  0  0  0  0  0  0  0  0
    2.4501   -7.9924   -1.5410 H   0  0  0  0  0  0  0  0  0  0  0  0
    2.0965   -7.6633   -3.7898 H   0  0  0  0  0  0  0  0  0  0  0  0
    4.9089   -5.3164   -4.1863 H   0  0  0  0  0  0  0  0  0  0  0  0
    6.9369   -5.0818   -4.8992 H   0  0  0  0  0  0  0  0  0  0  0  0
    6.2476   -3.4931   -4.4180 H   0  0  0  0  0  0  0  0  0  0  0  0
    7.9357   -2.3730   -5.9001 H   0  0  0  0  0  0  0  0  0  0  0  0
    8.4338   -3.9461   -6.4912 H   0  0  0  0  0  0  0  0  0  0  0  0
    9.2806   -3.3554   -2.4638 H   0  0  0  0  0  0  0  0  0  0  0  0
    7.7234   -2.7869   -3.0379 H   0  0  0  0  0  0  0  0  0  0  0  0
    9.6020   -0.9754   -2.5112 H   0  0  0  0  0  0  0  0  0  0  0  0
    8.7276   -0.8122   -4.0461 H   0  0  0  0  0  0  0  0  0  0  0  0
   11.5126   -1.8420   -3.5672 H   0  0  0  0  0  0  0  0  0  0  0  0
   10.8847   -0.9262   -4.9483 H   0  0  0  0  0  0  0  0  0  0  0  0
   11.1756   -3.7881   -4.6729 H   0  0  0  0  0  0  0  0  0  0  0  0
   10.4924   -2.9470   -6.0563 H   0  0  0  0  0  0  0  0  0  0  0  0
    4.4703   -4.8435   -8.3873 H   0  0  0  0  0  0  0  0  0  0  0  0
    2.6769   -6.5301   -8.3897 H   0  0  0  0  0  0  0  0  0  0  0  0
    1.2161   -7.9983   -7.3222 H   0  0  0  0  0  0  0  0  0  0  0  0
    0.6948   -7.4208   -5.7363 H   0  0  0  0  0  0  0  0  0  0  0  0
    1.8376   -8.7907   -5.8713 H   0  0  0  0  0  0  0  0  0  0  0  0
    2.5143   -8.3665    0.8523 H   0  0  0  0  0  0  0  0  0  0  0  0
    3.5837   -9.1069    4.3780 H   0  0  0  0  0  0  0  0  0  0  0  0
    4.3374   -8.7790    2.8102 H   0  0  0  0  0  0  0  0  0  0  0  0
    2.7340   -9.5978    2.9048 H   0  0  0  0  0  0  0  0  0  0  0  0
    4.1094   -4.9415    5.5736 H   0  0  0  0  0  0  0  0  0  0  0  0
    4.5578   -6.2618    4.4967 H   0  0  0  0  0  0  0  0  0  0  0  0
    2.8993   -6.1653    5.2247 H   0  0  0  0  0  0  0  0  0  0  0  0
    4.8655   -3.0608    3.1045 H   0  0  0  0  0  0  0  0  0  0  0  0
    5.3214   -0.6645    3.0644 H   0  0  0  0  0  0  0  0  0  0  0  0
    2.4842    1.6260    0.3874 H   0  0  0  0  0  0  0  0  0  0  0  0
    3.7910    2.7727    0.0197 H   0  0  0  0  0  0  0  0  0  0  0  0
    2.9805    2.7682    1.6101 H   0  0  0  0  0  0  0  0  0  0  0  0
    6.3262    3.2411    2.4572 H   0  0  0  0  0  0  0  0  0  0  0  0
  1  2  1  0  0  0  0
  1 42  1  0  0  0  0
  1 43  1  0  0  0  0
  1 44  1  0  0  0  0
  2  3  1  0  0  0  0
  3  4  1  0  0  0  0
  3 37  2  0  0  0  0
  4  5  2  0  0  0  0
  4 45  1  0  0  0  0
  5  6  1  0  0  0  0
  5 35  1  0  0  0  0
  6  7  1  0  0  0  0
  6 32  2  0  0  0  0
  7  8  2  0  0  0  0
  7 46  1  0  0  0  0
  8  9  1  0  0  0  0
  8 28  1  0  0  0  0
  9 10  1  0  0  0  0
  9 47  1  0  0  0  0
 10 11  2  0  0  0  0
 10 12  1  0  0  0  0
 12 13  1  0  0  0  0
 12 48  1  0  0  0  0
 13 14  1  0  0  0  0
 13 26  2  0  0  0  0
 14 15  2  0  0  0  0
 14 49  1  0  0  0  0
 15 16  1  0  0  0  0
 15 24  1  0  0  0  0
 16 17  1  0  0  0  0
 17 18  1  0  0  0  0
 17 50  1  0  0  0  0
 17 51  1  0  0  0  0
 18 19  1  0  0  0  0
 18 52  1  0  0  0  0
 18 53  1  0  0  0  0
 19 20  1  0  0  0  0
 19 23  1  0  0  0  0
 20 21  1  0  0  0  0
 20 54  1  0  0  0  0
 20 55  1  0  0  0  0
 21 22  1  0  0  0  0
 21 56  1  0  0  0  0
 21 57  1  0  0  0  0
 22 23  1  0  0  0  0
 22 58  1  0  0  0  0
 22 59  1  0  0  0  0
 23 60  1  0  0  0  0
 23 61  1  0  0  0  0
 24 25  2  0  0  0  0
 24 62  1  0  0  0  0
 25 26  1  0  0  0  0
 25 63  1  0  0  0  0
 26 27  1  0  0  0  0
 27 64  1  0  0  0  0
 27 65  1  0  0  0  0
 27 66  1  0  0  0  0
 28 29  2  0  0  0  0
 28 67  1  0  0  0  0
 29 30  1  0  0  0  0
 29 32  1  0  0  0  0
 30 31  1  0  0  0  0
 31 68  1  0  0  0  0
 31 69  1  0  0  0  0
 31 70  1  0  0  0  0
 32 33  1  0  0  0  0
 33 34  1  0  0  0  0
 34 71  1  0  0  0  0
 34 72  1  0  0  0  0
 34 73  1  0  0  0  0
 35 36  2  0  0  0  0
 35 74  1  0  0  0  0
 36 37  1  0  0  0  0
 36 75  1  0  0  0  0
 37 38  1  0  0  0  0
 38 39  1  0  0  0  0
 38 40  2  0  0  0  0
 39 76  1  0  0  0  0
 39 77  1  0  0  0  0
 39 78  1  0  0  0  0
 40 41  1  0  0  0  0
 41 79  1  0  0  0  0
M  END
$$$$
