CHEMBL148744
 OpenBabel04072215363D

 38 40  0  0  0  0  0  0  0  0999 V2000
    2.3302   -0.1720   -0.0047 C   0  0  0  0  0  0  0  0  0  0  0  0
    0.8454   -0.0748   -0.0173 C   0  0  0  0  0  0  0  0  0  0  0  0
   -0.0249   -1.1475   -0.0207 C   0  0  0  0  0  0  0  0  0  0  0  0
   -1.3041   -0.6689   -0.0629 N   0  0  0  0  0  0  0  0  0  0  0  0
   -1.2828    0.7001   -0.0433 C   0  0  0  0  0  0  0  0  0  0  0  0
   -2.5127    1.3755    0.0744 C   0  0  0  0  0  0  0  0  0  0  0  0
   -3.2398    1.8510   -0.9443 C   0  0  0  0  0  0  0  0  0  0  0  0
   -3.0232    1.7433   -2.4327 C   0  0  0  0  0  0  0  0  0  0  0  0
   -2.1435    1.1630   -3.0347 O   0  0  0  0  0  0  0  0  0  0  0  0
   -4.0899    2.4413   -2.9946 N   0  0  0  0  0  0  0  0  0  0  0  0
   -4.9373    2.9608   -2.0183 C   0  0  0  0  0  0  0  0  0  0  0  0
   -6.0861    3.7023   -2.2073 C   0  0  0  0  0  0  0  0  0  0  0  0
   -6.7744    4.1272   -1.0625 C   0  0  0  0  0  0  0  0  0  0  0  0
   -6.2969    3.8034    0.2203 C   0  0  0  0  0  0  0  0  0  0  0  0
   -7.2395    4.3975    1.7496 Br  0  0  0  0  0  0  0  0  0  0  0  0
   -5.1363    3.0494    0.3915 C   0  0  0  0  0  0  0  0  0  0  0  0
   -4.4677    2.6299   -0.7454 C   0  0  0  0  0  0  0  0  0  0  0  0
    0.0408    1.1172   -0.0264 C   0  0  0  0  0  0  0  0  0  0  0  0
    0.5290    2.5414   -0.0214 C   0  0  0  0  0  0  0  0  0  0  0  0
    0.0668    3.3274    1.2055 C   0  0  0  0  0  0  0  0  0  0  0  0
    0.5254    4.7624    1.1564 C   0  0  0  0  0  0  0  0  0  0  0  0
    1.2016    5.2647    0.2743 O   0  0  0  0  0  0  0  0  0  0  0  0
    0.0898    5.4747    2.2243 O   0  0  0  0  0  0  0  0  0  0  0  0
    2.6558   -1.2184    0.0010 H   0  0  0  0  0  0  0  0  0  0  0  0
    2.7410    0.3110    0.8873 H   0  0  0  0  0  0  0  0  0  0  0  0
    2.7547    0.3060   -0.8926 H   0  0  0  0  0  0  0  0  0  0  0  0
    0.1620   -2.2130   -0.0124 H   0  0  0  0  0  0  0  0  0  0  0  0
   -2.1371   -1.2415   -0.0820 H   0  0  0  0  0  0  0  0  0  0  0  0
   -2.8401    1.5536    1.0953 H   0  0  0  0  0  0  0  0  0  0  0  0
   -4.2052    2.5366   -3.9937 H   0  0  0  0  0  0  0  0  0  0  0  0
   -6.4511    3.9549   -3.1952 H   0  0  0  0  0  0  0  0  0  0  0  0
   -7.6834    4.7148   -1.1713 H   0  0  0  0  0  0  0  0  0  0  0  0
   -4.7721    2.8073    1.3832 H   0  0  0  0  0  0  0  0  0  0  0  0
    0.1763    3.0332   -0.9372 H   0  0  0  0  0  0  0  0  0  0  0  0
    1.6248    2.5608   -0.0701 H   0  0  0  0  0  0  0  0  0  0  0  0
    0.4590    2.8661    2.1187 H   0  0  0  0  0  0  0  0  0  0  0  0
   -1.0262    3.3435    1.2636 H   0  0  0  0  0  0  0  0  0  0  0  0
   -0.4399    4.9532    2.8565 H   0  0  0  0  0  0  0  0  0  0  0  0
  1  2  1  0  0  0  0
  1 24  1  0  0  0  0
  1 25  1  0  0  0  0
  1 26  1  0  0  0  0
  2  3  2  0  0  0  0
  2 18  1  0  0  0  0
  3  4  1  0  0  0  0
  3 27  1  0  0  0  0
  4  5  1  0  0  0  0
  4 28  1  0  0  0  0
  5  6  1  0  0  0  0
  5 18  2  0  0  0  0
  6  7  2  0  0  0  0
  6 29  1  0  0  0  0
  7  8  1  0  0  0  0
  7 17  1  0  0  0  0
  8  9  2  0  0  0  0
  8 10  1  0  0  0  0
 10 11  1  0  0  0  0
 10 30  1  0  0  0  0
 11 12  1  0  0  0  0
 11 17  2  0  0  0  0
 12 13  2  0  0  0  0
 12 31  1  0  0  0  0
 13 14  1  0  0  0  0
 13 32  1  0  0  0  0
 14 15  1  0  0  0  0
 14 16  2  0  0  0  0
 16 17  1  0  0  0  0
 16 33  1  0  0  0  0
 18 19  1  0  0  0  0
 19 20  1  0  0  0  0
 19 34  1  0  0  0  0
 19 35  1  0  0  0  0
 20 21  1  0  0  0  0
 20 36  1  0  0  0  0
 20 37  1  0  0  0  0
 21 22  2  0  0  0  0
 21 23  1  0  0  0  0
 23 38  1  0  0  0  0
M  END
$$$$
