CHEMBL4752986
 OpenBabel04072215383D

 61 65  0  0  0  0  0  0  0  0999 V2000
    0.6399    0.1958   -0.0716 C   0  0  0  0  0  0  0  0  0  0  0  0
    1.5581    0.4374    0.9842 O   0  0  0  0  0  0  0  0  0  0  0  0
    2.3055    1.5777    0.9009 C   0  0  0  0  0  0  0  0  0  0  0  0
    2.2851    2.5116   -0.1349 C   0  0  0  0  0  0  0  0  0  0  0  0
    3.1059    3.6480   -0.0816 C   0  0  0  0  0  0  0  0  0  0  0  0
    3.9630    3.8571    1.0087 C   0  0  0  0  0  0  0  0  0  0  0  0
    4.7827    5.0250    1.0573 N   0  0  0  0  0  0  0  0  0  0  0  0
    4.6785    5.9818    0.0849 N   0  0  0  0  0  0  0  0  0  0  0  0
    5.4941    6.9678    0.4786 C   0  0  0  0  0  0  0  0  0  0  0  0
    5.5926    8.1998   -0.3459 C   0  0  0  0  0  0  0  0  0  0  0  0
    6.1735    6.6528    1.6834 C   0  0  0  0  0  0  0  0  0  0  0  0
    7.0990    7.2515    2.5603 C   0  0  0  0  0  0  0  0  0  0  0  0
    7.6247    8.5367    2.3681 N   0  0  0  0  0  0  0  0  0  0  0  0
    8.4904    9.2702    3.1997 C   0  0  0  0  0  0  0  0  0  0  0  0
    9.3357   10.2184    2.6244 C   0  0  0  0  0  0  0  0  0  0  0  0
   10.2895   10.8924    3.3937 C   0  0  0  0  0  0  0  0  0  0  0  0
   10.4235   10.6474    4.7622 C   0  0  0  0  0  0  0  0  0  0  0  0
   11.4167   11.2531    5.5678 N   0  0  0  0  0  0  0  0  0  0  0  0
   12.3006   12.2283    5.1578 C   0  0  0  0  0  0  0  0  0  0  0  0
   12.2803   12.7942    4.0720 O   0  0  0  0  0  0  0  0  0  0  0  0
   13.2771   12.4807    6.1149 N   0  0  0  0  0  0  0  0  0  0  0  0
   14.2787   13.4474    5.8692 C   0  0  0  0  0  0  0  0  0  0  0  0
   15.6024   13.1334    6.1519 C   0  0  0  0  0  0  0  0  0  0  0  0
   16.6092   14.0450    5.8286 C   0  0  0  0  0  0  0  0  0  0  0  0
   16.3020   15.2910    5.2604 C   0  0  0  0  0  0  0  0  0  0  0  0
   17.6384   16.3282    4.9257 Cl  0  0  0  0  0  0  0  0  0  0  0  0
   14.9749   15.6376    4.9949 C   0  0  0  0  0  0  0  0  0  0  0  0
   14.5276   16.9375    4.3778 C   0  0  0  0  0  0  0  0  0  0  0  0
   15.5053   17.8306    4.0730 F   0  0  0  0  0  0  0  0  0  0  0  0
   13.8420   16.7446    3.2142 F   0  0  0  0  0  0  0  0  0  0  0  0
   13.6678   17.6138    5.1954 F   0  0  0  0  0  0  0  0  0  0  0  0
   13.9716   14.6959    5.3116 C   0  0  0  0  0  0  0  0  0  0  0  0
    9.5556    9.7312    5.3563 C   0  0  0  0  0  0  0  0  0  0  0  0
    8.6004    9.0593    4.5803 C   0  0  0  0  0  0  0  0  0  0  0  0
    7.5085    6.5166    3.6264 N   0  0  0  0  0  0  0  0  0  0  0  0
    7.0282    5.2851    3.8168 C   0  0  0  0  0  0  0  0  0  0  0  0
    6.1333    4.6524    3.0636 N   0  0  0  0  0  0  0  0  0  0  0  0
    5.7263    5.3823    2.0091 C   0  0  0  0  0  0  0  0  0  0  0  0
    3.9757    2.9122    2.0425 C   0  0  0  0  0  0  0  0  0  0  0  0
    3.1545    1.7849    1.9848 C   0  0  0  0  0  0  0  0  0  0  0  0
    0.0944   -0.7220    0.1668 H   0  0  0  0  0  0  0  0  0  0  0  0
    1.1664    0.0377   -1.0182 H   0  0  0  0  0  0  0  0  0  0  0  0
   -0.0912    1.0065   -0.1533 H   0  0  0  0  0  0  0  0  0  0  0  0
    1.6417    2.3903   -0.9998 H   0  0  0  0  0  0  0  0  0  0  0  0
    3.0626    4.3602   -0.9037 H   0  0  0  0  0  0  0  0  0  0  0  0
    4.8934    8.1791   -1.1892 H   0  0  0  0  0  0  0  0  0  0  0  0
    6.6030    8.3069   -0.7536 H   0  0  0  0  0  0  0  0  0  0  0  0
    5.3633    9.0852    0.2549 H   0  0  0  0  0  0  0  0  0  0  0  0
    7.5324    8.8955    1.4296 H   0  0  0  0  0  0  0  0  0  0  0  0
    9.2931   10.4311    1.5602 H   0  0  0  0  0  0  0  0  0  0  0  0
   10.9283   11.5932    2.8686 H   0  0  0  0  0  0  0  0  0  0  0  0
   11.4156   11.0139    6.5493 H   0  0  0  0  0  0  0  0  0  0  0  0
   13.5512   11.6715    6.6542 H   0  0  0  0  0  0  0  0  0  0  0  0
   15.8757   12.1632    6.5567 H   0  0  0  0  0  0  0  0  0  0  0  0
   17.6469   13.7685    6.0047 H   0  0  0  0  0  0  0  0  0  0  0  0
   12.9306   14.9502    5.1029 H   0  0  0  0  0  0  0  0  0  0  0  0
    9.6084    9.5072    6.4173 H   0  0  0  0  0  0  0  0  0  0  0  0
    7.9397    8.3584    5.0822 H   0  0  0  0  0  0  0  0  0  0  0  0
    7.4063    4.7503    4.6814 H   0  0  0  0  0  0  0  0  0  0  0  0
    4.5972    3.0132    2.9246 H   0  0  0  0  0  0  0  0  0  0  0  0
    3.1764    1.0660    2.8006 H   0  0  0  0  0  0  0  0  0  0  0  0
  1  2  1  0  0  0  0
  1 41  1  0  0  0  0
  1 42  1  0  0  0  0
  1 43  1  0  0  0  0
  2  3  1  0  0  0  0
  3  4  1  0  0  0  0
  3 40  2  0  0  0  0
  4  5  2  0  0  0  0
  4 44  1  0  0  0  0
  5  6  1  0  0  0  0
  5 45  1  0  0  0  0
  6  7  1  0  0  0  0
  6 39  2  0  0  0  0
  7  8  1  0  0  0  0
  7 38  1  0  0  0  0
  8  9  2  0  0  0  0
  9 10  1  0  0  0  0
  9 11  1  0  0  0  0
 10 46  1  0  0  0  0
 10 47  1  0  0  0  0
 10 48  1  0  0  0  0
 11 12  1  0  0  0  0
 11 38  2  0  0  0  0
 12 13  1  0  0  0  0
 12 35  2  0  0  0  0
 13 14  1  0  0  0  0
 13 49  1  0  0  0  0
 14 15  1  0  0  0  0
 14 34  2  0  0  0  0
 15 16  2  0  0  0  0
 15 50  1  0  0  0  0
 16 17  1  0  0  0  0
 16 51  1  0  0  0  0
 17 18  1  0  0  0  0
 17 33  2  0  0  0  0
 18 19  1  0  0  0  0
 18 52  1  0  0  0  0
 19 20  2  0  0  0  0
 19 21  1  0  0  0  0
 21 22  1  0  0  0  0
 21 53  1  0  0  0  0
 22 23  1  0  0  0  0
 22 32  2  0  0  0  0
 23 24  2  0  0  0  0
 23 54  1  0  0  0  0
 24 25  1  0  0  0  0
 24 55  1  0  0  0  0
 25 26  1  0  0  0  0
 25 27  2  0  0  0  0
 27 28  1  0  0  0  0
 27 32  1  0  0  0  0
 28 29  1  0  0  0  0
 28 30  1  0  0  0  0
 28 31  1  0  0  0  0
 32 56  1  0  0  0  0
 33 34  1  0  0  0  0
 33 57  1  0  0  0  0
 34 58  1  0  0  0  0
 35 36  1  0  0  0  0
 36 37  2  0  0  0  0
 36 59  1  0  0  0  0
 37 38  1  0  0  0  0
 39 40  1  0  0  0  0
 39 60  1  0  0  0  0
 40 61  1  0  0  0  0
M  END
$$$$
