CHEMBL3656112
 OpenBabel04072215373D

 64 68  0  0  1  0  0  0  0  0999 V2000
    2.8496   -5.0635   -1.0370 C   0  0  0  0  0  0  0  0  0  0  0  0
    1.5240   -4.4274   -0.7325 C   0  0  0  0  0  0  0  0  0  0  0  0
    1.4929   -3.1582   -0.1440 C   0  0  0  0  0  0  0  0  0  0  0  0
    0.2768   -2.5544    0.1418 C   0  0  0  0  0  0  0  0  0  0  0  0
   -0.9145   -3.2182   -0.1466 C   0  0  0  0  0  0  0  0  0  0  0  0
   -0.9213   -4.4866   -0.7396 C   0  0  0  0  0  0  0  0  0  0  0  0
   -2.1197   -5.1901   -1.0439 N   0  0  0  0  0  0  0  0  0  0  0  0
   -3.3967   -4.6694   -0.9247 C   0  0  0  0  0  0  0  0  0  0  0  0
   -3.6535   -3.5139   -0.6062 O   0  0  0  0  0  0  0  0  0  0  0  0
   -4.3942   -5.6170   -1.1514 N   0  0  0  0  0  0  0  0  0  0  0  0
   -5.7518   -5.2111   -1.0415 C   0  0  0  0  0  0  0  0  0  0  0  0
   -6.1872   -4.0161   -1.6275 C   0  0  0  0  0  0  0  0  0  0  0  0
   -7.4667   -3.5198   -1.3762 C   0  0  0  0  0  0  0  0  0  0  0  0
   -8.3557   -4.2517   -0.5910 C   0  0  0  0  0  0  0  0  0  0  0  0
   -9.6244   -3.8262   -0.2581 O   0  0  0  0  0  0  0  0  0  0  0  0
  -10.3557   -3.0661   -1.1460 C   0  0  0  0  0  0  0  0  0  0  0  0
  -10.3012   -3.2055   -2.5282 C   0  0  0  0  0  0  0  0  0  0  0  0
  -11.0859   -2.3680   -3.3017 C   0  0  0  0  0  0  0  0  0  0  0  0
  -11.9435   -1.4559   -2.7970 N   0  0  0  0  0  0  0  0  0  0  0  0
  -12.0288   -1.3834   -1.4486 C   0  0  0  0  0  0  0  0  0  0  0  0
  -13.0018   -0.4128   -0.9614 C   0  0  0  0  0  0  0  0  0  0  0  0
  -13.4678   -0.1524    0.3123 C   0  0  0  0  0  0  0  0  0  0  0  0
  -14.3594    0.9592    0.2703 C   0  0  0  0  0  0  0  0  0  0  0  0
  -15.0841    1.5924    1.3720 C   0  0  0  0  0  0  0  0  0  0  0  0
  -16.2136    2.0513    1.2081 O   0  0  0  0  0  0  0  0  0  0  0  0
  -14.4740    1.6026    2.6184 N   0  0  0  0  0  0  0  0  0  0  0  0
  -15.2356    1.9668    3.8032 C   0  0  0  0  0  0  0  0  0  0  0  0
  -14.2122    2.0547    4.9362 C   0  0  0  0  0  0  0  0  0  0  0  0
  -13.0120    1.2792    4.4052 C   0  0  1  0  0  0  0  0  0  0  0  0
  -13.2050   -0.1226    4.6095 O   0  0  0  0  0  0  0  0  0  0  0  0
  -13.0435    1.6065    2.9161 C   0  0  0  0  0  0  0  0  0  0  0  0
  -14.5087    1.2627   -1.0730 C   0  0  0  0  0  0  0  0  0  0  0  0
  -13.6853    0.4404   -1.7996 N   0  0  0  0  0  0  0  0  0  0  0  0
  -11.2550   -2.1591   -0.5912 C   0  0  0  0  0  0  0  0  0  0  0  0
   -7.9325   -5.4590   -0.0224 C   0  0  0  0  0  0  0  0  0  0  0  0
   -6.6413   -5.9531   -0.2642 C   0  0  0  0  0  0  0  0  0  0  0  0
    0.3136   -5.0920   -1.0215 C   0  0  0  0  0  0  0  0  0  0  0  0
    3.6810   -4.4221   -0.7199 H   0  0  0  0  0  0  0  0  0  0  0  0
    2.9539   -5.2315   -2.1128 H   0  0  0  0  0  0  0  0  0  0  0  0
    2.9465   -6.0136   -0.5034 H   0  0  0  0  0  0  0  0  0  0  0  0
    2.4122   -2.6252    0.0877 H   0  0  0  0  0  0  0  0  0  0  0  0
    0.2438   -1.5675    0.5946 H   0  0  0  0  0  0  0  0  0  0  0  0
   -1.8263   -2.6935    0.1149 H   0  0  0  0  0  0  0  0  0  0  0  0
   -2.0317   -6.0841   -1.5042 H   0  0  0  0  0  0  0  0  0  0  0  0
   -4.1740   -6.5466   -0.8243 H   0  0  0  0  0  0  0  0  0  0  0  0
   -5.5134   -3.4297   -2.2487 H   0  0  0  0  0  0  0  0  0  0  0  0
   -7.7331   -2.5488   -1.7825 H   0  0  0  0  0  0  0  0  0  0  0  0
   -9.6580   -3.9335   -3.0065 H   0  0  0  0  0  0  0  0  0  0  0  0
  -11.0422   -2.4123   -4.3860 H   0  0  0  0  0  0  0  0  0  0  0  0
  -13.1860   -0.7097    1.1949 H   0  0  0  0  0  0  0  0  0  0  0  0
  -15.9737    1.1779    3.9847 H   0  0  0  0  0  0  0  0  0  0  0  0
  -15.7619    2.9142    3.6516 H   0  0  0  0  0  0  0  0  0  0  0  0
  -14.6110    1.6515    5.8715 H   0  0  0  0  0  0  0  0  0  0  0  0
  -13.9334    3.1031    5.0933 H   0  0  0  0  0  0  0  0  0  0  0  0
  -12.0707    1.5635    4.8822 H   0  0  0  0  0  0  0  0  0  0  0  0
  -13.9664   -0.3940    4.0637 H   0  0  0  0  0  0  0  0  0  0  0  0
  -12.4669    0.9008    2.3251 H   0  0  0  0  0  0  0  0  0  0  0  0
  -12.6717    2.6189    2.7204 H   0  0  0  0  0  0  0  0  0  0  0  0
  -15.1395    1.9922   -1.5671 H   0  0  0  0  0  0  0  0  0  0  0  0
  -13.5848    0.4268   -2.8068 H   0  0  0  0  0  0  0  0  0  0  0  0
  -11.3359   -2.0653    0.4852 H   0  0  0  0  0  0  0  0  0  0  0  0
   -8.5994   -6.0019    0.6433 H   0  0  0  0  0  0  0  0  0  0  0  0
   -6.3259   -6.8676    0.2293 H   0  0  0  0  0  0  0  0  0  0  0  0
    0.3525   -6.0704   -1.4864 H   0  0  0  0  0  0  0  0  0  0  0  0
  1  2  1  0  0  0  0
  1 38  1  0  0  0  0
  1 39  1  0  0  0  0
  1 40  1  0  0  0  0
  2  3  1  0  0  0  0
  2 37  2  0  0  0  0
  3  4  2  0  0  0  0
  3 41  1  0  0  0  0
  4  5  1  0  0  0  0
  4 42  1  0  0  0  0
  5  6  2  0  0  0  0
  5 43  1  0  0  0  0
  6  7  1  0  0  0  0
  6 37  1  0  0  0  0
  7  8  1  0  0  0  0
  7 44  1  0  0  0  0
  8  9  2  0  0  0  0
  8 10  1  0  0  0  0
 10 11  1  0  0  0  0
 10 45  1  0  0  0  0
 11 12  1  0  0  0  0
 11 36  2  0  0  0  0
 12 13  2  0  0  0  0
 12 46  1  0  0  0  0
 13 14  1  0  0  0  0
 13 47  1  0  0  0  0
 14 15  1  0  0  0  0
 14 35  2  0  0  0  0
 15 16  1  0  0  0  0
 16 17  1  0  0  0  0
 16 34  2  0  0  0  0
 17 18  2  0  0  0  0
 17 48  1  0  0  0  0
 18 19  1  0  0  0  0
 18 49  1  0  0  0  0
 19 20  2  0  0  0  0
 20 21  1  0  0  0  0
 20 34  1  0  0  0  0
 21 22  2  0  0  0  0
 21 33  1  0  0  0  0
 22 23  1  0  0  0  0
 22 50  1  0  0  0  0
 23 24  1  0  0  0  0
 23 32  2  0  0  0  0
 24 25  2  0  0  0  0
 24 26  1  0  0  0  0
 26 27  1  0  0  0  0
 26 31  1  0  0  0  0
 27 28  1  0  0  0  0
 27 51  1  0  0  0  0
 27 52  1  0  0  0  0
 28 29  1  0  0  0  0
 28 53  1  0  0  0  0
 28 54  1  0  0  0  0
 29 30  1  0  0  0  0
 29 31  1  0  0  0  0
 29 55  1  1  0  0  0
 30 56  1  0  0  0  0
 31 57  1  0  0  0  0
 31 58  1  0  0  0  0
 32 33  1  0  0  0  0
 32 59  1  0  0  0  0
 33 60  1  0  0  0  0
 34 61  1  0  0  0  0
 35 36  1  0  0  0  0
 35 62  1  0  0  0  0
 36 63  1  0  0  0  0
 37 64  1  0  0  0  0
M  END
$$$$
