CHEMBL3288520
 OpenBabel04072215363D

 46 50  0  0  0  0  0  0  0  0999 V2000
    1.6459   -0.0043   -3.4639 C   0  0  0  0  0  0  0  0  0  0  0  0
    0.6751   -0.7086   -2.6104 C   0  0  0  0  0  0  0  0  0  0  0  0
   -0.5380   -1.3193   -2.8162 C   0  0  0  0  0  0  0  0  0  0  0  0
   -0.9191   -1.8017   -1.5380 C   0  0  0  0  0  0  0  0  0  0  0  0
   -2.0812   -2.5144   -1.2945 N   0  0  0  0  0  0  0  0  0  0  0  0
   -2.4670   -2.9416   -0.0376 C   0  0  0  0  0  0  0  0  0  0  0  0
   -1.9141   -2.6776    1.0225 O   0  0  0  0  0  0  0  0  0  0  0  0
   -3.6970   -3.7911   -0.0050 C   0  0  0  0  0  0  0  0  0  0  0  0
   -4.8084   -3.3995   -0.7671 C   0  0  0  0  0  0  0  0  0  0  0  0
   -5.9858   -4.1375   -0.7170 C   0  0  0  0  0  0  0  0  0  0  0  0
   -6.0788   -5.2368    0.1360 C   0  0  0  0  0  0  0  0  0  0  0  0
   -4.9898   -5.6404    0.9278 C   0  0  0  0  0  0  0  0  0  0  0  0
   -5.1151   -6.7315    1.8159 C   0  0  0  0  0  0  0  0  0  0  0  0
   -4.0367   -7.2238    2.5790 C   0  0  0  0  0  0  0  0  0  0  0  0
   -4.2030   -8.3548    3.5224 C   0  0  0  0  0  0  0  0  0  0  0  0
   -5.0593   -9.4391    3.1899 C   0  0  0  0  0  0  0  0  0  0  0  0
   -5.2682  -10.5252    4.0379 C   0  0  0  0  0  0  0  0  0  0  0  0
   -4.6181  -10.5995    5.2623 C   0  0  0  0  0  0  0  0  0  0  0  0
   -3.7635   -9.5465    5.5965 C   0  0  0  0  0  0  0  0  0  0  0  0
   -2.9919   -9.3701    6.7113 N   0  0  0  0  0  0  0  0  0  0  0  0
   -2.2931   -8.2365    6.7267 N   0  0  0  0  0  0  0  0  0  0  0  0
   -2.6247   -7.6431    5.5835 C   0  0  0  0  0  0  0  0  0  0  0  0
   -2.1057   -6.4440    5.2858 N   0  0  0  0  0  0  0  0  0  0  0  0
   -3.5373   -8.4244    4.7896 C   0  0  0  0  0  0  0  0  0  0  0  0
   -2.8030   -6.6087    2.3675 C   0  0  0  0  0  0  0  0  0  0  0  0
   -2.6777   -5.4666    1.5680 C   0  0  0  0  0  0  0  0  0  0  0  0
   -3.7633   -4.9427    0.8341 C   0  0  0  0  0  0  0  0  0  0  0  0
    0.0090   -1.4882   -0.6295 N   0  0  0  0  0  0  0  0  0  0  0  0
    1.0043   -0.8123   -1.2985 O   0  0  0  0  0  0  0  0  0  0  0  0
    1.2956    0.0520   -4.4986 H   0  0  0  0  0  0  0  0  0  0  0  0
    2.6089   -0.5246   -3.4566 H   0  0  0  0  0  0  0  0  0  0  0  0
    1.8048    1.0159   -3.1006 H   0  0  0  0  0  0  0  0  0  0  0  0
   -1.0683   -1.4014   -3.7519 H   0  0  0  0  0  0  0  0  0  0  0  0
   -2.6338   -2.7585   -2.1013 H   0  0  0  0  0  0  0  0  0  0  0  0
   -4.7777   -2.5029   -1.3847 H   0  0  0  0  0  0  0  0  0  0  0  0
   -6.8413   -3.8444   -1.3205 H   0  0  0  0  0  0  0  0  0  0  0  0
   -7.0173   -5.7875    0.1737 H   0  0  0  0  0  0  0  0  0  0  0  0
   -6.0920   -7.2042    1.9147 H   0  0  0  0  0  0  0  0  0  0  0  0
   -5.5731   -9.4480    2.2298 H   0  0  0  0  0  0  0  0  0  0  0  0
   -5.9391  -11.3260    3.7345 H   0  0  0  0  0  0  0  0  0  0  0  0
   -4.7673  -11.4462    5.9248 H   0  0  0  0  0  0  0  0  0  0  0  0
   -2.9028   -9.9961    7.5023 H   0  0  0  0  0  0  0  0  0  0  0  0
   -1.5580   -5.9992    6.0140 H   0  0  0  0  0  0  0  0  0  0  0  0
   -2.6195   -5.7848    4.7135 H   0  0  0  0  0  0  0  0  0  0  0  0
   -1.9049   -6.9910    2.8496 H   0  0  0  0  0  0  0  0  0  0  0  0
   -1.6961   -4.9951    1.5291 H   0  0  0  0  0  0  0  0  0  0  0  0
  1  2  1  0  0  0  0
  1 30  1  0  0  0  0
  1 31  1  0  0  0  0
  1 32  1  0  0  0  0
  2  3  2  0  0  0  0
  2 29  1  0  0  0  0
  3  4  1  0  0  0  0
  3 33  1  0  0  0  0
  4  5  1  0  0  0  0
  4 28  2  0  0  0  0
  5  6  1  0  0  0  0
  5 34  1  0  0  0  0
  6  7  2  0  0  0  0
  6  8  1  0  0  0  0
  8  9  1  0  0  0  0
  8 27  2  0  0  0  0
  9 10  2  0  0  0  0
  9 35  1  0  0  0  0
 10 11  1  0  0  0  0
 10 36  1  0  0  0  0
 11 12  2  0  0  0  0
 11 37  1  0  0  0  0
 12 13  1  0  0  0  0
 12 27  1  0  0  0  0
 13 14  2  0  0  0  0
 13 38  1  0  0  0  0
 14 15  1  0  0  0  0
 14 25  1  0  0  0  0
 15 16  1  0  0  0  0
 15 24  2  0  0  0  0
 16 17  2  0  0  0  0
 16 39  1  0  0  0  0
 17 18  1  0  0  0  0
 17 40  1  0  0  0  0
 18 19  2  0  0  0  0
 18 41  1  0  0  0  0
 19 20  1  0  0  0  0
 19 24  1  0  0  0  0
 20 21  1  0  0  0  0
 20 42  1  0  0  0  0
 21 22  2  0  0  0  0
 22 23  1  0  0  0  0
 22 24  1  0  0  0  0
 23 43  1  0  0  0  0
 23 44  1  0  0  0  0
 25 26  2  0  0  0  0
 25 45  1  0  0  0  0
 26 27  1  0  0  0  0
 26 46  1  0  0  0  0
 28 29  1  0  0  0  0
M  END
$$$$
