CHEMBL190805
 OpenBabel04072215363D

 44 46  0  0  0  0  0  0  0  0999 V2000
   -2.2755    0.0421    0.2205 N   0  0  0  0  0  0  0  0  0  0  0  0
   -0.8993    0.0254    0.1230 C   0  0  0  0  0  0  0  0  0  0  0  0
   -0.3033   -1.1574    0.0668 N   0  0  0  0  0  0  0  0  0  0  0  0
    1.0151   -1.1226   -0.0799 C   0  0  0  0  0  0  0  0  0  0  0  0
    1.6933   -2.3408   -0.1367 N   0  0  0  0  0  0  0  0  0  0  0  0
    2.9393   -2.6142   -0.7169 C   0  0  0  0  0  0  0  0  0  0  0  0
    3.7495   -3.6256   -0.1855 C   0  0  0  0  0  0  0  0  0  0  0  0
    5.0331   -3.8570   -0.6937 C   0  0  0  0  0  0  0  0  0  0  0  0
    5.5198   -3.0861   -1.7492 C   0  0  0  0  0  0  0  0  0  0  0  0
    4.7189   -2.0830   -2.2874 C   0  0  0  0  0  0  0  0  0  0  0  0
    5.3040   -1.1209   -3.5895 Cl  0  0  0  0  0  0  0  0  0  0  0  0
    3.4468   -1.8446   -1.7740 C   0  0  0  0  0  0  0  0  0  0  0  0
    1.7181   -0.0002   -0.1426 N   0  0  0  0  0  0  0  0  0  0  0  0
    1.0358    1.1354   -0.0473 C   0  0  0  0  0  0  0  0  0  0  0  0
    1.8134    2.3865   -0.0238 C   0  0  0  0  0  0  0  0  0  0  0  0
    1.1997    3.6383    0.0591 C   0  0  0  0  0  0  0  0  0  0  0  0
    1.9933    4.7701    0.1474 C   0  0  0  0  0  0  0  0  0  0  0  0
    3.3468    4.7527    0.1742 N   0  0  0  0  0  0  0  0  0  0  0  0
    3.9553    3.5532    0.0923 C   0  0  0  0  0  0  0  0  0  0  0  0
    5.3346    3.4469    0.2356 N   0  0  0  0  0  0  0  0  0  0  0  0
    6.1002    4.5630    0.7647 C   0  0  0  0  0  0  0  0  0  0  0  0
    6.9049    5.3074   -0.2964 C   0  0  0  0  0  0  0  0  0  0  0  0
    6.0613    6.0299   -1.3352 C   0  0  0  0  0  0  0  0  0  0  0  0
    5.1658    6.9417   -0.7148 O   0  0  0  0  0  0  0  0  0  0  0  0
    3.2209    2.3743   -0.0289 C   0  0  0  0  0  0  0  0  0  0  0  0
   -0.2897    1.1984    0.0584 N   0  0  0  0  0  0  0  0  0  0  0  0
   -2.6723   -0.8116   -0.1479 H   0  0  0  0  0  0  0  0  0  0  0  0
   -2.6472    0.9129   -0.1322 H   0  0  0  0  0  0  0  0  0  0  0  0
    1.0909   -3.1262    0.0654 H   0  0  0  0  0  0  0  0  0  0  0  0
    3.4035   -4.2166    0.6591 H   0  0  0  0  0  0  0  0  0  0  0  0
    5.6608   -4.6290   -0.2550 H   0  0  0  0  0  0  0  0  0  0  0  0
    6.5161   -3.2630   -2.1400 H   0  0  0  0  0  0  0  0  0  0  0  0
    2.8403   -1.0583   -2.2156 H   0  0  0  0  0  0  0  0  0  0  0  0
    0.1182    3.7356    0.0775 H   0  0  0  0  0  0  0  0  0  0  0  0
    1.5420    5.7560    0.2199 H   0  0  0  0  0  0  0  0  0  0  0  0
    5.7850    2.8674   -0.4629 H   0  0  0  0  0  0  0  0  0  0  0  0
    6.8142    4.1381    1.4808 H   0  0  0  0  0  0  0  0  0  0  0  0
    5.4850    5.2544    1.3527 H   0  0  0  0  0  0  0  0  0  0  0  0
    7.5975    4.6225   -0.7997 H   0  0  0  0  0  0  0  0  0  0  0  0
    7.5175    6.0537    0.2275 H   0  0  0  0  0  0  0  0  0  0  0  0
    5.4872    5.3293   -1.9508 H   0  0  0  0  0  0  0  0  0  0  0  0
    6.7118    6.5997   -2.0053 H   0  0  0  0  0  0  0  0  0  0  0  0
    4.4615    6.3903   -0.3090 H   0  0  0  0  0  0  0  0  0  0  0  0
    3.7565    1.4273   -0.0592 H   0  0  0  0  0  0  0  0  0  0  0  0
  1  2  1  0  0  0  0
  1 27  1  0  0  0  0
  1 28  1  0  0  0  0
  2  3  1  0  0  0  0
  2 26  2  0  0  0  0
  3  4  2  0  0  0  0
  4  5  1  0  0  0  0
  4 13  1  0  0  0  0
  5  6  1  0  0  0  0
  5 29  1  0  0  0  0
  6  7  1  0  0  0  0
  6 12  2  0  0  0  0
  7  8  2  0  0  0  0
  7 30  1  0  0  0  0
  8  9  1  0  0  0  0
  8 31  1  0  0  0  0
  9 10  2  0  0  0  0
  9 32  1  0  0  0  0
 10 11  1  0  0  0  0
 10 12  1  0  0  0  0
 12 33  1  0  0  0  0
 13 14  2  0  0  0  0
 14 15  1  0  0  0  0
 14 26  1  0  0  0  0
 15 16  1  0  0  0  0
 15 25  2  0  0  0  0
 16 17  2  0  0  0  0
 16 34  1  0  0  0  0
 17 18  1  0  0  0  0
 17 35  1  0  0  0  0
 18 19  2  0  0  0  0
 19 20  1  0  0  0  0
 19 25  1  0  0  0  0
 20 21  1  0  0  0  0
 20 36  1  0  0  0  0
 21 22  1  0  0  0  0
 21 37  1  0  0  0  0
 21 38  1  0  0  0  0
 22 23  1  0  0  0  0
 22 39  1  0  0  0  0
 22 40  1  0  0  0  0
 23 24  1  0  0  0  0
 23 41  1  0  0  0  0
 23 42  1  0  0  0  0
 24 43  1  0  0  0  0
 25 44  1  0  0  0  0
M  END
$$$$
