CHEMBL3740713
 OpenBabel04072215373D

 69 74  0  0  0  0  0  0  0  0999 V2000
    2.4418   -0.1746    0.0789 C   0  0  0  0  0  0  0  0  0  0  0  0
    0.9455   -0.1074    0.0881 C   0  0  0  0  0  0  0  0  0  0  0  0
    0.2633    0.6813   -0.8392 C   0  0  0  0  0  0  0  0  0  0  0  0
   -1.1240    0.7444   -0.8325 C   0  0  0  0  0  0  0  0  0  0  0  0
   -1.8628    0.0131    0.1144 C   0  0  0  0  0  0  0  0  0  0  0  0
   -3.2839    0.0560    0.1168 N   0  0  0  0  0  0  0  0  0  0  0  0
   -4.0618    0.7420   -0.7769 C   0  0  0  0  0  0  0  0  0  0  0  0
   -5.3652    0.3671   -0.5582 C   0  0  0  0  0  0  0  0  0  0  0  0
   -6.5189    0.7360   -1.3574 C   0  0  0  0  0  0  0  0  0  0  0  0
   -7.5526    1.0653   -0.7987 O   0  0  0  0  0  0  0  0  0  0  0  0
   -6.4084    0.6983   -2.8388 C   0  0  0  0  0  0  0  0  0  0  0  0
   -5.5029   -0.0230   -3.6236 C   0  0  0  0  0  0  0  0  0  0  0  0
   -4.4089   -0.9960   -3.3293 C   0  0  0  0  0  0  0  0  0  0  0  0
   -5.7455    0.2959   -4.9379 N   0  0  0  0  0  0  0  0  0  0  0  0
   -6.8024    1.1605   -5.0685 C   0  0  0  0  0  0  0  0  0  0  0  0
   -7.2019    1.6731   -6.3909 C   0  0  0  0  0  0  0  0  0  0  0  0
   -8.5563    1.8384   -6.7188 C   0  0  0  0  0  0  0  0  0  0  0  0
   -8.9334    2.5571   -7.8545 C   0  0  0  0  0  0  0  0  0  0  0  0
   -7.9622    3.0501   -8.7211 C   0  0  0  0  0  0  0  0  0  0  0  0
   -6.6157    2.8054   -8.4634 C   0  0  0  0  0  0  0  0  0  0  0  0
   -6.2365    2.1231   -7.3030 C   0  0  0  0  0  0  0  0  0  0  0  0
   -7.2854    1.3996   -3.7771 C   0  0  0  0  0  0  0  0  0  0  0  0
   -8.4364    2.2790   -3.4849 C   0  0  0  0  0  0  0  0  0  0  0  0
   -9.4274    1.8880   -2.5747 C   0  0  0  0  0  0  0  0  0  0  0  0
  -10.4723    2.7460   -2.2192 C   0  0  0  0  0  0  0  0  0  0  0  0
  -10.6220    3.9624   -2.8723 C   0  0  0  0  0  0  0  0  0  0  0  0
   -9.7027    4.3341   -3.8478 C   0  0  0  0  0  0  0  0  0  0  0  0
   -8.5922    3.5245   -4.1118 C   0  0  0  0  0  0  0  0  0  0  0  0
   -5.3194   -0.3536    0.6729 C   0  0  0  0  0  0  0  0  0  0  0  0
   -6.4884   -0.7134    1.5018 C   0  0  0  0  0  0  0  0  0  0  0  0
   -7.4707    0.0163    1.5335 O   0  0  0  0  0  0  0  0  0  0  0  0
   -6.3731   -1.8649    2.2702 N   0  0  0  0  0  0  0  0  0  0  0  0
   -7.4292   -2.3694    3.0729 C   0  0  0  0  0  0  0  0  0  0  0  0
   -8.7752   -2.0467    2.8400 C   0  0  0  0  0  0  0  0  0  0  0  0
   -9.7841   -2.4700    3.7073 C   0  0  0  0  0  0  0  0  0  0  0  0
   -9.4631   -3.2515    4.8099 C   0  0  0  0  0  0  0  0  0  0  0  0
   -8.1368   -3.6326    5.0206 C   0  0  0  0  0  0  0  0  0  0  0  0
   -7.1252   -3.2049    4.1486 C   0  0  0  0  0  0  0  0  0  0  0  0
   -4.0440   -0.6460    1.0121 N   0  0  0  0  0  0  0  0  0  0  0  0
   -1.1875   -0.7924    1.0389 C   0  0  0  0  0  0  0  0  0  0  0  0
    0.2089   -0.8514    1.0198 C   0  0  0  0  0  0  0  0  0  0  0  0
    2.8683    0.5237   -0.6491 H   0  0  0  0  0  0  0  0  0  0  0  0
    2.7740   -1.1835   -0.1843 H   0  0  0  0  0  0  0  0  0  0  0  0
    2.8334    0.0940    1.0649 H   0  0  0  0  0  0  0  0  0  0  0  0
    0.8155    1.2602   -1.5714 H   0  0  0  0  0  0  0  0  0  0  0  0
   -1.5944    1.3860   -1.5700 H   0  0  0  0  0  0  0  0  0  0  0  0
   -3.6550    1.3839   -1.5434 H   0  0  0  0  0  0  0  0  0  0  0  0
   -4.4698   -1.4111   -2.3224 H   0  0  0  0  0  0  0  0  0  0  0  0
   -3.4306   -0.5178   -3.4550 H   0  0  0  0  0  0  0  0  0  0  0  0
   -4.4542   -1.8500   -4.0132 H   0  0  0  0  0  0  0  0  0  0  0  0
   -5.2203   -0.0699   -5.7207 H   0  0  0  0  0  0  0  0  0  0  0  0
   -9.3329    1.4791   -6.0459 H   0  0  0  0  0  0  0  0  0  0  0  0
   -9.9854    2.7599   -8.0371 H   0  0  0  0  0  0  0  0  0  0  0  0
   -8.2551    3.6333   -9.5898 H   0  0  0  0  0  0  0  0  0  0  0  0
   -5.8566    3.1791   -9.1453 H   0  0  0  0  0  0  0  0  0  0  0  0
   -5.1769    2.0035   -7.0963 H   0  0  0  0  0  0  0  0  0  0  0  0
   -9.3869    0.9165   -2.0875 H   0  0  0  0  0  0  0  0  0  0  0  0
  -11.1599    2.4551   -1.4291 H   0  0  0  0  0  0  0  0  0  0  0  0
  -11.4519    4.6162   -2.6211 H   0  0  0  0  0  0  0  0  0  0  0  0
   -9.8388    5.2596   -4.3992 H   0  0  0  0  0  0  0  0  0  0  0  0
   -7.8695    3.8676   -4.8467 H   0  0  0  0  0  0  0  0  0  0  0  0
   -5.4349   -2.2300    2.3872 H   0  0  0  0  0  0  0  0  0  0  0  0
   -9.0800   -1.4523    1.9822 H   0  0  0  0  0  0  0  0  0  0  0  0
  -10.8127   -2.1707    3.5213 H   0  0  0  0  0  0  0  0  0  0  0  0
  -10.2451   -3.5579    5.4996 H   0  0  0  0  0  0  0  0  0  0  0  0
   -7.8906   -4.2485    5.8831 H   0  0  0  0  0  0  0  0  0  0  0  0
   -6.0999   -3.4936    4.3591 H   0  0  0  0  0  0  0  0  0  0  0  0
   -1.7318   -1.3802    1.7759 H   0  0  0  0  0  0  0  0  0  0  0  0
    0.7227   -1.4828    1.7419 H   0  0  0  0  0  0  0  0  0  0  0  0
  1  2  1  0  0  0  0
  1 42  1  0  0  0  0
  1 43  1  0  0  0  0
  1 44  1  0  0  0  0
  2  3  1  0  0  0  0
  2 41  2  0  0  0  0
  3  4  2  0  0  0  0
  3 45  1  0  0  0  0
  4  5  1  0  0  0  0
  4 46  1  0  0  0  0
  5  6  1  0  0  0  0
  5 40  2  0  0  0  0
  6  7  1  0  0  0  0
  6 39  1  0  0  0  0
  7  8  2  0  0  0  0
  7 47  1  0  0  0  0
  8  9  1  0  0  0  0
  8 29  1  0  0  0  0
  9 10  2  0  0  0  0
  9 11  1  0  0  0  0
 11 12  2  0  0  0  0
 11 22  1  0  0  0  0
 12 13  1  0  0  0  0
 12 14  1  0  0  0  0
 13 48  1  0  0  0  0
 13 49  1  0  0  0  0
 13 50  1  0  0  0  0
 14 15  1  0  0  0  0
 14 51  1  0  0  0  0
 15 16  1  0  0  0  0
 15 22  2  0  0  0  0
 16 17  1  0  0  0  0
 16 21  2  0  0  0  0
 17 18  2  0  0  0  0
 17 52  1  0  0  0  0
 18 19  1  0  0  0  0
 18 53  1  0  0  0  0
 19 20  2  0  0  0  0
 19 54  1  0  0  0  0
 20 21  1  0  0  0  0
 20 55  1  0  0  0  0
 21 56  1  0  0  0  0
 22 23  1  0  0  0  0
 23 24  1  0  0  0  0
 23 28  2  0  0  0  0
 24 25  2  0  0  0  0
 24 57  1  0  0  0  0
 25 26  1  0  0  0  0
 25 58  1  0  0  0  0
 26 27  2  0  0  0  0
 26 59  1  0  0  0  0
 27 28  1  0  0  0  0
 27 60  1  0  0  0  0
 28 61  1  0  0  0  0
 29 30  1  0  0  0  0
 29 39  2  0  0  0  0
 30 31  2  0  0  0  0
 30 32  1  0  0  0  0
 32 33  1  0  0  0  0
 32 62  1  0  0  0  0
 33 34  1  0  0  0  0
 33 38  2  0  0  0  0
 34 35  2  0  0  0  0
 34 63  1  0  0  0  0
 35 36  1  0  0  0  0
 35 64  1  0  0  0  0
 36 37  2  0  0  0  0
 36 65  1  0  0  0  0
 37 38  1  0  0  0  0
 37 66  1  0  0  0  0
 38 67  1  0  0  0  0
 40 41  1  0  0  0  0
 40 68  1  0  0  0  0
 41 69  1  0  0  0  0
M  END
$$$$
