CHEMBL1975500
 OpenBabel04072215363D

 58 61  0  0  0  0  0  0  0  0999 V2000
    6.7686    3.2986   -2.2641 C   0  0  0  0  0  0  0  0  0  0  0  0
    6.2476    2.1377   -1.6319 O   0  0  0  0  0  0  0  0  0  0  0  0
    5.0522    2.2636   -0.9735 C   0  0  0  0  0  0  0  0  0  0  0  0
    4.3311    3.4581   -0.8530 C   0  0  0  0  0  0  0  0  0  0  0  0
    3.0915    3.5139   -0.1856 C   0  0  0  0  0  0  0  0  0  0  0  0
    2.3211    4.7760   -0.1016 C   0  0  0  0  0  0  0  0  0  0  0  0
    1.5614    5.0820    1.0360 C   0  0  0  0  0  0  0  0  0  0  0  0
    0.8440    6.2718    1.1181 C   0  0  0  0  0  0  0  0  0  0  0  0
    0.9061    7.2091    0.0797 C   0  0  0  0  0  0  0  0  0  0  0  0
    1.6365    6.9469   -1.0750 C   0  0  0  0  0  0  0  0  0  0  0  0
    2.3277    5.7218   -1.1521 C   0  0  0  0  0  0  0  0  0  0  0  0
    1.8041    7.8915   -2.1007 N   0  0  0  0  0  0  0  0  0  0  0  0
    2.2303    9.2204   -1.8904 C   0  0  0  0  0  0  0  0  0  0  0  0
    3.0719    9.7979   -2.8586 C   0  0  0  0  0  0  0  0  0  0  0  0
    3.5917   11.0845   -2.6904 C   0  0  0  0  0  0  0  0  0  0  0  0
    3.2915   11.8189   -1.5428 C   0  0  0  0  0  0  0  0  0  0  0  0
    3.8742   13.1715   -1.3995 C   0  0  0  0  0  0  0  0  0  0  0  0
    4.1199   13.8475   -2.3936 O   0  0  0  0  0  0  0  0  0  0  0  0
    4.1410   13.6031   -0.1128 N   0  0  0  0  0  0  0  0  0  0  0  0
    4.7353   14.9062    0.1484 C   0  0  0  0  0  0  0  0  0  0  0  0
    3.6766   16.0017    0.3226 C   0  0  0  0  0  0  0  0  0  0  0  0
    2.7280   15.7325    1.3959 N   0  0  0  0  0  0  0  0  0  0  0  0
    3.1116   15.7104    2.7151 C   0  0  0  0  0  0  0  0  0  0  0  0
    1.9854   15.4970    3.6910 C   0  0  0  0  0  0  0  0  0  0  0  0
    4.2746   15.8275    3.0859 O   0  0  0  0  0  0  0  0  0  0  0  0
    2.4089   11.2849   -0.6016 C   0  0  0  0  0  0  0  0  0  0  0  0
    1.8579   10.0029   -0.7815 C   0  0  0  0  0  0  0  0  0  0  0  0
    0.8420    9.6557    0.1239 N   0  0  0  0  0  0  0  0  0  0  0  0
    0.1889    8.4698    0.3062 C   0  0  0  0  0  0  0  0  0  0  0  0
   -0.9137    8.4531    0.8531 O   0  0  0  0  0  0  0  0  0  0  0  0
    2.6140    2.3270    0.3983 C   0  0  0  0  0  0  0  0  0  0  0  0
    3.3277    1.1311    0.3027 C   0  0  0  0  0  0  0  0  0  0  0  0
    4.5338    1.1040   -0.3880 C   0  0  0  0  0  0  0  0  0  0  0  0
    5.2261   -0.0723   -0.5001 O   0  0  0  0  0  0  0  0  0  0  0  0
    7.7119    3.0255   -2.7468 H   0  0  0  0  0  0  0  0  0  0  0  0
    6.9864    4.0826   -1.5307 H   0  0  0  0  0  0  0  0  0  0  0  0
    6.0900    3.6636   -3.0426 H   0  0  0  0  0  0  0  0  0  0  0  0
    4.7337    4.3748   -1.2702 H   0  0  0  0  0  0  0  0  0  0  0  0
    1.5332    4.4092    1.8901 H   0  0  0  0  0  0  0  0  0  0  0  0
    0.2617    6.4873    2.0116 H   0  0  0  0  0  0  0  0  0  0  0  0
    2.9096    5.5131   -2.0480 H   0  0  0  0  0  0  0  0  0  0  0  0
    2.1653    7.4877   -2.9613 H   0  0  0  0  0  0  0  0  0  0  0  0
    3.3418    9.2482   -3.7574 H   0  0  0  0  0  0  0  0  0  0  0  0
    4.2416   11.5089   -3.4545 H   0  0  0  0  0  0  0  0  0  0  0  0
    3.9592   13.0140    0.6869 H   0  0  0  0  0  0  0  0  0  0  0  0
    5.4003   15.1718   -0.6802 H   0  0  0  0  0  0  0  0  0  0  0  0
    5.3525   14.7993    1.0458 H   0  0  0  0  0  0  0  0  0  0  0  0
    3.0894   16.1103   -0.5964 H   0  0  0  0  0  0  0  0  0  0  0  0
    4.1641   16.9605    0.5315 H   0  0  0  0  0  0  0  0  0  0  0  0
    1.7439   15.7439    1.1627 H   0  0  0  0  0  0  0  0  0  0  0  0
    1.0142   15.4472    3.1912 H   0  0  0  0  0  0  0  0  0  0  0  0
    1.9685   16.3272    4.4025 H   0  0  0  0  0  0  0  0  0  0  0  0
    2.1509   14.5573    4.2252 H   0  0  0  0  0  0  0  0  0  0  0  0
    2.1174   11.8752    0.2624 H   0  0  0  0  0  0  0  0  0  0  0  0
    0.4041   10.4070    0.6411 H   0  0  0  0  0  0  0  0  0  0  0  0
    1.6634    2.3137    0.9280 H   0  0  0  0  0  0  0  0  0  0  0  0
    2.9241    0.2380    0.7712 H   0  0  0  0  0  0  0  0  0  0  0  0
    4.7213   -0.7782   -0.0662 H   0  0  0  0  0  0  0  0  0  0  0  0
  1  2  1  0  0  0  0
  1 35  1  0  0  0  0
  1 36  1  0  0  0  0
  1 37  1  0  0  0  0
  2  3  1  0  0  0  0
  3  4  1  0  0  0  0
  3 33  2  0  0  0  0
  4  5  2  0  0  0  0
  4 38  1  0  0  0  0
  5  6  1  0  0  0  0
  5 31  1  0  0  0  0
  6  7  1  0  0  0  0
  6 11  2  0  0  0  0
  7  8  2  0  0  0  0
  7 39  1  0  0  0  0
  8  9  1  0  0  0  0
  8 40  1  0  0  0  0
  9 10  2  0  0  0  0
  9 29  1  0  0  0  0
 10 11  1  0  0  0  0
 10 12  1  0  0  0  0
 11 41  1  0  0  0  0
 12 13  1  0  0  0  0
 12 42  1  0  0  0  0
 13 14  1  0  0  0  0
 13 27  2  0  0  0  0
 14 15  2  0  0  0  0
 14 43  1  0  0  0  0
 15 16  1  0  0  0  0
 15 44  1  0  0  0  0
 16 17  1  0  0  0  0
 16 26  2  0  0  0  0
 17 18  2  0  0  0  0
 17 19  1  0  0  0  0
 19 20  1  0  0  0  0
 19 45  1  0  0  0  0
 20 21  1  0  0  0  0
 20 46  1  0  0  0  0
 20 47  1  0  0  0  0
 21 22  1  0  0  0  0
 21 48  1  0  0  0  0
 21 49  1  0  0  0  0
 22 23  1  0  0  0  0
 22 50  1  0  0  0  0
 23 24  1  0  0  0  0
 23 25  2  0  0  0  0
 24 51  1  0  0  0  0
 24 52  1  0  0  0  0
 24 53  1  0  0  0  0
 26 27  1  0  0  0  0
 26 54  1  0  0  0  0
 27 28  1  0  0  0  0
 28 29  1  0  0  0  0
 28 55  1  0  0  0  0
 29 30  2  0  0  0  0
 31 32  2  0  0  0  0
 31 56  1  0  0  0  0
 32 33  1  0  0  0  0
 32 57  1  0  0  0  0
 33 34  1  0  0  0  0
 34 58  1  0  0  0  0
M  END
$$$$
