CHEMBL3907327
 OpenBabel04072215373D

 53 57  0  0  0  0  0  0  0  0999 V2000
    0.9310    0.1671    0.8910 C   0  0  0  0  0  0  0  0  0  0  0  0
    2.3442    0.2360    1.0282 O   0  0  0  0  0  0  0  0  0  0  0  0
    2.9639    1.3675    0.5694 C   0  0  0  0  0  0  0  0  0  0  0  0
    2.3362    2.5232    0.1222 C   0  0  0  0  0  0  0  0  0  0  0  0
    3.1203    3.5703   -0.3480 C   0  0  0  0  0  0  0  0  0  0  0  0
    2.5581    4.7378   -0.7795 O   0  0  0  0  0  0  0  0  0  0  0  0
    4.5103    3.4677   -0.4066 C   0  0  0  0  0  0  0  0  0  0  0  0
    5.1809    2.3224    0.0522 C   0  0  0  0  0  0  0  0  0  0  0  0
    6.5962    2.2230   -0.0436 N   0  0  0  0  0  0  0  0  0  0  0  0
    7.1959    0.8697    0.0246 C   0  0  0  0  0  0  0  0  0  0  0  0
    7.1024    0.0939   -1.2699 C   0  0  0  0  0  0  0  0  0  0  0  0
    5.8566   -0.4819   -1.9138 C   0  0  0  0  0  0  0  0  0  0  0  0
    6.7827   -1.3813   -1.1539 C   0  0  0  0  0  0  0  0  0  0  0  0
    7.5302    3.2984    0.0226 C   0  0  0  0  0  0  0  0  0  0  0  0
    8.7545    3.2418   -0.6553 C   0  0  0  0  0  0  0  0  0  0  0  0
    9.6824    4.2810   -0.5645 C   0  0  0  0  0  0  0  0  0  0  0  0
    9.4120    5.4214    0.1656 C   0  0  0  0  0  0  0  0  0  0  0  0
   10.3390    6.3922    0.2024 N   0  0  0  0  0  0  0  0  0  0  0  0
   10.0104    7.5029    0.8984 C   0  0  0  0  0  0  0  0  0  0  0  0
    8.7945    7.6566    1.5500 C   0  0  0  0  0  0  0  0  0  0  0  0
    8.4610    8.8960    2.2285 C   0  0  0  0  0  0  0  0  0  0  0  0
    9.1880   10.1041    2.3618 C   0  0  0  0  0  0  0  0  0  0  0  0
    8.5233   11.0404    3.0423 N   0  0  0  0  0  0  0  0  0  0  0  0
    7.3589   10.4397    3.3442 N   0  0  0  0  0  0  0  0  0  0  0  0
    6.3436   11.1645    4.0688 C   0  0  0  0  0  0  0  0  0  0  0  0
    7.2742    9.1570    2.8851 C   0  0  0  0  0  0  0  0  0  0  0  0
    7.8716    6.6600    1.5423 N   0  0  0  0  0  0  0  0  0  0  0  0
    8.1757    5.5362    0.8455 C   0  0  0  0  0  0  0  0  0  0  0  0
    7.2770    4.4687    0.7701 C   0  0  0  0  0  0  0  0  0  0  0  0
    4.3658    1.2946    0.5637 C   0  0  0  0  0  0  0  0  0  0  0  0
    0.6208   -0.8519    1.1437 H   0  0  0  0  0  0  0  0  0  0  0  0
    0.6115    0.3614   -0.1385 H   0  0  0  0  0  0  0  0  0  0  0  0
    0.4439    0.8513    1.5924 H   0  0  0  0  0  0  0  0  0  0  0  0
    1.2582    2.6170    0.1264 H   0  0  0  0  0  0  0  0  0  0  0  0
    1.6101    4.7250   -0.5723 H   0  0  0  0  0  0  0  0  0  0  0  0
    5.0652    4.2975   -0.8354 H   0  0  0  0  0  0  0  0  0  0  0  0
    6.7956    0.3008    0.8701 H   0  0  0  0  0  0  0  0  0  0  0  0
    8.2644    0.9190    0.2764 H   0  0  0  0  0  0  0  0  0  0  0  0
    7.8778    0.3977   -1.9650 H   0  0  0  0  0  0  0  0  0  0  0  0
    5.8425   -0.5978   -2.9939 H   0  0  0  0  0  0  0  0  0  0  0  0
    4.8789   -0.2777   -1.5022 H   0  0  0  0  0  0  0  0  0  0  0  0
    7.4017   -2.0795   -1.7029 H   0  0  0  0  0  0  0  0  0  0  0  0
    6.4128   -1.7706   -0.2100 H   0  0  0  0  0  0  0  0  0  0  0  0
    9.0088    2.3936   -1.2841 H   0  0  0  0  0  0  0  0  0  0  0  0
   10.6313    4.2021   -1.0899 H   0  0  0  0  0  0  0  0  0  0  0  0
   10.7711    8.2745    0.8991 H   0  0  0  0  0  0  0  0  0  0  0  0
   10.1727   10.3513    1.9870 H   0  0  0  0  0  0  0  0  0  0  0  0
    6.7274   12.1495    4.3491 H   0  0  0  0  0  0  0  0  0  0  0  0
    6.0873   10.5969    4.9662 H   0  0  0  0  0  0  0  0  0  0  0  0
    5.4724   11.2760    3.4190 H   0  0  0  0  0  0  0  0  0  0  0  0
    6.3944    8.5488    3.0456 H   0  0  0  0  0  0  0  0  0  0  0  0
    6.3511    4.5602    1.3347 H   0  0  0  0  0  0  0  0  0  0  0  0
    4.7941    0.3784    0.9566 H   0  0  0  0  0  0  0  0  0  0  0  0
  1  2  1  0  0  0  0
  1 31  1  0  0  0  0
  1 32  1  0  0  0  0
  1 33  1  0  0  0  0
  2  3  1  0  0  0  0
  3  4  1  0  0  0  0
  3 30  2  0  0  0  0
  4  5  2  0  0  0  0
  4 34  1  0  0  0  0
  5  6  1  0  0  0  0
  5  7  1  0  0  0  0
  6 35  1  0  0  0  0
  7  8  2  0  0  0  0
  7 36  1  0  0  0  0
  8  9  1  0  0  0  0
  8 30  1  0  0  0  0
  9 10  1  0  0  0  0
  9 14  1  0  0  0  0
 10 11  1  0  0  0  0
 10 37  1  0  0  0  0
 10 38  1  0  0  0  0
 11 12  1  0  0  0  0
 11 13  1  0  0  0  0
 11 39  1  0  0  0  0
 12 13  1  0  0  0  0
 12 40  1  0  0  0  0
 12 41  1  0  0  0  0
 13 42  1  0  0  0  0
 13 43  1  0  0  0  0
 14 15  1  0  0  0  0
 14 29  2  0  0  0  0
 15 16  2  0  0  0  0
 15 44  1  0  0  0  0
 16 17  1  0  0  0  0
 16 45  1  0  0  0  0
 17 18  1  0  0  0  0
 17 28  2  0  0  0  0
 18 19  2  0  0  0  0
 19 20  1  0  0  0  0
 19 46  1  0  0  0  0
 20 21  1  0  0  0  0
 20 27  2  0  0  0  0
 21 22  1  0  0  0  0
 21 26  2  0  0  0  0
 22 23  2  0  0  0  0
 22 47  1  0  0  0  0
 23 24  1  0  0  0  0
 24 25  1  0  0  0  0
 24 26  1  0  0  0  0
 25 48  1  0  0  0  0
 25 49  1  0  0  0  0
 25 50  1  0  0  0  0
 26 51  1  0  0  0  0
 27 28  1  0  0  0  0
 28 29  1  0  0  0  0
 29 52  1  0  0  0  0
 30 53  1  0  0  0  0
M  END
$$$$
