CHEMBL4446068
 OpenBabel04072215383D

 45 49  0  0  0  0  0  0  0  0999 V2000
    1.9244   -0.3425    1.1763 O   0  0  0  0  0  0  0  0  0  0  0  0
    2.0803    0.1111    0.0488 C   0  0  0  0  0  0  0  0  0  0  0  0
    1.5182    1.2795   -0.4163 N   0  0  0  0  0  0  0  0  0  0  0  0
    0.7631    2.1376    0.3430 C   0  0  0  0  0  0  0  0  0  0  0  0
   -0.0480    3.0091   -0.2037 N   0  0  0  0  0  0  0  0  0  0  0  0
   -0.7172    3.7011    0.7949 C   0  0  0  0  0  0  0  0  0  0  0  0
   -1.7446    4.6485    0.6057 C   0  0  0  0  0  0  0  0  0  0  0  0
   -2.3232    5.2707    1.7179 C   0  0  0  0  0  0  0  0  0  0  0  0
   -1.8781    4.9666    2.9969 C   0  0  0  0  0  0  0  0  0  0  0  0
   -2.4372    5.5813    4.0473 F   0  0  0  0  0  0  0  0  0  0  0  0
   -0.8685    4.0360    3.2207 C   0  0  0  0  0  0  0  0  0  0  0  0
   -0.3111    3.4058    2.0994 C   0  0  0  0  0  0  0  0  0  0  0  0
    0.9061    2.2021    2.0387 S   0  0  0  0  0  0  0  0  0  0  0  0
    2.8669   -0.6201   -0.9351 C   0  0  0  0  0  0  0  0  0  0  0  0
    2.7423   -0.5646   -2.3087 C   0  0  0  0  0  0  0  0  0  0  0  0
    3.5923   -1.5062   -2.8381 N   0  0  0  0  0  0  0  0  0  0  0  0
    3.7556   -1.8483   -4.2086 C   0  0  0  0  0  0  0  0  0  0  0  0
    3.0488   -1.1669   -5.2109 C   0  0  0  0  0  0  0  0  0  0  0  0
    3.2320   -1.5071   -6.5524 C   0  0  0  0  0  0  0  0  0  0  0  0
    4.1094   -2.5315   -6.9007 C   0  0  0  0  0  0  0  0  0  0  0  0
    4.8058   -3.2214   -5.9098 C   0  0  0  0  0  0  0  0  0  0  0  0
    4.6338   -2.8815   -4.5664 C   0  0  0  0  0  0  0  0  0  0  0  0
    4.3033   -2.1259   -1.8721 N   0  0  0  0  0  0  0  0  0  0  0  0
    3.8890   -1.5959   -0.7119 C   0  0  0  0  0  0  0  0  0  0  0  0
    4.4885   -2.0399    0.5556 C   0  0  0  0  0  0  0  0  0  0  0  0
    4.7003   -1.1472    1.6161 C   0  0  0  0  0  0  0  0  0  0  0  0
    5.2227   -1.5908    2.8328 C   0  0  0  0  0  0  0  0  0  0  0  0
    5.5741   -2.9282    2.9924 C   0  0  0  0  0  0  0  0  0  0  0  0
    5.4074   -3.8206    1.9353 C   0  0  0  0  0  0  0  0  0  0  0  0
    4.8680   -3.3793    0.7237 C   0  0  0  0  0  0  0  0  0  0  0  0
    1.4979    1.4793   -1.4032 H   0  0  0  0  0  0  0  0  0  0  0  0
   -2.0854    4.8796   -0.3984 H   0  0  0  0  0  0  0  0  0  0  0  0
   -3.1222    5.9945    1.5886 H   0  0  0  0  0  0  0  0  0  0  0  0
   -0.5380    3.8038    4.2268 H   0  0  0  0  0  0  0  0  0  0  0  0
    2.0841    0.0148   -2.9368 H   0  0  0  0  0  0  0  0  0  0  0  0
    2.3533   -0.3643   -4.9904 H   0  0  0  0  0  0  0  0  0  0  0  0
    2.6894   -0.9691   -7.3251 H   0  0  0  0  0  0  0  0  0  0  0  0
    4.2498   -2.7928   -7.9461 H   0  0  0  0  0  0  0  0  0  0  0  0
    5.4857   -4.0245   -6.1819 H   0  0  0  0  0  0  0  0  0  0  0  0
    5.1886   -3.4342   -3.8094 H   0  0  0  0  0  0  0  0  0  0  0  0
    4.4447   -0.0955    1.5227 H   0  0  0  0  0  0  0  0  0  0  0  0
    5.3442   -0.8906    3.6548 H   0  0  0  0  0  0  0  0  0  0  0  0
    5.9777   -3.2735    3.9402 H   0  0  0  0  0  0  0  0  0  0  0  0
    5.6886   -4.8631    2.0542 H   0  0  0  0  0  0  0  0  0  0  0  0
    4.7362   -4.0899   -0.0897 H   0  0  0  0  0  0  0  0  0  0  0  0
  1  2  2  0  0  0  0
  2  3  1  0  0  0  0
  2 14  1  0  0  0  0
  3  4  1  0  0  0  0
  3 31  1  0  0  0  0
  4  5  2  0  0  0  0
  4 13  1  0  0  0  0
  5  6  1  0  0  0  0
  6  7  1  0  0  0  0
  6 12  2  0  0  0  0
  7  8  2  0  0  0  0
  7 32  1  0  0  0  0
  8  9  1  0  0  0  0
  8 33  1  0  0  0  0
  9 10  1  0  0  0  0
  9 11  2  0  0  0  0
 11 12  1  0  0  0  0
 11 34  1  0  0  0  0
 12 13  1  0  0  0  0
 14 15  2  0  0  0  0
 14 24  1  0  0  0  0
 15 16  1  0  0  0  0
 15 35  1  0  0  0  0
 16 17  1  0  0  0  0
 16 23  1  0  0  0  0
 17 18  1  0  0  0  0
 17 22  2  0  0  0  0
 18 19  2  0  0  0  0
 18 36  1  0  0  0  0
 19 20  1  0  0  0  0
 19 37  1  0  0  0  0
 20 21  2  0  0  0  0
 20 38  1  0  0  0  0
 21 22  1  0  0  0  0
 21 39  1  0  0  0  0
 22 40  1  0  0  0  0
 23 24  2  0  0  0  0
 24 25  1  0  0  0  0
 25 26  1  0  0  0  0
 25 30  2  0  0  0  0
 26 27  2  0  0  0  0
 26 41  1  0  0  0  0
 27 28  1  0  0  0  0
 27 42  1  0  0  0  0
 28 29  2  0  0  0  0
 28 43  1  0  0  0  0
 29 30  1  0  0  0  0
 29 44  1  0  0  0  0
 30 45  1  0  0  0  0
M  END
$$$$
