CHEMBL1242293
 OpenBabel04072215363D

 37 40  0  0  0  0  0  0  0  0999 V2000
    1.3635    0.9697    0.3436 C   0  0  0  0  0  0  0  0  0  0  0  0
    2.4877   -0.0154    0.0221 C   0  0  0  0  0  0  0  0  0  0  0  0
    3.6486    0.6906   -0.6797 C   0  0  0  0  0  0  0  0  0  0  0  0
    2.9208   -0.7367    1.2157 N   0  0  0  0  0  0  0  0  0  0  0  0
    3.4638   -0.0690    2.2568 N   0  0  0  0  0  0  0  0  0  0  0  0
    3.7434   -1.0242    3.1661 C   0  0  0  0  0  0  0  0  0  0  0  0
    4.4318   -0.6662    4.4076 C   0  0  0  0  0  0  0  0  0  0  0  0
    5.3327   -1.5404    5.0189 C   0  0  0  0  0  0  0  0  0  0  0  0
    6.0259   -1.3219    6.1647 N   0  0  0  0  0  0  0  0  0  0  0  0
    5.8399   -0.0824    6.6466 C   0  0  0  0  0  0  0  0  0  0  0  0
    6.4833    0.4204    7.7408 N   0  0  0  0  0  0  0  0  0  0  0  0
    6.1389    1.7367    7.9157 C   0  0  0  0  0  0  0  0  0  0  0  0
    5.2103    2.0606    6.9468 C   0  0  0  0  0  0  0  0  0  0  0  0
    5.0177    0.9127    6.1308 C   0  0  0  0  0  0  0  0  0  0  0  0
    4.2635    0.6008    4.9857 C   0  0  0  0  0  0  0  0  0  0  0  0
    3.3040   -2.3081    2.7103 C   0  0  0  0  0  0  0  0  0  0  0  0
    3.2537   -3.6324    3.1697 C   0  0  0  0  0  0  0  0  0  0  0  0
    3.6420   -4.0675    4.4297 N   0  0  0  0  0  0  0  0  0  0  0  0
    2.7865   -4.5910    2.3402 N   0  0  0  0  0  0  0  0  0  0  0  0
    2.3664   -4.2329    1.1136 C   0  0  0  0  0  0  0  0  0  0  0  0
    2.3306   -3.0028    0.5811 N   0  0  0  0  0  0  0  0  0  0  0  0
    2.8164   -2.0823    1.4355 C   0  0  0  0  0  0  0  0  0  0  0  0
    1.0168    1.4729   -0.5656 H   0  0  0  0  0  0  0  0  0  0  0  0
    1.6907    1.7410    1.0497 H   0  0  0  0  0  0  0  0  0  0  0  0
    0.5074    0.4514    0.7890 H   0  0  0  0  0  0  0  0  0  0  0  0
    2.0870   -0.7631   -0.6728 H   0  0  0  0  0  0  0  0  0  0  0  0
    4.0938    1.4672   -0.0485 H   0  0  0  0  0  0  0  0  0  0  0  0
    3.3051    1.1681   -1.6043 H   0  0  0  0  0  0  0  0  0  0  0  0
    4.4385   -0.0203   -0.9445 H   0  0  0  0  0  0  0  0  0  0  0  0
    5.5672   -2.5029    4.5705 H   0  0  0  0  0  0  0  0  0  0  0  0
    7.1461   -0.1083    8.2879 H   0  0  0  0  0  0  0  0  0  0  0  0
    6.5909    2.3258    8.7015 H   0  0  0  0  0  0  0  0  0  0  0  0
    4.7504    3.0312    6.8149 H   0  0  0  0  0  0  0  0  0  0  0  0
    3.6057    1.3409    4.5386 H   0  0  0  0  0  0  0  0  0  0  0  0
    3.4845   -3.4232    5.1919 H   0  0  0  0  0  0  0  0  0  0  0  0
    3.3302   -5.0189    4.5955 H   0  0  0  0  0  0  0  0  0  0  0  0
    2.0140   -5.0403    0.4785 H   0  0  0  0  0  0  0  0  0  0  0  0
  1  2  1  0  0  0  0
  1 23  1  0  0  0  0
  1 24  1  0  0  0  0
  1 25  1  0  0  0  0
  2  3  1  0  0  0  0
  2  4  1  0  0  0  0
  2 26  1  0  0  0  0
  3 27  1  0  0  0  0
  3 28  1  0  0  0  0
  3 29  1  0  0  0  0
  4  5  1  0  0  0  0
  4 22  1  0  0  0  0
  5  6  2  0  0  0  0
  6  7  1  0  0  0  0
  6 16  1  0  0  0  0
  7  8  1  0  0  0  0
  7 15  2  0  0  0  0
  8  9  2  0  0  0  0
  8 30  1  0  0  0  0
  9 10  1  0  0  0  0
 10 11  1  0  0  0  0
 10 14  2  0  0  0  0
 11 12  1  0  0  0  0
 11 31  1  0  0  0  0
 12 13  2  0  0  0  0
 12 32  1  0  0  0  0
 13 14  1  0  0  0  0
 13 33  1  0  0  0  0
 14 15  1  0  0  0  0
 15 34  1  0  0  0  0
 16 17  1  0  0  0  0
 16 22  2  0  0  0  0
 17 18  1  0  0  0  0
 17 19  2  0  0  0  0
 18 35  1  0  0  0  0
 18 36  1  0  0  0  0
 19 20  1  0  0  0  0
 20 21  2  0  0  0  0
 20 37  1  0  0  0  0
 21 22  1  0  0  0  0
M  END
$$$$
