CHEMBL3920784
 OpenBabel04072215373D

 49 52  0  0  0  0  0  0  0  0999 V2000
    2.2358    0.1208    0.9531 N   0  0  0  0  0  0  0  0  0  0  0  0
    1.8888   -0.9357    0.1635 C   0  0  0  0  0  0  0  0  0  0  0  0
    0.8047   -1.4951    0.1601 O   0  0  0  0  0  0  0  0  0  0  0  0
    2.8913   -1.2607   -0.7752 N   0  0  0  0  0  0  0  0  0  0  0  0
    4.2705   -1.4365   -0.5549 C   0  0  0  0  0  0  0  0  0  0  0  0
    4.9541   -1.4580    0.7552 C   0  0  0  0  0  0  0  0  0  0  0  0
    4.3286   -1.9252    1.9150 C   0  0  0  0  0  0  0  0  0  0  0  0
    4.9677   -1.8594    3.1599 C   0  0  0  0  0  0  0  0  0  0  0  0
    6.2723   -1.3781    3.2725 C   0  0  0  0  0  0  0  0  0  0  0  0
    6.9303   -1.2483    4.5161 N   0  0  0  0  0  0  0  0  0  0  0  0
    6.5706   -1.9019    5.6802 C   0  0  0  0  0  0  0  0  0  0  0  0
    5.7895   -2.8524    5.7414 O   0  0  0  0  0  0  0  0  0  0  0  0
    7.1780   -1.3338    6.7906 N   0  0  0  0  0  0  0  0  0  0  0  0
    6.9766   -1.8685    8.0835 C   0  0  0  0  0  0  0  0  0  0  0  0
    6.6573   -1.0023    9.1302 C   0  0  0  0  0  0  0  0  0  0  0  0
    6.4199   -1.5105   10.4082 C   0  0  0  0  0  0  0  0  0  0  0  0
    6.5652   -2.8757   10.6594 C   0  0  0  0  0  0  0  0  0  0  0  0
    6.9360   -3.7521    9.6298 C   0  0  0  0  0  0  0  0  0  0  0  0
    7.1789   -5.2162    9.9019 C   0  0  0  0  0  0  0  0  0  0  0  0
    7.0757   -5.5446   11.2214 F   0  0  0  0  0  0  0  0  0  0  0  0
    6.3121   -6.0348    9.2461 F   0  0  0  0  0  0  0  0  0  0  0  0
    8.4278   -5.6106    9.5253 F   0  0  0  0  0  0  0  0  0  0  0  0
    7.1094   -3.2395    8.3332 C   0  0  0  0  0  0  0  0  0  0  0  0
    6.9318   -0.9657    2.1152 C   0  0  0  0  0  0  0  0  0  0  0  0
    6.2800   -1.0105    0.8718 C   0  0  0  0  0  0  0  0  0  0  0  0
    4.8454   -1.6258   -1.8049 C   0  0  0  0  0  0  0  0  0  0  0  0
    3.8445   -1.5475   -2.7989 C   0  0  0  0  0  0  0  0  0  0  0  0
    3.8638   -1.6084   -4.2057 C   0  0  0  0  0  0  0  0  0  0  0  0
    2.6745   -1.4530   -4.9213 C   0  0  0  0  0  0  0  0  0  0  0  0
    1.4682   -1.2622   -4.2535 C   0  0  0  0  0  0  0  0  0  0  0  0
    1.4246   -1.2222   -2.8607 C   0  0  0  0  0  0  0  0  0  0  0  0
    2.6292   -1.3625   -2.1436 C   0  0  0  0  0  0  0  0  0  0  0  0
    1.5218    0.4955    1.5634 H   0  0  0  0  0  0  0  0  0  0  0  0
    3.0485    0.6908    0.7578 H   0  0  0  0  0  0  0  0  0  0  0  0
    3.3244   -2.3418    1.8903 H   0  0  0  0  0  0  0  0  0  0  0  0
    4.4014   -2.1791    4.0308 H   0  0  0  0  0  0  0  0  0  0  0  0
    7.8553   -0.8403    4.5140 H   0  0  0  0  0  0  0  0  0  0  0  0
    7.2574   -0.3282    6.7294 H   0  0  0  0  0  0  0  0  0  0  0  0
    6.5333    0.0621    8.9554 H   0  0  0  0  0  0  0  0  0  0  0  0
    6.1192   -0.8415   11.2116 H   0  0  0  0  0  0  0  0  0  0  0  0
    6.3949   -3.2528   11.6672 H   0  0  0  0  0  0  0  0  0  0  0  0
    7.3750   -3.9174    7.5227 H   0  0  0  0  0  0  0  0  0  0  0  0
    7.9578   -0.6098    2.1529 H   0  0  0  0  0  0  0  0  0  0  0  0
    6.8288   -0.6813   -0.0090 H   0  0  0  0  0  0  0  0  0  0  0  0
    5.8974   -1.8021   -1.9899 H   0  0  0  0  0  0  0  0  0  0  0  0
    4.8021   -1.7523   -4.7337 H   0  0  0  0  0  0  0  0  0  0  0  0
    2.6918   -1.4781   -6.0077 H   0  0  0  0  0  0  0  0  0  0  0  0
    0.5508   -1.1370   -4.8212 H   0  0  0  0  0  0  0  0  0  0  0  0
    0.4781   -1.0622   -2.3461 H   0  0  0  0  0  0  0  0  0  0  0  0
  1  2  1  0  0  0  0
  1 33  1  0  0  0  0
  1 34  1  0  0  0  0
  2  3  2  0  0  0  0
  2  4  1  0  0  0  0
  4  5  1  0  0  0  0
  4 32  1  0  0  0  0
  5  6  1  0  0  0  0
  5 26  2  0  0  0  0
  6  7  1  0  0  0  0
  6 25  2  0  0  0  0
  7  8  2  0  0  0  0
  7 35  1  0  0  0  0
  8  9  1  0  0  0  0
  8 36  1  0  0  0  0
  9 10  1  0  0  0  0
  9 24  2  0  0  0  0
 10 11  1  0  0  0  0
 10 37  1  0  0  0  0
 11 12  2  0  0  0  0
 11 13  1  0  0  0  0
 13 14  1  0  0  0  0
 13 38  1  0  0  0  0
 14 15  1  0  0  0  0
 14 23  2  0  0  0  0
 15 16  2  0  0  0  0
 15 39  1  0  0  0  0
 16 17  1  0  0  0  0
 16 40  1  0  0  0  0
 17 18  2  0  0  0  0
 17 41  1  0  0  0  0
 18 19  1  0  0  0  0
 18 23  1  0  0  0  0
 19 20  1  0  0  0  0
 19 21  1  0  0  0  0
 19 22  1  0  0  0  0
 23 42  1  0  0  0  0
 24 25  1  0  0  0  0
 24 43  1  0  0  0  0
 25 44  1  0  0  0  0
 26 27  1  0  0  0  0
 26 45  1  0  0  0  0
 27 28  1  0  0  0  0
 27 32  2  0  0  0  0
 28 29  2  0  0  0  0
 28 46  1  0  0  0  0
 29 30  1  0  0  0  0
 29 47  1  0  0  0  0
 30 31  2  0  0  0  0
 30 48  1  0  0  0  0
 31 32  1  0  0  0  0
 31 49  1  0  0  0  0
M  END
$$$$
