CHEMBL4757998
 OpenBabel04072215383D

 50 53  0  0  0  0  0  0  0  0999 V2000
    6.6222    2.1543    7.0094 C   0  0  0  0  0  0  0  0  0  0  0  0
    5.5288    1.3458    7.4492 O   0  0  0  0  0  0  0  0  0  0  0  0
    5.2345    0.2891    6.6259 C   0  0  0  0  0  0  0  0  0  0  0  0
    5.4588    0.3519    5.2440 C   0  0  0  0  0  0  0  0  0  0  0  0
    5.2944   -0.7420    4.4171 C   0  0  0  0  0  0  0  0  0  0  0  0
    5.6006   -0.5866    3.1269 N   0  0  0  0  0  0  0  0  0  0  0  0
    5.4578   -1.6582    2.3503 C   0  0  0  0  0  0  0  0  0  0  0  0
    5.0174   -2.8496    2.7459 N   0  0  0  0  0  0  0  0  0  0  0  0
    4.6866   -2.9920    4.0463 C   0  0  0  0  0  0  0  0  0  0  0  0
    4.1459   -4.2376    4.4683 N   0  0  0  0  0  0  0  0  0  0  0  0
    3.6615   -5.2225    3.5784 C   0  0  0  0  0  0  0  0  0  0  0  0
    3.8780   -6.5749    3.8315 C   0  0  0  0  0  0  0  0  0  0  0  0
    3.5121   -7.5392    2.8845 C   0  0  0  0  0  0  0  0  0  0  0  0
    2.9102   -7.1738    1.6776 C   0  0  0  0  0  0  0  0  0  0  0  0
    2.6496   -8.0758    0.6185 N   0  0  0  0  0  0  0  0  0  0  0  0
    2.9916   -9.4140    0.5919 C   0  0  0  0  0  0  0  0  0  0  0  0
    3.4884  -10.0537    1.5151 O   0  0  0  0  0  0  0  0  0  0  0  0
    2.7258  -10.1582   -0.6727 C   0  0  0  0  0  0  0  0  0  0  0  0
    2.7152   -9.5603   -1.9393 C   0  0  0  0  0  0  0  0  0  0  0  0
    2.5191  -10.3535   -3.0792 C   0  0  0  0  0  0  0  0  0  0  0  0
    2.3459  -11.7330   -2.9516 C   0  0  0  0  0  0  0  0  0  0  0  0
    2.1104  -12.8038   -4.4915 Br  0  0  0  0  0  0  0  0  0  0  0  0
    2.3618  -12.3345   -1.6976 C   0  0  0  0  0  0  0  0  0  0  0  0
    2.5531  -11.5465   -0.5639 C   0  0  0  0  0  0  0  0  0  0  0  0
    2.5807   -5.8336    1.4787 C   0  0  0  0  0  0  0  0  0  0  0  0
    2.9385   -4.8749    2.4293 C   0  0  0  0  0  0  0  0  0  0  0  0
    4.8351   -1.9433    4.9659 C   0  0  0  0  0  0  0  0  0  0  0  0
    4.5395   -2.0013    6.3506 C   0  0  0  0  0  0  0  0  0  0  0  0
    4.7146   -0.8865    7.1762 C   0  0  0  0  0  0  0  0  0  0  0  0
    4.4025   -1.1168    8.4885 O   0  0  0  0  0  0  0  0  0  0  0  0
    3.8641   -0.0153    9.2131 C   0  0  0  0  0  0  0  0  0  0  0  0
    6.9970    2.7183    7.8671 H   0  0  0  0  0  0  0  0  0  0  0  0
    6.2866    2.8730    6.2541 H   0  0  0  0  0  0  0  0  0  0  0  0
    7.4509    1.5469    6.6248 H   0  0  0  0  0  0  0  0  0  0  0  0
    5.7880    1.2744    4.7748 H   0  0  0  0  0  0  0  0  0  0  0  0
    5.7183   -1.5530    1.3033 H   0  0  0  0  0  0  0  0  0  0  0  0
    4.7273   -4.6284    5.2029 H   0  0  0  0  0  0  0  0  0  0  0  0
    4.3761   -6.9023    4.7395 H   0  0  0  0  0  0  0  0  0  0  0  0
    3.7435   -8.5721    3.1196 H   0  0  0  0  0  0  0  0  0  0  0  0
    2.2028   -7.6765   -0.1954 H   0  0  0  0  0  0  0  0  0  0  0  0
    2.8963   -8.4988   -2.0734 H   0  0  0  0  0  0  0  0  0  0  0  0
    2.5241   -9.8923   -4.0638 H   0  0  0  0  0  0  0  0  0  0  0  0
    2.2419  -13.4088   -1.5849 H   0  0  0  0  0  0  0  0  0  0  0  0
    2.5842  -12.0222    0.4161 H   0  0  0  0  0  0  0  0  0  0  0  0
    2.0801   -5.4981    0.5756 H   0  0  0  0  0  0  0  0  0  0  0  0
    2.6923   -3.8326    2.2397 H   0  0  0  0  0  0  0  0  0  0  0  0
    4.1647   -2.9218    6.7940 H   0  0  0  0  0  0  0  0  0  0  0  0
    3.1961   -0.4216    9.9801 H   0  0  0  0  0  0  0  0  0  0  0  0
    3.2674    0.6582    8.5883 H   0  0  0  0  0  0  0  0  0  0  0  0
    4.6656    0.5242    9.7258 H   0  0  0  0  0  0  0  0  0  0  0  0
  1  2  1  0  0  0  0
  1 32  1  0  0  0  0
  1 33  1  0  0  0  0
  1 34  1  0  0  0  0
  2  3  1  0  0  0  0
  3  4  1  0  0  0  0
  3 29  2  0  0  0  0
  4  5  2  0  0  0  0
  4 35  1  0  0  0  0
  5  6  1  0  0  0  0
  5 27  1  0  0  0  0
  6  7  2  0  0  0  0
  7  8  1  0  0  0  0
  7 36  1  0  0  0  0
  8  9  2  0  0  0  0
  9 10  1  0  0  0  0
  9 27  1  0  0  0  0
 10 11  1  0  0  0  0
 10 37  1  0  0  0  0
 11 12  1  0  0  0  0
 11 26  2  0  0  0  0
 12 13  2  0  0  0  0
 12 38  1  0  0  0  0
 13 14  1  0  0  0  0
 13 39  1  0  0  0  0
 14 15  1  0  0  0  0
 14 25  2  0  0  0  0
 15 16  1  0  0  0  0
 15 40  1  0  0  0  0
 16 17  2  0  0  0  0
 16 18  1  0  0  0  0
 18 19  1  0  0  0  0
 18 24  2  0  0  0  0
 19 20  2  0  0  0  0
 19 41  1  0  0  0  0
 20 21  1  0  0  0  0
 20 42  1  0  0  0  0
 21 22  1  0  0  0  0
 21 23  2  0  0  0  0
 23 24  1  0  0  0  0
 23 43  1  0  0  0  0
 24 44  1  0  0  0  0
 25 26  1  0  0  0  0
 25 45  1  0  0  0  0
 26 46  1  0  0  0  0
 27 28  2  0  0  0  0
 28 29  1  0  0  0  0
 28 47  1  0  0  0  0
 29 30  1  0  0  0  0
 30 31  1  0  0  0  0
 31 48  1  0  0  0  0
 31 49  1  0  0  0  0
 31 50  1  0  0  0  0
M  END
$$$$
