CHEMBL259951
 OpenBabel04072215363D

 52 56  0  0  0  0  0  0  0  0999 V2000
    1.1392    3.6981   -0.0892 C   0  0  0  0  0  0  0  0  0  0  0  0
    0.9738    2.3216    0.5340 C   0  0  0  0  0  0  0  0  0  0  0  0
    2.2099    1.9228    1.2374 C   0  0  0  0  0  0  0  0  0  0  0  0
    3.2625    1.2946    0.7665 N   0  0  0  0  0  0  0  0  0  0  0  0
    4.1797    1.2771    1.7863 N   0  0  0  0  0  0  0  0  0  0  0  0
    3.6329    1.8810    2.8260 C   0  0  0  0  0  0  0  0  0  0  0  0
    4.3241    2.1115    4.1321 C   0  0  0  0  0  0  0  0  0  0  0  0
    3.6860    2.6825    5.2035 C   0  0  0  0  0  0  0  0  0  0  0  0
    4.5798    2.7722    6.2223 N   0  0  0  0  0  0  0  0  0  0  0  0
    4.2688    3.2644    7.4308 N   0  0  0  0  0  0  0  0  0  0  0  0
    5.2696    3.3338    8.2408 C   0  0  0  0  0  0  0  0  0  0  0  0
    6.5565    2.9863    7.9612 N   0  0  0  0  0  0  0  0  0  0  0  0
    6.8740    2.4778    6.8032 C   0  0  0  0  0  0  0  0  0  0  0  0
    8.1845    2.1001    6.5857 N   0  0  0  0  0  0  0  0  0  0  0  0
    9.2761    2.6111    7.3307 C   0  0  0  0  0  0  0  0  0  0  0  0
    9.3827    3.9640    7.6880 C   0  0  0  0  0  0  0  0  0  0  0  0
   10.3797    4.5417    8.4059 N   0  0  0  0  0  0  0  0  0  0  0  0
   11.3079    3.6517    8.7971 C   0  0  0  0  0  0  0  0  0  0  0  0
   12.3818    3.9508    9.5897 N   0  0  0  0  0  0  0  0  0  0  0  0
   13.0868    2.8052    9.8769 C   0  0  0  0  0  0  0  0  0  0  0  0
   14.2286    2.7902   10.8228 C   0  0  0  0  0  0  0  0  0  0  0  0
   12.5010    1.7738    9.1651 C   0  0  0  0  0  0  0  0  0  0  0  0
   11.3542    2.2948    8.5067 C   0  0  0  0  0  0  0  0  0  0  0  0
   10.3210    1.7612    7.7166 C   0  0  0  0  0  0  0  0  0  0  0  0
    5.8169    2.3192    5.8255 C   0  0  0  0  0  0  0  0  0  0  0  0
    5.7025    1.8577    4.5039 C   0  0  0  0  0  0  0  0  0  0  0  0
    6.7160    1.3070    3.5073 C   0  0  0  0  0  0  0  0  0  0  0  0
    7.3233    2.4254    2.6579 C   0  0  0  0  0  0  0  0  0  0  0  0
    7.8009    0.3761    4.0280 C   0  0  0  0  0  0  0  0  0  0  0  0
    2.3540    2.3094    2.5413 O   0  0  0  0  0  0  0  0  0  0  0  0
    0.2452    3.9718   -0.6576 H   0  0  0  0  0  0  0  0  0  0  0  0
    1.9980    3.7234   -0.7695 H   0  0  0  0  0  0  0  0  0  0  0  0
    1.3030    4.4603    0.6804 H   0  0  0  0  0  0  0  0  0  0  0  0
    0.7535    1.5900   -0.2508 H   0  0  0  0  0  0  0  0  0  0  0  0
    0.1244    2.3217    1.2253 H   0  0  0  0  0  0  0  0  0  0  0  0
    2.6746    3.0392    5.3323 H   0  0  0  0  0  0  0  0  0  0  0  0
    5.0863    3.7081    9.2623 H   0  0  0  0  0  0  0  0  0  0  0  0
    8.2658    1.1022    6.4380 H   0  0  0  0  0  0  0  0  0  0  0  0
    8.6117    4.6675    7.3773 H   0  0  0  0  0  0  0  0  0  0  0  0
   12.5670    4.8779    9.9444 H   0  0  0  0  0  0  0  0  0  0  0  0
   14.4651    3.7938   11.1917 H   0  0  0  0  0  0  0  0  0  0  0  0
   15.1222    2.3815   10.3418 H   0  0  0  0  0  0  0  0  0  0  0  0
   13.9863    2.1631   11.6861 H   0  0  0  0  0  0  0  0  0  0  0  0
   12.8274    0.7426    9.1689 H   0  0  0  0  0  0  0  0  0  0  0  0
   10.3202    0.7056    7.4712 H   0  0  0  0  0  0  0  0  0  0  0  0
    6.1582    0.6577    2.8255 H   0  0  0  0  0  0  0  0  0  0  0  0
    7.8561    3.1547    3.2760 H   0  0  0  0  0  0  0  0  0  0  0  0
    6.5454    2.9652    2.1018 H   0  0  0  0  0  0  0  0  0  0  0  0
    8.0268    2.0192    1.9210 H   0  0  0  0  0  0  0  0  0  0  0  0
    8.6268    0.9186    4.4864 H   0  0  0  0  0  0  0  0  0  0  0  0
    8.2488   -0.1712    3.1884 H   0  0  0  0  0  0  0  0  0  0  0  0
    7.4021   -0.3653    4.7272 H   0  0  0  0  0  0  0  0  0  0  0  0
  1  2  1  0  0  0  0
  1 31  1  0  0  0  0
  1 32  1  0  0  0  0
  1 33  1  0  0  0  0
  2  3  1  0  0  0  0
  2 34  1  0  0  0  0
  2 35  1  0  0  0  0
  3  4  2  0  0  0  0
  3 30  1  0  0  0  0
  4  5  1  0  0  0  0
  5  6  2  0  0  0  0
  6  7  1  0  0  0  0
  6 30  1  0  0  0  0
  7  8  2  0  0  0  0
  7 26  1  0  0  0  0
  8  9  1  0  0  0  0
  8 36  1  0  0  0  0
  9 10  1  0  0  0  0
  9 25  1  0  0  0  0
 10 11  2  0  0  0  0
 11 12  1  0  0  0  0
 11 37  1  0  0  0  0
 12 13  2  0  0  0  0
 13 14  1  0  0  0  0
 13 25  1  0  0  0  0
 14 15  1  0  0  0  0
 14 38  1  0  0  0  0
 15 16  1  0  0  0  0
 15 24  2  0  0  0  0
 16 17  2  0  0  0  0
 16 39  1  0  0  0  0
 17 18  1  0  0  0  0
 18 19  1  0  0  0  0
 18 23  2  0  0  0  0
 19 20  1  0  0  0  0
 19 40  1  0  0  0  0
 20 21  1  0  0  0  0
 20 22  2  0  0  0  0
 21 41  1  0  0  0  0
 21 42  1  0  0  0  0
 21 43  1  0  0  0  0
 22 23  1  0  0  0  0
 22 44  1  0  0  0  0
 23 24  1  0  0  0  0
 24 45  1  0  0  0  0
 25 26  2  0  0  0  0
 26 27  1  0  0  0  0
 27 28  1  0  0  0  0
 27 29  1  0  0  0  0
 27 46  1  0  0  0  0
 28 47  1  0  0  0  0
 28 48  1  0  0  0  0
 28 49  1  0  0  0  0
 29 50  1  0  0  0  0
 29 51  1  0  0  0  0
 29 52  1  0  0  0  0
M  END
$$$$
