CHEMBL206567
 OpenBabel04072215363D

 50 53  0  0  0  0  0  0  0  0999 V2000
    5.7753    1.1870   -6.6128 C   0  0  0  0  0  0  0  0  0  0  0  0
    6.8839    1.7542   -5.9061 O   0  0  0  0  0  0  0  0  0  0  0  0
    6.5646    2.4119   -4.7437 C   0  0  0  0  0  0  0  0  0  0  0  0
    5.4675    1.9901   -3.9683 C   0  0  0  0  0  0  0  0  0  0  0  0
    5.0656    2.7553   -2.8705 C   0  0  0  0  0  0  0  0  0  0  0  0
    3.9946    2.5795   -2.0414 N   0  0  0  0  0  0  0  0  0  0  0  0
    4.0302    3.5986   -1.2163 C   0  0  0  0  0  0  0  0  0  0  0  0
    5.0552    4.4616   -1.5120 N   0  0  0  0  0  0  0  0  0  0  0  0
    5.2579    5.8163   -0.9953 C   0  0  0  0  0  0  0  0  0  0  0  0
    4.1095    6.2539   -0.1229 C   0  0  0  0  0  0  0  0  0  0  0  0
    4.2122    5.9347    1.2522 C   0  0  0  0  0  0  0  0  0  0  0  0
    3.1374    6.1068    2.1212 C   0  0  0  0  0  0  0  0  0  0  0  0
    1.9364    6.6052    1.6393 C   0  0  0  0  0  0  0  0  0  0  0  0
    1.8314    6.9782    0.2998 C   0  0  0  0  0  0  0  0  0  0  0  0
    2.9096    6.8256   -0.5962 C   0  0  0  0  0  0  0  0  0  0  0  0
    2.6623    7.4040   -1.9553 C   0  0  0  0  0  0  0  0  0  0  0  0
    2.0479    8.4646   -1.9783 O   0  0  0  0  0  0  0  0  0  0  0  0
    3.0685    6.6887   -3.0704 N   0  0  0  0  0  0  0  0  0  0  0  0
    2.8173    7.0558   -4.4193 C   0  0  0  0  0  0  0  0  0  0  0  0
    2.2738    8.2849   -4.8091 C   0  0  0  0  0  0  0  0  0  0  0  0
    1.9490    8.5351   -6.1486 C   0  0  0  0  0  0  0  0  0  0  0  0
    2.1752    7.5630   -7.1135 C   0  0  0  0  0  0  0  0  0  0  0  0
    1.7099    7.8498   -8.7411 Cl  0  0  0  0  0  0  0  0  0  0  0  0
    2.7677    6.3575   -6.7551 C   0  0  0  0  0  0  0  0  0  0  0  0
    3.0968    6.1096   -5.4150 C   0  0  0  0  0  0  0  0  0  0  0  0
    5.7876    3.8878   -2.5241 C   0  0  0  0  0  0  0  0  0  0  0  0
    6.9622    4.2481   -3.1821 C   0  0  0  0  0  0  0  0  0  0  0  0
    7.3428    3.5048   -4.3171 C   0  0  0  0  0  0  0  0  0  0  0  0
    8.4774    4.0347   -4.8700 O   0  0  0  0  0  0  0  0  0  0  0  0
    8.9511    3.5794   -6.1240 C   0  0  0  0  0  0  0  0  0  0  0  0
    5.9880    1.2439   -7.6841 H   0  0  0  0  0  0  0  0  0  0  0  0
    4.8320    1.7239   -6.4491 H   0  0  0  0  0  0  0  0  0  0  0  0
    5.6648    0.1331   -6.3383 H   0  0  0  0  0  0  0  0  0  0  0  0
    4.8859    1.1089   -4.2096 H   0  0  0  0  0  0  0  0  0  0  0  0
    3.3090    3.7646   -0.4249 H   0  0  0  0  0  0  0  0  0  0  0  0
    5.4017    6.4923   -1.8441 H   0  0  0  0  0  0  0  0  0  0  0  0
    6.1995    5.7980   -0.4324 H   0  0  0  0  0  0  0  0  0  0  0  0
    5.1336    5.5093    1.6510 H   0  0  0  0  0  0  0  0  0  0  0  0
    3.2339    5.8343    3.1693 H   0  0  0  0  0  0  0  0  0  0  0  0
    1.0840    6.7220    2.3039 H   0  0  0  0  0  0  0  0  0  0  0  0
    0.8892    7.4004   -0.0513 H   0  0  0  0  0  0  0  0  0  0  0  0
    3.4167    5.7491   -2.9402 H   0  0  0  0  0  0  0  0  0  0  0  0
    2.0750    9.0779   -4.0942 H   0  0  0  0  0  0  0  0  0  0  0  0
    1.4934    9.4854   -6.4139 H   0  0  0  0  0  0  0  0  0  0  0  0
    2.9658    5.6030   -7.5095 H   0  0  0  0  0  0  0  0  0  0  0  0
    3.5442    5.1509   -5.1619 H   0  0  0  0  0  0  0  0  0  0  0  0
    7.5586    5.0974   -2.8630 H   0  0  0  0  0  0  0  0  0  0  0  0
    9.6195    4.3578   -6.5089 H   0  0  0  0  0  0  0  0  0  0  0  0
    8.1578    3.4642   -6.8651 H   0  0  0  0  0  0  0  0  0  0  0  0
    9.5413    2.6664   -6.0037 H   0  0  0  0  0  0  0  0  0  0  0  0
  1  2  1  0  0  0  0
  1 31  1  0  0  0  0
  1 32  1  0  0  0  0
  1 33  1  0  0  0  0
  2  3  1  0  0  0  0
  3  4  1  0  0  0  0
  3 28  2  0  0  0  0
  4  5  2  0  0  0  0
  4 34  1  0  0  0  0
  5  6  1  0  0  0  0
  5 26  1  0  0  0  0
  6  7  2  0  0  0  0
  7  8  1  0  0  0  0
  7 35  1  0  0  0  0
  8  9  1  0  0  0  0
  8 26  1  0  0  0  0
  9 10  1  0  0  0  0
  9 36  1  0  0  0  0
  9 37  1  0  0  0  0
 10 11  1  0  0  0  0
 10 15  2  0  0  0  0
 11 12  2  0  0  0  0
 11 38  1  0  0  0  0
 12 13  1  0  0  0  0
 12 39  1  0  0  0  0
 13 14  2  0  0  0  0
 13 40  1  0  0  0  0
 14 15  1  0  0  0  0
 14 41  1  0  0  0  0
 15 16  1  0  0  0  0
 16 17  2  0  0  0  0
 16 18  1  0  0  0  0
 18 19  1  0  0  0  0
 18 42  1  0  0  0  0
 19 20  1  0  0  0  0
 19 25  2  0  0  0  0
 20 21  2  0  0  0  0
 20 43  1  0  0  0  0
 21 22  1  0  0  0  0
 21 44  1  0  0  0  0
 22 23  1  0  0  0  0
 22 24  2  0  0  0  0
 24 25  1  0  0  0  0
 24 45  1  0  0  0  0
 25 46  1  0  0  0  0
 26 27  2  0  0  0  0
 27 28  1  0  0  0  0
 27 47  1  0  0  0  0
 28 29  1  0  0  0  0
 29 30  1  0  0  0  0
 30 48  1  0  0  0  0
 30 49  1  0  0  0  0
 30 50  1  0  0  0  0
M  END
$$$$
