CHEMBL565785
 OpenBabel04072215383D

 68 72  0  0  1  0  0  0  0  0999 V2000
    7.5240   -0.1367   -2.6736 C   0  0  0  0  0  0  0  0  0  0  0  0
    6.7205    0.8596   -3.3988 N   0  0  0  0  0  0  0  0  0  0  0  0
    6.7198    0.4951   -4.8207 C   0  0  0  0  0  0  0  0  0  0  0  0
    5.3500    0.9469   -2.8281 C   0  0  2  0  0  0  0  0  0  0  0  0
    4.4159    1.9144   -3.5769 C   0  0  0  0  0  0  0  0  0  0  0  0
    4.7974    3.2742   -3.0238 C   0  0  0  0  0  0  0  0  0  0  0  0
    5.0832    3.0177   -1.6240 N   0  0  0  0  0  0  0  0  0  0  0  0
    5.0221    3.8878   -0.5423 C   0  0  0  0  0  0  0  0  0  0  0  0
    5.1905    3.4472    0.5967 O   0  0  0  0  0  0  0  0  0  0  0  0
    4.7117    5.2910   -0.7965 C   0  0  0  0  0  0  0  0  0  0  0  0
    4.9667    6.0933   -1.8903 C   0  0  0  0  0  0  0  0  0  0  0  0
    4.3824    7.3829   -1.7892 C   0  0  0  0  0  0  0  0  0  0  0  0
    4.4275    8.3224   -2.7701 N   0  0  0  0  0  0  0  0  0  0  0  0
    3.7791    9.4679   -2.5089 C   0  0  0  0  0  0  0  0  0  0  0  0
    3.1008    9.7441   -1.3385 C   0  0  0  0  0  0  0  0  0  0  0  0
    3.1180    8.8047   -0.2989 C   0  0  0  0  0  0  0  0  0  0  0  0
    2.5181    9.0137    0.9278 O   0  0  0  0  0  0  0  0  0  0  0  0
    2.6080   10.2688    1.4902 C   0  0  0  0  0  0  0  0  0  0  0  0
    3.6941   11.1128    1.2777 C   0  0  0  0  0  0  0  0  0  0  0  0
    3.6459   12.4298    1.7199 C   0  0  0  0  0  0  0  0  0  0  0  0
    2.5573   12.9064    2.4473 C   0  0  0  0  0  0  0  0  0  0  0  0
    2.4586   14.2641    2.8325 N   0  0  0  0  0  0  0  0  0  0  0  0
    3.1382   15.3124    2.2189 C   0  0  0  0  0  0  0  0  0  0  0  0
    3.8831   15.2086    1.2474 O   0  0  0  0  0  0  0  0  0  0  0  0
    2.9331   16.6862    2.8125 C   0  0  0  0  0  0  0  0  0  0  0  0
    1.5940   16.9029    3.4415 C   0  0  0  0  0  0  0  0  0  0  0  0
    1.3015   16.2935    4.4723 O   0  0  0  0  0  0  0  0  0  0  0  0
    0.7310   17.7126    2.7207 N   0  0  0  0  0  0  0  0  0  0  0  0
   -0.5926   17.8774    3.1741 C   0  0  0  0  0  0  0  0  0  0  0  0
   -0.8481   18.2688    4.4916 C   0  0  0  0  0  0  0  0  0  0  0  0
   -2.1540   18.2859    4.9740 C   0  0  0  0  0  0  0  0  0  0  0  0
   -3.2022   17.8956    4.1433 C   0  0  0  0  0  0  0  0  0  0  0  0
   -2.9505   17.5430    2.8158 C   0  0  0  0  0  0  0  0  0  0  0  0
   -1.6470   17.5665    2.3167 C   0  0  0  0  0  0  0  0  0  0  0  0
    1.5399   12.0117    2.8108 C   0  0  0  0  0  0  0  0  0  0  0  0
    1.5679   10.7033    2.3078 C   0  0  0  0  0  0  0  0  0  0  0  0
    0.5533    9.8788    2.6110 F   0  0  0  0  0  0  0  0  0  0  0  0
    3.7499    7.5799   -0.5645 C   0  0  0  0  0  0  0  0  0  0  0  0
    3.9100    6.1888    0.4310 S   0  0  0  0  0  0  0  0  0  0  0  0
    5.3182    1.5943   -1.4133 C   0  0  0  0  0  0  0  0  0  0  0  0
    8.5493   -0.1522   -3.0604 H   0  0  0  0  0  0  0  0  0  0  0  0
    7.1061   -1.1459   -2.7680 H   0  0  0  0  0  0  0  0  0  0  0  0
    7.6117    0.0981   -1.6097 H   0  0  0  0  0  0  0  0  0  0  0  0
    7.7438    0.3415   -5.1818 H   0  0  0  0  0  0  0  0  0  0  0  0
    6.3165    1.3004   -5.4411 H   0  0  0  0  0  0  0  0  0  0  0  0
    6.1502   -0.4215   -5.0129 H   0  0  0  0  0  0  0  0  0  0  0  0
    4.9029   -0.0546   -2.7995 H   0  0  0  0  0  0  0  0  0  0  0  0
    3.3758    1.6935   -3.3005 H   0  0  0  0  0  0  0  0  0  0  0  0
    4.4611    1.8818   -4.6669 H   0  0  0  0  0  0  0  0  0  0  0  0
    3.9907    3.9980   -3.1555 H   0  0  0  0  0  0  0  0  0  0  0  0
    5.7177    3.6428   -3.4904 H   0  0  0  0  0  0  0  0  0  0  0  0
    5.5123    5.7810   -2.7682 H   0  0  0  0  0  0  0  0  0  0  0  0
    3.8268   10.2089   -3.3032 H   0  0  0  0  0  0  0  0  0  0  0  0
    2.6033   10.7014   -1.2296 H   0  0  0  0  0  0  0  0  0  0  0  0
    4.5675   10.7889    0.7183 H   0  0  0  0  0  0  0  0  0  0  0  0
    4.4913   13.0673    1.4737 H   0  0  0  0  0  0  0  0  0  0  0  0
    1.7523   14.4974    3.5309 H   0  0  0  0  0  0  0  0  0  0  0  0
    3.0943   17.4276    2.0207 H   0  0  0  0  0  0  0  0  0  0  0  0
    3.7007   16.8494    3.5760 H   0  0  0  0  0  0  0  0  0  0  0  0
    0.8732   17.7382    1.7166 H   0  0  0  0  0  0  0  0  0  0  0  0
   -0.0312   18.5478    5.1530 H   0  0  0  0  0  0  0  0  0  0  0  0
   -2.3458   18.5732    6.0042 H   0  0  0  0  0  0  0  0  0  0  0  0
   -4.2150   17.8554    4.5352 H   0  0  0  0  0  0  0  0  0  0  0  0
   -3.7694   17.2189    2.1792 H   0  0  0  0  0  0  0  0  0  0  0  0
   -1.4651   17.2523    1.2934 H   0  0  0  0  0  0  0  0  0  0  0  0
    0.6984   12.3198    3.4167 H   0  0  0  0  0  0  0  0  0  0  0  0
    4.4734    1.1995   -0.8355 H   0  0  0  0  0  0  0  0  0  0  0  0
    6.2224    1.4567   -0.8153 H   0  0  0  0  0  0  0  0  0  0  0  0
  1  2  1  0  0  0  0
  1 41  1  0  0  0  0
  1 42  1  0  0  0  0
  1 43  1  0  0  0  0
  2  3  1  0  0  0  0
  2  4  1  0  0  0  0
  3 44  1  0  0  0  0
  3 45  1  0  0  0  0
  3 46  1  0  0  0  0
  4  5  1  0  0  0  0
  4 40  1  0  0  0  0
  4 47  1  1  0  0  0
  5  6  1  0  0  0  0
  5 48  1  0  0  0  0
  5 49  1  0  0  0  0
  6  7  1  0  0  0  0
  6 50  1  0  0  0  0
  6 51  1  0  0  0  0
  7  8  1  0  0  0  0
  7 40  1  0  0  0  0
  8  9  2  0  0  0  0
  8 10  1  0  0  0  0
 10 11  2  0  0  0  0
 10 39  1  0  0  0  0
 11 12  1  0  0  0  0
 11 52  1  0  0  0  0
 12 13  1  0  0  0  0
 12 38  2  0  0  0  0
 13 14  2  0  0  0  0
 14 15  1  0  0  0  0
 14 53  1  0  0  0  0
 15 16  2  0  0  0  0
 15 54  1  0  0  0  0
 16 17  1  0  0  0  0
 16 38  1  0  0  0  0
 17 18  1  0  0  0  0
 18 19  1  0  0  0  0
 18 36  2  0  0  0  0
 19 20  2  0  0  0  0
 19 55  1  0  0  0  0
 20 21  1  0  0  0  0
 20 56  1  0  0  0  0
 21 22  1  0  0  0  0
 21 35  2  0  0  0  0
 22 23  1  0  0  0  0
 22 57  1  0  0  0  0
 23 24  2  0  0  0  0
 23 25  1  0  0  0  0
 25 26  1  0  0  0  0
 25 58  1  0  0  0  0
 25 59  1  0  0  0  0
 26 27  2  0  0  0  0
 26 28  1  0  0  0  0
 28 29  1  0  0  0  0
 28 60  1  0  0  0  0
 29 30  1  0  0  0  0
 29 34  2  0  0  0  0
 30 31  2  0  0  0  0
 30 61  1  0  0  0  0
 31 32  1  0  0  0  0
 31 62  1  0  0  0  0
 32 33  2  0  0  0  0
 32 63  1  0  0  0  0
 33 34  1  0  0  0  0
 33 64  1  0  0  0  0
 34 65  1  0  0  0  0
 35 36  1  0  0  0  0
 35 66  1  0  0  0  0
 36 37  1  0  0  0  0
 38 39  1  0  0  0  0
 40 67  1  0  0  0  0
 40 68  1  0  0  0  0
M  END
$$$$
