CHEMBL374736
 OpenBabel04072215373D

 73 79  0  0  0  0  0  0  0  0999 V2000
    6.9470   -0.4505   -0.8373 C   0  0  0  0  0  0  0  0  0  0  0  0
    5.6441   -0.2482   -0.0682 C   0  0  0  0  0  0  0  0  0  0  0  0
    5.8197    0.7959    1.0411 C   0  0  0  0  0  0  0  0  0  0  0  0
    4.5723    0.9900    1.9168 C   0  0  0  0  0  0  0  0  0  0  0  0
    4.7172    2.1214    2.8397 N   0  0  0  0  0  0  0  0  0  0  0  0
    4.4360    3.4556    2.4612 C   0  0  0  0  0  0  0  0  0  0  0  0
    3.9086    3.9953    1.2782 C   0  0  0  0  0  0  0  0  0  0  0  0
    3.7814    5.3941    1.1743 C   0  0  0  0  0  0  0  0  0  0  0  0
    4.1212    6.2540    2.2054 C   0  0  0  0  0  0  0  0  0  0  0  0
    3.9753    7.6717    2.1750 N   0  0  0  0  0  0  0  0  0  0  0  0
    3.4982    8.4102    1.1117 C   0  0  0  0  0  0  0  0  0  0  0  0
    3.1581    7.9089    0.0464 O   0  0  0  0  0  0  0  0  0  0  0  0
    3.4743    9.7816    1.3607 N   0  0  0  0  0  0  0  0  0  0  0  0
    3.0161   10.7339    0.4056 C   0  0  0  0  0  0  0  0  0  0  0  0
    2.1633   10.3846   -0.6421 C   0  0  0  0  0  0  0  0  0  0  0  0
    1.8875   11.2780   -1.6769 C   0  0  0  0  0  0  0  0  0  0  0  0
    2.4094   12.5655   -1.6587 C   0  0  0  0  0  0  0  0  0  0  0  0
    2.1777   13.2759   -2.8002 O   0  0  0  0  0  0  0  0  0  0  0  0
    2.1333   14.6895   -2.6947 C   0  0  0  0  0  0  0  0  0  0  0  0
    3.1682   12.9695   -0.5607 C   0  0  0  0  0  0  0  0  0  0  0  0
    3.4650   12.0579    0.4744 C   0  0  0  0  0  0  0  0  0  0  0  0
    4.6824    5.7080    3.3706 C   0  0  0  0  0  0  0  0  0  0  0  0
    4.8824    4.3120    3.4765 C   0  0  0  0  0  0  0  0  0  0  0  0
    5.5509    3.4387    4.3106 C   0  0  0  0  0  0  0  0  0  0  0  0
    6.5325    3.8710    5.2164 C   0  0  0  0  0  0  0  0  0  0  0  0
    7.4555    2.8888    5.6248 C   0  0  0  0  0  0  0  0  0  0  0  0
    7.3788    1.5429    5.2465 C   0  0  0  0  0  0  0  0  0  0  0  0
    6.0644    1.1361    4.8512 C   0  0  0  0  0  0  0  0  0  0  0  0
    5.3865    2.1004    4.0670 C   0  0  0  0  0  0  0  0  0  0  0  0
    5.3731    0.2114    5.9314 C   0  0  0  0  0  0  0  0  0  0  0  0
    6.1524    0.1441    7.3158 C   0  0  0  0  0  0  0  0  0  0  0  0
    7.5709   -0.1670    6.9895 C   0  0  0  0  0  0  0  0  0  0  0  0
    8.2610   -1.2578    7.3213 N   0  0  0  0  0  0  0  0  0  0  0  0
    9.2582   -1.2655    6.4002 N   0  0  0  0  0  0  0  0  0  0  0  0
   10.1303   -2.4112    6.3019 C   0  0  0  0  0  0  0  0  0  0  0  0
    9.1580   -0.2554    5.4737 C   0  0  0  0  0  0  0  0  0  0  0  0
    8.1631    0.5614    5.9470 C   0  0  0  0  0  0  0  0  0  0  0  0
    8.3464    3.5059    6.5785 C   0  0  0  0  0  0  0  0  0  0  0  0
    9.2495    3.0845    7.2877 O   0  0  0  0  0  0  0  0  0  0  0  0
    7.9234    4.8298    6.6368 N   0  0  0  0  0  0  0  0  0  0  0  0
    6.8189    5.1845    5.7778 C   0  0  0  0  0  0  0  0  0  0  0  0
    6.8105   -1.1686   -1.6527 H   0  0  0  0  0  0  0  0  0  0  0  0
    7.7329   -0.8352   -0.1788 H   0  0  0  0  0  0  0  0  0  0  0  0
    7.2991    0.4905   -1.2732 H   0  0  0  0  0  0  0  0  0  0  0  0
    5.3260   -1.2076    0.3546 H   0  0  0  0  0  0  0  0  0  0  0  0
    4.8650    0.0732   -0.7701 H   0  0  0  0  0  0  0  0  0  0  0  0
    6.0979    1.7496    0.5748 H   0  0  0  0  0  0  0  0  0  0  0  0
    6.6615    0.5046    1.6801 H   0  0  0  0  0  0  0  0  0  0  0  0
    4.3517    0.0972    2.5100 H   0  0  0  0  0  0  0  0  0  0  0  0
    3.6922    1.1888    1.2925 H   0  0  0  0  0  0  0  0  0  0  0  0
    3.6350    3.3721    0.4320 H   0  0  0  0  0  0  0  0  0  0  0  0
    3.3971    5.7681    0.2290 H   0  0  0  0  0  0  0  0  0  0  0  0
    4.2062    8.1774    3.0131 H   0  0  0  0  0  0  0  0  0  0  0  0
    4.0778   10.1298    2.0901 H   0  0  0  0  0  0  0  0  0  0  0  0
    1.7160    9.3975   -0.7091 H   0  0  0  0  0  0  0  0  0  0  0  0
    1.2820   10.9452   -2.5147 H   0  0  0  0  0  0  0  0  0  0  0  0
    2.0520   15.0871   -3.7116 H   0  0  0  0  0  0  0  0  0  0  0  0
    3.0400   15.1114   -2.2547 H   0  0  0  0  0  0  0  0  0  0  0  0
    1.2417   14.9952   -2.1397 H   0  0  0  0  0  0  0  0  0  0  0  0
    3.5983   13.9633   -0.5076 H   0  0  0  0  0  0  0  0  0  0  0  0
    4.1004   12.3908    1.2896 H   0  0  0  0  0  0  0  0  0  0  0  0
    4.9914    6.3561    4.1803 H   0  0  0  0  0  0  0  0  0  0  0  0
    5.3092   -0.8025    5.5227 H   0  0  0  0  0  0  0  0  0  0  0  0
    4.3611    0.5794    6.1331 H   0  0  0  0  0  0  0  0  0  0  0  0
    5.7188   -0.5817    8.0079 H   0  0  0  0  0  0  0  0  0  0  0  0
    6.1165    1.1288    7.8093 H   0  0  0  0  0  0  0  0  0  0  0  0
   10.0258   -3.0267    7.1986 H   0  0  0  0  0  0  0  0  0  0  0  0
   11.1598   -2.0592    6.2057 H   0  0  0  0  0  0  0  0  0  0  0  0
    9.8370   -2.9847    5.4181 H   0  0  0  0  0  0  0  0  0  0  0  0
    9.7343   -0.2591    4.5591 H   0  0  0  0  0  0  0  0  0  0  0  0
    8.3386    5.4471    7.3182 H   0  0  0  0  0  0  0  0  0  0  0  0
    7.1690    5.8933    5.0261 H   0  0  0  0  0  0  0  0  0  0  0  0
    5.9924    5.5763    6.3741 H   0  0  0  0  0  0  0  0  0  0  0  0
  1  2  1  0  0  0  0
  1 42  1  0  0  0  0
  1 43  1  0  0  0  0
  1 44  1  0  0  0  0
  2  3  1  0  0  0  0
  2 45  1  0  0  0  0
  2 46  1  0  0  0  0
  3  4  1  0  0  0  0
  3 47  1  0  0  0  0
  3 48  1  0  0  0  0
  4  5  1  0  0  0  0
  4 49  1  0  0  0  0
  4 50  1  0  0  0  0
  5  6  1  0  0  0  0
  5 29  1  0  0  0  0
  6  7  1  0  0  0  0
  6 23  2  0  0  0  0
  7  8  2  0  0  0  0
  7 51  1  0  0  0  0
  8  9  1  0  0  0  0
  8 52  1  0  0  0  0
  9 10  1  0  0  0  0
  9 22  2  0  0  0  0
 10 11  1  0  0  0  0
 10 53  1  0  0  0  0
 11 12  2  0  0  0  0
 11 13  1  0  0  0  0
 13 14  1  0  0  0  0
 13 54  1  0  0  0  0
 14 15  1  0  0  0  0
 14 21  2  0  0  0  0
 15 16  2  0  0  0  0
 15 55  1  0  0  0  0
 16 17  1  0  0  0  0
 16 56  1  0  0  0  0
 17 18  1  0  0  0  0
 17 20  2  0  0  0  0
 18 19  1  0  0  0  0
 19 57  1  0  0  0  0
 19 58  1  0  0  0  0
 19 59  1  0  0  0  0
 20 21  1  0  0  0  0
 20 60  1  0  0  0  0
 21 61  1  0  0  0  0
 22 23  1  0  0  0  0
 22 62  1  0  0  0  0
 23 24  1  0  0  0  0
 24 25  1  0  0  0  0
 24 29  2  0  0  0  0
 25 26  2  0  0  0  0
 25 41  1  0  0  0  0
 26 27  1  0  0  0  0
 26 38  1  0  0  0  0
 27 28  2  0  0  0  0
 27 37  1  0  0  0  0
 28 29  1  0  0  0  0
 28 30  1  0  0  0  0
 30 31  1  0  0  0  0
 30 63  1  0  0  0  0
 30 64  1  0  0  0  0
 31 32  1  0  0  0  0
 31 65  1  0  0  0  0
 31 66  1  0  0  0  0
 32 33  2  0  0  0  0
 32 37  1  0  0  0  0
 33 34  1  0  0  0  0
 34 35  1  0  0  0  0
 34 36  1  0  0  0  0
 35 67  1  0  0  0  0
 35 68  1  0  0  0  0
 35 69  1  0  0  0  0
 36 37  2  0  0  0  0
 36 70  1  0  0  0  0
 38 39  2  0  0  0  0
 38 40  1  0  0  0  0
 40 41  1  0  0  0  0
 40 71  1  0  0  0  0
 41 72  1  0  0  0  0
 41 73  1  0  0  0  0
M  END
$$$$
