CHEMBL1992242
 OpenBabel04072215363D

 46 49  0  0  0  0  0  0  0  0999 V2000
   -2.4587    0.8530    0.4282 C   0  0  0  0  0  0  0  0  0  0  0  0
   -1.1608    0.1995    0.0550 C   0  0  0  0  0  0  0  0  0  0  0  0
   -0.0531    0.9844   -0.2901 C   0  0  0  0  0  0  0  0  0  0  0  0
    1.1631    0.3876   -0.6245 C   0  0  0  0  0  0  0  0  0  0  0  0
    2.3627    1.2090   -0.9925 C   0  0  0  0  0  0  0  0  0  0  0  0
    1.2688   -1.0090   -0.5894 C   0  0  0  0  0  0  0  0  0  0  0  0
    0.1877   -1.8160   -0.2137 C   0  0  0  0  0  0  0  0  0  0  0  0
    0.2898   -3.2303   -0.1293 N   0  0  0  0  0  0  0  0  0  0  0  0
    1.4781   -3.8998    0.0776 C   0  0  0  0  0  0  0  0  0  0  0  0
    2.5415   -3.3519    0.3672 O   0  0  0  0  0  0  0  0  0  0  0  0
    1.3560   -5.2712   -0.1121 N   0  0  0  0  0  0  0  0  0  0  0  0
    2.4959   -6.0997    0.0083 C   0  0  0  0  0  0  0  0  0  0  0  0
    3.3744   -5.9639    1.0877 C   0  0  0  0  0  0  0  0  0  0  0  0
    4.5576   -6.7106    1.1454 C   0  0  0  0  0  0  0  0  0  0  0  0
    4.8960   -7.6358    0.1424 C   0  0  0  0  0  0  0  0  0  0  0  0
    6.1142   -8.4757    0.2579 C   0  0  0  0  0  0  0  0  0  0  0  0
    6.5210   -8.9839    1.5163 C   0  0  0  0  0  0  0  0  0  0  0  0
    7.5780   -9.8772    1.6550 C   0  0  0  0  0  0  0  0  0  0  0  0
    8.2593  -10.3362    0.5342 C   0  0  0  0  0  0  0  0  0  0  0  0
    7.9094   -9.8025   -0.7144 C   0  0  0  0  0  0  0  0  0  0  0  0
    8.5868  -10.1650   -2.2569 S   0  0  0  0  0  0  0  0  0  0  0  0
    7.7229   -9.0431   -3.1056 N   0  0  0  0  0  0  0  0  0  0  0  0
    6.9050   -8.4248   -2.2580 C   0  0  0  0  0  0  0  0  0  0  0  0
    6.8937   -8.8507   -0.8794 C   0  0  0  0  0  0  0  0  0  0  0  0
    3.9717   -7.7882   -0.9106 C   0  0  0  0  0  0  0  0  0  0  0  0
    2.7810   -7.0423   -0.9722 C   0  0  0  0  0  0  0  0  0  0  0  0
   -1.0372   -1.2034    0.0753 C   0  0  0  0  0  0  0  0  0  0  0  0
   -2.3912    1.9457    0.3613 H   0  0  0  0  0  0  0  0  0  0  0  0
   -2.7236    0.6000    1.4588 H   0  0  0  0  0  0  0  0  0  0  0  0
   -3.2569    0.5274   -0.2451 H   0  0  0  0  0  0  0  0  0  0  0  0
   -0.1383    2.0692   -0.2974 H   0  0  0  0  0  0  0  0  0  0  0  0
    2.1247    2.2767   -1.0340 H   0  0  0  0  0  0  0  0  0  0  0  0
    2.7373    0.9117   -1.9774 H   0  0  0  0  0  0  0  0  0  0  0  0
    3.1559    1.0679   -0.2505 H   0  0  0  0  0  0  0  0  0  0  0  0
    2.2216   -1.4529   -0.8659 H   0  0  0  0  0  0  0  0  0  0  0  0
   -0.5506   -3.7385    0.1035 H   0  0  0  0  0  0  0  0  0  0  0  0
    0.6855   -5.5266   -0.8263 H   0  0  0  0  0  0  0  0  0  0  0  0
    3.1564   -5.2642    1.8923 H   0  0  0  0  0  0  0  0  0  0  0  0
    5.2150   -6.5448    1.9964 H   0  0  0  0  0  0  0  0  0  0  0  0
    5.9818   -8.6976    2.4181 H   0  0  0  0  0  0  0  0  0  0  0  0
    7.8528  -10.2395    2.6430 H   0  0  0  0  0  0  0  0  0  0  0  0
    9.0537  -11.0709    0.6294 H   0  0  0  0  0  0  0  0  0  0  0  0
    6.3008   -7.6286   -2.6707 H   0  0  0  0  0  0  0  0  0  0  0  0
    4.1582   -8.5060   -1.7074 H   0  0  0  0  0  0  0  0  0  0  0  0
    2.1219   -7.1750   -1.8252 H   0  0  0  0  0  0  0  0  0  0  0  0
   -1.8965   -1.8067    0.3563 H   0  0  0  0  0  0  0  0  0  0  0  0
  1  2  1  0  0  0  0
  1 28  1  0  0  0  0
  1 29  1  0  0  0  0
  1 30  1  0  0  0  0
  2  3  1  0  0  0  0
  2 27  2  0  0  0  0
  3  4  2  0  0  0  0
  3 31  1  0  0  0  0
  4  5  1  0  0  0  0
  4  6  1  0  0  0  0
  5 32  1  0  0  0  0
  5 33  1  0  0  0  0
  5 34  1  0  0  0  0
  6  7  2  0  0  0  0
  6 35  1  0  0  0  0
  7  8  1  0  0  0  0
  7 27  1  0  0  0  0
  8  9  1  0  0  0  0
  8 36  1  0  0  0  0
  9 10  2  0  0  0  0
  9 11  1  0  0  0  0
 11 12  1  0  0  0  0
 11 37  1  0  0  0  0
 12 13  1  0  0  0  0
 12 26  2  0  0  0  0
 13 14  2  0  0  0  0
 13 38  1  0  0  0  0
 14 15  1  0  0  0  0
 14 39  1  0  0  0  0
 15 16  1  0  0  0  0
 15 25  2  0  0  0  0
 16 17  1  0  0  0  0
 16 24  2  0  0  0  0
 17 18  2  0  0  0  0
 17 40  1  0  0  0  0
 18 19  1  0  0  0  0
 18 41  1  0  0  0  0
 19 20  2  0  0  0  0
 19 42  1  0  0  0  0
 20 21  1  0  0  0  0
 20 24  1  0  0  0  0
 21 22  1  0  0  0  0
 22 23  2  0  0  0  0
 23 24  1  0  0  0  0
 23 43  1  0  0  0  0
 25 26  1  0  0  0  0
 25 44  1  0  0  0  0
 26 45  1  0  0  0  0
 27 46  1  0  0  0  0
M  END
$$$$
