CHEMBL209806
 OpenBabel04072215363D

 46 50  0  0  0  0  0  0  0  0999 V2000
    1.9400    0.0077   -1.0366 C   0  0  0  0  0  0  0  0  0  0  0  0
    0.4937    0.2000   -1.0666 N   0  0  0  0  0  0  0  0  0  0  0  0
   -0.2128   -1.0399   -0.7061 C   0  0  0  0  0  0  0  0  0  0  0  0
   -1.7433   -0.8264   -0.7231 C   0  0  0  0  0  0  0  0  0  0  0  0
   -2.2195    0.2071    0.2226 N   0  0  0  0  0  0  0  0  0  0  0  0
   -2.0524   -0.1509    1.6453 C   0  0  0  0  0  0  0  0  0  0  0  0
   -2.7763   -1.4154    2.0858 C   0  0  0  0  0  0  0  0  0  0  0  0
   -2.1142   -2.6694    1.9911 C   0  0  0  0  0  0  0  0  0  0  0  0
   -2.7437   -3.8677    2.3296 C   0  0  0  0  0  0  0  0  0  0  0  0
   -4.0223   -3.7784    2.8194 C   0  0  0  0  0  0  0  0  0  0  0  0
   -4.6998   -2.5417    2.9921 C   0  0  0  0  0  0  0  0  0  0  0  0
   -4.0868   -1.3573    2.6010 C   0  0  0  0  0  0  0  0  0  0  0  0
   -6.0950   -2.7074    3.6430 C   0  0  0  0  0  0  0  0  0  0  0  0
   -6.0815   -4.1956    3.7390 C   0  0  0  0  0  0  0  0  0  0  0  0
   -6.8570   -5.2757    4.1718 C   0  0  0  0  0  0  0  0  0  0  0  0
   -8.1850   -5.1639    4.7867 C   0  0  0  0  0  0  0  0  0  0  0  0
   -8.9424   -6.2225    5.2514 C   0  0  0  0  0  0  0  0  0  0  0  0
  -10.4219   -5.6461    5.8922 S   0  0  0  0  0  0  0  0  0  0  0  0
   -9.9398   -4.0444    5.5046 C   0  0  0  0  0  0  0  0  0  0  0  0
   -8.7641   -3.9097    4.9390 N   0  0  0  0  0  0  0  0  0  0  0  0
   -6.2251   -6.4528    3.9626 N   0  0  0  0  0  0  0  0  0  0  0  0
   -5.0403   -6.0997    3.3976 N   0  0  0  0  0  0  0  0  0  0  0  0
   -4.9298   -4.7658    3.2768 C   0  0  0  0  0  0  0  0  0  0  0  0
   -1.4746    1.4533   -0.0948 C   0  0  0  0  0  0  0  0  0  0  0  0
    0.0712    1.3014   -0.1801 C   0  0  0  0  0  0  0  0  0  0  0  0
    2.2331   -0.8101   -1.7037 H   0  0  0  0  0  0  0  0  0  0  0  0
    2.3100   -0.2221   -0.0310 H   0  0  0  0  0  0  0  0  0  0  0  0
    2.4524    0.9062   -1.3984 H   0  0  0  0  0  0  0  0  0  0  0  0
    0.1152   -1.3894    0.2794 H   0  0  0  0  0  0  0  0  0  0  0  0
    0.0337   -1.8315   -1.4230 H   0  0  0  0  0  0  0  0  0  0  0  0
   -2.2661   -1.7765   -0.5720 H   0  0  0  0  0  0  0  0  0  0  0  0
   -2.0347   -0.5174   -1.7374 H   0  0  0  0  0  0  0  0  0  0  0  0
   -2.4476    0.6741    2.2534 H   0  0  0  0  0  0  0  0  0  0  0  0
   -0.9973   -0.2394    1.9314 H   0  0  0  0  0  0  0  0  0  0  0  0
   -1.0877   -2.7127    1.6374 H   0  0  0  0  0  0  0  0  0  0  0  0
   -2.2344   -4.8165    2.2214 H   0  0  0  0  0  0  0  0  0  0  0  0
   -4.6028   -0.4071    2.7036 H   0  0  0  0  0  0  0  0  0  0  0  0
   -6.8854   -2.3364    2.9871 H   0  0  0  0  0  0  0  0  0  0  0  0
   -6.1155   -2.2365    4.6293 H   0  0  0  0  0  0  0  0  0  0  0  0
   -8.6892   -7.2739    5.2430 H   0  0  0  0  0  0  0  0  0  0  0  0
  -10.5792   -3.1978    5.7183 H   0  0  0  0  0  0  0  0  0  0  0  0
   -4.3867   -6.8273    3.1321 H   0  0  0  0  0  0  0  0  0  0  0  0
   -1.7285    2.2416    0.6255 H   0  0  0  0  0  0  0  0  0  0  0  0
   -1.8358    1.8200   -1.0656 H   0  0  0  0  0  0  0  0  0  0  0  0
    0.4730    1.1548    0.8305 H   0  0  0  0  0  0  0  0  0  0  0  0
    0.4867    2.2436   -0.5577 H   0  0  0  0  0  0  0  0  0  0  0  0
  1  2  1  0  0  0  0
  1 26  1  0  0  0  0
  1 27  1  0  0  0  0
  1 28  1  0  0  0  0
  2  3  1  0  0  0  0
  2 25  1  0  0  0  0
  3  4  1  0  0  0  0
  3 29  1  0  0  0  0
  3 30  1  0  0  0  0
  4  5  1  0  0  0  0
  4 31  1  0  0  0  0
  4 32  1  0  0  0  0
  5  6  1  0  0  0  0
  5 24  1  0  0  0  0
  6  7  1  0  0  0  0
  6 33  1  0  0  0  0
  6 34  1  0  0  0  0
  7  8  1  0  0  0  0
  7 12  2  0  0  0  0
  8  9  2  0  0  0  0
  8 35  1  0  0  0  0
  9 10  1  0  0  0  0
  9 36  1  0  0  0  0
 10 11  2  0  0  0  0
 10 23  1  0  0  0  0
 11 12  1  0  0  0  0
 11 13  1  0  0  0  0
 12 37  1  0  0  0  0
 13 14  1  0  0  0  0
 13 38  1  0  0  0  0
 13 39  1  0  0  0  0
 14 15  1  0  0  0  0
 14 23  2  0  0  0  0
 15 16  1  0  0  0  0
 15 21  2  0  0  0  0
 16 17  2  0  0  0  0
 16 20  1  0  0  0  0
 17 18  1  0  0  0  0
 17 40  1  0  0  0  0
 18 19  1  0  0  0  0
 19 20  2  0  0  0  0
 19 41  1  0  0  0  0
 21 22  1  0  0  0  0
 22 23  1  0  0  0  0
 22 42  1  0  0  0  0
 24 25  1  0  0  0  0
 24 43  1  0  0  0  0
 24 44  1  0  0  0  0
 25 45  1  0  0  0  0
 25 46  1  0  0  0  0
M  END
$$$$
