CHEMBL3690494
 OpenBabel04072215373D

 48 51  0  0  0  0  0  0  0  0999 V2000
    0.9037   -0.0857   -0.3008 C   0  0  0  0  0  0  0  0  0  0  0  0
    2.3981   -0.0322   -0.1371 C   0  0  0  0  0  0  0  0  0  0  0  0
    3.1522   -1.2060   -0.1864 C   0  0  0  0  0  0  0  0  0  0  0  0
    4.5202   -1.1121   -0.0376 C   0  0  0  0  0  0  0  0  0  0  0  0
    5.5162   -2.5009   -0.0837 Cl  0  0  0  0  0  0  0  0  0  0  0  0
    5.1577    0.0577    0.1574 N   0  0  0  0  0  0  0  0  0  0  0  0
    4.4326    1.2164    0.2177 N   0  0  0  0  0  0  0  0  0  0  0  0
    3.0836    1.1717    0.0757 C   0  0  0  0  0  0  0  0  0  0  0  0
    2.4000    2.4707    0.1356 C   0  0  0  0  0  0  0  0  0  0  0  0
    2.1383    3.1965    1.3911 C   0  0  0  0  0  0  0  0  0  0  0  0
    1.6605    4.4603    1.3427 C   0  0  0  0  0  0  0  0  0  0  0  0
    1.2484    4.9684    0.0989 N   0  0  0  0  0  0  0  0  0  0  0  0
    0.4687    6.0726   -0.2458 C   0  0  0  0  0  0  0  0  0  0  0  0
    0.9066    7.3019   -0.9697 C   0  0  0  0  0  0  0  0  0  0  0  0
   -0.0408    8.3266   -1.1214 C   0  0  0  0  0  0  0  0  0  0  0  0
    0.1693    9.3709   -2.0169 C   0  0  0  0  0  0  0  0  0  0  0  0
    1.3443    9.4281   -2.7611 C   0  0  0  0  0  0  0  0  0  0  0  0
    2.3268    8.4481   -2.6292 C   0  0  0  0  0  0  0  0  0  0  0  0
    3.5151    8.4633   -3.4097 N   0  0  0  0  0  0  0  0  0  0  0  0
    3.9097    9.4536   -4.2943 C   0  0  0  0  0  0  0  0  0  0  0  0
    3.3423   10.5113   -4.5316 O   0  0  0  0  0  0  0  0  0  0  0  0
    5.0675    9.1215   -4.9703 N   0  0  0  0  0  0  0  0  0  0  0  0
    5.6444   10.1078   -5.9011 C   0  0  0  0  0  0  0  0  0  0  0  0
    6.4076   11.2739   -5.2527 C   0  0  0  0  0  0  0  0  0  0  0  0
    6.6051   11.0742   -3.9290 F   0  0  0  0  0  0  0  0  0  0  0  0
    7.6377   11.3900   -5.8155 F   0  0  0  0  0  0  0  0  0  0  0  0
    5.7821   12.4576   -5.4139 F   0  0  0  0  0  0  0  0  0  0  0  0
    2.0990    7.3786   -1.7286 C   0  0  0  0  0  0  0  0  0  0  0  0
   -0.6411    5.3558   -0.7155 C   0  0  0  0  0  0  0  0  0  0  0  0
   -0.1973    4.2200   -1.3625 N   0  0  0  0  0  0  0  0  0  0  0  0
    1.0416    4.0818   -0.9580 C   0  0  0  0  0  0  0  0  0  0  0  0
    1.9235    2.9764   -1.0309 C   0  0  0  0  0  0  0  0  0  0  0  0
    0.5538   -1.1127   -0.4454 H   0  0  0  0  0  0  0  0  0  0  0  0
    0.5864    0.4863   -1.1792 H   0  0  0  0  0  0  0  0  0  0  0  0
    0.4053    0.3114    0.5903 H   0  0  0  0  0  0  0  0  0  0  0  0
    2.6898   -2.1686   -0.3385 H   0  0  0  0  0  0  0  0  0  0  0  0
    2.3105    2.6760    2.3287 H   0  0  0  0  0  0  0  0  0  0  0  0
    1.4257    5.0408    2.2267 H   0  0  0  0  0  0  0  0  0  0  0  0
   -0.9920    8.2812   -0.5965 H   0  0  0  0  0  0  0  0  0  0  0  0
   -0.5992   10.1242   -2.1720 H   0  0  0  0  0  0  0  0  0  0  0  0
    1.4358   10.2452   -3.4718 H   0  0  0  0  0  0  0  0  0  0  0  0
    4.1203    7.6594   -3.3311 H   0  0  0  0  0  0  0  0  0  0  0  0
    5.7220    8.5307   -4.4793 H   0  0  0  0  0  0  0  0  0  0  0  0
    4.8404   10.5112   -6.5290 H   0  0  0  0  0  0  0  0  0  0  0  0
    6.3176    9.5513   -6.5613 H   0  0  0  0  0  0  0  0  0  0  0  0
    2.8234    6.5710   -1.6736 H   0  0  0  0  0  0  0  0  0  0  0  0
   -1.6372    5.7343   -0.9013 H   0  0  0  0  0  0  0  0  0  0  0  0
    2.0944    2.5170   -1.9994 H   0  0  0  0  0  0  0  0  0  0  0  0
  1  2  1  0  0  0  0
  1 33  1  0  0  0  0
  1 34  1  0  0  0  0
  1 35  1  0  0  0  0
  2  3  1  0  0  0  0
  2  8  2  0  0  0  0
  3  4  2  0  0  0  0
  3 36  1  0  0  0  0
  4  5  1  0  0  0  0
  4  6  1  0  0  0  0
  6  7  2  0  0  0  0
  7  8  1  0  0  0  0
  8  9  1  0  0  0  0
  9 10  1  0  0  0  0
  9 32  2  0  0  0  0
 10 11  2  0  0  0  0
 10 37  1  0  0  0  0
 11 12  1  0  0  0  0
 11 38  1  0  0  0  0
 12 13  1  0  0  0  0
 12 31  1  0  0  0  0
 13 14  1  0  0  0  0
 13 29  2  0  0  0  0
 14 15  1  0  0  0  0
 14 28  2  0  0  0  0
 15 16  2  0  0  0  0
 15 39  1  0  0  0  0
 16 17  1  0  0  0  0
 16 40  1  0  0  0  0
 17 18  2  0  0  0  0
 17 41  1  0  0  0  0
 18 19  1  0  0  0  0
 18 28  1  0  0  0  0
 19 20  1  0  0  0  0
 19 42  1  0  0  0  0
 20 21  2  0  0  0  0
 20 22  1  0  0  0  0
 22 23  1  0  0  0  0
 22 43  1  0  0  0  0
 23 24  1  0  0  0  0
 23 44  1  0  0  0  0
 23 45  1  0  0  0  0
 24 25  1  0  0  0  0
 24 26  1  0  0  0  0
 24 27  1  0  0  0  0
 28 46  1  0  0  0  0
 29 30  1  0  0  0  0
 29 47  1  0  0  0  0
 30 31  2  0  0  0  0
 31 32  1  0  0  0  0
 32 48  1  0  0  0  0
M  END
$$$$
