CHEMBL3109277
 OpenBabel04072215363D

 52 55  0  0  0  0  0  0  0  0999 V2000
    9.3696    5.6665    2.8157 C   0  0  0  0  0  0  0  0  0  0  0  0
    8.7202    4.2955    2.7334 C   0  0  0  0  0  0  0  0  0  0  0  0
    7.8464    4.0924    1.1854 S   0  0  0  0  0  0  0  0  0  0  0  0
    6.8169    5.1158    1.1231 O   0  0  0  0  0  0  0  0  0  0  0  0
    8.8206    3.9544    0.1189 O   0  0  0  0  0  0  0  0  0  0  0  0
    7.0122    2.5297    1.3288 C   0  0  0  0  0  0  0  0  0  0  0  0
    5.6229    2.4563    1.2799 C   0  0  0  0  0  0  0  0  0  0  0  0
    4.9946    1.2089    1.3513 C   0  0  0  0  0  0  0  0  0  0  0  0
    5.7518    0.0388    1.4961 C   0  0  0  0  0  0  0  0  0  0  0  0
    5.2158   -1.2246    1.6067 O   0  0  0  0  0  0  0  0  0  0  0  0
    3.8826   -1.3914    1.1307 C   0  0  0  0  0  0  0  0  0  0  0  0
    7.1617    0.1144    1.5837 C   0  0  0  0  0  0  0  0  0  0  0  0
    7.9053   -1.0718    1.7908 N   0  0  0  0  0  0  0  0  0  0  0  0
    9.1902   -1.1392    2.1777 C   0  0  0  0  0  0  0  0  0  0  0  0
   10.1265   -0.2138    2.1843 N   0  0  0  0  0  0  0  0  0  0  0  0
   11.2088   -0.8217    2.7433 C   0  0  0  0  0  0  0  0  0  0  0  0
   10.8972   -2.1184    3.0822 C   0  0  0  0  0  0  0  0  0  0  0  0
   11.6144   -3.2071    3.7222 C   0  0  0  0  0  0  0  0  0  0  0  0
   11.0151   -4.4529    3.9283 C   0  0  0  0  0  0  0  0  0  0  0  0
   11.7383   -5.4790    4.5293 C   0  0  0  0  0  0  0  0  0  0  0  0
   10.9235   -7.1655    4.7877 Br  0  0  0  0  0  0  0  0  0  0  0  0
   13.0592   -5.2798    4.9304 C   0  0  0  0  0  0  0  0  0  0  0  0
   13.6955   -4.0417    4.7393 C   0  0  0  0  0  0  0  0  0  0  0  0
   15.1158   -3.8547    5.0989 C   0  0  0  0  0  0  0  0  0  0  0  0
   15.6466   -2.6371    5.5288 C   0  0  0  0  0  0  0  0  0  0  0  0
   17.0144   -2.5403    5.7815 C   0  0  0  0  0  0  0  0  0  0  0  0
   17.8197   -3.6568    5.6052 C   0  0  0  0  0  0  0  0  0  0  0  0
   17.2195   -4.8314    5.1920 C   0  0  0  0  0  0  0  0  0  0  0  0
   15.8978   -4.9527    4.9428 N   0  0  0  0  0  0  0  0  0  0  0  0
   12.9441   -3.0156    4.1388 C   0  0  0  0  0  0  0  0  0  0  0  0
    9.5972   -2.3367    2.7002 O   0  0  0  0  0  0  0  0  0  0  0  0
    7.7737    1.3707    1.4502 C   0  0  0  0  0  0  0  0  0  0  0  0
    9.9267    5.7766    3.7511 H   0  0  0  0  0  0  0  0  0  0  0  0
    8.6159    6.4599    2.7758 H   0  0  0  0  0  0  0  0  0  0  0  0
   10.0632    5.8261    1.9837 H   0  0  0  0  0  0  0  0  0  0  0  0
    8.0007    4.1703    3.5477 H   0  0  0  0  0  0  0  0  0  0  0  0
    9.4831    3.5140    2.8027 H   0  0  0  0  0  0  0  0  0  0  0  0
    5.0222    3.3564    1.1710 H   0  0  0  0  0  0  0  0  0  0  0  0
    3.9109    1.1867    1.3054 H   0  0  0  0  0  0  0  0  0  0  0  0
    3.6310   -2.4542    1.2035 H   0  0  0  0  0  0  0  0  0  0  0  0
    3.7997   -1.0991    0.0782 H   0  0  0  0  0  0  0  0  0  0  0  0
    3.1653   -0.8446    1.7508 H   0  0  0  0  0  0  0  0  0  0  0  0
    7.3158   -1.8844    1.9388 H   0  0  0  0  0  0  0  0  0  0  0  0
   12.1396   -0.2926    2.8817 H   0  0  0  0  0  0  0  0  0  0  0  0
    9.9904   -4.6287    3.6107 H   0  0  0  0  0  0  0  0  0  0  0  0
   13.6143   -6.0988    5.3853 H   0  0  0  0  0  0  0  0  0  0  0  0
   15.0171   -1.7657    5.6734 H   0  0  0  0  0  0  0  0  0  0  0  0
   17.4469   -1.5990    6.1092 H   0  0  0  0  0  0  0  0  0  0  0  0
   18.8877   -3.6146    5.7852 H   0  0  0  0  0  0  0  0  0  0  0  0
   17.8012   -5.7357    5.0388 H   0  0  0  0  0  0  0  0  0  0  0  0
   13.4214   -2.0544    3.9581 H   0  0  0  0  0  0  0  0  0  0  0  0
    8.8550    1.4638    1.4262 H   0  0  0  0  0  0  0  0  0  0  0  0
  1  2  1  0  0  0  0
  1 33  1  0  0  0  0
  1 34  1  0  0  0  0
  1 35  1  0  0  0  0
  2  3  1  0  0  0  0
  2 36  1  0  0  0  0
  2 37  1  0  0  0  0
  3  4  2  0  0  0  0
  3  5  2  0  0  0  0
  3  6  1  0  0  0  0
  6  7  1  0  0  0  0
  6 32  2  0  0  0  0
  7  8  2  0  0  0  0
  7 38  1  0  0  0  0
  8  9  1  0  0  0  0
  8 39  1  0  0  0  0
  9 10  1  0  0  0  0
  9 12  2  0  0  0  0
 10 11  1  0  0  0  0
 11 40  1  0  0  0  0
 11 41  1  0  0  0  0
 11 42  1  0  0  0  0
 12 13  1  0  0  0  0
 12 32  1  0  0  0  0
 13 14  1  0  0  0  0
 13 43  1  0  0  0  0
 14 15  2  0  0  0  0
 14 31  1  0  0  0  0
 15 16  1  0  0  0  0
 16 17  2  0  0  0  0
 16 44  1  0  0  0  0
 17 18  1  0  0  0  0
 17 31  1  0  0  0  0
 18 19  1  0  0  0  0
 18 30  2  0  0  0  0
 19 20  2  0  0  0  0
 19 45  1  0  0  0  0
 20 21  1  0  0  0  0
 20 22  1  0  0  0  0
 22 23  2  0  0  0  0
 22 46  1  0  0  0  0
 23 24  1  0  0  0  0
 23 30  1  0  0  0  0
 24 25  1  0  0  0  0
 24 29  2  0  0  0  0
 25 26  2  0  0  0  0
 25 47  1  0  0  0  0
 26 27  1  0  0  0  0
 26 48  1  0  0  0  0
 27 28  2  0  0  0  0
 27 49  1  0  0  0  0
 28 29  1  0  0  0  0
 28 50  1  0  0  0  0
 30 51  1  0  0  0  0
 32 52  1  0  0  0  0
M  END
$$$$
