CHEMBL4785657
 OpenBabel04072215383D

 50 54  0  0  0  0  0  0  0  0999 V2000
    1.0315   -0.0717    0.3574 O   0  0  0  0  0  0  0  0  0  0  0  0
    2.2281    0.1158    0.1810 C   0  0  0  0  0  0  0  0  0  0  0  0
    2.7840    0.9211   -0.7865 N   0  0  0  0  0  0  0  0  0  0  0  0
    2.1396    1.6610   -1.7911 C   0  0  0  0  0  0  0  0  0  0  0  0
    0.7697    1.9150   -1.8074 C   0  0  0  0  0  0  0  0  0  0  0  0
    0.2067    2.6485   -2.8540 C   0  0  0  0  0  0  0  0  0  0  0  0
    1.0060    3.1113   -3.8983 C   0  0  0  0  0  0  0  0  0  0  0  0
    2.3751    2.8575   -3.8897 C   0  0  0  0  0  0  0  0  0  0  0  0
    2.9420    2.1460   -2.8326 C   0  0  0  0  0  0  0  0  0  0  0  0
    3.1225   -0.6074    0.9262 N   0  0  0  0  0  0  0  0  0  0  0  0
    4.4976   -0.4784    0.9821 C   0  0  0  0  0  0  0  0  0  0  0  0
    5.1733   -1.4565    1.5868 N   0  0  0  0  0  0  0  0  0  0  0  0
    6.5156   -1.3636    1.6114 C   0  0  0  0  0  0  0  0  0  0  0  0
    7.2997   -2.3807    2.1890 N   0  0  0  0  0  0  0  0  0  0  0  0
    6.6928   -3.5105    2.8747 C   0  0  0  0  0  0  0  0  0  0  0  0
    6.9687   -3.6304    4.3464 C   0  0  0  0  0  0  0  0  0  0  0  0
    7.5215   -4.6506    3.3971 C   0  0  0  0  0  0  0  0  0  0  0  0
    7.1676   -0.2426    1.1466 C   0  0  0  0  0  0  0  0  0  0  0  0
    6.3874    0.7207    0.5573 C   0  0  0  0  0  0  0  0  0  0  0  0
    7.0721    2.2280   -0.0743 S   0  0  0  0  0  0  0  0  0  0  0  0
    7.5603    1.7804   -1.6905 C   0  0  0  0  0  0  0  0  0  0  0  0
    7.9777    0.5412   -2.1256 C   0  0  0  0  0  0  0  0  0  0  0  0
    8.1749    0.6663   -3.4741 N   0  0  0  0  0  0  0  0  0  0  0  0
    8.4479    1.9844   -3.7454 C   0  0  0  0  0  0  0  0  0  0  0  0
    9.1872    2.5924   -4.7620 C   0  0  0  0  0  0  0  0  0  0  0  0
    9.1523    3.9880   -4.8119 C   0  0  0  0  0  0  0  0  0  0  0  0
    8.3021    4.7153   -3.9776 C   0  0  0  0  0  0  0  0  0  0  0  0
    7.5865    4.0834   -2.9532 C   0  0  0  0  0  0  0  0  0  0  0  0
    7.7768    2.7035   -2.7567 C   0  0  0  0  0  0  0  0  0  0  0  0
    5.0623    0.5962    0.4359 N   0  0  0  0  0  0  0  0  0  0  0  0
    3.8007    0.9332   -0.7996 H   0  0  0  0  0  0  0  0  0  0  0  0
    0.1233    1.5779   -1.0034 H   0  0  0  0  0  0  0  0  0  0  0  0
   -0.8596    2.8576   -2.8482 H   0  0  0  0  0  0  0  0  0  0  0  0
    0.5612    3.6723   -4.7152 H   0  0  0  0  0  0  0  0  0  0  0  0
    3.0026    3.2110   -4.7030 H   0  0  0  0  0  0  0  0  0  0  0  0
    4.0122    1.9520   -2.8440 H   0  0  0  0  0  0  0  0  0  0  0  0
    2.7197   -1.3362    1.4887 H   0  0  0  0  0  0  0  0  0  0  0  0
    8.2247   -2.4866    1.7871 H   0  0  0  0  0  0  0  0  0  0  0  0
    5.7031   -3.7842    2.5126 H   0  0  0  0  0  0  0  0  0  0  0  0
    6.1389   -3.8975    4.9862 H   0  0  0  0  0  0  0  0  0  0  0  0
    7.6535   -2.9084    4.7774 H   0  0  0  0  0  0  0  0  0  0  0  0
    7.0775   -5.6395    3.4250 H   0  0  0  0  0  0  0  0  0  0  0  0
    8.5849   -4.6499    3.1948 H   0  0  0  0  0  0  0  0  0  0  0  0
    8.2412   -0.1241    1.2330 H   0  0  0  0  0  0  0  0  0  0  0  0
    8.0984   -0.4145   -1.6360 H   0  0  0  0  0  0  0  0  0  0  0  0
    8.1491   -0.0823   -4.1541 H   0  0  0  0  0  0  0  0  0  0  0  0
    9.8227    2.0191   -5.4290 H   0  0  0  0  0  0  0  0  0  0  0  0
    9.7884    4.5148   -5.5198 H   0  0  0  0  0  0  0  0  0  0  0  0
    8.2355    5.7950   -4.0851 H   0  0  0  0  0  0  0  0  0  0  0  0
    6.9602    4.6620   -2.2810 H   0  0  0  0  0  0  0  0  0  0  0  0
  1  2  2  0  0  0  0
  2  3  1  0  0  0  0
  2 10  1  0  0  0  0
  3  4  1  0  0  0  0
  3 31  1  0  0  0  0
  4  5  1  0  0  0  0
  4  9  2  0  0  0  0
  5  6  2  0  0  0  0
  5 32  1  0  0  0  0
  6  7  1  0  0  0  0
  6 33  1  0  0  0  0
  7  8  2  0  0  0  0
  7 34  1  0  0  0  0
  8  9  1  0  0  0  0
  8 35  1  0  0  0  0
  9 36  1  0  0  0  0
 10 11  1  0  0  0  0
 10 37  1  0  0  0  0
 11 12  1  0  0  0  0
 11 30  2  0  0  0  0
 12 13  2  0  0  0  0
 13 14  1  0  0  0  0
 13 18  1  0  0  0  0
 14 15  1  0  0  0  0
 14 38  1  0  0  0  0
 15 16  1  0  0  0  0
 15 17  1  0  0  0  0
 15 39  1  0  0  0  0
 16 17  1  0  0  0  0
 16 40  1  0  0  0  0
 16 41  1  0  0  0  0
 17 42  1  0  0  0  0
 17 43  1  0  0  0  0
 18 19  2  0  0  0  0
 18 44  1  0  0  0  0
 19 20  1  0  0  0  0
 19 30  1  0  0  0  0
 20 21  1  0  0  0  0
 21 22  2  0  0  0  0
 21 29  1  0  0  0  0
 22 23  1  0  0  0  0
 22 45  1  0  0  0  0
 23 24  1  0  0  0  0
 23 46  1  0  0  0  0
 24 25  1  0  0  0  0
 24 29  2  0  0  0  0
 25 26  2  0  0  0  0
 25 47  1  0  0  0  0
 26 27  1  0  0  0  0
 26 48  1  0  0  0  0
 27 28  2  0  0  0  0
 27 49  1  0  0  0  0
 28 29  1  0  0  0  0
 28 50  1  0  0  0  0
M  END
$$$$
