CHEMBL3780231
 OpenBabel04072215373D

 61 65  0  0  0  0  0  0  0  0999 V2000
   11.0189    2.1666   -1.5032 C   0  0  0  0  0  0  0  0  0  0  0  0
   10.3611    0.9910   -1.9541 O   0  0  0  0  0  0  0  0  0  0  0  0
    9.1663    1.1724   -2.5929 C   0  0  0  0  0  0  0  0  0  0  0  0
    8.5124    2.3891   -2.7910 C   0  0  0  0  0  0  0  0  0  0  0  0
    7.2809    2.4328   -3.4618 C   0  0  0  0  0  0  0  0  0  0  0  0
    6.6894    1.2652   -3.9574 C   0  0  0  0  0  0  0  0  0  0  0  0
    5.3238    1.2566   -4.6095 C   0  0  0  0  0  0  0  0  0  0  0  0
    4.9073    2.4539   -5.4386 C   0  0  0  0  0  0  0  0  0  0  0  0
    4.0756    3.3109   -4.8120 N   0  0  0  0  0  0  0  0  0  0  0  0
    3.4551    4.3101   -5.5119 N   0  0  0  0  0  0  0  0  0  0  0  0
    3.6494    4.4741   -6.8398 C   0  0  0  0  0  0  0  0  0  0  0  0
    2.8551    5.4440   -7.5361 N   0  0  0  0  0  0  0  0  0  0  0  0
    2.3049    6.5973   -6.9080 C   0  0  0  0  0  0  0  0  0  0  0  0
    3.0169    7.2952   -5.9330 C   0  0  0  0  0  0  0  0  0  0  0  0
    2.5190    8.4744   -5.3803 C   0  0  0  0  0  0  0  0  0  0  0  0
    1.3030    9.0201   -5.8050 C   0  0  0  0  0  0  0  0  0  0  0  0
    0.7419   10.1846   -5.2266 N   0  0  0  0  0  0  0  0  0  0  0  0
    1.3542   10.9874   -4.2758 C   0  0  0  0  0  0  0  0  0  0  0  0
    2.5193   10.8804   -3.9120 O   0  0  0  0  0  0  0  0  0  0  0  0
    0.4765   11.9182   -3.7304 N   0  0  0  0  0  0  0  0  0  0  0  0
    0.9231   12.7976   -2.7107 C   0  0  0  0  0  0  0  0  0  0  0  0
    2.1536   13.4599   -2.8027 C   0  0  0  0  0  0  0  0  0  0  0  0
    2.6175   14.2459   -1.7470 C   0  0  0  0  0  0  0  0  0  0  0  0
    1.8546   14.3700   -0.5890 C   0  0  0  0  0  0  0  0  0  0  0  0
    0.6169   13.7320   -0.5001 C   0  0  0  0  0  0  0  0  0  0  0  0
    0.1384   12.9660   -1.5682 C   0  0  0  0  0  0  0  0  0  0  0  0
    0.6110    8.3573   -6.8245 C   0  0  0  0  0  0  0  0  0  0  0  0
    1.1170    7.1671   -7.3834 C   0  0  0  0  0  0  0  0  0  0  0  0
    4.5467    3.6237   -7.5344 C   0  0  0  0  0  0  0  0  0  0  0  0
    4.8147    3.7215   -8.9257 C   0  0  0  0  0  0  0  0  0  0  0  0
    5.7409    2.8926   -9.5615 C   0  0  0  0  0  0  0  0  0  0  0  0
    6.4229    1.9340   -8.8304 C   0  0  0  0  0  0  0  0  0  0  0  0
    6.1617    1.7891   -7.4689 C   0  0  0  0  0  0  0  0  0  0  0  0
    5.2233    2.6111   -6.7995 C   0  0  0  0  0  0  0  0  0  0  0  0
    7.3398    0.0425   -3.7227 C   0  0  0  0  0  0  0  0  0  0  0  0
    8.5660    0.0015   -3.0515 C   0  0  0  0  0  0  0  0  0  0  0  0
   11.9794    1.8630   -1.0753 H   0  0  0  0  0  0  0  0  0  0  0  0
   10.4457    2.6578   -0.7104 H   0  0  0  0  0  0  0  0  0  0  0  0
   11.2259    2.8523   -2.3299 H   0  0  0  0  0  0  0  0  0  0  0  0
    8.9200    3.3257   -2.4264 H   0  0  0  0  0  0  0  0  0  0  0  0
    6.7830    3.3954   -3.5727 H   0  0  0  0  0  0  0  0  0  0  0  0
    4.5875    1.1240   -3.8046 H   0  0  0  0  0  0  0  0  0  0  0  0
    5.2206    0.3609   -5.2364 H   0  0  0  0  0  0  0  0  0  0  0  0
    3.3828    5.7869   -8.3316 H   0  0  0  0  0  0  0  0  0  0  0  0
    3.9749    6.9289   -5.5718 H   0  0  0  0  0  0  0  0  0  0  0  0
    3.1230    8.9324   -4.6065 H   0  0  0  0  0  0  0  0  0  0  0  0
   -0.1320   10.5111   -5.6054 H   0  0  0  0  0  0  0  0  0  0  0  0
   -0.4772   11.5972   -3.6533 H   0  0  0  0  0  0  0  0  0  0  0  0
    2.7737   13.3544   -3.6901 H   0  0  0  0  0  0  0  0  0  0  0  0
    3.5838   14.7374   -1.8233 H   0  0  0  0  0  0  0  0  0  0  0  0
    2.2308   14.9538    0.2471 H   0  0  0  0  0  0  0  0  0  0  0  0
    0.0357   13.8105    0.4149 H   0  0  0  0  0  0  0  0  0  0  0  0
   -0.8104   12.4498   -1.4609 H   0  0  0  0  0  0  0  0  0  0  0  0
   -0.3321    8.7471   -7.1995 H   0  0  0  0  0  0  0  0  0  0  0  0
    0.5594    6.6703   -8.1741 H   0  0  0  0  0  0  0  0  0  0  0  0
    4.3028    4.4515   -9.5471 H   0  0  0  0  0  0  0  0  0  0  0  0
    5.9296    3.0024  -10.6267 H   0  0  0  0  0  0  0  0  0  0  0  0
    7.1552    1.2937   -9.3160 H   0  0  0  0  0  0  0  0  0  0  0  0
    6.7216    1.0275   -6.9291 H   0  0  0  0  0  0  0  0  0  0  0  0
    6.8885   -0.8949   -4.0448 H   0  0  0  0  0  0  0  0  0  0  0  0
    9.0498   -0.9575   -2.8765 H   0  0  0  0  0  0  0  0  0  0  0  0
  1  2  1  0  0  0  0
  1 37  1  0  0  0  0
  1 38  1  0  0  0  0
  1 39  1  0  0  0  0
  2  3  1  0  0  0  0
  3  4  1  0  0  0  0
  3 36  2  0  0  0  0
  4  5  2  0  0  0  0
  4 40  1  0  0  0  0
  5  6  1  0  0  0  0
  5 41  1  0  0  0  0
  6  7  1  0  0  0  0
  6 35  2  0  0  0  0
  7  8  1  0  0  0  0
  7 42  1  0  0  0  0
  7 43  1  0  0  0  0
  8  9  1  0  0  0  0
  8 34  2  0  0  0  0
  9 10  2  0  0  0  0
 10 11  1  0  0  0  0
 11 12  1  0  0  0  0
 11 29  2  0  0  0  0
 12 13  1  0  0  0  0
 12 44  1  0  0  0  0
 13 14  1  0  0  0  0
 13 28  2  0  0  0  0
 14 15  2  0  0  0  0
 14 45  1  0  0  0  0
 15 16  1  0  0  0  0
 15 46  1  0  0  0  0
 16 17  1  0  0  0  0
 16 27  2  0  0  0  0
 17 18  1  0  0  0  0
 17 47  1  0  0  0  0
 18 19  2  0  0  0  0
 18 20  1  0  0  0  0
 20 21  1  0  0  0  0
 20 48  1  0  0  0  0
 21 22  1  0  0  0  0
 21 26  2  0  0  0  0
 22 23  2  0  0  0  0
 22 49  1  0  0  0  0
 23 24  1  0  0  0  0
 23 50  1  0  0  0  0
 24 25  2  0  0  0  0
 24 51  1  0  0  0  0
 25 26  1  0  0  0  0
 25 52  1  0  0  0  0
 26 53  1  0  0  0  0
 27 28  1  0  0  0  0
 27 54  1  0  0  0  0
 28 55  1  0  0  0  0
 29 30  1  0  0  0  0
 29 34  1  0  0  0  0
 30 31  2  0  0  0  0
 30 56  1  0  0  0  0
 31 32  1  0  0  0  0
 31 57  1  0  0  0  0
 32 33  2  0  0  0  0
 32 58  1  0  0  0  0
 33 34  1  0  0  0  0
 33 59  1  0  0  0  0
 35 36  1  0  0  0  0
 35 60  1  0  0  0  0
 36 61  1  0  0  0  0
M  END
$$$$
