CHEMBL1255093
 OpenBabel04072215363D

 42 45  0  0  0  0  0  0  0  0999 V2000
    0.5781   -0.3884    0.5598 C   0  0  0  0  0  0  0  0  0  0  0  0
    1.9345   -0.2928    1.0514 N   0  0  0  0  0  0  0  0  0  0  0  0
    2.4681    0.8239    1.6458 C   0  0  0  0  0  0  0  0  0  0  0  0
    3.7700    0.5407    1.9940 C   0  0  0  0  0  0  0  0  0  0  0  0
    4.0309   -0.7905    1.5972 C   0  0  0  0  0  0  0  0  0  0  0  0
    5.1665   -1.5052    1.7372 N   0  0  0  0  0  0  0  0  0  0  0  0
    5.0862   -2.7353    1.2186 C   0  0  0  0  0  0  0  0  0  0  0  0
    4.0374   -3.2968    0.5960 N   0  0  0  0  0  0  0  0  0  0  0  0
    2.8892   -2.5853    0.5014 C   0  0  0  0  0  0  0  0  0  0  0  0
    1.7761   -3.1227   -0.1403 O   0  0  0  0  0  0  0  0  0  0  0  0
    1.5804   -4.4845   -0.0772 C   0  0  0  0  0  0  0  0  0  0  0  0
    2.0121   -5.2652    0.9872 C   0  0  0  0  0  0  0  0  0  0  0  0
    1.7898   -6.6373    0.9920 C   0  0  0  0  0  0  0  0  0  0  0  0
    1.0878   -7.2659   -0.0365 C   0  0  0  0  0  0  0  0  0  0  0  0
    0.8485   -8.6624   -0.0478 N   0  0  0  0  0  0  0  0  0  0  0  0
    1.2801   -9.5498    0.9288 C   0  0  0  0  0  0  0  0  0  0  0  0
    1.9194   -9.2655    1.9393 O   0  0  0  0  0  0  0  0  0  0  0  0
    0.9408  -10.9838    0.7730 C   0  0  0  0  0  0  0  0  0  0  0  0
    0.7552  -11.6007   -0.4664 C   0  0  0  0  0  0  0  0  0  0  0  0
    0.5383  -12.9806   -0.5198 C   0  0  0  0  0  0  0  0  0  0  0  0
    0.5082  -13.7401    0.6531 C   0  0  0  0  0  0  0  0  0  0  0  0
    0.6957  -13.1287    1.8891 C   0  0  0  0  0  0  0  0  0  0  0  0
    0.9120  -11.7575    1.9465 C   0  0  0  0  0  0  0  0  0  0  0  0
    0.6049   -6.4741   -1.0871 C   0  0  0  0  0  0  0  0  0  0  0  0
    0.8484   -5.0878   -1.1037 C   0  0  0  0  0  0  0  0  0  0  0  0
    2.8802   -1.2902    0.9975 C   0  0  0  0  0  0  0  0  0  0  0  0
    0.0616    0.5593    0.7352 H   0  0  0  0  0  0  0  0  0  0  0  0
    0.0664   -1.1895    1.0994 H   0  0  0  0  0  0  0  0  0  0  0  0
    0.6094   -0.5945   -0.5129 H   0  0  0  0  0  0  0  0  0  0  0  0
    1.8841    1.7323    1.7754 H   0  0  0  0  0  0  0  0  0  0  0  0
    4.4653    1.2108    2.4810 H   0  0  0  0  0  0  0  0  0  0  0  0
    5.9734   -3.3546    1.3112 H   0  0  0  0  0  0  0  0  0  0  0  0
    2.5506   -4.8396    1.8276 H   0  0  0  0  0  0  0  0  0  0  0  0
    2.1911   -7.1740    1.8424 H   0  0  0  0  0  0  0  0  0  0  0  0
    0.2935   -9.0179   -0.8118 H   0  0  0  0  0  0  0  0  0  0  0  0
    0.8277  -11.0436   -1.3943 H   0  0  0  0  0  0  0  0  0  0  0  0
    0.4202  -13.4748   -1.4809 H   0  0  0  0  0  0  0  0  0  0  0  0
    0.3585  -14.8154    0.6039 H   0  0  0  0  0  0  0  0  0  0  0  0
    0.6980  -13.7147    2.8045 H   0  0  0  0  0  0  0  0  0  0  0  0
    1.0887  -11.2863    2.9146 H   0  0  0  0  0  0  0  0  0  0  0  0
    0.0400   -6.9133   -1.9047 H   0  0  0  0  0  0  0  0  0  0  0  0
    0.4691   -4.4836   -1.9244 H   0  0  0  0  0  0  0  0  0  0  0  0
  1  2  1  0  0  0  0
  1 27  1  0  0  0  0
  1 28  1  0  0  0  0
  1 29  1  0  0  0  0
  2  3  1  0  0  0  0
  2 26  1  0  0  0  0
  3  4  2  0  0  0  0
  3 30  1  0  0  0  0
  4  5  1  0  0  0  0
  4 31  1  0  0  0  0
  5  6  1  0  0  0  0
  5 26  2  0  0  0  0
  6  7  2  0  0  0  0
  7  8  1  0  0  0  0
  7 32  1  0  0  0  0
  8  9  2  0  0  0  0
  9 10  1  0  0  0  0
  9 26  1  0  0  0  0
 10 11  1  0  0  0  0
 11 12  1  0  0  0  0
 11 25  2  0  0  0  0
 12 13  2  0  0  0  0
 12 33  1  0  0  0  0
 13 14  1  0  0  0  0
 13 34  1  0  0  0  0
 14 15  1  0  0  0  0
 14 24  2  0  0  0  0
 15 16  1  0  0  0  0
 15 35  1  0  0  0  0
 16 17  2  0  0  0  0
 16 18  1  0  0  0  0
 18 19  1  0  0  0  0
 18 23  2  0  0  0  0
 19 20  2  0  0  0  0
 19 36  1  0  0  0  0
 20 21  1  0  0  0  0
 20 37  1  0  0  0  0
 21 22  2  0  0  0  0
 21 38  1  0  0  0  0
 22 23  1  0  0  0  0
 22 39  1  0  0  0  0
 23 40  1  0  0  0  0
 24 25  1  0  0  0  0
 24 41  1  0  0  0  0
 25 42  1  0  0  0  0
M  END
$$$$
