CHEMBL92279
 OpenBabel04072215383D

 32 35  0  0  0  0  0  0  0  0999 V2000
   -0.5961   -0.9776    0.5501 C   0  0  0  0  0  0  0  0  0  0  0  0
    0.7881   -0.9963    0.5820 C   0  0  0  0  0  0  0  0  0  0  0  0
    1.4758    0.0578   -0.0201 C   0  0  0  0  0  0  0  0  0  0  0  0
    2.9345    0.0783   -0.0239 C   0  0  0  0  0  0  0  0  0  0  0  0
    3.7278    0.7053    1.0772 C   0  0  0  0  0  0  0  0  0  0  0  0
    5.0239    0.7456    1.1663 N   0  0  0  0  0  0  0  0  0  0  0  0
    5.7212    0.1549    0.1406 C   0  0  0  0  0  0  0  0  0  0  0  0
    7.0757   -0.0155   -0.0988 C   0  0  0  0  0  0  0  0  0  0  0  0
    8.1637    0.4172    0.7680 C   0  0  0  0  0  0  0  0  0  0  0  0
    8.0072    0.5018    2.1532 C   0  0  0  0  0  0  0  0  0  0  0  0
    9.0893    0.8929    2.9253 C   0  0  0  0  0  0  0  0  0  0  0  0
   10.3023    1.1970    2.4199 N   0  0  0  0  0  0  0  0  0  0  0  0
   10.4352    1.1115    1.0809 C   0  0  0  0  0  0  0  0  0  0  0  0
    9.4127    0.7311    0.2250 C   0  0  0  0  0  0  0  0  0  0  0  0
    7.1268   -0.6839   -1.3419 C   0  0  0  0  0  0  0  0  0  0  0  0
    5.9242   -0.9356   -1.8583 N   0  0  0  0  0  0  0  0  0  0  0  0
    5.0589   -0.4330   -0.9473 N   0  0  0  0  0  0  0  0  0  0  0  0
    3.6700   -0.4647   -1.0063 C   0  0  0  0  0  0  0  0  0  0  0  0
    0.7532    1.0821   -0.6316 C   0  0  0  0  0  0  0  0  0  0  0  0
   -0.6295    1.0097   -0.6100 C   0  0  0  0  0  0  0  0  0  0  0  0
   -1.3181    0.0035   -0.0312 N   0  0  0  0  0  0  0  0  0  0  0  0
   -1.1787   -1.7751    1.0029 H   0  0  0  0  0  0  0  0  0  0  0  0
    1.3081   -1.8176    1.0636 H   0  0  0  0  0  0  0  0  0  0  0  0
    3.1336    1.1725    1.8816 H   0  0  0  0  0  0  0  0  0  0  0  0
    7.0677    0.2633    2.6395 H   0  0  0  0  0  0  0  0  0  0  0  0
    9.0032    0.9688    4.0054 H   0  0  0  0  0  0  0  0  0  0  0  0
   11.4195    1.3651    0.6975 H   0  0  0  0  0  0  0  0  0  0  0  0
    9.6015    0.6954   -0.8420 H   0  0  0  0  0  0  0  0  0  0  0  0
    8.0001   -1.0096   -1.8923 H   0  0  0  0  0  0  0  0  0  0  0  0
    3.2507   -0.9536   -1.8761 H   0  0  0  0  0  0  0  0  0  0  0  0
    1.2454    1.9186   -1.1168 H   0  0  0  0  0  0  0  0  0  0  0  0
   -1.2390    1.7811   -1.0728 H   0  0  0  0  0  0  0  0  0  0  0  0
  1  2  1  0  0  0  0
  1 21  2  0  0  0  0
  1 22  1  0  0  0  0
  2  3  2  0  0  0  0
  2 23  1  0  0  0  0
  3  4  1  0  0  0  0
  3 19  1  0  0  0  0
  4  5  1  0  0  0  0
  4 18  2  0  0  0  0
  5  6  2  0  0  0  0
  5 24  1  0  0  0  0
  6  7  1  0  0  0  0
  7  8  2  0  0  0  0
  7 17  1  0  0  0  0
  8  9  1  0  0  0  0
  8 15  1  0  0  0  0
  9 10  1  0  0  0  0
  9 14  2  0  0  0  0
 10 11  2  0  0  0  0
 10 25  1  0  0  0  0
 11 12  1  0  0  0  0
 11 26  1  0  0  0  0
 12 13  2  0  0  0  0
 13 14  1  0  0  0  0
 13 27  1  0  0  0  0
 14 28  1  0  0  0  0
 15 16  2  0  0  0  0
 15 29  1  0  0  0  0
 16 17  1  0  0  0  0
 17 18  1  0  0  0  0
 18 30  1  0  0  0  0
 19 20  2  0  0  0  0
 19 31  1  0  0  0  0
 20 21  1  0  0  0  0
 20 32  1  0  0  0  0
M  END
$$$$
