CHEMBL1242202
 OpenBabel04072215363D

 46 49  0  0  1  0  0  0  0  0999 V2000
    2.8195   -1.2522    0.5425 C   0  0  0  0  0  0  0  0  0  0  0  0
    2.3335    0.0064    0.9908 O   0  0  0  0  0  0  0  0  0  0  0  0
    3.1052    1.1035    0.7157 C   0  0  0  0  0  0  0  0  0  0  0  0
    4.3063    1.0668    0.0125 C   0  0  0  0  0  0  0  0  0  0  0  0
    5.0529    2.2339   -0.1639 C   0  0  0  0  0  0  0  0  0  0  0  0
    4.5810    3.4772    0.2710 C   0  0  0  0  0  0  0  0  0  0  0  0
    5.3545    4.7028    0.0391 C   0  0  0  0  0  0  0  0  0  0  0  0
    5.2951    5.7116    0.9296 N   0  0  0  0  0  0  0  0  0  0  0  0
    6.1696    6.6292    0.4617 N   0  0  0  0  0  0  0  0  0  0  0  0
    6.4268    7.8443    1.2154 C   0  0  3  0  0  0  0  0  0  0  0  0
    6.9536    7.5909    2.6415 C   0  0  0  0  0  0  0  0  0  0  0  0
    5.9599    8.2706    3.5808 C   0  0  0  0  0  0  0  0  0  0  0  0
    5.3359    9.3906    2.7518 C   0  0  3  0  0  0  0  0  0  0  0  0
    6.2136   10.6403    2.7107 C   0  0  0  0  0  0  0  0  0  0  0  0
    5.1853    8.7403    1.3757 C   0  0  0  0  0  0  0  0  0  0  0  0
    6.7437    6.2707   -0.7278 C   0  0  0  0  0  0  0  0  0  0  0  0
    7.6367    6.9854   -1.4377 N   0  0  0  0  0  0  0  0  0  0  0  0
    8.0111    6.3387   -2.5482 C   0  0  0  0  0  0  0  0  0  0  0  0
    7.5939    5.1365   -2.9890 N   0  0  0  0  0  0  0  0  0  0  0  0
    6.6850    4.4624   -2.2523 C   0  0  0  0  0  0  0  0  0  0  0  0
    6.2800    3.2401   -2.7773 N   0  0  0  0  0  0  0  0  0  0  0  0
    6.2313    5.0289   -1.0458 C   0  0  0  0  0  0  0  0  0  0  0  0
    3.3684    3.5183    0.9700 C   0  0  0  0  0  0  0  0  0  0  0  0
    2.6519    2.3380    1.2013 C   0  0  0  0  0  0  0  0  0  0  0  0
    1.4882    2.3830    1.9235 O   0  0  0  0  0  0  0  0  0  0  0  0
    2.1096   -2.0200    0.8628 H   0  0  0  0  0  0  0  0  0  0  0  0
    3.7904   -1.4896    0.9916 H   0  0  0  0  0  0  0  0  0  0  0  0
    2.8736   -1.2837   -0.5510 H   0  0  0  0  0  0  0  0  0  0  0  0
    4.7108    0.1469   -0.3961 H   0  0  0  0  0  0  0  0  0  0  0  0
    6.0267    2.1388   -0.6357 H   0  0  0  0  0  0  0  0  0  0  0  0
    7.1946    8.4056    0.6681 H   0  0  0  0  0  0  0  0  0  0  0  0
    7.9387    8.0606    2.7518 H   0  0  0  0  0  0  0  0  0  0  0  0
    7.0764    6.5322    2.8908 H   0  0  0  0  0  0  0  0  0  0  0  0
    6.4397    8.6303    4.4970 H   0  0  0  0  0  0  0  0  0  0  0  0
    5.1846    7.5512    3.8722 H   0  0  0  0  0  0  0  0  0  0  0  0
    4.3565    9.6703    3.1560 H   0  0  0  0  0  0  0  0  0  0  0  0
    7.2144   10.4336    2.3187 H   0  0  0  0  0  0  0  0  0  0  0  0
    6.3278   11.0611    3.7154 H   0  0  0  0  0  0  0  0  0  0  0  0
    5.7577   11.4074    2.0760 H   0  0  0  0  0  0  0  0  0  0  0  0
    5.1102    9.4743    0.5667 H   0  0  0  0  0  0  0  0  0  0  0  0
    4.2624    8.1476    1.3577 H   0  0  0  0  0  0  0  0  0  0  0  0
    8.7437    6.8408   -3.1754 H   0  0  0  0  0  0  0  0  0  0  0  0
    6.5823    3.1337   -3.7394 H   0  0  0  0  0  0  0  0  0  0  0  0
    5.3185    2.9863   -2.5902 H   0  0  0  0  0  0  0  0  0  0  0  0
    2.9976    4.4693    1.3438 H   0  0  0  0  0  0  0  0  0  0  0  0
    1.3522    3.2885    2.2430 H   0  0  0  0  0  0  0  0  0  0  0  0
  1  2  1  0  0  0  0
  1 26  1  0  0  0  0
  1 27  1  0  0  0  0
  1 28  1  0  0  0  0
  2  3  1  0  0  0  0
  3  4  1  0  0  0  0
  3 24  2  0  0  0  0
  4  5  2  0  0  0  0
  4 29  1  0  0  0  0
  5  6  1  0  0  0  0
  5 30  1  0  0  0  0
  6  7  1  0  0  0  0
  6 23  2  0  0  0  0
  7  8  2  0  0  0  0
  7 22  1  0  0  0  0
  8  9  1  0  0  0  0
  9 10  1  0  0  0  0
  9 16  1  0  0  0  0
 10 11  1  0  0  0  0
 10 15  1  0  0  0  0
 10 31  1  0  0  0  0
 11 12  1  0  0  0  0
 11 32  1  0  0  0  0
 11 33  1  0  0  0  0
 12 13  1  0  0  0  0
 12 34  1  0  0  0  0
 12 35  1  0  0  0  0
 13 14  1  0  0  0  0
 13 15  1  0  0  0  0
 13 36  1  0  0  0  0
 14 37  1  0  0  0  0
 14 38  1  0  0  0  0
 14 39  1  0  0  0  0
 15 40  1  0  0  0  0
 15 41  1  0  0  0  0
 16 17  1  0  0  0  0
 16 22  2  0  0  0  0
 17 18  2  0  0  0  0
 18 19  1  0  0  0  0
 18 42  1  0  0  0  0
 19 20  2  0  0  0  0
 20 21  1  0  0  0  0
 20 22  1  0  0  0  0
 21 43  1  0  0  0  0
 21 44  1  0  0  0  0
 23 24  1  0  0  0  0
 23 45  1  0  0  0  0
 24 25  1  0  0  0  0
 25 46  1  0  0  0  0
M  END
$$$$
