CHEMBL3586051
 OpenBabel04072215363D

 41 43  0  0  0  0  0  0  0  0999 V2000
    1.0254   -0.3890    0.2123 O   0  0  0  0  0  0  0  0  0  0  0  0
    2.1696   -0.0469   -0.0567 C   0  0  0  0  0  0  0  0  0  0  0  0
    2.8330    1.0049    0.5547 N   0  0  0  0  0  0  0  0  0  0  0  0
    2.2926    1.8613    1.5361 C   0  0  0  0  0  0  0  0  0  0  0  0
    1.1240    1.5892    2.2507 C   0  0  0  0  0  0  0  0  0  0  0  0
    0.6105    2.5220    3.1591 C   0  0  0  0  0  0  0  0  0  0  0  0
    1.2350    3.7578    3.3775 C   0  0  0  0  0  0  0  0  0  0  0  0
    0.6571    4.7766    4.2759 C   0  0  0  0  0  0  0  0  0  0  0  0
    1.4520    5.6674    5.0114 C   0  0  0  0  0  0  0  0  0  0  0  0
    0.8699    6.6501    5.8122 C   0  0  0  0  0  0  0  0  0  0  0  0
   -0.5105    6.7119    5.8782 C   0  0  0  0  0  0  0  0  0  0  0  0
   -1.3235    5.8744    5.2077 N   0  0  0  0  0  0  0  0  0  0  0  0
   -0.7229    4.9389    4.4281 C   0  0  0  0  0  0  0  0  0  0  0  0
    2.4295    3.9975    2.6776 C   0  0  0  0  0  0  0  0  0  0  0  0
    2.9590    3.0592    1.7815 C   0  0  0  0  0  0  0  0  0  0  0  0
    2.9549   -0.6304   -1.0351 N   0  0  0  0  0  0  0  0  0  0  0  0
    2.5667   -1.6373   -1.9504 C   0  0  0  0  0  0  0  0  0  0  0  0
    1.2619   -2.1367   -2.0136 C   0  0  0  0  0  0  0  0  0  0  0  0
    0.9082   -3.1372   -2.9243 C   0  0  0  0  0  0  0  0  0  0  0  0
    1.8660   -3.6858   -3.7666 C   0  0  0  0  0  0  0  0  0  0  0  0
    1.6401   -4.6778   -4.6701 O   0  0  0  0  0  0  0  0  0  0  0  0
    0.7059   -5.7048   -4.3517 C   0  0  0  0  0  0  0  0  0  0  0  0
    0.1821   -5.6241   -3.1109 F   0  0  0  0  0  0  0  0  0  0  0  0
   -0.3027   -5.6789   -5.2492 F   0  0  0  0  0  0  0  0  0  0  0  0
    1.3320   -6.8985   -4.4549 F   0  0  0  0  0  0  0  0  0  0  0  0
    3.1598   -3.1591   -3.7599 C   0  0  0  0  0  0  0  0  0  0  0  0
    3.5097   -2.1496   -2.8557 C   0  0  0  0  0  0  0  0  0  0  0  0
    5.2960   -1.4953   -2.9021 Br  0  0  0  0  0  0  0  0  0  0  0  0
    3.6906    1.3100    0.1224 H   0  0  0  0  0  0  0  0  0  0  0  0
    0.5831    0.6568    2.1302 H   0  0  0  0  0  0  0  0  0  0  0  0
   -0.3023    2.2547    3.6905 H   0  0  0  0  0  0  0  0  0  0  0  0
    2.5364    5.6090    4.9725 H   0  0  0  0  0  0  0  0  0  0  0  0
    1.4823    7.3500    6.3690 H   0  0  0  0  0  0  0  0  0  0  0  0
   -1.0099    7.4609    6.4840 H   0  0  0  0  0  0  0  0  0  0  0  0
   -1.4297    4.3078    3.8930 H   0  0  0  0  0  0  0  0  0  0  0  0
    2.9583    4.9409    2.7902 H   0  0  0  0  0  0  0  0  0  0  0  0
    3.8764    3.3070    1.2526 H   0  0  0  0  0  0  0  0  0  0  0  0
    3.9306   -0.3653   -1.0719 H   0  0  0  0  0  0  0  0  0  0  0  0
    0.4729   -1.7716   -1.3651 H   0  0  0  0  0  0  0  0  0  0  0  0
   -0.1300   -3.4541   -2.9395 H   0  0  0  0  0  0  0  0  0  0  0  0
    3.8957   -3.5467   -4.4606 H   0  0  0  0  0  0  0  0  0  0  0  0
  1  2  2  0  0  0  0
  2  3  1  0  0  0  0
  2 16  1  0  0  0  0
  3  4  1  0  0  0  0
  3 29  1  0  0  0  0
  4  5  1  0  0  0  0
  4 15  2  0  0  0  0
  5  6  2  0  0  0  0
  5 30  1  0  0  0  0
  6  7  1  0  0  0  0
  6 31  1  0  0  0  0
  7  8  1  0  0  0  0
  7 14  2  0  0  0  0
  8  9  1  0  0  0  0
  8 13  2  0  0  0  0
  9 10  2  0  0  0  0
  9 32  1  0  0  0  0
 10 11  1  0  0  0  0
 10 33  1  0  0  0  0
 11 12  2  0  0  0  0
 11 34  1  0  0  0  0
 12 13  1  0  0  0  0
 13 35  1  0  0  0  0
 14 15  1  0  0  0  0
 14 36  1  0  0  0  0
 15 37  1  0  0  0  0
 16 17  1  0  0  0  0
 16 38  1  0  0  0  0
 17 18  1  0  0  0  0
 17 27  2  0  0  0  0
 18 19  2  0  0  0  0
 18 39  1  0  0  0  0
 19 20  1  0  0  0  0
 19 40  1  0  0  0  0
 20 21  1  0  0  0  0
 20 26  2  0  0  0  0
 21 22  1  0  0  0  0
 22 23  1  0  0  0  0
 22 24  1  0  0  0  0
 22 25  1  0  0  0  0
 26 27  1  0  0  0  0
 26 41  1  0  0  0  0
 27 28  1  0  0  0  0
M  END
$$$$
