CHEMBL3702610
 OpenBabel04072215373D

 54 57  0  0  0  0  0  0  0  0999 V2000
    0.8577    0.4766   -1.6143 C   0  0  0  0  0  0  0  0  0  0  0  0
    2.3703    0.3688   -1.7377 C   0  0  0  0  0  0  0  0  0  0  0  0
    3.0785    1.3036   -0.7497 C   0  0  0  0  0  0  0  0  0  0  0  0
    4.5831    1.2637   -0.8613 C   0  0  0  0  0  0  0  0  0  0  0  0
    5.2006    1.5955   -2.0683 C   0  0  0  0  0  0  0  0  0  0  0  0
    6.5914    1.5918   -2.1844 C   0  0  0  0  0  0  0  0  0  0  0  0
    7.4093    1.2743   -1.0992 C   0  0  0  0  0  0  0  0  0  0  0  0
    8.8271    1.2567   -1.1709 N   0  0  0  0  0  0  0  0  0  0  0  0
    9.5799    1.5496   -2.2970 C   0  0  0  0  0  0  0  0  0  0  0  0
    9.1354    1.9216   -3.3799 O   0  0  0  0  0  0  0  0  0  0  0  0
   11.0611    1.4115   -2.2041 C   0  0  0  0  0  0  0  0  0  0  0  0
   11.7140    0.5674   -1.3073 C   0  0  0  0  0  0  0  0  0  0  0  0
   13.1013    0.4359   -1.3890 C   0  0  0  0  0  0  0  0  0  0  0  0
   13.8290    1.1319   -2.3667 C   0  0  0  0  0  0  0  0  0  0  0  0
   13.2003    1.9778   -3.2897 C   0  0  0  0  0  0  0  0  0  0  0  0
   13.9052    2.6038   -4.3033 N   0  0  0  0  0  0  0  0  0  0  0  0
   13.2742    2.9337   -5.5880 C   0  0  0  0  0  0  0  0  0  0  0  0
   12.9763    4.4266   -5.6631 C   0  0  0  0  0  0  0  0  0  0  0  0
   14.1917    5.2335   -5.2959 C   0  0  0  0  0  0  0  0  0  0  0  0
   14.2299    6.5088   -5.7468 N   0  0  0  0  0  0  0  0  0  0  0  0
   15.2969    7.2400   -5.4189 C   0  0  0  0  0  0  0  0  0  0  0  0
   15.3484    8.5377   -5.8799 N   0  0  0  0  0  0  0  0  0  0  0  0
   16.3018    6.8172   -4.6454 N   0  0  0  0  0  0  0  0  0  0  0  0
   16.2259    5.5456   -4.2093 C   0  0  0  0  0  0  0  0  0  0  0  0
   15.1870    4.6885   -4.5017 C   0  0  0  0  0  0  0  0  0  0  0  0
   15.1863    3.2610   -4.0328 C   0  0  0  0  0  0  0  0  0  0  0  0
   11.8131    2.1084   -3.1690 C   0  0  0  0  0  0  0  0  0  0  0  0
    6.7966    0.9544    0.1173 C   0  0  0  0  0  0  0  0  0  0  0  0
    5.3964    0.9472    0.2341 C   0  0  0  0  0  0  0  0  0  0  0  0
    0.3703   -0.2039   -2.3202 H   0  0  0  0  0  0  0  0  0  0  0  0
    0.5199    1.4938   -1.8389 H   0  0  0  0  0  0  0  0  0  0  0  0
    0.5258    0.2171   -0.6054 H   0  0  0  0  0  0  0  0  0  0  0  0
    2.6494    0.6072   -2.7707 H   0  0  0  0  0  0  0  0  0  0  0  0
    2.6784   -0.6681   -1.5589 H   0  0  0  0  0  0  0  0  0  0  0  0
    2.7744    1.0450    0.2717 H   0  0  0  0  0  0  0  0  0  0  0  0
    2.7544    2.3387   -0.9179 H   0  0  0  0  0  0  0  0  0  0  0  0
    4.6097    1.8694   -2.9392 H   0  0  0  0  0  0  0  0  0  0  0  0
    6.9932    1.8533   -3.1561 H   0  0  0  0  0  0  0  0  0  0  0  0
    9.3129    1.0465   -0.3100 H   0  0  0  0  0  0  0  0  0  0  0  0
   11.1703   -0.0296   -0.5832 H   0  0  0  0  0  0  0  0  0  0  0  0
   13.6222   -0.2448   -0.7191 H   0  0  0  0  0  0  0  0  0  0  0  0
   14.8994    0.9515   -2.4374 H   0  0  0  0  0  0  0  0  0  0  0  0
   12.3665    2.3477   -5.7752 H   0  0  0  0  0  0  0  0  0  0  0  0
   13.9700    2.6559   -6.3910 H   0  0  0  0  0  0  0  0  0  0  0  0
   12.1680    4.6947   -4.9737 H   0  0  0  0  0  0  0  0  0  0  0  0
   12.6496    4.6837   -6.6772 H   0  0  0  0  0  0  0  0  0  0  0  0
   14.4098    8.8678   -6.0602 H   0  0  0  0  0  0  0  0  0  0  0  0
   15.9269    9.0924   -5.2666 H   0  0  0  0  0  0  0  0  0  0  0  0
   17.0667    5.2289   -3.5979 H   0  0  0  0  0  0  0  0  0  0  0  0
   15.4319    3.2465   -2.9642 H   0  0  0  0  0  0  0  0  0  0  0  0
   15.9739    2.7167   -4.5679 H   0  0  0  0  0  0  0  0  0  0  0  0
   11.2772    2.7704   -3.8451 H   0  0  0  0  0  0  0  0  0  0  0  0
    7.3904    0.7043    0.9910 H   0  0  0  0  0  0  0  0  0  0  0  0
    4.9474    0.6965    1.1930 H   0  0  0  0  0  0  0  0  0  0  0  0
  1  2  1  0  0  0  0
  1 30  1  0  0  0  0
  1 31  1  0  0  0  0
  1 32  1  0  0  0  0
  2  3  1  0  0  0  0
  2 33  1  0  0  0  0
  2 34  1  0  0  0  0
  3  4  1  0  0  0  0
  3 35  1  0  0  0  0
  3 36  1  0  0  0  0
  4  5  1  0  0  0  0
  4 29  2  0  0  0  0
  5  6  2  0  0  0  0
  5 37  1  0  0  0  0
  6  7  1  0  0  0  0
  6 38  1  0  0  0  0
  7  8  1  0  0  0  0
  7 28  2  0  0  0  0
  8  9  1  0  0  0  0
  8 39  1  0  0  0  0
  9 10  2  0  0  0  0
  9 11  1  0  0  0  0
 11 12  1  0  0  0  0
 11 27  2  0  0  0  0
 12 13  2  0  0  0  0
 12 40  1  0  0  0  0
 13 14  1  0  0  0  0
 13 41  1  0  0  0  0
 14 15  2  0  0  0  0
 14 42  1  0  0  0  0
 15 16  1  0  0  0  0
 15 27  1  0  0  0  0
 16 17  1  0  0  0  0
 16 26  1  0  0  0  0
 17 18  1  0  0  0  0
 17 43  1  0  0  0  0
 17 44  1  0  0  0  0
 18 19  1  0  0  0  0
 18 45  1  0  0  0  0
 18 46  1  0  0  0  0
 19 20  1  0  0  0  0
 19 25  2  0  0  0  0
 20 21  2  0  0  0  0
 21 22  1  0  0  0  0
 21 23  1  0  0  0  0
 22 47  1  0  0  0  0
 22 48  1  0  0  0  0
 23 24  2  0  0  0  0
 24 25  1  0  0  0  0
 24 49  1  0  0  0  0
 25 26  1  0  0  0  0
 26 50  1  0  0  0  0
 26 51  1  0  0  0  0
 27 52  1  0  0  0  0
 28 29  1  0  0  0  0
 28 53  1  0  0  0  0
 29 54  1  0  0  0  0
M  END
$$$$
