CHEMBL3690508
 OpenBabel04072215373D

 51 54  0  0  0  0  0  0  0  0999 V2000
   -2.3599   -1.5173   -0.7571 C   0  0  0  0  0  0  0  0  0  0  0  0
   -1.2041   -0.7079   -0.4502 N   0  0  0  0  0  0  0  0  0  0  0  0
   -1.2276    0.6590   -0.3840 C   0  0  0  0  0  0  0  0  0  0  0  0
   -0.0475    1.1520   -0.0966 N   0  0  0  0  0  0  0  0  0  0  0  0
    0.7706    0.0631    0.0332 C   0  0  0  0  0  0  0  0  0  0  0  0
    0.0857   -1.1217   -0.1808 C   0  0  0  0  0  0  0  0  0  0  0  0
    0.4455   -2.4931   -0.1728 C   0  0  0  0  0  0  0  0  0  0  0  0
    1.7039   -2.8883    0.0879 C   0  0  0  0  0  0  0  0  0  0  0  0
    2.1385   -4.2853    0.0908 C   0  0  0  0  0  0  0  0  0  0  0  0
    1.5412   -5.3020   -0.7840 C   0  0  0  0  0  0  0  0  0  0  0  0
    1.9721   -6.5700   -0.7487 C   0  0  0  0  0  0  0  0  0  0  0  0
    3.0414   -6.9171    0.0791 N   0  0  0  0  0  0  0  0  0  0  0  0
    3.6982   -8.1290    0.2578 C   0  0  0  0  0  0  0  0  0  0  0  0
    3.4241   -9.4056   -0.4209 C   0  0  0  0  0  0  0  0  0  0  0  0
    3.5860  -10.5994    0.2937 C   0  0  0  0  0  0  0  0  0  0  0  0
    3.3606  -11.8300   -0.3157 C   0  0  0  0  0  0  0  0  0  0  0  0
    2.9278  -11.8844   -1.6411 C   0  0  0  0  0  0  0  0  0  0  0  0
    2.7286  -10.7172   -2.3760 C   0  0  0  0  0  0  0  0  0  0  0  0
    2.2247  -10.7155   -3.7028 N   0  0  0  0  0  0  0  0  0  0  0  0
    1.8211  -11.8225   -4.4199 C   0  0  0  0  0  0  0  0  0  0  0  0
    1.8084  -12.9831   -4.0349 O   0  0  0  0  0  0  0  0  0  0  0  0
    1.4471  -11.5148   -5.7066 N   0  0  0  0  0  0  0  0  0  0  0  0
    1.0161  -12.6207   -6.5769 C   0  0  0  0  0  0  0  0  0  0  0  0
   -0.4089  -13.1507   -6.3536 C   0  0  0  0  0  0  0  0  0  0  0  0
   -1.1151  -12.3715   -5.5017 F   0  0  0  0  0  0  0  0  0  0  0  0
   -1.0865  -13.1523   -7.5303 F   0  0  0  0  0  0  0  0  0  0  0  0
   -0.4242  -14.4144   -5.8838 F   0  0  0  0  0  0  0  0  0  0  0  0
    3.0297   -9.4885   -1.7728 C   0  0  0  0  0  0  0  0  0  0  0  0
    4.6252   -7.8502    1.2557 C   0  0  0  0  0  0  0  0  0  0  0  0
    4.5986   -6.5385    1.6445 N   0  0  0  0  0  0  0  0  0  0  0  0
    3.6506   -5.9891    0.9172 C   0  0  0  0  0  0  0  0  0  0  0  0
    3.1735   -4.6442    0.8875 C   0  0  0  0  0  0  0  0  0  0  0  0
   -3.2317   -0.8721   -0.8971 H   0  0  0  0  0  0  0  0  0  0  0  0
   -2.5432   -2.1991    0.0769 H   0  0  0  0  0  0  0  0  0  0  0  0
   -2.1648   -2.0699   -1.6796 H   0  0  0  0  0  0  0  0  0  0  0  0
   -2.1244    1.2410   -0.5531 H   0  0  0  0  0  0  0  0  0  0  0  0
    1.8180    0.1862    0.2723 H   0  0  0  0  0  0  0  0  0  0  0  0
   -0.3175   -3.2394   -0.3751 H   0  0  0  0  0  0  0  0  0  0  0  0
    2.4758   -2.1562    0.3199 H   0  0  0  0  0  0  0  0  0  0  0  0
    0.7453   -5.0153   -1.4624 H   0  0  0  0  0  0  0  0  0  0  0  0
    1.5132   -7.3376   -1.3513 H   0  0  0  0  0  0  0  0  0  0  0  0
    3.8918  -10.5914    1.3378 H   0  0  0  0  0  0  0  0  0  0  0  0
    3.5105  -12.7525    0.2381 H   0  0  0  0  0  0  0  0  0  0  0  0
    2.7635  -12.8708   -2.0629 H   0  0  0  0  0  0  0  0  0  0  0  0
    2.1367   -9.8193   -4.1590 H   0  0  0  0  0  0  0  0  0  0  0  0
    1.0208  -10.6126   -5.8622 H   0  0  0  0  0  0  0  0  0  0  0  0
    1.7242  -13.4502   -6.4542 H   0  0  0  0  0  0  0  0  0  0  0  0
    1.1207  -12.2618   -7.6055 H   0  0  0  0  0  0  0  0  0  0  0  0
    2.9654   -8.5820   -2.3680 H   0  0  0  0  0  0  0  0  0  0  0  0
    5.3273   -8.5398    1.7086 H   0  0  0  0  0  0  0  0  0  0  0  0
    3.6655   -3.9364    1.5469 H   0  0  0  0  0  0  0  0  0  0  0  0
  1  2  1  0  0  0  0
  1 33  1  0  0  0  0
  1 34  1  0  0  0  0
  1 35  1  0  0  0  0
  2  3  1  0  0  0  0
  2  6  1  0  0  0  0
  3  4  2  0  0  0  0
  3 36  1  0  0  0  0
  4  5  1  0  0  0  0
  5  6  2  0  0  0  0
  5 37  1  0  0  0  0
  6  7  1  0  0  0  0
  7  8  2  0  0  0  0
  7 38  1  0  0  0  0
  8  9  1  0  0  0  0
  8 39  1  0  0  0  0
  9 10  1  0  0  0  0
  9 32  2  0  0  0  0
 10 11  2  0  0  0  0
 10 40  1  0  0  0  0
 11 12  1  0  0  0  0
 11 41  1  0  0  0  0
 12 13  1  0  0  0  0
 12 31  1  0  0  0  0
 13 14  1  0  0  0  0
 13 29  2  0  0  0  0
 14 15  1  0  0  0  0
 14 28  2  0  0  0  0
 15 16  2  0  0  0  0
 15 42  1  0  0  0  0
 16 17  1  0  0  0  0
 16 43  1  0  0  0  0
 17 18  2  0  0  0  0
 17 44  1  0  0  0  0
 18 19  1  0  0  0  0
 18 28  1  0  0  0  0
 19 20  1  0  0  0  0
 19 45  1  0  0  0  0
 20 21  2  0  0  0  0
 20 22  1  0  0  0  0
 22 23  1  0  0  0  0
 22 46  1  0  0  0  0
 23 24  1  0  0  0  0
 23 47  1  0  0  0  0
 23 48  1  0  0  0  0
 24 25  1  0  0  0  0
 24 26  1  0  0  0  0
 24 27  1  0  0  0  0
 28 49  1  0  0  0  0
 29 30  1  0  0  0  0
 29 50  1  0  0  0  0
 30 31  2  0  0  0  0
 31 32  1  0  0  0  0
 32 51  1  0  0  0  0
M  END
$$$$
