CHEMBL221468
 OpenBabel04072215363D

 47 49  0  0  0  0  0  0  0  0999 V2000
    0.9459    0.4005    0.7009 C   0  0  0  0  0  0  0  0  0  0  0  0
    2.3902    0.5327    0.5754 N   0  0  0  0  0  0  0  0  0  0  0  0
    2.8351    1.7162   -0.1368 C   0  0  0  0  0  0  0  0  0  0  0  0
    3.1292   -0.5815    0.9401 C   0  0  0  0  0  0  0  0  0  0  0  0
    2.5363   -1.6074    1.2970 O   0  0  0  0  0  0  0  0  0  0  0  0
    4.5051   -0.5752    0.9008 N   0  0  0  0  0  0  0  0  0  0  0  0
    5.4263    0.5450    0.7628 C   0  0  0  0  0  0  0  0  0  0  0  0
    6.4019    0.2528   -0.3879 C   0  0  0  0  0  0  0  0  0  0  0  0
    7.2764   -0.9097   -0.1093 N   0  0  0  0  0  0  0  0  0  0  0  0
    8.2050   -0.6900    1.0210 C   0  0  0  0  0  0  0  0  0  0  0  0
    9.0933    0.5332    0.8948 C   0  0  0  0  0  0  0  0  0  0  0  0
   10.3519    0.4743    0.3087 C   0  0  0  0  0  0  0  0  0  0  0  0
   11.0940    1.6425    0.2342 C   0  0  0  0  0  0  0  0  0  0  0  0
   10.6548    2.8562    0.6486 N   0  0  0  0  0  0  0  0  0  0  0  0
    9.4162    2.9292    1.1763 C   0  0  0  0  0  0  0  0  0  0  0  0
    8.9588    4.2153    1.4848 N   0  0  0  0  0  0  0  0  0  0  0  0
    7.6710    4.6306    1.4519 C   0  0  0  0  0  0  0  0  0  0  0  0
    6.5973    3.8823    1.6144 N   0  0  0  0  0  0  0  0  0  0  0  0
    5.4463    4.6441    1.4577 C   0  0  0  0  0  0  0  0  0  0  0  0
    5.6476    5.9668    1.1492 C   0  0  0  0  0  0  0  0  0  0  0  0
    4.6202    6.9167    0.8824 C   0  0  0  0  0  0  0  0  0  0  0  0
    3.7602    7.6570    0.6430 N   0  0  0  0  0  0  0  0  0  0  0  0
    7.3240    6.3008    1.1379 S   0  0  0  0  0  0  0  0  0  0  0  0
    8.6539    1.7815    1.3616 C   0  0  0  0  0  0  0  0  0  0  0  0
    6.3833   -2.0759    0.1595 C   0  0  0  0  0  0  0  0  0  0  0  0
    5.2296   -1.8325    1.1760 C   0  0  0  0  0  0  0  0  0  0  0  0
    0.4415    1.3501    0.4994 H   0  0  0  0  0  0  0  0  0  0  0  0
    0.6906    0.0816    1.7155 H   0  0  0  0  0  0  0  0  0  0  0  0
    0.5982   -0.3512   -0.0150 H   0  0  0  0  0  0  0  0  0  0  0  0
    2.0032    2.2235   -0.6330 H   0  0  0  0  0  0  0  0  0  0  0  0
    3.5674    1.4534   -0.9030 H   0  0  0  0  0  0  0  0  0  0  0  0
    3.2381    2.4201    0.5964 H   0  0  0  0  0  0  0  0  0  0  0  0
    5.9344    0.6367    1.7272 H   0  0  0  0  0  0  0  0  0  0  0  0
    4.9702    1.5107    0.6217 H   0  0  0  0  0  0  0  0  0  0  0  0
    6.9861    1.1402   -0.6461 H   0  0  0  0  0  0  0  0  0  0  0  0
    5.8209    0.0337   -1.2963 H   0  0  0  0  0  0  0  0  0  0  0  0
    8.8584   -1.5679    1.1042 H   0  0  0  0  0  0  0  0  0  0  0  0
    7.6798   -0.6334    1.9816 H   0  0  0  0  0  0  0  0  0  0  0  0
   10.7532   -0.4576   -0.0741 H   0  0  0  0  0  0  0  0  0  0  0  0
   12.0971    1.6364   -0.1834 H   0  0  0  0  0  0  0  0  0  0  0  0
    9.6836    4.8763    1.2323 H   0  0  0  0  0  0  0  0  0  0  0  0
    4.4827    4.1586    1.5658 H   0  0  0  0  0  0  0  0  0  0  0  0
    7.6926    1.8573    1.8505 H   0  0  0  0  0  0  0  0  0  0  0  0
    6.9767   -2.9447    0.4698 H   0  0  0  0  0  0  0  0  0  0  0  0
    5.9248   -2.3604   -0.7977 H   0  0  0  0  0  0  0  0  0  0  0  0
    5.6374   -1.7552    2.1919 H   0  0  0  0  0  0  0  0  0  0  0  0
    4.5587   -2.6975    1.1666 H   0  0  0  0  0  0  0  0  0  0  0  0
  1  2  1  0  0  0  0
  1 27  1  0  0  0  0
  1 28  1  0  0  0  0
  1 29  1  0  0  0  0
  2  3  1  0  0  0  0
  2  4  1  0  0  0  0
  3 30  1  0  0  0  0
  3 31  1  0  0  0  0
  3 32  1  0  0  0  0
  4  5  2  0  0  0  0
  4  6  1  0  0  0  0
  6  7  1  0  0  0  0
  6 26  1  0  0  0  0
  7  8  1  0  0  0  0
  7 33  1  0  0  0  0
  7 34  1  0  0  0  0
  8  9  1  0  0  0  0
  8 35  1  0  0  0  0
  8 36  1  0  0  0  0
  9 10  1  0  0  0  0
  9 25  1  0  0  0  0
 10 11  1  0  0  0  0
 10 37  1  0  0  0  0
 10 38  1  0  0  0  0
 11 12  1  0  0  0  0
 11 24  2  0  0  0  0
 12 13  2  0  0  0  0
 12 39  1  0  0  0  0
 13 14  1  0  0  0  0
 13 40  1  0  0  0  0
 14 15  2  0  0  0  0
 15 16  1  0  0  0  0
 15 24  1  0  0  0  0
 16 17  1  0  0  0  0
 16 41  1  0  0  0  0
 17 18  2  0  0  0  0
 17 23  1  0  0  0  0
 18 19  1  0  0  0  0
 19 20  2  0  0  0  0
 19 42  1  0  0  0  0
 20 21  1  0  0  0  0
 20 23  1  0  0  0  0
 21 22  3  0  0  0  0
 24 43  1  0  0  0  0
 25 26  1  0  0  0  0
 25 44  1  0  0  0  0
 25 45  1  0  0  0  0
 26 46  1  0  0  0  0
 26 47  1  0  0  0  0
M  END
$$$$
