CHEMBL467365
 OpenBabel04072215383D

 48 52  0  0  0  0  0  0  0  0999 V2000
    3.0451    1.0834    0.0884 O   0  0  0  0  0  0  0  0  0  0  0  0
    2.5795   -0.0448    0.2070 C   0  0  0  0  0  0  0  0  0  0  0  0
    3.2277   -1.0516    1.0934 C   0  0  0  0  0  0  0  0  0  0  0  0
    2.8045   -2.4032    1.0242 C   0  0  0  0  0  0  0  0  0  0  0  0
    3.5248   -3.4089    1.6503 C   0  0  0  0  0  0  0  0  0  0  0  0
    4.6929   -3.0848    2.3306 C   0  0  0  0  0  0  0  0  0  0  0  0
    5.0655   -1.7536    2.4715 C   0  0  0  0  0  0  0  0  0  0  0  0
    4.3105   -0.7032    1.9355 C   0  0  0  0  0  0  0  0  0  0  0  0
    4.7124    0.6279    2.1896 N   0  0  0  0  0  0  0  0  0  0  0  0
    5.0646    0.9654    3.5796 C   0  0  0  0  0  0  0  0  0  0  0  0
    6.4670    1.5185    3.7605 C   0  0  0  0  0  0  0  0  0  0  0  0
    6.9299    1.7013    5.0689 C   0  0  0  0  0  0  0  0  0  0  0  0
    8.2063    2.2151    5.3269 C   0  0  0  0  0  0  0  0  0  0  0  0
    9.0664    2.5590    4.3004 C   0  0  0  0  0  0  0  0  0  0  0  0
   10.2864    3.0350    4.6241 N   0  0  0  0  0  0  0  0  0  0  0  0
   11.1237    3.3472    3.6096 C   0  0  0  0  0  0  0  0  0  0  0  0
   10.8067    3.2048    2.2809 C   0  0  0  0  0  0  0  0  0  0  0  0
    9.5392    2.7230    1.9532 C   0  0  0  0  0  0  0  0  0  0  0  0
    8.6299    2.3795    2.9719 C   0  0  0  0  0  0  0  0  0  0  0  0
    7.3320    1.8807    2.7070 C   0  0  0  0  0  0  0  0  0  0  0  0
    1.3678   -0.4204   -0.5220 C   0  0  0  0  0  0  0  0  0  0  0  0
    1.2638   -0.6250   -1.8884 C   0  0  0  0  0  0  0  0  0  0  0  0
   -0.0641   -0.8238   -2.1645 N   0  0  0  0  0  0  0  0  0  0  0  0
   -0.7921   -0.3052   -1.1299 C   0  0  0  0  0  0  0  0  0  0  0  0
   -2.0683    0.2569   -1.0597 C   0  0  0  0  0  0  0  0  0  0  0  0
   -2.5120    0.6351    0.2082 C   0  0  0  0  0  0  0  0  0  0  0  0
   -3.6481    1.3358    0.3164 F   0  0  0  0  0  0  0  0  0  0  0  0
   -1.7988    0.3239    1.3612 C   0  0  0  0  0  0  0  0  0  0  0  0
   -0.5126   -0.2131    1.2764 C   0  0  0  0  0  0  0  0  0  0  0  0
    0.0392   -0.3924   -0.0058 C   0  0  0  0  0  0  0  0  0  0  0  0
    1.9314   -2.6973    0.4469 H   0  0  0  0  0  0  0  0  0  0  0  0
    3.2113   -4.4465    1.5675 H   0  0  0  0  0  0  0  0  0  0  0  0
    5.3133   -3.8679    2.7552 H   0  0  0  0  0  0  0  0  0  0  0  0
    5.9881   -1.5343    3.0037 H   0  0  0  0  0  0  0  0  0  0  0  0
    4.0375    1.2933    1.7948 H   0  0  0  0  0  0  0  0  0  0  0  0
    4.9517    0.1029    4.2503 H   0  0  0  0  0  0  0  0  0  0  0  0
    4.3554    1.7204    3.9429 H   0  0  0  0  0  0  0  0  0  0  0  0
    6.2985    1.4351    5.9179 H   0  0  0  0  0  0  0  0  0  0  0  0
    8.5324    2.3478    6.3552 H   0  0  0  0  0  0  0  0  0  0  0  0
   12.0977    3.7215    3.9268 H   0  0  0  0  0  0  0  0  0  0  0  0
   11.5262    3.4634    1.5121 H   0  0  0  0  0  0  0  0  0  0  0  0
    9.2659    2.6076    0.9054 H   0  0  0  0  0  0  0  0  0  0  0  0
    6.9978    1.7556    1.6822 H   0  0  0  0  0  0  0  0  0  0  0  0
    2.0051   -0.6235   -2.6775 H   0  0  0  0  0  0  0  0  0  0  0  0
   -0.4455   -1.1407   -3.0462 H   0  0  0  0  0  0  0  0  0  0  0  0
   -2.6440    0.4887   -1.9473 H   0  0  0  0  0  0  0  0  0  0  0  0
   -2.2166    0.5751    2.3321 H   0  0  0  0  0  0  0  0  0  0  0  0
    0.0754   -0.3877    2.1694 H   0  0  0  0  0  0  0  0  0  0  0  0
  1  2  2  0  0  0  0
  2  3  1  0  0  0  0
  2 21  1  0  0  0  0
  3  4  1  0  0  0  0
  3  8  2  0  0  0  0
  4  5  2  0  0  0  0
  4 31  1  0  0  0  0
  5  6  1  0  0  0  0
  5 32  1  0  0  0  0
  6  7  2  0  0  0  0
  6 33  1  0  0  0  0
  7  8  1  0  0  0  0
  7 34  1  0  0  0  0
  8  9  1  0  0  0  0
  9 10  1  0  0  0  0
  9 35  1  0  0  0  0
 10 11  1  0  0  0  0
 10 36  1  0  0  0  0
 10 37  1  0  0  0  0
 11 12  1  0  0  0  0
 11 20  2  0  0  0  0
 12 13  2  0  0  0  0
 12 38  1  0  0  0  0
 13 14  1  0  0  0  0
 13 39  1  0  0  0  0
 14 15  1  0  0  0  0
 14 19  2  0  0  0  0
 15 16  2  0  0  0  0
 16 17  1  0  0  0  0
 16 40  1  0  0  0  0
 17 18  2  0  0  0  0
 17 41  1  0  0  0  0
 18 19  1  0  0  0  0
 18 42  1  0  0  0  0
 19 20  1  0  0  0  0
 20 43  1  0  0  0  0
 21 22  2  0  0  0  0
 21 30  1  0  0  0  0
 22 23  1  0  0  0  0
 22 44  1  0  0  0  0
 23 24  1  0  0  0  0
 23 45  1  0  0  0  0
 24 25  1  0  0  0  0
 24 30  2  0  0  0  0
 25 26  2  0  0  0  0
 25 46  1  0  0  0  0
 26 27  1  0  0  0  0
 26 28  1  0  0  0  0
 28 29  2  0  0  0  0
 28 47  1  0  0  0  0
 29 30  1  0  0  0  0
 29 48  1  0  0  0  0
M  END
$$$$
