CHEMBL2312303
 OpenBabel04072215363D

 64 67  0  0  0  0  0  0  0  0999 V2000
    2.1450    0.9960    0.3901 O   0  0  0  0  0  0  0  0  0  0  0  0
    2.0784   -0.0666   -0.2162 C   0  0  0  0  0  0  0  0  0  0  0  0
    1.2407   -0.2120   -1.3365 N   0  0  0  0  0  0  0  0  0  0  0  0
    0.3060    0.8177   -1.8273 C   0  0  0  0  0  0  0  0  0  0  0  0
   -1.0957    0.2264   -2.0994 C   0  0  0  0  0  0  0  0  0  0  0  0
   -2.1123    1.2370   -2.6631 C   0  0  0  0  0  0  0  0  0  0  0  0
   -3.4518    0.6616   -2.8279 N   0  0  0  0  0  0  0  0  0  0  0  0
   -4.4630    0.7276   -1.7983 C   0  0  0  0  0  0  0  0  0  0  0  0
   -5.5373   -0.2211   -2.2990 C   0  0  0  0  0  0  0  0  0  0  0  0
   -5.4572   -0.0764   -3.8133 C   0  0  0  0  0  0  0  0  0  0  0  0
   -3.9978    0.2579   -4.0421 C   0  0  0  0  0  0  0  0  0  0  0  0
   -3.4263    0.2240   -5.1221 O   0  0  0  0  0  0  0  0  0  0  0  0
    2.8962   -1.2680    0.2165 C   0  0  0  0  0  0  0  0  0  0  0  0
    2.6427   -2.5141   -0.3268 C   0  0  0  0  0  0  0  0  0  0  0  0
    3.2584   -3.6690    0.0257 N   0  0  0  0  0  0  0  0  0  0  0  0
    4.1620   -3.5920    1.0000 C   0  0  0  0  0  0  0  0  0  0  0  0
    4.6845   -4.7931    1.4433 N   0  0  0  0  0  0  0  0  0  0  0  0
    6.0741   -4.8049    1.8725 C   0  0  0  0  0  0  0  0  0  0  0  0
    6.3260   -5.9155    2.8812 C   0  0  0  0  0  0  0  0  0  0  0  0
    5.3051   -6.2928    3.7847 C   0  0  0  0  0  0  0  0  0  0  0  0
    5.5309   -7.2739    4.7540 C   0  0  0  0  0  0  0  0  0  0  0  0
    4.2610   -7.7241    5.8261 Cl  0  0  0  0  0  0  0  0  0  0  0  0
    6.7750   -7.8863    4.8635 C   0  0  0  0  0  0  0  0  0  0  0  0
    7.8025   -7.5085    4.0014 C   0  0  0  0  0  0  0  0  0  0  0  0
    7.5847   -6.5248    3.0264 C   0  0  0  0  0  0  0  0  0  0  0  0
    8.9365   -6.0848    2.0433 Cl  0  0  0  0  0  0  0  0  0  0  0  0
    4.4802   -2.4452    1.5994 N   0  0  0  0  0  0  0  0  0  0  0  0
    3.8584   -1.2917    1.2363 C   0  0  0  0  0  0  0  0  0  0  0  0
    4.1797   -0.1786    2.0074 N   0  0  0  0  0  0  0  0  0  0  0  0
    4.8958   -0.3489    3.2746 C   0  0  0  0  0  0  0  0  0  0  0  0
    4.7804    0.9343    4.1046 C   0  0  0  0  0  0  0  0  0  0  0  0
    6.1060    1.1270    4.8333 C   0  0  0  0  0  0  0  0  0  0  0  0
    7.0171   -0.0097    4.4033 C   0  0  0  0  0  0  0  0  0  0  0  0
    6.3989   -0.5873    3.1359 C   0  0  0  0  0  0  0  0  0  0  0  0
    1.4320   -0.9521   -1.9950 H   0  0  0  0  0  0  0  0  0  0  0  0
    0.7303    1.2054   -2.7627 H   0  0  0  0  0  0  0  0  0  0  0  0
    0.2463    1.6438   -1.1153 H   0  0  0  0  0  0  0  0  0  0  0  0
   -1.4882   -0.1982   -1.1679 H   0  0  0  0  0  0  0  0  0  0  0  0
   -1.0070   -0.6104   -2.8035 H   0  0  0  0  0  0  0  0  0  0  0  0
   -1.7719    1.5877   -3.6452 H   0  0  0  0  0  0  0  0  0  0  0  0
   -2.2040    2.1139   -2.0127 H   0  0  0  0  0  0  0  0  0  0  0  0
   -4.8388    1.7560   -1.7477 H   0  0  0  0  0  0  0  0  0  0  0  0
   -4.0584    0.4265   -0.8301 H   0  0  0  0  0  0  0  0  0  0  0  0
   -6.5307    0.0028   -1.8987 H   0  0  0  0  0  0  0  0  0  0  0  0
   -5.2875   -1.2518   -2.0182 H   0  0  0  0  0  0  0  0  0  0  0  0
   -6.0798    0.7523   -4.1667 H   0  0  0  0  0  0  0  0  0  0  0  0
   -5.7417   -1.0013   -4.3216 H   0  0  0  0  0  0  0  0  0  0  0  0
    1.8706   -2.6745   -1.0711 H   0  0  0  0  0  0  0  0  0  0  0  0
    4.4443   -5.5011    0.7597 H   0  0  0  0  0  0  0  0  0  0  0  0
    6.3841   -3.8682    2.3478 H   0  0  0  0  0  0  0  0  0  0  0  0
    6.6909   -4.9532    0.9789 H   0  0  0  0  0  0  0  0  0  0  0  0
    4.3299   -5.8172    3.7288 H   0  0  0  0  0  0  0  0  0  0  0  0
    6.9486   -8.6478    5.6189 H   0  0  0  0  0  0  0  0  0  0  0  0
    8.7801   -7.9804    4.1018 H   0  0  0  0  0  0  0  0  0  0  0  0
    4.3884    0.6547    1.4649 H   0  0  0  0  0  0  0  0  0  0  0  0
    4.4464   -1.1649    3.8580 H   0  0  0  0  0  0  0  0  0  0  0  0
    3.9525    0.8520    4.8183 H   0  0  0  0  0  0  0  0  0  0  0  0
    4.5734    1.8121    3.4819 H   0  0  0  0  0  0  0  0  0  0  0  0
    5.9686    1.1285    5.9206 H   0  0  0  0  0  0  0  0  0  0  0  0
    6.5442    2.0948    4.5653 H   0  0  0  0  0  0  0  0  0  0  0  0
    7.0620   -0.7696    5.1929 H   0  0  0  0  0  0  0  0  0  0  0  0
    8.0420    0.3375    4.2318 H   0  0  0  0  0  0  0  0  0  0  0  0
    6.6349   -1.6549    3.0692 H   0  0  0  0  0  0  0  0  0  0  0  0
    6.8144   -0.1026    2.2470 H   0  0  0  0  0  0  0  0  0  0  0  0
  1  2  2  0  0  0  0
  2  3  1  0  0  0  0
  2 13  1  0  0  0  0
  3  4  1  0  0  0  0
  3 35  1  0  0  0  0
  4  5  1  0  0  0  0
  4 36  1  0  0  0  0
  4 37  1  0  0  0  0
  5  6  1  0  0  0  0
  5 38  1  0  0  0  0
  5 39  1  0  0  0  0
  6  7  1  0  0  0  0
  6 40  1  0  0  0  0
  6 41  1  0  0  0  0
  7  8  1  0  0  0  0
  7 11  1  0  0  0  0
  8  9  1  0  0  0  0
  8 42  1  0  0  0  0
  8 43  1  0  0  0  0
  9 10  1  0  0  0  0
  9 44  1  0  0  0  0
  9 45  1  0  0  0  0
 10 11  1  0  0  0  0
 10 46  1  0  0  0  0
 10 47  1  0  0  0  0
 11 12  2  0  0  0  0
 13 14  1  0  0  0  0
 13 28  2  0  0  0  0
 14 15  2  0  0  0  0
 14 48  1  0  0  0  0
 15 16  1  0  0  0  0
 16 17  1  0  0  0  0
 16 27  2  0  0  0  0
 17 18  1  0  0  0  0
 17 49  1  0  0  0  0
 18 19  1  0  0  0  0
 18 50  1  0  0  0  0
 18 51  1  0  0  0  0
 19 20  1  0  0  0  0
 19 25  2  0  0  0  0
 20 21  2  0  0  0  0
 20 52  1  0  0  0  0
 21 22  1  0  0  0  0
 21 23  1  0  0  0  0
 23 24  2  0  0  0  0
 23 53  1  0  0  0  0
 24 25  1  0  0  0  0
 24 54  1  0  0  0  0
 25 26  1  0  0  0  0
 27 28  1  0  0  0  0
 28 29  1  0  0  0  0
 29 30  1  0  0  0  0
 29 55  1  0  0  0  0
 30 31  1  0  0  0  0
 30 34  1  0  0  0  0
 30 56  1  0  0  0  0
 31 32  1  0  0  0  0
 31 57  1  0  0  0  0
 31 58  1  0  0  0  0
 32 33  1  0  0  0  0
 32 59  1  0  0  0  0
 32 60  1  0  0  0  0
 33 34  1  0  0  0  0
 33 61  1  0  0  0  0
 33 62  1  0  0  0  0
 34 63  1  0  0  0  0
 34 64  1  0  0  0  0
M  END
$$$$
