CHEMBL2018881
 OpenBabel04072215363D

 55 58  0  0  0  0  0  0  0  0999 V2000
    0.6008    0.1444   -1.4475 C   0  0  0  0  0  0  0  0  0  0  0  0
    2.0018    0.0519   -1.7106 O   0  0  0  0  0  0  0  0  0  0  0  0
    2.5587    1.0843   -2.4247 C   0  0  0  0  0  0  0  0  0  0  0  0
    1.8458    2.1868   -2.9008 C   0  0  0  0  0  0  0  0  0  0  0  0
    2.5024    3.1788   -3.6179 C   0  0  0  0  0  0  0  0  0  0  0  0
    3.8755    3.0893   -3.8370 C   0  0  0  0  0  0  0  0  0  0  0  0
    4.6292    2.0269   -3.3242 C   0  0  0  0  0  0  0  0  0  0  0  0
    6.0509    1.9839   -3.4699 N   0  0  0  0  0  0  0  0  0  0  0  0
    6.8169    3.1338   -3.5954 C   0  0  0  0  0  0  0  0  0  0  0  0
    6.3680    4.2694   -3.4694 O   0  0  0  0  0  0  0  0  0  0  0  0
    8.1496    2.8873   -3.9132 N   0  0  0  0  0  0  0  0  0  0  0  0
    9.0489    3.9860   -4.0686 C   0  0  0  0  0  0  0  0  0  0  0  0
    9.0555    5.0581   -3.1669 C   0  0  0  0  0  0  0  0  0  0  0  0
    9.8281    6.2094   -3.4021 C   0  0  0  0  0  0  0  0  0  0  0  0
   10.6409    6.2964   -4.5298 C   0  0  0  0  0  0  0  0  0  0  0  0
   11.3460    7.4079   -4.9515 O   0  0  0  0  0  0  0  0  0  0  0  0
   11.9227    8.3231   -4.0644 C   0  0  0  0  0  0  0  0  0  0  0  0
   11.8923    8.0803   -2.7415 N   0  0  0  0  0  0  0  0  0  0  0  0
   12.4765    8.9971   -1.9679 C   0  0  0  0  0  0  0  0  0  0  0  0
   13.1114   10.0982   -2.3857 N   0  0  0  0  0  0  0  0  0  0  0  0
   13.1519   10.3108   -3.7037 C   0  0  0  0  0  0  0  0  0  0  0  0
   13.8163   11.4476   -4.1552 C   0  0  0  0  0  0  0  0  0  0  0  0
   13.9060   11.7856   -5.5125 C   0  0  0  0  0  0  0  0  0  0  0  0
   14.5134   12.9373   -5.9383 O   0  0  0  0  0  0  0  0  0  0  0  0
   15.5296   13.5000   -5.1156 C   0  0  0  0  0  0  0  0  0  0  0  0
   13.2979   10.9461   -6.4547 C   0  0  0  0  0  0  0  0  0  0  0  0
   13.2527   11.0908   -7.8171 O   0  0  0  0  0  0  0  0  0  0  0  0
   13.7807   12.2764   -8.3994 C   0  0  0  0  0  0  0  0  0  0  0  0
   12.6469    9.7805   -6.0084 C   0  0  0  0  0  0  0  0  0  0  0  0
   12.5590    9.4505   -4.6298 C   0  0  0  0  0  0  0  0  0  0  0  0
   10.6610    5.2049   -5.4129 C   0  0  0  0  0  0  0  0  0  0  0  0
    9.8952    4.0464   -5.1753 C   0  0  0  0  0  0  0  0  0  0  0  0
    3.9476    1.0011   -2.6520 C   0  0  0  0  0  0  0  0  0  0  0  0
    0.3093   -0.7136   -0.8345 H   0  0  0  0  0  0  0  0  0  0  0  0
    0.0227    0.0998   -2.3776 H   0  0  0  0  0  0  0  0  0  0  0  0
    0.3575    1.0493   -0.8784 H   0  0  0  0  0  0  0  0  0  0  0  0
    0.7814    2.3083   -2.7338 H   0  0  0  0  0  0  0  0  0  0  0  0
    1.9527    4.0366   -3.9965 H   0  0  0  0  0  0  0  0  0  0  0  0
    4.3406    3.8814   -4.4165 H   0  0  0  0  0  0  0  0  0  0  0  0
    6.5289    1.1663   -3.1078 H   0  0  0  0  0  0  0  0  0  0  0  0
    8.2922    2.0946   -4.5223 H   0  0  0  0  0  0  0  0  0  0  0  0
    8.4234    5.0295   -2.2811 H   0  0  0  0  0  0  0  0  0  0  0  0
    9.7358    7.0318   -2.6999 H   0  0  0  0  0  0  0  0  0  0  0  0
   12.4303    8.8418   -0.8954 H   0  0  0  0  0  0  0  0  0  0  0  0
   14.2503   12.0882   -3.3934 H   0  0  0  0  0  0  0  0  0  0  0  0
   15.9579   14.3511   -5.6555 H   0  0  0  0  0  0  0  0  0  0  0  0
   16.3326   12.7780   -4.9361 H   0  0  0  0  0  0  0  0  0  0  0  0
   15.1236   13.8876   -4.1768 H   0  0  0  0  0  0  0  0  0  0  0  0
   13.5887   12.2342   -9.4765 H   0  0  0  0  0  0  0  0  0  0  0  0
   14.8667   12.3323   -8.2706 H   0  0  0  0  0  0  0  0  0  0  0  0
   13.2750   13.1709   -8.0206 H   0  0  0  0  0  0  0  0  0  0  0  0
   12.1890    9.1234   -6.7475 H   0  0  0  0  0  0  0  0  0  0  0  0
   11.2512    5.2708   -6.3242 H   0  0  0  0  0  0  0  0  0  0  0  0
    9.9123    3.2474   -5.9105 H   0  0  0  0  0  0  0  0  0  0  0  0
    4.4838    0.1397   -2.2577 H   0  0  0  0  0  0  0  0  0  0  0  0
  1  2  1  0  0  0  0
  1 34  1  0  0  0  0
  1 35  1  0  0  0  0
  1 36  1  0  0  0  0
  2  3  1  0  0  0  0
  3  4  1  0  0  0  0
  3 33  2  0  0  0  0
  4  5  2  0  0  0  0
  4 37  1  0  0  0  0
  5  6  1  0  0  0  0
  5 38  1  0  0  0  0
  6  7  2  0  0  0  0
  6 39  1  0  0  0  0
  7  8  1  0  0  0  0
  7 33  1  0  0  0  0
  8  9  1  0  0  0  0
  8 40  1  0  0  0  0
  9 10  2  0  0  0  0
  9 11  1  0  0  0  0
 11 12  1  0  0  0  0
 11 41  1  0  0  0  0
 12 13  1  0  0  0  0
 12 32  2  0  0  0  0
 13 14  2  0  0  0  0
 13 42  1  0  0  0  0
 14 15  1  0  0  0  0
 14 43  1  0  0  0  0
 15 16  1  0  0  0  0
 15 31  2  0  0  0  0
 16 17  1  0  0  0  0
 17 18  1  0  0  0  0
 17 30  2  0  0  0  0
 18 19  2  0  0  0  0
 19 20  1  0  0  0  0
 19 44  1  0  0  0  0
 20 21  2  0  0  0  0
 21 22  1  0  0  0  0
 21 30  1  0  0  0  0
 22 23  2  0  0  0  0
 22 45  1  0  0  0  0
 23 24  1  0  0  0  0
 23 26  1  0  0  0  0
 24 25  1  0  0  0  0
 25 46  1  0  0  0  0
 25 47  1  0  0  0  0
 25 48  1  0  0  0  0
 26 27  1  0  0  0  0
 26 29  2  0  0  0  0
 27 28  1  0  0  0  0
 28 49  1  0  0  0  0
 28 50  1  0  0  0  0
 28 51  1  0  0  0  0
 29 30  1  0  0  0  0
 29 52  1  0  0  0  0
 31 32  1  0  0  0  0
 31 53  1  0  0  0  0
 32 54  1  0  0  0  0
 33 55  1  0  0  0  0
M  END
$$$$
