CHEMBL1940863
 OpenBabel04072215363D

 36 38  0  0  0  0  0  0  0  0999 V2000
    2.2142    6.2827    3.1602 C   0  0  0  0  0  0  0  0  0  0  0  0
    0.7896    5.9260    2.8980 C   0  0  0  0  0  0  0  0  0  0  0  0
   -0.2498    6.1060    3.7876 C   0  0  0  0  0  0  0  0  0  0  0  0
   -1.7469    5.5711    3.1688 S   0  0  0  0  0  0  0  0  0  0  0  0
   -1.0520    5.0852    1.6821 C   0  0  0  0  0  0  0  0  0  0  0  0
   -1.8150    4.4628    0.6008 C   0  0  0  0  0  0  0  0  0  0  0  0
   -1.2744    4.0843   -0.4413 O   0  0  0  0  0  0  0  0  0  0  0  0
   -3.2993    4.2964    0.7303 C   0  0  0  0  0  0  0  0  0  0  0  0
   -3.9608    3.4252   -0.0468 C   0  0  0  0  0  0  0  0  0  0  0  0
   -5.4224    3.2849    0.0220 C   0  0  0  0  0  0  0  0  0  0  0  0
   -6.2152    4.0558   -0.8247 C   0  0  0  0  0  0  0  0  0  0  0  0
   -7.6171    3.9485   -0.7887 C   0  0  0  0  0  0  0  0  0  0  0  0
   -8.4343    4.7228   -1.6291 C   0  0  0  0  0  0  0  0  0  0  0  0
   -9.8187    4.5942   -1.5805 C   0  0  0  0  0  0  0  0  0  0  0  0
  -10.3963    3.6886   -0.6974 C   0  0  0  0  0  0  0  0  0  0  0  0
   -9.5894    2.9108    0.1486 C   0  0  0  0  0  0  0  0  0  0  0  0
  -10.2310    1.9275    1.0919 C   0  0  0  0  0  0  0  0  0  0  0  0
   -8.1946    3.0340    0.1219 C   0  0  0  0  0  0  0  0  0  0  0  0
   -7.4359    2.2952    0.9532 N   0  0  0  0  0  0  0  0  0  0  0  0
   -6.0932    2.4341    0.8952 C   0  0  0  0  0  0  0  0  0  0  0  0
   -5.2757    1.4498    2.0498 Cl  0  0  0  0  0  0  0  0  0  0  0  0
    0.3118    5.3400    1.6804 C   0  0  0  0  0  0  0  0  0  0  0  0
    2.3443    6.7037    4.1627 H   0  0  0  0  0  0  0  0  0  0  0  0
    2.5619    7.0231    2.4333 H   0  0  0  0  0  0  0  0  0  0  0  0
    2.8491    5.3939    3.0822 H   0  0  0  0  0  0  0  0  0  0  0  0
   -0.2018    6.5240    4.7846 H   0  0  0  0  0  0  0  0  0  0  0  0
   -3.8221    4.9068    1.4565 H   0  0  0  0  0  0  0  0  0  0  0  0
   -3.4499    2.7963   -0.7720 H   0  0  0  0  0  0  0  0  0  0  0  0
   -5.7445    4.7481   -1.5228 H   0  0  0  0  0  0  0  0  0  0  0  0
   -7.9971    5.4329   -2.3271 H   0  0  0  0  0  0  0  0  0  0  0  0
  -10.4497    5.1971   -2.2305 H   0  0  0  0  0  0  0  0  0  0  0  0
  -11.4791    3.5888   -0.6682 H   0  0  0  0  0  0  0  0  0  0  0  0
  -11.3222    1.9457    1.0135 H   0  0  0  0  0  0  0  0  0  0  0  0
   -9.9680    2.1676    2.1277 H   0  0  0  0  0  0  0  0  0  0  0  0
   -9.8982    0.9100    0.8590 H   0  0  0  0  0  0  0  0  0  0  0  0
    0.9457    5.1002    0.8322 H   0  0  0  0  0  0  0  0  0  0  0  0
  1  2  1  0  0  0  0
  1 23  1  0  0  0  0
  1 24  1  0  0  0  0
  1 25  1  0  0  0  0
  2  3  2  0  0  0  0
  2 22  1  0  0  0  0
  3  4  1  0  0  0  0
  3 26  1  0  0  0  0
  4  5  1  0  0  0  0
  5  6  1  0  0  0  0
  5 22  2  0  0  0  0
  6  7  2  0  0  0  0
  6  8  1  0  0  0  0
  8  9  2  0  0  0  0
  8 27  1  0  0  0  0
  9 10  1  0  0  0  0
  9 28  1  0  0  0  0
 10 11  1  0  0  0  0
 10 20  2  0  0  0  0
 11 12  2  0  0  0  0
 11 29  1  0  0  0  0
 12 13  1  0  0  0  0
 12 18  1  0  0  0  0
 13 14  2  0  0  0  0
 13 30  1  0  0  0  0
 14 15  1  0  0  0  0
 14 31  1  0  0  0  0
 15 16  2  0  0  0  0
 15 32  1  0  0  0  0
 16 17  1  0  0  0  0
 16 18  1  0  0  0  0
 17 33  1  0  0  0  0
 17 34  1  0  0  0  0
 17 35  1  0  0  0  0
 18 19  2  0  0  0  0
 19 20  1  0  0  0  0
 20 21  1  0  0  0  0
 22 36  1  0  0  0  0
M  END
$$$$
