CHEMBL1087127
 OpenBabel04072215363D

 63 67  0  0  0  0  0  0  0  0999 V2000
    2.5060    0.1604    0.0068 C   0  0  0  0  0  0  0  0  0  0  0  0
    0.9978    0.0807    0.0487 C   0  0  0  0  0  0  0  0  0  0  0  0
    0.2672    1.2648   -0.1244 C   0  0  0  0  0  0  0  0  0  0  0  0
   -1.1258    1.2370   -0.1466 C   0  0  0  0  0  0  0  0  0  0  0  0
   -1.8118    0.0204   -0.0891 C   0  0  0  0  0  0  0  0  0  0  0  0
   -3.3068    0.0386   -0.0727 C   0  0  0  0  0  0  0  0  0  0  0  0
   -3.8333    1.0606    0.3583 O   0  0  0  0  0  0  0  0  0  0  0  0
   -3.9706   -1.1041   -0.5087 N   0  0  0  0  0  0  0  0  0  0  0  0
   -5.3753   -1.3245   -0.4675 C   0  0  0  0  0  0  0  0  0  0  0  0
   -6.2967   -0.3061   -0.2223 C   0  0  0  0  0  0  0  0  0  0  0  0
   -7.6588   -0.5921   -0.1148 C   0  0  0  0  0  0  0  0  0  0  0  0
   -8.1113   -1.9080   -0.2079 C   0  0  0  0  0  0  0  0  0  0  0  0
   -7.2130   -2.9537   -0.4460 C   0  0  0  0  0  0  0  0  0  0  0  0
   -7.6731   -4.4046   -0.4256 C   0  0  0  0  0  0  0  0  0  0  0  0
   -8.2833   -4.7829    0.9326 C   0  0  0  0  0  0  0  0  0  0  0  0
   -8.6662   -4.7146   -1.5473 C   0  0  0  0  0  0  0  0  0  0  0  0
   -5.8534   -2.6314   -0.6346 C   0  0  0  0  0  0  0  0  0  0  0  0
   -1.0781   -1.1574    0.0684 C   0  0  0  0  0  0  0  0  0  0  0  0
    0.3065   -1.1443    0.2431 C   0  0  0  0  0  0  0  0  0  0  0  0
    1.0373   -2.2914    0.5956 N   0  0  0  0  0  0  0  0  0  0  0  0
    0.7166   -3.4487    1.2407 C   0  0  0  0  0  0  0  0  0  0  0  0
    1.6969   -4.0999    1.8403 N   0  0  0  0  0  0  0  0  0  0  0  0
    1.8041   -5.2301    1.0789 C   0  0  0  0  0  0  0  0  0  0  0  0
    2.8843   -6.1090    0.9550 C   0  0  0  0  0  0  0  0  0  0  0  0
    2.8007   -7.1242   -0.0005 C   0  0  0  0  0  0  0  0  0  0  0  0
    1.6419   -7.2980   -0.7634 C   0  0  0  0  0  0  0  0  0  0  0  0
    0.5269   -6.4697   -0.6049 C   0  0  0  0  0  0  0  0  0  0  0  0
    0.6580   -5.4154    0.3049 C   0  0  0  0  0  0  0  0  0  0  0  0
   -0.1788   -4.4088    0.7641 N   0  0  0  0  0  0  0  0  0  0  0  0
   -1.5918   -4.5070    0.9096 C   0  0  0  0  0  0  0  0  0  0  0  0
   -2.2555   -3.7247    1.8403 C   0  0  0  0  0  0  0  0  0  0  0  0
   -3.6247   -3.8803    1.9131 C   0  0  0  0  0  0  0  0  0  0  0  0
   -4.3989   -3.0358    2.6944 N   0  0  0  0  0  0  0  0  0  0  0  0
   -4.2877   -4.7678    1.1629 N   0  0  0  0  0  0  0  0  0  0  0  0
   -3.5618   -5.4978    0.3119 C   0  0  0  0  0  0  0  0  0  0  0  0
   -2.2407   -5.4088    0.1388 N   0  0  0  0  0  0  0  0  0  0  0  0
    2.8575    1.1930   -0.0951 H   0  0  0  0  0  0  0  0  0  0  0  0
    2.8850   -0.3983   -0.8575 H   0  0  0  0  0  0  0  0  0  0  0  0
    2.9530   -0.2388    0.9222 H   0  0  0  0  0  0  0  0  0  0  0  0
    0.7790    2.2212   -0.2173 H   0  0  0  0  0  0  0  0  0  0  0  0
   -1.6775    2.1723   -0.2149 H   0  0  0  0  0  0  0  0  0  0  0  0
   -3.4247   -1.9058   -0.7870 H   0  0  0  0  0  0  0  0  0  0  0  0
   -5.9883    0.7282   -0.1169 H   0  0  0  0  0  0  0  0  0  0  0  0
   -8.3601    0.2138    0.0733 H   0  0  0  0  0  0  0  0  0  0  0  0
   -9.1724   -2.1054   -0.0730 H   0  0  0  0  0  0  0  0  0  0  0  0
   -6.8013   -5.0541   -0.5760 H   0  0  0  0  0  0  0  0  0  0  0  0
   -9.1658   -4.1782    1.1707 H   0  0  0  0  0  0  0  0  0  0  0  0
   -7.5585   -4.6458    1.7424 H   0  0  0  0  0  0  0  0  0  0  0  0
   -8.5971   -5.8330    0.9392 H   0  0  0  0  0  0  0  0  0  0  0  0
   -9.5893   -4.1330   -1.4500 H   0  0  0  0  0  0  0  0  0  0  0  0
   -8.9425   -5.7754   -1.5314 H   0  0  0  0  0  0  0  0  0  0  0  0
   -8.2312   -4.4972   -2.5280 H   0  0  0  0  0  0  0  0  0  0  0  0
   -5.1522   -3.4300   -0.8535 H   0  0  0  0  0  0  0  0  0  0  0  0
   -1.5991   -2.0939    0.0828 H   0  0  0  0  0  0  0  0  0  0  0  0
    2.0129   -2.0736    0.7778 H   0  0  0  0  0  0  0  0  0  0  0  0
    3.7809   -5.9516    1.5434 H   0  0  0  0  0  0  0  0  0  0  0  0
    3.6561   -7.7761   -0.1572 H   0  0  0  0  0  0  0  0  0  0  0  0
    1.6074   -8.0979   -1.5026 H   0  0  0  0  0  0  0  0  0  0  0  0
   -0.3737   -6.6172   -1.1921 H   0  0  0  0  0  0  0  0  0  0  0  0
   -1.7545   -2.9963    2.4663 H   0  0  0  0  0  0  0  0  0  0  0  0
   -4.1085   -2.9742    3.6610 H   0  0  0  0  0  0  0  0  0  0  0  0
   -5.3808   -3.2861    2.5909 H   0  0  0  0  0  0  0  0  0  0  0  0
   -4.0991   -6.2009   -0.3158 H   0  0  0  0  0  0  0  0  0  0  0  0
  1  2  1  0  0  0  0
  1 37  1  0  0  0  0
  1 38  1  0  0  0  0
  1 39  1  0  0  0  0
  2  3  1  0  0  0  0
  2 19  2  0  0  0  0
  3  4  2  0  0  0  0
  3 40  1  0  0  0  0
  4  5  1  0  0  0  0
  4 41  1  0  0  0  0
  5  6  1  0  0  0  0
  5 18  2  0  0  0  0
  6  7  2  0  0  0  0
  6  8  1  0  0  0  0
  8  9  1  0  0  0  0
  8 42  1  0  0  0  0
  9 10  1  0  0  0  0
  9 17  2  0  0  0  0
 10 11  2  0  0  0  0
 10 43  1  0  0  0  0
 11 12  1  0  0  0  0
 11 44  1  0  0  0  0
 12 13  2  0  0  0  0
 12 45  1  0  0  0  0
 13 14  1  0  0  0  0
 13 17  1  0  0  0  0
 14 15  1  0  0  0  0
 14 16  1  0  0  0  0
 14 46  1  0  0  0  0
 15 47  1  0  0  0  0
 15 48  1  0  0  0  0
 15 49  1  0  0  0  0
 16 50  1  0  0  0  0
 16 51  1  0  0  0  0
 16 52  1  0  0  0  0
 17 53  1  0  0  0  0
 18 19  1  0  0  0  0
 18 54  1  0  0  0  0
 19 20  1  0  0  0  0
 20 21  1  0  0  0  0
 20 55  1  0  0  0  0
 21 22  2  0  0  0  0
 21 29  1  0  0  0  0
 22 23  1  0  0  0  0
 23 24  1  0  0  0  0
 23 28  2  0  0  0  0
 24 25  2  0  0  0  0
 24 56  1  0  0  0  0
 25 26  1  0  0  0  0
 25 57  1  0  0  0  0
 26 27  2  0  0  0  0
 26 58  1  0  0  0  0
 27 28  1  0  0  0  0
 27 59  1  0  0  0  0
 28 29  1  0  0  0  0
 29 30  1  0  0  0  0
 30 31  1  0  0  0  0
 30 36  2  0  0  0  0
 31 32  2  0  0  0  0
 31 60  1  0  0  0  0
 32 33  1  0  0  0  0
 32 34  1  0  0  0  0
 33 61  1  0  0  0  0
 33 62  1  0  0  0  0
 34 35  2  0  0  0  0
 35 36  1  0  0  0  0
 35 63  1  0  0  0  0
M  END
$$$$
