CHEMBL372765
 OpenBabel04072215373D

 47 50  0  0  0  0  0  0  0  0999 V2000
    5.4200    1.5209   -1.6627 C   0  0  0  0  0  0  0  0  0  0  0  0
    4.4376    0.7045   -0.8776 C   0  0  0  0  0  0  0  0  0  0  0  0
    4.7642   -0.9703   -0.7532 S   0  0  0  0  0  0  0  0  0  0  0  0
    3.4162   -1.2441    0.2289 C   0  0  0  0  0  0  0  0  0  0  0  0
    3.1904   -2.4884    0.6821 N   0  0  0  0  0  0  0  0  0  0  0  0
    2.1038   -2.5655    1.4418 C   0  0  0  0  0  0  0  0  0  0  0  0
    1.2640   -1.5730    1.7477 N   0  0  0  0  0  0  0  0  0  0  0  0
    1.5069   -0.3391    1.2630 C   0  0  0  0  0  0  0  0  0  0  0  0
    0.5473    0.5971    1.6175 N   0  0  0  0  0  0  0  0  0  0  0  0
    2.6563   -0.1057    0.4637 C   0  0  0  0  0  0  0  0  0  0  0  0
    3.2747    1.0680   -0.1920 C   0  0  0  0  0  0  0  0  0  0  0  0
    2.8189    2.4741   -0.1285 C   0  0  0  0  0  0  0  0  0  0  0  0
    2.2525    2.9670    1.0453 C   0  0  0  0  0  0  0  0  0  0  0  0
    1.6931    4.2460    1.1062 C   0  0  0  0  0  0  0  0  0  0  0  0
    1.7980    5.1294    0.0349 C   0  0  0  0  0  0  0  0  0  0  0  0
    1.2788    6.4397    0.0551 N   0  0  0  0  0  0  0  0  0  0  0  0
    0.4433    6.9496    1.0399 C   0  0  0  0  0  0  0  0  0  0  0  0
   -0.0059    6.3293    1.9939 O   0  0  0  0  0  0  0  0  0  0  0  0
    0.1137    8.2628    0.8208 N   0  0  0  0  0  0  0  0  0  0  0  0
   -0.6702    8.9633    1.8163 C   0  0  0  0  0  0  0  0  0  0  0  0
    0.1911    9.6040    2.8783 C   0  0  0  0  0  0  0  0  0  0  0  0
    0.5853   10.9440    2.7634 C   0  0  0  0  0  0  0  0  0  0  0  0
    1.3567   11.5385    3.7627 C   0  0  0  0  0  0  0  0  0  0  0  0
    1.7510   10.8063    4.8800 C   0  0  0  0  0  0  0  0  0  0  0  0
    1.3817    9.4700    4.9965 C   0  0  0  0  0  0  0  0  0  0  0  0
    0.6102    8.8679    4.0015 C   0  0  0  0  0  0  0  0  0  0  0  0
    2.4579    4.6933   -1.1120 C   0  0  0  0  0  0  0  0  0  0  0  0
    2.9167    3.3673   -1.2075 C   0  0  0  0  0  0  0  0  0  0  0  0
    6.3271    0.9591   -1.9112 H   0  0  0  0  0  0  0  0  0  0  0  0
    5.7305    2.4057   -1.0990 H   0  0  0  0  0  0  0  0  0  0  0  0
    4.9837    1.8328   -2.6166 H   0  0  0  0  0  0  0  0  0  0  0  0
    1.8663   -3.5412    1.8533 H   0  0  0  0  0  0  0  0  0  0  0  0
   -0.2592    0.1455    2.0343 H   0  0  0  0  0  0  0  0  0  0  0  0
    0.3461    1.3021    0.9212 H   0  0  0  0  0  0  0  0  0  0  0  0
    2.1997    2.3608    1.9465 H   0  0  0  0  0  0  0  0  0  0  0  0
    1.1876    4.5097    2.0284 H   0  0  0  0  0  0  0  0  0  0  0  0
    1.4316    7.0187   -0.7487 H   0  0  0  0  0  0  0  0  0  0  0  0
    0.6780    8.8173    0.1961 H   0  0  0  0  0  0  0  0  0  0  0  0
   -1.3869    8.2776    2.2855 H   0  0  0  0  0  0  0  0  0  0  0  0
   -1.2600    9.7244    1.2940 H   0  0  0  0  0  0  0  0  0  0  0  0
    0.2833   11.5306    1.9024 H   0  0  0  0  0  0  0  0  0  0  0  0
    1.6470   12.5856    3.6722 H   0  0  0  0  0  0  0  0  0  0  0  0
    2.3445   11.2777    5.6584 H   0  0  0  0  0  0  0  0  0  0  0  0
    1.6909    8.8919    5.8655 H   0  0  0  0  0  0  0  0  0  0  0  0
    0.3269    7.8223    4.1103 H   0  0  0  0  0  0  0  0  0  0  0  0
    2.6027    5.3559   -1.9618 H   0  0  0  0  0  0  0  0  0  0  0  0
    3.3432    3.0615   -2.1560 H   0  0  0  0  0  0  0  0  0  0  0  0
  1  2  1  0  0  0  0
  1 29  1  0  0  0  0
  1 30  1  0  0  0  0
  1 31  1  0  0  0  0
  2  3  1  0  0  0  0
  2 11  2  0  0  0  0
  3  4  1  0  0  0  0
  4  5  1  0  0  0  0
  4 10  2  0  0  0  0
  5  6  2  0  0  0  0
  6  7  1  0  0  0  0
  6 32  1  0  0  0  0
  7  8  2  0  0  0  0
  8  9  1  0  0  0  0
  8 10  1  0  0  0  0
  9 33  1  0  0  0  0
  9 34  1  0  0  0  0
 10 11  1  0  0  0  0
 11 12  1  0  0  0  0
 12 13  1  0  0  0  0
 12 28  2  0  0  0  0
 13 14  2  0  0  0  0
 13 35  1  0  0  0  0
 14 15  1  0  0  0  0
 14 36  1  0  0  0  0
 15 16  1  0  0  0  0
 15 27  2  0  0  0  0
 16 17  1  0  0  0  0
 16 37  1  0  0  0  0
 17 18  2  0  0  0  0
 17 19  1  0  0  0  0
 19 20  1  0  0  0  0
 19 38  1  0  0  0  0
 20 21  1  0  0  0  0
 20 39  1  0  0  0  0
 20 40  1  0  0  0  0
 21 22  1  0  0  0  0
 21 26  2  0  0  0  0
 22 23  2  0  0  0  0
 22 41  1  0  0  0  0
 23 24  1  0  0  0  0
 23 42  1  0  0  0  0
 24 25  2  0  0  0  0
 24 43  1  0  0  0  0
 25 26  1  0  0  0  0
 25 44  1  0  0  0  0
 26 45  1  0  0  0  0
 27 28  1  0  0  0  0
 27 46  1  0  0  0  0
 28 47  1  0  0  0  0
M  END
$$$$
