CHEMBL404257
 OpenBabel04072215373D

 45 48  0  0  0  0  0  0  0  0999 V2000
    2.8255    0.8176   -2.2786 C   0  0  0  0  0  0  0  0  0  0  0  0
    1.4132    0.5248   -1.8573 C   0  0  0  0  0  0  0  0  0  0  0  0
    0.9147   -0.7760   -1.9592 C   0  0  0  0  0  0  0  0  0  0  0  0
   -0.3807   -1.0552   -1.5412 C   0  0  0  0  0  0  0  0  0  0  0  0
   -1.1918   -0.0406   -1.0370 C   0  0  0  0  0  0  0  0  0  0  0  0
   -2.3736   -0.4287   -0.5448 F   0  0  0  0  0  0  0  0  0  0  0  0
   -0.7480    1.2893   -0.9702 C   0  0  0  0  0  0  0  0  0  0  0  0
   -1.5323    2.3975   -0.5406 N   0  0  0  0  0  0  0  0  0  0  0  0
   -2.9136    2.4240   -0.4416 C   0  0  0  0  0  0  0  0  0  0  0  0
   -3.6704    1.5042   -0.7307 O   0  0  0  0  0  0  0  0  0  0  0  0
   -3.3846    3.6789   -0.0433 N   0  0  0  0  0  0  0  0  0  0  0  0
   -4.7763    3.8704    0.1485 C   0  0  0  0  0  0  0  0  0  0  0  0
   -5.5411    2.9620    0.8816 C   0  0  0  0  0  0  0  0  0  0  0  0
   -6.9368    3.0701    0.9075 C   0  0  0  0  0  0  0  0  0  0  0  0
   -7.6063    4.0816    0.1962 C   0  0  0  0  0  0  0  0  0  0  0  0
   -9.0764    4.0648    0.0925 C   0  0  0  0  0  0  0  0  0  0  0  0
   -9.7631    3.6368    1.2013 N   0  0  0  0  0  0  0  0  0  0  0  0
  -11.1105    3.5467    1.1777 C   0  0  0  0  0  0  0  0  0  0  0  0
  -11.9032    3.8650    0.0926 C   0  0  0  0  0  0  0  0  0  0  0  0
  -11.2020    4.2840   -1.0328 C   0  0  0  0  0  0  0  0  0  0  0  0
  -11.6440    4.6632   -2.2695 N   0  0  0  0  0  0  0  0  0  0  0  0
  -10.6692    4.9656   -3.1319 N   0  0  0  0  0  0  0  0  0  0  0  0
   -9.5545    4.7661   -2.4348 C   0  0  0  0  0  0  0  0  0  0  0  0
   -8.3542    4.9084   -3.0213 N   0  0  0  0  0  0  0  0  0  0  0  0
   -9.8075    4.3778   -1.0813 C   0  0  0  0  0  0  0  0  0  0  0  0
   -6.8054    5.0649   -0.4082 C   0  0  0  0  0  0  0  0  0  0  0  0
   -5.4060    4.9597   -0.4465 C   0  0  0  0  0  0  0  0  0  0  0  0
    0.5775    1.5495   -1.3627 C   0  0  0  0  0  0  0  0  0  0  0  0
    3.3357   -0.0915   -2.6197 H   0  0  0  0  0  0  0  0  0  0  0  0
    3.3973    1.2194   -1.4367 H   0  0  0  0  0  0  0  0  0  0  0  0
    2.8367    1.5338   -3.1052 H   0  0  0  0  0  0  0  0  0  0  0  0
    1.5322   -1.5835   -2.3462 H   0  0  0  0  0  0  0  0  0  0  0  0
   -0.7725   -2.0671   -1.5851 H   0  0  0  0  0  0  0  0  0  0  0  0
   -1.0491    3.2737   -0.4017 H   0  0  0  0  0  0  0  0  0  0  0  0
   -2.8885    4.4542   -0.4590 H   0  0  0  0  0  0  0  0  0  0  0  0
   -5.0664    2.1367    1.4078 H   0  0  0  0  0  0  0  0  0  0  0  0
   -7.5063    2.3231    1.4580 H   0  0  0  0  0  0  0  0  0  0  0  0
  -11.5598    3.1903    2.1015 H   0  0  0  0  0  0  0  0  0  0  0  0
  -12.9819    3.7774    0.1189 H   0  0  0  0  0  0  0  0  0  0  0  0
  -12.6025    4.7216   -2.5937 H   0  0  0  0  0  0  0  0  0  0  0  0
   -8.3872    5.0185   -4.0296 H   0  0  0  0  0  0  0  0  0  0  0  0
   -7.5971    4.2973   -2.7308 H   0  0  0  0  0  0  0  0  0  0  0  0
   -7.2706    5.9127   -0.9095 H   0  0  0  0  0  0  0  0  0  0  0  0
   -4.8429    5.6928   -1.0161 H   0  0  0  0  0  0  0  0  0  0  0  0
    0.9756    2.5609   -1.3096 H   0  0  0  0  0  0  0  0  0  0  0  0
  1  2  1  0  0  0  0
  1 29  1  0  0  0  0
  1 30  1  0  0  0  0
  1 31  1  0  0  0  0
  2  3  1  0  0  0  0
  2 28  2  0  0  0  0
  3  4  2  0  0  0  0
  3 32  1  0  0  0  0
  4  5  1  0  0  0  0
  4 33  1  0  0  0  0
  5  6  1  0  0  0  0
  5  7  2  0  0  0  0
  7  8  1  0  0  0  0
  7 28  1  0  0  0  0
  8  9  1  0  0  0  0
  8 34  1  0  0  0  0
  9 10  2  0  0  0  0
  9 11  1  0  0  0  0
 11 12  1  0  0  0  0
 11 35  1  0  0  0  0
 12 13  1  0  0  0  0
 12 27  2  0  0  0  0
 13 14  2  0  0  0  0
 13 36  1  0  0  0  0
 14 15  1  0  0  0  0
 14 37  1  0  0  0  0
 15 16  1  0  0  0  0
 15 26  2  0  0  0  0
 16 17  1  0  0  0  0
 16 25  2  0  0  0  0
 17 18  2  0  0  0  0
 18 19  1  0  0  0  0
 18 38  1  0  0  0  0
 19 20  2  0  0  0  0
 19 39  1  0  0  0  0
 20 21  1  0  0  0  0
 20 25  1  0  0  0  0
 21 22  1  0  0  0  0
 21 40  1  0  0  0  0
 22 23  2  0  0  0  0
 23 24  1  0  0  0  0
 23 25  1  0  0  0  0
 24 41  1  0  0  0  0
 24 42  1  0  0  0  0
 26 27  1  0  0  0  0
 26 43  1  0  0  0  0
 27 44  1  0  0  0  0
 28 45  1  0  0  0  0
M  END
$$$$
