CHEMBL221574
 OpenBabel04072215363D

 67 70  0  0  0  0  0  0  0  0999 V2000
    7.6358   -1.8009   -2.7974 C   0  0  0  0  0  0  0  0  0  0  0  0
    6.8502   -1.2125   -1.6285 C   0  0  0  0  0  0  0  0  0  0  0  0
    7.5713   -0.1891   -0.8495 N   0  0  0  0  0  0  0  0  0  0  0  0
    8.1006    0.9169   -1.6658 C   0  0  0  0  0  0  0  0  0  0  0  0
    7.0675    1.8404   -2.3057 C   0  0  0  0  0  0  0  0  0  0  0  0
    6.7263    0.2478    0.2862 C   0  0  0  0  0  0  0  0  0  0  0  0
    7.3911    1.2440    1.2441 C   0  0  0  0  0  0  0  0  0  0  0  0
    6.4808    1.5913    2.3015 O   0  0  0  0  0  0  0  0  0  0  0  0
    7.1156    2.4873    3.1770 N   0  0  0  0  0  0  0  0  0  0  0  0
    7.9793    3.3803    2.6951 N   0  0  0  0  0  0  0  0  0  0  0  0
    8.4358    3.9879    3.7758 C   0  0  0  0  0  0  0  0  0  0  0  0
    9.4352    4.8755    3.6579 N   0  0  0  0  0  0  0  0  0  0  0  0
    7.7642    3.5765    4.9803 C   0  0  0  0  0  0  0  0  0  0  0  0
    7.7679    3.9171    6.3711 C   0  0  0  0  0  0  0  0  0  0  0  0
    8.6459    4.9546    6.9393 C   0  0  0  0  0  0  0  0  0  0  0  0
    8.8651    6.1599    6.2667 C   0  0  0  0  0  0  0  0  0  0  0  0
    9.8164    7.0815    6.7061 C   0  0  0  0  0  0  0  0  0  0  0  0
   10.4886    6.9050    7.9158 C   0  0  0  0  0  0  0  0  0  0  0  0
   11.4336    7.8404    8.3973 N   0  0  0  0  0  0  0  0  0  0  0  0
   11.5158    9.1430    7.9456 C   0  0  0  0  0  0  0  0  0  0  0  0
   10.6965    9.6661    7.1958 O   0  0  0  0  0  0  0  0  0  0  0  0
   12.6469    9.8047    8.4055 N   0  0  0  0  0  0  0  0  0  0  0  0
   12.8650   11.1319    7.9419 C   0  0  0  0  0  0  0  0  0  0  0  0
   11.8284   12.0754    7.9426 C   0  0  0  0  0  0  0  0  0  0  0  0
   11.9706   13.2954    7.2787 C   0  0  0  0  0  0  0  0  0  0  0  0
   10.8092   14.2398    7.1776 C   0  0  0  0  0  0  0  0  0  0  0  0
   13.1829   13.5833    6.6369 C   0  0  0  0  0  0  0  0  0  0  0  0
   14.2433   12.6739    6.6898 C   0  0  0  0  0  0  0  0  0  0  0  0
   14.0865   11.4628    7.3563 C   0  0  0  0  0  0  0  0  0  0  0  0
   15.0846   10.5666    7.3413 F   0  0  0  0  0  0  0  0  0  0  0  0
   10.2169    5.7565    8.6562 C   0  0  0  0  0  0  0  0  0  0  0  0
    9.3159    4.7917    8.1668 C   0  0  0  0  0  0  0  0  0  0  0  0
    6.8638    3.2026    7.2049 C   0  0  0  0  0  0  0  0  0  0  0  0
    6.0219    2.2053    6.7172 C   0  0  0  0  0  0  0  0  0  0  0  0
    6.0197    1.8707    5.3649 C   0  0  0  0  0  0  0  0  0  0  0  0
    6.8930    2.5764    4.5260 C   0  0  0  0  0  0  0  0  0  0  0  0
    7.1232   -2.6902   -3.1789 H   0  0  0  0  0  0  0  0  0  0  0  0
    8.6441   -2.1001   -2.4936 H   0  0  0  0  0  0  0  0  0  0  0  0
    7.7150   -1.0918   -3.6279 H   0  0  0  0  0  0  0  0  0  0  0  0
    6.6097   -2.0462   -0.9570 H   0  0  0  0  0  0  0  0  0  0  0  0
    5.8951   -0.8245   -2.0024 H   0  0  0  0  0  0  0  0  0  0  0  0
    8.7508    0.5155   -2.4517 H   0  0  0  0  0  0  0  0  0  0  0  0
    8.7866    1.5218   -1.0604 H   0  0  0  0  0  0  0  0  0  0  0  0
    6.2842    1.2847   -2.8271 H   0  0  0  0  0  0  0  0  0  0  0  0
    7.5567    2.4863   -3.0427 H   0  0  0  0  0  0  0  0  0  0  0  0
    6.5967    2.4877   -1.5604 H   0  0  0  0  0  0  0  0  0  0  0  0
    6.4488   -0.6321    0.8820 H   0  0  0  0  0  0  0  0  0  0  0  0
    5.7786    0.6716   -0.0700 H   0  0  0  0  0  0  0  0  0  0  0  0
    7.6389    2.1508    0.6841 H   0  0  0  0  0  0  0  0  0  0  0  0
    8.3023    0.8053    1.6687 H   0  0  0  0  0  0  0  0  0  0  0  0
    9.8708    4.9360    2.7457 H   0  0  0  0  0  0  0  0  0  0  0  0
   10.0803    5.0268    4.4233 H   0  0  0  0  0  0  0  0  0  0  0  0
    8.3301    6.3932    5.3462 H   0  0  0  0  0  0  0  0  0  0  0  0
   10.0099    7.9287    6.0553 H   0  0  0  0  0  0  0  0  0  0  0  0
   11.9027    7.6357    9.2695 H   0  0  0  0  0  0  0  0  0  0  0  0
   13.4772    9.2256    8.4425 H   0  0  0  0  0  0  0  0  0  0  0  0
   10.8771   11.8262    8.4126 H   0  0  0  0  0  0  0  0  0  0  0  0
    9.9758   13.9206    7.8141 H   0  0  0  0  0  0  0  0  0  0  0  0
   10.4455   14.2769    6.1452 H   0  0  0  0  0  0  0  0  0  0  0  0
   11.1032   15.2436    7.4951 H   0  0  0  0  0  0  0  0  0  0  0  0
   13.2933   14.5058    6.0719 H   0  0  0  0  0  0  0  0  0  0  0  0
   15.1744   12.8855    6.1736 H   0  0  0  0  0  0  0  0  0  0  0  0
   10.6895    5.5886    9.6200 H   0  0  0  0  0  0  0  0  0  0  0  0
    9.1467    3.8989    8.7635 H   0  0  0  0  0  0  0  0  0  0  0  0
    6.8090    3.4418    8.2663 H   0  0  0  0  0  0  0  0  0  0  0  0
    5.3504    1.6895    7.3998 H   0  0  0  0  0  0  0  0  0  0  0  0
    5.3642    1.1000    4.9760 H   0  0  0  0  0  0  0  0  0  0  0  0
  1  2  1  0  0  0  0
  1 37  1  0  0  0  0
  1 38  1  0  0  0  0
  1 39  1  0  0  0  0
  2  3  1  0  0  0  0
  2 40  1  0  0  0  0
  2 41  1  0  0  0  0
  3  4  1  0  0  0  0
  3  6  1  0  0  0  0
  4  5  1  0  0  0  0
  4 42  1  0  0  0  0
  4 43  1  0  0  0  0
  5 44  1  0  0  0  0
  5 45  1  0  0  0  0
  5 46  1  0  0  0  0
  6  7  1  0  0  0  0
  6 47  1  0  0  0  0
  6 48  1  0  0  0  0
  7  8  1  0  0  0  0
  7 49  1  0  0  0  0
  7 50  1  0  0  0  0
  8  9  1  0  0  0  0
  9 10  1  0  0  0  0
  9 36  1  0  0  0  0
 10 11  2  0  0  0  0
 11 12  1  0  0  0  0
 11 13  1  0  0  0  0
 12 51  1  0  0  0  0
 12 52  1  0  0  0  0
 13 14  1  0  0  0  0
 13 36  2  0  0  0  0
 14 15  1  0  0  0  0
 14 33  2  0  0  0  0
 15 16  1  0  0  0  0
 15 32  2  0  0  0  0
 16 17  2  0  0  0  0
 16 53  1  0  0  0  0
 17 18  1  0  0  0  0
 17 54  1  0  0  0  0
 18 19  1  0  0  0  0
 18 31  2  0  0  0  0
 19 20  1  0  0  0  0
 19 55  1  0  0  0  0
 20 21  2  0  0  0  0
 20 22  1  0  0  0  0
 22 23  1  0  0  0  0
 22 56  1  0  0  0  0
 23 24  1  0  0  0  0
 23 29  2  0  0  0  0
 24 25  2  0  0  0  0
 24 57  1  0  0  0  0
 25 26  1  0  0  0  0
 25 27  1  0  0  0  0
 26 58  1  0  0  0  0
 26 59  1  0  0  0  0
 26 60  1  0  0  0  0
 27 28  2  0  0  0  0
 27 61  1  0  0  0  0
 28 29  1  0  0  0  0
 28 62  1  0  0  0  0
 29 30  1  0  0  0  0
 31 32  1  0  0  0  0
 31 63  1  0  0  0  0
 32 64  1  0  0  0  0
 33 34  1  0  0  0  0
 33 65  1  0  0  0  0
 34 35  2  0  0  0  0
 34 66  1  0  0  0  0
 35 36  1  0  0  0  0
 35 67  1  0  0  0  0
M  END
$$$$
