CHEMBL4584219
 OpenBabel04072215383D

 44 47  0  0  0  0  0  0  0  0999 V2000
   -4.2777   -2.5548    5.4630 C   0  0  0  0  0  0  0  0  0  0  0  0
   -4.0980   -1.8387    4.1565 C   0  0  0  0  0  0  0  0  0  0  0  0
   -4.5948   -2.3820    2.9692 C   0  0  0  0  0  0  0  0  0  0  0  0
   -4.4098   -1.7180    1.7543 C   0  0  0  0  0  0  0  0  0  0  0  0
   -3.7228   -0.4968    1.7001 C   0  0  0  0  0  0  0  0  0  0  0  0
   -3.4482    0.1508    0.3649 C   0  0  0  0  0  0  0  0  0  0  0  0
   -3.8698    1.6031    0.2510 C   0  0  0  0  0  0  0  0  0  0  0  0
   -3.0457    2.5079    0.3409 O   0  0  0  0  0  0  0  0  0  0  0  0
   -5.2337    1.7831    0.0511 N   0  0  0  0  0  0  0  0  0  0  0  0
   -5.7921    3.0708   -0.0948 C   0  0  0  0  0  0  0  0  0  0  0  0
   -5.1847    4.0404   -0.9135 C   0  0  0  0  0  0  0  0  0  0  0  0
   -5.6687    5.3527   -0.9869 C   0  0  0  0  0  0  0  0  0  0  0  0
   -6.7572    5.6267   -0.1730 C   0  0  0  0  0  0  0  0  0  0  0  0
   -7.3663    6.8313    0.0131 O   0  0  0  0  0  0  0  0  0  0  0  0
   -8.3487    6.5709    0.9410 C   0  0  0  0  0  0  0  0  0  0  0  0
   -9.1551    7.7208    1.3447 C   0  0  0  0  0  0  0  0  0  0  0  0
   -9.4140    8.7304    0.3955 C   0  0  0  0  0  0  0  0  0  0  0  0
  -10.2013    9.8405    0.7079 C   0  0  0  0  0  0  0  0  0  0  0  0
  -10.7437    9.9675    1.9813 C   0  0  0  0  0  0  0  0  0  0  0  0
  -10.4928    8.9885    2.9414 C   0  0  0  0  0  0  0  0  0  0  0  0
   -9.7033    7.8708    2.6303 C   0  0  0  0  0  0  0  0  0  0  0  0
   -9.3960    6.6419    4.0512 Br  0  0  0  0  0  0  0  0  0  0  0  0
   -8.4259    5.3037    1.3060 N   0  0  0  0  0  0  0  0  0  0  0  0
   -7.4070    4.6963    0.6183 C   0  0  0  0  0  0  0  0  0  0  0  0
   -6.9552    3.3700    0.6296 C   0  0  0  0  0  0  0  0  0  0  0  0
   -3.2243    0.0460    2.8922 C   0  0  0  0  0  0  0  0  0  0  0  0
   -3.4123   -0.6188    4.1092 C   0  0  0  0  0  0  0  0  0  0  0  0
   -4.8032   -3.5075    5.3313 H   0  0  0  0  0  0  0  0  0  0  0  0
   -4.8669   -1.9403    6.1511 H   0  0  0  0  0  0  0  0  0  0  0  0
   -3.3049   -2.7727    5.9173 H   0  0  0  0  0  0  0  0  0  0  0  0
   -5.1189   -3.3341    2.9781 H   0  0  0  0  0  0  0  0  0  0  0  0
   -4.7850   -2.1811    0.8435 H   0  0  0  0  0  0  0  0  0  0  0  0
   -3.9370   -0.4045   -0.4433 H   0  0  0  0  0  0  0  0  0  0  0  0
   -2.3710    0.0968    0.1636 H   0  0  0  0  0  0  0  0  0  0  0  0
   -5.8281    1.0613    0.4423 H   0  0  0  0  0  0  0  0  0  0  0  0
   -4.3100    3.7803   -1.5083 H   0  0  0  0  0  0  0  0  0  0  0  0
   -5.1998    6.1121   -1.5995 H   0  0  0  0  0  0  0  0  0  0  0  0
   -9.0065    8.6502   -0.6116 H   0  0  0  0  0  0  0  0  0  0  0  0
  -10.3911   10.6005   -0.0458 H   0  0  0  0  0  0  0  0  0  0  0  0
  -11.3584   10.8291    2.2292 H   0  0  0  0  0  0  0  0  0  0  0  0
  -10.9153    9.1063    3.9370 H   0  0  0  0  0  0  0  0  0  0  0  0
   -7.4426    2.6444    1.2685 H   0  0  0  0  0  0  0  0  0  0  0  0
   -2.6634    0.9797    2.8829 H   0  0  0  0  0  0  0  0  0  0  0  0
   -3.0050   -0.1842    5.0226 H   0  0  0  0  0  0  0  0  0  0  0  0
  1  2  1  0  0  0  0
  1 28  1  0  0  0  0
  1 29  1  0  0  0  0
  1 30  1  0  0  0  0
  2  3  1  0  0  0  0
  2 27  2  0  0  0  0
  3  4  2  0  0  0  0
  3 31  1  0  0  0  0
  4  5  1  0  0  0  0
  4 32  1  0  0  0  0
  5  6  1  0  0  0  0
  5 26  2  0  0  0  0
  6  7  1  0  0  0  0
  6 33  1  0  0  0  0
  6 34  1  0  0  0  0
  7  8  2  0  0  0  0
  7  9  1  0  0  0  0
  9 10  1  0  0  0  0
  9 35  1  0  0  0  0
 10 11  1  0  0  0  0
 10 25  2  0  0  0  0
 11 12  2  0  0  0  0
 11 36  1  0  0  0  0
 12 13  1  0  0  0  0
 12 37  1  0  0  0  0
 13 14  1  0  0  0  0
 13 24  2  0  0  0  0
 14 15  1  0  0  0  0
 15 16  1  0  0  0  0
 15 23  2  0  0  0  0
 16 17  1  0  0  0  0
 16 21  2  0  0  0  0
 17 18  2  0  0  0  0
 17 38  1  0  0  0  0
 18 19  1  0  0  0  0
 18 39  1  0  0  0  0
 19 20  2  0  0  0  0
 19 40  1  0  0  0  0
 20 21  1  0  0  0  0
 20 41  1  0  0  0  0
 21 22  1  0  0  0  0
 23 24  1  0  0  0  0
 24 25  1  0  0  0  0
 25 42  1  0  0  0  0
 26 27  1  0  0  0  0
 26 43  1  0  0  0  0
 27 44  1  0  0  0  0
M  END
$$$$
