CHEMBL3889849
 OpenBabel04072215373D

 53 58  0  0  0  0  0  0  0  0999 V2000
    1.6918    0.9082    0.6338 O   0  0  0  0  0  0  0  0  0  0  0  0
    2.8409    0.8576    0.2196 C   0  0  0  0  0  0  0  0  0  0  0  0
    3.2530    1.0380   -1.0922 N   0  0  0  0  0  0  0  0  0  0  0  0
    2.4058    1.3594   -2.1769 C   0  0  0  0  0  0  0  0  0  0  0  0
    1.1022    1.8314   -2.0003 C   0  0  0  0  0  0  0  0  0  0  0  0
    0.2561    2.0253   -3.0883 C   0  0  0  0  0  0  0  0  0  0  0  0
    0.7148    1.7784   -4.3720 C   0  0  0  0  0  0  0  0  0  0  0  0
    2.0494    1.4160   -4.5764 C   0  0  0  0  0  0  0  0  0  0  0  0
    2.5965    1.2420   -5.9459 C   0  0  0  0  0  0  0  0  0  0  0  0
    3.5749    0.5136   -6.1052 O   0  0  0  0  0  0  0  0  0  0  0  0
    2.0223    1.9545   -7.1254 C   0  0  0  0  0  0  0  0  0  0  0  0
    1.3614    3.1942   -7.0255 C   0  0  0  0  0  0  0  0  0  0  0  0
    0.7778    3.8136   -8.1500 C   0  0  0  0  0  0  0  0  0  0  0  0
    1.0172    3.2419   -9.4147 C   0  0  0  0  0  0  0  0  0  0  0  0
    0.8911    3.6143  -10.7879 C   0  0  0  0  0  0  0  0  0  0  0  0
   -0.1057    3.1212  -11.8461 C   0  0  0  0  0  0  0  0  0  0  0  0
   -0.9095    2.0691  -11.7540 N   0  0  0  0  0  0  0  0  0  0  0  0
   -0.7153    1.3975  -12.9541 C   0  0  0  0  0  0  0  0  0  0  0  0
   -1.0644    0.1119  -13.3932 C   0  0  0  0  0  0  0  0  0  0  0  0
   -0.4889   -0.3374  -14.5935 C   0  0  0  0  0  0  0  0  0  0  0  0
    0.3628    0.5065  -15.3022 C   0  0  0  0  0  0  0  0  0  0  0  0
    0.6613    1.7807  -14.9647 N   0  0  0  0  0  0  0  0  0  0  0  0
    0.0827    2.1468  -13.8076 C   0  0  0  0  0  0  0  0  0  0  0  0
    0.2451    3.3406  -13.1696 N   0  0  0  0  0  0  0  0  0  0  0  0
    2.1433    3.4903  -11.2927 N   0  0  0  0  0  0  0  0  0  0  0  0
    2.4878    2.3069  -10.7212 N   0  0  0  0  0  0  0  0  0  0  0  0
    1.9401    2.1981   -9.4660 C   0  0  0  0  0  0  0  0  0  0  0  0
    2.3001    1.4076   -8.3820 C   0  0  0  0  0  0  0  0  0  0  0  0
    2.8931    1.1846   -3.4762 C   0  0  0  0  0  0  0  0  0  0  0  0
    3.8949    0.5010    1.1921 C   0  0  0  0  0  0  0  0  0  0  0  0
    3.5597   -0.3732    2.2355 C   0  0  0  0  0  0  0  0  0  0  0  0
    4.5062   -0.7026    3.2029 C   0  0  0  0  0  0  0  0  0  0  0  0
    5.7859   -0.1540    3.1366 C   0  0  0  0  0  0  0  0  0  0  0  0
    6.1197    0.7265    2.1053 C   0  0  0  0  0  0  0  0  0  0  0  0
    5.1759    1.0579    1.1306 C   0  0  0  0  0  0  0  0  0  0  0  0
    4.1929    0.7465   -1.3259 H   0  0  0  0  0  0  0  0  0  0  0  0
    0.7054    2.0524   -1.0146 H   0  0  0  0  0  0  0  0  0  0  0  0
   -0.7624    2.3644   -2.9283 H   0  0  0  0  0  0  0  0  0  0  0  0
    0.0184    1.8767   -5.1987 H   0  0  0  0  0  0  0  0  0  0  0  0
    1.3246    3.7253   -6.0759 H   0  0  0  0  0  0  0  0  0  0  0  0
    0.2941    4.7828   -8.0489 H   0  0  0  0  0  0  0  0  0  0  0  0
   -1.6940   -0.5359  -12.7958 H   0  0  0  0  0  0  0  0  0  0  0  0
   -0.6744   -1.3440  -14.9553 H   0  0  0  0  0  0  0  0  0  0  0  0
    0.8627    0.1532  -16.2020 H   0  0  0  0  0  0  0  0  0  0  0  0
    0.9653    3.9932  -13.4285 H   0  0  0  0  0  0  0  0  0  0  0  0
    3.2230    1.7517  -11.1375 H   0  0  0  0  0  0  0  0  0  0  0  0
    2.9184    0.5235   -8.4974 H   0  0  0  0  0  0  0  0  0  0  0  0
    3.9147    0.8525   -3.6486 H   0  0  0  0  0  0  0  0  0  0  0  0
    2.5561   -0.7901    2.2981 H   0  0  0  0  0  0  0  0  0  0  0  0
    4.2391   -1.3766    4.0127 H   0  0  0  0  0  0  0  0  0  0  0  0
    6.5196   -0.4015    3.9003 H   0  0  0  0  0  0  0  0  0  0  0  0
    7.1122    1.1688    2.0731 H   0  0  0  0  0  0  0  0  0  0  0  0
    5.4377    1.7785    0.3610 H   0  0  0  0  0  0  0  0  0  0  0  0
  1  2  2  0  0  0  0
  2  3  1  0  0  0  0
  2 30  1  0  0  0  0
  3  4  1  0  0  0  0
  3 36  1  0  0  0  0
  4  5  1  0  0  0  0
  4 29  2  0  0  0  0
  5  6  2  0  0  0  0
  5 37  1  0  0  0  0
  6  7  1  0  0  0  0
  6 38  1  0  0  0  0
  7  8  2  0  0  0  0
  7 39  1  0  0  0  0
  8  9  1  0  0  0  0
  8 29  1  0  0  0  0
  9 10  2  0  0  0  0
  9 11  1  0  0  0  0
 11 12  1  0  0  0  0
 11 28  2  0  0  0  0
 12 13  2  0  0  0  0
 12 40  1  0  0  0  0
 13 14  1  0  0  0  0
 13 41  1  0  0  0  0
 14 15  1  0  0  0  0
 14 27  2  0  0  0  0
 15 16  1  0  0  0  0
 15 25  2  0  0  0  0
 16 17  2  0  0  0  0
 16 24  1  0  0  0  0
 17 18  1  0  0  0  0
 18 19  1  0  0  0  0
 18 23  2  0  0  0  0
 19 20  2  0  0  0  0
 19 42  1  0  0  0  0
 20 21  1  0  0  0  0
 20 43  1  0  0  0  0
 21 22  2  0  0  0  0
 21 44  1  0  0  0  0
 22 23  1  0  0  0  0
 23 24  1  0  0  0  0
 24 45  1  0  0  0  0
 25 26  1  0  0  0  0
 26 27  1  0  0  0  0
 26 46  1  0  0  0  0
 27 28  1  0  0  0  0
 28 47  1  0  0  0  0
 29 48  1  0  0  0  0
 30 31  1  0  0  0  0
 30 35  2  0  0  0  0
 31 32  2  0  0  0  0
 31 49  1  0  0  0  0
 32 33  1  0  0  0  0
 32 50  1  0  0  0  0
 33 34  2  0  0  0  0
 33 51  1  0  0  0  0
 34 35  1  0  0  0  0
 34 52  1  0  0  0  0
 35 53  1  0  0  0  0
M  END
$$$$
