CHEMBL2177142
 OpenBabel04072215363D

 45 48  0  0  0  0  0  0  0  0999 V2000
    1.1268    0.5265   -0.1919 C   0  0  0  0  0  0  0  0  0  0  0  0
    2.4525    0.0404   -0.0124 O   0  0  0  0  0  0  0  0  0  0  0  0
    3.1213   -0.3869   -1.1305 C   0  0  0  0  0  0  0  0  0  0  0  0
    2.7764    0.0471   -2.4157 C   0  0  0  0  0  0  0  0  0  0  0  0
    3.5226   -0.3392   -3.5328 C   0  0  0  0  0  0  0  0  0  0  0  0
    3.1539    0.1849   -4.8400 C   0  0  0  0  0  0  0  0  0  0  0  0
    3.6369    1.2872   -5.4314 C   0  0  0  0  0  0  0  0  0  0  0  0
    4.6511    2.1706   -4.9862 C   0  0  0  0  0  0  0  0  0  0  0  0
    5.9783    2.0392   -5.3324 C   0  0  0  0  0  0  0  0  0  0  0  0
    6.6676    3.0637   -4.7396 N   0  0  0  0  0  0  0  0  0  0  0  0
    5.8105    3.8494   -4.0038 C   0  0  0  0  0  0  0  0  0  0  0  0
    6.0632    4.9902   -3.2446 C   0  0  0  0  0  0  0  0  0  0  0  0
    4.9542    5.5360   -2.6195 C   0  0  0  0  0  0  0  0  0  0  0  0
    3.6979    5.0436   -2.7024 N   0  0  0  0  0  0  0  0  0  0  0  0
    3.4756    3.9351   -3.4543 C   0  0  0  0  0  0  0  0  0  0  0  0
    4.5287    3.3055   -4.1332 C   0  0  0  0  0  0  0  0  0  0  0  0
    2.9095    1.4454   -6.7111 C   0  0  0  0  0  0  0  0  0  0  0  0
    3.0452    2.3462   -7.5159 O   0  0  0  0  0  0  0  0  0  0  0  0
    2.0486    0.4097   -6.8112 N   0  0  0  0  0  0  0  0  0  0  0  0
    2.1266   -0.3896   -5.7277 C   0  0  0  0  0  0  0  0  0  0  0  0
    1.4746   -1.3934   -5.5154 O   0  0  0  0  0  0  0  0  0  0  0  0
    4.6389   -1.1593   -3.3718 C   0  0  0  0  0  0  0  0  0  0  0  0
    5.0182   -1.5798   -2.0930 C   0  0  0  0  0  0  0  0  0  0  0  0
    6.1114   -2.3860   -1.8736 O   0  0  0  0  0  0  0  0  0  0  0  0
    7.2065   -2.1872   -2.7619 C   0  0  0  0  0  0  0  0  0  0  0  0
    4.2441   -1.2222   -0.9669 C   0  0  0  0  0  0  0  0  0  0  0  0
    4.7200   -1.6816    0.2407 O   0  0  0  0  0  0  0  0  0  0  0  0
    3.7467   -2.0095    1.2248 C   0  0  0  0  0  0  0  0  0  0  0  0
    0.6990    0.7053    0.7987 H   0  0  0  0  0  0  0  0  0  0  0  0
    0.5018   -0.2159   -0.7001 H   0  0  0  0  0  0  0  0  0  0  0  0
    1.1205    1.4822   -0.7257 H   0  0  0  0  0  0  0  0  0  0  0  0
    1.9388    0.7196   -2.5694 H   0  0  0  0  0  0  0  0  0  0  0  0
    6.4923    1.3183   -5.9545 H   0  0  0  0  0  0  0  0  0  0  0  0
    7.6618    3.2261   -4.8287 H   0  0  0  0  0  0  0  0  0  0  0  0
    7.0492    5.4260   -3.1472 H   0  0  0  0  0  0  0  0  0  0  0  0
    5.0532    6.4297   -2.0076 H   0  0  0  0  0  0  0  0  0  0  0  0
    2.4516    3.5848   -3.4901 H   0  0  0  0  0  0  0  0  0  0  0  0
    1.4177    0.2667   -7.5819 H   0  0  0  0  0  0  0  0  0  0  0  0
    5.2013   -1.4667   -4.2475 H   0  0  0  0  0  0  0  0  0  0  0  0
    8.0880   -2.6633   -2.3210 H   0  0  0  0  0  0  0  0  0  0  0  0
    7.4329   -1.1233   -2.8946 H   0  0  0  0  0  0  0  0  0  0  0  0
    7.0180   -2.6701   -3.7257 H   0  0  0  0  0  0  0  0  0  0  0  0
    4.2085   -2.7085    1.9293 H   0  0  0  0  0  0  0  0  0  0  0  0
    2.8694   -2.5057    0.7951 H   0  0  0  0  0  0  0  0  0  0  0  0
    3.4642   -1.1227    1.7994 H   0  0  0  0  0  0  0  0  0  0  0  0
  1  2  1  0  0  0  0
  1 29  1  0  0  0  0
  1 30  1  0  0  0  0
  1 31  1  0  0  0  0
  2  3  1  0  0  0  0
  3  4  1  0  0  0  0
  3 26  2  0  0  0  0
  4  5  2  0  0  0  0
  4 32  1  0  0  0  0
  5  6  1  0  0  0  0
  5 22  1  0  0  0  0
  6  7  2  0  0  0  0
  6 20  1  0  0  0  0
  7  8  1  0  0  0  0
  7 17  1  0  0  0  0
  8  9  2  0  0  0  0
  8 16  1  0  0  0  0
  9 10  1  0  0  0  0
  9 33  1  0  0  0  0
 10 11  1  0  0  0  0
 10 34  1  0  0  0  0
 11 12  1  0  0  0  0
 11 16  2  0  0  0  0
 12 13  2  0  0  0  0
 12 35  1  0  0  0  0
 13 14  1  0  0  0  0
 13 36  1  0  0  0  0
 14 15  2  0  0  0  0
 15 16  1  0  0  0  0
 15 37  1  0  0  0  0
 17 18  2  0  0  0  0
 17 19  1  0  0  0  0
 19 20  1  0  0  0  0
 19 38  1  0  0  0  0
 20 21  2  0  0  0  0
 22 23  2  0  0  0  0
 22 39  1  0  0  0  0
 23 24  1  0  0  0  0
 23 26  1  0  0  0  0
 24 25  1  0  0  0  0
 25 40  1  0  0  0  0
 25 41  1  0  0  0  0
 25 42  1  0  0  0  0
 26 27  1  0  0  0  0
 27 28  1  0  0  0  0
 28 43  1  0  0  0  0
 28 44  1  0  0  0  0
 28 45  1  0  0  0  0
M  END
$$$$
