CHEMBL3671549
 OpenBabel04072215373D

 58 60  0  0  0  0  0  0  0  0999 V2000
    3.1436    4.0533    0.4028 C   0  0  0  0  0  0  0  0  0  0  0  0
    3.6336    3.0052    1.0806 C   0  0  0  0  0  0  0  0  0  0  0  0
    3.7357    1.6606    0.4419 C   0  0  0  0  0  0  0  0  0  0  0  0
    3.2593    1.4271   -0.6656 O   0  0  0  0  0  0  0  0  0  0  0  0
    4.4140    0.6758    1.1190 N   0  0  0  0  0  0  0  0  0  0  0  0
    5.2392    0.9092    2.2306 C   0  0  0  0  0  0  0  0  0  0  0  0
    6.4287    1.6065    2.0225 C   0  0  0  0  0  0  0  0  0  0  0  0
    7.1471    2.1326    3.1166 C   0  0  0  0  0  0  0  0  0  0  0  0
    8.2989    2.9271    3.0005 C   0  0  0  0  0  0  0  0  0  0  0  0
    8.7889    3.2751    1.7066 N   0  0  0  0  0  0  0  0  0  0  0  0
   10.0598    3.8503    1.4669 C   0  0  0  0  0  0  0  0  0  0  0  0
   10.2129    4.8564    0.5019 C   0  0  0  0  0  0  0  0  0  0  0  0
   11.4534    5.4781    0.3119 C   0  0  0  0  0  0  0  0  0  0  0  0
   12.5547    5.0769    1.0675 C   0  0  0  0  0  0  0  0  0  0  0  0
   14.2045    5.9770    0.8717 Br  0  0  0  0  0  0  0  0  0  0  0  0
   12.4250    4.0279    1.9714 C   0  0  0  0  0  0  0  0  0  0  0  0
   13.4752    3.6043    2.6912 F   0  0  0  0  0  0  0  0  0  0  0  0
   11.1954    3.4078    2.1574 C   0  0  0  0  0  0  0  0  0  0  0  0
    8.9384    3.4005    4.0871 N   0  0  0  0  0  0  0  0  0  0  0  0
    8.4240    3.0954    5.2781 C   0  0  0  0  0  0  0  0  0  0  0  0
    7.3237    2.3672    5.4997 N   0  0  0  0  0  0  0  0  0  0  0  0
    6.6957    1.8882    4.4231 C   0  0  0  0  0  0  0  0  0  0  0  0
    5.5469    1.1290    4.6050 C   0  0  0  0  0  0  0  0  0  0  0  0
    4.8169    0.6048    3.5301 C   0  0  0  0  0  0  0  0  0  0  0  0
    3.7106   -0.1306    3.8817 O   0  0  0  0  0  0  0  0  0  0  0  0
    3.3909   -1.2149    2.9998 C   0  0  0  0  0  0  0  0  0  0  0  0
    2.7966   -2.3977    3.7744 C   0  0  0  0  0  0  0  0  0  0  0  0
    2.5684   -3.5490    2.9142 N   0  0  0  0  0  0  0  0  0  0  0  0
    3.6147   -4.3429    2.4867 C   0  0  0  0  0  0  0  0  0  0  0  0
    4.7513   -4.2607    2.9449 O   0  0  0  0  0  0  0  0  0  0  0  0
    3.2451   -5.3622    1.4007 C   0  0  0  0  0  0  0  0  0  0  0  0
    2.2446   -4.8225    0.4397 N   0  0  0  0  0  0  0  0  0  0  0  0
    2.8034   -3.7100   -0.3417 C   0  0  0  0  0  0  0  0  0  0  0  0
    1.8562   -5.8946   -0.4898 C   0  0  0  0  0  0  0  0  0  0  0  0
    3.1211    5.0368    0.8512 H   0  0  0  0  0  0  0  0  0  0  0  0
    2.7655    3.9466   -0.6114 H   0  0  0  0  0  0  0  0  0  0  0  0
    3.9982    3.1487    2.0871 H   0  0  0  0  0  0  0  0  0  0  0  0
    4.7146   -0.0462    0.4728 H   0  0  0  0  0  0  0  0  0  0  0  0
    6.7672    1.7911    1.0051 H   0  0  0  0  0  0  0  0  0  0  0  0
    8.0536    3.7553    1.1957 H   0  0  0  0  0  0  0  0  0  0  0  0
    9.3650    5.1932   -0.0884 H   0  0  0  0  0  0  0  0  0  0  0  0
   11.5451    6.2833   -0.4123 H   0  0  0  0  0  0  0  0  0  0  0  0
   11.1286    2.5923    2.8721 H   0  0  0  0  0  0  0  0  0  0  0  0
    8.9452    3.4796    6.1489 H   0  0  0  0  0  0  0  0  0  0  0  0
    5.1975    0.9437    5.6201 H   0  0  0  0  0  0  0  0  0  0  0  0
    4.2792   -1.5697    2.4640 H   0  0  0  0  0  0  0  0  0  0  0  0
    2.6484   -0.8647    2.2731 H   0  0  0  0  0  0  0  0  0  0  0  0
    1.8395   -2.1199    4.2279 H   0  0  0  0  0  0  0  0  0  0  0  0
    3.4714   -2.6878    4.5877 H   0  0  0  0  0  0  0  0  0  0  0  0
    1.7334   -3.5921    2.3345 H   0  0  0  0  0  0  0  0  0  0  0  0
    2.8341   -6.2354    1.9220 H   0  0  0  0  0  0  0  0  0  0  0  0
    4.1626   -5.6668    0.8825 H   0  0  0  0  0  0  0  0  0  0  0  0
    3.0965   -2.8736    0.3000 H   0  0  0  0  0  0  0  0  0  0  0  0
    2.0448   -3.3147   -1.0270 H   0  0  0  0  0  0  0  0  0  0  0  0
    3.6776   -4.0115   -0.9297 H   0  0  0  0  0  0  0  0  0  0  0  0
    1.4447   -6.7535    0.0518 H   0  0  0  0  0  0  0  0  0  0  0  0
    2.7027   -6.2447   -1.0931 H   0  0  0  0  0  0  0  0  0  0  0  0
    1.0720   -5.5454   -1.1709 H   0  0  0  0  0  0  0  0  0  0  0  0
  1  2  2  0  0  0  0
  1 35  1  0  0  0  0
  1 36  1  0  0  0  0
  2  3  1  0  0  0  0
  2 37  1  0  0  0  0
  3  4  2  0  0  0  0
  3  5  1  0  0  0  0
  5  6  1  0  0  0  0
  5 38  1  0  0  0  0
  6  7  1  0  0  0  0
  6 24  2  0  0  0  0
  7  8  2  0  0  0  0
  7 39  1  0  0  0  0
  8  9  1  0  0  0  0
  8 22  1  0  0  0  0
  9 10  1  0  0  0  0
  9 19  2  0  0  0  0
 10 11  1  0  0  0  0
 10 40  1  0  0  0  0
 11 12  1  0  0  0  0
 11 18  2  0  0  0  0
 12 13  2  0  0  0  0
 12 41  1  0  0  0  0
 13 14  1  0  0  0  0
 13 42  1  0  0  0  0
 14 15  1  0  0  0  0
 14 16  2  0  0  0  0
 16 17  1  0  0  0  0
 16 18  1  0  0  0  0
 18 43  1  0  0  0  0
 19 20  1  0  0  0  0
 20 21  2  0  0  0  0
 20 44  1  0  0  0  0
 21 22  1  0  0  0  0
 22 23  2  0  0  0  0
 23 24  1  0  0  0  0
 23 45  1  0  0  0  0
 24 25  1  0  0  0  0
 25 26  1  0  0  0  0
 26 27  1  0  0  0  0
 26 46  1  0  0  0  0
 26 47  1  0  0  0  0
 27 28  1  0  0  0  0
 27 48  1  0  0  0  0
 27 49  1  0  0  0  0
 28 29  1  0  0  0  0
 28 50  1  0  0  0  0
 29 30  2  0  0  0  0
 29 31  1  0  0  0  0
 31 32  1  0  0  0  0
 31 51  1  0  0  0  0
 31 52  1  0  0  0  0
 32 33  1  0  0  0  0
 32 34  1  0  0  0  0
 33 53  1  0  0  0  0
 33 54  1  0  0  0  0
 33 55  1  0  0  0  0
 34 56  1  0  0  0  0
 34 57  1  0  0  0  0
 34 58  1  0  0  0  0
M  END
$$$$
