CHEMBL197353
 OpenBabel04072215363D

 51 54  0  0  0  0  0  0  0  0999 V2000
    2.3478   -0.4045    1.5860 C   0  0  0  0  0  0  0  0  0  0  0  0
    0.8495   -0.3119    1.5520 C   0  0  0  0  0  0  0  0  0  0  0  0
    0.2256    0.8600    1.9884 C   0  0  0  0  0  0  0  0  0  0  0  0
   -1.1595    0.9577    1.9671 C   0  0  0  0  0  0  0  0  0  0  0  0
   -1.9280   -0.1084    1.5092 C   0  0  0  0  0  0  0  0  0  0  0  0
   -1.3378   -1.2936    1.0568 C   0  0  0  0  0  0  0  0  0  0  0  0
   -2.0967   -2.4019    0.5813 N   0  0  0  0  0  0  0  0  0  0  0  0
   -3.4730   -2.4271    0.4280 C   0  0  0  0  0  0  0  0  0  0  0  0
   -4.2163   -1.4634    0.6338 O   0  0  0  0  0  0  0  0  0  0  0  0
   -3.9611   -3.6670    0.0505 N   0  0  0  0  0  0  0  0  0  0  0  0
   -5.3615   -3.8265   -0.1386 C   0  0  0  0  0  0  0  0  0  0  0  0
   -6.0947   -2.8916   -0.8690 C   0  0  0  0  0  0  0  0  0  0  0  0
   -7.4927   -2.9326   -0.8766 C   0  0  0  0  0  0  0  0  0  0  0  0
   -8.2031   -3.9584   -0.2413 C   0  0  0  0  0  0  0  0  0  0  0  0
   -9.6885   -3.9519   -0.1788 C   0  0  0  0  0  0  0  0  0  0  0  0
  -10.4728   -3.5264   -1.2658 C   0  0  0  0  0  0  0  0  0  0  0  0
  -10.0551   -3.0177   -2.6321 C   0  0  0  0  0  0  0  0  0  0  0  0
  -11.0263   -3.2336   -3.7919 C   0  0  0  0  0  0  0  0  0  0  0  0
  -10.4545   -2.7199   -4.9957 O   0  0  0  0  0  0  0  0  0  0  0  0
  -12.1415   -3.5363   -0.8835 S   0  0  0  0  0  0  0  0  0  0  0  0
  -11.8751   -4.1445    0.6722 C   0  0  0  0  0  0  0  0  0  0  0  0
  -12.9387   -4.3764    1.4588 N   0  0  0  0  0  0  0  0  0  0  0  0
  -12.5916   -4.8315    2.6599 C   0  0  0  0  0  0  0  0  0  0  0  0
  -11.3505   -5.0379    3.1101 N   0  0  0  0  0  0  0  0  0  0  0  0
  -10.3080   -4.7780    2.2986 C   0  0  0  0  0  0  0  0  0  0  0  0
   -9.0696   -4.9879    2.8885 N   0  0  0  0  0  0  0  0  0  0  0  0
  -10.5350   -4.3164    0.9770 C   0  0  0  0  0  0  0  0  0  0  0  0
   -7.4430   -4.9631    0.3784 C   0  0  0  0  0  0  0  0  0  0  0  0
   -6.0388   -4.8833    0.4623 C   0  0  0  0  0  0  0  0  0  0  0  0
    0.0613   -1.3855    1.0843 C   0  0  0  0  0  0  0  0  0  0  0  0
    2.7929    0.5128    1.9910 H   0  0  0  0  0  0  0  0  0  0  0  0
    2.7429   -0.5425    0.5741 H   0  0  0  0  0  0  0  0  0  0  0  0
    2.6655   -1.2332    2.2231 H   0  0  0  0  0  0  0  0  0  0  0  0
    0.8101    1.7039    2.3492 H   0  0  0  0  0  0  0  0  0  0  0  0
   -1.6483    1.8700    2.3036 H   0  0  0  0  0  0  0  0  0  0  0  0
   -3.0022    0.0398    1.5266 H   0  0  0  0  0  0  0  0  0  0  0  0
   -1.5836   -3.1955    0.2278 H   0  0  0  0  0  0  0  0  0  0  0  0
   -3.4722   -4.4551    0.4545 H   0  0  0  0  0  0  0  0  0  0  0  0
   -5.5913   -2.0848   -1.3968 H   0  0  0  0  0  0  0  0  0  0  0  0
   -7.9969   -2.1095   -1.3744 H   0  0  0  0  0  0  0  0  0  0  0  0
   -9.1079   -3.4850   -2.9268 H   0  0  0  0  0  0  0  0  0  0  0  0
   -9.8589   -1.9399   -2.5529 H   0  0  0  0  0  0  0  0  0  0  0  0
  -11.9821   -2.7223   -3.6405 H   0  0  0  0  0  0  0  0  0  0  0  0
  -11.2247   -4.2999   -3.9416 H   0  0  0  0  0  0  0  0  0  0  0  0
  -10.4209   -1.7517   -4.9156 H   0  0  0  0  0  0  0  0  0  0  0  0
  -13.3987   -5.0514    3.3476 H   0  0  0  0  0  0  0  0  0  0  0  0
   -9.1910   -5.1239    3.8871 H   0  0  0  0  0  0  0  0  0  0  0  0
   -8.3753   -4.2921    2.6374 H   0  0  0  0  0  0  0  0  0  0  0  0
   -7.9309   -5.8076    0.8593 H   0  0  0  0  0  0  0  0  0  0  0  0
   -5.5093   -5.6099    1.0729 H   0  0  0  0  0  0  0  0  0  0  0  0
    0.5594   -2.2908    0.7457 H   0  0  0  0  0  0  0  0  0  0  0  0
  1  2  1  0  0  0  0
  1 31  1  0  0  0  0
  1 32  1  0  0  0  0
  1 33  1  0  0  0  0
  2  3  1  0  0  0  0
  2 30  2  0  0  0  0
  3  4  2  0  0  0  0
  3 34  1  0  0  0  0
  4  5  1  0  0  0  0
  4 35  1  0  0  0  0
  5  6  2  0  0  0  0
  5 36  1  0  0  0  0
  6  7  1  0  0  0  0
  6 30  1  0  0  0  0
  7  8  1  0  0  0  0
  7 37  1  0  0  0  0
  8  9  2  0  0  0  0
  8 10  1  0  0  0  0
 10 11  1  0  0  0  0
 10 38  1  0  0  0  0
 11 12  1  0  0  0  0
 11 29  2  0  0  0  0
 12 13  2  0  0  0  0
 12 39  1  0  0  0  0
 13 14  1  0  0  0  0
 13 40  1  0  0  0  0
 14 15  1  0  0  0  0
 14 28  2  0  0  0  0
 15 16  2  0  0  0  0
 15 27  1  0  0  0  0
 16 17  1  0  0  0  0
 16 20  1  0  0  0  0
 17 18  1  0  0  0  0
 17 41  1  0  0  0  0
 17 42  1  0  0  0  0
 18 19  1  0  0  0  0
 18 43  1  0  0  0  0
 18 44  1  0  0  0  0
 19 45  1  0  0  0  0
 20 21  1  0  0  0  0
 21 22  1  0  0  0  0
 21 27  2  0  0  0  0
 22 23  2  0  0  0  0
 23 24  1  0  0  0  0
 23 46  1  0  0  0  0
 24 25  2  0  0  0  0
 25 26  1  0  0  0  0
 25 27  1  0  0  0  0
 26 47  1  0  0  0  0
 26 48  1  0  0  0  0
 28 29  1  0  0  0  0
 28 49  1  0  0  0  0
 29 50  1  0  0  0  0
 30 51  1  0  0  0  0
M  END
$$$$
