CHEMBL3774904
 OpenBabel04072215373D

 37 39  0  0  0  0  0  0  0  0999 V2000
    3.3924   -1.0691   -0.6666 C   0  0  0  0  0  0  0  0  0  0  0  0
    2.5404   -0.2777    0.1647 O   0  0  0  0  0  0  0  0  0  0  0  0
    3.0876    0.8864    0.6366 C   0  0  0  0  0  0  0  0  0  0  0  0
    4.0622    1.5860   -0.0995 C   0  0  0  0  0  0  0  0  0  0  0  0
    4.7014    2.7149    0.3902 C   0  0  0  0  0  0  0  0  0  0  0  0
    5.6716    3.2712   -0.3425 N   0  0  0  0  0  0  0  0  0  0  0  0
    6.2807    4.3380    0.1853 C   0  0  0  0  0  0  0  0  0  0  0  0
    6.0035    4.8968    1.3651 N   0  0  0  0  0  0  0  0  0  0  0  0
    5.0294    4.3229    2.0978 C   0  0  0  0  0  0  0  0  0  0  0  0
    4.7404    4.8515    3.3848 N   0  0  0  0  0  0  0  0  0  0  0  0
    5.2077    6.1039    3.8489 C   0  0  0  0  0  0  0  0  0  0  0  0
    5.1183    7.2447    3.0415 C   0  0  0  0  0  0  0  0  0  0  0  0
    5.6342    8.4569    3.4923 C   0  0  0  0  0  0  0  0  0  0  0  0
    5.5964    9.5675    2.7069 O   0  0  0  0  0  0  0  0  0  0  0  0
    6.1924    8.5667    4.7602 C   0  0  0  0  0  0  0  0  0  0  0  0
    6.2556    7.4464    5.5899 C   0  0  0  0  0  0  0  0  0  0  0  0
    5.7582    6.2292    5.1324 C   0  0  0  0  0  0  0  0  0  0  0  0
    5.8370    5.1505    5.9256 F   0  0  0  0  0  0  0  0  0  0  0  0
    4.3180    3.2056    1.6384 C   0  0  0  0  0  0  0  0  0  0  0  0
    3.2669    2.5740    2.3391 C   0  0  0  0  0  0  0  0  0  0  0  0
    2.6589    1.4095    1.8601 C   0  0  0  0  0  0  0  0  0  0  0  0
    1.7137    0.9472    2.7301 O   0  0  0  0  0  0  0  0  0  0  0  0
    1.1131   -0.3181    2.5188 C   0  0  0  0  0  0  0  0  0  0  0  0
    3.1211   -2.1194   -0.5281 H   0  0  0  0  0  0  0  0  0  0  0  0
    4.4542   -0.9761   -0.4069 H   0  0  0  0  0  0  0  0  0  0  0  0
    3.2307   -0.8070   -1.7169 H   0  0  0  0  0  0  0  0  0  0  0  0
    4.3607    1.2457   -1.0874 H   0  0  0  0  0  0  0  0  0  0  0  0
    7.0818    4.7868   -0.3918 H   0  0  0  0  0  0  0  0  0  0  0  0
    4.8808    4.1278    4.0889 H   0  0  0  0  0  0  0  0  0  0  0  0
    4.6621    7.1677    2.0603 H   0  0  0  0  0  0  0  0  0  0  0  0
    5.2997    9.3027    1.8178 H   0  0  0  0  0  0  0  0  0  0  0  0
    6.5877    9.5222    5.0977 H   0  0  0  0  0  0  0  0  0  0  0  0
    6.6981    7.5121    6.5798 H   0  0  0  0  0  0  0  0  0  0  0  0
    2.9188    2.9855    3.2849 H   0  0  0  0  0  0  0  0  0  0  0  0
    0.6396   -0.6074    3.4634 H   0  0  0  0  0  0  0  0  0  0  0  0
    1.8423   -1.0978    2.2860 H   0  0  0  0  0  0  0  0  0  0  0  0
    0.3273   -0.2478    1.7614 H   0  0  0  0  0  0  0  0  0  0  0  0
  1  2  1  0  0  0  0
  1 24  1  0  0  0  0
  1 25  1  0  0  0  0
  1 26  1  0  0  0  0
  2  3  1  0  0  0  0
  3  4  1  0  0  0  0
  3 21  2  0  0  0  0
  4  5  2  0  0  0  0
  4 27  1  0  0  0  0
  5  6  1  0  0  0  0
  5 19  1  0  0  0  0
  6  7  2  0  0  0  0
  7  8  1  0  0  0  0
  7 28  1  0  0  0  0
  8  9  2  0  0  0  0
  9 10  1  0  0  0  0
  9 19  1  0  0  0  0
 10 11  1  0  0  0  0
 10 29  1  0  0  0  0
 11 12  1  0  0  0  0
 11 17  2  0  0  0  0
 12 13  2  0  0  0  0
 12 30  1  0  0  0  0
 13 14  1  0  0  0  0
 13 15  1  0  0  0  0
 14 31  1  0  0  0  0
 15 16  2  0  0  0  0
 15 32  1  0  0  0  0
 16 17  1  0  0  0  0
 16 33  1  0  0  0  0
 17 18  1  0  0  0  0
 19 20  2  0  0  0  0
 20 21  1  0  0  0  0
 20 34  1  0  0  0  0
 21 22  1  0  0  0  0
 22 23  1  0  0  0  0
 23 35  1  0  0  0  0
 23 36  1  0  0  0  0
 23 37  1  0  0  0  0
M  END
$$$$
