CHEMBL193306
 OpenBabel04072215363D

 52 55  0  0  0  0  0  0  0  0999 V2000
   -1.6559    9.3956   -2.6373 C   0  0  0  0  0  0  0  0  0  0  0  0
   -2.0344    8.2083   -1.9437 O   0  0  0  0  0  0  0  0  0  0  0  0
   -0.8876    7.3897   -1.8124 N   0  0  0  0  0  0  0  0  0  0  0  0
   -0.1898    7.5469   -0.6355 C   0  0  0  0  0  0  0  0  0  0  0  0
   -0.3686    8.4553    0.1708 O   0  0  0  0  0  0  0  0  0  0  0  0
    0.8801    6.5567   -0.3701 C   0  0  0  0  0  0  0  0  0  0  0  0
    1.9658    6.9595    0.4225 C   0  0  0  0  0  0  0  0  0  0  0  0
    2.9863    6.0628    0.7601 C   0  0  0  0  0  0  0  0  0  0  0  0
    4.1013    6.4408    1.5349 N   0  0  0  0  0  0  0  0  0  0  0  0
    4.5703    7.7188    1.7307 C   0  0  0  0  0  0  0  0  0  0  0  0
    4.5127    8.5559    0.7311 N   0  0  0  0  0  0  0  0  0  0  0  0
    5.0010    9.8226    0.8624 C   0  0  0  0  0  0  0  0  0  0  0  0
    5.5327   10.3373    1.9189 N   0  0  0  0  0  0  0  0  0  0  0  0
    5.5831    9.4978    2.9624 N   0  0  0  0  0  0  0  0  0  0  0  0
    6.0607    9.8484    4.1871 C   0  0  0  0  0  0  0  0  0  0  0  0
    5.9652    8.7547    5.0120 C   0  0  0  0  0  0  0  0  0  0  0  0
    6.4038    8.7977    6.4465 C   0  0  0  0  0  0  0  0  0  0  0  0
    6.4746    7.7353    7.2303 N   0  0  0  0  0  0  0  0  0  0  0  0
    6.8588    8.2220    8.4487 C   0  0  0  0  0  0  0  0  0  0  0  0
    7.0108    9.5819    8.3790 C   0  0  0  0  0  0  0  0  0  0  0  0
    7.3410   10.6333    9.3521 C   0  0  0  0  0  0  0  0  0  0  0  0
    6.7555    9.9651    7.0933 O   0  0  0  0  0  0  0  0  0  0  0  0
    5.3634    7.6772    4.2576 C   0  0  0  0  0  0  0  0  0  0  0  0
    5.0058    6.3296    4.8580 C   0  0  0  0  0  0  0  0  0  0  0  0
    3.5062    6.0361    4.8475 C   0  0  0  0  0  0  0  0  0  0  0  0
    5.8622    5.1730    4.3462 C   0  0  0  0  0  0  0  0  0  0  0  0
    5.1542    8.1939    2.9690 C   0  0  0  0  0  0  0  0  0  0  0  0
    2.9010    4.7555    0.2558 C   0  0  0  0  0  0  0  0  0  0  0  0
    3.8641    3.8703    0.5549 F   0  0  0  0  0  0  0  0  0  0  0  0
    1.8428    4.3446   -0.5500 C   0  0  0  0  0  0  0  0  0  0  0  0
    0.8356    5.2515   -0.8571 C   0  0  0  0  0  0  0  0  0  0  0  0
   -0.1853    4.8395   -1.6237 F   0  0  0  0  0  0  0  0  0  0  0  0
   -2.5465   10.0145   -2.7724 H   0  0  0  0  0  0  0  0  0  0  0  0
   -1.2453    9.1477   -3.6210 H   0  0  0  0  0  0  0  0  0  0  0  0
   -0.9223    9.9655   -2.0576 H   0  0  0  0  0  0  0  0  0  0  0  0
   -0.9497    6.4828   -2.2650 H   0  0  0  0  0  0  0  0  0  0  0  0
    1.9909    7.9825    0.7957 H   0  0  0  0  0  0  0  0  0  0  0  0
    4.4252    5.7099    2.1464 H   0  0  0  0  0  0  0  0  0  0  0  0
    4.9309   10.4551   -0.0410 H   0  0  0  0  0  0  0  0  0  0  0  0
    6.4276   10.8497    4.3630 H   0  0  0  0  0  0  0  0  0  0  0  0
    6.9860    7.5743    9.3044 H   0  0  0  0  0  0  0  0  0  0  0  0
    7.6216   10.1962   10.3156 H   0  0  0  0  0  0  0  0  0  0  0  0
    6.4754   11.2832    9.5161 H   0  0  0  0  0  0  0  0  0  0  0  0
    8.1752   11.2463    8.9998 H   0  0  0  0  0  0  0  0  0  0  0  0
    5.2375    6.3670    5.9244 H   0  0  0  0  0  0  0  0  0  0  0  0
    3.0738    6.0208    3.8479 H   0  0  0  0  0  0  0  0  0  0  0  0
    2.9674    6.8003    5.4209 H   0  0  0  0  0  0  0  0  0  0  0  0
    3.2994    5.0679    5.3163 H   0  0  0  0  0  0  0  0  0  0  0  0
    5.6610    4.9018    3.3110 H   0  0  0  0  0  0  0  0  0  0  0  0
    5.6859    4.2774    4.9534 H   0  0  0  0  0  0  0  0  0  0  0  0
    6.9281    5.4157    4.4192 H   0  0  0  0  0  0  0  0  0  0  0  0
    1.8040    3.3293   -0.9285 H   0  0  0  0  0  0  0  0  0  0  0  0
  1  2  1  0  0  0  0
  1 33  1  0  0  0  0
  1 34  1  0  0  0  0
  1 35  1  0  0  0  0
  2  3  1  0  0  0  0
  3  4  1  0  0  0  0
  3 36  1  0  0  0  0
  4  5  2  0  0  0  0
  4  6  1  0  0  0  0
  6  7  1  0  0  0  0
  6 31  2  0  0  0  0
  7  8  2  0  0  0  0
  7 37  1  0  0  0  0
  8  9  1  0  0  0  0
  8 28  1  0  0  0  0
  9 10  1  0  0  0  0
  9 38  1  0  0  0  0
 10 11  2  0  0  0  0
 10 27  1  0  0  0  0
 11 12  1  0  0  0  0
 12 13  2  0  0  0  0
 12 39  1  0  0  0  0
 13 14  1  0  0  0  0
 14 15  1  0  0  0  0
 14 27  1  0  0  0  0
 15 16  2  0  0  0  0
 15 40  1  0  0  0  0
 16 17  1  0  0  0  0
 16 23  1  0  0  0  0
 17 18  2  0  0  0  0
 17 22  1  0  0  0  0
 18 19  1  0  0  0  0
 19 20  2  0  0  0  0
 19 41  1  0  0  0  0
 20 21  1  0  0  0  0
 20 22  1  0  0  0  0
 21 42  1  0  0  0  0
 21 43  1  0  0  0  0
 21 44  1  0  0  0  0
 23 24  1  0  0  0  0
 23 27  2  0  0  0  0
 24 25  1  0  0  0  0
 24 26  1  0  0  0  0
 24 45  1  0  0  0  0
 25 46  1  0  0  0  0
 25 47  1  0  0  0  0
 25 48  1  0  0  0  0
 26 49  1  0  0  0  0
 26 50  1  0  0  0  0
 26 51  1  0  0  0  0
 28 29  1  0  0  0  0
 28 30  2  0  0  0  0
 30 31  1  0  0  0  0
 30 52  1  0  0  0  0
 31 32  1  0  0  0  0
M  END
$$$$
