CHEMBL1940845
 OpenBabel04072215363D

 33 35  0  0  0  0  0  0  0  0999 V2000
    4.5788    0.2518   -0.0115 C   0  0  0  0  0  0  0  0  0  0  0  0
    3.1074   -0.0399   -0.0075 C   0  0  0  0  0  0  0  0  0  0  0  0
    2.6295   -1.3499   -0.0084 C   0  0  0  0  0  0  0  0  0  0  0  0
    1.2514   -1.5967   -0.0076 C   0  0  0  0  0  0  0  0  0  0  0  0
    0.3229   -0.5645   -0.0086 C   0  0  0  0  0  0  0  0  0  0  0  0
   -0.9871   -0.8508   -0.0099 N   0  0  0  0  0  0  0  0  0  0  0  0
   -1.8632    0.1827   -0.0150 C   0  0  0  0  0  0  0  0  0  0  0  0
   -3.5003   -0.3617   -0.0296 Cl  0  0  0  0  0  0  0  0  0  0  0  0
   -1.5139    1.5353   -0.0324 C   0  0  0  0  0  0  0  0  0  0  0  0
   -2.5059    2.6297   -0.0132 C   0  0  0  0  0  0  0  0  0  0  0  0
   -2.3251    3.8268   -0.5938 C   0  0  0  0  0  0  0  0  0  0  0  0
   -3.3798    4.8915   -0.5148 C   0  0  0  0  0  0  0  0  0  0  0  0
   -4.2524    4.8157    0.3457 O   0  0  0  0  0  0  0  0  0  0  0  0
   -3.2626    5.9839   -1.4723 C   0  0  0  0  0  0  0  0  0  0  0  0
   -2.7305    5.9821   -2.7524 C   0  0  0  0  0  0  0  0  0  0  0  0
   -2.7892    7.2679   -3.3701 C   0  0  0  0  0  0  0  0  0  0  0  0
   -3.3604    8.1894   -2.5341 C   0  0  0  0  0  0  0  0  0  0  0  0
   -3.6060    9.8557   -2.8669 Cl  0  0  0  0  0  0  0  0  0  0  0  0
   -3.8515    7.5427   -1.0512 S   0  0  0  0  0  0  0  0  0  0  0  0
   -0.1399    1.8037   -0.0106 C   0  0  0  0  0  0  0  0  0  0  0  0
    0.8007    0.7595   -0.0076 C   0  0  0  0  0  0  0  0  0  0  0  0
    2.1845    1.0125   -0.0035 C   0  0  0  0  0  0  0  0  0  0  0  0
    5.1713   -0.6686   -0.0249 H   0  0  0  0  0  0  0  0  0  0  0  0
    4.8535    0.8162    0.8853 H   0  0  0  0  0  0  0  0  0  0  0  0
    4.8447    0.8349   -0.8993 H   0  0  0  0  0  0  0  0  0  0  0  0
    3.3178   -2.1926   -0.0094 H   0  0  0  0  0  0  0  0  0  0  0  0
    0.8948   -2.6248   -0.0061 H   0  0  0  0  0  0  0  0  0  0  0  0
   -3.4465    2.4182    0.4966 H   0  0  0  0  0  0  0  0  0  0  0  0
   -1.4211    4.0833   -1.1296 H   0  0  0  0  0  0  0  0  0  0  0  0
   -2.3299    5.1008   -3.2397 H   0  0  0  0  0  0  0  0  0  0  0  0
   -2.4332    7.4932   -4.3686 H   0  0  0  0  0  0  0  0  0  0  0  0
    0.2188    2.8300    0.0168 H   0  0  0  0  0  0  0  0  0  0  0  0
    2.5503    2.0380    0.0006 H   0  0  0  0  0  0  0  0  0  0  0  0
  1  2  1  0  0  0  0
  1 23  1  0  0  0  0
  1 24  1  0  0  0  0
  1 25  1  0  0  0  0
  2  3  1  0  0  0  0
  2 22  2  0  0  0  0
  3  4  2  0  0  0  0
  3 26  1  0  0  0  0
  4  5  1  0  0  0  0
  4 27  1  0  0  0  0
  5  6  1  0  0  0  0
  5 21  2  0  0  0  0
  6  7  2  0  0  0  0
  7  8  1  0  0  0  0
  7  9  1  0  0  0  0
  9 10  1  0  0  0  0
  9 20  2  0  0  0  0
 10 11  2  0  0  0  0
 10 28  1  0  0  0  0
 11 12  1  0  0  0  0
 11 29  1  0  0  0  0
 12 13  2  0  0  0  0
 12 14  1  0  0  0  0
 14 15  2  0  0  0  0
 14 19  1  0  0  0  0
 15 16  1  0  0  0  0
 15 30  1  0  0  0  0
 16 17  2  0  0  0  0
 16 31  1  0  0  0  0
 17 18  1  0  0  0  0
 17 19  1  0  0  0  0
 20 21  1  0  0  0  0
 20 32  1  0  0  0  0
 21 22  1  0  0  0  0
 22 33  1  0  0  0  0
M  END
$$$$
