CHEMBL426161
 OpenBabel04072215383D

 58 61  0  0  0  0  0  0  0  0999 V2000
    2.5919   -2.0016    4.2290 C   0  0  0  0  0  0  0  0  0  0  0  0
    3.0327   -2.1515    2.8840 O   0  0  0  0  0  0  0  0  0  0  0  0
    4.2884   -2.6632    2.7016 C   0  0  0  0  0  0  0  0  0  0  0  0
    5.1538   -3.0737    3.7126 C   0  0  0  0  0  0  0  0  0  0  0  0
    6.4432   -3.5045    3.3935 C   0  0  0  0  0  0  0  0  0  0  0  0
    6.8706   -3.5445    2.0631 C   0  0  0  0  0  0  0  0  0  0  0  0
    8.5475   -3.8788    1.7932 Cl  0  0  0  0  0  0  0  0  0  0  0  0
    5.9799   -3.2296    1.0213 C   0  0  0  0  0  0  0  0  0  0  0  0
    6.3409   -3.1782   -0.3540 N   0  0  0  0  0  0  0  0  0  0  0  0
    6.9961   -4.2265   -1.0670 C   0  0  0  0  0  0  0  0  0  0  0  0
    7.0229   -5.4555   -0.5337 N   0  0  0  0  0  0  0  0  0  0  0  0
    7.6059   -6.4182   -1.2509 C   0  0  0  0  0  0  0  0  0  0  0  0
    8.0965   -6.2862   -2.4896 N   0  0  0  0  0  0  0  0  0  0  0  0
    8.0194   -5.0679   -3.0382 C   0  0  0  0  0  0  0  0  0  0  0  0
    8.4993   -4.8782   -4.3298 C   0  0  0  0  0  0  0  0  0  0  0  0
    8.5477   -3.6226   -4.9750 C   0  0  0  0  0  0  0  0  0  0  0  0
    9.1203   -3.7588   -6.2141 O   0  0  0  0  0  0  0  0  0  0  0  0
    9.6022   -2.5944   -6.8445 C   0  0  0  0  0  0  0  0  0  0  0  0
   10.6465   -2.8838   -7.9310 C   0  0  0  0  0  0  0  0  0  0  0  0
   11.8292   -3.7144   -7.4301 C   0  0  0  0  0  0  0  0  0  0  0  0
   12.6568   -2.9503   -6.3986 C   0  0  0  0  0  0  0  0  0  0  0  0
   13.1258   -1.6577   -6.9223 N   0  0  0  0  0  0  0  0  0  0  0  0
   13.8669   -0.9431   -5.8800 C   0  0  0  0  0  0  0  0  0  0  0  0
   12.0428   -0.8130   -7.4417 C   0  0  0  0  0  0  0  0  0  0  0  0
   11.1760   -1.5474   -8.4746 C   0  0  0  0  0  0  0  0  0  0  0  0
    8.0930   -2.4997   -4.2795 C   0  0  0  0  0  0  0  0  0  0  0  0
    8.2892   -1.1697   -4.5175 O   0  0  0  0  0  0  0  0  0  0  0  0
    7.8055   -0.5367   -5.6936 C   0  0  0  0  0  0  0  0  0  0  0  0
    7.5412   -2.6966   -2.9972 C   0  0  0  0  0  0  0  0  0  0  0  0
    7.4959   -3.9667   -2.3622 C   0  0  0  0  0  0  0  0  0  0  0  0
    4.7037   -2.7497    1.3673 C   0  0  0  0  0  0  0  0  0  0  0  0
    1.5919   -1.5576    4.2089 H   0  0  0  0  0  0  0  0  0  0  0  0
    3.2450   -1.3227    4.7885 H   0  0  0  0  0  0  0  0  0  0  0  0
    2.5150   -2.9747    4.7248 H   0  0  0  0  0  0  0  0  0  0  0  0
    4.8711   -3.0452    4.7593 H   0  0  0  0  0  0  0  0  0  0  0  0
    7.1253   -3.7822    4.1932 H   0  0  0  0  0  0  0  0  0  0  0  0
    6.8745   -2.3230   -0.4829 H   0  0  0  0  0  0  0  0  0  0  0  0
    7.6974   -7.3960   -0.7891 H   0  0  0  0  0  0  0  0  0  0  0  0
    8.9042   -5.7462   -4.8512 H   0  0  0  0  0  0  0  0  0  0  0  0
   10.0417   -1.9405   -6.0919 H   0  0  0  0  0  0  0  0  0  0  0  0
    8.7592   -2.1191   -7.3502 H   0  0  0  0  0  0  0  0  0  0  0  0
   10.1565   -3.4431   -8.7383 H   0  0  0  0  0  0  0  0  0  0  0  0
   12.4695   -3.9716   -8.2848 H   0  0  0  0  0  0  0  0  0  0  0  0
   11.4848   -4.6639   -7.0050 H   0  0  0  0  0  0  0  0  0  0  0  0
   13.5243   -3.5689   -6.1370 H   0  0  0  0  0  0  0  0  0  0  0  0
   12.0739   -2.8172   -5.4785 H   0  0  0  0  0  0  0  0  0  0  0  0
   14.7166   -1.5408   -5.5327 H   0  0  0  0  0  0  0  0  0  0  0  0
   13.2357   -0.7091   -5.0150 H   0  0  0  0  0  0  0  0  0  0  0  0
   14.2759   -0.0053   -6.2704 H   0  0  0  0  0  0  0  0  0  0  0  0
   12.4699    0.0726   -7.9274 H   0  0  0  0  0  0  0  0  0  0  0  0
   11.4152   -0.4365   -6.6239 H   0  0  0  0  0  0  0  0  0  0  0  0
   11.7660   -1.7302   -9.3806 H   0  0  0  0  0  0  0  0  0  0  0  0
   10.3386   -0.9021   -8.7697 H   0  0  0  0  0  0  0  0  0  0  0  0
    7.3513    0.4204   -5.4163 H   0  0  0  0  0  0  0  0  0  0  0  0
    7.0766   -1.1243   -6.2569 H   0  0  0  0  0  0  0  0  0  0  0  0
    8.6645   -0.2615   -6.3155 H   0  0  0  0  0  0  0  0  0  0  0  0
    7.1781   -1.8161   -2.4628 H   0  0  0  0  0  0  0  0  0  0  0  0
    4.0211   -2.4335    0.5816 H   0  0  0  0  0  0  0  0  0  0  0  0
  1  2  1  0  0  0  0
  1 32  1  0  0  0  0
  1 33  1  0  0  0  0
  1 34  1  0  0  0  0
  2  3  1  0  0  0  0
  3  4  1  0  0  0  0
  3 31  2  0  0  0  0
  4  5  2  0  0  0  0
  4 35  1  0  0  0  0
  5  6  1  0  0  0  0
  5 36  1  0  0  0  0
  6  7  1  0  0  0  0
  6  8  2  0  0  0  0
  8  9  1  0  0  0  0
  8 31  1  0  0  0  0
  9 10  1  0  0  0  0
  9 37  1  0  0  0  0
 10 11  1  0  0  0  0
 10 30  2  0  0  0  0
 11 12  2  0  0  0  0
 12 13  1  0  0  0  0
 12 38  1  0  0  0  0
 13 14  2  0  0  0  0
 14 15  1  0  0  0  0
 14 30  1  0  0  0  0
 15 16  2  0  0  0  0
 15 39  1  0  0  0  0
 16 17  1  0  0  0  0
 16 26  1  0  0  0  0
 17 18  1  0  0  0  0
 18 19  1  0  0  0  0
 18 40  1  0  0  0  0
 18 41  1  0  0  0  0
 19 20  1  0  0  0  0
 19 25  1  0  0  0  0
 19 42  1  0  0  0  0
 20 21  1  0  0  0  0
 20 43  1  0  0  0  0
 20 44  1  0  0  0  0
 21 22  1  0  0  0  0
 21 45  1  0  0  0  0
 21 46  1  0  0  0  0
 22 23  1  0  0  0  0
 22 24  1  0  0  0  0
 23 47  1  0  0  0  0
 23 48  1  0  0  0  0
 23 49  1  0  0  0  0
 24 25  1  0  0  0  0
 24 50  1  0  0  0  0
 24 51  1  0  0  0  0
 25 52  1  0  0  0  0
 25 53  1  0  0  0  0
 26 27  1  0  0  0  0
 26 29  2  0  0  0  0
 27 28  1  0  0  0  0
 28 54  1  0  0  0  0
 28 55  1  0  0  0  0
 28 56  1  0  0  0  0
 29 30  1  0  0  0  0
 29 57  1  0  0  0  0
 31 58  1  0  0  0  0
M  END
$$$$
