CHEMBL378941
 OpenBabel04072215373D

 46 49  0  0  0  0  0  0  0  0999 V2000
    1.1352    0.2093   -0.0205 N   0  0  0  0  0  0  0  0  0  0  0  0
    2.3487    0.1042   -0.6725 C   0  0  0  0  0  0  0  0  0  0  0  0
    2.9326    1.2732   -1.0065 N   0  0  0  0  0  0  0  0  0  0  0  0
    4.1353    1.2543   -1.6040 C   0  0  0  0  0  0  0  0  0  0  0  0
    4.8626    0.1842   -1.9309 N   0  0  0  0  0  0  0  0  0  0  0  0
    4.2405   -0.9576   -1.5980 C   0  0  0  0  0  0  0  0  0  0  0  0
    4.9142   -2.4895   -1.8838 S   0  0  0  0  0  0  0  0  0  0  0  0
    3.6425   -3.3531   -1.2801 N   0  0  0  0  0  0  0  0  0  0  0  0
    2.7022   -2.5134   -0.8289 C   0  0  0  0  0  0  0  0  0  0  0  0
    1.4235   -3.0323   -0.2153 C   0  0  0  0  0  0  0  0  0  0  0  0
    1.4431   -4.5372   -0.1285 C   0  0  0  0  0  0  0  0  0  0  0  0
    2.0303   -5.1551    0.9821 C   0  0  0  0  0  0  0  0  0  0  0  0
    2.0963   -6.5424    1.0689 C   0  0  0  0  0  0  0  0  0  0  0  0
    1.5752   -7.3604    0.0623 C   0  0  0  0  0  0  0  0  0  0  0  0
    1.6529   -8.7705    0.0961 N   0  0  0  0  0  0  0  0  0  0  0  0
    2.0921   -9.5229    1.1731 C   0  0  0  0  0  0  0  0  0  0  0  0
    2.3371   -9.0922    2.2910 O   0  0  0  0  0  0  0  0  0  0  0  0
    2.2797  -10.8556    0.8237 N   0  0  0  0  0  0  0  0  0  0  0  0
    2.7178  -11.7952    1.7845 C   0  0  0  0  0  0  0  0  0  0  0  0
    3.7433  -12.6761    1.4463 C   0  0  0  0  0  0  0  0  0  0  0  0
    4.2448  -13.5629    2.4019 C   0  0  0  0  0  0  0  0  0  0  0  0
    3.6860  -13.6099    3.6805 C   0  0  0  0  0  0  0  0  0  0  0  0
    2.6243  -12.7617    4.0237 C   0  0  0  0  0  0  0  0  0  0  0  0
    1.9748  -12.8280    5.3834 C   0  0  0  0  0  0  0  0  0  0  0  0
    2.4748  -13.8212    6.1735 F   0  0  0  0  0  0  0  0  0  0  0  0
    2.1131  -11.6799    6.1003 F   0  0  0  0  0  0  0  0  0  0  0  0
    0.6342  -13.0638    5.3068 F   0  0  0  0  0  0  0  0  0  0  0  0
    2.1598  -11.8426    3.0682 C   0  0  0  0  0  0  0  0  0  0  0  0
    0.9787   -6.7497   -1.0459 C   0  0  0  0  0  0  0  0  0  0  0  0
    0.9152   -5.3485   -1.1400 C   0  0  0  0  0  0  0  0  0  0  0  0
    3.0025   -1.0994   -0.9888 C   0  0  0  0  0  0  0  0  0  0  0  0
    0.7478    1.1450   -0.0737 H   0  0  0  0  0  0  0  0  0  0  0  0
    0.4857   -0.5583   -0.0184 H   0  0  0  0  0  0  0  0  0  0  0  0
    4.5646    2.2214   -1.8477 H   0  0  0  0  0  0  0  0  0  0  0  0
    0.5609   -2.7054   -0.8079 H   0  0  0  0  0  0  0  0  0  0  0  0
    1.3017   -2.6159    0.7920 H   0  0  0  0  0  0  0  0  0  0  0  0
    2.4660   -4.5609    1.7798 H   0  0  0  0  0  0  0  0  0  0  0  0
    2.5933   -6.9523    1.9405 H   0  0  0  0  0  0  0  0  0  0  0  0
    1.2419   -9.2735   -0.6728 H   0  0  0  0  0  0  0  0  0  0  0  0
    2.6086  -10.9923   -0.1212 H   0  0  0  0  0  0  0  0  0  0  0  0
    4.2075  -12.6416    0.4651 H   0  0  0  0  0  0  0  0  0  0  0  0
    5.0805  -14.2124    2.1528 H   0  0  0  0  0  0  0  0  0  0  0  0
    4.0836  -14.3140    4.4103 H   0  0  0  0  0  0  0  0  0  0  0  0
    1.3492  -11.1642    3.3372 H   0  0  0  0  0  0  0  0  0  0  0  0
    0.5702   -7.3430   -1.8628 H   0  0  0  0  0  0  0  0  0  0  0  0
    0.4714   -4.8982   -2.0257 H   0  0  0  0  0  0  0  0  0  0  0  0
  1  2  1  0  0  0  0
  1 32  1  0  0  0  0
  1 33  1  0  0  0  0
  2  3  1  0  0  0  0
  2 31  2  0  0  0  0
  3  4  2  0  0  0  0
  4  5  1  0  0  0  0
  4 34  1  0  0  0  0
  5  6  2  0  0  0  0
  6  7  1  0  0  0  0
  6 31  1  0  0  0  0
  7  8  1  0  0  0  0
  8  9  2  0  0  0  0
  9 10  1  0  0  0  0
  9 31  1  0  0  0  0
 10 11  1  0  0  0  0
 10 35  1  0  0  0  0
 10 36  1  0  0  0  0
 11 12  1  0  0  0  0
 11 30  2  0  0  0  0
 12 13  2  0  0  0  0
 12 37  1  0  0  0  0
 13 14  1  0  0  0  0
 13 38  1  0  0  0  0
 14 15  1  0  0  0  0
 14 29  2  0  0  0  0
 15 16  1  0  0  0  0
 15 39  1  0  0  0  0
 16 17  2  0  0  0  0
 16 18  1  0  0  0  0
 18 19  1  0  0  0  0
 18 40  1  0  0  0  0
 19 20  1  0  0  0  0
 19 28  2  0  0  0  0
 20 21  2  0  0  0  0
 20 41  1  0  0  0  0
 21 22  1  0  0  0  0
 21 42  1  0  0  0  0
 22 23  2  0  0  0  0
 22 43  1  0  0  0  0
 23 24  1  0  0  0  0
 23 28  1  0  0  0  0
 24 25  1  0  0  0  0
 24 26  1  0  0  0  0
 24 27  1  0  0  0  0
 28 44  1  0  0  0  0
 29 30  1  0  0  0  0
 29 45  1  0  0  0  0
 30 46  1  0  0  0  0
M  END
$$$$
