CHEMBL206536
 OpenBabel04072215363D

 55 59  0  0  0  0  0  0  0  0999 V2000
    0.0631    0.0348   -0.7291 C   0  0  0  0  0  0  0  0  0  0  0  0
    1.5716   -0.1549   -1.0286 C   0  0  0  0  0  0  0  0  0  0  0  0
    2.2645   -0.6551    0.2542 C   0  0  0  0  0  0  0  0  0  0  0  0
    1.6581   -1.2673   -2.0973 C   0  0  0  0  0  0  0  0  0  0  0  0
    2.2481    1.1592   -1.4576 C   0  0  0  0  0  0  0  0  0  0  0  0
    1.7781    2.3936   -0.9785 C   0  0  0  0  0  0  0  0  0  0  0  0
    2.3706    3.6040   -1.3411 C   0  0  0  0  0  0  0  0  0  0  0  0
    3.4966    3.6579   -2.1550 C   0  0  0  0  0  0  0  0  0  0  0  0
    4.0444    4.8655   -2.6304 N   0  0  0  0  0  0  0  0  0  0  0  0
    3.6426    6.2079   -2.3918 C   0  0  0  0  0  0  0  0  0  0  0  0
    3.0496    6.5545   -1.2346 N   0  0  0  0  0  0  0  0  0  0  0  0
    2.4974    7.8072   -1.0445 N   0  0  0  0  0  0  0  0  0  0  0  0
    2.4799    8.7162   -2.0380 C   0  0  0  0  0  0  0  0  0  0  0  0
    1.6793    9.9582   -1.7645 C   0  0  0  0  0  0  0  0  0  0  0  0
    2.1805   11.2098   -2.1801 C   0  0  0  0  0  0  0  0  0  0  0  0
    1.3533   12.3232   -2.3192 C   0  0  0  0  0  0  0  0  0  0  0  0
   -0.0006   12.2092   -2.0511 C   0  0  0  0  0  0  0  0  0  0  0  0
   -0.5047   11.0329   -1.4843 C   0  0  0  0  0  0  0  0  0  0  0  0
   -1.8541   10.9382   -1.1370 C   0  0  0  0  0  0  0  0  0  0  0  0
   -2.3790    9.9654   -0.3663 N   0  0  0  0  0  0  0  0  0  0  0  0
   -1.5173    9.0229    0.0532 C   0  0  0  0  0  0  0  0  0  0  0  0
   -0.1988    8.9344   -0.3784 C   0  0  0  0  0  0  0  0  0  0  0  0
    0.3497    9.9381   -1.2126 C   0  0  0  0  0  0  0  0  0  0  0  0
    3.1327    8.4247   -3.2726 C   0  0  0  0  0  0  0  0  0  0  0  0
    3.1715    9.2933   -4.4065 C   0  0  0  0  0  0  0  0  0  0  0  0
    3.8749    8.9923   -5.5747 C   0  0  0  0  0  0  0  0  0  0  0  0
    4.5252    7.7890   -5.6905 C   0  0  0  0  0  0  0  0  0  0  0  0
    4.4488    6.8687   -4.6385 C   0  0  0  0  0  0  0  0  0  0  0  0
    3.7719    7.1624   -3.4280 C   0  0  0  0  0  0  0  0  0  0  0  0
    3.9828    2.4309   -2.6370 C   0  0  0  0  0  0  0  0  0  0  0  0
    3.3764    1.2069   -2.2925 C   0  0  0  0  0  0  0  0  0  0  0  0
   -0.4211   -0.9202   -0.4957 H   0  0  0  0  0  0  0  0  0  0  0  0
   -0.4578    0.4708   -1.5901 H   0  0  0  0  0  0  0  0  0  0  0  0
   -0.1123    0.6826    0.1364 H   0  0  0  0  0  0  0  0  0  0  0  0
    1.7820   -1.5619    0.6370 H   0  0  0  0  0  0  0  0  0  0  0  0
    2.2298    0.0988    1.0491 H   0  0  0  0  0  0  0  0  0  0  0  0
    3.3194   -0.8922    0.0723 H   0  0  0  0  0  0  0  0  0  0  0  0
    1.1187   -2.1654   -1.7685 H   0  0  0  0  0  0  0  0  0  0  0  0
    2.6883   -1.5801   -2.2944 H   0  0  0  0  0  0  0  0  0  0  0  0
    1.2119   -0.9450   -3.0448 H   0  0  0  0  0  0  0  0  0  0  0  0
    0.9292    2.4520   -0.3061 H   0  0  0  0  0  0  0  0  0  0  0  0
    1.9139    4.5099   -0.9546 H   0  0  0  0  0  0  0  0  0  0  0  0
    4.9933    4.7908   -2.9640 H   0  0  0  0  0  0  0  0  0  0  0  0
    3.2270   11.3130   -2.4626 H   0  0  0  0  0  0  0  0  0  0  0  0
    1.7606   13.2659   -2.6755 H   0  0  0  0  0  0  0  0  0  0  0  0
   -0.6513   13.0659   -2.2136 H   0  0  0  0  0  0  0  0  0  0  0  0
   -2.5744   11.6827   -1.4680 H   0  0  0  0  0  0  0  0  0  0  0  0
   -1.9176    8.3218    0.7804 H   0  0  0  0  0  0  0  0  0  0  0  0
    0.4088    8.1289    0.0206 H   0  0  0  0  0  0  0  0  0  0  0  0
    2.6348   10.2373   -4.4077 H   0  0  0  0  0  0  0  0  0  0  0  0
    3.8950    9.7083   -6.3955 H   0  0  0  0  0  0  0  0  0  0  0  0
    5.0713    7.5363   -6.5987 H   0  0  0  0  0  0  0  0  0  0  0  0
    4.9348    5.9094   -4.7950 H   0  0  0  0  0  0  0  0  0  0  0  0
    4.8374    2.4112   -3.3129 H   0  0  0  0  0  0  0  0  0  0  0  0
    3.8093    0.2941   -2.6949 H   0  0  0  0  0  0  0  0  0  0  0  0
  1  2  1  0  0  0  0
  1 32  1  0  0  0  0
  1 33  1  0  0  0  0
  1 34  1  0  0  0  0
  2  3  1  0  0  0  0
  2  4  1  0  0  0  0
  2  5  1  0  0  0  0
  3 35  1  0  0  0  0
  3 36  1  0  0  0  0
  3 37  1  0  0  0  0
  4 38  1  0  0  0  0
  4 39  1  0  0  0  0
  4 40  1  0  0  0  0
  5  6  1  0  0  0  0
  5 31  2  0  0  0  0
  6  7  2  0  0  0  0
  6 41  1  0  0  0  0
  7  8  1  0  0  0  0
  7 42  1  0  0  0  0
  8  9  1  0  0  0  0
  8 30  2  0  0  0  0
  9 10  1  0  0  0  0
  9 43  1  0  0  0  0
 10 11  1  0  0  0  0
 10 29  2  0  0  0  0
 11 12  2  0  0  0  0
 12 13  1  0  0  0  0
 13 14  1  0  0  0  0
 13 24  2  0  0  0  0
 14 15  1  0  0  0  0
 14 23  2  0  0  0  0
 15 16  2  0  0  0  0
 15 44  1  0  0  0  0
 16 17  1  0  0  0  0
 16 45  1  0  0  0  0
 17 18  2  0  0  0  0
 17 46  1  0  0  0  0
 18 19  1  0  0  0  0
 18 23  1  0  0  0  0
 19 20  2  0  0  0  0
 19 47  1  0  0  0  0
 20 21  1  0  0  0  0
 21 22  2  0  0  0  0
 21 48  1  0  0  0  0
 22 23  1  0  0  0  0
 22 49  1  0  0  0  0
 24 25  1  0  0  0  0
 24 29  1  0  0  0  0
 25 26  2  0  0  0  0
 25 50  1  0  0  0  0
 26 27  1  0  0  0  0
 26 51  1  0  0  0  0
 27 28  2  0  0  0  0
 27 52  1  0  0  0  0
 28 29  1  0  0  0  0
 28 53  1  0  0  0  0
 30 31  1  0  0  0  0
 30 54  1  0  0  0  0
 31 55  1  0  0  0  0
M  END
$$$$
