CHEMBL3956039
 OpenBabel04072215373D

 43 46  0  0  0  0  0  0  0  0999 V2000
    1.2274   -0.1803    1.0471 O   0  0  0  0  0  0  0  0  0  0  0  0
    2.3491   -0.0183    0.5746 C   0  0  0  0  0  0  0  0  0  0  0  0
    2.9110    1.1937    0.1943 N   0  0  0  0  0  0  0  0  0  0  0  0
    2.2666    2.4499    0.3476 C   0  0  0  0  0  0  0  0  0  0  0  0
    1.2145    2.6448    1.2509 C   0  0  0  0  0  0  0  0  0  0  0  0
    0.5395    3.8625    1.3192 C   0  0  0  0  0  0  0  0  0  0  0  0
    0.9104    4.9070    0.4779 C   0  0  0  0  0  0  0  0  0  0  0  0
    1.9762    4.7430   -0.4110 C   0  0  0  0  0  0  0  0  0  0  0  0
    2.2863    5.8106   -1.3177 C   0  0  0  0  0  0  0  0  0  0  0  0
    2.4412    6.7358   -2.0714 C   0  0  0  0  0  0  0  0  0  0  0  0
    2.5338    7.8915   -2.9307 C   0  0  0  0  0  0  0  0  0  0  0  0
    2.2207    9.2512   -2.4213 C   0  0  0  0  0  0  0  0  0  0  0  0
    2.3120   10.2604   -3.2963 C   0  0  0  0  0  0  0  0  0  0  0  0
    2.6935    9.9860   -4.6275 C   0  0  0  0  0  0  0  0  0  0  0  0
    2.8568   10.7814   -5.6634 N   0  0  0  0  0  0  0  0  0  0  0  0
    3.2287    9.9559   -6.6973 C   0  0  0  0  0  0  0  0  0  0  0  0
    3.2902    8.6472   -6.2815 C   0  0  0  0  0  0  0  0  0  0  0  0
    2.9518    8.6623   -4.9553 N   0  0  0  0  0  0  0  0  0  0  0  0
    2.8847    7.5710   -4.1338 N   0  0  0  0  0  0  0  0  0  0  0  0
    2.6760    3.5270   -0.4530 C   0  0  0  0  0  0  0  0  0  0  0  0
    3.1482   -1.2458    0.3355 C   0  0  0  0  0  0  0  0  0  0  0  0
    2.4513   -2.4012   -0.0489 C   0  0  0  0  0  0  0  0  0  0  0  0
    3.1087   -3.6241   -0.1520 C   0  0  0  0  0  0  0  0  0  0  0  0
    4.4657   -3.7054    0.1514 C   0  0  0  0  0  0  0  0  0  0  0  0
    5.1805   -2.5625    0.5514 C   0  0  0  0  0  0  0  0  0  0  0  0
    6.6309   -2.6730    0.9583 C   0  0  0  0  0  0  0  0  0  0  0  0
    7.1092   -3.9483    0.9361 F   0  0  0  0  0  0  0  0  0  0  0  0
    7.4526   -1.9493    0.1509 F   0  0  0  0  0  0  0  0  0  0  0  0
    6.8482   -2.2159    2.2223 F   0  0  0  0  0  0  0  0  0  0  0  0
    4.5155   -1.3206    0.6211 C   0  0  0  0  0  0  0  0  0  0  0  0
    3.7252    1.1661   -0.4050 H   0  0  0  0  0  0  0  0  0  0  0  0
    0.8907    1.8550    1.9235 H   0  0  0  0  0  0  0  0  0  0  0  0
   -0.2896    3.9788    2.0124 H   0  0  0  0  0  0  0  0  0  0  0  0
    0.3501    5.8379    0.5130 H   0  0  0  0  0  0  0  0  0  0  0  0
    1.9311    9.3812   -1.3889 H   0  0  0  0  0  0  0  0  0  0  0  0
    2.0998   11.2850   -3.0142 H   0  0  0  0  0  0  0  0  0  0  0  0
    3.4296   10.3494   -7.6840 H   0  0  0  0  0  0  0  0  0  0  0  0
    3.5365    7.7289   -6.7920 H   0  0  0  0  0  0  0  0  0  0  0  0
    3.4988    3.4140   -1.1534 H   0  0  0  0  0  0  0  0  0  0  0  0
    1.3795   -2.3524   -0.2376 H   0  0  0  0  0  0  0  0  0  0  0  0
    2.5534   -4.5163   -0.4330 H   0  0  0  0  0  0  0  0  0  0  0  0
    4.9588   -4.6763    0.1032 H   0  0  0  0  0  0  0  0  0  0  0  0
    5.0560   -0.4417    0.9676 H   0  0  0  0  0  0  0  0  0  0  0  0
  1  2  2  0  0  0  0
  2  3  1  0  0  0  0
  2 21  1  0  0  0  0
  3  4  1  0  0  0  0
  3 31  1  0  0  0  0
  4  5  1  0  0  0  0
  4 20  2  0  0  0  0
  5  6  2  0  0  0  0
  5 32  1  0  0  0  0
  6  7  1  0  0  0  0
  6 33  1  0  0  0  0
  7  8  2  0  0  0  0
  7 34  1  0  0  0  0
  8  9  1  0  0  0  0
  8 20  1  0  0  0  0
  9 10  3  0  0  0  0
 10 11  1  0  0  0  0
 11 12  1  0  0  0  0
 11 19  2  0  0  0  0
 12 13  2  0  0  0  0
 12 35  1  0  0  0  0
 13 14  1  0  0  0  0
 13 36  1  0  0  0  0
 14 15  2  0  0  0  0
 14 18  1  0  0  0  0
 15 16  1  0  0  0  0
 16 17  2  0  0  0  0
 16 37  1  0  0  0  0
 17 18  1  0  0  0  0
 17 38  1  0  0  0  0
 18 19  1  0  0  0  0
 20 39  1  0  0  0  0
 21 22  1  0  0  0  0
 21 30  2  0  0  0  0
 22 23  2  0  0  0  0
 22 40  1  0  0  0  0
 23 24  1  0  0  0  0
 23 41  1  0  0  0  0
 24 25  2  0  0  0  0
 24 42  1  0  0  0  0
 25 26  1  0  0  0  0
 25 30  1  0  0  0  0
 26 27  1  0  0  0  0
 26 28  1  0  0  0  0
 26 29  1  0  0  0  0
 30 43  1  0  0  0  0
M  END
$$$$
