CHEMBL3913290
 OpenBabel04072215373D

 52 55  0  0  0  0  0  0  0  0999 V2000
    1.1468    0.6560    0.5158 O   0  0  0  0  0  0  0  0  0  0  0  0
    2.2266    0.2557    0.0954 C   0  0  0  0  0  0  0  0  0  0  0  0
    2.7678    0.5870   -1.1364 N   0  0  0  0  0  0  0  0  0  0  0  0
    2.1301    1.3942   -2.1084 C   0  0  0  0  0  0  0  0  0  0  0  0
    1.0221    2.1929   -1.8198 C   0  0  0  0  0  0  0  0  0  0  0  0
    0.3470    2.8765   -2.8300 C   0  0  0  0  0  0  0  0  0  0  0  0
    0.8313    2.8599   -4.1370 C   0  0  0  0  0  0  0  0  0  0  0  0
    0.2396    3.5437   -5.1812 O   0  0  0  0  0  0  0  0  0  0  0  0
   -0.3461    4.7723   -4.9358 C   0  0  0  0  0  0  0  0  0  0  0  0
    0.1002    5.6462   -3.9497 C   0  0  0  0  0  0  0  0  0  0  0  0
   -0.6082    6.8068   -3.7509 C   0  0  0  0  0  0  0  0  0  0  0  0
   -1.6568    7.1629   -4.5074 N   0  0  0  0  0  0  0  0  0  0  0  0
   -2.0446    6.3608   -5.5121 C   0  0  0  0  0  0  0  0  0  0  0  0
   -3.1170    6.7657   -6.3274 N   0  0  0  0  0  0  0  0  0  0  0  0
   -3.8006    7.9525   -6.1439 C   0  0  0  0  0  0  0  0  0  0  0  0
   -3.6035    8.8048   -5.2857 O   0  0  0  0  0  0  0  0  0  0  0  0
   -4.9059    8.1930   -7.1294 C   0  0  0  0  0  0  0  0  0  0  0  0
   -5.1953    9.6095   -7.5783 C   0  0  0  0  0  0  0  0  0  0  0  0
   -6.1585    8.9065   -6.6716 C   0  0  0  0  0  0  0  0  0  0  0  0
   -1.4137    5.1447   -5.7601 C   0  0  0  0  0  0  0  0  0  0  0  0
    1.9530    2.0844   -4.4352 C   0  0  0  0  0  0  0  0  0  0  0  0
    2.6042    1.3589   -3.4247 C   0  0  0  0  0  0  0  0  0  0  0  0
    3.0413   -0.6075    0.8028 N   0  0  0  0  0  0  0  0  0  0  0  0
    2.6930   -1.2403    2.0255 C   0  0  0  0  0  0  0  0  0  0  0  0
    1.3607   -1.3864    2.4396 C   0  0  0  0  0  0  0  0  0  0  0  0
    1.0307   -2.0171    3.6501 C   0  0  0  0  0  0  0  0  0  0  0  0
   -0.4131   -2.1657    4.0719 C   0  0  0  0  0  0  0  0  0  0  0  0
   -1.3047   -1.6307    3.1931 F   0  0  0  0  0  0  0  0  0  0  0  0
   -0.7727   -3.4718    4.2153 F   0  0  0  0  0  0  0  0  0  0  0  0
   -0.6687   -1.5747    5.2714 F   0  0  0  0  0  0  0  0  0  0  0  0
    2.0633   -2.5182    4.4536 C   0  0  0  0  0  0  0  0  0  0  0  0
    3.3949   -2.3952    4.0495 C   0  0  0  0  0  0  0  0  0  0  0  0
    3.7067   -1.7660    2.8407 C   0  0  0  0  0  0  0  0  0  0  0  0
    5.3717   -1.6311    2.3901 Cl  0  0  0  0  0  0  0  0  0  0  0  0
    3.5525    0.0353   -1.4490 H   0  0  0  0  0  0  0  0  0  0  0  0
    0.6413    2.3085   -0.8102 H   0  0  0  0  0  0  0  0  0  0  0  0
   -0.5461    3.4329   -2.5593 H   0  0  0  0  0  0  0  0  0  0  0  0
    0.9512    5.4305   -3.3159 H   0  0  0  0  0  0  0  0  0  0  0  0
   -0.3544    7.5004   -2.9562 H   0  0  0  0  0  0  0  0  0  0  0  0
   -3.3879    6.1572   -7.0839 H   0  0  0  0  0  0  0  0  0  0  0  0
   -5.0456    7.4220   -7.8780 H   0  0  0  0  0  0  0  0  0  0  0  0
   -5.4940    9.7763   -8.6074 H   0  0  0  0  0  0  0  0  0  0  0  0
   -4.6040   10.4154   -7.1551 H   0  0  0  0  0  0  0  0  0  0  0  0
   -7.1155    8.5948   -7.0848 H   0  0  0  0  0  0  0  0  0  0  0  0
   -6.2128    9.2390   -5.6390 H   0  0  0  0  0  0  0  0  0  0  0  0
   -1.7346    4.4913   -6.5601 H   0  0  0  0  0  0  0  0  0  0  0  0
    2.3205    2.0349   -5.4568 H   0  0  0  0  0  0  0  0  0  0  0  0
    3.4651    0.7524   -3.6914 H   0  0  0  0  0  0  0  0  0  0  0  0
    4.0266   -0.6067    0.5736 H   0  0  0  0  0  0  0  0  0  0  0  0
    0.5415   -1.0270    1.8195 H   0  0  0  0  0  0  0  0  0  0  0  0
    1.8303   -3.0123    5.3961 H   0  0  0  0  0  0  0  0  0  0  0  0
    4.1852   -2.7911    4.6829 H   0  0  0  0  0  0  0  0  0  0  0  0
  1  2  2  0  0  0  0
  2  3  1  0  0  0  0
  2 23  1  0  0  0  0
  3  4  1  0  0  0  0
  3 35  1  0  0  0  0
  4  5  1  0  0  0  0
  4 22  2  0  0  0  0
  5  6  2  0  0  0  0
  5 36  1  0  0  0  0
  6  7  1  0  0  0  0
  6 37  1  0  0  0  0
  7  8  1  0  0  0  0
  7 21  2  0  0  0  0
  8  9  1  0  0  0  0
  9 10  1  0  0  0  0
  9 20  2  0  0  0  0
 10 11  2  0  0  0  0
 10 38  1  0  0  0  0
 11 12  1  0  0  0  0
 11 39  1  0  0  0  0
 12 13  2  0  0  0  0
 13 14  1  0  0  0  0
 13 20  1  0  0  0  0
 14 15  1  0  0  0  0
 14 40  1  0  0  0  0
 15 16  2  0  0  0  0
 15 17  1  0  0  0  0
 17 18  1  0  0  0  0
 17 19  1  0  0  0  0
 17 41  1  0  0  0  0
 18 19  1  0  0  0  0
 18 42  1  0  0  0  0
 18 43  1  0  0  0  0
 19 44  1  0  0  0  0
 19 45  1  0  0  0  0
 20 46  1  0  0  0  0
 21 22  1  0  0  0  0
 21 47  1  0  0  0  0
 22 48  1  0  0  0  0
 23 24  1  0  0  0  0
 23 49  1  0  0  0  0
 24 25  1  0  0  0  0
 24 33  2  0  0  0  0
 25 26  2  0  0  0  0
 25 50  1  0  0  0  0
 26 27  1  0  0  0  0
 26 31  1  0  0  0  0
 27 28  1  0  0  0  0
 27 29  1  0  0  0  0
 27 30  1  0  0  0  0
 31 32  2  0  0  0  0
 31 51  1  0  0  0  0
 32 33  1  0  0  0  0
 32 52  1  0  0  0  0
 33 34  1  0  0  0  0
M  END
$$$$
