CHEMBL2032023
 OpenBabel04072215363D

 67 71  0  0  0  0  0  0  0  0999 V2000
    6.1391    3.9417   -1.2066 C   0  0  0  0  0  0  0  0  0  0  0  0
    5.6569    4.0893    0.0429 C   0  0  0  0  0  0  0  0  0  0  0  0
    5.2873    5.4657    0.5283 C   0  0  0  0  0  0  0  0  0  0  0  0
    5.4077    2.9550    1.0357 C   0  0  0  0  0  0  0  0  0  0  0  0
    5.6710    1.6370    0.4266 N   0  0  0  0  0  0  0  0  0  0  0  0
    6.8722    0.9283    0.5675 C   0  0  0  0  0  0  0  0  0  0  0  0
    8.1849    1.6226    0.7577 C   0  0  0  0  0  0  0  0  0  0  0  0
    6.6967   -0.4067    0.4905 C   0  0  0  0  0  0  0  0  0  0  0  0
    7.7336   -1.4733    0.4811 C   0  0  0  0  0  0  0  0  0  0  0  0
    8.9170   -1.1943    0.6439 O   0  0  0  0  0  0  0  0  0  0  0  0
    7.2320   -2.7419    0.2619 N   0  0  0  0  0  0  0  0  0  0  0  0
    7.9429   -3.9539    0.1136 C   0  0  0  0  0  0  0  0  0  0  0  0
    9.3368   -4.0695    0.1042 C   0  0  0  0  0  0  0  0  0  0  0  0
    9.9525   -5.3110   -0.1446 C   0  0  0  0  0  0  0  0  0  0  0  0
    9.1793   -6.4499   -0.3785 C   0  0  0  0  0  0  0  0  0  0  0  0
    9.8480   -7.6159   -0.6965 O   0  0  0  0  0  0  0  0  0  0  0  0
    9.3408   -8.4386   -1.6953 C   0  0  0  0  0  0  0  0  0  0  0  0
    8.5493   -7.9529   -2.7361 C   0  0  0  0  0  0  0  0  0  0  0  0
    8.0086   -8.8576   -3.6232 C   0  0  0  0  0  0  0  0  0  0  0  0
    8.2627  -10.1783   -3.5923 N   0  0  0  0  0  0  0  0  0  0  0  0
    9.1021  -10.6401   -2.6527 C   0  0  0  0  0  0  0  0  0  0  0  0
    9.4124  -11.9914   -2.6757 C   0  0  0  0  0  0  0  0  0  0  0  0
   10.2986  -12.5701   -1.7673 C   0  0  0  0  0  0  0  0  0  0  0  0
   10.5042  -13.9089   -1.9555 O   0  0  0  0  0  0  0  0  0  0  0  0
   11.4527  -14.5485   -1.1145 C   0  0  0  0  0  0  0  0  0  0  0  0
   10.8824  -11.7691   -0.7923 C   0  0  0  0  0  0  0  0  0  0  0  0
   10.5703  -10.4038   -0.7353 C   0  0  0  0  0  0  0  0  0  0  0  0
    9.6784   -9.8142   -1.6654 C   0  0  0  0  0  0  0  0  0  0  0  0
    7.7931   -6.3467   -0.2556 C   0  0  0  0  0  0  0  0  0  0  0  0
    7.0081   -7.4272   -0.3757 F   0  0  0  0  0  0  0  0  0  0  0  0
    7.1776   -5.1118   -0.0533 C   0  0  0  0  0  0  0  0  0  0  0  0
    5.2241   -0.5984    0.3787 C   0  0  0  0  0  0  0  0  0  0  0  0
    4.7117   -1.6981    0.2133 O   0  0  0  0  0  0  0  0  0  0  0  0
    4.6294    0.6724    0.4258 N   0  0  0  0  0  0  0  0  0  0  0  0
    3.3541    0.9301   -0.1399 C   0  0  0  0  0  0  0  0  0  0  0  0
    2.2502    0.1552    0.2353 C   0  0  0  0  0  0  0  0  0  0  0  0
    0.9786    0.4344   -0.2811 C   0  0  0  0  0  0  0  0  0  0  0  0
    0.8010    1.4749   -1.1913 C   0  0  0  0  0  0  0  0  0  0  0  0
    1.8936    2.2333   -1.5921 C   0  0  0  0  0  0  0  0  0  0  0  0
    3.1585    1.9599   -1.0665 C   0  0  0  0  0  0  0  0  0  0  0  0
    6.2692    4.7864   -1.8754 H   0  0  0  0  0  0  0  0  0  0  0  0
    6.4022    2.9676   -1.6095 H   0  0  0  0  0  0  0  0  0  0  0  0
    5.1159    6.1544   -0.3076 H   0  0  0  0  0  0  0  0  0  0  0  0
    6.0892    5.8765    1.1490 H   0  0  0  0  0  0  0  0  0  0  0  0
    4.3641    5.4437    1.1158 H   0  0  0  0  0  0  0  0  0  0  0  0
    4.3698    3.0154    1.3877 H   0  0  0  0  0  0  0  0  0  0  0  0
    6.0358    3.1005    1.9240 H   0  0  0  0  0  0  0  0  0  0  0  0
    8.0962    2.7105    0.7056 H   0  0  0  0  0  0  0  0  0  0  0  0
    8.8980    1.3284   -0.0176 H   0  0  0  0  0  0  0  0  0  0  0  0
    8.6024    1.3821    1.7414 H   0  0  0  0  0  0  0  0  0  0  0  0
    6.2171   -2.8121    0.1666 H   0  0  0  0  0  0  0  0  0  0  0  0
    9.9785   -3.2066    0.2618 H   0  0  0  0  0  0  0  0  0  0  0  0
   11.0381   -5.3732   -0.1751 H   0  0  0  0  0  0  0  0  0  0  0  0
    8.3158   -6.9023   -2.8522 H   0  0  0  0  0  0  0  0  0  0  0  0
    7.3289   -8.5351   -4.4063 H   0  0  0  0  0  0  0  0  0  0  0  0
    8.9524  -12.6165   -3.4380 H   0  0  0  0  0  0  0  0  0  0  0  0
   11.4855  -15.6054   -1.3939 H   0  0  0  0  0  0  0  0  0  0  0  0
   11.1508  -14.4925   -0.0632 H   0  0  0  0  0  0  0  0  0  0  0  0
   12.4544  -14.1332   -1.2626 H   0  0  0  0  0  0  0  0  0  0  0  0
   11.5867  -12.1706   -0.0707 H   0  0  0  0  0  0  0  0  0  0  0  0
   11.0413   -9.7923    0.0313 H   0  0  0  0  0  0  0  0  0  0  0  0
    6.0922   -5.0788   -0.0378 H   0  0  0  0  0  0  0  0  0  0  0  0
    2.3577   -0.6527    0.9549 H   0  0  0  0  0  0  0  0  0  0  0  0
    0.1243   -0.1615    0.0291 H   0  0  0  0  0  0  0  0  0  0  0  0
   -0.1844    1.6886   -1.5964 H   0  0  0  0  0  0  0  0  0  0  0  0
    1.7749    3.0321   -2.3191 H   0  0  0  0  0  0  0  0  0  0  0  0
    3.9933    2.5313   -1.4405 H   0  0  0  0  0  0  0  0  0  0  0  0
  1  2  2  0  0  0  0
  1 41  1  0  0  0  0
  1 42  1  0  0  0  0
  2  3  1  0  0  0  0
  2  4  1  0  0  0  0
  3 43  1  0  0  0  0
  3 44  1  0  0  0  0
  3 45  1  0  0  0  0
  4  5  1  0  0  0  0
  4 46  1  0  0  0  0
  4 47  1  0  0  0  0
  5  6  1  0  0  0  0
  5 34  1  0  0  0  0
  6  7  1  0  0  0  0
  6  8  2  0  0  0  0
  7 48  1  0  0  0  0
  7 49  1  0  0  0  0
  7 50  1  0  0  0  0
  8  9  1  0  0  0  0
  8 32  1  0  0  0  0
  9 10  2  0  0  0  0
  9 11  1  0  0  0  0
 11 12  1  0  0  0  0
 11 51  1  0  0  0  0
 12 13  1  0  0  0  0
 12 31  2  0  0  0  0
 13 14  2  0  0  0  0
 13 52  1  0  0  0  0
 14 15  1  0  0  0  0
 14 53  1  0  0  0  0
 15 16  1  0  0  0  0
 15 29  2  0  0  0  0
 16 17  1  0  0  0  0
 17 18  1  0  0  0  0
 17 28  2  0  0  0  0
 18 19  2  0  0  0  0
 18 54  1  0  0  0  0
 19 20  1  0  0  0  0
 19 55  1  0  0  0  0
 20 21  2  0  0  0  0
 21 22  1  0  0  0  0
 21 28  1  0  0  0  0
 22 23  2  0  0  0  0
 22 56  1  0  0  0  0
 23 24  1  0  0  0  0
 23 26  1  0  0  0  0
 24 25  1  0  0  0  0
 25 57  1  0  0  0  0
 25 58  1  0  0  0  0
 25 59  1  0  0  0  0
 26 27  2  0  0  0  0
 26 60  1  0  0  0  0
 27 28  1  0  0  0  0
 27 61  1  0  0  0  0
 29 30  1  0  0  0  0
 29 31  1  0  0  0  0
 31 62  1  0  0  0  0
 32 33  2  0  0  0  0
 32 34  1  0  0  0  0
 34 35  1  0  0  0  0
 35 36  1  0  0  0  0
 35 40  2  0  0  0  0
 36 37  2  0  0  0  0
 36 63  1  0  0  0  0
 37 38  1  0  0  0  0
 37 64  1  0  0  0  0
 38 39  2  0  0  0  0
 38 65  1  0  0  0  0
 39 40  1  0  0  0  0
 39 66  1  0  0  0  0
 40 67  1  0  0  0  0
M  END
$$$$
