CHEMBL205089
 OpenBabel04072215363D

 57 60  0  0  0  0  0  0  0  0999 V2000
    9.7778   -2.9808   -4.1073 C   0  0  0  0  0  0  0  0  0  0  0  0
    9.8965   -1.8058   -4.9176 O   0  0  0  0  0  0  0  0  0  0  0  0
    8.8629   -0.9112   -4.8184 C   0  0  0  0  0  0  0  0  0  0  0  0
    8.1351   -0.7812   -3.6233 C   0  0  0  0  0  0  0  0  0  0  0  0
    6.9922   -0.0115   -3.5287 C   0  0  0  0  0  0  0  0  0  0  0  0
    6.2908   -0.0570   -2.3872 N   0  0  0  0  0  0  0  0  0  0  0  0
    5.1397    0.6103   -2.3586 C   0  0  0  0  0  0  0  0  0  0  0  0
    4.6294    1.3327   -3.3545 N   0  0  0  0  0  0  0  0  0  0  0  0
    5.3902    1.4309   -4.4682 C   0  0  0  0  0  0  0  0  0  0  0  0
    4.9216    2.2244   -5.5239 O   0  0  0  0  0  0  0  0  0  0  0  0
    4.0117    3.2116   -5.2017 C   0  0  0  0  0  0  0  0  0  0  0  0
    4.1824    4.0299   -4.0895 C   0  0  0  0  0  0  0  0  0  0  0  0
    3.1828    4.9234   -3.7101 C   0  0  0  0  0  0  0  0  0  0  0  0
    2.0156    5.0628   -4.4612 C   0  0  0  0  0  0  0  0  0  0  0  0
    0.9468    5.9044   -4.0594 N   0  0  0  0  0  0  0  0  0  0  0  0
    0.8901    6.6362   -2.8887 C   0  0  0  0  0  0  0  0  0  0  0  0
    1.7452    6.6721   -2.0117 O   0  0  0  0  0  0  0  0  0  0  0  0
   -0.2463    7.4123   -2.7941 N   0  0  0  0  0  0  0  0  0  0  0  0
   -0.4207    8.2828   -1.6296 C   0  0  0  0  0  0  0  0  0  0  0  0
   -1.1040    7.5458   -0.4672 C   0  0  0  0  0  0  0  0  0  0  0  0
   -1.3475    8.4690    0.7274 C   0  0  0  0  0  0  0  0  0  0  0  0
   -2.1050    9.7300    0.3224 C   0  0  0  0  0  0  0  0  0  0  0  0
   -1.3930   10.4650   -0.8086 C   0  0  0  0  0  0  0  0  0  0  0  0
   -1.1784    9.5547   -2.0163 C   0  0  0  0  0  0  0  0  0  0  0  0
    1.9032    4.3281   -5.6533 C   0  0  0  0  0  0  0  0  0  0  0  0
    2.9003    3.4047   -6.0225 C   0  0  0  0  0  0  0  0  0  0  0  0
    6.5955    0.7428   -4.6344 C   0  0  0  0  0  0  0  0  0  0  0  0
    7.3980    0.7374   -5.7957 C   0  0  0  0  0  0  0  0  0  0  0  0
    8.5158   -0.1037   -5.9085 C   0  0  0  0  0  0  0  0  0  0  0  0
    9.0889   -0.0106   -7.1447 O   0  0  0  0  0  0  0  0  0  0  0  0
   10.1198   -0.9050   -7.5268 C   0  0  0  0  0  0  0  0  0  0  0  0
   10.2036   -3.8236   -4.6588 H   0  0  0  0  0  0  0  0  0  0  0  0
    8.7398   -3.2515   -3.8742 H   0  0  0  0  0  0  0  0  0  0  0  0
   10.3494   -2.8478   -3.1830 H   0  0  0  0  0  0  0  0  0  0  0  0
    8.4364   -1.3234   -2.7296 H   0  0  0  0  0  0  0  0  0  0  0  0
    4.5576    0.5546   -1.4418 H   0  0  0  0  0  0  0  0  0  0  0  0
    5.0619    3.9406   -3.4588 H   0  0  0  0  0  0  0  0  0  0  0  0
    3.3559    5.4755   -2.7953 H   0  0  0  0  0  0  0  0  0  0  0  0
    0.1518    5.9635   -4.6774 H   0  0  0  0  0  0  0  0  0  0  0  0
   -1.0765    7.0864   -3.2646 H   0  0  0  0  0  0  0  0  0  0  0  0
    0.5765    8.5914   -1.2871 H   0  0  0  0  0  0  0  0  0  0  0  0
   -0.4906    6.6954   -0.1447 H   0  0  0  0  0  0  0  0  0  0  0  0
   -2.0615    7.1276   -0.8027 H   0  0  0  0  0  0  0  0  0  0  0  0
   -0.3855    8.7511    1.1738 H   0  0  0  0  0  0  0  0  0  0  0  0
   -1.9105    7.9341    1.5008 H   0  0  0  0  0  0  0  0  0  0  0  0
   -2.2079   10.3944    1.1879 H   0  0  0  0  0  0  0  0  0  0  0  0
   -3.1191    9.4612    0.0025 H   0  0  0  0  0  0  0  0  0  0  0  0
   -0.4241   10.8337   -0.4493 H   0  0  0  0  0  0  0  0  0  0  0  0
   -1.9772   11.3423   -1.1068 H   0  0  0  0  0  0  0  0  0  0  0  0
   -0.6147   10.0994   -2.7838 H   0  0  0  0  0  0  0  0  0  0  0  0
   -2.1470    9.2962   -2.4608 H   0  0  0  0  0  0  0  0  0  0  0  0
    1.0360    4.4405   -6.2971 H   0  0  0  0  0  0  0  0  0  0  0  0
    2.7874    2.8189   -6.9316 H   0  0  0  0  0  0  0  0  0  0  0  0
    7.1233    1.3594   -6.6465 H   0  0  0  0  0  0  0  0  0  0  0  0
   10.2088   -0.8394   -8.6169 H   0  0  0  0  0  0  0  0  0  0  0  0
    9.8835   -1.9474   -7.2983 H   0  0  0  0  0  0  0  0  0  0  0  0
   11.0776   -0.5961   -7.0983 H   0  0  0  0  0  0  0  0  0  0  0  0
  1  2  1  0  0  0  0
  1 32  1  0  0  0  0
  1 33  1  0  0  0  0
  1 34  1  0  0  0  0
  2  3  1  0  0  0  0
  3  4  1  0  0  0  0
  3 29  2  0  0  0  0
  4  5  2  0  0  0  0
  4 35  1  0  0  0  0
  5  6  1  0  0  0  0
  5 27  1  0  0  0  0
  6  7  2  0  0  0  0
  7  8  1  0  0  0  0
  7 36  1  0  0  0  0
  8  9  2  0  0  0  0
  9 10  1  0  0  0  0
  9 27  1  0  0  0  0
 10 11  1  0  0  0  0
 11 12  1  0  0  0  0
 11 26  2  0  0  0  0
 12 13  2  0  0  0  0
 12 37  1  0  0  0  0
 13 14  1  0  0  0  0
 13 38  1  0  0  0  0
 14 15  1  0  0  0  0
 14 25  2  0  0  0  0
 15 16  1  0  0  0  0
 15 39  1  0  0  0  0
 16 17  2  0  0  0  0
 16 18  1  0  0  0  0
 18 19  1  0  0  0  0
 18 40  1  0  0  0  0
 19 20  1  0  0  0  0
 19 24  1  0  0  0  0
 19 41  1  0  0  0  0
 20 21  1  0  0  0  0
 20 42  1  0  0  0  0
 20 43  1  0  0  0  0
 21 22  1  0  0  0  0
 21 44  1  0  0  0  0
 21 45  1  0  0  0  0
 22 23  1  0  0  0  0
 22 46  1  0  0  0  0
 22 47  1  0  0  0  0
 23 24  1  0  0  0  0
 23 48  1  0  0  0  0
 23 49  1  0  0  0  0
 24 50  1  0  0  0  0
 24 51  1  0  0  0  0
 25 26  1  0  0  0  0
 25 52  1  0  0  0  0
 26 53  1  0  0  0  0
 27 28  2  0  0  0  0
 28 29  1  0  0  0  0
 28 54  1  0  0  0  0
 29 30  1  0  0  0  0
 30 31  1  0  0  0  0
 31 55  1  0  0  0  0
 31 56  1  0  0  0  0
 31 57  1  0  0  0  0
M  END
$$$$
