CHEMBL270506
 OpenBabel04072215363D

 45 48  0  0  0  0  0  0  0  0999 V2000
    0.4907    1.7528    2.5036 C   0  0  0  0  0  0  0  0  0  0  0  0
   -0.3946    0.6466    1.9983 C   0  0  0  0  0  0  0  0  0  0  0  0
   -1.7702    0.8688    1.9375 C   0  0  0  0  0  0  0  0  0  0  0  0
   -2.6354   -0.1311    1.4810 C   0  0  0  0  0  0  0  0  0  0  0  0
   -2.1502   -1.3791    1.0661 C   0  0  0  0  0  0  0  0  0  0  0  0
   -3.0004   -2.4089    0.6030 N   0  0  0  0  0  0  0  0  0  0  0  0
   -4.3602   -2.3081    0.3864 C   0  0  0  0  0  0  0  0  0  0  0  0
   -5.0001   -1.2637    0.4771 O   0  0  0  0  0  0  0  0  0  0  0  0
   -4.9503   -3.5259    0.0748 N   0  0  0  0  0  0  0  0  0  0  0  0
   -6.3448   -3.5889   -0.1598 C   0  0  0  0  0  0  0  0  0  0  0  0
   -6.9963   -2.6362   -0.9460 C   0  0  0  0  0  0  0  0  0  0  0  0
   -8.3945   -2.6104   -1.0244 C   0  0  0  0  0  0  0  0  0  0  0  0
   -9.1817   -3.5517   -0.3444 C   0  0  0  0  0  0  0  0  0  0  0  0
  -10.6601   -3.4864   -0.3725 C   0  0  0  0  0  0  0  0  0  0  0  0
  -11.3620   -3.1146   -1.5504 C   0  0  0  0  0  0  0  0  0  0  0  0
  -12.7583   -3.1161   -1.6306 C   0  0  0  0  0  0  0  0  0  0  0  0
  -13.5322   -3.5187   -0.5470 C   0  0  0  0  0  0  0  0  0  0  0  0
  -12.8394   -3.8436    0.6149 C   0  0  0  0  0  0  0  0  0  0  0  0
  -13.4206   -4.2383    1.7760 O   0  0  0  0  0  0  0  0  0  0  0  0
  -12.4528   -4.4054    2.7432 N   0  0  0  0  0  0  0  0  0  0  0  0
  -11.2950   -4.0957    2.1562 C   0  0  0  0  0  0  0  0  0  0  0  0
  -10.1321   -4.0298    2.8372 N   0  0  0  0  0  0  0  0  0  0  0  0
  -11.4588   -3.8037    0.7644 C   0  0  0  0  0  0  0  0  0  0  0  0
   -8.4935   -4.5725    0.3401 C   0  0  0  0  0  0  0  0  0  0  0  0
   -7.0942   -4.5887    0.4476 C   0  0  0  0  0  0  0  0  0  0  0  0
   -0.7724   -1.6037    1.1281 C   0  0  0  0  0  0  0  0  0  0  0  0
    0.0962   -0.5989    1.5915 C   0  0  0  0  0  0  0  0  0  0  0  0
    1.7862   -0.9537    1.6435 Cl  0  0  0  0  0  0  0  0  0  0  0  0
   -0.0950    2.6407    2.7704 H   0  0  0  0  0  0  0  0  0  0  0  0
    1.2054    2.0563    1.7328 H   0  0  0  0  0  0  0  0  0  0  0  0
    1.0253    1.4363    3.4046 H   0  0  0  0  0  0  0  0  0  0  0  0
   -2.1984    1.8222    2.2426 H   0  0  0  0  0  0  0  0  0  0  0  0
   -3.6880    0.1138    1.4732 H   0  0  0  0  0  0  0  0  0  0  0  0
   -2.5565   -3.2656    0.2886 H   0  0  0  0  0  0  0  0  0  0  0  0
   -4.5371   -4.3209    0.5437 H   0  0  0  0  0  0  0  0  0  0  0  0
   -6.4288   -1.8731   -1.4735 H   0  0  0  0  0  0  0  0  0  0  0  0
   -8.8527   -1.8142   -1.6086 H   0  0  0  0  0  0  0  0  0  0  0  0
  -10.8075   -2.8290   -2.4436 H   0  0  0  0  0  0  0  0  0  0  0  0
  -13.2455   -2.8172   -2.5566 H   0  0  0  0  0  0  0  0  0  0  0  0
  -14.6141   -3.5566   -0.5902 H   0  0  0  0  0  0  0  0  0  0  0  0
  -10.2069   -4.0433    3.8494 H   0  0  0  0  0  0  0  0  0  0  0  0
   -9.4124   -3.3918    2.5096 H   0  0  0  0  0  0  0  0  0  0  0  0
   -9.0477   -5.3594    0.8496 H   0  0  0  0  0  0  0  0  0  0  0  0
   -6.6269   -5.3448    1.0706 H   0  0  0  0  0  0  0  0  0  0  0  0
   -0.3568   -2.5599    0.8218 H   0  0  0  0  0  0  0  0  0  0  0  0
  1  2  1  0  0  0  0
  1 29  1  0  0  0  0
  1 30  1  0  0  0  0
  1 31  1  0  0  0  0
  2  3  1  0  0  0  0
  2 27  2  0  0  0  0
  3  4  2  0  0  0  0
  3 32  1  0  0  0  0
  4  5  1  0  0  0  0
  4 33  1  0  0  0  0
  5  6  1  0  0  0  0
  5 26  2  0  0  0  0
  6  7  1  0  0  0  0
  6 34  1  0  0  0  0
  7  8  2  0  0  0  0
  7  9  1  0  0  0  0
  9 10  1  0  0  0  0
  9 35  1  0  0  0  0
 10 11  1  0  0  0  0
 10 25  2  0  0  0  0
 11 12  2  0  0  0  0
 11 36  1  0  0  0  0
 12 13  1  0  0  0  0
 12 37  1  0  0  0  0
 13 14  1  0  0  0  0
 13 24  2  0  0  0  0
 14 15  1  0  0  0  0
 14 23  2  0  0  0  0
 15 16  2  0  0  0  0
 15 38  1  0  0  0  0
 16 17  1  0  0  0  0
 16 39  1  0  0  0  0
 17 18  2  0  0  0  0
 17 40  1  0  0  0  0
 18 19  1  0  0  0  0
 18 23  1  0  0  0  0
 19 20  1  0  0  0  0
 20 21  2  0  0  0  0
 21 22  1  0  0  0  0
 21 23  1  0  0  0  0
 22 41  1  0  0  0  0
 22 42  1  0  0  0  0
 24 25  1  0  0  0  0
 24 43  1  0  0  0  0
 25 44  1  0  0  0  0
 26 27  1  0  0  0  0
 26 45  1  0  0  0  0
 27 28  1  0  0  0  0
M  END
$$$$
