CHEMBL2349000
 OpenBabel04072215363D

 49 53  0  0  0  0  0  0  0  0999 V2000
    2.1013    0.7531   -0.7456 C   0  0  0  0  0  0  0  0  0  0  0  0
    1.0349   -0.2744   -0.6695 C   0  0  0  0  0  0  0  0  0  0  0  0
   -0.3554   -0.1250   -0.8550 C   0  0  0  0  0  0  0  0  0  0  0  0
   -0.8684   -1.3862   -0.6530 C   0  0  0  0  0  0  0  0  0  0  0  0
   -2.2149   -1.9122   -0.6692 C   0  0  0  0  0  0  0  0  0  0  0  0
   -3.1693   -1.1781   -0.8911 O   0  0  0  0  0  0  0  0  0  0  0  0
   -2.3136   -3.2799   -0.3678 N   0  0  0  0  0  0  0  0  0  0  0  0
   -3.5262   -4.0091   -0.3111 C   0  0  0  0  0  0  0  0  0  0  0  0
   -4.6939   -3.5249   -0.9053 C   0  0  0  0  0  0  0  0  0  0  0  0
   -5.9042   -4.1898   -0.7808 C   0  0  0  0  0  0  0  0  0  0  0  0
   -5.9616   -5.3781   -0.0642 C   0  0  0  0  0  0  0  0  0  0  0  0
   -4.7943   -5.9328    0.4639 C   0  0  0  0  0  0  0  0  0  0  0  0
   -4.8441   -7.1340    1.2337 O   0  0  0  0  0  0  0  0  0  0  0  0
   -5.7516   -8.1489    0.9150 C   0  0  0  0  0  0  0  0  0  0  0  0
   -6.0412   -8.9893    2.1067 C   0  0  0  0  0  0  0  0  0  0  0  0
   -6.8489  -10.0497    1.9165 C   0  0  0  0  0  0  0  0  0  0  0  0
   -7.3853  -10.2780    0.6310 C   0  0  0  0  0  0  0  0  0  0  0  0
   -8.1864  -11.2164    0.1848 N   0  0  0  0  0  0  0  0  0  0  0  0
   -8.4025  -10.9271   -1.1326 C   0  0  0  0  0  0  0  0  0  0  0  0
   -9.2154  -11.6829   -1.9508 N   0  0  0  0  0  0  0  0  0  0  0  0
   -9.8805  -12.8112   -1.5106 C   0  0  0  0  0  0  0  0  0  0  0  0
   -9.8532  -13.3009   -0.3919 O   0  0  0  0  0  0  0  0  0  0  0  0
  -10.6846  -13.5002   -2.5750 C   0  0  0  0  0  0  0  0  0  0  0  0
  -11.6983  -14.5643   -2.1957 C   0  0  0  0  0  0  0  0  0  0  0  0
  -10.4094  -14.9636   -2.8508 C   0  0  0  0  0  0  0  0  0  0  0  0
   -7.7094   -9.7983   -1.5046 C   0  0  0  0  0  0  0  0  0  0  0  0
   -7.0542   -9.3881   -0.3702 N   0  0  0  0  0  0  0  0  0  0  0  0
   -6.2296   -8.3105   -0.2841 N   0  0  0  0  0  0  0  0  0  0  0  0
   -3.5732   -5.2463    0.3579 C   0  0  0  0  0  0  0  0  0  0  0  0
    0.1610   -2.2350   -0.3741 O   0  0  0  0  0  0  0  0  0  0  0  0
    1.3507   -1.5409   -0.3826 N   0  0  0  0  0  0  0  0  0  0  0  0
    1.6838    1.7387   -0.9722 H   0  0  0  0  0  0  0  0  0  0  0  0
    2.8236    0.5022   -1.5295 H   0  0  0  0  0  0  0  0  0  0  0  0
    2.6374    0.8241    0.2069 H   0  0  0  0  0  0  0  0  0  0  0  0
   -0.8997    0.7847   -1.0914 H   0  0  0  0  0  0  0  0  0  0  0  0
   -1.4676   -3.7468   -0.0567 H   0  0  0  0  0  0  0  0  0  0  0  0
   -4.6965   -2.6056   -1.4918 H   0  0  0  0  0  0  0  0  0  0  0  0
   -6.7986   -3.7751   -1.2395 H   0  0  0  0  0  0  0  0  0  0  0  0
   -6.9322   -5.8496    0.0680 H   0  0  0  0  0  0  0  0  0  0  0  0
   -5.6540   -8.7364    3.0849 H   0  0  0  0  0  0  0  0  0  0  0  0
   -7.1179  -10.7338    2.7117 H   0  0  0  0  0  0  0  0  0  0  0  0
   -9.3125  -11.3839   -2.9090 H   0  0  0  0  0  0  0  0  0  0  0  0
  -10.9576  -12.8858   -3.4264 H   0  0  0  0  0  0  0  0  0  0  0  0
  -12.6063  -14.6566   -2.7795 H   0  0  0  0  0  0  0  0  0  0  0  0
  -11.8276  -14.8017   -1.1445 H   0  0  0  0  0  0  0  0  0  0  0  0
  -10.4451  -15.3092   -3.8763 H   0  0  0  0  0  0  0  0  0  0  0  0
   -9.6759  -15.4728   -2.2338 H   0  0  0  0  0  0  0  0  0  0  0  0
   -7.6043   -9.2552   -2.4308 H   0  0  0  0  0  0  0  0  0  0  0  0
   -2.6887   -5.6565    0.8362 H   0  0  0  0  0  0  0  0  0  0  0  0
  1  2  1  0  0  0  0
  1 32  1  0  0  0  0
  1 33  1  0  0  0  0
  1 34  1  0  0  0  0
  2  3  1  0  0  0  0
  2 31  2  0  0  0  0
  3  4  2  0  0  0  0
  3 35  1  0  0  0  0
  4  5  1  0  0  0  0
  4 30  1  0  0  0  0
  5  6  2  0  0  0  0
  5  7  1  0  0  0  0
  7  8  1  0  0  0  0
  7 36  1  0  0  0  0
  8  9  1  0  0  0  0
  8 29  2  0  0  0  0
  9 10  2  0  0  0  0
  9 37  1  0  0  0  0
 10 11  1  0  0  0  0
 10 38  1  0  0  0  0
 11 12  2  0  0  0  0
 11 39  1  0  0  0  0
 12 13  1  0  0  0  0
 12 29  1  0  0  0  0
 13 14  1  0  0  0  0
 14 15  1  0  0  0  0
 14 28  2  0  0  0  0
 15 16  2  0  0  0  0
 15 40  1  0  0  0  0
 16 17  1  0  0  0  0
 16 41  1  0  0  0  0
 17 18  2  0  0  0  0
 17 27  1  0  0  0  0
 18 19  1  0  0  0  0
 19 20  1  0  0  0  0
 19 26  2  0  0  0  0
 20 21  1  0  0  0  0
 20 42  1  0  0  0  0
 21 22  2  0  0  0  0
 21 23  1  0  0  0  0
 23 24  1  0  0  0  0
 23 25  1  0  0  0  0
 23 43  1  0  0  0  0
 24 25  1  0  0  0  0
 24 44  1  0  0  0  0
 24 45  1  0  0  0  0
 25 46  1  0  0  0  0
 25 47  1  0  0  0  0
 26 27  1  0  0  0  0
 26 48  1  0  0  0  0
 27 28  1  0  0  0  0
 29 49  1  0  0  0  0
 30 31  1  0  0  0  0
M  END
$$$$
