CHEMBL4099089
 OpenBabel04072215383D

 41 44  0  0  1  0  0  0  0  0999 V2000
    2.4816   -1.8904   -0.0983 C   0  0  0  0  0  0  0  0  0  0  0  0
    2.5142   -0.3828    0.1837 C   0  0  2  0  0  0  0  0  0  0  0  0
    1.1771    0.1481    0.0055 N   0  0  0  0  0  0  0  0  0  0  0  0
    0.4512    0.6501    1.0627 C   0  0  0  0  0  0  0  0  0  0  0  0
    1.0898    1.1946    2.1299 N   0  0  0  0  0  0  0  0  0  0  0  0
    0.3802    1.7496    3.1233 C   0  0  0  0  0  0  0  0  0  0  0  0
    1.1031    2.3154    4.1588 N   0  0  0  0  0  0  0  0  0  0  0  0
   -0.9493    1.8588    3.1900 N   0  0  0  0  0  0  0  0  0  0  0  0
   -1.5565    1.2812    2.1458 C   0  0  0  0  0  0  0  0  0  0  0  0
   -2.9096    1.2110    1.9853 N   0  0  0  0  0  0  0  0  0  0  0  0
   -3.2217    0.5066    0.8457 C   0  0  0  0  0  0  0  0  0  0  0  0
   -4.4698    0.1512    0.3186 C   0  0  0  0  0  0  0  0  0  0  0  0
   -4.4892   -0.6061   -0.8567 C   0  0  0  0  0  0  0  0  0  0  0  0
   -3.3007   -0.9800   -1.4696 C   0  0  0  0  0  0  0  0  0  0  0  0
   -3.2960   -1.7312   -2.6098 O   0  0  0  0  0  0  0  0  0  0  0  0
   -2.0618   -0.6144   -0.9445 C   0  0  0  0  0  0  0  0  0  0  0  0
   -2.0109    0.1488    0.2414 C   0  0  0  0  0  0  0  0  0  0  0  0
   -0.9546    0.6594    1.0676 C   0  0  0  0  0  0  0  0  0  0  0  0
    3.4477    0.4024   -0.7219 C   0  0  0  0  0  0  0  0  0  0  0  0
    4.0812    1.5448   -0.2026 C   0  0  0  0  0  0  0  0  0  0  0  0
    4.9087    2.3338   -1.0022 C   0  0  0  0  0  0  0  0  0  0  0  0
    5.1083    1.9990   -2.3385 C   0  0  0  0  0  0  0  0  0  0  0  0
    4.4797    0.8774   -2.8738 C   0  0  0  0  0  0  0  0  0  0  0  0
    3.6505    0.0864   -2.0736 C   0  0  0  0  0  0  0  0  0  0  0  0
    3.4856   -2.3243   -0.0462 H   0  0  0  0  0  0  0  0  0  0  0  0
    2.0619   -2.1213   -1.0842 H   0  0  0  0  0  0  0  0  0  0  0  0
    1.8512   -2.4024    0.6380 H   0  0  0  0  0  0  0  0  0  0  0  0
    2.8704   -0.2754    1.2165 H   0  0  0  0  0  0  0  0  0  0  0  0
    0.6785   -0.1264   -0.8243 H   0  0  0  0  0  0  0  0  0  0  0  0
    2.0220    2.5611    3.8178 H   0  0  0  0  0  0  0  0  0  0  0  0
    0.5564    3.0517    4.5824 H   0  0  0  0  0  0  0  0  0  0  0  0
   -3.5722    1.5951    2.6414 H   0  0  0  0  0  0  0  0  0  0  0  0
   -5.3950    0.4389    0.8081 H   0  0  0  0  0  0  0  0  0  0  0  0
   -5.4477   -0.9014   -1.2727 H   0  0  0  0  0  0  0  0  0  0  0  0
   -4.2150   -1.9241   -2.8583 H   0  0  0  0  0  0  0  0  0  0  0  0
   -1.1596   -0.9442   -1.4463 H   0  0  0  0  0  0  0  0  0  0  0  0
    3.9100    1.8322    0.8335 H   0  0  0  0  0  0  0  0  0  0  0  0
    5.3840    3.2161   -0.5830 H   0  0  0  0  0  0  0  0  0  0  0  0
    5.7425    2.6191   -2.9653 H   0  0  0  0  0  0  0  0  0  0  0  0
    4.6239    0.6235   -3.9212 H   0  0  0  0  0  0  0  0  0  0  0  0
    3.1560   -0.7672   -2.5297 H   0  0  0  0  0  0  0  0  0  0  0  0
  1 25  1  0  0  0  0
  1 26  1  0  0  0  0
  1 27  1  0  0  0  0
  2 19  1  0  0  0  0
  2  3  1  0  0  0  0
  2  1  1  0  0  0  0
  2 28  1  1  0  0  0
  3  4  1  0  0  0  0
  3 29  1  0  0  0  0
  4  5  1  0  0  0  0
  4 18  2  0  0  0  0
  5  6  2  0  0  0  0
  6  7  1  0  0  0  0
  6  8  1  0  0  0  0
  7 30  1  0  0  0  0
  7 31  1  0  0  0  0
  8  9  2  0  0  0  0
  9 10  1  0  0  0  0
  9 18  1  0  0  0  0
 10 11  1  0  0  0  0
 10 32  1  0  0  0  0
 11 12  1  0  0  0  0
 11 17  2  0  0  0  0
 12 13  2  0  0  0  0
 12 33  1  0  0  0  0
 13 14  1  0  0  0  0
 13 34  1  0  0  0  0
 14 15  1  0  0  0  0
 14 16  2  0  0  0  0
 15 35  1  0  0  0  0
 16 17  1  0  0  0  0
 16 36  1  0  0  0  0
 17 18  1  0  0  0  0
 19 20  1  0  0  0  0
 19 24  2  0  0  0  0
 20 21  2  0  0  0  0
 20 37  1  0  0  0  0
 21 22  1  0  0  0  0
 21 38  1  0  0  0  0
 22 23  2  0  0  0  0
 22 39  1  0  0  0  0
 23 24  1  0  0  0  0
 23 40  1  0  0  0  0
 24 41  1  0  0  0  0
M  END
$$$$
