CHEMBL514499
 OpenBabel04072215383D

 51 54  0  0  0  0  0  0  0  0999 V2000
    8.2036   -2.0323   -3.7618 C   0  0  0  0  0  0  0  0  0  0  0  0
    7.7161   -1.4719   -4.9819 O   0  0  0  0  0  0  0  0  0  0  0  0
    6.9369   -0.3519   -4.8219 C   0  0  0  0  0  0  0  0  0  0  0  0
    6.1537   -0.1711   -3.6678 C   0  0  0  0  0  0  0  0  0  0  0  0
    5.5176    1.0554   -3.4457 C   0  0  0  0  0  0  0  0  0  0  0  0
    4.8468    1.4779   -2.3322 N   0  0  0  0  0  0  0  0  0  0  0  0
    4.5439    2.7282   -2.5856 C   0  0  0  0  0  0  0  0  0  0  0  0
    4.9247    3.1333   -3.8515 N   0  0  0  0  0  0  0  0  0  0  0  0
    4.7129    4.4067   -4.3756 C   0  0  0  0  0  0  0  0  0  0  0  0
    4.6437    5.5866   -3.6781 C   0  0  0  0  0  0  0  0  0  0  0  0
    4.3590    6.6844   -4.5491 C   0  0  0  0  0  0  0  0  0  0  0  0
    4.1880    7.9794   -4.1847 O   0  0  0  0  0  0  0  0  0  0  0  0
    5.1122    8.4711   -3.2111 C   0  0  0  0  0  0  0  0  0  0  0  0
    4.4444    9.6431   -2.5217 C   0  0  0  0  0  0  0  0  0  0  0  0
    4.1041    9.5009   -1.1613 C   0  0  0  0  0  0  0  0  0  0  0  0
    3.4197   10.5059   -0.4790 C   0  0  0  0  0  0  0  0  0  0  0  0
    3.0635   11.6733   -1.1406 C   0  0  0  0  0  0  0  0  0  0  0  0
    3.4037   11.8402   -2.4811 C   0  0  0  0  0  0  0  0  0  0  0  0
    4.0981   10.8387   -3.1925 C   0  0  0  0  0  0  0  0  0  0  0  0
    4.3965   11.1250   -4.6481 C   0  0  0  0  0  0  0  0  0  0  0  0
    5.0962   10.1582   -5.3015 F   0  0  0  0  0  0  0  0  0  0  0  0
    3.2591   11.2978   -5.3807 F   0  0  0  0  0  0  0  0  0  0  0  0
    5.1207   12.2667   -4.8136 F   0  0  0  0  0  0  0  0  0  0  0  0
    4.1174    6.2734   -5.8525 C   0  0  0  0  0  0  0  0  0  0  0  0
    3.6855    6.9993   -7.0343 C   0  0  0  0  0  0  0  0  0  0  0  0
    3.4803    8.3375   -6.8727 N   0  0  0  0  0  0  0  0  0  0  0  0
    3.4961    6.5141   -8.1413 O   0  0  0  0  0  0  0  0  0  0  0  0
    4.3959    4.5868   -6.0223 S   0  0  0  0  0  0  0  0  0  0  0  0
    5.5815    2.0484   -4.4156 C   0  0  0  0  0  0  0  0  0  0  0  0
    6.2889    1.8567   -5.6122 C   0  0  0  0  0  0  0  0  0  0  0  0
    6.9619    0.6417   -5.8125 C   0  0  0  0  0  0  0  0  0  0  0  0
    7.6706    0.6347   -6.9871 O   0  0  0  0  0  0  0  0  0  0  0  0
    7.8998   -0.6248   -7.6015 C   0  0  0  0  0  0  0  0  0  0  0  0
    9.0434   -2.6904   -3.9986 H   0  0  0  0  0  0  0  0  0  0  0  0
    7.4269   -2.6384   -3.2843 H   0  0  0  0  0  0  0  0  0  0  0  0
    8.5711   -1.2590   -3.0757 H   0  0  0  0  0  0  0  0  0  0  0  0
    6.0688   -0.9246   -2.8956 H   0  0  0  0  0  0  0  0  0  0  0  0
    4.0052    3.3806   -1.9116 H   0  0  0  0  0  0  0  0  0  0  0  0
    4.8107    5.6607   -2.6105 H   0  0  0  0  0  0  0  0  0  0  0  0
    6.0450    8.7902   -3.6911 H   0  0  0  0  0  0  0  0  0  0  0  0
    5.3828    7.7211   -2.4602 H   0  0  0  0  0  0  0  0  0  0  0  0
    4.3566    8.5904   -0.6199 H   0  0  0  0  0  0  0  0  0  0  0  0
    3.1540   10.3703    0.5665 H   0  0  0  0  0  0  0  0  0  0  0  0
    2.5169   12.4531   -0.6160 H   0  0  0  0  0  0  0  0  0  0  0  0
    3.1132   12.7613   -2.9870 H   0  0  0  0  0  0  0  0  0  0  0  0
    3.7092    8.8078   -6.0086 H   0  0  0  0  0  0  0  0  0  0  0  0
    3.2215    8.8814   -7.6831 H   0  0  0  0  0  0  0  0  0  0  0  0
    6.3762    2.6359   -6.3628 H   0  0  0  0  0  0  0  0  0  0  0  0
    8.0771   -0.4409   -8.6667 H   0  0  0  0  0  0  0  0  0  0  0  0
    7.0354   -1.2920   -7.5248 H   0  0  0  0  0  0  0  0  0  0  0  0
    8.8048   -1.0851   -7.1961 H   0  0  0  0  0  0  0  0  0  0  0  0
  1  2  1  0  0  0  0
  1 34  1  0  0  0  0
  1 35  1  0  0  0  0
  1 36  1  0  0  0  0
  2  3  1  0  0  0  0
  3  4  1  0  0  0  0
  3 31  2  0  0  0  0
  4  5  2  0  0  0  0
  4 37  1  0  0  0  0
  5  6  1  0  0  0  0
  5 29  1  0  0  0  0
  6  7  2  0  0  0  0
  7  8  1  0  0  0  0
  7 38  1  0  0  0  0
  8  9  1  0  0  0  0
  8 29  1  0  0  0  0
  9 10  2  0  0  0  0
  9 28  1  0  0  0  0
 10 11  1  0  0  0  0
 10 39  1  0  0  0  0
 11 12  1  0  0  0  0
 11 24  2  0  0  0  0
 12 13  1  0  0  0  0
 13 14  1  0  0  0  0
 13 40  1  0  0  0  0
 13 41  1  0  0  0  0
 14 15  1  0  0  0  0
 14 19  2  0  0  0  0
 15 16  2  0  0  0  0
 15 42  1  0  0  0  0
 16 17  1  0  0  0  0
 16 43  1  0  0  0  0
 17 18  2  0  0  0  0
 17 44  1  0  0  0  0
 18 19  1  0  0  0  0
 18 45  1  0  0  0  0
 19 20  1  0  0  0  0
 20 21  1  0  0  0  0
 20 22  1  0  0  0  0
 20 23  1  0  0  0  0
 24 25  1  0  0  0  0
 24 28  1  0  0  0  0
 25 26  1  0  0  0  0
 25 27  2  0  0  0  0
 26 46  1  0  0  0  0
 26 47  1  0  0  0  0
 29 30  2  0  0  0  0
 30 31  1  0  0  0  0
 30 48  1  0  0  0  0
 31 32  1  0  0  0  0
 32 33  1  0  0  0  0
 33 49  1  0  0  0  0
 33 50  1  0  0  0  0
 33 51  1  0  0  0  0
M  END
$$$$
