CHEMBL3963883
 OpenBabel04072215373D

 53 56  0  0  0  0  0  0  0  0999 V2000
    1.2832    0.8942   -0.5597 O   0  0  0  0  0  0  0  0  0  0  0  0
    2.3627    0.4059   -0.2267 C   0  0  0  0  0  0  0  0  0  0  0  0
    2.8723   -0.7572   -0.7594 N   0  0  0  0  0  0  0  0  0  0  0  0
    2.2069   -1.5690   -1.7187 C   0  0  0  0  0  0  0  0  0  0  0  0
    1.1086   -1.1241   -2.4669 C   0  0  0  0  0  0  0  0  0  0  0  0
    0.3811   -1.9987   -3.2808 C   0  0  0  0  0  0  0  0  0  0  0  0
    0.7595   -3.3333   -3.3876 C   0  0  0  0  0  0  0  0  0  0  0  0
   -0.0471   -4.1258   -4.1747 O   0  0  0  0  0  0  0  0  0  0  0  0
   -0.2785   -5.4413   -3.8315 C   0  0  0  0  0  0  0  0  0  0  0  0
   -0.2052   -5.9385   -2.5352 C   0  0  0  0  0  0  0  0  0  0  0  0
   -0.3658   -7.2945   -2.3631 C   0  0  0  0  0  0  0  0  0  0  0  0
   -0.6673   -8.1368   -3.3655 N   0  0  0  0  0  0  0  0  0  0  0  0
   -0.8188   -7.6493   -4.6073 C   0  0  0  0  0  0  0  0  0  0  0  0
   -1.1613   -8.5304   -5.6541 N   0  0  0  0  0  0  0  0  0  0  0  0
   -1.3064   -9.8922   -5.4826 C   0  0  0  0  0  0  0  0  0  0  0  0
   -1.1644  -10.5269   -4.4463 O   0  0  0  0  0  0  0  0  0  0  0  0
   -1.6612  -10.6983   -6.6907 C   0  0  0  0  0  0  0  0  0  0  0  0
   -0.6861  -10.7769   -7.8424 C   0  0  0  0  0  0  0  0  0  0  0  0
   -2.0545  -10.1932   -8.0514 C   0  0  0  0  0  0  0  0  0  0  0  0
   -0.6398   -6.2968   -4.8801 C   0  0  0  0  0  0  0  0  0  0  0  0
    1.9364   -3.7382   -2.7517 C   0  0  0  0  0  0  0  0  0  0  0  0
    2.4066   -4.9866   -2.9030 F   0  0  0  0  0  0  0  0  0  0  0  0
    2.6442   -2.8786   -1.9053 C   0  0  0  0  0  0  0  0  0  0  0  0
    3.1855    0.9755    0.7358 N   0  0  0  0  0  0  0  0  0  0  0  0
    2.8216    2.1002    1.5153 C   0  0  0  0  0  0  0  0  0  0  0  0
    1.4869    2.4722    1.7172 C   0  0  0  0  0  0  0  0  0  0  0  0
    1.1601    3.5968    2.4717 C   0  0  0  0  0  0  0  0  0  0  0  0
    2.1686    4.3554    3.0457 C   0  0  0  0  0  0  0  0  0  0  0  0
    1.8146    5.3713    3.8433 F   0  0  0  0  0  0  0  0  0  0  0  0
    3.5087    4.0304    2.8384 C   0  0  0  0  0  0  0  0  0  0  0  0
    4.5769    4.7122    3.3405 O   0  0  0  0  0  0  0  0  0  0  0  0
    4.5100    6.1343    3.4308 C   0  0  0  0  0  0  0  0  0  0  0  0
    3.4124    6.6891    2.8820 F   0  0  0  0  0  0  0  0  0  0  0  0
    4.6055    6.5036    4.7255 F   0  0  0  0  0  0  0  0  0  0  0  0
    5.5811    6.6411    2.7747 F   0  0  0  0  0  0  0  0  0  0  0  0
    3.8277    2.8697    2.1102 C   0  0  0  0  0  0  0  0  0  0  0  0
    3.6406   -1.1886   -0.2566 H   0  0  0  0  0  0  0  0  0  0  0  0
    0.7720   -0.0901   -2.4341 H   0  0  0  0  0  0  0  0  0  0  0  0
   -0.4933   -1.6272   -3.8120 H   0  0  0  0  0  0  0  0  0  0  0  0
    0.0116   -5.3171   -1.6761 H   0  0  0  0  0  0  0  0  0  0  0  0
   -0.2455   -7.7615   -1.3879 H   0  0  0  0  0  0  0  0  0  0  0  0
   -1.2762   -8.1373   -6.5727 H   0  0  0  0  0  0  0  0  0  0  0  0
   -2.1292  -11.6410   -6.4033 H   0  0  0  0  0  0  0  0  0  0  0  0
   -0.4720  -11.7643   -8.2385 H   0  0  0  0  0  0  0  0  0  0  0  0
    0.1649  -10.1070   -7.8502 H   0  0  0  0  0  0  0  0  0  0  0  0
   -2.7703  -10.7918   -8.6102 H   0  0  0  0  0  0  0  0  0  0  0  0
   -2.1426   -9.1347   -8.2446 H   0  0  0  0  0  0  0  0  0  0  0  0
   -0.7579   -5.9005   -5.8792 H   0  0  0  0  0  0  0  0  0  0  0  0
    3.5110   -3.2709   -1.3868 H   0  0  0  0  0  0  0  0  0  0  0  0
    4.1646    0.7306    0.6939 H   0  0  0  0  0  0  0  0  0  0  0  0
    0.6626    1.8875    1.3152 H   0  0  0  0  0  0  0  0  0  0  0  0
    0.1197    3.8715    2.6190 H   0  0  0  0  0  0  0  0  0  0  0  0
    4.8744    2.5992    1.9901 H   0  0  0  0  0  0  0  0  0  0  0  0
  1  2  2  0  0  0  0
  2  3  1  0  0  0  0
  2 24  1  0  0  0  0
  3  4  1  0  0  0  0
  3 37  1  0  0  0  0
  4  5  1  0  0  0  0
  4 23  2  0  0  0  0
  5  6  2  0  0  0  0
  5 38  1  0  0  0  0
  6  7  1  0  0  0  0
  6 39  1  0  0  0  0
  7  8  1  0  0  0  0
  7 21  2  0  0  0  0
  8  9  1  0  0  0  0
  9 10  1  0  0  0  0
  9 20  2  0  0  0  0
 10 11  2  0  0  0  0
 10 40  1  0  0  0  0
 11 12  1  0  0  0  0
 11 41  1  0  0  0  0
 12 13  2  0  0  0  0
 13 14  1  0  0  0  0
 13 20  1  0  0  0  0
 14 15  1  0  0  0  0
 14 42  1  0  0  0  0
 15 16  2  0  0  0  0
 15 17  1  0  0  0  0
 17 18  1  0  0  0  0
 17 19  1  0  0  0  0
 17 43  1  0  0  0  0
 18 19  1  0  0  0  0
 18 44  1  0  0  0  0
 18 45  1  0  0  0  0
 19 46  1  0  0  0  0
 19 47  1  0  0  0  0
 20 48  1  0  0  0  0
 21 22  1  0  0  0  0
 21 23  1  0  0  0  0
 23 49  1  0  0  0  0
 24 25  1  0  0  0  0
 24 50  1  0  0  0  0
 25 26  1  0  0  0  0
 25 36  2  0  0  0  0
 26 27  2  0  0  0  0
 26 51  1  0  0  0  0
 27 28  1  0  0  0  0
 27 52  1  0  0  0  0
 28 29  1  0  0  0  0
 28 30  2  0  0  0  0
 30 31  1  0  0  0  0
 30 36  1  0  0  0  0
 31 32  1  0  0  0  0
 32 33  1  0  0  0  0
 32 34  1  0  0  0  0
 32 35  1  0  0  0  0
 36 53  1  0  0  0  0
M  END
$$$$
