CHEMBL1974617
 OpenBabel04072215363D

 25 27  0  0  0  0  0  0  0  0999 V2000
    1.2463   -2.0191   -1.9111 O   0  0  0  0  0  0  0  0  0  0  0  0
    2.0665   -1.2336   -1.0428 C   0  0  0  0  0  0  0  0  0  0  0  0
    2.7791   -0.1503   -1.7689 C   0  0  0  0  0  0  0  0  0  0  0  0
    2.7029    0.1834   -3.1400 C   0  0  0  0  0  0  0  0  0  0  0  0
    3.5421    1.2613   -3.2902 C   0  0  0  0  0  0  0  0  0  0  0  0
    3.9260    2.1130   -4.4112 C   0  0  0  0  0  0  0  0  0  0  0  0
    4.8691    3.1426   -4.2549 C   0  0  0  0  0  0  0  0  0  0  0  0
    5.2385    3.9831   -5.3147 C   0  0  0  0  0  0  0  0  0  0  0  0
    4.6233    3.7555   -6.5467 C   0  0  0  0  0  0  0  0  0  0  0  0
    4.7452    4.3823   -7.7587 N   0  0  0  0  0  0  0  0  0  0  0  0
    3.9675    3.8643   -8.7265 N   0  0  0  0  0  0  0  0  0  0  0  0
    3.3260    2.8694   -8.1080 C   0  0  0  0  0  0  0  0  0  0  0  0
    3.6896    2.7482   -6.7489 C   0  0  0  0  0  0  0  0  0  0  0  0
    3.3364    1.9118   -5.6746 C   0  0  0  0  0  0  0  0  0  0  0  0
    4.0946    1.5485   -2.0752 O   0  0  0  0  0  0  0  0  0  0  0  0
    3.6193    0.6668   -1.1192 N   0  0  0  0  0  0  0  0  0  0  0  0
    0.8448   -2.7087   -1.3568 H   0  0  0  0  0  0  0  0  0  0  0  0
    2.7901   -1.9031   -0.5662 H   0  0  0  0  0  0  0  0  0  0  0  0
    1.4219   -0.8032   -0.2690 H   0  0  0  0  0  0  0  0  0  0  0  0
    2.1062   -0.3035   -3.8964 H   0  0  0  0  0  0  0  0  0  0  0  0
    5.3378    3.3106   -3.2856 H   0  0  0  0  0  0  0  0  0  0  0  0
    5.9668    4.7745   -5.1720 H   0  0  0  0  0  0  0  0  0  0  0  0
    5.3390    5.1703   -7.9899 H   0  0  0  0  0  0  0  0  0  0  0  0
    2.6179    2.2731   -8.6688 H   0  0  0  0  0  0  0  0  0  0  0  0
    2.6051    1.1257   -5.8355 H   0  0  0  0  0  0  0  0  0  0  0  0
  1  2  1  0  0  0  0
  1 17  1  0  0  0  0
  2  3  1  0  0  0  0
  2 18  1  0  0  0  0
  2 19  1  0  0  0  0
  3  4  1  0  0  0  0
  3 16  2  0  0  0  0
  4  5  2  0  0  0  0
  4 20  1  0  0  0  0
  5  6  1  0  0  0  0
  5 15  1  0  0  0  0
  6  7  1  0  0  0  0
  6 14  2  0  0  0  0
  7  8  2  0  0  0  0
  7 21  1  0  0  0  0
  8  9  1  0  0  0  0
  8 22  1  0  0  0  0
  9 10  1  0  0  0  0
  9 13  2  0  0  0  0
 10 11  1  0  0  0  0
 10 23  1  0  0  0  0
 11 12  2  0  0  0  0
 12 13  1  0  0  0  0
 12 24  1  0  0  0  0
 13 14  1  0  0  0  0
 14 25  1  0  0  0  0
 15 16  1  0  0  0  0
M  END
$$$$
