CHEMBL2403366
 OpenBabel04072215363D

 49 52  0  0  0  0  0  0  0  0999 V2000
    1.5107   -0.0149   -0.4227 C   0  0  0  0  0  0  0  0  0  0  0  0
    2.8829    0.0458   -0.0412 O   0  0  0  0  0  0  0  0  0  0  0  0
    3.5444    1.1354   -0.5462 C   0  0  0  0  0  0  0  0  0  0  0  0
    4.9185    0.9504   -0.7955 C   0  0  0  0  0  0  0  0  0  0  0  0
    5.6862    1.9803   -1.3348 C   0  0  0  0  0  0  0  0  0  0  0  0
    5.0447    3.1745   -1.5878 C   0  0  0  0  0  0  0  0  0  0  0  0
    3.6945    3.4022   -1.2990 C   0  0  0  0  0  0  0  0  0  0  0  0
    2.9266    2.3759   -0.7777 C   0  0  0  0  0  0  0  0  0  0  0  0
    3.4174    4.7884   -1.7095 C   0  0  0  0  0  0  0  0  0  0  0  0
    2.2514    5.4492   -1.6018 C   0  0  0  0  0  0  0  0  0  0  0  0
    2.0654    6.7171   -2.2063 C   0  0  0  0  0  0  0  0  0  0  0  0
    1.6162    7.0858   -3.4600 C   0  0  0  0  0  0  0  0  0  0  0  0
    1.7964    8.4845   -3.5942 C   0  0  0  0  0  0  0  0  0  0  0  0
    2.2851    8.9356   -2.3938 C   0  0  0  0  0  0  0  0  0  0  0  0
    2.4310    7.8675   -1.5435 N   0  0  0  0  0  0  0  0  0  0  0  0
    2.6620   10.3287   -2.1008 C   0  0  0  0  0  0  0  0  0  0  0  0
    2.3881   11.2711   -3.2935 C   0  0  0  0  0  0  0  0  0  0  0  0
    1.9279   10.7382   -4.5944 N   0  0  0  0  0  0  0  0  0  0  0  0
    1.6853   11.5641   -5.6950 C   0  0  0  0  0  0  0  0  0  0  0  0
    1.2969   11.1123   -6.7775 O   0  0  0  0  0  0  0  0  0  0  0  0
    1.8904   13.0577   -5.4944 C   0  0  0  0  0  0  0  0  0  0  0  0
    1.5859   13.8435   -6.7671 C   0  0  0  0  0  0  0  0  0  0  0  0
    1.7896   15.2785   -6.5513 N   0  0  0  0  0  0  0  0  0  0  0  0
    1.5708    9.3271   -4.7898 C   0  0  0  0  0  0  0  0  0  0  0  0
    4.7099    5.3296   -2.2787 C   0  0  0  0  0  0  0  0  0  0  0  0
    4.9688    6.4419   -2.7095 O   0  0  0  0  0  0  0  0  0  0  0  0
    5.6191    4.2987   -2.1593 N   0  0  0  0  0  0  0  0  0  0  0  0
    1.0976   -0.9564   -0.0499 H   0  0  0  0  0  0  0  0  0  0  0  0
    1.4103   -0.0043   -1.5133 H   0  0  0  0  0  0  0  0  0  0  0  0
    0.9308    0.7938    0.0290 H   0  0  0  0  0  0  0  0  0  0  0  0
    5.3844   -0.0097   -0.5796 H   0  0  0  0  0  0  0  0  0  0  0  0
    6.7401    1.8440   -1.5500 H   0  0  0  0  0  0  0  0  0  0  0  0
    1.8815    2.5328   -0.5521 H   0  0  0  0  0  0  0  0  0  0  0  0
    1.3861    4.9881   -1.1357 H   0  0  0  0  0  0  0  0  0  0  0  0
    1.2753    6.4066   -4.2310 H   0  0  0  0  0  0  0  0  0  0  0  0
    2.8262    7.9062   -0.6135 H   0  0  0  0  0  0  0  0  0  0  0  0
    3.7248   10.3827   -1.8341 H   0  0  0  0  0  0  0  0  0  0  0  0
    2.1044   10.6909   -1.2285 H   0  0  0  0  0  0  0  0  0  0  0  0
    3.3038   11.8439   -3.4884 H   0  0  0  0  0  0  0  0  0  0  0  0
    1.6398   12.0080   -2.9778 H   0  0  0  0  0  0  0  0  0  0  0  0
    2.9297   13.2341   -5.1979 H   0  0  0  0  0  0  0  0  0  0  0  0
    1.2246   13.3981   -4.6932 H   0  0  0  0  0  0  0  0  0  0  0  0
    0.5514   13.6726   -7.0868 H   0  0  0  0  0  0  0  0  0  0  0  0
    2.2390   13.5113   -7.5815 H   0  0  0  0  0  0  0  0  0  0  0  0
    1.1186   15.6193   -5.8641 H   0  0  0  0  0  0  0  0  0  0  0  0
    1.5766   15.7725   -7.4183 H   0  0  0  0  0  0  0  0  0  0  0  0
    2.1612    8.9442   -5.6317 H   0  0  0  0  0  0  0  0  0  0  0  0
    0.5136    9.2817   -5.0768 H   0  0  0  0  0  0  0  0  0  0  0  0
    6.5750    4.3911   -2.4646 H   0  0  0  0  0  0  0  0  0  0  0  0
  1  2  1  0  0  0  0
  1 28  1  0  0  0  0
  1 29  1  0  0  0  0
  1 30  1  0  0  0  0
  2  3  1  0  0  0  0
  3  4  1  0  0  0  0
  3  8  2  0  0  0  0
  4  5  2  0  0  0  0
  4 31  1  0  0  0  0
  5  6  1  0  0  0  0
  5 32  1  0  0  0  0
  6  7  2  0  0  0  0
  6 27  1  0  0  0  0
  7  8  1  0  0  0  0
  7  9  1  0  0  0  0
  8 33  1  0  0  0  0
  9 10  2  0  0  0  0
  9 25  1  0  0  0  0
 10 11  1  0  0  0  0
 10 34  1  0  0  0  0
 11 12  2  0  0  0  0
 11 15  1  0  0  0  0
 12 13  1  0  0  0  0
 12 35  1  0  0  0  0
 13 14  2  0  0  0  0
 13 24  1  0  0  0  0
 14 15  1  0  0  0  0
 14 16  1  0  0  0  0
 15 36  1  0  0  0  0
 16 17  1  0  0  0  0
 16 37  1  0  0  0  0
 16 38  1  0  0  0  0
 17 18  1  0  0  0  0
 17 39  1  0  0  0  0
 17 40  1  0  0  0  0
 18 19  1  0  0  0  0
 18 24  1  0  0  0  0
 19 20  2  0  0  0  0
 19 21  1  0  0  0  0
 21 22  1  0  0  0  0
 21 41  1  0  0  0  0
 21 42  1  0  0  0  0
 22 23  1  0  0  0  0
 22 43  1  0  0  0  0
 22 44  1  0  0  0  0
 23 45  1  0  0  0  0
 23 46  1  0  0  0  0
 24 47  1  0  0  0  0
 24 48  1  0  0  0  0
 25 26  2  0  0  0  0
 25 27  1  0  0  0  0
 27 49  1  0  0  0  0
M  END
$$$$
