CHEMBL2113063
 OpenBabel04072215363D

 53 60  0  0  1  0  0  0  0  0999 V2000
    1.5086   -0.6239    0.1252 C   0  0  0  0  0  0  0  0  0  0  0  0
    2.6358    0.4302    0.4057 C   0  0  2  0  0  0  0  0  0  0  0  0
    3.4410    0.3960   -0.7852 O   0  0  0  0  0  0  0  0  0  0  0  0
    3.6205    0.8974    1.6653 C   0  0  0  0  0  0  0  0  0  0  0  0
    3.4547    2.6215    1.8695 C   0  0  1  0  0  0  0  0  0  0  0  0
    2.9461    2.6644    0.5933 O   0  0  0  0  0  0  0  0  0  0  0  0
    1.8303    1.6660    0.6397 C   0  0  1  0  0  0  0  0  0  0  0  0
    1.0462    2.3428   -0.4901 C   0  0  0  0  0  0  0  0  0  0  0  0
    1.1416    1.3425    2.0324 N   0  0  0  0  0  0  0  0  0  0  0  0
    1.0472    0.2745    3.0609 C   0  0  0  0  0  0  0  0  0  0  0  0
    1.6548   -1.0014    3.2513 C   0  0  0  0  0  0  0  0  0  0  0  0
    1.5835   -1.6836    4.4844 C   0  0  0  0  0  0  0  0  0  0  0  0
    0.8748   -1.1782    5.5595 C   0  0  0  0  0  0  0  0  0  0  0  0
    0.1752    0.0102    5.4146 C   0  0  0  0  0  0  0  0  0  0  0  0
    0.2556    0.7538    4.2208 C   0  0  0  0  0  0  0  0  0  0  0  0
   -0.1930    2.0403    3.9051 C   0  0  0  0  0  0  0  0  0  0  0  0
   -0.8289    3.0112    4.7074 C   0  0  0  0  0  0  0  0  0  0  0  0
   -0.7483    4.2854    4.1101 C   0  0  0  0  0  0  0  0  0  0  0  0
    0.3959    4.3928    3.3039 C   0  0  0  0  0  0  0  0  0  0  0  0
    0.7152    5.2472    2.2697 C   0  0  0  0  0  0  0  0  0  0  0  0
   -0.0293    6.1138    1.4536 C   0  0  0  0  0  0  0  0  0  0  0  0
    0.6578    7.0323    0.6886 C   0  0  0  0  0  0  0  0  0  0  0  0
    2.0479    7.0774    0.7770 C   0  0  0  0  0  0  0  0  0  0  0  0
    2.8187    6.0394    1.3617 C   0  0  0  0  0  0  0  0  0  0  0  0
    2.1399    4.9807    1.9769 C   0  0  0  0  0  0  0  0  0  0  0  0
    2.5122    3.6400    2.4122 N   0  0  0  0  0  0  0  0  0  0  0  0
    1.3181    3.4200    2.9809 C   0  0  0  0  0  0  0  0  0  0  0  0
    0.6508    2.2626    2.8270 C   0  0  0  0  0  0  0  0  0  0  0  0
   -1.5799    5.1711    4.8333 C   0  0  0  0  0  0  0  0  0  0  0  0
   -1.8387    6.3551    4.6974 O   0  0  0  0  0  0  0  0  0  0  0  0
   -2.0423    4.4259    5.8856 N   0  0  0  0  0  0  0  0  0  0  0  0
   -1.5167    3.0759    5.9847 C   0  0  0  0  0  0  0  0  0  0  0  0
    1.8059   -1.4514   -0.5203 H   0  0  0  0  0  0  0  0  0  0  0  0
    0.7103   -0.1373   -0.4694 H   0  0  0  0  0  0  0  0  0  0  0  0
    0.9455   -1.0332    0.9567 H   0  0  0  0  0  0  0  0  0  0  0  0
    3.5713   -0.5359   -1.0441 H   0  0  0  0  0  0  0  0  0  0  0  0
    4.6480    0.7397    1.3048 H   0  0  0  0  0  0  0  0  0  0  0  0
    3.5571    0.3553    2.6052 H   0  0  0  0  0  0  0  0  0  0  0  0
    4.4620    3.0303    2.0094 H   0  0  0  0  0  0  0  0  0  0  0  0
    1.5307    2.1237   -1.4558 H   0  0  0  0  0  0  0  0  0  0  0  0
    1.1512    3.4423   -0.4233 H   0  0  0  0  0  0  0  0  0  0  0  0
   -0.0112    2.1207   -0.5385 H   0  0  0  0  0  0  0  0  0  0  0  0
    2.2799   -1.4607    2.4935 H   0  0  0  0  0  0  0  0  0  0  0  0
    2.1294   -2.6175    4.6132 H   0  0  0  0  0  0  0  0  0  0  0  0
    0.8846   -1.6901    6.5205 H   0  0  0  0  0  0  0  0  0  0  0  0
   -0.3402    0.4173    6.2860 H   0  0  0  0  0  0  0  0  0  0  0  0
   -1.1172    6.0655    1.4342 H   0  0  0  0  0  0  0  0  0  0  0  0
    0.0995    7.7522    0.0965 H   0  0  0  0  0  0  0  0  0  0  0  0
    2.5486    7.9539    0.3670 H   0  0  0  0  0  0  0  0  0  0  0  0
    3.8990    6.1001    1.3700 H   0  0  0  0  0  0  0  0  0  0  0  0
   -2.5327    4.9127    6.6248 H   0  0  0  0  0  0  0  0  0  0  0  0
   -2.3275    2.3623    6.1050 H   0  0  0  0  0  0  0  0  0  0  0  0
   -0.7939    3.0555    6.8107 H   0  0  0  0  0  0  0  0  0  0  0  0
  1  2  1  0  0  0  0
  1 33  1  0  0  0  0
  1 34  1  0  0  0  0
  1 35  1  0  0  0  0
  2  3  1  6  0  0  0
  2  4  1  0  0  0  0
  2  7  1  0  0  0  0
  3 36  1  0  0  0  0
  4  5  1  0  0  0  0
  4 37  1  0  0  0  0
  4 38  1  0  0  0  0
  5  6  1  0  0  0  0
  5 26  1  0  0  0  0
  5 39  1  6  0  0  0
  6  7  1  0  0  0  0
  7  8  1  6  0  0  0
  7  9  1  0  0  0  0
  8 40  1  0  0  0  0
  8 41  1  0  0  0  0
  8 42  1  0  0  0  0
  9 10  1  0  0  0  0
  9 28  1  0  0  0  0
 10 11  1  0  0  0  0
 10 15  2  0  0  0  0
 11 12  2  0  0  0  0
 11 43  1  0  0  0  0
 12 13  1  0  0  0  0
 12 44  1  0  0  0  0
 13 14  2  0  0  0  0
 13 45  1  0  0  0  0
 14 15  1  0  0  0  0
 14 46  1  0  0  0  0
 15 16  1  0  0  0  0
 16 17  1  0  0  0  0
 16 28  2  0  0  0  0
 17 18  2  0  0  0  0
 17 32  1  0  0  0  0
 18 19  1  0  0  0  0
 18 29  1  0  0  0  0
 19 20  1  0  0  0  0
 19 27  2  0  0  0  0
 20 21  1  0  0  0  0
 20 25  2  0  0  0  0
 21 22  2  0  0  0  0
 21 47  1  0  0  0  0
 22 23  1  0  0  0  0
 22 48  1  0  0  0  0
 23 24  2  0  0  0  0
 23 49  1  0  0  0  0
 24 25  1  0  0  0  0
 24 50  1  0  0  0  0
 25 26  1  0  0  0  0
 26 27  1  0  0  0  0
 27 28  1  0  0  0  0
 29 30  2  0  0  0  0
 29 31  1  0  0  0  0
 31 32  1  0  0  0  0
 31 51  1  0  0  0  0
 32 52  1  0  0  0  0
 32 53  1  0  0  0  0
M  END
$$$$
