CHEMBL3965901
 OpenBabel04072215373D

 45 48  0  0  0  0  0  0  0  0999 V2000
    3.2366    0.3085   -1.2056 C   0  0  0  0  0  0  0  0  0  0  0  0
    2.4769   -0.4221   -0.2341 O   0  0  0  0  0  0  0  0  0  0  0  0
    3.2046   -0.9449    0.8031 C   0  0  0  0  0  0  0  0  0  0  0  0
    4.3117   -0.2791    1.3413 C   0  0  0  0  0  0  0  0  0  0  0  0
    5.1245   -0.8946    2.3213 C   0  0  0  0  0  0  0  0  0  0  0  0
    6.2754   -0.3366    2.8923 C   0  0  0  0  0  0  0  0  0  0  0  0
    6.6526    0.9912    2.5503 N   0  0  0  0  0  0  0  0  0  0  0  0
    7.9500    1.5015    2.7691 C   0  0  0  0  0  0  0  0  0  0  0  0
    9.0710    0.7641    2.3595 C   0  0  0  0  0  0  0  0  0  0  0  0
   10.3614    1.2003    2.6494 C   0  0  0  0  0  0  0  0  0  0  0  0
   10.5497    2.3876    3.3536 C   0  0  0  0  0  0  0  0  0  0  0  0
   12.1705    2.8415    3.7415 Cl  0  0  0  0  0  0  0  0  0  0  0  0
    9.4413    3.1552    3.7297 C   0  0  0  0  0  0  0  0  0  0  0  0
    9.5994    4.6447    4.5925 Cl  0  0  0  0  0  0  0  0  0  0  0  0
    8.1448    2.7161    3.4266 C   0  0  0  0  0  0  0  0  0  0  0  0
    7.0487   -1.0211    3.7587 N   0  0  0  0  0  0  0  0  0  0  0  0
    6.6603   -2.2565    4.0754 C   0  0  0  0  0  0  0  0  0  0  0  0
    5.5678   -2.8691    3.6193 N   0  0  0  0  0  0  0  0  0  0  0  0
    4.8203   -2.1849    2.7529 C   0  0  0  0  0  0  0  0  0  0  0  0
    3.6774   -2.7910    2.2726 C   0  0  0  0  0  0  0  0  0  0  0  0
    2.8127   -2.1704    1.3582 C   0  0  0  0  0  0  0  0  0  0  0  0
    1.5987   -2.7194    0.9909 O   0  0  0  0  0  0  0  0  0  0  0  0
    1.1198   -3.7059    1.9223 C   0  0  0  0  0  0  0  0  0  0  0  0
   -0.3390   -4.0566    1.8276 C   0  0  0  0  0  0  0  0  0  0  0  0
   -1.3050   -3.2326    1.2554 C   0  0  0  0  0  0  0  0  0  0  0  0
   -2.6466   -3.6036    1.3331 C   0  0  0  0  0  0  0  0  0  0  0  0
   -2.9782   -4.7823    1.9852 C   0  0  0  0  0  0  0  0  0  0  0  0
   -2.0724   -5.6041    2.5506 N   0  0  0  0  0  0  0  0  0  0  0  0
   -0.7803   -5.2196    2.4624 C   0  0  0  0  0  0  0  0  0  0  0  0
    2.9156   -0.0034   -2.2040 H   0  0  0  0  0  0  0  0  0  0  0  0
    4.3196    0.1374   -1.1578 H   0  0  0  0  0  0  0  0  0  0  0  0
    3.0304    1.3776   -1.0930 H   0  0  0  0  0  0  0  0  0  0  0  0
    4.5708    0.7163    0.9899 H   0  0  0  0  0  0  0  0  0  0  0  0
    5.9189    1.6286    2.8424 H   0  0  0  0  0  0  0  0  0  0  0  0
    8.9386   -0.1767    1.8287 H   0  0  0  0  0  0  0  0  0  0  0  0
   11.2096    0.5903    2.3486 H   0  0  0  0  0  0  0  0  0  0  0  0
    7.2924    3.3087    3.7461 H   0  0  0  0  0  0  0  0  0  0  0  0
    7.2858   -2.8115    4.7642 H   0  0  0  0  0  0  0  0  0  0  0  0
    3.4796   -3.7892    2.6512 H   0  0  0  0  0  0  0  0  0  0  0  0
    1.2600   -3.3440    2.9507 H   0  0  0  0  0  0  0  0  0  0  0  0
    1.6927   -4.6275    1.7601 H   0  0  0  0  0  0  0  0  0  0  0  0
   -1.0250   -2.3021    0.7736 H   0  0  0  0  0  0  0  0  0  0  0  0
   -3.4231   -2.9783    0.9069 H   0  0  0  0  0  0  0  0  0  0  0  0
   -4.0112   -5.1035    2.0775 H   0  0  0  0  0  0  0  0  0  0  0  0
   -0.0812   -5.8916    2.9575 H   0  0  0  0  0  0  0  0  0  0  0  0
  1  2  1  0  0  0  0
  1 30  1  0  0  0  0
  1 31  1  0  0  0  0
  1 32  1  0  0  0  0
  2  3  1  0  0  0  0
  3  4  1  0  0  0  0
  3 21  2  0  0  0  0
  4  5  2  0  0  0  0
  4 33  1  0  0  0  0
  5  6  1  0  0  0  0
  5 19  1  0  0  0  0
  6  7  1  0  0  0  0
  6 16  2  0  0  0  0
  7  8  1  0  0  0  0
  7 34  1  0  0  0  0
  8  9  1  0  0  0  0
  8 15  2  0  0  0  0
  9 10  2  0  0  0  0
  9 35  1  0  0  0  0
 10 11  1  0  0  0  0
 10 36  1  0  0  0  0
 11 12  1  0  0  0  0
 11 13  2  0  0  0  0
 13 14  1  0  0  0  0
 13 15  1  0  0  0  0
 15 37  1  0  0  0  0
 16 17  1  0  0  0  0
 17 18  2  0  0  0  0
 17 38  1  0  0  0  0
 18 19  1  0  0  0  0
 19 20  2  0  0  0  0
 20 21  1  0  0  0  0
 20 39  1  0  0  0  0
 21 22  1  0  0  0  0
 22 23  1  0  0  0  0
 23 24  1  0  0  0  0
 23 40  1  0  0  0  0
 23 41  1  0  0  0  0
 24 25  1  0  0  0  0
 24 29  2  0  0  0  0
 25 26  2  0  0  0  0
 25 42  1  0  0  0  0
 26 27  1  0  0  0  0
 26 43  1  0  0  0  0
 27 28  2  0  0  0  0
 27 44  1  0  0  0  0
 28 29  1  0  0  0  0
 29 45  1  0  0  0  0
M  END
$$$$
