CHEMBL4449758
 OpenBabel04072215383D

 43 45  0  0  0  0  0  0  0  0999 V2000
    1.1078    0.0771   -0.3267 O   0  0  0  0  0  0  0  0  0  0  0  0
    2.2905    0.1082    0.0170 C   0  0  0  0  0  0  0  0  0  0  0  0
    2.9180   -0.8401    0.8187 N   0  0  0  0  0  0  0  0  0  0  0  0
    2.2797   -2.0342    1.2499 C   0  0  0  0  0  0  0  0  0  0  0  0
    1.1886   -2.5625    0.5417 C   0  0  0  0  0  0  0  0  0  0  0  0
    0.5235   -3.7045    0.9698 C   0  0  0  0  0  0  0  0  0  0  0  0
    0.9690   -4.3627    2.1028 C   0  0  0  0  0  0  0  0  0  0  0  0
    2.0742   -3.8799    2.8145 C   0  0  0  0  0  0  0  0  0  0  0  0
    2.5137   -4.7049    3.8611 N   0  0  0  0  0  0  0  0  0  0  0  0
    3.3311   -4.4709    4.9424 C   0  0  0  0  0  0  0  0  0  0  0  0
    3.3137   -3.1207    5.9151 S   0  0  0  0  0  0  0  0  0  0  0  0
    4.0809   -5.5847    5.2902 N   0  0  0  0  0  0  0  0  0  0  0  0
    4.6764   -6.4568    4.3514 C   0  0  0  0  0  0  0  0  0  0  0  0
    4.9807   -6.0057    3.0579 C   0  0  0  0  0  0  0  0  0  0  0  0
    5.4627   -6.8759    2.0855 C   0  0  0  0  0  0  0  0  0  0  0  0
    5.6671   -8.2150    2.4192 C   0  0  0  0  0  0  0  0  0  0  0  0
    6.0831   -9.1586    1.3728 N   0  3  0  0  0  0  0  0  0  0  0  0
    6.2310   -8.7131    0.2246 O   0  0  0  0  0  0  0  0  0  0  0  0
    6.2581  -10.3395    1.7015 O   0  5  0  0  0  0  0  0  0  0  0  0
    5.4476   -8.6624    3.7328 C   0  0  0  0  0  0  0  0  0  0  0  0
    4.9707   -7.7722    4.7066 C   0  0  0  0  0  0  0  0  0  0  0  0
    2.7417   -2.7210    2.3835 C   0  0  0  0  0  0  0  0  0  0  0  0
    3.1042    1.2733   -0.4426 C   0  0  0  0  0  0  0  0  0  0  0  0
    2.4523    2.2537   -1.1933 C   0  0  0  0  0  0  0  0  0  0  0  0
    3.1809    3.3313   -1.6754 C   0  0  0  0  0  0  0  0  0  0  0  0
    4.5386    3.3952   -1.3966 C   0  0  0  0  0  0  0  0  0  0  0  0
    5.1097    2.3777   -0.6363 C   0  0  0  0  0  0  0  0  0  0  0  0
    4.4288    1.3120   -0.1414 N   0  0  0  0  0  0  0  0  0  0  0  0
    3.8233   -0.5880    1.2049 H   0  0  0  0  0  0  0  0  0  0  0  0
    0.8381   -2.1086   -0.3802 H   0  0  0  0  0  0  0  0  0  0  0  0
   -0.3332   -4.0727    0.4132 H   0  0  0  0  0  0  0  0  0  0  0  0
    0.4384   -5.2540    2.4271 H   0  0  0  0  0  0  0  0  0  0  0  0
    2.1621   -5.6557    3.8369 H   0  0  0  0  0  0  0  0  0  0  0  0
    4.2708   -5.7217    6.2773 H   0  0  0  0  0  0  0  0  0  0  0  0
    4.8550   -4.9591    2.7887 H   0  0  0  0  0  0  0  0  0  0  0  0
    5.6536   -6.4922    1.0856 H   0  0  0  0  0  0  0  0  0  0  0  0
    5.6197   -9.7025    4.0035 H   0  0  0  0  0  0  0  0  0  0  0  0
    4.7758   -8.1377    5.7116 H   0  0  0  0  0  0  0  0  0  0  0  0
    3.6231   -2.3683    2.9087 H   0  0  0  0  0  0  0  0  0  0  0  0
    1.3900    2.1721   -1.4067 H   0  0  0  0  0  0  0  0  0  0  0  0
    2.6885    4.1016   -2.2634 H   0  0  0  0  0  0  0  0  0  0  0  0
    5.1368    4.2213   -1.7670 H   0  0  0  0  0  0  0  0  0  0  0  0
    6.1720    2.4020   -0.4089 H   0  0  0  0  0  0  0  0  0  0  0  0
  1  2  2  0  0  0  0
  2  3  1  0  0  0  0
  2 23  1  0  0  0  0
  3  4  1  0  0  0  0
  3 29  1  0  0  0  0
  4  5  1  0  0  0  0
  4 22  2  0  0  0  0
  5  6  2  0  0  0  0
  5 30  1  0  0  0  0
  6  7  1  0  0  0  0
  6 31  1  0  0  0  0
  7  8  2  0  0  0  0
  7 32  1  0  0  0  0
  8  9  1  0  0  0  0
  8 22  1  0  0  0  0
  9 10  1  0  0  0  0
  9 33  1  0  0  0  0
 10 11  2  0  0  0  0
 10 12  1  0  0  0  0
 12 13  1  0  0  0  0
 12 34  1  0  0  0  0
 13 14  1  0  0  0  0
 13 21  2  0  0  0  0
 14 15  2  0  0  0  0
 14 35  1  0  0  0  0
 15 16  1  0  0  0  0
 15 36  1  0  0  0  0
 16 17  1  0  0  0  0
 16 20  2  0  0  0  0
 17 18  2  0  0  0  0
 17 19  1  0  0  0  0
 20 21  1  0  0  0  0
 20 37  1  0  0  0  0
 21 38  1  0  0  0  0
 22 39  1  0  0  0  0
 23 24  1  0  0  0  0
 23 28  2  0  0  0  0
 24 25  2  0  0  0  0
 24 40  1  0  0  0  0
 25 26  1  0  0  0  0
 25 41  1  0  0  0  0
 26 27  2  0  0  0  0
 26 42  1  0  0  0  0
 27 28  1  0  0  0  0
 27 43  1  0  0  0  0
M  CHG  2  17   1  19  -1
M  END
$$$$
