CHEMBL190866
 OpenBabel04072215363D

 82 85  0  0  0  0  0  0  0  0999 V2000
    1.3772    4.2526   -1.8690 C   0  0  0  0  0  0  0  0  0  0  0  0
    2.5458    3.8691   -2.5844 O   0  0  0  0  0  0  0  0  0  0  0  0
    2.8573    2.5363   -2.5454 C   0  0  0  0  0  0  0  0  0  0  0  0
    1.9406    1.5029   -2.3589 C   0  0  0  0  0  0  0  0  0  0  0  0
    2.3799    0.1847   -2.3791 C   0  0  0  0  0  0  0  0  0  0  0  0
    1.5652   -0.9131   -2.2777 O   0  0  0  0  0  0  0  0  0  0  0  0
    0.2484   -0.7418   -2.7958 C   0  0  0  0  0  0  0  0  0  0  0  0
    3.7427   -0.0912   -2.5248 C   0  0  0  0  0  0  0  0  0  0  0  0
    4.6919    0.9248   -2.7806 C   0  0  0  0  0  0  0  0  0  0  0  0
    6.0901    0.5867   -3.1611 C   0  0  0  0  0  0  0  0  0  0  0  0
    6.3068   -0.5848   -3.9094 C   0  0  0  0  0  0  0  0  0  0  0  0
    7.5781   -0.9520   -4.3506 C   0  0  0  0  0  0  0  0  0  0  0  0
    7.8079   -2.1445   -5.0288 C   0  0  0  0  0  0  0  0  0  0  0  0
    9.0160   -2.5690   -5.4252 N   0  0  0  0  0  0  0  0  0  0  0  0
   10.0799   -1.7867   -5.1526 C   0  0  0  0  0  0  0  0  0  0  0  0
   11.3652   -2.2813   -5.4899 N   0  0  0  0  0  0  0  0  0  0  0  0
   11.5706   -3.0591   -6.7218 C   0  0  0  0  0  0  0  0  0  0  0  0
   10.5361   -3.0322   -7.8526 C   0  0  0  0  0  0  0  0  0  0  0  0
   11.0453   -3.7925   -9.0804 C   0  0  0  0  0  0  0  0  0  0  0  0
   11.3026   -5.1427   -8.7038 O   0  0  0  0  0  0  0  0  0  0  0  0
   11.7769   -5.9441   -9.7843 C   0  0  0  0  0  0  0  0  0  0  0  0
   12.0478   -7.3515   -9.3029 C   0  0  0  0  0  0  0  0  0  0  0  0
   11.9065   -8.4350  -10.1830 C   0  0  0  0  0  0  0  0  0  0  0  0
   12.1813   -9.7378   -9.7592 C   0  0  0  0  0  0  0  0  0  0  0  0
   12.6116   -9.9725   -8.4537 C   0  0  0  0  0  0  0  0  0  0  0  0
   12.7720   -8.9055   -7.5749 C   0  0  0  0  0  0  0  0  0  0  0  0
   12.4984   -7.6020   -7.9980 C   0  0  0  0  0  0  0  0  0  0  0  0
   12.3945   -2.4353   -4.5566 C   0  0  0  0  0  0  0  0  0  0  0  0
   12.1777   -2.0667   -3.1071 C   0  0  0  0  0  0  0  0  0  0  0  0
   13.4932   -2.9159   -4.8698 O   0  0  0  0  0  0  0  0  0  0  0  0
    9.9132   -0.5358   -4.5382 C   0  0  0  0  0  0  0  0  0  0  0  0
    8.6583   -0.1068   -4.1089 C   0  0  0  0  0  0  0  0  0  0  0  0
    8.4726    1.0798   -3.4658 N   0  0  0  0  0  0  0  0  0  0  0  0
    7.2432    1.3722   -2.9453 C   0  0  0  0  0  0  0  0  0  0  0  0
    7.1877    2.5770   -2.1895 N   0  0  0  0  0  0  0  0  0  0  0  0
    7.3340    2.4777   -0.8113 C   0  0  0  0  0  0  0  0  0  0  0  0
    7.4973    1.4292   -0.2047 O   0  0  0  0  0  0  0  0  0  0  0  0
    7.3317    3.7302   -0.2109 N   0  0  0  0  0  0  0  0  0  0  0  0
    7.6322    3.9518    1.2263 C   0  0  0  0  0  0  0  0  0  0  0  0
    9.0987    3.5857    1.5196 C   0  0  0  0  0  0  0  0  0  0  0  0
    7.4514    5.4453    1.5802 C   0  0  0  0  0  0  0  0  0  0  0  0
    6.6990    3.1461    2.1444 C   0  0  0  0  0  0  0  0  0  0  0  0
    4.2052    2.2411   -2.7887 C   0  0  0  0  0  0  0  0  0  0  0  0
    1.2974    5.3424   -1.9216 H   0  0  0  0  0  0  0  0  0  0  0  0
    1.4562    3.9690   -0.8142 H   0  0  0  0  0  0  0  0  0  0  0  0
    0.4732    3.8380   -2.3235 H   0  0  0  0  0  0  0  0  0  0  0  0
    0.8891    1.7157   -2.2172 H   0  0  0  0  0  0  0  0  0  0  0  0
   -0.1588   -1.7337   -3.0168 H   0  0  0  0  0  0  0  0  0  0  0  0
    0.2410   -0.1698   -3.7311 H   0  0  0  0  0  0  0  0  0  0  0  0
   -0.3952   -0.2702   -2.0469 H   0  0  0  0  0  0  0  0  0  0  0  0
    4.0450   -1.1361   -2.4884 H   0  0  0  0  0  0  0  0  0  0  0  0
    5.4732   -1.2307   -4.1679 H   0  0  0  0  0  0  0  0  0  0  0  0
    6.9974   -2.8376   -5.2517 H   0  0  0  0  0  0  0  0  0  0  0  0
   11.7630   -4.0980   -6.4206 H   0  0  0  0  0  0  0  0  0  0  0  0
   12.5151   -2.6852   -7.1445 H   0  0  0  0  0  0  0  0  0  0  0  0
   10.2891   -2.0015   -8.1288 H   0  0  0  0  0  0  0  0  0  0  0  0
    9.6184   -3.5303   -7.5250 H   0  0  0  0  0  0  0  0  0  0  0  0
   11.9610   -3.3312   -9.4676 H   0  0  0  0  0  0  0  0  0  0  0  0
   10.2810   -3.7748   -9.8655 H   0  0  0  0  0  0  0  0  0  0  0  0
   12.7042   -5.5212  -10.1879 H   0  0  0  0  0  0  0  0  0  0  0  0
   11.0127   -5.9599  -10.5701 H   0  0  0  0  0  0  0  0  0  0  0  0
   11.5760   -8.2733  -11.2064 H   0  0  0  0  0  0  0  0  0  0  0  0
   12.0599  -10.5706  -10.4460 H   0  0  0  0  0  0  0  0  0  0  0  0
   12.8228  -10.9855   -8.1225 H   0  0  0  0  0  0  0  0  0  0  0  0
   13.1092   -9.0815   -6.5564 H   0  0  0  0  0  0  0  0  0  0  0  0
   12.6289   -6.7799   -7.2992 H   0  0  0  0  0  0  0  0  0  0  0  0
   11.1437   -2.1811   -2.7816 H   0  0  0  0  0  0  0  0  0  0  0  0
   12.5330   -1.0490   -2.9393 H   0  0  0  0  0  0  0  0  0  0  0  0
   12.7724   -2.7502   -2.4873 H   0  0  0  0  0  0  0  0  0  0  0  0
   10.7717    0.1159   -4.3891 H   0  0  0  0  0  0  0  0  0  0  0  0
    7.8861    3.2275   -2.5227 H   0  0  0  0  0  0  0  0  0  0  0  0
    6.7084    4.3941   -0.6524 H   0  0  0  0  0  0  0  0  0  0  0  0
    9.7825    4.1886    0.9104 H   0  0  0  0  0  0  0  0  0  0  0  0
    9.3091    2.5340    1.3015 H   0  0  0  0  0  0  0  0  0  0  0  0
    9.3490    3.7605    2.5723 H   0  0  0  0  0  0  0  0  0  0  0  0
    8.1243    6.0862    0.9993 H   0  0  0  0  0  0  0  0  0  0  0  0
    7.6627    5.6254    2.6422 H   0  0  0  0  0  0  0  0  0  0  0  0
    6.4258    5.7813    1.3897 H   0  0  0  0  0  0  0  0  0  0  0  0
    6.8431    2.0675    2.0378 H   0  0  0  0  0  0  0  0  0  0  0  0
    5.6478    3.3657    1.9281 H   0  0  0  0  0  0  0  0  0  0  0  0
    6.8825    3.3854    3.1987 H   0  0  0  0  0  0  0  0  0  0  0  0
    4.8665    3.0735   -3.0129 H   0  0  0  0  0  0  0  0  0  0  0  0
  1  2  1  0  0  0  0
  1 44  1  0  0  0  0
  1 45  1  0  0  0  0
  1 46  1  0  0  0  0
  2  3  1  0  0  0  0
  3  4  1  0  0  0  0
  3 43  2  0  0  0  0
  4  5  2  0  0  0  0
  4 47  1  0  0  0  0
  5  6  1  0  0  0  0
  5  8  1  0  0  0  0
  6  7  1  0  0  0  0
  7 48  1  0  0  0  0
  7 49  1  0  0  0  0
  7 50  1  0  0  0  0
  8  9  2  0  0  0  0
  8 51  1  0  0  0  0
  9 10  1  0  0  0  0
  9 43  1  0  0  0  0
 10 11  1  0  0  0  0
 10 34  2  0  0  0  0
 11 12  2  0  0  0  0
 11 52  1  0  0  0  0
 12 13  1  0  0  0  0
 12 32  1  0  0  0  0
 13 14  2  0  0  0  0
 13 53  1  0  0  0  0
 14 15  1  0  0  0  0
 15 16  1  0  0  0  0
 15 31  2  0  0  0  0
 16 17  1  0  0  0  0
 16 28  1  0  0  0  0
 17 18  1  0  0  0  0
 17 54  1  0  0  0  0
 17 55  1  0  0  0  0
 18 19  1  0  0  0  0
 18 56  1  0  0  0  0
 18 57  1  0  0  0  0
 19 20  1  0  0  0  0
 19 58  1  0  0  0  0
 19 59  1  0  0  0  0
 20 21  1  0  0  0  0
 21 22  1  0  0  0  0
 21 60  1  0  0  0  0
 21 61  1  0  0  0  0
 22 23  1  0  0  0  0
 22 27  2  0  0  0  0
 23 24  2  0  0  0  0
 23 62  1  0  0  0  0
 24 25  1  0  0  0  0
 24 63  1  0  0  0  0
 25 26  2  0  0  0  0
 25 64  1  0  0  0  0
 26 27  1  0  0  0  0
 26 65  1  0  0  0  0
 27 66  1  0  0  0  0
 28 29  1  0  0  0  0
 28 30  2  0  0  0  0
 29 67  1  0  0  0  0
 29 68  1  0  0  0  0
 29 69  1  0  0  0  0
 31 32  1  0  0  0  0
 31 70  1  0  0  0  0
 32 33  2  0  0  0  0
 33 34  1  0  0  0  0
 34 35  1  0  0  0  0
 35 36  1  0  0  0  0
 35 71  1  0  0  0  0
 36 37  2  0  0  0  0
 36 38  1  0  0  0  0
 38 39  1  0  0  0  0
 38 72  1  0  0  0  0
 39 40  1  0  0  0  0
 39 41  1  0  0  0  0
 39 42  1  0  0  0  0
 40 73  1  0  0  0  0
 40 74  1  0  0  0  0
 40 75  1  0  0  0  0
 41 76  1  0  0  0  0
 41 77  1  0  0  0  0
 41 78  1  0  0  0  0
 42 79  1  0  0  0  0
 42 80  1  0  0  0  0
 42 81  1  0  0  0  0
 43 82  1  0  0  0  0
M  END
$$$$
