CHEMBL244291
 OpenBabel04072215363D

 56 59  0  0  0  0  0  0  0  0999 V2000
    4.1143   -1.5990   -0.3704 C   0  0  0  0  0  0  0  0  0  0  0  0
    5.2510   -1.1030    0.3390 O   0  0  0  0  0  0  0  0  0  0  0  0
    5.1702    0.2136    0.6718 C   0  0  0  0  0  0  0  0  0  0  0  0
    4.1809    0.9079    0.4715 O   0  0  0  0  0  0  0  0  0  0  0  0
    6.3736    0.6097    1.1785 N   0  0  0  0  0  0  0  0  0  0  0  0
    6.7031    1.9408    1.2379 C   0  0  0  0  0  0  0  0  0  0  0  0
    7.8511    2.4032    0.7980 N   0  0  0  0  0  0  0  0  0  0  0  0
    7.7692    3.7695    0.9135 C   0  0  0  0  0  0  0  0  0  0  0  0
    8.6814    4.7591    0.5216 C   0  0  0  0  0  0  0  0  0  0  0  0
    8.3884    6.1021    0.8075 C   0  0  0  0  0  0  0  0  0  0  0  0
    7.2080    6.4525    1.4700 C   0  0  0  0  0  0  0  0  0  0  0  0
    7.0338    7.7976    1.7529 O   0  0  0  0  0  0  0  0  0  0  0  0
    6.3995    8.1518    2.9262 C   0  0  0  0  0  0  0  0  0  0  0  0
    6.5076    7.4226    4.1064 C   0  0  0  0  0  0  0  0  0  0  0  0
    5.7591    7.7843    5.2271 C   0  0  0  0  0  0  0  0  0  0  0  0
    4.9426    8.9187    5.2208 C   0  0  0  0  0  0  0  0  0  0  0  0
    4.1287    9.2895    6.3193 N   0  0  0  0  0  0  0  0  0  0  0  0
    4.0678    8.6363    7.5379 C   0  0  0  0  0  0  0  0  0  0  0  0
    4.7935    7.7019    7.8716 O   0  0  0  0  0  0  0  0  0  0  0  0
    3.0593    9.1201    8.3539 N   0  0  0  0  0  0  0  0  0  0  0  0
    2.8566    8.5410    9.6370 C   0  0  0  0  0  0  0  0  0  0  0  0
    3.9256    8.2846   10.5078 C   0  0  0  0  0  0  0  0  0  0  0  0
    3.7160    7.6372   11.7375 C   0  0  0  0  0  0  0  0  0  0  0  0
    4.8639    7.3731   12.6839 C   0  0  0  0  0  0  0  0  0  0  0  0
    6.0628    7.8447   12.2445 F   0  0  0  0  0  0  0  0  0  0  0  0
    4.6633    7.9518   13.9017 F   0  0  0  0  0  0  0  0  0  0  0  0
    5.0468    6.0467   12.9296 F   0  0  0  0  0  0  0  0  0  0  0  0
    2.4143    7.2318   12.0773 C   0  0  0  0  0  0  0  0  0  0  0  0
    1.3418    7.5048   11.2244 C   0  0  0  0  0  0  0  0  0  0  0  0
    1.5661    8.1774   10.0262 C   0  0  0  0  0  0  0  0  0  0  0  0
    0.5328    8.4145    9.2039 F   0  0  0  0  0  0  0  0  0  0  0  0
    4.9144    9.7061    4.0638 C   0  0  0  0  0  0  0  0  0  0  0  0
    5.6387    9.3224    2.9215 C   0  0  0  0  0  0  0  0  0  0  0  0
    6.2486    5.4773    1.7877 C   0  0  0  0  0  0  0  0  0  0  0  0
    6.5768    4.1419    1.5254 C   0  0  0  0  0  0  0  0  0  0  0  0
    5.9414    2.9478    1.7886 N   0  0  0  0  0  0  0  0  0  0  0  0
    4.8178    2.7906    2.6803 C   0  0  0  0  0  0  0  0  0  0  0  0
    4.2757   -2.6625   -0.5662 H   0  0  0  0  0  0  0  0  0  0  0  0
    4.0145   -1.0837   -1.3312 H   0  0  0  0  0  0  0  0  0  0  0  0
    3.2028   -1.4894    0.2252 H   0  0  0  0  0  0  0  0  0  0  0  0
    7.1351   -0.0084    0.9353 H   0  0  0  0  0  0  0  0  0  0  0  0
    9.5996    4.4806    0.0144 H   0  0  0  0  0  0  0  0  0  0  0  0
    9.0989    6.8735    0.5213 H   0  0  0  0  0  0  0  0  0  0  0  0
    7.1415    6.5426    4.1720 H   0  0  0  0  0  0  0  0  0  0  0  0
    5.8423    7.1322    6.0889 H   0  0  0  0  0  0  0  0  0  0  0  0
    3.6018   10.1474    6.2402 H   0  0  0  0  0  0  0  0  0  0  0  0
    2.2069    9.3747    7.8672 H   0  0  0  0  0  0  0  0  0  0  0  0
    4.9360    8.5811   10.2251 H   0  0  0  0  0  0  0  0  0  0  0  0
    2.2360    6.6997   13.0115 H   0  0  0  0  0  0  0  0  0  0  0  0
    0.3372    7.1810   11.4797 H   0  0  0  0  0  0  0  0  0  0  0  0
    4.3216   10.6163    4.0210 H   0  0  0  0  0  0  0  0  0  0  0  0
    5.5961    9.9323    2.0225 H   0  0  0  0  0  0  0  0  0  0  0  0
    5.3060    5.7391    2.2549 H   0  0  0  0  0  0  0  0  0  0  0  0
    4.7430    3.6631    3.3363 H   0  0  0  0  0  0  0  0  0  0  0  0
    4.9808    1.9075    3.3079 H   0  0  0  0  0  0  0  0  0  0  0  0
    3.9027    2.6969    2.0974 H   0  0  0  0  0  0  0  0  0  0  0  0
  1  2  1  0  0  0  0
  1 38  1  0  0  0  0
  1 39  1  0  0  0  0
  1 40  1  0  0  0  0
  2  3  1  0  0  0  0
  3  4  2  0  0  0  0
  3  5  1  0  0  0  0
  5  6  1  0  0  0  0
  5 41  1  0  0  0  0
  6  7  2  0  0  0  0
  6 36  1  0  0  0  0
  7  8  1  0  0  0  0
  8  9  1  0  0  0  0
  8 35  2  0  0  0  0
  9 10  2  0  0  0  0
  9 42  1  0  0  0  0
 10 11  1  0  0  0  0
 10 43  1  0  0  0  0
 11 12  1  0  0  0  0
 11 34  2  0  0  0  0
 12 13  1  0  0  0  0
 13 14  1  0  0  0  0
 13 33  2  0  0  0  0
 14 15  2  0  0  0  0
 14 44  1  0  0  0  0
 15 16  1  0  0  0  0
 15 45  1  0  0  0  0
 16 17  1  0  0  0  0
 16 32  2  0  0  0  0
 17 18  1  0  0  0  0
 17 46  1  0  0  0  0
 18 19  2  0  0  0  0
 18 20  1  0  0  0  0
 20 21  1  0  0  0  0
 20 47  1  0  0  0  0
 21 22  1  0  0  0  0
 21 30  2  0  0  0  0
 22 23  2  0  0  0  0
 22 48  1  0  0  0  0
 23 24  1  0  0  0  0
 23 28  1  0  0  0  0
 24 25  1  0  0  0  0
 24 26  1  0  0  0  0
 24 27  1  0  0  0  0
 28 29  2  0  0  0  0
 28 49  1  0  0  0  0
 29 30  1  0  0  0  0
 29 50  1  0  0  0  0
 30 31  1  0  0  0  0
 32 33  1  0  0  0  0
 32 51  1  0  0  0  0
 33 52  1  0  0  0  0
 34 35  1  0  0  0  0
 34 53  1  0  0  0  0
 35 36  1  0  0  0  0
 36 37  1  0  0  0  0
 37 54  1  0  0  0  0
 37 55  1  0  0  0  0
 37 56  1  0  0  0  0
M  END
$$$$
