CHEMBL3939200
 OpenBabel04072215373D

 69 72  0  0  1  0  0  0  0  0999 V2000
    1.0919    4.7323   -1.6083 C   0  0  0  0  0  0  0  0  0  0  0  0
    2.0425    4.1157   -2.3715 O   0  0  0  0  0  0  0  0  0  0  0  0
    2.7509    3.0115   -2.0737 C   0  0  0  0  0  0  0  0  0  0  0  0
    2.3167    2.1400   -1.1718 C   0  0  0  0  0  0  0  0  0  0  0  0
    3.2037    1.2756   -0.6109 C   0  0  0  0  0  0  0  0  0  0  0  0
    2.8842    0.7969    0.5763 O   0  0  0  0  0  0  0  0  0  0  0  0
    1.9270    1.3462    1.4185 C   0  0  0  0  0  0  0  0  0  0  0  0
    4.4409    1.0462   -1.1903 C   0  0  0  0  0  0  0  0  0  0  0  0
    4.8181    1.7525   -2.3351 C   0  0  0  0  0  0  0  0  0  0  0  0
    6.0866    1.5078   -2.9675 N   0  0  0  0  0  0  0  0  0  0  0  0
    6.6579    0.1036   -2.9370 C   0  0  0  0  0  0  0  0  0  0  0  0
    5.6877   -1.0559   -2.7780 C   0  0  0  0  0  0  0  0  0  0  0  0
    6.3010   -2.3652   -2.6372 N   0  0  0  0  0  0  0  0  0  0  0  0
    5.1546   -3.2513   -2.4197 C   0  0  0  0  0  0  0  0  0  0  0  0
    5.1181   -4.1838   -3.5543 C   0  0  0  0  0  0  0  0  0  0  0  0
    6.5535   -4.3660   -3.9590 C   0  0  0  0  0  0  0  0  0  0  0  0
    7.2629   -3.0616   -3.5530 C   0  0  2  0  0  0  0  0  0  0  0  0
    8.5286   -3.4353   -2.7419 C   0  0  0  0  0  0  0  0  0  0  0  0
    6.9237    2.5551   -3.6212 C   0  0  0  0  0  0  0  0  0  0  0  0
    7.5410    2.0384   -4.7544 C   0  0  0  0  0  0  0  0  0  0  0  0
    8.3709    2.7354   -5.4702 C   0  0  0  0  0  0  0  0  0  0  0  0
    8.6759    3.9181   -5.1310 C   0  0  0  0  0  0  0  0  0  0  0  0
    9.5344    4.2218   -5.7287 N   0  0  0  0  0  0  0  0  0  0  0  0
   10.4177    4.4852   -6.3757 C   0  0  0  0  0  0  0  0  0  0  0  0
   10.4801    5.7985   -6.1911 C   0  0  0  0  0  0  0  0  0  0  0  0
   11.6317    6.1343   -7.5772 C   0  0  0  0  0  0  0  0  0  0  0  0
   12.3696    5.1441   -8.5227 C   0  0  0  0  0  0  0  0  0  0  0  0
   13.0755    5.8111   -9.5097 N   0  0  0  0  0  0  0  0  0  0  0  0
   12.9097    7.1120   -9.3201 N   0  0  0  0  0  0  0  0  0  0  0  0
   13.4366    8.1403  -10.2946 C   0  0  0  0  0  0  0  0  0  0  0  0
   12.1294    7.3424   -8.1596 C   0  0  0  0  0  0  0  0  0  0  0  0
    9.4317    6.1683   -4.8524 N   0  0  0  0  0  0  0  0  0  0  0  0
    8.4148    4.9040   -4.2516 C   0  0  0  0  0  0  0  0  0  0  0  0
    7.2784    4.0402   -3.2596 C   0  0  0  0  0  0  0  0  0  0  0  0
    3.9551    2.8075   -2.6946 C   0  0  0  0  0  0  0  0  0  0  0  0
    2.7804   -1.6502    1.3081 Cl  0  0  0  0  0  0  0  0  0  0  0  0
    0.4216    5.3702   -2.1692 H   0  0  0  0  0  0  0  0  0  0  0  0
    1.6706    5.6277   -1.2807 H   0  0  0  0  0  0  0  0  0  0  0  0
    0.2497    4.0131   -1.4027 H   0  0  0  0  0  0  0  0  0  0  0  0
    1.3895    2.3717   -0.7579 H   0  0  0  0  0  0  0  0  0  0  0  0
    1.6920    0.6232    2.2134 H   0  0  0  0  0  0  0  0  0  0  0  0
    0.9478    1.5259    0.9327 H   0  0  0  0  0  0  0  0  0  0  0  0
    2.3731    2.2370    1.8542 H   0  0  0  0  0  0  0  0  0  0  0  0
    5.1789    0.4838   -0.6278 H   0  0  0  0  0  0  0  0  0  0  0  0
    7.4313    0.0664   -2.1711 H   0  0  0  0  0  0  0  0  0  0  0  0
    7.1149   -0.2344   -3.8792 H   0  0  0  0  0  0  0  0  0  0  0  0
    4.9482   -1.0583   -3.6114 H   0  0  0  0  0  0  0  0  0  0  0  0
    5.1535   -1.0400   -1.8163 H   0  0  0  0  0  0  0  0  0  0  0  0
    4.1250   -2.8110   -2.3978 H   0  0  0  0  0  0  0  0  0  0  0  0
    5.2562   -3.5894   -1.3886 H   0  0  0  0  0  0  0  0  0  0  0  0
    4.5565   -3.7025   -4.3922 H   0  0  0  0  0  0  0  0  0  0  0  0
    4.6056   -5.0678   -3.1551 H   0  0  0  0  0  0  0  0  0  0  0  0
    6.5964   -4.5940   -5.0411 H   0  0  0  0  0  0  0  0  0  0  0  0
    6.9206   -5.2171   -3.3537 H   0  0  0  0  0  0  0  0  0  0  0  0
    7.6520   -2.5068   -4.4544 H   0  0  0  0  0  0  0  0  0  0  0  0
    8.2209   -3.9624   -1.8122 H   0  0  0  0  0  0  0  0  0  0  0  0
    9.1069   -2.5347   -2.4514 H   0  0  0  0  0  0  0  0  0  0  0  0
    9.2145   -4.1158   -3.3023 H   0  0  0  0  0  0  0  0  0  0  0  0
    7.4823    1.0943   -5.2129 H   0  0  0  0  0  0  0  0  0  0  0  0
    8.8054    2.3164   -6.3019 H   0  0  0  0  0  0  0  0  0  0  0  0
   10.8214    3.7461   -7.0487 H   0  0  0  0  0  0  0  0  0  0  0  0
   12.4888    4.0177   -8.6967 H   0  0  0  0  0  0  0  0  0  0  0  0
   14.0934    7.7441  -11.1288 H   0  0  0  0  0  0  0  0  0  0  0  0
   14.0392    8.9241   -9.7849 H   0  0  0  0  0  0  0  0  0  0  0  0
   12.6022    8.6647  -10.8255 H   0  0  0  0  0  0  0  0  0  0  0  0
   11.8755    8.2665   -7.8365 H   0  0  0  0  0  0  0  0  0  0  0  0
    6.6728    4.1725   -2.2614 H   0  0  0  0  0  0  0  0  0  0  0  0
    4.0987    3.5464   -3.4256 H   0  0  0  0  0  0  0  0  0  0  0  0
    1.6373   -0.9957    0.7015 H   0  0  0  0  0  0  0  0  0  0  0  0
  1  2  1  0  0  0  0
  1 37  1  0  0  0  0
  1 38  1  0  0  0  0
  1 39  1  0  0  0  0
  2  3  1  0  0  0  0
  3  4  1  0  0  0  0
  3 35  2  0  0  0  0
  4  5  2  0  0  0  0
  4 40  1  0  0  0  0
  5  6  1  0  0  0  0
  5  8  1  0  0  0  0
  6  7  1  0  0  0  0
  7 41  1  0  0  0  0
  7 42  1  0  0  0  0
  7 43  1  0  0  0  0
  8  9  2  0  0  0  0
  8 44  1  0  0  0  0
  9 10  1  0  0  0  0
  9 35  1  0  0  0  0
 10 11  1  0  0  0  0
 10 19  1  0  0  0  0
 11 12  1  0  0  0  0
 11 45  1  0  0  0  0
 11 46  1  0  0  0  0
 12 13  1  0  0  0  0
 12 47  1  0  0  0  0
 12 48  1  0  0  0  0
 13 14  1  0  0  0  0
 13 17  1  0  0  0  0
 14 15  1  0  0  0  0
 14 49  1  0  0  0  0
 14 50  1  0  0  0  0
 15 16  1  0  0  0  0
 15 51  1  0  0  0  0
 15 52  1  0  0  0  0
 16 17  1  0  0  0  0
 16 53  1  0  0  0  0
 16 54  1  0  0  0  0
 17 18  1  0  0  0  0
 17 55  1  6  0  0  0
 18 56  1  0  0  0  0
 18 57  1  0  0  0  0
 18 58  1  0  0  0  0
 19 20  1  0  0  0  0
 19 34  2  0  0  0  0
 20 21  2  0  0  0  0
 20 59  1  0  0  0  0
 21 22  1  0  0  0  0
 21 60  1  0  0  0  0
 22 23  1  0  0  0  0
 22 33  2  0  0  0  0
 23 24  2  0  0  0  0
 24 25  1  0  0  0  0
 24 61  1  0  0  0  0
 25 26  1  0  0  0  0
 25 32  2  0  0  0  0
 26 27  1  0  0  0  0
 26 31  2  0  0  0  0
 27 28  2  0  0  0  0
 27 62  1  0  0  0  0
 28 29  1  0  0  0  0
 29 30  1  0  0  0  0
 29 31  1  0  0  0  0
 30 63  1  0  0  0  0
 30 64  1  0  0  0  0
 30 65  1  0  0  0  0
 31 66  1  0  0  0  0
 32 33  1  0  0  0  0
 33 34  1  0  0  0  0
 34 67  1  0  0  0  0
 35 68  1  0  0  0  0
 36 69  1  0  0  0  0
M  END
$$$$
