CHEMBL3968087
 OpenBabel04072215373D

 70 74  0  0  0  0  0  0  0  0999 V2000
    3.3949   -5.2387   -0.8346 C   0  0  0  0  0  0  0  0  0  0  0  0
    2.9634   -3.9532   -0.2762 N   0  0  0  0  0  0  0  0  0  0  0  0
    3.9167   -2.9046   -0.6566 C   0  0  0  0  0  0  0  0  0  0  0  0
    3.4684   -1.5036   -0.2326 C   0  0  0  0  0  0  0  0  0  0  0  0
    2.0601   -1.1598   -0.7367 C   0  0  0  0  0  0  0  0  0  0  0  0
    1.9274   -0.8201   -2.2222 C   0  0  0  0  0  0  0  0  0  0  0  0
    0.6527   -0.5002   -2.7137 C   0  0  0  0  0  0  0  0  0  0  0  0
    0.4003   -0.1412   -4.0431 C   0  0  0  0  0  0  0  0  0  0  0  0
   -0.9125    0.1182   -4.5229 N   0  0  0  0  0  0  0  0  0  0  0  0
   -2.0732   -0.1790   -3.8237 C   0  0  0  0  0  0  0  0  0  0  0  0
   -2.1060   -0.7262   -2.7251 O   0  0  0  0  0  0  0  0  0  0  0  0
   -3.2374    0.1618   -4.5004 N   0  0  0  0  0  0  0  0  0  0  0  0
   -4.4905   -0.0505   -3.8647 C   0  0  0  0  0  0  0  0  0  0  0  0
   -4.6983    0.3183   -2.5281 C   0  0  0  0  0  0  0  0  0  0  0  0
   -5.8918    0.0009   -1.8722 C   0  0  0  0  0  0  0  0  0  0  0  0
   -6.9233   -0.6359   -2.5646 C   0  0  0  0  0  0  0  0  0  0  0  0
   -8.1279   -0.9933   -1.9890 O   0  0  0  0  0  0  0  0  0  0  0  0
   -8.7416   -0.1357   -1.0914 C   0  0  0  0  0  0  0  0  0  0  0  0
   -8.5772    1.2451   -1.1223 C   0  0  0  0  0  0  0  0  0  0  0  0
   -9.2037    1.9836   -0.1457 C   0  0  0  0  0  0  0  0  0  0  0  0
  -10.0092    1.4498    0.7850 N   0  0  0  0  0  0  0  0  0  0  0  0
  -10.2360    0.1251    0.7756 C   0  0  0  0  0  0  0  0  0  0  0  0
  -11.1201   -0.4173    1.7241 N   0  0  0  0  0  0  0  0  0  0  0  0
  -11.7597    0.3454    2.6898 C   0  0  0  0  0  0  0  0  0  0  0  0
  -11.6583    1.5503    2.8697 O   0  0  0  0  0  0  0  0  0  0  0  0
  -12.6707   -0.4260    3.5955 C   0  0  0  0  0  0  0  0  0  0  0  0
  -13.9224    0.2470    4.1249 C   0  0  0  0  0  0  0  0  0  0  0  0
  -12.7732   -0.0175    5.0521 C   0  0  0  0  0  0  0  0  0  0  0  0
   -9.6127   -0.7046   -0.1556 C   0  0  0  0  0  0  0  0  0  0  0  0
   -6.7202   -1.0058   -3.8977 C   0  0  0  0  0  0  0  0  0  0  0  0
   -5.5179   -0.6942   -4.5552 C   0  0  0  0  0  0  0  0  0  0  0  0
    1.4927   -0.0217   -4.9081 C   0  0  0  0  0  0  0  0  0  0  0  0
    2.7942   -0.3007   -4.4478 C   0  0  0  0  0  0  0  0  0  0  0  0
    4.0067   -0.1543   -5.3378 C   0  0  0  0  0  0  0  0  0  0  0  0
    3.7190    0.3110   -6.5844 F   0  0  0  0  0  0  0  0  0  0  0  0
    4.9240    0.7098   -4.8193 F   0  0  0  0  0  0  0  0  0  0  0  0
    4.6681   -1.3311   -5.5191 F   0  0  0  0  0  0  0  0  0  0  0  0
    2.9941   -0.7105   -3.1132 C   0  0  0  0  0  0  0  0  0  0  0  0
    1.1161   -2.2845   -0.2630 C   0  0  0  0  0  0  0  0  0  0  0  0
    1.5919   -3.6627   -0.7173 C   0  0  0  0  0  0  0  0  0  0  0  0
    4.4116   -5.4833   -0.5085 H   0  0  0  0  0  0  0  0  0  0  0  0
    3.3817   -5.2317   -1.9318 H   0  0  0  0  0  0  0  0  0  0  0  0
    2.7441   -6.0492   -0.4898 H   0  0  0  0  0  0  0  0  0  0  0  0
    4.1023   -2.9287   -1.7358 H   0  0  0  0  0  0  0  0  0  0  0  0
    4.8777   -3.1055   -0.1667 H   0  0  0  0  0  0  0  0  0  0  0  0
    4.2001   -0.7555   -0.5576 H   0  0  0  0  0  0  0  0  0  0  0  0
    3.4629   -1.4569    0.8654 H   0  0  0  0  0  0  0  0  0  0  0  0
    1.7589   -0.2386   -0.2170 H   0  0  0  0  0  0  0  0  0  0  0  0
   -0.1542   -0.5010   -1.9898 H   0  0  0  0  0  0  0  0  0  0  0  0
   -1.0043    0.5124   -5.4449 H   0  0  0  0  0  0  0  0  0  0  0  0
   -3.2063    0.0115   -5.4981 H   0  0  0  0  0  0  0  0  0  0  0  0
   -3.9188    0.8338   -1.9698 H   0  0  0  0  0  0  0  0  0  0  0  0
   -5.9920    0.2557   -0.8207 H   0  0  0  0  0  0  0  0  0  0  0  0
   -7.9639    1.7474   -1.8587 H   0  0  0  0  0  0  0  0  0  0  0  0
   -9.0724    3.0605   -0.0763 H   0  0  0  0  0  0  0  0  0  0  0  0
  -11.2934   -1.4095    1.6944 H   0  0  0  0  0  0  0  0  0  0  0  0
  -12.7531   -1.4886    3.3939 H   0  0  0  0  0  0  0  0  0  0  0  0
  -14.8202   -0.3453    4.2474 H   0  0  0  0  0  0  0  0  0  0  0  0
  -14.1097    1.2788    3.8400 H   0  0  0  0  0  0  0  0  0  0  0  0
  -12.8958   -0.7882    5.8027 H   0  0  0  0  0  0  0  0  0  0  0  0
  -12.1929    0.8374    5.3881 H   0  0  0  0  0  0  0  0  0  0  0  0
   -9.7902   -1.7756   -0.1620 H   0  0  0  0  0  0  0  0  0  0  0  0
   -7.4917   -1.5596   -4.4274 H   0  0  0  0  0  0  0  0  0  0  0  0
   -5.3754   -1.0267   -5.5792 H   0  0  0  0  0  0  0  0  0  0  0  0
    1.3471    0.2801   -5.9436 H   0  0  0  0  0  0  0  0  0  0  0  0
    4.0134   -0.9106   -2.7904 H   0  0  0  0  0  0  0  0  0  0  0  0
    0.0846   -2.1343   -0.5987 H   0  0  0  0  0  0  0  0  0  0  0  0
    1.0733   -2.2677    0.8349 H   0  0  0  0  0  0  0  0  0  0  0  0
    1.4990   -3.7419   -1.8076 H   0  0  0  0  0  0  0  0  0  0  0  0
    0.9163   -4.4102   -0.2816 H   0  0  0  0  0  0  0  0  0  0  0  0
  1  2  1  0  0  0  0
  1 41  1  0  0  0  0
  1 42  1  0  0  0  0
  1 43  1  0  0  0  0
  2  3  1  0  0  0  0
  2 40  1  0  0  0  0
  3  4  1  0  0  0  0
  3 44  1  0  0  0  0
  3 45  1  0  0  0  0
  4  5  1  0  0  0  0
  4 46  1  0  0  0  0
  4 47  1  0  0  0  0
  5  6  1  0  0  0  0
  5 39  1  0  0  0  0
  5 48  1  0  0  0  0
  6  7  1  0  0  0  0
  6 38  2  0  0  0  0
  7  8  2  0  0  0  0
  7 49  1  0  0  0  0
  8  9  1  0  0  0  0
  8 32  1  0  0  0  0
  9 10  1  0  0  0  0
  9 50  1  0  0  0  0
 10 11  2  0  0  0  0
 10 12  1  0  0  0  0
 12 13  1  0  0  0  0
 12 51  1  0  0  0  0
 13 14  1  0  0  0  0
 13 31  2  0  0  0  0
 14 15  2  0  0  0  0
 14 52  1  0  0  0  0
 15 16  1  0  0  0  0
 15 53  1  0  0  0  0
 16 17  1  0  0  0  0
 16 30  2  0  0  0  0
 17 18  1  0  0  0  0
 18 19  1  0  0  0  0
 18 29  2  0  0  0  0
 19 20  2  0  0  0  0
 19 54  1  0  0  0  0
 20 21  1  0  0  0  0
 20 55  1  0  0  0  0
 21 22  2  0  0  0  0
 22 23  1  0  0  0  0
 22 29  1  0  0  0  0
 23 24  1  0  0  0  0
 23 56  1  0  0  0  0
 24 25  2  0  0  0  0
 24 26  1  0  0  0  0
 26 27  1  0  0  0  0
 26 28  1  0  0  0  0
 26 57  1  0  0  0  0
 27 28  1  0  0  0  0
 27 58  1  0  0  0  0
 27 59  1  0  0  0  0
 28 60  1  0  0  0  0
 28 61  1  0  0  0  0
 29 62  1  0  0  0  0
 30 31  1  0  0  0  0
 30 63  1  0  0  0  0
 31 64  1  0  0  0  0
 32 33  2  0  0  0  0
 32 65  1  0  0  0  0
 33 34  1  0  0  0  0
 33 38  1  0  0  0  0
 34 35  1  0  0  0  0
 34 36  1  0  0  0  0
 34 37  1  0  0  0  0
 38 66  1  0  0  0  0
 39 40  1  0  0  0  0
 39 67  1  0  0  0  0
 39 68  1  0  0  0  0
 40 69  1  0  0  0  0
 40 70  1  0  0  0  0
M  END
$$$$
