CHEMBL1242475
 OpenBabel04072215363D

 41 45  0  0  0  0  0  0  0  0999 V2000
    1.1094    0.2071   -0.0472 N   0  0  0  0  0  0  0  0  0  0  0  0
    2.4894    0.0335   -0.0810 C   0  0  0  0  0  0  0  0  0  0  0  0
    3.2138    1.1698   -0.0764 N   0  0  0  0  0  0  0  0  0  0  0  0
    4.5552    1.0802   -0.0687 C   0  0  0  0  0  0  0  0  0  0  0  0
    5.3049   -0.0296   -0.0500 N   0  0  0  0  0  0  0  0  0  0  0  0
    4.5451   -1.1407   -0.0625 C   0  0  0  0  0  0  0  0  0  0  0  0
    3.1595   -1.2023   -0.0909 C   0  0  0  0  0  0  0  0  0  0  0  0
    2.8587   -2.6034   -0.1358 C   0  0  0  0  0  0  0  0  0  0  0  0
    1.5562   -3.2778   -0.2472 C   0  0  0  0  0  0  0  0  0  0  0  0
    0.4959   -2.6892   -0.9521 C   0  0  0  0  0  0  0  0  0  0  0  0
   -0.7684   -3.2840   -1.0415 C   0  0  0  0  0  0  0  0  0  0  0  0
   -0.9054   -4.5514   -0.4793 C   0  0  0  0  0  0  0  0  0  0  0  0
   -1.9624   -5.4218   -0.4481 N   0  0  0  0  0  0  0  0  0  0  0  0
   -1.6910   -6.5926    0.1548 N   0  0  0  0  0  0  0  0  0  0  0  0
   -0.4152   -6.4584    0.5293 C   0  0  0  0  0  0  0  0  0  0  0  0
    0.1309   -5.2041    0.1760 C   0  0  0  0  0  0  0  0  0  0  0  0
    1.3729   -4.5556    0.3174 C   0  0  0  0  0  0  0  0  0  0  0  0
    3.9859   -3.3380   -0.0651 N   0  0  0  0  0  0  0  0  0  0  0  0
    4.9871   -2.4312   -0.0543 N   0  0  0  0  0  0  0  0  0  0  0  0
    6.3701   -2.8686   -0.0517 C   0  0  0  0  0  0  0  0  0  0  0  0
    6.7430   -3.7613   -1.2372 C   0  0  0  0  0  0  0  0  0  0  0  0
    7.9819   -4.5309   -0.7852 C   0  0  0  0  0  0  0  0  0  0  0  0
    8.0590   -4.3852    0.7334 C   0  0  0  0  0  0  0  0  0  0  0  0
    6.7591   -3.7156    1.1596 C   0  0  0  0  0  0  0  0  0  0  0  0
    0.8809    1.1685    0.1674 H   0  0  0  0  0  0  0  0  0  0  0  0
    0.6080   -0.4925    0.4785 H   0  0  0  0  0  0  0  0  0  0  0  0
    5.0941    2.0238   -0.0736 H   0  0  0  0  0  0  0  0  0  0  0  0
    0.6393   -1.7468   -1.4760 H   0  0  0  0  0  0  0  0  0  0  0  0
   -1.5822   -2.7907   -1.5623 H   0  0  0  0  0  0  0  0  0  0  0  0
   -2.8866   -5.2846   -0.8406 H   0  0  0  0  0  0  0  0  0  0  0  0
    0.0703   -7.2821    1.0361 H   0  0  0  0  0  0  0  0  0  0  0  0
    2.1889   -5.0544    0.8354 H   0  0  0  0  0  0  0  0  0  0  0  0
    7.0049   -1.9742   -0.0738 H   0  0  0  0  0  0  0  0  0  0  0  0
    6.9366   -3.1754   -2.1423 H   0  0  0  0  0  0  0  0  0  0  0  0
    5.9440   -4.4719   -1.4789 H   0  0  0  0  0  0  0  0  0  0  0  0
    8.8870   -4.1251   -1.2506 H   0  0  0  0  0  0  0  0  0  0  0  0
    7.9104   -5.5836   -1.0803 H   0  0  0  0  0  0  0  0  0  0  0  0
    8.9146   -3.7534    0.9996 H   0  0  0  0  0  0  0  0  0  0  0  0
    8.1989   -5.3508    1.2298 H   0  0  0  0  0  0  0  0  0  0  0  0
    6.8897   -3.1103    2.0624 H   0  0  0  0  0  0  0  0  0  0  0  0
    6.0030   -4.4793    1.3794 H   0  0  0  0  0  0  0  0  0  0  0  0
  1  2  1  0  0  0  0
  1 25  1  0  0  0  0
  1 26  1  0  0  0  0
  2  3  1  0  0  0  0
  2  7  2  0  0  0  0
  3  4  2  0  0  0  0
  4  5  1  0  0  0  0
  4 27  1  0  0  0  0
  5  6  2  0  0  0  0
  6  7  1  0  0  0  0
  6 19  1  0  0  0  0
  7  8  1  0  0  0  0
  8  9  1  0  0  0  0
  8 18  2  0  0  0  0
  9 10  1  0  0  0  0
  9 17  2  0  0  0  0
 10 11  2  0  0  0  0
 10 28  1  0  0  0  0
 11 12  1  0  0  0  0
 11 29  1  0  0  0  0
 12 13  1  0  0  0  0
 12 16  2  0  0  0  0
 13 14  1  0  0  0  0
 13 30  1  0  0  0  0
 14 15  2  0  0  0  0
 15 16  1  0  0  0  0
 15 31  1  0  0  0  0
 16 17  1  0  0  0  0
 17 32  1  0  0  0  0
 18 19  1  0  0  0  0
 19 20  1  0  0  0  0
 20 21  1  0  0  0  0
 20 24  1  0  0  0  0
 20 33  1  0  0  0  0
 21 22  1  0  0  0  0
 21 34  1  0  0  0  0
 21 35  1  0  0  0  0
 22 23  1  0  0  0  0
 22 36  1  0  0  0  0
 22 37  1  0  0  0  0
 23 24  1  0  0  0  0
 23 38  1  0  0  0  0
 23 39  1  0  0  0  0
 24 40  1  0  0  0  0
 24 41  1  0  0  0  0
M  END
$$$$
