CHEMBL3656061
 OpenBabel04072215373D

 58 61  0  0  0  0  0  0  0  0999 V2000
    2.7738    0.7716   -2.4818 C   0  0  0  0  0  0  0  0  0  0  0  0
    1.3734    0.5032   -2.0089 C   0  0  0  0  0  0  0  0  0  0  0  0
    0.8563   -0.7941   -2.0803 C   0  0  0  0  0  0  0  0  0  0  0  0
   -0.4263   -1.0546   -1.6168 C   0  0  0  0  0  0  0  0  0  0  0  0
   -1.2058   -0.0242   -1.0970 C   0  0  0  0  0  0  0  0  0  0  0  0
   -2.3683   -0.3921   -0.5458 F   0  0  0  0  0  0  0  0  0  0  0  0
   -0.7455    1.3023   -1.0676 C   0  0  0  0  0  0  0  0  0  0  0  0
   -1.5172    2.4176   -0.6327 N   0  0  0  0  0  0  0  0  0  0  0  0
   -2.8987    2.4450   -0.5694 C   0  0  0  0  0  0  0  0  0  0  0  0
   -3.6401    1.5308   -0.9090 O   0  0  0  0  0  0  0  0  0  0  0  0
   -3.3971    3.6757   -0.1391 N   0  0  0  0  0  0  0  0  0  0  0  0
   -4.7994    3.7942    0.0501 C   0  0  0  0  0  0  0  0  0  0  0  0
   -5.4784    2.8568    0.8360 C   0  0  0  0  0  0  0  0  0  0  0  0
   -6.8712    2.8664    0.9074 C   0  0  0  0  0  0  0  0  0  0  0  0
   -7.6008    3.8561    0.2470 C   0  0  0  0  0  0  0  0  0  0  0  0
   -8.9810    3.9304    0.2621 O   0  0  0  0  0  0  0  0  0  0  0  0
   -9.6653    3.5479    1.3963 C   0  0  0  0  0  0  0  0  0  0  0  0
   -9.1793    3.7389    2.6865 C   0  0  0  0  0  0  0  0  0  0  0  0
   -9.9292    3.2644    3.7406 C   0  0  0  0  0  0  0  0  0  0  0  0
  -11.1402    2.6921    3.5960 N   0  0  0  0  0  0  0  0  0  0  0  0
  -11.6482    2.5799    2.3443 C   0  0  0  0  0  0  0  0  0  0  0  0
  -13.0024    2.0107    2.2915 C   0  0  0  0  0  0  0  0  0  0  0  0
  -13.7360    1.8590    1.1367 C   0  0  0  0  0  0  0  0  0  0  0  0
  -15.2827    1.1881    1.4076 S   0  0  0  0  0  0  0  0  0  0  0  0
  -15.0211    1.0777    3.1005 C   0  0  0  0  0  0  0  0  0  0  0  0
  -16.0380    0.5453    4.0060 C   0  0  0  0  0  0  0  0  0  0  0  0
  -15.8865    0.4580    5.2208 O   0  0  0  0  0  0  0  0  0  0  0  0
  -17.2047    0.1395    3.4096 N   0  0  0  0  0  0  0  0  0  0  0  0
  -18.3213   -0.4088    4.1432 C   0  0  0  0  0  0  0  0  0  0  0  0
  -19.4457   -0.7398    3.1705 C   0  0  0  0  0  0  0  0  0  0  0  0
  -19.3829   -0.5563    1.9617 O   0  0  0  0  0  0  0  0  0  0  0  0
  -20.5420   -1.2633    3.7669 O   0  0  0  0  0  0  0  0  0  0  0  0
  -13.7653    1.5497    3.4280 C   0  0  0  0  0  0  0  0  0  0  0  0
  -10.9348    2.9912    1.2186 C   0  0  0  0  0  0  0  0  0  0  0  0
   -6.9232    4.8011   -0.5325 C   0  0  0  0  0  0  0  0  0  0  0  0
   -5.5217    4.7876   -0.6131 C   0  0  0  0  0  0  0  0  0  0  0  0
    0.5709    1.5452   -1.4996 C   0  0  0  0  0  0  0  0  0  0  0  0
    3.2581   -0.1478   -2.8310 H   0  0  0  0  0  0  0  0  0  0  0  0
    3.3799    1.1737   -1.6643 H   0  0  0  0  0  0  0  0  0  0  0  0
    2.7649    1.4796   -3.3159 H   0  0  0  0  0  0  0  0  0  0  0  0
    1.4514   -1.6130   -2.4773 H   0  0  0  0  0  0  0  0  0  0  0  0
   -0.8318   -2.0615   -1.6355 H   0  0  0  0  0  0  0  0  0  0  0  0
   -1.0336    3.2927   -0.4988 H   0  0  0  0  0  0  0  0  0  0  0  0
   -2.9401    4.4717   -0.5618 H   0  0  0  0  0  0  0  0  0  0  0  0
   -4.9287    2.0840    1.3685 H   0  0  0  0  0  0  0  0  0  0  0  0
   -7.3642    2.0818    1.4736 H   0  0  0  0  0  0  0  0  0  0  0  0
   -8.2244    4.2176    2.8767 H   0  0  0  0  0  0  0  0  0  0  0  0
   -9.5660    3.3317    4.7606 H   0  0  0  0  0  0  0  0  0  0  0  0
  -13.4648    2.1069    0.1201 H   0  0  0  0  0  0  0  0  0  0  0  0
  -17.2950    0.2263    2.3997 H   0  0  0  0  0  0  0  0  0  0  0  0
  -18.6640    0.3354    4.8683 H   0  0  0  0  0  0  0  0  0  0  0  0
  -17.9919   -1.3181    4.6543 H   0  0  0  0  0  0  0  0  0  0  0  0
  -20.4642   -1.3592    4.7340 H   0  0  0  0  0  0  0  0  0  0  0  0
  -13.3977    1.5695    4.4468 H   0  0  0  0  0  0  0  0  0  0  0  0
  -11.3320    2.8891    0.2164 H   0  0  0  0  0  0  0  0  0  0  0  0
   -7.4877    5.5341   -1.1032 H   0  0  0  0  0  0  0  0  0  0  0  0
   -5.0229    5.5034   -1.2595 H   0  0  0  0  0  0  0  0  0  0  0  0
    0.9792    2.5515   -1.4702 H   0  0  0  0  0  0  0  0  0  0  0  0
  1  2  1  0  0  0  0
  1 38  1  0  0  0  0
  1 39  1  0  0  0  0
  1 40  1  0  0  0  0
  2  3  1  0  0  0  0
  2 37  2  0  0  0  0
  3  4  2  0  0  0  0
  3 41  1  0  0  0  0
  4  5  1  0  0  0  0
  4 42  1  0  0  0  0
  5  6  1  0  0  0  0
  5  7  2  0  0  0  0
  7  8  1  0  0  0  0
  7 37  1  0  0  0  0
  8  9  1  0  0  0  0
  8 43  1  0  0  0  0
  9 10  2  0  0  0  0
  9 11  1  0  0  0  0
 11 12  1  0  0  0  0
 11 44  1  0  0  0  0
 12 13  1  0  0  0  0
 12 36  2  0  0  0  0
 13 14  2  0  0  0  0
 13 45  1  0  0  0  0
 14 15  1  0  0  0  0
 14 46  1  0  0  0  0
 15 16  1  0  0  0  0
 15 35  2  0  0  0  0
 16 17  1  0  0  0  0
 17 18  1  0  0  0  0
 17 34  2  0  0  0  0
 18 19  2  0  0  0  0
 18 47  1  0  0  0  0
 19 20  1  0  0  0  0
 19 48  1  0  0  0  0
 20 21  2  0  0  0  0
 21 22  1  0  0  0  0
 21 34  1  0  0  0  0
 22 23  2  0  0  0  0
 22 33  1  0  0  0  0
 23 24  1  0  0  0  0
 23 49  1  0  0  0  0
 24 25  1  0  0  0  0
 25 26  1  0  0  0  0
 25 33  2  0  0  0  0
 26 27  2  0  0  0  0
 26 28  1  0  0  0  0
 28 29  1  0  0  0  0
 28 50  1  0  0  0  0
 29 30  1  0  0  0  0
 29 51  1  0  0  0  0
 29 52  1  0  0  0  0
 30 31  2  0  0  0  0
 30 32  1  0  0  0  0
 32 53  1  0  0  0  0
 33 54  1  0  0  0  0
 34 55  1  0  0  0  0
 35 36  1  0  0  0  0
 35 56  1  0  0  0  0
 36 57  1  0  0  0  0
 37 58  1  0  0  0  0
M  END
$$$$
