CHEMBL222918
 OpenBabel04072215363D

 55 58  0  0  0  0  0  0  0  0999 V2000
    2.4088   -0.4359    1.5133 C   0  0  0  0  0  0  0  0  0  0  0  0
    0.9149   -0.3128    1.4929 C   0  0  0  0  0  0  0  0  0  0  0  0
    0.3136    0.8897    1.8849 C   0  0  0  0  0  0  0  0  0  0  0  0
   -1.0711    1.0081    1.8711 C   0  0  0  0  0  0  0  0  0  0  0  0
   -1.8573   -0.0666    1.4666 C   0  0  0  0  0  0  0  0  0  0  0  0
   -1.2895   -1.2808    1.0562 C   0  0  0  0  0  0  0  0  0  0  0  0
   -2.0623   -2.3969    0.6392 N   0  0  0  0  0  0  0  0  0  0  0  0
   -3.4260   -2.3618    0.4093 C   0  0  0  0  0  0  0  0  0  0  0  0
   -4.1108   -1.3464    0.4441 O   0  0  0  0  0  0  0  0  0  0  0  0
   -3.9727   -3.6252    0.1713 N   0  0  0  0  0  0  0  0  0  0  0  0
   -5.3781   -3.7279   -0.0149 C   0  0  0  0  0  0  0  0  0  0  0  0
   -6.0561   -2.8219   -0.8284 C   0  0  0  0  0  0  0  0  0  0  0  0
   -7.4537   -2.7944   -0.8583 C   0  0  0  0  0  0  0  0  0  0  0  0
   -8.2356   -3.7019   -0.1180 C   0  0  0  0  0  0  0  0  0  0  0  0
   -9.7172   -3.7389   -0.2665 C   0  0  0  0  0  0  0  0  0  0  0  0
  -10.3170   -3.3400   -1.4966 C   0  0  0  0  0  0  0  0  0  0  0  0
  -11.6703   -3.5061   -1.7709 C   0  0  0  0  0  0  0  0  0  0  0  0
  -12.4875   -4.1886   -0.8826 C   0  0  0  0  0  0  0  0  0  0  0  0
  -11.9099   -4.6164    0.3165 C   0  0  0  0  0  0  0  0  0  0  0  0
  -10.6012   -4.3037    0.7062 C   0  0  0  0  0  0  0  0  0  0  0  0
  -10.6316   -4.5991    2.1197 C   0  0  0  0  0  0  0  0  0  0  0  0
   -9.8812   -3.9857    3.0849 N   0  0  0  0  0  0  0  0  0  0  0  0
  -10.0034   -2.5119    3.1341 C   0  0  0  0  0  0  0  0  0  0  0  0
   -9.8119   -4.6174    4.4084 C   0  0  0  0  0  0  0  0  0  0  0  0
  -11.6277   -5.4354    2.4139 N   0  0  0  0  0  0  0  0  0  0  0  0
  -12.4137   -5.3784    1.3395 N   0  0  0  0  0  0  0  0  0  0  0  0
  -13.7097   -6.0059    1.3991 C   0  0  0  0  0  0  0  0  0  0  0  0
   -7.5227   -4.6522    0.6406 C   0  0  0  0  0  0  0  0  0  0  0  0
   -6.1138   -4.6797    0.6844 C   0  0  0  0  0  0  0  0  0  0  0  0
    0.1084   -1.3902    1.0769 C   0  0  0  0  0  0  0  0  0  0  0  0
    2.8805    0.4996    1.8313 H   0  0  0  0  0  0  0  0  0  0  0  0
    2.7850   -0.6746    0.5135 H   0  0  0  0  0  0  0  0  0  0  0  0
    2.7099   -1.2181    2.2163 H   0  0  0  0  0  0  0  0  0  0  0  0
    0.9183    1.7359    2.2030 H   0  0  0  0  0  0  0  0  0  0  0  0
   -1.5430    1.9361    2.1800 H   0  0  0  0  0  0  0  0  0  0  0  0
   -2.9332    0.0897    1.4975 H   0  0  0  0  0  0  0  0  0  0  0  0
   -1.5633   -3.2148    0.3269 H   0  0  0  0  0  0  0  0  0  0  0  0
   -3.5282   -4.3808    0.6714 H   0  0  0  0  0  0  0  0  0  0  0  0
   -5.5066   -2.0983   -1.4274 H   0  0  0  0  0  0  0  0  0  0  0  0
   -7.9125   -2.0311   -1.4819 H   0  0  0  0  0  0  0  0  0  0  0  0
   -9.7074   -2.9089   -2.2873 H   0  0  0  0  0  0  0  0  0  0  0  0
  -12.0739   -3.1463   -2.7145 H   0  0  0  0  0  0  0  0  0  0  0  0
  -13.5311   -4.3692   -1.1125 H   0  0  0  0  0  0  0  0  0  0  0  0
  -10.7268   -2.1253    2.4076 H   0  0  0  0  0  0  0  0  0  0  0  0
   -9.0280   -2.0620    2.9310 H   0  0  0  0  0  0  0  0  0  0  0  0
  -10.3483   -2.1646    4.1099 H   0  0  0  0  0  0  0  0  0  0  0  0
  -10.3553   -5.5672    4.4806 H   0  0  0  0  0  0  0  0  0  0  0  0
  -10.2107   -3.9738    5.2036 H   0  0  0  0  0  0  0  0  0  0  0  0
   -8.7652   -4.8256    4.6434 H   0  0  0  0  0  0  0  0  0  0  0  0
  -13.7750   -6.6150    2.3046 H   0  0  0  0  0  0  0  0  0  0  0  0
  -13.8387   -6.6393    0.5186 H   0  0  0  0  0  0  0  0  0  0  0  0
  -14.4616   -5.2138    1.4290 H   0  0  0  0  0  0  0  0  0  0  0  0
   -8.0609   -5.3998    1.2200 H   0  0  0  0  0  0  0  0  0  0  0  0
   -5.6245   -5.4113    1.3202 H   0  0  0  0  0  0  0  0  0  0  0  0
    0.5842   -2.3173    0.7662 H   0  0  0  0  0  0  0  0  0  0  0  0
  1  2  1  0  0  0  0
  1 31  1  0  0  0  0
  1 32  1  0  0  0  0
  1 33  1  0  0  0  0
  2  3  1  0  0  0  0
  2 30  2  0  0  0  0
  3  4  2  0  0  0  0
  3 34  1  0  0  0  0
  4  5  1  0  0  0  0
  4 35  1  0  0  0  0
  5  6  2  0  0  0  0
  5 36  1  0  0  0  0
  6  7  1  0  0  0  0
  6 30  1  0  0  0  0
  7  8  1  0  0  0  0
  7 37  1  0  0  0  0
  8  9  2  0  0  0  0
  8 10  1  0  0  0  0
 10 11  1  0  0  0  0
 10 38  1  0  0  0  0
 11 12  1  0  0  0  0
 11 29  2  0  0  0  0
 12 13  2  0  0  0  0
 12 39  1  0  0  0  0
 13 14  1  0  0  0  0
 13 40  1  0  0  0  0
 14 15  1  0  0  0  0
 14 28  2  0  0  0  0
 15 16  1  0  0  0  0
 15 20  2  0  0  0  0
 16 17  2  0  0  0  0
 16 41  1  0  0  0  0
 17 18  1  0  0  0  0
 17 42  1  0  0  0  0
 18 19  2  0  0  0  0
 18 43  1  0  0  0  0
 19 20  1  0  0  0  0
 19 26  1  0  0  0  0
 20 21  1  0  0  0  0
 21 22  1  0  0  0  0
 21 25  2  0  0  0  0
 22 23  1  0  0  0  0
 22 24  1  0  0  0  0
 23 44  1  0  0  0  0
 23 45  1  0  0  0  0
 23 46  1  0  0  0  0
 24 47  1  0  0  0  0
 24 48  1  0  0  0  0
 24 49  1  0  0  0  0
 25 26  1  0  0  0  0
 26 27  1  0  0  0  0
 27 50  1  0  0  0  0
 27 51  1  0  0  0  0
 27 52  1  0  0  0  0
 28 29  1  0  0  0  0
 28 53  1  0  0  0  0
 29 54  1  0  0  0  0
 30 55  1  0  0  0  0
M  END
$$$$
