CHEMBL4282864
 OpenBabel04072215383D

 40 43  0  0  0  0  0  0  0  0999 V2000
    2.9902    1.9912    0.1267 C   0  0  0  0  0  0  0  0  0  0  0  0
    3.0380    0.1830    0.0175 S   0  0  0  0  0  0  0  0  0  0  0  0
    3.5480    0.0005   -1.6714 C   0  0  0  0  0  0  0  0  0  0  0  0
    3.1292   -1.0936   -2.3207 N   0  0  0  0  0  0  0  0  0  0  0  0
    3.5040   -1.2020   -3.6100 C   0  0  0  0  0  0  0  0  0  0  0  0
    4.2783   -0.2697   -4.2704 C   0  0  0  0  0  0  0  0  0  0  0  0
    4.6260    0.8431   -3.5179 C   0  0  0  0  0  0  0  0  0  0  0  0
    4.3041    0.9649   -2.2150 N   0  0  0  0  0  0  0  0  0  0  0  0
    5.2422    1.9717   -4.0800 N   0  0  0  0  0  0  0  0  0  0  0  0
    4.7299    2.4970   -5.2148 C   0  0  0  0  0  0  0  0  0  0  0  0
    4.3792    3.7764   -5.3610 N   0  0  0  0  0  0  0  0  0  0  0  0
    3.7688    3.8040   -6.5612 N   0  0  0  0  0  0  0  0  0  0  0  0
    3.7388    2.5957   -7.2031 C   0  0  0  0  0  0  0  0  0  0  0  0
    3.1158    2.3964   -8.5270 C   0  0  0  0  0  0  0  0  0  0  0  0
    4.3751    1.7330   -6.3498 C   0  0  0  0  0  0  0  0  0  0  0  0
    4.6740    0.4050   -6.6479 N   0  0  0  0  0  0  0  0  0  0  0  0
    4.6892   -0.4772   -5.6899 C   0  0  0  0  0  0  0  0  0  0  0  0
    5.1908   -1.8436   -6.0850 C   0  0  0  0  0  0  0  0  0  0  0  0
    5.8789   -2.6595   -5.1789 C   0  0  0  0  0  0  0  0  0  0  0  0
    6.4093   -3.8827   -5.5973 C   0  0  0  0  0  0  0  0  0  0  0  0
    6.2550   -4.3158   -6.9224 C   0  0  0  0  0  0  0  0  0  0  0  0
    6.8185   -5.6419   -7.3741 C   0  0  0  0  0  0  0  0  0  0  0  0
    7.4507   -6.3267   -6.3800 F   0  0  0  0  0  0  0  0  0  0  0  0
    5.8544   -6.4784   -7.8465 F   0  0  0  0  0  0  0  0  0  0  0  0
    7.7305   -5.5141   -8.3767 F   0  0  0  0  0  0  0  0  0  0  0  0
    5.5591   -3.4982   -7.8252 C   0  0  0  0  0  0  0  0  0  0  0  0
    5.0413   -2.2675   -7.4127 C   0  0  0  0  0  0  0  0  0  0  0  0
    2.6332    2.2792    1.1195 H   0  0  0  0  0  0  0  0  0  0  0  0
    2.3055    2.4083   -0.6178 H   0  0  0  0  0  0  0  0  0  0  0  0
    3.9864    2.4207   -0.0124 H   0  0  0  0  0  0  0  0  0  0  0  0
    3.1394   -2.0968   -4.1095 H   0  0  0  0  0  0  0  0  0  0  0  0
    5.3559    2.6545   -3.3375 H   0  0  0  0  0  0  0  0  0  0  0  0
    3.3833    4.6872   -6.8774 H   0  0  0  0  0  0  0  0  0  0  0  0
    2.6240    3.3074   -8.8823 H   0  0  0  0  0  0  0  0  0  0  0  0
    2.3585    1.6069   -8.4729 H   0  0  0  0  0  0  0  0  0  0  0  0
    3.8664    2.1015   -9.2663 H   0  0  0  0  0  0  0  0  0  0  0  0
    6.0363   -2.3601   -4.1457 H   0  0  0  0  0  0  0  0  0  0  0  0
    6.9531   -4.4965   -4.8796 H   0  0  0  0  0  0  0  0  0  0  0  0
    5.4210   -3.8138   -8.8589 H   0  0  0  0  0  0  0  0  0  0  0  0
    4.5272   -1.6366   -8.1361 H   0  0  0  0  0  0  0  0  0  0  0  0
  1  2  1  0  0  0  0
  1 28  1  0  0  0  0
  1 29  1  0  0  0  0
  1 30  1  0  0  0  0
  2  3  1  0  0  0  0
  3  4  1  0  0  0  0
  3  8  2  0  0  0  0
  4  5  2  0  0  0  0
  5  6  1  0  0  0  0
  5 31  1  0  0  0  0
  6  7  2  0  0  0  0
  6 17  1  0  0  0  0
  7  8  1  0  0  0  0
  7  9  1  0  0  0  0
  9 10  1  0  0  0  0
  9 32  1  0  0  0  0
 10 11  2  0  0  0  0
 10 15  1  0  0  0  0
 11 12  1  0  0  0  0
 12 13  1  0  0  0  0
 12 33  1  0  0  0  0
 13 14  1  0  0  0  0
 13 15  2  0  0  0  0
 14 34  1  0  0  0  0
 14 35  1  0  0  0  0
 14 36  1  0  0  0  0
 15 16  1  0  0  0  0
 16 17  2  0  0  0  0
 17 18  1  0  0  0  0
 18 19  1  0  0  0  0
 18 27  2  0  0  0  0
 19 20  2  0  0  0  0
 19 37  1  0  0  0  0
 20 21  1  0  0  0  0
 20 38  1  0  0  0  0
 21 22  1  0  0  0  0
 21 26  2  0  0  0  0
 22 23  1  0  0  0  0
 22 24  1  0  0  0  0
 22 25  1  0  0  0  0
 26 27  1  0  0  0  0
 26 39  1  0  0  0  0
 27 40  1  0  0  0  0
M  END
$$$$
