CHEMBL4790424
 OpenBabel04072215383D

 46 48  0  0  0  0  0  0  0  0999 V2000
    1.9806    3.8775    1.9989 C   0  0  0  0  0  0  0  0  0  0  0  0
    3.3247    3.4345    1.7493 N   0  0  0  0  0  0  0  0  0  0  0  0
    3.6172    2.5424    0.7399 C   0  0  0  0  0  0  0  0  0  0  0  0
    2.7755    2.0774   -0.0203 O   0  0  0  0  0  0  0  0  0  0  0  0
    5.0666    2.1769    0.6213 C   0  0  0  0  0  0  0  0  0  0  0  0
    5.4670    1.3126   -0.3869 C   0  0  0  0  0  0  0  0  0  0  0  0
    6.8307    1.0780   -0.5441 C   0  0  0  0  0  0  0  0  0  0  0  0
    7.3764    0.2910   -1.5392 O   0  0  0  0  0  0  0  0  0  0  0  0
    6.7759    0.2589   -2.7788 C   0  0  0  0  0  0  0  0  0  0  0  0
    6.1213    1.3479   -3.3474 C   0  0  0  0  0  0  0  0  0  0  0  0
    5.4444    1.2052   -4.5580 C   0  0  0  0  0  0  0  0  0  0  0  0
    5.4640    0.0004   -5.2635 C   0  0  0  0  0  0  0  0  0  0  0  0
    4.7426   -0.2102   -6.4631 N   0  0  0  0  0  0  0  0  0  0  0  0
    3.8935    0.7086   -7.0593 C   0  0  0  0  0  0  0  0  0  0  0  0
    3.6958    1.8586   -6.6753 O   0  0  0  0  0  0  0  0  0  0  0  0
    3.1426    0.2932   -8.2751 C   0  0  0  0  0  0  0  0  0  0  0  0
    2.8354   -1.0342   -8.5918 C   0  0  0  0  0  0  0  0  0  0  0  0
    2.0512   -1.3170   -9.7182 C   0  0  0  0  0  0  0  0  0  0  0  0
    1.5519   -0.2813  -10.5149 C   0  0  0  0  0  0  0  0  0  0  0  0
    1.8323    1.0535  -10.2018 C   0  0  0  0  0  0  0  0  0  0  0  0
    1.2714    2.2034  -11.0011 C   0  0  0  0  0  0  0  0  0  0  0  0
    0.4460    1.8131  -12.0123 F   0  0  0  0  0  0  0  0  0  0  0  0
    0.5408    3.0612  -10.2359 F   0  0  0  0  0  0  0  0  0  0  0  0
    2.2444    2.9577  -11.5835 F   0  0  0  0  0  0  0  0  0  0  0  0
    2.6406    1.3223   -9.0901 C   0  0  0  0  0  0  0  0  0  0  0  0
    6.2221   -1.0586   -4.7431 C   0  0  0  0  0  0  0  0  0  0  0  0
    6.8699   -0.9290   -3.5048 C   0  0  0  0  0  0  0  0  0  0  0  0
    7.7263    1.6267    0.3692 C   0  0  0  0  0  0  0  0  0  0  0  0
    7.2285    2.4459    1.3707 C   0  0  0  0  0  0  0  0  0  0  0  0
    5.9210    2.7546    1.5128 N   0  0  0  0  0  0  0  0  0  0  0  0
    1.9841    4.5651    2.8471 H   0  0  0  0  0  0  0  0  0  0  0  0
    1.3527    3.0103    2.2216 H   0  0  0  0  0  0  0  0  0  0  0  0
    1.5934    4.3809    1.1085 H   0  0  0  0  0  0  0  0  0  0  0  0
    4.1039    3.7665    2.3112 H   0  0  0  0  0  0  0  0  0  0  0  0
    4.7260    0.8727   -1.0459 H   0  0  0  0  0  0  0  0  0  0  0  0
    6.0848    2.3135   -2.8517 H   0  0  0  0  0  0  0  0  0  0  0  0
    4.8960    2.0737   -4.9068 H   0  0  0  0  0  0  0  0  0  0  0  0
    4.8588   -1.1117   -6.9037 H   0  0  0  0  0  0  0  0  0  0  0  0
    3.1555   -1.8594   -7.9654 H   0  0  0  0  0  0  0  0  0  0  0  0
    1.8022   -2.3476   -9.9596 H   0  0  0  0  0  0  0  0  0  0  0  0
    0.9223   -0.5228  -11.3714 H   0  0  0  0  0  0  0  0  0  0  0  0
    2.8597    2.3626   -8.8361 H   0  0  0  0  0  0  0  0  0  0  0  0
    6.2986   -2.0024   -5.2742 H   0  0  0  0  0  0  0  0  0  0  0  0
    7.4331   -1.7667   -3.1002 H   0  0  0  0  0  0  0  0  0  0  0  0
    8.7898    1.4274    0.2959 H   0  0  0  0  0  0  0  0  0  0  0  0
    7.8941    2.8947    2.1035 H   0  0  0  0  0  0  0  0  0  0  0  0
  1  2  1  0  0  0  0
  1 31  1  0  0  0  0
  1 32  1  0  0  0  0
  1 33  1  0  0  0  0
  2  3  1  0  0  0  0
  2 34  1  0  0  0  0
  3  4  2  0  0  0  0
  3  5  1  0  0  0  0
  5  6  1  0  0  0  0
  5 30  2  0  0  0  0
  6  7  2  0  0  0  0
  6 35  1  0  0  0  0
  7  8  1  0  0  0  0
  7 28  1  0  0  0  0
  8  9  1  0  0  0  0
  9 10  1  0  0  0  0
  9 27  2  0  0  0  0
 10 11  2  0  0  0  0
 10 36  1  0  0  0  0
 11 12  1  0  0  0  0
 11 37  1  0  0  0  0
 12 13  1  0  0  0  0
 12 26  2  0  0  0  0
 13 14  1  0  0  0  0
 13 38  1  0  0  0  0
 14 15  2  0  0  0  0
 14 16  1  0  0  0  0
 16 17  1  0  0  0  0
 16 25  2  0  0  0  0
 17 18  2  0  0  0  0
 17 39  1  0  0  0  0
 18 19  1  0  0  0  0
 18 40  1  0  0  0  0
 19 20  2  0  0  0  0
 19 41  1  0  0  0  0
 20 21  1  0  0  0  0
 20 25  1  0  0  0  0
 21 22  1  0  0  0  0
 21 23  1  0  0  0  0
 21 24  1  0  0  0  0
 25 42  1  0  0  0  0
 26 27  1  0  0  0  0
 26 43  1  0  0  0  0
 27 44  1  0  0  0  0
 28 29  2  0  0  0  0
 28 45  1  0  0  0  0
 29 30  1  0  0  0  0
 29 46  1  0  0  0  0
M  END
$$$$
