CHEMBL2087169
 OpenBabel04072215363D

 61 65  0  0  0  0  0  0  0  0999 V2000
    0.9390    2.1694    4.1341 C   0  0  0  0  0  0  0  0  0  0  0  0
    2.3873    2.6375    4.2204 C   0  0  0  0  0  0  0  0  0  0  0  0
    2.7147    3.7257    3.2812 N   0  0  0  0  0  0  0  0  0  0  0  0
    4.1131    4.1425    3.4983 C   0  0  0  0  0  0  0  0  0  0  0  0
    4.5026    5.2938    2.5745 C   0  0  0  0  0  0  0  0  0  0  0  0
    4.3177    4.9182    1.0999 C   0  0  0  0  0  0  0  0  0  0  0  0
    5.2424    3.8487    0.6771 N   0  0  0  0  0  0  0  0  0  0  0  0
    6.6272    4.0416    0.7653 C   0  0  0  0  0  0  0  0  0  0  0  0
    7.2367    5.3017    0.6232 C   0  0  0  0  0  0  0  0  0  0  0  0
    8.6181    5.4525    0.7227 C   0  0  0  0  0  0  0  0  0  0  0  0
    9.3662    4.3155    0.9456 C   0  0  0  0  0  0  0  0  0  0  0  0
    8.8080    3.0383    1.0518 C   0  0  0  0  0  0  0  0  0  0  0  0
    7.4346    2.8981    0.9256 C   0  0  0  0  0  0  0  0  0  0  0  0
    9.9392    2.1151    1.3217 C   0  0  0  0  0  0  0  0  0  0  0  0
    9.9613    0.7835    1.5649 C   0  0  0  0  0  0  0  0  0  0  0  0
    8.7519    0.0336    1.5236 C   0  0  0  0  0  0  0  0  0  0  0  0
    8.1766   -0.6185    0.5340 N   0  0  0  0  0  0  0  0  0  0  0  0
    7.0302   -1.1719    1.0553 C   0  0  0  0  0  0  0  0  0  0  0  0
    6.1269   -1.9791    0.2073 C   0  0  0  0  0  0  0  0  0  0  0  0
    6.9070   -0.8436    2.3875 C   0  0  0  0  0  0  0  0  0  0  0  0
    8.0202   -0.1035    2.6810 N   0  0  0  0  0  0  0  0  0  0  0  0
   11.2380    0.0974    1.8698 C   0  0  0  0  0  0  0  0  0  0  0  0
   12.0337   -0.4255    0.8418 C   0  0  0  0  0  0  0  0  0  0  0  0
   13.2714   -1.0054    1.1375 C   0  0  0  0  0  0  0  0  0  0  0  0
   13.7168   -1.0792    2.4589 C   0  0  0  0  0  0  0  0  0  0  0  0
   12.9189   -0.5854    3.4905 C   0  0  0  0  0  0  0  0  0  0  0  0
   11.6881   -0.0041    3.1905 C   0  0  0  0  0  0  0  0  0  0  0  0
   10.9341    0.4672    4.1976 F   0  0  0  0  0  0  0  0  0  0  0  0
   11.1875    2.9869    1.3296 C   0  0  0  0  0  0  0  0  0  0  0  0
   12.3492    2.6754    1.4994 O   0  0  0  0  0  0  0  0  0  0  0  0
   10.7395    4.2743    1.1012 N   0  0  0  0  0  0  0  0  0  0  0  0
    2.8779    4.4401    0.9020 C   0  0  0  0  0  0  0  0  0  0  0  0
    2.5097    3.3230    1.8801 C   0  0  0  0  0  0  0  0  0  0  0  0
    0.7236    1.4698    4.9479 H   0  0  0  0  0  0  0  0  0  0  0  0
    0.7386    1.6436    3.1954 H   0  0  0  0  0  0  0  0  0  0  0  0
    0.2453    3.0120    4.2184 H   0  0  0  0  0  0  0  0  0  0  0  0
    3.0531    1.7773    4.0731 H   0  0  0  0  0  0  0  0  0  0  0  0
    2.5505    2.9975    5.2443 H   0  0  0  0  0  0  0  0  0  0  0  0
    4.8019    3.2988    3.3574 H   0  0  0  0  0  0  0  0  0  0  0  0
    4.2379    4.4855    4.5330 H   0  0  0  0  0  0  0  0  0  0  0  0
    5.5317    5.5982    2.7919 H   0  0  0  0  0  0  0  0  0  0  0  0
    3.8745    6.1655    2.8030 H   0  0  0  0  0  0  0  0  0  0  0  0
    4.4657    5.8002    0.4660 H   0  0  0  0  0  0  0  0  0  0  0  0
    5.0195    3.5000   -0.2562 H   0  0  0  0  0  0  0  0  0  0  0  0
    6.6388    6.1894    0.4418 H   0  0  0  0  0  0  0  0  0  0  0  0
    9.0767    6.4298    0.6364 H   0  0  0  0  0  0  0  0  0  0  0  0
    6.9544    1.9279    0.9832 H   0  0  0  0  0  0  0  0  0  0  0  0
    6.4724   -1.9923   -0.8313 H   0  0  0  0  0  0  0  0  0  0  0  0
    5.1140   -1.5655    0.2227 H   0  0  0  0  0  0  0  0  0  0  0  0
    6.0867   -3.0123    0.5653 H   0  0  0  0  0  0  0  0  0  0  0  0
    6.1530   -1.0683    3.1280 H   0  0  0  0  0  0  0  0  0  0  0  0
    8.2609    0.3008    3.5761 H   0  0  0  0  0  0  0  0  0  0  0  0
   11.7045   -0.3602   -0.1926 H   0  0  0  0  0  0  0  0  0  0  0  0
   13.8962   -1.3841    0.3321 H   0  0  0  0  0  0  0  0  0  0  0  0
   14.6880   -1.5140    2.6814 H   0  0  0  0  0  0  0  0  0  0  0  0
   13.2551   -0.6339    4.5212 H   0  0  0  0  0  0  0  0  0  0  0  0
   11.3663    5.0623    1.0607 H   0  0  0  0  0  0  0  0  0  0  0  0
    2.7242    4.0918   -0.1262 H   0  0  0  0  0  0  0  0  0  0  0  0
    2.1949    5.2873    1.0530 H   0  0  0  0  0  0  0  0  0  0  0  0
    3.0812    2.4155    1.6463 H   0  0  0  0  0  0  0  0  0  0  0  0
    1.4528    3.0949    1.7065 H   0  0  0  0  0  0  0  0  0  0  0  0
  1  2  1  0  0  0  0
  1 34  1  0  0  0  0
  1 35  1  0  0  0  0
  1 36  1  0  0  0  0
  2  3  1  0  0  0  0
  2 37  1  0  0  0  0
  2 38  1  0  0  0  0
  3  4  1  0  0  0  0
  3 33  1  0  0  0  0
  4  5  1  0  0  0  0
  4 39  1  0  0  0  0
  4 40  1  0  0  0  0
  5  6  1  0  0  0  0
  5 41  1  0  0  0  0
  5 42  1  0  0  0  0
  6  7  1  0  0  0  0
  6 32  1  0  0  0  0
  6 43  1  0  0  0  0
  7  8  1  0  0  0  0
  7 44  1  0  0  0  0
  8  9  1  0  0  0  0
  8 13  2  0  0  0  0
  9 10  2  0  0  0  0
  9 45  1  0  0  0  0
 10 11  1  0  0  0  0
 10 46  1  0  0  0  0
 11 12  2  0  0  0  0
 11 31  1  0  0  0  0
 12 13  1  0  0  0  0
 12 14  1  0  0  0  0
 13 47  1  0  0  0  0
 14 15  2  3  0  0  0
 14 29  1  0  0  0  0
 15 16  1  0  0  0  0
 15 22  1  0  0  0  0
 16 17  2  0  0  0  0
 16 21  1  0  0  0  0
 17 18  1  0  0  0  0
 18 19  1  0  0  0  0
 18 20  2  0  0  0  0
 19 48  1  0  0  0  0
 19 49  1  0  0  0  0
 19 50  1  0  0  0  0
 20 21  1  0  0  0  0
 20 51  1  0  0  0  0
 21 52  1  0  0  0  0
 22 23  1  0  0  0  0
 22 27  2  0  0  0  0
 23 24  2  0  0  0  0
 23 53  1  0  0  0  0
 24 25  1  0  0  0  0
 24 54  1  0  0  0  0
 25 26  2  0  0  0  0
 25 55  1  0  0  0  0
 26 27  1  0  0  0  0
 26 56  1  0  0  0  0
 27 28  1  0  0  0  0
 29 30  2  0  0  0  0
 29 31  1  0  0  0  0
 31 57  1  0  0  0  0
 32 33  1  0  0  0  0
 32 58  1  0  0  0  0
 32 59  1  0  0  0  0
 33 60  1  0  0  0  0
 33 61  1  0  0  0  0
M  END
$$$$
