CHEMBL3671495
 OpenBabel04072215373D

 50 52  0  0  0  0  0  0  0  0999 V2000
    3.4468   -0.1004    3.8013 C   0  0  0  0  0  0  0  0  0  0  0  0
    3.4987   -0.9729    2.7879 C   0  0  0  0  0  0  0  0  0  0  0  0
    3.6139   -0.4654    1.3950 C   0  0  0  0  0  0  0  0  0  0  0  0
    3.1470    0.6164    1.0526 O   0  0  0  0  0  0  0  0  0  0  0  0
    4.3076   -1.2400    0.4942 N   0  0  0  0  0  0  0  0  0  0  0  0
    5.1901   -2.2651    0.8816 C   0  0  0  0  0  0  0  0  0  0  0  0
    6.3489   -1.9089    1.5735 C   0  0  0  0  0  0  0  0  0  0  0  0
    7.1370   -2.8966    2.2004 C   0  0  0  0  0  0  0  0  0  0  0  0
    8.2297   -2.6300    3.0387 C   0  0  0  0  0  0  0  0  0  0  0  0
    8.5738   -1.2878    3.3520 N   0  0  0  0  0  0  0  0  0  0  0  0
    9.3554   -0.9209    4.4738 C   0  0  0  0  0  0  0  0  0  0  0  0
    9.1343   -1.5071    5.7282 C   0  0  0  0  0  0  0  0  0  0  0  0
    9.9713   -1.2255    6.8101 C   0  0  0  0  0  0  0  0  0  0  0  0
   11.0244   -0.3269    6.6442 C   0  0  0  0  0  0  0  0  0  0  0  0
   12.2152   -0.0244    8.0796 Br  0  0  0  0  0  0  0  0  0  0  0  0
   11.2180    0.3243    5.4288 C   0  0  0  0  0  0  0  0  0  0  0  0
   10.3759    0.0307    4.3603 C   0  0  0  0  0  0  0  0  0  0  0  0
   10.5746    0.6476    3.1841 F   0  0  0  0  0  0  0  0  0  0  0  0
    8.9336   -3.6176    3.6209 N   0  0  0  0  0  0  0  0  0  0  0  0
    8.5338   -4.8694    3.3895 C   0  0  0  0  0  0  0  0  0  0  0  0
    7.4817   -5.2308    2.6519 N   0  0  0  0  0  0  0  0  0  0  0  0
    6.7875   -4.2495    2.0721 C   0  0  0  0  0  0  0  0  0  0  0  0
    5.6562   -4.5820    1.3362 C   0  0  0  0  0  0  0  0  0  0  0  0
    4.8583   -3.6147    0.7175 C   0  0  0  0  0  0  0  0  0  0  0  0
    3.7719   -4.1154    0.0438 O   0  0  0  0  0  0  0  0  0  0  0  0
    3.3785   -3.3766   -1.1171 C   0  0  0  0  0  0  0  0  0  0  0  0
    2.8042   -4.3202   -2.1754 C   0  0  0  0  0  0  0  0  0  0  0  0
    2.4614   -3.6173   -3.4013 N   0  0  0  0  0  0  0  0  0  0  0  0
    3.4307   -3.2690   -4.3317 C   0  0  0  0  0  0  0  0  0  0  0  0
    4.6030   -3.6255   -4.2250 O   0  0  0  0  0  0  0  0  0  0  0  0
    2.9224   -2.3995   -5.4854 C   0  0  0  0  0  0  0  0  0  0  0  0
    1.6123   -2.0475   -5.3148 F   0  0  0  0  0  0  0  0  0  0  0  0
    3.6115   -1.2298   -5.5911 F   0  0  0  0  0  0  0  0  0  0  0  0
    3.4236   -0.4426    4.8299 H   0  0  0  0  0  0  0  0  0  0  0  0
    3.4476    0.9721    3.6250 H   0  0  0  0  0  0  0  0  0  0  0  0
    3.5159   -2.0409    2.9653 H   0  0  0  0  0  0  0  0  0  0  0  0
    4.6178   -0.6484   -0.2708 H   0  0  0  0  0  0  0  0  0  0  0  0
    6.5964   -0.8561    1.6931 H   0  0  0  0  0  0  0  0  0  0  0  0
    8.8535   -0.7844    2.5139 H   0  0  0  0  0  0  0  0  0  0  0  0
    8.3205   -2.2167    5.8604 H   0  0  0  0  0  0  0  0  0  0  0  0
    9.8045   -1.7244    7.7601 H   0  0  0  0  0  0  0  0  0  0  0  0
   12.0250    1.0352    5.2924 H   0  0  0  0  0  0  0  0  0  0  0  0
    9.1090   -5.6611    3.8552 H   0  0  0  0  0  0  0  0  0  0  0  0
    5.3752   -5.6307    1.2596 H   0  0  0  0  0  0  0  0  0  0  0  0
    4.2256   -2.8398   -1.5603 H   0  0  0  0  0  0  0  0  0  0  0  0
    2.6016   -2.6584   -0.8301 H   0  0  0  0  0  0  0  0  0  0  0  0
    1.8983   -4.8098   -1.8041 H   0  0  0  0  0  0  0  0  0  0  0  0
    3.5281   -5.1103   -2.4042 H   0  0  0  0  0  0  0  0  0  0  0  0
    1.5635   -3.1450   -3.4651 H   0  0  0  0  0  0  0  0  0  0  0  0
    3.0098   -2.9503   -6.4255 H   0  0  0  0  0  0  0  0  0  0  0  0
  1  2  2  0  0  0  0
  1 34  1  0  0  0  0
  1 35  1  0  0  0  0
  2  3  1  0  0  0  0
  2 36  1  0  0  0  0
  3  4  2  0  0  0  0
  3  5  1  0  0  0  0
  5  6  1  0  0  0  0
  5 37  1  0  0  0  0
  6  7  1  0  0  0  0
  6 24  2  0  0  0  0
  7  8  2  0  0  0  0
  7 38  1  0  0  0  0
  8  9  1  0  0  0  0
  8 22  1  0  0  0  0
  9 10  1  0  0  0  0
  9 19  2  0  0  0  0
 10 11  1  0  0  0  0
 10 39  1  0  0  0  0
 11 12  1  0  0  0  0
 11 17  2  0  0  0  0
 12 13  2  0  0  0  0
 12 40  1  0  0  0  0
 13 14  1  0  0  0  0
 13 41  1  0  0  0  0
 14 15  1  0  0  0  0
 14 16  2  0  0  0  0
 16 17  1  0  0  0  0
 16 42  1  0  0  0  0
 17 18  1  0  0  0  0
 19 20  1  0  0  0  0
 20 21  2  0  0  0  0
 20 43  1  0  0  0  0
 21 22  1  0  0  0  0
 22 23  2  0  0  0  0
 23 24  1  0  0  0  0
 23 44  1  0  0  0  0
 24 25  1  0  0  0  0
 25 26  1  0  0  0  0
 26 27  1  0  0  0  0
 26 45  1  0  0  0  0
 26 46  1  0  0  0  0
 27 28  1  0  0  0  0
 27 47  1  0  0  0  0
 27 48  1  0  0  0  0
 28 29  1  0  0  0  0
 28 49  1  0  0  0  0
 29 30  2  0  0  0  0
 29 31  1  0  0  0  0
 31 32  1  0  0  0  0
 31 33  1  0  0  0  0
 31 50  1  0  0  0  0
M  END
$$$$
