CHEMBL1254003
 OpenBabel04072215363D

 45 48  0  0  0  0  0  0  0  0999 V2000
    0.7912   -0.2011    1.0628 C   0  0  0  0  0  0  0  0  0  0  0  0
    1.0631    0.0586   -0.3329 N   0  0  0  0  0  0  0  0  0  0  0  0
    0.8927    1.2909   -0.9201 C   0  0  0  0  0  0  0  0  0  0  0  0
    1.2410    1.1812   -2.2473 C   0  0  0  0  0  0  0  0  0  0  0  0
    1.6287   -0.1592   -2.4684 C   0  0  0  0  0  0  0  0  0  0  0  0
    2.0392   -0.7258   -3.6216 N   0  0  0  0  0  0  0  0  0  0  0  0
    2.2810   -2.0313   -3.5067 C   0  0  0  0  0  0  0  0  0  0  0  0
    2.1407   -2.7958   -2.4155 N   0  0  0  0  0  0  0  0  0  0  0  0
    1.7407   -2.2316   -1.2509 C   0  0  0  0  0  0  0  0  0  0  0  0
    1.5913   -3.0231   -0.1123 N   0  0  0  0  0  0  0  0  0  0  0  0
    1.3565   -4.4030   -0.0476 C   0  0  0  0  0  0  0  0  0  0  0  0
    1.8623   -5.1313    1.0234 C   0  0  0  0  0  0  0  0  0  0  0  0
    1.6755   -6.5128    1.0931 C   0  0  0  0  0  0  0  0  0  0  0  0
    0.9613   -7.2069    0.1093 C   0  0  0  0  0  0  0  0  0  0  0  0
    0.7491   -8.6073    0.1447 N   0  0  0  0  0  0  0  0  0  0  0  0
    1.0662   -9.4186    1.2122 C   0  0  0  0  0  0  0  0  0  0  0  0
    1.4868   -9.0100    2.2909 O   0  0  0  0  0  0  0  0  0  0  0  0
    0.9039  -10.7712    0.9392 N   0  0  0  0  0  0  0  0  0  0  0  0
    1.2667  -11.6951    1.9554 C   0  0  0  0  0  0  0  0  0  0  0  0
    0.8423  -11.5032    3.2772 C   0  0  0  0  0  0  0  0  0  0  0  0
    1.3786  -12.2667    4.3106 C   0  0  0  0  0  0  0  0  0  0  0  0
    2.3281  -13.2421    4.0224 C   0  0  0  0  0  0  0  0  0  0  0  0
    2.7054  -13.4811    2.6988 C   0  0  0  0  0  0  0  0  0  0  0  0
    2.1576  -12.7252    1.6575 C   0  0  0  0  0  0  0  0  0  0  0  0
    0.4562   -6.4833   -0.9692 C   0  0  0  0  0  0  0  0  0  0  0  0
    0.6641   -5.0989   -1.0479 C   0  0  0  0  0  0  0  0  0  0  0  0
    1.4941   -0.8550   -1.2732 C   0  0  0  0  0  0  0  0  0  0  0  0
    0.4301    0.7127    1.5430 H   0  0  0  0  0  0  0  0  0  0  0  0
    1.7205   -0.5165    1.5448 H   0  0  0  0  0  0  0  0  0  0  0  0
    0.0248   -0.9764    1.1335 H   0  0  0  0  0  0  0  0  0  0  0  0
    0.5311    2.1406   -0.3566 H   0  0  0  0  0  0  0  0  0  0  0  0
    1.2059    1.9649   -2.9889 H   0  0  0  0  0  0  0  0  0  0  0  0
    2.6294   -2.5412   -4.3996 H   0  0  0  0  0  0  0  0  0  0  0  0
    1.8820   -2.5901    0.7499 H   0  0  0  0  0  0  0  0  0  0  0  0
    2.4337   -4.6480    1.8107 H   0  0  0  0  0  0  0  0  0  0  0  0
    2.1274   -7.0108    1.9433 H   0  0  0  0  0  0  0  0  0  0  0  0
    0.1957   -9.0139   -0.5959 H   0  0  0  0  0  0  0  0  0  0  0  0
    1.1348  -11.0349   -0.0083 H   0  0  0  0  0  0  0  0  0  0  0  0
    0.1352  -10.7119    3.5196 H   0  0  0  0  0  0  0  0  0  0  0  0
    1.0846  -12.0657    5.3370 H   0  0  0  0  0  0  0  0  0  0  0  0
    2.7858  -13.8038    4.8321 H   0  0  0  0  0  0  0  0  0  0  0  0
    3.4621  -14.2311    2.4841 H   0  0  0  0  0  0  0  0  0  0  0  0
    2.5091  -12.8884    0.6439 H   0  0  0  0  0  0  0  0  0  0  0  0
   -0.0985   -6.9687   -1.7663 H   0  0  0  0  0  0  0  0  0  0  0  0
    0.2630   -4.5584   -1.9020 H   0  0  0  0  0  0  0  0  0  0  0  0
  1  2  1  0  0  0  0
  1 28  1  0  0  0  0
  1 29  1  0  0  0  0
  1 30  1  0  0  0  0
  2  3  1  0  0  0  0
  2 27  1  0  0  0  0
  3  4  2  0  0  0  0
  3 31  1  0  0  0  0
  4  5  1  0  0  0  0
  4 32  1  0  0  0  0
  5  6  1  0  0  0  0
  5 27  2  0  0  0  0
  6  7  2  0  0  0  0
  7  8  1  0  0  0  0
  7 33  1  0  0  0  0
  8  9  2  0  0  0  0
  9 10  1  0  0  0  0
  9 27  1  0  0  0  0
 10 11  1  0  0  0  0
 10 34  1  0  0  0  0
 11 12  1  0  0  0  0
 11 26  2  0  0  0  0
 12 13  2  0  0  0  0
 12 35  1  0  0  0  0
 13 14  1  0  0  0  0
 13 36  1  0  0  0  0
 14 15  1  0  0  0  0
 14 25  2  0  0  0  0
 15 16  1  0  0  0  0
 15 37  1  0  0  0  0
 16 17  2  0  0  0  0
 16 18  1  0  0  0  0
 18 19  1  0  0  0  0
 18 38  1  0  0  0  0
 19 20  1  0  0  0  0
 19 24  2  0  0  0  0
 20 21  2  0  0  0  0
 20 39  1  0  0  0  0
 21 22  1  0  0  0  0
 21 40  1  0  0  0  0
 22 23  2  0  0  0  0
 22 41  1  0  0  0  0
 23 24  1  0  0  0  0
 23 42  1  0  0  0  0
 24 43  1  0  0  0  0
 25 26  1  0  0  0  0
 25 44  1  0  0  0  0
 26 45  1  0  0  0  0
M  END
$$$$
