CHEMBL1992922
 OpenBabel04072215363D

 37 39  0  0  0  0  0  0  0  0999 V2000
    4.2439   -1.0537   -1.4767 O   0  0  0  0  0  0  0  0  0  0  0  0
    3.3115   -1.4574   -0.4670 C   0  0  0  0  0  0  0  0  0  0  0  0
    4.0172   -1.7417    0.8830 C   0  0  0  0  0  0  0  0  0  0  0  0
    5.0848   -2.8574    0.7038 C   0  0  0  0  0  0  0  0  0  0  0  0
    6.1093   -2.5355   -0.2401 O   0  0  0  0  0  0  0  0  0  0  0  0
    4.6233   -0.4861    1.3681 N   0  0  0  0  0  0  0  0  0  0  0  0
    5.2349   -0.5316    2.6225 C   0  0  0  0  0  0  0  0  0  0  0  0
    4.8025   -1.4428    3.5319 N   0  0  0  0  0  0  0  0  0  0  0  0
    5.4086   -1.5023    4.7316 C   0  0  0  0  0  0  0  0  0  0  0  0
    6.4197   -0.7533    5.1806 N   0  0  0  0  0  0  0  0  0  0  0  0
    6.8126    0.1393    4.2583 C   0  0  0  0  0  0  0  0  0  0  0  0
    7.8398    1.0144    4.4471 N   0  0  0  0  0  0  0  0  0  0  0  0
    8.0088    1.7810    3.3277 C   0  0  0  0  0  0  0  0  0  0  0  0
    7.0625    1.4024    2.3864 C   0  0  0  0  0  0  0  0  0  0  0  0
    6.9981    2.0416    1.0696 C   0  0  0  0  0  0  0  0  0  0  0  0
    6.6516    1.3159   -0.0738 C   0  0  0  0  0  0  0  0  0  0  0  0
    6.5538    1.9344   -1.3237 C   0  0  0  0  0  0  0  0  0  0  0  0
    6.8510    3.2870   -1.4579 C   0  0  0  0  0  0  0  0  0  0  0  0
    7.2417    4.0191   -0.3408 C   0  0  0  0  0  0  0  0  0  0  0  0
    7.3045    3.4041    0.9143 C   0  0  0  0  0  0  0  0  0  0  0  0
    6.2937    0.3320    2.9829 C   0  0  0  0  0  0  0  0  0  0  0  0
    3.7520   -0.5155   -2.1216 H   0  0  0  0  0  0  0  0  0  0  0  0
    2.8021   -2.3567   -0.8277 H   0  0  0  0  0  0  0  0  0  0  0  0
    2.5699   -0.6603   -0.3486 H   0  0  0  0  0  0  0  0  0  0  0  0
    3.2489   -2.0827    1.5880 H   0  0  0  0  0  0  0  0  0  0  0  0
    4.5988   -3.7740    0.3526 H   0  0  0  0  0  0  0  0  0  0  0  0
    5.5805   -3.0997    1.6479 H   0  0  0  0  0  0  0  0  0  0  0  0
    5.7113   -1.8979   -0.8702 H   0  0  0  0  0  0  0  0  0  0  0  0
    3.9865    0.3043    1.3569 H   0  0  0  0  0  0  0  0  0  0  0  0
    5.0359   -2.2619    5.4135 H   0  0  0  0  0  0  0  0  0  0  0  0
    8.3943    1.0538    5.2913 H   0  0  0  0  0  0  0  0  0  0  0  0
    8.8009    2.5180    3.2919 H   0  0  0  0  0  0  0  0  0  0  0  0
    6.4667    0.2475   -0.0157 H   0  0  0  0  0  0  0  0  0  0  0  0
    6.2579    1.3477   -2.1893 H   0  0  0  0  0  0  0  0  0  0  0  0
    6.7906    3.7643   -2.4319 H   0  0  0  0  0  0  0  0  0  0  0  0
    7.4982    5.0704   -0.4425 H   0  0  0  0  0  0  0  0  0  0  0  0
    7.5986    4.0073    1.7694 H   0  0  0  0  0  0  0  0  0  0  0  0
  1  2  1  0  0  0  0
  1 22  1  0  0  0  0
  2  3  1  0  0  0  0
  2 23  1  0  0  0  0
  2 24  1  0  0  0  0
  3  4  1  0  0  0  0
  3  6  1  0  0  0  0
  3 25  1  0  0  0  0
  4  5  1  0  0  0  0
  4 26  1  0  0  0  0
  4 27  1  0  0  0  0
  5 28  1  0  0  0  0
  6  7  1  0  0  0  0
  6 29  1  0  0  0  0
  7  8  1  0  0  0  0
  7 21  2  0  0  0  0
  8  9  2  0  0  0  0
  9 10  1  0  0  0  0
  9 30  1  0  0  0  0
 10 11  2  0  0  0  0
 11 12  1  0  0  0  0
 11 21  1  0  0  0  0
 12 13  1  0  0  0  0
 12 31  1  0  0  0  0
 13 14  2  0  0  0  0
 13 32  1  0  0  0  0
 14 15  1  0  0  0  0
 14 21  1  0  0  0  0
 15 16  1  0  0  0  0
 15 20  2  0  0  0  0
 16 17  2  0  0  0  0
 16 33  1  0  0  0  0
 17 18  1  0  0  0  0
 17 34  1  0  0  0  0
 18 19  2  0  0  0  0
 18 35  1  0  0  0  0
 19 20  1  0  0  0  0
 19 36  1  0  0  0  0
 20 37  1  0  0  0  0
M  END
$$$$
