CHEMBL377995
 OpenBabel04072215373D

 52 55  0  0  0  0  0  0  0  0999 V2000
    2.0880    0.1972    0.8079 C   0  0  0  0  0  0  0  0  0  0  0  0
    3.5337   -0.3066    0.8456 C   0  0  0  0  0  0  0  0  0  0  0  0
    3.9226   -0.7414    2.2605 C   0  0  0  0  0  0  0  0  0  0  0  0
    3.7709   -1.4280   -0.1494 C   0  0  0  0  0  0  0  0  0  0  0  0
    4.7129   -1.2740   -1.1737 C   0  0  0  0  0  0  0  0  0  0  0  0
    4.9500   -2.3026   -2.0970 C   0  0  0  0  0  0  0  0  0  0  0  0
    4.2346   -3.5007   -2.0416 C   0  0  0  0  0  0  0  0  0  0  0  0
    4.4036   -4.5749   -2.9316 N   0  0  0  0  0  0  0  0  0  0  0  0
    5.3017   -4.7600   -3.9131 C   0  0  0  0  0  0  0  0  0  0  0  0
    5.2113   -5.5885   -4.9336 N   0  0  0  0  0  0  0  0  0  0  0  0
    6.3970   -5.5011   -5.6262 N   0  0  0  0  0  0  0  0  0  0  0  0
    7.1366   -4.6095   -5.0008 C   0  0  0  0  0  0  0  0  0  0  0  0
    8.4775   -4.1058   -5.2838 C   0  0  0  0  0  0  0  0  0  0  0  0
    9.1170   -3.2861   -4.3316 C   0  0  0  0  0  0  0  0  0  0  0  0
   10.4181   -2.8343   -4.5263 C   0  0  0  0  0  0  0  0  0  0  0  0
   11.0609   -3.2105   -5.6850 C   0  0  0  0  0  0  0  0  0  0  0  0
   10.4881   -3.9724   -6.6354 N   0  0  0  0  0  0  0  0  0  0  0  0
    9.2058   -4.4128   -6.4455 C   0  0  0  0  0  0  0  0  0  0  0  0
    8.7100   -5.2838   -7.5796 C   0  0  0  0  0  0  0  0  0  0  0  0
    7.5239   -4.7700   -8.4107 C   0  0  0  0  0  0  0  0  0  0  0  0
    7.6048   -3.3733   -8.9742 C   0  0  0  0  0  0  0  0  0  0  0  0
    8.7795   -2.8382   -9.5064 C   0  0  0  0  0  0  0  0  0  0  0  0
    8.7421   -1.5537  -10.0280 C   0  0  0  0  0  0  0  0  0  0  0  0
    7.6386   -0.7840  -10.0714 N   0  0  0  0  0  0  0  0  0  0  0  0
    6.5050   -1.3244   -9.5722 C   0  0  0  0  0  0  0  0  0  0  0  0
    6.4426   -2.5948   -9.0290 C   0  0  0  0  0  0  0  0  0  0  0  0
    6.5049   -4.1121   -3.8862 O   0  0  0  0  0  0  0  0  0  0  0  0
    3.3225   -3.6636   -0.9870 C   0  0  0  0  0  0  0  0  0  0  0  0
    3.0841   -2.6429   -0.0617 C   0  0  0  0  0  0  0  0  0  0  0  0
    1.9620    1.0520    1.4816 H   0  0  0  0  0  0  0  0  0  0  0  0
    1.3748   -0.5750    1.1159 H   0  0  0  0  0  0  0  0  0  0  0  0
    1.8120    0.5237   -0.2010 H   0  0  0  0  0  0  0  0  0  0  0  0
    4.1759    0.5429    0.5771 H   0  0  0  0  0  0  0  0  0  0  0  0
    3.3167   -1.5841    2.6115 H   0  0  0  0  0  0  0  0  0  0  0  0
    3.7899    0.0817    2.9702 H   0  0  0  0  0  0  0  0  0  0  0  0
    4.9732   -1.0511    2.2960 H   0  0  0  0  0  0  0  0  0  0  0  0
    5.2740   -0.3465   -1.2692 H   0  0  0  0  0  0  0  0  0  0  0  0
    5.6834   -2.1186   -2.8756 H   0  0  0  0  0  0  0  0  0  0  0  0
    3.5784   -5.1573   -3.0082 H   0  0  0  0  0  0  0  0  0  0  0  0
    8.6104   -3.0038   -3.4096 H   0  0  0  0  0  0  0  0  0  0  0  0
   10.9153   -2.2156   -3.7873 H   0  0  0  0  0  0  0  0  0  0  0  0
   12.0847   -2.9057   -5.8843 H   0  0  0  0  0  0  0  0  0  0  0  0
    8.4787   -6.2793   -7.1832 H   0  0  0  0  0  0  0  0  0  0  0  0
    9.5503   -5.4495   -8.2701 H   0  0  0  0  0  0  0  0  0  0  0  0
    6.6083   -4.8376   -7.8219 H   0  0  0  0  0  0  0  0  0  0  0  0
    7.3719   -5.4583   -9.2515 H   0  0  0  0  0  0  0  0  0  0  0  0
    9.7110   -3.3944   -9.5121 H   0  0  0  0  0  0  0  0  0  0  0  0
    9.6452   -1.0985  -10.4439 H   0  0  0  0  0  0  0  0  0  0  0  0
    5.6265   -0.6942   -9.6243 H   0  0  0  0  0  0  0  0  0  0  0  0
    5.4953   -2.9713   -8.6534 H   0  0  0  0  0  0  0  0  0  0  0  0
    2.7801   -4.5994   -0.8710 H   0  0  0  0  0  0  0  0  0  0  0  0
    2.3583   -2.8130    0.7301 H   0  0  0  0  0  0  0  0  0  0  0  0
  1  2  1  0  0  0  0
  1 30  1  0  0  0  0
  1 31  1  0  0  0  0
  1 32  1  0  0  0  0
  2  3  1  0  0  0  0
  2  4  1  0  0  0  0
  2 33  1  0  0  0  0
  3 34  1  0  0  0  0
  3 35  1  0  0  0  0
  3 36  1  0  0  0  0
  4  5  1  0  0  0  0
  4 29  2  0  0  0  0
  5  6  2  0  0  0  0
  5 37  1  0  0  0  0
  6  7  1  0  0  0  0
  6 38  1  0  0  0  0
  7  8  1  0  0  0  0
  7 28  2  0  0  0  0
  8  9  1  0  0  0  0
  8 39  1  0  0  0  0
  9 10  2  0  0  0  0
  9 27  1  0  0  0  0
 10 11  1  0  0  0  0
 11 12  2  0  0  0  0
 12 13  1  0  0  0  0
 12 27  1  0  0  0  0
 13 14  1  0  0  0  0
 13 18  2  0  0  0  0
 14 15  2  0  0  0  0
 14 40  1  0  0  0  0
 15 16  1  0  0  0  0
 15 41  1  0  0  0  0
 16 17  2  0  0  0  0
 16 42  1  0  0  0  0
 17 18  1  0  0  0  0
 18 19  1  0  0  0  0
 19 20  1  0  0  0  0
 19 43  1  0  0  0  0
 19 44  1  0  0  0  0
 20 21  1  0  0  0  0
 20 45  1  0  0  0  0
 20 46  1  0  0  0  0
 21 22  1  0  0  0  0
 21 26  2  0  0  0  0
 22 23  2  0  0  0  0
 22 47  1  0  0  0  0
 23 24  1  0  0  0  0
 23 48  1  0  0  0  0
 24 25  2  0  0  0  0
 25 26  1  0  0  0  0
 25 49  1  0  0  0  0
 26 50  1  0  0  0  0
 28 29  1  0  0  0  0
 28 51  1  0  0  0  0
 29 52  1  0  0  0  0
M  END
$$$$
