CHEMBL1290362
 OpenBabel04072215363D

 47 49  0  0  0  0  0  0  0  0999 V2000
    2.1869    0.2615   -1.4613 C   0  0  0  0  0  0  0  0  0  0  0  0
    2.5816    0.4957   -0.0141 C   0  0  0  0  0  0  0  0  0  0  0  0
    3.2457    1.7675    0.0616 O   0  0  0  0  0  0  0  0  0  0  0  0
    4.5986    1.7226   -0.1336 C   0  0  0  0  0  0  0  0  0  0  0  0
    5.2566    0.6905   -0.1305 O   0  0  0  0  0  0  0  0  0  0  0  0
    5.1089    3.1194   -0.4397 C   0  0  0  0  0  0  0  0  0  0  0  0
    6.8735    3.0554   -0.8481 S   0  0  0  0  0  0  0  0  0  0  0  0
    7.1995    4.6706   -1.3656 C   0  0  0  0  0  0  0  0  0  0  0  0
    6.5691    5.7498   -0.9491 N   0  0  0  0  0  0  0  0  0  0  0  0
    7.2280    6.7744   -1.5619 C   0  0  0  0  0  0  0  0  0  0  0  0
    8.2027    6.3254   -2.4091 C   0  0  0  0  0  0  0  0  0  0  0  0
    8.9917    7.2035   -3.2013 C   0  0  0  0  0  0  0  0  0  0  0  0
    9.7597    6.8590   -4.0930 O   0  0  0  0  0  0  0  0  0  0  0  0
    8.7906    8.5236   -2.8808 N   0  0  0  0  0  0  0  0  0  0  0  0
    7.8208    9.0389   -2.0428 C   0  0  0  0  0  0  0  0  0  0  0  0
    7.7240   10.2600   -1.9314 O   0  0  0  0  0  0  0  0  0  0  0  0
    6.9990    8.1255   -1.3851 N   0  0  0  0  0  0  0  0  0  0  0  0
    5.9473    8.5956   -0.5045 C   0  0  0  0  0  0  0  0  0  0  0  0
    8.2297    4.9657   -2.2347 N   0  0  0  0  0  0  0  0  0  0  0  0
    9.2046    4.0389   -2.8042 C   0  0  0  0  0  0  0  0  0  0  0  0
   10.3237    3.7433   -1.8314 C   0  0  0  0  0  0  0  0  0  0  0  0
   10.5045    2.4479   -1.3282 C   0  0  0  0  0  0  0  0  0  0  0  0
   11.5119    2.1819   -0.4015 C   0  0  0  0  0  0  0  0  0  0  0  0
   12.3532    3.2051    0.0354 C   0  0  0  0  0  0  0  0  0  0  0  0
   12.2006    4.5019   -0.4616 C   0  0  0  0  0  0  0  0  0  0  0  0
   13.0898    5.6185   -0.0012 C   0  0  0  0  0  0  0  0  0  0  0  0
   11.1960    4.7574   -1.4046 C   0  0  0  0  0  0  0  0  0  0  0  0
    1.6725   -0.6946   -1.5845 H   0  0  0  0  0  0  0  0  0  0  0  0
    3.0679    0.2756   -2.1123 H   0  0  0  0  0  0  0  0  0  0  0  0
    1.5296    1.0664   -1.8078 H   0  0  0  0  0  0  0  0  0  0  0  0
    3.2029   -0.3231    0.3675 H   0  0  0  0  0  0  0  0  0  0  0  0
    1.6893    0.5454    0.6179 H   0  0  0  0  0  0  0  0  0  0  0  0
    4.9404    3.7670    0.4245 H   0  0  0  0  0  0  0  0  0  0  0  0
    4.5563    3.4939   -1.3082 H   0  0  0  0  0  0  0  0  0  0  0  0
    9.3343    9.2015   -3.3920 H   0  0  0  0  0  0  0  0  0  0  0  0
    5.8963    9.6881   -0.4821 H   0  0  0  0  0  0  0  0  0  0  0  0
    6.1370    8.2327    0.5102 H   0  0  0  0  0  0  0  0  0  0  0  0
    4.9891    8.2088   -0.8634 H   0  0  0  0  0  0  0  0  0  0  0  0
    9.6099    4.4648   -3.7263 H   0  0  0  0  0  0  0  0  0  0  0  0
    8.6707    3.1301   -3.1031 H   0  0  0  0  0  0  0  0  0  0  0  0
    9.8535    1.6334   -1.6411 H   0  0  0  0  0  0  0  0  0  0  0  0
   11.6387    1.1747   -0.0109 H   0  0  0  0  0  0  0  0  0  0  0  0
   13.1254    2.9824    0.7683 H   0  0  0  0  0  0  0  0  0  0  0  0
   13.7890    5.2834    0.7717 H   0  0  0  0  0  0  0  0  0  0  0  0
   12.4873    6.4284    0.4232 H   0  0  0  0  0  0  0  0  0  0  0  0
   13.6733    6.0069   -0.8418 H   0  0  0  0  0  0  0  0  0  0  0  0
   11.0944    5.7658   -1.7988 H   0  0  0  0  0  0  0  0  0  0  0  0
  1  2  1  0  0  0  0
  1 28  1  0  0  0  0
  1 29  1  0  0  0  0
  1 30  1  0  0  0  0
  2  3  1  0  0  0  0
  2 31  1  0  0  0  0
  2 32  1  0  0  0  0
  3  4  1  0  0  0  0
  4  5  2  0  0  0  0
  4  6  1  0  0  0  0
  6  7  1  0  0  0  0
  6 33  1  0  0  0  0
  6 34  1  0  0  0  0
  7  8  1  0  0  0  0
  8  9  2  0  0  0  0
  8 19  1  0  0  0  0
  9 10  1  0  0  0  0
 10 11  2  0  0  0  0
 10 17  1  0  0  0  0
 11 12  1  0  0  0  0
 11 19  1  0  0  0  0
 12 13  2  0  0  0  0
 12 14  1  0  0  0  0
 14 15  1  0  0  0  0
 14 35  1  0  0  0  0
 15 16  2  0  0  0  0
 15 17  1  0  0  0  0
 17 18  1  0  0  0  0
 18 36  1  0  0  0  0
 18 37  1  0  0  0  0
 18 38  1  0  0  0  0
 19 20  1  0  0  0  0
 20 21  1  0  0  0  0
 20 39  1  0  0  0  0
 20 40  1  0  0  0  0
 21 22  1  0  0  0  0
 21 27  2  0  0  0  0
 22 23  2  0  0  0  0
 22 41  1  0  0  0  0
 23 24  1  0  0  0  0
 23 42  1  0  0  0  0
 24 25  2  0  0  0  0
 24 43  1  0  0  0  0
 25 26  1  0  0  0  0
 25 27  1  0  0  0  0
 26 44  1  0  0  0  0
 26 45  1  0  0  0  0
 26 46  1  0  0  0  0
 27 47  1  0  0  0  0
M  END
$$$$
