CHEMBL514942
 OpenBabel04072215383D

 51 55  0  0  0  0  0  0  0  0999 V2000
    8.2166    8.1892    3.0166 C   0  0  0  0  0  0  0  0  0  0  0  0
    7.2199    7.3722    2.3972 O   0  0  0  0  0  0  0  0  0  0  0  0
    6.6145    6.4625    3.2260 C   0  0  0  0  0  0  0  0  0  0  0  0
    6.4466    6.7227    4.5999 C   0  0  0  0  0  0  0  0  0  0  0  0
    5.9237    5.7877    5.4824 C   0  0  0  0  0  0  0  0  0  0  0  0
    5.8674    6.0818    6.7850 N   0  0  0  0  0  0  0  0  0  0  0  0
    5.3964    5.1267    7.5962 C   0  0  0  0  0  0  0  0  0  0  0  0
    4.9885    3.9089    7.2294 N   0  0  0  0  0  0  0  0  0  0  0  0
    5.0598    3.6235    5.9175 C   0  0  0  0  0  0  0  0  0  0  0  0
    4.7512    2.3168    5.4741 N   0  0  0  0  0  0  0  0  0  0  0  0
    3.8986    1.3560    6.0554 C   0  0  0  0  0  0  0  0  0  0  0  0
    2.7649    1.7595    6.7779 C   0  0  0  0  0  0  0  0  0  0  0  0
    1.8023    0.8345    7.1832 C   0  0  0  0  0  0  0  0  0  0  0  0
    1.9390   -0.5243    6.8840 C   0  0  0  0  0  0  0  0  0  0  0  0
    0.8514   -1.4533    7.2278 C   0  0  0  0  0  0  0  0  0  0  0  0
   -0.4228   -1.1161    7.2577 N   0  0  0  0  0  0  0  0  0  0  0  0
   -1.2065   -2.2196    7.5435 C   0  0  0  0  0  0  0  0  0  0  0  0
   -2.6152   -2.2431    7.6066 C   0  0  0  0  0  0  0  0  0  0  0  0
   -3.2794   -3.4376    7.9053 C   0  0  0  0  0  0  0  0  0  0  0  0
   -2.5590   -4.6044    8.1412 C   0  0  0  0  0  0  0  0  0  0  0  0
   -1.1618   -4.6065    8.0852 C   0  0  0  0  0  0  0  0  0  0  0  0
   -0.5060   -3.4018    7.7806 C   0  0  0  0  0  0  0  0  0  0  0  0
    1.1763   -3.0954    7.6294 S   0  0  0  0  0  0  0  0  0  0  0  0
    3.0936   -0.9366    6.2012 C   0  0  0  0  0  0  0  0  0  0  0  0
    4.0729   -0.0161    5.7871 C   0  0  0  0  0  0  0  0  0  0  0  0
    5.2937   -0.5481    5.0793 C   0  0  0  0  0  0  0  0  0  0  0  0
    5.5050    4.5615    4.9717 C   0  0  0  0  0  0  0  0  0  0  0  0
    5.5531    4.3376    3.5768 C   0  0  0  0  0  0  0  0  0  0  0  0
    6.1235    5.2643    2.7002 C   0  0  0  0  0  0  0  0  0  0  0  0
    6.1120    4.8111    1.4126 O   0  0  0  0  0  0  0  0  0  0  0  0
    6.9310    5.4345    0.4387 C   0  0  0  0  0  0  0  0  0  0  0  0
    8.9268    8.5046    2.2464 H   0  0  0  0  0  0  0  0  0  0  0  0
    8.7885    7.6500    3.7817 H   0  0  0  0  0  0  0  0  0  0  0  0
    7.7527    9.0849    3.4421 H   0  0  0  0  0  0  0  0  0  0  0  0
    6.7451    7.6780    5.0240 H   0  0  0  0  0  0  0  0  0  0  0  0
    5.3590    5.3571    8.6552 H   0  0  0  0  0  0  0  0  0  0  0  0
    5.5502    1.9223    4.9902 H   0  0  0  0  0  0  0  0  0  0  0  0
    2.6036    2.8098    6.9963 H   0  0  0  0  0  0  0  0  0  0  0  0
    0.9214    1.1918    7.7139 H   0  0  0  0  0  0  0  0  0  0  0  0
   -3.1730   -1.3314    7.4167 H   0  0  0  0  0  0  0  0  0  0  0  0
   -4.3650   -3.4521    7.9498 H   0  0  0  0  0  0  0  0  0  0  0  0
   -3.0858   -5.5275    8.3720 H   0  0  0  0  0  0  0  0  0  0  0  0
   -0.5994   -5.5162    8.2647 H   0  0  0  0  0  0  0  0  0  0  0  0
    3.2273   -1.9864    5.9507 H   0  0  0  0  0  0  0  0  0  0  0  0
    5.2517   -1.6375    4.9631 H   0  0  0  0  0  0  0  0  0  0  0  0
    6.1920   -0.3202    5.6633 H   0  0  0  0  0  0  0  0  0  0  0  0
    5.3853   -0.1170    4.0781 H   0  0  0  0  0  0  0  0  0  0  0  0
    5.1488    3.4159    3.1599 H   0  0  0  0  0  0  0  0  0  0  0  0
    7.0978    4.6986   -0.3557 H   0  0  0  0  0  0  0  0  0  0  0  0
    7.9183    5.7038    0.8221 H   0  0  0  0  0  0  0  0  0  0  0  0
    6.4145    6.2909   -0.0028 H   0  0  0  0  0  0  0  0  0  0  0  0
  1  2  1  0  0  0  0
  1 32  1  0  0  0  0
  1 33  1  0  0  0  0
  1 34  1  0  0  0  0
  2  3  1  0  0  0  0
  3  4  1  0  0  0  0
  3 29  2  0  0  0  0
  4  5  2  0  0  0  0
  4 35  1  0  0  0  0
  5  6  1  0  0  0  0
  5 27  1  0  0  0  0
  6  7  2  0  0  0  0
  7  8  1  0  0  0  0
  7 36  1  0  0  0  0
  8  9  2  0  0  0  0
  9 10  1  0  0  0  0
  9 27  1  0  0  0  0
 10 11  1  0  0  0  0
 10 37  1  0  0  0  0
 11 12  1  0  0  0  0
 11 25  2  0  0  0  0
 12 13  2  0  0  0  0
 12 38  1  0  0  0  0
 13 14  1  0  0  0  0
 13 39  1  0  0  0  0
 14 15  1  0  0  0  0
 14 24  2  0  0  0  0
 15 16  2  0  0  0  0
 15 23  1  0  0  0  0
 16 17  1  0  0  0  0
 17 18  1  0  0  0  0
 17 22  2  0  0  0  0
 18 19  2  0  0  0  0
 18 40  1  0  0  0  0
 19 20  1  0  0  0  0
 19 41  1  0  0  0  0
 20 21  2  0  0  0  0
 20 42  1  0  0  0  0
 21 22  1  0  0  0  0
 21 43  1  0  0  0  0
 22 23  1  0  0  0  0
 24 25  1  0  0  0  0
 24 44  1  0  0  0  0
 25 26  1  0  0  0  0
 26 45  1  0  0  0  0
 26 46  1  0  0  0  0
 26 47  1  0  0  0  0
 27 28  2  0  0  0  0
 28 29  1  0  0  0  0
 28 48  1  0  0  0  0
 29 30  1  0  0  0  0
 30 31  1  0  0  0  0
 31 49  1  0  0  0  0
 31 50  1  0  0  0  0
 31 51  1  0  0  0  0
M  END
$$$$
