CHEMBL2046840
 OpenBabel04072215363D

 45 48  0  0  0  0  0  0  0  0999 V2000
    1.2491   -0.7824   -0.4926 O   0  0  0  0  0  0  0  0  0  0  0  0
    2.2825   -0.2114   -0.1703 C   0  0  0  0  0  0  0  0  0  0  0  0
    2.7636   -0.1353    1.1293 N   0  0  0  0  0  0  0  0  0  0  0  0
    2.1301   -0.6513    2.2846 C   0  0  0  0  0  0  0  0  0  0  0  0
    1.0174   -1.4917    2.2545 C   0  0  0  0  0  0  0  0  0  0  0  0
    0.4156   -1.9415    3.4388 C   0  0  0  0  0  0  0  0  0  0  0  0
    0.9156   -1.5892    4.6948 C   0  0  0  0  0  0  0  0  0  0  0  0
    0.3724   -2.1729    5.9438 C   0  0  0  0  0  0  0  0  0  0  0  0
   -0.0037   -3.5299    6.0007 C   0  0  0  0  0  0  0  0  0  0  0  0
   -0.3183   -4.1700    7.2150 C   0  0  0  0  0  0  0  0  0  0  0  0
   -0.2237   -3.4861    8.4239 C   0  0  0  0  0  0  0  0  0  0  0  0
    0.0518   -2.1334    8.3761 C   0  0  0  0  0  0  0  0  0  0  0  0
    0.1555   -1.2737    9.4980 N   0  0  0  0  0  0  0  0  0  0  0  0
    0.2980    0.0136    8.8859 N   0  0  0  0  0  0  0  0  0  0  0  0
    0.3338   -0.0698    7.5018 C   0  0  0  0  0  0  0  0  0  0  0  0
    0.2735    0.8678    6.7299 O   0  0  0  0  0  0  0  0  0  0  0  0
    0.2980   -1.4952    7.1589 C   0  0  0  0  0  0  0  0  0  0  0  0
    2.0516   -0.7521    4.7104 C   0  0  0  0  0  0  0  0  0  0  0  0
    2.6476   -0.2886    3.5289 C   0  0  0  0  0  0  0  0  0  0  0  0
    3.1054    0.4733   -1.0554 N   0  0  0  0  0  0  0  0  0  0  0  0
    2.8301    0.7515   -2.4158 C   0  0  0  0  0  0  0  0  0  0  0  0
    1.6318    0.4103   -3.0503 C   0  0  0  0  0  0  0  0  0  0  0  0
    1.4089    0.7332   -4.3897 C   0  0  0  0  0  0  0  0  0  0  0  0
    2.3789    1.4166   -5.1128 C   0  0  0  0  0  0  0  0  0  0  0  0
    3.5853    1.7804   -4.5057 C   0  0  0  0  0  0  0  0  0  0  0  0
    4.6357    2.5411   -5.2731 C   0  0  0  0  0  0  0  0  0  0  0  0
    4.2871    2.8186   -6.5586 F   0  0  0  0  0  0  0  0  0  0  0  0
    4.9305    3.7415   -4.6965 F   0  0  0  0  0  0  0  0  0  0  0  0
    5.8187    1.8677   -5.3414 F   0  0  0  0  0  0  0  0  0  0  0  0
    3.8059    1.4367   -3.1532 C   0  0  0  0  0  0  0  0  0  0  0  0
    3.5556    0.4664    1.2917 H   0  0  0  0  0  0  0  0  0  0  0  0
    0.5867   -1.8379    1.3213 H   0  0  0  0  0  0  0  0  0  0  0  0
   -0.4573   -2.5859    3.3490 H   0  0  0  0  0  0  0  0  0  0  0  0
   -0.0474   -4.1267    5.0901 H   0  0  0  0  0  0  0  0  0  0  0  0
   -0.6222   -5.2156    7.2076 H   0  0  0  0  0  0  0  0  0  0  0  0
   -0.4198   -3.9853    9.3653 H   0  0  0  0  0  0  0  0  0  0  0  0
    1.0292   -1.5078    9.9889 H   0  0  0  0  0  0  0  0  0  0  0  0
   -0.2896    0.7537    9.2629 H   0  0  0  0  0  0  0  0  0  0  0  0
    2.5002   -0.4542    5.6559 H   0  0  0  0  0  0  0  0  0  0  0  0
    3.5155    0.3608    3.6098 H   0  0  0  0  0  0  0  0  0  0  0  0
    4.0066    0.7635   -0.7089 H   0  0  0  0  0  0  0  0  0  0  0  0
    0.8329   -0.1082   -2.5308 H   0  0  0  0  0  0  0  0  0  0  0  0
    0.4658    0.4581   -4.8576 H   0  0  0  0  0  0  0  0  0  0  0  0
    2.1859    1.6714   -6.1522 H   0  0  0  0  0  0  0  0  0  0  0  0
    4.7458    1.7226   -2.6866 H   0  0  0  0  0  0  0  0  0  0  0  0
  1  2  2  0  0  0  0
  2  3  1  0  0  0  0
  2 20  1  0  0  0  0
  3  4  1  0  0  0  0
  3 31  1  0  0  0  0
  4  5  1  0  0  0  0
  4 19  2  0  0  0  0
  5  6  2  0  0  0  0
  5 32  1  0  0  0  0
  6  7  1  0  0  0  0
  6 33  1  0  0  0  0
  7  8  1  0  0  0  0
  7 18  2  0  0  0  0
  8  9  1  0  0  0  0
  8 17  2  0  0  0  0
  9 10  2  0  0  0  0
  9 34  1  0  0  0  0
 10 11  1  0  0  0  0
 10 35  1  0  0  0  0
 11 12  2  0  0  0  0
 11 36  1  0  0  0  0
 12 13  1  0  0  0  0
 12 17  1  0  0  0  0
 13 14  1  0  0  0  0
 13 37  1  0  0  0  0
 14 15  1  0  0  0  0
 14 38  1  0  0  0  0
 15 16  2  0  0  0  0
 15 17  1  0  0  0  0
 18 19  1  0  0  0  0
 18 39  1  0  0  0  0
 19 40  1  0  0  0  0
 20 21  1  0  0  0  0
 20 41  1  0  0  0  0
 21 22  1  0  0  0  0
 21 30  2  0  0  0  0
 22 23  2  0  0  0  0
 22 42  1  0  0  0  0
 23 24  1  0  0  0  0
 23 43  1  0  0  0  0
 24 25  2  0  0  0  0
 24 44  1  0  0  0  0
 25 26  1  0  0  0  0
 25 30  1  0  0  0  0
 26 27  1  0  0  0  0
 26 28  1  0  0  0  0
 26 29  1  0  0  0  0
 30 45  1  0  0  0  0
M  END
$$$$
