CHEMBL3221555
 OpenBabel04072215363D

 52 53  0  0  0  0  0  0  0  0999 V2000
    3.8084   -0.8081   -5.4910 C   0  0  0  0  0  0  0  0  0  0  0  0
    3.9258    0.6762   -5.8220 C   0  0  0  0  0  0  0  0  0  0  0  0
    4.5640    1.3287   -4.7876 O   0  0  0  0  0  0  0  0  0  0  0  0
    4.0265    1.5134   -3.5527 C   0  0  0  0  0  0  0  0  0  0  0  0
    2.8225    1.3887   -3.3736 O   0  0  0  0  0  0  0  0  0  0  0  0
    4.8242    1.8451   -2.5109 N   0  0  0  0  0  0  0  0  0  0  0  0
    6.2268    1.9797   -2.6600 C   0  0  0  0  0  0  0  0  0  0  0  0
    6.7664    3.2602   -2.8402 C   0  0  0  0  0  0  0  0  0  0  0  0
    8.1506    3.4402   -2.9470 C   0  0  0  0  0  0  0  0  0  0  0  0
    8.6873    4.7460   -3.1439 N   0  0  0  0  0  0  0  0  0  0  0  0
   10.0216    5.0758   -2.7661 C   0  0  0  0  0  0  0  0  0  0  0  0
   10.5815    4.4222   -1.7120 N   0  0  0  0  0  0  0  0  0  0  0  0
   11.8367    4.6852   -1.2854 C   0  0  0  0  0  0  0  0  0  0  0  0
   12.5914    5.6094   -1.9300 N   0  0  0  0  0  0  0  0  0  0  0  0
   12.0943    6.2899   -2.9943 C   0  0  0  0  0  0  0  0  0  0  0  0
   12.9065    7.2025   -3.6605 C   0  0  0  0  0  0  0  0  0  0  0  0
   12.4422    7.9126   -4.7933 C   0  0  0  0  0  0  0  0  0  0  0  0
   13.2659    8.7807   -5.4443 O   0  0  0  0  0  0  0  0  0  0  0  0
   14.5872    9.0290   -5.0962 C   0  0  0  0  0  0  0  0  0  0  0  0
   11.0997    7.6824   -5.2360 C   0  0  0  0  0  0  0  0  0  0  0  0
   10.5061    8.2811   -6.3024 O   0  0  0  0  0  0  0  0  0  0  0  0
   10.9903    9.2182   -7.1853 C   0  0  0  0  0  0  0  0  0  0  0  0
   10.3044    6.7620   -4.5532 C   0  0  0  0  0  0  0  0  0  0  0  0
   10.7799    6.0540   -3.4407 C   0  0  0  0  0  0  0  0  0  0  0  0
    8.9916    2.3115   -2.8966 C   0  0  0  0  0  0  0  0  0  0  0  0
    8.4624    1.0364   -2.7386 C   0  0  0  0  0  0  0  0  0  0  0  0
    7.0804    0.8518   -2.6149 C   0  0  0  0  0  0  0  0  0  0  0  0
    6.5446   -0.5412   -2.4290 C   0  0  0  0  0  0  0  0  0  0  0  0
    1.4430    0.1108    2.8211 Cl  0  0  0  0  0  0  0  0  0  0  0  0
    3.3291   -1.3530   -6.3278 H   0  0  0  0  0  0  0  0  0  0  0  0
    3.2037   -0.9543   -4.5709 H   0  0  0  0  0  0  0  0  0  0  0  0
    4.8229   -1.2273   -5.3229 H   0  0  0  0  0  0  0  0  0  0  0  0
    2.9246    1.1232   -6.0122 H   0  0  0  0  0  0  0  0  0  0  0  0
    4.5371    0.7850   -6.7425 H   0  0  0  0  0  0  0  0  0  0  0  0
    4.4098    2.0155   -1.5822 H   0  0  0  0  0  0  0  0  0  0  0  0
    6.1038    4.1165   -2.8839 H   0  0  0  0  0  0  0  0  0  0  0  0
    8.0778    5.4677   -3.5554 H   0  0  0  0  0  0  0  0  0  0  0  0
   12.2408    4.1554   -0.4346 H   0  0  0  0  0  0  0  0  0  0  0  0
   13.9130    7.3375   -3.2849 H   0  0  0  0  0  0  0  0  0  0  0  0
   15.0360    9.7629   -5.7954 H   0  0  0  0  0  0  0  0  0  0  0  0
   15.1856    8.0909   -5.1470 H   0  0  0  0  0  0  0  0  0  0  0  0
   14.6468    9.4447   -4.0656 H   0  0  0  0  0  0  0  0  0  0  0  0
   10.1743    9.4563   -7.9024 H   0  0  0  0  0  0  0  0  0  0  0  0
   11.8446    8.8092   -7.7609 H   0  0  0  0  0  0  0  0  0  0  0  0
   11.2633   10.1530   -6.6547 H   0  0  0  0  0  0  0  0  0  0  0  0
    9.3040    6.5989   -4.9301 H   0  0  0  0  0  0  0  0  0  0  0  0
   10.0631    2.4012   -3.0066 H   0  0  0  0  0  0  0  0  0  0  0  0
    9.1400    0.1919   -2.7119 H   0  0  0  0  0  0  0  0  0  0  0  0
    7.3616   -1.2964   -2.4369 H   0  0  0  0  0  0  0  0  0  0  0  0
    5.8481   -0.7915   -3.2514 H   0  0  0  0  0  0  0  0  0  0  0  0
    6.0133   -0.6167   -1.4586 H   0  0  0  0  0  0  0  0  0  0  0  0
    1.2933    1.0573    1.8340 H   0  0  0  0  0  0  0  0  0  0  0  0
  1  2  1  0  0  0  0
  1 30  1  0  0  0  0
  1 31  1  0  0  0  0
  1 32  1  0  0  0  0
  2  3  1  0  0  0  0
  2 33  1  0  0  0  0
  2 34  1  0  0  0  0
  3  4  1  0  0  0  0
  4  5  2  0  0  0  0
  4  6  1  0  0  0  0
  6  7  1  0  0  0  0
  6 35  1  0  0  0  0
  7  8  1  0  0  0  0
  7 27  2  0  0  0  0
  8  9  2  0  0  0  0
  8 36  1  0  0  0  0
  9 10  1  0  0  0  0
  9 25  1  0  0  0  0
 10 11  1  0  0  0  0
 10 37  1  0  0  0  0
 11 12  1  0  0  0  0
 11 24  2  0  0  0  0
 12 13  2  0  0  0  0
 13 14  1  0  0  0  0
 13 38  1  0  0  0  0
 14 15  2  0  0  0  0
 15 16  1  0  0  0  0
 15 24  1  0  0  0  0
 16 17  2  0  0  0  0
 16 39  1  0  0  0  0
 17 18  1  0  0  0  0
 17 20  1  0  0  0  0
 18 19  1  0  0  0  0
 19 40  1  0  0  0  0
 19 41  1  0  0  0  0
 19 42  1  0  0  0  0
 20 21  1  0  0  0  0
 20 23  2  0  0  0  0
 21 22  1  0  0  0  0
 22 43  1  0  0  0  0
 22 44  1  0  0  0  0
 22 45  1  0  0  0  0
 23 24  1  0  0  0  0
 23 46  1  0  0  0  0
 25 26  2  0  0  0  0
 25 47  1  0  0  0  0
 26 27  1  0  0  0  0
 26 48  1  0  0  0  0
 27 28  1  0  0  0  0
 28 49  1  0  0  0  0
 28 50  1  0  0  0  0
 28 51  1  0  0  0  0
 29 52  1  0  0  0  0
M  END
$$$$
