CHEMBL3952023
 OpenBabel04072215373D

 53 57  0  0  1  0  0  0  0  0999 V2000
    2.6315   -1.2089   -0.4480 C   0  0  0  0  0  0  0  0  0  0  0  0
    2.4021    0.0076    0.2632 O   0  0  0  0  0  0  0  0  0  0  0  0
    3.1261    1.1091   -0.1054 C   0  0  0  0  0  0  0  0  0  0  0  0
    4.2693    1.0451   -0.8966 C   0  0  0  0  0  0  0  0  0  0  0  0
    4.8905    2.2211   -1.3645 C   0  0  0  0  0  0  0  0  0  0  0  0
    5.9612    2.2488   -2.2624 C   0  0  0  0  0  0  0  0  0  0  0  0
    6.4327    1.0230   -2.8094 N   0  0  0  0  0  0  0  0  0  0  0  0
    7.6857    0.8923   -3.4344 C   0  0  0  0  0  0  0  0  0  0  0  0
    8.8288    1.4179   -2.8230 C   0  0  0  0  0  0  0  0  0  0  0  0
   10.0665    1.3747   -3.4617 C   0  0  0  0  0  0  0  0  0  0  0  0
   10.1769    0.7921   -4.7210 C   0  0  0  0  0  0  0  0  0  0  0  0
   11.7249    0.8164   -5.4799 Cl  0  0  0  0  0  0  0  0  0  0  0  0
    9.0459    0.2279   -5.3249 C   0  0  0  0  0  0  0  0  0  0  0  0
    9.1091   -0.5193   -6.8822 Cl  0  0  0  0  0  0  0  0  0  0  0  0
    7.8060    0.2685   -4.6790 C   0  0  0  0  0  0  0  0  0  0  0  0
    6.5396    3.3998   -2.6588 N   0  0  0  0  0  0  0  0  0  0  0  0
    6.0398    4.5314   -2.1586 C   0  0  0  0  0  0  0  0  0  0  0  0
    5.0189    4.6249   -1.3061 N   0  0  0  0  0  0  0  0  0  0  0  0
    4.4606    3.4676   -0.9289 C   0  0  0  0  0  0  0  0  0  0  0  0
    3.3851    3.5216   -0.0649 C   0  0  0  0  0  0  0  0  0  0  0  0
    2.6803    2.3693    0.3188 C   0  0  0  0  0  0  0  0  0  0  0  0
    1.5470    2.4200    1.0986 O   0  0  0  0  0  0  0  0  0  0  0  0
    0.9381    3.7128    1.1720 C   0  0  0  0  0  0  0  0  0  0  0  0
   -0.4460    3.5618    1.6463 C   0  0  0  0  0  0  0  0  0  0  0  0
   -1.5470    3.7801    0.9732 N   0  0  0  0  0  0  0  0  0  0  0  0
   -2.5127    3.5596    1.9193 C   0  0  0  0  0  0  0  0  0  0  0  0
   -3.9597    3.6309    1.5737 C   0  0  2  0  0  0  0  0  0  0  0  0
   -4.3110    2.6903    0.4293 C   0  0  0  0  0  0  0  0  0  0  0  0
   -5.5582    3.3119   -0.1615 C   0  0  0  0  0  0  0  0  0  0  0  0
   -5.4176    4.8015    0.1110 C   0  0  0  0  0  0  0  0  0  0  0  0
   -4.2971    4.9602    1.0307 N   0  0  0  0  0  0  0  0  0  0  0  0
   -2.0486    3.2353    3.1359 N   0  0  0  0  0  0  0  0  0  0  0  0
   -0.6567    3.2418    2.9546 O   0  0  0  0  0  0  0  0  0  0  0  0
    3.3223   -1.8419    0.1190 H   0  0  0  0  0  0  0  0  0  0  0  0
    3.0025   -1.0715   -1.4699 H   0  0  0  0  0  0  0  0  0  0  0  0
    1.6772   -1.7352   -0.5397 H   0  0  0  0  0  0  0  0  0  0  0  0
    4.7061    0.0889   -1.1650 H   0  0  0  0  0  0  0  0  0  0  0  0
    5.6776    0.5632   -3.3086 H   0  0  0  0  0  0  0  0  0  0  0  0
    8.7516    1.8913   -1.8450 H   0  0  0  0  0  0  0  0  0  0  0  0
   10.9294    1.8187   -2.9704 H   0  0  0  0  0  0  0  0  0  0  0  0
    6.9303   -0.1518   -5.1662 H   0  0  0  0  0  0  0  0  0  0  0  0
    6.4994    5.4575   -2.4817 H   0  0  0  0  0  0  0  0  0  0  0  0
    3.0965    4.5118    0.2786 H   0  0  0  0  0  0  0  0  0  0  0  0
    0.8802    4.1663    0.1729 H   0  0  0  0  0  0  0  0  0  0  0  0
    1.4981    4.3665    1.8490 H   0  0  0  0  0  0  0  0  0  0  0  0
   -4.5883    3.4198    2.4477 H   0  0  0  0  0  0  0  0  0  0  0  0
   -4.4757    1.6629    0.7699 H   0  0  0  0  0  0  0  0  0  0  0  0
   -3.5215    2.6593   -0.3339 H   0  0  0  0  0  0  0  0  0  0  0  0
   -6.4439    2.9190    0.3499 H   0  0  0  0  0  0  0  0  0  0  0  0
   -5.6504    3.0900   -1.2286 H   0  0  0  0  0  0  0  0  0  0  0  0
   -6.3407    5.2053    0.5380 H   0  0  0  0  0  0  0  0  0  0  0  0
   -5.2037    5.3493   -0.8129 H   0  0  0  0  0  0  0  0  0  0  0  0
   -4.5005    5.6155    1.7814 H   0  0  0  0  0  0  0  0  0  0  0  0
  1  2  1  0  0  0  0
  1 34  1  0  0  0  0
  1 35  1  0  0  0  0
  1 36  1  0  0  0  0
  2  3  1  0  0  0  0
  3  4  1  0  0  0  0
  3 21  2  0  0  0  0
  4  5  2  0  0  0  0
  4 37  1  0  0  0  0
  5  6  1  0  0  0  0
  5 19  1  0  0  0  0
  6  7  1  0  0  0  0
  6 16  2  0  0  0  0
  7  8  1  0  0  0  0
  7 38  1  0  0  0  0
  8  9  1  0  0  0  0
  8 15  2  0  0  0  0
  9 10  2  0  0  0  0
  9 39  1  0  0  0  0
 10 11  1  0  0  0  0
 10 40  1  0  0  0  0
 11 12  1  0  0  0  0
 11 13  2  0  0  0  0
 13 14  1  0  0  0  0
 13 15  1  0  0  0  0
 15 41  1  0  0  0  0
 16 17  1  0  0  0  0
 17 18  2  0  0  0  0
 17 42  1  0  0  0  0
 18 19  1  0  0  0  0
 19 20  2  0  0  0  0
 20 21  1  0  0  0  0
 20 43  1  0  0  0  0
 21 22  1  0  0  0  0
 22 23  1  0  0  0  0
 23 24  1  0  0  0  0
 23 44  1  0  0  0  0
 23 45  1  0  0  0  0
 24 25  2  0  0  0  0
 24 33  1  0  0  0  0
 25 26  1  0  0  0  0
 26 27  1  0  0  0  0
 26 32  2  0  0  0  0
 27 28  1  0  0  0  0
 27 31  1  0  0  0  0
 27 46  1  1  0  0  0
 28 29  1  0  0  0  0
 28 47  1  0  0  0  0
 28 48  1  0  0  0  0
 29 30  1  0  0  0  0
 29 49  1  0  0  0  0
 29 50  1  0  0  0  0
 30 31  1  0  0  0  0
 30 51  1  0  0  0  0
 30 52  1  0  0  0  0
 31 53  1  0  0  0  0
 32 33  1  0  0  0  0
M  END
$$$$
