CHEMBL3752916
 OpenBabel04072215373D

 37 39  0  0  0  0  0  0  0  0999 V2000
    0.5000    2.3614   -0.3720 C   0  0  0  0  0  0  0  0  0  0  0  0
   -0.0318    1.0696   -0.0274 N   0  0  0  0  0  0  0  0  0  0  0  0
    0.6182    0.0613    0.6202 C   0  0  0  0  0  0  0  0  0  0  0  0
   -0.1616   -0.9852    0.7855 N   0  0  0  0  0  0  0  0  0  0  0  0
   -1.3484   -0.6488    0.1793 C   0  0  0  0  0  0  0  0  0  0  0  0
   -2.4700   -1.5534    0.0349 C   0  0  0  0  0  0  0  0  0  0  0  0
   -3.3338   -1.4175   -1.0570 C   0  0  0  0  0  0  0  0  0  0  0  0
   -4.3958   -2.2918   -1.2572 C   0  0  0  0  0  0  0  0  0  0  0  0
   -5.2569   -2.1959   -2.3645 N   0  0  0  0  0  0  0  0  0  0  0  0
   -5.1622   -1.3509   -3.4478 C   0  0  0  0  0  0  0  0  0  0  0  0
   -4.3240   -0.4650   -3.6094 O   0  0  0  0  0  0  0  0  0  0  0  0
   -6.0527   -1.5529   -4.4607 N   0  0  0  0  0  0  0  0  0  0  0  0
   -7.0817   -2.4437   -4.4422 C   0  0  0  0  0  0  0  0  0  0  0  0
   -7.4756   -3.1747   -3.4255 N   0  0  0  0  0  0  0  0  0  0  0  0
   -8.5521   -3.9394   -3.8257 C   0  0  0  0  0  0  0  0  0  0  0  0
   -8.9120   -3.8114   -5.1509 C   0  0  0  0  0  0  0  0  0  0  0  0
   -7.9208   -2.6297   -5.9065 S   0  0  0  0  0  0  0  0  0  0  0  0
   -4.5951   -3.3337   -0.3411 C   0  0  0  0  0  0  0  0  0  0  0  0
   -3.7210   -3.5129    0.7487 C   0  0  0  0  0  0  0  0  0  0  0  0
   -3.8565   -4.6856    1.6871 C   0  0  0  0  0  0  0  0  0  0  0  0
   -4.8452   -5.5550    1.3329 F   0  0  0  0  0  0  0  0  0  0  0  0
   -2.7188   -5.4328    1.7539 F   0  0  0  0  0  0  0  0  0  0  0  0
   -4.1330   -4.3110    2.9665 F   0  0  0  0  0  0  0  0  0  0  0  0
   -2.6692   -2.6010    0.9364 C   0  0  0  0  0  0  0  0  0  0  0  0
   -1.2931    0.6388   -0.3116 C   0  0  0  0  0  0  0  0  0  0  0  0
    1.5457    2.4230   -0.0637 H   0  0  0  0  0  0  0  0  0  0  0  0
   -0.0903    3.1221    0.1455 H   0  0  0  0  0  0  0  0  0  0  0  0
    0.4203    2.4920   -1.4548 H   0  0  0  0  0  0  0  0  0  0  0  0
    1.6478    0.1329    0.9436 H   0  0  0  0  0  0  0  0  0  0  0  0
   -3.1403   -0.6222   -1.7666 H   0  0  0  0  0  0  0  0  0  0  0  0
   -6.0270   -2.8598   -2.4055 H   0  0  0  0  0  0  0  0  0  0  0  0
   -5.9074   -1.0006   -5.2930 H   0  0  0  0  0  0  0  0  0  0  0  0
   -9.0338   -4.5883   -3.1044 H   0  0  0  0  0  0  0  0  0  0  0  0
   -9.6922   -4.3283   -5.6894 H   0  0  0  0  0  0  0  0  0  0  0  0
   -5.4118   -4.0391   -0.4904 H   0  0  0  0  0  0  0  0  0  0  0  0
   -1.9860   -2.7207    1.7776 H   0  0  0  0  0  0  0  0  0  0  0  0
   -2.0120    1.2499   -0.8408 H   0  0  0  0  0  0  0  0  0  0  0  0
  1  2  1  0  0  0  0
  1 26  1  0  0  0  0
  1 27  1  0  0  0  0
  1 28  1  0  0  0  0
  2  3  1  0  0  0  0
  2 25  1  0  0  0  0
  3  4  2  0  0  0  0
  3 29  1  0  0  0  0
  4  5  1  0  0  0  0
  5  6  1  0  0  0  0
  5 25  2  0  0  0  0
  6  7  1  0  0  0  0
  6 24  2  0  0  0  0
  7  8  2  0  0  0  0
  7 30  1  0  0  0  0
  8  9  1  0  0  0  0
  8 18  1  0  0  0  0
  9 10  1  0  0  0  0
  9 31  1  0  0  0  0
 10 11  2  0  0  0  0
 10 12  1  0  0  0  0
 12 13  1  0  0  0  0
 12 32  1  0  0  0  0
 13 14  2  0  0  0  0
 13 17  1  0  0  0  0
 14 15  1  0  0  0  0
 15 16  2  0  0  0  0
 15 33  1  0  0  0  0
 16 17  1  0  0  0  0
 16 34  1  0  0  0  0
 18 19  2  0  0  0  0
 18 35  1  0  0  0  0
 19 20  1  0  0  0  0
 19 24  1  0  0  0  0
 20 21  1  0  0  0  0
 20 22  1  0  0  0  0
 20 23  1  0  0  0  0
 24 36  1  0  0  0  0
 25 37  1  0  0  0  0
M  END
$$$$
