CHEMBL372662
 OpenBabel04072215373D

 59 62  0  0  0  0  0  0  0  0999 V2000
   -0.8634    5.4370   -8.7477 C   0  0  0  0  0  0  0  0  0  0  0  0
   -1.3878    4.9602   -7.5099 O   0  0  0  0  0  0  0  0  0  0  0  0
   -0.3223    4.3678   -6.7921 N   0  0  0  0  0  0  0  0  0  0  0  0
    0.3490    5.2116   -5.9332 C   0  0  0  0  0  0  0  0  0  0  0  0
    0.1797    6.4230   -5.8556 O   0  0  0  0  0  0  0  0  0  0  0  0
    1.3644    4.5830   -5.0588 C   0  0  0  0  0  0  0  0  0  0  0  0
    2.4853    5.3341   -4.6612 C   0  0  0  0  0  0  0  0  0  0  0  0
    3.3784    4.8461   -3.6922 C   0  0  0  0  0  0  0  0  0  0  0  0
    4.4874    5.5999   -3.2408 N   0  0  0  0  0  0  0  0  0  0  0  0
    5.1123    6.6237   -3.9171 C   0  0  0  0  0  0  0  0  0  0  0  0
    5.2160    6.5078   -5.2153 N   0  0  0  0  0  0  0  0  0  0  0  0
    5.8692    7.4538   -5.9504 C   0  0  0  0  0  0  0  0  0  0  0  0
    6.4309    8.5201   -5.4969 N   0  0  0  0  0  0  0  0  0  0  0  0
    6.3331    8.6683   -4.1657 N   0  0  0  0  0  0  0  0  0  0  0  0
    6.8570    9.7243   -3.4922 C   0  0  0  0  0  0  0  0  0  0  0  0
    6.5658    9.5706   -2.1583 C   0  0  0  0  0  0  0  0  0  0  0  0
    6.9971   10.5588   -1.1141 C   0  0  0  0  0  0  0  0  0  0  0  0
    6.7588   10.4130    0.1764 N   0  0  0  0  0  0  0  0  0  0  0  0
    7.2600   11.5098    0.8231 N   0  0  0  0  0  0  0  0  0  0  0  0
    7.7729   12.2785   -0.1117 C   0  0  0  0  0  0  0  0  0  0  0  0
    8.3507   13.6449    0.0505 C   0  0  0  0  0  0  0  0  0  0  0  0
    7.6831   14.7063   -0.7386 N   0  0  0  0  0  0  0  0  0  0  0  0
    6.2613   14.8296   -0.3993 C   0  0  0  0  0  0  0  0  0  0  0  0
    8.3483   15.9891   -0.4925 C   0  0  0  0  0  0  0  0  0  0  0  0
    7.6838   11.7292   -1.3665 O   0  0  0  0  0  0  0  0  0  0  0  0
    5.7880    8.3614   -1.9992 C   0  0  0  0  0  0  0  0  0  0  0  0
    5.1747    7.9277   -0.6791 C   0  0  0  0  0  0  0  0  0  0  0  0
    3.6503    7.8581   -0.7080 C   0  0  0  0  0  0  0  0  0  0  0  0
    5.7583    6.6627   -0.0629 C   0  0  0  0  0  0  0  0  0  0  0  0
    5.7020    7.8018   -3.3033 C   0  0  0  0  0  0  0  0  0  0  0  0
    3.1302    3.5623   -3.1751 C   0  0  0  0  0  0  0  0  0  0  0  0
    3.9271    3.0594   -2.2196 F   0  0  0  0  0  0  0  0  0  0  0  0
    2.0513    2.7851   -3.6081 C   0  0  0  0  0  0  0  0  0  0  0  0
    1.1748    3.3014   -4.5501 C   0  0  0  0  0  0  0  0  0  0  0  0
    0.1259    2.5613   -4.9239 F   0  0  0  0  0  0  0  0  0  0  0  0
   -1.6695    5.9260   -9.3024 H   0  0  0  0  0  0  0  0  0  0  0  0
   -0.4809    4.6007   -9.3411 H   0  0  0  0  0  0  0  0  0  0  0  0
   -0.0676    6.1688   -8.5771 H   0  0  0  0  0  0  0  0  0  0  0  0
   -0.4333    3.3785   -6.5880 H   0  0  0  0  0  0  0  0  0  0  0  0
    2.6255    6.3318   -5.0714 H   0  0  0  0  0  0  0  0  0  0  0  0
    4.6371    5.5188   -2.2497 H   0  0  0  0  0  0  0  0  0  0  0  0
    5.9146    7.2620   -7.0387 H   0  0  0  0  0  0  0  0  0  0  0  0
    7.3925   10.4991   -4.0240 H   0  0  0  0  0  0  0  0  0  0  0  0
    9.4091   13.5916   -0.2330 H   0  0  0  0  0  0  0  0  0  0  0  0
    8.3189   13.8987    1.1190 H   0  0  0  0  0  0  0  0  0  0  0  0
    5.7118   13.9087   -0.6202 H   0  0  0  0  0  0  0  0  0  0  0  0
    5.7956   15.6124   -1.0097 H   0  0  0  0  0  0  0  0  0  0  0  0
    6.1074   15.0824    0.6560 H   0  0  0  0  0  0  0  0  0  0  0  0
    9.4112   15.9345   -0.7517 H   0  0  0  0  0  0  0  0  0  0  0  0
    8.2656   16.3013    0.5557 H   0  0  0  0  0  0  0  0  0  0  0  0
    7.9106   16.7744   -1.1186 H   0  0  0  0  0  0  0  0  0  0  0  0
    5.3864    8.6995    0.0613 H   0  0  0  0  0  0  0  0  0  0  0  0
    3.2945    7.1705   -1.4710 H   0  0  0  0  0  0  0  0  0  0  0  0
    3.2145    8.8438   -0.9025 H   0  0  0  0  0  0  0  0  0  0  0  0
    3.2702    7.5144    0.2619 H   0  0  0  0  0  0  0  0  0  0  0  0
    5.5068    5.7716   -0.6309 H   0  0  0  0  0  0  0  0  0  0  0  0
    5.3460    6.5178    0.9445 H   0  0  0  0  0  0  0  0  0  0  0  0
    6.8463    6.7172    0.0295 H   0  0  0  0  0  0  0  0  0  0  0  0
    1.8749    1.8014   -3.1880 H   0  0  0  0  0  0  0  0  0  0  0  0
  1  2  1  0  0  0  0
  1 36  1  0  0  0  0
  1 37  1  0  0  0  0
  1 38  1  0  0  0  0
  2  3  1  0  0  0  0
  3  4  1  0  0  0  0
  3 39  1  0  0  0  0
  4  5  2  0  0  0  0
  4  6  1  0  0  0  0
  6  7  1  0  0  0  0
  6 34  2  0  0  0  0
  7  8  2  0  0  0  0
  7 40  1  0  0  0  0
  8  9  1  0  0  0  0
  8 31  1  0  0  0  0
  9 10  1  0  0  0  0
  9 41  1  0  0  0  0
 10 11  2  0  0  0  0
 10 30  1  0  0  0  0
 11 12  1  0  0  0  0
 12 13  2  0  0  0  0
 12 42  1  0  0  0  0
 13 14  1  0  0  0  0
 14 15  1  0  0  0  0
 14 30  1  0  0  0  0
 15 16  2  0  0  0  0
 15 43  1  0  0  0  0
 16 17  1  0  0  0  0
 16 26  1  0  0  0  0
 17 18  2  0  0  0  0
 17 25  1  0  0  0  0
 18 19  1  0  0  0  0
 19 20  2  0  0  0  0
 20 21  1  0  0  0  0
 20 25  1  0  0  0  0
 21 22  1  0  0  0  0
 21 44  1  0  0  0  0
 21 45  1  0  0  0  0
 22 23  1  0  0  0  0
 22 24  1  0  0  0  0
 23 46  1  0  0  0  0
 23 47  1  0  0  0  0
 23 48  1  0  0  0  0
 24 49  1  0  0  0  0
 24 50  1  0  0  0  0
 24 51  1  0  0  0  0
 26 27  1  0  0  0  0
 26 30  2  0  0  0  0
 27 28  1  0  0  0  0
 27 29  1  0  0  0  0
 27 52  1  0  0  0  0
 28 53  1  0  0  0  0
 28 54  1  0  0  0  0
 28 55  1  0  0  0  0
 29 56  1  0  0  0  0
 29 57  1  0  0  0  0
 29 58  1  0  0  0  0
 31 32  1  0  0  0  0
 31 33  2  0  0  0  0
 33 34  1  0  0  0  0
 33 59  1  0  0  0  0
 34 35  1  0  0  0  0
M  END
$$$$
