CHEMBL3976752
 OpenBabel04072215373D

 57 60  0  0  1  0  0  0  0  0999 V2000
    0.6572    2.4286   -0.4512 C   0  0  0  0  0  0  0  0  0  0  0  0
    2.0327    2.7920   -0.4273 O   0  0  0  0  0  0  0  0  0  0  0  0
    2.8402    2.0947    0.4324 C   0  0  0  0  0  0  0  0  0  0  0  0
    2.3928    1.2223    1.4239 C   0  0  0  0  0  0  0  0  0  0  0  0
    3.3182    0.5596    2.2196 C   0  0  0  0  0  0  0  0  0  0  0  0
    3.0092   -0.3055    3.2394 O   0  0  0  0  0  0  0  0  0  0  0  0
    1.6572   -0.7541    3.3196 C   0  0  0  0  0  0  0  0  0  0  0  0
    4.6917    0.7708    2.0004 C   0  0  0  0  0  0  0  0  0  0  0  0
    5.1851    1.6549    1.0166 C   0  0  0  0  0  0  0  0  0  0  0  0
    6.5959    1.8884    0.8291 N   0  0  0  0  0  0  0  0  0  0  0  0
    7.2065    2.4060   -0.4073 C   0  0  0  0  0  0  0  0  0  0  0  0
    8.4006    3.1006   -0.3209 C   0  0  0  0  0  0  0  0  0  0  0  0
    8.7543    4.0289   -1.2947 C   0  0  0  0  0  0  0  0  0  0  0  0
    8.1149    4.1027   -2.4852 C   0  0  0  0  0  0  0  0  0  0  0  0
    8.5376    5.1405   -3.1887 N   0  0  0  0  0  0  0  0  0  0  0  0
    8.2489    5.1105   -4.4793 C   0  0  0  0  0  0  0  0  0  0  0  0
    7.6132    4.0285   -5.0549 C   0  0  0  0  0  0  0  0  0  0  0  0
    7.7526    3.9738   -6.5074 C   0  0  0  0  0  0  0  0  0  0  0  0
    8.7428    3.3216   -7.2950 C   0  0  0  0  0  0  0  0  0  0  0  0
    8.7789    3.7616   -8.5610 N   0  0  0  0  0  0  0  0  0  0  0  0
    7.8349    4.7167   -8.5850 N   0  0  0  0  0  0  0  0  0  0  0  0
    7.3823    5.2827   -9.8337 C   0  0  0  0  0  0  0  0  0  0  0  0
    7.3253    4.9917   -7.3478 C   0  0  0  0  0  0  0  0  0  0  0  0
    7.0440    3.0267   -4.2815 N   0  0  0  0  0  0  0  0  0  0  0  0
    7.2471    3.0777   -2.8907 C   0  0  0  0  0  0  0  0  0  0  0  0
    6.7302    2.2811   -1.7587 C   0  0  0  0  0  0  0  0  0  0  0  0
    7.2223    2.5412    2.0961 C   0  0  3  0  0  0  0  0  0  0  0  0
    6.7195    3.9790    2.3106 C   0  0  0  0  0  0  0  0  0  0  0  0
    7.2496    1.7723    3.4427 C   0  0  0  0  0  0  0  0  0  0  0  0
    7.9215    0.4721    3.3677 N   0  0  0  0  0  0  0  0  0  0  0  0
    4.2157    2.3250    0.2590 C   0  0  0  0  0  0  0  0  0  0  0  0
    0.2015    2.9020   -1.3254 H   0  0  0  0  0  0  0  0  0  0  0  0
    0.1478    2.8035    0.4423 H   0  0  0  0  0  0  0  0  0  0  0  0
    0.5203    1.3464   -0.5570 H   0  0  0  0  0  0  0  0  0  0  0  0
    1.3335    1.0684    1.5799 H   0  0  0  0  0  0  0  0  0  0  0  0
    1.6051   -1.5470    4.0730 H   0  0  0  0  0  0  0  0  0  0  0  0
    1.3233   -1.1826    2.3684 H   0  0  0  0  0  0  0  0  0  0  0  0
    0.9899    0.0527    3.6425 H   0  0  0  0  0  0  0  0  0  0  0  0
    5.3639    0.1997    2.6285 H   0  0  0  0  0  0  0  0  0  0  0  0
    9.0937    3.0790    0.4959 H   0  0  0  0  0  0  0  0  0  0  0  0
    9.5554    4.7198   -1.0692 H   0  0  0  0  0  0  0  0  0  0  0  0
    8.6346    5.9439   -5.0544 H   0  0  0  0  0  0  0  0  0  0  0  0
    9.4775    2.5852   -6.9920 H   0  0  0  0  0  0  0  0  0  0  0  0
    7.8747    4.7820  -10.6710 H   0  0  0  0  0  0  0  0  0  0  0  0
    7.5968    6.3541   -9.8495 H   0  0  0  0  0  0  0  0  0  0  0  0
    6.3035    5.1118   -9.8900 H   0  0  0  0  0  0  0  0  0  0  0  0
    6.7152    5.8676   -7.1765 H   0  0  0  0  0  0  0  0  0  0  0  0
    5.9382    1.5649   -1.9841 H   0  0  0  0  0  0  0  0  0  0  0  0
    8.2986    2.6048    1.9618 H   0  0  0  0  0  0  0  0  0  0  0  0
    5.6588    4.0040    2.5720 H   0  0  0  0  0  0  0  0  0  0  0  0
    6.8626    4.6007    1.4211 H   0  0  0  0  0  0  0  0  0  0  0  0
    7.2759    4.4595    3.1244 H   0  0  0  0  0  0  0  0  0  0  0  0
    6.2630    1.6947    3.9032 H   0  0  0  0  0  0  0  0  0  0  0  0
    7.8450    2.3707    4.1487 H   0  0  0  0  0  0  0  0  0  0  0  0
    7.4818   -0.0971    2.6448 H   0  0  0  0  0  0  0  0  0  0  0  0
    7.8179   -0.0206    4.2527 H   0  0  0  0  0  0  0  0  0  0  0  0
    4.5110    3.0669   -0.4760 H   0  0  0  0  0  0  0  0  0  0  0  0
  1  2  1  0  0  0  0
  1 32  1  0  0  0  0
  1 33  1  0  0  0  0
  1 34  1  0  0  0  0
  2  3  1  0  0  0  0
  3  4  1  0  0  0  0
  3 31  2  0  0  0  0
  4  5  2  0  0  0  0
  4 35  1  0  0  0  0
  5  6  1  0  0  0  0
  5  8  1  0  0  0  0
  6  7  1  0  0  0  0
  7 36  1  0  0  0  0
  7 37  1  0  0  0  0
  7 38  1  0  0  0  0
  8  9  2  0  0  0  0
  8 39  1  0  0  0  0
  9 10  1  0  0  0  0
  9 31  1  0  0  0  0
 10 11  1  0  0  0  0
 10 27  1  0  0  0  0
 11 12  1  0  0  0  0
 11 26  2  0  0  0  0
 12 13  2  0  0  0  0
 12 40  1  0  0  0  0
 13 14  1  0  0  0  0
 13 41  1  0  0  0  0
 14 15  1  0  0  0  0
 14 25  2  0  0  0  0
 15 16  2  0  0  0  0
 16 17  1  0  0  0  0
 16 42  1  0  0  0  0
 17 18  1  0  0  0  0
 17 24  2  0  0  0  0
 18 19  1  0  0  0  0
 18 23  2  0  0  0  0
 19 20  2  0  0  0  0
 19 43  1  0  0  0  0
 20 21  1  0  0  0  0
 21 22  1  0  0  0  0
 21 23  1  0  0  0  0
 22 44  1  0  0  0  0
 22 45  1  0  0  0  0
 22 46  1  0  0  0  0
 23 47  1  0  0  0  0
 24 25  1  0  0  0  0
 25 26  1  0  0  0  0
 26 48  1  0  0  0  0
 27 28  1  0  0  0  0
 27 29  1  0  0  0  0
 27 49  1  0  0  0  0
 28 50  1  0  0  0  0
 28 51  1  0  0  0  0
 28 52  1  0  0  0  0
 29 30  1  0  0  0  0
 29 53  1  0  0  0  0
 29 54  1  0  0  0  0
 30 55  1  0  0  0  0
 30 56  1  0  0  0  0
 31 57  1  0  0  0  0
M  END
$$$$
