CHEMBL3660301
 OpenBabel04072215373D

 51 54  0  0  0  0  0  0  0  0999 V2000
    2.7997    0.8403   -2.4584 C   0  0  0  0  0  0  0  0  0  0  0  0
    1.3965    0.5524   -2.0057 C   0  0  0  0  0  0  0  0  0  0  0  0
    0.8908   -0.7474   -2.0917 C   0  0  0  0  0  0  0  0  0  0  0  0
   -0.3918   -1.0218   -1.6370 C   0  0  0  0  0  0  0  0  0  0  0  0
   -1.1831   -0.0036   -1.1115 C   0  0  0  0  0  0  0  0  0  0  0  0
   -2.3453   -0.3854   -0.5707 F   0  0  0  0  0  0  0  0  0  0  0  0
   -0.7347    1.3285   -1.0801 C   0  0  0  0  0  0  0  0  0  0  0  0
   -1.5174    2.4353   -0.6489 N   0  0  0  0  0  0  0  0  0  0  0  0
   -2.8999    2.4501   -0.5812 C   0  0  0  0  0  0  0  0  0  0  0  0
   -3.6362    1.5285   -0.9075 O   0  0  0  0  0  0  0  0  0  0  0  0
   -3.3986    3.6825   -0.1577 N   0  0  0  0  0  0  0  0  0  0  0  0
   -4.7982    3.8044    0.0410 C   0  0  0  0  0  0  0  0  0  0  0  0
   -5.4819    2.8667    0.8210 C   0  0  0  0  0  0  0  0  0  0  0  0
   -6.8727    2.8983    0.9074 C   0  0  0  0  0  0  0  0  0  0  0  0
   -7.5899    3.9097    0.2642 C   0  0  0  0  0  0  0  0  0  0  0  0
   -8.9647    4.0208    0.2917 O   0  0  0  0  0  0  0  0  0  0  0  0
   -9.6486    3.6144    1.4159 C   0  0  0  0  0  0  0  0  0  0  0  0
   -9.1642    3.7649    2.7106 C   0  0  0  0  0  0  0  0  0  0  0  0
   -9.9011    3.2496    3.7624 C   0  0  0  0  0  0  0  0  0  0  0  0
   -9.3418    3.2208    5.0370 N   0  0  0  0  0  0  0  0  0  0  0  0
  -11.1016    2.6673    3.5969 N   0  0  0  0  0  0  0  0  0  0  0  0
  -11.5902    2.5889    2.3308 C   0  0  0  0  0  0  0  0  0  0  0  0
  -12.8977    1.9436    2.2205 C   0  0  0  0  0  0  0  0  0  0  0  0
  -13.7098    1.6684    1.1304 C   0  0  0  0  0  0  0  0  0  0  0  0
  -14.8701    1.0030    1.5976 C   0  0  0  0  0  0  0  0  0  0  0  0
  -14.7502    0.8881    2.9646 C   0  0  0  0  0  0  0  0  0  0  0  0
  -13.5565    1.4580    3.3264 N   0  0  0  0  0  0  0  0  0  0  0  0
  -10.9005    3.0492    1.2186 C   0  0  0  0  0  0  0  0  0  0  0  0
   -6.9068    4.8508   -0.5113 C   0  0  0  0  0  0  0  0  0  0  0  0
   -5.5092    4.8168   -0.6047 C   0  0  0  0  0  0  0  0  0  0  0  0
    0.5816    1.5841   -1.4971 C   0  0  0  0  0  0  0  0  0  0  0  0
    3.2963   -0.0699   -2.8141 H   0  0  0  0  0  0  0  0  0  0  0  0
    3.3922    1.2355   -1.6269 H   0  0  0  0  0  0  0  0  0  0  0  0
    2.7969    1.5613   -3.2817 H   0  0  0  0  0  0  0  0  0  0  0  0
    1.4964   -1.5562   -2.4912 H   0  0  0  0  0  0  0  0  0  0  0  0
   -0.7881   -2.0318   -1.6654 H   0  0  0  0  0  0  0  0  0  0  0  0
   -1.0499    3.3213   -0.5317 H   0  0  0  0  0  0  0  0  0  0  0  0
   -2.9436    4.4766   -0.5811 H   0  0  0  0  0  0  0  0  0  0  0  0
   -4.9391    2.0797    1.3410 H   0  0  0  0  0  0  0  0  0  0  0  0
   -7.3723    2.1173    1.4739 H   0  0  0  0  0  0  0  0  0  0  0  0
   -8.2022    4.2260    2.9003 H   0  0  0  0  0  0  0  0  0  0  0  0
   -8.9296    4.1019    5.3142 H   0  0  0  0  0  0  0  0  0  0  0  0
  -10.0322    2.8703    5.6932 H   0  0  0  0  0  0  0  0  0  0  0  0
  -13.4922    1.9098    0.0982 H   0  0  0  0  0  0  0  0  0  0  0  0
  -15.6970    0.6448    0.9972 H   0  0  0  0  0  0  0  0  0  0  0  0
  -15.4028    0.4449    3.7052 H   0  0  0  0  0  0  0  0  0  0  0  0
  -13.1851    1.5168    4.2670 H   0  0  0  0  0  0  0  0  0  0  0  0
  -11.3071    2.9526    0.2198 H   0  0  0  0  0  0  0  0  0  0  0  0
   -7.4669    5.5983   -1.0671 H   0  0  0  0  0  0  0  0  0  0  0  0
   -5.0054    5.5336   -1.2454 H   0  0  0  0  0  0  0  0  0  0  0  0
    0.9755    2.5974   -1.4609 H   0  0  0  0  0  0  0  0  0  0  0  0
  1  2  1  0  0  0  0
  1 32  1  0  0  0  0
  1 33  1  0  0  0  0
  1 34  1  0  0  0  0
  2  3  1  0  0  0  0
  2 31  2  0  0  0  0
  3  4  2  0  0  0  0
  3 35  1  0  0  0  0
  4  5  1  0  0  0  0
  4 36  1  0  0  0  0
  5  6  1  0  0  0  0
  5  7  2  0  0  0  0
  7  8  1  0  0  0  0
  7 31  1  0  0  0  0
  8  9  1  0  0  0  0
  8 37  1  0  0  0  0
  9 10  2  0  0  0  0
  9 11  1  0  0  0  0
 11 12  1  0  0  0  0
 11 38  1  0  0  0  0
 12 13  1  0  0  0  0
 12 30  2  0  0  0  0
 13 14  2  0  0  0  0
 13 39  1  0  0  0  0
 14 15  1  0  0  0  0
 14 40  1  0  0  0  0
 15 16  1  0  0  0  0
 15 29  2  0  0  0  0
 16 17  1  0  0  0  0
 17 18  1  0  0  0  0
 17 28  2  0  0  0  0
 18 19  2  0  0  0  0
 18 41  1  0  0  0  0
 19 20  1  0  0  0  0
 19 21  1  0  0  0  0
 20 42  1  0  0  0  0
 20 43  1  0  0  0  0
 21 22  2  0  0  0  0
 22 23  1  0  0  0  0
 22 28  1  0  0  0  0
 23 24  2  0  0  0  0
 23 27  1  0  0  0  0
 24 25  1  0  0  0  0
 24 44  1  0  0  0  0
 25 26  2  0  0  0  0
 25 45  1  0  0  0  0
 26 27  1  0  0  0  0
 26 46  1  0  0  0  0
 27 47  1  0  0  0  0
 28 48  1  0  0  0  0
 29 30  1  0  0  0  0
 29 49  1  0  0  0  0
 30 50  1  0  0  0  0
 31 51  1  0  0  0  0
M  END
$$$$
