CHEMBL3893718
 OpenBabel04072215373D

 69 73  0  0  0  0  0  0  0  0999 V2000
    0.6436    0.9317    4.0229 C   0  0  0  0  0  0  0  0  0  0  0  0
    1.9837    1.4156    4.1550 O   0  0  0  0  0  0  0  0  0  0  0  0
    2.9145    0.9403    3.2627 C   0  0  0  0  0  0  0  0  0  0  0  0
    2.6290    0.0299    2.2488 C   0  0  0  0  0  0  0  0  0  0  0  0
    3.6283   -0.3477    1.3550 C   0  0  0  0  0  0  0  0  0  0  0  0
    3.4742   -1.1914    0.2873 O   0  0  0  0  0  0  0  0  0  0  0  0
    2.2148   -1.8370    0.1520 C   0  0  0  0  0  0  0  0  0  0  0  0
    4.9153    0.1876    1.4872 C   0  0  0  0  0  0  0  0  0  0  0  0
    5.2508    1.1132    2.4890 C   0  0  0  0  0  0  0  0  0  0  0  0
    6.4890    1.8098    2.4823 N   0  0  0  0  0  0  0  0  0  0  0  0
    7.0594    2.1150    1.1021 C   0  0  0  0  0  0  0  0  0  0  0  0
    6.1416    2.9749    0.1810 C   0  0  0  0  0  0  0  0  0  0  0  0
    6.6926    3.2903   -1.1693 N   0  0  0  0  0  0  0  0  0  0  0  0
    5.7757    4.1415   -1.9528 C   0  0  0  0  0  0  0  0  0  0  0  0
    4.5176    3.4148   -2.4458 C   0  0  0  0  0  0  0  0  0  0  0  0
    4.8412    2.1360   -3.2249 C   0  0  0  0  0  0  0  0  0  0  0  0
    5.2961    2.4320   -4.5880 N   0  0  0  0  0  0  0  0  0  0  0  0
    5.8763    1.2935   -2.4695 C   0  0  0  0  0  0  0  0  0  0  0  0
    7.0673    2.1200   -1.9809 C   0  0  0  0  0  0  0  0  0  0  0  0
    7.5827    1.7725    3.4238 C   0  0  0  0  0  0  0  0  0  0  0  0
    8.2627    2.9807    3.5630 C   0  0  0  0  0  0  0  0  0  0  0  0
    9.5955    2.9885    3.9199 C   0  0  0  0  0  0  0  0  0  0  0  0
   10.2372    1.8516    4.3286 C   0  0  0  0  0  0  0  0  0  0  0  0
   11.5610    1.9943    4.4590 N   0  0  0  0  0  0  0  0  0  0  0  0
   12.2233    0.9743    5.0142 C   0  0  0  0  0  0  0  0  0  0  0  0
   11.5748   -0.1330    5.5162 C   0  0  0  0  0  0  0  0  0  0  0  0
   12.3593   -0.9382    6.4519 C   0  0  0  0  0  0  0  0  0  0  0  0
   12.3729   -0.9078    7.8737 C   0  0  0  0  0  0  0  0  0  0  0  0
   13.4159   -1.5595    8.4061 N   0  0  0  0  0  0  0  0  0  0  0  0
   14.0867   -2.0066    7.3320 N   0  0  0  0  0  0  0  0  0  0  0  0
   15.1634   -2.9582    7.4840 C   0  0  0  0  0  0  0  0  0  0  0  0
   13.5790   -1.5341    6.1514 C   0  0  0  0  0  0  0  0  0  0  0  0
   10.2357   -0.3450    5.2675 N   0  0  0  0  0  0  0  0  0  0  0  0
    9.5264    0.6546    4.5746 C   0  0  0  0  0  0  0  0  0  0  0  0
    8.1630    0.6373    4.0386 C   0  0  0  0  0  0  0  0  0  0  0  0
    4.2229    1.4665    3.3864 C   0  0  0  0  0  0  0  0  0  0  0  0
    0.0152    1.4419    4.7603 H   0  0  0  0  0  0  0  0  0  0  0  0
    0.5926   -0.1426    4.2325 H   0  0  0  0  0  0  0  0  0  0  0  0
    0.2256    1.1557    3.0340 H   0  0  0  0  0  0  0  0  0  0  0  0
    1.6309   -0.3753    2.1364 H   0  0  0  0  0  0  0  0  0  0  0  0
    2.2776   -2.5130   -0.7056 H   0  0  0  0  0  0  0  0  0  0  0  0
    1.4184   -1.1130   -0.0526 H   0  0  0  0  0  0  0  0  0  0  0  0
    1.9843   -2.4398    1.0365 H   0  0  0  0  0  0  0  0  0  0  0  0
    5.6533   -0.1151    0.7523 H   0  0  0  0  0  0  0  0  0  0  0  0
    7.3463    1.1720    0.6287 H   0  0  0  0  0  0  0  0  0  0  0  0
    7.9945    2.6864    1.1759 H   0  0  0  0  0  0  0  0  0  0  0  0
    5.9828    3.9335    0.6946 H   0  0  0  0  0  0  0  0  0  0  0  0
    5.1586    2.5098    0.0898 H   0  0  0  0  0  0  0  0  0  0  0  0
    6.3212    4.5396   -2.8171 H   0  0  0  0  0  0  0  0  0  0  0  0
    5.4871    5.0261   -1.3682 H   0  0  0  0  0  0  0  0  0  0  0  0
    3.9137    4.0940   -3.0606 H   0  0  0  0  0  0  0  0  0  0  0  0
    3.8851    3.1535   -1.5888 H   0  0  0  0  0  0  0  0  0  0  0  0
    3.9236    1.5436   -3.3285 H   0  0  0  0  0  0  0  0  0  0  0  0
    6.1587    2.9754   -4.5701 H   0  0  0  0  0  0  0  0  0  0  0  0
    4.6064    3.0122   -5.0649 H   0  0  0  0  0  0  0  0  0  0  0  0
    6.2349    0.4716   -3.1022 H   0  0  0  0  0  0  0  0  0  0  0  0
    5.3879    0.8205   -1.6097 H   0  0  0  0  0  0  0  0  0  0  0  0
    7.6362    2.4749   -2.8528 H   0  0  0  0  0  0  0  0  0  0  0  0
    7.7752    1.4811   -1.4449 H   0  0  0  0  0  0  0  0  0  0  0  0
    7.8079    3.9059    3.2206 H   0  0  0  0  0  0  0  0  0  0  0  0
   10.1584    3.9151    3.8445 H   0  0  0  0  0  0  0  0  0  0  0  0
   13.2973    1.1151    5.0965 H   0  0  0  0  0  0  0  0  0  0  0  0
   11.7021   -0.3869    8.5461 H   0  0  0  0  0  0  0  0  0  0  0  0
   15.3212   -3.1812    8.5429 H   0  0  0  0  0  0  0  0  0  0  0  0
   16.0777   -2.5512    7.0452 H   0  0  0  0  0  0  0  0  0  0  0  0
   14.8648   -3.8708    6.9607 H   0  0  0  0  0  0  0  0  0  0  0  0
   14.1176   -1.6647    5.2238 H   0  0  0  0  0  0  0  0  0  0  0  0
    7.6306   -0.3068    4.0646 H   0  0  0  0  0  0  0  0  0  0  0  0
    4.4088    2.2207    4.1495 H   0  0  0  0  0  0  0  0  0  0  0  0
  1  2  1  0  0  0  0
  1 37  1  0  0  0  0
  1 38  1  0  0  0  0
  1 39  1  0  0  0  0
  2  3  1  0  0  0  0
  3  4  1  0  0  0  0
  3 36  2  0  0  0  0
  4  5  2  0  0  0  0
  4 40  1  0  0  0  0
  5  6  1  0  0  0  0
  5  8  1  0  0  0  0
  6  7  1  0  0  0  0
  7 41  1  0  0  0  0
  7 42  1  0  0  0  0
  7 43  1  0  0  0  0
  8  9  2  0  0  0  0
  8 44  1  0  0  0  0
  9 10  1  0  0  0  0
  9 36  1  0  0  0  0
 10 11  1  0  0  0  0
 10 20  1  0  0  0  0
 11 12  1  0  0  0  0
 11 45  1  0  0  0  0
 11 46  1  0  0  0  0
 12 13  1  0  0  0  0
 12 47  1  0  0  0  0
 12 48  1  0  0  0  0
 13 14  1  0  0  0  0
 13 19  1  0  0  0  0
 14 15  1  0  0  0  0
 14 49  1  0  0  0  0
 14 50  1  0  0  0  0
 15 16  1  0  0  0  0
 15 51  1  0  0  0  0
 15 52  1  0  0  0  0
 16 17  1  0  0  0  0
 16 18  1  0  0  0  0
 16 53  1  0  0  0  0
 17 54  1  0  0  0  0
 17 55  1  0  0  0  0
 18 19  1  0  0  0  0
 18 56  1  0  0  0  0
 18 57  1  0  0  0  0
 19 58  1  0  0  0  0
 19 59  1  0  0  0  0
 20 21  1  0  0  0  0
 20 35  2  0  0  0  0
 21 22  2  0  0  0  0
 21 60  1  0  0  0  0
 22 23  1  0  0  0  0
 22 61  1  0  0  0  0
 23 24  1  0  0  0  0
 23 34  2  0  0  0  0
 24 25  2  0  0  0  0
 25 26  1  0  0  0  0
 25 62  1  0  0  0  0
 26 27  1  0  0  0  0
 26 33  2  0  0  0  0
 27 28  1  0  0  0  0
 27 32  2  0  0  0  0
 28 29  2  0  0  0  0
 28 63  1  0  0  0  0
 29 30  1  0  0  0  0
 30 31  1  0  0  0  0
 30 32  1  0  0  0  0
 31 64  1  0  0  0  0
 31 65  1  0  0  0  0
 31 66  1  0  0  0  0
 32 67  1  0  0  0  0
 33 34  1  0  0  0  0
 34 35  1  0  0  0  0
 35 68  1  0  0  0  0
 36 69  1  0  0  0  0
M  END
$$$$
