CHEMBL3933714
 OpenBabel04072215373D

 69 72  0  0  1  0  0  0  0  0999 V2000
   11.3984    4.8281   -2.8633 C   0  0  0  0  0  0  0  0  0  0  0  0
   10.7450    4.2012   -1.7598 O   0  0  0  0  0  0  0  0  0  0  0  0
    9.3848    4.2044   -1.8606 C   0  0  0  0  0  0  0  0  0  0  0  0
    8.7395    4.7019   -2.7603 O   0  0  0  0  0  0  0  0  0  0  0  0
    8.8033    3.5122   -0.6477 C   0  0  0  0  0  0  0  0  0  0  0  0
    7.2711    3.4794   -0.6629 C   0  0  0  0  0  0  0  0  0  0  0  0
    6.6839    2.7512    0.5578 C   0  0  2  0  0  0  0  0  0  0  0  0
    5.2224    2.7098    0.5037 N   0  0  0  0  0  0  0  0  0  0  0  0
    4.5234    1.7006   -0.1106 C   0  0  0  0  0  0  0  0  0  0  0  0
    5.1022    0.7732   -0.6708 O   0  0  0  0  0  0  0  0  0  0  0  0
    3.0691    1.8070   -0.0492 C   0  0  0  0  0  0  0  0  0  0  0  0
    2.1429    0.9043   -0.5316 C   0  0  0  0  0  0  0  0  0  0  0  0
    0.8003    1.3383   -0.3537 C   0  0  0  0  0  0  0  0  0  0  0  0
   -0.3014    0.6424   -0.7579 N   0  0  0  0  0  0  0  0  0  0  0  0
   -1.4855    1.2345   -0.5265 C   0  0  0  0  0  0  0  0  0  0  0  0
   -1.6510    2.4678    0.0716 C   0  0  0  0  0  0  0  0  0  0  0  0
   -0.5203    3.2032    0.4434 C   0  0  0  0  0  0  0  0  0  0  0  0
   -0.5865    4.4850    0.9685 O   0  0  0  0  0  0  0  0  0  0  0  0
   -1.4979    5.3641    0.4204 C   0  0  0  0  0  0  0  0  0  0  0  0
   -1.9462    5.2567   -0.8927 C   0  0  0  0  0  0  0  0  0  0  0  0
   -2.9834    6.0590   -1.3479 C   0  0  0  0  0  0  0  0  0  0  0  0
   -3.5478    7.0462   -0.5419 C   0  0  0  0  0  0  0  0  0  0  0  0
   -4.6249    7.8471   -1.0131 N   0  0  0  0  0  0  0  0  0  0  0  0
   -5.4674    7.4397   -2.0341 C   0  0  0  0  0  0  0  0  0  0  0  0
   -5.4145    6.3364   -2.5749 O   0  0  0  0  0  0  0  0  0  0  0  0
   -6.3951    8.4022   -2.4145 N   0  0  0  0  0  0  0  0  0  0  0  0
   -7.2574    8.0481   -3.4938 C   0  0  0  0  0  0  0  0  0  0  0  0
   -8.0268    6.8763   -3.4353 C   0  0  0  0  0  0  0  0  0  0  0  0
   -8.6747    6.3846   -4.5761 C   0  0  0  0  0  0  0  0  0  0  0  0
   -9.4285    5.0876   -4.5222 C   0  0  0  0  0  0  0  0  0  0  0  0
   -8.5496    7.0863   -5.7819 C   0  0  0  0  0  0  0  0  0  0  0  0
   -7.8422    8.2902   -5.8280 C   0  0  0  0  0  0  0  0  0  0  0  0
   -7.2205    8.7751   -4.6814 C   0  0  0  0  0  0  0  0  0  0  0  0
   -6.4915    9.9015   -4.7550 F   0  0  0  0  0  0  0  0  0  0  0  0
   -3.0035    7.2310    0.7390 C   0  0  0  0  0  0  0  0  0  0  0  0
   -3.4980    8.1838    1.5448 F   0  0  0  0  0  0  0  0  0  0  0  0
   -1.9847    6.3961    1.2248 C   0  0  0  0  0  0  0  0  0  0  0  0
    0.7261    2.5861    0.2577 C   0  0  0  0  0  0  0  0  0  0  0  0
    2.2950    3.1609    0.6568 S   0  0  0  0  0  0  0  0  0  0  0  0
    7.0704    3.4758    1.8552 C   0  0  0  0  0  0  0  0  0  0  0  0
    6.3922    4.3370    2.4035 O   0  0  0  0  0  0  0  0  0  0  0  0
    8.2932    3.0466    2.2807 O   0  0  0  0  0  0  0  0  0  0  0  0
    8.7978    3.7066    3.4405 C   0  0  0  0  0  0  0  0  0  0  0  0
   12.4775    4.7008   -2.7382 H   0  0  0  0  0  0  0  0  0  0  0  0
   11.1738    5.8990   -2.8792 H   0  0  0  0  0  0  0  0  0  0  0  0
   11.1016    4.3543   -3.8043 H   0  0  0  0  0  0  0  0  0  0  0  0
    9.1631    4.0662    0.2263 H   0  0  0  0  0  0  0  0  0  0  0  0
    9.1947    2.4889   -0.6134 H   0  0  0  0  0  0  0  0  0  0  0  0
    6.9323    2.9798   -1.5797 H   0  0  0  0  0  0  0  0  0  0  0  0
    6.8837    4.5050   -0.7184 H   0  0  0  0  0  0  0  0  0  0  0  0
    7.0513    1.7261    0.6089 H   0  0  0  0  0  0  0  0  0  0  0  0
    4.7058    3.4161    1.0187 H   0  0  0  0  0  0  0  0  0  0  0  0
    2.4137   -0.0273   -1.0159 H   0  0  0  0  0  0  0  0  0  0  0  0
   -2.3535    0.6738   -0.8675 H   0  0  0  0  0  0  0  0  0  0  0  0
   -2.6532    2.8684    0.1873 H   0  0  0  0  0  0  0  0  0  0  0  0
   -1.5481    4.5180   -1.5802 H   0  0  0  0  0  0  0  0  0  0  0  0
   -3.3243    5.8673   -2.3597 H   0  0  0  0  0  0  0  0  0  0  0  0
   -4.9240    8.6156   -0.4277 H   0  0  0  0  0  0  0  0  0  0  0  0
   -5.9991    9.3325   -2.4785 H   0  0  0  0  0  0  0  0  0  0  0  0
   -8.0703    6.3114   -2.5056 H   0  0  0  0  0  0  0  0  0  0  0  0
   -9.5172    4.7189   -3.4938 H   0  0  0  0  0  0  0  0  0  0  0  0
   -8.9116    4.3227   -5.1109 H   0  0  0  0  0  0  0  0  0  0  0  0
  -10.4427    5.2206   -4.9124 H   0  0  0  0  0  0  0  0  0  0  0  0
   -8.9896    6.6867   -6.6933 H   0  0  0  0  0  0  0  0  0  0  0  0
   -7.7336    8.8280   -6.7651 H   0  0  0  0  0  0  0  0  0  0  0  0
   -1.5996    6.5389    2.2298 H   0  0  0  0  0  0  0  0  0  0  0  0
    9.7803    3.2814    3.6648 H   0  0  0  0  0  0  0  0  0  0  0  0
    8.1373    3.5305    4.2944 H   0  0  0  0  0  0  0  0  0  0  0  0
    8.9210    4.7775    3.2529 H   0  0  0  0  0  0  0  0  0  0  0  0
  1  2  1  0  0  0  0
  1 44  1  0  0  0  0
  1 45  1  0  0  0  0
  1 46  1  0  0  0  0
  2  3  1  0  0  0  0
  3  4  2  0  0  0  0
  3  5  1  0  0  0  0
  5  6  1  0  0  0  0
  5 47  1  0  0  0  0
  5 48  1  0  0  0  0
  6 49  1  0  0  0  0
  6 50  1  0  0  0  0
  7 40  1  0  0  0  0
  7  8  1  0  0  0  0
  7  6  1  0  0  0  0
  7 51  1  1  0  0  0
  8  9  1  0  0  0  0
  8 52  1  0  0  0  0
  9 10  2  0  0  0  0
  9 11  1  0  0  0  0
 11 12  2  0  0  0  0
 11 39  1  0  0  0  0
 12 13  1  0  0  0  0
 12 53  1  0  0  0  0
 13 14  1  0  0  0  0
 13 38  2  0  0  0  0
 14 15  2  0  0  0  0
 15 16  1  0  0  0  0
 15 54  1  0  0  0  0
 16 17  2  0  0  0  0
 16 55  1  0  0  0  0
 17 18  1  0  0  0  0
 17 38  1  0  0  0  0
 18 19  1  0  0  0  0
 19 20  1  0  0  0  0
 19 37  2  0  0  0  0
 20 21  2  0  0  0  0
 20 56  1  0  0  0  0
 21 22  1  0  0  0  0
 21 57  1  0  0  0  0
 22 23  1  0  0  0  0
 22 35  2  0  0  0  0
 23 24  1  0  0  0  0
 23 58  1  0  0  0  0
 24 25  2  0  0  0  0
 24 26  1  0  0  0  0
 26 27  1  0  0  0  0
 26 59  1  0  0  0  0
 27 28  1  0  0  0  0
 27 33  2  0  0  0  0
 28 29  2  0  0  0  0
 28 60  1  0  0  0  0
 29 30  1  0  0  0  0
 29 31  1  0  0  0  0
 30 61  1  0  0  0  0
 30 62  1  0  0  0  0
 30 63  1  0  0  0  0
 31 32  2  0  0  0  0
 31 64  1  0  0  0  0
 32 33  1  0  0  0  0
 32 65  1  0  0  0  0
 33 34  1  0  0  0  0
 35 36  1  0  0  0  0
 35 37  1  0  0  0  0
 37 66  1  0  0  0  0
 38 39  1  0  0  0  0
 40 41  2  0  0  0  0
 40 42  1  0  0  0  0
 42 43  1  0  0  0  0
 43 67  1  0  0  0  0
 43 68  1  0  0  0  0
 43 69  1  0  0  0  0
M  END
$$$$
