CHEMBL1095465
 OpenBabel04072215363D

 49 52  0  0  0  0  0  0  0  0999 V2000
    7.9404   -2.5671    5.1210 C   0  0  0  0  0  0  0  0  0  0  0  0
    7.2278   -2.9722    3.9577 O   0  0  0  0  0  0  0  0  0  0  0  0
    7.7183   -2.5374    2.7577 C   0  0  0  0  0  0  0  0  0  0  0  0
    8.8540   -1.7571    2.5778 C   0  0  0  0  0  0  0  0  0  0  0  0
    9.2122   -1.3198    1.2992 C   0  0  0  0  0  0  0  0  0  0  0  0
    8.4465   -1.6619    0.1789 C   0  0  0  0  0  0  0  0  0  0  0  0
    8.6898   -1.1975   -1.0895 O   0  0  0  0  0  0  0  0  0  0  0  0
    9.6343   -0.1366   -1.2041 C   0  0  0  0  0  0  0  0  0  0  0  0
    7.3387   -2.5123    0.3372 C   0  0  0  0  0  0  0  0  0  0  0  0
    6.4623   -2.9214   -0.8227 C   0  0  0  0  0  0  0  0  0  0  0  0
    7.0661   -3.8678   -1.8128 C   0  0  0  0  0  0  0  0  0  0  0  0
    7.1856   -5.2479   -1.8054 C   0  0  0  0  0  0  0  0  0  0  0  0
    7.4719   -5.6631   -3.1408 C   0  0  0  0  0  0  0  0  0  0  0  0
    7.5598   -6.8802   -3.8400 C   0  0  0  0  0  0  0  0  0  0  0  0
    7.3240   -8.1072   -3.2027 N   0  0  0  0  0  0  0  0  0  0  0  0
    7.7006   -9.4140   -3.5565 C   0  0  0  0  0  0  0  0  0  0  0  0
    8.5547   -9.7035   -4.6293 C   0  0  0  0  0  0  0  0  0  0  0  0
    8.9058  -11.0162   -4.9494 C   0  0  0  0  0  0  0  0  0  0  0  0
    8.3776  -12.0765   -4.2078 C   0  0  0  0  0  0  0  0  0  0  0  0
    7.5036  -11.8064   -3.1613 C   0  0  0  0  0  0  0  0  0  0  0  0
    6.7831  -13.2373   -2.1552 Br  0  0  0  0  0  0  0  0  0  0  0  0
    7.1572  -10.4913   -2.8413 C   0  0  0  0  0  0  0  0  0  0  0  0
    7.7913   -6.8155   -5.1776 N   0  0  0  0  0  0  0  0  0  0  0  0
    7.9466   -5.6296   -5.7794 C   0  0  0  0  0  0  0  0  0  0  0  0
    8.0674   -5.6593   -7.1584 N   0  0  0  0  0  0  0  0  0  0  0  0
    7.8986   -4.4266   -5.1978 N   0  0  0  0  0  0  0  0  0  0  0  0
    7.6584   -4.5096   -3.8820 C   0  0  0  0  0  0  0  0  0  0  0  0
    7.5099   -3.4373   -3.0444 N   0  0  0  0  0  0  0  0  0  0  0  0
    6.9791   -2.9242    1.6380 C   0  0  0  0  0  0  0  0  0  0  0  0
    7.4015   -2.9440    5.9955 H   0  0  0  0  0  0  0  0  0  0  0  0
    7.9843   -1.4756    5.2053 H   0  0  0  0  0  0  0  0  0  0  0  0
    8.9444   -3.0043    5.1319 H   0  0  0  0  0  0  0  0  0  0  0  0
    9.4808   -1.4556    3.4099 H   0  0  0  0  0  0  0  0  0  0  0  0
   10.0983   -0.7000    1.2164 H   0  0  0  0  0  0  0  0  0  0  0  0
    9.6255    0.2136   -2.2402 H   0  0  0  0  0  0  0  0  0  0  0  0
   10.6459   -0.4905   -0.9800 H   0  0  0  0  0  0  0  0  0  0  0  0
    9.3625    0.7125   -0.5661 H   0  0  0  0  0  0  0  0  0  0  0  0
    6.1028   -2.0178   -1.3313 H   0  0  0  0  0  0  0  0  0  0  0  0
    5.5536   -3.4045   -0.4367 H   0  0  0  0  0  0  0  0  0  0  0  0
    6.9613   -5.8910   -0.9651 H   0  0  0  0  0  0  0  0  0  0  0  0
    6.9817   -8.0082   -2.2572 H   0  0  0  0  0  0  0  0  0  0  0  0
    8.9923   -8.9033   -5.2201 H   0  0  0  0  0  0  0  0  0  0  0  0
    9.5847  -11.2100   -5.7714 H   0  0  0  0  0  0  0  0  0  0  0  0
    8.6587  -13.0952   -4.4564 H   0  0  0  0  0  0  0  0  0  0  0  0
    6.4641  -10.3053   -2.0265 H   0  0  0  0  0  0  0  0  0  0  0  0
    7.6418   -6.5156   -7.4911 H   0  0  0  0  0  0  0  0  0  0  0  0
    7.6986   -4.7979   -7.5370 H   0  0  0  0  0  0  0  0  0  0  0  0
    7.5950   -2.4748   -3.3385 H   0  0  0  0  0  0  0  0  0  0  0  0
    6.0912   -3.5353    1.7883 H   0  0  0  0  0  0  0  0  0  0  0  0
  1  2  1  0  0  0  0
  1 30  1  0  0  0  0
  1 31  1  0  0  0  0
  1 32  1  0  0  0  0
  2  3  1  0  0  0  0
  3  4  1  0  0  0  0
  3 29  2  0  0  0  0
  4  5  2  0  0  0  0
  4 33  1  0  0  0  0
  5  6  1  0  0  0  0
  5 34  1  0  0  0  0
  6  7  1  0  0  0  0
  6  9  2  0  0  0  0
  7  8  1  0  0  0  0
  8 35  1  0  0  0  0
  8 36  1  0  0  0  0
  8 37  1  0  0  0  0
  9 10  1  0  0  0  0
  9 29  1  0  0  0  0
 10 11  1  0  0  0  0
 10 38  1  0  0  0  0
 10 39  1  0  0  0  0
 11 12  2  0  0  0  0
 11 28  1  0  0  0  0
 12 13  1  0  0  0  0
 12 40  1  0  0  0  0
 13 14  1  0  0  0  0
 13 27  2  0  0  0  0
 14 15  1  0  0  0  0
 14 23  2  0  0  0  0
 15 16  1  0  0  0  0
 15 41  1  0  0  0  0
 16 17  1  0  0  0  0
 16 22  2  0  0  0  0
 17 18  2  0  0  0  0
 17 42  1  0  0  0  0
 18 19  1  0  0  0  0
 18 43  1  0  0  0  0
 19 20  2  0  0  0  0
 19 44  1  0  0  0  0
 20 21  1  0  0  0  0
 20 22  1  0  0  0  0
 22 45  1  0  0  0  0
 23 24  1  0  0  0  0
 24 25  1  0  0  0  0
 24 26  2  0  0  0  0
 25 46  1  0  0  0  0
 25 47  1  0  0  0  0
 26 27  1  0  0  0  0
 27 28  1  0  0  0  0
 28 48  1  0  0  0  0
 29 49  1  0  0  0  0
M  END
$$$$
