CHEMBL256246
 OpenBabel04072215363D

 45 48  0  0  0  0  0  0  0  0999 V2000
    2.2918   -2.9240    3.4575 N   0  0  0  0  0  0  0  0  0  0  0  0
    3.3726   -2.4059    2.8589 C   0  0  0  0  0  0  0  0  0  0  0  0
    4.3663   -1.9208    3.5983 N   0  0  0  0  0  0  0  0  0  0  0  0
    5.2519   -1.4882    2.7008 N   0  0  0  0  0  0  0  0  0  0  0  0
    4.8751   -1.6832    1.4045 C   0  0  0  0  0  0  0  0  0  0  0  0
    5.5333   -1.3621    0.2301 C   0  0  0  0  0  0  0  0  0  0  0  0
    4.9581   -1.6726   -0.9436 N   0  0  0  0  0  0  0  0  0  0  0  0
    3.7508   -2.2808   -0.9246 C   0  0  0  0  0  0  0  0  0  0  0  0
    2.9965   -2.6275    0.2104 C   0  0  0  0  0  0  0  0  0  0  0  0
    1.6718   -3.2650    0.0755 C   0  0  0  0  0  0  0  0  0  0  0  0
    1.2631   -4.3112    0.9074 C   0  0  0  0  0  0  0  0  0  0  0  0
   -0.0146   -4.8707    0.8038 C   0  0  0  0  0  0  0  0  0  0  0  0
   -0.9042   -4.4579   -0.1900 C   0  0  0  0  0  0  0  0  0  0  0  0
   -2.1942   -5.0152   -0.3271 N   0  0  0  0  0  0  0  0  0  0  0  0
   -2.9001   -5.5429    0.7370 C   0  0  0  0  0  0  0  0  0  0  0  0
   -2.5660   -5.4246    1.9111 O   0  0  0  0  0  0  0  0  0  0  0  0
   -4.0227   -6.2495    0.3254 N   0  0  0  0  0  0  0  0  0  0  0  0
   -4.7929   -6.9082    1.3194 C   0  0  0  0  0  0  0  0  0  0  0  0
   -5.1810   -6.2354    2.4843 C   0  0  0  0  0  0  0  0  0  0  0  0
   -5.7307   -6.9334    3.5675 C   0  0  0  0  0  0  0  0  0  0  0  0
   -6.0452   -6.2266    4.8608 C   0  0  0  0  0  0  0  0  0  0  0  0
   -5.8049   -4.8871    4.8268 F   0  0  0  0  0  0  0  0  0  0  0  0
   -7.3539   -6.3595    5.2147 F   0  0  0  0  0  0  0  0  0  0  0  0
   -5.3246   -6.7114    5.9094 F   0  0  0  0  0  0  0  0  0  0  0  0
   -5.9246   -8.3226    3.4441 C   0  0  0  0  0  0  0  0  0  0  0  0
   -5.6041   -8.9855    2.2540 C   0  0  0  0  0  0  0  0  0  0  0  0
   -5.0567   -8.2707    1.1936 C   0  0  0  0  0  0  0  0  0  0  0  0
   -4.6895   -8.9221    0.0788 F   0  0  0  0  0  0  0  0  0  0  0  0
   -0.4828   -3.4870   -1.0953 C   0  0  0  0  0  0  0  0  0  0  0  0
    0.7743   -2.8809   -0.9421 C   0  0  0  0  0  0  0  0  0  0  0  0
    3.6219   -2.3027    1.4483 C   0  0  0  0  0  0  0  0  0  0  0  0
    2.2347   -2.7898    4.4619 H   0  0  0  0  0  0  0  0  0  0  0  0
    1.3870   -2.9173    3.0022 H   0  0  0  0  0  0  0  0  0  0  0  0
    6.1083   -1.0647    3.0400 H   0  0  0  0  0  0  0  0  0  0  0  0
    6.4995   -0.8730    0.1950 H   0  0  0  0  0  0  0  0  0  0  0  0
    3.3778   -2.5129   -1.9212 H   0  0  0  0  0  0  0  0  0  0  0  0
    1.9327   -4.7128    1.6660 H   0  0  0  0  0  0  0  0  0  0  0  0
   -0.2818   -5.6505    1.5128 H   0  0  0  0  0  0  0  0  0  0  0  0
   -2.7489   -4.7335   -1.1228 H   0  0  0  0  0  0  0  0  0  0  0  0
   -3.8723   -6.7854   -0.5223 H   0  0  0  0  0  0  0  0  0  0  0  0
   -4.9994   -5.1652    2.5750 H   0  0  0  0  0  0  0  0  0  0  0  0
   -6.3089   -8.8955    4.2886 H   0  0  0  0  0  0  0  0  0  0  0  0
   -5.7352  -10.0597    2.1663 H   0  0  0  0  0  0  0  0  0  0  0  0
   -1.1319   -3.1576   -1.9015 H   0  0  0  0  0  0  0  0  0  0  0  0
    1.0394   -2.0902   -1.6424 H   0  0  0  0  0  0  0  0  0  0  0  0
  1  2  1  0  0  0  0
  1 32  1  0  0  0  0
  1 33  1  0  0  0  0
  2  3  2  0  0  0  0
  2 31  1  0  0  0  0
  3  4  1  0  0  0  0
  4  5  1  0  0  0  0
  4 34  1  0  0  0  0
  5  6  1  0  0  0  0
  5 31  2  0  0  0  0
  6  7  2  0  0  0  0
  6 35  1  0  0  0  0
  7  8  1  0  0  0  0
  8  9  2  0  0  0  0
  8 36  1  0  0  0  0
  9 10  1  0  0  0  0
  9 31  1  0  0  0  0
 10 11  1  0  0  0  0
 10 30  2  0  0  0  0
 11 12  2  0  0  0  0
 11 37  1  0  0  0  0
 12 13  1  0  0  0  0
 12 38  1  0  0  0  0
 13 14  1  0  0  0  0
 13 29  2  0  0  0  0
 14 15  1  0  0  0  0
 14 39  1  0  0  0  0
 15 16  2  0  0  0  0
 15 17  1  0  0  0  0
 17 18  1  0  0  0  0
 17 40  1  0  0  0  0
 18 19  1  0  0  0  0
 18 27  2  0  0  0  0
 19 20  2  0  0  0  0
 19 41  1  0  0  0  0
 20 21  1  0  0  0  0
 20 25  1  0  0  0  0
 21 22  1  0  0  0  0
 21 23  1  0  0  0  0
 21 24  1  0  0  0  0
 25 26  2  0  0  0  0
 25 42  1  0  0  0  0
 26 27  1  0  0  0  0
 26 43  1  0  0  0  0
 27 28  1  0  0  0  0
 29 30  1  0  0  0  0
 29 44  1  0  0  0  0
 30 45  1  0  0  0  0
M  END
$$$$
