CHEMBL3959495
 OpenBabel04072215373D

 61 64  0  0  1  0  0  0  0  0999 V2000
    2.7610    0.9246    0.1462 C   0  0  0  0  0  0  0  0  0  0  0  0
    2.5460   -0.2713   -0.6066 O   0  0  0  0  0  0  0  0  0  0  0  0
    3.2655   -1.3747   -0.2225 C   0  0  0  0  0  0  0  0  0  0  0  0
    4.4208   -1.2816    0.5646 C   0  0  0  0  0  0  0  0  0  0  0  0
    5.0565   -2.4330    1.0768 C   0  0  0  0  0  0  0  0  0  0  0  0
    6.0934   -2.4238    2.0276 C   0  0  0  0  0  0  0  0  0  0  0  0
    6.5070   -1.1805    2.5958 N   0  0  0  0  0  0  0  0  0  0  0  0
    7.6428   -0.9339    3.4019 C   0  0  0  0  0  0  0  0  0  0  0  0
    8.7983   -1.7190    3.3196 C   0  0  0  0  0  0  0  0  0  0  0  0
    9.9264   -1.4413    4.0975 C   0  0  0  0  0  0  0  0  0  0  0  0
    9.9333   -0.3408    4.9459 C   0  0  0  0  0  0  0  0  0  0  0  0
   11.3467   -0.0670    5.8986 Cl  0  0  0  0  0  0  0  0  0  0  0  0
    8.8169    0.5000    4.9950 C   0  0  0  0  0  0  0  0  0  0  0  0
    8.7696    1.9192    5.9801 Cl  0  0  0  0  0  0  0  0  0  0  0  0
    7.6819    0.2049    4.2205 C   0  0  0  0  0  0  0  0  0  0  0  0
    6.6661   -3.5634    2.4525 N   0  0  0  0  0  0  0  0  0  0  0  0
    6.2106   -4.7029    1.9293 C   0  0  0  0  0  0  0  0  0  0  0  0
    5.2215   -4.8241    1.0419 N   0  0  0  0  0  0  0  0  0  0  0  0
    4.6394   -3.6906    0.6375 C   0  0  0  0  0  0  0  0  0  0  0  0
    3.5547   -3.7705   -0.2267 C   0  0  0  0  0  0  0  0  0  0  0  0
    2.8069   -2.6424   -0.6145 C   0  0  0  0  0  0  0  0  0  0  0  0
    1.6237   -2.7355   -1.3408 O   0  0  0  0  0  0  0  0  0  0  0  0
    1.0309   -4.0483   -1.3401 C   0  0  0  0  0  0  0  0  0  0  0  0
   -0.4432   -4.0874   -1.7921 C   0  0  0  0  0  0  0  0  0  0  0  0
   -0.9864   -5.5333   -1.6402 C   0  0  3  0  0  0  0  0  0  0  0  0
   -2.4687   -5.7865   -2.0318 C   0  0  0  0  0  0  0  0  0  0  0  0
   -3.4903   -5.5481   -0.9859 N   0  0  0  0  0  0  0  0  0  0  0  0
   -4.7960   -6.0380   -1.4459 C   0  0  0  0  0  0  0  0  0  0  0  0
   -3.0766   -6.0976    0.3404 C   0  0  0  0  0  0  0  0  0  0  0  0
   -4.0099   -5.5589    1.4477 C   0  0  0  0  0  0  0  0  0  0  0  0
   -3.0827   -7.6427    0.4222 C   0  0  0  0  0  0  0  0  0  0  0  0
   -1.6441   -5.5888    0.6457 C   0  0  0  0  0  0  0  0  0  0  0  0
   -0.7047   -6.0557   -0.3300 O   0  0  0  0  0  0  0  0  0  0  0  0
    3.5554    1.5218   -0.3143 H   0  0  0  0  0  0  0  0  0  0  0  0
    2.9937    0.7364    1.2027 H   0  0  0  0  0  0  0  0  0  0  0  0
    1.8372    1.5063    0.1332 H   0  0  0  0  0  0  0  0  0  0  0  0
    4.8419   -0.3123    0.8134 H   0  0  0  0  0  0  0  0  0  0  0  0
    5.6870   -0.7011    2.9591 H   0  0  0  0  0  0  0  0  0  0  0  0
    8.8448   -2.5662    2.6409 H   0  0  0  0  0  0  0  0  0  0  0  0
   10.7899   -2.0975    4.0268 H   0  0  0  0  0  0  0  0  0  0  0  0
    6.8289    0.8783    4.2590 H   0  0  0  0  0  0  0  0  0  0  0  0
    6.6888   -5.6236    2.2694 H   0  0  0  0  0  0  0  0  0  0  0  0
    3.2775   -4.7689   -0.5530 H   0  0  0  0  0  0  0  0  0  0  0  0
    1.0736   -4.4464   -0.3221 H   0  0  0  0  0  0  0  0  0  0  0  0
    1.6119   -4.6904   -2.0147 H   0  0  0  0  0  0  0  0  0  0  0  0
   -0.5168   -3.7669   -2.8392 H   0  0  0  0  0  0  0  0  0  0  0  0
   -1.0271   -3.3691   -1.2088 H   0  0  0  0  0  0  0  0  0  0  0  0
   -0.3880   -6.1501   -2.3237 H   0  0  0  0  0  0  0  0  0  0  0  0
   -2.5360   -6.8390   -2.3404 H   0  0  0  0  0  0  0  0  0  0  0  0
   -2.7109   -5.1882   -2.9188 H   0  0  0  0  0  0  0  0  0  0  0  0
   -5.0583   -5.5923   -2.4114 H   0  0  0  0  0  0  0  0  0  0  0  0
   -5.5991   -5.7561   -0.7570 H   0  0  0  0  0  0  0  0  0  0  0  0
   -4.8223   -7.1270   -1.5747 H   0  0  0  0  0  0  0  0  0  0  0  0
   -5.0189   -5.9813    1.3775 H   0  0  0  0  0  0  0  0  0  0  0  0
   -4.0978   -4.4679    1.4013 H   0  0  0  0  0  0  0  0  0  0  0  0
   -3.6281   -5.8173    2.4422 H   0  0  0  0  0  0  0  0  0  0  0  0
   -4.0931   -8.0573    0.3402 H   0  0  0  0  0  0  0  0  0  0  0  0
   -2.6876   -7.9763    1.3902 H   0  0  0  0  0  0  0  0  0  0  0  0
   -2.4624   -8.1057   -0.3508 H   0  0  0  0  0  0  0  0  0  0  0  0
   -1.3036   -5.9651    1.6141 H   0  0  0  0  0  0  0  0  0  0  0  0
   -1.6106   -4.4938    0.7054 H   0  0  0  0  0  0  0  0  0  0  0  0
  1  2  1  0  0  0  0
  1 34  1  0  0  0  0
  1 35  1  0  0  0  0
  1 36  1  0  0  0  0
  2  3  1  0  0  0  0
  3  4  1  0  0  0  0
  3 21  2  0  0  0  0
  4  5  2  0  0  0  0
  4 37  1  0  0  0  0
  5  6  1  0  0  0  0
  5 19  1  0  0  0  0
  6  7  1  0  0  0  0
  6 16  2  0  0  0  0
  7  8  1  0  0  0  0
  7 38  1  0  0  0  0
  8  9  1  0  0  0  0
  8 15  2  0  0  0  0
  9 10  2  0  0  0  0
  9 39  1  0  0  0  0
 10 11  1  0  0  0  0
 10 40  1  0  0  0  0
 11 12  1  0  0  0  0
 11 13  2  0  0  0  0
 13 14  1  0  0  0  0
 13 15  1  0  0  0  0
 15 41  1  0  0  0  0
 16 17  1  0  0  0  0
 17 18  2  0  0  0  0
 17 42  1  0  0  0  0
 18 19  1  0  0  0  0
 19 20  2  0  0  0  0
 20 21  1  0  0  0  0
 20 43  1  0  0  0  0
 21 22  1  0  0  0  0
 22 23  1  0  0  0  0
 23 24  1  0  0  0  0
 23 44  1  0  0  0  0
 23 45  1  0  0  0  0
 24 25  1  0  0  0  0
 24 46  1  0  0  0  0
 24 47  1  0  0  0  0
 25 26  1  0  0  0  0
 25 33  1  0  0  0  0
 25 48  1  0  0  0  0
 26 27  1  0  0  0  0
 26 49  1  0  0  0  0
 26 50  1  0  0  0  0
 27 28  1  0  0  0  0
 27 29  1  0  0  0  0
 28 51  1  0  0  0  0
 28 52  1  0  0  0  0
 28 53  1  0  0  0  0
 29 30  1  0  0  0  0
 29 31  1  0  0  0  0
 29 32  1  0  0  0  0
 30 54  1  0  0  0  0
 30 55  1  0  0  0  0
 30 56  1  0  0  0  0
 31 57  1  0  0  0  0
 31 58  1  0  0  0  0
 31 59  1  0  0  0  0
 32 33  1  0  0  0  0
 32 60  1  0  0  0  0
 32 61  1  0  0  0  0
M  END
$$$$
