CHEMBL3690375
 OpenBabel04072215373D

 57 60  0  0  0  0  0  0  0  0999 V2000
    4.4000   -2.4562   -0.8368 C   0  0  0  0  0  0  0  0  0  0  0  0
    3.8461   -3.1186    0.4425 C   0  0  0  0  0  0  0  0  0  0  0  0
    2.3981   -3.5816    0.1738 C   0  0  0  0  0  0  0  0  0  0  0  0
    4.7201   -4.3583    0.7773 C   0  0  0  0  0  0  0  0  0  0  0  0
    4.7365   -5.3405   -0.2579 O   0  0  0  0  0  0  0  0  0  0  0  0
    3.8490   -2.1363    1.5491 N   0  0  0  0  0  0  0  0  0  0  0  0
    4.5246   -2.1893    2.7414 C   0  0  0  0  0  0  0  0  0  0  0  0
    4.2183   -1.0376    3.4412 C   0  0  0  0  0  0  0  0  0  0  0  0
    4.7549   -0.6431    4.7217 C   0  0  0  0  0  0  0  0  0  0  0  0
    5.8305   -1.4473    5.3240 C   0  0  0  0  0  0  0  0  0  0  0  0
    6.6232   -0.9297    6.2734 C   0  0  0  0  0  0  0  0  0  0  0  0
    6.1521    0.1682    6.9796 N   0  0  0  0  0  0  0  0  0  0  0  0
    6.4732    0.5945    8.2594 C   0  0  0  0  0  0  0  0  0  0  0  0
    7.3752   -0.0488    9.2335 C   0  0  0  0  0  0  0  0  0  0  0  0
    8.1260    0.7640   10.1018 C   0  0  0  0  0  0  0  0  0  0  0  0
    8.8818    0.1738   11.1079 C   0  0  0  0  0  0  0  0  0  0  0  0
    8.9341   -1.2183   11.2834 C   0  0  0  0  0  0  0  0  0  0  0  0
    8.1852   -2.0545   10.4467 C   0  0  0  0  0  0  0  0  0  0  0  0
    8.1296   -3.4558   10.6225 N   0  0  0  0  0  0  0  0  0  0  0  0
    8.7469   -4.1941   11.6113 C   0  0  0  0  0  0  0  0  0  0  0  0
    9.5445   -3.7950   12.4487 O   0  0  0  0  0  0  0  0  0  0  0  0
    8.3090   -5.5042   11.6346 N   0  0  0  0  0  0  0  0  0  0  0  0
    8.8511   -6.3997   12.6668 C   0  0  0  0  0  0  0  0  0  0  0  0
   10.2634   -6.9455   12.4103 C   0  0  0  0  0  0  0  0  0  0  0  0
   10.7091   -6.6399   11.1699 F   0  0  0  0  0  0  0  0  0  0  0  0
   11.1627   -6.4932   13.3074 F   0  0  0  0  0  0  0  0  0  0  0  0
   10.2538   -8.3001   12.4974 F   0  0  0  0  0  0  0  0  0  0  0  0
    7.4157   -1.4543    9.4202 C   0  0  0  0  0  0  0  0  0  0  0  0
    5.6367    1.6832    8.4560 C   0  0  0  0  0  0  0  0  0  0  0  0
    4.7667    1.8698    7.4121 N   0  0  0  0  0  0  0  0  0  0  0  0
    5.0397    0.9011    6.5678 C   0  0  0  0  0  0  0  0  0  0  0  0
    4.3922    0.5010    5.3577 C   0  0  0  0  0  0  0  0  0  0  0  0
    3.3484   -0.3455    2.5716 C   0  0  0  0  0  0  0  0  0  0  0  0
    3.1111   -1.0099    1.4373 N   0  0  0  0  0  0  0  0  0  0  0  0
    4.4109   -3.1562   -1.6797 H   0  0  0  0  0  0  0  0  0  0  0  0
    5.4252   -2.0999   -0.6834 H   0  0  0  0  0  0  0  0  0  0  0  0
    3.7956   -1.5940   -1.1411 H   0  0  0  0  0  0  0  0  0  0  0  0
    2.3466   -4.2902   -0.6599 H   0  0  0  0  0  0  0  0  0  0  0  0
    1.7443   -2.7408   -0.0850 H   0  0  0  0  0  0  0  0  0  0  0  0
    1.9717   -4.0690    1.0582 H   0  0  0  0  0  0  0  0  0  0  0  0
    4.3806   -4.8525    1.6952 H   0  0  0  0  0  0  0  0  0  0  0  0
    5.7625   -4.0576    0.9352 H   0  0  0  0  0  0  0  0  0  0  0  0
    3.8913   -5.8220   -0.2342 H   0  0  0  0  0  0  0  0  0  0  0  0
    5.1742   -3.0154    2.9867 H   0  0  0  0  0  0  0  0  0  0  0  0
    5.9457   -2.4876    5.0462 H   0  0  0  0  0  0  0  0  0  0  0  0
    7.5202   -1.4143    6.6312 H   0  0  0  0  0  0  0  0  0  0  0  0
    8.1003    1.8231   10.0259 H   0  0  0  0  0  0  0  0  0  0  0  0
    9.4340    0.8134   11.7921 H   0  0  0  0  0  0  0  0  0  0  0  0
    9.5252   -1.5980   12.1024 H   0  0  0  0  0  0  0  0  0  0  0  0
    7.4882   -3.9560   10.0277 H   0  0  0  0  0  0  0  0  0  0  0  0
    8.0519   -5.9227   10.7528 H   0  0  0  0  0  0  0  0  0  0  0  0
    8.1433   -7.2293   12.7613 H   0  0  0  0  0  0  0  0  0  0  0  0
    8.8450   -5.8637   13.6243 H   0  0  0  0  0  0  0  0  0  0  0  0
    6.7970   -2.1037    8.8023 H   0  0  0  0  0  0  0  0  0  0  0  0
    5.5600    2.3023    9.3435 H   0  0  0  0  0  0  0  0  0  0  0  0
    3.6248    1.1641    4.9740 H   0  0  0  0  0  0  0  0  0  0  0  0
    2.8832    0.6231    2.7012 H   0  0  0  0  0  0  0  0  0  0  0  0
  1  2  1  0  0  0  0
  1 35  1  0  0  0  0
  1 36  1  0  0  0  0
  1 37  1  0  0  0  0
  2  3  1  0  0  0  0
  2  4  1  0  0  0  0
  2  6  1  0  0  0  0
  3 38  1  0  0  0  0
  3 39  1  0  0  0  0
  3 40  1  0  0  0  0
  4  5  1  0  0  0  0
  4 41  1  0  0  0  0
  4 42  1  0  0  0  0
  5 43  1  0  0  0  0
  6  7  1  0  0  0  0
  6 34  1  0  0  0  0
  7  8  2  0  0  0  0
  7 44  1  0  0  0  0
  8  9  1  0  0  0  0
  8 33  1  0  0  0  0
  9 10  1  0  0  0  0
  9 32  2  0  0  0  0
 10 11  2  0  0  0  0
 10 45  1  0  0  0  0
 11 12  1  0  0  0  0
 11 46  1  0  0  0  0
 12 13  1  0  0  0  0
 12 31  1  0  0  0  0
 13 14  1  0  0  0  0
 13 29  2  0  0  0  0
 14 15  1  0  0  0  0
 14 28  2  0  0  0  0
 15 16  2  0  0  0  0
 15 47  1  0  0  0  0
 16 17  1  0  0  0  0
 16 48  1  0  0  0  0
 17 18  2  0  0  0  0
 17 49  1  0  0  0  0
 18 19  1  0  0  0  0
 18 28  1  0  0  0  0
 19 20  1  0  0  0  0
 19 50  1  0  0  0  0
 20 21  2  0  0  0  0
 20 22  1  0  0  0  0
 22 23  1  0  0  0  0
 22 51  1  0  0  0  0
 23 24  1  0  0  0  0
 23 52  1  0  0  0  0
 23 53  1  0  0  0  0
 24 25  1  0  0  0  0
 24 26  1  0  0  0  0
 24 27  1  0  0  0  0
 28 54  1  0  0  0  0
 29 30  1  0  0  0  0
 29 55  1  0  0  0  0
 30 31  2  0  0  0  0
 31 32  1  0  0  0  0
 32 56  1  0  0  0  0
 33 34  2  0  0  0  0
 33 57  1  0  0  0  0
M  END
$$$$
