CHEMBL297856
 OpenBabel04072215363D

 38 41  0  0  0  0  0  0  0  0999 V2000
   -6.8859    4.7964   -2.5160 C   0  0  0  0  0  0  0  0  0  0  0  0
   -6.8947    4.6233   -1.1333 C   0  0  0  0  0  0  0  0  0  0  0  0
   -6.1452    3.5971   -0.5485 C   0  0  0  0  0  0  0  0  0  0  0  0
   -5.3771    2.7312   -1.3379 C   0  0  0  0  0  0  0  0  0  0  0  0
   -4.5207    1.7197   -0.6880 C   0  0  0  0  0  0  0  0  0  0  0  0
   -4.8426    1.0961    0.4391 N   0  0  0  0  0  0  0  0  0  0  0  0
   -3.8879    0.1422    0.6436 C   0  0  0  0  0  0  0  0  0  0  0  0
   -2.9590    0.1642   -0.3633 C   0  0  0  0  0  0  0  0  0  0  0  0
   -3.2980    1.2365   -1.1647 N   0  0  0  0  0  0  0  0  0  0  0  0
   -2.5153    1.7379   -2.2428 C   0  0  0  0  0  0  0  0  0  0  0  0
   -1.7538    0.8530   -2.9787 C   0  0  0  0  0  0  0  0  0  0  0  0
   -1.1343    1.3889   -4.0751 C   0  0  0  0  0  0  0  0  0  0  0  0
   -1.2127    2.6849   -4.4004 N   0  0  0  0  0  0  0  0  0  0  0  0
   -1.8916    3.5007   -3.5797 C   0  0  0  0  0  0  0  0  0  0  0  0
   -1.9446    4.8641   -3.8597 N   0  0  0  0  0  0  0  0  0  0  0  0
   -0.8296    5.5757   -4.3260 C   0  0  0  0  0  0  0  0  0  0  0  0
   -1.0268    6.7476   -5.0492 C   0  0  0  0  0  0  0  0  0  0  0  0
    0.0763    7.3945   -5.6092 C   0  0  0  0  0  0  0  0  0  0  0  0
    1.3502    6.8776   -5.3991 C   0  0  0  0  0  0  0  0  0  0  0  0
    1.4661    5.7437   -4.6178 C   0  0  0  0  0  0  0  0  0  0  0  0
    0.4134    5.1040   -4.0815 N   0  0  0  0  0  0  0  0  0  0  0  0
   -2.5834    3.0596   -2.5236 N   0  0  0  0  0  0  0  0  0  0  0  0
   -5.4679    2.8584   -2.7332 C   0  0  0  0  0  0  0  0  0  0  0  0
   -6.1818    3.9059   -3.3185 C   0  0  0  0  0  0  0  0  0  0  0  0
   -7.4351    5.6172   -2.9688 H   0  0  0  0  0  0  0  0  0  0  0  0
   -7.4735    5.2952   -0.5056 H   0  0  0  0  0  0  0  0  0  0  0  0
   -6.1510    3.4813    0.5339 H   0  0  0  0  0  0  0  0  0  0  0  0
   -3.9141   -0.5099    1.5075 H   0  0  0  0  0  0  0  0  0  0  0  0
   -2.0599   -0.4159   -0.5116 H   0  0  0  0  0  0  0  0  0  0  0  0
   -1.6976   -0.2079   -2.7850 H   0  0  0  0  0  0  0  0  0  0  0  0
   -0.5489    0.7806   -4.7563 H   0  0  0  0  0  0  0  0  0  0  0  0
   -2.4229    5.3395   -3.1051 H   0  0  0  0  0  0  0  0  0  0  0  0
   -2.0289    7.1199   -5.2341 H   0  0  0  0  0  0  0  0  0  0  0  0
   -0.0587    8.2788   -6.2219 H   0  0  0  0  0  0  0  0  0  0  0  0
    2.2277    7.3365   -5.8379 H   0  0  0  0  0  0  0  0  0  0  0  0
    2.4308    5.2910   -4.4147 H   0  0  0  0  0  0  0  0  0  0  0  0
   -4.9504    2.1672   -3.3927 H   0  0  0  0  0  0  0  0  0  0  0  0
   -6.1734    4.0257   -4.3987 H   0  0  0  0  0  0  0  0  0  0  0  0
  1  2  1  0  0  0  0
  1 24  2  0  0  0  0
  1 25  1  0  0  0  0
  2  3  2  0  0  0  0
  2 26  1  0  0  0  0
  3  4  1  0  0  0  0
  3 27  1  0  0  0  0
  4  5  1  0  0  0  0
  4 23  2  0  0  0  0
  5  6  2  0  0  0  0
  5  9  1  0  0  0  0
  6  7  1  0  0  0  0
  7  8  2  0  0  0  0
  7 28  1  0  0  0  0
  8  9  1  0  0  0  0
  8 29  1  0  0  0  0
  9 10  1  0  0  0  0
 10 11  1  0  0  0  0
 10 22  2  0  0  0  0
 11 12  2  0  0  0  0
 11 30  1  0  0  0  0
 12 13  1  0  0  0  0
 12 31  1  0  0  0  0
 13 14  2  0  0  0  0
 14 15  1  0  0  0  0
 14 22  1  0  0  0  0
 15 16  1  0  0  0  0
 15 32  1  0  0  0  0
 16 17  1  0  0  0  0
 16 21  2  0  0  0  0
 17 18  2  0  0  0  0
 17 33  1  0  0  0  0
 18 19  1  0  0  0  0
 18 34  1  0  0  0  0
 19 20  2  0  0  0  0
 19 35  1  0  0  0  0
 20 21  1  0  0  0  0
 20 36  1  0  0  0  0
 23 24  1  0  0  0  0
 23 37  1  0  0  0  0
 24 38  1  0  0  0  0
M  END
$$$$
