CHEMBL378592
 OpenBabel04072215373D

 51 54  0  0  0  0  0  0  0  0999 V2000
    9.8354   -4.1724    1.3366 C   0  0  0  0  0  0  0  0  0  0  0  0
    9.2159   -2.9199    1.0662 O   0  0  0  0  0  0  0  0  0  0  0  0
    8.2531   -2.5017    1.9453 C   0  0  0  0  0  0  0  0  0  0  0  0
    8.1930   -2.9508    3.2663 C   0  0  0  0  0  0  0  0  0  0  0  0
    7.2338   -2.4461    4.1474 C   0  0  0  0  0  0  0  0  0  0  0  0
    6.3136   -1.4721    3.7439 C   0  0  0  0  0  0  0  0  0  0  0  0
    5.3143   -0.9794    4.6005 N   0  0  0  0  0  0  0  0  0  0  0  0
    4.8543   -1.5941    5.6984 C   0  0  0  0  0  0  0  0  0  0  0  0
    4.3744   -1.1092    6.8264 N   0  0  0  0  0  0  0  0  0  0  0  0
    3.9783   -2.1985    7.5870 N   0  0  0  0  0  0  0  0  0  0  0  0
    4.1623   -3.2673    6.8349 C   0  0  0  0  0  0  0  0  0  0  0  0
    3.7412   -4.5828    7.1556 C   0  0  0  0  0  0  0  0  0  0  0  0
    3.3720   -5.6079    6.3166 C   0  0  0  0  0  0  0  0  0  0  0  0
    3.3735   -5.5793    4.9701 N   0  0  0  0  0  0  0  0  0  0  0  0
    2.4316   -6.3730    4.2063 C   0  0  0  0  0  0  0  0  0  0  0  0
    2.0810   -5.6415    2.9292 C   0  0  0  0  0  0  0  0  0  0  0  0
    2.8061   -5.8571    1.7529 C   0  0  0  0  0  0  0  0  0  0  0  0
    2.4521   -5.1509    0.6129 C   0  0  0  0  0  0  0  0  0  0  0  0
    1.4491   -4.2493    0.5669 N   0  0  0  0  0  0  0  0  0  0  0  0
    0.7703   -4.0431    1.7151 C   0  0  0  0  0  0  0  0  0  0  0  0
    1.0464   -4.6993    2.9055 C   0  0  0  0  0  0  0  0  0  0  0  0
    2.9419   -6.6993    7.0103 N   0  0  0  0  0  0  0  0  0  0  0  0
    3.0919   -6.3692    8.2725 C   0  0  0  0  0  0  0  0  0  0  0  0
    3.5537   -5.0899    8.4144 N   0  0  0  0  0  0  0  0  0  0  0  0
    3.8138   -4.4245    9.6673 C   0  0  0  0  0  0  0  0  0  0  0  0
    4.7434   -2.9530    5.6409 O   0  0  0  0  0  0  0  0  0  0  0  0
    6.3841   -1.0215    2.4230 C   0  0  0  0  0  0  0  0  0  0  0  0
    7.3337   -1.5271    1.5239 C   0  0  0  0  0  0  0  0  0  0  0  0
    7.2661   -0.9458    0.2822 O   0  0  0  0  0  0  0  0  0  0  0  0
    7.5822   -1.7835   -0.8230 C   0  0  0  0  0  0  0  0  0  0  0  0
   10.4967   -4.4043    0.4967 H   0  0  0  0  0  0  0  0  0  0  0  0
    9.0907   -4.9727    1.4102 H   0  0  0  0  0  0  0  0  0  0  0  0
   10.4576   -4.1263    2.2357 H   0  0  0  0  0  0  0  0  0  0  0  0
    8.8951   -3.6768    3.6610 H   0  0  0  0  0  0  0  0  0  0  0  0
    7.2488   -2.8050    5.1744 H   0  0  0  0  0  0  0  0  0  0  0  0
    4.8753   -0.1106    4.3316 H   0  0  0  0  0  0  0  0  0  0  0  0
    3.7855   -4.7992    4.4671 H   0  0  0  0  0  0  0  0  0  0  0  0
    1.5053   -6.5651    4.7641 H   0  0  0  0  0  0  0  0  0  0  0  0
    2.8700   -7.3481    3.9681 H   0  0  0  0  0  0  0  0  0  0  0  0
    3.6278   -6.5639    1.7195 H   0  0  0  0  0  0  0  0  0  0  0  0
    2.9871   -5.2948   -0.3222 H   0  0  0  0  0  0  0  0  0  0  0  0
   -0.0302   -3.3113    1.6512 H   0  0  0  0  0  0  0  0  0  0  0  0
    0.4641   -4.4792    3.7951 H   0  0  0  0  0  0  0  0  0  0  0  0
    2.8709   -7.0099    9.1210 H   0  0  0  0  0  0  0  0  0  0  0  0
    3.6755   -5.1287   10.4910 H   0  0  0  0  0  0  0  0  0  0  0  0
    3.1119   -3.5937    9.7723 H   0  0  0  0  0  0  0  0  0  0  0  0
    4.8462   -4.0640    9.6662 H   0  0  0  0  0  0  0  0  0  0  0  0
    5.6858   -0.2653    2.0686 H   0  0  0  0  0  0  0  0  0  0  0  0
    7.1375   -1.3331   -1.7158 H   0  0  0  0  0  0  0  0  0  0  0  0
    7.1590   -2.7887   -0.7155 H   0  0  0  0  0  0  0  0  0  0  0  0
    8.6626   -1.8176   -0.9863 H   0  0  0  0  0  0  0  0  0  0  0  0
  1  2  1  0  0  0  0
  1 31  1  0  0  0  0
  1 32  1  0  0  0  0
  1 33  1  0  0  0  0
  2  3  1  0  0  0  0
  3  4  1  0  0  0  0
  3 28  2  0  0  0  0
  4  5  2  0  0  0  0
  4 34  1  0  0  0  0
  5  6  1  0  0  0  0
  5 35  1  0  0  0  0
  6  7  1  0  0  0  0
  6 27  2  0  0  0  0
  7  8  1  0  0  0  0
  7 36  1  0  0  0  0
  8  9  2  0  0  0  0
  8 26  1  0  0  0  0
  9 10  1  0  0  0  0
 10 11  2  0  0  0  0
 11 12  1  0  0  0  0
 11 26  1  0  0  0  0
 12 13  2  0  0  0  0
 12 24  1  0  0  0  0
 13 14  1  0  0  0  0
 13 22  1  0  0  0  0
 14 15  1  0  0  0  0
 14 37  1  0  0  0  0
 15 16  1  0  0  0  0
 15 38  1  0  0  0  0
 15 39  1  0  0  0  0
 16 17  1  0  0  0  0
 16 21  2  0  0  0  0
 17 18  2  0  0  0  0
 17 40  1  0  0  0  0
 18 19  1  0  0  0  0
 18 41  1  0  0  0  0
 19 20  2  0  0  0  0
 20 21  1  0  0  0  0
 20 42  1  0  0  0  0
 21 43  1  0  0  0  0
 22 23  2  0  0  0  0
 23 24  1  0  0  0  0
 23 44  1  0  0  0  0
 24 25  1  0  0  0  0
 25 45  1  0  0  0  0
 25 46  1  0  0  0  0
 25 47  1  0  0  0  0
 27 28  1  0  0  0  0
 27 48  1  0  0  0  0
 28 29  1  0  0  0  0
 29 30  1  0  0  0  0
 30 49  1  0  0  0  0
 30 50  1  0  0  0  0
 30 51  1  0  0  0  0
M  END
$$$$
