CHEMBL202721
 OpenBabel04072215363D

 69 73  0  0  0  0  0  0  0  0999 V2000
    2.4182    0.0072    1.2040 C   0  0  0  0  0  0  0  0  0  0  0  0
    2.5133    0.2921   -0.1892 O   0  0  0  0  0  0  0  0  0  0  0  0
    3.1746   -0.5798   -1.0030 C   0  0  0  0  0  0  0  0  0  0  0  0
    4.2281   -1.3676   -0.5535 C   0  0  0  0  0  0  0  0  0  0  0  0
    4.8509   -2.3165   -1.3924 C   0  0  0  0  0  0  0  0  0  0  0  0
    5.8297   -3.2190   -0.9550 C   0  0  0  0  0  0  0  0  0  0  0  0
    6.2004   -3.2138    0.4165 N   0  0  0  0  0  0  0  0  0  0  0  0
    6.8550   -4.2578    1.0956 C   0  0  0  0  0  0  0  0  0  0  0  0
    7.7709   -3.9596    2.1007 C   0  0  0  0  0  0  0  0  0  0  0  0
    8.4873   -4.9799    2.7317 C   0  0  0  0  0  0  0  0  0  0  0  0
    8.2858   -6.3224    2.3978 C   0  0  0  0  0  0  0  0  0  0  0  0
    9.0586   -7.3892    2.9228 N   0  0  0  0  0  0  0  0  0  0  0  0
   10.1096   -7.2502    3.8124 C   0  0  0  0  0  0  0  0  0  0  0  0
   10.4416   -6.2043    4.3639 O   0  0  0  0  0  0  0  0  0  0  0  0
   10.9152   -8.4617    4.1462 C   0  0  0  0  0  0  0  0  0  0  0  0
   11.0407   -9.5765    3.3144 C   0  0  0  0  0  0  0  0  0  0  0  0
   11.9143  -10.6131    3.6768 C   0  0  0  0  0  0  0  0  0  0  0  0
   12.6633  -10.5324    4.8532 C   0  0  0  0  0  0  0  0  0  0  0  0
   12.5344   -9.4258    5.6864 C   0  0  0  0  0  0  0  0  0  0  0  0
   11.6670   -8.3997    5.3379 C   0  0  0  0  0  0  0  0  0  0  0  0
    7.2895   -6.6286    1.4684 C   0  0  0  0  0  0  0  0  0  0  0  0
    6.5764   -5.6042    0.8340 C   0  0  0  0  0  0  0  0  0  0  0  0
    6.3991   -4.1082   -1.7867 N   0  0  0  0  0  0  0  0  0  0  0  0
    5.9850   -4.0961   -3.0555 C   0  0  0  0  0  0  0  0  0  0  0  0
    5.0399   -3.3014   -3.5693 N   0  0  0  0  0  0  0  0  0  0  0  0
    4.4703   -2.4263   -2.7309 C   0  0  0  0  0  0  0  0  0  0  0  0
    3.4676   -1.5878   -3.1920 C   0  0  0  0  0  0  0  0  0  0  0  0
    2.8332   -0.6526   -2.3585 C   0  0  0  0  0  0  0  0  0  0  0  0
    1.9029    0.1131   -3.0134 O   0  0  0  0  0  0  0  0  0  0  0  0
    1.7718    1.4791   -2.6159 C   0  0  0  0  0  0  0  0  0  0  0  0
    3.0739    2.2873   -2.6744 C   0  0  0  0  0  0  0  0  0  0  0  0
    3.6187    2.3693   -4.1049 C   0  0  0  0  0  0  0  0  0  0  0  0
    4.8943    3.1027   -4.2141 N   0  0  0  0  0  0  0  0  0  0  0  0
    4.8259    4.5037   -3.7451 C   0  0  0  0  0  0  0  0  0  0  0  0
    3.9670    5.4020   -4.6465 C   0  0  0  0  0  0  0  0  0  0  0  0
    4.4721    5.4112   -5.9878 O   0  0  0  0  0  0  0  0  0  0  0  0
    4.5380    4.0831   -6.5254 C   0  0  0  0  0  0  0  0  0  0  0  0
    5.3538    3.1336   -5.6250 C   0  0  0  0  0  0  0  0  0  0  0  0
    2.6732    0.9197    1.7505 H   0  0  0  0  0  0  0  0  0  0  0  0
    3.0537   -0.7977    1.5781 H   0  0  0  0  0  0  0  0  0  0  0  0
    1.3832   -0.2582    1.4364 H   0  0  0  0  0  0  0  0  0  0  0  0
    4.5967   -1.2580    0.4591 H   0  0  0  0  0  0  0  0  0  0  0  0
    6.5699   -2.3015    0.6625 H   0  0  0  0  0  0  0  0  0  0  0  0
    7.9781   -2.9309    2.3832 H   0  0  0  0  0  0  0  0  0  0  0  0
    9.2176   -4.6708    3.4702 H   0  0  0  0  0  0  0  0  0  0  0  0
    8.8229   -8.3146    2.5944 H   0  0  0  0  0  0  0  0  0  0  0  0
   10.5137   -9.6532    2.3705 H   0  0  0  0  0  0  0  0  0  0  0  0
   12.0357  -11.4777    3.0276 H   0  0  0  0  0  0  0  0  0  0  0  0
   13.3607  -11.3242    5.1162 H   0  0  0  0  0  0  0  0  0  0  0  0
   13.1211   -9.3458    6.5975 H   0  0  0  0  0  0  0  0  0  0  0  0
   11.5868   -7.5268    5.9827 H   0  0  0  0  0  0  0  0  0  0  0  0
    7.0628   -7.6557    1.1985 H   0  0  0  0  0  0  0  0  0  0  0  0
    5.8108   -5.8659    0.1075 H   0  0  0  0  0  0  0  0  0  0  0  0
    6.4599   -4.7990   -3.7295 H   0  0  0  0  0  0  0  0  0  0  0  0
    3.1731   -1.6514   -4.2378 H   0  0  0  0  0  0  0  0  0  0  0  0
    1.2817    1.5567   -1.6413 H   0  0  0  0  0  0  0  0  0  0  0  0
    1.0600    1.9292   -3.3193 H   0  0  0  0  0  0  0  0  0  0  0  0
    3.8443    1.8553   -2.0275 H   0  0  0  0  0  0  0  0  0  0  0  0
    2.8510    3.2855   -2.2856 H   0  0  0  0  0  0  0  0  0  0  0  0
    2.8452    2.8023   -4.7484 H   0  0  0  0  0  0  0  0  0  0  0  0
    3.7889    1.3485   -4.4687 H   0  0  0  0  0  0  0  0  0  0  0  0
    5.8511    4.8979   -3.7389 H   0  0  0  0  0  0  0  0  0  0  0  0
    4.4905    4.5638   -2.7056 H   0  0  0  0  0  0  0  0  0  0  0  0
    3.9962    6.4312   -4.2753 H   0  0  0  0  0  0  0  0  0  0  0  0
    2.9164    5.0893   -4.6541 H   0  0  0  0  0  0  0  0  0  0  0  0
    5.0144    4.1532   -7.5084 H   0  0  0  0  0  0  0  0  0  0  0  0
    3.5193    3.7128   -6.6854 H   0  0  0  0  0  0  0  0  0  0  0  0
    6.3988    3.4701   -5.6233 H   0  0  0  0  0  0  0  0  0  0  0  0
    5.3618    2.1230   -6.0503 H   0  0  0  0  0  0  0  0  0  0  0  0
  1  2  1  0  0  0  0
  1 39  1  0  0  0  0
  1 40  1  0  0  0  0
  1 41  1  0  0  0  0
  2  3  1  0  0  0  0
  3  4  1  0  0  0  0
  3 28  2  0  0  0  0
  4  5  2  0  0  0  0
  4 42  1  0  0  0  0
  5  6  1  0  0  0  0
  5 26  1  0  0  0  0
  6  7  1  0  0  0  0
  6 23  2  0  0  0  0
  7  8  1  0  0  0  0
  7 43  1  0  0  0  0
  8  9  1  0  0  0  0
  8 22  2  0  0  0  0
  9 10  2  0  0  0  0
  9 44  1  0  0  0  0
 10 11  1  0  0  0  0
 10 45  1  0  0  0  0
 11 12  1  0  0  0  0
 11 21  2  0  0  0  0
 12 13  1  0  0  0  0
 12 46  1  0  0  0  0
 13 14  2  0  0  0  0
 13 15  1  0  0  0  0
 15 16  1  0  0  0  0
 15 20  2  0  0  0  0
 16 17  2  0  0  0  0
 16 47  1  0  0  0  0
 17 18  1  0  0  0  0
 17 48  1  0  0  0  0
 18 19  2  0  0  0  0
 18 49  1  0  0  0  0
 19 20  1  0  0  0  0
 19 50  1  0  0  0  0
 20 51  1  0  0  0  0
 21 22  1  0  0  0  0
 21 52  1  0  0  0  0
 22 53  1  0  0  0  0
 23 24  1  0  0  0  0
 24 25  2  0  0  0  0
 24 54  1  0  0  0  0
 25 26  1  0  0  0  0
 26 27  2  0  0  0  0
 27 28  1  0  0  0  0
 27 55  1  0  0  0  0
 28 29  1  0  0  0  0
 29 30  1  0  0  0  0
 30 31  1  0  0  0  0
 30 56  1  0  0  0  0
 30 57  1  0  0  0  0
 31 32  1  0  0  0  0
 31 58  1  0  0  0  0
 31 59  1  0  0  0  0
 32 33  1  0  0  0  0
 32 60  1  0  0  0  0
 32 61  1  0  0  0  0
 33 34  1  0  0  0  0
 33 38  1  0  0  0  0
 34 35  1  0  0  0  0
 34 62  1  0  0  0  0
 34 63  1  0  0  0  0
 35 36  1  0  0  0  0
 35 64  1  0  0  0  0
 35 65  1  0  0  0  0
 36 37  1  0  0  0  0
 37 38  1  0  0  0  0
 37 66  1  0  0  0  0
 37 67  1  0  0  0  0
 38 68  1  0  0  0  0
 38 69  1  0  0  0  0
M  END
$$$$
