CHEMBL271760
 OpenBabel04072215363D

 70 74  0  0  0  0  0  0  0  0999 V2000
    2.5625    0.3205    0.0544 C   0  0  0  0  0  0  0  0  0  0  0  0
    1.0726    0.1209    0.0739 C   0  0  0  0  0  0  0  0  0  0  0  0
    0.2814    1.2389    0.3891 C   0  0  0  0  0  0  0  0  0  0  0  0
   -1.1158    1.1839    0.3520 C   0  0  0  0  0  0  0  0  0  0  0  0
   -1.7722    0.0118   -0.0072 C   0  0  0  0  0  0  0  0  0  0  0  0
   -3.1807   -0.0915   -0.1160 N   0  0  0  0  0  0  0  0  0  0  0  0
   -4.1112    0.8222    0.3624 C   0  0  0  0  0  0  0  0  0  0  0  0
   -3.8602    1.8243    1.0252 O   0  0  0  0  0  0  0  0  0  0  0  0
   -5.5443    0.4998    0.1025 C   0  0  0  0  0  0  0  0  0  0  0  0
   -6.4959    0.8945    1.0552 C   0  0  0  0  0  0  0  0  0  0  0  0
   -7.8492    0.6081    0.8655 C   0  0  0  0  0  0  0  0  0  0  0  0
   -8.2632   -0.0568   -0.2867 C   0  0  0  0  0  0  0  0  0  0  0  0
   -7.3278   -0.4235   -1.2553 C   0  0  0  0  0  0  0  0  0  0  0  0
   -5.9691   -0.1451   -1.0657 C   0  0  0  0  0  0  0  0  0  0  0  0
   -0.9974   -1.1179   -0.2976 C   0  0  0  0  0  0  0  0  0  0  0  0
    0.4173   -1.0881   -0.2328 C   0  0  0  0  0  0  0  0  0  0  0  0
    1.1000   -2.3829   -0.5561 C   0  0  0  0  0  0  0  0  0  0  0  0
    0.5792   -3.1132   -1.3942 O   0  0  0  0  0  0  0  0  0  0  0  0
    2.2398   -2.6895    0.1650 N   0  0  0  0  0  0  0  0  0  0  0  0
    2.9996   -3.8797    0.0556 C   0  0  0  0  0  0  0  0  0  0  0  0
    2.6998   -4.9595   -0.7438 C   0  0  0  0  0  0  0  0  0  0  0  0
    3.4446   -6.0845   -0.7850 N   0  0  0  0  0  0  0  0  0  0  0  0
    4.5336   -6.1585   -0.0016 C   0  0  0  0  0  0  0  0  0  0  0  0
    5.2964   -7.3271   -0.0032 N   0  0  0  0  0  0  0  0  0  0  0  0
    5.4598   -8.2121   -1.0786 C   0  0  0  0  0  0  0  0  0  0  0  0
    5.3433   -7.7825   -2.4021 C   0  0  0  0  0  0  0  0  0  0  0  0
    5.4011   -8.6893   -3.4551 C   0  0  0  0  0  0  0  0  0  0  0  0
    5.5641  -10.0587   -3.2417 C   0  0  0  0  0  0  0  0  0  0  0  0
    5.5938  -10.9138   -4.3266 N   0  0  0  0  0  0  0  0  0  0  0  0
    6.2398  -12.2284   -4.2786 C   0  0  0  0  0  0  0  0  0  0  0  0
    6.7660  -12.5707   -5.6959 C   0  0  0  0  0  0  0  0  0  0  0  0
    5.7023  -12.5331   -6.7314 N   0  0  0  0  0  0  0  0  0  0  0  0
    6.2609  -12.8040   -8.0513 C   0  0  0  0  0  0  0  0  0  0  0  0
    5.0500  -11.2007   -6.7099 C   0  0  0  0  0  0  0  0  0  0  0  0
    4.4984  -10.8360   -5.3143 C   0  0  0  0  0  0  0  0  0  0  0  0
    5.7425  -10.4813   -1.9168 C   0  0  0  0  0  0  0  0  0  0  0  0
    5.6952   -9.5680   -0.8492 C   0  0  0  0  0  0  0  0  0  0  0  0
    4.9170   -5.1659    0.8145 N   0  0  0  0  0  0  0  0  0  0  0  0
    4.1469   -4.0503    0.8082 C   0  0  0  0  0  0  0  0  0  0  0  0
    2.8159    1.3871    0.0216 H   0  0  0  0  0  0  0  0  0  0  0  0
    3.0087   -0.1328   -0.8355 H   0  0  0  0  0  0  0  0  0  0  0  0
    3.0230   -0.0844    0.9598 H   0  0  0  0  0  0  0  0  0  0  0  0
    0.7468    2.1909    0.6425 H   0  0  0  0  0  0  0  0  0  0  0  0
   -1.6612    2.0963    0.5765 H   0  0  0  0  0  0  0  0  0  0  0  0
   -3.5365   -0.9608   -0.4932 H   0  0  0  0  0  0  0  0  0  0  0  0
   -6.1833    1.4282    1.9511 H   0  0  0  0  0  0  0  0  0  0  0  0
   -8.5784    0.9089    1.6145 H   0  0  0  0  0  0  0  0  0  0  0  0
   -9.3178   -0.2777   -0.4359 H   0  0  0  0  0  0  0  0  0  0  0  0
   -7.6606   -0.9171   -2.1651 H   0  0  0  0  0  0  0  0  0  0  0  0
   -5.2660   -0.4077   -1.8513 H   0  0  0  0  0  0  0  0  0  0  0  0
   -1.4884   -2.0520   -0.5667 H   0  0  0  0  0  0  0  0  0  0  0  0
    2.5318   -2.0461    0.8860 H   0  0  0  0  0  0  0  0  0  0  0  0
    1.8296   -4.9986   -1.3889 H   0  0  0  0  0  0  0  0  0  0  0  0
    6.0600   -7.2758    0.6532 H   0  0  0  0  0  0  0  0  0  0  0  0
    5.2017   -6.7307   -2.6354 H   0  0  0  0  0  0  0  0  0  0  0  0
    5.3345   -8.2994   -4.4695 H   0  0  0  0  0  0  0  0  0  0  0  0
    5.5295  -12.9941   -3.9392 H   0  0  0  0  0  0  0  0  0  0  0  0
    7.0951  -12.2281   -3.5934 H   0  0  0  0  0  0  0  0  0  0  0  0
    7.2196  -13.5662   -5.6683 H   0  0  0  0  0  0  0  0  0  0  0  0
    7.5587  -11.8522   -5.9506 H   0  0  0  0  0  0  0  0  0  0  0  0
    6.7165  -13.7986   -8.0745 H   0  0  0  0  0  0  0  0  0  0  0  0
    7.0184  -12.0681   -8.3437 H   0  0  0  0  0  0  0  0  0  0  0  0
    5.4677  -12.8007   -8.8073 H   0  0  0  0  0  0  0  0  0  0  0  0
    4.2202  -11.1845   -7.4271 H   0  0  0  0  0  0  0  0  0  0  0  0
    5.7644  -10.4236   -7.0163 H   0  0  0  0  0  0  0  0  0  0  0  0
    3.6976  -11.5317   -5.0325 H   0  0  0  0  0  0  0  0  0  0  0  0
    4.0443   -9.8410   -5.3738 H   0  0  0  0  0  0  0  0  0  0  0  0
    5.8681  -11.5309   -1.6852 H   0  0  0  0  0  0  0  0  0  0  0  0
    5.7833   -9.9457    0.1667 H   0  0  0  0  0  0  0  0  0  0  0  0
    4.5164   -3.2642    1.4594 H   0  0  0  0  0  0  0  0  0  0  0  0
  1  2  1  0  0  0  0
  1 40  1  0  0  0  0
  1 41  1  0  0  0  0
  1 42  1  0  0  0  0
  2  3  1  0  0  0  0
  2 16  2  0  0  0  0
  3  4  2  0  0  0  0
  3 43  1  0  0  0  0
  4  5  1  0  0  0  0
  4 44  1  0  0  0  0
  5  6  1  0  0  0  0
  5 15  2  0  0  0  0
  6  7  1  0  0  0  0
  6 45  1  0  0  0  0
  7  8  2  0  0  0  0
  7  9  1  0  0  0  0
  9 10  1  0  0  0  0
  9 14  2  0  0  0  0
 10 11  2  0  0  0  0
 10 46  1  0  0  0  0
 11 12  1  0  0  0  0
 11 47  1  0  0  0  0
 12 13  2  0  0  0  0
 12 48  1  0  0  0  0
 13 14  1  0  0  0  0
 13 49  1  0  0  0  0
 14 50  1  0  0  0  0
 15 16  1  0  0  0  0
 15 51  1  0  0  0  0
 16 17  1  0  0  0  0
 17 18  2  0  0  0  0
 17 19  1  0  0  0  0
 19 20  1  0  0  0  0
 19 52  1  0  0  0  0
 20 21  1  0  0  0  0
 20 39  2  0  0  0  0
 21 22  2  0  0  0  0
 21 53  1  0  0  0  0
 22 23  1  0  0  0  0
 23 24  1  0  0  0  0
 23 38  2  0  0  0  0
 24 25  1  0  0  0  0
 24 54  1  0  0  0  0
 25 26  1  0  0  0  0
 25 37  2  0  0  0  0
 26 27  2  0  0  0  0
 26 55  1  0  0  0  0
 27 28  1  0  0  0  0
 27 56  1  0  0  0  0
 28 29  1  0  0  0  0
 28 36  2  0  0  0  0
 29 30  1  0  0  0  0
 29 35  1  0  0  0  0
 30 31  1  0  0  0  0
 30 57  1  0  0  0  0
 30 58  1  0  0  0  0
 31 32  1  0  0  0  0
 31 59  1  0  0  0  0
 31 60  1  0  0  0  0
 32 33  1  0  0  0  0
 32 34  1  0  0  0  0
 33 61  1  0  0  0  0
 33 62  1  0  0  0  0
 33 63  1  0  0  0  0
 34 35  1  0  0  0  0
 34 64  1  0  0  0  0
 34 65  1  0  0  0  0
 35 66  1  0  0  0  0
 35 67  1  0  0  0  0
 36 37  1  0  0  0  0
 36 68  1  0  0  0  0
 37 69  1  0  0  0  0
 38 39  1  0  0  0  0
 39 70  1  0  0  0  0
M  END
$$$$
