CHEMBL2001613
 OpenBabel04072215363D

 16 17  0  0  0  0  0  0  0  0999 V2000
    1.1007   -0.0529   -0.0347 O   0  0  0  0  0  0  0  0  0  0  0  0
    2.3166   -0.0302   -0.0372 C   0  0  0  0  0  0  0  0  0  0  0  0
    3.1519    1.0724   -0.0161 N   0  0  0  0  0  0  0  0  0  0  0  0
    4.5081    0.7254   -0.2628 N   0  0  0  0  0  0  0  0  0  0  0  0
    4.4892   -0.6809   -0.1375 C   0  0  0  0  0  0  0  0  0  0  0  0
    5.5705   -1.5400   -0.1437 C   0  0  0  0  0  0  0  0  0  0  0  0
    5.3180   -2.9177   -0.0853 C   0  0  0  0  0  0  0  0  0  0  0  0
    3.9973   -3.4087   -0.0428 C   0  0  0  0  0  0  0  0  0  0  0  0
    3.7046   -5.2774   -0.0129 Br  0  0  0  0  0  0  0  0  0  0  0  0
    2.9062   -2.5442   -0.0316 C   0  0  0  0  0  0  0  0  0  0  0  0
    3.1954   -1.1954   -0.0723 C   0  0  0  0  0  0  0  0  0  0  0  0
    2.8094    1.9965   -0.2616 H   0  0  0  0  0  0  0  0  0  0  0  0
    5.1710    1.1514    0.3878 H   0  0  0  0  0  0  0  0  0  0  0  0
    6.5858   -1.1667   -0.1982 H   0  0  0  0  0  0  0  0  0  0  0  0
    6.1575   -3.6108   -0.0859 H   0  0  0  0  0  0  0  0  0  0  0  0
    1.8810   -2.8933    0.0047 H   0  0  0  0  0  0  0  0  0  0  0  0
  1  2  2  0  0  0  0
  2  3  1  0  0  0  0
  2 11  1  0  0  0  0
  3  4  1  0  0  0  0
  3 12  1  0  0  0  0
  4  5  1  0  0  0  0
  4 13  1  0  0  0  0
  5  6  1  0  0  0  0
  5 11  2  0  0  0  0
  6  7  2  0  0  0  0
  6 14  1  0  0  0  0
  7  8  1  0  0  0  0
  7 15  1  0  0  0  0
  8  9  1  0  0  0  0
  8 10  2  0  0  0  0
 10 11  1  0  0  0  0
 10 16  1  0  0  0  0
M  END
$$$$
