CHEMBL258453
 OpenBabel04072215363D

 59 63  0  0  0  0  0  0  0  0999 V2000
    5.2936   -2.6364    0.6932 C   0  0  0  0  0  0  0  0  0  0  0  0
    6.1995   -3.2491    1.7439 C   0  0  0  0  0  0  0  0  0  0  0  0
    5.5073   -3.2395    3.0100 N   0  0  0  0  0  0  0  0  0  0  0  0
    4.7054   -4.2415    3.4769 C   0  0  0  0  0  0  0  0  0  0  0  0
    4.4043   -4.0738    4.7393 N   0  0  0  0  0  0  0  0  0  0  0  0
    4.9332   -2.8644    5.0359 C   0  0  0  0  0  0  0  0  0  0  0  0
    4.7396   -2.1884    6.3021 C   0  0  0  0  0  0  0  0  0  0  0  0
    3.9849   -2.7891    7.2572 C   0  0  0  0  0  0  0  0  0  0  0  0
    3.7418   -1.8392    8.2304 C   0  0  0  0  0  0  0  0  0  0  0  0
    2.6562   -1.9118    9.0028 N   0  0  0  0  0  0  0  0  0  0  0  0
    2.8927   -1.7748   10.2837 C   0  0  0  0  0  0  0  0  0  0  0  0
    3.3288   -0.4810   10.2928 C   0  0  0  0  0  0  0  0  0  0  0  0
    4.1062    0.2651    9.1730 C   0  0  0  0  0  0  0  0  0  0  0  0
    3.9047    1.6492    8.8096 O   0  0  0  0  0  0  0  0  0  0  0  0
    2.9683    2.5827    9.3999 C   0  0  0  0  0  0  0  0  0  0  0  0
    1.7063    2.1661    9.9735 C   0  0  0  0  0  0  0  0  0  0  0  0
    1.2632    2.5023   11.3471 C   0  0  0  0  0  0  0  0  0  0  0  0
    1.9647    3.4487   12.0991 C   0  0  0  0  0  0  0  0  0  0  0  0
    1.6724    3.8590   13.5178 N   0  0  0  0  0  0  0  0  0  0  0  0
    0.3675    3.8560   14.1369 C   0  0  0  0  0  0  0  0  0  0  0  0
   -1.0581    3.3836   13.3577 S   0  0  0  0  0  0  0  0  0  0  0  0
    0.2751    4.2540   15.5026 N   0  0  0  0  0  0  0  0  0  0  0  0
    1.4244    4.6469   16.2472 C   0  0  0  0  0  0  0  0  0  0  0  0
    2.5720    4.6803   15.7948 O   0  0  0  0  0  0  0  0  0  0  0  0
    1.3280    5.0744   17.6943 C   0  0  0  0  0  0  0  0  0  0  0  0
    1.4917    3.8547   18.6252 C   0  0  0  0  0  0  0  0  0  0  0  0
    2.6557    3.0706   18.6169 C   0  0  0  0  0  0  0  0  0  0  0  0
    2.8058    2.0071   19.5173 C   0  0  0  0  0  0  0  0  0  0  0  0
    1.7452    1.6330   20.3396 C   0  0  0  0  0  0  0  0  0  0  0  0
    0.5806    2.3926   20.3460 C   0  0  0  0  0  0  0  0  0  0  0  0
    0.5161    3.5686   19.5971 C   0  0  0  0  0  0  0  0  0  0  0  0
    2.9976    4.0152   11.3386 C   0  0  0  0  0  0  0  0  0  0  0  0
    3.5059    3.6258   10.0842 C   0  0  0  0  0  0  0  0  0  0  0  0
    4.5730    4.2905    9.6303 F   0  0  0  0  0  0  0  0  0  0  0  0
    4.4421   -0.6399    8.1640 C   0  0  0  0  0  0  0  0  0  0  0  0
    5.2578   -0.6051    6.6603 S   0  0  0  0  0  0  0  0  0  0  0  0
    5.6550   -2.3258    3.9988 C   0  0  0  0  0  0  0  0  0  0  0  0
    5.7916   -2.6149   -0.2762 H   0  0  0  0  0  0  0  0  0  0  0  0
    5.0162   -1.6104    0.9669 H   0  0  0  0  0  0  0  0  0  0  0  0
    4.3625   -3.2106    0.6062 H   0  0  0  0  0  0  0  0  0  0  0  0
    7.1252   -2.6807    1.8749 H   0  0  0  0  0  0  0  0  0  0  0  0
    6.4563   -4.2845    1.4877 H   0  0  0  0  0  0  0  0  0  0  0  0
    4.3790   -5.0786    2.8798 H   0  0  0  0  0  0  0  0  0  0  0  0
    3.4881   -3.7531    7.1914 H   0  0  0  0  0  0  0  0  0  0  0  0
    2.5556   -2.8244   10.2360 H   0  0  0  0  0  0  0  0  0  0  0  0
    2.9877   -0.0715   11.2433 H   0  0  0  0  0  0  0  0  0  0  0  0
    0.9010    1.8118    9.3100 H   0  0  0  0  0  0  0  0  0  0  0  0
    0.3764    1.9948   11.7413 H   0  0  0  0  0  0  0  0  0  0  0  0
    2.4499    4.3083   14.0002 H   0  0  0  0  0  0  0  0  0  0  0  0
   -0.6179    4.2439   15.9795 H   0  0  0  0  0  0  0  0  0  0  0  0
    0.3553    5.5382   17.8715 H   0  0  0  0  0  0  0  0  0  0  0  0
    2.1256    5.7856   17.9236 H   0  0  0  0  0  0  0  0  0  0  0  0
    3.4714    3.2991   17.9372 H   0  0  0  0  0  0  0  0  0  0  0  0
    3.7426    1.4570   19.5648 H   0  0  0  0  0  0  0  0  0  0  0  0
    1.8325    0.7679   20.9917 H   0  0  0  0  0  0  0  0  0  0  0  0
   -0.2735    2.0823   20.9416 H   0  0  0  0  0  0  0  0  0  0  0  0
   -0.2804    4.2789   19.8111 H   0  0  0  0  0  0  0  0  0  0  0  0
    3.5804    4.8441   11.6484 H   0  0  0  0  0  0  0  0  0  0  0  0
    6.1924   -1.3927    3.8894 H   0  0  0  0  0  0  0  0  0  0  0  0
  1  2  1  0  0  0  0
  1 38  1  0  0  0  0
  1 39  1  0  0  0  0
  1 40  1  0  0  0  0
  2  3  1  0  0  0  0
  2 41  1  0  0  0  0
  2 42  1  0  0  0  0
  3  4  1  0  0  0  0
  3 37  1  0  0  0  0
  4  5  2  0  0  0  0
  4 43  1  0  0  0  0
  5  6  1  0  0  0  0
  6  7  1  0  0  0  0
  6 37  2  0  0  0  0
  7  8  2  0  0  0  0
  7 36  1  0  0  0  0
  8  9  1  0  0  0  0
  8 44  1  0  0  0  0
  9 10  1  0  0  0  0
  9 35  2  0  0  0  0
 10 11  2  0  0  0  0
 11 12  1  0  0  0  0
 11 45  1  0  0  0  0
 12 13  2  0  0  0  0
 12 46  1  0  0  0  0
 13 14  1  0  0  0  0
 13 35  1  0  0  0  0
 14 15  1  0  0  0  0
 15 16  1  0  0  0  0
 15 33  2  0  0  0  0
 16 17  2  0  0  0  0
 16 47  1  0  0  0  0
 17 18  1  0  0  0  0
 17 48  1  0  0  0  0
 18 19  1  0  0  0  0
 18 32  2  0  0  0  0
 19 20  1  0  0  0  0
 19 49  1  0  0  0  0
 20 21  2  0  0  0  0
 20 22  1  0  0  0  0
 22 23  1  0  0  0  0
 22 50  1  0  0  0  0
 23 24  2  0  0  0  0
 23 25  1  0  0  0  0
 25 26  1  0  0  0  0
 25 51  1  0  0  0  0
 25 52  1  0  0  0  0
 26 27  1  0  0  0  0
 26 31  2  0  0  0  0
 27 28  2  0  0  0  0
 27 53  1  0  0  0  0
 28 29  1  0  0  0  0
 28 54  1  0  0  0  0
 29 30  2  0  0  0  0
 29 55  1  0  0  0  0
 30 31  1  0  0  0  0
 30 56  1  0  0  0  0
 31 57  1  0  0  0  0
 32 33  1  0  0  0  0
 32 58  1  0  0  0  0
 33 34  1  0  0  0  0
 35 36  1  0  0  0  0
 37 59  1  0  0  0  0
M  END
$$$$
