CHEMBL260532
 OpenBabel04072215363D

 46 49  0  0  0  0  0  0  0  0999 V2000
    3.2837    1.0867    0.7367 C   0  0  0  0  0  0  0  0  0  0  0  0
    2.4579    0.1535    0.0351 O   0  0  0  0  0  0  0  0  0  0  0  0
    3.0515   -1.0374   -0.3111 C   0  0  0  0  0  0  0  0  0  0  0  0
    4.0998   -1.5784    0.4390 C   0  0  0  0  0  0  0  0  0  0  0  0
    4.7510   -2.7425    0.0775 C   0  0  0  0  0  0  0  0  0  0  0  0
    5.8131   -3.0756    0.8205 N   0  0  0  0  0  0  0  0  0  0  0  0
    6.5466   -4.1314    0.4384 C   0  0  0  0  0  0  0  0  0  0  0  0
    6.2333   -4.9189   -0.6448 C   0  0  0  0  0  0  0  0  0  0  0  0
    5.0513   -4.6552   -1.3453 C   0  0  0  0  0  0  0  0  0  0  0  0
    4.6073   -5.4907   -2.3684 O   0  0  0  0  0  0  0  0  0  0  0  0
    5.0366   -6.8091   -2.3619 C   0  0  0  0  0  0  0  0  0  0  0  0
    5.0322   -7.5933   -1.2110 C   0  0  0  0  0  0  0  0  0  0  0  0
    5.6687   -8.8390   -1.2115 C   0  0  0  0  0  0  0  0  0  0  0  0
    6.2588   -9.3815   -2.3770 C   0  0  0  0  0  0  0  0  0  0  0  0
    6.9785  -10.6158   -2.4216 C   0  0  0  0  0  0  0  0  0  0  0  0
    7.3509  -11.3498   -1.1728 C   0  0  0  0  0  0  0  0  0  0  0  0
    7.4271  -12.7166   -1.2442 N   0  0  0  0  0  0  0  0  0  0  0  0
    7.6011  -10.7780   -0.1188 O   0  0  0  0  0  0  0  0  0  0  0  0
    7.4467  -11.1174   -3.6479 C   0  0  0  0  0  0  0  0  0  0  0  0
    7.2247  -10.4151   -4.8263 C   0  0  0  0  0  0  0  0  0  0  0  0
    6.5766   -9.1810   -4.7877 C   0  0  0  0  0  0  0  0  0  0  0  0
    6.1041   -8.6416   -3.5778 C   0  0  0  0  0  0  0  0  0  0  0  0
    5.5088   -7.3578   -3.5541 C   0  0  0  0  0  0  0  0  0  0  0  0
    4.3099   -3.4848   -1.0358 C   0  0  0  0  0  0  0  0  0  0  0  0
    3.1937   -2.9828   -1.7608 C   0  0  0  0  0  0  0  0  0  0  0  0
    2.5868   -1.7480   -1.4301 C   0  0  0  0  0  0  0  0  0  0  0  0
    1.5303   -1.2408   -2.3650 C   0  0  0  0  0  0  0  0  0  0  0  0
    0.9218   -0.0518   -2.0852 N   0  0  0  0  0  0  0  0  0  0  0  0
    1.2270   -1.8576   -3.3809 O   0  0  0  0  0  0  0  0  0  0  0  0
    2.7318    2.0276    0.8212 H   0  0  0  0  0  0  0  0  0  0  0  0
    4.2077    1.2860    0.1826 H   0  0  0  0  0  0  0  0  0  0  0  0
    3.4983    0.7488    1.7554 H   0  0  0  0  0  0  0  0  0  0  0  0
    4.4659   -1.0841    1.3335 H   0  0  0  0  0  0  0  0  0  0  0  0
    7.4209   -4.3368    1.0473 H   0  0  0  0  0  0  0  0  0  0  0  0
    6.8983   -5.7356   -0.9019 H   0  0  0  0  0  0  0  0  0  0  0  0
    4.6082   -7.2197   -0.2833 H   0  0  0  0  0  0  0  0  0  0  0  0
    5.7108   -9.3771   -0.2655 H   0  0  0  0  0  0  0  0  0  0  0  0
    7.1243  -13.2591   -2.0382 H   0  0  0  0  0  0  0  0  0  0  0  0
    7.6561  -13.2048   -0.3866 H   0  0  0  0  0  0  0  0  0  0  0  0
    8.0213  -12.0410   -3.6944 H   0  0  0  0  0  0  0  0  0  0  0  0
    7.5855  -10.8094   -5.7734 H   0  0  0  0  0  0  0  0  0  0  0  0
    6.4460   -8.6338   -5.7195 H   0  0  0  0  0  0  0  0  0  0  0  0
    5.4492   -6.7652   -4.4645 H   0  0  0  0  0  0  0  0  0  0  0  0
    2.8325   -3.5354   -2.6285 H   0  0  0  0  0  0  0  0  0  0  0  0
    1.1507    0.4818   -1.2541 H   0  0  0  0  0  0  0  0  0  0  0  0
    0.2479    0.3159   -2.7415 H   0  0  0  0  0  0  0  0  0  0  0  0
  1  2  1  0  0  0  0
  1 30  1  0  0  0  0
  1 31  1  0  0  0  0
  1 32  1  0  0  0  0
  2  3  1  0  0  0  0
  3  4  1  0  0  0  0
  3 26  2  0  0  0  0
  4  5  2  0  0  0  0
  4 33  1  0  0  0  0
  5  6  1  0  0  0  0
  5 24  1  0  0  0  0
  6  7  2  0  0  0  0
  7  8  1  0  0  0  0
  7 34  1  0  0  0  0
  8  9  2  0  0  0  0
  8 35  1  0  0  0  0
  9 10  1  0  0  0  0
  9 24  1  0  0  0  0
 10 11  1  0  0  0  0
 11 12  1  0  0  0  0
 11 23  2  0  0  0  0
 12 13  2  0  0  0  0
 12 36  1  0  0  0  0
 13 14  1  0  0  0  0
 13 37  1  0  0  0  0
 14 15  1  0  0  0  0
 14 22  2  0  0  0  0
 15 16  1  0  0  0  0
 15 19  2  0  0  0  0
 16 17  1  0  0  0  0
 16 18  2  0  0  0  0
 17 38  1  0  0  0  0
 17 39  1  0  0  0  0
 19 20  1  0  0  0  0
 19 40  1  0  0  0  0
 20 21  2  0  0  0  0
 20 41  1  0  0  0  0
 21 22  1  0  0  0  0
 21 42  1  0  0  0  0
 22 23  1  0  0  0  0
 23 43  1  0  0  0  0
 24 25  2  0  0  0  0
 25 26  1  0  0  0  0
 25 44  1  0  0  0  0
 26 27  1  0  0  0  0
 27 28  1  0  0  0  0
 27 29  2  0  0  0  0
 28 45  1  0  0  0  0
 28 46  1  0  0  0  0
M  END
$$$$
