CHEMBL389343
 OpenBabel04072215373D

 40 42  0  0  0  0  0  0  0  0999 V2000
   -3.2042    0.2536   -0.0461 N   0  0  0  0  0  0  0  0  0  0  0  0
   -2.0494    0.1394   -0.0377 C   0  0  0  0  0  0  0  0  0  0  0  0
   -0.6322    0.0466   -0.0015 C   0  0  0  0  0  0  0  0  0  0  0  0
    0.0931    1.2099    0.0280 C   0  0  0  0  0  0  0  0  0  0  0  0
    1.4328    1.2509    0.0292 N   0  0  0  0  0  0  0  0  0  0  0  0
    2.0936    0.0857   -0.0349 C   0  0  0  0  0  0  0  0  0  0  0  0
    3.4835    0.1064   -0.1040 N   0  0  0  0  0  0  0  0  0  0  0  0
    4.3475    1.1308    0.3096 C   0  0  0  0  0  0  0  0  0  0  0  0
    4.0294    1.9578    1.3965 C   0  0  0  0  0  0  0  0  0  0  0  0
    4.8251    3.0514    1.7404 C   0  0  0  0  0  0  0  0  0  0  0  0
    5.9518    3.3652    0.9792 C   0  0  0  0  0  0  0  0  0  0  0  0
    6.7691    4.5956    1.2963 C   0  0  0  0  0  0  0  0  0  0  0  0
    7.8640    4.3486    2.3311 C   0  0  0  0  0  0  0  0  0  0  0  0
    8.8411    3.4329    1.8481 O   0  0  0  0  0  0  0  0  0  0  0  0
    6.2938    2.5309   -0.0937 C   0  0  0  0  0  0  0  0  0  0  0  0
    5.5037    1.4204   -0.4205 C   0  0  0  0  0  0  0  0  0  0  0  0
    1.4702   -1.1032   -0.0783 N   0  0  0  0  0  0  0  0  0  0  0  0
    0.1027   -1.1288   -0.0214 C   0  0  0  0  0  0  0  0  0  0  0  0
   -0.4838   -2.4982   -0.0075 C   0  0  0  0  0  0  0  0  0  0  0  0
   -1.6757   -2.8138    0.6761 C   0  0  0  0  0  0  0  0  0  0  0  0
   -2.2454   -4.0902    0.6162 C   0  0  0  0  0  0  0  0  0  0  0  0
   -1.6111   -5.1033   -0.0910 C   0  0  0  0  0  0  0  0  0  0  0  0
   -0.4026   -4.8426   -0.7272 C   0  0  0  0  0  0  0  0  0  0  0  0
    0.1513   -3.5571   -0.6859 C   0  0  0  0  0  0  0  0  0  0  0  0
   -0.3842    2.1878    0.0473 H   0  0  0  0  0  0  0  0  0  0  0  0
    3.8857   -0.7814   -0.3571 H   0  0  0  0  0  0  0  0  0  0  0  0
    3.1415    1.7559    1.9899 H   0  0  0  0  0  0  0  0  0  0  0  0
    4.5322    3.6689    2.5867 H   0  0  0  0  0  0  0  0  0  0  0  0
    6.0973    5.3825    1.6627 H   0  0  0  0  0  0  0  0  0  0  0  0
    7.2105    4.9756    0.3672 H   0  0  0  0  0  0  0  0  0  0  0  0
    7.4601    3.9664    3.2744 H   0  0  0  0  0  0  0  0  0  0  0  0
    8.3799    5.2909    2.5435 H   0  0  0  0  0  0  0  0  0  0  0  0
    8.3971    2.5693    1.7681 H   0  0  0  0  0  0  0  0  0  0  0  0
    7.1660    2.7601   -0.7051 H   0  0  0  0  0  0  0  0  0  0  0  0
    5.7694    0.8226   -1.2882 H   0  0  0  0  0  0  0  0  0  0  0  0
   -2.1969   -2.0766    1.2824 H   0  0  0  0  0  0  0  0  0  0  0  0
   -3.1857   -4.2872    1.1263 H   0  0  0  0  0  0  0  0  0  0  0  0
   -2.0533   -6.0953   -0.1375 H   0  0  0  0  0  0  0  0  0  0  0  0
    0.1105   -5.6366   -1.2627 H   0  0  0  0  0  0  0  0  0  0  0  0
    1.0949   -3.3852   -1.2003 H   0  0  0  0  0  0  0  0  0  0  0  0
  1  2  3  0  0  0  0
  2  3  1  0  0  0  0
  3  4  1  0  0  0  0
  3 18  2  0  0  0  0
  4  5  2  0  0  0  0
  4 25  1  0  0  0  0
  5  6  1  0  0  0  0
  6  7  1  0  0  0  0
  6 17  2  0  0  0  0
  7  8  1  0  0  0  0
  7 26  1  0  0  0  0
  8  9  1  0  0  0  0
  8 16  2  0  0  0  0
  9 10  2  0  0  0  0
  9 27  1  0  0  0  0
 10 11  1  0  0  0  0
 10 28  1  0  0  0  0
 11 12  1  0  0  0  0
 11 15  2  0  0  0  0
 12 13  1  0  0  0  0
 12 29  1  0  0  0  0
 12 30  1  0  0  0  0
 13 14  1  0  0  0  0
 13 31  1  0  0  0  0
 13 32  1  0  0  0  0
 14 33  1  0  0  0  0
 15 16  1  0  0  0  0
 15 34  1  0  0  0  0
 16 35  1  0  0  0  0
 17 18  1  0  0  0  0
 18 19  1  0  0  0  0
 19 20  1  0  0  0  0
 19 24  2  0  0  0  0
 20 21  2  0  0  0  0
 20 36  1  0  0  0  0
 21 22  1  0  0  0  0
 21 37  1  0  0  0  0
 22 23  2  0  0  0  0
 22 38  1  0  0  0  0
 23 24  1  0  0  0  0
 23 39  1  0  0  0  0
 24 40  1  0  0  0  0
M  END
$$$$
