CHEMBL4242446
 OpenBabel04072215383D

 60 63  0  0  0  0  0  0  0  0999 V2000
    2.5582    0.5059    0.9536 C   0  0  0  0  0  0  0  0  0  0  0  0
    3.1768    0.5245   -0.3284 O   0  0  0  0  0  0  0  0  0  0  0  0
    3.6365   -0.6786   -0.7938 C   0  0  0  0  0  0  0  0  0  0  0  0
    3.5181   -1.8989   -0.1395 C   0  0  0  0  0  0  0  0  0  0  0  0
    4.0559   -3.0544   -0.7117 C   0  0  0  0  0  0  0  0  0  0  0  0
    4.7291   -3.0299   -1.9477 C   0  0  0  0  0  0  0  0  0  0  0  0
    5.3394   -4.2516   -2.4882 C   0  0  0  0  0  0  0  0  0  0  0  0
    5.1893   -5.3758   -1.7871 N   0  0  0  0  0  0  0  0  0  0  0  0
    5.8316   -6.4617   -2.2508 C   0  0  0  0  0  0  0  0  0  0  0  0
    5.4286   -7.8176   -1.2503 Cl  0  0  0  0  0  0  0  0  0  0  0  0
    6.6374   -6.5284   -3.3854 C   0  0  0  0  0  0  0  0  0  0  0  0
    7.4348   -7.7293   -3.7495 C   0  0  0  0  0  0  0  0  0  0  0  0
    7.5604   -8.1888   -5.0695 C   0  0  0  0  0  0  0  0  0  0  0  0
    8.3065   -9.3363   -5.3777 C   0  0  0  0  0  0  0  0  0  0  0  0
    8.9212  -10.0751   -4.3693 C   0  0  0  0  0  0  0  0  0  0  0  0
    8.8167   -9.6477   -3.0543 C   0  0  0  0  0  0  0  0  0  0  0  0
    8.1135   -8.4768   -2.7584 C   0  0  0  0  0  0  0  0  0  0  0  0
    6.5977   -5.3267   -4.0926 C   0  0  0  0  0  0  0  0  0  0  0  0
    7.2042   -5.2372   -5.3520 O   0  0  0  0  0  0  0  0  0  0  0  0
    6.6656   -4.3332   -6.2562 C   0  0  0  0  0  0  0  0  0  0  0  0
    7.5473   -3.6021   -7.0580 C   0  0  0  0  0  0  0  0  0  0  0  0
    7.0690   -2.6237   -7.9503 C   0  0  0  0  0  0  0  0  0  0  0  0
    5.6972   -2.3794   -8.0541 C   0  0  0  0  0  0  0  0  0  0  0  0
    5.1030   -1.3878   -8.7911 O   0  0  0  0  0  0  0  0  0  0  0  0
    5.8143   -0.9108   -9.9396 C   0  0  0  0  0  0  0  0  0  0  0  0
    4.9902    0.2127  -10.6110 C   0  0  0  0  0  0  0  0  0  0  0  0
    5.5993    0.7720  -11.8383 N   0  0  0  0  0  0  0  0  0  0  0  0
    5.6979   -0.2279  -12.9027 C   0  0  0  0  0  0  0  0  0  0  0  0
    4.8200    1.9190  -12.3199 C   0  0  0  0  0  0  0  0  0  0  0  0
    4.8162   -3.1518   -7.2948 C   0  0  0  0  0  0  0  0  0  0  0  0
    5.2914   -4.1424   -6.4273 C   0  0  0  0  0  0  0  0  0  0  0  0
    6.0102   -4.1916   -3.6368 N   0  0  0  0  0  0  0  0  0  0  0  0
    4.8094   -1.7916   -2.6074 C   0  0  0  0  0  0  0  0  0  0  0  0
    4.2721   -0.6323   -2.0361 C   0  0  0  0  0  0  0  0  0  0  0  0
    2.2836    1.5331    1.2072 H   0  0  0  0  0  0  0  0  0  0  0  0
    3.2480    0.1448    1.7248 H   0  0  0  0  0  0  0  0  0  0  0  0
    1.6396   -0.0909    0.9361 H   0  0  0  0  0  0  0  0  0  0  0  0
    3.0229   -1.9963    0.8203 H   0  0  0  0  0  0  0  0  0  0  0  0
    3.9550   -3.9928   -0.1654 H   0  0  0  0  0  0  0  0  0  0  0  0
    7.0752   -7.6678   -5.8913 H   0  0  0  0  0  0  0  0  0  0  0  0
    8.4021   -9.6559   -6.4125 H   0  0  0  0  0  0  0  0  0  0  0  0
    9.4816  -10.9732   -4.6088 H   0  0  0  0  0  0  0  0  0  0  0  0
    9.2802  -10.2193   -2.2538 H   0  0  0  0  0  0  0  0  0  0  0  0
    8.0971   -8.1676   -1.7136 H   0  0  0  0  0  0  0  0  0  0  0  0
    8.6200   -3.7640   -6.9687 H   0  0  0  0  0  0  0  0  0  0  0  0
    7.7918   -2.0515   -8.5179 H   0  0  0  0  0  0  0  0  0  0  0  0
    5.9454   -1.7520  -10.6273 H   0  0  0  0  0  0  0  0  0  0  0  0
    6.7883   -0.5010   -9.6544 H   0  0  0  0  0  0  0  0  0  0  0  0
    4.8830    1.0178   -9.8702 H   0  0  0  0  0  0  0  0  0  0  0  0
    3.9694   -0.1433  -10.8058 H   0  0  0  0  0  0  0  0  0  0  0  0
    6.4013   -1.0212  -12.6327 H   0  0  0  0  0  0  0  0  0  0  0  0
    6.0955    0.2209  -13.8207 H   0  0  0  0  0  0  0  0  0  0  0  0
    4.7276   -0.6811  -13.1359 H   0  0  0  0  0  0  0  0  0  0  0  0
    4.7868    2.7128  -11.5660 H   0  0  0  0  0  0  0  0  0  0  0  0
    3.7914    1.6429  -12.5798 H   0  0  0  0  0  0  0  0  0  0  0  0
    5.2902    2.3570  -13.2086 H   0  0  0  0  0  0  0  0  0  0  0  0
    3.7461   -2.9744   -7.3672 H   0  0  0  0  0  0  0  0  0  0  0  0
    4.5721   -4.7254   -5.8577 H   0  0  0  0  0  0  0  0  0  0  0  0
    5.3070   -1.7182   -3.5760 H   0  0  0  0  0  0  0  0  0  0  0  0
    4.3603    0.3152   -2.5627 H   0  0  0  0  0  0  0  0  0  0  0  0
  1  2  1  0  0  0  0
  1 35  1  0  0  0  0
  1 36  1  0  0  0  0
  1 37  1  0  0  0  0
  2  3  1  0  0  0  0
  3  4  1  0  0  0  0
  3 34  2  0  0  0  0
  4  5  2  0  0  0  0
  4 38  1  0  0  0  0
  5  6  1  0  0  0  0
  5 39  1  0  0  0  0
  6  7  1  0  0  0  0
  6 33  2  0  0  0  0
  7  8  1  0  0  0  0
  7 32  2  0  0  0  0
  8  9  2  0  0  0  0
  9 10  1  0  0  0  0
  9 11  1  0  0  0  0
 11 12  1  0  0  0  0
 11 18  2  0  0  0  0
 12 13  1  0  0  0  0
 12 17  2  0  0  0  0
 13 14  2  0  0  0  0
 13 40  1  0  0  0  0
 14 15  1  0  0  0  0
 14 41  1  0  0  0  0
 15 16  2  0  0  0  0
 15 42  1  0  0  0  0
 16 17  1  0  0  0  0
 16 43  1  0  0  0  0
 17 44  1  0  0  0  0
 18 19  1  0  0  0  0
 18 32  1  0  0  0  0
 19 20  1  0  0  0  0
 20 21  1  0  0  0  0
 20 31  2  0  0  0  0
 21 22  2  0  0  0  0
 21 45  1  0  0  0  0
 22 23  1  0  0  0  0
 22 46  1  0  0  0  0
 23 24  1  0  0  0  0
 23 30  2  0  0  0  0
 24 25  1  0  0  0  0
 25 26  1  0  0  0  0
 25 47  1  0  0  0  0
 25 48  1  0  0  0  0
 26 27  1  0  0  0  0
 26 49  1  0  0  0  0
 26 50  1  0  0  0  0
 27 28  1  0  0  0  0
 27 29  1  0  0  0  0
 28 51  1  0  0  0  0
 28 52  1  0  0  0  0
 28 53  1  0  0  0  0
 29 54  1  0  0  0  0
 29 55  1  0  0  0  0
 29 56  1  0  0  0  0
 30 31  1  0  0  0  0
 30 57  1  0  0  0  0
 31 58  1  0  0  0  0
 33 34  1  0  0  0  0
 33 59  1  0  0  0  0
 34 60  1  0  0  0  0
M  END
$$$$
