CHEMBL3972070
 OpenBabel04072215373D

 53 56  0  0  0  0  0  0  0  0999 V2000
   -2.8626    0.4467   -1.4304 N   0  0  0  0  0  0  0  0  0  0  0  0
   -1.7162    0.3009   -1.3248 C   0  0  0  0  0  0  0  0  0  0  0  0
   -0.2989    0.1297   -1.1928 C   0  0  0  0  0  0  0  0  0  0  0  0
    0.2184   -1.1037   -0.7938 C   0  0  0  0  0  0  0  0  0  0  0  0
    1.6004   -1.3261   -0.6923 C   0  0  0  0  0  0  0  0  0  0  0  0
    2.1373   -2.6034   -0.3606 N   0  0  0  0  0  0  0  0  0  0  0  0
    1.4343   -3.7822   -0.5501 C   0  0  0  0  0  0  0  0  0  0  0  0
    0.3389   -3.8121   -1.1043 O   0  0  0  0  0  0  0  0  0  0  0  0
    2.0694   -4.9087   -0.0584 N   0  0  0  0  0  0  0  0  0  0  0  0
    1.5070   -6.2143   -0.1227 C   0  0  0  0  0  0  0  0  0  0  0  0
    0.4382   -6.5372   -0.9716 C   0  0  0  0  0  0  0  0  0  0  0  0
   -0.2203   -7.7656   -0.8899 C   0  0  0  0  0  0  0  0  0  0  0  0
    0.2142   -8.7248    0.0137 C   0  0  0  0  0  0  0  0  0  0  0  0
   -0.5345   -9.8794    0.0546 O   0  0  0  0  0  0  0  0  0  0  0  0
   -0.7219  -10.5310    1.2535 C   0  0  0  0  0  0  0  0  0  0  0  0
   -0.7108   -9.9074    2.4944 C   0  0  0  0  0  0  0  0  0  0  0  0
   -0.7794  -10.7101    3.6114 C   0  0  0  0  0  0  0  0  0  0  0  0
   -0.9318  -12.0460    3.5551 N   0  0  0  0  0  0  0  0  0  0  0  0
   -1.0376  -12.6338    2.3553 C   0  0  0  0  0  0  0  0  0  0  0  0
   -1.2373  -14.0208    2.2722 N   0  0  0  0  0  0  0  0  0  0  0  0
   -1.2279  -14.8663    3.3642 C   0  0  0  0  0  0  0  0  0  0  0  0
   -1.0132  -14.5866    4.5327 O   0  0  0  0  0  0  0  0  0  0  0  0
   -1.5448  -16.2846    3.0092 C   0  0  0  0  0  0  0  0  0  0  0  0
   -2.7804  -16.9211    3.6055 C   0  0  0  0  0  0  0  0  0  0  0  0
   -1.4217  -17.3768    4.0507 C   0  0  0  0  0  0  0  0  0  0  0  0
   -0.9542  -11.9061    1.1732 C   0  0  0  0  0  0  0  0  0  0  0  0
    1.3759   -8.4674    0.7495 C   0  0  0  0  0  0  0  0  0  0  0  0
    1.9024   -9.4052    1.5501 F   0  0  0  0  0  0  0  0  0  0  0  0
    2.0059   -7.2164    0.7092 C   0  0  0  0  0  0  0  0  0  0  0  0
    2.4672   -0.2545   -0.9328 C   0  0  0  0  0  0  0  0  0  0  0  0
    1.9603    1.0029   -1.3281 C   0  0  0  0  0  0  0  0  0  0  0  0
    2.8662    2.1722   -1.6300 C   0  0  0  0  0  0  0  0  0  0  0  0
    4.1880    1.8944   -1.4703 F   0  0  0  0  0  0  0  0  0  0  0  0
    2.7243    2.6160   -2.9088 F   0  0  0  0  0  0  0  0  0  0  0  0
    2.6049    3.2425   -0.8310 F   0  0  0  0  0  0  0  0  0  0  0  0
    0.5724    1.1802   -1.4626 C   0  0  0  0  0  0  0  0  0  0  0  0
   -0.4976   -1.8899   -0.5653 H   0  0  0  0  0  0  0  0  0  0  0  0
    3.1403   -2.6802   -0.2578 H   0  0  0  0  0  0  0  0  0  0  0  0
    2.8208   -4.7623    0.6080 H   0  0  0  0  0  0  0  0  0  0  0  0
    0.0619   -5.8398   -1.7139 H   0  0  0  0  0  0  0  0  0  0  0  0
   -1.0847   -7.9488   -1.5233 H   0  0  0  0  0  0  0  0  0  0  0  0
   -0.6037   -8.8368    2.6127 H   0  0  0  0  0  0  0  0  0  0  0  0
   -0.6951  -10.2968    4.6109 H   0  0  0  0  0  0  0  0  0  0  0  0
   -1.3936  -14.4145    1.3595 H   0  0  0  0  0  0  0  0  0  0  0  0
   -1.2789  -16.5796    1.9989 H   0  0  0  0  0  0  0  0  0  0  0  0
   -3.3638  -17.5868    2.9827 H   0  0  0  0  0  0  0  0  0  0  0  0
   -3.3651  -16.3405    4.3119 H   0  0  0  0  0  0  0  0  0  0  0  0
   -1.0783  -18.3527    3.7306 H   0  0  0  0  0  0  0  0  0  0  0  0
   -1.0981  -17.1027    5.0503 H   0  0  0  0  0  0  0  0  0  0  0  0
   -1.0348  -12.3822    0.2049 H   0  0  0  0  0  0  0  0  0  0  0  0
    2.8576   -7.0523    1.3606 H   0  0  0  0  0  0  0  0  0  0  0  0
    3.5445   -0.3892   -0.8484 H   0  0  0  0  0  0  0  0  0  0  0  0
    0.1753    2.1461   -1.7775 H   0  0  0  0  0  0  0  0  0  0  0  0
  1  2  3  0  0  0  0
  2  3  1  0  0  0  0
  3  4  1  0  0  0  0
  3 36  2  0  0  0  0
  4  5  2  0  0  0  0
  4 37  1  0  0  0  0
  5  6  1  0  0  0  0
  5 30  1  0  0  0  0
  6  7  1  0  0  0  0
  6 38  1  0  0  0  0
  7  8  2  0  0  0  0
  7  9  1  0  0  0  0
  9 10  1  0  0  0  0
  9 39  1  0  0  0  0
 10 11  1  0  0  0  0
 10 29  2  0  0  0  0
 11 12  2  0  0  0  0
 11 40  1  0  0  0  0
 12 13  1  0  0  0  0
 12 41  1  0  0  0  0
 13 14  1  0  0  0  0
 13 27  2  0  0  0  0
 14 15  1  0  0  0  0
 15 16  1  0  0  0  0
 15 26  2  0  0  0  0
 16 17  2  0  0  0  0
 16 42  1  0  0  0  0
 17 18  1  0  0  0  0
 17 43  1  0  0  0  0
 18 19  2  0  0  0  0
 19 20  1  0  0  0  0
 19 26  1  0  0  0  0
 20 21  1  0  0  0  0
 20 44  1  0  0  0  0
 21 22  2  0  0  0  0
 21 23  1  0  0  0  0
 23 24  1  0  0  0  0
 23 25  1  0  0  0  0
 23 45  1  0  0  0  0
 24 25  1  0  0  0  0
 24 46  1  0  0  0  0
 24 47  1  0  0  0  0
 25 48  1  0  0  0  0
 25 49  1  0  0  0  0
 26 50  1  0  0  0  0
 27 28  1  0  0  0  0
 27 29  1  0  0  0  0
 29 51  1  0  0  0  0
 30 31  2  0  0  0  0
 30 52  1  0  0  0  0
 31 32  1  0  0  0  0
 31 36  1  0  0  0  0
 32 33  1  0  0  0  0
 32 34  1  0  0  0  0
 32 35  1  0  0  0  0
 36 53  1  0  0  0  0
M  END
$$$$
