CHEMBL3690526
 OpenBabel04072215373D

 47 50  0  0  0  0  0  0  0  0999 V2000
    1.1337   -0.3233    0.4371 N   0  0  0  0  0  0  0  0  0  0  0  0
    2.4931   -0.0419    0.2983 C   0  0  0  0  0  0  0  0  0  0  0  0
    3.3255    0.1628    1.3807 C   0  0  0  0  0  0  0  0  0  0  0  0
    4.6676    0.2834    1.3034 N   0  0  0  0  0  0  0  0  0  0  0  0
    5.2182    0.1406    0.0807 C   0  0  0  0  0  0  0  0  0  0  0  0
    6.7027    0.1399   -0.0185 C   0  0  0  0  0  0  0  0  0  0  0  0
    7.4433    0.2564   -1.3005 C   0  0  0  0  0  0  0  0  0  0  0  0
    8.7736    0.5054   -1.2870 C   0  0  0  0  0  0  0  0  0  0  0  0
    9.4421    0.4398   -0.0567 N   0  0  0  0  0  0  0  0  0  0  0  0
   10.8041    0.4135    0.3041 C   0  0  0  0  0  0  0  0  0  0  0  0
   11.4399    1.4552    1.1907 C   0  0  0  0  0  0  0  0  0  0  0  0
   10.8435    2.7059    1.3859 C   0  0  0  0  0  0  0  0  0  0  0  0
   11.2708    3.5372    2.4241 C   0  0  0  0  0  0  0  0  0  0  0  0
   12.3089    3.1443    3.2722 C   0  0  0  0  0  0  0  0  0  0  0  0
   12.9653    1.9309    3.0821 C   0  0  0  0  0  0  0  0  0  0  0  0
   14.0249    1.4828    3.9159 N   0  0  0  0  0  0  0  0  0  0  0  0
   14.5557    2.1488    4.9953 C   0  0  0  0  0  0  0  0  0  0  0  0
   14.1918    3.2234    5.4560 O   0  0  0  0  0  0  0  0  0  0  0  0
   15.6574    1.5075    5.5313 N   0  0  0  0  0  0  0  0  0  0  0  0
   16.3475    2.1295    6.6719 C   0  0  0  0  0  0  0  0  0  0  0  0
   15.7196    1.9015    8.0559 C   0  0  0  0  0  0  0  0  0  0  0  0
   14.7225    0.9886    8.0170 F   0  0  0  0  0  0  0  0  0  0  0  0
   16.6544    1.4207    8.9154 F   0  0  0  0  0  0  0  0  0  0  0  0
   15.2326    3.0389    8.5933 F   0  0  0  0  0  0  0  0  0  0  0  0
   12.5323    1.1033    2.0286 C   0  0  0  0  0  0  0  0  0  0  0  0
   10.7896   -0.9307    0.7083 C   0  0  0  0  0  0  0  0  0  0  0  0
    9.6168   -1.1623    1.4123 N   0  0  0  0  0  0  0  0  0  0  0  0
    8.8139   -0.1878    1.0139 C   0  0  0  0  0  0  0  0  0  0  0  0
    7.4156   -0.0147    1.1208 C   0  0  0  0  0  0  0  0  0  0  0  0
    4.5180   -0.0896   -1.0429 N   0  0  0  0  0  0  0  0  0  0  0  0
    3.1774   -0.2043   -0.8932 C   0  0  0  0  0  0  0  0  0  0  0  0
    0.6971    0.0884    1.2576 H   0  0  0  0  0  0  0  0  0  0  0  0
    0.5814   -0.1801   -0.4034 H   0  0  0  0  0  0  0  0  0  0  0  0
    2.9269    0.2252    2.3895 H   0  0  0  0  0  0  0  0  0  0  0  0
    6.8927    0.1071   -2.2252 H   0  0  0  0  0  0  0  0  0  0  0  0
    9.3752    0.5928   -2.1828 H   0  0  0  0  0  0  0  0  0  0  0  0
    9.9958    3.0285    0.7887 H   0  0  0  0  0  0  0  0  0  0  0  0
   10.7685    4.4836    2.6138 H   0  0  0  0  0  0  0  0  0  0  0  0
   12.5698    3.8145    4.0847 H   0  0  0  0  0  0  0  0  0  0  0  0
   14.4550    0.6041    3.6714 H   0  0  0  0  0  0  0  0  0  0  0  0
   15.6469    0.4996    5.4965 H   0  0  0  0  0  0  0  0  0  0  0  0
   16.4314    3.2052    6.4913 H   0  0  0  0  0  0  0  0  0  0  0  0
   17.3688    1.7256    6.6656 H   0  0  0  0  0  0  0  0  0  0  0  0
   13.0034    0.1319    1.9008 H   0  0  0  0  0  0  0  0  0  0  0  0
   11.6397   -1.5915    0.8234 H   0  0  0  0  0  0  0  0  0  0  0  0
    6.9716   -0.0822    2.1068 H   0  0  0  0  0  0  0  0  0  0  0  0
    2.6457   -0.4553   -1.8068 H   0  0  0  0  0  0  0  0  0  0  0  0
  1  2  1  0  0  0  0
  1 32  1  0  0  0  0
  1 33  1  0  0  0  0
  2  3  1  0  0  0  0
  2 31  2  0  0  0  0
  3  4  2  0  0  0  0
  3 34  1  0  0  0  0
  4  5  1  0  0  0  0
  5  6  1  0  0  0  0
  5 30  2  0  0  0  0
  6  7  1  0  0  0  0
  6 29  2  0  0  0  0
  7  8  2  0  0  0  0
  7 35  1  0  0  0  0
  8  9  1  0  0  0  0
  8 36  1  0  0  0  0
  9 10  1  0  0  0  0
  9 28  1  0  0  0  0
 10 11  1  0  0  0  0
 10 26  2  0  0  0  0
 11 12  1  0  0  0  0
 11 25  2  0  0  0  0
 12 13  2  0  0  0  0
 12 37  1  0  0  0  0
 13 14  1  0  0  0  0
 13 38  1  0  0  0  0
 14 15  2  0  0  0  0
 14 39  1  0  0  0  0
 15 16  1  0  0  0  0
 15 25  1  0  0  0  0
 16 17  1  0  0  0  0
 16 40  1  0  0  0  0
 17 18  2  0  0  0  0
 17 19  1  0  0  0  0
 19 20  1  0  0  0  0
 19 41  1  0  0  0  0
 20 21  1  0  0  0  0
 20 42  1  0  0  0  0
 20 43  1  0  0  0  0
 21 22  1  0  0  0  0
 21 23  1  0  0  0  0
 21 24  1  0  0  0  0
 25 44  1  0  0  0  0
 26 27  1  0  0  0  0
 26 45  1  0  0  0  0
 27 28  2  0  0  0  0
 28 29  1  0  0  0  0
 29 46  1  0  0  0  0
 30 31  1  0  0  0  0
 31 47  1  0  0  0  0
M  END
$$$$
