CHEMBL4228868
 OpenBabel04072215383D

 45 47  0  0  0  0  0  0  0  0999 V2000
    2.2181    3.7995    0.6403 C   0  0  0  0  0  0  0  0  0  0  0  0
    3.4777    3.2574    0.1946 N   0  0  0  0  0  0  0  0  0  0  0  0
    4.2594    2.5018    1.0450 C   0  0  0  0  0  0  0  0  0  0  0  0
    3.9589    2.2701    2.2119 O   0  0  0  0  0  0  0  0  0  0  0  0
    5.4914    1.9212    0.4686 C   0  0  0  0  0  0  0  0  0  0  0  0
    6.2022    2.5123   -0.5757 C   0  0  0  0  0  0  0  0  0  0  0  0
    7.3414    1.8737   -1.0730 C   0  0  0  0  0  0  0  0  0  0  0  0
    7.7393    0.6626   -0.5129 C   0  0  0  0  0  0  0  0  0  0  0  0
    9.1350   -0.1940   -1.2264 S   0  0  0  0  0  0  0  0  0  0  0  0
    9.8219   -1.0300    0.1909 C   0  0  0  0  0  0  0  0  0  0  0  0
    9.3274   -2.2771    0.5859 C   0  0  0  0  0  0  0  0  0  0  0  0
    9.8499   -2.9105    1.7081 C   0  0  0  0  0  0  0  0  0  0  0  0
   10.8858   -2.3091    2.4165 C   0  0  0  0  0  0  0  0  0  0  0  0
   11.4485   -1.0959    1.9829 C   0  0  0  0  0  0  0  0  0  0  0  0
   12.6022   -0.6872    2.6772 N   0  0  0  0  0  0  0  0  0  0  0  0
   13.6742    0.1105    2.3261 C   0  0  0  0  0  0  0  0  0  0  0  0
   13.7350    1.4268    1.3085 S   0  0  0  0  0  0  0  0  0  0  0  0
   14.8409   -0.2435    2.9914 N   0  0  0  0  0  0  0  0  0  0  0  0
   15.2094   -1.5468    3.4011 C   0  0  0  0  0  0  0  0  0  0  0  0
   14.6905   -2.6881    2.7712 C   0  0  0  0  0  0  0  0  0  0  0  0
   14.9701   -3.9619    3.2656 C   0  0  0  0  0  0  0  0  0  0  0  0
   15.7892   -4.0937    4.3730 C   0  0  0  0  0  0  0  0  0  0  0  0
   16.0046   -5.3213    4.8693 F   0  0  0  0  0  0  0  0  0  0  0  0
   16.3754   -2.9707    4.9593 C   0  0  0  0  0  0  0  0  0  0  0  0
   17.4023   -3.1412    6.3304 Cl  0  0  0  0  0  0  0  0  0  0  0  0
   16.1045   -1.6922    4.4598 C   0  0  0  0  0  0  0  0  0  0  0  0
   10.8966   -0.4526    0.8789 C   0  0  0  0  0  0  0  0  0  0  0  0
    7.0713    0.0839    0.5108 N   0  0  0  0  0  0  0  0  0  0  0  0
    5.9774    0.7304    0.9894 C   0  0  0  0  0  0  0  0  0  0  0  0
    1.7116    4.2583   -0.2117 H   0  0  0  0  0  0  0  0  0  0  0  0
    2.4065    4.5510    1.4119 H   0  0  0  0  0  0  0  0  0  0  0  0
    1.5998    2.9990    1.0555 H   0  0  0  0  0  0  0  0  0  0  0  0
    3.6769    3.2713   -0.7958 H   0  0  0  0  0  0  0  0  0  0  0  0
    5.9006    3.4652   -0.9989 H   0  0  0  0  0  0  0  0  0  0  0  0
    7.9033    2.3199   -1.8875 H   0  0  0  0  0  0  0  0  0  0  0  0
    8.5198   -2.7493    0.0311 H   0  0  0  0  0  0  0  0  0  0  0  0
    9.4599   -3.8754    2.0215 H   0  0  0  0  0  0  0  0  0  0  0  0
   11.2898   -2.8338    3.2803 H   0  0  0  0  0  0  0  0  0  0  0  0
   12.7851   -1.2226    3.5172 H   0  0  0  0  0  0  0  0  0  0  0  0
   15.5325    0.4939    3.0837 H   0  0  0  0  0  0  0  0  0  0  0  0
   14.0721   -2.6067    1.8791 H   0  0  0  0  0  0  0  0  0  0  0  0
   14.5385   -4.8420    2.7941 H   0  0  0  0  0  0  0  0  0  0  0  0
   16.5399   -0.8219    4.9422 H   0  0  0  0  0  0  0  0  0  0  0  0
   11.2651    0.5077    0.5448 H   0  0  0  0  0  0  0  0  0  0  0  0
    5.4802    0.2342    1.8197 H   0  0  0  0  0  0  0  0  0  0  0  0
  1  2  1  0  0  0  0
  1 30  1  0  0  0  0
  1 31  1  0  0  0  0
  1 32  1  0  0  0  0
  2  3  1  0  0  0  0
  2 33  1  0  0  0  0
  3  4  2  0  0  0  0
  3  5  1  0  0  0  0
  5  6  1  0  0  0  0
  5 29  2  0  0  0  0
  6  7  2  0  0  0  0
  6 34  1  0  0  0  0
  7  8  1  0  0  0  0
  7 35  1  0  0  0  0
  8  9  1  0  0  0  0
  8 28  2  0  0  0  0
  9 10  1  0  0  0  0
 10 11  1  0  0  0  0
 10 27  2  0  0  0  0
 11 12  2  0  0  0  0
 11 36  1  0  0  0  0
 12 13  1  0  0  0  0
 12 37  1  0  0  0  0
 13 14  2  0  0  0  0
 13 38  1  0  0  0  0
 14 15  1  0  0  0  0
 14 27  1  0  0  0  0
 15 16  1  0  0  0  0
 15 39  1  0  0  0  0
 16 17  2  0  0  0  0
 16 18  1  0  0  0  0
 18 19  1  0  0  0  0
 18 40  1  0  0  0  0
 19 20  1  0  0  0  0
 19 26  2  0  0  0  0
 20 21  2  0  0  0  0
 20 41  1  0  0  0  0
 21 22  1  0  0  0  0
 21 42  1  0  0  0  0
 22 23  1  0  0  0  0
 22 24  2  0  0  0  0
 24 25  1  0  0  0  0
 24 26  1  0  0  0  0
 26 43  1  0  0  0  0
 27 44  1  0  0  0  0
 28 29  1  0  0  0  0
 29 45  1  0  0  0  0
M  END
$$$$
