CHEMBL370199
 OpenBabel04072215373D

 29 30  0  0  0  0  0  0  0  0999 V2000
    1.1961   -0.6487   -0.8293 C   0  0  0  0  0  0  0  0  0  0  0  0
    2.6017   -0.4790   -0.6654 O   0  0  0  0  0  0  0  0  0  0  0  0
    3.1858   -1.4149    0.1079 C   0  0  0  0  0  0  0  0  0  0  0  0
    2.6549   -2.3778    0.6373 O   0  0  0  0  0  0  0  0  0  0  0  0
    4.7091   -1.1846    0.2036 C   0  0  0  0  0  0  0  0  0  0  0  0
    5.2478   -0.2405   -0.3545 O   0  0  0  0  0  0  0  0  0  0  0  0
    5.3429   -2.2326    0.8614 N   0  0  0  0  0  0  0  0  0  0  0  0
    6.7246   -2.2812    0.9538 C   0  0  0  0  0  0  0  0  0  0  0  0
    7.5534   -1.2693    1.4673 C   0  0  0  0  0  0  0  0  0  0  0  0
    7.1621   -0.0442    2.1572 C   0  0  0  0  0  0  0  0  0  0  0  0
    8.1617    0.8221    2.5067 N   0  0  0  0  0  0  0  0  0  0  0  0
    6.0121    0.2332    2.4968 O   0  0  0  0  0  0  0  0  0  0  0  0
    9.2558   -1.6925    1.2996 S   0  0  0  0  0  0  0  0  0  0  0  0
    8.8369   -3.1684    0.6825 C   0  0  0  0  0  0  0  0  0  0  0  0
    9.4286   -4.2818    0.2028 N   0  0  0  0  0  0  0  0  0  0  0  0
    8.5150   -5.2083   -0.2056 N   0  0  0  0  0  0  0  0  0  0  0  0
    7.3182   -4.6198    0.0173 C   0  0  0  0  0  0  0  0  0  0  0  0
    6.0568   -5.3023   -0.3486 C   0  0  0  0  0  0  0  0  0  0  0  0
    7.5208   -3.3636    0.5801 C   0  0  0  0  0  0  0  0  0  0  0  0
    0.8417    0.1194   -1.5241 H   0  0  0  0  0  0  0  0  0  0  0  0
    0.6859   -0.5154    0.1275 H   0  0  0  0  0  0  0  0  0  0  0  0
    0.9694   -1.6306   -1.2577 H   0  0  0  0  0  0  0  0  0  0  0  0
    4.8131   -3.0963    0.9066 H   0  0  0  0  0  0  0  0  0  0  0  0
    9.1341    0.6219    2.3271 H   0  0  0  0  0  0  0  0  0  0  0  0
    7.9023    1.6503    3.0225 H   0  0  0  0  0  0  0  0  0  0  0  0
   10.4156   -4.4916    0.1013 H   0  0  0  0  0  0  0  0  0  0  0  0
    6.2428   -6.2784   -0.8077 H   0  0  0  0  0  0  0  0  0  0  0  0
    5.4879   -4.6976   -1.0623 H   0  0  0  0  0  0  0  0  0  0  0  0
    5.4372   -5.4596    0.5403 H   0  0  0  0  0  0  0  0  0  0  0  0
  1  2  1  0  0  0  0
  1 20  1  0  0  0  0
  1 21  1  0  0  0  0
  1 22  1  0  0  0  0
  2  3  1  0  0  0  0
  3  4  2  0  0  0  0
  3  5  1  0  0  0  0
  5  6  2  0  0  0  0
  5  7  1  0  0  0  0
  7  8  1  0  0  0  0
  7 23  1  0  0  0  0
  8  9  2  0  0  0  0
  8 19  1  0  0  0  0
  9 10  1  0  0  0  0
  9 13  1  0  0  0  0
 10 11  1  0  0  0  0
 10 12  2  0  0  0  0
 11 24  1  0  0  0  0
 11 25  1  0  0  0  0
 13 14  1  0  0  0  0
 14 15  1  0  0  0  0
 14 19  2  0  0  0  0
 15 16  1  0  0  0  0
 15 26  1  0  0  0  0
 16 17  2  0  0  0  0
 17 18  1  0  0  0  0
 17 19  1  0  0  0  0
 18 27  1  0  0  0  0
 18 28  1  0  0  0  0
 18 29  1  0  0  0  0
M  END
$$$$
