CHEMBL3931966
 OpenBabel04072215373D

 57 60  0  0  0  0  0  0  0  0999 V2000
    2.6246    0.2223    0.1030 C   0  0  0  0  0  0  0  0  0  0  0  0
    1.1286    0.0791    0.1544 C   0  0  0  0  0  0  0  0  0  0  0  0
    0.3807    1.2757    0.2240 C   0  0  0  0  0  0  0  0  0  0  0  0
   -1.0143    1.2755    0.1714 C   0  0  0  0  0  0  0  0  0  0  0  0
   -1.7795    2.4181    0.2539 O   0  0  0  0  0  0  0  0  0  0  0  0
   -1.3395    3.5442   -0.4343 C   0  0  0  0  0  0  0  0  0  0  0  0
   -1.7825    4.7692    0.0235 C   0  0  0  0  0  0  0  0  0  0  0  0
   -1.3348    5.8662   -0.6808 C   0  0  0  0  0  0  0  0  0  0  0  0
   -1.7661    7.1460   -0.2905 N   0  0  0  0  0  0  0  0  0  0  0  0
   -1.4540    8.3021   -0.9776 C   0  0  0  0  0  0  0  0  0  0  0  0
   -0.7851    8.4109   -1.9955 O   0  0  0  0  0  0  0  0  0  0  0  0
   -2.0167    9.5386   -0.3506 C   0  0  0  0  0  0  0  0  0  0  0  0
   -1.8922   10.8755   -1.0523 C   0  0  0  0  0  0  0  0  0  0  0  0
   -1.0596   10.5913    0.1626 C   0  0  0  0  0  0  0  0  0  0  0  0
   -0.5006    5.7456   -1.7202 N   0  0  0  0  0  0  0  0  0  0  0  0
   -0.1465    4.5164   -2.0921 C   0  0  0  0  0  0  0  0  0  0  0  0
   -0.5452    3.3898   -1.5069 N   0  0  0  0  0  0  0  0  0  0  0  0
   -1.6828    0.0644    0.0972 C   0  0  0  0  0  0  0  0  0  0  0  0
   -0.9572   -1.1318    0.0635 C   0  0  0  0  0  0  0  0  0  0  0  0
    0.4458   -1.1557    0.1096 C   0  0  0  0  0  0  0  0  0  0  0  0
    1.1691   -2.3861    0.1354 N   0  0  0  0  0  0  0  0  0  0  0  0
    0.6193   -3.6438    0.3605 C   0  0  0  0  0  0  0  0  0  0  0  0
   -0.5750   -3.8813    0.5185 O   0  0  0  0  0  0  0  0  0  0  0  0
    1.5850   -4.6375    0.4712 N   0  0  0  0  0  0  0  0  0  0  0  0
    1.1977   -5.9784    0.7437 C   0  0  0  0  0  0  0  0  0  0  0  0
    1.8517   -6.6712    1.7617 C   0  0  0  0  0  0  0  0  0  0  0  0
    1.4112   -7.9460    2.1214 C   0  0  0  0  0  0  0  0  0  0  0  0
    0.3596   -8.5650    1.4365 C   0  0  0  0  0  0  0  0  0  0  0  0
   -0.1326  -10.1220    1.9997 Cl  0  0  0  0  0  0  0  0  0  0  0  0
   -0.2646   -7.9188    0.3602 C   0  0  0  0  0  0  0  0  0  0  0  0
   -1.3601   -8.5596   -0.4662 C   0  0  0  0  0  0  0  0  0  0  0  0
   -2.7457   -8.3590    0.1306 C   0  0  0  0  0  0  0  0  0  0  0  0
   -1.3994   -8.0470   -1.7371 F   0  0  0  0  0  0  0  0  0  0  0  0
   -1.1751   -9.8991   -0.6572 F   0  0  0  0  0  0  0  0  0  0  0  0
    0.1599   -6.6108    0.0417 C   0  0  0  0  0  0  0  0  0  0  0  0
    2.9314    1.2632    0.3010 H   0  0  0  0  0  0  0  0  0  0  0  0
    2.9930   -0.0344   -0.8960 H   0  0  0  0  0  0  0  0  0  0  0  0
    3.1096   -0.3972    0.8550 H   0  0  0  0  0  0  0  0  0  0  0  0
    0.9054    2.2256    0.2990 H   0  0  0  0  0  0  0  0  0  0  0  0
   -2.4418    4.8400    0.8758 H   0  0  0  0  0  0  0  0  0  0  0  0
   -2.3545    7.2173    0.5248 H   0  0  0  0  0  0  0  0  0  0  0  0
   -2.9374    9.3965    0.2064 H   0  0  0  0  0  0  0  0  0  0  0  0
   -2.7062   11.5839   -0.9589 H   0  0  0  0  0  0  0  0  0  0  0  0
   -1.3902   10.9103   -2.0150 H   0  0  0  0  0  0  0  0  0  0  0  0
   -1.3082   11.1088    1.0804 H   0  0  0  0  0  0  0  0  0  0  0  0
    0.0042   10.4372    0.0097 H   0  0  0  0  0  0  0  0  0  0  0  0
    0.5301    4.4309   -2.9338 H   0  0  0  0  0  0  0  0  0  0  0  0
   -2.7679    0.0297    0.0559 H   0  0  0  0  0  0  0  0  0  0  0  0
   -1.5423   -2.0407   -0.0267 H   0  0  0  0  0  0  0  0  0  0  0  0
    2.1700   -2.3306    0.0313 H   0  0  0  0  0  0  0  0  0  0  0  0
    2.4531   -4.3346    0.8828 H   0  0  0  0  0  0  0  0  0  0  0  0
    2.6515   -6.2073    2.3327 H   0  0  0  0  0  0  0  0  0  0  0  0
    1.8863   -8.4527    2.9641 H   0  0  0  0  0  0  0  0  0  0  0  0
   -3.0224   -7.2999    0.1391 H   0  0  0  0  0  0  0  0  0  0  0  0
   -2.8147   -8.7494    1.1506 H   0  0  0  0  0  0  0  0  0  0  0  0
   -3.4898   -8.8884   -0.4741 H   0  0  0  0  0  0  0  0  0  0  0  0
   -0.3316   -6.0791   -0.7758 H   0  0  0  0  0  0  0  0  0  0  0  0
  1  2  1  0  0  0  0
  1 36  1  0  0  0  0
  1 37  1  0  0  0  0
  1 38  1  0  0  0  0
  2  3  1  0  0  0  0
  2 20  2  0  0  0  0
  3  4  2  0  0  0  0
  3 39  1  0  0  0  0
  4  5  1  0  0  0  0
  4 18  1  0  0  0  0
  5  6  1  0  0  0  0
  6  7  1  0  0  0  0
  6 17  2  0  0  0  0
  7  8  2  0  0  0  0
  7 40  1  0  0  0  0
  8  9  1  0  0  0  0
  8 15  1  0  0  0  0
  9 10  1  0  0  0  0
  9 41  1  0  0  0  0
 10 11  2  0  0  0  0
 10 12  1  0  0  0  0
 12 13  1  0  0  0  0
 12 14  1  0  0  0  0
 12 42  1  0  0  0  0
 13 14  1  0  0  0  0
 13 43  1  0  0  0  0
 13 44  1  0  0  0  0
 14 45  1  0  0  0  0
 14 46  1  0  0  0  0
 15 16  2  0  0  0  0
 16 17  1  0  0  0  0
 16 47  1  0  0  0  0
 18 19  2  0  0  0  0
 18 48  1  0  0  0  0
 19 20  1  0  0  0  0
 19 49  1  0  0  0  0
 20 21  1  0  0  0  0
 21 22  1  0  0  0  0
 21 50  1  0  0  0  0
 22 23  2  0  0  0  0
 22 24  1  0  0  0  0
 24 25  1  0  0  0  0
 24 51  1  0  0  0  0
 25 26  1  0  0  0  0
 25 35  2  0  0  0  0
 26 27  2  0  0  0  0
 26 52  1  0  0  0  0
 27 28  1  0  0  0  0
 27 53  1  0  0  0  0
 28 29  1  0  0  0  0
 28 30  2  0  0  0  0
 30 31  1  0  0  0  0
 30 35  1  0  0  0  0
 31 32  1  0  0  0  0
 31 33  1  0  0  0  0
 31 34  1  0  0  0  0
 32 54  1  0  0  0  0
 32 55  1  0  0  0  0
 32 56  1  0  0  0  0
 35 57  1  0  0  0  0
M  END
$$$$
