CHEMBL69638
 OpenBabel04072215383D

 50 54  0  0  0  0  0  0  0  0999 V2000
    1.0057    0.2525    0.0637 N   0  0  0  0  0  0  0  0  0  0  0  0
    2.3849    0.0705    0.0595 C   0  0  0  0  0  0  0  0  0  0  0  0
    3.1257    1.1991    0.0625 N   0  0  0  0  0  0  0  0  0  0  0  0
    4.4654    1.0866    0.0438 C   0  0  0  0  0  0  0  0  0  0  0  0
    5.2035   -0.0327    0.0383 N   0  0  0  0  0  0  0  0  0  0  0  0
    4.4367   -1.1366    0.0306 C   0  0  0  0  0  0  0  0  0  0  0  0
    3.0434   -1.1787    0.0281 C   0  0  0  0  0  0  0  0  0  0  0  0
    2.6766   -2.5704   -0.0278 C   0  0  0  0  0  0  0  0  0  0  0  0
    1.3726   -3.2237   -0.1007 C   0  0  0  0  0  0  0  0  0  0  0  0
    0.3045   -2.6102   -0.7645 C   0  0  0  0  0  0  0  0  0  0  0  0
   -0.9763   -3.1578   -0.7266 C   0  0  0  0  0  0  0  0  0  0  0  0
   -1.1814   -4.3881   -0.1142 C   0  0  0  0  0  0  0  0  0  0  0  0
   -0.0926   -5.0964    0.3958 C   0  0  0  0  0  0  0  0  0  0  0  0
   -0.1722   -6.3837    0.8772 O   0  0  0  0  0  0  0  0  0  0  0  0
   -1.0022   -7.2856    0.2445 C   0  0  0  0  0  0  0  0  0  0  0  0
   -1.3522   -7.2370   -1.1094 C   0  0  0  0  0  0  0  0  0  0  0  0
   -2.2837   -8.1381   -1.6259 C   0  0  0  0  0  0  0  0  0  0  0  0
   -2.8097   -9.1362   -0.8094 C   0  0  0  0  0  0  0  0  0  0  0  0
   -2.3918   -9.2453    0.5166 C   0  0  0  0  0  0  0  0  0  0  0  0
   -1.4887   -8.3207    1.0434 C   0  0  0  0  0  0  0  0  0  0  0  0
    1.1633   -4.4885    0.4666 C   0  0  0  0  0  0  0  0  0  0  0  0
    3.8560   -3.2938   -0.0228 C   0  0  0  0  0  0  0  0  0  0  0  0
    4.9145   -2.4179    0.0133 N   0  0  0  0  0  0  0  0  0  0  0  0
    6.3135   -2.7992    0.0216 C   0  0  0  0  0  0  0  0  0  0  0  0
    6.7441   -3.6754   -1.1607 C   0  0  0  0  0  0  0  0  0  0  0  0
    8.0118   -4.3875   -0.6914 C   0  0  0  0  0  0  0  0  0  0  0  0
    8.0630   -4.2385    0.8286 C   0  0  0  0  0  0  0  0  0  0  0  0
    6.7249   -3.6344    1.2361 C   0  0  0  0  0  0  0  0  0  0  0  0
    0.7620    1.2152    0.2670 H   0  0  0  0  0  0  0  0  0  0  0  0
    0.4806   -0.4557    0.5653 H   0  0  0  0  0  0  0  0  0  0  0  0
    5.0176    2.0219    0.0279 H   0  0  0  0  0  0  0  0  0  0  0  0
    0.4518   -1.6874   -1.3195 H   0  0  0  0  0  0  0  0  0  0  0  0
   -1.8058   -2.6333   -1.1925 H   0  0  0  0  0  0  0  0  0  0  0  0
   -2.1814   -4.8108   -0.0950 H   0  0  0  0  0  0  0  0  0  0  0  0
   -0.9339   -6.4845   -1.7731 H   0  0  0  0  0  0  0  0  0  0  0  0
   -2.6014   -8.0535   -2.6615 H   0  0  0  0  0  0  0  0  0  0  0  0
   -3.5404   -9.8345   -1.2091 H   0  0  0  0  0  0  0  0  0  0  0  0
   -2.7794  -10.0415    1.1451 H   0  0  0  0  0  0  0  0  0  0  0  0
   -1.1741   -8.3988    2.0806 H   0  0  0  0  0  0  0  0  0  0  0  0
    1.9723   -5.0252    0.9522 H   0  0  0  0  0  0  0  0  0  0  0  0
    4.0296   -4.3634   -0.0582 H   0  0  0  0  0  0  0  0  0  0  0  0
    6.9181   -1.8837    0.0093 H   0  0  0  0  0  0  0  0  0  0  0  0
    6.9200   -3.0817   -2.0637 H   0  0  0  0  0  0  0  0  0  0  0  0
    5.9848   -4.4247   -1.4131 H   0  0  0  0  0  0  0  0  0  0  0  0
    8.9029   -3.9396   -1.1446 H   0  0  0  0  0  0  0  0  0  0  0  0
    7.9930   -5.4423   -0.9871 H   0  0  0  0  0  0  0  0  0  0  0  0
    8.8806   -3.5625    1.1052 H   0  0  0  0  0  0  0  0  0  0  0  0
    8.2455   -5.1954    1.3278 H   0  0  0  0  0  0  0  0  0  0  0  0
    6.8097   -3.0302    2.1449 H   0  0  0  0  0  0  0  0  0  0  0  0
    6.0063   -4.4377    1.4407 H   0  0  0  0  0  0  0  0  0  0  0  0
  1  2  1  0  0  0  0
  1 29  1  0  0  0  0
  1 30  1  0  0  0  0
  2  3  1  0  0  0  0
  2  7  2  0  0  0  0
  3  4  2  0  0  0  0
  4  5  1  0  0  0  0
  4 31  1  0  0  0  0
  5  6  2  0  0  0  0
  6  7  1  0  0  0  0
  6 23  1  0  0  0  0
  7  8  1  0  0  0  0
  8  9  1  0  0  0  0
  8 22  2  0  0  0  0
  9 10  1  0  0  0  0
  9 21  2  0  0  0  0
 10 11  2  0  0  0  0
 10 32  1  0  0  0  0
 11 12  1  0  0  0  0
 11 33  1  0  0  0  0
 12 13  2  0  0  0  0
 12 34  1  0  0  0  0
 13 14  1  0  0  0  0
 13 21  1  0  0  0  0
 14 15  1  0  0  0  0
 15 16  1  0  0  0  0
 15 20  2  0  0  0  0
 16 17  2  0  0  0  0
 16 35  1  0  0  0  0
 17 18  1  0  0  0  0
 17 36  1  0  0  0  0
 18 19  2  0  0  0  0
 18 37  1  0  0  0  0
 19 20  1  0  0  0  0
 19 38  1  0  0  0  0
 20 39  1  0  0  0  0
 21 40  1  0  0  0  0
 22 23  1  0  0  0  0
 22 41  1  0  0  0  0
 23 24  1  0  0  0  0
 24 25  1  0  0  0  0
 24 28  1  0  0  0  0
 24 42  1  0  0  0  0
 25 26  1  0  0  0  0
 25 43  1  0  0  0  0
 25 44  1  0  0  0  0
 26 27  1  0  0  0  0
 26 45  1  0  0  0  0
 26 46  1  0  0  0  0
 27 28  1  0  0  0  0
 27 47  1  0  0  0  0
 27 48  1  0  0  0  0
 28 49  1  0  0  0  0
 28 50  1  0  0  0  0
M  END
$$$$
