CHEMBL2348991
 OpenBabel04072215363D

 53 57  0  0  0  0  0  0  0  0999 V2000
   -2.1159    0.8201    0.0406 C   0  0  0  0  0  0  0  0  0  0  0  0
   -1.8653   -0.6028   -0.2872 C   0  0  0  0  0  0  0  0  0  0  0  0
   -0.6939   -1.3735   -0.1099 C   0  0  0  0  0  0  0  0  0  0  0  0
   -1.0020   -2.6568   -0.5540 C   0  0  0  0  0  0  0  0  0  0  0  0
   -0.2233   -3.8792   -0.6123 C   0  0  0  0  0  0  0  0  0  0  0  0
   -0.6818   -4.8923   -1.1254 O   0  0  0  0  0  0  0  0  0  0  0  0
    1.0352   -3.8532   -0.0290 N   0  0  0  0  0  0  0  0  0  0  0  0
    1.9561   -4.9428   -0.0409 C   0  0  0  0  0  0  0  0  0  0  0  0
    1.8371   -6.0503   -0.8923 C   0  0  0  0  0  0  0  0  0  0  0  0
    2.7848   -7.0758   -0.8613 C   0  0  0  0  0  0  0  0  0  0  0  0
    2.6614   -8.0883   -1.8375 O   0  0  0  0  0  0  0  0  0  0  0  0
    2.9541   -9.4136   -1.5431 C   0  0  0  0  0  0  0  0  0  0  0  0
    3.2052  -10.1112   -2.8252 C   0  0  0  0  0  0  0  0  0  0  0  0
    3.5490  -11.4030   -2.7404 C   0  0  0  0  0  0  0  0  0  0  0  0
    3.6270  -12.0131   -1.4705 C   0  0  0  0  0  0  0  0  0  0  0  0
    3.9416  -13.2377   -1.1191 N   0  0  0  0  0  0  0  0  0  0  0  0
    3.8588  -13.2651    0.2414 C   0  0  0  0  0  0  0  0  0  0  0  0
    4.1054  -14.3847    1.0008 N   0  0  0  0  0  0  0  0  0  0  0  0
    4.4710  -15.6071    0.4762 C   0  0  0  0  0  0  0  0  0  0  0  0
    4.6702  -15.8942   -0.6913 O   0  0  0  0  0  0  0  0  0  0  0  0
    4.5922  -16.6761    1.5209 C   0  0  0  0  0  0  0  0  0  0  0  0
    5.1053  -18.0557    1.1663 C   0  0  0  0  0  0  0  0  0  0  0  0
    3.6485  -17.8569    1.4616 C   0  0  0  0  0  0  0  0  0  0  0  0
    3.4883  -12.0349    0.7360 C   0  0  0  0  0  0  0  0  0  0  0  0
    3.3417  -11.2299   -0.3637 N   0  0  0  0  0  0  0  0  0  0  0  0
    3.0036   -9.9078   -0.3477 N   0  0  0  0  0  0  0  0  0  0  0  0
    3.8832   -7.0117   -0.0078 C   0  0  0  0  0  0  0  0  0  0  0  0
    4.0110   -5.9209    0.8480 C   0  0  0  0  0  0  0  0  0  0  0  0
    3.0588   -4.8979    0.8225 C   0  0  0  0  0  0  0  0  0  0  0  0
    3.2102   -3.8558    1.6542 F   0  0  0  0  0  0  0  0  0  0  0  0
   -2.3112   -2.5517   -0.9947 N   0  0  0  0  0  0  0  0  0  0  0  0
   -3.1790   -3.5470   -1.5831 C   0  0  0  0  0  0  0  0  0  0  0  0
   -2.8435   -1.3258   -0.8274 N   0  0  0  0  0  0  0  0  0  0  0  0
   -1.2332    1.2914    0.4816 H   0  0  0  0  0  0  0  0  0  0  0  0
   -2.9406    0.9042    0.7567 H   0  0  0  0  0  0  0  0  0  0  0  0
   -2.3901    1.3801   -0.8599 H   0  0  0  0  0  0  0  0  0  0  0  0
    0.2473   -1.0264    0.2957 H   0  0  0  0  0  0  0  0  0  0  0  0
    1.2984   -3.0555    0.5335 H   0  0  0  0  0  0  0  0  0  0  0  0
    1.0365   -6.1344   -1.6195 H   0  0  0  0  0  0  0  0  0  0  0  0
    3.1408   -9.5742   -3.7607 H   0  0  0  0  0  0  0  0  0  0  0  0
    3.7782  -11.9985   -3.6176 H   0  0  0  0  0  0  0  0  0  0  0  0
    3.9846  -14.2929    1.9979 H   0  0  0  0  0  0  0  0  0  0  0  0
    4.8716  -16.3224    2.5092 H   0  0  0  0  0  0  0  0  0  0  0  0
    5.7034  -18.5868    1.8972 H   0  0  0  0  0  0  0  0  0  0  0  0
    5.3906  -18.2549    0.1377 H   0  0  0  0  0  0  0  0  0  0  0  0
    3.2583  -18.2478    2.3929 H   0  0  0  0  0  0  0  0  0  0  0  0
    2.9604  -17.9239    0.6249 H   0  0  0  0  0  0  0  0  0  0  0  0
    3.3183  -11.6537    1.7304 H   0  0  0  0  0  0  0  0  0  0  0  0
    4.6398   -7.7898   -0.0163 H   0  0  0  0  0  0  0  0  0  0  0  0
    4.8546   -5.8583    1.5282 H   0  0  0  0  0  0  0  0  0  0  0  0
   -2.6943   -4.5069   -1.7277 H   0  0  0  0  0  0  0  0  0  0  0  0
   -3.5072   -3.1763   -2.5583 H   0  0  0  0  0  0  0  0  0  0  0  0
   -4.0365   -3.6824   -0.9191 H   0  0  0  0  0  0  0  0  0  0  0  0
  1  2  1  0  0  0  0
  1 34  1  0  0  0  0
  1 35  1  0  0  0  0
  1 36  1  0  0  0  0
  2  3  1  0  0  0  0
  2 33  2  0  0  0  0
  3  4  2  0  0  0  0
  3 37  1  0  0  0  0
  4  5  1  0  0  0  0
  4 31  1  0  0  0  0
  5  6  2  0  0  0  0
  5  7  1  0  0  0  0
  7  8  1  0  0  0  0
  7 38  1  0  0  0  0
  8  9  1  0  0  0  0
  8 29  2  0  0  0  0
  9 10  2  0  0  0  0
  9 39  1  0  0  0  0
 10 11  1  0  0  0  0
 10 27  1  0  0  0  0
 11 12  1  0  0  0  0
 12 13  1  0  0  0  0
 12 26  2  0  0  0  0
 13 14  2  0  0  0  0
 13 40  1  0  0  0  0
 14 15  1  0  0  0  0
 14 41  1  0  0  0  0
 15 16  2  0  0  0  0
 15 25  1  0  0  0  0
 16 17  1  0  0  0  0
 17 18  1  0  0  0  0
 17 24  2  0  0  0  0
 18 19  1  0  0  0  0
 18 42  1  0  0  0  0
 19 20  2  0  0  0  0
 19 21  1  0  0  0  0
 21 22  1  0  0  0  0
 21 23  1  0  0  0  0
 21 43  1  0  0  0  0
 22 23  1  0  0  0  0
 22 44  1  0  0  0  0
 22 45  1  0  0  0  0
 23 46  1  0  0  0  0
 23 47  1  0  0  0  0
 24 25  1  0  0  0  0
 24 48  1  0  0  0  0
 25 26  1  0  0  0  0
 27 28  2  0  0  0  0
 27 49  1  0  0  0  0
 28 29  1  0  0  0  0
 28 50  1  0  0  0  0
 29 30  1  0  0  0  0
 31 32  1  0  0  0  0
 31 33  1  0  0  0  0
 32 51  1  0  0  0  0
 32 52  1  0  0  0  0
 32 53  1  0  0  0  0
M  END
$$$$
