CHEMBL237345
 OpenBabel04072215363D

 42 45  0  0  0  0  0  0  0  0999 V2000
   -1.3939    3.1376    0.2511 C   0  0  0  0  0  0  0  0  0  0  0  0
   -0.5588    2.5020    1.3275 C   0  0  0  0  0  0  0  0  0  0  0  0
   -1.1511    2.2982    2.5931 C   0  0  0  0  0  0  0  0  0  0  0  0
   -0.4502    1.6819    3.6299 C   0  0  0  0  0  0  0  0  0  0  0  0
    0.8408    1.2439    3.4011 C   0  0  0  0  0  0  0  0  0  0  0  0
    1.5688    0.6103    4.3637 O   0  0  0  0  0  0  0  0  0  0  0  0
    1.4494    1.4570    2.1709 C   0  0  0  0  0  0  0  0  0  0  0  0
    0.7850    2.1261    1.1272 C   0  0  0  0  0  0  0  0  0  0  0  0
    1.4978    2.4624   -0.0475 N   0  0  0  0  0  0  0  0  0  0  0  0
    2.9001    2.6553   -0.1695 C   0  0  0  0  0  0  0  0  0  0  0  0
    3.5869    3.3278    0.8500 C   0  0  0  0  0  0  0  0  0  0  0  0
    4.9626    3.3871    0.8043 C   0  0  0  0  0  0  0  0  0  0  0  0
    5.6953    2.8461   -0.1800 N   0  0  0  0  0  0  0  0  0  0  0  0
    5.0500    2.2088   -1.1700 C   0  0  0  0  0  0  0  0  0  0  0  0
    5.8176    1.6078   -2.1512 C   0  0  0  0  0  0  0  0  0  0  0  0
    5.2415    0.8984   -3.2090 C   0  0  0  0  0  0  0  0  0  0  0  0
    3.8521    0.7675   -3.3210 C   0  0  0  0  0  0  0  0  0  0  0  0
    3.2428   -0.0150   -4.4151 C   0  0  0  0  0  0  0  0  0  0  0  0
    3.8228   -1.2000   -4.8935 C   0  0  0  0  0  0  0  0  0  0  0  0
    3.2164   -1.9302   -5.9150 C   0  0  0  0  0  0  0  0  0  0  0  0
    2.0275   -1.4593   -6.4401 C   0  0  0  0  0  0  0  0  0  0  0  0
    1.4273   -0.3263   -6.0246 N   0  0  0  0  0  0  0  0  0  0  0  0
    2.0484    0.3625   -5.0337 C   0  0  0  0  0  0  0  0  0  0  0  0
    3.0698    1.3816   -2.3242 C   0  0  0  0  0  0  0  0  0  0  0  0
    3.6437    2.0940   -1.2380 C   0  0  0  0  0  0  0  0  0  0  0  0
   -2.4614    3.0867    0.5023 H   0  0  0  0  0  0  0  0  0  0  0  0
   -1.2767    2.6048   -0.6967 H   0  0  0  0  0  0  0  0  0  0  0  0
   -1.1231    4.1883    0.1231 H   0  0  0  0  0  0  0  0  0  0  0  0
   -2.1713    2.6269    2.7768 H   0  0  0  0  0  0  0  0  0  0  0  0
   -0.9281    1.5515    4.5966 H   0  0  0  0  0  0  0  0  0  0  0  0
    1.0115    0.4980    5.1506 H   0  0  0  0  0  0  0  0  0  0  0  0
    2.4633    1.0905    2.0319 H   0  0  0  0  0  0  0  0  0  0  0  0
    0.9554    2.7328   -0.8564 H   0  0  0  0  0  0  0  0  0  0  0  0
    3.0553    3.7779    1.6812 H   0  0  0  0  0  0  0  0  0  0  0  0
    5.5258    3.8788    1.5942 H   0  0  0  0  0  0  0  0  0  0  0  0
    6.9014    1.6746   -2.0823 H   0  0  0  0  0  0  0  0  0  0  0  0
    5.9071    0.4479   -3.9425 H   0  0  0  0  0  0  0  0  0  0  0  0
    4.7465   -1.5796   -4.4628 H   0  0  0  0  0  0  0  0  0  0  0  0
    3.6604   -2.8482   -6.2832 H   0  0  0  0  0  0  0  0  0  0  0  0
    1.5115   -1.9973   -7.2300 H   0  0  0  0  0  0  0  0  0  0  0  0
    1.5298    1.2740   -4.7475 H   0  0  0  0  0  0  0  0  0  0  0  0
    1.9875    1.2752   -2.3613 H   0  0  0  0  0  0  0  0  0  0  0  0
  1  2  1  0  0  0  0
  1 26  1  0  0  0  0
  1 27  1  0  0  0  0
  1 28  1  0  0  0  0
  2  3  1  0  0  0  0
  2  8  2  0  0  0  0
  3  4  2  0  0  0  0
  3 29  1  0  0  0  0
  4  5  1  0  0  0  0
  4 30  1  0  0  0  0
  5  6  1  0  0  0  0
  5  7  2  0  0  0  0
  6 31  1  0  0  0  0
  7  8  1  0  0  0  0
  7 32  1  0  0  0  0
  8  9  1  0  0  0  0
  9 10  1  0  0  0  0
  9 33  1  0  0  0  0
 10 11  1  0  0  0  0
 10 25  2  0  0  0  0
 11 12  2  0  0  0  0
 11 34  1  0  0  0  0
 12 13  1  0  0  0  0
 12 35  1  0  0  0  0
 13 14  2  0  0  0  0
 14 15  1  0  0  0  0
 14 25  1  0  0  0  0
 15 16  2  0  0  0  0
 15 36  1  0  0  0  0
 16 17  1  0  0  0  0
 16 37  1  0  0  0  0
 17 18  1  0  0  0  0
 17 24  2  0  0  0  0
 18 19  1  0  0  0  0
 18 23  2  0  0  0  0
 19 20  2  0  0  0  0
 19 38  1  0  0  0  0
 20 21  1  0  0  0  0
 20 39  1  0  0  0  0
 21 22  2  0  0  0  0
 21 40  1  0  0  0  0
 22 23  1  0  0  0  0
 23 41  1  0  0  0  0
 24 25  1  0  0  0  0
 24 42  1  0  0  0  0
M  END
$$$$
