CHEMBL3926270
 OpenBabel04072215373D

 61 66  0  0  0  0  0  0  0  0999 V2000
   -1.5905    1.0664   -2.1455 C   0  0  0  0  0  0  0  0  0  0  0  0
   -0.1833    1.2862   -2.3186 N   0  0  0  0  0  0  0  0  0  0  0  0
    0.3554    2.3714   -3.0063 C   0  0  0  0  0  0  0  0  0  0  0  0
   -0.2208    3.3064   -3.5336 O   0  0  0  0  0  0  0  0  0  0  0  0
    1.8550    2.1738   -3.0161 C   0  0  0  0  0  0  0  0  0  0  0  0
    2.8228    3.3254   -2.9993 C   0  0  0  0  0  0  0  0  0  0  0  0
    2.6527    2.5070   -4.2520 C   0  0  0  0  0  0  0  0  0  0  0  0
    2.0723    0.9089   -2.2416 C   0  0  0  0  0  0  0  0  0  0  0  0
    3.2236    0.2265   -1.8737 C   0  0  0  0  0  0  0  0  0  0  0  0
    3.1281   -0.9495   -1.1112 C   0  0  0  0  0  0  0  0  0  0  0  0
    4.2753   -1.6604   -0.6711 N   0  0  0  0  0  0  0  0  0  0  0  0
    5.5219   -1.0773   -0.5135 C   0  0  0  0  0  0  0  0  0  0  0  0
    5.7370    0.1244   -0.6199 O   0  0  0  0  0  0  0  0  0  0  0  0
    6.5173   -2.0116   -0.2358 N   0  0  0  0  0  0  0  0  0  0  0  0
    7.8463   -1.5646   -0.0184 C   0  0  0  0  0  0  0  0  0  0  0  0
    8.0977   -0.4531    0.7921 C   0  0  0  0  0  0  0  0  0  0  0  0
    9.3838    0.0761    0.8997 C   0  0  0  0  0  0  0  0  0  0  0  0
   10.4569   -0.5443    0.2575 C   0  0  0  0  0  0  0  0  0  0  0  0
   11.7579   -0.0818    0.3410 O   0  0  0  0  0  0  0  0  0  0  0  0
   12.2078    0.4466    1.5337 C   0  0  0  0  0  0  0  0  0  0  0  0
   11.7618   -0.0150    2.7693 C   0  0  0  0  0  0  0  0  0  0  0  0
   12.2085    0.6333    3.8968 C   0  0  0  0  0  0  0  0  0  0  0  0
   13.0999    1.6360    3.8647 N   0  0  0  0  0  0  0  0  0  0  0  0
   13.6034    2.0329    2.6839 C   0  0  0  0  0  0  0  0  0  0  0  0
   14.5744    3.0552    2.6679 N   0  0  0  0  0  0  0  0  0  0  0  0
   15.0413    3.6809    3.8115 C   0  0  0  0  0  0  0  0  0  0  0  0
   14.7233    3.4444    4.9688 O   0  0  0  0  0  0  0  0  0  0  0  0
   16.0511    4.7689    3.6290 C   0  0  0  0  0  0  0  0  0  0  0  0
   16.5349    5.3629    2.3347 C   0  0  0  0  0  0  0  0  0  0  0  0
   17.4281    4.4326    3.1051 C   0  0  0  0  0  0  0  0  0  0  0  0
   13.1770    1.4597    1.4863 C   0  0  0  0  0  0  0  0  0  0  0  0
   10.2126   -1.6632   -0.5476 C   0  0  0  0  0  0  0  0  0  0  0  0
    8.9136   -2.1889   -0.6680 C   0  0  0  0  0  0  0  0  0  0  0  0
    1.8561   -1.4518   -0.7742 C   0  0  0  0  0  0  0  0  0  0  0  0
    0.6879   -0.7660   -1.1397 C   0  0  0  0  0  0  0  0  0  0  0  0
    0.8211    0.4087   -1.8579 C   0  0  0  0  0  0  0  0  0  0  0  0
   -2.1631    1.9042   -2.5575 H   0  0  0  0  0  0  0  0  0  0  0  0
   -1.8207    0.9695   -1.0815 H   0  0  0  0  0  0  0  0  0  0  0  0
   -1.8781    0.1531   -2.6751 H   0  0  0  0  0  0  0  0  0  0  0  0
    3.7554    3.2236   -2.4565 H   0  0  0  0  0  0  0  0  0  0  0  0
    2.4197    4.3324   -2.9960 H   0  0  0  0  0  0  0  0  0  0  0  0
    3.4596    1.8484   -4.5465 H   0  0  0  0  0  0  0  0  0  0  0  0
    2.1302    2.9675   -5.0847 H   0  0  0  0  0  0  0  0  0  0  0  0
    4.1809    0.6274   -2.1899 H   0  0  0  0  0  0  0  0  0  0  0  0
    4.1233   -2.5182   -0.1591 H   0  0  0  0  0  0  0  0  0  0  0  0
    6.4041   -2.8991   -0.7050 H   0  0  0  0  0  0  0  0  0  0  0  0
    7.2868    0.0339    1.3299 H   0  0  0  0  0  0  0  0  0  0  0  0
    9.5235    0.9753    1.4932 H   0  0  0  0  0  0  0  0  0  0  0  0
   11.0573   -0.8317    2.8661 H   0  0  0  0  0  0  0  0  0  0  0  0
   11.8457    0.3691    4.8844 H   0  0  0  0  0  0  0  0  0  0  0  0
   14.9518    3.3279    1.7762 H   0  0  0  0  0  0  0  0  0  0  0  0
   16.0265    5.4639    4.4683 H   0  0  0  0  0  0  0  0  0  0  0  0
   16.7873    6.4202    2.3452 H   0  0  0  0  0  0  0  0  0  0  0  0
   16.1365    5.0300    1.3880 H   0  0  0  0  0  0  0  0  0  0  0  0
   18.2747    4.8486    3.6416 H   0  0  0  0  0  0  0  0  0  0  0  0
   17.6056    3.4409    2.7063 H   0  0  0  0  0  0  0  0  0  0  0  0
   13.5688    1.7868    0.5298 H   0  0  0  0  0  0  0  0  0  0  0  0
   11.0289   -2.1200   -1.1015 H   0  0  0  0  0  0  0  0  0  0  0  0
    8.7456   -3.0368   -1.3261 H   0  0  0  0  0  0  0  0  0  0  0  0
    1.7593   -2.3653   -0.1932 H   0  0  0  0  0  0  0  0  0  0  0  0
   -0.2853   -1.1455   -0.8494 H   0  0  0  0  0  0  0  0  0  0  0  0
  1  2  1  0  0  0  0
  1 37  1  0  0  0  0
  1 38  1  0  0  0  0
  1 39  1  0  0  0  0
  2  3  1  0  0  0  0
  2 36  1  0  0  0  0
  3  4  2  0  0  0  0
  3  5  1  0  0  0  0
  5  6  1  0  0  0  0
  5  7  1  0  0  0  0
  5  8  1  0  0  0  0
  6  7  1  0  0  0  0
  6 40  1  0  0  0  0
  6 41  1  0  0  0  0
  7 42  1  0  0  0  0
  7 43  1  0  0  0  0
  8  9  1  0  0  0  0
  8 36  2  0  0  0  0
  9 10  2  0  0  0  0
  9 44  1  0  0  0  0
 10 11  1  0  0  0  0
 10 34  1  0  0  0  0
 11 12  1  0  0  0  0
 11 45  1  0  0  0  0
 12 13  2  0  0  0  0
 12 14  1  0  0  0  0
 14 15  1  0  0  0  0
 14 46  1  0  0  0  0
 15 16  1  0  0  0  0
 15 33  2  0  0  0  0
 16 17  2  0  0  0  0
 16 47  1  0  0  0  0
 17 18  1  0  0  0  0
 17 48  1  0  0  0  0
 18 19  1  0  0  0  0
 18 32  2  0  0  0  0
 19 20  1  0  0  0  0
 20 21  1  0  0  0  0
 20 31  2  0  0  0  0
 21 22  2  0  0  0  0
 21 49  1  0  0  0  0
 22 23  1  0  0  0  0
 22 50  1  0  0  0  0
 23 24  2  0  0  0  0
 24 25  1  0  0  0  0
 24 31  1  0  0  0  0
 25 26  1  0  0  0  0
 25 51  1  0  0  0  0
 26 27  2  0  0  0  0
 26 28  1  0  0  0  0
 28 29  1  0  0  0  0
 28 30  1  0  0  0  0
 28 52  1  0  0  0  0
 29 30  1  0  0  0  0
 29 53  1  0  0  0  0
 29 54  1  0  0  0  0
 30 55  1  0  0  0  0
 30 56  1  0  0  0  0
 31 57  1  0  0  0  0
 32 33  1  0  0  0  0
 32 58  1  0  0  0  0
 33 59  1  0  0  0  0
 34 35  2  0  0  0  0
 34 60  1  0  0  0  0
 35 36  1  0  0  0  0
 35 61  1  0  0  0  0
M  END
$$$$
