CHEMBL2088090
 OpenBabel04072215363D

 31 32  0  0  0  0  0  0  0  0999 V2000
    4.1710    0.2458   -2.6019 C   0  0  0  0  0  0  0  0  0  0  0  0
    3.7740    0.6492   -1.3871 C   0  0  0  0  0  0  0  0  0  0  0  0
    4.6892    1.2374   -0.3562 C   0  0  0  0  0  0  0  0  0  0  0  0
    4.5155    0.4795    0.8670 N   0  0  0  0  0  0  0  0  0  0  0  0
    5.3812    0.8725    1.8843 C   0  0  0  0  0  0  0  0  0  0  0  0
    5.0836    0.4763    3.1256 N   0  0  0  0  0  0  0  0  0  0  0  0
    5.9184    0.8694    4.1077 C   0  0  0  0  0  0  0  0  0  0  0  0
    7.0724    1.5797    3.8888 C   0  0  0  0  0  0  0  0  0  0  0  0
    8.1977    2.0435    5.3300 Br  0  0  0  0  0  0  0  0  0  0  0  0
    7.3539    1.8845    2.5691 C   0  0  0  0  0  0  0  0  0  0  0  0
    8.5995    2.4349    2.2107 N   0  0  0  0  0  0  0  0  0  0  0  0
    9.2899    2.3107    1.0595 C   0  0  0  0  0  0  0  0  0  0  0  0
    8.9937    1.4125    0.0071 C   0  0  0  0  0  0  0  0  0  0  0  0
   10.0505    1.4945   -0.8670 C   0  0  0  0  0  0  0  0  0  0  0  0
   10.3801    0.7097   -2.0743 C   0  0  0  0  0  0  0  0  0  0  0  0
   10.8491    2.4817   -0.3644 N   0  0  0  0  0  0  0  0  0  0  0  0
   10.4234    2.9733    0.8125 N   0  0  0  0  0  0  0  0  0  0  0  0
    6.4897    1.5538    1.5874 N   0  0  0  0  0  0  0  0  0  0  0  0
    3.4583   -0.1563   -3.3153 H   0  0  0  0  0  0  0  0  0  0  0  0
    5.2070    0.3224   -2.9182 H   0  0  0  0  0  0  0  0  0  0  0  0
    2.7231    0.5713   -1.1174 H   0  0  0  0  0  0  0  0  0  0  0  0
    4.3999    2.2819   -0.1912 H   0  0  0  0  0  0  0  0  0  0  0  0
    5.7236    1.2130   -0.7200 H   0  0  0  0  0  0  0  0  0  0  0  0
    4.6656   -0.5145    0.7431 H   0  0  0  0  0  0  0  0  0  0  0  0
    5.6141    0.5628    5.1063 H   0  0  0  0  0  0  0  0  0  0  0  0
    8.9795    3.0752    2.8955 H   0  0  0  0  0  0  0  0  0  0  0  0
    8.1586    0.7320   -0.0702 H   0  0  0  0  0  0  0  0  0  0  0  0
    9.6305   -0.0718   -2.2421 H   0  0  0  0  0  0  0  0  0  0  0  0
   11.3500    0.2161   -1.9535 H   0  0  0  0  0  0  0  0  0  0  0  0
   10.4159    1.3438   -2.9641 H   0  0  0  0  0  0  0  0  0  0  0  0
   11.7173    2.8414   -0.7480 H   0  0  0  0  0  0  0  0  0  0  0  0
  1  2  2  0  0  0  0
  1 19  1  0  0  0  0
  1 20  1  0  0  0  0
  2  3  1  0  0  0  0
  2 21  1  0  0  0  0
  3  4  1  0  0  0  0
  3 22  1  0  0  0  0
  3 23  1  0  0  0  0
  4  5  1  0  0  0  0
  4 24  1  0  0  0  0
  5  6  1  0  0  0  0
  5 18  2  0  0  0  0
  6  7  2  0  0  0  0
  7  8  1  0  0  0  0
  7 25  1  0  0  0  0
  8  9  1  0  0  0  0
  8 10  2  0  0  0  0
 10 11  1  0  0  0  0
 10 18  1  0  0  0  0
 11 12  1  0  0  0  0
 11 26  1  0  0  0  0
 12 13  1  0  0  0  0
 12 17  2  0  0  0  0
 13 14  2  0  0  0  0
 13 27  1  0  0  0  0
 14 15  1  0  0  0  0
 14 16  1  0  0  0  0
 15 28  1  0  0  0  0
 15 29  1  0  0  0  0
 15 30  1  0  0  0  0
 16 17  1  0  0  0  0
 16 31  1  0  0  0  0
M  END
$$$$
