CHEMBL3943387
 OpenBabel04072215373D

 57 60  0  0  1  0  0  0  0  0999 V2000
    0.9624   -2.3561   -3.9765 C   0  0  0  0  0  0  0  0  0  0  0  0
    2.2347   -2.9072   -3.6390 O   0  0  0  0  0  0  0  0  0  0  0  0
    3.0051   -2.2000   -2.7505 C   0  0  0  0  0  0  0  0  0  0  0  0
    2.6312   -0.9987   -2.1713 C   0  0  0  0  0  0  0  0  0  0  0  0
    3.4658   -0.3882   -1.2389 C   0  0  0  0  0  0  0  0  0  0  0  0
    3.1604    0.7868   -0.5968 O   0  0  0  0  0  0  0  0  0  0  0  0
    1.9076    1.3627   -0.9675 C   0  0  0  0  0  0  0  0  0  0  0  0
    4.6944   -0.9809   -0.9003 C   0  0  0  0  0  0  0  0  0  0  0  0
    5.1252   -2.1940   -1.4724 C   0  0  0  0  0  0  0  0  0  0  0  0
    6.3403   -2.8091   -1.0655 N   0  0  0  0  0  0  0  0  0  0  0  0
    6.7354   -2.6678    0.4210 C   0  0  0  0  0  0  0  0  0  0  0  0
    5.6982   -3.0892    1.5141 C   0  0  3  0  0  0  0  0  0  0  0  0
    5.3000   -4.4663    1.4165 O   0  0  0  0  0  0  0  0  0  0  0  0
    6.2426   -2.9151    2.9502 C   0  0  0  0  0  0  0  0  0  0  0  0
    7.3773   -3.7513    3.1815 O   0  0  0  0  0  0  0  0  0  0  0  0
    7.3858   -3.4186   -1.8495 C   0  0  0  0  0  0  0  0  0  0  0  0
    7.8122   -4.6292   -1.3453 C   0  0  0  0  0  0  0  0  0  0  0  0
    8.9730   -5.0749   -1.7588 C   0  0  0  0  0  0  0  0  0  0  0  0
    9.8110   -4.4019   -2.6485 C   0  0  0  0  0  0  0  0  0  0  0  0
   10.9417   -4.6419   -2.1540 N   0  0  0  0  0  0  0  0  0  0  0  0
   11.5514   -5.5252   -2.8642 C   0  0  0  0  0  0  0  0  0  0  0  0
   12.0006   -5.1362   -4.0362 C   0  0  0  0  0  0  0  0  0  0  0  0
   13.4254   -6.0829   -4.1104 C   0  0  0  0  0  0  0  0  0  0  0  0
   13.7828   -7.2800   -3.2029 C   0  0  0  0  0  0  0  0  0  0  0  0
   15.0180   -7.7876   -3.3234 N   0  0  0  0  0  0  0  0  0  0  0  0
   15.5772   -7.0327   -4.2770 N   0  0  0  0  0  0  0  0  0  0  0  0
   16.9190   -7.4076   -4.7483 C   0  0  0  0  0  0  0  0  0  0  0  0
   14.6837   -6.0156   -4.7309 C   0  0  0  0  0  0  0  0  0  0  0  0
   11.0981   -3.9790   -4.4679 N   0  0  0  0  0  0  0  0  0  0  0  0
    9.6365   -3.5425   -3.6366 C   0  0  0  0  0  0  0  0  0  0  0  0
    8.1890   -2.9068   -3.0127 C   0  0  0  0  0  0  0  0  0  0  0  0
    4.2506   -2.7721   -2.4203 C   0  0  0  0  0  0  0  0  0  0  0  0
    0.4580   -3.0504   -4.6552 H   0  0  0  0  0  0  0  0  0  0  0  0
    1.0824   -1.4024   -4.5023 H   0  0  0  0  0  0  0  0  0  0  0  0
    0.3251   -2.2396   -3.0917 H   0  0  0  0  0  0  0  0  0  0  0  0
    1.6918   -0.5414   -2.4506 H   0  0  0  0  0  0  0  0  0  0  0  0
    1.7519    2.2689   -0.3803 H   0  0  0  0  0  0  0  0  0  0  0  0
    1.0764    0.6797   -0.7494 H   0  0  0  0  0  0  0  0  0  0  0  0
    1.9131    1.6425   -2.0281 H   0  0  0  0  0  0  0  0  0  0  0  0
    5.3333   -0.4517   -0.1989 H   0  0  0  0  0  0  0  0  0  0  0  0
    7.0463   -1.6337    0.5923 H   0  0  0  0  0  0  0  0  0  0  0  0
    7.6310   -3.2611    0.6380 H   0  0  0  0  0  0  0  0  0  0  0  0
    4.8044   -2.4651    1.4537 H   0  0  0  0  0  0  0  0  0  0  0  0
    6.0930   -5.0006    1.2537 H   0  0  0  0  0  0  0  0  0  0  0  0
    5.4722   -3.2004    3.6798 H   0  0  0  0  0  0  0  0  0  0  0  0
    6.5322   -1.8787    3.1438 H   0  0  0  0  0  0  0  0  0  0  0  0
    7.0817   -4.6705    3.0579 H   0  0  0  0  0  0  0  0  0  0  0  0
    7.5004   -5.0808   -0.4175 H   0  0  0  0  0  0  0  0  0  0  0  0
    9.4906   -5.9056   -1.2444 H   0  0  0  0  0  0  0  0  0  0  0  0
   11.7859   -6.4026   -2.3266 H   0  0  0  0  0  0  0  0  0  0  0  0
   13.2075   -7.8049   -2.4357 H   0  0  0  0  0  0  0  0  0  0  0  0
   17.3548   -8.2591   -4.1892 H   0  0  0  0  0  0  0  0  0  0  0  0
   17.6169   -6.5713   -4.6492 H   0  0  0  0  0  0  0  0  0  0  0  0
   16.8516   -7.7219   -5.7931 H   0  0  0  0  0  0  0  0  0  0  0  0
   15.0608   -5.3423   -5.4683 H   0  0  0  0  0  0  0  0  0  0  0  0
    7.8051   -1.9372   -3.3940 H   0  0  0  0  0  0  0  0  0  0  0  0
    4.4866   -3.7055   -2.9201 H   0  0  0  0  0  0  0  0  0  0  0  0
  1  2  1  0  0  0  0
  1 33  1  0  0  0  0
  1 34  1  0  0  0  0
  1 35  1  0  0  0  0
  2  3  1  0  0  0  0
  3  4  1  0  0  0  0
  3 32  2  0  0  0  0
  4  5  2  0  0  0  0
  4 36  1  0  0  0  0
  5  6  1  0  0  0  0
  5  8  1  0  0  0  0
  6  7  1  0  0  0  0
  7 37  1  0  0  0  0
  7 38  1  0  0  0  0
  7 39  1  0  0  0  0
  8  9  2  0  0  0  0
  8 40  1  0  0  0  0
  9 10  1  0  0  0  0
  9 32  1  0  0  0  0
 10 11  1  0  0  0  0
 10 16  1  0  0  0  0
 11 12  1  0  0  0  0
 11 41  1  0  0  0  0
 11 42  1  0  0  0  0
 12 13  1  0  0  0  0
 12 14  1  0  0  0  0
 12 43  1  0  0  0  0
 13 44  1  0  0  0  0
 14 15  1  0  0  0  0
 14 45  1  0  0  0  0
 14 46  1  0  0  0  0
 15 47  1  0  0  0  0
 16 17  1  0  0  0  0
 16 31  2  0  0  0  0
 17 18  2  0  0  0  0
 17 48  1  0  0  0  0
 18 19  1  0  0  0  0
 18 49  1  0  0  0  0
 19 20  1  0  0  0  0
 19 30  2  0  0  0  0
 20 21  2  0  0  0  0
 21 22  1  0  0  0  0
 21 50  1  0  0  0  0
 22 23  1  0  0  0  0
 22 29  2  0  0  0  0
 23 24  1  0  0  0  0
 23 28  2  0  0  0  0
 24 25  2  0  0  0  0
 24 51  1  0  0  0  0
 25 26  1  0  0  0  0
 26 27  1  0  0  0  0
 26 28  1  0  0  0  0
 27 52  1  0  0  0  0
 27 53  1  0  0  0  0
 27 54  1  0  0  0  0
 28 55  1  0  0  0  0
 29 30  1  0  0  0  0
 30 31  1  0  0  0  0
 31 56  1  0  0  0  0
 32 57  1  0  0  0  0
M  END
$$$$
