CHEMBL386661
 OpenBabel04072215373D

 70 74  0  0  0  0  0  0  0  0999 V2000
    3.2544    0.6851    0.4632 C   0  0  0  0  0  0  0  0  0  0  0  0
    4.2191   -0.3666    0.6835 N   0  0  0  0  0  0  0  0  0  0  0  0
    4.5566   -1.1378   -0.4187 C   0  0  0  0  0  0  0  0  0  0  0  0
    4.8899   -2.4045   -0.1525 N   0  0  0  0  0  0  0  0  0  0  0  0
    5.2774   -3.1641   -1.2010 C   0  0  0  0  0  0  0  0  0  0  0  0
    5.3387   -2.7211   -2.5172 C   0  0  0  0  0  0  0  0  0  0  0  0
    5.7393   -3.5143   -3.6395 C   0  0  0  0  0  0  0  0  0  0  0  0
    5.6773   -3.0436   -4.9706 C   0  0  0  0  0  0  0  0  0  0  0  0
    5.9309   -3.9022   -6.1919 C   0  0  0  0  0  0  0  0  0  0  0  0
    6.5708   -3.3537   -7.3679 C   0  0  0  0  0  0  0  0  0  0  0  0
    6.7881   -4.1056   -8.5469 C   0  0  0  0  0  0  0  0  0  0  0  0
    7.5011   -3.6293   -9.8127 C   0  0  0  0  0  0  0  0  0  0  0  0
    8.1720   -4.4775  -10.4076 O   0  0  0  0  0  0  0  0  0  0  0  0
    7.2710   -2.3343  -10.2681 N   0  0  0  0  0  0  0  0  0  0  0  0
    7.7887   -1.7626  -11.4885 C   0  0  0  0  0  0  0  0  0  0  0  0
    8.9170   -2.3142  -12.1537 C   0  0  0  0  0  0  0  0  0  0  0  0
    9.4993   -1.7172  -13.3016 C   0  0  0  0  0  0  0  0  0  0  0  0
   10.7147   -2.2909  -14.0030 C   0  0  0  0  0  0  0  0  0  0  0  0
   11.2455   -3.3908  -13.4059 F   0  0  0  0  0  0  0  0  0  0  0  0
   10.4421   -2.6569  -15.2890 F   0  0  0  0  0  0  0  0  0  0  0  0
   11.7370   -1.3899  -14.0958 F   0  0  0  0  0  0  0  0  0  0  0  0
    8.9380   -0.5436  -13.8011 C   0  0  0  0  0  0  0  0  0  0  0  0
    7.8279    0.0158  -13.1686 C   0  0  0  0  0  0  0  0  0  0  0  0
    7.2385   -0.5813  -12.0330 C   0  0  0  0  0  0  0  0  0  0  0  0
    6.2567    0.2044  -11.4958 O   0  0  0  0  0  0  0  0  0  0  0  0
    4.9106   -0.2489  -11.2919 C   0  0  0  0  0  0  0  0  0  0  0  0
    4.2573   -1.1097  -12.3717 C   0  0  0  0  0  0  0  0  0  0  0  0
    4.0811   -0.3745  -13.7045 C   0  0  0  0  0  0  0  0  0  0  0  0
    3.4403    0.9417  -13.5891 N   0  0  0  0  0  0  0  0  0  0  0  0
    3.5374    1.6883  -14.8514 C   0  0  0  0  0  0  0  0  0  0  0  0
    3.9588    1.7683  -12.4926 C   0  0  0  0  0  0  0  0  0  0  0  0
    4.0333    1.0103  -11.1649 C   0  0  0  0  0  0  0  0  0  0  0  0
    6.3864   -5.4477   -8.5430 C   0  0  0  0  0  0  0  0  0  0  0  0
    5.7541   -6.0102   -7.4315 C   0  0  0  0  0  0  0  0  0  0  0  0
    5.4970   -5.2576   -6.2689 C   0  0  0  0  0  0  0  0  0  0  0  0
    4.7479   -5.9793   -5.1694 C   0  0  0  0  0  0  0  0  0  0  0  0
    5.2927   -1.7021   -5.0985 C   0  0  0  0  0  0  0  0  0  0  0  0
    4.9525   -0.9076   -3.9810 C   0  0  0  0  0  0  0  0  0  0  0  0
    4.9438   -1.4005   -2.6825 C   0  0  0  0  0  0  0  0  0  0  0  0
    4.5613   -0.6161   -1.6551 N   0  0  0  0  0  0  0  0  0  0  0  0
    3.0794    1.2144    1.4072 H   0  0  0  0  0  0  0  0  0  0  0  0
    2.2936    0.2838    0.1265 H   0  0  0  0  0  0  0  0  0  0  0  0
    3.6136    1.4259   -0.2594 H   0  0  0  0  0  0  0  0  0  0  0  0
    4.0111   -1.0098    1.4394 H   0  0  0  0  0  0  0  0  0  0  0  0
    5.5316   -4.1868   -0.9332 H   0  0  0  0  0  0  0  0  0  0  0  0
    6.0893   -4.5206   -3.4281 H   0  0  0  0  0  0  0  0  0  0  0  0
    6.9446   -2.3330   -7.3352 H   0  0  0  0  0  0  0  0  0  0  0  0
    6.6026   -1.7631   -9.7725 H   0  0  0  0  0  0  0  0  0  0  0  0
    9.4124   -3.2014  -11.7623 H   0  0  0  0  0  0  0  0  0  0  0  0
    9.3727   -0.0460  -14.6699 H   0  0  0  0  0  0  0  0  0  0  0  0
    7.4221    0.9486  -13.5589 H   0  0  0  0  0  0  0  0  0  0  0  0
    4.8832   -0.7712  -10.3314 H   0  0  0  0  0  0  0  0  0  0  0  0
    3.2620   -1.4071  -12.0069 H   0  0  0  0  0  0  0  0  0  0  0  0
    4.8158   -2.0368  -12.5302 H   0  0  0  0  0  0  0  0  0  0  0  0
    3.4340   -1.0015  -14.3337 H   0  0  0  0  0  0  0  0  0  0  0  0
    5.0477   -0.3071  -14.2126 H   0  0  0  0  0  0  0  0  0  0  0  0
    3.3310    1.0535  -15.7204 H   0  0  0  0  0  0  0  0  0  0  0  0
    4.5309    2.1330  -14.9947 H   0  0  0  0  0  0  0  0  0  0  0  0
    2.7997    2.4984  -14.8661 H   0  0  0  0  0  0  0  0  0  0  0  0
    3.2884    2.6277  -12.3598 H   0  0  0  0  0  0  0  0  0  0  0  0
    4.9496    2.1734  -12.7349 H   0  0  0  0  0  0  0  0  0  0  0  0
    3.0187    0.7287  -10.8535 H   0  0  0  0  0  0  0  0  0  0  0  0
    4.4344    1.6838  -10.3990 H   0  0  0  0  0  0  0  0  0  0  0  0
    6.5599   -6.0771   -9.4163 H   0  0  0  0  0  0  0  0  0  0  0  0
    5.4469   -7.0550   -7.4882 H   0  0  0  0  0  0  0  0  0  0  0  0
    4.3049   -6.9156   -5.5298 H   0  0  0  0  0  0  0  0  0  0  0  0
    3.9173   -5.3737   -4.7925 H   0  0  0  0  0  0  0  0  0  0  0  0
    5.4229   -6.2602   -4.3557 H   0  0  0  0  0  0  0  0  0  0  0  0
    5.2218   -1.2407   -6.0796 H   0  0  0  0  0  0  0  0  0  0  0  0
    4.6569    0.1279   -4.1391 H   0  0  0  0  0  0  0  0  0  0  0  0
  1  2  1  0  0  0  0
  1 41  1  0  0  0  0
  1 42  1  0  0  0  0
  1 43  1  0  0  0  0
  2  3  1  0  0  0  0
  2 44  1  0  0  0  0
  3  4  1  0  0  0  0
  3 40  2  0  0  0  0
  4  5  2  0  0  0  0
  5  6  1  0  0  0  0
  5 45  1  0  0  0  0
  6  7  1  0  0  0  0
  6 39  2  0  0  0  0
  7  8  2  0  0  0  0
  7 46  1  0  0  0  0
  8  9  1  0  0  0  0
  8 37  1  0  0  0  0
  9 10  1  0  0  0  0
  9 35  2  0  0  0  0
 10 11  2  0  0  0  0
 10 47  1  0  0  0  0
 11 12  1  0  0  0  0
 11 33  1  0  0  0  0
 12 13  2  0  0  0  0
 12 14  1  0  0  0  0
 14 15  1  0  0  0  0
 14 48  1  0  0  0  0
 15 16  1  0  0  0  0
 15 24  2  0  0  0  0
 16 17  2  0  0  0  0
 16 49  1  0  0  0  0
 17 18  1  0  0  0  0
 17 22  1  0  0  0  0
 18 19  1  0  0  0  0
 18 20  1  0  0  0  0
 18 21  1  0  0  0  0
 22 23  2  0  0  0  0
 22 50  1  0  0  0  0
 23 24  1  0  0  0  0
 23 51  1  0  0  0  0
 24 25  1  0  0  0  0
 25 26  1  0  0  0  0
 26 27  1  0  0  0  0
 26 32  1  0  0  0  0
 26 52  1  0  0  0  0
 27 28  1  0  0  0  0
 27 53  1  0  0  0  0
 27 54  1  0  0  0  0
 28 29  1  0  0  0  0
 28 55  1  0  0  0  0
 28 56  1  0  0  0  0
 29 30  1  0  0  0  0
 29 31  1  0  0  0  0
 30 57  1  0  0  0  0
 30 58  1  0  0  0  0
 30 59  1  0  0  0  0
 31 32  1  0  0  0  0
 31 60  1  0  0  0  0
 31 61  1  0  0  0  0
 32 62  1  0  0  0  0
 32 63  1  0  0  0  0
 33 34  2  0  0  0  0
 33 64  1  0  0  0  0
 34 35  1  0  0  0  0
 34 65  1  0  0  0  0
 35 36  1  0  0  0  0
 36 66  1  0  0  0  0
 36 67  1  0  0  0  0
 36 68  1  0  0  0  0
 37 38  2  0  0  0  0
 37 69  1  0  0  0  0
 38 39  1  0  0  0  0
 38 70  1  0  0  0  0
 39 40  1  0  0  0  0
M  END
$$$$
