CHEMBL1087649
 OpenBabel04072215363D

 54 58  0  0  0  0  0  0  0  0999 V2000
    2.4394    0.2533   -0.4758 C   0  0  0  0  0  0  0  0  0  0  0  0
    0.9679    0.1468   -0.1664 C   0  0  0  0  0  0  0  0  0  0  0  0
    0.2011    1.3291   -0.1794 C   0  0  0  0  0  0  0  0  0  0  0  0
   -1.1806    1.2875   -0.0219 C   0  0  0  0  0  0  0  0  0  0  0  0
   -1.8281    0.0612    0.0951 C   0  0  0  0  0  0  0  0  0  0  0  0
   -3.3117    0.0216    0.1671 C   0  0  0  0  0  0  0  0  0  0  0  0
   -3.9328    0.9232   -0.3847 O   0  0  0  0  0  0  0  0  0  0  0  0
   -3.8512   -1.0156    0.9108 N   0  0  0  0  0  0  0  0  0  0  0  0
   -5.2301   -1.2606    1.1053 C   0  0  0  0  0  0  0  0  0  0  0  0
   -6.2297   -0.6809    0.3209 C   0  0  0  0  0  0  0  0  0  0  0  0
   -7.5825   -0.9176    0.5909 C   0  0  0  0  0  0  0  0  0  0  0  0
   -7.9428   -1.7413    1.6532 C   0  0  0  0  0  0  0  0  0  0  0  0
   -6.9524   -2.3501    2.4212 C   0  0  0  0  0  0  0  0  0  0  0  0
   -7.3950   -3.3618    3.7375 Cl  0  0  0  0  0  0  0  0  0  0  0  0
   -5.6002   -2.1272    2.1433 C   0  0  0  0  0  0  0  0  0  0  0  0
   -1.0712   -1.1130    0.1097 C   0  0  0  0  0  0  0  0  0  0  0  0
    0.3333   -1.0915    0.0826 C   0  0  0  0  0  0  0  0  0  0  0  0
    1.0884   -2.2746    0.2875 N   0  0  0  0  0  0  0  0  0  0  0  0
    0.6314   -3.4185    0.8812 C   0  0  0  0  0  0  0  0  0  0  0  0
   -0.6205   -3.7701    1.0894 N   0  0  0  0  0  0  0  0  0  0  0  0
   -0.5978   -5.0255    1.6080 C   0  0  0  0  0  0  0  0  0  0  0  0
   -1.6858   -5.8365    1.9644 C   0  0  0  0  0  0  0  0  0  0  0  0
   -1.4394   -7.0978    2.5087 C   0  0  0  0  0  0  0  0  0  0  0  0
   -0.1328   -7.5251    2.7289 C   0  0  0  0  0  0  0  0  0  0  0  0
    0.9632   -6.7186    2.3934 C   0  0  0  0  0  0  0  0  0  0  0  0
    0.7063   -5.4767    1.7829 C   0  0  0  0  0  0  0  0  0  0  0  0
    1.5002   -4.4367    1.2951 N   0  0  0  0  0  0  0  0  0  0  0  0
    2.9232   -4.3897    1.2067 C   0  0  0  0  0  0  0  0  0  0  0  0
    3.6337   -5.5558    1.0068 C   0  0  0  0  0  0  0  0  0  0  0  0
    4.9998   -5.4345    0.8952 C   0  0  0  0  0  0  0  0  0  0  0  0
    5.7712   -6.5434    0.5604 N   0  0  0  0  0  0  0  0  0  0  0  0
    5.6356   -4.2652    1.0055 N   0  0  0  0  0  0  0  0  0  0  0  0
    4.8650   -3.1867    1.1929 C   0  0  0  0  0  0  0  0  0  0  0  0
    3.5259   -3.1771    1.2633 N   0  0  0  0  0  0  0  0  0  0  0  0
    2.7254    1.2884   -0.6977 H   0  0  0  0  0  0  0  0  0  0  0  0
    2.6742   -0.3401   -1.3637 H   0  0  0  0  0  0  0  0  0  0  0  0
    3.0441   -0.0841    0.3703 H   0  0  0  0  0  0  0  0  0  0  0  0
    0.6831    2.2964   -0.3161 H   0  0  0  0  0  0  0  0  0  0  0  0
   -1.7553    2.2101   -0.0221 H   0  0  0  0  0  0  0  0  0  0  0  0
   -3.2143   -1.5719    1.4648 H   0  0  0  0  0  0  0  0  0  0  0  0
   -5.9857   -0.0427   -0.5251 H   0  0  0  0  0  0  0  0  0  0  0  0
   -8.3431   -0.4470   -0.0248 H   0  0  0  0  0  0  0  0  0  0  0  0
   -8.9932   -1.9027    1.8767 H   0  0  0  0  0  0  0  0  0  0  0  0
   -4.8445   -2.6044    2.7581 H   0  0  0  0  0  0  0  0  0  0  0  0
   -1.5950   -2.0600    0.1149 H   0  0  0  0  0  0  0  0  0  0  0  0
    2.0959   -2.1195    0.3235 H   0  0  0  0  0  0  0  0  0  0  0  0
   -2.6996   -5.4818    1.8116 H   0  0  0  0  0  0  0  0  0  0  0  0
   -2.2757   -7.7401    2.7741 H   0  0  0  0  0  0  0  0  0  0  0  0
    0.0388   -8.5025    3.1763 H   0  0  0  0  0  0  0  0  0  0  0  0
    1.9653   -7.0646    2.6196 H   0  0  0  0  0  0  0  0  0  0  0  0
    3.1644   -6.5145    0.8444 H   0  0  0  0  0  0  0  0  0  0  0  0
    5.5973   -7.3496    1.1476 H   0  0  0  0  0  0  0  0  0  0  0  0
    6.7493   -6.2659    0.5600 H   0  0  0  0  0  0  0  0  0  0  0  0
    5.3732   -2.2331    1.2914 H   0  0  0  0  0  0  0  0  0  0  0  0
  1  2  1  0  0  0  0
  1 35  1  0  0  0  0
  1 36  1  0  0  0  0
  1 37  1  0  0  0  0
  2  3  1  0  0  0  0
  2 17  2  0  0  0  0
  3  4  2  0  0  0  0
  3 38  1  0  0  0  0
  4  5  1  0  0  0  0
  4 39  1  0  0  0  0
  5  6  1  0  0  0  0
  5 16  2  0  0  0  0
  6  7  2  0  0  0  0
  6  8  1  0  0  0  0
  8  9  1  0  0  0  0
  8 40  1  0  0  0  0
  9 10  1  0  0  0  0
  9 15  2  0  0  0  0
 10 11  2  0  0  0  0
 10 41  1  0  0  0  0
 11 12  1  0  0  0  0
 11 42  1  0  0  0  0
 12 13  2  0  0  0  0
 12 43  1  0  0  0  0
 13 14  1  0  0  0  0
 13 15  1  0  0  0  0
 15 44  1  0  0  0  0
 16 17  1  0  0  0  0
 16 45  1  0  0  0  0
 17 18  1  0  0  0  0
 18 19  1  0  0  0  0
 18 46  1  0  0  0  0
 19 20  2  0  0  0  0
 19 27  1  0  0  0  0
 20 21  1  0  0  0  0
 21 22  1  0  0  0  0
 21 26  2  0  0  0  0
 22 23  2  0  0  0  0
 22 47  1  0  0  0  0
 23 24  1  0  0  0  0
 23 48  1  0  0  0  0
 24 25  2  0  0  0  0
 24 49  1  0  0  0  0
 25 26  1  0  0  0  0
 25 50  1  0  0  0  0
 26 27  1  0  0  0  0
 27 28  1  0  0  0  0
 28 29  1  0  0  0  0
 28 34  2  0  0  0  0
 29 30  2  0  0  0  0
 29 51  1  0  0  0  0
 30 31  1  0  0  0  0
 30 32  1  0  0  0  0
 31 52  1  0  0  0  0
 31 53  1  0  0  0  0
 32 33  2  0  0  0  0
 33 34  1  0  0  0  0
 33 54  1  0  0  0  0
M  END
$$$$
