CHEMBL399119
 OpenBabel04072215373D

 37 40  0  0  0  0  0  0  0  0999 V2000
    1.1184    0.0082    0.3430 C   0  0  0  0  0  0  0  0  0  0  0  0
    2.4985   -0.1198   -0.0113 O   0  0  0  0  0  0  0  0  0  0  0  0
    3.0332    0.9747   -0.6459 C   0  0  0  0  0  0  0  0  0  0  0  0
    2.5883    2.2749   -0.4261 C   0  0  0  0  0  0  0  0  0  0  0  0
    3.1304    3.3461   -1.1287 C   0  0  0  0  0  0  0  0  0  0  0  0
    4.1478    3.0843   -2.0543 C   0  0  0  0  0  0  0  0  0  0  0  0
    4.6815    1.8048   -2.2610 C   0  0  0  0  0  0  0  0  0  0  0  0
    4.1054    0.7328   -1.5285 C   0  0  0  0  0  0  0  0  0  0  0  0
    5.7426    1.9522   -3.2276 C   0  0  0  0  0  0  0  0  0  0  0  0
    6.6054    0.9464   -3.7725 C   0  0  0  0  0  0  0  0  0  0  0  0
    7.8613    1.0840   -4.2547 C   0  0  0  0  0  0  0  0  0  0  0  0
    8.7318    2.2804   -4.3348 C   0  0  0  0  0  0  0  0  0  0  0  0
    8.6986    3.3151   -3.6985 O   0  0  0  0  0  0  0  0  0  0  0  0
    9.6841    1.9206   -5.2789 N   0  0  0  0  0  0  0  0  0  0  0  0
    9.6678    0.5937   -5.6256 N   0  0  0  0  0  0  0  0  0  0  0  0
    8.6458    0.0562   -4.9992 C   0  0  0  0  0  0  0  0  0  0  0  0
    8.4049   -1.3495   -5.0167 C   0  0  0  0  0  0  0  0  0  0  0  0
    7.8639   -2.2011   -4.0748 C   0  0  0  0  0  0  0  0  0  0  0  0
    7.8353   -3.5387   -4.4320 N   0  0  0  0  0  0  0  0  0  0  0  0
    8.3615   -3.7331   -5.6292 N   0  0  0  0  0  0  0  0  0  0  0  0
    8.9095   -2.3205   -6.3362 S   0  0  0  0  0  0  0  0  0  0  0  0
    5.7075    3.2576   -3.6653 C   0  0  0  0  0  0  0  0  0  0  0  0
    4.8036    3.9456   -2.9054 N   0  0  0  0  0  0  0  0  0  0  0  0
    4.5448    5.3613   -3.0079 C   0  0  0  0  0  0  0  0  0  0  0  0
    0.7933   -0.9267    0.8085 H   0  0  0  0  0  0  0  0  0  0  0  0
    0.5047    0.1779   -0.5489 H   0  0  0  0  0  0  0  0  0  0  0  0
    0.9501    0.7979    1.0824 H   0  0  0  0  0  0  0  0  0  0  0  0
    1.8157    2.5018    0.2995 H   0  0  0  0  0  0  0  0  0  0  0  0
    2.7592    4.3513   -0.9574 H   0  0  0  0  0  0  0  0  0  0  0  0
    4.4642   -0.2829   -1.6661 H   0  0  0  0  0  0  0  0  0  0  0  0
    6.1360   -0.0292   -3.8605 H   0  0  0  0  0  0  0  0  0  0  0  0
   10.4668    2.5086   -5.5396 H   0  0  0  0  0  0  0  0  0  0  0  0
    7.4915   -1.9225   -3.0978 H   0  0  0  0  0  0  0  0  0  0  0  0
    6.2679    3.7717   -4.4357 H   0  0  0  0  0  0  0  0  0  0  0  0
    5.2311    5.8069   -3.7315 H   0  0  0  0  0  0  0  0  0  0  0  0
    4.7036    5.8117   -2.0254 H   0  0  0  0  0  0  0  0  0  0  0  0
    3.5131    5.5036   -3.3390 H   0  0  0  0  0  0  0  0  0  0  0  0
  1  2  1  0  0  0  0
  1 25  1  0  0  0  0
  1 26  1  0  0  0  0
  1 27  1  0  0  0  0
  2  3  1  0  0  0  0
  3  4  1  0  0  0  0
  3  8  2  0  0  0  0
  4  5  2  0  0  0  0
  4 28  1  0  0  0  0
  5  6  1  0  0  0  0
  5 29  1  0  0  0  0
  6  7  2  0  0  0  0
  6 23  1  0  0  0  0
  7  8  1  0  0  0  0
  7  9  1  0  0  0  0
  8 30  1  0  0  0  0
  9 10  1  0  0  0  0
  9 22  2  0  0  0  0
 10 11  2  0  0  0  0
 10 31  1  0  0  0  0
 11 12  1  0  0  0  0
 11 16  1  0  0  0  0
 12 13  2  0  0  0  0
 12 14  1  0  0  0  0
 14 15  1  0  0  0  0
 14 32  1  0  0  0  0
 15 16  2  0  0  0  0
 16 17  1  0  0  0  0
 17 18  2  0  0  0  0
 17 21  1  0  0  0  0
 18 19  1  0  0  0  0
 18 33  1  0  0  0  0
 19 20  2  0  0  0  0
 20 21  1  0  0  0  0
 22 23  1  0  0  0  0
 22 34  1  0  0  0  0
 23 24  1  0  0  0  0
 24 35  1  0  0  0  0
 24 36  1  0  0  0  0
 24 37  1  0  0  0  0
M  END
$$$$
