CHEMBL3897714
 OpenBabel04072215373D

 45 48  0  0  0  0  0  0  0  0999 V2000
    1.1405    0.8535   -0.1324 O   0  0  0  0  0  0  0  0  0  0  0  0
    2.2523    0.3442   -0.2093 C   0  0  0  0  0  0  0  0  0  0  0  0
    2.7765   -0.2158   -1.3665 N   0  0  0  0  0  0  0  0  0  0  0  0
    2.0775   -0.3234   -2.6005 C   0  0  0  0  0  0  0  0  0  0  0  0
    0.9267    0.4154   -2.8982 C   0  0  0  0  0  0  0  0  0  0  0  0
    0.1827    0.1675   -4.0592 C   0  0  0  0  0  0  0  0  0  0  0  0
    0.5906   -0.8100   -4.9655 C   0  0  0  0  0  0  0  0  0  0  0  0
   -0.2460   -1.1395   -6.0834 C   0  0  0  0  0  0  0  0  0  0  0  0
   -0.9972   -1.4643   -6.9695 C   0  0  0  0  0  0  0  0  0  0  0  0
   -1.9038   -1.9584   -7.9832 C   0  0  0  0  0  0  0  0  0  0  0  0
   -2.0084   -3.4127   -8.2592 C   0  0  0  0  0  0  0  0  0  0  0  0
   -2.8546   -3.7912   -9.2249 C   0  0  0  0  0  0  0  0  0  0  0  0
   -3.5974   -2.8072   -9.9137 C   0  0  0  0  0  0  0  0  0  0  0  0
   -4.4713   -2.9130  -10.8924 N   0  0  0  0  0  0  0  0  0  0  0  0
   -4.8741   -1.6278  -11.1522 C   0  0  0  0  0  0  0  0  0  0  0  0
   -4.2389   -0.7336  -10.3205 C   0  0  0  0  0  0  0  0  0  0  0  0
   -3.4101   -1.4856   -9.5315 N   0  0  0  0  0  0  0  0  0  0  0  0
   -2.5625   -1.0074   -8.5650 N   0  0  0  0  0  0  0  0  0  0  0  0
    1.7862   -1.4944   -4.7199 C   0  0  0  0  0  0  0  0  0  0  0  0
    2.5309   -1.2448   -3.5514 C   0  0  0  0  0  0  0  0  0  0  0  0
    3.1188    0.2472    0.8708 N   0  0  0  0  0  0  0  0  0  0  0  0
    2.7866    0.6525    2.1938 C   0  0  0  0  0  0  0  0  0  0  0  0
    1.4662    0.7837    2.6415 C   0  0  0  0  0  0  0  0  0  0  0  0
    1.1690    1.3051    3.9129 C   0  0  0  0  0  0  0  0  0  0  0  0
   -0.2659    1.5389    4.3265 C   0  0  0  0  0  0  0  0  0  0  0  0
   -1.1781    1.2025    3.3735 F   0  0  0  0  0  0  0  0  0  0  0  0
   -0.6086    0.8284    5.4365 F   0  0  0  0  0  0  0  0  0  0  0  0
   -0.5083    2.8446    4.6299 F   0  0  0  0  0  0  0  0  0  0  0  0
    2.2251    1.6365    4.7744 C   0  0  0  0  0  0  0  0  0  0  0  0
    3.5477    1.4456    4.3673 C   0  0  0  0  0  0  0  0  0  0  0  0
    3.8170    0.9569    3.0881 C   0  0  0  0  0  0  0  0  0  0  0  0
    5.0955    0.8149    2.7039 F   0  0  0  0  0  0  0  0  0  0  0  0
    3.5910   -0.8014   -1.2535 H   0  0  0  0  0  0  0  0  0  0  0  0
    0.5604    1.1915   -2.2329 H   0  0  0  0  0  0  0  0  0  0  0  0
   -0.7328    0.7308   -4.2263 H   0  0  0  0  0  0  0  0  0  0  0  0
   -1.4123   -4.1076   -7.6854 H   0  0  0  0  0  0  0  0  0  0  0  0
   -2.9916   -4.8316   -9.4957 H   0  0  0  0  0  0  0  0  0  0  0  0
   -5.6020   -1.4150  -11.9259 H   0  0  0  0  0  0  0  0  0  0  0  0
   -4.2956    0.3388  -10.2230 H   0  0  0  0  0  0  0  0  0  0  0  0
    2.1348   -2.2496   -5.4202 H   0  0  0  0  0  0  0  0  0  0  0  0
    3.4401   -1.8161   -3.3831 H   0  0  0  0  0  0  0  0  0  0  0  0
    4.1085    0.1817    0.6704 H   0  0  0  0  0  0  0  0  0  0  0  0
    0.6334    0.4950    2.0030 H   0  0  0  0  0  0  0  0  0  0  0  0
    2.0168    2.0514    5.7602 H   0  0  0  0  0  0  0  0  0  0  0  0
    4.3690    1.7002    5.0312 H   0  0  0  0  0  0  0  0  0  0  0  0
  1  2  2  0  0  0  0
  2  3  1  0  0  0  0
  2 21  1  0  0  0  0
  3  4  1  0  0  0  0
  3 33  1  0  0  0  0
  4  5  1  0  0  0  0
  4 20  2  0  0  0  0
  5  6  2  0  0  0  0
  5 34  1  0  0  0  0
  6  7  1  0  0  0  0
  6 35  1  0  0  0  0
  7  8  1  0  0  0  0
  7 19  2  0  0  0  0
  8  9  3  0  0  0  0
  9 10  1  0  0  0  0
 10 11  1  0  0  0  0
 10 18  2  0  0  0  0
 11 12  2  0  0  0  0
 11 36  1  0  0  0  0
 12 13  1  0  0  0  0
 12 37  1  0  0  0  0
 13 14  2  0  0  0  0
 13 17  1  0  0  0  0
 14 15  1  0  0  0  0
 15 16  2  0  0  0  0
 15 38  1  0  0  0  0
 16 17  1  0  0  0  0
 16 39  1  0  0  0  0
 17 18  1  0  0  0  0
 19 20  1  0  0  0  0
 19 40  1  0  0  0  0
 20 41  1  0  0  0  0
 21 22  1  0  0  0  0
 21 42  1  0  0  0  0
 22 23  1  0  0  0  0
 22 31  2  0  0  0  0
 23 24  2  0  0  0  0
 23 43  1  0  0  0  0
 24 25  1  0  0  0  0
 24 29  1  0  0  0  0
 25 26  1  0  0  0  0
 25 27  1  0  0  0  0
 25 28  1  0  0  0  0
 29 30  2  0  0  0  0
 29 44  1  0  0  0  0
 30 31  1  0  0  0  0
 30 45  1  0  0  0  0
 31 32  1  0  0  0  0
M  END
$$$$
