CHEMBL3671578
 OpenBabel04072215373D

 48 51  0  0  0  0  0  0  0  0999 V2000
    1.4733    3.0547   -0.2337 C   0  0  0  0  0  0  0  0  0  0  0  0
    2.7648    2.7892   -0.0400 C   0  0  0  0  0  0  0  0  0  0  0  0
    3.2799    1.3938    0.0201 C   0  0  0  0  0  0  0  0  0  0  0  0
    2.6860    0.4655   -0.5232 O   0  0  0  0  0  0  0  0  0  0  0  0
    4.5252    1.2055    0.5700 N   0  0  0  0  0  0  0  0  0  0  0  0
    5.3041    2.1959    1.1941 C   0  0  0  0  0  0  0  0  0  0  0  0
    6.5081    2.5343    0.5743 C   0  0  0  0  0  0  0  0  0  0  0  0
    7.2320    3.6715    1.0079 C   0  0  0  0  0  0  0  0  0  0  0  0
    8.2990    4.2715    0.3233 C   0  0  0  0  0  0  0  0  0  0  0  0
    8.6597    3.8115   -0.9697 N   0  0  0  0  0  0  0  0  0  0  0  0
    9.4249    4.5743   -1.8844 C   0  0  0  0  0  0  0  0  0  0  0  0
    9.1447    5.9314   -2.1051 C   0  0  0  0  0  0  0  0  0  0  0  0
    9.9693    6.7102   -2.9189 C   0  0  0  0  0  0  0  0  0  0  0  0
   11.0746    6.1282   -3.5348 C   0  0  0  0  0  0  0  0  0  0  0  0
   12.2352    7.2025   -4.5692 Br  0  0  0  0  0  0  0  0  0  0  0  0
   11.3405    4.7700   -3.3772 C   0  0  0  0  0  0  0  0  0  0  0  0
   10.5092    4.0058   -2.5620 C   0  0  0  0  0  0  0  0  0  0  0  0
   10.7803    2.7021   -2.3928 F   0  0  0  0  0  0  0  0  0  0  0  0
    8.9328    5.3605    0.8083 N   0  0  0  0  0  0  0  0  0  0  0  0
    8.4846    5.8714    1.9542 C   0  0  0  0  0  0  0  0  0  0  0  0
    7.4477    5.4181    2.6541 N   0  0  0  0  0  0  0  0  0  0  0  0
    6.8242    4.3473    2.1633 C   0  0  0  0  0  0  0  0  0  0  0  0
    5.6773    3.9410    2.8160 C   0  0  0  0  0  0  0  0  0  0  0  0
    4.8675    2.9161    2.3207 C   0  0  0  0  0  0  0  0  0  0  0  0
    3.6638    2.5768    2.8949 O   0  0  0  0  0  0  0  0  0  0  0  0
    3.0819    3.5852    3.7214 C   0  0  0  0  0  0  0  0  0  0  0  0
    1.6236    3.3339    3.9701 C   0  0  0  0  0  0  0  0  0  0  0  0
    0.6659    4.1073    3.5606 N   0  0  0  0  0  0  0  0  0  0  0  0
   -0.5371    3.4726    4.1083 C   0  0  0  0  0  0  0  0  0  0  0  0
   -0.0782    2.1194    4.6030 C   0  0  0  0  0  0  0  0  0  0  0  0
    1.3317    2.2361    4.7018 O   0  0  0  0  0  0  0  0  0  0  0  0
    1.1281    4.0830   -0.2871 H   0  0  0  0  0  0  0  0  0  0  0  0
    0.7370    2.2614   -0.3343 H   0  0  0  0  0  0  0  0  0  0  0  0
    3.4717    3.6045    0.0312 H   0  0  0  0  0  0  0  0  0  0  0  0
    4.9888    0.4048    0.1564 H   0  0  0  0  0  0  0  0  0  0  0  0
    6.8197    1.9992   -0.3191 H   0  0  0  0  0  0  0  0  0  0  0  0
    8.9435    2.8360   -0.9503 H   0  0  0  0  0  0  0  0  0  0  0  0
    8.2934    6.3982   -1.6140 H   0  0  0  0  0  0  0  0  0  0  0  0
    9.7491    7.7673   -3.0419 H   0  0  0  0  0  0  0  0  0  0  0  0
   12.1933    4.3023   -3.8565 H   0  0  0  0  0  0  0  0  0  0  0  0
    8.9964    6.7459    2.3389 H   0  0  0  0  0  0  0  0  0  0  0  0
    5.4029    4.4982    3.7074 H   0  0  0  0  0  0  0  0  0  0  0  0
    3.1500    4.5706    3.2419 H   0  0  0  0  0  0  0  0  0  0  0  0
    3.5844    3.6114    4.6957 H   0  0  0  0  0  0  0  0  0  0  0  0
   -1.3155    3.3786    3.3456 H   0  0  0  0  0  0  0  0  0  0  0  0
   -0.9333    4.0837    4.9272 H   0  0  0  0  0  0  0  0  0  0  0  0
   -0.3133    1.3220    3.8911 H   0  0  0  0  0  0  0  0  0  0  0  0
   -0.5106    1.8685    5.5759 H   0  0  0  0  0  0  0  0  0  0  0  0
  1  2  2  0  0  0  0
  1 32  1  0  0  0  0
  1 33  1  0  0  0  0
  2  3  1  0  0  0  0
  2 34  1  0  0  0  0
  3  4  2  0  0  0  0
  3  5  1  0  0  0  0
  5  6  1  0  0  0  0
  5 35  1  0  0  0  0
  6  7  1  0  0  0  0
  6 24  2  0  0  0  0
  7  8  2  0  0  0  0
  7 36  1  0  0  0  0
  8  9  1  0  0  0  0
  8 22  1  0  0  0  0
  9 10  1  0  0  0  0
  9 19  2  0  0  0  0
 10 11  1  0  0  0  0
 10 37  1  0  0  0  0
 11 12  1  0  0  0  0
 11 17  2  0  0  0  0
 12 13  2  0  0  0  0
 12 38  1  0  0  0  0
 13 14  1  0  0  0  0
 13 39  1  0  0  0  0
 14 15  1  0  0  0  0
 14 16  2  0  0  0  0
 16 17  1  0  0  0  0
 16 40  1  0  0  0  0
 17 18  1  0  0  0  0
 19 20  1  0  0  0  0
 20 21  2  0  0  0  0
 20 41  1  0  0  0  0
 21 22  1  0  0  0  0
 22 23  2  0  0  0  0
 23 24  1  0  0  0  0
 23 42  1  0  0  0  0
 24 25  1  0  0  0  0
 25 26  1  0  0  0  0
 26 27  1  0  0  0  0
 26 43  1  0  0  0  0
 26 44  1  0  0  0  0
 27 28  2  0  0  0  0
 27 31  1  0  0  0  0
 28 29  1  0  0  0  0
 29 30  1  0  0  0  0
 29 45  1  0  0  0  0
 29 46  1  0  0  0  0
 30 31  1  0  0  0  0
 30 47  1  0  0  0  0
 30 48  1  0  0  0  0
M  END
$$$$
