CHEMBL3984219
 OpenBabel04072215373D

 55 58  0  0  0  0  0  0  0  0999 V2000
    7.0027   -8.0452    4.4946 C   0  0  0  0  0  0  0  0  0  0  0  0
    5.5439   -8.0554    4.9234 C   0  0  0  0  0  0  0  0  0  0  0  0
    5.4551   -8.8094    6.0591 F   0  0  0  0  0  0  0  0  0  0  0  0
    5.2153   -6.7867    5.3071 F   0  0  0  0  0  0  0  0  0  0  0  0
    4.6325   -8.5708    3.8305 C   0  0  0  0  0  0  0  0  0  0  0  0
    4.3960   -9.9468    3.7219 C   0  0  0  0  0  0  0  0  0  0  0  0
    3.5406  -10.4183    2.7409 C   0  0  0  0  0  0  0  0  0  0  0  0
    3.3024  -11.7331    2.6487 F   0  0  0  0  0  0  0  0  0  0  0  0
    2.9235   -9.5497    1.8472 C   0  0  0  0  0  0  0  0  0  0  0  0
    3.1563   -8.1740    1.9132 C   0  0  0  0  0  0  0  0  0  0  0  0
    2.5770   -7.2446    1.0149 N   0  0  0  0  0  0  0  0  0  0  0  0
    1.8419   -7.5662   -0.1156 C   0  0  0  0  0  0  0  0  0  0  0  0
    1.5880   -8.7026   -0.4874 O   0  0  0  0  0  0  0  0  0  0  0  0
    1.4687   -6.4426   -0.8398 N   0  0  0  0  0  0  0  0  0  0  0  0
    0.7356   -6.5766   -2.0493 C   0  0  0  0  0  0  0  0  0  0  0  0
   -0.3323   -7.4684   -2.1835 C   0  0  0  0  0  0  0  0  0  0  0  0
   -0.9701   -7.6266   -3.4229 C   0  0  0  0  0  0  0  0  0  0  0  0
   -0.5437   -6.8998   -4.5360 C   0  0  0  0  0  0  0  0  0  0  0  0
   -1.2344   -7.1232   -5.7089 O   0  0  0  0  0  0  0  0  0  0  0  0
   -0.5734   -7.1242   -6.9202 C   0  0  0  0  0  0  0  0  0  0  0  0
    0.7659   -7.4595   -7.0780 C   0  0  0  0  0  0  0  0  0  0  0  0
    1.2972   -7.3875   -8.3468 C   0  0  0  0  0  0  0  0  0  0  0  0
    0.5772   -7.0644   -9.4375 N   0  0  0  0  0  0  0  0  0  0  0  0
   -0.7336   -6.8152   -9.3026 C   0  0  0  0  0  0  0  0  0  0  0  0
   -1.5097   -6.5420  -10.4477 N   0  0  0  0  0  0  0  0  0  0  0  0
   -0.9957   -6.5201  -11.7325 C   0  0  0  0  0  0  0  0  0  0  0  0
    0.1646   -6.7068  -12.0677 O   0  0  0  0  0  0  0  0  0  0  0  0
   -1.9591   -6.2489  -12.8444 C   0  0  0  0  0  0  0  0  0  0  0  0
   -3.3979   -5.8345  -12.7300 C   0  0  0  0  0  0  0  0  0  0  0  0
   -3.0621   -7.2423  -13.1303 C   0  0  0  0  0  0  0  0  0  0  0  0
   -1.3474   -6.8306   -8.0530 C   0  0  0  0  0  0  0  0  0  0  0  0
    0.4772   -5.9565   -4.3893 C   0  0  0  0  0  0  0  0  0  0  0  0
    1.1076   -5.8085   -3.1537 C   0  0  0  0  0  0  0  0  0  0  0  0
    2.1395   -4.9567   -3.0452 F   0  0  0  0  0  0  0  0  0  0  0  0
    4.0093   -7.6917    2.9166 C   0  0  0  0  0  0  0  0  0  0  0  0
    7.6244   -7.6560    5.3082 H   0  0  0  0  0  0  0  0  0  0  0  0
    7.1597   -7.4028    3.6226 H   0  0  0  0  0  0  0  0  0  0  0  0
    7.3619   -9.0531    4.2612 H   0  0  0  0  0  0  0  0  0  0  0  0
    4.8545  -10.6582    4.4033 H   0  0  0  0  0  0  0  0  0  0  0  0
    2.2526   -9.9985    1.1239 H   0  0  0  0  0  0  0  0  0  0  0  0
    2.7081   -6.2633    1.2145 H   0  0  0  0  0  0  0  0  0  0  0  0
    2.1308   -5.6768   -0.8284 H   0  0  0  0  0  0  0  0  0  0  0  0
   -0.6744   -8.0580   -1.3341 H   0  0  0  0  0  0  0  0  0  0  0  0
   -1.7921   -8.3341   -3.5111 H   0  0  0  0  0  0  0  0  0  0  0  0
    1.3981   -7.7622   -6.2522 H   0  0  0  0  0  0  0  0  0  0  0  0
    2.3469   -7.5909   -8.5349 H   0  0  0  0  0  0  0  0  0  0  0  0
   -2.4970   -6.3866  -10.3165 H   0  0  0  0  0  0  0  0  0  0  0  0
   -1.4391   -5.8588  -13.7193 H   0  0  0  0  0  0  0  0  0  0  0  0
   -3.7838   -5.1772  -13.5105 H   0  0  0  0  0  0  0  0  0  0  0  0
   -3.8554   -5.6639  -11.7678 H   0  0  0  0  0  0  0  0  0  0  0  0
   -3.1956   -7.5432  -14.1639 H   0  0  0  0  0  0  0  0  0  0  0  0
   -3.2485   -8.0368  -12.4164 H   0  0  0  0  0  0  0  0  0  0  0  0
   -2.4061   -6.6275   -7.9391 H   0  0  0  0  0  0  0  0  0  0  0  0
    0.8157   -5.3508   -5.2219 H   0  0  0  0  0  0  0  0  0  0  0  0
    4.2032   -6.6222    3.0076 H   0  0  0  0  0  0  0  0  0  0  0  0
  1  2  1  0  0  0  0
  1 36  1  0  0  0  0
  1 37  1  0  0  0  0
  1 38  1  0  0  0  0
  2  3  1  0  0  0  0
  2  4  1  0  0  0  0
  2  5  1  0  0  0  0
  5  6  1  0  0  0  0
  5 35  2  0  0  0  0
  6  7  2  0  0  0  0
  6 39  1  0  0  0  0
  7  8  1  0  0  0  0
  7  9  1  0  0  0  0
  9 10  2  0  0  0  0
  9 40  1  0  0  0  0
 10 11  1  0  0  0  0
 10 35  1  0  0  0  0
 11 12  1  0  0  0  0
 11 41  1  0  0  0  0
 12 13  2  0  0  0  0
 12 14  1  0  0  0  0
 14 15  1  0  0  0  0
 14 42  1  0  0  0  0
 15 16  1  0  0  0  0
 15 33  2  0  0  0  0
 16 17  2  0  0  0  0
 16 43  1  0  0  0  0
 17 18  1  0  0  0  0
 17 44  1  0  0  0  0
 18 19  1  0  0  0  0
 18 32  2  0  0  0  0
 19 20  1  0  0  0  0
 20 21  1  0  0  0  0
 20 31  2  0  0  0  0
 21 22  2  0  0  0  0
 21 45  1  0  0  0  0
 22 23  1  0  0  0  0
 22 46  1  0  0  0  0
 23 24  2  0  0  0  0
 24 25  1  0  0  0  0
 24 31  1  0  0  0  0
 25 26  1  0  0  0  0
 25 47  1  0  0  0  0
 26 27  2  0  0  0  0
 26 28  1  0  0  0  0
 28 29  1  0  0  0  0
 28 30  1  0  0  0  0
 28 48  1  0  0  0  0
 29 30  1  0  0  0  0
 29 49  1  0  0  0  0
 29 50  1  0  0  0  0
 30 51  1  0  0  0  0
 30 52  1  0  0  0  0
 31 53  1  0  0  0  0
 32 33  1  0  0  0  0
 32 54  1  0  0  0  0
 33 34  1  0  0  0  0
 35 55  1  0  0  0  0
M  END
$$$$
