CHEMBL3931223
 OpenBabel04072215373D

 84 89  0  0  0  0  0  0  0  0999 V2000
    2.6470   -0.0769    1.2813 C   0  0  0  0  0  0  0  0  0  0  0  0
    2.3913    0.2250   -0.0845 O   0  0  0  0  0  0  0  0  0  0  0  0
    3.1156   -0.3934   -1.0660 C   0  0  0  0  0  0  0  0  0  0  0  0
    4.3028   -1.1016   -0.8209 C   0  0  0  0  0  0  0  0  0  0  0  0
    4.9720   -1.8184   -1.8456 C   0  0  0  0  0  0  0  0  0  0  0  0
    6.1488   -2.5871   -1.6487 C   0  0  0  0  0  0  0  0  0  0  0  0
    6.6660   -2.7029   -0.3702 O   0  0  0  0  0  0  0  0  0  0  0  0
    7.2587   -3.8878    0.0242 C   0  0  0  0  0  0  0  0  0  0  0  0
    8.3590   -3.7699    0.8723 C   0  0  0  0  0  0  0  0  0  0  0  0
    8.9865   -4.9127    1.3932 C   0  0  0  0  0  0  0  0  0  0  0  0
    8.5175   -6.1979    1.0961 C   0  0  0  0  0  0  0  0  0  0  0  0
    9.0565   -7.3700    1.6800 N   0  0  0  0  0  0  0  0  0  0  0  0
   10.2078   -7.4624    2.4451 C   0  0  0  0  0  0  0  0  0  0  0  0
   11.0447   -6.5761    2.5815 O   0  0  0  0  0  0  0  0  0  0  0  0
   10.3715   -8.7672    3.0993 C   0  0  0  0  0  0  0  0  0  0  0  0
   11.4687   -9.1582    3.8496 C   0  0  0  0  0  0  0  0  0  0  0  0
   11.2583  -10.4660    4.2294 N   0  0  0  0  0  0  0  0  0  0  0  0
   12.1658  -11.3683    4.8729 C   0  0  0  0  0  0  0  0  0  0  0  0
   11.9536  -12.7509    4.6935 C   0  0  0  0  0  0  0  0  0  0  0  0
   12.8619  -13.6896    5.1872 C   0  0  0  0  0  0  0  0  0  0  0  0
   13.9740  -13.2688    5.9011 C   0  0  0  0  0  0  0  0  0  0  0  0
   14.1766  -11.9082    6.1277 C   0  0  0  0  0  0  0  0  0  0  0  0
   13.2981  -10.9432    5.6024 C   0  0  0  0  0  0  0  0  0  0  0  0
   13.4749   -9.6068    5.8486 O   0  0  0  0  0  0  0  0  0  0  0  0
   14.8000   -9.1795    6.1602 C   0  0  0  0  0  0  0  0  0  0  0  0
    9.9865  -10.7619    3.7649 C   0  0  0  0  0  0  0  0  0  0  0  0
    9.4500   -9.7865    3.0571 N   0  0  0  0  0  0  0  0  0  0  0  0
    7.4225   -6.3159    0.2334 C   0  0  0  0  0  0  0  0  0  0  0  0
    6.7984   -5.1710   -0.2850 C   0  0  0  0  0  0  0  0  0  0  0  0
    5.7323   -5.3444   -1.0804 F   0  0  0  0  0  0  0  0  0  0  0  0
    6.7968   -3.1551   -2.7401 C   0  0  0  0  0  0  0  0  0  0  0  0
    6.1899   -3.0506   -3.9708 C   0  0  0  0  0  0  0  0  0  0  0  0
    5.0310   -2.3961   -4.1879 N   0  0  0  0  0  0  0  0  0  0  0  0
    4.4455   -1.7760   -3.1506 C   0  0  0  0  0  0  0  0  0  0  0  0
    3.2870   -1.0435   -3.3888 C   0  0  0  0  0  0  0  0  0  0  0  0
    2.6366   -0.3151   -2.3846 C   0  0  0  0  0  0  0  0  0  0  0  0
    1.5537    0.4107   -2.8474 O   0  0  0  0  0  0  0  0  0  0  0  0
    1.2284    1.5806   -2.0912 C   0  0  0  0  0  0  0  0  0  0  0  0
    0.5486    2.6573   -2.9541 C   0  0  0  0  0  0  0  0  0  0  0  0
    0.3049    3.8886   -2.0619 C   0  0  0  0  0  0  0  0  0  0  0  0
   -0.1980    5.0917   -2.7349 N   0  0  0  0  0  0  0  0  0  0  0  0
   -1.5489    4.9333   -3.3007 C   0  0  0  0  0  0  0  0  0  0  0  0
   -2.0233    6.2390   -3.9906 C   0  0  0  0  0  0  0  0  0  0  0  0
   -2.0018    7.4507   -3.1452 N   0  0  0  0  0  0  0  0  0  0  0  0
   -3.1193    7.4817   -2.2077 C   0  0  0  0  0  0  0  0  0  0  0  0
   -0.7007    7.5413   -2.4526 C   0  0  0  0  0  0  0  0  0  0  0  0
   -0.2170    6.2312   -1.7879 C   0  0  0  0  0  0  0  0  0  0  0  0
    3.2169    0.7426    1.7271 H   0  0  0  0  0  0  0  0  0  0  0  0
    3.1524   -1.0310    1.4531 H   0  0  0  0  0  0  0  0  0  0  0  0
    1.6818   -0.1393    1.7918 H   0  0  0  0  0  0  0  0  0  0  0  0
    4.7574   -1.0929    0.1649 H   0  0  0  0  0  0  0  0  0  0  0  0
    8.7326   -2.7876    1.1505 H   0  0  0  0  0  0  0  0  0  0  0  0
    9.8231   -4.7572    2.0689 H   0  0  0  0  0  0  0  0  0  0  0  0
    8.5457   -8.2441    1.5760 H   0  0  0  0  0  0  0  0  0  0  0  0
   12.3789   -8.6227    4.0685 H   0  0  0  0  0  0  0  0  0  0  0  0
   11.1183  -13.1364    4.1155 H   0  0  0  0  0  0  0  0  0  0  0  0
   12.7056  -14.7493    5.0002 H   0  0  0  0  0  0  0  0  0  0  0  0
   14.6846  -13.9964    6.2858 H   0  0  0  0  0  0  0  0  0  0  0  0
   15.0357  -11.6277    6.7303 H   0  0  0  0  0  0  0  0  0  0  0  0
   14.8546   -8.0999    5.9926 H   0  0  0  0  0  0  0  0  0  0  0  0
   15.5459   -9.6504    5.5097 H   0  0  0  0  0  0  0  0  0  0  0  0
   15.0265   -9.3678    7.2150 H   0  0  0  0  0  0  0  0  0  0  0  0
    9.4915  -11.6967    3.9850 H   0  0  0  0  0  0  0  0  0  0  0  0
    7.0275   -7.2870   -0.0503 H   0  0  0  0  0  0  0  0  0  0  0  0
    7.7368   -3.6842   -2.6414 H   0  0  0  0  0  0  0  0  0  0  0  0
    6.6310   -3.5104   -4.8495 H   0  0  0  0  0  0  0  0  0  0  0  0
    2.8880   -1.0231   -4.4000 H   0  0  0  0  0  0  0  0  0  0  0  0
    2.1320    2.0304   -1.6745 H   0  0  0  0  0  0  0  0  0  0  0  0
    0.5349    1.2928   -1.2943 H   0  0  0  0  0  0  0  0  0  0  0  0
   -0.3864    2.2683   -3.3741 H   0  0  0  0  0  0  0  0  0  0  0  0
    1.1915    2.9109   -3.8065 H   0  0  0  0  0  0  0  0  0  0  0  0
    1.2763    4.1493   -1.6197 H   0  0  0  0  0  0  0  0  0  0  0  0
   -0.3545    3.6090   -1.2320 H   0  0  0  0  0  0  0  0  0  0  0  0
   -2.2662    4.6464   -2.5191 H   0  0  0  0  0  0  0  0  0  0  0  0
   -1.5543    4.1400   -4.0543 H   0  0  0  0  0  0  0  0  0  0  0  0
   -3.0256    6.0908   -4.4105 H   0  0  0  0  0  0  0  0  0  0  0  0
   -1.3692    6.4265   -4.8527 H   0  0  0  0  0  0  0  0  0  0  0  0
   -4.0712    7.4440   -2.7494 H   0  0  0  0  0  0  0  0  0  0  0  0
   -3.1216    8.4259   -1.6510 H   0  0  0  0  0  0  0  0  0  0  0  0
   -3.1034    6.6594   -1.4859 H   0  0  0  0  0  0  0  0  0  0  0  0
   -0.7222    8.3451   -1.7054 H   0  0  0  0  0  0  0  0  0  0  0  0
    0.0517    7.8485   -3.1909 H   0  0  0  0  0  0  0  0  0  0  0  0
   -0.8577    6.0009   -0.9248 H   0  0  0  0  0  0  0  0  0  0  0  0
    0.7934    6.4046   -1.3978 H   0  0  0  0  0  0  0  0  0  0  0  0
  1  2  1  0  0  0  0
  1 48  1  0  0  0  0
  1 49  1  0  0  0  0
  1 50  1  0  0  0  0
  2  3  1  0  0  0  0
  3  4  1  0  0  0  0
  3 36  2  0  0  0  0
  4  5  2  0  0  0  0
  4 51  1  0  0  0  0
  5  6  1  0  0  0  0
  5 34  1  0  0  0  0
  6  7  1  0  0  0  0
  6 31  2  0  0  0  0
  7  8  1  0  0  0  0
  8  9  1  0  0  0  0
  8 29  2  0  0  0  0
  9 10  2  0  0  0  0
  9 52  1  0  0  0  0
 10 11  1  0  0  0  0
 10 53  1  0  0  0  0
 11 12  1  0  0  0  0
 11 28  2  0  0  0  0
 12 13  1  0  0  0  0
 12 54  1  0  0  0  0
 13 14  2  0  0  0  0
 13 15  1  0  0  0  0
 15 16  2  0  0  0  0
 15 27  1  0  0  0  0
 16 17  1  0  0  0  0
 16 55  1  0  0  0  0
 17 18  1  0  0  0  0
 17 26  1  0  0  0  0
 18 19  1  0  0  0  0
 18 23  2  0  0  0  0
 19 20  2  0  0  0  0
 19 56  1  0  0  0  0
 20 21  1  0  0  0  0
 20 57  1  0  0  0  0
 21 22  2  0  0  0  0
 21 58  1  0  0  0  0
 22 23  1  0  0  0  0
 22 59  1  0  0  0  0
 23 24  1  0  0  0  0
 24 25  1  0  0  0  0
 25 60  1  0  0  0  0
 25 61  1  0  0  0  0
 25 62  1  0  0  0  0
 26 27  2  0  0  0  0
 26 63  1  0  0  0  0
 28 29  1  0  0  0  0
 28 64  1  0  0  0  0
 29 30  1  0  0  0  0
 31 32  1  0  0  0  0
 31 65  1  0  0  0  0
 32 33  2  0  0  0  0
 32 66  1  0  0  0  0
 33 34  1  0  0  0  0
 34 35  2  0  0  0  0
 35 36  1  0  0  0  0
 35 67  1  0  0  0  0
 36 37  1  0  0  0  0
 37 38  1  0  0  0  0
 38 39  1  0  0  0  0
 38 68  1  0  0  0  0
 38 69  1  0  0  0  0
 39 40  1  0  0  0  0
 39 70  1  0  0  0  0
 39 71  1  0  0  0  0
 40 41  1  0  0  0  0
 40 72  1  0  0  0  0
 40 73  1  0  0  0  0
 41 42  1  0  0  0  0
 41 47  1  0  0  0  0
 42 43  1  0  0  0  0
 42 74  1  0  0  0  0
 42 75  1  0  0  0  0
 43 44  1  0  0  0  0
 43 76  1  0  0  0  0
 43 77  1  0  0  0  0
 44 45  1  0  0  0  0
 44 46  1  0  0  0  0
 45 78  1  0  0  0  0
 45 79  1  0  0  0  0
 45 80  1  0  0  0  0
 46 47  1  0  0  0  0
 46 81  1  0  0  0  0
 46 82  1  0  0  0  0
 47 83  1  0  0  0  0
 47 84  1  0  0  0  0
M  END
$$$$
