CHEMBL3623290
 OpenBabel04072215373D

 55 58  0  0  1  0  0  0  0  0999 V2000
    1.7469    0.4191   -0.9855 C   0  0  0  0  0  0  0  0  0  0  0  0
    2.4414    0.3467    0.2525 O   0  0  0  0  0  0  0  0  0  0  0  0
    2.9082   -0.8783    0.6399 C   0  0  0  0  0  0  0  0  0  0  0  0
    3.9895   -0.8004    1.5326 C   0  0  0  0  0  0  0  0  0  0  0  0
    4.6111   -1.9312    2.0572 C   0  0  0  0  0  0  0  0  0  0  0  0
    5.6548   -1.7722    2.8762 N   0  0  0  0  0  0  0  0  0  0  0  0
    6.2421   -2.8865    3.3212 C   0  0  0  0  0  0  0  0  0  0  0  0
    5.8917   -4.1333    3.0114 N   0  0  0  0  0  0  0  0  0  0  0  0
    4.8379   -4.2904    2.1901 C   0  0  0  0  0  0  0  0  0  0  0  0
    4.4973   -5.6042    1.7713 N   0  0  0  0  0  0  0  0  0  0  0  0
    5.3568   -6.7200    1.9160 C   0  0  0  0  0  0  0  0  0  0  0  0
    6.7116   -6.6248    1.5682 C   0  0  0  0  0  0  0  0  0  0  0  0
    7.5936   -7.6755    1.8108 C   0  0  0  0  0  0  0  0  0  0  0  0
    7.1230   -8.8501    2.3986 C   0  0  0  0  0  0  0  0  0  0  0  0
    5.7661   -8.9794    2.7033 C   0  0  0  0  0  0  0  0  0  0  0  0
    5.2025  -10.4374    3.4269 Cl  0  0  0  0  0  0  0  0  0  0  0  0
    4.8880   -7.9262    2.4489 C   0  0  0  0  0  0  0  0  0  0  0  0
    3.5812   -8.0401    2.7453 F   0  0  0  0  0  0  0  0  0  0  0  0
    4.1238   -3.1905    1.6930 C   0  0  0  0  0  0  0  0  0  0  0  0
    3.0038   -3.2827    0.8439 C   0  0  0  0  0  0  0  0  0  0  0  0
    2.4212   -2.1344    0.2936 C   0  0  0  0  0  0  0  0  0  0  0  0
    1.2671   -2.2782   -0.4991 O   0  0  0  0  0  0  0  0  0  0  0  0
    1.2696   -3.3111   -1.4377 C   0  0  0  0  0  0  0  0  0  0  0  0
    2.2889   -3.8483   -1.8595 O   0  0  0  0  0  0  0  0  0  0  0  0
   -0.0079   -3.7233   -1.7913 N   0  0  0  0  0  0  0  0  0  0  0  0
   -1.2261   -3.0953   -1.2717 C   0  0  0  0  0  0  0  0  0  0  0  0
   -1.9390   -3.9966   -0.2415 C   0  0  0  0  0  0  0  0  0  0  0  0
   -2.1546   -5.3915   -0.6776 N   0  0  0  0  0  0  0  0  0  0  0  0
   -3.3078   -5.5275   -1.5589 C   0  0  0  0  0  0  0  0  0  0  0  0
   -0.9158   -5.9565   -1.2478 C   0  0  0  0  0  0  0  0  0  0  0  0
   -0.1715   -5.0933   -2.3045 C   0  0  1  0  0  0  0  0  0  0  0  0
   -0.8158   -5.1094   -3.6881 C   0  0  0  0  0  0  0  0  0  0  0  0
    1.7242    1.4710   -1.2892 H   0  0  0  0  0  0  0  0  0  0  0  0
    0.7106    0.0943   -0.8635 H   0  0  0  0  0  0  0  0  0  0  0  0
    2.2570   -0.1409   -1.7760 H   0  0  0  0  0  0  0  0  0  0  0  0
    4.3758    0.1749    1.8124 H   0  0  0  0  0  0  0  0  0  0  0  0
    7.0877   -2.7676    3.9897 H   0  0  0  0  0  0  0  0  0  0  0  0
    3.5337   -5.8280    2.0064 H   0  0  0  0  0  0  0  0  0  0  0  0
    7.0922   -5.7064    1.1240 H   0  0  0  0  0  0  0  0  0  0  0  0
    8.6461   -7.5656    1.5676 H   0  0  0  0  0  0  0  0  0  0  0  0
    7.8186   -9.6565    2.6190 H   0  0  0  0  0  0  0  0  0  0  0  0
    2.6019   -4.2609    0.5973 H   0  0  0  0  0  0  0  0  0  0  0  0
   -1.8824   -2.8998   -2.1257 H   0  0  0  0  0  0  0  0  0  0  0  0
   -1.0063   -2.1234   -0.8196 H   0  0  0  0  0  0  0  0  0  0  0  0
   -2.8908   -3.5375    0.0529 H   0  0  0  0  0  0  0  0  0  0  0  0
   -1.3279   -4.0278    0.6698 H   0  0  0  0  0  0  0  0  0  0  0  0
   -4.2300   -5.3916   -0.9838 H   0  0  0  0  0  0  0  0  0  0  0  0
   -3.3584   -6.5326   -1.9927 H   0  0  0  0  0  0  0  0  0  0  0  0
   -3.3224   -4.8014   -2.3748 H   0  0  0  0  0  0  0  0  0  0  0  0
   -1.0954   -6.9671   -1.6348 H   0  0  0  0  0  0  0  0  0  0  0  0
   -0.2282   -6.0976   -0.4007 H   0  0  0  0  0  0  0  0  0  0  0  0
    0.8160   -5.5563   -2.4248 H   0  0  0  0  0  0  0  0  0  0  0  0
   -1.7201   -4.5013   -3.7475 H   0  0  0  0  0  0  0  0  0  0  0  0
   -1.0662   -6.1317   -3.9895 H   0  0  0  0  0  0  0  0  0  0  0  0
   -0.1186   -4.7022   -4.4283 H   0  0  0  0  0  0  0  0  0  0  0  0
  1  2  1  0  0  0  0
  1 33  1  0  0  0  0
  1 34  1  0  0  0  0
  1 35  1  0  0  0  0
  2  3  1  0  0  0  0
  3  4  1  0  0  0  0
  3 21  2  0  0  0  0
  4  5  2  0  0  0  0
  4 36  1  0  0  0  0
  5  6  1  0  0  0  0
  5 19  1  0  0  0  0
  6  7  2  0  0  0  0
  7  8  1  0  0  0  0
  7 37  1  0  0  0  0
  8  9  2  0  0  0  0
  9 10  1  0  0  0  0
  9 19  1  0  0  0  0
 10 11  1  0  0  0  0
 10 38  1  0  0  0  0
 11 12  1  0  0  0  0
 11 17  2  0  0  0  0
 12 13  2  0  0  0  0
 12 39  1  0  0  0  0
 13 14  1  0  0  0  0
 13 40  1  0  0  0  0
 14 15  2  0  0  0  0
 14 41  1  0  0  0  0
 15 16  1  0  0  0  0
 15 17  1  0  0  0  0
 17 18  1  0  0  0  0
 19 20  2  0  0  0  0
 20 21  1  0  0  0  0
 20 42  1  0  0  0  0
 21 22  1  0  0  0  0
 22 23  1  0  0  0  0
 23 24  2  0  0  0  0
 23 25  1  0  0  0  0
 25 26  1  0  0  0  0
 25 31  1  0  0  0  0
 26 27  1  0  0  0  0
 26 43  1  0  0  0  0
 26 44  1  0  0  0  0
 27 28  1  0  0  0  0
 27 45  1  0  0  0  0
 27 46  1  0  0  0  0
 28 29  1  0  0  0  0
 28 30  1  0  0  0  0
 29 47  1  0  0  0  0
 29 48  1  0  0  0  0
 29 49  1  0  0  0  0
 30 31  1  0  0  0  0
 30 50  1  0  0  0  0
 30 51  1  0  0  0  0
 31 32  1  0  0  0  0
 31 52  1  6  0  0  0
 32 53  1  0  0  0  0
 32 54  1  0  0  0  0
 32 55  1  0  0  0  0
M  END
$$$$
