CHEMBL1242758
 OpenBabel04072215363D

 42 46  0  0  0  0  0  0  0  0999 V2000
    1.1714    0.2108    0.1028 N   0  0  0  0  0  0  0  0  0  0  0  0
    2.5484    0.0335    0.0894 C   0  0  0  0  0  0  0  0  0  0  0  0
    3.2775    1.1683    0.0873 N   0  0  0  0  0  0  0  0  0  0  0  0
    4.6187    1.0756    0.0599 C   0  0  0  0  0  0  0  0  0  0  0  0
    5.3647   -0.0373    0.0430 N   0  0  0  0  0  0  0  0  0  0  0  0
    4.6009   -1.1449    0.0534 C   0  0  0  0  0  0  0  0  0  0  0  0
    3.2157   -1.2025    0.0697 C   0  0  0  0  0  0  0  0  0  0  0  0
    2.9078   -2.6033    0.0374 C   0  0  0  0  0  0  0  0  0  0  0  0
    1.5892   -3.2392   -0.0353 C   0  0  0  0  0  0  0  0  0  0  0  0
    0.4996   -2.7542    0.7093 C   0  0  0  0  0  0  0  0  0  0  0  0
   -0.7910   -3.2407    0.5080 C   0  0  0  0  0  0  0  0  0  0  0  0
   -1.0321   -4.2767   -0.3932 C   0  0  0  0  0  0  0  0  0  0  0  0
    0.0675   -4.8202   -1.0667 C   0  0  0  0  0  0  0  0  0  0  0  0
    0.1160   -5.8655   -1.9626 N   0  0  0  0  0  0  0  0  0  0  0  0
    1.3951   -6.0517   -2.4067 C   0  0  0  0  0  0  0  0  0  0  0  0
    2.1918   -5.1210   -1.7813 C   0  0  0  0  0  0  0  0  0  0  0  0
    1.3708   -4.3313   -0.9165 C   0  0  0  0  0  0  0  0  0  0  0  0
    4.0345   -3.3408    0.0428 N   0  0  0  0  0  0  0  0  0  0  0  0
    5.0382   -2.4423    0.0396 N   0  0  0  0  0  0  0  0  0  0  0  0
    6.4151   -2.8786    0.0184 C   0  0  0  0  0  0  0  0  0  0  0  0
    6.7850   -3.7616   -1.1782 C   0  0  0  0  0  0  0  0  0  0  0  0
    8.0248   -4.5376   -0.7345 C   0  0  0  0  0  0  0  0  0  0  0  0
    8.1058   -4.4069    0.7854 C   0  0  0  0  0  0  0  0  0  0  0  0
    6.8081   -3.7392    1.2195 C   0  0  0  0  0  0  0  0  0  0  0  0
    0.9426    1.1778   -0.0982 H   0  0  0  0  0  0  0  0  0  0  0  0
    0.6531   -0.4759   -0.4305 H   0  0  0  0  0  0  0  0  0  0  0  0
    5.1585    2.0174    0.0416 H   0  0  0  0  0  0  0  0  0  0  0  0
    0.6467   -1.9628    1.4422 H   0  0  0  0  0  0  0  0  0  0  0  0
   -1.6216   -2.8012    1.0556 H   0  0  0  0  0  0  0  0  0  0  0  0
   -2.0376   -4.6535   -0.5515 H   0  0  0  0  0  0  0  0  0  0  0  0
   -0.6839   -6.4151   -2.2438 H   0  0  0  0  0  0  0  0  0  0  0  0
    1.6309   -6.8294   -3.1204 H   0  0  0  0  0  0  0  0  0  0  0  0
    3.2619   -5.0233   -1.9129 H   0  0  0  0  0  0  0  0  0  0  0  0
    7.0557   -1.9871    0.0031 H   0  0  0  0  0  0  0  0  0  0  0  0
    6.9802   -3.1666   -2.0771 H   0  0  0  0  0  0  0  0  0  0  0  0
    5.9828   -4.4678   -1.4241 H   0  0  0  0  0  0  0  0  0  0  0  0
    8.9304   -4.1293   -1.1967 H   0  0  0  0  0  0  0  0  0  0  0  0
    7.9511   -5.5874   -1.0394 H   0  0  0  0  0  0  0  0  0  0  0  0
    8.9627   -3.7794    1.0570 H   0  0  0  0  0  0  0  0  0  0  0  0
    8.2430   -5.3776    1.2730 H   0  0  0  0  0  0  0  0  0  0  0  0
    6.9393   -3.1430    2.1287 H   0  0  0  0  0  0  0  0  0  0  0  0
    6.0523   -4.5045    1.4323 H   0  0  0  0  0  0  0  0  0  0  0  0
  1  2  1  0  0  0  0
  1 25  1  0  0  0  0
  1 26  1  0  0  0  0
  2  3  1  0  0  0  0
  2  7  2  0  0  0  0
  3  4  2  0  0  0  0
  4  5  1  0  0  0  0
  4 27  1  0  0  0  0
  5  6  2  0  0  0  0
  6  7  1  0  0  0  0
  6 19  1  0  0  0  0
  7  8  1  0  0  0  0
  8  9  1  0  0  0  0
  8 18  2  0  0  0  0
  9 10  1  0  0  0  0
  9 17  2  0  0  0  0
 10 11  2  0  0  0  0
 10 28  1  0  0  0  0
 11 12  1  0  0  0  0
 11 29  1  0  0  0  0
 12 13  2  0  0  0  0
 12 30  1  0  0  0  0
 13 14  1  0  0  0  0
 13 17  1  0  0  0  0
 14 15  1  0  0  0  0
 14 31  1  0  0  0  0
 15 16  2  0  0  0  0
 15 32  1  0  0  0  0
 16 17  1  0  0  0  0
 16 33  1  0  0  0  0
 18 19  1  0  0  0  0
 19 20  1  0  0  0  0
 20 21  1  0  0  0  0
 20 24  1  0  0  0  0
 20 34  1  0  0  0  0
 21 22  1  0  0  0  0
 21 35  1  0  0  0  0
 21 36  1  0  0  0  0
 22 23  1  0  0  0  0
 22 37  1  0  0  0  0
 22 38  1  0  0  0  0
 23 24  1  0  0  0  0
 23 39  1  0  0  0  0
 23 40  1  0  0  0  0
 24 41  1  0  0  0  0
 24 42  1  0  0  0  0
M  END
$$$$
