CHEMBL4250273
 OpenBabel04072215383D

 41 43  0  0  0  0  0  0  0  0999 V2000
    1.7919    0.0695   -0.6877 C   0  0  0  0  0  0  0  0  0  0  0  0
    2.3283    0.3409    0.6015 O   0  0  0  0  0  0  0  0  0  0  0  0
    2.9970   -0.6761    1.2206 C   0  0  0  0  0  0  0  0  0  0  0  0
    3.1686   -1.9682    0.7266 C   0  0  0  0  0  0  0  0  0  0  0  0
    4.0186   -2.8657    1.3874 C   0  0  0  0  0  0  0  0  0  0  0  0
    4.7108   -2.4954    2.5516 C   0  0  0  0  0  0  0  0  0  0  0  0
    5.7115   -3.3403    3.1025 N   0  0  0  0  0  0  0  0  0  0  0  0
    6.9099   -2.8789    3.7030 C   0  0  0  0  0  0  0  0  0  0  0  0
    7.3749   -3.5584    4.8040 N   0  0  0  0  0  0  0  0  0  0  0  0
    8.4942   -3.1865    5.4334 C   0  0  0  0  0  0  0  0  0  0  0  0
    9.2687   -2.1513    5.1473 N   0  0  0  0  0  0  0  0  0  0  0  0
    8.8203   -1.4857    4.0806 C   0  0  0  0  0  0  0  0  0  0  0  0
    9.4736   -0.3841    3.6338 O   0  0  0  0  0  0  0  0  0  0  0  0
    8.8282    0.0489    2.5360 C   0  0  0  0  0  0  0  0  0  0  0  0
    7.7547   -0.7651    2.2333 C   0  0  0  0  0  0  0  0  0  0  0  0
    6.9244   -0.5550    1.0213 C   0  0  0  0  0  0  0  0  0  0  0  0
    7.7023   -1.7620    3.2866 C   0  0  0  0  0  0  0  0  0  0  0  0
    5.1715   -4.6680    3.5487 C   0  0  0  0  0  0  0  0  0  0  0  0
    6.1675   -5.8344    3.3755 C   0  0  0  0  0  0  0  0  0  0  0  0
    4.5569   -4.6335    4.9525 C   0  0  0  0  0  0  0  0  0  0  0  0
    4.4296   -1.2366    3.1033 C   0  0  0  0  0  0  0  0  0  0  0  0
    3.5916   -0.3331    2.4367 C   0  0  0  0  0  0  0  0  0  0  0  0
    1.4122    1.0098   -1.0980 H   0  0  0  0  0  0  0  0  0  0  0  0
    0.9528   -0.6282   -0.6079 H   0  0  0  0  0  0  0  0  0  0  0  0
    2.5531   -0.3056   -1.3820 H   0  0  0  0  0  0  0  0  0  0  0  0
    2.6984   -2.2965   -0.1947 H   0  0  0  0  0  0  0  0  0  0  0  0
    4.1830   -3.8445    0.9428 H   0  0  0  0  0  0  0  0  0  0  0  0
    8.8021   -3.8024    6.2718 H   0  0  0  0  0  0  0  0  0  0  0  0
    9.2519    0.9250    2.0620 H   0  0  0  0  0  0  0  0  0  0  0  0
    7.3155    0.2816    0.4277 H   0  0  0  0  0  0  0  0  0  0  0  0
    5.9125   -0.2646    1.2644 H   0  0  0  0  0  0  0  0  0  0  0  0
    6.9166   -1.4414    0.3830 H   0  0  0  0  0  0  0  0  0  0  0  0
    4.3392   -4.9576    2.8914 H   0  0  0  0  0  0  0  0  0  0  0  0
    7.1386   -5.6783    3.8474 H   0  0  0  0  0  0  0  0  0  0  0  0
    6.3547   -6.0182    2.3120 H   0  0  0  0  0  0  0  0  0  0  0  0
    5.7591   -6.7577    3.8033 H   0  0  0  0  0  0  0  0  0  0  0  0
    5.2692   -4.3565    5.7325 H   0  0  0  0  0  0  0  0  0  0  0  0
    4.1498   -5.6153    5.2197 H   0  0  0  0  0  0  0  0  0  0  0  0
    3.7293   -3.9172    4.9909 H   0  0  0  0  0  0  0  0  0  0  0  0
    4.9139   -0.9169    4.0225 H   0  0  0  0  0  0  0  0  0  0  0  0
    3.4714    0.6725    2.8317 H   0  0  0  0  0  0  0  0  0  0  0  0
  1  2  1  0  0  0  0
  1 23  1  0  0  0  0
  1 24  1  0  0  0  0
  1 25  1  0  0  0  0
  2  3  1  0  0  0  0
  3  4  1  0  0  0  0
  3 22  2  0  0  0  0
  4  5  2  0  0  0  0
  4 26  1  0  0  0  0
  5  6  1  0  0  0  0
  5 27  1  0  0  0  0
  6  7  1  0  0  0  0
  6 21  2  0  0  0  0
  7  8  1  0  0  0  0
  7 18  1  0  0  0  0
  8  9  1  0  0  0  0
  8 17  2  0  0  0  0
  9 10  2  0  0  0  0
 10 11  1  0  0  0  0
 10 28  1  0  0  0  0
 11 12  2  0  0  0  0
 12 13  1  0  0  0  0
 12 17  1  0  0  0  0
 13 14  1  0  0  0  0
 14 15  2  0  0  0  0
 14 29  1  0  0  0  0
 15 16  1  0  0  0  0
 15 17  1  0  0  0  0
 16 30  1  0  0  0  0
 16 31  1  0  0  0  0
 16 32  1  0  0  0  0
 18 19  1  0  0  0  0
 18 20  1  0  0  0  0
 18 33  1  0  0  0  0
 19 34  1  0  0  0  0
 19 35  1  0  0  0  0
 19 36  1  0  0  0  0
 20 37  1  0  0  0  0
 20 38  1  0  0  0  0
 20 39  1  0  0  0  0
 21 22  1  0  0  0  0
 21 40  1  0  0  0  0
 22 41  1  0  0  0  0
M  END
$$$$
