CHEMBL2448067
 OpenBabel04072215363D

 56 58  0  0  0  0  0  0  0  0999 V2000
    2.8789   -0.9270   -1.1626 C   0  0  0  0  0  0  0  0  0  0  0  0
    2.7483   -0.3307    0.0718 O   0  0  0  0  0  0  0  0  0  0  0  0
    3.3399    0.8014    0.5340 C   0  0  0  0  0  0  0  0  0  0  0  0
    4.4127    1.3943   -0.1587 C   0  0  0  0  0  0  0  0  0  0  0  0
    5.0286    2.5534    0.3352 C   0  0  0  0  0  0  0  0  0  0  0  0
    6.1010    3.2007   -0.3295 C   0  0  0  0  0  0  0  0  0  0  0  0
    6.6747    2.6702   -1.5230 N   0  0  0  0  0  0  0  0  0  0  0  0
    7.2046    3.4971   -2.5608 C   0  0  0  0  0  0  0  0  0  0  0  0
    8.1890    2.9773   -3.4206 C   0  0  0  0  0  0  0  0  0  0  0  0
    8.6891    3.7488   -4.4730 C   0  0  0  0  0  0  0  0  0  0  0  0
    8.1956    5.0381   -4.6949 C   0  0  0  0  0  0  0  0  0  0  0  0
    8.7941    5.9951   -6.0362 Cl  0  0  0  0  0  0  0  0  0  0  0  0
    7.2110    5.5596   -3.8584 C   0  0  0  0  0  0  0  0  0  0  0  0
    6.7168    4.8044   -2.7947 C   0  0  0  0  0  0  0  0  0  0  0  0
    5.7185    5.3378   -2.0456 F   0  0  0  0  0  0  0  0  0  0  0  0
    6.6228    4.3376    0.2051 N   0  0  0  0  0  0  0  0  0  0  0  0
    6.1538    4.8691    1.3603 C   0  0  0  0  0  0  0  0  0  0  0  0
    5.1259    4.2727    2.0095 N   0  0  0  0  0  0  0  0  0  0  0  0
    4.5534    3.1391    1.5262 C   0  0  0  0  0  0  0  0  0  0  0  0
    3.4908    2.5582    2.2148 C   0  0  0  0  0  0  0  0  0  0  0  0
    2.8774    1.3929    1.7447 C   0  0  0  0  0  0  0  0  0  0  0  0
    1.8649    0.8847    2.5035 O   0  0  0  0  0  0  0  0  0  0  0  0
    1.0301   -0.1654    2.1793 C   0  0  0  0  0  0  0  0  0  0  0  0
    0.2723   -0.6631    3.3976 C   0  0  0  0  0  0  0  0  0  0  0  0
   -0.7065    0.3664    3.9673 C   0  0  0  0  0  0  0  0  0  0  0  0
   -1.4396   -0.1443    5.1586 N   0  0  0  0  0  0  0  0  0  0  0  0
   -2.3240   -1.2883    4.8512 C   0  0  0  0  0  0  0  0  0  0  0  0
   -3.6160   -0.6724    4.3651 C   0  0  0  0  0  0  0  0  0  0  0  0
   -3.8017    0.3775    5.4291 C   0  0  0  0  0  0  0  0  0  0  0  0
   -2.3781    0.9022    5.6440 C   0  0  0  0  0  0  0  0  0  0  0  0
    0.7661    3.2153   -0.7445 Cl  0  0  0  0  0  0  0  0  0  0  0  0
    2.3242   -1.8887   -1.1425 H   0  0  0  0  0  0  0  0  0  0  0  0
    3.9398   -1.1497   -1.3940 H   0  0  0  0  0  0  0  0  0  0  0  0
    2.4256   -0.2797   -1.9423 H   0  0  0  0  0  0  0  0  0  0  0  0
    4.7587    0.9430   -1.0729 H   0  0  0  0  0  0  0  0  0  0  0  0
    6.7319    1.6522   -1.6445 H   0  0  0  0  0  0  0  0  0  0  0  0
    8.5744    1.9774   -3.2647 H   0  0  0  0  0  0  0  0  0  0  0  0
    9.4527    3.3423   -5.1208 H   0  0  0  0  0  0  0  0  0  0  0  0
    6.8071    6.5488   -4.0375 H   0  0  0  0  0  0  0  0  0  0  0  0
    6.6050    5.7625    1.7635 H   0  0  0  0  0  0  0  0  0  0  0  0
    3.1322    3.0176    3.1299 H   0  0  0  0  0  0  0  0  0  0  0  0
    1.6264   -1.0464    1.8804 H   0  0  0  0  0  0  0  0  0  0  0  0
    0.3354    0.1333    1.3595 H   0  0  0  0  0  0  0  0  0  0  0  0
    0.9989   -0.9644    4.1818 H   0  0  0  0  0  0  0  0  0  0  0  0
   -0.2634   -1.5601    3.0418 H   0  0  0  0  0  0  0  0  0  0  0  0
   -1.4090    0.6870    3.1668 H   0  0  0  0  0  0  0  0  0  0  0  0
   -0.1147    1.2592    4.2720 H   0  0  0  0  0  0  0  0  0  0  0  0
   -2.5141   -1.8394    5.8020 H   0  0  0  0  0  0  0  0  0  0  0  0
   -1.9214   -2.0424    4.1554 H   0  0  0  0  0  0  0  0  0  0  0  0
   -4.4583   -1.3906    4.2829 H   0  0  0  0  0  0  0  0  0  0  0  0
   -3.4460   -0.1996    3.3741 H   0  0  0  0  0  0  0  0  0  0  0  0
   -4.1169   -0.1606    6.3512 H   0  0  0  0  0  0  0  0  0  0  0  0
   -4.5560    1.1590    5.1982 H   0  0  0  0  0  0  0  0  0  0  0  0
   -2.2138    1.1252    6.7209 H   0  0  0  0  0  0  0  0  0  0  0  0
   -2.2534    1.8587    5.0870 H   0  0  0  0  0  0  0  0  0  0  0  0
    1.0196    1.8738   -0.5934 H   0  0  0  0  0  0  0  0  0  0  0  0
  1  2  1  0  0  0  0
  1 32  1  0  0  0  0
  1 33  1  0  0  0  0
  1 34  1  0  0  0  0
  2  3  1  0  0  0  0
  3  4  1  0  0  0  0
  3 21  2  0  0  0  0
  4  5  2  0  0  0  0
  4 35  1  0  0  0  0
  5  6  1  0  0  0  0
  5 19  1  0  0  0  0
  6  7  1  0  0  0  0
  6 16  2  0  0  0  0
  7  8  1  0  0  0  0
  7 36  1  0  0  0  0
  8  9  1  0  0  0  0
  8 14  2  0  0  0  0
  9 10  2  0  0  0  0
  9 37  1  0  0  0  0
 10 11  1  0  0  0  0
 10 38  1  0  0  0  0
 11 12  1  0  0  0  0
 11 13  2  0  0  0  0
 13 14  1  0  0  0  0
 13 39  1  0  0  0  0
 14 15  1  0  0  0  0
 16 17  1  0  0  0  0
 17 18  2  0  0  0  0
 17 40  1  0  0  0  0
 18 19  1  0  0  0  0
 19 20  2  0  0  0  0
 20 21  1  0  0  0  0
 20 41  1  0  0  0  0
 21 22  1  0  0  0  0
 22 23  1  0  0  0  0
 23 24  1  0  0  0  0
 23 42  1  0  0  0  0
 23 43  1  0  0  0  0
 24 25  1  0  0  0  0
 24 44  1  0  0  0  0
 24 45  1  0  0  0  0
 25 26  1  0  0  0  0
 25 46  1  0  0  0  0
 25 47  1  0  0  0  0
 26 27  1  0  0  0  0
 26 30  1  0  0  0  0
 27 28  1  0  0  0  0
 27 48  1  0  0  0  0
 27 49  1  0  0  0  0
 28 29  1  0  0  0  0
 28 50  1  0  0  0  0
 28 51  1  0  0  0  0
 29 30  1  0  0  0  0
 29 52  1  0  0  0  0
 29 53  1  0  0  0  0
 30 54  1  0  0  0  0
 30 55  1  0  0  0  0
 31 56  1  0  0  0  0
M  END
$$$$
