CHEMBL3754335
 OpenBabel04072215373D

 57 61  0  0  0  0  0  0  0  0999 V2000
    3.6237    0.9528   -0.9620 O   0  0  0  0  0  0  0  0  0  0  0  0
    2.7300    0.7061   -0.1524 C   0  0  0  0  0  0  0  0  0  0  0  0
    3.0813    0.0992    1.2097 C   0  0  0  0  0  0  0  0  0  0  0  0
    2.1577    0.5303    2.2869 N   0  0  0  0  0  0  0  0  0  0  0  0
    2.2383    2.0024    2.5283 C   0  0  0  0  0  0  0  0  0  0  0  0
    3.5439    2.4890    3.2035 C   0  0  0  0  0  0  0  0  0  0  0  0
    3.6470    1.7790    4.4783 N   0  0  0  0  0  0  0  0  0  0  0  0
    4.0218    2.3791    5.6677 C   0  0  0  0  0  0  0  0  0  0  0  0
    4.8688    1.7064    6.4737 N   0  0  0  0  0  0  0  0  0  0  0  0
    5.2785    2.2180    7.6853 N   0  0  0  0  0  0  0  0  0  0  0  0
    4.8937    3.4533    8.0841 C   0  0  0  0  0  0  0  0  0  0  0  0
    5.3480    3.8171    9.4539 C   0  0  0  0  0  0  0  0  0  0  0  0
    6.5697    3.3445    9.9675 C   0  0  0  0  0  0  0  0  0  0  0  0
    7.0147    3.6975   11.2485 C   0  0  0  0  0  0  0  0  0  0  0  0
    6.2545    4.5466   12.0456 C   0  0  0  0  0  0  0  0  0  0  0  0
    5.0227    4.9953   11.5866 C   0  0  0  0  0  0  0  0  0  0  0  0
    4.5623    4.5987   10.3276 C   0  0  0  0  0  0  0  0  0  0  0  0
    4.0711    4.2446    7.2489 C   0  0  0  0  0  0  0  0  0  0  0  0
    3.7292    5.6028    7.5048 C   0  0  0  0  0  0  0  0  0  0  0  0
    2.7743    6.2994    6.7618 C   0  0  0  0  0  0  0  0  0  0  0  0
    2.1215    5.6512    5.7371 C   0  0  0  0  0  0  0  0  0  0  0  0
    2.4909    4.3486    5.4196 C   0  0  0  0  0  0  0  0  0  0  0  0
    3.5318    3.6485    6.0855 C   0  0  0  0  0  0  0  0  0  0  0  0
    3.7883    0.3290    4.3051 C   0  0  0  0  0  0  0  0  0  0  0  0
    2.5177   -0.1807    3.5592 C   0  0  0  0  0  0  0  0  0  0  0  0
    1.3745    0.9121   -0.3442 N   0  0  0  0  0  0  0  0  0  0  0  0
    0.7607    1.4442   -1.4965 C   0  0  0  0  0  0  0  0  0  0  0  0
    1.4043    1.5299   -2.7317 C   0  0  0  0  0  0  0  0  0  0  0  0
    0.7610    2.0830   -3.8422 C   0  0  0  0  0  0  0  0  0  0  0  0
   -0.5426    2.5596   -3.7226 C   0  0  0  0  0  0  0  0  0  0  0  0
   -1.1954    2.4657   -2.4974 C   0  0  0  0  0  0  0  0  0  0  0  0
   -2.8036    3.0646   -2.3480 Cl  0  0  0  0  0  0  0  0  0  0  0  0
   -0.5595    1.9020   -1.3876 C   0  0  0  0  0  0  0  0  0  0  0  0
    4.1219    0.3539    1.4367 H   0  0  0  0  0  0  0  0  0  0  0  0
    3.0183   -0.9885    1.0825 H   0  0  0  0  0  0  0  0  0  0  0  0
    1.3883    2.2512    3.1793 H   0  0  0  0  0  0  0  0  0  0  0  0
    2.0674    2.5702    1.6097 H   0  0  0  0  0  0  0  0  0  0  0  0
    3.5428    3.5782    3.2873 H   0  0  0  0  0  0  0  0  0  0  0  0
    4.4109    2.2608    2.5723 H   0  0  0  0  0  0  0  0  0  0  0  0
    7.1916    2.6799    9.3686 H   0  0  0  0  0  0  0  0  0  0  0  0
    7.9593    3.3078   11.6199 H   0  0  0  0  0  0  0  0  0  0  0  0
    6.6097    4.8429   13.0285 H   0  0  0  0  0  0  0  0  0  0  0  0
    4.4105    5.6447   12.2068 H   0  0  0  0  0  0  0  0  0  0  0  0
    3.5612    4.9150   10.0424 H   0  0  0  0  0  0  0  0  0  0  0  0
    4.2183    6.1555    8.3049 H   0  0  0  0  0  0  0  0  0  0  0  0
    2.5293    7.3277    7.0084 H   0  0  0  0  0  0  0  0  0  0  0  0
    1.3388    6.1531    5.1697 H   0  0  0  0  0  0  0  0  0  0  0  0
    1.9209    3.8636    4.6326 H   0  0  0  0  0  0  0  0  0  0  0  0
    3.8681   -0.2071    5.2568 H   0  0  0  0  0  0  0  0  0  0  0  0
    4.6914    0.1058    3.7237 H   0  0  0  0  0  0  0  0  0  0  0  0
    1.6654   -0.0637    4.2425 H   0  0  0  0  0  0  0  0  0  0  0  0
    2.6058   -1.2580    3.3772 H   0  0  0  0  0  0  0  0  0  0  0  0
    0.8133    0.7974    0.4976 H   0  0  0  0  0  0  0  0  0  0  0  0
    2.4154    1.1557   -2.8712 H   0  0  0  0  0  0  0  0  0  0  0  0
    1.2814    2.1390   -4.7943 H   0  0  0  0  0  0  0  0  0  0  0  0
   -1.0352    3.0000   -4.5860 H   0  0  0  0  0  0  0  0  0  0  0  0
   -1.0895    1.8495   -0.4419 H   0  0  0  0  0  0  0  0  0  0  0  0
  1  2  2  0  0  0  0
  2  3  1  0  0  0  0
  2 26  1  0  0  0  0
  3  4  1  0  0  0  0
  3 34  1  0  0  0  0
  3 35  1  0  0  0  0
  4  5  1  0  0  0  0
  4 25  1  0  0  0  0
  5  6  1  0  0  0  0
  5 36  1  0  0  0  0
  5 37  1  0  0  0  0
  6  7  1  0  0  0  0
  6 38  1  0  0  0  0
  6 39  1  0  0  0  0
  7  8  1  0  0  0  0
  7 24  1  0  0  0  0
  8  9  1  0  0  0  0
  8 23  2  0  0  0  0
  9 10  2  0  0  0  0
 10 11  1  0  0  0  0
 11 12  1  0  0  0  0
 11 18  2  0  0  0  0
 12 13  1  0  0  0  0
 12 17  2  0  0  0  0
 13 14  2  0  0  0  0
 13 40  1  0  0  0  0
 14 15  1  0  0  0  0
 14 41  1  0  0  0  0
 15 16  2  0  0  0  0
 15 42  1  0  0  0  0
 16 17  1  0  0  0  0
 16 43  1  0  0  0  0
 17 44  1  0  0  0  0
 18 19  1  0  0  0  0
 18 23  1  0  0  0  0
 19 20  2  0  0  0  0
 19 45  1  0  0  0  0
 20 21  1  0  0  0  0
 20 46  1  0  0  0  0
 21 22  2  0  0  0  0
 21 47  1  0  0  0  0
 22 23  1  0  0  0  0
 22 48  1  0  0  0  0
 24 25  1  0  0  0  0
 24 49  1  0  0  0  0
 24 50  1  0  0  0  0
 25 51  1  0  0  0  0
 25 52  1  0  0  0  0
 26 27  1  0  0  0  0
 26 53  1  0  0  0  0
 27 28  1  0  0  0  0
 27 33  2  0  0  0  0
 28 29  2  0  0  0  0
 28 54  1  0  0  0  0
 29 30  1  0  0  0  0
 29 55  1  0  0  0  0
 30 31  2  0  0  0  0
 30 56  1  0  0  0  0
 31 32  1  0  0  0  0
 31 33  1  0  0  0  0
 33 57  1  0  0  0  0
M  END
$$$$
