CHEMBL365727
 OpenBabel04072215373D

 70 72  0  0  0  0  0  0  0  0999 V2000
    1.3880    1.4284    5.0852 C   0  0  0  0  0  0  0  0  0  0  0  0
    2.7492    1.2903    4.6998 O   0  0  0  0  0  0  0  0  0  0  0  0
    3.0651    1.6491    3.4160 C   0  0  0  0  0  0  0  0  0  0  0  0
    2.1562    1.9964    2.4189 C   0  0  0  0  0  0  0  0  0  0  0  0
    2.6262    2.3762    1.1642 C   0  0  0  0  0  0  0  0  0  0  0  0
    1.8378    2.8135    0.1330 O   0  0  0  0  0  0  0  0  0  0  0  0
    0.6458    3.4920    0.5237 C   0  0  0  0  0  0  0  0  0  0  0  0
    3.9970    2.3310    0.8907 C   0  0  0  0  0  0  0  0  0  0  0  0
    4.9464    2.0119    1.8824 C   0  0  0  0  0  0  0  0  0  0  0  0
    6.4022    2.1667    1.6276 C   0  0  0  0  0  0  0  0  0  0  0  0
    6.8242    3.2450    0.8168 C   0  0  0  0  0  0  0  0  0  0  0  0
    8.1810    3.5172    0.6006 C   0  0  0  0  0  0  0  0  0  0  0  0
    8.6282    4.5687   -0.1979 C   0  0  0  0  0  0  0  0  0  0  0  0
    9.9275    4.8698   -0.3983 N   0  0  0  0  0  0  0  0  0  0  0  0
   10.8443    4.0832    0.1957 C   0  0  0  0  0  0  0  0  0  0  0  0
   12.2130    4.3564    0.0596 N   0  0  0  0  0  0  0  0  0  0  0  0
   12.5675    5.5683   -0.6764 C   0  0  0  0  0  0  0  0  0  0  0  0
   14.0483    5.5340   -1.0820 C   0  0  0  0  0  0  0  0  0  0  0  0
   14.2960    4.5874   -2.2637 C   0  0  0  0  0  0  0  0  0  0  0  0
   15.7668    4.5452   -2.6709 C   0  0  0  0  0  0  0  0  0  0  0  0
   15.9856    3.5763   -3.8282 C   0  0  0  0  0  0  0  0  0  0  0  0
   17.3615    3.5431   -4.1809 O   0  0  0  0  0  0  0  0  0  0  0  0
   10.4650    3.0081    1.0011 C   0  0  0  0  0  0  0  0  0  0  0  0
    9.1288    2.7195    1.2359 C   0  0  0  0  0  0  0  0  0  0  0  0
    8.7645    1.7114    2.0608 N   0  0  0  0  0  0  0  0  0  0  0  0
    7.4430    1.4178    2.2071 C   0  0  0  0  0  0  0  0  0  0  0  0
    7.1931    0.3319    3.0858 N   0  0  0  0  0  0  0  0  0  0  0  0
    6.9625   -0.9122    2.5293 C   0  0  0  0  0  0  0  0  0  0  0  0
    6.9406   -1.1386    1.3232 O   0  0  0  0  0  0  0  0  0  0  0  0
    6.8080   -1.8826    3.5035 N   0  0  0  0  0  0  0  0  0  0  0  0
    6.7119   -3.3355    3.2134 C   0  0  0  0  0  0  0  0  0  0  0  0
    8.0493   -3.8523    2.6567 C   0  0  0  0  0  0  0  0  0  0  0  0
    6.4254   -4.1054    4.5194 C   0  0  0  0  0  0  0  0  0  0  0  0
    5.5742   -3.6543    2.2288 C   0  0  0  0  0  0  0  0  0  0  0  0
    4.4403    1.6739    3.1473 C   0  0  0  0  0  0  0  0  0  0  0  0
    1.3245    1.2288    6.1589 H   0  0  0  0  0  0  0  0  0  0  0  0
    0.7611    0.6950    4.5681 H   0  0  0  0  0  0  0  0  0  0  0  0
    1.0265    2.4483    4.9162 H   0  0  0  0  0  0  0  0  0  0  0  0
    1.0907    1.9740    2.6047 H   0  0  0  0  0  0  0  0  0  0  0  0
    0.3410    4.1410   -0.3031 H   0  0  0  0  0  0  0  0  0  0  0  0
    0.7966    4.1313    1.4015 H   0  0  0  0  0  0  0  0  0  0  0  0
   -0.1558    2.7694    0.7033 H   0  0  0  0  0  0  0  0  0  0  0  0
    4.3172    2.5954   -0.1154 H   0  0  0  0  0  0  0  0  0  0  0  0
    6.0903    3.9124    0.3734 H   0  0  0  0  0  0  0  0  0  0  0  0
    7.9304    5.2263   -0.7116 H   0  0  0  0  0  0  0  0  0  0  0  0
   12.6983    3.5217   -0.2532 H   0  0  0  0  0  0  0  0  0  0  0  0
   12.4101    6.4296   -0.0154 H   0  0  0  0  0  0  0  0  0  0  0  0
   11.9559    5.7172   -1.5744 H   0  0  0  0  0  0  0  0  0  0  0  0
   14.6681    5.2370   -0.2282 H   0  0  0  0  0  0  0  0  0  0  0  0
   14.3576    6.5450   -1.3726 H   0  0  0  0  0  0  0  0  0  0  0  0
   13.6907    4.9096   -3.1203 H   0  0  0  0  0  0  0  0  0  0  0  0
   13.9687    3.5736   -2.0062 H   0  0  0  0  0  0  0  0  0  0  0  0
   16.3905    4.2418   -1.8208 H   0  0  0  0  0  0  0  0  0  0  0  0
   16.1123    5.5449   -2.9584 H   0  0  0  0  0  0  0  0  0  0  0  0
   15.4071    3.8705   -4.7097 H   0  0  0  0  0  0  0  0  0  0  0  0
   15.6865    2.5616   -3.5467 H   0  0  0  0  0  0  0  0  0  0  0  0
   17.6055    4.4318   -4.4921 H   0  0  0  0  0  0  0  0  0  0  0  0
   11.2259    2.4007    1.4799 H   0  0  0  0  0  0  0  0  0  0  0  0
    7.9679    0.2342    3.7299 H   0  0  0  0  0  0  0  0  0  0  0  0
    6.3333   -1.5512    4.3294 H   0  0  0  0  0  0  0  0  0  0  0  0
    8.8627   -3.6798    3.3724 H   0  0  0  0  0  0  0  0  0  0  0  0
    8.3252   -3.3508    1.7241 H   0  0  0  0  0  0  0  0  0  0  0  0
    8.0061   -4.9279    2.4540 H   0  0  0  0  0  0  0  0  0  0  0  0
    7.2161   -3.9534    5.2617 H   0  0  0  0  0  0  0  0  0  0  0  0
    6.3513   -5.1853    4.3320 H   0  0  0  0  0  0  0  0  0  0  0  0
    5.4791   -3.7861    4.9731 H   0  0  0  0  0  0  0  0  0  0  0  0
    5.7513   -3.2285    1.2368 H   0  0  0  0  0  0  0  0  0  0  0  0
    4.6172   -3.2630    2.5923 H   0  0  0  0  0  0  0  0  0  0  0  0
    5.4651   -4.7365    2.0918 H   0  0  0  0  0  0  0  0  0  0  0  0
    5.1144    1.4553    3.9718 H   0  0  0  0  0  0  0  0  0  0  0  0
  1  2  1  0  0  0  0
  1 36  1  0  0  0  0
  1 37  1  0  0  0  0
  1 38  1  0  0  0  0
  2  3  1  0  0  0  0
  3  4  1  0  0  0  0
  3 35  2  0  0  0  0
  4  5  2  0  0  0  0
  4 39  1  0  0  0  0
  5  6  1  0  0  0  0
  5  8  1  0  0  0  0
  6  7  1  0  0  0  0
  7 40  1  0  0  0  0
  7 41  1  0  0  0  0
  7 42  1  0  0  0  0
  8  9  2  0  0  0  0
  8 43  1  0  0  0  0
  9 10  1  0  0  0  0
  9 35  1  0  0  0  0
 10 11  1  0  0  0  0
 10 26  2  0  0  0  0
 11 12  2  0  0  0  0
 11 44  1  0  0  0  0
 12 13  1  0  0  0  0
 12 24  1  0  0  0  0
 13 14  2  0  0  0  0
 13 45  1  0  0  0  0
 14 15  1  0  0  0  0
 15 16  1  0  0  0  0
 15 23  2  0  0  0  0
 16 17  1  0  0  0  0
 16 46  1  0  0  0  0
 17 18  1  0  0  0  0
 17 47  1  0  0  0  0
 17 48  1  0  0  0  0
 18 19  1  0  0  0  0
 18 49  1  0  0  0  0
 18 50  1  0  0  0  0
 19 20  1  0  0  0  0
 19 51  1  0  0  0  0
 19 52  1  0  0  0  0
 20 21  1  0  0  0  0
 20 53  1  0  0  0  0
 20 54  1  0  0  0  0
 21 22  1  0  0  0  0
 21 55  1  0  0  0  0
 21 56  1  0  0  0  0
 22 57  1  0  0  0  0
 23 24  1  0  0  0  0
 23 58  1  0  0  0  0
 24 25  2  0  0  0  0
 25 26  1  0  0  0  0
 26 27  1  0  0  0  0
 27 28  1  0  0  0  0
 27 59  1  0  0  0  0
 28 29  2  0  0  0  0
 28 30  1  0  0  0  0
 30 31  1  0  0  0  0
 30 60  1  0  0  0  0
 31 32  1  0  0  0  0
 31 33  1  0  0  0  0
 31 34  1  0  0  0  0
 32 61  1  0  0  0  0
 32 62  1  0  0  0  0
 32 63  1  0  0  0  0
 33 64  1  0  0  0  0
 33 65  1  0  0  0  0
 33 66  1  0  0  0  0
 34 67  1  0  0  0  0
 34 68  1  0  0  0  0
 34 69  1  0  0  0  0
 35 70  1  0  0  0  0
M  END
$$$$
