CHEMBL3093584
 OpenBabel04072215363D

 63 68  0  0  0  0  0  0  0  0999 V2000
    4.7913   -1.2556    2.0507 C   0  0  0  0  0  0  0  0  0  0  0  0
    4.1557   -0.7170    0.7915 C   0  0  0  0  0  0  0  0  0  0  0  0
    4.8337    0.4325    0.2277 C   0  0  0  0  0  0  0  0  0  0  0  0
    4.3973    1.0013   -0.8970 C   0  0  0  0  0  0  0  0  0  0  0  0
    3.2688    0.5441   -1.5533 N   0  0  0  0  0  0  0  0  0  0  0  0
    2.7976    1.2066   -2.7288 C   0  0  0  0  0  0  0  0  0  0  0  0
    2.7206    2.6054   -2.7644 C   0  0  0  0  0  0  0  0  0  0  0  0
    2.1998    3.2537   -3.8846 C   0  0  0  0  0  0  0  0  0  0  0  0
    1.7927    2.5130   -4.9929 C   0  0  0  0  0  0  0  0  0  0  0  0
    1.9022    1.1240   -4.9828 C   0  0  0  0  0  0  0  0  0  0  0  0
    2.3916    0.4719   -3.8506 C   0  0  0  0  0  0  0  0  0  0  0  0
    2.5142   -0.5254   -1.0391 C   0  0  0  0  0  0  0  0  0  0  0  0
    1.4272   -0.8918   -1.4970 O   0  0  0  0  0  0  0  0  0  0  0  0
    3.0555   -1.2236    0.1797 C   0  0  0  0  0  0  0  0  0  0  0  0
    2.4143   -2.4885    0.6899 C   0  0  0  0  0  0  0  0  0  0  0  0
    3.0528   -3.2310    1.4339 O   0  0  0  0  0  0  0  0  0  0  0  0
    1.1422   -2.7727    0.2172 N   0  0  0  0  0  0  0  0  0  0  0  0
    0.4149   -3.9514    0.4909 C   0  0  0  0  0  0  0  0  0  0  0  0
    0.7541   -4.8092    1.5416 C   0  0  0  0  0  0  0  0  0  0  0  0
    0.0961   -6.0224    1.7264 C   0  0  0  0  0  0  0  0  0  0  0  0
   -0.9020   -6.4026    0.8458 C   0  0  0  0  0  0  0  0  0  0  0  0
   -1.5696   -7.6285    1.0102 O   0  0  0  0  0  0  0  0  0  0  0  0
   -0.8274   -8.7609    1.3307 C   0  0  0  0  0  0  0  0  0  0  0  0
   -1.7464   -9.7274    1.9708 C   0  0  0  0  0  0  0  0  0  0  0  0
   -1.2066  -10.8789    2.3868 C   0  0  0  0  0  0  0  0  0  0  0  0
    0.1722  -11.1064    2.1842 C   0  0  0  0  0  0  0  0  0  0  0  0
    0.9237  -12.1324    2.4974 N   0  0  0  0  0  0  0  0  0  0  0  0
    2.1849  -11.8073    2.0940 C   0  0  0  0  0  0  0  0  0  0  0  0
    3.2671  -12.6443    2.2618 N   0  0  0  0  0  0  0  0  0  0  0  0
    3.1604  -13.9137    2.8003 C   0  0  0  0  0  0  0  0  0  0  0  0
    2.1365  -14.4874    3.1454 O   0  0  0  0  0  0  0  0  0  0  0  0
    4.4331  -14.6813    2.9689 C   0  0  0  0  0  0  0  0  0  0  0  0
    5.8314  -14.1386    2.8434 C   0  0  0  0  0  0  0  0  0  0  0  0
    5.2803  -15.0280    1.7670 C   0  0  0  0  0  0  0  0  0  0  0  0
    2.2077  -10.5497    1.5306 C   0  0  0  0  0  0  0  0  0  0  0  0
    0.9062  -10.1086    1.5682 N   0  0  0  0  0  0  0  0  0  0  0  0
    0.4449   -8.9024    1.1154 N   0  0  0  0  0  0  0  0  0  0  0  0
   -1.3188   -5.5199   -0.1481 C   0  0  0  0  0  0  0  0  0  0  0  0
   -2.3444   -5.8417   -0.9509 F   0  0  0  0  0  0  0  0  0  0  0  0
   -0.6751   -4.2893   -0.3247 C   0  0  0  0  0  0  0  0  0  0  0  0
    5.6443   -0.6510    2.3792 H   0  0  0  0  0  0  0  0  0  0  0  0
    5.1799   -2.2674    1.8998 H   0  0  0  0  0  0  0  0  0  0  0  0
    4.0724   -1.2529    2.8776 H   0  0  0  0  0  0  0  0  0  0  0  0
    5.7353    0.8083    0.7038 H   0  0  0  0  0  0  0  0  0  0  0  0
    4.9445    1.8241   -1.3489 H   0  0  0  0  0  0  0  0  0  0  0  0
    2.9978    3.1982   -1.8969 H   0  0  0  0  0  0  0  0  0  0  0  0
    2.0942    4.3352   -3.8836 H   0  0  0  0  0  0  0  0  0  0  0  0
    1.3814    3.0181   -5.8627 H   0  0  0  0  0  0  0  0  0  0  0  0
    1.5964    0.5453   -5.8505 H   0  0  0  0  0  0  0  0  0  0  0  0
    2.4710   -0.6128   -3.8614 H   0  0  0  0  0  0  0  0  0  0  0  0
    0.7766   -2.1607   -0.5155 H   0  0  0  0  0  0  0  0  0  0  0  0
    1.5395   -4.5651    2.2495 H   0  0  0  0  0  0  0  0  0  0  0  0
    0.4036   -6.6594    2.5519 H   0  0  0  0  0  0  0  0  0  0  0  0
   -2.7864   -9.4719    2.1165 H   0  0  0  0  0  0  0  0  0  0  0  0
   -1.7878  -11.6395    2.8927 H   0  0  0  0  0  0  0  0  0  0  0  0
    4.1633  -12.3054    1.9558 H   0  0  0  0  0  0  0  0  0  0  0  0
    4.3144  -15.4754    3.7057 H   0  0  0  0  0  0  0  0  0  0  0  0
    6.5827  -14.5558    3.5058 H   0  0  0  0  0  0  0  0  0  0  0  0
    6.0037  -13.0949    2.6173 H   0  0  0  0  0  0  0  0  0  0  0  0
    5.6492  -16.0468    1.7000 H   0  0  0  0  0  0  0  0  0  0  0  0
    5.0333  -14.5876    0.8097 H   0  0  0  0  0  0  0  0  0  0  0  0
    2.9904   -9.9363    1.1130 H   0  0  0  0  0  0  0  0  0  0  0  0
   -1.0119   -3.6351   -1.1230 H   0  0  0  0  0  0  0  0  0  0  0  0
  1  2  1  0  0  0  0
  1 41  1  0  0  0  0
  1 42  1  0  0  0  0
  1 43  1  0  0  0  0
  2  3  1  0  0  0  0
  2 14  2  0  0  0  0
  3  4  2  0  0  0  0
  3 44  1  0  0  0  0
  4  5  1  0  0  0  0
  4 45  1  0  0  0  0
  5  6  1  0  0  0  0
  5 12  1  0  0  0  0
  6  7  1  0  0  0  0
  6 11  2  0  0  0  0
  7  8  2  0  0  0  0
  7 46  1  0  0  0  0
  8  9  1  0  0  0  0
  8 47  1  0  0  0  0
  9 10  2  0  0  0  0
  9 48  1  0  0  0  0
 10 11  1  0  0  0  0
 10 49  1  0  0  0  0
 11 50  1  0  0  0  0
 12 13  2  0  0  0  0
 12 14  1  0  0  0  0
 14 15  1  0  0  0  0
 15 16  2  0  0  0  0
 15 17  1  0  0  0  0
 17 18  1  0  0  0  0
 17 51  1  0  0  0  0
 18 19  1  0  0  0  0
 18 40  2  0  0  0  0
 19 20  2  0  0  0  0
 19 52  1  0  0  0  0
 20 21  1  0  0  0  0
 20 53  1  0  0  0  0
 21 22  1  0  0  0  0
 21 38  2  0  0  0  0
 22 23  1  0  0  0  0
 23 24  1  0  0  0  0
 23 37  2  0  0  0  0
 24 25  2  0  0  0  0
 24 54  1  0  0  0  0
 25 26  1  0  0  0  0
 25 55  1  0  0  0  0
 26 27  2  0  0  0  0
 26 36  1  0  0  0  0
 27 28  1  0  0  0  0
 28 29  1  0  0  0  0
 28 35  2  0  0  0  0
 29 30  1  0  0  0  0
 29 56  1  0  0  0  0
 30 31  2  0  0  0  0
 30 32  1  0  0  0  0
 32 33  1  0  0  0  0
 32 34  1  0  0  0  0
 32 57  1  0  0  0  0
 33 34  1  0  0  0  0
 33 58  1  0  0  0  0
 33 59  1  0  0  0  0
 34 60  1  0  0  0  0
 34 61  1  0  0  0  0
 35 36  1  0  0  0  0
 35 62  1  0  0  0  0
 36 37  1  0  0  0  0
 38 39  1  0  0  0  0
 38 40  1  0  0  0  0
 40 63  1  0  0  0  0
M  END
$$$$
