CHEMBL363648
 OpenBabel04072215373D

 50 53  0  0  0  0  0  0  0  0999 V2000
    1.5357   -0.4147    0.8659 C   0  0  0  0  0  0  0  0  0  0  0  0
    2.6091    0.1077   -0.0762 C   0  0  0  0  0  0  0  0  0  0  0  0
    3.0984    1.4640    0.3277 C   0  0  0  0  0  0  0  0  0  0  0  0
    4.1452    1.6780    1.0888 N   0  0  0  0  0  0  0  0  0  0  0  0
    4.3635    3.0455    1.2531 C   0  0  0  0  0  0  0  0  0  0  0  0
    5.5012    3.4750    2.0720 C   0  0  0  0  0  0  0  0  0  0  0  0
    5.8551    2.7292    3.2064 C   0  0  0  0  0  0  0  0  0  0  0  0
    6.8969    3.1483    4.0394 C   0  0  0  0  0  0  0  0  0  0  0  0
    7.5850    4.3282    3.7588 C   0  0  0  0  0  0  0  0  0  0  0  0
    7.2638    5.0764    2.6230 C   0  0  0  0  0  0  0  0  0  0  0  0
    7.9347    6.3878    2.3379 C   0  0  0  0  0  0  0  0  0  0  0  0
    6.2510    4.6187    1.7655 C   0  0  0  0  0  0  0  0  0  0  0  0
    3.4214    3.8752    0.6349 C   0  0  0  0  0  0  0  0  0  0  0  0
    3.1988    5.3402    0.6307 C   0  0  0  0  0  0  0  0  0  0  0  0
    3.4788    6.1067    1.7633 C   0  0  0  0  0  0  0  0  0  0  0  0
    3.2749    7.4711    1.7139 C   0  0  0  0  0  0  0  0  0  0  0  0
    2.7406    8.1031    0.6556 N   0  0  0  0  0  0  0  0  0  0  0  0
    2.4058    7.3761   -0.4195 C   0  0  0  0  0  0  0  0  0  0  0  0
    1.7215    7.9707   -1.4943 N   0  0  0  0  0  0  0  0  0  0  0  0
    1.3180    9.2932   -1.5261 C   0  0  0  0  0  0  0  0  0  0  0  0
    1.5932   10.1689   -0.7128 O   0  0  0  0  0  0  0  0  0  0  0  0
    0.4779    9.6905   -2.6947 C   0  0  0  0  0  0  0  0  0  0  0  0
   -0.3914    8.8043   -3.3454 C   0  0  0  0  0  0  0  0  0  0  0  0
   -1.1691    9.2527   -4.4186 C   0  0  0  0  0  0  0  0  0  0  0  0
   -1.0922   10.5819   -4.8361 C   0  0  0  0  0  0  0  0  0  0  0  0
   -0.2461   11.4723   -4.1786 C   0  0  0  0  0  0  0  0  0  0  0  0
    0.5323   11.0288   -3.1098 C   0  0  0  0  0  0  0  0  0  0  0  0
    2.6631    6.0086   -0.4857 C   0  0  0  0  0  0  0  0  0  0  0  0
    2.2933    2.8679   -0.2155 S   0  0  0  0  0  0  0  0  0  0  0  0
    1.2229   -1.4190    0.5619 H   0  0  0  0  0  0  0  0  0  0  0  0
    0.6499    0.2296    0.8591 H   0  0  0  0  0  0  0  0  0  0  0  0
    1.9035   -0.4697    1.8959 H   0  0  0  0  0  0  0  0  0  0  0  0
    2.2183    0.1308   -1.1006 H   0  0  0  0  0  0  0  0  0  0  0  0
    3.4551   -0.5894   -0.0805 H   0  0  0  0  0  0  0  0  0  0  0  0
    5.3140    1.8177    3.4528 H   0  0  0  0  0  0  0  0  0  0  0  0
    7.1616    2.5599    4.9146 H   0  0  0  0  0  0  0  0  0  0  0  0
    8.3735    4.6584    4.4328 H   0  0  0  0  0  0  0  0  0  0  0  0
    8.7739    6.5680    3.0169 H   0  0  0  0  0  0  0  0  0  0  0  0
    7.2154    7.2046    2.4651 H   0  0  0  0  0  0  0  0  0  0  0  0
    8.3185    6.4058    1.3135 H   0  0  0  0  0  0  0  0  0  0  0  0
    6.0319    5.1922    0.8676 H   0  0  0  0  0  0  0  0  0  0  0  0
    3.8596    5.6696    2.6799 H   0  0  0  0  0  0  0  0  0  0  0  0
    3.5287    8.1117    2.5534 H   0  0  0  0  0  0  0  0  0  0  0  0
    1.4942    7.3754   -2.2739 H   0  0  0  0  0  0  0  0  0  0  0  0
   -0.5130    7.7792   -3.0110 H   0  0  0  0  0  0  0  0  0  0  0  0
   -1.8518    8.5696   -4.9188 H   0  0  0  0  0  0  0  0  0  0  0  0
   -1.7045   10.9312   -5.6643 H   0  0  0  0  0  0  0  0  0  0  0  0
   -0.1976   12.5135   -4.4869 H   0  0  0  0  0  0  0  0  0  0  0  0
    1.1797   11.7335   -2.5894 H   0  0  0  0  0  0  0  0  0  0  0  0
    2.4185    5.4624   -1.3902 H   0  0  0  0  0  0  0  0  0  0  0  0
  1  2  1  0  0  0  0
  1 30  1  0  0  0  0
  1 31  1  0  0  0  0
  1 32  1  0  0  0  0
  2  3  1  0  0  0  0
  2 33  1  0  0  0  0
  2 34  1  0  0  0  0
  3  4  2  0  0  0  0
  3 29  1  0  0  0  0
  4  5  1  0  0  0  0
  5  6  1  0  0  0  0
  5 13  2  0  0  0  0
  6  7  1  0  0  0  0
  6 12  2  0  0  0  0
  7  8  2  0  0  0  0
  7 35  1  0  0  0  0
  8  9  1  0  0  0  0
  8 36  1  0  0  0  0
  9 10  2  0  0  0  0
  9 37  1  0  0  0  0
 10 11  1  0  0  0  0
 10 12  1  0  0  0  0
 11 38  1  0  0  0  0
 11 39  1  0  0  0  0
 11 40  1  0  0  0  0
 12 41  1  0  0  0  0
 13 14  1  0  0  0  0
 13 29  1  0  0  0  0
 14 15  1  0  0  0  0
 14 28  2  0  0  0  0
 15 16  2  0  0  0  0
 15 42  1  0  0  0  0
 16 17  1  0  0  0  0
 16 43  1  0  0  0  0
 17 18  2  0  0  0  0
 18 19  1  0  0  0  0
 18 28  1  0  0  0  0
 19 20  1  0  0  0  0
 19 44  1  0  0  0  0
 20 21  2  0  0  0  0
 20 22  1  0  0  0  0
 22 23  1  0  0  0  0
 22 27  2  0  0  0  0
 23 24  2  0  0  0  0
 23 45  1  0  0  0  0
 24 25  1  0  0  0  0
 24 46  1  0  0  0  0
 25 26  2  0  0  0  0
 25 47  1  0  0  0  0
 26 27  1  0  0  0  0
 26 48  1  0  0  0  0
 27 49  1  0  0  0  0
 28 50  1  0  0  0  0
M  END
$$$$
