CHEMBL1097190
 OpenBabel04072215363D

 48 50  0  0  1  0  0  0  0  0999 V2000
   -0.4974   -1.6461   -1.6013 Cl  0  0  0  0  0  0  0  0  0  0  0  0
    1.2652    0.2987    0.4354 N   0  0  0  0  0  0  0  0  0  0  0  0
    2.6922    0.1599    0.1411 C   0  0  3  0  0  0  0  0  0  0  0  0
    3.1016    1.1335   -0.9805 C   0  0  0  0  0  0  0  0  0  0  0  0
    4.6279    1.0994   -1.1843 C   0  0  0  0  0  0  0  0  0  0  0  0
    5.0840   -0.3140   -1.3540 C   0  0  0  0  0  0  0  0  0  0  0  0
    6.2282   -0.6904   -1.9590 N   0  0  0  0  0  0  0  0  0  0  0  0
    6.2051   -2.0332   -1.9773 C   0  0  0  0  0  0  0  0  0  0  0  0
    7.1598   -2.8610   -2.5423 C   0  0  0  0  0  0  0  0  0  0  0  0
    6.9546   -4.2417   -2.4840 C   0  0  0  0  0  0  0  0  0  0  0  0
    5.7979   -4.7940   -1.8583 C   0  0  0  0  0  0  0  0  0  0  0  0
    5.6057   -6.1500   -1.8047 O   0  0  0  0  0  0  0  0  0  0  0  0
    6.4962   -7.0639   -2.3558 C   0  0  0  0  0  0  0  0  0  0  0  0
    6.0627   -8.5204   -2.1522 C   0  0  0  0  0  0  0  0  0  0  0  0
    7.0662   -9.4610   -2.8009 C   0  0  0  0  0  0  0  0  0  0  0  0
    8.4070   -9.4875   -2.3692 C   0  0  0  0  0  0  0  0  0  0  0  0
    9.3351  -10.3339   -2.9841 C   0  0  0  0  0  0  0  0  0  0  0  0
    8.9397  -11.1715   -4.0366 C   0  0  0  0  0  0  0  0  0  0  0  0
    9.8282  -11.9864   -4.6447 O   0  0  0  0  0  0  0  0  0  0  0  0
    7.6077  -11.1624   -4.4640 C   0  0  0  0  0  0  0  0  0  0  0  0
    6.6764  -10.3129   -3.8518 C   0  0  0  0  0  0  0  0  0  0  0  0
    4.8375   -3.9153   -1.2872 C   0  0  0  0  0  0  0  0  0  0  0  0
    5.0718   -2.5308   -1.3705 C   0  0  0  0  0  0  0  0  0  0  0  0
    4.3493   -1.4198   -0.9494 C   0  0  0  0  0  0  0  0  0  0  0  0
    3.0160   -1.3154   -0.2566 C   0  0  0  0  0  0  0  0  0  0  0  0
   -0.0337   -1.9895   -0.3509 H   0  0  0  0  0  0  0  0  0  0  0  0
    1.0319    1.3032    0.6133 H   0  0  0  0  0  0  0  0  0  0  0  0
    1.0392   -0.2366    1.3044 H   0  0  0  0  0  0  0  0  0  0  0  0
    3.2812    0.4454    1.0432 H   0  0  0  0  0  0  0  0  0  0  0  0
    2.8064    2.1776   -0.7380 H   0  0  0  0  0  0  0  0  0  0  0  0
    2.5844    0.8343   -1.9198 H   0  0  0  0  0  0  0  0  0  0  0  0
    5.1673    1.5411   -0.3186 H   0  0  0  0  0  0  0  0  0  0  0  0
    4.8642    1.6938   -2.0920 H   0  0  0  0  0  0  0  0  0  0  0  0
    6.9569   -0.0653   -2.3684 H   0  0  0  0  0  0  0  0  0  0  0  0
    8.0377   -2.4510   -3.0244 H   0  0  0  0  0  0  0  0  0  0  0  0
    7.7075   -4.8692   -2.9351 H   0  0  0  0  0  0  0  0  0  0  0  0
    7.4903   -6.9205   -1.8810 H   0  0  0  0  0  0  0  0  0  0  0  0
    6.5771   -6.8770   -3.4500 H   0  0  0  0  0  0  0  0  0  0  0  0
    5.0569   -8.6577   -2.6061 H   0  0  0  0  0  0  0  0  0  0  0  0
    5.9888   -8.7491   -1.0677 H   0  0  0  0  0  0  0  0  0  0  0  0
    8.7393   -8.8504   -1.5610 H   0  0  0  0  0  0  0  0  0  0  0  0
   10.3655  -10.3352   -2.6464 H   0  0  0  0  0  0  0  0  0  0  0  0
   10.7613  -12.0145   -4.3889 H   0  0  0  0  0  0  0  0  0  0  0  0
    7.2950  -11.8072   -5.2743 H   0  0  0  0  0  0  0  0  0  0  0  0
    5.6535  -10.3176   -4.2050 H   0  0  0  0  0  0  0  0  0  0  0  0
    3.9442   -4.2967   -0.8064 H   0  0  0  0  0  0  0  0  0  0  0  0
    2.9837   -1.9422    0.6603 H   0  0  0  0  0  0  0  0  0  0  0  0
    2.2725   -1.6993   -0.9813 H   0  0  0  0  0  0  0  0  0  0  0  0
  1 26  1  0  0  0  0
  2  3  1  0  0  0  0
  2 27  1  0  0  0  0
  2 28  1  0  0  0  0
  3  4  1  0  0  0  0
  3 25  1  0  0  0  0
  3 29  1  0  0  0  0
  4  5  1  0  0  0  0
  4 30  1  0  0  0  0
  4 31  1  0  0  0  0
  5  6  1  0  0  0  0
  5 32  1  0  0  0  0
  5 33  1  0  0  0  0
  6  7  1  0  0  0  0
  6 24  2  0  0  0  0
  7  8  1  0  0  0  0
  7 34  1  0  0  0  0
  8  9  1  0  0  0  0
  8 23  2  0  0  0  0
  9 10  2  0  0  0  0
  9 35  1  0  0  0  0
 10 11  1  0  0  0  0
 10 36  1  0  0  0  0
 11 12  1  0  0  0  0
 11 22  2  0  0  0  0
 12 13  1  0  0  0  0
 13 14  1  0  0  0  0
 13 37  1  0  0  0  0
 13 38  1  0  0  0  0
 14 15  1  0  0  0  0
 14 39  1  0  0  0  0
 14 40  1  0  0  0  0
 15 16  1  0  0  0  0
 15 21  2  0  0  0  0
 16 17  2  0  0  0  0
 16 41  1  0  0  0  0
 17 18  1  0  0  0  0
 17 42  1  0  0  0  0
 18 19  1  0  0  0  0
 18 20  2  0  0  0  0
 19 43  1  0  0  0  0
 20 21  1  0  0  0  0
 20 44  1  0  0  0  0
 21 45  1  0  0  0  0
 22 23  1  0  0  0  0
 22 46  1  0  0  0  0
 23 24  1  0  0  0  0
 24 25  1  0  0  0  0
 25 47  1  0  0  0  0
 25 48  1  0  0  0  0
M  END
$$$$
