CHEMBL3690439
 OpenBabel04072215373D

 65 69  0  0  0  0  0  0  0  0999 V2000
    3.3742    1.3937    2.2196 C   0  0  0  0  0  0  0  0  0  0  0  0
    3.0280    1.8168    0.8608 N   0  0  0  0  0  0  0  0  0  0  0  0
    3.8231    1.0430   -0.1064 C   0  0  0  0  0  0  0  0  0  0  0  0
    3.4447    1.3907   -1.5450 C   0  0  0  0  0  0  0  0  0  0  0  0
    1.9681    1.0843   -1.8079 C   0  0  0  0  0  0  0  0  0  0  0  0
    1.6325   -0.3394   -1.5942 N   0  0  0  0  0  0  0  0  0  0  0  0
    2.2709   -1.2905   -2.4045 C   0  0  0  0  0  0  0  0  0  0  0  0
    2.4308   -2.5766   -1.8969 C   0  0  0  0  0  0  0  0  0  0  0  0
    3.0052   -3.5644   -2.6886 C   0  0  0  0  0  0  0  0  0  0  0  0
    3.3421   -3.2506   -3.9924 C   0  0  0  0  0  0  0  0  0  0  0  0
    3.7567   -4.3141   -4.9185 C   0  0  0  0  0  0  0  0  0  0  0  0
    2.7519   -5.1133   -5.6167 C   0  0  0  0  0  0  0  0  0  0  0  0
    3.1352   -6.1583   -6.3620 C   0  0  0  0  0  0  0  0  0  0  0  0
    4.4925   -6.4352   -6.5207 N   0  0  0  0  0  0  0  0  0  0  0  0
    5.1326   -7.3830   -7.3080 C   0  0  0  0  0  0  0  0  0  0  0  0
    4.4974   -8.3130   -8.2516 C   0  0  0  0  0  0  0  0  0  0  0  0
    5.0583   -9.5806   -8.4386 C   0  0  0  0  0  0  0  0  0  0  0  0
    4.5166  -10.4591   -9.3675 C   0  0  0  0  0  0  0  0  0  0  0  0
    3.3774  -10.1002  -10.0903 C   0  0  0  0  0  0  0  0  0  0  0  0
    2.7508   -8.8701   -9.8891 C   0  0  0  0  0  0  0  0  0  0  0  0
    1.5345   -8.5068  -10.5329 N   0  0  0  0  0  0  0  0  0  0  0  0
    0.8207   -9.3093  -11.3893 C   0  0  0  0  0  0  0  0  0  0  0  0
    1.1080  -10.4561  -11.7256 O   0  0  0  0  0  0  0  0  0  0  0  0
   -0.2919   -8.7202  -11.9334 N   0  0  0  0  0  0  0  0  0  0  0  0
   -1.0929   -9.5315  -12.8706 C   0  0  0  0  0  0  0  0  0  0  0  0
   -2.1173  -10.4915  -12.2531 C   0  0  0  0  0  0  0  0  0  0  0  0
   -2.1877  -10.3818  -10.9062 F   0  0  0  0  0  0  0  0  0  0  0  0
   -3.3591  -10.2140  -12.7316 F   0  0  0  0  0  0  0  0  0  0  0  0
   -1.8604  -11.7835  -12.5539 F   0  0  0  0  0  0  0  0  0  0  0  0
    3.3508   -7.9639   -9.0067 C   0  0  0  0  0  0  0  0  0  0  0  0
    6.4740   -7.2219   -6.9881 C   0  0  0  0  0  0  0  0  0  0  0  0
    6.6780   -6.2040   -6.0940 N   0  0  0  0  0  0  0  0  0  0  0  0
    5.4832   -5.7154   -5.8542 C   0  0  0  0  0  0  0  0  0  0  0  0
    5.0702   -4.6241   -5.0305 C   0  0  0  0  0  0  0  0  0  0  0  0
    3.1497   -2.0112   -4.4876 N   0  0  0  0  0  0  0  0  0  0  0  0
    2.6282   -1.0225   -3.6767 N   0  0  0  0  0  0  0  0  0  0  0  0
    1.1618    1.9338   -0.8108 C   0  0  0  0  0  0  0  0  0  0  0  0
    1.5819    1.6509    0.6380 C   0  0  0  0  0  0  0  0  0  0  0  0
    4.4491    1.5065    2.4031 H   0  0  0  0  0  0  0  0  0  0  0  0
    3.1080    0.3455    2.4053 H   0  0  0  0  0  0  0  0  0  0  0  0
    2.8593    2.0140    2.9635 H   0  0  0  0  0  0  0  0  0  0  0  0
    3.7027   -0.0350    0.0620 H   0  0  0  0  0  0  0  0  0  0  0  0
    4.8871    1.2697    0.0337 H   0  0  0  0  0  0  0  0  0  0  0  0
    4.1001    0.8613   -2.2450 H   0  0  0  0  0  0  0  0  0  0  0  0
    3.6246    2.4630   -1.7114 H   0  0  0  0  0  0  0  0  0  0  0  0
    1.6948    1.3807   -2.8278 H   0  0  0  0  0  0  0  0  0  0  0  0
    0.6306   -0.4960   -1.7088 H   0  0  0  0  0  0  0  0  0  0  0  0
    2.1308   -2.8084   -0.8806 H   0  0  0  0  0  0  0  0  0  0  0  0
    3.1551   -4.5681   -2.3012 H   0  0  0  0  0  0  0  0  0  0  0  0
    1.7030   -4.8545   -5.5098 H   0  0  0  0  0  0  0  0  0  0  0  0
    2.4136   -6.7956   -6.8497 H   0  0  0  0  0  0  0  0  0  0  0  0
    5.9284   -9.9021   -7.8705 H   0  0  0  0  0  0  0  0  0  0  0  0
    4.9668  -11.4319   -9.5368 H   0  0  0  0  0  0  0  0  0  0  0  0
    3.0155  -10.8244  -10.8050 H   0  0  0  0  0  0  0  0  0  0  0  0
    1.1411   -7.6040  -10.3089 H   0  0  0  0  0  0  0  0  0  0  0  0
   -0.7609   -8.0056  -11.3986 H   0  0  0  0  0  0  0  0  0  0  0  0
   -0.4118  -10.1145  -13.4962 H   0  0  0  0  0  0  0  0  0  0  0  0
   -1.6005   -8.8244  -13.5414 H   0  0  0  0  0  0  0  0  0  0  0  0
    2.9337   -6.9672   -8.9191 H   0  0  0  0  0  0  0  0  0  0  0  0
    7.3158   -7.7790   -7.3856 H   0  0  0  0  0  0  0  0  0  0  0  0
    5.8415   -4.0765   -4.5002 H   0  0  0  0  0  0  0  0  0  0  0  0
    0.0868    1.7455   -0.9241 H   0  0  0  0  0  0  0  0  0  0  0  0
    1.3203    2.9981   -1.0302 H   0  0  0  0  0  0  0  0  0  0  0  0
    1.2606    0.6380    0.9134 H   0  0  0  0  0  0  0  0  0  0  0  0
    1.0387    2.3448    1.2916 H   0  0  0  0  0  0  0  0  0  0  0  0
  1  2  1  0  0  0  0
  1 39  1  0  0  0  0
  1 40  1  0  0  0  0
  1 41  1  0  0  0  0
  2  3  1  0  0  0  0
  2 38  1  0  0  0  0
  3  4  1  0  0  0  0
  3 42  1  0  0  0  0
  3 43  1  0  0  0  0
  4  5  1  0  0  0  0
  4 44  1  0  0  0  0
  4 45  1  0  0  0  0
  5  6  1  0  0  0  0
  5 37  1  0  0  0  0
  5 46  1  0  0  0  0
  6  7  1  0  0  0  0
  6 47  1  0  0  0  0
  7  8  1  0  0  0  0
  7 36  2  0  0  0  0
  8  9  2  0  0  0  0
  8 48  1  0  0  0  0
  9 10  1  0  0  0  0
  9 49  1  0  0  0  0
 10 11  1  0  0  0  0
 10 35  2  0  0  0  0
 11 12  1  0  0  0  0
 11 34  2  0  0  0  0
 12 13  2  0  0  0  0
 12 50  1  0  0  0  0
 13 14  1  0  0  0  0
 13 51  1  0  0  0  0
 14 15  1  0  0  0  0
 14 33  1  0  0  0  0
 15 16  1  0  0  0  0
 15 31  2  0  0  0  0
 16 17  1  0  0  0  0
 16 30  2  0  0  0  0
 17 18  2  0  0  0  0
 17 52  1  0  0  0  0
 18 19  1  0  0  0  0
 18 53  1  0  0  0  0
 19 20  2  0  0  0  0
 19 54  1  0  0  0  0
 20 21  1  0  0  0  0
 20 30  1  0  0  0  0
 21 22  1  0  0  0  0
 21 55  1  0  0  0  0
 22 23  2  0  0  0  0
 22 24  1  0  0  0  0
 24 25  1  0  0  0  0
 24 56  1  0  0  0  0
 25 26  1  0  0  0  0
 25 57  1  0  0  0  0
 25 58  1  0  0  0  0
 26 27  1  0  0  0  0
 26 28  1  0  0  0  0
 26 29  1  0  0  0  0
 30 59  1  0  0  0  0
 31 32  1  0  0  0  0
 31 60  1  0  0  0  0
 32 33  2  0  0  0  0
 33 34  1  0  0  0  0
 34 61  1  0  0  0  0
 35 36  1  0  0  0  0
 37 38  1  0  0  0  0
 37 62  1  0  0  0  0
 37 63  1  0  0  0  0
 38 64  1  0  0  0  0
 38 65  1  0  0  0  0
M  END
$$$$
