CHEMBL4473172
 OpenBabel04072215383D

 45 48  0  0  0  0  0  0  0  0999 V2000
   -3.0096   -0.5420    0.5575 O   0  0  0  0  0  0  0  0  0  0  0  0
   -1.8082   -0.3964    0.4698 C   0  0  0  0  0  0  0  0  0  0  0  0
   -0.8010   -1.3356    0.5520 N   0  0  0  0  0  0  0  0  0  0  0  0
    0.4460   -0.7333    0.3974 C   0  0  0  0  0  0  0  0  0  0  0  0
    1.6831   -1.3418    0.4377 C   0  0  0  0  0  0  0  0  0  0  0  0
    2.8083   -0.5257    0.2622 C   0  0  0  0  0  0  0  0  0  0  0  0
    2.6738    0.8626    0.0471 C   0  0  0  0  0  0  0  0  0  0  0  0
    1.4146    1.4647    0.0105 C   0  0  0  0  0  0  0  0  0  0  0  0
    0.3209    0.6414    0.1924 C   0  0  0  0  0  0  0  0  0  0  0  0
   -1.1060    0.9443    0.2397 C   0  0  0  0  0  0  0  0  0  0  0  0
   -1.6273    2.1248    0.1285 N   0  0  0  0  0  0  0  0  0  0  0  0
   -2.9903    2.2281    0.2271 N   0  0  0  0  0  0  0  0  0  0  0  0
   -3.5910    3.4780    0.1187 C   0  0  0  0  0  0  0  0  0  0  0  0
   -2.9943    4.5275   -0.1100 O   0  0  0  0  0  0  0  0  0  0  0  0
   -5.0753    3.5202    0.2795 C   0  0  0  0  0  0  0  0  0  0  0  0
   -5.7632    2.5877    1.0538 C   0  0  0  0  0  0  0  0  0  0  0  0
   -7.1544    2.6797    1.1978 C   0  0  0  0  0  0  0  0  0  0  0  0
   -7.8920    3.6984    0.5841 C   0  0  0  0  0  0  0  0  0  0  0  0
   -9.3044    3.8191    0.6929 N   0  0  0  0  0  0  0  0  0  0  0  0
  -10.1344    2.9642    1.4044 C   0  0  0  0  0  0  0  0  0  0  0  0
   -9.7678    2.0000    2.0732 O   0  0  0  0  0  0  0  0  0  0  0  0
  -11.6049    3.2211    1.3745 C   0  0  0  0  0  0  0  0  0  0  0  0
  -12.2662    3.8584    0.3182 C   0  0  0  0  0  0  0  0  0  0  0  0
  -13.6675    3.9417    0.3237 C   0  0  0  0  0  0  0  0  0  0  0  0
  -14.4036    3.3909    1.3752 C   0  0  0  0  0  0  0  0  0  0  0  0
  -16.1224    3.4525    1.3484 Cl  0  0  0  0  0  0  0  0  0  0  0  0
  -13.7554    2.7694    2.4362 C   0  0  0  0  0  0  0  0  0  0  0  0
  -12.3625    2.6876    2.4341 C   0  0  0  0  0  0  0  0  0  0  0  0
   -7.1955    4.6468   -0.1746 C   0  0  0  0  0  0  0  0  0  0  0  0
   -5.7995    4.5602   -0.3218 C   0  0  0  0  0  0  0  0  0  0  0  0
   -0.9651   -2.3192    0.7074 H   0  0  0  0  0  0  0  0  0  0  0  0
    1.7964   -2.4071    0.6056 H   0  0  0  0  0  0  0  0  0  0  0  0
    3.8044   -0.9643    0.2959 H   0  0  0  0  0  0  0  0  0  0  0  0
    3.5656    1.4734   -0.0865 H   0  0  0  0  0  0  0  0  0  0  0  0
    1.2929    2.5316   -0.1492 H   0  0  0  0  0  0  0  0  0  0  0  0
   -3.5382    1.3743    0.3353 H   0  0  0  0  0  0  0  0  0  0  0  0
   -5.2477    1.7942    1.5869 H   0  0  0  0  0  0  0  0  0  0  0  0
   -7.6253    1.9275    1.8211 H   0  0  0  0  0  0  0  0  0  0  0  0
   -9.7179    4.6206    0.2365 H   0  0  0  0  0  0  0  0  0  0  0  0
  -11.7281    4.2489   -0.5395 H   0  0  0  0  0  0  0  0  0  0  0  0
  -14.1850    4.4126   -0.5091 H   0  0  0  0  0  0  0  0  0  0  0  0
  -14.3183    2.3267    3.2539 H   0  0  0  0  0  0  0  0  0  0  0  0
  -11.8636    2.1757    3.2567 H   0  0  0  0  0  0  0  0  0  0  0  0
   -7.7154    5.4674   -0.6626 H   0  0  0  0  0  0  0  0  0  0  0  0
   -5.2749    5.3123   -0.9098 H   0  0  0  0  0  0  0  0  0  0  0  0
  1  2  2  0  0  0  0
  2  3  1  0  0  0  0
  2 10  1  0  0  0  0
  3  4  1  0  0  0  0
  3 31  1  0  0  0  0
  4  5  1  0  0  0  0
  4  9  2  0  0  0  0
  5  6  2  0  0  0  0
  5 32  1  0  0  0  0
  6  7  1  0  0  0  0
  6 33  1  0  0  0  0
  7  8  2  0  0  0  0
  7 34  1  0  0  0  0
  8  9  1  0  0  0  0
  8 35  1  0  0  0  0
  9 10  1  0  0  0  0
 10 11  2  0  0  0  0
 11 12  1  0  0  0  0
 12 13  1  0  0  0  0
 12 36  1  0  0  0  0
 13 14  2  0  0  0  0
 13 15  1  0  0  0  0
 15 16  1  0  0  0  0
 15 30  2  0  0  0  0
 16 17  2  0  0  0  0
 16 37  1  0  0  0  0
 17 18  1  0  0  0  0
 17 38  1  0  0  0  0
 18 19  1  0  0  0  0
 18 29  2  0  0  0  0
 19 20  1  0  0  0  0
 19 39  1  0  0  0  0
 20 21  2  0  0  0  0
 20 22  1  0  0  0  0
 22 23  1  0  0  0  0
 22 28  2  0  0  0  0
 23 24  2  0  0  0  0
 23 40  1  0  0  0  0
 24 25  1  0  0  0  0
 24 41  1  0  0  0  0
 25 26  1  0  0  0  0
 25 27  2  0  0  0  0
 27 28  1  0  0  0  0
 27 42  1  0  0  0  0
 28 43  1  0  0  0  0
 29 30  1  0  0  0  0
 29 44  1  0  0  0  0
 30 45  1  0  0  0  0
M  END
$$$$
