CHEMBL3913322
 OpenBabel04072215373D

 56 59  0  0  1  0  0  0  0  0999 V2000
    0.8924   -2.9025    3.3070 C   0  0  0  0  0  0  0  0  0  0  0  0
    2.2538   -2.6588    3.6617 O   0  0  0  0  0  0  0  0  0  0  0  0
    3.0784   -2.1378    2.6853 C   0  0  0  0  0  0  0  0  0  0  0  0
    2.6764   -1.8933    1.3725 C   0  0  0  0  0  0  0  0  0  0  0  0
    3.5635   -1.3120    0.4742 C   0  0  0  0  0  0  0  0  0  0  0  0
    3.2845   -0.9760   -0.8243 O   0  0  0  0  0  0  0  0  0  0  0  0
    2.0006   -1.3292   -1.3251 C   0  0  0  0  0  0  0  0  0  0  0  0
    4.8605   -0.9831    0.8907 C   0  0  0  0  0  0  0  0  0  0  0  0
    5.3195   -1.2247    2.1956 C   0  0  0  0  0  0  0  0  0  0  0  0
    6.5738   -0.7443    2.6559 N   0  0  0  0  0  0  0  0  0  0  0  0
    7.0359    0.5747    2.0660 C   0  0  0  0  0  0  0  0  0  0  0  0
    6.1069    1.7914    2.2820 C   0  0  1  0  0  0  0  0  0  0  0  0
    5.9116    2.0438    3.6952 O   0  0  0  0  0  0  0  0  0  0  0  0
    6.7163    3.0129    1.5493 C   0  0  0  0  0  0  0  0  0  0  0  0
    7.8606    2.7073    0.8940 F   0  0  0  0  0  0  0  0  0  0  0  0
    5.8604    3.5275    0.6390 F   0  0  0  0  0  0  0  0  0  0  0  0
    7.0283    4.0047    2.4196 F   0  0  0  0  0  0  0  0  0  0  0  0
    7.7373   -1.4770    3.0939 C   0  0  0  0  0  0  0  0  0  0  0  0
    8.4449   -0.8700    4.1344 C   0  0  0  0  0  0  0  0  0  0  0  0
    9.7963   -1.1223    4.3061 C   0  0  0  0  0  0  0  0  0  0  0  0
   10.4580   -2.0669    3.5650 C   0  0  0  0  0  0  0  0  0  0  0  0
   11.7841   -2.0706    3.7341 N   0  0  0  0  0  0  0  0  0  0  0  0
   12.4666   -3.0441    3.1457 C   0  0  0  0  0  0  0  0  0  0  0  0
   11.8443   -4.0665    2.4526 C   0  0  0  0  0  0  0  0  0  0  0  0
   12.6723   -5.2239    2.1413 C   0  0  0  0  0  0  0  0  0  0  0  0
   12.8400   -6.4339    2.8653 C   0  0  0  0  0  0  0  0  0  0  0  0
   13.8634   -7.1724    2.4166 N   0  0  0  0  0  0  0  0  0  0  0  0
   14.3593   -6.4363    1.4080 N   0  0  0  0  0  0  0  0  0  0  0  0
   15.2893   -7.0127    0.4659 C   0  0  0  0  0  0  0  0  0  0  0  0
   13.7933   -5.1930    1.3276 C   0  0  0  0  0  0  0  0  0  0  0  0
   10.4895   -4.0212    2.1885 N   0  0  0  0  0  0  0  0  0  0  0  0
    9.7517   -2.9544    2.7069 C   0  0  0  0  0  0  0  0  0  0  0  0
    8.3747   -2.5817    2.4570 C   0  0  0  0  0  0  0  0  0  0  0  0
    4.3973   -1.8186    3.0834 C   0  0  0  0  0  0  0  0  0  0  0  0
    0.3557   -3.2328    4.2007 H   0  0  0  0  0  0  0  0  0  0  0  0
    0.8173   -3.7046    2.5633 H   0  0  0  0  0  0  0  0  0  0  0  0
    0.3927   -1.9942    2.9480 H   0  0  0  0  0  0  0  0  0  0  0  0
    1.6680   -2.1417    1.0531 H   0  0  0  0  0  0  0  0  0  0  0  0
    1.9480   -1.0013   -2.3677 H   0  0  0  0  0  0  0  0  0  0  0  0
    1.2036   -0.8161   -0.7763 H   0  0  0  0  0  0  0  0  0  0  0  0
    1.8575   -2.4146   -1.3080 H   0  0  0  0  0  0  0  0  0  0  0  0
    5.5064   -0.5125    0.1569 H   0  0  0  0  0  0  0  0  0  0  0  0
    7.2567    0.4301    1.0029 H   0  0  0  0  0  0  0  0  0  0  0  0
    7.9885    0.8759    2.5219 H   0  0  0  0  0  0  0  0  0  0  0  0
    5.1116    1.6104    1.8684 H   0  0  0  0  0  0  0  0  0  0  0  0
    6.7507    2.3673    4.0696 H   0  0  0  0  0  0  0  0  0  0  0  0
    7.9813   -0.0859    4.7260 H   0  0  0  0  0  0  0  0  0  0  0  0
   10.3578   -0.5236    5.0126 H   0  0  0  0  0  0  0  0  0  0  0  0
   13.5450   -3.0192    3.2918 H   0  0  0  0  0  0  0  0  0  0  0  0
   12.2879   -6.7939    3.7251 H   0  0  0  0  0  0  0  0  0  0  0  0
   15.4794   -8.0581    0.7223 H   0  0  0  0  0  0  0  0  0  0  0  0
   16.2208   -6.4426    0.4756 H   0  0  0  0  0  0  0  0  0  0  0  0
   14.8211   -6.9607   -0.5212 H   0  0  0  0  0  0  0  0  0  0  0  0
   14.2109   -4.4278    0.6870 H   0  0  0  0  0  0  0  0  0  0  0  0
    7.8298   -3.1392    1.6946 H   0  0  0  0  0  0  0  0  0  0  0  0
    4.6737   -1.9710    4.1251 H   0  0  0  0  0  0  0  0  0  0  0  0
  1  2  1  0  0  0  0
  1 35  1  0  0  0  0
  1 36  1  0  0  0  0
  1 37  1  0  0  0  0
  2  3  1  0  0  0  0
  3  4  1  0  0  0  0
  3 34  2  0  0  0  0
  4  5  2  0  0  0  0
  4 38  1  0  0  0  0
  5  6  1  0  0  0  0
  5  8  1  0  0  0  0
  6  7  1  0  0  0  0
  7 39  1  0  0  0  0
  7 40  1  0  0  0  0
  7 41  1  0  0  0  0
  8  9  2  0  0  0  0
  8 42  1  0  0  0  0
  9 10  1  0  0  0  0
  9 34  1  0  0  0  0
 10 11  1  0  0  0  0
 10 18  1  0  0  0  0
 11 12  1  0  0  0  0
 11 43  1  0  0  0  0
 11 44  1  0  0  0  0
 12 13  1  0  0  0  0
 12 14  1  0  0  0  0
 12 45  1  6  0  0  0
 13 46  1  0  0  0  0
 14 15  1  0  0  0  0
 14 16  1  0  0  0  0
 14 17  1  0  0  0  0
 18 19  1  0  0  0  0
 18 33  2  0  0  0  0
 19 20  2  0  0  0  0
 19 47  1  0  0  0  0
 20 21  1  0  0  0  0
 20 48  1  0  0  0  0
 21 22  1  0  0  0  0
 21 32  2  0  0  0  0
 22 23  2  0  0  0  0
 23 24  1  0  0  0  0
 23 49  1  0  0  0  0
 24 25  1  0  0  0  0
 24 31  2  0  0  0  0
 25 26  1  0  0  0  0
 25 30  2  0  0  0  0
 26 27  2  0  0  0  0
 26 50  1  0  0  0  0
 27 28  1  0  0  0  0
 28 29  1  0  0  0  0
 28 30  1  0  0  0  0
 29 51  1  0  0  0  0
 29 52  1  0  0  0  0
 29 53  1  0  0  0  0
 30 54  1  0  0  0  0
 31 32  1  0  0  0  0
 32 33  1  0  0  0  0
 33 55  1  0  0  0  0
 34 56  1  0  0  0  0
M  END
$$$$
