CHEMBL4441465
 OpenBabel04072215383D

 46 49  0  0  0  0  0  0  0  0999 V2000
    2.9912   -0.6675    1.1022 C   0  0  0  0  0  0  0  0  0  0  0  0
    2.4540    0.0959    0.0252 O   0  0  0  0  0  0  0  0  0  0  0  0
    3.0563   -0.2195   -1.1748 C   0  0  0  0  0  0  0  0  0  0  0  0
    2.9583    0.7160   -2.1876 C   0  0  0  0  0  0  0  0  0  0  0  0
    3.6028    0.4509   -3.3968 C   0  0  0  0  0  0  0  0  0  0  0  0
    4.3257   -0.7384   -3.5782 C   0  0  0  0  0  0  0  0  0  0  0  0
    5.0790   -1.0298   -4.8163 C   0  0  0  0  0  0  0  0  0  0  0  0
    5.7133   -0.0058   -5.5429 C   0  0  0  0  0  0  0  0  0  0  0  0
    6.4417   -0.2743   -6.7071 C   0  0  0  0  0  0  0  0  0  0  0  0
    6.5691   -1.5843   -7.1798 C   0  0  0  0  0  0  0  0  0  0  0  0
    7.3295   -1.8815   -8.4456 C   0  0  0  0  0  0  0  0  0  0  0  0
    8.7421   -2.1130   -8.2083 N   0  0  0  0  0  0  0  0  0  0  0  0
    9.7472   -1.1868   -8.2005 C   0  0  0  0  0  0  0  0  0  0  0  0
   10.8959   -1.9433   -8.1855 C   0  0  0  0  0  0  0  0  0  0  0  0
   12.2552   -1.4450   -8.2406 C   0  0  0  0  0  0  0  0  0  0  0  0
   12.5915   -0.1946   -7.7070 C   0  0  0  0  0  0  0  0  0  0  0  0
   13.8969    0.2866   -7.8108 C   0  0  0  0  0  0  0  0  0  0  0  0
   14.8773   -0.4860   -8.4331 C   0  0  0  0  0  0  0  0  0  0  0  0
   14.5796   -1.7621   -8.9166 C   0  0  0  0  0  0  0  0  0  0  0  0
   15.5361   -2.4721   -9.6546 N   0  0  0  0  0  0  0  0  0  0  0  0
   13.2564   -2.2098   -8.8574 C   0  0  0  0  0  0  0  0  0  0  0  0
   10.5565   -3.2717   -8.1693 N   0  0  0  0  0  0  0  0  0  0  0  0
    9.2336   -3.3666   -8.1766 N   0  0  0  0  0  0  0  0  0  0  0  0
    5.9626   -2.6173   -6.4583 C   0  0  0  0  0  0  0  0  0  0  0  0
    5.2205   -2.3403   -5.3041 C   0  0  0  0  0  0  0  0  0  0  0  0
    4.3134   -1.6199   -2.4933 C   0  0  0  0  0  0  0  0  0  0  0  0
    3.7005   -1.3944   -1.3062 N   0  0  0  0  0  0  0  0  0  0  0  0
    2.5568   -0.2884    2.0321 H   0  0  0  0  0  0  0  0  0  0  0  0
    4.0787   -0.5430    1.1701 H   0  0  0  0  0  0  0  0  0  0  0  0
    2.7232   -1.7257    1.0143 H   0  0  0  0  0  0  0  0  0  0  0  0
    2.4160    1.6415   -2.0328 H   0  0  0  0  0  0  0  0  0  0  0  0
    3.5356    1.1901   -4.1910 H   0  0  0  0  0  0  0  0  0  0  0  0
    5.6611    1.0259   -5.1996 H   0  0  0  0  0  0  0  0  0  0  0  0
    6.9054    0.5554   -7.2367 H   0  0  0  0  0  0  0  0  0  0  0  0
    7.2454   -1.0443   -9.1499 H   0  0  0  0  0  0  0  0  0  0  0  0
    6.9183   -2.7627   -8.9523 H   0  0  0  0  0  0  0  0  0  0  0  0
    9.5612   -0.1254   -8.2545 H   0  0  0  0  0  0  0  0  0  0  0  0
   11.8444    0.4200   -7.2122 H   0  0  0  0  0  0  0  0  0  0  0  0
   14.1485    1.2675   -7.4166 H   0  0  0  0  0  0  0  0  0  0  0  0
   15.8812   -0.0830   -8.5363 H   0  0  0  0  0  0  0  0  0  0  0  0
   16.4932   -2.2711   -9.3811 H   0  0  0  0  0  0  0  0  0  0  0  0
   15.3535   -3.4705   -9.6998 H   0  0  0  0  0  0  0  0  0  0  0  0
   12.9944   -3.1676   -9.3071 H   0  0  0  0  0  0  0  0  0  0  0  0
    6.0547   -3.6506   -6.7909 H   0  0  0  0  0  0  0  0  0  0  0  0
    4.7463   -3.1778   -4.7944 H   0  0  0  0  0  0  0  0  0  0  0  0
    4.8395   -2.5703   -2.5316 H   0  0  0  0  0  0  0  0  0  0  0  0
  1  2  1  0  0  0  0
  1 28  1  0  0  0  0
  1 29  1  0  0  0  0
  1 30  1  0  0  0  0
  2  3  1  0  0  0  0
  3  4  1  0  0  0  0
  3 27  2  0  0  0  0
  4  5  2  0  0  0  0
  4 31  1  0  0  0  0
  5  6  1  0  0  0  0
  5 32  1  0  0  0  0
  6  7  1  0  0  0  0
  6 26  2  0  0  0  0
  7  8  1  0  0  0  0
  7 25  2  0  0  0  0
  8  9  2  0  0  0  0
  8 33  1  0  0  0  0
  9 10  1  0  0  0  0
  9 34  1  0  0  0  0
 10 11  1  0  0  0  0
 10 24  2  0  0  0  0
 11 12  1  0  0  0  0
 11 35  1  0  0  0  0
 11 36  1  0  0  0  0
 12 13  1  0  0  0  0
 12 23  1  0  0  0  0
 13 14  2  0  0  0  0
 13 37  1  0  0  0  0
 14 15  1  0  0  0  0
 14 22  1  0  0  0  0
 15 16  1  0  0  0  0
 15 21  2  0  0  0  0
 16 17  2  0  0  0  0
 16 38  1  0  0  0  0
 17 18  1  0  0  0  0
 17 39  1  0  0  0  0
 18 19  2  0  0  0  0
 18 40  1  0  0  0  0
 19 20  1  0  0  0  0
 19 21  1  0  0  0  0
 20 41  1  0  0  0  0
 20 42  1  0  0  0  0
 21 43  1  0  0  0  0
 22 23  2  0  0  0  0
 24 25  1  0  0  0  0
 24 44  1  0  0  0  0
 25 45  1  0  0  0  0
 26 27  1  0  0  0  0
 26 46  1  0  0  0  0
M  END
$$$$
