CHEMBL4282387
 OpenBabel04072215383D

 81 86  0  0  1  0  0  0  0  0999 V2000
    1.1682   -0.1589   -0.2010 C   0  0  0  0  0  0  0  0  0  0  0  0
    2.6491    0.0053   -0.1356 C   0  0  0  0  0  0  0  0  0  0  0  0
    3.4654    1.1921   -0.0769 C   0  0  0  0  0  0  0  0  0  0  0  0
    3.1949    2.5265   -0.0204 O   0  0  0  0  0  0  0  0  0  0  0  0
    1.8987    2.8674    0.4727 C   0  0  0  0  0  0  0  0  0  0  0  0
    1.8382    4.2973    1.0578 C   0  0  3  0  0  0  0  0  0  0  0  0
    2.8141    4.4585    2.0981 O   0  0  0  0  0  0  0  0  0  0  0  0
    1.9760    5.4696    0.0471 C   0  0  0  0  0  0  0  0  0  0  0  0
    0.9885    5.4999   -1.0397 N   0  0  0  0  0  0  0  0  0  0  0  0
   -0.4069    5.5155   -0.5748 C   0  0  0  0  0  0  0  0  0  0  0  0
   -1.3248    5.2919   -1.7922 C   0  0  0  0  0  0  0  0  0  0  0  0
   -1.2701    6.3860   -2.7770 N   0  0  0  0  0  0  0  0  0  0  0  0
   -1.9732    7.5666   -2.2835 C   0  0  0  0  0  0  0  0  0  0  0  0
    0.1443    6.6658   -3.1204 C   0  0  0  0  0  0  0  0  0  0  0  0
    1.1673    6.6647   -1.9420 C   0  0  0  0  0  0  0  0  0  0  0  0
    4.7809    0.7850   -0.1078 C   0  0  0  0  0  0  0  0  0  0  0  0
    4.8159   -0.5791   -0.1434 N   0  0  0  0  0  0  0  0  0  0  0  0
    5.9279   -1.3405   -0.1692 N   0  0  0  0  0  0  0  0  0  0  0  0
    5.7042   -2.6204   -0.1986 C   0  0  0  0  0  0  0  0  0  0  0  0
    4.4816   -3.2347   -0.1646 N   0  0  0  0  0  0  0  0  0  0  0  0
    3.4459   -2.4777   -0.0786 C   0  0  0  0  0  0  0  0  0  0  0  0
    2.1577   -2.9457    0.1515 O   0  0  0  0  0  0  0  0  0  0  0  0
    2.0930   -4.1753    0.8301 C   0  0  0  0  0  0  0  0  0  0  0  0
    2.9567   -4.4559    1.8905 C   0  0  0  0  0  0  0  0  0  0  0  0
    2.8874   -5.6815    2.5362 C   0  0  0  0  0  0  0  0  0  0  0  0
    1.9008   -6.6055    2.1945 C   0  0  0  0  0  0  0  0  0  0  0  0
    1.7395   -7.8063    2.9053 N   0  0  0  0  0  0  0  0  0  0  0  0
    2.2297   -8.0502    4.1736 C   0  0  0  0  0  0  0  0  0  0  0  0
    2.8625   -7.2901    4.8933 O   0  0  0  0  0  0  0  0  0  0  0  0
    1.9187   -9.4161    4.6989 C   0  0  0  0  0  0  0  0  0  0  0  0
    3.0148  -10.3898    4.4298 C   0  0  0  0  0  0  0  0  0  0  0  0
    3.0104  -10.9507    3.3316 O   0  0  0  0  0  0  0  0  0  0  0  0
    3.9780  -10.5508    5.4054 N   0  0  0  0  0  0  0  0  0  0  0  0
    5.1970  -11.1956    5.0985 C   0  0  0  0  0  0  0  0  0  0  0  0
    5.8532  -10.9272    3.8875 C   0  0  0  0  0  0  0  0  0  0  0  0
    6.9637  -11.6728    3.5029 C   0  0  0  0  0  0  0  0  0  0  0  0
    7.4221  -12.6782    4.3402 C   0  0  0  0  0  0  0  0  0  0  0  0
    8.4396  -13.4524    3.9417 F   0  0  0  0  0  0  0  0  0  0  0  0
    6.8334  -12.8997    5.5834 C   0  0  0  0  0  0  0  0  0  0  0  0
    5.7342  -12.1326    5.9843 C   0  0  0  0  0  0  0  0  0  0  0  0
    0.4919   -9.9552    4.5874 C   0  0  0  0  0  0  0  0  0  0  0  0
    1.0033   -9.4918    5.9100 C   0  0  0  0  0  0  0  0  0  0  0  0
    1.0265   -6.3233    1.1388 C   0  0  0  0  0  0  0  0  0  0  0  0
    1.1163   -5.0976    0.4736 C   0  0  0  0  0  0  0  0  0  0  0  0
    0.2312   -4.8135   -0.4913 F   0  0  0  0  0  0  0  0  0  0  0  0
    3.5415   -1.0598   -0.1200 C   0  0  0  0  0  0  0  0  0  0  0  0
    0.6499    0.7421   -0.5238 H   0  0  0  0  0  0  0  0  0  0  0  0
    0.7778   -0.4617    0.7753 H   0  0  0  0  0  0  0  0  0  0  0  0
    0.9081   -0.9357   -0.9280 H   0  0  0  0  0  0  0  0  0  0  0  0
    1.6332    2.1829    1.2875 H   0  0  0  0  0  0  0  0  0  0  0  0
    1.1733    2.7772   -0.3405 H   0  0  0  0  0  0  0  0  0  0  0  0
    0.8735    4.3930    1.5656 H   0  0  0  0  0  0  0  0  0  0  0  0
    3.6782    4.2435    1.7022 H   0  0  0  0  0  0  0  0  0  0  0  0
    2.9861    5.4321   -0.3819 H   0  0  0  0  0  0  0  0  0  0  0  0
    1.9362    6.4094    0.6164 H   0  0  0  0  0  0  0  0  0  0  0  0
   -0.6408    6.4572   -0.0615 H   0  0  0  0  0  0  0  0  0  0  0  0
   -0.6130    4.7103    0.1346 H   0  0  0  0  0  0  0  0  0  0  0  0
   -2.3548    5.1224   -1.4584 H   0  0  0  0  0  0  0  0  0  0  0  0
   -1.0234    4.3604   -2.2922 H   0  0  0  0  0  0  0  0  0  0  0  0
   -2.9959    7.3011   -1.9885 H   0  0  0  0  0  0  0  0  0  0  0  0
   -2.0673    8.3155   -3.0763 H   0  0  0  0  0  0  0  0  0  0  0  0
   -1.4850    8.0358   -1.4239 H   0  0  0  0  0  0  0  0  0  0  0  0
    0.2194    7.6105   -3.6756 H   0  0  0  0  0  0  0  0  0  0  0  0
    0.4585    5.8870   -3.8280 H   0  0  0  0  0  0  0  0  0  0  0  0
    1.0616    7.6032   -1.3808 H   0  0  0  0  0  0  0  0  0  0  0  0
    2.1783    6.6550   -2.3678 H   0  0  0  0  0  0  0  0  0  0  0  0
    5.7023    1.3462   -0.0963 H   0  0  0  0  0  0  0  0  0  0  0  0
    6.5737   -3.2975   -0.2123 H   0  0  0  0  0  0  0  0  0  0  0  0
    3.7117   -3.7467    2.2169 H   0  0  0  0  0  0  0  0  0  0  0  0
    3.6348   -5.8918    3.2959 H   0  0  0  0  0  0  0  0  0  0  0  0
    1.1428   -8.5134    2.4934 H   0  0  0  0  0  0  0  0  0  0  0  0
    3.7000  -10.4545    6.3699 H   0  0  0  0  0  0  0  0  0  0  0  0
    5.4947  -10.1380    3.2302 H   0  0  0  0  0  0  0  0  0  0  0  0
    7.4476  -11.4912    2.5492 H   0  0  0  0  0  0  0  0  0  0  0  0
    7.2176  -13.6928    6.2162 H   0  0  0  0  0  0  0  0  0  0  0  0
    5.2607  -12.3413    6.9388 H   0  0  0  0  0  0  0  0  0  0  0  0
    0.3611  -11.0238    4.4370 H   0  0  0  0  0  0  0  0  0  0  0  0
   -0.2604   -9.3566    4.0857 H   0  0  0  0  0  0  0  0  0  0  0  0
    1.1784  -10.2366    6.6739 H   0  0  0  0  0  0  0  0  0  0  0  0
    0.5897   -8.5622    6.2919 H   0  0  0  0  0  0  0  0  0  0  0  0
    0.2459   -7.0180    0.8467 H   0  0  0  0  0  0  0  0  0  0  0  0
  1  2  1  0  0  0  0
  1 47  1  0  0  0  0
  1 48  1  0  0  0  0
  1 49  1  0  0  0  0
  2  3  1  0  0  0  0
  2 46  2  0  0  0  0
  3  4  1  0  0  0  0
  3 16  2  0  0  0  0
  4  5  1  0  0  0  0
  5  6  1  0  0  0  0
  5 50  1  0  0  0  0
  5 51  1  0  0  0  0
  6  7  1  0  0  0  0
  6  8  1  0  0  0  0
  6 52  1  0  0  0  0
  7 53  1  0  0  0  0
  8  9  1  0  0  0  0
  8 54  1  0  0  0  0
  8 55  1  0  0  0  0
  9 10  1  0  0  0  0
  9 15  1  0  0  0  0
 10 11  1  0  0  0  0
 10 56  1  0  0  0  0
 10 57  1  0  0  0  0
 11 12  1  0  0  0  0
 11 58  1  0  0  0  0
 11 59  1  0  0  0  0
 12 13  1  0  0  0  0
 12 14  1  0  0  0  0
 13 60  1  0  0  0  0
 13 61  1  0  0  0  0
 13 62  1  0  0  0  0
 14 15  1  0  0  0  0
 14 63  1  0  0  0  0
 14 64  1  0  0  0  0
 15 65  1  0  0  0  0
 15 66  1  0  0  0  0
 16 17  1  0  0  0  0
 16 67  1  0  0  0  0
 17 18  1  0  0  0  0
 17 46  1  0  0  0  0
 18 19  2  0  0  0  0
 19 20  1  0  0  0  0
 19 68  1  0  0  0  0
 20 21  2  0  0  0  0
 21 22  1  0  0  0  0
 21 46  1  0  0  0  0
 22 23  1  0  0  0  0
 23 24  1  0  0  0  0
 23 44  2  0  0  0  0
 24 25  2  0  0  0  0
 24 69  1  0  0  0  0
 25 26  1  0  0  0  0
 25 70  1  0  0  0  0
 26 27  1  0  0  0  0
 26 43  2  0  0  0  0
 27 28  1  0  0  0  0
 27 71  1  0  0  0  0
 28 29  2  0  0  0  0
 28 30  1  0  0  0  0
 30 31  1  0  0  0  0
 30 41  1  0  0  0  0
 30 42  1  0  0  0  0
 31 32  2  0  0  0  0
 31 33  1  0  0  0  0
 33 34  1  0  0  0  0
 33 72  1  0  0  0  0
 34 35  1  0  0  0  0
 34 40  2  0  0  0  0
 35 36  2  0  0  0  0
 35 73  1  0  0  0  0
 36 37  1  0  0  0  0
 36 74  1  0  0  0  0
 37 38  1  0  0  0  0
 37 39  2  0  0  0  0
 39 40  1  0  0  0  0
 39 75  1  0  0  0  0
 40 76  1  0  0  0  0
 41 42  1  0  0  0  0
 41 77  1  0  0  0  0
 41 78  1  0  0  0  0
 42 79  1  0  0  0  0
 42 80  1  0  0  0  0
 43 44  1  0  0  0  0
 43 81  1  0  0  0  0
 44 45  1  0  0  0  0
M  END
$$$$
