CHEMBL584701
 OpenBabel04072215383D

 60 64  0  0  0  0  0  0  0  0999 V2000
    4.2744   -4.6108   -5.8681 C   0  0  0  0  0  0  0  0  0  0  0  0
    2.8583   -5.0786   -6.1212 C   0  0  0  0  0  0  0  0  0  0  0  0
    2.0283   -4.8947   -4.9651 N   0  0  0  0  0  0  0  0  0  0  0  0
    1.2790   -3.7962   -4.6487 C   0  0  0  0  0  0  0  0  0  0  0  0
    0.5732   -4.0122   -3.5629 N   0  0  0  0  0  0  0  0  0  0  0  0
    0.9233   -5.3009   -3.1775 C   0  0  0  0  0  0  0  0  0  0  0  0
    0.4539   -5.9093   -1.9624 C   0  0  0  0  0  0  0  0  0  0  0  0
   -0.3337   -5.1728   -1.1491 C   0  0  0  0  0  0  0  0  0  0  0  0
   -0.5085   -5.7863    0.0807 C   0  0  0  0  0  0  0  0  0  0  0  0
   -1.2254   -5.1716    1.0351 N   0  0  0  0  0  0  0  0  0  0  0  0
   -1.6073   -5.9772    2.0033 C   0  0  0  0  0  0  0  0  0  0  0  0
   -1.0315   -7.2239    2.2697 C   0  0  0  0  0  0  0  0  0  0  0  0
   -0.0024   -7.7294    1.4391 C   0  0  0  0  0  0  0  0  0  0  0  0
    0.9496   -8.7075    1.6251 O   0  0  0  0  0  0  0  0  0  0  0  0
    1.1192   -9.5522    2.6917 C   0  0  0  0  0  0  0  0  0  0  0  0
    0.4931   -9.4486    3.9088 C   0  0  0  0  0  0  0  0  0  0  0  0
    0.2819  -10.6066    4.6654 C   0  0  0  0  0  0  0  0  0  0  0  0
    0.8872  -11.8264    4.3540 C   0  0  0  0  0  0  0  0  0  0  0  0
    0.5501  -13.0344    5.0270 N   0  0  0  0  0  0  0  0  0  0  0  0
   -0.2085  -13.1521    6.1930 C   0  0  0  0  0  0  0  0  0  0  0  0
   -0.6020  -12.1936    6.8614 O   0  0  0  0  0  0  0  0  0  0  0  0
   -0.5520  -14.5463    6.7202 C   0  0  0  0  0  0  0  0  0  0  0  0
   -0.0294  -15.6938    5.9114 C   0  0  0  0  0  0  0  0  0  0  0  0
    1.0584  -15.5426    5.3469 O   0  0  0  0  0  0  0  0  0  0  0  0
   -0.8100  -16.8406    5.8366 N   0  0  0  0  0  0  0  0  0  0  0  0
   -0.4170  -18.0012    5.1060 C   0  0  0  0  0  0  0  0  0  0  0  0
    0.9151  -18.1983    4.6921 C   0  0  0  0  0  0  0  0  0  0  0  0
    1.3001  -19.3573    4.0174 C   0  0  0  0  0  0  0  0  0  0  0  0
    0.3456  -20.3003    3.6630 C   0  0  0  0  0  0  0  0  0  0  0  0
   -0.9874  -20.1041    4.0257 C   0  0  0  0  0  0  0  0  0  0  0  0
   -1.3501  -18.9775    4.7856 C   0  0  0  0  0  0  0  0  0  0  0  0
   -2.6441  -18.8349    5.2122 O   0  0  0  0  0  0  0  0  0  0  0  0
    1.8363  -11.8169    3.3301 C   0  0  0  0  0  0  0  0  0  0  0  0
    1.9486  -10.6755    2.5125 C   0  0  0  0  0  0  0  0  0  0  0  0
    2.8799  -10.6767    1.5426 F   0  0  0  0  0  0  0  0  0  0  0  0
    0.0766   -7.0380    0.2099 C   0  0  0  0  0  0  0  0  0  0  0  0
    0.8515   -7.4414   -1.2932 S   0  0  0  0  0  0  0  0  0  0  0  0
    1.8281   -5.8422   -4.0294 C   0  0  0  0  0  0  0  0  0  0  0  0
    4.8913   -4.8222   -6.7425 H   0  0  0  0  0  0  0  0  0  0  0  0
    4.7148   -5.1200   -5.0043 H   0  0  0  0  0  0  0  0  0  0  0  0
    4.3019   -3.5361   -5.6672 H   0  0  0  0  0  0  0  0  0  0  0  0
    2.8466   -6.1499   -6.3421 H   0  0  0  0  0  0  0  0  0  0  0  0
    2.3914   -4.5536   -6.9573 H   0  0  0  0  0  0  0  0  0  0  0  0
    1.2810   -2.8686   -5.2105 H   0  0  0  0  0  0  0  0  0  0  0  0
   -0.7176   -4.1833   -1.3744 H   0  0  0  0  0  0  0  0  0  0  0  0
   -2.4457   -5.5367    2.5355 H   0  0  0  0  0  0  0  0  0  0  0  0
   -1.4173   -7.7222    3.1489 H   0  0  0  0  0  0  0  0  0  0  0  0
    0.1223   -8.5040    4.2788 H   0  0  0  0  0  0  0  0  0  0  0  0
   -0.4320  -10.5201    5.4749 H   0  0  0  0  0  0  0  0  0  0  0  0
    0.9568  -13.8988    4.6521 H   0  0  0  0  0  0  0  0  0  0  0  0
   -1.6379  -14.6069    6.8664 H   0  0  0  0  0  0  0  0  0  0  0  0
   -0.0820  -14.6282    7.7115 H   0  0  0  0  0  0  0  0  0  0  0  0
   -1.7658  -16.8629    6.1946 H   0  0  0  0  0  0  0  0  0  0  0  0
    1.7007  -17.4846    4.8856 H   0  0  0  0  0  0  0  0  0  0  0  0
    2.3495  -19.4999    3.7719 H   0  0  0  0  0  0  0  0  0  0  0  0
    0.6496  -21.1802    3.1027 H   0  0  0  0  0  0  0  0  0  0  0  0
   -1.7261  -20.8294    3.6975 H   0  0  0  0  0  0  0  0  0  0  0  0
   -3.0794  -19.7022    5.1317 H   0  0  0  0  0  0  0  0  0  0  0  0
    2.4750  -12.6730    3.1228 H   0  0  0  0  0  0  0  0  0  0  0  0
    2.3522   -6.8228   -4.0174 H   0  0  0  0  0  0  0  0  0  0  0  0
  1  2  1  0  0  0  0
  1 39  1  0  0  0  0
  1 40  1  0  0  0  0
  1 41  1  0  0  0  0
  2  3  1  0  0  0  0
  2 42  1  0  0  0  0
  2 43  1  0  0  0  0
  3  4  1  0  0  0  0
  3 38  1  0  0  0  0
  4  5  2  0  0  0  0
  4 44  1  0  0  0  0
  5  6  1  0  0  0  0
  6  7  1  0  0  0  0
  6 38  2  0  0  0  0
  7  8  2  0  0  0  0
  7 37  1  0  0  0  0
  8  9  1  0  0  0  0
  8 45  1  0  0  0  0
  9 10  1  0  0  0  0
  9 36  2  0  0  0  0
 10 11  2  0  0  0  0
 11 12  1  0  0  0  0
 11 46  1  0  0  0  0
 12 13  2  0  0  0  0
 12 47  1  0  0  0  0
 13 14  1  0  0  0  0
 13 36  1  0  0  0  0
 14 15  1  0  0  0  0
 15 16  1  0  0  0  0
 15 34  2  0  0  0  0
 16 17  2  0  0  0  0
 16 48  1  0  0  0  0
 17 18  1  0  0  0  0
 17 49  1  0  0  0  0
 18 19  1  0  0  0  0
 18 33  2  0  0  0  0
 19 20  1  0  0  0  0
 19 50  1  0  0  0  0
 20 21  2  0  0  0  0
 20 22  1  0  0  0  0
 22 23  1  0  0  0  0
 22 51  1  0  0  0  0
 22 52  1  0  0  0  0
 23 24  2  0  0  0  0
 23 25  1  0  0  0  0
 25 26  1  0  0  0  0
 25 53  1  0  0  0  0
 26 27  1  0  0  0  0
 26 31  2  0  0  0  0
 27 28  2  0  0  0  0
 27 54  1  0  0  0  0
 28 29  1  0  0  0  0
 28 55  1  0  0  0  0
 29 30  2  0  0  0  0
 29 56  1  0  0  0  0
 30 31  1  0  0  0  0
 30 57  1  0  0  0  0
 31 32  1  0  0  0  0
 32 58  1  0  0  0  0
 33 34  1  0  0  0  0
 33 59  1  0  0  0  0
 34 35  1  0  0  0  0
 36 37  1  0  0  0  0
 38 60  1  0  0  0  0
M  END
$$$$
