CHEMBL3221265
 OpenBabel04072215363D

 54 55  0  0  0  0  0  0  0  0999 V2000
    3.0648    4.4603    0.1620 C   0  0  0  0  0  0  0  0  0  0  0  0
    2.7360    3.0890    0.7496 C   0  0  0  0  0  0  0  0  0  0  0  0
    3.2653    1.9256   -0.1039 C   0  0  0  0  0  0  0  0  0  0  0  0
    4.7668    1.9340   -0.2300 C   0  0  0  0  0  0  0  0  0  0  0  0
    5.4480    1.9080    0.7868 O   0  0  0  0  0  0  0  0  0  0  0  0
    5.3612    1.9447   -1.4559 N   0  0  0  0  0  0  0  0  0  0  0  0
    6.7737    1.9391   -1.5786 C   0  0  0  0  0  0  0  0  0  0  0  0
    7.4730    3.1544   -1.5261 C   0  0  0  0  0  0  0  0  0  0  0  0
    8.8697    3.1722   -1.5960 C   0  0  0  0  0  0  0  0  0  0  0  0
    9.5850    1.9680   -1.6764 C   0  0  0  0  0  0  0  0  0  0  0  0
   11.0096    1.9719   -1.7049 N   0  0  0  0  0  0  0  0  0  0  0  0
   11.7663    0.8559   -1.2364 C   0  0  0  0  0  0  0  0  0  0  0  0
   11.2369    0.0846   -0.2470 N   0  0  0  0  0  0  0  0  0  0  0  0
   11.8995   -0.9913    0.2560 C   0  0  0  0  0  0  0  0  0  0  0  0
   13.1105   -1.3376   -0.2435 N   0  0  0  0  0  0  0  0  0  0  0  0
   13.6827   -0.6133   -1.2419 C   0  0  0  0  0  0  0  0  0  0  0  0
   14.9064   -1.0177   -1.7666 C   0  0  0  0  0  0  0  0  0  0  0  0
   15.5259   -0.3052   -2.8212 C   0  0  0  0  0  0  0  0  0  0  0  0
   16.7142   -0.7351   -3.3381 O   0  0  0  0  0  0  0  0  0  0  0  0
   17.3864   -1.8716   -2.9189 C   0  0  0  0  0  0  0  0  0  0  0  0
   14.8683    0.8545   -3.3322 C   0  0  0  0  0  0  0  0  0  0  0  0
   15.3228    1.6509   -4.3402 O   0  0  0  0  0  0  0  0  0  0  0  0
   16.4661    1.5723   -5.0974 C   0  0  0  0  0  0  0  0  0  0  0  0
   13.6394    1.2434   -2.7929 C   0  0  0  0  0  0  0  0  0  0  0  0
   13.0319    0.5240   -1.7583 C   0  0  0  0  0  0  0  0  0  0  0  0
    8.8743    0.7576   -1.7659 C   0  0  0  0  0  0  0  0  0  0  0  0
    7.4796    0.7308   -1.7307 C   0  0  0  0  0  0  0  0  0  0  0  0
    6.7636   -0.5875   -1.8490 C   0  0  0  0  0  0  0  0  0  0  0  0
    0.2806    1.3235   -2.3056 Cl  0  0  0  0  0  0  0  0  0  0  0  0
    2.6359    5.2503    0.8148 H   0  0  0  0  0  0  0  0  0  0  0  0
    2.6278    4.5611   -0.8536 H   0  0  0  0  0  0  0  0  0  0  0  0
    4.1636    4.6111    0.1076 H   0  0  0  0  0  0  0  0  0  0  0  0
    1.6311    2.9937    0.8248 H   0  0  0  0  0  0  0  0  0  0  0  0
    3.1578    3.0219    1.7763 H   0  0  0  0  0  0  0  0  0  0  0  0
    2.7977    1.9622   -1.1089 H   0  0  0  0  0  0  0  0  0  0  0  0
    2.9623    0.9737    0.3827 H   0  0  0  0  0  0  0  0  0  0  0  0
    4.7891    1.9212   -2.3130 H   0  0  0  0  0  0  0  0  0  0  0  0
    6.9304    4.0856   -1.4270 H   0  0  0  0  0  0  0  0  0  0  0  0
    9.3935    4.1189   -1.5512 H   0  0  0  0  0  0  0  0  0  0  0  0
   11.4945    2.8252   -2.0230 H   0  0  0  0  0  0  0  0  0  0  0  0
   11.4551   -1.5752    1.0506 H   0  0  0  0  0  0  0  0  0  0  0  0
   15.3585   -1.9078   -1.3450 H   0  0  0  0  0  0  0  0  0  0  0  0
   18.3137   -2.0096   -3.5068 H   0  0  0  0  0  0  0  0  0  0  0  0
   16.7505   -2.7776   -3.0577 H   0  0  0  0  0  0  0  0  0  0  0  0
   17.6627   -1.7878   -1.8425 H   0  0  0  0  0  0  0  0  0  0  0  0
   16.4558    2.4304   -5.8056 H   0  0  0  0  0  0  0  0  0  0  0  0
   16.4779    0.6369   -5.6919 H   0  0  0  0  0  0  0  0  0  0  0  0
   17.3661    1.6667   -4.4574 H   0  0  0  0  0  0  0  0  0  0  0  0
   13.1611    2.1143   -3.2189 H   0  0  0  0  0  0  0  0  0  0  0  0
    9.4090   -0.1764   -1.8802 H   0  0  0  0  0  0  0  0  0  0  0  0
    7.4789   -1.4300   -1.9797 H   0  0  0  0  0  0  0  0  0  0  0  0
    6.1013   -0.5690   -2.7407 H   0  0  0  0  0  0  0  0  0  0  0  0
    6.1600   -0.7815   -0.9403 H   0  0  0  0  0  0  0  0  0  0  0  0
    1.0001    0.1506   -2.3295 H   0  0  0  0  0  0  0  0  0  0  0  0
  1  2  1  0  0  0  0
  1 30  1  0  0  0  0
  1 31  1  0  0  0  0
  1 32  1  0  0  0  0
  2  3  1  0  0  0  0
  2 33  1  0  0  0  0
  2 34  1  0  0  0  0
  3  4  1  0  0  0  0
  3 35  1  0  0  0  0
  3 36  1  0  0  0  0
  4  5  2  0  0  0  0
  4  6  1  0  0  0  0
  6  7  1  0  0  0  0
  6 37  1  0  0  0  0
  7  8  1  0  0  0  0
  7 27  2  0  0  0  0
  8  9  2  0  0  0  0
  8 38  1  0  0  0  0
  9 10  1  0  0  0  0
  9 39  1  0  0  0  0
 10 11  1  0  0  0  0
 10 26  2  0  0  0  0
 11 12  1  0  0  0  0
 11 40  1  0  0  0  0
 12 13  1  0  0  0  0
 12 25  2  0  0  0  0
 13 14  2  0  0  0  0
 14 15  1  0  0  0  0
 14 41  1  0  0  0  0
 15 16  2  0  0  0  0
 16 17  1  0  0  0  0
 16 25  1  0  0  0  0
 17 18  2  0  0  0  0
 17 42  1  0  0  0  0
 18 19  1  0  0  0  0
 18 21  1  0  0  0  0
 19 20  1  0  0  0  0
 20 43  1  0  0  0  0
 20 44  1  0  0  0  0
 20 45  1  0  0  0  0
 21 22  1  0  0  0  0
 21 24  2  0  0  0  0
 22 23  1  0  0  0  0
 23 46  1  0  0  0  0
 23 47  1  0  0  0  0
 23 48  1  0  0  0  0
 24 25  1  0  0  0  0
 24 49  1  0  0  0  0
 26 27  1  0  0  0  0
 26 50  1  0  0  0  0
 27 28  1  0  0  0  0
 28 51  1  0  0  0  0
 28 52  1  0  0  0  0
 28 53  1  0  0  0  0
 29 54  1  0  0  0  0
M  END
$$$$
