CHEMBL2018885
 OpenBabel04072215363D

 54 57  0  0  0  0  0  0  0  0999 V2000
   10.4775   -1.3069   -3.6944 C   0  0  0  0  0  0  0  0  0  0  0  0
   10.6810    0.0744   -4.0174 O   0  0  0  0  0  0  0  0  0  0  0  0
    9.5908    0.8808   -3.8163 C   0  0  0  0  0  0  0  0  0  0  0  0
    8.7031    0.6310   -2.7553 C   0  0  0  0  0  0  0  0  0  0  0  0
    7.5012    1.2991   -2.6225 C   0  0  0  0  0  0  0  0  0  0  0  0
    6.6682    0.9085   -1.6532 N   0  0  0  0  0  0  0  0  0  0  0  0
    5.4682    1.4946   -1.6187 C   0  0  0  0  0  0  0  0  0  0  0  0
    5.0276    2.4233   -2.4637 N   0  0  0  0  0  0  0  0  0  0  0  0
    5.9141    2.8468   -3.3934 C   0  0  0  0  0  0  0  0  0  0  0  0
    5.5039    3.7991   -4.3346 O   0  0  0  0  0  0  0  0  0  0  0  0
    4.3760    4.5290   -4.0358 C   0  0  0  0  0  0  0  0  0  0  0  0
    4.2156    5.1471   -2.8069 C   0  0  0  0  0  0  0  0  0  0  0  0
    3.0312    5.8145   -2.5159 C   0  0  0  0  0  0  0  0  0  0  0  0
    1.9807    5.9078   -3.4399 C   0  0  0  0  0  0  0  0  0  0  0  0
    0.7520    6.5293   -3.0718 N   0  0  0  0  0  0  0  0  0  0  0  0
    0.3587    6.8032   -1.7677 C   0  0  0  0  0  0  0  0  0  0  0  0
    1.0155    6.5686   -0.7584 O   0  0  0  0  0  0  0  0  0  0  0  0
   -0.9270    7.3264   -1.6943 N   0  0  0  0  0  0  0  0  0  0  0  0
   -1.4856    7.6448   -0.4257 C   0  0  0  0  0  0  0  0  0  0  0  0
   -2.7805    7.1950   -0.1383 C   0  0  0  0  0  0  0  0  0  0  0  0
   -3.3241    7.4078    1.1319 C   0  0  0  0  0  0  0  0  0  0  0  0
   -2.5974    8.1087    2.0909 C   0  0  0  0  0  0  0  0  0  0  0  0
   -3.1468    8.3032    3.2990 F   0  0  0  0  0  0  0  0  0  0  0  0
   -1.3270    8.5949    1.7967 C   0  0  0  0  0  0  0  0  0  0  0  0
   -0.4403    9.4901    2.9734 Cl  0  0  0  0  0  0  0  0  0  0  0  0
   -0.7661    8.3574    0.5417 C   0  0  0  0  0  0  0  0  0  0  0  0
    2.1748    5.3572   -4.7277 C   0  0  0  0  0  0  0  0  0  0  0  0
    1.1617    5.4337   -5.8400 C   0  0  0  0  0  0  0  0  0  0  0  0
    3.3912    4.6855   -5.0132 C   0  0  0  0  0  0  0  0  0  0  0  0
    7.1989    2.3129   -3.5288 C   0  0  0  0  0  0  0  0  0  0  0  0
    8.1591    2.6950   -4.4912 C   0  0  0  0  0  0  0  0  0  0  0  0
    9.3494    1.9738   -4.6545 C   0  0  0  0  0  0  0  0  0  0  0  0
   10.1021    2.4690   -5.6813 O   0  0  0  0  0  0  0  0  0  0  0  0
   11.2162    1.7309   -6.1533 C   0  0  0  0  0  0  0  0  0  0  0  0
   11.0012   -1.9143   -4.4376 H   0  0  0  0  0  0  0  0  0  0  0  0
    9.4247   -1.6173   -3.7200 H   0  0  0  0  0  0  0  0  0  0  0  0
   10.9063   -1.5169   -2.7096 H   0  0  0  0  0  0  0  0  0  0  0  0
    8.9223   -0.1455   -2.0256 H   0  0  0  0  0  0  0  0  0  0  0  0
    4.7801    1.1695   -0.8434 H   0  0  0  0  0  0  0  0  0  0  0  0
    4.9812    5.0808   -2.0399 H   0  0  0  0  0  0  0  0  0  0  0  0
    2.9744    6.2549   -1.5274 H   0  0  0  0  0  0  0  0  0  0  0  0
    0.0900    6.7209   -3.8056 H   0  0  0  0  0  0  0  0  0  0  0  0
   -1.5647    6.9651   -2.3878 H   0  0  0  0  0  0  0  0  0  0  0  0
   -3.3469    6.6186   -0.8638 H   0  0  0  0  0  0  0  0  0  0  0  0
   -4.3035    7.0160    1.3883 H   0  0  0  0  0  0  0  0  0  0  0  0
    0.2370    8.7182    0.3270 H   0  0  0  0  0  0  0  0  0  0  0  0
    0.1356    5.4924   -5.4679 H   0  0  0  0  0  0  0  0  0  0  0  0
    1.2076    4.5331   -6.4641 H   0  0  0  0  0  0  0  0  0  0  0  0
    1.3634    6.3020   -6.4754 H   0  0  0  0  0  0  0  0  0  0  0  0
    3.5556    4.2472   -5.9960 H   0  0  0  0  0  0  0  0  0  0  0  0
    7.9599    3.5364   -5.1519 H   0  0  0  0  0  0  0  0  0  0  0  0
   11.5153    2.1815   -7.1062 H   0  0  0  0  0  0  0  0  0  0  0  0
   10.9612    0.6890   -6.3640 H   0  0  0  0  0  0  0  0  0  0  0  0
   12.0632    1.8183   -5.4668 H   0  0  0  0  0  0  0  0  0  0  0  0
  1  2  1  0  0  0  0
  1 35  1  0  0  0  0
  1 36  1  0  0  0  0
  1 37  1  0  0  0  0
  2  3  1  0  0  0  0
  3  4  1  0  0  0  0
  3 32  2  0  0  0  0
  4  5  2  0  0  0  0
  4 38  1  0  0  0  0
  5  6  1  0  0  0  0
  5 30  1  0  0  0  0
  6  7  2  0  0  0  0
  7  8  1  0  0  0  0
  7 39  1  0  0  0  0
  8  9  2  0  0  0  0
  9 10  1  0  0  0  0
  9 30  1  0  0  0  0
 10 11  1  0  0  0  0
 11 12  1  0  0  0  0
 11 29  2  0  0  0  0
 12 13  2  0  0  0  0
 12 40  1  0  0  0  0
 13 14  1  0  0  0  0
 13 41  1  0  0  0  0
 14 15  1  0  0  0  0
 14 27  2  0  0  0  0
 15 16  1  0  0  0  0
 15 42  1  0  0  0  0
 16 17  2  0  0  0  0
 16 18  1  0  0  0  0
 18 19  1  0  0  0  0
 18 43  1  0  0  0  0
 19 20  1  0  0  0  0
 19 26  2  0  0  0  0
 20 21  2  0  0  0  0
 20 44  1  0  0  0  0
 21 22  1  0  0  0  0
 21 45  1  0  0  0  0
 22 23  1  0  0  0  0
 22 24  2  0  0  0  0
 24 25  1  0  0  0  0
 24 26  1  0  0  0  0
 26 46  1  0  0  0  0
 27 28  1  0  0  0  0
 27 29  1  0  0  0  0
 28 47  1  0  0  0  0
 28 48  1  0  0  0  0
 28 49  1  0  0  0  0
 29 50  1  0  0  0  0
 30 31  2  0  0  0  0
 31 32  1  0  0  0  0
 31 51  1  0  0  0  0
 32 33  1  0  0  0  0
 33 34  1  0  0  0  0
 34 52  1  0  0  0  0
 34 53  1  0  0  0  0
 34 54  1  0  0  0  0
M  END
$$$$
