CHEMBL1985433
 OpenBabel04072215363D

 32 34  0  0  0  0  0  0  0  0999 V2000
    2.0853   -0.7227    0.1796 C   0  0  0  0  0  0  0  0  0  0  0  0
    2.7898    0.8829    0.4879 S   0  0  0  0  0  0  0  0  0  0  0  0
    1.6998    1.7996    0.7415 O   0  0  0  0  0  0  0  0  0  0  0  0
    3.8870    0.7252    1.4142 O   0  0  0  0  0  0  0  0  0  0  0  0
    3.3707    1.2811   -1.0567 N   0  0  0  0  0  0  0  0  0  0  0  0
    4.7730    1.5433   -1.1734 C   0  0  0  0  0  0  0  0  0  0  0  0
    5.6487    0.4686   -1.3991 C   0  0  0  0  0  0  0  0  0  0  0  0
    7.0243    0.6840   -1.5337 C   0  0  0  0  0  0  0  0  0  0  0  0
    7.5047    1.9800   -1.4242 C   0  0  0  0  0  0  0  0  0  0  0  0
    6.6222    3.0500   -1.1683 C   0  0  0  0  0  0  0  0  0  0  0  0
    5.2568    2.8482   -1.0299 C   0  0  0  0  0  0  0  0  0  0  0  0
    7.4506    4.2881   -1.1167 C   0  0  0  0  0  0  0  0  0  0  0  0
    7.1416    5.5311   -0.9226 N   0  0  0  0  0  0  0  0  0  0  0  0
    5.7756    5.7246   -0.7247 O   0  0  0  0  0  0  0  0  0  0  0  0
    8.8517    3.8671   -1.3575 C   0  0  0  0  0  0  0  0  0  0  0  0
   10.0019    4.6364   -1.4209 C   0  0  0  0  0  0  0  0  0  0  0  0
   11.2029    3.9742   -1.6776 C   0  0  0  0  0  0  0  0  0  0  0  0
   11.2276    2.5795   -1.8631 C   0  0  0  0  0  0  0  0  0  0  0  0
   10.0510    1.8230   -1.7946 C   0  0  0  0  0  0  0  0  0  0  0  0
    8.8570    2.4792   -1.5397 C   0  0  0  0  0  0  0  0  0  0  0  0
    1.7009   -1.1070    1.1270 H   0  0  0  0  0  0  0  0  0  0  0  0
    2.8621   -1.3899   -0.1990 H   0  0  0  0  0  0  0  0  0  0  0  0
    1.2673   -0.6241   -0.5359 H   0  0  0  0  0  0  0  0  0  0  0  0
    2.7844    2.0344   -1.4244 H   0  0  0  0  0  0  0  0  0  0  0  0
    5.2582   -0.5416   -1.4889 H   0  0  0  0  0  0  0  0  0  0  0  0
    7.6912   -0.1501   -1.7246 H   0  0  0  0  0  0  0  0  0  0  0  0
    4.5859    3.6718   -0.8221 H   0  0  0  0  0  0  0  0  0  0  0  0
    5.7265    6.6841   -0.5589 H   0  0  0  0  0  0  0  0  0  0  0  0
    9.9663    5.7111   -1.2783 H   0  0  0  0  0  0  0  0  0  0  0  0
   12.1310    4.5403   -1.7370 H   0  0  0  0  0  0  0  0  0  0  0  0
   12.1752    2.0831   -2.0639 H   0  0  0  0  0  0  0  0  0  0  0  0
   10.0859    0.7485   -1.9421 H   0  0  0  0  0  0  0  0  0  0  0  0
  1  2  1  0  0  0  0
  1 21  1  0  0  0  0
  1 22  1  0  0  0  0
  1 23  1  0  0  0  0
  2  3  2  0  0  0  0
  2  4  2  0  0  0  0
  2  5  1  0  0  0  0
  5  6  1  0  0  0  0
  5 24  1  0  0  0  0
  6  7  1  0  0  0  0
  6 11  2  0  0  0  0
  7  8  2  0  0  0  0
  7 25  1  0  0  0  0
  8  9  1  0  0  0  0
  8 26  1  0  0  0  0
  9 10  2  0  0  0  0
  9 20  1  0  0  0  0
 10 11  1  0  0  0  0
 10 12  1  0  0  0  0
 11 27  1  0  0  0  0
 12 13  2  3  0  0  0
 12 15  1  0  0  0  0
 13 14  1  0  0  0  0
 14 28  1  0  0  0  0
 15 16  1  0  0  0  0
 15 20  2  0  0  0  0
 16 17  2  0  0  0  0
 16 29  1  0  0  0  0
 17 18  1  0  0  0  0
 17 30  1  0  0  0  0
 18 19  2  0  0  0  0
 18 31  1  0  0  0  0
 19 20  1  0  0  0  0
 19 32  1  0  0  0  0
M  END
$$$$
