CHEMBL3694690
 OpenBabel04072215373D

 52 55  0  0  0  0  0  0  0  0999 V2000
    1.2245    0.0254   -0.4461 C   0  0  0  0  0  0  0  0  0  0  0  0
    2.4815    0.3694    0.1322 O   0  0  0  0  0  0  0  0  0  0  0  0
    3.1494   -0.6379    0.7758 C   0  0  0  0  0  0  0  0  0  0  0  0
    2.6665   -1.9301    0.9686 C   0  0  0  0  0  0  0  0  0  0  0  0
    3.4306   -2.9046    1.6112 C   0  0  0  0  0  0  0  0  0  0  0  0
    2.9924   -4.2462    1.7601 N   0  0  0  0  0  0  0  0  0  0  0  0
    1.8432   -4.7878    1.2216 C   0  0  0  0  0  0  0  0  0  0  0  0
    1.0219   -4.2223    0.5126 O   0  0  0  0  0  0  0  0  0  0  0  0
    1.6414   -6.0966    1.5986 N   0  0  0  0  0  0  0  0  0  0  0  0
    0.4539   -6.7892    1.0772 C   0  0  0  0  0  0  0  0  0  0  0  0
    0.5138   -7.2535   -0.3879 C   0  0  0  0  0  0  0  0  0  0  0  0
    1.7454   -7.1020   -0.9256 F   0  0  0  0  0  0  0  0  0  0  0  0
    0.2162   -8.5762   -0.4609 F   0  0  0  0  0  0  0  0  0  0  0  0
   -0.3724   -6.6035   -1.1708 F   0  0  0  0  0  0  0  0  0  0  0  0
    4.6921   -2.5462    2.1103 C   0  0  0  0  0  0  0  0  0  0  0  0
    5.2210   -1.2616    1.8846 C   0  0  0  0  0  0  0  0  0  0  0  0
    6.5915   -0.8950    2.2612 C   0  0  0  0  0  0  0  0  0  0  0  0
    7.0819    0.3131    2.7387 C   0  0  0  0  0  0  0  0  0  0  0  0
    8.4416    0.2990    2.8883 N   0  0  0  0  0  0  0  0  0  0  0  0
    8.8163   -0.8930    2.4814 C   0  0  0  0  0  0  0  0  0  0  0  0
   10.1190   -1.4564    2.3678 C   0  0  0  0  0  0  0  0  0  0  0  0
   10.3045   -2.6957    1.8501 C   0  0  0  0  0  0  0  0  0  0  0  0
   11.6819   -3.2362    1.6876 C   0  0  0  0  0  0  0  0  0  0  0  0
   12.7596   -2.4339    1.3826 C   0  0  0  0  0  0  0  0  0  0  0  0
   13.9625   -3.0679    1.2202 C   0  0  0  0  0  0  0  0  0  0  0  0
   14.1267   -4.3958    1.3246 N   0  0  0  0  0  0  0  0  0  0  0  0
   13.0263   -5.1320    1.6065 C   0  0  0  0  0  0  0  0  0  0  0  0
   13.1648   -6.6557    1.7091 C   0  0  0  0  0  0  0  0  0  0  0  0
   14.4321   -7.1145    1.4782 F   0  0  0  0  0  0  0  0  0  0  0  0
   12.8242   -7.1440    2.9401 F   0  0  0  0  0  0  0  0  0  0  0  0
   12.3727   -7.3256    0.8177 F   0  0  0  0  0  0  0  0  0  0  0  0
   11.7946   -4.5835    1.7900 N   0  0  0  0  0  0  0  0  0  0  0  0
    9.1249   -3.4807    1.4558 C   0  0  0  0  0  0  0  0  0  0  0  0
    7.8944   -2.9501    1.5540 C   0  0  0  0  0  0  0  0  0  0  0  0
    7.7320   -1.6653    2.0725 N   0  0  0  0  0  0  0  0  0  0  0  0
    4.4217   -0.3100    1.2360 C   0  0  0  0  0  0  0  0  0  0  0  0
    0.8771    0.8814   -1.0310 H   0  0  0  0  0  0  0  0  0  0  0  0
    0.4825   -0.1741    0.3346 H   0  0  0  0  0  0  0  0  0  0  0  0
    1.3142   -0.8242   -1.1325 H   0  0  0  0  0  0  0  0  0  0  0  0
    1.6760   -2.1734    0.6121 H   0  0  0  0  0  0  0  0  0  0  0  0
    3.6053   -4.8741    2.2594 H   0  0  0  0  0  0  0  0  0  0  0  0
    2.4464   -6.6565    1.8371 H   0  0  0  0  0  0  0  0  0  0  0  0
   -0.4089   -6.1223    1.1978 H   0  0  0  0  0  0  0  0  0  0  0  0
    0.2874   -7.6492    1.7321 H   0  0  0  0  0  0  0  0  0  0  0  0
    5.2763   -3.2766    2.6626 H   0  0  0  0  0  0  0  0  0  0  0  0
    6.5143    1.2065    2.9718 H   0  0  0  0  0  0  0  0  0  0  0  0
   10.9360   -0.8271    2.7007 H   0  0  0  0  0  0  0  0  0  0  0  0
   12.6867   -1.3596    1.2579 H   0  0  0  0  0  0  0  0  0  0  0  0
   14.8655   -2.5081    0.9781 H   0  0  0  0  0  0  0  0  0  0  0  0
    9.2699   -4.4842    1.0714 H   0  0  0  0  0  0  0  0  0  0  0  0
    7.0198   -3.4939    1.2324 H   0  0  0  0  0  0  0  0  0  0  0  0
    4.7929    0.6968    1.0549 H   0  0  0  0  0  0  0  0  0  0  0  0
  1  2  1  0  0  0  0
  1 37  1  0  0  0  0
  1 38  1  0  0  0  0
  1 39  1  0  0  0  0
  2  3  1  0  0  0  0
  3  4  1  0  0  0  0
  3 36  2  0  0  0  0
  4  5  2  0  0  0  0
  4 40  1  0  0  0  0
  5  6  1  0  0  0  0
  5 15  1  0  0  0  0
  6  7  1  0  0  0  0
  6 41  1  0  0  0  0
  7  8  2  0  0  0  0
  7  9  1  0  0  0  0
  9 10  1  0  0  0  0
  9 42  1  0  0  0  0
 10 11  1  0  0  0  0
 10 43  1  0  0  0  0
 10 44  1  0  0  0  0
 11 12  1  0  0  0  0
 11 13  1  0  0  0  0
 11 14  1  0  0  0  0
 15 16  2  0  0  0  0
 15 45  1  0  0  0  0
 16 17  1  0  0  0  0
 16 36  1  0  0  0  0
 17 18  2  0  0  0  0
 17 35  1  0  0  0  0
 18 19  1  0  0  0  0
 18 46  1  0  0  0  0
 19 20  2  0  0  0  0
 20 21  1  0  0  0  0
 20 35  1  0  0  0  0
 21 22  2  0  0  0  0
 21 47  1  0  0  0  0
 22 23  1  0  0  0  0
 22 33  1  0  0  0  0
 23 24  1  0  0  0  0
 23 32  2  0  0  0  0
 24 25  2  0  0  0  0
 24 48  1  0  0  0  0
 25 26  1  0  0  0  0
 25 49  1  0  0  0  0
 26 27  2  0  0  0  0
 27 28  1  0  0  0  0
 27 32  1  0  0  0  0
 28 29  1  0  0  0  0
 28 30  1  0  0  0  0
 28 31  1  0  0  0  0
 33 34  2  0  0  0  0
 33 50  1  0  0  0  0
 34 35  1  0  0  0  0
 34 51  1  0  0  0  0
 36 52  1  0  0  0  0
M  END
$$$$
