CHEMBL3953117
 OpenBabel04072215373D

 62 66  0  0  0  0  0  0  0  0999 V2000
    2.7103   -1.3455   -0.2863 C   0  0  0  0  0  0  0  0  0  0  0  0
    2.1240   -0.0823   -0.5481 O   0  0  0  0  0  0  0  0  0  0  0  0
    2.7032    0.7193   -1.4643 C   0  0  0  0  0  0  0  0  0  0  0  0
    2.5384    2.0286   -1.2316 C   0  0  0  0  0  0  0  0  0  0  0  0
    3.2827    2.9066   -1.9633 C   0  0  0  0  0  0  0  0  0  0  0  0
    3.0097    4.2343   -1.9708 O   0  0  0  0  0  0  0  0  0  0  0  0
    1.6282    4.5296   -1.7741 C   0  0  0  0  0  0  0  0  0  0  0  0
    4.3492    2.4519   -2.7409 C   0  0  0  0  0  0  0  0  0  0  0  0
    4.7076    1.1211   -2.8135 C   0  0  0  0  0  0  0  0  0  0  0  0
    5.9660    0.7071   -3.3715 N   0  0  0  0  0  0  0  0  0  0  0  0
    6.5976   -0.5829   -2.8201 C   0  0  0  0  0  0  0  0  0  0  0  0
    6.9784   -0.7418   -1.3266 C   0  0  0  0  0  0  0  0  0  0  0  0
    7.3867    0.2923   -0.4138 C   0  0  0  0  0  0  0  0  0  0  0  0
    7.0876   -0.1845    0.8467 C   0  0  0  0  0  0  0  0  0  0  0  0
    7.0000    0.4485    2.1863 C   0  0  0  0  0  0  0  0  0  0  0  0
    6.9538   -1.5181    0.6469 N   0  0  0  0  0  0  0  0  0  0  0  0
    7.1616   -2.4898    1.6818 C   0  0  0  0  0  0  0  0  0  0  0  0
    6.8169   -1.8917   -0.6470 N   0  0  0  0  0  0  0  0  0  0  0  0
    6.9036    1.6294   -3.9892 C   0  0  0  0  0  0  0  0  0  0  0  0
    7.6772    1.1077   -4.9816 C   0  0  0  0  0  0  0  0  0  0  0  0
    8.6657    1.8640   -5.4431 C   0  0  0  0  0  0  0  0  0  0  0  0
    9.0524    2.9961   -4.8499 C   0  0  0  0  0  0  0  0  0  0  0  0
   10.3102    2.8683   -5.0142 N   0  0  0  0  0  0  0  0  0  0  0  0
   10.8146    3.2748   -6.1579 C   0  0  0  0  0  0  0  0  0  0  0  0
   11.0697    4.5319   -6.1560 C   0  0  0  0  0  0  0  0  0  0  0  0
   12.6562    4.2479   -7.1235 C   0  0  0  0  0  0  0  0  0  0  0  0
   13.4923    3.3975   -8.1849 C   0  0  0  0  0  0  0  0  0  0  0  0
   14.6514    3.9243   -8.7380 N   0  0  0  0  0  0  0  0  0  0  0  0
   14.7310    5.1857   -8.2963 N   0  0  0  0  0  0  0  0  0  0  0  0
   15.8459    6.1104   -8.7539 C   0  0  0  0  0  0  0  0  0  0  0  0
   13.5761    5.4085   -7.4217 C   0  0  0  0  0  0  0  0  0  0  0  0
    9.9412    5.0379   -4.9586 N   0  0  0  0  0  0  0  0  0  0  0  0
    8.6016    4.0709   -4.2670 C   0  0  0  0  0  0  0  0  0  0  0  0
    7.2734    3.0775   -3.6099 C   0  0  0  0  0  0  0  0  0  0  0  0
    3.6523    0.3025   -2.4119 C   0  0  0  0  0  0  0  0  0  0  0  0
    2.1746   -1.8603    0.5292 H   0  0  0  0  0  0  0  0  0  0  0  0
    3.7262   -1.1552    0.0440 H   0  0  0  0  0  0  0  0  0  0  0  0
    2.6371   -1.9961   -1.1547 H   0  0  0  0  0  0  0  0  0  0  0  0
    1.7366    2.2929   -0.5683 H   0  0  0  0  0  0  0  0  0  0  0  0
    1.5328    5.6081   -1.8066 H   0  0  0  0  0  0  0  0  0  0  0  0
    1.2768    4.1794   -0.7919 H   0  0  0  0  0  0  0  0  0  0  0  0
    1.0033    4.1012   -2.5721 H   0  0  0  0  0  0  0  0  0  0  0  0
    4.8810    3.1472   -3.3673 H   0  0  0  0  0  0  0  0  0  0  0  0
    7.5380   -0.8535   -3.3295 H   0  0  0  0  0  0  0  0  0  0  0  0
    5.8697   -1.3530   -3.1048 H   0  0  0  0  0  0  0  0  0  0  0  0
    7.4627    1.3507   -0.6377 H   0  0  0  0  0  0  0  0  0  0  0  0
    7.0913    1.5234    2.1881 H   0  0  0  0  0  0  0  0  0  0  0  0
    7.9132    0.2433    2.7182 H   0  0  0  0  0  0  0  0  0  0  0  0
    6.0920    0.1820    2.7583 H   0  0  0  0  0  0  0  0  0  0  0  0
    7.2049   -1.9872    2.6531 H   0  0  0  0  0  0  0  0  0  0  0  0
    8.1262   -2.9530    1.4762 H   0  0  0  0  0  0  0  0  0  0  0  0
    6.3349   -3.1908    1.6589 H   0  0  0  0  0  0  0  0  0  0  0  0
    7.6827    0.0784   -5.3123 H   0  0  0  0  0  0  0  0  0  0  0  0
    9.3643    1.3963   -6.1426 H   0  0  0  0  0  0  0  0  0  0  0  0
   11.1474    2.4544   -6.7850 H   0  0  0  0  0  0  0  0  0  0  0  0
   13.3605    2.4056   -8.6148 H   0  0  0  0  0  0  0  0  0  0  0  0
   16.6511    5.6096   -9.3420 H   0  0  0  0  0  0  0  0  0  0  0  0
   16.3554    6.5855   -7.8998 H   0  0  0  0  0  0  0  0  0  0  0  0
   15.4590    6.9105   -9.4057 H   0  0  0  0  0  0  0  0  0  0  0  0
   13.5621    6.4438   -7.1258 H   0  0  0  0  0  0  0  0  0  0  0  0
    6.7029    3.2908   -2.6842 H   0  0  0  0  0  0  0  0  0  0  0  0
    3.6621   -0.7362   -2.7027 H   0  0  0  0  0  0  0  0  0  0  0  0
  1  2  1  0  0  0  0
  1 36  1  0  0  0  0
  1 37  1  0  0  0  0
  1 38  1  0  0  0  0
  2  3  1  0  0  0  0
  3  4  1  0  0  0  0
  3 35  2  0  0  0  0
  4  5  2  0  0  0  0
  4 39  1  0  0  0  0
  5  6  1  0  0  0  0
  5  8  1  0  0  0  0
  6  7  1  0  0  0  0
  7 40  1  0  0  0  0
  7 41  1  0  0  0  0
  7 42  1  0  0  0  0
  8  9  2  0  0  0  0
  8 43  1  0  0  0  0
  9 10  1  0  0  0  0
  9 35  1  0  0  0  0
 10 11  1  0  0  0  0
 10 19  1  0  0  0  0
 11 12  1  0  0  0  0
 11 44  1  0  0  0  0
 11 45  1  0  0  0  0
 12 13  1  0  0  0  0
 12 18  2  0  0  0  0
 13 14  2  0  0  0  0
 13 46  1  0  0  0  0
 14 15  1  0  0  0  0
 14 16  1  0  0  0  0
 15 47  1  0  0  0  0
 15 48  1  0  0  0  0
 15 49  1  0  0  0  0
 16 17  1  0  0  0  0
 16 18  1  0  0  0  0
 17 50  1  0  0  0  0
 17 51  1  0  0  0  0
 17 52  1  0  0  0  0
 19 20  1  0  0  0  0
 19 34  2  0  0  0  0
 20 21  2  0  0  0  0
 20 53  1  0  0  0  0
 21 22  1  0  0  0  0
 21 54  1  0  0  0  0
 22 23  1  0  0  0  0
 22 33  2  0  0  0  0
 23 24  2  0  0  0  0
 24 25  1  0  0  0  0
 24 55  1  0  0  0  0
 25 26  1  0  0  0  0
 25 32  2  0  0  0  0
 26 27  1  0  0  0  0
 26 31  2  0  0  0  0
 27 28  2  0  0  0  0
 27 56  1  0  0  0  0
 28 29  1  0  0  0  0
 29 30  1  0  0  0  0
 29 31  1  0  0  0  0
 30 57  1  0  0  0  0
 30 58  1  0  0  0  0
 30 59  1  0  0  0  0
 31 60  1  0  0  0  0
 32 33  1  0  0  0  0
 33 34  1  0  0  0  0
 34 61  1  0  0  0  0
 35 62  1  0  0  0  0
M  END
$$$$
