CHEMBL502621
 OpenBabel04072215383D

 71 76  0  0  1  0  0  0  0  0999 V2000
    8.4343   -0.8397    6.7250 C   0  0  0  0  0  0  0  0  0  0  0  0
    7.5244    0.2848    6.9682 N   0  0  0  0  0  0  0  0  0  0  0  0
    6.4310   -0.1549    7.8359 C   0  0  0  0  0  0  0  0  0  0  0  0
    7.0436    0.8691    5.7046 C   0  0  1  0  0  0  0  0  0  0  0  0
    6.0848    2.0529    5.8946 C   0  0  0  0  0  0  0  0  0  0  0  0
    6.1840    2.7656    4.5644 C   0  0  0  0  0  0  0  0  0  0  0  0
    7.6003    2.6944    4.2456 N   0  0  0  0  0  0  0  0  0  0  0  0
    8.4029    3.5773    3.5506 C   0  0  0  0  0  0  0  0  0  0  0  0
    9.6131    3.3065    3.3636 O   0  0  0  0  0  0  0  0  0  0  0  0
    7.8340    4.7975    3.0230 C   0  0  0  0  0  0  0  0  0  0  0  0
    8.2032    5.4863    1.8845 C   0  0  0  0  0  0  0  0  0  0  0  0
    7.3903    6.6339    1.6549 C   0  0  0  0  0  0  0  0  0  0  0  0
    7.4827    7.4608    0.5885 N   0  0  0  0  0  0  0  0  0  0  0  0
    6.6015    8.4710    0.5550 C   0  0  0  0  0  0  0  0  0  0  0  0
    5.6173    8.6943    1.4984 C   0  0  0  0  0  0  0  0  0  0  0  0
    5.5234    7.8554    2.6084 C   0  0  0  0  0  0  0  0  0  0  0  0
    4.5896    7.9771    3.6252 O   0  0  0  0  0  0  0  0  0  0  0  0
    4.1752    9.2430    3.9530 C   0  0  0  0  0  0  0  0  0  0  0  0
    5.0387   10.3227    3.7856 C   0  0  0  0  0  0  0  0  0  0  0  0
    4.5732   11.6065    3.9276 C   0  0  0  0  0  0  0  0  0  0  0  0
    3.2694   11.8601    4.3390 C   0  0  0  0  0  0  0  0  0  0  0  0
    2.8216   13.1836    4.4799 N   0  0  0  0  0  0  0  0  0  0  0  0
    3.4075   14.2931    3.8858 C   0  0  0  0  0  0  0  0  0  0  0  0
    4.4047   14.3027    3.1729 O   0  0  0  0  0  0  0  0  0  0  0  0
    2.7248   15.4654    4.1058 N   0  0  0  0  0  0  0  0  0  0  0  0
    3.1106   16.6747    3.4209 C   0  0  0  0  0  0  0  0  0  0  0  0
    2.0751   17.6661    3.8953 C   0  0  0  0  0  0  0  0  0  0  0  0
    1.8602   17.2157    5.2488 N   0  0  0  0  0  0  0  0  0  0  0  0
    1.1533   17.9241    6.2243 C   0  0  0  0  0  0  0  0  0  0  0  0
    1.0237   17.3622    7.4984 C   0  0  0  0  0  0  0  0  0  0  0  0
    0.2547   17.9782    8.4723 C   0  0  0  0  0  0  0  0  0  0  0  0
   -0.4152   19.1647    8.1573 C   0  0  0  0  0  0  0  0  0  0  0  0
   -0.2753   19.7403    6.9091 C   0  0  0  0  0  0  0  0  0  0  0  0
    0.5346   19.1436    5.9440 C   0  0  0  0  0  0  0  0  0  0  0  0
    2.1298   15.8330    5.3164 C   0  0  0  0  0  0  0  0  0  0  0  0
    1.8228   15.0325    6.2039 O   0  0  0  0  0  0  0  0  0  0  0  0
    2.4207   10.7719    4.6256 C   0  0  0  0  0  0  0  0  0  0  0  0
    2.8860    9.4682    4.4309 C   0  0  0  0  0  0  0  0  0  0  0  0
    2.0530    8.4417    4.6696 F   0  0  0  0  0  0  0  0  0  0  0  0
    6.4568    6.8229    2.6644 C   0  0  0  0  0  0  0  0  0  0  0  0
    6.7069    5.7176    3.9124 S   0  0  0  0  0  0  0  0  0  0  0  0
    8.1605    1.4887    4.8234 C   0  0  0  0  0  0  0  0  0  0  0  0
    8.7831   -1.2660    7.6726 H   0  0  0  0  0  0  0  0  0  0  0  0
    9.3341   -0.5188    6.1900 H   0  0  0  0  0  0  0  0  0  0  0  0
    7.9523   -1.6355    6.1461 H   0  0  0  0  0  0  0  0  0  0  0  0
    6.8296   -0.5192    8.7904 H   0  0  0  0  0  0  0  0  0  0  0  0
    5.8419   -0.9580    7.3802 H   0  0  0  0  0  0  0  0  0  0  0  0
    5.7585    0.6702    8.0896 H   0  0  0  0  0  0  0  0  0  0  0  0
    6.5215    0.1044    5.1115 H   0  0  0  0  0  0  0  0  0  0  0  0
    6.4333    2.7158    6.6986 H   0  0  0  0  0  0  0  0  0  0  0  0
    5.0557    1.7560    6.1137 H   0  0  0  0  0  0  0  0  0  0  0  0
    5.7607    3.7509    4.6485 H   0  0  0  0  0  0  0  0  0  0  0  0
    5.6339    2.2500    3.7732 H   0  0  0  0  0  0  0  0  0  0  0  0
    8.9992    5.1705    1.2222 H   0  0  0  0  0  0  0  0  0  0  0  0
    6.6908    9.1310   -0.3052 H   0  0  0  0  0  0  0  0  0  0  0  0
    4.9735    9.5581    1.3678 H   0  0  0  0  0  0  0  0  0  0  0  0
    6.0623   10.1535    3.4746 H   0  0  0  0  0  0  0  0  0  0  0  0
    5.2694   12.4161    3.7296 H   0  0  0  0  0  0  0  0  0  0  0  0
    1.9693   13.3609    4.9969 H   0  0  0  0  0  0  0  0  0  0  0  0
    3.1486   16.5372    2.3373 H   0  0  0  0  0  0  0  0  0  0  0  0
    4.1061   16.9486    3.7855 H   0  0  0  0  0  0  0  0  0  0  0  0
    1.1341   17.5348    3.3476 H   0  0  0  0  0  0  0  0  0  0  0  0
    2.4129   18.7045    3.8320 H   0  0  0  0  0  0  0  0  0  0  0  0
    1.5068   16.4307    7.7502 H   0  0  0  0  0  0  0  0  0  0  0  0
    0.1701   17.5230    9.4539 H   0  0  0  0  0  0  0  0  0  0  0  0
   -1.0464   19.6203    8.9195 H   0  0  0  0  0  0  0  0  0  0  0  0
   -0.8229   20.6500    6.6739 H   0  0  0  0  0  0  0  0  0  0  0  0
    0.6228   19.6121    4.9699 H   0  0  0  0  0  0  0  0  0  0  0  0
    1.3904   10.8964    4.9409 H   0  0  0  0  0  0  0  0  0  0  0  0
    9.0548    1.7651    5.3923 H   0  0  0  0  0  0  0  0  0  0  0  0
    8.4498    0.8073    4.0164 H   0  0  0  0  0  0  0  0  0  0  0  0
  1  2  1  0  0  0  0
  1 43  1  0  0  0  0
  1 44  1  0  0  0  0
  1 45  1  0  0  0  0
  2  3  1  0  0  0  0
  3 46  1  0  0  0  0
  3 47  1  0  0  0  0
  3 48  1  0  0  0  0
  4  5  1  0  0  0  0
  4 42  1  0  0  0  0
  4  2  1  0  0  0  0
  4 49  1  6  0  0  0
  5  6  1  0  0  0  0
  5 50  1  0  0  0  0
  5 51  1  0  0  0  0
  6  7  1  0  0  0  0
  6 52  1  0  0  0  0
  6 53  1  0  0  0  0
  7  8  1  0  0  0  0
  7 42  1  0  0  0  0
  8  9  2  0  0  0  0
  8 10  1  0  0  0  0
 10 11  2  0  0  0  0
 10 41  1  0  0  0  0
 11 12  1  0  0  0  0
 11 54  1  0  0  0  0
 12 13  1  0  0  0  0
 12 40  2  0  0  0  0
 13 14  2  0  0  0  0
 14 15  1  0  0  0  0
 14 55  1  0  0  0  0
 15 16  2  0  0  0  0
 15 56  1  0  0  0  0
 16 17  1  0  0  0  0
 16 40  1  0  0  0  0
 17 18  1  0  0  0  0
 18 19  1  0  0  0  0
 18 38  2  0  0  0  0
 19 20  2  0  0  0  0
 19 57  1  0  0  0  0
 20 21  1  0  0  0  0
 20 58  1  0  0  0  0
 21 22  1  0  0  0  0
 21 37  2  0  0  0  0
 22 23  1  0  0  0  0
 22 59  1  0  0  0  0
 23 24  2  0  0  0  0
 23 25  1  0  0  0  0
 25 26  1  0  0  0  0
 25 35  1  0  0  0  0
 26 27  1  0  0  0  0
 26 60  1  0  0  0  0
 26 61  1  0  0  0  0
 27 28  1  0  0  0  0
 27 62  1  0  0  0  0
 27 63  1  0  0  0  0
 28 29  1  0  0  0  0
 28 35  1  0  0  0  0
 29 30  1  0  0  0  0
 29 34  2  0  0  0  0
 30 31  2  0  0  0  0
 30 64  1  0  0  0  0
 31 32  1  0  0  0  0
 31 65  1  0  0  0  0
 32 33  2  0  0  0  0
 32 66  1  0  0  0  0
 33 34  1  0  0  0  0
 33 67  1  0  0  0  0
 34 68  1  0  0  0  0
 35 36  2  0  0  0  0
 37 38  1  0  0  0  0
 37 69  1  0  0  0  0
 38 39  1  0  0  0  0
 40 41  1  0  0  0  0
 42 70  1  0  0  0  0
 42 71  1  0  0  0  0
M  END
$$$$
