CHEMBL201307
 OpenBabel04072215363D

 74 78  0  0  0  0  0  0  0  0999 V2000
    2.6497    0.7573   -1.0254 C   0  0  0  0  0  0  0  0  0  0  0  0
    2.4524   -0.2319   -0.0242 O   0  0  0  0  0  0  0  0  0  0  0  0
    3.2232   -0.2080    1.1062 C   0  0  0  0  0  0  0  0  0  0  0  0
    4.3638    0.5830    1.2276 C   0  0  0  0  0  0  0  0  0  0  0  0
    5.0559    0.6767    2.4580 C   0  0  0  0  0  0  0  0  0  0  0  0
    6.1612    1.5200    2.6753 C   0  0  0  0  0  0  0  0  0  0  0  0
    6.6194    2.3543    1.6273 N   0  0  0  0  0  0  0  0  0  0  0  0
    7.3644    3.4618    1.8534 C   0  0  0  0  0  0  0  0  0  0  0  0
    8.3661    3.8270    1.0732 N   0  0  0  0  0  0  0  0  0  0  0  0
    9.0511    4.8839    1.6466 C   0  0  0  0  0  0  0  0  0  0  0  0
    8.5333    5.3558    2.8377 C   0  0  0  0  0  0  0  0  0  0  0  0
    9.0847    6.3196    3.8259 C   0  0  0  0  0  0  0  0  0  0  0  0
    9.3570    7.6829    3.2297 C   0  0  0  0  0  0  0  0  0  0  0  0
   10.3987    8.2794    3.5011 O   0  0  0  0  0  0  0  0  0  0  0  0
    8.3125    8.2223    2.4979 N   0  0  0  0  0  0  0  0  0  0  0  0
    8.3873    9.4896    1.8943 C   0  0  0  0  0  0  0  0  0  0  0  0
    7.2678   10.3238    1.9642 C   0  0  0  0  0  0  0  0  0  0  0  0
    7.3133   11.6064    1.4117 C   0  0  0  0  0  0  0  0  0  0  0  0
    8.4550   12.0311    0.7348 C   0  0  0  0  0  0  0  0  0  0  0  0
    9.5500   11.1799    0.6364 C   0  0  0  0  0  0  0  0  0  0  0  0
   10.6330   11.5782   -0.0445 F   0  0  0  0  0  0  0  0  0  0  0  0
    9.5352    9.9214    1.2257 C   0  0  0  0  0  0  0  0  0  0  0  0
    7.0375    4.5806    3.1315 S   0  0  0  0  0  0  0  0  0  0  0  0
    6.7738    1.5708    3.8712 N   0  0  0  0  0  0  0  0  0  0  0  0
    6.2755    0.8205    4.8529 C   0  0  0  0  0  0  0  0  0  0  0  0
    5.2163    0.0073    4.7574 N   0  0  0  0  0  0  0  0  0  0  0  0
    4.6195   -0.0513    3.5626 C   0  0  0  0  0  0  0  0  0  0  0  0
    3.5247   -0.8890    3.4175 C   0  0  0  0  0  0  0  0  0  0  0  0
    2.8430   -1.0082    2.1940 C   0  0  0  0  0  0  0  0  0  0  0  0
    1.8398   -1.9454    2.2174 O   0  0  0  0  0  0  0  0  0  0  0  0
    1.5867   -2.5585    0.9579 C   0  0  0  0  0  0  0  0  0  0  0  0
    1.0827   -3.9878    1.1212 C   0  0  0  0  0  0  0  0  0  0  0  0
    0.8770   -4.5585   -0.2890 C   0  0  0  0  0  0  0  0  0  0  0  0
    0.4825   -5.9699   -0.3310 N   0  0  0  0  0  0  0  0  0  0  0  0
   -0.8305   -6.1916    0.2866 C   0  0  0  0  0  0  0  0  0  0  0  0
   -1.1809   -7.6776    0.2783 C   0  0  0  0  0  0  0  0  0  0  0  0
   -1.1637   -8.2685   -1.1381 C   0  0  0  0  0  0  0  0  0  0  0  0
   -2.3532   -7.7925   -1.9828 C   0  0  0  0  0  0  0  0  0  0  0  0
   -3.5836   -8.1468   -1.3658 O   0  0  0  0  0  0  0  0  0  0  0  0
    0.1679   -7.9269   -1.8139 C   0  0  0  0  0  0  0  0  0  0  0  0
    0.4968   -6.4394   -1.7276 C   0  0  0  0  0  0  0  0  0  0  0  0
    3.3523    0.3823   -1.7758 H   0  0  0  0  0  0  0  0  0  0  0  0
    2.9796    1.7232   -0.6321 H   0  0  0  0  0  0  0  0  0  0  0  0
    1.6865    0.9307   -1.5135 H   0  0  0  0  0  0  0  0  0  0  0  0
    4.7327    1.1519    0.3825 H   0  0  0  0  0  0  0  0  0  0  0  0
    6.9602    1.7914    0.8527 H   0  0  0  0  0  0  0  0  0  0  0  0
    9.9611    5.2378    1.1733 H   0  0  0  0  0  0  0  0  0  0  0  0
   10.0348    5.9178    4.1977 H   0  0  0  0  0  0  0  0  0  0  0  0
    8.4257    6.4488    4.6908 H   0  0  0  0  0  0  0  0  0  0  0  0
    7.3894    7.8366    2.6594 H   0  0  0  0  0  0  0  0  0  0  0  0
    6.3773   10.0120    2.5038 H   0  0  0  0  0  0  0  0  0  0  0  0
    6.4627   12.2744    1.5173 H   0  0  0  0  0  0  0  0  0  0  0  0
    8.5013   13.0176    0.2851 H   0  0  0  0  0  0  0  0  0  0  0  0
   10.4103    9.2865    1.1287 H   0  0  0  0  0  0  0  0  0  0  0  0
    6.7686    0.8735    5.8164 H   0  0  0  0  0  0  0  0  0  0  0  0
    3.1860   -1.4705    4.2674 H   0  0  0  0  0  0  0  0  0  0  0  0
    2.5028   -2.6140    0.3552 H   0  0  0  0  0  0  0  0  0  0  0  0
    0.8207   -1.9735    0.4362 H   0  0  0  0  0  0  0  0  0  0  0  0
    0.1590   -3.9810    1.7058 H   0  0  0  0  0  0  0  0  0  0  0  0
    1.8096   -4.5835    1.6823 H   0  0  0  0  0  0  0  0  0  0  0  0
    1.8310   -4.4562   -0.8230 H   0  0  0  0  0  0  0  0  0  0  0  0
    0.1468   -3.9407   -0.8326 H   0  0  0  0  0  0  0  0  0  0  0  0
   -1.6092   -5.6052   -0.2186 H   0  0  0  0  0  0  0  0  0  0  0  0
   -0.8216   -5.8735    1.3350 H   0  0  0  0  0  0  0  0  0  0  0  0
   -2.1563   -7.8293    0.7558 H   0  0  0  0  0  0  0  0  0  0  0  0
   -0.4502   -8.2157    0.8954 H   0  0  0  0  0  0  0  0  0  0  0  0
   -1.2422   -9.3598   -1.0398 H   0  0  0  0  0  0  0  0  0  0  0  0
   -2.3279   -8.2530   -2.9739 H   0  0  0  0  0  0  0  0  0  0  0  0
   -2.3561   -6.7096   -2.1229 H   0  0  0  0  0  0  0  0  0  0  0  0
   -3.5788   -9.1103   -1.2332 H   0  0  0  0  0  0  0  0  0  0  0  0
    0.1601   -8.2459   -2.8634 H   0  0  0  0  0  0  0  0  0  0  0  0
    0.9735   -8.4963   -1.3242 H   0  0  0  0  0  0  0  0  0  0  0  0
   -0.2030   -5.8594   -2.3426 H   0  0  0  0  0  0  0  0  0  0  0  0
    1.4954   -6.2894   -2.1622 H   0  0  0  0  0  0  0  0  0  0  0  0
  1  2  1  0  0  0  0
  1 42  1  0  0  0  0
  1 43  1  0  0  0  0
  1 44  1  0  0  0  0
  2  3  1  0  0  0  0
  3  4  1  0  0  0  0
  3 29  2  0  0  0  0
  4  5  2  0  0  0  0
  4 45  1  0  0  0  0
  5  6  1  0  0  0  0
  5 27  1  0  0  0  0
  6  7  1  0  0  0  0
  6 24  2  0  0  0  0
  7  8  1  0  0  0  0
  7 46  1  0  0  0  0
  8  9  2  0  0  0  0
  8 23  1  0  0  0  0
  9 10  1  0  0  0  0
 10 11  2  0  0  0  0
 10 47  1  0  0  0  0
 11 12  1  0  0  0  0
 11 23  1  0  0  0  0
 12 13  1  0  0  0  0
 12 48  1  0  0  0  0
 12 49  1  0  0  0  0
 13 14  2  0  0  0  0
 13 15  1  0  0  0  0
 15 16  1  0  0  0  0
 15 50  1  0  0  0  0
 16 17  1  0  0  0  0
 16 22  2  0  0  0  0
 17 18  2  0  0  0  0
 17 51  1  0  0  0  0
 18 19  1  0  0  0  0
 18 52  1  0  0  0  0
 19 20  2  0  0  0  0
 19 53  1  0  0  0  0
 20 21  1  0  0  0  0
 20 22  1  0  0  0  0
 22 54  1  0  0  0  0
 24 25  1  0  0  0  0
 25 26  2  0  0  0  0
 25 55  1  0  0  0  0
 26 27  1  0  0  0  0
 27 28  2  0  0  0  0
 28 29  1  0  0  0  0
 28 56  1  0  0  0  0
 29 30  1  0  0  0  0
 30 31  1  0  0  0  0
 31 32  1  0  0  0  0
 31 57  1  0  0  0  0
 31 58  1  0  0  0  0
 32 33  1  0  0  0  0
 32 59  1  0  0  0  0
 32 60  1  0  0  0  0
 33 34  1  0  0  0  0
 33 61  1  0  0  0  0
 33 62  1  0  0  0  0
 34 35  1  0  0  0  0
 34 41  1  0  0  0  0
 35 36  1  0  0  0  0
 35 63  1  0  0  0  0
 35 64  1  0  0  0  0
 36 37  1  0  0  0  0
 36 65  1  0  0  0  0
 36 66  1  0  0  0  0
 37 38  1  0  0  0  0
 37 40  1  0  0  0  0
 37 67  1  0  0  0  0
 38 39  1  0  0  0  0
 38 68  1  0  0  0  0
 38 69  1  0  0  0  0
 39 70  1  0  0  0  0
 40 41  1  0  0  0  0
 40 71  1  0  0  0  0
 40 72  1  0  0  0  0
 41 73  1  0  0  0  0
 41 74  1  0  0  0  0
M  END
$$$$
