CHEMBL98538
 OpenBabel04072215383D

 29 31  0  0  0  0  0  0  0  0999 V2000
    1.3931   -0.1791   -0.0107 C   0  0  0  0  0  0  0  0  0  0  0  0
    0.5032   -1.1221    0.4942 C   0  0  0  0  0  0  0  0  0  0  0  0
   -0.8723   -0.8920    0.4155 C   0  0  0  0  0  0  0  0  0  0  0  0
   -1.3768    0.2835   -0.1655 C   0  0  0  0  0  0  0  0  0  0  0  0
   -2.8233    0.5173   -0.1900 C   0  0  0  0  0  0  0  0  0  0  0  0
   -3.7730    0.1184    0.7276 C   0  0  0  0  0  0  0  0  0  0  0  0
   -5.0699    0.4535    0.4360 N   0  0  0  0  0  0  0  0  0  0  0  0
   -5.1471    1.0862   -0.7136 C   0  0  0  0  0  0  0  0  0  0  0  0
   -6.2852    1.4865   -1.3242 N   0  0  0  0  0  0  0  0  0  0  0  0
   -7.5500    0.9236   -1.1256 C   0  0  0  0  0  0  0  0  0  0  0  0
   -7.9340    0.2890    0.0562 C   0  0  0  0  0  0  0  0  0  0  0  0
   -9.1658   -0.3478    0.1382 C   0  0  0  0  0  0  0  0  0  0  0  0
  -10.0154   -0.3071   -0.9530 C   0  0  0  0  0  0  0  0  0  0  0  0
   -9.5950    0.3894   -2.0716 C   0  0  0  0  0  0  0  0  0  0  0  0
   -8.3915    1.0013   -2.1795 N   0  0  0  0  0  0  0  0  0  0  0  0
   -3.6146    1.3633   -1.4613 S   0  0  0  0  0  0  0  0  0  0  0  0
   -0.4664    1.2205   -0.6714 C   0  0  0  0  0  0  0  0  0  0  0  0
    0.9092    0.9886   -0.5952 C   0  0  0  0  0  0  0  0  0  0  0  0
    2.4636   -0.3526    0.0527 H   0  0  0  0  0  0  0  0  0  0  0  0
    0.8754   -2.0338    0.9532 H   0  0  0  0  0  0  0  0  0  0  0  0
   -1.5449   -1.6497    0.8122 H   0  0  0  0  0  0  0  0  0  0  0  0
   -3.5737   -0.4290    1.6403 H   0  0  0  0  0  0  0  0  0  0  0  0
   -6.2295    1.8434   -2.2698 H   0  0  0  0  0  0  0  0  0  0  0  0
   -7.2818    0.2644    0.9234 H   0  0  0  0  0  0  0  0  0  0  0  0
   -9.4412   -0.8773    1.0448 H   0  0  0  0  0  0  0  0  0  0  0  0
  -10.9790   -0.8014   -0.9295 H   0  0  0  0  0  0  0  0  0  0  0  0
  -10.2319    0.4691   -2.9475 H   0  0  0  0  0  0  0  0  0  0  0  0
   -0.8117    2.1517   -1.1144 H   0  0  0  0  0  0  0  0  0  0  0  0
    1.6033    1.7279   -0.9863 H   0  0  0  0  0  0  0  0  0  0  0  0
  1  2  1  0  0  0  0
  1 18  2  0  0  0  0
  1 19  1  0  0  0  0
  2  3  2  0  0  0  0
  2 20  1  0  0  0  0
  3  4  1  0  0  0  0
  3 21  1  0  0  0  0
  4  5  1  0  0  0  0
  4 17  2  0  0  0  0
  5  6  2  0  0  0  0
  5 16  1  0  0  0  0
  6  7  1  0  0  0  0
  6 22  1  0  0  0  0
  7  8  2  0  0  0  0
  8  9  1  0  0  0  0
  8 16  1  0  0  0  0
  9 10  1  0  0  0  0
  9 23  1  0  0  0  0
 10 11  1  0  0  0  0
 10 15  2  0  0  0  0
 11 12  2  0  0  0  0
 11 24  1  0  0  0  0
 12 13  1  0  0  0  0
 12 25  1  0  0  0  0
 13 14  2  0  0  0  0
 13 26  1  0  0  0  0
 14 15  1  0  0  0  0
 14 27  1  0  0  0  0
 17 18  1  0  0  0  0
 17 28  1  0  0  0  0
 18 29  1  0  0  0  0
M  END
$$$$
