CHEMBL1761932
 OpenBabel04072215363D

 46 48  0  0  0  0  0  0  0  0999 V2000
    2.2904    0.1938   -1.5473 C   0  0  0  0  0  0  0  0  0  0  0  0
    2.4671    0.6657   -0.1143 C   0  0  0  0  0  0  0  0  0  0  0  0
    3.2030    1.9016   -0.1298 O   0  0  0  0  0  0  0  0  0  0  0  0
    4.5543    1.7308   -0.1292 C   0  0  0  0  0  0  0  0  0  0  0  0
    5.0931    0.6577    0.0897 O   0  0  0  0  0  0  0  0  0  0  0  0
    5.1669    2.9176   -0.4373 N   0  0  0  0  0  0  0  0  0  0  0  0
    6.5432    3.0951   -0.6740 C   0  0  0  0  0  0  0  0  0  0  0  0
    7.4278    2.0252   -0.8298 C   0  0  0  0  0  0  0  0  0  0  0  0
    8.8001    2.2368   -0.9978 C   0  0  0  0  0  0  0  0  0  0  0  0
    9.3068    3.5291   -1.0644 C   0  0  0  0  0  0  0  0  0  0  0  0
   10.6327    3.8812   -1.1394 O   0  0  0  0  0  0  0  0  0  0  0  0
   11.5922    3.0842   -1.7641 C   0  0  0  0  0  0  0  0  0  0  0  0
   11.2244    1.9895   -2.4552 N   0  0  0  0  0  0  0  0  0  0  0  0
   12.2174    1.3008   -3.0205 C   0  0  0  0  0  0  0  0  0  0  0  0
   13.5164    1.6203   -2.9874 N   0  0  0  0  0  0  0  0  0  0  0  0
   13.8521    2.7250   -2.3145 C   0  0  0  0  0  0  0  0  0  0  0  0
   15.1909    3.0865   -2.2702 C   0  0  0  0  0  0  0  0  0  0  0  0
   15.6538    4.2137   -1.5725 C   0  0  0  0  0  0  0  0  0  0  0  0
   16.9789    4.5577   -1.5256 O   0  0  0  0  0  0  0  0  0  0  0  0
   17.9240    3.6635   -2.1024 C   0  0  0  0  0  0  0  0  0  0  0  0
   14.7214    5.0223   -0.9070 C   0  0  0  0  0  0  0  0  0  0  0  0
   14.9391    6.1602   -0.1760 O   0  0  0  0  0  0  0  0  0  0  0  0
   16.2750    6.5789    0.0633 C   0  0  0  0  0  0  0  0  0  0  0  0
   13.3634    4.6755   -0.9615 C   0  0  0  0  0  0  0  0  0  0  0  0
   12.9196    3.5247   -1.6562 C   0  0  0  0  0  0  0  0  0  0  0  0
    8.4189    4.6048   -0.9393 C   0  0  0  0  0  0  0  0  0  0  0  0
    7.0448    4.3939   -0.7584 C   0  0  0  0  0  0  0  0  0  0  0  0
    1.7538   -0.7571   -1.5892 H   0  0  0  0  0  0  0  0  0  0  0  0
    3.2601    0.0715   -2.0427 H   0  0  0  0  0  0  0  0  0  0  0  0
    1.7366    0.9421   -2.1236 H   0  0  0  0  0  0  0  0  0  0  0  0
    2.9589   -0.1033    0.4950 H   0  0  0  0  0  0  0  0  0  0  0  0
    1.4935    0.8565    0.3471 H   0  0  0  0  0  0  0  0  0  0  0  0
    4.5537    3.7201   -0.4657 H   0  0  0  0  0  0  0  0  0  0  0  0
    7.0862    0.9945   -0.8269 H   0  0  0  0  0  0  0  0  0  0  0  0
    9.4386    1.3620   -1.0586 H   0  0  0  0  0  0  0  0  0  0  0  0
   11.9519    0.3939   -3.5528 H   0  0  0  0  0  0  0  0  0  0  0  0
   15.8761    2.4433   -2.8142 H   0  0  0  0  0  0  0  0  0  0  0  0
   18.9246    4.0634   -1.9135 H   0  0  0  0  0  0  0  0  0  0  0  0
   17.7910    3.6019   -3.1874 H   0  0  0  0  0  0  0  0  0  0  0  0
   17.8697    2.6731   -1.6374 H   0  0  0  0  0  0  0  0  0  0  0  0
   16.2367    7.4474    0.7288 H   0  0  0  0  0  0  0  0  0  0  0  0
   16.7572    6.9048   -0.8635 H   0  0  0  0  0  0  0  0  0  0  0  0
   16.8528    5.8056    0.5797 H   0  0  0  0  0  0  0  0  0  0  0  0
   12.6406    5.3118   -0.4522 H   0  0  0  0  0  0  0  0  0  0  0  0
    8.8043    5.6214   -0.9645 H   0  0  0  0  0  0  0  0  0  0  0  0
    6.3922    5.2556   -0.6511 H   0  0  0  0  0  0  0  0  0  0  0  0
  1  2  1  0  0  0  0
  1 28  1  0  0  0  0
  1 29  1  0  0  0  0
  1 30  1  0  0  0  0
  2  3  1  0  0  0  0
  2 31  1  0  0  0  0
  2 32  1  0  0  0  0
  3  4  1  0  0  0  0
  4  5  2  0  0  0  0
  4  6  1  0  0  0  0
  6  7  1  0  0  0  0
  6 33  1  0  0  0  0
  7  8  1  0  0  0  0
  7 27  2  0  0  0  0
  8  9  2  0  0  0  0
  8 34  1  0  0  0  0
  9 10  1  0  0  0  0
  9 35  1  0  0  0  0
 10 11  1  0  0  0  0
 10 26  2  0  0  0  0
 11 12  1  0  0  0  0
 12 13  1  0  0  0  0
 12 25  2  0  0  0  0
 13 14  2  0  0  0  0
 14 15  1  0  0  0  0
 14 36  1  0  0  0  0
 15 16  2  0  0  0  0
 16 17  1  0  0  0  0
 16 25  1  0  0  0  0
 17 18  2  0  0  0  0
 17 37  1  0  0  0  0
 18 19  1  0  0  0  0
 18 21  1  0  0  0  0
 19 20  1  0  0  0  0
 20 38  1  0  0  0  0
 20 39  1  0  0  0  0
 20 40  1  0  0  0  0
 21 22  1  0  0  0  0
 21 24  2  0  0  0  0
 22 23  1  0  0  0  0
 23 41  1  0  0  0  0
 23 42  1  0  0  0  0
 23 43  1  0  0  0  0
 24 25  1  0  0  0  0
 24 44  1  0  0  0  0
 26 27  1  0  0  0  0
 26 45  1  0  0  0  0
 27 46  1  0  0  0  0
M  END
$$$$
