CHEMBL330608
 OpenBabel04072215363D

 64 66  0  0  1  0  0  0  0  0999 V2000
    0.6696   -0.1388   -1.4541 C   0  0  0  0  0  0  0  0  0  0  0  0
    2.1732   -0.1914   -1.3004 C   0  0  0  0  0  0  0  0  0  0  0  0
    2.7525   -1.3700   -1.6509 C   0  0  0  0  0  0  0  0  0  0  0  0
    2.6420   -2.4392   -0.5791 C   0  0  0  0  0  0  0  0  0  0  0  0
    3.2106   -1.9127    0.7569 C   0  0  0  0  0  0  0  0  0  0  0  0
    2.6781   -0.4969    1.0900 C   0  0  2  0  0  0  0  0  0  0  0  0
    2.8371    0.5635   -0.0973 C   0  0  1  0  0  0  0  0  0  0  0  0
    4.2861    0.8837   -0.5847 C   0  0  0  0  0  0  0  0  0  0  0  0
    2.2308    1.9825    0.2691 C   0  0  0  0  0  0  0  0  0  0  0  0
    2.1264    2.3809    1.7663 C   0  0  0  0  0  0  0  0  0  0  0  0
    1.8326    1.1949    2.7030 C   0  0  1  0  0  0  0  0  0  0  0  0
    0.3532    0.8287    2.3848 C   0  0  0  0  0  0  0  0  0  0  0  0
    2.9552    0.0839    2.5088 C   0  0  2  0  0  0  0  0  0  0  0  0
    4.3820    0.7279    2.5815 C   0  0  0  0  0  0  0  0  0  0  0  0
    3.0861   -0.9646    3.7023 C   0  0  0  0  0  0  0  0  0  0  0  0
    2.0758   -2.0363    4.0050 C   0  0  0  0  0  0  0  0  0  0  0  0
    2.2487   -3.3621    3.9121 C   0  0  0  0  0  0  0  0  0  0  0  0
    3.4455   -3.9878    3.6094 O   0  0  0  0  0  0  0  0  0  0  0  0
    1.1497   -4.2969    4.0071 C   0  0  0  0  0  0  0  0  0  0  0  0
    1.3995   -5.5702    3.5485 O   0  0  0  0  0  0  0  0  0  0  0  0
   -0.0563   -3.9633    4.4504 C   0  0  0  0  0  0  0  0  0  0  0  0
   -0.2496   -2.6033    5.0284 C   0  0  0  0  0  0  0  0  0  0  0  0
   -1.1800   -2.1864    5.8039 N   0  0  0  0  0  0  0  0  0  0  0  0
   -2.2178   -3.1276    6.2592 C   0  0  1  0  0  0  0  0  0  0  0  0
   -2.5629   -2.8040    7.7146 C   0  0  0  0  0  0  0  0  0  0  0  0
   -2.9451   -1.4392    7.8815 O   0  0  0  0  0  0  0  0  0  0  0  0
   -3.4349   -2.9425    5.3694 C   0  0  0  0  0  0  0  0  0  0  0  0
   -4.2841   -3.8101    5.1784 O   0  0  0  0  0  0  0  0  0  0  0  0
   -3.4605   -1.7312    4.7633 O   0  0  0  0  0  0  0  0  0  0  0  0
    0.8316   -1.5791    4.6748 C   0  0  0  0  0  0  0  0  0  0  0  0
    0.6845   -0.4232    5.0495 O   0  0  0  0  0  0  0  0  0  0  0  0
    0.2999   -1.0087   -2.0129 H   0  0  0  0  0  0  0  0  0  0  0  0
    0.3733    0.7527   -2.0109 H   0  0  0  0  0  0  0  0  0  0  0  0
    0.1502   -0.1554   -0.4960 H   0  0  0  0  0  0  0  0  0  0  0  0
    3.8130   -1.3607   -1.9148 H   0  0  0  0  0  0  0  0  0  0  0  0
    3.1729   -3.3483   -0.8809 H   0  0  0  0  0  0  0  0  0  0  0  0
    1.5868   -2.7246   -0.4586 H   0  0  0  0  0  0  0  0  0  0  0  0
    4.3027   -1.9431    0.7663 H   0  0  0  0  0  0  0  0  0  0  0  0
    2.8631   -2.6231    1.5058 H   0  0  0  0  0  0  0  0  0  0  0  0
    1.6060   -0.7256    1.1229 H   0  0  0  0  0  0  0  0  0  0  0  0
    4.8959    0.0056   -0.8059 H   0  0  0  0  0  0  0  0  0  0  0  0
    4.8676    1.4951    0.1032 H   0  0  0  0  0  0  0  0  0  0  0  0
    4.2309    1.4807   -1.5087 H   0  0  0  0  0  0  0  0  0  0  0  0
    1.2435    2.1079   -0.1849 H   0  0  0  0  0  0  0  0  0  0  0  0
    2.8325    2.7773   -0.1965 H   0  0  0  0  0  0  0  0  0  0  0  0
    1.3382    3.1397    1.8747 H   0  0  0  0  0  0  0  0  0  0  0  0
    3.0249    2.9105    2.1006 H   0  0  0  0  0  0  0  0  0  0  0  0
    1.8652    1.5387    3.7436 H   0  0  0  0  0  0  0  0  0  0  0  0
    0.1358    0.8763    1.3143 H   0  0  0  0  0  0  0  0  0  0  0  0
   -0.3227    1.5695    2.8282 H   0  0  0  0  0  0  0  0  0  0  0  0
    0.0415   -0.1615    2.7087 H   0  0  0  0  0  0  0  0  0  0  0  0
    4.5147    1.6265    1.9894 H   0  0  0  0  0  0  0  0  0  0  0  0
    5.1473    0.0154    2.2514 H   0  0  0  0  0  0  0  0  0  0  0  0
    4.6266    1.0336    3.6057 H   0  0  0  0  0  0  0  0  0  0  0  0
    4.0491   -1.4758    3.5500 H   0  0  0  0  0  0  0  0  0  0  0  0
    3.2361   -0.3986    4.6284 H   0  0  0  0  0  0  0  0  0  0  0  0
    4.1823   -3.4296    3.9308 H   0  0  0  0  0  0  0  0  0  0  0  0
    2.3528   -5.5815    3.3074 H   0  0  0  0  0  0  0  0  0  0  0  0
   -0.8667   -4.6802    4.4462 H   0  0  0  0  0  0  0  0  0  0  0  0
   -1.8976   -4.1665    6.2113 H   0  0  0  0  0  0  0  0  0  0  0  0
   -1.6896   -2.9754    8.3560 H   0  0  0  0  0  0  0  0  0  0  0  0
   -3.3786   -3.4399    8.0711 H   0  0  0  0  0  0  0  0  0  0  0  0
   -2.1667   -0.9027    7.6418 H   0  0  0  0  0  0  0  0  0  0  0  0
   -2.6766   -1.2137    5.0763 H   0  0  0  0  0  0  0  0  0  0  0  0
  1  2  1  0  0  0  0
  1 32  1  0  0  0  0
  1 33  1  0  0  0  0
  1 34  1  0  0  0  0
  2  3  2  3  0  0  0
  2  7  1  0  0  0  0
  3  4  1  0  0  0  0
  3 35  1  0  0  0  0
  4  5  1  0  0  0  0
  4 36  1  0  0  0  0
  4 37  1  0  0  0  0
  5  6  1  0  0  0  0
  5 38  1  0  0  0  0
  5 39  1  0  0  0  0
  6  7  1  0  0  0  0
  6 13  1  0  0  0  0
  6 40  1  1  0  0  0
  7  9  1  0  0  0  0
  7  8  1  6  0  0  0
  8 41  1  0  0  0  0
  8 42  1  0  0  0  0
  8 43  1  0  0  0  0
  9 10  1  0  0  0  0
  9 44  1  0  0  0  0
  9 45  1  0  0  0  0
 10 11  1  0  0  0  0
 10 46  1  0  0  0  0
 10 47  1  0  0  0  0
 11 13  1  0  0  0  0
 11 12  1  0  0  0  0
 11 48  1  1  0  0  0
 12 49  1  0  0  0  0
 12 50  1  0  0  0  0
 12 51  1  0  0  0  0
 13 15  1  1  0  0  0
 13 14  1  0  0  0  0
 14 52  1  0  0  0  0
 14 53  1  0  0  0  0
 14 54  1  0  0  0  0
 15 16  1  0  0  0  0
 15 55  1  0  0  0  0
 15 56  1  0  0  0  0
 16 17  2  0  0  0  0
 16 30  1  0  0  0  0
 17 18  1  0  0  0  0
 17 19  1  0  0  0  0
 18 57  1  0  0  0  0
 19 20  1  0  0  0  0
 19 21  2  0  0  0  0
 20 58  1  0  0  0  0
 21 22  1  0  0  0  0
 21 59  1  0  0  0  0
 22 23  2  0  0  0  0
 22 30  1  0  0  0  0
 23 24  1  0  0  0  0
 24 25  1  0  0  0  0
 24 27  1  0  0  0  0
 24 60  1  6  0  0  0
 25 26  1  0  0  0  0
 25 61  1  0  0  0  0
 25 62  1  0  0  0  0
 26 63  1  0  0  0  0
 27 28  2  0  0  0  0
 27 29  1  0  0  0  0
 29 64  1  0  0  0  0
 30 31  2  0  0  0  0
M  END
$$$$
