CHEMBL3966821
 OpenBabel04072215373D

 62 67  0  0  0  0  0  0  0  0999 V2000
   -2.9689   -2.5426    0.5554 C   0  0  0  0  0  0  0  0  0  0  0  0
   -1.5414   -2.0881    0.6311 C   0  0  0  0  0  0  0  0  0  0  0  0
   -1.0842   -1.3672    1.7336 C   0  0  0  0  0  0  0  0  0  0  0  0
    0.2406   -0.9516    1.7427 C   0  0  0  0  0  0  0  0  0  0  0  0
    1.0668   -1.2502    0.6554 C   0  0  0  0  0  0  0  0  0  0  0  0
    2.4049   -0.8331    0.6185 C   0  0  0  0  0  0  0  0  0  0  0  0
    3.2263   -1.1226   -0.4750 C   0  0  0  0  0  0  0  0  0  0  0  0
    4.5717   -0.7062   -0.5617 N   0  0  0  0  0  0  0  0  0  0  0  0
    5.3226   -0.1810    0.4752 C   0  0  0  0  0  0  0  0  0  0  0  0
    4.9310   -0.0510    1.6353 O   0  0  0  0  0  0  0  0  0  0  0  0
    6.7235    0.2546    0.2076 C   0  0  0  0  0  0  0  0  0  0  0  0
    7.1864    1.2822    1.0584 C   0  0  0  0  0  0  0  0  0  0  0  0
    8.5213    1.6766    1.0623 C   0  0  0  0  0  0  0  0  0  0  0  0
    9.4196    1.0468    0.2139 C   0  0  0  0  0  0  0  0  0  0  0  0
    8.9687    0.0690   -0.6753 C   0  0  0  0  0  0  0  0  0  0  0  0
    7.6184   -0.3306   -0.7039 C   0  0  0  0  0  0  0  0  0  0  0  0
    7.1776   -1.4756   -1.9888 S   0  0  0  0  0  0  0  0  0  0  0  0
    7.3031   -3.1060   -1.2749 C   0  0  0  0  0  0  0  0  0  0  0  0
    7.8140   -3.4171   -0.0048 C   0  0  0  0  0  0  0  0  0  0  0  0
    7.9645   -4.7603    0.4214 C   0  0  0  0  0  0  0  0  0  0  0  0
    7.4648   -5.7841   -0.4036 C   0  0  0  0  0  0  0  0  0  0  0  0
    7.3526   -7.2193   -0.4639 C   0  0  0  0  0  0  0  0  0  0  0  0
    8.2258   -8.1468   -1.1934 C   0  0  0  0  0  0  0  0  0  0  0  0
    9.1927   -7.7354   -2.0438 C   0  0  0  0  0  0  0  0  0  0  0  0
    9.3382   -8.2856   -3.4159 C   0  0  0  0  0  0  0  0  0  0  0  0
    8.2105   -8.6360   -4.1873 C   0  0  0  0  0  0  0  0  0  0  0  0
    8.3167   -8.8670   -5.5643 C   0  0  0  0  0  0  0  0  0  0  0  0
    9.5512   -8.7541   -6.1912 C   0  0  0  0  0  0  0  0  0  0  0  0
   10.6792   -8.4215   -5.4433 C   0  0  0  0  0  0  0  0  0  0  0  0
   10.5725   -8.1869   -4.0648 C   0  0  0  0  0  0  0  0  0  0  0  0
    6.0585   -7.4341   -0.7948 N   0  0  0  0  0  0  0  0  0  0  0  0
    5.8627   -6.4543   -1.6960 N   0  0  0  0  0  0  0  0  0  0  0  0
    6.6978   -5.3845   -1.4929 C   0  0  0  0  0  0  0  0  0  0  0  0
    6.7520   -4.1234   -2.0647 C   0  0  0  0  0  0  0  0  0  0  0  0
    2.6881   -1.8441   -1.5395 C   0  0  0  0  0  0  0  0  0  0  0  0
    1.3506   -2.2699   -1.4949 C   0  0  0  0  0  0  0  0  0  0  0  0
    0.5237   -1.9799   -0.4200 C   0  0  0  0  0  0  0  0  0  0  0  0
   -0.7552   -2.3847   -0.4282 N   0  0  0  0  0  0  0  0  0  0  0  0
   -3.5024   -2.3720    1.4930 H   0  0  0  0  0  0  0  0  0  0  0  0
   -2.9985   -3.6123    0.3330 H   0  0  0  0  0  0  0  0  0  0  0  0
   -3.4801   -1.9979   -0.2418 H   0  0  0  0  0  0  0  0  0  0  0  0
   -1.7377   -1.1387    2.5707 H   0  0  0  0  0  0  0  0  0  0  0  0
    0.6218   -0.3949    2.5957 H   0  0  0  0  0  0  0  0  0  0  0  0
    2.7729   -0.2547    1.4586 H   0  0  0  0  0  0  0  0  0  0  0  0
    5.0504   -0.8695   -1.4409 H   0  0  0  0  0  0  0  0  0  0  0  0
    6.4960    1.7672    1.7492 H   0  0  0  0  0  0  0  0  0  0  0  0
    8.8545    2.4540    1.7447 H   0  0  0  0  0  0  0  0  0  0  0  0
   10.4714    1.3204    0.2366 H   0  0  0  0  0  0  0  0  0  0  0  0
    9.6916   -0.3895   -1.3483 H   0  0  0  0  0  0  0  0  0  0  0  0
    8.0918   -2.6270    0.6892 H   0  0  0  0  0  0  0  0  0  0  0  0
    8.3564   -4.9765    1.4128 H   0  0  0  0  0  0  0  0  0  0  0  0
    7.7549   -9.1136   -1.3726 H   0  0  0  0  0  0  0  0  0  0  0  0
    9.6618   -6.7686   -1.9118 H   0  0  0  0  0  0  0  0  0  0  0  0
    7.2189   -8.6710   -3.7405 H   0  0  0  0  0  0  0  0  0  0  0  0
    7.4286   -9.0977   -6.1484 H   0  0  0  0  0  0  0  0  0  0  0  0
    9.6334   -8.9022   -7.2670 H   0  0  0  0  0  0  0  0  0  0  0  0
   11.6403   -8.3081   -5.9383 H   0  0  0  0  0  0  0  0  0  0  0  0
   11.4580   -7.8817   -3.5149 H   0  0  0  0  0  0  0  0  0  0  0  0
    5.0721   -6.5118   -2.3076 H   0  0  0  0  0  0  0  0  0  0  0  0
    6.2856   -3.9210   -3.0242 H   0  0  0  0  0  0  0  0  0  0  0  0
    3.2879   -2.1007   -2.4064 H   0  0  0  0  0  0  0  0  0  0  0  0
    0.9407   -2.8395   -2.3244 H   0  0  0  0  0  0  0  0  0  0  0  0
  1  2  1  0  0  0  0
  1 39  1  0  0  0  0
  1 40  1  0  0  0  0
  1 41  1  0  0  0  0
  2  3  1  0  0  0  0
  2 38  2  0  0  0  0
  3  4  2  0  0  0  0
  3 42  1  0  0  0  0
  4  5  1  0  0  0  0
  4 43  1  0  0  0  0
  5  6  1  0  0  0  0
  5 37  2  0  0  0  0
  6  7  2  0  0  0  0
  6 44  1  0  0  0  0
  7  8  1  0  0  0  0
  7 35  1  0  0  0  0
  8  9  1  0  0  0  0
  8 45  1  0  0  0  0
  9 10  2  0  0  0  0
  9 11  1  0  0  0  0
 11 12  1  0  0  0  0
 11 16  2  0  0  0  0
 12 13  2  0  0  0  0
 12 46  1  0  0  0  0
 13 14  1  0  0  0  0
 13 47  1  0  0  0  0
 14 15  2  0  0  0  0
 14 48  1  0  0  0  0
 15 16  1  0  0  0  0
 15 49  1  0  0  0  0
 16 17  1  0  0  0  0
 17 18  1  0  0  0  0
 18 19  1  0  0  0  0
 18 34  2  0  0  0  0
 19 20  2  0  0  0  0
 19 50  1  0  0  0  0
 20 21  1  0  0  0  0
 20 51  1  0  0  0  0
 21 22  1  0  0  0  0
 21 33  2  0  0  0  0
 22 23  1  0  0  0  0
 22 31  2  0  0  0  0
 23 24  2  0  0  0  0
 23 52  1  0  0  0  0
 24 25  1  0  0  0  0
 24 53  1  0  0  0  0
 25 26  1  0  0  0  0
 25 30  2  0  0  0  0
 26 27  2  0  0  0  0
 26 54  1  0  0  0  0
 27 28  1  0  0  0  0
 27 55  1  0  0  0  0
 28 29  2  0  0  0  0
 28 56  1  0  0  0  0
 29 30  1  0  0  0  0
 29 57  1  0  0  0  0
 30 58  1  0  0  0  0
 31 32  1  0  0  0  0
 32 33  1  0  0  0  0
 32 59  1  0  0  0  0
 33 34  1  0  0  0  0
 34 60  1  0  0  0  0
 35 36  2  0  0  0  0
 35 61  1  0  0  0  0
 36 37  1  0  0  0  0
 36 62  1  0  0  0  0
 37 38  1  0  0  0  0
M  END
$$$$
