CHEMBL4590013
 OpenBabel04072215383D

 53 56  0  0  0  0  0  0  0  0999 V2000
   -2.3004   -6.2082    8.9120 C   0  0  0  0  0  0  0  0  0  0  0  0
   -1.1305   -7.0784    8.5346 C   0  0  0  0  0  0  0  0  0  0  0  0
   -1.1423   -8.2919    8.7278 O   0  0  0  0  0  0  0  0  0  0  0  0
    0.0608   -6.4378    7.9073 C   0  0  0  0  0  0  0  0  0  0  0  0
    0.1866   -5.0500    7.8025 C   0  0  0  0  0  0  0  0  0  0  0  0
    1.3462   -4.4889    7.2614 C   0  0  0  0  0  0  0  0  0  0  0  0
    2.3652   -5.2901    6.7503 C   0  0  0  0  0  0  0  0  0  0  0  0
    3.5494   -4.7457    6.2385 N   0  0  0  0  0  0  0  0  0  0  0  0
    4.2563   -3.6074    6.6657 C   0  0  0  0  0  0  0  0  0  0  0  0
    5.1519   -3.0309    5.7882 C   0  0  0  0  0  0  0  0  0  0  0  0
    5.7469   -1.8622    6.1957 C   0  0  0  0  0  0  0  0  0  0  0  0
    5.5216   -1.2978    7.3906 N   0  0  0  0  0  0  0  0  0  0  0  0
    4.6750   -1.9467    8.1996 C   0  0  0  0  0  0  0  0  0  0  0  0
    4.3951   -1.2429    9.8033 S   0  0  0  0  0  0  0  0  0  0  0  0
    4.0816   -2.7660   10.7562 C   0  0  0  0  0  0  0  0  0  0  0  0
    5.3079   -3.6668   10.7792 C   0  0  0  0  0  0  0  0  0  0  0  0
    6.3890   -3.2521   11.2022 O   0  0  0  0  0  0  0  0  0  0  0  0
    5.2235   -5.0823   10.3273 C   0  0  0  0  0  0  0  0  0  0  0  0
    4.0264   -5.7575   10.0553 C   0  0  0  0  0  0  0  0  0  0  0  0
    4.0573   -7.0934    9.6030 C   0  0  0  0  0  0  0  0  0  0  0  0
    5.2514   -7.7910    9.3629 C   0  0  0  0  0  0  0  0  0  0  0  0
    5.2941   -9.1594    8.7678 C   0  0  0  0  0  0  0  0  0  0  0  0
    4.3481   -9.5990    7.8217 C   0  0  0  0  0  0  0  0  0  0  0  0
    4.4609  -10.8273    7.1585 C   0  0  0  0  0  0  0  0  0  0  0  0
    5.5127  -11.6797    7.4599 C   0  0  0  0  0  0  0  0  0  0  0  0
    6.4356  -11.3057    8.4303 C   0  0  0  0  0  0  0  0  0  0  0  0
    6.3253  -10.0653    9.0747 C   0  0  0  0  0  0  0  0  0  0  0  0
    6.4336   -7.1031    9.6705 C   0  0  0  0  0  0  0  0  0  0  0  0
    6.4181   -5.7840   10.1547 C   0  0  0  0  0  0  0  0  0  0  0  0
    4.0108   -3.0671    7.8739 N   0  0  0  0  0  0  0  0  0  0  0  0
    2.2127   -6.6767    6.8197 C   0  0  0  0  0  0  0  0  0  0  0  0
    1.0863   -7.2524    7.4211 C   0  0  0  0  0  0  0  0  0  0  0  0
   -3.0862   -6.8266    9.3552 H   0  0  0  0  0  0  0  0  0  0  0  0
   -2.7072   -5.7255    8.0192 H   0  0  0  0  0  0  0  0  0  0  0  0
   -1.9985   -5.4635    9.6531 H   0  0  0  0  0  0  0  0  0  0  0  0
   -0.5924   -4.3748    8.1399 H   0  0  0  0  0  0  0  0  0  0  0  0
    1.4354   -3.4056    7.2074 H   0  0  0  0  0  0  0  0  0  0  0  0
    3.9764   -5.2705    5.4884 H   0  0  0  0  0  0  0  0  0  0  0  0
    5.3655   -3.4573    4.8182 H   0  0  0  0  0  0  0  0  0  0  0  0
    6.4387   -1.3300    5.5499 H   0  0  0  0  0  0  0  0  0  0  0  0
    3.1784   -3.2414   10.3752 H   0  0  0  0  0  0  0  0  0  0  0  0
    3.8695   -2.4764   11.7929 H   0  0  0  0  0  0  0  0  0  0  0  0
    3.0553   -5.2836   10.1509 H   0  0  0  0  0  0  0  0  0  0  0  0
    3.1025   -7.5851    9.4176 H   0  0  0  0  0  0  0  0  0  0  0  0
    3.5009   -8.9831    7.5642 H   0  0  0  0  0  0  0  0  0  0  0  0
    3.7284  -11.1108    6.4064 H   0  0  0  0  0  0  0  0  0  0  0  0
    5.6126  -12.6320    6.9447 H   0  0  0  0  0  0  0  0  0  0  0  0
    7.2525  -11.9735    8.6883 H   0  0  0  0  0  0  0  0  0  0  0  0
    7.0671   -9.8165    9.8284 H   0  0  0  0  0  0  0  0  0  0  0  0
    7.4040   -7.5643    9.5107 H   0  0  0  0  0  0  0  0  0  0  0  0
    7.3685   -5.3044   10.3904 H   0  0  0  0  0  0  0  0  0  0  0  0
    3.0085   -7.3145    6.4491 H   0  0  0  0  0  0  0  0  0  0  0  0
    1.0215   -8.3352    7.5255 H   0  0  0  0  0  0  0  0  0  0  0  0
  1  2  1  0  0  0  0
  1 33  1  0  0  0  0
  1 34  1  0  0  0  0
  1 35  1  0  0  0  0
  2  3  2  0  0  0  0
  2  4  1  0  0  0  0
  4  5  1  0  0  0  0
  4 32  2  0  0  0  0
  5  6  2  0  0  0  0
  5 36  1  0  0  0  0
  6  7  1  0  0  0  0
  6 37  1  0  0  0  0
  7  8  1  0  0  0  0
  7 31  2  0  0  0  0
  8  9  1  0  0  0  0
  8 38  1  0  0  0  0
  9 10  1  0  0  0  0
  9 30  2  0  0  0  0
 10 11  2  0  0  0  0
 10 39  1  0  0  0  0
 11 12  1  0  0  0  0
 11 40  1  0  0  0  0
 12 13  2  0  0  0  0
 13 14  1  0  0  0  0
 13 30  1  0  0  0  0
 14 15  1  0  0  0  0
 15 16  1  0  0  0  0
 15 41  1  0  0  0  0
 15 42  1  0  0  0  0
 16 17  2  0  0  0  0
 16 18  1  0  0  0  0
 18 19  1  0  0  0  0
 18 29  2  0  0  0  0
 19 20  2  0  0  0  0
 19 43  1  0  0  0  0
 20 21  1  0  0  0  0
 20 44  1  0  0  0  0
 21 22  1  0  0  0  0
 21 28  2  0  0  0  0
 22 23  1  0  0  0  0
 22 27  2  0  0  0  0
 23 24  2  0  0  0  0
 23 45  1  0  0  0  0
 24 25  1  0  0  0  0
 24 46  1  0  0  0  0
 25 26  2  0  0  0  0
 25 47  1  0  0  0  0
 26 27  1  0  0  0  0
 26 48  1  0  0  0  0
 27 49  1  0  0  0  0
 28 29  1  0  0  0  0
 28 50  1  0  0  0  0
 29 51  1  0  0  0  0
 31 32  1  0  0  0  0
 31 52  1  0  0  0  0
 32 53  1  0  0  0  0
M  END
$$$$
