CHEMBL3934487
 OpenBabel04072215373D

 66 71  0  0  0  0  0  0  0  0999 V2000
    0.7554   -3.1390    2.7008 C   0  0  0  0  0  0  0  0  0  0  0  0
    2.1105   -2.9927    3.1223 O   0  0  0  0  0  0  0  0  0  0  0  0
    3.0011   -2.4471    2.2173 C   0  0  0  0  0  0  0  0  0  0  0  0
    2.6726   -2.0599    0.9234 C   0  0  0  0  0  0  0  0  0  0  0  0
    3.6495   -1.4952    0.1063 C   0  0  0  0  0  0  0  0  0  0  0  0
    3.4579   -1.0205   -1.1644 O   0  0  0  0  0  0  0  0  0  0  0  0
    2.1723   -1.2113   -1.7408 C   0  0  0  0  0  0  0  0  0  0  0  0
    4.9560   -1.3355    0.5881 C   0  0  0  0  0  0  0  0  0  0  0  0
    5.3139   -1.6589    1.8992 C   0  0  0  0  0  0  0  0  0  0  0  0
    6.5434   -1.2815    2.4673 N   0  0  0  0  0  0  0  0  0  0  0  0
    7.0861    0.1115    2.2117 C   0  0  0  0  0  0  0  0  0  0  0  0
    6.2322    1.3020    1.7082 C   0  0  0  0  0  0  0  0  0  0  0  0
    5.3141    2.0234    2.6306 N   0  0  0  0  0  0  0  0  0  0  0  0
    4.6015    3.0868    1.8260 C   0  0  0  0  0  0  0  0  0  0  0  0
    5.6450    4.0712    2.2754 C   0  0  0  0  0  0  0  0  0  0  0  0
    6.7227    4.5337    1.3440 C   0  0  0  0  0  0  0  0  0  0  0  0
    6.1311    5.8651    1.3150 O   0  0  0  0  0  0  0  0  0  0  0  0
    5.2647    5.5041    2.4393 C   0  0  0  0  0  0  0  0  0  0  0  0
    5.9958    3.1346    3.3897 C   0  0  0  0  0  0  0  0  0  0  0  0
    7.6681   -2.1153    2.8459 C   0  0  0  0  0  0  0  0  0  0  0  0
    8.3620   -1.6925    3.9796 C   0  0  0  0  0  0  0  0  0  0  0  0
    9.6988   -1.9996    4.1439 C   0  0  0  0  0  0  0  0  0  0  0  0
   10.3433   -2.8404    3.2704 C   0  0  0  0  0  0  0  0  0  0  0  0
   11.6739   -2.8738    3.4640 N   0  0  0  0  0  0  0  0  0  0  0  0
   12.3515   -3.7761    2.7516 C   0  0  0  0  0  0  0  0  0  0  0  0
   11.7180   -4.6858    1.9262 C   0  0  0  0  0  0  0  0  0  0  0  0
   12.5320   -5.8144    1.4988 C   0  0  0  0  0  0  0  0  0  0  0  0
   12.7029   -7.0852    2.1163 C   0  0  0  0  0  0  0  0  0  0  0  0
   13.7301   -7.7795    1.6112 N   0  0  0  0  0  0  0  0  0  0  0  0
   14.2305   -6.9571    0.6741 N   0  0  0  0  0  0  0  0  0  0  0  0
   15.1837   -7.4441   -0.2956 C   0  0  0  0  0  0  0  0  0  0  0  0
   13.6585   -5.7139    0.6955 C   0  0  0  0  0  0  0  0  0  0  0  0
   10.3730   -4.5805    1.6415 N   0  0  0  0  0  0  0  0  0  0  0  0
    9.6480   -3.5788    2.2960 C   0  0  0  0  0  0  0  0  0  0  0  0
    8.2838   -3.1465    2.0742 C   0  0  0  0  0  0  0  0  0  0  0  0
    4.3149   -2.2547    2.6985 C   0  0  0  0  0  0  0  0  0  0  0  0
    0.1728   -3.5148    3.5483 H   0  0  0  0  0  0  0  0  0  0  0  0
    0.6762   -3.8717    1.8908 H   0  0  0  0  0  0  0  0  0  0  0  0
    0.3210   -2.1760    2.4072 H   0  0  0  0  0  0  0  0  0  0  0  0
    1.6620   -2.1778    0.5574 H   0  0  0  0  0  0  0  0  0  0  0  0
    2.1992   -0.8020   -2.7552 H   0  0  0  0  0  0  0  0  0  0  0  0
    1.3985   -0.6699   -1.1858 H   0  0  0  0  0  0  0  0  0  0  0  0
    1.9343   -2.2770   -1.8158 H   0  0  0  0  0  0  0  0  0  0  0  0
    5.6950   -0.9046   -0.0808 H   0  0  0  0  0  0  0  0  0  0  0  0
    7.8856   -0.0035    1.4641 H   0  0  0  0  0  0  0  0  0  0  0  0
    7.5696    0.4857    3.1223 H   0  0  0  0  0  0  0  0  0  0  0  0
    5.6702    1.0204    0.8203 H   0  0  0  0  0  0  0  0  0  0  0  0
    6.9822    2.0093    1.3342 H   0  0  0  0  0  0  0  0  0  0  0  0
    3.5983    3.2994    2.2232 H   0  0  0  0  0  0  0  0  0  0  0  0
    4.5052    2.9238    0.7516 H   0  0  0  0  0  0  0  0  0  0  0  0
    6.7599    4.0797    0.3510 H   0  0  0  0  0  0  0  0  0  0  0  0
    7.7329    4.5781    1.7675 H   0  0  0  0  0  0  0  0  0  0  0  0
    4.2253    5.7667    2.2216 H   0  0  0  0  0  0  0  0  0  0  0  0
    5.5971    6.0118    3.3485 H   0  0  0  0  0  0  0  0  0  0  0  0
    5.4784    3.3747    4.3320 H   0  0  0  0  0  0  0  0  0  0  0  0
    7.0542    2.9905    3.6202 H   0  0  0  0  0  0  0  0  0  0  0  0
    7.9054   -0.9926    4.6737 H   0  0  0  0  0  0  0  0  0  0  0  0
   10.2636   -1.5238    4.9389 H   0  0  0  0  0  0  0  0  0  0  0  0
   13.4245   -3.7860    2.9078 H   0  0  0  0  0  0  0  0  0  0  0  0
   12.1503   -7.5167    2.9417 H   0  0  0  0  0  0  0  0  0  0  0  0
   15.3725   -8.5087   -0.1310 H   0  0  0  0  0  0  0  0  0  0  0  0
   16.1132   -6.8763   -0.2129 H   0  0  0  0  0  0  0  0  0  0  0  0
   14.7377   -7.3037   -1.2842 H   0  0  0  0  0  0  0  0  0  0  0  0
   14.0809   -4.8953    0.1302 H   0  0  0  0  0  0  0  0  0  0  0  0
    7.7360   -3.5809    1.2361 H   0  0  0  0  0  0  0  0  0  0  0  0
    4.5369   -2.5093    3.7315 H   0  0  0  0  0  0  0  0  0  0  0  0
  1  2  1  0  0  0  0
  1 37  1  0  0  0  0
  1 38  1  0  0  0  0
  1 39  1  0  0  0  0
  2  3  1  0  0  0  0
  3  4  1  0  0  0  0
  3 36  2  0  0  0  0
  4  5  2  0  0  0  0
  4 40  1  0  0  0  0
  5  6  1  0  0  0  0
  5  8  1  0  0  0  0
  6  7  1  0  0  0  0
  7 41  1  0  0  0  0
  7 42  1  0  0  0  0
  7 43  1  0  0  0  0
  8  9  2  0  0  0  0
  8 44  1  0  0  0  0
  9 10  1  0  0  0  0
  9 36  1  0  0  0  0
 10 11  1  0  0  0  0
 10 20  1  0  0  0  0
 11 12  1  0  0  0  0
 11 45  1  0  0  0  0
 11 46  1  0  0  0  0
 12 13  1  0  0  0  0
 12 47  1  0  0  0  0
 12 48  1  0  0  0  0
 13 14  1  0  0  0  0
 13 19  1  0  0  0  0
 14 15  1  0  0  0  0
 14 49  1  0  0  0  0
 14 50  1  0  0  0  0
 15 16  1  0  0  0  0
 15 18  1  0  0  0  0
 15 19  1  0  0  0  0
 16 17  1  0  0  0  0
 16 51  1  0  0  0  0
 16 52  1  0  0  0  0
 17 18  1  0  0  0  0
 18 53  1  0  0  0  0
 18 54  1  0  0  0  0
 19 55  1  0  0  0  0
 19 56  1  0  0  0  0
 20 21  1  0  0  0  0
 20 35  2  0  0  0  0
 21 22  2  0  0  0  0
 21 57  1  0  0  0  0
 22 23  1  0  0  0  0
 22 58  1  0  0  0  0
 23 24  1  0  0  0  0
 23 34  2  0  0  0  0
 24 25  2  0  0  0  0
 25 26  1  0  0  0  0
 25 59  1  0  0  0  0
 26 27  1  0  0  0  0
 26 33  2  0  0  0  0
 27 28  1  0  0  0  0
 27 32  2  0  0  0  0
 28 29  2  0  0  0  0
 28 60  1  0  0  0  0
 29 30  1  0  0  0  0
 30 31  1  0  0  0  0
 30 32  1  0  0  0  0
 31 61  1  0  0  0  0
 31 62  1  0  0  0  0
 31 63  1  0  0  0  0
 32 64  1  0  0  0  0
 33 34  1  0  0  0  0
 34 35  1  0  0  0  0
 35 65  1  0  0  0  0
 36 66  1  0  0  0  0
M  END
$$$$
