CHEMBL4210100
 OpenBabel04072215383D

 69 74  0  0  0  0  0  0  0  0999 V2000
    4.3640   11.6960   -8.6582 C   0  0  0  0  0  0  0  0  0  0  0  0
    4.9986   11.5081   -7.3924 O   0  0  0  0  0  0  0  0  0  0  0  0
    4.5115   10.4731   -6.6391 C   0  0  0  0  0  0  0  0  0  0  0  0
    4.0604    9.2892   -7.2487 C   0  0  0  0  0  0  0  0  0  0  0  0
    3.4671    8.2686   -6.4976 C   0  0  0  0  0  0  0  0  0  0  0  0
    3.4111    8.3850   -5.1095 C   0  0  0  0  0  0  0  0  0  0  0  0
    3.9251    9.5300   -4.4950 C   0  0  0  0  0  0  0  0  0  0  0  0
    4.4739   10.5822   -5.2414 C   0  0  0  0  0  0  0  0  0  0  0  0
    4.8889   11.6076   -4.4356 O   0  0  0  0  0  0  0  0  0  0  0  0
    5.4938   12.7515   -5.0127 C   0  0  0  0  0  0  0  0  0  0  0  0
    2.9209    7.3197   -4.3341 N   0  0  0  0  0  0  0  0  0  0  0  0
    3.4691    6.0249   -4.3944 C   0  0  0  0  0  0  0  0  0  0  0  0
    3.6043    5.4767   -3.1676 N   0  0  0  0  0  0  0  0  0  0  0  0
    4.2661    4.3240   -3.0970 C   0  0  0  0  0  0  0  0  0  0  0  0
    4.8010    3.6757   -4.1246 N   0  0  0  0  0  0  0  0  0  0  0  0
    4.5718    4.2063   -5.3481 C   0  0  0  0  0  0  0  0  0  0  0  0
    5.0909    3.5222   -6.4639 O   0  0  0  0  0  0  0  0  0  0  0  0
    5.4384    2.2061   -6.2580 C   0  0  0  0  0  0  0  0  0  0  0  0
    4.5487    1.3165   -5.6413 C   0  0  0  0  0  0  0  0  0  0  0  0
    4.9574    0.0263   -5.3250 C   0  0  0  0  0  0  0  0  0  0  0  0
    6.2263   -0.4376   -5.6687 C   0  0  0  0  0  0  0  0  0  0  0  0
    6.6761   -1.7282   -5.3058 N   0  0  0  0  0  0  0  0  0  0  0  0
    5.9105   -2.7290   -4.7233 C   0  0  0  0  0  0  0  0  0  0  0  0
    4.7025   -2.7314   -4.5288 O   0  0  0  0  0  0  0  0  0  0  0  0
    6.6835   -3.9402   -4.2961 C   0  0  0  0  0  0  0  0  0  0  0  0
    7.2550   -3.8597   -2.9166 C   0  0  0  0  0  0  0  0  0  0  0  0
    8.3907   -3.3988   -2.8225 O   0  0  0  0  0  0  0  0  0  0  0  0
    6.4619   -4.3183   -1.8730 N   0  0  0  0  0  0  0  0  0  0  0  0
    6.8219   -4.2442   -0.5037 C   0  0  0  0  0  0  0  0  0  0  0  0
    7.8380   -3.3925   -0.0496 C   0  0  0  0  0  0  0  0  0  0  0  0
    8.2539   -3.4046    1.2824 C   0  0  0  0  0  0  0  0  0  0  0  0
    7.6339   -4.2588    2.1782 C   0  0  0  0  0  0  0  0  0  0  0  0
    8.0558   -4.2990    3.4489 F   0  0  0  0  0  0  0  0  0  0  0  0
    6.5776   -5.0660    1.7717 C   0  0  0  0  0  0  0  0  0  0  0  0
    6.1592   -5.0479    0.4327 C   0  0  0  0  0  0  0  0  0  0  0  0
    7.5535   -4.6311   -5.3523 C   0  0  0  0  0  0  0  0  0  0  0  0
    6.2930   -5.2886   -4.8876 C   0  0  0  0  0  0  0  0  0  0  0  0
    7.0893    0.4231   -6.3633 C   0  0  0  0  0  0  0  0  0  0  0  0
    6.6876    1.7323   -6.6571 C   0  0  0  0  0  0  0  0  0  0  0  0
    7.5329    2.5387   -7.3182 F   0  0  0  0  0  0  0  0  0  0  0  0
    3.8599    5.3861   -5.5850 C   0  0  0  0  0  0  0  0  0  0  0  0
    3.7077    5.8784   -6.8963 N   0  0  0  0  0  0  0  0  0  0  0  0
    2.8763    7.0455   -7.1421 C   0  0  0  0  0  0  0  0  0  0  0  0
    4.2252   12.7697   -8.8113 H   0  0  0  0  0  0  0  0  0  0  0  0
    3.3717   11.2350   -8.7325 H   0  0  0  0  0  0  0  0  0  0  0  0
    5.0154   11.3122   -9.4492 H   0  0  0  0  0  0  0  0  0  0  0  0
    4.1627    9.1486   -8.3212 H   0  0  0  0  0  0  0  0  0  0  0  0
    3.9191    9.6110   -3.4101 H   0  0  0  0  0  0  0  0  0  0  0  0
    5.6709   13.4659   -4.2012 H   0  0  0  0  0  0  0  0  0  0  0  0
    4.8284   13.2448   -5.7260 H   0  0  0  0  0  0  0  0  0  0  0  0
    6.4654   12.5067   -5.4523 H   0  0  0  0  0  0  0  0  0  0  0  0
    2.8375    7.5406   -3.3458 H   0  0  0  0  0  0  0  0  0  0  0  0
    4.3815    3.8774   -2.1164 H   0  0  0  0  0  0  0  0  0  0  0  0
    3.5667    1.6500   -5.3333 H   0  0  0  0  0  0  0  0  0  0  0  0
    4.2593   -0.5744   -4.7527 H   0  0  0  0  0  0  0  0  0  0  0  0
    7.6624   -1.9242   -5.4433 H   0  0  0  0  0  0  0  0  0  0  0  0
    5.6052   -4.8052   -2.1105 H   0  0  0  0  0  0  0  0  0  0  0  0
    8.3258   -2.6854   -0.7141 H   0  0  0  0  0  0  0  0  0  0  0  0
    9.0592   -2.7561    1.6100 H   0  0  0  0  0  0  0  0  0  0  0  0
    6.1000   -5.7133    2.5018 H   0  0  0  0  0  0  0  0  0  0  0  0
    5.3380   -5.7023    0.1391 H   0  0  0  0  0  0  0  0  0  0  0  0
    8.5020   -5.0474   -5.0269 H   0  0  0  0  0  0  0  0  0  0  0  0
    7.5781   -4.2254   -6.3563 H   0  0  0  0  0  0  0  0  0  0  0  0
    6.3923   -6.1825   -4.2835 H   0  0  0  0  0  0  0  0  0  0  0  0
    5.4607   -5.3191   -5.5839 H   0  0  0  0  0  0  0  0  0  0  0  0
    8.0768    0.1054   -6.6818 H   0  0  0  0  0  0  0  0  0  0  0  0
    3.5279    5.1155   -7.5460 H   0  0  0  0  0  0  0  0  0  0  0  0
    1.8433    6.8882   -6.8022 H   0  0  0  0  0  0  0  0  0  0  0  0
    2.8049    7.2029   -8.2254 H   0  0  0  0  0  0  0  0  0  0  0  0
  1  2  1  0  0  0  0
  1 44  1  0  0  0  0
  1 45  1  0  0  0  0
  1 46  1  0  0  0  0
  2  3  1  0  0  0  0
  3  4  1  0  0  0  0
  3  8  2  0  0  0  0
  4  5  2  0  0  0  0
  4 47  1  0  0  0  0
  5  6  1  0  0  0  0
  5 43  1  0  0  0  0
  6  7  2  0  0  0  0
  6 11  1  0  0  0  0
  7  8  1  0  0  0  0
  7 48  1  0  0  0  0
  8  9  1  0  0  0  0
  9 10  1  0  0  0  0
 10 49  1  0  0  0  0
 10 50  1  0  0  0  0
 10 51  1  0  0  0  0
 11 12  1  0  0  0  0
 11 52  1  0  0  0  0
 12 13  1  0  0  0  0
 12 41  2  0  0  0  0
 13 14  2  0  0  0  0
 14 15  1  0  0  0  0
 14 53  1  0  0  0  0
 15 16  2  0  0  0  0
 16 17  1  0  0  0  0
 16 41  1  0  0  0  0
 17 18  1  0  0  0  0
 18 19  1  0  0  0  0
 18 39  2  0  0  0  0
 19 20  2  0  0  0  0
 19 54  1  0  0  0  0
 20 21  1  0  0  0  0
 20 55  1  0  0  0  0
 21 22  1  0  0  0  0
 21 38  2  0  0  0  0
 22 23  1  0  0  0  0
 22 56  1  0  0  0  0
 23 24  2  0  0  0  0
 23 25  1  0  0  0  0
 25 26  1  0  0  0  0
 25 36  1  0  0  0  0
 25 37  1  0  0  0  0
 26 27  2  0  0  0  0
 26 28  1  0  0  0  0
 28 29  1  0  0  0  0
 28 57  1  0  0  0  0
 29 30  1  0  0  0  0
 29 35  2  0  0  0  0
 30 31  2  0  0  0  0
 30 58  1  0  0  0  0
 31 32  1  0  0  0  0
 31 59  1  0  0  0  0
 32 33  1  0  0  0  0
 32 34  2  0  0  0  0
 34 35  1  0  0  0  0
 34 60  1  0  0  0  0
 35 61  1  0  0  0  0
 36 37  1  0  0  0  0
 36 62  1  0  0  0  0
 36 63  1  0  0  0  0
 37 64  1  0  0  0  0
 37 65  1  0  0  0  0
 38 39  1  0  0  0  0
 38 66  1  0  0  0  0
 39 40  1  0  0  0  0
 41 42  1  0  0  0  0
 42 43  1  0  0  0  0
 42 67  1  0  0  0  0
 43 68  1  0  0  0  0
 43 69  1  0  0  0  0
M  END
$$$$
