CHEMBL67598
 OpenBabel04072215383D

 54 58  0  0  0  0  0  0  0  0999 V2000
    3.1610   -0.9686    0.6759 N   0  0  0  0  0  0  0  0  0  0  0  0
    2.4772    0.1520    0.2795 C   0  0  0  0  0  0  0  0  0  0  0  0
    1.2670    0.1959    0.4241 O   0  0  0  0  0  0  0  0  0  0  0  0
    3.2964    1.2005   -0.3241 C   0  0  0  0  0  0  0  0  0  0  0  0
    4.3944    1.0947   -1.1865 C   0  0  0  0  0  0  0  0  0  0  0  0
    4.8813   -0.1715   -1.7305 C   0  0  0  0  0  0  0  0  0  0  0  0
    3.9851   -1.1897   -2.0750 C   0  0  0  0  0  0  0  0  0  0  0  0
    4.4523   -2.4013   -2.5463 C   0  0  0  0  0  0  0  0  0  0  0  0
    5.7907   -2.5357   -2.9066 C   0  0  0  0  0  0  0  0  0  0  0  0
    6.3108   -3.6387   -3.5273 O   0  0  0  0  0  0  0  0  0  0  0  0
    5.5252   -4.3484   -4.4060 C   0  0  0  0  0  0  0  0  0  0  0  0
    4.4712   -3.7998   -5.1457 C   0  0  0  0  0  0  0  0  0  0  0  0
    3.6959   -4.6124   -5.9652 C   0  0  0  0  0  0  0  0  0  0  0  0
    4.0177   -5.9606   -6.1014 C   0  0  0  0  0  0  0  0  0  0  0  0
    5.1073   -6.5044   -5.4141 C   0  0  0  0  0  0  0  0  0  0  0  0
    5.8590   -5.6894   -4.5619 C   0  0  0  0  0  0  0  0  0  0  0  0
    6.6934   -1.5297   -2.5950 C   0  0  0  0  0  0  0  0  0  0  0  0
    6.2474   -0.3973   -1.9240 C   0  0  0  0  0  0  0  0  0  0  0  0
    4.8941    2.4088   -1.4590 C   0  0  0  0  0  0  0  0  0  0  0  0
    5.9575    2.9877   -2.1922 C   0  0  0  0  0  0  0  0  0  0  0  0
    6.9046    2.2772   -2.9136 N   0  0  0  0  0  0  0  0  0  0  0  0
    6.1137    4.3189   -2.1821 N   0  0  0  0  0  0  0  0  0  0  0  0
    5.2268    5.0581   -1.4871 C   0  0  0  0  0  0  0  0  0  0  0  0
    4.1729    4.6272   -0.7809 N   0  0  0  0  0  0  0  0  0  0  0  0
    4.0517    3.2910   -0.7938 C   0  0  0  0  0  0  0  0  0  0  0  0
    3.0668    2.5675   -0.1466 N   0  0  0  0  0  0  0  0  0  0  0  0
    2.0020    3.1487    0.6521 C   0  0  0  0  0  0  0  0  0  0  0  0
    1.0947    4.1416   -0.0778 C   0  0  0  0  0  0  0  0  0  0  0  0
    0.4170    4.9419    1.0338 C   0  0  0  0  0  0  0  0  0  0  0  0
    1.2197    4.6925    2.3112 C   0  0  0  0  0  0  0  0  0  0  0  0
    2.4626    3.9164    1.8904 C   0  0  0  0  0  0  0  0  0  0  0  0
    2.6185   -1.7761    0.9519 H   0  0  0  0  0  0  0  0  0  0  0  0
    4.1450   -1.0959    0.4925 H   0  0  0  0  0  0  0  0  0  0  0  0
    2.9160   -1.0824   -1.9244 H   0  0  0  0  0  0  0  0  0  0  0  0
    3.7357   -3.2060   -2.6904 H   0  0  0  0  0  0  0  0  0  0  0  0
    4.2153   -2.7467   -5.0788 H   0  0  0  0  0  0  0  0  0  0  0  0
    2.8441   -4.1926   -6.4922 H   0  0  0  0  0  0  0  0  0  0  0  0
    3.4255   -6.5931   -6.7517 H   0  0  0  0  0  0  0  0  0  0  0  0
    5.3696   -7.5446   -5.5239 H   0  0  0  0  0  0  0  0  0  0  0  0
    6.6995   -6.1094   -4.0129 H   0  0  0  0  0  0  0  0  0  0  0  0
    7.7422   -1.6215   -2.8679 H   0  0  0  0  0  0  0  0  0  0  0  0
    6.9904    0.3269   -1.5999 H   0  0  0  0  0  0  0  0  0  0  0  0
    6.6031    1.4149   -3.3389 H   0  0  0  0  0  0  0  0  0  0  0  0
    7.5201    2.8602   -3.4669 H   0  0  0  0  0  0  0  0  0  0  0  0
    5.3960    6.1263   -1.5082 H   0  0  0  0  0  0  0  0  0  0  0  0
    1.3580    2.3450    1.0130 H   0  0  0  0  0  0  0  0  0  0  0  0
    0.3632    3.6322   -0.7146 H   0  0  0  0  0  0  0  0  0  0  0  0
    1.6535    4.8264   -0.7221 H   0  0  0  0  0  0  0  0  0  0  0  0
   -0.6206    4.6175    1.1702 H   0  0  0  0  0  0  0  0  0  0  0  0
    0.3932    6.0076    0.7815 H   0  0  0  0  0  0  0  0  0  0  0  0
    0.6209    4.0939    3.0088 H   0  0  0  0  0  0  0  0  0  0  0  0
    1.4787    5.6255    2.8206 H   0  0  0  0  0  0  0  0  0  0  0  0
    2.8083    3.2450    2.6832 H   0  0  0  0  0  0  0  0  0  0  0  0
    3.2790    4.6135    1.6707 H   0  0  0  0  0  0  0  0  0  0  0  0
  1  2  1  0  0  0  0
  1 32  1  0  0  0  0
  1 33  1  0  0  0  0
  2  3  2  0  0  0  0
  2  4  1  0  0  0  0
  4  5  2  0  0  0  0
  4 26  1  0  0  0  0
  5  6  1  0  0  0  0
  5 19  1  0  0  0  0
  6  7  1  0  0  0  0
  6 18  2  0  0  0  0
  7  8  2  0  0  0  0
  7 34  1  0  0  0  0
  8  9  1  0  0  0  0
  8 35  1  0  0  0  0
  9 10  1  0  0  0  0
  9 17  2  0  0  0  0
 10 11  1  0  0  0  0
 11 12  1  0  0  0  0
 11 16  2  0  0  0  0
 12 13  2  0  0  0  0
 12 36  1  0  0  0  0
 13 14  1  0  0  0  0
 13 37  1  0  0  0  0
 14 15  2  0  0  0  0
 14 38  1  0  0  0  0
 15 16  1  0  0  0  0
 15 39  1  0  0  0  0
 16 40  1  0  0  0  0
 17 18  1  0  0  0  0
 17 41  1  0  0  0  0
 18 42  1  0  0  0  0
 19 20  1  0  0  0  0
 19 25  2  0  0  0  0
 20 21  1  0  0  0  0
 20 22  2  0  0  0  0
 21 43  1  0  0  0  0
 21 44  1  0  0  0  0
 22 23  1  0  0  0  0
 23 24  2  0  0  0  0
 23 45  1  0  0  0  0
 24 25  1  0  0  0  0
 25 26  1  0  0  0  0
 26 27  1  0  0  0  0
 27 28  1  0  0  0  0
 27 31  1  0  0  0  0
 27 46  1  0  0  0  0
 28 29  1  0  0  0  0
 28 47  1  0  0  0  0
 28 48  1  0  0  0  0
 29 30  1  0  0  0  0
 29 49  1  0  0  0  0
 29 50  1  0  0  0  0
 30 31  1  0  0  0  0
 30 51  1  0  0  0  0
 30 52  1  0  0  0  0
 31 53  1  0  0  0  0
 31 54  1  0  0  0  0
M  END
$$$$
