CHEMBL376245
 OpenBabel04072215373D

 64 68  0  0  0  0  0  0  0  0999 V2000
    2.3843   -0.0549   -0.3903 C   0  0  0  0  0  0  0  0  0  0  0  0
    0.8912   -0.0003   -0.5353 C   0  0  0  0  0  0  0  0  0  0  0  0
    0.2852    1.2158   -0.8608 C   0  0  0  0  0  0  0  0  0  0  0  0
   -1.0924    1.2933   -0.9989 C   0  0  0  0  0  0  0  0  0  0  0  0
   -1.8754    0.1559   -0.8116 C   0  0  0  0  0  0  0  0  0  0  0  0
   -1.3081   -1.0809   -0.4881 C   0  0  0  0  0  0  0  0  0  0  0  0
   -2.0898   -2.2549   -0.2882 N   0  0  0  0  0  0  0  0  0  0  0  0
   -3.4731   -2.3254   -0.4270 C   0  0  0  0  0  0  0  0  0  0  0  0
   -4.1970   -1.4086   -0.7605 O   0  0  0  0  0  0  0  0  0  0  0  0
   -3.9784   -3.5841   -0.0961 N   0  0  0  0  0  0  0  0  0  0  0  0
   -5.3816   -3.7771   -0.1812 C   0  0  0  0  0  0  0  0  0  0  0  0
   -6.0779   -3.4715   -1.3532 C   0  0  0  0  0  0  0  0  0  0  0  0
   -7.4742   -3.5356   -1.3947 C   0  0  0  0  0  0  0  0  0  0  0  0
   -8.2165   -3.9209   -0.2699 C   0  0  0  0  0  0  0  0  0  0  0  0
   -9.6977   -3.9424   -0.2915 C   0  0  0  0  0  0  0  0  0  0  0  0
  -10.4208   -4.2674   -1.4610 C   0  0  0  0  0  0  0  0  0  0  0  0
  -11.8126   -4.3902   -1.4752 C   0  0  0  0  0  0  0  0  0  0  0  0
  -12.5636   -4.2730   -0.3049 C   0  0  0  0  0  0  0  0  0  0  0  0
  -13.9225   -4.4026   -0.2163 O   0  0  0  0  0  0  0  0  0  0  0  0
  -14.6103   -4.6820   -1.4457 C   0  0  0  0  0  0  0  0  0  0  0  0
  -16.1188   -4.7723   -1.2004 C   0  0  0  0  0  0  0  0  0  0  0  0
  -16.4660   -5.8498   -0.2908 N   0  0  0  0  0  0  0  0  0  0  0  0
  -16.5540   -5.6602    1.1336 C   0  0  0  0  0  0  0  0  0  0  0  0
  -16.4564   -7.0691    1.6816 C   0  0  0  0  0  0  0  0  0  0  0  0
  -17.0229   -7.9422    0.5679 C   0  0  0  0  0  0  0  0  0  0  0  0
  -16.6911   -7.1588   -0.6757 C   0  0  0  0  0  0  0  0  0  0  0  0
  -16.6707   -7.5966   -1.8140 O   0  0  0  0  0  0  0  0  0  0  0  0
  -11.8412   -3.9541    0.8511 C   0  0  0  0  0  0  0  0  0  0  0  0
  -12.2362   -3.8604    2.1579 N   0  0  0  0  0  0  0  0  0  0  0  0
  -11.3211   -3.3226    2.9770 N   0  0  0  0  0  0  0  0  0  0  0  0
  -10.2600   -3.1633    2.1910 C   0  0  0  0  0  0  0  0  0  0  0  0
   -9.1391   -2.5647    2.6163 N   0  0  0  0  0  0  0  0  0  0  0  0
  -10.4707   -3.6901    0.8756 C   0  0  0  0  0  0  0  0  0  0  0  0
   -7.4812   -4.3157    0.8666 C   0  0  0  0  0  0  0  0  0  0  0  0
   -6.0851   -4.2210    0.9287 C   0  0  0  0  0  0  0  0  0  0  0  0
    0.0873   -1.1499   -0.3503 C   0  0  0  0  0  0  0  0  0  0  0  0
    2.8333    0.9307   -0.5617 H   0  0  0  0  0  0  0  0  0  0  0  0
    2.8158   -0.7430   -1.1232 H   0  0  0  0  0  0  0  0  0  0  0  0
    2.6606   -0.3683    0.6214 H   0  0  0  0  0  0  0  0  0  0  0  0
    0.8793    2.1155   -1.0080 H   0  0  0  0  0  0  0  0  0  0  0  0
   -1.5692    2.2356   -1.2510 H   0  0  0  0  0  0  0  0  0  0  0  0
   -2.9442    0.2923   -0.9333 H   0  0  0  0  0  0  0  0  0  0  0  0
   -1.5954   -3.1113   -0.1163 H   0  0  0  0  0  0  0  0  0  0  0  0
   -3.5161   -4.0333    0.6783 H   0  0  0  0  0  0  0  0  0  0  0  0
   -5.5400   -3.1493   -2.2433 H   0  0  0  0  0  0  0  0  0  0  0  0
   -7.9671   -3.2517   -2.3216 H   0  0  0  0  0  0  0  0  0  0  0  0
   -9.8962   -4.4464   -2.3978 H   0  0  0  0  0  0  0  0  0  0  0  0
  -12.2783   -4.6144   -2.4302 H   0  0  0  0  0  0  0  0  0  0  0  0
  -14.2518   -5.6310   -1.8627 H   0  0  0  0  0  0  0  0  0  0  0  0
  -14.4341   -3.8671   -2.1589 H   0  0  0  0  0  0  0  0  0  0  0  0
  -16.6223   -4.9606   -2.1546 H   0  0  0  0  0  0  0  0  0  0  0  0
  -16.5084   -3.8377   -0.7838 H   0  0  0  0  0  0  0  0  0  0  0  0
  -17.5192   -5.1946    1.3561 H   0  0  0  0  0  0  0  0  0  0  0  0
  -15.7458   -5.0235    1.5014 H   0  0  0  0  0  0  0  0  0  0  0  0
  -16.9830   -7.1893    2.6325 H   0  0  0  0  0  0  0  0  0  0  0  0
  -15.4022   -7.3287    1.8461 H   0  0  0  0  0  0  0  0  0  0  0  0
  -18.1106   -8.0385    0.6463 H   0  0  0  0  0  0  0  0  0  0  0  0
  -16.5533   -8.9285    0.5502 H   0  0  0  0  0  0  0  0  0  0  0  0
  -13.1248   -4.1482    2.5487 H   0  0  0  0  0  0  0  0  0  0  0  0
   -9.1008   -2.1627    3.5434 H   0  0  0  0  0  0  0  0  0  0  0  0
   -8.4064   -2.2679    1.9800 H   0  0  0  0  0  0  0  0  0  0  0  0
   -7.9978   -4.6595    1.7624 H   0  0  0  0  0  0  0  0  0  0  0  0
   -5.5888   -4.4232    1.8740 H   0  0  0  0  0  0  0  0  0  0  0  0
    0.5710   -2.0891   -0.0962 H   0  0  0  0  0  0  0  0  0  0  0  0
  1  2  1  0  0  0  0
  1 37  1  0  0  0  0
  1 38  1  0  0  0  0
  1 39  1  0  0  0  0
  2  3  1  0  0  0  0
  2 36  2  0  0  0  0
  3  4  2  0  0  0  0
  3 40  1  0  0  0  0
  4  5  1  0  0  0  0
  4 41  1  0  0  0  0
  5  6  2  0  0  0  0
  5 42  1  0  0  0  0
  6  7  1  0  0  0  0
  6 36  1  0  0  0  0
  7  8  1  0  0  0  0
  7 43  1  0  0  0  0
  8  9  2  0  0  0  0
  8 10  1  0  0  0  0
 10 11  1  0  0  0  0
 10 44  1  0  0  0  0
 11 12  1  0  0  0  0
 11 35  2  0  0  0  0
 12 13  2  0  0  0  0
 12 45  1  0  0  0  0
 13 14  1  0  0  0  0
 13 46  1  0  0  0  0
 14 15  1  0  0  0  0
 14 34  2  0  0  0  0
 15 16  1  0  0  0  0
 15 33  2  0  0  0  0
 16 17  2  0  0  0  0
 16 47  1  0  0  0  0
 17 18  1  0  0  0  0
 17 48  1  0  0  0  0
 18 19  1  0  0  0  0
 18 28  2  0  0  0  0
 19 20  1  0  0  0  0
 20 21  1  0  0  0  0
 20 49  1  0  0  0  0
 20 50  1  0  0  0  0
 21 22  1  0  0  0  0
 21 51  1  0  0  0  0
 21 52  1  0  0  0  0
 22 23  1  0  0  0  0
 22 26  1  0  0  0  0
 23 24  1  0  0  0  0
 23 53  1  0  0  0  0
 23 54  1  0  0  0  0
 24 25  1  0  0  0  0
 24 55  1  0  0  0  0
 24 56  1  0  0  0  0
 25 26  1  0  0  0  0
 25 57  1  0  0  0  0
 25 58  1  0  0  0  0
 26 27  2  0  0  0  0
 28 29  1  0  0  0  0
 28 33  1  0  0  0  0
 29 30  1  0  0  0  0
 29 59  1  0  0  0  0
 30 31  2  0  0  0  0
 31 32  1  0  0  0  0
 31 33  1  0  0  0  0
 32 60  1  0  0  0  0
 32 61  1  0  0  0  0
 34 35  1  0  0  0  0
 34 62  1  0  0  0  0
 35 63  1  0  0  0  0
 36 64  1  0  0  0  0
M  END
$$$$
