CHEMBL1084337
 OpenBabel04072215363D

 67 73  0  0  1  0  0  0  0  0999 V2000
    3.1379   -0.2016    1.4148 C   0  0  0  0  0  0  0  0  0  0  0  0
    2.9500   -1.1938    0.2676 C   0  0  0  0  0  0  0  0  0  0  0  0
    1.4632   -1.2397   -0.1178 C   0  0  0  0  0  0  0  0  0  0  0  0
    3.7938   -0.8323   -0.9671 C   0  0  0  0  0  0  0  0  0  0  0  0
    5.2335   -0.7041   -0.7619 N   0  0  0  0  0  0  0  0  0  0  0  0
    5.9437    0.5137   -0.9393 C   0  0  0  0  0  0  0  0  0  0  0  0
    5.5192    1.8353   -1.1797 C   0  0  0  0  0  0  0  0  0  0  0  0
    6.4991    2.8405   -1.3384 C   0  0  0  0  0  0  0  0  0  0  0  0
    7.8767    2.5786   -1.2373 C   0  0  0  0  0  0  0  0  0  0  0  0
    8.9079    3.7041   -1.2282 C   0  0  3  0  0  0  0  0  0  0  0  0
    8.9731    4.5721   -2.4933 C   0  0  0  0  0  0  0  0  0  0  0  0
    9.9887    4.0837   -3.5168 C   0  0  0  0  0  0  0  0  0  0  0  0
   11.3341    3.8879   -2.8408 C   0  0  0  0  0  0  0  0  0  0  0  0
   11.1755    2.8964   -1.7063 C   0  0  0  0  0  0  0  0  0  0  0  0
   10.2087    3.3153   -0.7455 O   0  0  0  0  0  0  0  0  0  0  0  0
    8.2638    1.2531   -1.0430 C   0  0  0  0  0  0  0  0  0  0  0  0
    7.3072    0.2254   -0.9390 C   0  0  0  0  0  0  0  0  0  0  0  0
    7.3221   -1.1506   -0.9359 C   0  0  0  0  0  0  0  0  0  0  0  0
    8.4235   -1.8726   -1.4194 C   0  0  0  0  0  0  0  0  0  0  0  0
    8.1271   -3.1636   -1.8963 C   0  0  0  0  0  0  0  0  0  0  0  0
    6.8790   -3.7864   -1.7355 C   0  0  0  0  0  0  0  0  0  0  0  0
    6.0696   -3.1890   -0.7069 C   0  0  0  0  0  0  0  0  0  0  0  0
    6.1355   -1.7823   -0.7023 C   0  0  0  0  0  0  0  0  0  0  0  0
    6.1128   -4.0496    0.6311 C   0  0  0  0  0  0  0  0  0  0  0  0
    7.1816   -5.2226    0.6253 C   0  0  0  0  0  0  0  0  0  0  0  0
    6.9696   -5.9768   -0.6399 C   0  0  0  0  0  0  0  0  0  0  0  0
    6.5716   -7.2413   -0.7726 N   0  0  0  0  0  0  0  0  0  0  0  0
    6.0695   -7.2586   -2.0332 N   0  0  0  0  0  0  0  0  0  0  0  0
    5.3774   -8.4320   -2.5078 C   0  0  0  0  0  0  0  0  0  0  0  0
    6.0709   -6.0275   -2.6438 C   0  0  0  0  0  0  0  0  0  0  0  0
    6.8219   -5.2269   -1.8136 C   0  0  0  0  0  0  0  0  0  0  0  0
    9.3662   -3.7327   -2.3694 C   0  0  0  0  0  0  0  0  0  0  0  0
    9.6668   -4.8179   -2.8490 O   0  0  0  0  0  0  0  0  0  0  0  0
   10.3166   -2.7467   -2.1303 N   0  0  0  0  0  0  0  0  0  0  0  0
    9.8217   -1.5028   -1.5955 C   0  0  0  0  0  0  0  0  0  0  0  0
    2.4988   -0.4695    2.2637 H   0  0  0  0  0  0  0  0  0  0  0  0
    2.8775    0.8174    1.1084 H   0  0  0  0  0  0  0  0  0  0  0  0
    4.1723   -0.2005    1.7708 H   0  0  0  0  0  0  0  0  0  0  0  0
    3.2413   -2.1896    0.6215 H   0  0  0  0  0  0  0  0  0  0  0  0
    1.1174   -0.2692   -0.4934 H   0  0  0  0  0  0  0  0  0  0  0  0
    0.8408   -1.5010    0.7454 H   0  0  0  0  0  0  0  0  0  0  0  0
    1.2804   -1.9857   -0.8981 H   0  0  0  0  0  0  0  0  0  0  0  0
    3.4293    0.1110   -1.3893 H   0  0  0  0  0  0  0  0  0  0  0  0
    3.6529   -1.5844   -1.7552 H   0  0  0  0  0  0  0  0  0  0  0  0
    4.4664    2.0936   -1.2548 H   0  0  0  0  0  0  0  0  0  0  0  0
    6.1578    3.8608   -1.5114 H   0  0  0  0  0  0  0  0  0  0  0  0
    8.5401    4.3602   -0.4285 H   0  0  0  0  0  0  0  0  0  0  0  0
    9.2953    5.5755   -2.1819 H   0  0  0  0  0  0  0  0  0  0  0  0
    7.9918    4.6927   -2.9625 H   0  0  0  0  0  0  0  0  0  0  0  0
   10.0847    4.8152   -4.3267 H   0  0  0  0  0  0  0  0  0  0  0  0
    9.6526    3.1415   -3.9653 H   0  0  0  0  0  0  0  0  0  0  0  0
   11.6865    4.8484   -2.4449 H   0  0  0  0  0  0  0  0  0  0  0  0
   12.0794    3.5323   -3.5601 H   0  0  0  0  0  0  0  0  0  0  0  0
   12.1304    2.7928   -1.1784 H   0  0  0  0  0  0  0  0  0  0  0  0
   10.9259    1.9048   -2.0978 H   0  0  0  0  0  0  0  0  0  0  0  0
    9.3124    1.0116   -0.9424 H   0  0  0  0  0  0  0  0  0  0  0  0
    5.1200   -4.4899    0.7723 H   0  0  0  0  0  0  0  0  0  0  0  0
    6.3328   -3.3926    1.4802 H   0  0  0  0  0  0  0  0  0  0  0  0
    7.1039   -5.8637    1.5067 H   0  0  0  0  0  0  0  0  0  0  0  0
    8.1992   -4.8000    0.6186 H   0  0  0  0  0  0  0  0  0  0  0  0
    5.6002   -9.2761   -1.8507 H   0  0  0  0  0  0  0  0  0  0  0  0
    5.7153   -8.6479   -3.5237 H   0  0  0  0  0  0  0  0  0  0  0  0
    4.3049   -8.2202   -2.4960 H   0  0  0  0  0  0  0  0  0  0  0  0
    5.5043   -5.8331   -3.5433 H   0  0  0  0  0  0  0  0  0  0  0  0
   11.2894   -2.9474   -2.3028 H   0  0  0  0  0  0  0  0  0  0  0  0
    9.9660   -0.7219   -2.3431 H   0  0  0  0  0  0  0  0  0  0  0  0
   10.3181   -1.2770   -0.6492 H   0  0  0  0  0  0  0  0  0  0  0  0
  1  2  1  0  0  0  0
  1 36  1  0  0  0  0
  1 37  1  0  0  0  0
  1 38  1  0  0  0  0
  2  3  1  0  0  0  0
  2  4  1  0  0  0  0
  2 39  1  0  0  0  0
  3 40  1  0  0  0  0
  3 41  1  0  0  0  0
  3 42  1  0  0  0  0
  4  5  1  0  0  0  0
  4 43  1  0  0  0  0
  4 44  1  0  0  0  0
  5  6  1  0  0  0  0
  5 23  1  0  0  0  0
  6  7  1  0  0  0  0
  6 17  2  0  0  0  0
  7  8  2  0  0  0  0
  7 45  1  0  0  0  0
  8  9  1  0  0  0  0
  8 46  1  0  0  0  0
  9 10  1  0  0  0  0
  9 16  2  0  0  0  0
 10 11  1  0  0  0  0
 10 15  1  0  0  0  0
 10 47  1  0  0  0  0
 11 12  1  0  0  0  0
 11 48  1  0  0  0  0
 11 49  1  0  0  0  0
 12 13  1  0  0  0  0
 12 50  1  0  0  0  0
 12 51  1  0  0  0  0
 13 14  1  0  0  0  0
 13 52  1  0  0  0  0
 13 53  1  0  0  0  0
 14 15  1  0  0  0  0
 14 54  1  0  0  0  0
 14 55  1  0  0  0  0
 16 17  1  0  0  0  0
 16 56  1  0  0  0  0
 17 18  1  0  0  0  0
 18 19  1  0  0  0  0
 18 23  2  0  0  0  0
 19 20  2  0  0  0  0
 19 35  1  0  0  0  0
 20 21  1  0  0  0  0
 20 32  1  0  0  0  0
 21 22  2  0  0  0  0
 21 31  1  0  0  0  0
 22 23  1  0  0  0  0
 22 24  1  0  0  0  0
 24 25  1  0  0  0  0
 24 57  1  0  0  0  0
 24 58  1  0  0  0  0
 25 26  1  0  0  0  0
 25 59  1  0  0  0  0
 25 60  1  0  0  0  0
 26 27  2  0  0  0  0
 26 31  1  0  0  0  0
 27 28  1  0  0  0  0
 28 29  1  0  0  0  0
 28 30  1  0  0  0  0
 29 61  1  0  0  0  0
 29 62  1  0  0  0  0
 29 63  1  0  0  0  0
 30 31  2  0  0  0  0
 30 64  1  0  0  0  0
 32 33  2  0  0  0  0
 32 34  1  0  0  0  0
 34 35  1  0  0  0  0
 34 65  1  0  0  0  0
 35 66  1  0  0  0  0
 35 67  1  0  0  0  0
M  END
$$$$
