CHEMBL3221262
 OpenBabel04072215363D

 56 57  0  0  0  0  0  0  0  0999 V2000
    2.7335    0.0234   -4.8443 C   0  0  0  0  0  0  0  0  0  0  0  0
    2.5031   -0.1431   -3.3408 C   0  0  0  0  0  0  0  0  0  0  0  0
    3.1481   -1.4146   -2.7672 C   0  0  0  0  0  0  0  0  0  0  0  0
    4.6750   -1.4134   -2.9049 C   0  0  0  0  0  0  0  0  0  0  0  0
    5.2518   -2.6266   -2.3666 N   0  0  0  0  0  0  0  0  0  0  0  0
    6.5924   -2.8480   -2.4129 C   0  0  0  0  0  0  0  0  0  0  0  0
    7.3361   -1.9952   -2.8850 O   0  0  0  0  0  0  0  0  0  0  0  0
    7.1031   -4.0186   -1.9569 N   0  0  0  0  0  0  0  0  0  0  0  0
    8.4881   -4.2974   -2.0286 C   0  0  0  0  0  0  0  0  0  0  0  0
    9.3382   -3.8784   -1.0000 C   0  0  0  0  0  0  0  0  0  0  0  0
   10.7127   -4.1345   -1.0615 C   0  0  0  0  0  0  0  0  0  0  0  0
   11.7260   -3.5894    0.2692 Cl  0  0  0  0  0  0  0  0  0  0  0  0
   11.2486   -4.8374   -2.1623 C   0  0  0  0  0  0  0  0  0  0  0  0
   12.6511   -5.0921   -2.2649 N   0  0  0  0  0  0  0  0  0  0  0  0
   13.1697   -6.1410   -3.0841 C   0  0  0  0  0  0  0  0  0  0  0  0
   12.4423   -7.2842   -3.2214 N   0  0  0  0  0  0  0  0  0  0  0  0
   12.8670   -8.3194   -3.9860 C   0  0  0  0  0  0  0  0  0  0  0  0
   14.0339   -8.2217   -4.6628 N   0  0  0  0  0  0  0  0  0  0  0  0
   14.8007   -7.1053   -4.5802 C   0  0  0  0  0  0  0  0  0  0  0  0
   15.9724   -7.0201   -5.3272 C   0  0  0  0  0  0  0  0  0  0  0  0
   16.7854   -5.8650   -5.2928 C   0  0  0  0  0  0  0  0  0  0  0  0
   17.9097   -5.7942   -6.0598 O   0  0  0  0  0  0  0  0  0  0  0  0
   18.3283   -6.7757   -6.9500 C   0  0  0  0  0  0  0  0  0  0  0  0
   16.3877   -4.7805   -4.4488 C   0  0  0  0  0  0  0  0  0  0  0  0
   17.0473   -3.6002   -4.2895 O   0  0  0  0  0  0  0  0  0  0  0  0
   18.2054   -3.1313   -4.8601 C   0  0  0  0  0  0  0  0  0  0  0  0
   15.2064   -4.8866   -3.7057 C   0  0  0  0  0  0  0  0  0  0  0  0
   14.4007   -6.0303   -3.7653 C   0  0  0  0  0  0  0  0  0  0  0  0
   10.3772   -5.2384   -3.1977 C   0  0  0  0  0  0  0  0  0  0  0  0
    9.0129   -4.9726   -3.1350 C   0  0  0  0  0  0  0  0  0  0  0  0
    7.9831   -5.4665   -4.4727 Cl  0  0  0  0  0  0  0  0  0  0  0  0
    0.6034    2.2481   -1.5875 Cl  0  0  0  0  0  0  0  0  0  0  0  0
    2.1950    0.9238   -5.2039 H   0  0  0  0  0  0  0  0  0  0  0  0
    2.3548   -0.8659   -5.3913 H   0  0  0  0  0  0  0  0  0  0  0  0
    3.8084    0.1673   -5.0751 H   0  0  0  0  0  0  0  0  0  0  0  0
    1.4080   -0.2064   -3.1651 H   0  0  0  0  0  0  0  0  0  0  0  0
    2.8948    0.7499   -2.8077 H   0  0  0  0  0  0  0  0  0  0  0  0
    2.7254   -2.3040   -3.2836 H   0  0  0  0  0  0  0  0  0  0  0  0
    2.8885   -1.4823   -1.6879 H   0  0  0  0  0  0  0  0  0  0  0  0
    5.0919   -0.5333   -2.3657 H   0  0  0  0  0  0  0  0  0  0  0  0
    4.9535   -1.3496   -3.9767 H   0  0  0  0  0  0  0  0  0  0  0  0
    4.6336   -3.3544   -1.9713 H   0  0  0  0  0  0  0  0  0  0  0  0
    6.4735   -4.7543   -1.6034 H   0  0  0  0  0  0  0  0  0  0  0  0
    8.9250   -3.3500   -0.1479 H   0  0  0  0  0  0  0  0  0  0  0  0
   13.3019   -4.4852   -1.7472 H   0  0  0  0  0  0  0  0  0  0  0  0
   12.2685   -9.2166   -4.0562 H   0  0  0  0  0  0  0  0  0  0  0  0
   16.2279   -7.8673   -5.9505 H   0  0  0  0  0  0  0  0  0  0  0  0
   19.2539   -6.4527   -7.4675 H   0  0  0  0  0  0  0  0  0  0  0  0
   17.5467   -6.9591   -7.7195 H   0  0  0  0  0  0  0  0  0  0  0  0
   18.5380   -7.7216   -6.4075 H   0  0  0  0  0  0  0  0  0  0  0  0
   18.3907   -2.1156   -4.4433 H   0  0  0  0  0  0  0  0  0  0  0  0
   18.0900   -3.0334   -5.9579 H   0  0  0  0  0  0  0  0  0  0  0  0
   19.0666   -3.7739   -4.5892 H   0  0  0  0  0  0  0  0  0  0  0  0
   14.9257   -4.0398   -3.0971 H   0  0  0  0  0  0  0  0  0  0  0  0
   10.7518   -5.7346   -4.0823 H   0  0  0  0  0  0  0  0  0  0  0  0
   -0.1046    1.9952   -0.4371 H   0  0  0  0  0  0  0  0  0  0  0  0
  1  2  1  0  0  0  0
  1 33  1  0  0  0  0
  1 34  1  0  0  0  0
  1 35  1  0  0  0  0
  2  3  1  0  0  0  0
  2 36  1  0  0  0  0
  2 37  1  0  0  0  0
  3  4  1  0  0  0  0
  3 38  1  0  0  0  0
  3 39  1  0  0  0  0
  4  5  1  0  0  0  0
  4 40  1  0  0  0  0
  4 41  1  0  0  0  0
  5  6  1  0  0  0  0
  5 42  1  0  0  0  0
  6  7  2  0  0  0  0
  6  8  1  0  0  0  0
  8  9  1  0  0  0  0
  8 43  1  0  0  0  0
  9 10  1  0  0  0  0
  9 30  2  0  0  0  0
 10 11  2  0  0  0  0
 10 44  1  0  0  0  0
 11 12  1  0  0  0  0
 11 13  1  0  0  0  0
 13 14  1  0  0  0  0
 13 29  2  0  0  0  0
 14 15  1  0  0  0  0
 14 45  1  0  0  0  0
 15 16  1  0  0  0  0
 15 28  2  0  0  0  0
 16 17  2  0  0  0  0
 17 18  1  0  0  0  0
 17 46  1  0  0  0  0
 18 19  2  0  0  0  0
 19 20  1  0  0  0  0
 19 28  1  0  0  0  0
 20 21  2  0  0  0  0
 20 47  1  0  0  0  0
 21 22  1  0  0  0  0
 21 24  1  0  0  0  0
 22 23  1  0  0  0  0
 23 48  1  0  0  0  0
 23 49  1  0  0  0  0
 23 50  1  0  0  0  0
 24 25  1  0  0  0  0
 24 27  2  0  0  0  0
 25 26  1  0  0  0  0
 26 51  1  0  0  0  0
 26 52  1  0  0  0  0
 26 53  1  0  0  0  0
 27 28  1  0  0  0  0
 27 54  1  0  0  0  0
 29 30  1  0  0  0  0
 29 55  1  0  0  0  0
 30 31  1  0  0  0  0
 32 56  1  0  0  0  0
M  END
$$$$
