CHEMBL3604469
 OpenBabel04072215363D

 47 48  0  0  1  0  0  0  0  0999 V2000
   22.3386   -1.8803   -1.6162 C   0  0  0  0  0  0  0  0  0  0  0  0
   21.4384   -1.5725   -0.4357 C   0  0  0  0  0  0  0  0  0  0  0  0
   21.3810    0.1762   -0.0935 S   0  0  1  0  0  0  0  0  0  0  0  0
   22.8025    0.6498    0.2730 N   0  0  0  0  0  0  0  0  0  0  0  0
   20.5793    0.7981   -1.1300 O   0  0  0  0  0  0  0  0  0  0  0  0
   20.4191    0.2346    1.4040 C   0  0  0  0  0  0  0  0  0  0  0  0
   21.0261    0.2294    2.6626 C   0  0  0  0  0  0  0  0  0  0  0  0
   20.2400    0.3457    3.8192 C   0  0  0  0  0  0  0  0  0  0  0  0
   18.8484    0.4894    3.7388 C   0  0  0  0  0  0  0  0  0  0  0  0
   18.0911    0.6781    4.9072 N   0  0  0  0  0  0  0  0  0  0  0  0
   16.7669    1.0985    5.0718 C   0  0  0  0  0  0  0  0  0  0  0  0
   16.4011    1.5101    6.2901 N   0  0  0  0  0  0  0  0  0  0  0  0
   15.1191    1.9243    6.4212 C   0  0  0  0  0  0  0  0  0  0  0  0
   14.1909    1.9214    5.3988 C   0  0  0  0  0  0  0  0  0  0  0  0
   12.4236    2.4961    5.7163 Br  0  0  0  0  0  0  0  0  0  0  0  0
   14.6471    1.4895    4.1688 C   0  0  0  0  0  0  0  0  0  0  0  0
   13.8244    1.4978    3.0211 N   0  0  0  0  0  0  0  0  0  0  0  0
   14.4783    1.0713    1.7635 C   0  0  2  0  0  0  0  0  0  0  0  0
   15.2104    2.2631    1.1386 C   0  0  0  0  0  0  0  0  0  0  0  0
   13.4409    0.4649    0.7833 C   0  0  1  0  0  0  0  0  0  0  0  0
   14.0983   -0.0853   -0.4836 C   0  0  0  0  0  0  0  0  0  0  0  0
   12.7493   -0.6141    1.4337 O   0  0  0  0  0  0  0  0  0  0  0  0
   15.9225    1.0905    4.0320 N   0  0  0  0  0  0  0  0  0  0  0  0
   18.2781    0.4258    2.4611 C   0  0  0  0  0  0  0  0  0  0  0  0
   19.0395    0.3213    1.3007 C   0  0  0  0  0  0  0  0  0  0  0  0
   22.3401   -2.9541   -1.8242 H   0  0  0  0  0  0  0  0  0  0  0  0
   23.3696   -1.5731   -1.4145 H   0  0  0  0  0  0  0  0  0  0  0  0
   22.0035   -1.3545   -2.5158 H   0  0  0  0  0  0  0  0  0  0  0  0
   21.7956   -2.0834    0.4625 H   0  0  0  0  0  0  0  0  0  0  0  0
   20.4153   -1.9011   -0.6459 H   0  0  0  0  0  0  0  0  0  0  0  0
   23.3459    0.8198   -0.5719 H   0  0  0  0  0  0  0  0  0  0  0  0
   22.1073    0.1607    2.7562 H   0  0  0  0  0  0  0  0  0  0  0  0
   20.7364    0.3559    4.7871 H   0  0  0  0  0  0  0  0  0  0  0  0
   18.5994    0.8262    5.7667 H   0  0  0  0  0  0  0  0  0  0  0  0
   14.8606    2.2769    7.4159 H   0  0  0  0  0  0  0  0  0  0  0  0
   12.9787    0.9548    3.2036 H   0  0  0  0  0  0  0  0  0  0  0  0
   15.1757    0.2539    1.9728 H   0  0  0  0  0  0  0  0  0  0  0  0
   14.4998    3.0094    0.7669 H   0  0  0  0  0  0  0  0  0  0  0  0
   15.8404    1.9458    0.3017 H   0  0  0  0  0  0  0  0  0  0  0  0
   15.8639    2.7664    1.8588 H   0  0  0  0  0  0  0  0  0  0  0  0
   12.6851    1.2105    0.5153 H   0  0  0  0  0  0  0  0  0  0  0  0
   14.9072   -0.7825   -0.2331 H   0  0  0  0  0  0  0  0  0  0  0  0
   14.5153    0.7120   -1.1056 H   0  0  0  0  0  0  0  0  0  0  0  0
   13.3761   -0.6479   -1.0836 H   0  0  0  0  0  0  0  0  0  0  0  0
   13.3761   -1.3538    1.5247 H   0  0  0  0  0  0  0  0  0  0  0  0
   17.2109    0.4831    2.3280 H   0  0  0  0  0  0  0  0  0  0  0  0
   18.5405    0.3332    0.3346 H   0  0  0  0  0  0  0  0  0  0  0  0
  1  2  1  0  0  0  0
  1 26  1  0  0  0  0
  1 27  1  0  0  0  0
  1 28  1  0  0  0  0
  2  3  1  0  0  0  0
  2 29  1  0  0  0  0
  2 30  1  0  0  0  0
  3  4  2  0  0  0  0
  3  5  2  6  0  0  0
  3  6  1  0  0  0  0
  4 31  1  0  0  0  0
  6  7  1  0  0  0  0
  6 25  2  0  0  0  0
  7  8  2  0  0  0  0
  7 32  1  0  0  0  0
  8  9  1  0  0  0  0
  8 33  1  0  0  0  0
  9 10  1  0  0  0  0
  9 24  2  0  0  0  0
 10 11  1  0  0  0  0
 10 34  1  0  0  0  0
 11 12  1  0  0  0  0
 11 23  2  0  0  0  0
 12 13  2  0  0  0  0
 13 14  1  0  0  0  0
 13 35  1  0  0  0  0
 14 15  1  0  0  0  0
 14 16  2  0  0  0  0
 16 17  1  0  0  0  0
 16 23  1  0  0  0  0
 17 36  1  0  0  0  0
 18 20  1  0  0  0  0
 18 19  1  0  0  0  0
 18 17  1  0  0  0  0
 18 37  1  1  0  0  0
 19 38  1  0  0  0  0
 19 39  1  0  0  0  0
 19 40  1  0  0  0  0
 20 21  1  0  0  0  0
 20 22  1  0  0  0  0
 20 41  1  6  0  0  0
 21 42  1  0  0  0  0
 21 43  1  0  0  0  0
 21 44  1  0  0  0  0
 22 45  1  0  0  0  0
 24 25  1  0  0  0  0
 24 46  1  0  0  0  0
 25 47  1  0  0  0  0
M  END
$$$$
