CHEMBL3775415
 OpenBabel04072215373D

 40 42  0  0  0  0  0  0  0  0999 V2000
    3.3960   -0.0913    1.2504 C   0  0  0  0  0  0  0  0  0  0  0  0
    2.4793    0.1640    0.1786 O   0  0  0  0  0  0  0  0  0  0  0  0
    3.0271    0.1601   -1.0769 C   0  0  0  0  0  0  0  0  0  0  0  0
    4.1127   -0.6769   -1.3935 C   0  0  0  0  0  0  0  0  0  0  0  0
    4.7722   -0.6242   -2.6105 C   0  0  0  0  0  0  0  0  0  0  0  0
    5.8395   -1.4052   -2.8049 N   0  0  0  0  0  0  0  0  0  0  0  0
    6.4747   -1.2668   -3.9734 C   0  0  0  0  0  0  0  0  0  0  0  0
    6.1418   -0.4224   -4.9509 N   0  0  0  0  0  0  0  0  0  0  0  0
    5.0615    0.3568   -4.7462 C   0  0  0  0  0  0  0  0  0  0  0  0
    4.7022    1.3142   -5.7396 N   0  0  0  0  0  0  0  0  0  0  0  0
    5.2902    1.3316   -7.0292 C   0  0  0  0  0  0  0  0  0  0  0  0
    5.3418    0.1423   -7.7662 C   0  0  0  0  0  0  0  0  0  0  0  0
    6.0709    0.0745   -8.9467 C   0  0  0  0  0  0  0  0  0  0  0  0
    6.1856   -1.1224   -9.5935 O   0  0  0  0  0  0  0  0  0  0  0  0
    6.7215    1.1989   -9.4547 C   0  0  0  0  0  0  0  0  0  0  0  0
    7.5953    1.1253  -10.6720 C   0  0  0  0  0  0  0  0  0  0  0  0
    6.5781    2.4220   -8.7791 C   0  0  0  0  0  0  0  0  0  0  0  0
    5.8728    2.4863   -7.5735 C   0  0  0  0  0  0  0  0  0  0  0  0
    5.7899    3.9963   -6.7362 Cl  0  0  0  0  0  0  0  0  0  0  0  0
    4.3069    0.2739   -3.5712 C   0  0  0  0  0  0  0  0  0  0  0  0
    3.1427    1.0256   -3.3147 C   0  0  0  0  0  0  0  0  0  0  0  0
    2.5018    0.9877   -2.0740 C   0  0  0  0  0  0  0  0  0  0  0  0
    1.4365    1.8385   -2.0485 O   0  0  0  0  0  0  0  0  0  0  0  0
    0.7070    2.0451   -0.8539 C   0  0  0  0  0  0  0  0  0  0  0  0
    3.1183    0.5459    2.0941 H   0  0  0  0  0  0  0  0  0  0  0  0
    4.4391    0.1455    1.0051 H   0  0  0  0  0  0  0  0  0  0  0  0
    3.3101   -1.1371    1.5593 H   0  0  0  0  0  0  0  0  0  0  0  0
    4.4814   -1.4034   -0.6680 H   0  0  0  0  0  0  0  0  0  0  0  0
    7.3410   -1.8952   -4.1414 H   0  0  0  0  0  0  0  0  0  0  0  0
    4.7169    2.2467   -5.3249 H   0  0  0  0  0  0  0  0  0  0  0  0
    4.8446   -0.7401   -7.3733 H   0  0  0  0  0  0  0  0  0  0  0  0
    5.8627   -1.8202   -8.9984 H   0  0  0  0  0  0  0  0  0  0  0  0
    7.7404    0.0968  -11.0168 H   0  0  0  0  0  0  0  0  0  0  0  0
    8.5896    1.5200  -10.4297 H   0  0  0  0  0  0  0  0  0  0  0  0
    7.1645    1.7057  -11.4894 H   0  0  0  0  0  0  0  0  0  0  0  0
    7.0551    3.3156   -9.1744 H   0  0  0  0  0  0  0  0  0  0  0  0
    2.7276    1.6688   -4.0895 H   0  0  0  0  0  0  0  0  0  0  0  0
    0.1031    2.9467   -1.0069 H   0  0  0  0  0  0  0  0  0  0  0  0
    1.3519    2.2463    0.0037 H   0  0  0  0  0  0  0  0  0  0  0  0
    0.0205    1.2137   -0.6711 H   0  0  0  0  0  0  0  0  0  0  0  0
  1  2  1  0  0  0  0
  1 25  1  0  0  0  0
  1 26  1  0  0  0  0
  1 27  1  0  0  0  0
  2  3  1  0  0  0  0
  3  4  1  0  0  0  0
  3 22  2  0  0  0  0
  4  5  2  0  0  0  0
  4 28  1  0  0  0  0
  5  6  1  0  0  0  0
  5 20  1  0  0  0  0
  6  7  2  0  0  0  0
  7  8  1  0  0  0  0
  7 29  1  0  0  0  0
  8  9  2  0  0  0  0
  9 10  1  0  0  0  0
  9 20  1  0  0  0  0
 10 11  1  0  0  0  0
 10 30  1  0  0  0  0
 11 12  1  0  0  0  0
 11 18  2  0  0  0  0
 12 13  2  0  0  0  0
 12 31  1  0  0  0  0
 13 14  1  0  0  0  0
 13 15  1  0  0  0  0
 14 32  1  0  0  0  0
 15 16  1  0  0  0  0
 15 17  2  0  0  0  0
 16 33  1  0  0  0  0
 16 34  1  0  0  0  0
 16 35  1  0  0  0  0
 17 18  1  0  0  0  0
 17 36  1  0  0  0  0
 18 19  1  0  0  0  0
 20 21  2  0  0  0  0
 21 22  1  0  0  0  0
 21 37  1  0  0  0  0
 22 23  1  0  0  0  0
 23 24  1  0  0  0  0
 24 38  1  0  0  0  0
 24 39  1  0  0  0  0
 24 40  1  0  0  0  0
M  END
$$$$
