CHEMBL189542
 OpenBabel04072215363D

 72 74  0  0  0  0  0  0  0  0999 V2000
    4.0500   -3.4335   -0.5997 C   0  0  0  0  0  0  0  0  0  0  0  0
    5.4571   -2.9342   -0.2971 C   0  0  0  0  0  0  0  0  0  0  0  0
    6.1275   -3.5813    0.8433 N   0  0  0  0  0  0  0  0  0  0  0  0
    6.1776   -5.0519    0.7547 C   0  0  0  0  0  0  0  0  0  0  0  0
    7.0375   -5.6329   -0.3662 C   0  0  0  0  0  0  0  0  0  0  0  0
    7.4689   -3.0099    1.0625 C   0  0  0  0  0  0  0  0  0  0  0  0
    7.4769   -1.5076    1.3889 C   0  0  0  0  0  0  0  0  0  0  0  0
    6.7105   -1.1258    2.6596 C   0  0  0  0  0  0  0  0  0  0  0  0
    7.2644   -1.7814    3.9227 C   0  0  0  0  0  0  0  0  0  0  0  0
    8.6246   -1.3052    4.1642 N   0  0  0  0  0  0  0  0  0  0  0  0
    9.2325   -1.8600    5.2951 C   0  0  0  0  0  0  0  0  0  0  0  0
   10.2451   -1.1333    5.9079 C   0  0  0  0  0  0  0  0  0  0  0  0
   10.7406   -1.5427    7.1301 C   0  0  0  0  0  0  0  0  0  0  0  0
   11.6013   -0.7643    7.8107 N   0  0  0  0  0  0  0  0  0  0  0  0
   11.9973   -1.1609    9.0431 C   0  0  0  0  0  0  0  0  0  0  0  0
   12.8103   -0.2416    9.7186 N   0  0  0  0  0  0  0  0  0  0  0  0
   14.1713   -0.1713    9.6390 C   0  0  0  0  0  0  0  0  0  0  0  0
   14.7527    0.7476   10.2214 O   0  0  0  0  0  0  0  0  0  0  0  0
   14.8053   -1.1169    8.8890 N   0  0  0  0  0  0  0  0  0  0  0  0
   16.2631   -1.1859    8.6933 C   0  0  0  0  0  0  0  0  0  0  0  0
   16.9575   -1.4837   10.0318 C   0  0  0  0  0  0  0  0  0  0  0  0
   16.5666   -2.3338    7.7121 C   0  0  0  0  0  0  0  0  0  0  0  0
   16.8320    0.1104    8.0878 C   0  0  0  0  0  0  0  0  0  0  0  0
   11.5692   -2.3424    9.6765 C   0  0  0  0  0  0  0  0  0  0  0  0
   11.9125   -2.7602   11.0592 C   0  0  0  0  0  0  0  0  0  0  0  0
   12.0365   -1.8463   12.1205 C   0  0  0  0  0  0  0  0  0  0  0  0
   12.3942   -2.2631   13.4067 C   0  0  0  0  0  0  0  0  0  0  0  0
   12.5977   -3.6123   13.6718 C   0  0  0  0  0  0  0  0  0  0  0  0
   12.4240   -4.5462   12.6584 C   0  0  0  0  0  0  0  0  0  0  0  0
   12.0907   -4.1234   11.3699 C   0  0  0  0  0  0  0  0  0  0  0  0
   10.6995   -3.1441    8.9205 C   0  0  0  0  0  0  0  0  0  0  0  0
   10.2727   -2.7498    7.6510 C   0  0  0  0  0  0  0  0  0  0  0  0
    9.3574   -3.4859    6.9105 C   0  0  0  0  0  0  0  0  0  0  0  0
    8.8213   -3.0523    5.7584 N   0  0  0  0  0  0  0  0  0  0  0  0
    3.5552   -2.7304   -1.2786 H   0  0  0  0  0  0  0  0  0  0  0  0
    3.4439   -3.4974    0.3098 H   0  0  0  0  0  0  0  0  0  0  0  0
    4.0639   -4.4113   -1.0892 H   0  0  0  0  0  0  0  0  0  0  0  0
    5.3356   -1.8691   -0.0760 H   0  0  0  0  0  0  0  0  0  0  0  0
    6.0688   -3.0010   -1.2044 H   0  0  0  0  0  0  0  0  0  0  0  0
    5.1599   -5.4497    0.6667 H   0  0  0  0  0  0  0  0  0  0  0  0
    6.5406   -5.4500    1.7114 H   0  0  0  0  0  0  0  0  0  0  0  0
    6.8733   -5.1267   -1.3213 H   0  0  0  0  0  0  0  0  0  0  0  0
    6.7965   -6.6915   -0.5118 H   0  0  0  0  0  0  0  0  0  0  0  0
    8.1018   -5.5672   -0.1194 H   0  0  0  0  0  0  0  0  0  0  0  0
    8.0996   -3.1617    0.1787 H   0  0  0  0  0  0  0  0  0  0  0  0
    7.9626   -3.5464    1.8851 H   0  0  0  0  0  0  0  0  0  0  0  0
    7.0765   -0.9290    0.5495 H   0  0  0  0  0  0  0  0  0  0  0  0
    8.5197   -1.1786    1.4689 H   0  0  0  0  0  0  0  0  0  0  0  0
    5.6515   -1.3902    2.5548 H   0  0  0  0  0  0  0  0  0  0  0  0
    6.7473   -0.0349    2.7733 H   0  0  0  0  0  0  0  0  0  0  0  0
    7.2084   -2.8724    3.8440 H   0  0  0  0  0  0  0  0  0  0  0  0
    6.6302   -1.4822    4.7681 H   0  0  0  0  0  0  0  0  0  0  0  0
    9.2550   -1.4252    3.3784 H   0  0  0  0  0  0  0  0  0  0  0  0
   10.5680   -0.1887    5.4844 H   0  0  0  0  0  0  0  0  0  0  0  0
   12.4467    0.7005    9.7215 H   0  0  0  0  0  0  0  0  0  0  0  0
   14.2327   -1.5337    8.1654 H   0  0  0  0  0  0  0  0  0  0  0  0
   16.4329   -2.2752   10.5796 H   0  0  0  0  0  0  0  0  0  0  0  0
   16.9810   -0.6000   10.6786 H   0  0  0  0  0  0  0  0  0  0  0  0
   17.9936   -1.8072    9.8818 H   0  0  0  0  0  0  0  0  0  0  0  0
   16.2273   -3.2978    8.1061 H   0  0  0  0  0  0  0  0  0  0  0  0
   17.6412   -2.4108    7.5085 H   0  0  0  0  0  0  0  0  0  0  0  0
   16.0601   -2.1747    6.7522 H   0  0  0  0  0  0  0  0  0  0  0  0
   16.7108    0.9689    8.7554 H   0  0  0  0  0  0  0  0  0  0  0  0
   16.3371    0.3577    7.1424 H   0  0  0  0  0  0  0  0  0  0  0  0
   17.9066    0.0116    7.8910 H   0  0  0  0  0  0  0  0  0  0  0  0
   11.8582   -0.7841   11.9699 H   0  0  0  0  0  0  0  0  0  0  0  0
   12.5154   -1.5276   14.1980 H   0  0  0  0  0  0  0  0  0  0  0  0
   12.8894   -3.9356   14.6669 H   0  0  0  0  0  0  0  0  0  0  0  0
   12.5566   -5.6051   12.8613 H   0  0  0  0  0  0  0  0  0  0  0  0
   11.9787   -4.8875   10.6039 H   0  0  0  0  0  0  0  0  0  0  0  0
   10.2867   -4.0578    9.3437 H   0  0  0  0  0  0  0  0  0  0  0  0
    8.9892   -4.4504    7.2483 H   0  0  0  0  0  0  0  0  0  0  0  0
  1  2  1  0  0  0  0
  1 35  1  0  0  0  0
  1 36  1  0  0  0  0
  1 37  1  0  0  0  0
  2  3  1  0  0  0  0
  2 38  1  0  0  0  0
  2 39  1  0  0  0  0
  3  4  1  0  0  0  0
  3  6  1  0  0  0  0
  4  5  1  0  0  0  0
  4 40  1  0  0  0  0
  4 41  1  0  0  0  0
  5 42  1  0  0  0  0
  5 43  1  0  0  0  0
  5 44  1  0  0  0  0
  6  7  1  0  0  0  0
  6 45  1  0  0  0  0
  6 46  1  0  0  0  0
  7  8  1  0  0  0  0
  7 47  1  0  0  0  0
  7 48  1  0  0  0  0
  8  9  1  0  0  0  0
  8 49  1  0  0  0  0
  8 50  1  0  0  0  0
  9 10  1  0  0  0  0
  9 51  1  0  0  0  0
  9 52  1  0  0  0  0
 10 11  1  0  0  0  0
 10 53  1  0  0  0  0
 11 12  1  0  0  0  0
 11 34  2  0  0  0  0
 12 13  2  0  0  0  0
 12 54  1  0  0  0  0
 13 14  1  0  0  0  0
 13 32  1  0  0  0  0
 14 15  2  0  0  0  0
 15 16  1  0  0  0  0
 15 24  1  0  0  0  0
 16 17  1  0  0  0  0
 16 55  1  0  0  0  0
 17 18  2  0  0  0  0
 17 19  1  0  0  0  0
 19 20  1  0  0  0  0
 19 56  1  0  0  0  0
 20 21  1  0  0  0  0
 20 22  1  0  0  0  0
 20 23  1  0  0  0  0
 21 57  1  0  0  0  0
 21 58  1  0  0  0  0
 21 59  1  0  0  0  0
 22 60  1  0  0  0  0
 22 61  1  0  0  0  0
 22 62  1  0  0  0  0
 23 63  1  0  0  0  0
 23 64  1  0  0  0  0
 23 65  1  0  0  0  0
 24 25  1  0  0  0  0
 24 31  2  0  0  0  0
 25 26  1  0  0  0  0
 25 30  2  0  0  0  0
 26 27  2  0  0  0  0
 26 66  1  0  0  0  0
 27 28  1  0  0  0  0
 27 67  1  0  0  0  0
 28 29  2  0  0  0  0
 28 68  1  0  0  0  0
 29 30  1  0  0  0  0
 29 69  1  0  0  0  0
 30 70  1  0  0  0  0
 31 32  1  0  0  0  0
 31 71  1  0  0  0  0
 32 33  2  0  0  0  0
 33 34  1  0  0  0  0
 33 72  1  0  0  0  0
M  END
$$$$
