CHEMBL183844
 OpenBabel04072215363D

 49 52  0  0  0  0  0  0  0  0999 V2000
    2.7224   -6.1714   -1.4943 C   0  0  0  0  0  0  0  0  0  0  0  0
    1.2975   -6.4934   -1.1532 C   0  0  0  0  0  0  0  0  0  0  0  0
    0.8763   -7.8291   -1.1353 C   0  0  0  0  0  0  0  0  0  0  0  0
   -0.4358   -8.1431   -0.8203 C   0  0  0  0  0  0  0  0  0  0  0  0
   -1.3444   -7.1279   -0.5358 C   0  0  0  0  0  0  0  0  0  0  0  0
   -0.9646   -5.7822   -0.5732 C   0  0  0  0  0  0  0  0  0  0  0  0
   -1.8826   -4.7251   -0.3479 N   0  0  0  0  0  0  0  0  0  0  0  0
   -3.2620   -4.8628   -0.3405 C   0  0  0  0  0  0  0  0  0  0  0  0
   -3.8731   -5.9099   -0.5276 O   0  0  0  0  0  0  0  0  0  0  0  0
   -3.9115   -3.6506   -0.1413 N   0  0  0  0  0  0  0  0  0  0  0  0
   -5.3273   -3.6275   -0.0575 C   0  0  0  0  0  0  0  0  0  0  0  0
   -5.9723   -4.4835    0.8354 C   0  0  0  0  0  0  0  0  0  0  0  0
   -7.3629   -4.4834    0.9399 C   0  0  0  0  0  0  0  0  0  0  0  0
   -8.1640   -3.6819    0.1161 C   0  0  0  0  0  0  0  0  0  0  0  0
   -9.6417   -3.7897    0.1124 C   0  0  0  0  0  0  0  0  0  0  0  0
  -10.4669   -2.6588   -0.1035 C   0  0  0  0  0  0  0  0  0  0  0  0
  -11.8737   -2.7470   -0.1795 C   0  0  0  0  0  0  0  0  0  0  0  0
  -12.5107   -3.9746   -0.0354 C   0  0  0  0  0  0  0  0  0  0  0  0
  -11.7088   -5.0744    0.1765 C   0  0  0  0  0  0  0  0  0  0  0  0
  -10.3109   -5.0095    0.2546 C   0  0  0  0  0  0  0  0  0  0  0  0
   -9.7768   -6.3927    0.4646 C   0  0  0  0  0  0  0  0  0  0  0  0
  -10.9612   -7.2098    0.4550 N   0  0  0  0  0  0  0  0  0  0  0  0
  -12.1114   -6.4752    0.3302 C   0  0  0  0  0  0  0  0  0  0  0  0
  -13.2553   -6.8935    0.3507 O   0  0  0  0  0  0  0  0  0  0  0  0
   -7.4940   -2.8117   -0.7641 C   0  0  0  0  0  0  0  0  0  0  0  0
   -6.0876   -2.7744   -0.8660 C   0  0  0  0  0  0  0  0  0  0  0  0
   -5.4617   -1.9125   -1.9238 C   0  0  0  0  0  0  0  0  0  0  0  0
    0.3743   -5.4727   -0.8581 C   0  0  0  0  0  0  0  0  0  0  0  0
    3.2905   -7.0798   -1.7198 H   0  0  0  0  0  0  0  0  0  0  0  0
    3.2099   -5.6746   -0.6511 H   0  0  0  0  0  0  0  0  0  0  0  0
    2.7659   -5.5254   -2.3787 H   0  0  0  0  0  0  0  0  0  0  0  0
    1.5685   -8.6353   -1.3703 H   0  0  0  0  0  0  0  0  0  0  0  0
   -0.7684   -9.1788   -0.7963 H   0  0  0  0  0  0  0  0  0  0  0  0
   -2.3524   -7.4326   -0.2729 H   0  0  0  0  0  0  0  0  0  0  0  0
   -1.5050   -3.7970   -0.2480 H   0  0  0  0  0  0  0  0  0  0  0  0
   -3.4763   -2.8641   -0.5956 H   0  0  0  0  0  0  0  0  0  0  0  0
   -5.4021   -5.1715    1.4560 H   0  0  0  0  0  0  0  0  0  0  0  0
   -7.7967   -5.1425    1.6837 H   0  0  0  0  0  0  0  0  0  0  0  0
  -10.0218   -1.6726   -0.2230 H   0  0  0  0  0  0  0  0  0  0  0  0
  -12.4622   -1.8501   -0.3594 H   0  0  0  0  0  0  0  0  0  0  0  0
  -13.5905   -4.0731   -0.0975 H   0  0  0  0  0  0  0  0  0  0  0  0
   -9.3191   -6.5204    1.4479 H   0  0  0  0  0  0  0  0  0  0  0  0
   -9.1093   -6.7177   -0.3381 H   0  0  0  0  0  0  0  0  0  0  0  0
  -10.9799   -8.2041    0.6450 H   0  0  0  0  0  0  0  0  0  0  0  0
   -8.0758   -2.1777   -1.4322 H   0  0  0  0  0  0  0  0  0  0  0  0
   -6.2179   -1.4781   -2.5849 H   0  0  0  0  0  0  0  0  0  0  0  0
   -4.7992   -2.5161   -2.5552 H   0  0  0  0  0  0  0  0  0  0  0  0
   -4.8940   -1.0973   -1.4670 H   0  0  0  0  0  0  0  0  0  0  0  0
    0.7059   -4.4361   -0.8864 H   0  0  0  0  0  0  0  0  0  0  0  0
  1  2  1  0  0  0  0
  1 29  1  0  0  0  0
  1 30  1  0  0  0  0
  1 31  1  0  0  0  0
  2  3  1  0  0  0  0
  2 28  2  0  0  0  0
  3  4  2  0  0  0  0
  3 32  1  0  0  0  0
  4  5  1  0  0  0  0
  4 33  1  0  0  0  0
  5  6  2  0  0  0  0
  5 34  1  0  0  0  0
  6  7  1  0  0  0  0
  6 28  1  0  0  0  0
  7  8  1  0  0  0  0
  7 35  1  0  0  0  0
  8  9  2  0  0  0  0
  8 10  1  0  0  0  0
 10 11  1  0  0  0  0
 10 36  1  0  0  0  0
 11 12  1  0  0  0  0
 11 26  2  0  0  0  0
 12 13  2  0  0  0  0
 12 37  1  0  0  0  0
 13 14  1  0  0  0  0
 13 38  1  0  0  0  0
 14 15  1  0  0  0  0
 14 25  2  0  0  0  0
 15 16  1  0  0  0  0
 15 20  2  0  0  0  0
 16 17  2  0  0  0  0
 16 39  1  0  0  0  0
 17 18  1  0  0  0  0
 17 40  1  0  0  0  0
 18 19  2  0  0  0  0
 18 41  1  0  0  0  0
 19 20  1  0  0  0  0
 19 23  1  0  0  0  0
 20 21  1  0  0  0  0
 21 22  1  0  0  0  0
 21 42  1  0  0  0  0
 21 43  1  0  0  0  0
 22 23  1  0  0  0  0
 22 44  1  0  0  0  0
 23 24  2  0  0  0  0
 25 26  1  0  0  0  0
 25 45  1  0  0  0  0
 26 27  1  0  0  0  0
 27 46  1  0  0  0  0
 27 47  1  0  0  0  0
 27 48  1  0  0  0  0
 28 49  1  0  0  0  0
M  END
$$$$
