CHEMBL382710
 OpenBabel04072215373D

 57 61  0  0  0  0  0  0  0  0999 V2000
    1.2934   -0.2066    0.3019 O   0  0  0  0  0  0  0  0  0  0  0  0
    2.4185   -0.0619   -0.1855 C   0  0  0  0  0  0  0  0  0  0  0  0
    3.1864    1.1474    0.2325 C   0  0  0  0  0  0  0  0  0  0  0  0
    3.1212    1.5216    1.5765 C   0  0  0  0  0  0  0  0  0  0  0  0
    3.7976    2.6643    2.0221 C   0  0  0  0  0  0  0  0  0  0  0  0
    4.5023    3.5083    1.1381 C   0  0  0  0  0  0  0  0  0  0  0  0
    5.1190    4.7927    1.5679 C   0  0  0  0  0  0  0  0  0  0  0  0
    6.2875    5.0883    0.9512 N   0  0  0  0  0  0  0  0  0  0  0  0
    6.9921    6.2232    1.2792 N   0  0  0  0  0  0  0  0  0  0  0  0
    6.5723    7.0428    2.2654 C   0  0  0  0  0  0  0  0  0  0  0  0
    7.3357    8.2001    2.6142 N   0  0  0  0  0  0  0  0  0  0  0  0
    8.2491    8.8783    1.7609 C   0  0  0  0  0  0  0  0  0  0  0  0
    8.0194    9.0470    0.3910 C   0  0  0  0  0  0  0  0  0  0  0  0
    8.8666    9.8450   -0.3932 C   0  0  0  0  0  0  0  0  0  0  0  0
    9.9499   10.4998    0.1881 C   0  0  0  0  0  0  0  0  0  0  0  0
   10.8923   11.2397   -0.4646 O   0  0  0  0  0  0  0  0  0  0  0  0
   10.5151   11.8963   -1.6687 C   0  0  0  0  0  0  0  0  0  0  0  0
   10.1575   10.9951   -2.6152 F   0  0  0  0  0  0  0  0  0  0  0  0
    9.4551   12.7081   -1.4323 F   0  0  0  0  0  0  0  0  0  0  0  0
   11.8795   12.8522   -2.2635 Cl  0  0  0  0  0  0  0  0  0  0  0  0
   10.1619   10.3660    1.5620 C   0  0  0  0  0  0  0  0  0  0  0  0
    9.3043    9.5863    2.3446 C   0  0  0  0  0  0  0  0  0  0  0  0
    5.3917    6.7382    2.9922 C   0  0  0  0  0  0  0  0  0  0  0  0
    4.9628    7.4752    4.1290 C   0  0  0  0  0  0  0  0  0  0  0  0
    3.7339    7.2265    4.7459 C   0  0  0  0  0  0  0  0  0  0  0  0
    2.8850    6.2745    4.2187 C   0  0  0  0  0  0  0  0  0  0  0  0
    3.3008    5.5160    3.1315 C   0  0  0  0  0  0  0  0  0  0  0  0
    4.5936    5.6558    2.5565 C   0  0  0  0  0  0  0  0  0  0  0  0
    4.5910    3.0838   -0.1987 C   0  0  0  0  0  0  0  0  0  0  0  0
    3.9146    1.9429   -0.6530 C   0  0  0  0  0  0  0  0  0  0  0  0
    2.9858   -0.9964   -1.0543 N   0  0  0  0  0  0  0  0  0  0  0  0
    2.1369   -2.0741   -1.5628 C   0  0  0  0  0  0  0  0  0  0  0  0
    2.9157   -3.3867   -1.7136 C   0  0  0  0  0  0  0  0  0  0  0  0
    4.0856   -3.2004   -2.5241 O   0  0  0  0  0  0  0  0  0  0  0  0
    4.9660   -2.2557   -1.9045 C   0  0  0  0  0  0  0  0  0  0  0  0
    4.2906   -0.8950   -1.7232 C   0  0  0  0  0  0  0  0  0  0  0  0
    2.5326    0.9366    2.2800 H   0  0  0  0  0  0  0  0  0  0  0  0
    3.7424    2.8920    3.0854 H   0  0  0  0  0  0  0  0  0  0  0  0
    6.6822    8.9162    2.9221 H   0  0  0  0  0  0  0  0  0  0  0  0
    7.1761    8.5568   -0.0904 H   0  0  0  0  0  0  0  0  0  0  0  0
    8.6508    9.9052   -1.4550 H   0  0  0  0  0  0  0  0  0  0  0  0
   10.9970   10.8777    2.0347 H   0  0  0  0  0  0  0  0  0  0  0  0
    9.4781    9.5172    3.4157 H   0  0  0  0  0  0  0  0  0  0  0  0
    5.5858    8.2475    4.5618 H   0  0  0  0  0  0  0  0  0  0  0  0
    3.4387    7.7971    5.6253 H   0  0  0  0  0  0  0  0  0  0  0  0
    1.9021    6.1031    4.6575 H   0  0  0  0  0  0  0  0  0  0  0  0
    2.5856    4.8049    2.7238 H   0  0  0  0  0  0  0  0  0  0  0  0
    5.1802    3.6584   -0.9136 H   0  0  0  0  0  0  0  0  0  0  0  0
    3.9589    1.7080   -1.7118 H   0  0  0  0  0  0  0  0  0  0  0  0
    1.7776   -1.7459   -2.5470 H   0  0  0  0  0  0  0  0  0  0  0  0
    1.2634   -2.2344   -0.9228 H   0  0  0  0  0  0  0  0  0  0  0  0
    2.2925   -4.1438   -2.1990 H   0  0  0  0  0  0  0  0  0  0  0  0
    3.2188   -3.7773   -0.7351 H   0  0  0  0  0  0  0  0  0  0  0  0
    5.8486   -2.1472   -2.5417 H   0  0  0  0  0  0  0  0  0  0  0  0
    5.2979   -2.6542   -0.9382 H   0  0  0  0  0  0  0  0  0  0  0  0
    4.0951   -0.4499   -2.7060 H   0  0  0  0  0  0  0  0  0  0  0  0
    4.9772   -0.2553   -1.1686 H   0  0  0  0  0  0  0  0  0  0  0  0
  1  2  2  0  0  0  0
  2  3  1  0  0  0  0
  2 31  1  0  0  0  0
  3  4  1  0  0  0  0
  3 30  2  0  0  0  0
  4  5  2  0  0  0  0
  4 37  1  0  0  0  0
  5  6  1  0  0  0  0
  5 38  1  0  0  0  0
  6  7  1  0  0  0  0
  6 29  2  0  0  0  0
  7  8  1  0  0  0  0
  7 28  2  0  0  0  0
  8  9  2  0  0  0  0
  9 10  1  0  0  0  0
 10 11  1  0  0  0  0
 10 23  2  0  0  0  0
 11 12  1  0  0  0  0
 11 39  1  0  0  0  0
 12 13  1  0  0  0  0
 12 22  2  0  0  0  0
 13 14  2  0  0  0  0
 13 40  1  0  0  0  0
 14 15  1  0  0  0  0
 14 41  1  0  0  0  0
 15 16  1  0  0  0  0
 15 21  2  0  0  0  0
 16 17  1  0  0  0  0
 17 18  1  0  0  0  0
 17 19  1  0  0  0  0
 17 20  1  0  0  0  0
 21 22  1  0  0  0  0
 21 42  1  0  0  0  0
 22 43  1  0  0  0  0
 23 24  1  0  0  0  0
 23 28  1  0  0  0  0
 24 25  2  0  0  0  0
 24 44  1  0  0  0  0
 25 26  1  0  0  0  0
 25 45  1  0  0  0  0
 26 27  2  0  0  0  0
 26 46  1  0  0  0  0
 27 28  1  0  0  0  0
 27 47  1  0  0  0  0
 29 30  1  0  0  0  0
 29 48  1  0  0  0  0
 30 49  1  0  0  0  0
 31 32  1  0  0  0  0
 31 36  1  0  0  0  0
 32 33  1  0  0  0  0
 32 50  1  0  0  0  0
 32 51  1  0  0  0  0
 33 34  1  0  0  0  0
 33 52  1  0  0  0  0
 33 53  1  0  0  0  0
 34 35  1  0  0  0  0
 35 36  1  0  0  0  0
 35 54  1  0  0  0  0
 35 55  1  0  0  0  0
 36 56  1  0  0  0  0
 36 57  1  0  0  0  0
M  END
$$$$
