CHEMBL216020
 OpenBabel04072215363D

 50 54  0  0  0  0  0  0  0  0999 V2000
    1.8925   -0.0640   -1.1114 C   0  0  0  0  0  0  0  0  0  0  0  0
    0.4518    0.1587   -1.0948 N   0  0  0  0  0  0  0  0  0  0  0  0
   -0.2751   -1.0584   -0.6980 C   0  0  0  0  0  0  0  0  0  0  0  0
   -1.7984   -0.7988   -0.7306 C   0  0  0  0  0  0  0  0  0  0  0  0
   -2.2443    0.2477    0.2190 N   0  0  0  0  0  0  0  0  0  0  0  0
   -2.0712   -0.1063    1.6474 C   0  0  0  0  0  0  0  0  0  0  0  0
   -2.8138   -1.3480    2.1083 C   0  0  0  0  0  0  0  0  0  0  0  0
   -2.2100   -2.6227    2.0214 C   0  0  0  0  0  0  0  0  0  0  0  0
   -2.9014   -3.8079    2.3382 C   0  0  0  0  0  0  0  0  0  0  0  0
   -4.2031   -3.7732    2.8218 C   0  0  0  0  0  0  0  0  0  0  0  0
   -4.7655   -2.5287    2.9943 C   0  0  0  0  0  0  0  0  0  0  0  0
   -4.0959   -1.3171    2.6419 C   0  0  0  0  0  0  0  0  0  0  0  0
   -4.9476   -0.0646    2.9703 C   0  0  0  0  0  0  0  0  0  0  0  0
   -6.1210   -0.7750    3.5606 C   0  0  0  0  0  0  0  0  0  0  0  0
   -7.3382   -0.5065    4.2162 C   0  0  0  0  0  0  0  0  0  0  0  0
   -7.9125    0.8005    4.5090 C   0  0  0  0  0  0  0  0  0  0  0  0
   -7.6594    1.8829    3.6564 C   0  0  0  0  0  0  0  0  0  0  0  0
   -8.1180    3.1645    3.9766 C   0  0  0  0  0  0  0  0  0  0  0  0
   -8.8447    3.3643    5.1466 C   0  0  0  0  0  0  0  0  0  0  0  0
   -9.1401    2.2862    5.9822 C   0  0  0  0  0  0  0  0  0  0  0  0
   -8.6792    1.0045    5.6641 C   0  0  0  0  0  0  0  0  0  0  0  0
   -7.9182   -1.6684    4.6044 N   0  0  0  0  0  0  0  0  0  0  0  0
   -7.0774   -2.6450    4.1803 N   0  0  0  0  0  0  0  0  0  0  0  0
   -6.0036   -2.1289    3.5514 C   0  0  0  0  0  0  0  0  0  0  0  0
   -1.4674    1.4726   -0.1165 C   0  0  0  0  0  0  0  0  0  0  0  0
    0.0747    1.2768   -0.2084 C   0  0  0  0  0  0  0  0  0  0  0  0
    2.1451   -0.8914   -1.7838 H   0  0  0  0  0  0  0  0  0  0  0  0
    2.2920   -0.2955   -0.1178 H   0  0  0  0  0  0  0  0  0  0  0  0
    2.4101    0.8210   -1.4976 H   0  0  0  0  0  0  0  0  0  0  0  0
    0.0434   -1.3848    0.2976 H   0  0  0  0  0  0  0  0  0  0  0  0
   -0.0452   -1.8783   -1.3895 H   0  0  0  0  0  0  0  0  0  0  0  0
   -2.3591   -1.7293   -0.5956 H   0  0  0  0  0  0  0  0  0  0  0  0
   -2.0653   -0.4705   -1.7461 H   0  0  0  0  0  0  0  0  0  0  0  0
   -2.4340    0.7422    2.2422 H   0  0  0  0  0  0  0  0  0  0  0  0
   -1.0158   -0.2122    1.9237 H   0  0  0  0  0  0  0  0  0  0  0  0
   -1.1768   -2.7072    1.6999 H   0  0  0  0  0  0  0  0  0  0  0  0
   -2.4021   -4.7656    2.1962 H   0  0  0  0  0  0  0  0  0  0  0  0
   -4.7389   -4.6843    3.0600 H   0  0  0  0  0  0  0  0  0  0  0  0
   -5.2079    0.4866    2.0646 H   0  0  0  0  0  0  0  0  0  0  0  0
   -4.4474    0.5642    3.7106 H   0  0  0  0  0  0  0  0  0  0  0  0
   -7.1076    1.7465    2.7331 H   0  0  0  0  0  0  0  0  0  0  0  0
   -7.9034    3.9966    3.3154 H   0  0  0  0  0  0  0  0  0  0  0  0
   -9.1853    4.3611    5.4060 H   0  0  0  0  0  0  0  0  0  0  0  0
   -9.7176    2.4420    6.8876 H   0  0  0  0  0  0  0  0  0  0  0  0
   -8.9009    0.1751    6.3282 H   0  0  0  0  0  0  0  0  0  0  0  0
   -7.3061   -3.6116    4.3829 H   0  0  0  0  0  0  0  0  0  0  0  0
   -1.6981    2.2767    0.5922 H   0  0  0  0  0  0  0  0  0  0  0  0
   -1.8210    1.8355   -1.0922 H   0  0  0  0  0  0  0  0  0  0  0  0
    0.4776    1.1181    0.8001 H   0  0  0  0  0  0  0  0  0  0  0  0
    0.5175    2.2048   -0.5896 H   0  0  0  0  0  0  0  0  0  0  0  0
  1  2  1  0  0  0  0
  1 27  1  0  0  0  0
  1 28  1  0  0  0  0
  1 29  1  0  0  0  0
  2  3  1  0  0  0  0
  2 26  1  0  0  0  0
  3  4  1  0  0  0  0
  3 30  1  0  0  0  0
  3 31  1  0  0  0  0
  4  5  1  0  0  0  0
  4 32  1  0  0  0  0
  4 33  1  0  0  0  0
  5  6  1  0  0  0  0
  5 25  1  0  0  0  0
  6  7  1  0  0  0  0
  6 34  1  0  0  0  0
  6 35  1  0  0  0  0
  7  8  1  0  0  0  0
  7 12  2  0  0  0  0
  8  9  2  0  0  0  0
  8 36  1  0  0  0  0
  9 10  1  0  0  0  0
  9 37  1  0  0  0  0
 10 11  2  0  0  0  0
 10 38  1  0  0  0  0
 11 12  1  0  0  0  0
 11 24  1  0  0  0  0
 12 13  1  0  0  0  0
 13 14  1  0  0  0  0
 13 39  1  0  0  0  0
 13 40  1  0  0  0  0
 14 15  1  0  0  0  0
 14 24  2  0  0  0  0
 15 16  1  0  0  0  0
 15 22  2  0  0  0  0
 16 17  1  0  0  0  0
 16 21  2  0  0  0  0
 17 18  2  0  0  0  0
 17 41  1  0  0  0  0
 18 19  1  0  0  0  0
 18 42  1  0  0  0  0
 19 20  2  0  0  0  0
 19 43  1  0  0  0  0
 20 21  1  0  0  0  0
 20 44  1  0  0  0  0
 21 45  1  0  0  0  0
 22 23  1  0  0  0  0
 23 24  1  0  0  0  0
 23 46  1  0  0  0  0
 25 26  1  0  0  0  0
 25 47  1  0  0  0  0
 25 48  1  0  0  0  0
 26 49  1  0  0  0  0
 26 50  1  0  0  0  0
M  END
$$$$
