CHEMBL1910893
 OpenBabel04072215363D

 49 53  0  0  0  0  0  0  0  0999 V2000
    2.0227    2.4368    0.5888 O   0  0  0  0  0  0  0  0  0  0  0  0
    0.6968    2.1478    0.4760 C   0  0  0  0  0  0  0  0  0  0  0  0
    0.1760    1.5496   -0.6652 C   0  0  0  0  0  0  0  0  0  0  0  0
   -1.1930    1.2641   -0.7270 C   0  0  0  0  0  0  0  0  0  0  0  0
   -2.0580    1.5631    0.3425 C   0  0  0  0  0  0  0  0  0  0  0  0
   -3.4983    1.2188    0.2774 C   0  0  0  0  0  0  0  0  0  0  0  0
   -4.2277    0.9159    1.4338 C   0  0  0  0  0  0  0  0  0  0  0  0
   -5.5831    0.5933    1.3536 C   0  0  0  0  0  0  0  0  0  0  0  0
   -6.1714    0.5931    0.0832 C   0  0  0  0  0  0  0  0  0  0  0  0
   -7.4613    0.3583   -0.4895 C   0  0  0  0  0  0  0  0  0  0  0  0
   -8.7127    0.0517    0.2073 C   0  0  0  0  0  0  0  0  0  0  0  0
   -8.9773    0.5666    1.4797 C   0  0  0  0  0  0  0  0  0  0  0  0
  -10.1712    0.2607    2.1458 C   0  0  0  0  0  0  0  0  0  0  0  0
  -11.1481   -0.5555    1.5664 C   0  0  0  0  0  0  0  0  0  0  0  0
  -12.3364   -0.8506    2.2043 N   0  0  0  0  0  0  0  0  0  0  0  0
  -12.9786    0.0649    3.1574 C   0  0  0  0  0  0  0  0  0  0  0  0
  -13.1061   -0.5814    4.5537 C   0  0  0  0  0  0  0  0  0  0  0  0
  -13.7558   -1.9102    4.5311 N   0  0  0  0  0  0  0  0  0  0  0  0
  -12.9977   -2.7837    3.6090 C   0  0  0  0  0  0  0  0  0  0  0  0
  -12.8741   -2.2189    2.1736 C   0  0  0  0  0  0  0  0  0  0  0  0
  -10.8749   -1.0524    0.2828 C   0  0  0  0  0  0  0  0  0  0  0  0
   -9.6820   -0.7556   -0.3906 C   0  0  0  0  0  0  0  0  0  0  0  0
   -7.4144    0.4488   -1.8335 N   0  0  0  0  0  0  0  0  0  0  0  0
   -6.1362    0.7807   -2.0970 N   0  0  0  0  0  0  0  0  0  0  0  0
   -5.3489    0.8829   -0.9910 C   0  0  0  0  0  0  0  0  0  0  0  0
   -4.0394    1.1949   -0.9707 N   0  0  0  0  0  0  0  0  0  0  0  0
   -1.4931    2.1906    1.4724 C   0  0  0  0  0  0  0  0  0  0  0  0
   -0.1273    2.4719    1.5416 C   0  0  0  0  0  0  0  0  0  0  0  0
    2.4698    2.1608   -0.2278 H   0  0  0  0  0  0  0  0  0  0  0  0
    0.8080    1.2957   -1.5088 H   0  0  0  0  0  0  0  0  0  0  0  0
   -1.5879    0.7896   -1.6243 H   0  0  0  0  0  0  0  0  0  0  0  0
   -3.7521    0.9061    2.4100 H   0  0  0  0  0  0  0  0  0  0  0  0
   -6.1413    0.3434    2.2490 H   0  0  0  0  0  0  0  0  0  0  0  0
   -8.2739    1.2293    1.9742 H   0  0  0  0  0  0  0  0  0  0  0  0
  -10.3064    0.6597    3.1468 H   0  0  0  0  0  0  0  0  0  0  0  0
  -13.9825    0.2947    2.7781 H   0  0  0  0  0  0  0  0  0  0  0  0
  -12.4647    1.0286    3.2410 H   0  0  0  0  0  0  0  0  0  0  0  0
  -13.6931    0.0791    5.2014 H   0  0  0  0  0  0  0  0  0  0  0  0
  -12.1148   -0.6753    5.0138 H   0  0  0  0  0  0  0  0  0  0  0  0
  -14.6932   -1.7924    4.1454 H   0  0  0  0  0  0  0  0  0  0  0  0
  -13.4922   -3.7603    3.5681 H   0  0  0  0  0  0  0  0  0  0  0  0
  -11.9968   -2.9548    4.0254 H   0  0  0  0  0  0  0  0  0  0  0  0
  -13.8619   -2.1967    1.6980 H   0  0  0  0  0  0  0  0  0  0  0  0
  -12.2482   -2.9067    1.5938 H   0  0  0  0  0  0  0  0  0  0  0  0
  -11.6153   -1.6563   -0.2359 H   0  0  0  0  0  0  0  0  0  0  0  0
   -9.5236   -1.1543   -1.3905 H   0  0  0  0  0  0  0  0  0  0  0  0
   -5.8518    0.9234   -3.0571 H   0  0  0  0  0  0  0  0  0  0  0  0
   -2.1127    2.4806    2.3162 H   0  0  0  0  0  0  0  0  0  0  0  0
    0.2886    2.9453    2.4271 H   0  0  0  0  0  0  0  0  0  0  0  0
  1  2  1  0  0  0  0
  1 29  1  0  0  0  0
  2  3  1  0  0  0  0
  2 28  2  0  0  0  0
  3  4  2  0  0  0  0
  3 30  1  0  0  0  0
  4  5  1  0  0  0  0
  4 31  1  0  0  0  0
  5  6  1  0  0  0  0
  5 27  2  0  0  0  0
  6  7  1  0  0  0  0
  6 26  2  0  0  0  0
  7  8  2  0  0  0  0
  7 32  1  0  0  0  0
  8  9  1  0  0  0  0
  8 33  1  0  0  0  0
  9 10  1  0  0  0  0
  9 25  2  0  0  0  0
 10 11  1  0  0  0  0
 10 23  2  0  0  0  0
 11 12  1  0  0  0  0
 11 22  2  0  0  0  0
 12 13  2  0  0  0  0
 12 34  1  0  0  0  0
 13 14  1  0  0  0  0
 13 35  1  0  0  0  0
 14 15  1  0  0  0  0
 14 21  2  0  0  0  0
 15 16  1  0  0  0  0
 15 20  1  0  0  0  0
 16 17  1  0  0  0  0
 16 36  1  0  0  0  0
 16 37  1  0  0  0  0
 17 18  1  0  0  0  0
 17 38  1  0  0  0  0
 17 39  1  0  0  0  0
 18 19  1  0  0  0  0
 18 40  1  0  0  0  0
 19 20  1  0  0  0  0
 19 41  1  0  0  0  0
 19 42  1  0  0  0  0
 20 43  1  0  0  0  0
 20 44  1  0  0  0  0
 21 22  1  0  0  0  0
 21 45  1  0  0  0  0
 22 46  1  0  0  0  0
 23 24  1  0  0  0  0
 24 25  1  0  0  0  0
 24 47  1  0  0  0  0
 25 26  1  0  0  0  0
 27 28  1  0  0  0  0
 27 48  1  0  0  0  0
 28 49  1  0  0  0  0
M  END
$$$$
