CHEMBL3221545
 OpenBabel04072215363D

 67 69  0  0  0  0  0  0  0  0999 V2000
   13.9119   10.8494    0.4565 C   0  0  0  0  0  0  0  0  0  0  0  0
   12.5467   10.4083    0.9550 C   0  0  0  0  0  0  0  0  0  0  0  0
   12.5815    9.1040    1.4161 O   0  0  0  0  0  0  0  0  0  0  0  0
   12.3377    8.7591    2.6921 C   0  0  0  0  0  0  0  0  0  0  0  0
   12.4751    9.5961    3.5969 O   0  0  0  0  0  0  0  0  0  0  0  0
   11.8414    7.5375    3.0180 N   0  0  0  0  0  0  0  0  0  0  0  0
   11.5650    6.5466    2.0137 C   0  0  0  0  0  0  0  0  0  0  0  0
   10.2605    6.0507    1.9053 C   0  0  0  0  0  0  0  0  0  0  0  0
    9.9245    5.1507    0.8867 C   0  0  0  0  0  0  0  0  0  0  0  0
   10.8957    4.7039   -0.0176 C   0  0  0  0  0  0  0  0  0  0  0  0
   10.5554    3.8716   -1.1124 N   0  0  0  0  0  0  0  0  0  0  0  0
   11.4210    2.8835   -1.6593 C   0  0  0  0  0  0  0  0  0  0  0  0
   12.3716    2.3188   -0.8539 N   0  0  0  0  0  0  0  0  0  0  0  0
   13.1914    1.3441   -1.2987 C   0  0  0  0  0  0  0  0  0  0  0  0
   13.0889    0.8906   -2.5745 N   0  0  0  0  0  0  0  0  0  0  0  0
   12.1756    1.4193   -3.4332 C   0  0  0  0  0  0  0  0  0  0  0  0
   12.0949    0.9673   -4.7460 C   0  0  0  0  0  0  0  0  0  0  0  0
   11.1773    1.4995   -5.7089 C   0  0  0  0  0  0  0  0  0  0  0  0
   11.1962    0.9887   -6.9979 O   0  0  0  0  0  0  0  0  0  0  0  0
   12.1114   -0.0355   -7.3008 C   0  0  0  0  0  0  0  0  0  0  0  0
   12.1962   -0.6654   -8.6892 C   0  0  0  0  0  0  0  0  0  0  0  0
   13.2734   -1.7204   -8.6786 N   0  0  0  0  0  0  0  0  0  0  0  0
   13.0100   -2.8185   -7.7022 C   0  0  0  0  0  0  0  0  0  0  0  0
   14.1511   -3.8412   -7.6738 C   0  0  0  0  0  0  0  0  0  0  0  0
   14.3066   -4.4491   -9.0561 C   0  0  0  0  0  0  0  0  0  0  0  0
   14.5942   -3.3278  -10.0543 C   0  0  0  0  0  0  0  0  0  0  0  0
   13.4605   -2.2824  -10.0335 C   0  0  0  0  0  0  0  0  0  0  0  0
   10.2992    2.5726   -5.2232 C   0  0  0  0  0  0  0  0  0  0  0  0
    9.3323    3.3024   -5.8494 O   0  0  0  0  0  0  0  0  0  0  0  0
    8.7216    3.4321   -7.0765 C   0  0  0  0  0  0  0  0  0  0  0  0
   10.4184    2.9877   -3.8997 C   0  0  0  0  0  0  0  0  0  0  0  0
   11.3222    2.4375   -2.9933 C   0  0  0  0  0  0  0  0  0  0  0  0
   12.2171    5.1602    0.1282 C   0  0  0  0  0  0  0  0  0  0  0  0
   12.5580    6.0750    1.1252 C   0  0  0  0  0  0  0  0  0  0  0  0
   14.2580    6.5309    1.2314 Cl  0  0  0  0  0  0  0  0  0  0  0  0
    1.2131   -1.8882   -2.0567 Cl  0  0  0  0  0  0  0  0  0  0  0  0
   13.8357   11.8827    0.0553 H   0  0  0  0  0  0  0  0  0  0  0  0
   14.2583   10.1725   -0.3522 H   0  0  0  0  0  0  0  0  0  0  0  0
   14.6450   10.8421    1.2899 H   0  0  0  0  0  0  0  0  0  0  0  0
   11.8138   10.4604    0.1283 H   0  0  0  0  0  0  0  0  0  0  0  0
   12.2086   11.1031    1.7555 H   0  0  0  0  0  0  0  0  0  0  0  0
   11.5129    7.3747    3.9726 H   0  0  0  0  0  0  0  0  0  0  0  0
    9.4945    6.3952    2.5832 H   0  0  0  0  0  0  0  0  0  0  0  0
    8.8971    4.8086    0.8075 H   0  0  0  0  0  0  0  0  0  0  0  0
    9.6795    4.1191   -1.5982 H   0  0  0  0  0  0  0  0  0  0  0  0
   13.9224    0.9152   -0.6274 H   0  0  0  0  0  0  0  0  0  0  0  0
   12.7849    0.1743   -5.0082 H   0  0  0  0  0  0  0  0  0  0  0  0
   11.8114   -0.8531   -6.6278 H   0  0  0  0  0  0  0  0  0  0  0  0
   13.1396    0.3804   -7.1489 H   0  0  0  0  0  0  0  0  0  0  0  0
   12.4696    0.1422   -9.3993 H   0  0  0  0  0  0  0  0  0  0  0  0
   11.2228   -1.0982   -8.9913 H   0  0  0  0  0  0  0  0  0  0  0  0
   12.0454   -3.3208   -7.9349 H   0  0  0  0  0  0  0  0  0  0  0  0
   12.9737   -2.4631   -6.6629 H   0  0  0  0  0  0  0  0  0  0  0  0
   13.9232   -4.6369   -6.9312 H   0  0  0  0  0  0  0  0  0  0  0  0
   15.1009   -3.3468   -7.3638 H   0  0  0  0  0  0  0  0  0  0  0  0
   13.3665   -4.9753   -9.3321 H   0  0  0  0  0  0  0  0  0  0  0  0
   15.1347   -5.1903   -9.0508 H   0  0  0  0  0  0  0  0  0  0  0  0
   14.6902   -3.7600  -11.0721 H   0  0  0  0  0  0  0  0  0  0  0  0
   15.5590   -2.8429   -9.7855 H   0  0  0  0  0  0  0  0  0  0  0  0
   12.5159   -2.7583  -10.3793 H   0  0  0  0  0  0  0  0  0  0  0  0
   13.7354   -1.4732  -10.7445 H   0  0  0  0  0  0  0  0  0  0  0  0
    7.9964    4.2811   -7.0073 H   0  0  0  0  0  0  0  0  0  0  0  0
    8.0933    2.5532   -7.3144 H   0  0  0  0  0  0  0  0  0  0  0  0
    9.4575    3.7494   -7.8307 H   0  0  0  0  0  0  0  0  0  0  0  0
    9.7725    3.7967   -3.6050 H   0  0  0  0  0  0  0  0  0  0  0  0
   12.9916    4.8504   -0.5599 H   0  0  0  0  0  0  0  0  0  0  0  0
    1.4484   -1.9910   -0.7052 H   0  0  0  0  0  0  0  0  0  0  0  0
  1  2  1  0  0  0  0
  1 37  1  0  0  0  0
  1 38  1  0  0  0  0
  1 39  1  0  0  0  0
  2  3  1  0  0  0  0
  2 40  1  0  0  0  0
  2 41  1  0  0  0  0
  3  4  1  0  0  0  0
  4  5  2  0  0  0  0
  4  6  1  0  0  0  0
  6  7  1  0  0  0  0
  6 42  1  0  0  0  0
  7  8  1  0  0  0  0
  7 34  2  0  0  0  0
  8  9  2  0  0  0  0
  8 43  1  0  0  0  0
  9 10  1  0  0  0  0
  9 44  1  0  0  0  0
 10 11  1  0  0  0  0
 10 33  2  0  0  0  0
 11 12  1  0  0  0  0
 11 45  1  0  0  0  0
 12 13  1  0  0  0  0
 12 32  2  0  0  0  0
 13 14  2  0  0  0  0
 14 15  1  0  0  0  0
 14 46  1  0  0  0  0
 15 16  2  0  0  0  0
 16 17  1  0  0  0  0
 16 32  1  0  0  0  0
 17 18  2  0  0  0  0
 17 47  1  0  0  0  0
 18 19  1  0  0  0  0
 18 28  1  0  0  0  0
 19 20  1  0  0  0  0
 20 21  1  0  0  0  0
 20 48  1  0  0  0  0
 20 49  1  0  0  0  0
 21 22  1  0  0  0  0
 21 50  1  0  0  0  0
 21 51  1  0  0  0  0
 22 23  1  0  0  0  0
 22 27  1  0  0  0  0
 23 24  1  0  0  0  0
 23 52  1  0  0  0  0
 23 53  1  0  0  0  0
 24 25  1  0  0  0  0
 24 54  1  0  0  0  0
 24 55  1  0  0  0  0
 25 26  1  0  0  0  0
 25 56  1  0  0  0  0
 25 57  1  0  0  0  0
 26 27  1  0  0  0  0
 26 58  1  0  0  0  0
 26 59  1  0  0  0  0
 27 60  1  0  0  0  0
 27 61  1  0  0  0  0
 28 29  1  0  0  0  0
 28 31  2  0  0  0  0
 29 30  1  0  0  0  0
 30 62  1  0  0  0  0
 30 63  1  0  0  0  0
 30 64  1  0  0  0  0
 31 32  1  0  0  0  0
 31 65  1  0  0  0  0
 33 34  1  0  0  0  0
 33 66  1  0  0  0  0
 34 35  1  0  0  0  0
 36 67  1  0  0  0  0
M  END
$$$$
