CHEMBL359316
 OpenBabel04072215363D

 61 66  0  0  1  0  0  0  0  0999 V2000
    6.2579    1.1440    2.2235 C   0  0  0  0  0  0  0  0  0  0  0  0
    5.2401    0.4274    1.3607 C   0  0  0  0  0  0  0  0  0  0  0  0
    5.3278    0.9778    0.0567 O   0  0  0  0  0  0  0  0  0  0  0  0
    4.5035    0.3267   -0.9092 C   0  0  3  0  0  0  0  0  0  0  0  0
    3.0095    0.5009   -0.6087 C   0  0  0  0  0  0  0  0  0  0  0  0
    4.8105    0.9760   -2.2375 C   0  0  0  0  0  0  0  0  0  0  0  0
    5.1635    0.2091   -3.3478 C   0  0  0  0  0  0  0  0  0  0  0  0
    5.2512    0.7784   -4.6205 C   0  0  0  0  0  0  0  0  0  0  0  0
    4.9495    2.1396   -4.7705 C   0  0  0  0  0  0  0  0  0  0  0  0
    4.7083    2.9386   -3.6404 C   0  0  0  0  0  0  0  0  0  0  0  0
    4.6673    2.3669   -2.3670 C   0  0  0  0  0  0  0  0  0  0  0  0
    4.6514    4.1995   -4.1728 C   0  0  0  0  0  0  0  0  0  0  0  0
    5.0688    5.3749   -3.5041 C   0  0  0  0  0  0  0  0  0  0  0  0
    5.6542    6.3891   -4.3697 C   0  0  0  0  0  0  0  0  0  0  0  0
    5.5521    6.2710   -5.7568 C   0  0  0  0  0  0  0  0  0  0  0  0
    4.4363    5.4783   -6.1381 C   0  0  0  0  0  0  0  0  0  0  0  0
    4.4729    4.2515   -5.5210 C   0  0  0  0  0  0  0  0  0  0  0  0
    4.9689    2.9849   -5.9048 N   0  0  0  0  0  0  0  0  0  0  0  0
    5.9392    2.8355   -6.9899 C   0  0  0  0  0  0  0  0  0  0  0  0
    6.1927    1.5008   -7.6930 C   0  0  0  0  0  0  0  0  0  0  0  0
    4.9563    0.9957   -8.4130 C   0  0  0  0  0  0  0  0  0  0  0  0
    5.2456   -0.2467   -9.0399 O   0  0  0  0  0  0  0  0  0  0  0  0
    3.9595    5.9918   -7.4232 C   0  0  0  0  0  0  0  0  0  0  0  0
    5.3000    6.1698   -8.0867 C   0  0  0  0  0  0  0  0  0  0  0  0
    5.4943    5.6626   -9.3616 C   0  0  0  0  0  0  0  0  0  0  0  0
    6.7492    5.1401   -9.6293 C   0  0  0  0  0  0  0  0  0  0  0  0
    7.7670    5.2246   -8.6559 C   0  0  0  0  0  0  0  0  0  0  0  0
    7.5634    5.8315   -7.3840 C   0  0  0  0  0  0  0  0  0  0  0  0
    6.2890    6.2997   -7.0487 C   0  0  0  0  0  0  0  0  0  0  0  0
    5.5187    7.6270   -3.6226 C   0  0  0  0  0  0  0  0  0  0  0  0
    5.6586    8.8052   -3.9438 O   0  0  0  0  0  0  0  0  0  0  0  0
    4.9428    7.2691   -2.3908 N   0  0  0  0  0  0  0  0  0  0  0  0
    4.6572    5.8589   -2.1992 C   0  0  0  0  0  0  0  0  0  0  0  0
    6.1715    0.8328    3.2668 H   0  0  0  0  0  0  0  0  0  0  0  0
    6.1190    2.2290    2.1604 H   0  0  0  0  0  0  0  0  0  0  0  0
    7.2729    0.9335    1.8711 H   0  0  0  0  0  0  0  0  0  0  0  0
    4.2398    0.5969    1.7696 H   0  0  0  0  0  0  0  0  0  0  0  0
    5.4482   -0.6473    1.3355 H   0  0  0  0  0  0  0  0  0  0  0  0
    4.7577   -0.7396   -0.9478 H   0  0  0  0  0  0  0  0  0  0  0  0
    2.7710    1.5426   -0.3614 H   0  0  0  0  0  0  0  0  0  0  0  0
    2.7099   -0.1017    0.2531 H   0  0  0  0  0  0  0  0  0  0  0  0
    2.3879    0.1998   -1.4596 H   0  0  0  0  0  0  0  0  0  0  0  0
    5.3598   -0.8553   -3.2416 H   0  0  0  0  0  0  0  0  0  0  0  0
    5.5137    0.1407   -5.4546 H   0  0  0  0  0  0  0  0  0  0  0  0
    4.4580    2.9737   -1.4959 H   0  0  0  0  0  0  0  0  0  0  0  0
    6.8999    3.1723   -6.5701 H   0  0  0  0  0  0  0  0  0  0  0  0
    5.6245    3.5179   -7.7604 H   0  0  0  0  0  0  0  0  0  0  0  0
    6.6105    0.7421   -7.0314 H   0  0  0  0  0  0  0  0  0  0  0  0
    6.9839    1.6536   -8.4383 H   0  0  0  0  0  0  0  0  0  0  0  0
    4.6355    1.7057   -9.1820 H   0  0  0  0  0  0  0  0  0  0  0  0
    4.1296    0.8400   -7.7164 H   0  0  0  0  0  0  0  0  0  0  0  0
    5.8974   -0.0816   -9.7433 H   0  0  0  0  0  0  0  0  0  0  0  0
    3.5256    6.9894   -7.2569 H   0  0  0  0  0  0  0  0  0  0  0  0
    3.2410    5.3396   -7.8906 H   0  0  0  0  0  0  0  0  0  0  0  0
    4.6448    5.4427   -9.9954 H   0  0  0  0  0  0  0  0  0  0  0  0
    6.8735    4.5345  -10.5253 H   0  0  0  0  0  0  0  0  0  0  0  0
    8.7022    4.7060   -8.8751 H   0  0  0  0  0  0  0  0  0  0  0  0
    8.3506    5.7209   -6.6373 H   0  0  0  0  0  0  0  0  0  0  0  0
    4.4236    7.9835   -1.8950 H   0  0  0  0  0  0  0  0  0  0  0  0
    3.5841    5.7129   -2.0501 H   0  0  0  0  0  0  0  0  0  0  0  0
    5.2396    5.4742   -1.3633 H   0  0  0  0  0  0  0  0  0  0  0  0
  1  2  1  0  0  0  0
  1 34  1  0  0  0  0
  1 35  1  0  0  0  0
  1 36  1  0  0  0  0
  2  3  1  0  0  0  0
  2 37  1  0  0  0  0
  2 38  1  0  0  0  0
  3  4  1  0  0  0  0
  4  5  1  0  0  0  0
  4  6  1  0  0  0  0
  4 39  1  0  0  0  0
  5 40  1  0  0  0  0
  5 41  1  0  0  0  0
  5 42  1  0  0  0  0
  6  7  1  0  0  0  0
  6 11  2  0  0  0  0
  7  8  2  0  0  0  0
  7 43  1  0  0  0  0
  8  9  1  0  0  0  0
  8 44  1  0  0  0  0
  9 10  2  0  0  0  0
  9 18  1  0  0  0  0
 10 11  1  0  0  0  0
 10 12  1  0  0  0  0
 11 45  1  0  0  0  0
 12 13  1  0  0  0  0
 12 17  2  0  0  0  0
 13 14  2  0  0  0  0
 13 33  1  0  0  0  0
 14 15  1  0  0  0  0
 14 30  1  0  0  0  0
 15 16  2  0  0  0  0
 15 29  1  0  0  0  0
 16 17  1  0  0  0  0
 16 23  1  0  0  0  0
 17 18  1  0  0  0  0
 18 19  1  0  0  0  0
 19 20  1  0  0  0  0
 19 46  1  0  0  0  0
 19 47  1  0  0  0  0
 20 21  1  0  0  0  0
 20 48  1  0  0  0  0
 20 49  1  0  0  0  0
 21 22  1  0  0  0  0
 21 50  1  0  0  0  0
 21 51  1  0  0  0  0
 22 52  1  0  0  0  0
 23 24  1  0  0  0  0
 23 53  1  0  0  0  0
 23 54  1  0  0  0  0
 24 25  1  0  0  0  0
 24 29  2  0  0  0  0
 25 26  2  0  0  0  0
 25 55  1  0  0  0  0
 26 27  1  0  0  0  0
 26 56  1  0  0  0  0
 27 28  2  0  0  0  0
 27 57  1  0  0  0  0
 28 29  1  0  0  0  0
 28 58  1  0  0  0  0
 30 31  2  0  0  0  0
 30 32  1  0  0  0  0
 32 33  1  0  0  0  0
 32 59  1  0  0  0  0
 33 60  1  0  0  0  0
 33 61  1  0  0  0  0
M  END
$$$$
