CHEMBL1972355
 OpenBabel04072215363D

 38 41  0  0  0  0  0  0  0  0999 V2000
    0.9708    0.5697    0.3954 C   0  0  0  0  0  0  0  0  0  0  0  0
    2.3557    0.3697    0.1764 O   0  0  0  0  0  0  0  0  0  0  0  0
    2.9748    0.8338   -0.9523 C   0  0  0  0  0  0  0  0  0  0  0  0
    2.6869    2.0374   -1.6519 C   0  0  0  0  0  0  0  0  0  0  0  0
    1.5312    2.9356   -1.4195 C   0  0  0  0  0  0  0  0  0  0  0  0
    0.9278    3.2828   -0.2983 N   0  0  0  0  0  0  0  0  0  0  0  0
   -0.1698    4.0394   -0.6586 C   0  0  0  0  0  0  0  0  0  0  0  0
   -1.2177    4.5659    0.1135 C   0  0  0  0  0  0  0  0  0  0  0  0
   -2.2252    5.3019   -0.5328 C   0  0  0  0  0  0  0  0  0  0  0  0
   -2.1735    5.5389   -1.9092 C   0  0  0  0  0  0  0  0  0  0  0  0
   -1.1359    5.0254   -2.6909 C   0  0  0  0  0  0  0  0  0  0  0  0
   -0.1781    4.2608   -2.0260 C   0  0  0  0  0  0  0  0  0  0  0  0
    0.8966    3.5539   -2.4809 N   0  0  0  0  0  0  0  0  0  0  0  0
    3.5463    2.3771   -2.7292 C   0  0  0  0  0  0  0  0  0  0  0  0
    3.4134    3.5550   -3.4279 O   0  0  0  0  0  0  0  0  0  0  0  0
    4.5873    1.5699   -3.1571 C   0  0  0  0  0  0  0  0  0  0  0  0
    4.8476    0.3931   -2.4810 C   0  0  0  0  0  0  0  0  0  0  0  0
    5.9130   -0.3199   -2.9697 O   0  0  0  0  0  0  0  0  0  0  0  0
    6.2825   -1.4817   -2.3244 C   0  0  0  0  0  0  0  0  0  0  0  0
    7.4964   -2.1427   -2.9001 C   0  0  0  0  0  0  0  0  0  0  0  0
    5.6240   -1.9819   -1.2729 C   0  0  0  0  0  0  0  0  0  0  0  0
    4.4296   -1.2841   -0.7446 C   0  0  0  0  0  0  0  0  0  0  0  0
    3.8028   -1.8195    0.1617 O   0  0  0  0  0  0  0  0  0  0  0  0
    4.0694    0.0188   -1.3800 C   0  0  0  0  0  0  0  0  0  0  0  0
    0.5879   -0.2949    0.9474 H   0  0  0  0  0  0  0  0  0  0  0  0
    0.3923    0.6433   -0.5299 H   0  0  0  0  0  0  0  0  0  0  0  0
    0.8263    1.4281    1.0546 H   0  0  0  0  0  0  0  0  0  0  0  0
   -1.2588    4.3849    1.1812 H   0  0  0  0  0  0  0  0  0  0  0  0
   -3.0600    5.6914    0.0455 H   0  0  0  0  0  0  0  0  0  0  0  0
   -2.9600    6.1207   -2.3855 H   0  0  0  0  0  0  0  0  0  0  0  0
   -1.0953    5.1957   -3.7620 H   0  0  0  0  0  0  0  0  0  0  0  0
    1.1947    3.4771   -3.4425 H   0  0  0  0  0  0  0  0  0  0  0  0
    3.4618    4.2706   -2.7640 H   0  0  0  0  0  0  0  0  0  0  0  0
    5.1961    1.8622   -4.0075 H   0  0  0  0  0  0  0  0  0  0  0  0
    7.9143   -1.5456   -3.7193 H   0  0  0  0  0  0  0  0  0  0  0  0
    7.2514   -3.1296   -3.3036 H   0  0  0  0  0  0  0  0  0  0  0  0
    8.2788   -2.2493   -2.1424 H   0  0  0  0  0  0  0  0  0  0  0  0
    5.9096   -2.9031   -0.7784 H   0  0  0  0  0  0  0  0  0  0  0  0
  1  2  1  0  0  0  0
  1 25  1  0  0  0  0
  1 26  1  0  0  0  0
  1 27  1  0  0  0  0
  2  3  1  0  0  0  0
  3  4  1  0  0  0  0
  3 24  2  0  0  0  0
  4  5  1  0  0  0  0
  4 14  2  0  0  0  0
  5  6  2  0  0  0  0
  5 13  1  0  0  0  0
  6  7  1  0  0  0  0
  7  8  1  0  0  0  0
  7 12  2  0  0  0  0
  8  9  2  0  0  0  0
  8 28  1  0  0  0  0
  9 10  1  0  0  0  0
  9 29  1  0  0  0  0
 10 11  2  0  0  0  0
 10 30  1  0  0  0  0
 11 12  1  0  0  0  0
 11 31  1  0  0  0  0
 12 13  1  0  0  0  0
 13 32  1  0  0  0  0
 14 15  1  0  0  0  0
 14 16  1  0  0  0  0
 15 33  1  0  0  0  0
 16 17  2  0  0  0  0
 16 34  1  0  0  0  0
 17 18  1  0  0  0  0
 17 24  1  0  0  0  0
 18 19  1  0  0  0  0
 19 20  1  0  0  0  0
 19 21  2  0  0  0  0
 20 35  1  0  0  0  0
 20 36  1  0  0  0  0
 20 37  1  0  0  0  0
 21 22  1  0  0  0  0
 21 38  1  0  0  0  0
 22 23  2  0  0  0  0
 22 24  1  0  0  0  0
M  END
$$$$
