CHEMBL2023220
 OpenBabel04072215363D

 56 59  0  0  0  0  0  0  0  0999 V2000
   -0.0187    1.6794   -3.1434 C   0  0  0  0  0  0  0  0  0  0  0  0
    1.1867    2.4697   -3.2509 N   0  0  0  0  0  0  0  0  0  0  0  0
    2.4081    1.9355   -2.9166 C   0  0  0  0  0  0  0  0  0  0  0  0
    2.5649    0.7922   -2.5100 O   0  0  0  0  0  0  0  0  0  0  0  0
    3.5248    2.8913   -3.1060 C   0  0  0  0  0  0  0  0  0  0  0  0
    4.7749    2.5186   -2.7969 C   0  0  0  0  0  0  0  0  0  0  0  0
    5.9547    3.3800   -2.9479 C   0  0  0  0  0  0  0  0  0  0  0  0
    5.9199    4.7529   -2.7799 C   0  0  0  0  0  0  0  0  0  0  0  0
    6.9738    5.5696   -2.9203 N   0  0  0  0  0  0  0  0  0  0  0  0
    8.1852    5.0621   -3.2196 C   0  0  0  0  0  0  0  0  0  0  0  0
    9.1584    6.0370   -3.3713 N   0  0  0  0  0  0  0  0  0  0  0  0
    8.3764    3.6526   -3.3564 C   0  0  0  0  0  0  0  0  0  0  0  0
    9.5769    2.8341   -3.6217 C   0  0  0  0  0  0  0  0  0  0  0  0
   10.9734    3.2616   -3.7998 C   0  0  0  0  0  0  0  0  0  0  0  0
   11.4870    4.2906   -3.0174 C   0  0  0  0  0  0  0  0  0  0  0  0
   12.7544    4.8128   -3.2611 C   0  0  0  0  0  0  0  0  0  0  0  0
   13.6115    4.2279   -4.1932 C   0  0  0  0  0  0  0  0  0  0  0  0
   14.9352    4.6975   -4.3772 N   0  0  0  0  0  0  0  0  0  0  0  0
   15.6267    5.3957   -3.3991 C   0  0  0  0  0  0  0  0  0  0  0  0
   15.2218    5.5652   -2.2534 O   0  0  0  0  0  0  0  0  0  0  0  0
   16.8243    5.9187   -3.8625 N   0  0  0  0  0  0  0  0  0  0  0  0
   17.6762    6.6236   -2.9761 C   0  0  0  0  0  0  0  0  0  0  0  0
   17.9248    6.1520   -1.6815 C   0  0  0  0  0  0  0  0  0  0  0  0
   18.7244    6.8801   -0.8030 C   0  0  0  0  0  0  0  0  0  0  0  0
   19.2551    8.1036   -1.2020 C   0  0  0  0  0  0  0  0  0  0  0  0
   18.9972    8.6006   -2.4859 C   0  0  0  0  0  0  0  0  0  0  0  0
   19.4579    9.9742   -2.8745 C   0  0  0  0  0  0  0  0  0  0  0  0
   18.2412    7.8324   -3.3870 C   0  0  0  0  0  0  0  0  0  0  0  0
   13.1386    3.1516   -4.9455 C   0  0  0  0  0  0  0  0  0  0  0  0
   11.8264    2.6763   -4.7529 C   0  0  0  0  0  0  0  0  0  0  0  0
    9.2765    1.4883   -3.6574 C   0  0  0  0  0  0  0  0  0  0  0  0
    7.6302    1.1659   -3.4407 S   0  0  0  0  0  0  0  0  0  0  0  0
    7.2330    2.8369   -3.2195 C   0  0  0  0  0  0  0  0  0  0  0  0
   -0.8669    2.2978   -3.4264 H   0  0  0  0  0  0  0  0  0  0  0  0
   -0.1299    1.3342   -2.1124 H   0  0  0  0  0  0  0  0  0  0  0  0
    0.0608    0.8183   -3.8099 H   0  0  0  0  0  0  0  0  0  0  0  0
    1.1137    3.4207   -3.5895 H   0  0  0  0  0  0  0  0  0  0  0  0
    3.2906    3.8720   -3.4960 H   0  0  0  0  0  0  0  0  0  0  0  0
    4.9538    1.5114   -2.4175 H   0  0  0  0  0  0  0  0  0  0  0  0
    5.0015    5.2682   -2.5151 H   0  0  0  0  0  0  0  0  0  0  0  0
    8.7334    6.9567   -3.3900 H   0  0  0  0  0  0  0  0  0  0  0  0
    9.8461    5.8509   -4.0878 H   0  0  0  0  0  0  0  0  0  0  0  0
   10.9024    4.7368   -2.2159 H   0  0  0  0  0  0  0  0  0  0  0  0
   13.0414    5.6928   -2.6922 H   0  0  0  0  0  0  0  0  0  0  0  0
   15.5003    4.2495   -5.0840 H   0  0  0  0  0  0  0  0  0  0  0  0
   16.8003    6.2375   -4.8203 H   0  0  0  0  0  0  0  0  0  0  0  0
   17.4858    5.2188   -1.3358 H   0  0  0  0  0  0  0  0  0  0  0  0
   18.9051    6.5044    0.2006 H   0  0  0  0  0  0  0  0  0  0  0  0
   19.8498    8.6766   -0.4944 H   0  0  0  0  0  0  0  0  0  0  0  0
   20.0293   10.4480   -2.0694 H   0  0  0  0  0  0  0  0  0  0  0  0
   18.5894   10.6095   -3.0804 H   0  0  0  0  0  0  0  0  0  0  0  0
   20.0932    9.9288   -3.7632 H   0  0  0  0  0  0  0  0  0  0  0  0
   18.0314    8.2276   -4.3769 H   0  0  0  0  0  0  0  0  0  0  0  0
   13.7754    2.6537   -5.6716 H   0  0  0  0  0  0  0  0  0  0  0  0
   11.4874    1.8381   -5.3582 H   0  0  0  0  0  0  0  0  0  0  0  0
    9.9532    0.6565   -3.8010 H   0  0  0  0  0  0  0  0  0  0  0  0
  1  2  1  0  0  0  0
  1 34  1  0  0  0  0
  1 35  1  0  0  0  0
  1 36  1  0  0  0  0
  2  3  1  0  0  0  0
  2 37  1  0  0  0  0
  3  4  2  0  0  0  0
  3  5  1  0  0  0  0
  5  6  2  0  0  0  0
  5 38  1  0  0  0  0
  6  7  1  0  0  0  0
  6 39  1  0  0  0  0
  7  8  1  0  0  0  0
  7 33  2  0  0  0  0
  8  9  2  0  0  0  0
  8 40  1  0  0  0  0
  9 10  1  0  0  0  0
 10 11  1  0  0  0  0
 10 12  2  0  0  0  0
 11 41  1  0  0  0  0
 11 42  1  0  0  0  0
 12 13  1  0  0  0  0
 12 33  1  0  0  0  0
 13 14  1  0  0  0  0
 13 31  2  0  0  0  0
 14 15  1  0  0  0  0
 14 30  2  0  0  0  0
 15 16  2  0  0  0  0
 15 43  1  0  0  0  0
 16 17  1  0  0  0  0
 16 44  1  0  0  0  0
 17 18  1  0  0  0  0
 17 29  2  0  0  0  0
 18 19  1  0  0  0  0
 18 45  1  0  0  0  0
 19 20  2  0  0  0  0
 19 21  1  0  0  0  0
 21 22  1  0  0  0  0
 21 46  1  0  0  0  0
 22 23  1  0  0  0  0
 22 28  2  0  0  0  0
 23 24  2  0  0  0  0
 23 47  1  0  0  0  0
 24 25  1  0  0  0  0
 24 48  1  0  0  0  0
 25 26  2  0  0  0  0
 25 49  1  0  0  0  0
 26 27  1  0  0  0  0
 26 28  1  0  0  0  0
 27 50  1  0  0  0  0
 27 51  1  0  0  0  0
 27 52  1  0  0  0  0
 28 53  1  0  0  0  0
 29 30  1  0  0  0  0
 29 54  1  0  0  0  0
 30 55  1  0  0  0  0
 31 32  1  0  0  0  0
 31 56  1  0  0  0  0
 32 33  1  0  0  0  0
M  END
$$$$
