CHEMBL3694660
 OpenBabel04072215373D

 43 46  0  0  0  0  0  0  0  0999 V2000
    1.0130    0.0263   -0.0971 C   0  0  0  0  0  0  0  0  0  0  0  0
    2.4530   -0.0226   -0.0941 N   0  0  0  0  0  0  0  0  0  0  0  0
    3.2894    1.0573   -0.0843 C   0  0  0  0  0  0  0  0  0  0  0  0
    4.5514    0.6897   -0.0829 N   0  0  0  0  0  0  0  0  0  0  0  0
    4.5251   -0.6832   -0.0921 C   0  0  0  0  0  0  0  0  0  0  0  0
    3.2299   -1.1508   -0.0997 C   0  0  0  0  0  0  0  0  0  0  0  0
    2.7755   -2.4939   -0.1101 C   0  0  0  0  0  0  0  0  0  0  0  0
    2.3616   -3.7303   -0.1197 C   0  0  0  0  0  0  0  0  0  0  0  0
    1.8791   -5.1716   -0.1309 C   0  0  0  0  0  0  0  0  0  0  0  0
    2.8644   -6.2310   -0.1015 C   0  0  0  0  0  0  0  0  0  0  0  0
    2.4364   -7.4991   -0.0174 C   0  0  0  0  0  0  0  0  0  0  0  0
    1.0645   -7.7797   -0.0141 N   0  0  0  0  0  0  0  0  0  0  0  0
    0.3772   -8.9877    0.0303 C   0  0  0  0  0  0  0  0  0  0  0  0
    0.9499  -10.3400    0.0374 C   0  0  0  0  0  0  0  0  0  0  0  0
    2.1213  -10.6378   -0.6680 C   0  0  0  0  0  0  0  0  0  0  0  0
    2.5936  -11.9397   -0.7452 C   0  0  0  0  0  0  0  0  0  0  0  0
    1.8474  -12.9799   -0.1977 C   0  0  0  0  0  0  0  0  0  0  0  0
    0.6596  -12.7303    0.4877 C   0  0  0  0  0  0  0  0  0  0  0  0
   -0.1697  -13.7725    0.9661 N   0  0  0  0  0  0  0  0  0  0  0  0
    0.0310  -15.1174    0.8134 C   0  0  0  0  0  0  0  0  0  0  0  0
   -0.9532  -15.8913    1.3376 N   0  0  0  0  0  0  0  0  0  0  0  0
    0.9826  -15.6829    0.2881 O   0  0  0  0  0  0  0  0  0  0  0  0
    0.2551  -11.3989    0.6604 C   0  0  0  0  0  0  0  0  0  0  0  0
   -0.9591   -8.6132   -0.0285 C   0  0  0  0  0  0  0  0  0  0  0  0
   -1.1209   -7.2572   -0.0779 N   0  0  0  0  0  0  0  0  0  0  0  0
    0.0993   -6.7717   -0.0735 C   0  0  0  0  0  0  0  0  0  0  0  0
    0.5562   -5.4253   -0.1186 C   0  0  0  0  0  0  0  0  0  0  0  0
    0.6816    1.0679   -0.0991 H   0  0  0  0  0  0  0  0  0  0  0  0
    0.6461   -0.4759    0.8018 H   0  0  0  0  0  0  0  0  0  0  0  0
    0.6491   -0.4781   -0.9959 H   0  0  0  0  0  0  0  0  0  0  0  0
    2.9341    2.0798   -0.0781 H   0  0  0  0  0  0  0  0  0  0  0  0
    5.4407   -1.2603   -0.0926 H   0  0  0  0  0  0  0  0  0  0  0  0
    3.9207   -5.9882   -0.1357 H   0  0  0  0  0  0  0  0  0  0  0  0
    3.1377   -8.3154    0.0420 H   0  0  0  0  0  0  0  0  0  0  0  0
    2.6802   -9.8806   -1.2069 H   0  0  0  0  0  0  0  0  0  0  0  0
    3.5186  -12.1565   -1.2741 H   0  0  0  0  0  0  0  0  0  0  0  0
    2.2279  -13.9842   -0.3432 H   0  0  0  0  0  0  0  0  0  0  0  0
   -1.0045  -13.5062    1.4786 H   0  0  0  0  0  0  0  0  0  0  0  0
   -1.9063  -15.6422    1.1059 H   0  0  0  0  0  0  0  0  0  0  0  0
   -0.7553  -16.8717    1.1623 H   0  0  0  0  0  0  0  0  0  0  0  0
   -0.6239  -11.1690    1.2593 H   0  0  0  0  0  0  0  0  0  0  0  0
   -1.8203   -9.2691   -0.0652 H   0  0  0  0  0  0  0  0  0  0  0  0
   -0.1848   -4.6342   -0.1282 H   0  0  0  0  0  0  0  0  0  0  0  0
  1  2  1  0  0  0  0
  1 28  1  0  0  0  0
  1 29  1  0  0  0  0
  1 30  1  0  0  0  0
  2  3  1  0  0  0  0
  2  6  1  0  0  0  0
  3  4  2  0  0  0  0
  3 31  1  0  0  0  0
  4  5  1  0  0  0  0
  5  6  2  0  0  0  0
  5 32  1  0  0  0  0
  6  7  1  0  0  0  0
  7  8  3  0  0  0  0
  8  9  1  0  0  0  0
  9 10  1  0  0  0  0
  9 27  2  0  0  0  0
 10 11  2  0  0  0  0
 10 33  1  0  0  0  0
 11 12  1  0  0  0  0
 11 34  1  0  0  0  0
 12 13  1  0  0  0  0
 12 26  1  0  0  0  0
 13 14  1  0  0  0  0
 13 24  2  0  0  0  0
 14 15  1  0  0  0  0
 14 23  2  0  0  0  0
 15 16  2  0  0  0  0
 15 35  1  0  0  0  0
 16 17  1  0  0  0  0
 16 36  1  0  0  0  0
 17 18  2  0  0  0  0
 17 37  1  0  0  0  0
 18 19  1  0  0  0  0
 18 23  1  0  0  0  0
 19 20  1  0  0  0  0
 19 38  1  0  0  0  0
 20 21  1  0  0  0  0
 20 22  2  0  0  0  0
 21 39  1  0  0  0  0
 21 40  1  0  0  0  0
 23 41  1  0  0  0  0
 24 25  1  0  0  0  0
 24 42  1  0  0  0  0
 25 26  2  0  0  0  0
 26 27  1  0  0  0  0
 27 43  1  0  0  0  0
M  END
$$$$
