CHEMBL3946238
 OpenBabel04072215373D

 52 55  0  0  0  0  0  0  0  0999 V2000
    1.1874   -0.7545    0.2520 O   0  0  0  0  0  0  0  0  0  0  0  0
    2.2955   -0.2759    0.0540 C   0  0  0  0  0  0  0  0  0  0  0  0
    2.9030    0.6477    0.8937 N   0  0  0  0  0  0  0  0  0  0  0  0
    2.3264    1.2094    2.0600 C   0  0  0  0  0  0  0  0  0  0  0  0
    1.1945    0.6993    2.6977 C   0  0  0  0  0  0  0  0  0  0  0  0
    0.6382    1.3790    3.7785 C   0  0  0  0  0  0  0  0  0  0  0  0
   -0.4443    0.8729    4.3854 F   0  0  0  0  0  0  0  0  0  0  0  0
    1.1673    2.5839    4.2231 C   0  0  0  0  0  0  0  0  0  0  0  0
    2.2932    3.1037    3.5929 C   0  0  0  0  0  0  0  0  0  0  0  0
    2.7536    4.3190    4.0576 O   0  0  0  0  0  0  0  0  0  0  0  0
    3.2573    5.2499    3.1698 C   0  0  0  0  0  0  0  0  0  0  0  0
    2.9181    5.3150    1.8219 C   0  0  0  0  0  0  0  0  0  0  0  0
    3.5584    6.2527    1.0434 C   0  0  0  0  0  0  0  0  0  0  0  0
    4.4385    7.1411    1.5316 N   0  0  0  0  0  0  0  0  0  0  0  0
    4.7016    7.1431    2.8505 C   0  0  0  0  0  0  0  0  0  0  0  0
    5.5669    8.1152    3.3816 N   0  0  0  0  0  0  0  0  0  0  0  0
    6.1866    9.0868    2.6199 C   0  0  0  0  0  0  0  0  0  0  0  0
    6.1125    9.2388    1.4110 O   0  0  0  0  0  0  0  0  0  0  0  0
    7.0456   10.0704    3.3508 C   0  0  0  0  0  0  0  0  0  0  0  0
    7.4931    9.9990    4.7869 C   0  0  0  0  0  0  0  0  0  0  0  0
    6.4302   10.9827    4.3883 C   0  0  0  0  0  0  0  0  0  0  0  0
    4.1299    6.2049    3.7041 C   0  0  0  0  0  0  0  0  0  0  0  0
    2.9162    2.3764    2.5660 C   0  0  0  0  0  0  0  0  0  0  0  0
    3.0879   -0.5523   -1.0528 N   0  0  0  0  0  0  0  0  0  0  0  0
    2.7335   -1.3598   -2.1601 C   0  0  0  0  0  0  0  0  0  0  0  0
    1.4780   -1.9452   -2.3218 C   0  0  0  0  0  0  0  0  0  0  0  0
    1.2039   -2.7526   -3.4257 C   0  0  0  0  0  0  0  0  0  0  0  0
    2.1736   -2.9850   -4.4032 C   0  0  0  0  0  0  0  0  0  0  0  0
    1.7146   -4.0154   -5.7063 Cl  0  0  0  0  0  0  0  0  0  0  0  0
    3.4342   -2.3936   -4.2877 C   0  0  0  0  0  0  0  0  0  0  0  0
    4.5391   -2.5497   -5.3001 C   0  0  0  0  0  0  0  0  0  0  0  0
    4.3098   -3.4030   -6.3309 F   0  0  0  0  0  0  0  0  0  0  0  0
    4.8603   -1.3560   -5.8780 F   0  0  0  0  0  0  0  0  0  0  0  0
    5.6937   -2.9880   -4.7188 F   0  0  0  0  0  0  0  0  0  0  0  0
    3.6963   -1.5797   -3.1545 C   0  0  0  0  0  0  0  0  0  0  0  0
    3.7143    1.1208    0.5258 H   0  0  0  0  0  0  0  0  0  0  0  0
    0.7145   -0.2226    2.3875 H   0  0  0  0  0  0  0  0  0  0  0  0
    0.6894    3.1048    5.0463 H   0  0  0  0  0  0  0  0  0  0  0  0
    2.1933    4.6542    1.3628 H   0  0  0  0  0  0  0  0  0  0  0  0
    3.3828    6.3223   -0.0257 H   0  0  0  0  0  0  0  0  0  0  0  0
    5.7079    8.1191    4.3786 H   0  0  0  0  0  0  0  0  0  0  0  0
    7.7583   10.5416    2.6757 H   0  0  0  0  0  0  0  0  0  0  0  0
    8.4800   10.3940    5.0129 H   0  0  0  0  0  0  0  0  0  0  0  0
    7.2169    9.1628    5.4130 H   0  0  0  0  0  0  0  0  0  0  0  0
    6.6877   12.0345    4.3321 H   0  0  0  0  0  0  0  0  0  0  0  0
    5.4099   10.7972    4.7072 H   0  0  0  0  0  0  0  0  0  0  0  0
    4.3471    6.1991    4.7663 H   0  0  0  0  0  0  0  0  0  0  0  0
    3.8286    2.7571    2.1200 H   0  0  0  0  0  0  0  0  0  0  0  0
    4.0379   -0.2137   -1.0294 H   0  0  0  0  0  0  0  0  0  0  0  0
    0.6763   -1.7991   -1.6055 H   0  0  0  0  0  0  0  0  0  0  0  0
    0.2157   -3.2024   -3.5095 H   0  0  0  0  0  0  0  0  0  0  0  0
    4.6802   -1.1167   -3.0679 H   0  0  0  0  0  0  0  0  0  0  0  0
  1  2  2  0  0  0  0
  2  3  1  0  0  0  0
  2 24  1  0  0  0  0
  3  4  1  0  0  0  0
  3 36  1  0  0  0  0
  4  5  1  0  0  0  0
  4 23  2  0  0  0  0
  5  6  2  0  0  0  0
  5 37  1  0  0  0  0
  6  7  1  0  0  0  0
  6  8  1  0  0  0  0
  8  9  2  0  0  0  0
  8 38  1  0  0  0  0
  9 10  1  0  0  0  0
  9 23  1  0  0  0  0
 10 11  1  0  0  0  0
 11 12  1  0  0  0  0
 11 22  2  0  0  0  0
 12 13  2  0  0  0  0
 12 39  1  0  0  0  0
 13 14  1  0  0  0  0
 13 40  1  0  0  0  0
 14 15  2  0  0  0  0
 15 16  1  0  0  0  0
 15 22  1  0  0  0  0
 16 17  1  0  0  0  0
 16 41  1  0  0  0  0
 17 18  2  0  0  0  0
 17 19  1  0  0  0  0
 19 20  1  0  0  0  0
 19 21  1  0  0  0  0
 19 42  1  0  0  0  0
 20 21  1  0  0  0  0
 20 43  1  0  0  0  0
 20 44  1  0  0  0  0
 21 45  1  0  0  0  0
 21 46  1  0  0  0  0
 22 47  1  0  0  0  0
 23 48  1  0  0  0  0
 24 25  1  0  0  0  0
 24 49  1  0  0  0  0
 25 26  1  0  0  0  0
 25 35  2  0  0  0  0
 26 27  2  0  0  0  0
 26 50  1  0  0  0  0
 27 28  1  0  0  0  0
 27 51  1  0  0  0  0
 28 29  1  0  0  0  0
 28 30  2  0  0  0  0
 30 31  1  0  0  0  0
 30 35  1  0  0  0  0
 31 32  1  0  0  0  0
 31 33  1  0  0  0  0
 31 34  1  0  0  0  0
 35 52  1  0  0  0  0
M  END
$$$$
