CHEMBL3934095
 OpenBabel04072215373D

 55 58  0  0  1  0  0  0  0  0999 V2000
    2.9655    0.8403   -0.9277 C   0  0  0  0  0  0  0  0  0  0  0  0
    2.4603   -0.2694   -0.1729 O   0  0  0  0  0  0  0  0  0  0  0  0
    3.1954   -0.7719    0.8656 C   0  0  0  0  0  0  0  0  0  0  0  0
    4.2983   -0.1182    1.4281 C   0  0  0  0  0  0  0  0  0  0  0  0
    5.0710   -0.7091    2.4553 C   0  0  0  0  0  0  0  0  0  0  0  0
    6.1968   -0.1163    3.0558 C   0  0  0  0  0  0  0  0  0  0  0  0
    6.5254    1.2159    2.7087 N   0  0  0  0  0  0  0  0  0  0  0  0
    7.7994    1.7850    2.5641 C   0  0  0  0  0  0  0  0  0  0  0  0
    8.9198    1.0140    2.2497 C   0  0  0  0  0  0  0  0  0  0  0  0
   10.1301    1.6186    1.9203 C   0  0  0  0  0  0  0  0  0  0  0  0
   10.2437    3.0114    1.8862 C   0  0  0  0  0  0  0  0  0  0  0  0
   11.9132    3.7231    1.3263 Br  0  0  0  0  0  0  0  0  0  0  0  0
    9.1466    3.8158    2.2193 C   0  0  0  0  0  0  0  0  0  0  0  0
    9.1558    5.3186    2.2017 C   0  0  0  0  0  0  0  0  0  0  0  0
    7.9338    3.1810    2.5625 C   0  0  0  0  0  0  0  0  0  0  0  0
    6.9473   -0.7531    3.9676 N   0  0  0  0  0  0  0  0  0  0  0  0
    6.5523   -1.9820    4.3117 C   0  0  0  0  0  0  0  0  0  0  0  0
    5.4876   -2.6272    3.8309 N   0  0  0  0  0  0  0  0  0  0  0  0
    4.7641   -1.9875    2.9091 C   0  0  0  0  0  0  0  0  0  0  0  0
    3.6486   -2.6098    2.3842 C   0  0  0  0  0  0  0  0  0  0  0  0
    2.8184   -2.0157    1.4186 C   0  0  0  0  0  0  0  0  0  0  0  0
    1.6331   -2.6118    1.0090 O   0  0  0  0  0  0  0  0  0  0  0  0
    1.1304   -3.5800    1.9543 C   0  0  0  0  0  0  0  0  0  0  0  0
   -0.3401   -3.9837    1.7620 C   0  0  3  0  0  0  0  0  0  0  0  0
   -1.3117   -2.7923    1.7907 C   0  0  0  0  0  0  0  0  0  0  0  0
   -1.3897   -2.1895    3.1377 N   0  0  0  0  0  0  0  0  0  0  0  0
   -2.2935   -1.0459    3.1358 C   0  0  0  0  0  0  0  0  0  0  0  0
   -1.8269   -3.2235    4.0946 C   0  0  0  0  0  0  0  0  0  0  0  0
   -0.8718   -4.4266    4.0696 C   0  0  0  0  0  0  0  0  0  0  0  0
   -0.7324   -4.9777    2.7470 O   0  0  0  0  0  0  0  0  0  0  0  0
    2.9788    0.5656   -1.9872 H   0  0  0  0  0  0  0  0  0  0  0  0
    3.9760    1.1793   -0.6932 H   0  0  0  0  0  0  0  0  0  0  0  0
    2.2804    1.6837   -0.8012 H   0  0  0  0  0  0  0  0  0  0  0  0
    4.6059    0.8622    1.0872 H   0  0  0  0  0  0  0  0  0  0  0  0
    5.8012    1.8558    3.0082 H   0  0  0  0  0  0  0  0  0  0  0  0
    8.8530   -0.0707    2.2186 H   0  0  0  0  0  0  0  0  0  0  0  0
   10.9779    0.9875    1.6551 H   0  0  0  0  0  0  0  0  0  0  0  0
   10.1042    5.7489    1.8762 H   0  0  0  0  0  0  0  0  0  0  0  0
    8.9454    5.7070    3.2037 H   0  0  0  0  0  0  0  0  0  0  0  0
    8.3852    5.6813    1.5123 H   0  0  0  0  0  0  0  0  0  0  0  0
    7.0737    3.8001    2.8130 H   0  0  0  0  0  0  0  0  0  0  0  0
    7.1455   -2.5030    5.0533 H   0  0  0  0  0  0  0  0  0  0  0  0
    3.4397   -3.6019    2.7740 H   0  0  0  0  0  0  0  0  0  0  0  0
    1.2445   -3.1859    2.9703 H   0  0  0  0  0  0  0  0  0  0  0  0
    1.7255   -4.4989    1.8704 H   0  0  0  0  0  0  0  0  0  0  0  0
   -0.4361   -4.4722    0.7852 H   0  0  0  0  0  0  0  0  0  0  0  0
   -2.3079   -3.1490    1.4932 H   0  0  0  0  0  0  0  0  0  0  0  0
   -0.9956   -2.0453    1.0544 H   0  0  0  0  0  0  0  0  0  0  0  0
   -1.9163   -0.2711    2.4591 H   0  0  0  0  0  0  0  0  0  0  0  0
   -2.3460   -0.5950    4.1326 H   0  0  0  0  0  0  0  0  0  0  0  0
   -3.3079   -1.3156    2.8219 H   0  0  0  0  0  0  0  0  0  0  0  0
   -2.8399   -3.5671    3.8477 H   0  0  0  0  0  0  0  0  0  0  0  0
   -1.8505   -2.8117    5.1106 H   0  0  0  0  0  0  0  0  0  0  0  0
   -1.2618   -5.2183    4.7190 H   0  0  0  0  0  0  0  0  0  0  0  0
    0.1128   -4.1586    4.4690 H   0  0  0  0  0  0  0  0  0  0  0  0
  1  2  1  0  0  0  0
  1 31  1  0  0  0  0
  1 32  1  0  0  0  0
  1 33  1  0  0  0  0
  2  3  1  0  0  0  0
  3  4  1  0  0  0  0
  3 21  2  0  0  0  0
  4  5  2  0  0  0  0
  4 34  1  0  0  0  0
  5  6  1  0  0  0  0
  5 19  1  0  0  0  0
  6  7  1  0  0  0  0
  6 16  2  0  0  0  0
  7  8  1  0  0  0  0
  7 35  1  0  0  0  0
  8  9  1  0  0  0  0
  8 15  2  0  0  0  0
  9 10  2  0  0  0  0
  9 36  1  0  0  0  0
 10 11  1  0  0  0  0
 10 37  1  0  0  0  0
 11 12  1  0  0  0  0
 11 13  2  0  0  0  0
 13 14  1  0  0  0  0
 13 15  1  0  0  0  0
 14 38  1  0  0  0  0
 14 39  1  0  0  0  0
 14 40  1  0  0  0  0
 15 41  1  0  0  0  0
 16 17  1  0  0  0  0
 17 18  2  0  0  0  0
 17 42  1  0  0  0  0
 18 19  1  0  0  0  0
 19 20  2  0  0  0  0
 20 21  1  0  0  0  0
 20 43  1  0  0  0  0
 21 22  1  0  0  0  0
 22 23  1  0  0  0  0
 23 24  1  0  0  0  0
 23 44  1  0  0  0  0
 23 45  1  0  0  0  0
 24 25  1  0  0  0  0
 24 30  1  0  0  0  0
 24 46  1  0  0  0  0
 25 26  1  0  0  0  0
 25 47  1  0  0  0  0
 25 48  1  0  0  0  0
 26 27  1  0  0  0  0
 26 28  1  0  0  0  0
 27 49  1  0  0  0  0
 27 50  1  0  0  0  0
 27 51  1  0  0  0  0
 28 29  1  0  0  0  0
 28 52  1  0  0  0  0
 28 53  1  0  0  0  0
 29 30  1  0  0  0  0
 29 54  1  0  0  0  0
 29 55  1  0  0  0  0
M  END
$$$$
