CHEMBL3098319
 OpenBabel04072215363D

 44 46  0  0  0  0  0  0  0  0999 V2000
    1.2069   -0.3318   -0.3339 C   0  0  0  0  0  0  0  0  0  0  0  0
    2.5822   -0.0306   -0.1134 O   0  0  0  0  0  0  0  0  0  0  0  0
    3.0597   -0.3204    1.1395 C   0  0  0  0  0  0  0  0  0  0  0  0
    4.0193    0.5884    1.6070 C   0  0  0  0  0  0  0  0  0  0  0  0
    4.5969    0.4725    2.8617 C   0  0  0  0  0  0  0  0  0  0  0  0
    5.4688    1.4031    3.2619 N   0  0  0  0  0  0  0  0  0  0  0  0
    5.9555    1.2594    4.4941 C   0  0  0  0  0  0  0  0  0  0  0  0
    7.0440    2.4572    5.0305 Cl  0  0  0  0  0  0  0  0  0  0  0  0
    5.6612    0.2971    5.3665 N   0  0  0  0  0  0  0  0  0  0  0  0
    4.7849   -0.6345    4.9526 C   0  0  0  0  0  0  0  0  0  0  0  0
    4.4023   -1.6603    5.8589 N   0  0  0  0  0  0  0  0  0  0  0  0
    4.3977   -1.5162    7.2619 C   0  0  0  0  0  0  0  0  0  0  0  0
    4.0424   -0.3080    7.8622 C   0  0  0  0  0  0  0  0  0  0  0  0
    4.0624   -0.1532    9.2535 C   0  0  0  0  0  0  0  0  0  0  0  0
    4.4271   -1.1933   10.1142 C   0  0  0  0  0  0  0  0  0  0  0  0
    4.5612   -1.0041   11.4804 N   0  0  0  0  0  0  0  0  0  0  0  0
    4.3512   -2.0872   12.4343 C   0  0  0  0  0  0  0  0  0  0  0  0
    4.6152    0.3307   12.0735 C   0  0  0  0  0  0  0  0  0  0  0  0
    4.6987   -2.4253    9.4948 C   0  0  0  0  0  0  0  0  0  0  0  0
    4.6667   -2.5950    8.0989 C   0  0  0  0  0  0  0  0  0  0  0  0
    4.2181   -0.6076    3.6694 C   0  0  0  0  0  0  0  0  0  0  0  0
    3.2821   -1.5547    3.1913 C   0  0  0  0  0  0  0  0  0  0  0  0
    2.6982   -1.4151    1.9307 C   0  0  0  0  0  0  0  0  0  0  0  0
    1.8505   -2.3545    1.4110 O   0  0  0  0  0  0  0  0  0  0  0  0
    0.9769   -2.9867    2.3418 C   0  0  0  0  0  0  0  0  0  0  0  0
    0.8721    0.2493   -1.1982 H   0  0  0  0  0  0  0  0  0  0  0  0
    0.5813   -0.0464    0.5201 H   0  0  0  0  0  0  0  0  0  0  0  0
    1.0748   -1.3864   -0.5906 H   0  0  0  0  0  0  0  0  0  0  0  0
    4.3018    1.4301    0.9765 H   0  0  0  0  0  0  0  0  0  0  0  0
    4.7776   -2.5501    5.5496 H   0  0  0  0  0  0  0  0  0  0  0  0
    3.7620    0.5478    7.2537 H   0  0  0  0  0  0  0  0  0  0  0  0
    3.7829    0.8253    9.6323 H   0  0  0  0  0  0  0  0  0  0  0  0
    4.2468   -3.0790   11.9891 H   0  0  0  0  0  0  0  0  0  0  0  0
    3.4373   -1.9014   13.0095 H   0  0  0  0  0  0  0  0  0  0  0  0
    5.1914   -2.1277   13.1363 H   0  0  0  0  0  0  0  0  0  0  0  0
    4.8921    1.1226   11.3714 H   0  0  0  0  0  0  0  0  0  0  0  0
    5.3803    0.3512   12.8576 H   0  0  0  0  0  0  0  0  0  0  0  0
    3.6524    0.5853   12.5294 H   0  0  0  0  0  0  0  0  0  0  0  0
    4.9993   -3.2861   10.0833 H   0  0  0  0  0  0  0  0  0  0  0  0
    4.9005   -3.5723    7.6880 H   0  0  0  0  0  0  0  0  0  0  0  0
    3.0248   -2.4017    3.8195 H   0  0  0  0  0  0  0  0  0  0  0  0
    0.1738   -3.4593    1.7688 H   0  0  0  0  0  0  0  0  0  0  0  0
    0.5202   -2.2620    3.0254 H   0  0  0  0  0  0  0  0  0  0  0  0
    1.5001   -3.7734    2.8941 H   0  0  0  0  0  0  0  0  0  0  0  0
  1  2  1  0  0  0  0
  1 26  1  0  0  0  0
  1 27  1  0  0  0  0
  1 28  1  0  0  0  0
  2  3  1  0  0  0  0
  3  4  1  0  0  0  0
  3 23  2  0  0  0  0
  4  5  2  0  0  0  0
  4 29  1  0  0  0  0
  5  6  1  0  0  0  0
  5 21  1  0  0  0  0
  6  7  2  0  0  0  0
  7  8  1  0  0  0  0
  7  9  1  0  0  0  0
  9 10  2  0  0  0  0
 10 11  1  0  0  0  0
 10 21  1  0  0  0  0
 11 12  1  0  0  0  0
 11 30  1  0  0  0  0
 12 13  1  0  0  0  0
 12 20  2  0  0  0  0
 13 14  2  0  0  0  0
 13 31  1  0  0  0  0
 14 15  1  0  0  0  0
 14 32  1  0  0  0  0
 15 16  1  0  0  0  0
 15 19  2  0  0  0  0
 16 17  1  0  0  0  0
 16 18  1  0  0  0  0
 17 33  1  0  0  0  0
 17 34  1  0  0  0  0
 17 35  1  0  0  0  0
 18 36  1  0  0  0  0
 18 37  1  0  0  0  0
 18 38  1  0  0  0  0
 19 20  1  0  0  0  0
 19 39  1  0  0  0  0
 20 40  1  0  0  0  0
 21 22  2  0  0  0  0
 22 23  1  0  0  0  0
 22 41  1  0  0  0  0
 23 24  1  0  0  0  0
 24 25  1  0  0  0  0
 25 42  1  0  0  0  0
 25 43  1  0  0  0  0
 25 44  1  0  0  0  0
M  END
$$$$
