CHEMBL1242381
 OpenBabel04072215363D

 46 48  0  0  1  0  0  0  0  0999 V2000
    3.3945   -0.5514    1.2331 C   0  0  0  0  0  0  0  0  0  0  0  0
    2.9796    0.6634    0.6171 O   0  0  0  0  0  0  0  0  0  0  0  0
    3.5372    0.9480   -0.6010 C   0  0  0  0  0  0  0  0  0  0  0  0
    4.0691   -0.0385   -1.4349 C   0  0  0  0  0  0  0  0  0  0  0  0
    4.6113    0.2950   -2.6788 C   0  0  0  0  0  0  0  0  0  0  0  0
    4.5548    1.6038   -3.1610 C   0  0  0  0  0  0  0  0  0  0  0  0
    5.1137    1.9401   -4.4747 C   0  0  0  0  0  0  0  0  0  0  0  0
    5.6622    3.1553   -4.6762 N   0  0  0  0  0  0  0  0  0  0  0  0
    6.1710    3.0910   -5.9201 N   0  0  0  0  0  0  0  0  0  0  0  0
    6.8588    4.2397   -6.4746 C   0  0  0  0  0  0  0  0  0  0  0  0
    5.9750    5.1968   -7.2947 C   0  0  1  0  0  0  0  0  0  0  0  0
    5.3925    4.5301   -8.5450 C   0  0  0  0  0  0  0  0  0  0  0  0
    4.8715    5.8346   -6.4413 C   0  0  0  0  0  0  0  0  0  0  0  0
    4.1126    6.7617   -7.2111 O   0  0  0  0  0  0  0  0  0  0  0  0
    5.9904    1.8803   -6.5230 C   0  0  0  0  0  0  0  0  0  0  0  0
    6.4445    1.5116   -7.7328 N   0  0  0  0  0  0  0  0  0  0  0  0
    6.0517    0.2688   -8.0440 C   0  0  0  0  0  0  0  0  0  0  0  0
    5.2774   -0.5585   -7.3207 N   0  0  0  0  0  0  0  0  0  0  0  0
    4.8434   -0.1480   -6.1090 C   0  0  0  0  0  0  0  0  0  0  0  0
    4.0294   -1.0419   -5.4265 N   0  0  0  0  0  0  0  0  0  0  0  0
    5.2286    1.1231   -5.6485 C   0  0  0  0  0  0  0  0  0  0  0  0
    4.0101    2.5925   -2.3303 C   0  0  0  0  0  0  0  0  0  0  0  0
    3.5319    2.2794   -1.0488 C   0  0  0  0  0  0  0  0  0  0  0  0
    3.0581    3.3587   -0.3452 O   0  0  0  0  0  0  0  0  0  0  0  0
    3.4057    3.3740    1.0370 C   0  0  0  0  0  0  0  0  0  0  0  0
    3.0323   -0.5416    2.2654 H   0  0  0  0  0  0  0  0  0  0  0  0
    4.4875   -0.6309    1.2625 H   0  0  0  0  0  0  0  0  0  0  0  0
    2.9492   -1.4169    0.7310 H   0  0  0  0  0  0  0  0  0  0  0  0
    4.0782   -1.0859   -1.1540 H   0  0  0  0  0  0  0  0  0  0  0  0
    5.0833   -0.4962   -3.2511 H   0  0  0  0  0  0  0  0  0  0  0  0
    7.6845    3.8631   -7.0903 H   0  0  0  0  0  0  0  0  0  0  0  0
    7.3179    4.7783   -5.6357 H   0  0  0  0  0  0  0  0  0  0  0  0
    6.6254    6.0064   -7.6539 H   0  0  0  0  0  0  0  0  0  0  0  0
    4.6032    3.8162   -8.2896 H   0  0  0  0  0  0  0  0  0  0  0  0
    6.1714    4.0026   -9.1058 H   0  0  0  0  0  0  0  0  0  0  0  0
    4.9571    5.2767   -9.2174 H   0  0  0  0  0  0  0  0  0  0  0  0
    5.2986    6.3720   -5.5880 H   0  0  0  0  0  0  0  0  0  0  0  0
    4.1736    5.0855   -6.0569 H   0  0  0  0  0  0  0  0  0  0  0  0
    4.7246    7.4234   -7.5729 H   0  0  0  0  0  0  0  0  0  0  0  0
    6.3985   -0.1184   -8.9969 H   0  0  0  0  0  0  0  0  0  0  0  0
    3.7067   -1.7770   -6.0496 H   0  0  0  0  0  0  0  0  0  0  0  0
    3.3171   -0.6224   -4.8427 H   0  0  0  0  0  0  0  0  0  0  0  0
    3.9830    3.6292   -2.6640 H   0  0  0  0  0  0  0  0  0  0  0  0
    3.4104    4.4175    1.3682 H   0  0  0  0  0  0  0  0  0  0  0  0
    4.4057    2.9654    1.2239 H   0  0  0  0  0  0  0  0  0  0  0  0
    2.6486    2.8508    1.6282 H   0  0  0  0  0  0  0  0  0  0  0  0
  1  2  1  0  0  0  0
  1 26  1  0  0  0  0
  1 27  1  0  0  0  0
  1 28  1  0  0  0  0
  2  3  1  0  0  0  0
  3  4  1  0  0  0  0
  3 23  2  0  0  0  0
  4  5  2  0  0  0  0
  4 29  1  0  0  0  0
  5  6  1  0  0  0  0
  5 30  1  0  0  0  0
  6  7  1  0  0  0  0
  6 22  2  0  0  0  0
  7  8  2  0  0  0  0
  7 21  1  0  0  0  0
  8  9  1  0  0  0  0
  9 10  1  0  0  0  0
  9 15  1  0  0  0  0
 10 11  1  0  0  0  0
 10 31  1  0  0  0  0
 10 32  1  0  0  0  0
 11 12  1  0  0  0  0
 11 13  1  0  0  0  0
 11 33  1  6  0  0  0
 12 34  1  0  0  0  0
 12 35  1  0  0  0  0
 12 36  1  0  0  0  0
 13 14  1  0  0  0  0
 13 37  1  0  0  0  0
 13 38  1  0  0  0  0
 14 39  1  0  0  0  0
 15 16  1  0  0  0  0
 15 21  2  0  0  0  0
 16 17  2  0  0  0  0
 17 18  1  0  0  0  0
 17 40  1  0  0  0  0
 18 19  2  0  0  0  0
 19 20  1  0  0  0  0
 19 21  1  0  0  0  0
 20 41  1  0  0  0  0
 20 42  1  0  0  0  0
 22 23  1  0  0  0  0
 22 43  1  0  0  0  0
 23 24  1  0  0  0  0
 24 25  1  0  0  0  0
 25 44  1  0  0  0  0
 25 45  1  0  0  0  0
 25 46  1  0  0  0  0
M  END
$$$$
