CHEMBL1989708
 OpenBabel04072215363D

 62 66  0  0  1  0  0  0  0  0999 V2000
    2.4051   -0.0729   -0.5001 C   0  0  0  0  0  0  0  0  0  0  0  0
    0.9100    0.0269   -0.5733 C   0  0  0  0  0  0  0  0  0  0  0  0
    0.3064    1.2682   -0.7981 C   0  0  0  0  0  0  0  0  0  0  0  0
   -1.0761    1.3700   -0.8587 C   0  0  0  0  0  0  0  0  0  0  0  0
   -1.8645    0.2366   -0.6964 C   0  0  0  0  0  0  0  0  0  0  0  0
   -1.2960   -1.0235   -0.4871 C   0  0  0  0  0  0  0  0  0  0  0  0
   -2.0564   -2.2105   -0.3246 N   0  0  0  0  0  0  0  0  0  0  0  0
   -3.4270   -2.3091   -0.4925 C   0  0  0  0  0  0  0  0  0  0  0  0
   -4.1520   -1.4035   -0.8884 O   0  0  0  0  0  0  0  0  0  0  0  0
   -3.9183   -3.5586   -0.1171 N   0  0  0  0  0  0  0  0  0  0  0  0
   -5.3066   -3.8267   -0.2229 C   0  0  0  0  0  0  0  0  0  0  0  0
   -6.0369   -3.4009   -1.3330 C   0  0  0  0  0  0  0  0  0  0  0  0
   -7.4299   -3.4689   -1.3326 C   0  0  0  0  0  0  0  0  0  0  0  0
   -8.1264   -4.0089   -0.2406 C   0  0  0  0  0  0  0  0  0  0  0  0
   -9.5991   -3.9607   -0.2179 C   0  0  0  0  0  0  0  0  0  0  0  0
  -10.2775   -4.1890   -1.3987 C   0  0  0  0  0  0  0  0  0  0  0  0
  -11.9447   -3.9800   -1.2676 S   0  0  0  0  0  0  0  0  0  0  0  0
  -11.8708   -3.6757    0.4327 C   0  0  0  0  0  0  0  0  0  0  0  0
  -12.9564   -3.4324    1.3077 C   0  0  0  0  0  0  0  0  0  0  0  0
  -14.3400   -3.4310    0.8699 C   0  0  0  0  0  0  0  0  0  0  0  0
  -15.0363   -4.2178   -0.0758 C   0  0  0  0  0  0  0  0  0  0  0  0
  -16.3246   -3.8847   -0.1827 N   0  0  0  0  0  0  0  0  0  0  0  0
  -16.4632   -2.8719    0.6885 N   0  0  0  0  0  0  0  0  0  0  0  0
  -17.7474   -2.2209    0.8287 C   0  0  0  0  0  0  0  0  0  0  0  0
  -17.8855   -0.9565   -0.0234 C   0  0  3  0  0  0  0  0  0  0  0  0
  -17.7926   -1.2095   -1.5247 C   0  0  0  0  0  0  0  0  0  0  0  0
  -19.1486   -0.3389    0.2588 O   0  0  0  0  0  0  0  0  0  0  0  0
  -15.3149   -2.5815    1.3660 C   0  0  0  0  0  0  0  0  0  0  0  0
  -12.6098   -3.1836    2.6240 C   0  0  0  0  0  0  0  0  0  0  0  0
  -11.3523   -3.1337    3.0908 N   0  0  0  0  0  0  0  0  0  0  0  0
  -10.3143   -3.3425    2.2574 C   0  0  0  0  0  0  0  0  0  0  0  0
   -9.0766   -3.1899    2.8712 N   0  0  0  0  0  0  0  0  0  0  0  0
  -10.5297   -3.6562    0.8834 C   0  0  0  0  0  0  0  0  0  0  0  0
   -7.3758   -4.5634    0.8034 C   0  0  0  0  0  0  0  0  0  0  0  0
   -5.9742   -4.4609    0.8236 C   0  0  0  0  0  0  0  0  0  0  0  0
    0.1031   -1.1172   -0.4240 C   0  0  0  0  0  0  0  0  0  0  0  0
    2.8752    0.9097   -0.6178 H   0  0  0  0  0  0  0  0  0  0  0  0
    2.7808   -0.7206   -1.2980 H   0  0  0  0  0  0  0  0  0  0  0  0
    2.7088   -0.4725    0.4717 H   0  0  0  0  0  0  0  0  0  0  0  0
    0.9073    2.1660   -0.9227 H   0  0  0  0  0  0  0  0  0  0  0  0
   -1.5520    2.3319   -1.0326 H   0  0  0  0  0  0  0  0  0  0  0  0
   -2.9394    0.3806   -0.7443 H   0  0  0  0  0  0  0  0  0  0  0  0
   -1.5494   -3.0766   -0.2161 H   0  0  0  0  0  0  0  0  0  0  0  0
   -3.4345   -3.9879    0.6578 H   0  0  0  0  0  0  0  0  0  0  0  0
   -5.5364   -2.9582   -2.1917 H   0  0  0  0  0  0  0  0  0  0  0  0
   -7.9534   -3.0516   -2.1897 H   0  0  0  0  0  0  0  0  0  0  0  0
   -9.8652   -4.4434   -2.3661 H   0  0  0  0  0  0  0  0  0  0  0  0
  -14.6639   -5.0244   -0.6924 H   0  0  0  0  0  0  0  0  0  0  0  0
  -17.8782   -1.9759    1.8902 H   0  0  0  0  0  0  0  0  0  0  0  0
  -18.5318   -2.9489    0.5867 H   0  0  0  0  0  0  0  0  0  0  0  0
  -17.1113   -0.2366    0.2606 H   0  0  0  0  0  0  0  0  0  0  0  0
  -18.5788   -1.8951   -1.8594 H   0  0  0  0  0  0  0  0  0  0  0  0
  -16.8209   -1.6217   -1.8117 H   0  0  0  0  0  0  0  0  0  0  0  0
  -17.9378   -0.2728   -2.0737 H   0  0  0  0  0  0  0  0  0  0  0  0
  -19.8447   -0.8652   -0.1741 H   0  0  0  0  0  0  0  0  0  0  0  0
  -15.2862   -1.7985    2.1132 H   0  0  0  0  0  0  0  0  0  0  0  0
  -13.3684   -3.0043    3.3812 H   0  0  0  0  0  0  0  0  0  0  0  0
   -9.2253   -2.7730    3.7854 H   0  0  0  0  0  0  0  0  0  0  0  0
   -8.4071   -2.7005    2.2904 H   0  0  0  0  0  0  0  0  0  0  0  0
   -7.8718   -5.0394    1.6469 H   0  0  0  0  0  0  0  0  0  0  0  0
   -5.4374   -4.8086    1.7016 H   0  0  0  0  0  0  0  0  0  0  0  0
    0.5827   -2.0796   -0.2566 H   0  0  0  0  0  0  0  0  0  0  0  0
  1  2  1  0  0  0  0
  1 37  1  0  0  0  0
  1 38  1  0  0  0  0
  1 39  1  0  0  0  0
  2  3  1  0  0  0  0
  2 36  2  0  0  0  0
  3  4  2  0  0  0  0
  3 40  1  0  0  0  0
  4  5  1  0  0  0  0
  4 41  1  0  0  0  0
  5  6  2  0  0  0  0
  5 42  1  0  0  0  0
  6  7  1  0  0  0  0
  6 36  1  0  0  0  0
  7  8  1  0  0  0  0
  7 43  1  0  0  0  0
  8  9  2  0  0  0  0
  8 10  1  0  0  0  0
 10 11  1  0  0  0  0
 10 44  1  0  0  0  0
 11 12  1  0  0  0  0
 11 35  2  0  0  0  0
 12 13  2  0  0  0  0
 12 45  1  0  0  0  0
 13 14  1  0  0  0  0
 13 46  1  0  0  0  0
 14 15  1  0  0  0  0
 14 34  2  0  0  0  0
 15 16  2  0  0  0  0
 15 33  1  0  0  0  0
 16 17  1  0  0  0  0
 16 47  1  0  0  0  0
 17 18  1  0  0  0  0
 18 19  1  0  0  0  0
 18 33  2  0  0  0  0
 19 20  1  0  0  0  0
 19 29  2  0  0  0  0
 20 21  1  0  0  0  0
 20 28  2  0  0  0  0
 21 22  2  0  0  0  0
 21 48  1  0  0  0  0
 22 23  1  0  0  0  0
 23 24  1  0  0  0  0
 23 28  1  0  0  0  0
 24 25  1  0  0  0  0
 24 49  1  0  0  0  0
 24 50  1  0  0  0  0
 25 26  1  0  0  0  0
 25 27  1  0  0  0  0
 25 51  1  0  0  0  0
 26 52  1  0  0  0  0
 26 53  1  0  0  0  0
 26 54  1  0  0  0  0
 27 55  1  0  0  0  0
 28 56  1  0  0  0  0
 29 30  1  0  0  0  0
 29 57  1  0  0  0  0
 30 31  2  0  0  0  0
 31 32  1  0  0  0  0
 31 33  1  0  0  0  0
 32 58  1  0  0  0  0
 32 59  1  0  0  0  0
 34 35  1  0  0  0  0
 34 60  1  0  0  0  0
 35 61  1  0  0  0  0
 36 62  1  0  0  0  0
M  END
$$$$
