CHEMBL3676364
 OpenBabel04072215373D

 67 69  0  0  0  0  0  0  0  0999 V2000
    1.4182   -0.7660   -1.0473 C   0  0  0  0  0  0  0  0  0  0  0  0
    2.5168   -0.2260   -0.4633 C   0  0  0  0  0  0  0  0  0  0  0  0
    3.0786    1.0520   -0.9607 C   0  0  0  0  0  0  0  0  0  0  0  0
    2.4325    1.8033   -1.6780 O   0  0  0  0  0  0  0  0  0  0  0  0
    4.3877    1.2394   -0.5555 N   0  0  0  0  0  0  0  0  0  0  0  0
    5.0808    2.4189   -0.8835 C   0  0  0  0  0  0  0  0  0  0  0  0
    6.2412    2.2855   -1.6479 C   0  0  0  0  0  0  0  0  0  0  0  0
    6.8496    3.4170   -2.2384 C   0  0  0  0  0  0  0  0  0  0  0  0
    7.9066    3.3707   -3.1654 C   0  0  0  0  0  0  0  0  0  0  0  0
    8.3538    2.1216   -3.6501 N   0  0  0  0  0  0  0  0  0  0  0  0
    9.6520    1.7752   -4.0819 C   0  0  0  0  0  0  0  0  0  0  0  0
   10.7764    2.3897   -3.5116 C   0  0  0  0  0  0  0  0  0  0  0  0
   12.0435    1.8257   -3.6641 C   0  0  0  0  0  0  0  0  0  0  0  0
   12.2127    0.6696   -4.4273 C   0  0  0  0  0  0  0  0  0  0  0  0
   13.9304   -0.1380   -4.3947 Br  0  0  0  0  0  0  0  0  0  0  0  0
   11.1266    0.1186   -5.1109 C   0  0  0  0  0  0  0  0  0  0  0  0
   11.2822   -1.2813   -6.1157 Cl  0  0  0  0  0  0  0  0  0  0  0  0
    9.8559    0.6789   -4.9264 C   0  0  0  0  0  0  0  0  0  0  0  0
    8.7860    0.1309   -5.5376 F   0  0  0  0  0  0  0  0  0  0  0  0
    8.4938    4.4834   -3.6433 N   0  0  0  0  0  0  0  0  0  0  0  0
    7.9915    5.6487   -3.2329 C   0  0  0  0  0  0  0  0  0  0  0  0
    6.9648    5.8108   -2.3928 N   0  0  0  0  0  0  0  0  0  0  0  0
    6.3960    4.7011   -1.9143 C   0  0  0  0  0  0  0  0  0  0  0  0
    5.3173    4.8204   -1.0501 C   0  0  0  0  0  0  0  0  0  0  0  0
    4.6536    3.7053   -0.5214 C   0  0  0  0  0  0  0  0  0  0  0  0
    3.6753    4.0348    0.3774 O   0  0  0  0  0  0  0  0  0  0  0  0
    3.5091    3.1973    1.5218 C   0  0  0  0  0  0  0  0  0  0  0  0
    4.7719    3.0084    2.3672 C   0  0  0  0  0  0  0  0  0  0  0  0
    4.5486    2.0847    3.4481 N   0  0  0  0  0  0  0  0  0  0  0  0
    4.6391    0.7202    3.3286 C   0  0  0  0  0  0  0  0  0  0  0  0
    4.9614    0.1487    2.2907 O   0  0  0  0  0  0  0  0  0  0  0  0
    4.2180   -0.0495    4.5694 C   0  0  0  0  0  0  0  0  0  0  0  0
    4.4057    0.7239    5.8815 C   0  0  0  0  0  0  0  0  0  0  0  0
    3.6165    1.9812    6.0128 N   0  0  0  0  0  0  0  0  0  0  0  0
    2.1621    1.7918    5.8607 C   0  0  0  0  0  0  0  0  0  0  0  0
    1.4796    0.9746    6.9489 C   0  0  0  0  0  0  0  0  0  0  0  0
    4.0083    2.6686    7.2573 C   0  0  0  0  0  0  0  0  0  0  0  0
    3.3352    4.0164    7.4922 C   0  0  0  0  0  0  0  0  0  0  0  0
    0.9638   -1.6678   -0.6434 H   0  0  0  0  0  0  0  0  0  0  0  0
    0.9691   -0.3126   -1.9169 H   0  0  0  0  0  0  0  0  0  0  0  0
    2.9531   -0.6742    0.4226 H   0  0  0  0  0  0  0  0  0  0  0  0
    4.9290    0.3975   -0.3921 H   0  0  0  0  0  0  0  0  0  0  0  0
    6.6439    1.2917   -1.8358 H   0  0  0  0  0  0  0  0  0  0  0  0
    7.6140    1.6140   -4.1271 H   0  0  0  0  0  0  0  0  0  0  0  0
   10.6634    3.2649   -2.8787 H   0  0  0  0  0  0  0  0  0  0  0  0
   12.8771    2.2739   -3.1284 H   0  0  0  0  0  0  0  0  0  0  0  0
    8.4540    6.5494   -3.6221 H   0  0  0  0  0  0  0  0  0  0  0  0
    4.9820    5.8169   -0.7707 H   0  0  0  0  0  0  0  0  0  0  0  0
    3.0409    2.2489    1.2577 H   0  0  0  0  0  0  0  0  0  0  0  0
    2.7573    3.6899    2.1549 H   0  0  0  0  0  0  0  0  0  0  0  0
    5.0721    3.9633    2.8124 H   0  0  0  0  0  0  0  0  0  0  0  0
    5.6206    2.6446    1.7838 H   0  0  0  0  0  0  0  0  0  0  0  0
    4.1620    2.4536    4.3209 H   0  0  0  0  0  0  0  0  0  0  0  0
    4.8453   -0.9490    4.6149 H   0  0  0  0  0  0  0  0  0  0  0  0
    3.1852   -0.3917    4.4383 H   0  0  0  0  0  0  0  0  0  0  0  0
    5.4700    0.9883    5.9395 H   0  0  0  0  0  0  0  0  0  0  0  0
    4.2079    0.0523    6.7261 H   0  0  0  0  0  0  0  0  0  0  0  0
    1.9535    1.3342    4.8870 H   0  0  0  0  0  0  0  0  0  0  0  0
    1.6700    2.7698    5.7853 H   0  0  0  0  0  0  0  0  0  0  0  0
    2.0716    0.1072    7.2495 H   0  0  0  0  0  0  0  0  0  0  0  0
    0.5170    0.6018    6.5840 H   0  0  0  0  0  0  0  0  0  0  0  0
    1.2920    1.5863    7.8363 H   0  0  0  0  0  0  0  0  0  0  0  0
    5.0885    2.8596    7.2180 H   0  0  0  0  0  0  0  0  0  0  0  0
    3.8310    2.0231    8.1254 H   0  0  0  0  0  0  0  0  0  0  0  0
    3.5150    4.7049    6.6602 H   0  0  0  0  0  0  0  0  0  0  0  0
    3.7412    4.4735    8.4011 H   0  0  0  0  0  0  0  0  0  0  0  0
    2.2559    3.9168    7.6375 H   0  0  0  0  0  0  0  0  0  0  0  0
  1  2  2  0  0  0  0
  1 39  1  0  0  0  0
  1 40  1  0  0  0  0
  2  3  1  0  0  0  0
  2 41  1  0  0  0  0
  3  4  2  0  0  0  0
  3  5  1  0  0  0  0
  5  6  1  0  0  0  0
  5 42  1  0  0  0  0
  6  7  1  0  0  0  0
  6 25  2  0  0  0  0
  7  8  2  0  0  0  0
  7 43  1  0  0  0  0
  8  9  1  0  0  0  0
  8 23  1  0  0  0  0
  9 10  1  0  0  0  0
  9 20  2  0  0  0  0
 10 11  1  0  0  0  0
 10 44  1  0  0  0  0
 11 12  1  0  0  0  0
 11 18  2  0  0  0  0
 12 13  2  0  0  0  0
 12 45  1  0  0  0  0
 13 14  1  0  0  0  0
 13 46  1  0  0  0  0
 14 15  1  0  0  0  0
 14 16  2  0  0  0  0
 16 17  1  0  0  0  0
 16 18  1  0  0  0  0
 18 19  1  0  0  0  0
 20 21  1  0  0  0  0
 21 22  2  0  0  0  0
 21 47  1  0  0  0  0
 22 23  1  0  0  0  0
 23 24  2  0  0  0  0
 24 25  1  0  0  0  0
 24 48  1  0  0  0  0
 25 26  1  0  0  0  0
 26 27  1  0  0  0  0
 27 28  1  0  0  0  0
 27 49  1  0  0  0  0
 27 50  1  0  0  0  0
 28 29  1  0  0  0  0
 28 51  1  0  0  0  0
 28 52  1  0  0  0  0
 29 30  1  0  0  0  0
 29 53  1  0  0  0  0
 30 31  2  0  0  0  0
 30 32  1  0  0  0  0
 32 33  1  0  0  0  0
 32 54  1  0  0  0  0
 32 55  1  0  0  0  0
 33 34  1  0  0  0  0
 33 56  1  0  0  0  0
 33 57  1  0  0  0  0
 34 35  1  0  0  0  0
 34 37  1  0  0  0  0
 35 36  1  0  0  0  0
 35 58  1  0  0  0  0
 35 59  1  0  0  0  0
 36 60  1  0  0  0  0
 36 61  1  0  0  0  0
 36 62  1  0  0  0  0
 37 38  1  0  0  0  0
 37 63  1  0  0  0  0
 37 64  1  0  0  0  0
 38 65  1  0  0  0  0
 38 66  1  0  0  0  0
 38 67  1  0  0  0  0
M  END
$$$$
