CHEMBL3690377
 OpenBabel04072215373D

 62 66  0  0  0  0  0  0  0  0999 V2000
    2.2360    0.3612   -0.7711 C   0  0  0  0  0  0  0  0  0  0  0  0
    0.8081    0.1087   -0.9500 N   0  0  0  0  0  0  0  0  0  0  0  0
    0.3671   -1.0269   -0.0967 C   0  0  0  0  0  0  0  0  0  0  0  0
   -1.1641   -1.2811   -0.1756 C   0  0  0  0  0  0  0  0  0  0  0  0
   -1.8210   -0.0333    0.2135 N   0  0  0  0  0  0  0  0  0  0  0  0
   -3.1009   -0.0654    0.7372 C   0  0  0  0  0  0  0  0  0  0  0  0
   -3.4732    0.9683    1.5882 C   0  0  0  0  0  0  0  0  0  0  0  0
   -4.7295    0.9838    2.1758 C   0  0  0  0  0  0  0  0  0  0  0  0
   -5.6066   -0.0499    1.9031 C   0  0  0  0  0  0  0  0  0  0  0  0
   -6.9587   -0.0862    2.5118 C   0  0  0  0  0  0  0  0  0  0  0  0
   -7.2254    0.4527    3.8517 C   0  0  0  0  0  0  0  0  0  0  0  0
   -8.4505    0.3515    4.3896 C   0  0  0  0  0  0  0  0  0  0  0  0
   -9.4915   -0.2229    3.6571 N   0  0  0  0  0  0  0  0  0  0  0  0
  -10.8451   -0.3969    3.9559 C   0  0  0  0  0  0  0  0  0  0  0  0
  -11.5775    0.1050    5.1339 C   0  0  0  0  0  0  0  0  0  0  0  0
  -11.1937    1.3112    5.7375 C   0  0  0  0  0  0  0  0  0  0  0  0
  -11.8811    1.8147    6.8306 C   0  0  0  0  0  0  0  0  0  0  0  0
  -13.0182    1.1634    7.2914 C   0  0  0  0  0  0  0  0  0  0  0  0
  -13.4919    0.0025    6.6752 C   0  0  0  0  0  0  0  0  0  0  0  0
  -14.7134   -0.6153    7.0647 N   0  0  0  0  0  0  0  0  0  0  0  0
  -15.5843   -0.1310    8.0153 C   0  0  0  0  0  0  0  0  0  0  0  0
  -15.4482    0.8891    8.6935 O   0  0  0  0  0  0  0  0  0  0  0  0
  -16.6841   -0.9354    8.2229 N   0  0  0  0  0  0  0  0  0  0  0  0
  -17.6709   -0.5029    9.2208 C   0  0  0  0  0  0  0  0  0  0  0  0
  -18.7302    0.5050    8.7476 C   0  0  0  0  0  0  0  0  0  0  0  0
  -18.6405    0.7609    7.4229 F   0  0  0  0  0  0  0  0  0  0  0  0
  -19.9724   -0.0003    8.9648 F   0  0  0  0  0  0  0  0  0  0  0  0
  -18.6578    1.6787    9.4098 F   0  0  0  0  0  0  0  0  0  0  0  0
  -12.7360   -0.5456    5.6207 C   0  0  0  0  0  0  0  0  0  0  0  0
  -11.3388   -1.0708    2.8478 C   0  0  0  0  0  0  0  0  0  0  0  0
  -10.3838   -1.2750    1.8908 N   0  0  0  0  0  0  0  0  0  0  0  0
   -9.2852   -0.7493    2.3822 C   0  0  0  0  0  0  0  0  0  0  0  0
   -7.9737   -0.6616    1.8245 C   0  0  0  0  0  0  0  0  0  0  0  0
   -5.2315   -1.0621    1.0902 N   0  0  0  0  0  0  0  0  0  0  0  0
   -3.9632   -1.0757    0.5191 N   0  0  0  0  0  0  0  0  0  0  0  0
   -1.4994    1.0836   -0.6857 C   0  0  0  0  0  0  0  0  0  0  0  0
    0.0252    1.3242   -0.6204 C   0  0  0  0  0  0  0  0  0  0  0  0
    2.8180   -0.5229   -1.0503 H   0  0  0  0  0  0  0  0  0  0  0  0
    2.4859    0.6278    0.2626 H   0  0  0  0  0  0  0  0  0  0  0  0
    2.5641    1.1770   -1.4247 H   0  0  0  0  0  0  0  0  0  0  0  0
    0.6252   -0.8199    0.9528 H   0  0  0  0  0  0  0  0  0  0  0  0
    0.8953   -1.9399   -0.3914 H   0  0  0  0  0  0  0  0  0  0  0  0
   -1.4186   -2.0996    0.5078 H   0  0  0  0  0  0  0  0  0  0  0  0
   -1.4483   -1.5813   -1.1928 H   0  0  0  0  0  0  0  0  0  0  0  0
   -2.7612    1.7513    1.8273 H   0  0  0  0  0  0  0  0  0  0  0  0
   -4.9900    1.8036    2.8339 H   0  0  0  0  0  0  0  0  0  0  0  0
   -6.4215    0.9110    4.4181 H   0  0  0  0  0  0  0  0  0  0  0  0
   -8.6466    0.7059    5.3903 H   0  0  0  0  0  0  0  0  0  0  0  0
  -10.3766    1.9077    5.3528 H   0  0  0  0  0  0  0  0  0  0  0  0
  -11.5558    2.7380    7.3082 H   0  0  0  0  0  0  0  0  0  0  0  0
  -13.5198    1.6214    8.1359 H   0  0  0  0  0  0  0  0  0  0  0  0
  -14.9870   -1.4492    6.5600 H   0  0  0  0  0  0  0  0  0  0  0  0
  -17.0140   -1.4790    7.4354 H   0  0  0  0  0  0  0  0  0  0  0  0
  -17.1368   -0.0682   10.0744 H   0  0  0  0  0  0  0  0  0  0  0  0
  -18.1573   -1.4098    9.5855 H   0  0  0  0  0  0  0  0  0  0  0  0
  -13.0601   -1.4741    5.1513 H   0  0  0  0  0  0  0  0  0  0  0  0
  -12.3591   -1.3869    2.6762 H   0  0  0  0  0  0  0  0  0  0  0  0
   -7.8324   -1.0788    0.8313 H   0  0  0  0  0  0  0  0  0  0  0  0
   -2.0126    2.0102   -0.4037 H   0  0  0  0  0  0  0  0  0  0  0  0
   -1.8048    0.8460   -1.7139 H   0  0  0  0  0  0  0  0  0  0  0  0
    0.2732    1.6691    0.3934 H   0  0  0  0  0  0  0  0  0  0  0  0
    0.2817    2.1320   -1.3154 H   0  0  0  0  0  0  0  0  0  0  0  0
  1  2  1  0  0  0  0
  1 38  1  0  0  0  0
  1 39  1  0  0  0  0
  1 40  1  0  0  0  0
  2  3  1  0  0  0  0
  2 37  1  0  0  0  0
  3  4  1  0  0  0  0
  3 41  1  0  0  0  0
  3 42  1  0  0  0  0
  4  5  1  0  0  0  0
  4 43  1  0  0  0  0
  4 44  1  0  0  0  0
  5  6  1  0  0  0  0
  5 36  1  0  0  0  0
  6  7  1  0  0  0  0
  6 35  2  0  0  0  0
  7  8  2  0  0  0  0
  7 45  1  0  0  0  0
  8  9  1  0  0  0  0
  8 46  1  0  0  0  0
  9 10  1  0  0  0  0
  9 34  2  0  0  0  0
 10 11  1  0  0  0  0
 10 33  2  0  0  0  0
 11 12  2  0  0  0  0
 11 47  1  0  0  0  0
 12 13  1  0  0  0  0
 12 48  1  0  0  0  0
 13 14  1  0  0  0  0
 13 32  1  0  0  0  0
 14 15  1  0  0  0  0
 14 30  2  0  0  0  0
 15 16  1  0  0  0  0
 15 29  2  0  0  0  0
 16 17  2  0  0  0  0
 16 49  1  0  0  0  0
 17 18  1  0  0  0  0
 17 50  1  0  0  0  0
 18 19  2  0  0  0  0
 18 51  1  0  0  0  0
 19 20  1  0  0  0  0
 19 29  1  0  0  0  0
 20 21  1  0  0  0  0
 20 52  1  0  0  0  0
 21 22  2  0  0  0  0
 21 23  1  0  0  0  0
 23 24  1  0  0  0  0
 23 53  1  0  0  0  0
 24 25  1  0  0  0  0
 24 54  1  0  0  0  0
 24 55  1  0  0  0  0
 25 26  1  0  0  0  0
 25 27  1  0  0  0  0
 25 28  1  0  0  0  0
 29 56  1  0  0  0  0
 30 31  1  0  0  0  0
 30 57  1  0  0  0  0
 31 32  2  0  0  0  0
 32 33  1  0  0  0  0
 33 58  1  0  0  0  0
 34 35  1  0  0  0  0
 36 37  1  0  0  0  0
 36 59  1  0  0  0  0
 36 60  1  0  0  0  0
 37 61  1  0  0  0  0
 37 62  1  0  0  0  0
M  END
$$$$
