CHEMBL394203
 OpenBabel04072215373D

 46 48  0  0  0  0  0  0  0  0999 V2000
    2.1627    0.0992   -0.0364 C   0  0  0  0  0  0  0  0  0  0  0  0
    0.7330   -0.0357    0.0962 N   0  0  0  0  0  0  0  0  0  0  0  0
   -0.1326    1.0242    0.1625 C   0  0  0  0  0  0  0  0  0  0  0  0
   -1.3801    0.6286    0.2448 N   0  0  0  0  0  0  0  0  0  0  0  0
   -1.3169   -0.7241    0.1419 C   0  0  0  0  0  0  0  0  0  0  0  0
   -2.4064   -1.5009    0.0889 N   0  0  0  0  0  0  0  0  0  0  0  0
   -3.6796   -1.1286    0.6575 C   0  0  0  0  0  0  0  0  0  0  0  0
   -4.0857   -2.0564    1.7884 C   0  0  0  0  0  0  0  0  0  0  0  0
   -4.8603   -1.5538    2.8416 C   0  0  0  0  0  0  0  0  0  0  0  0
   -5.2739   -2.4148    3.8485 C   0  0  0  0  0  0  0  0  0  0  0  0
   -4.9798   -3.7305    3.8811 N   0  0  0  0  0  0  0  0  0  0  0  0
   -4.2441   -4.2052    2.8552 C   0  0  0  0  0  0  0  0  0  0  0  0
   -3.7886   -3.4255    1.8009 C   0  0  0  0  0  0  0  0  0  0  0  0
   -0.0152   -1.1909    0.0706 C   0  0  0  0  0  0  0  0  0  0  0  0
    0.3776   -2.5752   -0.0695 C   0  0  0  0  0  0  0  0  0  0  0  0
   -0.3189   -3.3508   -0.7190 O   0  0  0  0  0  0  0  0  0  0  0  0
    1.5036   -2.9697    0.6461 N   0  0  0  0  0  0  0  0  0  0  0  0
    2.0236   -4.2919    0.6999 C   0  0  0  0  0  0  0  0  0  0  0  0
    1.6273   -5.2973   -0.1884 C   0  0  0  0  0  0  0  0  0  0  0  0
    2.1116   -6.6096   -0.0818 C   0  0  0  0  0  0  0  0  0  0  0  0
    1.6555   -7.6791   -1.0472 C   0  0  0  0  0  0  0  0  0  0  0  0
    0.7796   -7.2353   -1.9897 F   0  0  0  0  0  0  0  0  0  0  0  0
    2.6968   -8.2245   -1.7343 F   0  0  0  0  0  0  0  0  0  0  0  0
    1.0371   -8.7159   -0.4186 F   0  0  0  0  0  0  0  0  0  0  0  0
    3.0313   -6.9099    0.9300 C   0  0  0  0  0  0  0  0  0  0  0  0
    3.4798   -5.9121    1.8088 C   0  0  0  0  0  0  0  0  0  0  0  0
    4.5061   -6.2322    2.8721 C   0  0  0  0  0  0  0  0  0  0  0  0
    4.9144   -7.5312    2.8618 F   0  0  0  0  0  0  0  0  0  0  0  0
    5.6360   -5.4848    2.7358 F   0  0  0  0  0  0  0  0  0  0  0  0
    4.0467   -5.9928    4.1300 F   0  0  0  0  0  0  0  0  0  0  0  0
    2.9663   -4.6032    1.6839 C   0  0  0  0  0  0  0  0  0  0  0  0
    2.4200    1.1541   -0.1689 H   0  0  0  0  0  0  0  0  0  0  0  0
    2.4970   -0.4709   -0.9063 H   0  0  0  0  0  0  0  0  0  0  0  0
    2.6289   -0.2710    0.8793 H   0  0  0  0  0  0  0  0  0  0  0  0
    0.1924    2.0569    0.1372 H   0  0  0  0  0  0  0  0  0  0  0  0
   -2.3181   -2.4563   -0.2468 H   0  0  0  0  0  0  0  0  0  0  0  0
   -4.4494   -1.1774   -0.1202 H   0  0  0  0  0  0  0  0  0  0  0  0
   -3.6606   -0.0967    1.0295 H   0  0  0  0  0  0  0  0  0  0  0  0
   -5.1424   -0.5067    2.8820 H   0  0  0  0  0  0  0  0  0  0  0  0
   -5.8762   -2.0554    4.6779 H   0  0  0  0  0  0  0  0  0  0  0  0
   -4.0238   -5.2685    2.8972 H   0  0  0  0  0  0  0  0  0  0  0  0
   -3.2121   -3.8976    1.0135 H   0  0  0  0  0  0  0  0  0  0  0  0
    1.8549   -2.3150    1.3339 H   0  0  0  0  0  0  0  0  0  0  0  0
    0.9330   -5.0926   -0.9999 H   0  0  0  0  0  0  0  0  0  0  0  0
    3.4075   -7.9304    1.0232 H   0  0  0  0  0  0  0  0  0  0  0  0
    3.3085   -3.8402    2.3814 H   0  0  0  0  0  0  0  0  0  0  0  0
  1  2  1  0  0  0  0
  1 32  1  0  0  0  0
  1 33  1  0  0  0  0
  1 34  1  0  0  0  0
  2  3  1  0  0  0  0
  2 14  1  0  0  0  0
  3  4  2  0  0  0  0
  3 35  1  0  0  0  0
  4  5  1  0  0  0  0
  5  6  1  0  0  0  0
  5 14  2  0  0  0  0
  6  7  1  0  0  0  0
  6 36  1  0  0  0  0
  7  8  1  0  0  0  0
  7 37  1  0  0  0  0
  7 38  1  0  0  0  0
  8  9  1  0  0  0  0
  8 13  2  0  0  0  0
  9 10  2  0  0  0  0
  9 39  1  0  0  0  0
 10 11  1  0  0  0  0
 10 40  1  0  0  0  0
 11 12  2  0  0  0  0
 12 13  1  0  0  0  0
 12 41  1  0  0  0  0
 13 42  1  0  0  0  0
 14 15  1  0  0  0  0
 15 16  2  0  0  0  0
 15 17  1  0  0  0  0
 17 18  1  0  0  0  0
 17 43  1  0  0  0  0
 18 19  1  0  0  0  0
 18 31  2  0  0  0  0
 19 20  2  0  0  0  0
 19 44  1  0  0  0  0
 20 21  1  0  0  0  0
 20 25  1  0  0  0  0
 21 22  1  0  0  0  0
 21 23  1  0  0  0  0
 21 24  1  0  0  0  0
 25 26  2  0  0  0  0
 25 45  1  0  0  0  0
 26 27  1  0  0  0  0
 26 31  1  0  0  0  0
 27 28  1  0  0  0  0
 27 29  1  0  0  0  0
 27 30  1  0  0  0  0
 31 46  1  0  0  0  0
M  END
$$$$
