CHEMBL3128220
 OpenBabel04072215363D

 59 63  0  0  0  0  0  0  0  0999 V2000
    2.4885   -6.0009    2.2404 O   0  0  0  0  0  0  0  0  0  0  0  0
    3.1414   -5.1353    1.2780 S   0  0  0  0  0  0  0  0  0  0  0  0
    4.3879   -5.5251    0.6538 O   0  0  0  0  0  0  0  0  0  0  0  0
    2.0029   -4.8146    0.1011 N   0  0  0  0  0  0  0  0  0  0  0  0
    2.3260   -4.0622   -1.0489 C   0  0  0  0  0  0  0  0  0  0  0  0
    1.9736   -2.7167   -1.0809 C   0  0  0  0  0  0  0  0  0  0  0  0
    2.2438   -1.9583   -2.2183 C   0  0  0  0  0  0  0  0  0  0  0  0
    2.8674   -2.5478   -3.3205 C   0  0  0  0  0  0  0  0  0  0  0  0
    3.2315   -3.9037   -3.2996 C   0  0  0  0  0  0  0  0  0  0  0  0
    3.9771   -4.5188   -4.4684 C   0  0  0  0  0  0  0  0  0  0  0  0
    3.1735   -5.5623   -5.0830 N   0  0  0  0  0  0  0  0  0  0  0  0
    3.7709   -6.2273   -6.1577 C   0  0  0  0  0  0  0  0  0  0  0  0
    5.1216   -6.2944   -6.2646 N   0  0  0  0  0  0  0  0  0  0  0  0
    5.6669   -6.9608   -7.3023 C   0  0  0  0  0  0  0  0  0  0  0  0
    5.0333   -7.5822   -8.3098 N   0  0  0  0  0  0  0  0  0  0  0  0
    3.6987   -7.5085   -8.1752 C   0  0  0  0  0  0  0  0  0  0  0  0
    3.0165   -6.8675   -7.1530 C   0  0  0  0  0  0  0  0  0  0  0  0
    1.6582   -7.0723   -7.4596 C   0  0  0  0  0  0  0  0  0  0  0  0
    1.4737   -7.7715   -8.5833 N   0  0  0  0  0  0  0  0  0  0  0  0
    2.7372   -8.0451   -8.9996 N   0  0  0  0  0  0  0  0  0  0  0  0
    2.9106   -8.7703  -10.2486 C   0  0  0  0  0  0  0  0  0  0  0  0
    4.1348   -9.6815  -10.3128 C   0  0  0  0  0  0  0  0  0  0  0  0
    4.2290  -10.4560  -11.6064 C   0  0  0  0  0  0  0  0  0  0  0  0
    4.8820   -9.8991  -12.7158 C   0  0  0  0  0  0  0  0  0  0  0  0
    5.0337  -10.6353  -13.8918 C   0  0  0  0  0  0  0  0  0  0  0  0
    4.5259  -11.9300  -13.9739 C   0  0  0  0  0  0  0  0  0  0  0  0
    3.8521  -12.4830  -12.8861 C   0  0  0  0  0  0  0  0  0  0  0  0
    3.6989  -11.7483  -11.7082 C   0  0  0  0  0  0  0  0  0  0  0  0
    2.9370   -4.6627   -2.1529 C   0  0  0  0  0  0  0  0  0  0  0  0
    3.3868   -3.5589    2.0743 C   0  0  0  0  0  0  0  0  0  0  0  0
    2.5641   -3.1897    3.1448 C   0  0  0  0  0  0  0  0  0  0  0  0
    2.8441   -2.0218    3.8597 C   0  0  0  0  0  0  0  0  0  0  0  0
    3.9413   -1.2346    3.5088 C   0  0  0  0  0  0  0  0  0  0  0  0
    4.7532   -1.5996    2.4338 C   0  0  0  0  0  0  0  0  0  0  0  0
    4.4795   -2.7641    1.7138 C   0  0  0  0  0  0  0  0  0  0  0  0
    1.1030   -5.2806    0.1838 H   0  0  0  0  0  0  0  0  0  0  0  0
    1.4975   -2.2510   -0.2227 H   0  0  0  0  0  0  0  0  0  0  0  0
    1.9795   -0.9049   -2.2385 H   0  0  0  0  0  0  0  0  0  0  0  0
    3.0795   -1.9333   -4.1936 H   0  0  0  0  0  0  0  0  0  0  0  0
    4.9341   -4.9034   -4.0947 H   0  0  0  0  0  0  0  0  0  0  0  0
    4.1998   -3.7407   -5.2107 H   0  0  0  0  0  0  0  0  0  0  0  0
    2.2184   -5.2860   -5.2742 H   0  0  0  0  0  0  0  0  0  0  0  0
    6.7529   -7.0051   -7.3214 H   0  0  0  0  0  0  0  0  0  0  0  0
    0.7914   -6.7326   -6.9086 H   0  0  0  0  0  0  0  0  0  0  0  0
    2.9309   -8.0167  -11.0444 H   0  0  0  0  0  0  0  0  0  0  0  0
    2.0027   -9.3719  -10.3907 H   0  0  0  0  0  0  0  0  0  0  0  0
    4.1327  -10.3804   -9.4665 H   0  0  0  0  0  0  0  0  0  0  0  0
    5.0577   -9.0998  -10.2176 H   0  0  0  0  0  0  0  0  0  0  0  0
    5.2986   -8.8954  -12.6632 H   0  0  0  0  0  0  0  0  0  0  0  0
    5.5604  -10.2035  -14.7389 H   0  0  0  0  0  0  0  0  0  0  0  0
    4.6594  -12.5096  -14.8835 H   0  0  0  0  0  0  0  0  0  0  0  0
    3.4567  -13.4934  -12.9509 H   0  0  0  0  0  0  0  0  0  0  0  0
    3.1820  -12.2013  -10.8652 H   0  0  0  0  0  0  0  0  0  0  0  0
    3.2041   -5.7179   -2.1232 H   0  0  0  0  0  0  0  0  0  0  0  0
    1.7267   -3.8145    3.4459 H   0  0  0  0  0  0  0  0  0  0  0  0
    2.2225   -1.7397    4.7068 H   0  0  0  0  0  0  0  0  0  0  0  0
    4.1758   -0.3427    4.0871 H   0  0  0  0  0  0  0  0  0  0  0  0
    5.6148   -0.9894    2.1735 H   0  0  0  0  0  0  0  0  0  0  0  0
    5.1324   -3.0566    0.8942 H   0  0  0  0  0  0  0  0  0  0  0  0
  1  2  2  0  0  0  0
  2  3  2  0  0  0  0
  2  4  1  0  0  0  0
  2 30  1  0  0  0  0
  4  5  1  0  0  0  0
  4 36  1  0  0  0  0
  5  6  1  0  0  0  0
  5 29  2  0  0  0  0
  6  7  2  0  0  0  0
  6 37  1  0  0  0  0
  7  8  1  0  0  0  0
  7 38  1  0  0  0  0
  8  9  2  0  0  0  0
  8 39  1  0  0  0  0
  9 10  1  0  0  0  0
  9 29  1  0  0  0  0
 10 11  1  0  0  0  0
 10 40  1  0  0  0  0
 10 41  1  0  0  0  0
 11 12  1  0  0  0  0
 11 42  1  0  0  0  0
 12 13  1  0  0  0  0
 12 17  2  0  0  0  0
 13 14  2  0  0  0  0
 14 15  1  0  0  0  0
 14 43  1  0  0  0  0
 15 16  2  0  0  0  0
 16 17  1  0  0  0  0
 16 20  1  0  0  0  0
 17 18  1  0  0  0  0
 18 19  2  0  0  0  0
 18 44  1  0  0  0  0
 19 20  1  0  0  0  0
 20 21  1  0  0  0  0
 21 22  1  0  0  0  0
 21 45  1  0  0  0  0
 21 46  1  0  0  0  0
 22 23  1  0  0  0  0
 22 47  1  0  0  0  0
 22 48  1  0  0  0  0
 23 24  1  0  0  0  0
 23 28  2  0  0  0  0
 24 25  2  0  0  0  0
 24 49  1  0  0  0  0
 25 26  1  0  0  0  0
 25 50  1  0  0  0  0
 26 27  2  0  0  0  0
 26 51  1  0  0  0  0
 27 28  1  0  0  0  0
 27 52  1  0  0  0  0
 28 53  1  0  0  0  0
 29 54  1  0  0  0  0
 30 31  1  0  0  0  0
 30 35  2  0  0  0  0
 31 32  2  0  0  0  0
 31 55  1  0  0  0  0
 32 33  1  0  0  0  0
 32 56  1  0  0  0  0
 33 34  2  0  0  0  0
 33 57  1  0  0  0  0
 34 35  1  0  0  0  0
 34 58  1  0  0  0  0
 35 59  1  0  0  0  0
M  END
$$$$
