CHEMBL385898
 OpenBabel04072215373D

 86 90  0  0  0  0  0  0  0  0999 V2000
    0.6665    0.4526    1.3171 C   0  0  0  0  0  0  0  0  0  0  0  0
    2.0501    0.3838    1.0085 O   0  0  0  0  0  0  0  0  0  0  0  0
    2.8138   -0.5455    1.6551 C   0  0  0  0  0  0  0  0  0  0  0  0
    2.3999   -1.4582    2.6188 C   0  0  0  0  0  0  0  0  0  0  0  0
    3.3246   -2.3701    3.1626 C   0  0  0  0  0  0  0  0  0  0  0  0
    4.6785   -2.3487    2.7778 C   0  0  0  0  0  0  0  0  0  0  0  0
    5.6286   -3.2510    3.3616 N   0  0  0  0  0  0  0  0  0  0  0  0
    6.7152   -2.8216    4.1339 C   0  0  0  0  0  0  0  0  0  0  0  0
    7.7215   -3.4967    4.3485 O   0  0  0  0  0  0  0  0  0  0  0  0
    6.5110   -1.5599    4.7133 O   0  0  0  0  0  0  0  0  0  0  0  0
    7.1595   -1.0727    5.8931 C   0  0  0  0  0  0  0  0  0  0  0  0
    7.1871   -1.7851    7.1089 C   0  0  0  0  0  0  0  0  0  0  0  0
    6.8617   -3.2360    7.3146 C   0  0  0  0  0  0  0  0  0  0  0  0
    7.5367   -1.0860    8.2831 C   0  0  0  0  0  0  0  0  0  0  0  0
    7.8799    0.2614    8.2557 C   0  0  0  0  0  0  0  0  0  0  0  0
    7.9161    0.9350    7.0412 C   0  0  0  0  0  0  0  0  0  0  0  0
    7.5521    0.2850    5.8500 C   0  0  0  0  0  0  0  0  0  0  0  0
    7.6532    1.0457    4.5586 C   0  0  0  0  0  0  0  0  0  0  0  0
    5.2403   -4.6118    3.4798 C   0  0  0  0  0  0  0  0  0  0  0  0
    5.0789   -5.3710    2.3453 C   0  0  0  0  0  0  0  0  0  0  0  0
    4.7423   -6.6857    2.5572 C   0  0  0  0  0  0  0  0  0  0  0  0
    4.5048   -7.2121    3.7730 N   0  0  0  0  0  0  0  0  0  0  0  0
    4.6125   -6.3861    4.8185 C   0  0  0  0  0  0  0  0  0  0  0  0
    4.2290   -6.9022    6.0572 N   0  0  0  0  0  0  0  0  0  0  0  0
    3.7462   -6.2384    7.1960 C   0  0  0  0  0  0  0  0  0  0  0  0
    3.4486   -4.8790    7.1919 C   0  0  0  0  0  0  0  0  0  0  0  0
    3.0919   -4.1905    8.3529 C   0  0  0  0  0  0  0  0  0  0  0  0
    2.7091   -2.8630    8.3280 O   0  0  0  0  0  0  0  0  0  0  0  0
    2.9120   -2.1378    7.1226 C   0  0  0  0  0  0  0  0  0  0  0  0
    3.0727   -4.8458    9.6161 C   0  0  0  0  0  0  0  0  0  0  0  0
    2.7907   -4.0694   10.7543 N   0  0  0  0  0  0  0  0  0  0  0  0
    2.2220   -4.6513   11.9775 C   0  0  0  0  0  0  0  0  0  0  0  0
    1.6022   -3.5222   12.8517 C   0  0  0  0  0  0  0  0  0  0  0  0
    2.5770   -2.4511   13.1735 N   0  0  0  0  0  0  0  0  0  0  0  0
    1.9809   -1.4113   14.0032 C   0  0  0  0  0  0  0  0  0  0  0  0
    3.0845   -1.8918   11.9001 C   0  0  0  0  0  0  0  0  0  0  0  0
    3.7591   -2.9826   11.0364 C   0  0  0  0  0  0  0  0  0  0  0  0
    3.3423   -6.2437    9.6174 C   0  0  0  0  0  0  0  0  0  0  0  0
    3.3342   -6.9117   10.8238 O   0  0  0  0  0  0  0  0  0  0  0  0
    3.9417   -8.2010   10.8620 C   0  0  0  0  0  0  0  0  0  0  0  0
    3.6422   -6.9157    8.4109 C   0  0  0  0  0  0  0  0  0  0  0  0
    5.0243   -5.1144    4.7056 N   0  0  0  0  0  0  0  0  0  0  0  0
    5.0978   -1.4096    1.8176 C   0  0  0  0  0  0  0  0  0  0  0  0
    6.3973   -1.4904    1.3938 O   0  0  0  0  0  0  0  0  0  0  0  0
    6.8667   -0.3968    0.6106 C   0  0  0  0  0  0  0  0  0  0  0  0
    4.1517   -0.5396    1.2561 C   0  0  0  0  0  0  0  0  0  0  0  0
    0.2277    1.2250    0.6754 H   0  0  0  0  0  0  0  0  0  0  0  0
    0.5094    0.7541    2.3569 H   0  0  0  0  0  0  0  0  0  0  0  0
    0.1610   -0.4910    1.0922 H   0  0  0  0  0  0  0  0  0  0  0  0
    1.3714   -1.4881    2.9654 H   0  0  0  0  0  0  0  0  0  0  0  0
    2.9757   -3.0615    3.9283 H   0  0  0  0  0  0  0  0  0  0  0  0
    6.6855   -3.7985    6.4062 H   0  0  0  0  0  0  0  0  0  0  0  0
    5.9733   -3.3342    7.9425 H   0  0  0  0  0  0  0  0  0  0  0  0
    7.7011   -3.7243    7.8264 H   0  0  0  0  0  0  0  0  0  0  0  0
    7.5272   -1.6033    9.2421 H   0  0  0  0  0  0  0  0  0  0  0  0
    8.1277    0.7781    9.1792 H   0  0  0  0  0  0  0  0  0  0  0  0
    8.2134    1.9815    7.0323 H   0  0  0  0  0  0  0  0  0  0  0  0
    7.7399    2.1240    4.7410 H   0  0  0  0  0  0  0  0  0  0  0  0
    6.7706    0.8939    3.9342 H   0  0  0  0  0  0  0  0  0  0  0  0
    8.5494    0.7282    4.0147 H   0  0  0  0  0  0  0  0  0  0  0  0
    5.2630   -4.9826    1.3541 H   0  0  0  0  0  0  0  0  0  0  0  0
    4.6527   -7.3812    1.7289 H   0  0  0  0  0  0  0  0  0  0  0  0
    4.0261   -7.8885    5.9797 H   0  0  0  0  0  0  0  0  0  0  0  0
    3.4763   -4.3516    6.2512 H   0  0  0  0  0  0  0  0  0  0  0  0
    2.6155   -1.1005    7.3009 H   0  0  0  0  0  0  0  0  0  0  0  0
    2.2760   -2.5262    6.3209 H   0  0  0  0  0  0  0  0  0  0  0  0
    3.9663   -2.1371    6.8286 H   0  0  0  0  0  0  0  0  0  0  0  0
    2.9972   -5.1635   12.5606 H   0  0  0  0  0  0  0  0  0  0  0  0
    1.4273   -5.3649   11.7339 H   0  0  0  0  0  0  0  0  0  0  0  0
    1.2283   -3.9693   13.7799 H   0  0  0  0  0  0  0  0  0  0  0  0
    0.7390   -3.0962   12.3211 H   0  0  0  0  0  0  0  0  0  0  0  0
    1.6251   -1.8351   14.9487 H   0  0  0  0  0  0  0  0  0  0  0  0
    1.1430   -0.9048   13.5122 H   0  0  0  0  0  0  0  0  0  0  0  0
    2.7333   -0.6581   14.2648 H   0  0  0  0  0  0  0  0  0  0  0  0
    3.8190   -1.1040   12.1047 H   0  0  0  0  0  0  0  0  0  0  0  0
    2.2639   -1.4327   11.3291 H   0  0  0  0  0  0  0  0  0  0  0  0
    4.6263   -3.3929   11.5702 H   0  0  0  0  0  0  0  0  0  0  0  0
    4.1527   -2.5012   10.1356 H   0  0  0  0  0  0  0  0  0  0  0  0
    4.1481   -8.4503   11.9067 H   0  0  0  0  0  0  0  0  0  0  0  0
    4.9010   -8.2253   10.3322 H   0  0  0  0  0  0  0  0  0  0  0  0
    3.2569   -8.9582   10.4639 H   0  0  0  0  0  0  0  0  0  0  0  0
    3.8267   -7.9852    8.4026 H   0  0  0  0  0  0  0  0  0  0  0  0
    7.9203   -0.5719    0.3795 H   0  0  0  0  0  0  0  0  0  0  0  0
    6.7908    0.5381    1.1758 H   0  0  0  0  0  0  0  0  0  0  0  0
    6.3354   -0.3241   -0.3453 H   0  0  0  0  0  0  0  0  0  0  0  0
    4.4211    0.1639    0.4746 H   0  0  0  0  0  0  0  0  0  0  0  0
  1  2  1  0  0  0  0
  1 47  1  0  0  0  0
  1 48  1  0  0  0  0
  1 49  1  0  0  0  0
  2  3  1  0  0  0  0
  3  4  1  0  0  0  0
  3 46  2  0  0  0  0
  4  5  2  0  0  0  0
  4 50  1  0  0  0  0
  5  6  1  0  0  0  0
  5 51  1  0  0  0  0
  6  7  1  0  0  0  0
  6 43  2  0  0  0  0
  7  8  1  0  0  0  0
  7 19  1  0  0  0  0
  8  9  2  0  0  0  0
  8 10  1  0  0  0  0
 10 11  1  0  0  0  0
 11 12  1  0  0  0  0
 11 17  2  0  0  0  0
 12 13  1  0  0  0  0
 12 14  2  0  0  0  0
 13 52  1  0  0  0  0
 13 53  1  0  0  0  0
 13 54  1  0  0  0  0
 14 15  1  0  0  0  0
 14 55  1  0  0  0  0
 15 16  2  0  0  0  0
 15 56  1  0  0  0  0
 16 17  1  0  0  0  0
 16 57  1  0  0  0  0
 17 18  1  0  0  0  0
 18 58  1  0  0  0  0
 18 59  1  0  0  0  0
 18 60  1  0  0  0  0
 19 20  1  0  0  0  0
 19 42  2  0  0  0  0
 20 21  2  0  0  0  0
 20 61  1  0  0  0  0
 21 22  1  0  0  0  0
 21 62  1  0  0  0  0
 22 23  2  0  0  0  0
 23 24  1  0  0  0  0
 23 42  1  0  0  0  0
 24 25  1  0  0  0  0
 24 63  1  0  0  0  0
 25 26  1  0  0  0  0
 25 41  2  0  0  0  0
 26 27  2  0  0  0  0
 26 64  1  0  0  0  0
 27 28  1  0  0  0  0
 27 30  1  0  0  0  0
 28 29  1  0  0  0  0
 29 65  1  0  0  0  0
 29 66  1  0  0  0  0
 29 67  1  0  0  0  0
 30 31  1  0  0  0  0
 30 38  2  0  0  0  0
 31 32  1  0  0  0  0
 31 37  1  0  0  0  0
 32 33  1  0  0  0  0
 32 68  1  0  0  0  0
 32 69  1  0  0  0  0
 33 34  1  0  0  0  0
 33 70  1  0  0  0  0
 33 71  1  0  0  0  0
 34 35  1  0  0  0  0
 34 36  1  0  0  0  0
 35 72  1  0  0  0  0
 35 73  1  0  0  0  0
 35 74  1  0  0  0  0
 36 37  1  0  0  0  0
 36 75  1  0  0  0  0
 36 76  1  0  0  0  0
 37 77  1  0  0  0  0
 37 78  1  0  0  0  0
 38 39  1  0  0  0  0
 38 41  1  0  0  0  0
 39 40  1  0  0  0  0
 40 79  1  0  0  0  0
 40 80  1  0  0  0  0
 40 81  1  0  0  0  0
 41 82  1  0  0  0  0
 43 44  1  0  0  0  0
 43 46  1  0  0  0  0
 44 45  1  0  0  0  0
 45 83  1  0  0  0  0
 45 84  1  0  0  0  0
 45 85  1  0  0  0  0
 46 86  1  0  0  0  0
M  END
$$$$
