CHEMBL399605
 OpenBabel04072215373D

 50 52  0  0  0  0  0  0  0  0999 V2000
    4.4761    0.4848   -0.7348 C   0  0  0  0  0  0  0  0  0  0  0  0
    3.1920   -0.3711   -0.5870 C   0  0  0  0  0  0  0  0  0  0  0  0
    2.0430    0.5511   -0.1377 C   0  0  0  0  0  0  0  0  0  0  0  0
    2.8710   -0.9114   -1.9963 C   0  0  0  0  0  0  0  0  0  0  0  0
    3.3586   -1.4855    0.4611 C   0  0  0  0  0  0  0  0  0  0  0  0
    4.2347   -1.3099    1.5380 C   0  0  0  0  0  0  0  0  0  0  0  0
    4.4063   -2.2876    2.5184 C   0  0  0  0  0  0  0  0  0  0  0  0
    3.6909   -3.4786    2.4854 C   0  0  0  0  0  0  0  0  0  0  0  0
    3.8445   -4.4913    3.4633 N   0  0  0  0  0  0  0  0  0  0  0  0
    4.6297   -4.4073    4.6064 C   0  0  0  0  0  0  0  0  0  0  0  0
    5.2374   -3.4034    4.9594 O   0  0  0  0  0  0  0  0  0  0  0  0
    4.6899   -5.6096    5.4100 C   0  0  0  0  0  0  0  0  0  0  0  0
    4.4505   -6.9343    5.0797 C   0  0  0  0  0  0  0  0  0  0  0  0
    4.8026   -7.6723    6.2215 C   0  0  0  0  0  0  0  0  0  0  0  0
    5.1677   -6.8913    7.2354 N   0  0  0  0  0  0  0  0  0  0  0  0
    5.1005   -5.6389    6.7307 N   0  0  0  0  0  0  0  0  0  0  0  0
    5.4980   -4.5245    7.5893 C   0  0  0  0  0  0  0  0  0  0  0  0
    4.3408   -3.5859    7.9426 C   0  0  0  0  0  0  0  0  0  0  0  0
    4.7386   -2.4487    8.8556 C   0  0  0  0  0  0  0  0  0  0  0  0
    5.2498   -1.2562    8.3334 C   0  0  0  0  0  0  0  0  0  0  0  0
    5.5497   -0.2183    9.2057 C   0  0  0  0  0  0  0  0  0  0  0  0
    5.3881   -0.2896   10.5440 N   0  0  0  0  0  0  0  0  0  0  0  0
    4.9069   -1.4531   11.0306 C   0  0  0  0  0  0  0  0  0  0  0  0
    4.5765   -2.5460   10.2402 C   0  0  0  0  0  0  0  0  0  0  0  0
    2.7938   -3.6721    1.4304 C   0  0  0  0  0  0  0  0  0  0  0  0
    2.6271   -2.6845    0.4357 C   0  0  0  0  0  0  0  0  0  0  0  0
    4.3729    1.2280   -1.5329 H   0  0  0  0  0  0  0  0  0  0  0  0
    5.3435   -0.1435   -0.9723 H   0  0  0  0  0  0  0  0  0  0  0  0
    4.7091    1.0495    0.1752 H   0  0  0  0  0  0  0  0  0  0  0  0
    1.8946    1.3717   -0.8495 H   0  0  0  0  0  0  0  0  0  0  0  0
    2.2468    0.9985    0.8426 H   0  0  0  0  0  0  0  0  0  0  0  0
    1.0962    0.0044   -0.0591 H   0  0  0  0  0  0  0  0  0  0  0  0
    2.7708   -0.0869   -2.7135 H   0  0  0  0  0  0  0  0  0  0  0  0
    1.9295   -1.4678   -2.0286 H   0  0  0  0  0  0  0  0  0  0  0  0
    3.6686   -1.5694   -2.3593 H   0  0  0  0  0  0  0  0  0  0  0  0
    4.8167   -0.4028    1.6593 H   0  0  0  0  0  0  0  0  0  0  0  0
    5.1274   -2.0606    3.2936 H   0  0  0  0  0  0  0  0  0  0  0  0
    3.2996   -5.3337    3.3300 H   0  0  0  0  0  0  0  0  0  0  0  0
    4.1370   -7.3303    4.1258 H   0  0  0  0  0  0  0  0  0  0  0  0
    4.8152   -8.7470    6.3532 H   0  0  0  0  0  0  0  0  0  0  0  0
    6.3234   -4.0046    7.0912 H   0  0  0  0  0  0  0  0  0  0  0  0
    5.9149   -4.9582    8.5076 H   0  0  0  0  0  0  0  0  0  0  0  0
    3.5277   -4.1565    8.4093 H   0  0  0  0  0  0  0  0  0  0  0  0
    3.8944   -3.1525    7.0404 H   0  0  0  0  0  0  0  0  0  0  0  0
    5.3971   -1.1235    7.2657 H   0  0  0  0  0  0  0  0  0  0  0  0
    5.9317    0.7301    8.8382 H   0  0  0  0  0  0  0  0  0  0  0  0
    4.7808   -1.4836   12.1092 H   0  0  0  0  0  0  0  0  0  0  0  0
    4.1847   -3.4452   10.7037 H   0  0  0  0  0  0  0  0  0  0  0  0
    2.2023   -4.5817    1.3602 H   0  0  0  0  0  0  0  0  0  0  0  0
    1.9003   -2.8795   -0.3509 H   0  0  0  0  0  0  0  0  0  0  0  0
  1  2  1  0  0  0  0
  1 27  1  0  0  0  0
  1 28  1  0  0  0  0
  1 29  1  0  0  0  0
  2  3  1  0  0  0  0
  2  4  1  0  0  0  0
  2  5  1  0  0  0  0
  3 30  1  0  0  0  0
  3 31  1  0  0  0  0
  3 32  1  0  0  0  0
  4 33  1  0  0  0  0
  4 34  1  0  0  0  0
  4 35  1  0  0  0  0
  5  6  1  0  0  0  0
  5 26  2  0  0  0  0
  6  7  2  0  0  0  0
  6 36  1  0  0  0  0
  7  8  1  0  0  0  0
  7 37  1  0  0  0  0
  8  9  1  0  0  0  0
  8 25  2  0  0  0  0
  9 10  1  0  0  0  0
  9 38  1  0  0  0  0
 10 11  2  0  0  0  0
 10 12  1  0  0  0  0
 12 13  2  0  0  0  0
 12 16  1  0  0  0  0
 13 14  1  0  0  0  0
 13 39  1  0  0  0  0
 14 15  2  0  0  0  0
 14 40  1  0  0  0  0
 15 16  1  0  0  0  0
 16 17  1  0  0  0  0
 17 18  1  0  0  0  0
 17 41  1  0  0  0  0
 17 42  1  0  0  0  0
 18 19  1  0  0  0  0
 18 43  1  0  0  0  0
 18 44  1  0  0  0  0
 19 20  1  0  0  0  0
 19 24  2  0  0  0  0
 20 21  2  0  0  0  0
 20 45  1  0  0  0  0
 21 22  1  0  0  0  0
 21 46  1  0  0  0  0
 22 23  2  0  0  0  0
 23 24  1  0  0  0  0
 23 47  1  0  0  0  0
 24 48  1  0  0  0  0
 25 26  1  0  0  0  0
 25 49  1  0  0  0  0
 26 50  1  0  0  0  0
M  END
$$$$
