CHEMBL3947189
 OpenBabel04072215373D

 75 78  0  0  0  0  0  0  0  0999 V2000
    0.3116    3.7079   -1.5200 C   0  0  0  0  0  0  0  0  0  0  0  0
    1.5600    3.6900   -2.1334 O   0  0  0  0  0  0  0  0  0  0  0  0
    2.6449    3.0055   -1.6690 C   0  0  0  0  0  0  0  0  0  0  0  0
    2.5330    2.1840   -0.5314 C   0  0  0  0  0  0  0  0  0  0  0  0
    3.6187    1.4742   -0.0519 C   0  0  0  0  0  0  0  0  0  0  0  0
    3.4392    0.6775    1.0339 O   0  0  0  0  0  0  0  0  0  0  0  0
    4.3808   -0.1785    1.5662 C   0  0  0  0  0  0  0  0  0  0  0  0
    4.8484    1.5794   -0.7170 C   0  0  0  0  0  0  0  0  0  0  0  0
    5.0207    2.3517   -1.8815 C   0  0  0  0  0  0  0  0  0  0  0  0
    6.2706    2.2105   -2.6098 N   0  0  0  0  0  0  0  0  0  0  0  0
    6.8249    0.8091   -2.7670 C   0  0  0  0  0  0  0  0  0  0  0  0
    6.0263   -0.5297   -2.5093 C   0  0  0  0  0  0  0  0  0  0  0  0
    4.9216   -0.9993   -3.5034 C   0  0  0  0  0  0  0  0  0  0  0  0
    4.3058   -2.2937   -3.0582 N   0  0  0  0  0  0  0  0  0  0  0  0
    5.2261   -3.4541   -3.0507 C   0  0  0  0  0  0  0  0  0  0  0  0
    5.0142   -4.1626   -4.3711 C   0  0  0  0  0  0  0  0  0  0  0  0
    3.5120   -4.1524   -4.4185 C   0  0  0  0  0  0  0  0  0  0  0  0
    3.1945   -2.7272   -3.9505 C   0  0  0  0  0  0  0  0  0  0  0  0
    7.1599    3.2583   -3.2049 C   0  0  0  0  0  0  0  0  0  0  0  0
    7.6032    2.9118   -4.4768 C   0  0  0  0  0  0  0  0  0  0  0  0
    8.6431    3.5086   -5.0933 C   0  0  0  0  0  0  0  0  0  0  0  0
    9.2955    4.5572   -4.5424 C   0  0  0  0  0  0  0  0  0  0  0  0
   10.3669    4.9588   -5.2237 N   0  0  0  0  0  0  0  0  0  0  0  0
   11.0859    6.0133   -4.8811 C   0  0  0  0  0  0  0  0  0  0  0  0
   10.7057    6.8221   -3.8196 C   0  0  0  0  0  0  0  0  0  0  0  0
   11.5272    8.1630   -3.8428 C   0  0  0  0  0  0  0  0  0  0  0  0
   11.6416    9.2297   -2.9544 C   0  0  0  0  0  0  0  0  0  0  0  0
   12.3956   10.2167   -3.5303 N   0  0  0  0  0  0  0  0  0  0  0  0
   12.8066    9.8504   -4.7340 N   0  0  0  0  0  0  0  0  0  0  0  0
   13.5046   10.7610   -5.6992 C   0  0  0  0  0  0  0  0  0  0  0  0
   14.9308   10.3372   -6.1156 C   0  0  0  0  0  0  0  0  0  0  0  0
   12.6683   10.9693   -6.9740 C   0  0  0  0  0  0  0  0  0  0  0  0
   12.3110    8.6123   -4.9640 C   0  0  0  0  0  0  0  0  0  0  0  0
    9.6255    6.3646   -3.0071 N   0  0  0  0  0  0  0  0  0  0  0  0
    8.8931    5.1820   -3.3492 C   0  0  0  0  0  0  0  0  0  0  0  0
    7.7728    4.4912   -2.6201 C   0  0  0  0  0  0  0  0  0  0  0  0
    3.8997    3.0881   -2.3510 C   0  0  0  0  0  0  0  0  0  0  0  0
    0.2745   -2.0668   -1.1951 Cl  0  0  0  0  0  0  0  0  0  0  0  0
   -0.3917    4.3447   -2.0931 H   0  0  0  0  0  0  0  0  0  0  0  0
    0.3943    4.1230   -0.4900 H   0  0  0  0  0  0  0  0  0  0  0  0
   -0.1235    2.6834   -1.4627 H   0  0  0  0  0  0  0  0  0  0  0  0
    1.5931    2.0739   -0.0035 H   0  0  0  0  0  0  0  0  0  0  0  0
    3.9508   -0.6915    2.4499 H   0  0  0  0  0  0  0  0  0  0  0  0
    5.2750    0.3945    1.8871 H   0  0  0  0  0  0  0  0  0  0  0  0
    4.6675   -0.9483    0.8164 H   0  0  0  0  0  0  0  0  0  0  0  0
    5.6924    1.0358   -0.3312 H   0  0  0  0  0  0  0  0  0  0  0  0
    7.7357    0.7691   -2.1346 H   0  0  0  0  0  0  0  0  0  0  0  0
    7.1726    0.5952   -3.7859 H   0  0  0  0  0  0  0  0  0  0  0  0
    5.6410   -0.6553   -1.4946 H   0  0  0  0  0  0  0  0  0  0  0  0
    6.8307   -1.2824   -2.5928 H   0  0  0  0  0  0  0  0  0  0  0  0
    5.3358   -1.0973   -4.5348 H   0  0  0  0  0  0  0  0  0  0  0  0
    4.1257   -0.2237   -3.5317 H   0  0  0  0  0  0  0  0  0  0  0  0
    4.8984   -4.1315   -2.2264 H   0  0  0  0  0  0  0  0  0  0  0  0
    6.2899   -3.2437   -2.8618 H   0  0  0  0  0  0  0  0  0  0  0  0
    5.4628   -5.1796   -4.4128 H   0  0  0  0  0  0  0  0  0  0  0  0
    5.4304   -3.5368   -5.1907 H   0  0  0  0  0  0  0  0  0  0  0  0
    3.1571   -4.8789   -3.6506 H   0  0  0  0  0  0  0  0  0  0  0  0
    3.0648   -4.4373   -5.3957 H   0  0  0  0  0  0  0  0  0  0  0  0
    2.2150   -2.7197   -3.4250 H   0  0  0  0  0  0  0  0  0  0  0  0
    3.1200   -2.0706   -4.8444 H   0  0  0  0  0  0  0  0  0  0  0  0
    7.1821    2.1068   -5.0448 H   0  0  0  0  0  0  0  0  0  0  0  0
    8.9797    3.1191   -6.0431 H   0  0  0  0  0  0  0  0  0  0  0  0
   11.9277    6.2069   -5.5095 H   0  0  0  0  0  0  0  0  0  0  0  0
   11.1980    9.3204   -1.9772 H   0  0  0  0  0  0  0  0  0  0  0  0
   13.6143   11.7566   -5.2102 H   0  0  0  0  0  0  0  0  0  0  0  0
   14.9624    9.3700   -6.6623 H   0  0  0  0  0  0  0  0  0  0  0  0
   15.6257   10.3100   -5.2512 H   0  0  0  0  0  0  0  0  0  0  0  0
   15.3471   11.1075   -6.8138 H   0  0  0  0  0  0  0  0  0  0  0  0
   12.5764   10.0243   -7.5535 H   0  0  0  0  0  0  0  0  0  0  0  0
   13.1545   11.7232   -7.6366 H   0  0  0  0  0  0  0  0  0  0  0  0
   11.6590   11.3427   -6.7148 H   0  0  0  0  0  0  0  0  0  0  0  0
   12.4607    8.1271   -5.9107 H   0  0  0  0  0  0  0  0  0  0  0  0
    7.4563    4.8436   -1.6408 H   0  0  0  0  0  0  0  0  0  0  0  0
    3.9689    3.6709   -3.2597 H   0  0  0  0  0  0  0  0  0  0  0  0
    1.5700   -1.6192   -1.0770 H   0  0  0  0  0  0  0  0  0  0  0  0
  1  2  1  0  0  0  0
  1 39  1  0  0  0  0
  1 40  1  0  0  0  0
  1 41  1  0  0  0  0
  2  3  1  0  0  0  0
  3  4  1  0  0  0  0
  3 37  2  0  0  0  0
  4  5  2  0  0  0  0
  4 42  1  0  0  0  0
  5  6  1  0  0  0  0
  5  8  1  0  0  0  0
  6  7  1  0  0  0  0
  7 43  1  0  0  0  0
  7 44  1  0  0  0  0
  7 45  1  0  0  0  0
  8  9  2  0  0  0  0
  8 46  1  0  0  0  0
  9 10  1  0  0  0  0
  9 37  1  0  0  0  0
 10 11  1  0  0  0  0
 10 19  1  0  0  0  0
 11 12  1  0  0  0  0
 11 47  1  0  0  0  0
 11 48  1  0  0  0  0
 12 13  1  0  0  0  0
 12 49  1  0  0  0  0
 12 50  1  0  0  0  0
 13 14  1  0  0  0  0
 13 51  1  0  0  0  0
 13 52  1  0  0  0  0
 14 15  1  0  0  0  0
 14 18  1  0  0  0  0
 15 16  1  0  0  0  0
 15 53  1  0  0  0  0
 15 54  1  0  0  0  0
 16 17  1  0  0  0  0
 16 55  1  0  0  0  0
 16 56  1  0  0  0  0
 17 18  1  0  0  0  0
 17 57  1  0  0  0  0
 17 58  1  0  0  0  0
 18 59  1  0  0  0  0
 18 60  1  0  0  0  0
 19 20  1  0  0  0  0
 19 36  2  0  0  0  0
 20 21  2  0  0  0  0
 20 61  1  0  0  0  0
 21 22  1  0  0  0  0
 21 62  1  0  0  0  0
 22 23  1  0  0  0  0
 22 35  2  0  0  0  0
 23 24  2  0  0  0  0
 24 25  1  0  0  0  0
 24 63  1  0  0  0  0
 25 26  1  0  0  0  0
 25 34  2  0  0  0  0
 26 27  1  0  0  0  0
 26 33  2  0  0  0  0
 27 28  2  0  0  0  0
 27 64  1  0  0  0  0
 28 29  1  0  0  0  0
 29 30  1  0  0  0  0
 29 33  1  0  0  0  0
 30 31  1  0  0  0  0
 30 32  1  0  0  0  0
 30 65  1  0  0  0  0
 31 66  1  0  0  0  0
 31 67  1  0  0  0  0
 31 68  1  0  0  0  0
 32 69  1  0  0  0  0
 32 70  1  0  0  0  0
 32 71  1  0  0  0  0
 33 72  1  0  0  0  0
 34 35  1  0  0  0  0
 35 36  1  0  0  0  0
 36 73  1  0  0  0  0
 37 74  1  0  0  0  0
 38 75  1  0  0  0  0
M  END
$$$$
