CHEMBL3676329
 OpenBabel04072215373D

 43 47  0  0  0  0  0  0  0  0999 V2000
   -3.3401    0.2867   -0.6022 C   0  0  0  0  0  0  0  0  0  0  0  0
   -1.8802    0.1627   -0.4071 C   0  0  0  0  0  0  0  0  0  0  0  0
   -1.1503   -0.9140   -0.6171 N   0  0  0  0  0  0  0  0  0  0  0  0
    0.1221   -0.5557   -0.2797 C   0  0  0  0  0  0  0  0  0  0  0  0
    1.3017   -1.3172   -0.3276 C   0  0  0  0  0  0  0  0  0  0  0  0
    2.5038   -0.7172    0.0557 C   0  0  0  0  0  0  0  0  0  0  0  0
    3.7343   -1.4081   -0.0784 N   0  0  0  0  0  0  0  0  0  0  0  0
    4.7706   -1.1384    0.7607 N   0  0  0  0  0  0  0  0  0  0  0  0
    5.7595   -1.9151    0.3249 C   0  0  0  0  0  0  0  0  0  0  0  0
    5.4239   -2.6472   -0.8257 C   0  0  0  0  0  0  0  0  0  0  0  0
    6.2526   -3.4642   -1.6815 C   0  0  0  0  0  0  0  0  0  0  0  0
    6.0388   -3.5606   -2.8913 O   0  0  0  0  0  0  0  0  0  0  0  0
    7.3743   -4.1008   -1.0370 C   0  0  0  0  0  0  0  0  0  0  0  0
    8.5994   -4.3464   -1.6173 C   0  0  0  0  0  0  0  0  0  0  0  0
    9.4018   -4.9913   -0.6588 C   0  0  0  0  0  0  0  0  0  0  0  0
   10.7146   -5.4857   -0.6771 C   0  0  0  0  0  0  0  0  0  0  0  0
   10.6602   -6.8508   -0.4200 C   0  0  0  0  0  0  0  0  0  0  0  0
    9.8955   -7.3051    0.6544 C   0  0  0  0  0  0  0  0  0  0  0  0
   10.1140   -9.0902    1.2275 Br  0  0  0  0  0  0  0  0  0  0  0  0
    8.8746   -6.5019    1.1816 C   0  0  0  0  0  0  0  0  0  0  0  0
    8.5443   -5.4146    0.3597 C   0  0  0  0  0  0  0  0  0  0  0  0
    7.4053   -4.6526    0.2336 N   0  0  0  0  0  0  0  0  0  0  0  0
    4.1002   -2.3365   -1.0671 C   0  0  0  0  0  0  0  0  0  0  0  0
    3.3168   -2.7259   -2.1039 N   0  0  0  0  0  0  0  0  0  0  0  0
    2.5305    0.6066    0.5217 C   0  0  0  0  0  0  0  0  0  0  0  0
    1.3655    1.3893    0.5483 C   0  0  0  0  0  0  0  0  0  0  0  0
    0.1950    0.7623    0.1326 C   0  0  0  0  0  0  0  0  0  0  0  0
   -1.1091    1.2045    0.0283 N   0  0  0  0  0  0  0  0  0  0  0  0
   -3.7708   -0.6695   -0.9151 H   0  0  0  0  0  0  0  0  0  0  0  0
   -3.5651    1.0295   -1.3742 H   0  0  0  0  0  0  0  0  0  0  0  0
   -3.8262    0.5892    0.3302 H   0  0  0  0  0  0  0  0  0  0  0  0
    1.2380   -2.3673   -0.6272 H   0  0  0  0  0  0  0  0  0  0  0  0
    6.7148   -1.8650    0.8417 H   0  0  0  0  0  0  0  0  0  0  0  0
    8.8823   -4.1026   -2.6345 H   0  0  0  0  0  0  0  0  0  0  0  0
   11.2868   -4.9802    0.1315 H   0  0  0  0  0  0  0  0  0  0  0  0
   10.8774   -7.5374   -1.2374 H   0  0  0  0  0  0  0  0  0  0  0  0
    8.2107   -6.8632    1.9631 H   0  0  0  0  0  0  0  0  0  0  0  0
    6.6164   -4.6916    0.8655 H   0  0  0  0  0  0  0  0  0  0  0  0
    3.7794   -3.1633   -2.9071 H   0  0  0  0  0  0  0  0  0  0  0  0
    2.5377   -2.1435   -2.4172 H   0  0  0  0  0  0  0  0  0  0  0  0
    3.4709    1.0750    0.8172 H   0  0  0  0  0  0  0  0  0  0  0  0
    1.3917    2.4272    0.8559 H   0  0  0  0  0  0  0  0  0  0  0  0
   -1.4211    2.1372    0.2448 H   0  0  0  0  0  0  0  0  0  0  0  0
  1  2  1  0  0  0  0
  1 29  1  0  0  0  0
  1 30  1  0  0  0  0
  1 31  1  0  0  0  0
  2  3  2  0  0  0  0
  2 28  1  0  0  0  0
  3  4  1  0  0  0  0
  4  5  1  0  0  0  0
  4 27  2  0  0  0  0
  5  6  2  0  0  0  0
  5 32  1  0  0  0  0
  6  7  1  0  0  0  0
  6 25  1  0  0  0  0
  7  8  1  0  0  0  0
  7 23  1  0  0  0  0
  8  9  2  0  0  0  0
  9 10  1  0  0  0  0
  9 33  1  0  0  0  0
 10 11  1  0  0  0  0
 10 23  2  0  0  0  0
 11 12  2  0  0  0  0
 11 13  1  0  0  0  0
 13 14  2  0  0  0  0
 13 22  1  0  0  0  0
 14 15  1  0  0  0  0
 14 34  1  0  0  0  0
 15 16  1  0  0  0  0
 15 21  2  0  0  0  0
 16 17  2  0  0  0  0
 16 35  1  0  0  0  0
 17 18  1  0  0  0  0
 17 36  1  0  0  0  0
 18 19  1  0  0  0  0
 18 20  2  0  0  0  0
 20 21  1  0  0  0  0
 20 37  1  0  0  0  0
 21 22  1  0  0  0  0
 22 38  1  0  0  0  0
 23 24  1  0  0  0  0
 24 39  1  0  0  0  0
 24 40  1  0  0  0  0
 25 26  2  0  0  0  0
 25 41  1  0  0  0  0
 26 27  1  0  0  0  0
 26 42  1  0  0  0  0
 27 28  1  0  0  0  0
 28 43  1  0  0  0  0
M  END
$$$$
