CHEMBL424757
 OpenBabel04072215383D

 67 73  0  0  0  0  0  0  0  0999 V2000
    4.0220   -0.2695    0.6122 C   0  0  0  0  0  0  0  0  0  0  0  0
    3.2378   -0.1709   -0.6830 C   0  0  0  0  0  0  0  0  0  0  0  0
    3.8355    0.7056   -1.6861 N   0  0  0  0  0  0  0  0  0  0  0  0
    3.5630    2.0931   -1.7515 C   0  0  0  0  0  0  0  0  0  0  0  0
    2.9382    2.9636   -0.8400 C   0  0  0  0  0  0  0  0  0  0  0  0
    2.7143    4.3021   -1.2276 C   0  0  0  0  0  0  0  0  0  0  0  0
    3.1129    4.7936   -2.4727 C   0  0  0  0  0  0  0  0  0  0  0  0
    2.9204    6.1266   -2.9304 N   0  0  0  0  0  0  0  0  0  0  0  0
    2.3389    7.1631   -2.2309 C   0  0  0  0  0  0  0  0  0  0  0  0
    1.9239    7.0502   -1.0853 O   0  0  0  0  0  0  0  0  0  0  0  0
    2.2459    8.3340   -2.9808 N   0  0  0  0  0  0  0  0  0  0  0  0
    1.7096    9.5551   -2.4950 C   0  0  0  0  0  0  0  0  0  0  0  0
    1.5382    9.8164   -1.1336 C   0  0  0  0  0  0  0  0  0  0  0  0
    0.8823   10.9676   -0.6980 C   0  0  0  0  0  0  0  0  0  0  0  0
    0.4259   11.9145   -1.6080 C   0  0  0  0  0  0  0  0  0  0  0  0
   -0.2919   12.9298   -1.0457 O   0  0  0  0  0  0  0  0  0  0  0  0
   -0.2874   14.1788   -1.7184 C   0  0  0  0  0  0  0  0  0  0  0  0
    0.6635   11.7144   -2.9667 C   0  0  0  0  0  0  0  0  0  0  0  0
    1.3083   10.5394   -3.4068 C   0  0  0  0  0  0  0  0  0  0  0  0
    3.7194    3.9107   -3.3675 C   0  0  0  0  0  0  0  0  0  0  0  0
    3.9174    2.5561   -3.0256 C   0  0  0  0  0  0  0  0  0  0  0  0
    4.2851    1.3905   -3.6629 C   0  0  0  0  0  0  0  0  0  0  0  0
    4.2733    1.2690   -5.0594 C   0  0  0  0  0  0  0  0  0  0  0  0
    4.1131   -0.0394   -5.5507 C   0  0  0  0  0  0  0  0  0  0  0  0
    4.0911   -1.1914   -4.7444 C   0  0  0  0  0  0  0  0  0  0  0  0
    4.7248   -0.9822   -3.4730 C   0  0  0  0  0  0  0  0  0  0  0  0
    4.4079    0.2688   -2.8876 C   0  0  0  0  0  0  0  0  0  0  0  0
    6.1865   -1.6060   -3.4459 C   0  0  0  0  0  0  0  0  0  0  0  0
    6.7190   -2.0957   -4.8601 C   0  0  0  0  0  0  0  0  0  0  0  0
    5.6491   -2.9534   -5.4377 C   0  0  0  0  0  0  0  0  0  0  0  0
    5.7191   -4.2521   -5.7269 N   0  0  0  0  0  0  0  0  0  0  0  0
    4.4131   -4.6202   -5.7339 N   0  0  0  0  0  0  0  0  0  0  0  0
    4.0670   -6.0146   -5.8720 C   0  0  0  0  0  0  0  0  0  0  0  0
    3.5576   -3.6096   -5.3625 C   0  0  0  0  0  0  0  0  0  0  0  0
    4.3305   -2.4762   -5.3564 C   0  0  0  0  0  0  0  0  0  0  0  0
    4.1714    0.0397   -6.9967 C   0  0  0  0  0  0  0  0  0  0  0  0
    4.1489   -0.7908   -7.8896 O   0  0  0  0  0  0  0  0  0  0  0  0
    4.3379    1.3951   -7.2595 N   0  0  0  0  0  0  0  0  0  0  0  0
    4.3504    2.2707   -6.1119 C   0  0  0  0  0  0  0  0  0  0  0  0
    3.5046   -0.9368    1.3114 H   0  0  0  0  0  0  0  0  0  0  0  0
    4.1210    0.7061    1.0987 H   0  0  0  0  0  0  0  0  0  0  0  0
    5.0252   -0.6688    0.4395 H   0  0  0  0  0  0  0  0  0  0  0  0
    2.2306    0.2128   -0.4758 H   0  0  0  0  0  0  0  0  0  0  0  0
    3.1059   -1.1631   -1.1262 H   0  0  0  0  0  0  0  0  0  0  0  0
    2.5940    2.6247    0.1334 H   0  0  0  0  0  0  0  0  0  0  0  0
    2.2027    4.9359   -0.5087 H   0  0  0  0  0  0  0  0  0  0  0  0
    3.2958    6.3523   -3.8334 H   0  0  0  0  0  0  0  0  0  0  0  0
    2.3284    8.2453   -3.9820 H   0  0  0  0  0  0  0  0  0  0  0  0
    1.8842    9.1269   -0.3713 H   0  0  0  0  0  0  0  0  0  0  0  0
    0.7153   11.1113    0.3656 H   0  0  0  0  0  0  0  0  0  0  0  0
   -0.9463   14.8515   -1.1588 H   0  0  0  0  0  0  0  0  0  0  0  0
   -0.6835   14.1092   -2.7344 H   0  0  0  0  0  0  0  0  0  0  0  0
    0.7178   14.6109   -1.7112 H   0  0  0  0  0  0  0  0  0  0  0  0
    0.3139   12.4249   -3.7098 H   0  0  0  0  0  0  0  0  0  0  0  0
    1.4424   10.3992   -4.4778 H   0  0  0  0  0  0  0  0  0  0  0  0
    4.0165    4.2621   -4.3469 H   0  0  0  0  0  0  0  0  0  0  0  0
    6.1648   -2.4685   -2.7709 H   0  0  0  0  0  0  0  0  0  0  0  0
    6.8917   -0.8656   -3.0537 H   0  0  0  0  0  0  0  0  0  0  0  0
    7.6744   -2.6210   -4.7880 H   0  0  0  0  0  0  0  0  0  0  0  0
    6.8717   -1.2287   -5.5222 H   0  0  0  0  0  0  0  0  0  0  0  0
    4.9059   -6.5543   -6.3186 H   0  0  0  0  0  0  0  0  0  0  0  0
    3.1878   -6.0950   -6.5154 H   0  0  0  0  0  0  0  0  0  0  0  0
    3.8515   -6.4108   -4.8763 H   0  0  0  0  0  0  0  0  0  0  0  0
    2.5298   -3.8037   -5.0892 H   0  0  0  0  0  0  0  0  0  0  0  0
    4.5097    1.6922   -8.2075 H   0  0  0  0  0  0  0  0  0  0  0  0
    3.4682    2.9122   -6.1540 H   0  0  0  0  0  0  0  0  0  0  0  0
    5.2827    2.8382   -6.0826 H   0  0  0  0  0  0  0  0  0  0  0  0
  1  2  1  0  0  0  0
  1 40  1  0  0  0  0
  1 41  1  0  0  0  0
  1 42  1  0  0  0  0
  2  3  1  0  0  0  0
  2 43  1  0  0  0  0
  2 44  1  0  0  0  0
  3  4  1  0  0  0  0
  3 27  1  0  0  0  0
  4  5  1  0  0  0  0
  4 21  2  0  0  0  0
  5  6  2  0  0  0  0
  5 45  1  0  0  0  0
  6  7  1  0  0  0  0
  6 46  1  0  0  0  0
  7  8  1  0  0  0  0
  7 20  2  0  0  0  0
  8  9  1  0  0  0  0
  8 47  1  0  0  0  0
  9 10  2  0  0  0  0
  9 11  1  0  0  0  0
 11 12  1  0  0  0  0
 11 48  1  0  0  0  0
 12 13  1  0  0  0  0
 12 19  2  0  0  0  0
 13 14  2  0  0  0  0
 13 49  1  0  0  0  0
 14 15  1  0  0  0  0
 14 50  1  0  0  0  0
 15 16  1  0  0  0  0
 15 18  2  0  0  0  0
 16 17  1  0  0  0  0
 17 51  1  0  0  0  0
 17 52  1  0  0  0  0
 17 53  1  0  0  0  0
 18 19  1  0  0  0  0
 18 54  1  0  0  0  0
 19 55  1  0  0  0  0
 20 21  1  0  0  0  0
 20 56  1  0  0  0  0
 21 22  1  0  0  0  0
 22 23  1  0  0  0  0
 22 27  2  0  0  0  0
 23 24  2  0  0  0  0
 23 39  1  0  0  0  0
 24 25  1  0  0  0  0
 24 36  1  0  0  0  0
 25 26  2  0  0  0  0
 25 35  1  0  0  0  0
 26 27  1  0  0  0  0
 26 28  1  0  0  0  0
 28 29  1  0  0  0  0
 28 57  1  0  0  0  0
 28 58  1  0  0  0  0
 29 30  1  0  0  0  0
 29 59  1  0  0  0  0
 29 60  1  0  0  0  0
 30 31  2  0  0  0  0
 30 35  1  0  0  0  0
 31 32  1  0  0  0  0
 32 33  1  0  0  0  0
 32 34  1  0  0  0  0
 33 61  1  0  0  0  0
 33 62  1  0  0  0  0
 33 63  1  0  0  0  0
 34 35  2  0  0  0  0
 34 64  1  0  0  0  0
 36 37  2  0  0  0  0
 36 38  1  0  0  0  0
 38 39  1  0  0  0  0
 38 65  1  0  0  0  0
 39 66  1  0  0  0  0
 39 67  1  0  0  0  0
M  END
$$$$
