CHEMBL398610
 OpenBabel04072215373D

 43 46  0  0  0  0  0  0  0  0999 V2000
    0.9130    1.3172   -2.2531 C   0  0  0  0  0  0  0  0  0  0  0  0
    2.2318    1.8947   -1.7815 C   0  0  0  0  0  0  0  0  0  0  0  0
    3.0358    0.8416   -1.2363 O   0  0  0  0  0  0  0  0  0  0  0  0
    4.3922    1.0813   -1.2987 C   0  0  0  0  0  0  0  0  0  0  0  0
    4.9228    2.3848   -1.2360 C   0  0  0  0  0  0  0  0  0  0  0  0
    6.2813    2.6216   -1.4023 C   0  0  0  0  0  0  0  0  0  0  0  0
    7.1648    1.5641   -1.5921 C   0  0  0  0  0  0  0  0  0  0  0  0
    6.6491    0.2583   -1.5908 C   0  0  0  0  0  0  0  0  0  0  0  0
    5.2820   -0.0183   -1.4431 C   0  0  0  0  0  0  0  0  0  0  0  0
    5.1483   -1.4529   -1.4815 C   0  0  0  0  0  0  0  0  0  0  0  0
    3.9730   -2.2226   -1.2178 C   0  0  0  0  0  0  0  0  0  0  0  0
    3.6262   -3.4511   -1.6281 C   0  0  0  0  0  0  0  0  0  0  0  0
    4.2023   -4.2903   -2.7060 C   0  0  0  0  0  0  0  0  0  0  0  0
    5.2089   -4.1427   -3.3657 O   0  0  0  0  0  0  0  0  0  0  0  0
    3.2740   -5.3204   -2.8254 N   0  0  0  0  0  0  0  0  0  0  0  0
    2.2594   -5.3074   -1.8957 N   0  0  0  0  0  0  0  0  0  0  0  0
    2.4575   -4.2485   -1.1426 C   0  0  0  0  0  0  0  0  0  0  0  0
    1.6768   -4.0263    0.0435 C   0  0  0  0  0  0  0  0  0  0  0  0
    2.3341   -3.3086    1.4590 S   0  0  0  0  0  0  0  0  0  0  0  0
    0.9242   -3.4532    2.3264 N   0  0  0  0  0  0  0  0  0  0  0  0
   -0.0231   -4.0812    1.6568 N   0  0  0  0  0  0  0  0  0  0  0  0
    0.3929   -4.4449    0.3787 C   0  0  0  0  0  0  0  0  0  0  0  0
   -0.5610   -5.2258   -0.4487 C   0  0  0  0  0  0  0  0  0  0  0  0
    6.4093   -1.9834   -1.6394 C   0  0  0  0  0  0  0  0  0  0  0  0
    7.2992   -0.9496   -1.7197 N   0  0  0  0  0  0  0  0  0  0  0  0
    8.7283   -1.1015   -1.8770 C   0  0  0  0  0  0  0  0  0  0  0  0
    0.2092    2.1197   -2.4935 H   0  0  0  0  0  0  0  0  0  0  0  0
    0.4721    0.6631   -1.4960 H   0  0  0  0  0  0  0  0  0  0  0  0
    1.0693    0.7156   -3.1544 H   0  0  0  0  0  0  0  0  0  0  0  0
    2.0461    2.6425   -1.0016 H   0  0  0  0  0  0  0  0  0  0  0  0
    2.7170    2.3733   -2.6424 H   0  0  0  0  0  0  0  0  0  0  0  0
    4.2789    3.2437   -1.0701 H   0  0  0  0  0  0  0  0  0  0  0  0
    6.6559    3.6422   -1.3922 H   0  0  0  0  0  0  0  0  0  0  0  0
    8.2248    1.7543   -1.7236 H   0  0  0  0  0  0  0  0  0  0  0  0
    3.2878   -1.7063   -0.5516 H   0  0  0  0  0  0  0  0  0  0  0  0
    3.3673   -6.0857   -3.4796 H   0  0  0  0  0  0  0  0  0  0  0  0
   -1.5025   -5.3784    0.0916 H   0  0  0  0  0  0  0  0  0  0  0  0
   -0.1515   -6.2134   -0.6804 H   0  0  0  0  0  0  0  0  0  0  0  0
   -0.7878   -4.7038   -1.3818 H   0  0  0  0  0  0  0  0  0  0  0  0
    6.7533   -3.0092   -1.6788 H   0  0  0  0  0  0  0  0  0  0  0  0
    8.9895   -2.1620   -1.8694 H   0  0  0  0  0  0  0  0  0  0  0  0
    9.2251   -0.5946   -1.0446 H   0  0  0  0  0  0  0  0  0  0  0  0
    9.0150   -0.6507   -2.8301 H   0  0  0  0  0  0  0  0  0  0  0  0
  1  2  1  0  0  0  0
  1 27  1  0  0  0  0
  1 28  1  0  0  0  0
  1 29  1  0  0  0  0
  2  3  1  0  0  0  0
  2 30  1  0  0  0  0
  2 31  1  0  0  0  0
  3  4  1  0  0  0  0
  4  5  1  0  0  0  0
  4  9  2  0  0  0  0
  5  6  2  0  0  0  0
  5 32  1  0  0  0  0
  6  7  1  0  0  0  0
  6 33  1  0  0  0  0
  7  8  2  0  0  0  0
  7 34  1  0  0  0  0
  8  9  1  0  0  0  0
  8 25  1  0  0  0  0
  9 10  1  0  0  0  0
 10 11  1  0  0  0  0
 10 24  2  0  0  0  0
 11 12  2  0  0  0  0
 11 35  1  0  0  0  0
 12 13  1  0  0  0  0
 12 17  1  0  0  0  0
 13 14  2  0  0  0  0
 13 15  1  0  0  0  0
 15 16  1  0  0  0  0
 15 36  1  0  0  0  0
 16 17  2  0  0  0  0
 17 18  1  0  0  0  0
 18 19  1  0  0  0  0
 18 22  2  0  0  0  0
 19 20  1  0  0  0  0
 20 21  2  0  0  0  0
 21 22  1  0  0  0  0
 22 23  1  0  0  0  0
 23 37  1  0  0  0  0
 23 38  1  0  0  0  0
 23 39  1  0  0  0  0
 24 25  1  0  0  0  0
 24 40  1  0  0  0  0
 25 26  1  0  0  0  0
 26 41  1  0  0  0  0
 26 42  1  0  0  0  0
 26 43  1  0  0  0  0
M  END
$$$$
