CHEMBL1076478
 OpenBabel04072215353D

 83 88  0  0  0  0  0  0  0  0999 V2000
   -0.7428   -2.4803    2.5477 C   0  0  0  0  0  0  0  0  0  0  0  0
   -1.1148   -2.2235    1.1109 C   0  0  0  0  0  0  0  0  0  0  0  0
   -2.4910   -2.1603    0.8097 C   0  0  0  0  0  0  0  0  0  0  0  0
   -2.9398   -1.9099   -0.4892 C   0  0  0  0  0  0  0  0  0  0  0  0
   -2.0322   -1.7140   -1.5252 C   0  0  0  0  0  0  0  0  0  0  0  0
   -2.4274   -1.4440   -2.8635 N   0  0  0  0  0  0  0  0  0  0  0  0
   -3.7299   -1.3793   -3.3474 C   0  0  0  0  0  0  0  0  0  0  0  0
   -4.7562   -1.5764   -2.7090 O   0  0  0  0  0  0  0  0  0  0  0  0
   -3.8918   -1.0666   -4.8007 C   0  0  0  0  0  0  0  0  0  0  0  0
   -3.0190   -0.2246   -5.4972 C   0  0  0  0  0  0  0  0  0  0  0  0
   -3.2642    0.0774   -6.8416 C   0  0  0  0  0  0  0  0  0  0  0  0
   -4.3749   -0.4597   -7.4980 C   0  0  0  0  0  0  0  0  0  0  0  0
   -5.2615   -1.3066   -6.8194 C   0  0  0  0  0  0  0  0  0  0  0  0
   -6.4582   -1.9099   -7.5167 C   0  0  0  0  0  0  0  0  0  0  0  0
   -6.5584   -1.5518   -8.8284 F   0  0  0  0  0  0  0  0  0  0  0  0
   -6.4313   -3.2715   -7.5077 F   0  0  0  0  0  0  0  0  0  0  0  0
   -7.6397   -1.5527   -6.9436 F   0  0  0  0  0  0  0  0  0  0  0  0
   -5.0149   -1.5926   -5.4652 C   0  0  0  0  0  0  0  0  0  0  0  0
   -0.6612   -1.7939   -1.2290 C   0  0  0  0  0  0  0  0  0  0  0  0
   -0.1738   -2.0711    0.0718 C   0  0  0  0  0  0  0  0  0  0  0  0
    1.2466   -2.2693    0.2850 N   0  0  0  0  0  0  0  0  0  0  0  0
    1.9094   -3.2102   -0.4840 C   0  0  0  0  0  0  0  0  0  0  0  0
    1.2881   -4.0213   -1.3266 N   0  0  0  0  0  0  0  0  0  0  0  0
    1.4017   -5.2257   -0.6857 C   0  0  0  0  0  0  0  0  0  0  0  0
    0.6049   -6.3705   -0.7783 C   0  0  0  0  0  0  0  0  0  0  0  0
    0.8643   -7.4303    0.1047 C   0  0  0  0  0  0  0  0  0  0  0  0
    1.9472   -7.3793    0.9941 C   0  0  0  0  0  0  0  0  0  0  0  0
    2.7930   -6.2682    1.0534 C   0  0  0  0  0  0  0  0  0  0  0  0
    2.4604   -5.1929    0.2172 C   0  0  0  0  0  0  0  0  0  0  0  0
    3.0131   -3.9353   -0.0027 N   0  0  0  0  0  0  0  0  0  0  0  0
    4.4137   -3.6444    0.0383 C   0  0  0  0  0  0  0  0  0  0  0  0
    4.9388   -2.4007   -0.2639 C   0  0  0  0  0  0  0  0  0  0  0  0
    6.3276   -2.3232   -0.3754 C   0  0  0  0  0  0  0  0  0  0  0  0
    6.9494   -1.0987   -0.6594 N   0  0  0  0  0  0  0  0  0  0  0  0
    8.3253   -1.1985   -1.1833 C   0  0  0  0  0  0  0  0  0  0  0  0
    8.3986   -1.8527   -2.5753 C   0  0  0  0  0  0  0  0  0  0  0  0
    7.6209   -1.1165   -3.6796 C   0  0  0  0  0  0  0  0  0  0  0  0
    8.0173    0.2804   -3.8765 N   0  0  0  0  0  0  0  0  0  0  0  0
    9.4245    0.4288   -4.2929 C   0  0  0  0  0  0  0  0  0  0  0  0
    9.7966    1.9227   -4.4054 C   0  0  0  0  0  0  0  0  0  0  0  0
    8.9864    2.6803   -5.3767 N   0  0  0  0  0  0  0  0  0  0  0  0
    9.3609    2.3585   -6.7530 C   0  0  0  0  0  0  0  0  0  0  0  0
    7.5531    2.4270   -5.1204 C   0  0  0  0  0  0  0  0  0  0  0  0
    7.1580    0.9446   -4.8819 C   0  0  0  0  0  0  0  0  0  0  0  0
    7.1183   -3.3877   -0.1606 N   0  0  0  0  0  0  0  0  0  0  0  0
    6.5271   -4.5372    0.1450 C   0  0  0  0  0  0  0  0  0  0  0  0
    5.2141   -4.7139    0.2695 N   0  0  0  0  0  0  0  0  0  0  0  0
   -1.6309   -2.5451    3.1926 H   0  0  0  0  0  0  0  0  0  0  0  0
   -0.1295   -1.6600    2.9246 H   0  0  0  0  0  0  0  0  0  0  0  0
   -0.2074   -3.4279    2.6492 H   0  0  0  0  0  0  0  0  0  0  0  0
   -3.2400   -2.3145    1.5850 H   0  0  0  0  0  0  0  0  0  0  0  0
   -4.0132   -1.8992   -0.6504 H   0  0  0  0  0  0  0  0  0  0  0  0
   -1.6702   -1.3564   -3.5274 H   0  0  0  0  0  0  0  0  0  0  0  0
   -2.1691    0.2391   -5.0052 H   0  0  0  0  0  0  0  0  0  0  0  0
   -2.5954    0.7460   -7.3801 H   0  0  0  0  0  0  0  0  0  0  0  0
   -4.5510   -0.2066   -8.5436 H   0  0  0  0  0  0  0  0  0  0  0  0
   -5.7104   -2.2311   -4.9180 H   0  0  0  0  0  0  0  0  0  0  0  0
    0.0675   -1.6706   -2.0316 H   0  0  0  0  0  0  0  0  0  0  0  0
    1.4128   -2.3828    1.2833 H   0  0  0  0  0  0  0  0  0  0  0  0
   -0.2532   -6.3877   -1.4420 H   0  0  0  0  0  0  0  0  0  0  0  0
    0.2128   -8.2958    0.1046 H   0  0  0  0  0  0  0  0  0  0  0  0
    2.1305   -8.2168    1.6638 H   0  0  0  0  0  0  0  0  0  0  0  0
    3.6338   -6.2277    1.7334 H   0  0  0  0  0  0  0  0  0  0  0  0
    4.3208   -1.5309   -0.4379 H   0  0  0  0  0  0  0  0  0  0  0  0
    6.3843   -0.5036   -1.2542 H   0  0  0  0  0  0  0  0  0  0  0  0
    8.9716   -1.7457   -0.4802 H   0  0  0  0  0  0  0  0  0  0  0  0
    8.7453   -0.1879   -1.2319 H   0  0  0  0  0  0  0  0  0  0  0  0
    8.0214   -2.8813   -2.5345 H   0  0  0  0  0  0  0  0  0  0  0  0
    9.4511   -1.9527   -2.8653 H   0  0  0  0  0  0  0  0  0  0  0  0
    6.5558   -1.1458   -3.4115 H   0  0  0  0  0  0  0  0  0  0  0  0
    7.7145   -1.6820   -4.6155 H   0  0  0  0  0  0  0  0  0  0  0  0
    9.6052   -0.0862   -5.2459 H   0  0  0  0  0  0  0  0  0  0  0  0
   10.1001   -0.0146   -3.5556 H   0  0  0  0  0  0  0  0  0  0  0  0
   10.8639    2.0223   -4.6371 H   0  0  0  0  0  0  0  0  0  0  0  0
    9.6677    2.3869   -3.4177 H   0  0  0  0  0  0  0  0  0  0  0  0
   10.4346    2.5238   -6.9016 H   0  0  0  0  0  0  0  0  0  0  0  0
    8.8463    3.0293   -7.4481 H   0  0  0  0  0  0  0  0  0  0  0  0
    9.1317    1.3280   -7.0342 H   0  0  0  0  0  0  0  0  0  0  0  0
    6.9439    2.8409   -5.9339 H   0  0  0  0  0  0  0  0  0  0  0  0
    7.2747    2.9987   -4.2253 H   0  0  0  0  0  0  0  0  0  0  0  0
    7.1966    0.4021   -5.8359 H   0  0  0  0  0  0  0  0  0  0  0  0
    6.1158    0.9244   -4.5402 H   0  0  0  0  0  0  0  0  0  0  0  0
    7.1651   -5.4023    0.2859 H   0  0  0  0  0  0  0  0  0  0  0  0
  1  2  1  0  0  0  0
  1 48  1  0  0  0  0
  1 49  1  0  0  0  0
  1 50  1  0  0  0  0
  2  3  1  0  0  0  0
  2 20  2  0  0  0  0
  3  4  2  0  0  0  0
  3 51  1  0  0  0  0
  4  5  1  0  0  0  0
  4 52  1  0  0  0  0
  5  6  1  0  0  0  0
  5 19  2  0  0  0  0
  6  7  1  0  0  0  0
  6 53  1  0  0  0  0
  7  8  2  0  0  0  0
  7  9  1  0  0  0  0
  9 10  1  0  0  0  0
  9 18  2  0  0  0  0
 10 11  2  0  0  0  0
 10 54  1  0  0  0  0
 11 12  1  0  0  0  0
 11 55  1  0  0  0  0
 12 13  2  0  0  0  0
 12 56  1  0  0  0  0
 13 14  1  0  0  0  0
 13 18  1  0  0  0  0
 14 15  1  0  0  0  0
 14 16  1  0  0  0  0
 14 17  1  0  0  0  0
 18 57  1  0  0  0  0
 19 20  1  0  0  0  0
 19 58  1  0  0  0  0
 20 21  1  0  0  0  0
 21 22  1  0  0  0  0
 21 59  1  0  0  0  0
 22 23  2  0  0  0  0
 22 30  1  0  0  0  0
 23 24  1  0  0  0  0
 24 25  1  0  0  0  0
 24 29  2  0  0  0  0
 25 26  2  0  0  0  0
 25 60  1  0  0  0  0
 26 27  1  0  0  0  0
 26 61  1  0  0  0  0
 27 28  2  0  0  0  0
 27 62  1  0  0  0  0
 28 29  1  0  0  0  0
 28 63  1  0  0  0  0
 29 30  1  0  0  0  0
 30 31  1  0  0  0  0
 31 32  1  0  0  0  0
 31 47  2  0  0  0  0
 32 33  2  0  0  0  0
 32 64  1  0  0  0  0
 33 34  1  0  0  0  0
 33 45  1  0  0  0  0
 34 35  1  0  0  0  0
 34 65  1  0  0  0  0
 35 36  1  0  0  0  0
 35 66  1  0  0  0  0
 35 67  1  0  0  0  0
 36 37  1  0  0  0  0
 36 68  1  0  0  0  0
 36 69  1  0  0  0  0
 37 38  1  0  0  0  0
 37 70  1  0  0  0  0
 37 71  1  0  0  0  0
 38 39  1  0  0  0  0
 38 44  1  0  0  0  0
 39 40  1  0  0  0  0
 39 72  1  0  0  0  0
 39 73  1  0  0  0  0
 40 41  1  0  0  0  0
 40 74  1  0  0  0  0
 40 75  1  0  0  0  0
 41 42  1  0  0  0  0
 41 43  1  0  0  0  0
 42 76  1  0  0  0  0
 42 77  1  0  0  0  0
 42 78  1  0  0  0  0
 43 44  1  0  0  0  0
 43 79  1  0  0  0  0
 43 80  1  0  0  0  0
 44 81  1  0  0  0  0
 44 82  1  0  0  0  0
 45 46  2  0  0  0  0
 46 47  1  0  0  0  0
 46 83  1  0  0  0  0
M  END
$$$$
