CHEMBL3593283
 OpenBabel04072215363D

 64 68  0  0  0  0  0  0  0  0999 V2000
    1.3766   -2.2698    0.5009 C   0  0  0  0  0  0  0  0  0  0  0  0
    1.0452   -0.9003    1.0066 C   0  0  0  0  0  0  0  0  0  0  0  0
    1.5218    0.1532    0.3040 N   0  0  0  0  0  0  0  0  0  0  0  0
    1.1911    1.3746    0.7477 C   0  0  0  0  0  0  0  0  0  0  0  0
    1.6110    2.4784   -0.0136 N   0  0  0  0  0  0  0  0  0  0  0  0
    1.0041    3.6902   -0.0091 C   0  0  0  0  0  0  0  0  0  0  0  0
    0.1986    4.1248    0.9332 N   0  0  0  0  0  0  0  0  0  0  0  0
   -0.3596    5.3236    0.6020 C   0  0  0  0  0  0  0  0  0  0  0  0
    0.0632    5.8695   -0.5898 C   0  0  0  0  0  0  0  0  0  0  0  0
   -0.3280    7.1569   -1.1573 C   0  0  0  0  0  0  0  0  0  0  0  0
   -0.6171    8.1989   -0.2768 C   0  0  0  0  0  0  0  0  0  0  0  0
   -1.0679    9.4272   -0.7487 C   0  0  0  0  0  0  0  0  0  0  0  0
   -1.2584    9.6694   -2.1117 C   0  0  0  0  0  0  0  0  0  0  0  0
   -1.7712   10.9019   -2.6153 N   0  0  0  0  0  0  0  0  0  0  0  0
   -2.1860   11.9506   -1.8192 C   0  0  0  0  0  0  0  0  0  0  0  0
   -2.1390   11.9234   -0.5893 O   0  0  0  0  0  0  0  0  0  0  0  0
   -2.6861   13.0417   -2.5104 N   0  0  0  0  0  0  0  0  0  0  0  0
   -3.0976   14.2417   -1.8566 C   0  0  0  0  0  0  0  0  0  0  0  0
   -2.6672   14.5787   -0.5636 C   0  0  0  0  0  0  0  0  0  0  0  0
   -3.1565   15.6997    0.1052 C   0  0  0  0  0  0  0  0  0  0  0  0
   -4.0597   16.5368   -0.5308 C   0  0  0  0  0  0  0  0  0  0  0  0
   -4.4590   16.2512   -1.8380 C   0  0  0  0  0  0  0  0  0  0  0  0
   -3.9761   15.1132   -2.5025 C   0  0  0  0  0  0  0  0  0  0  0  0
   -0.9430    8.6385   -3.0025 C   0  0  0  0  0  0  0  0  0  0  0  0
   -0.4853    7.3934   -2.5291 C   0  0  0  0  0  0  0  0  0  0  0  0
    1.2035    4.8096   -1.3113 S   0  0  0  0  0  0  0  0  0  0  0  0
    0.4585    1.5121    1.9038 C   0  0  0  0  0  0  0  0  0  0  0  0
    0.0336    0.3937    2.5861 C   0  0  0  0  0  0  0  0  0  0  0  0
   -0.6825    0.6278    3.7584 N   0  0  0  0  0  0  0  0  0  0  0  0
   -1.6571   -0.3666    4.1986 C   0  0  0  0  0  0  0  0  0  0  0  0
   -2.5724    0.3095    5.2621 C   0  0  0  0  0  0  0  0  0  0  0  0
   -1.8115    0.8678    6.4113 N   0  0  0  0  0  0  0  0  0  0  0  0
   -2.7022    1.5720    7.3305 C   0  0  0  0  0  0  0  0  0  0  0  0
   -0.7583    1.7859    5.9158 C   0  0  0  0  0  0  0  0  0  0  0  0
    0.1562    1.1179    4.8676 C   0  0  0  0  0  0  0  0  0  0  0  0
    0.2925   -0.8315    2.1246 N   0  0  0  0  0  0  0  0  0  0  0  0
    2.0136   -2.2178   -0.3873 H   0  0  0  0  0  0  0  0  0  0  0  0
    0.4576   -2.8023    0.2384 H   0  0  0  0  0  0  0  0  0  0  0  0
    1.9061   -2.8346    1.2740 H   0  0  0  0  0  0  0  0  0  0  0  0
    2.1308    2.1812   -0.8278 H   0  0  0  0  0  0  0  0  0  0  0  0
   -1.0813    5.7651    1.2838 H   0  0  0  0  0  0  0  0  0  0  0  0
   -0.5074    8.0820    0.7987 H   0  0  0  0  0  0  0  0  0  0  0  0
   -1.2609   10.1646    0.0198 H   0  0  0  0  0  0  0  0  0  0  0  0
   -1.8294   11.0051   -3.6145 H   0  0  0  0  0  0  0  0  0  0  0  0
   -3.0382   12.8817   -3.4439 H   0  0  0  0  0  0  0  0  0  0  0  0
   -1.9447   13.9755   -0.0225 H   0  0  0  0  0  0  0  0  0  0  0  0
   -2.8311   15.8965    1.1234 H   0  0  0  0  0  0  0  0  0  0  0  0
   -4.4476   17.4059   -0.0073 H   0  0  0  0  0  0  0  0  0  0  0  0
   -5.1652   16.9137   -2.3309 H   0  0  0  0  0  0  0  0  0  0  0  0
   -4.3276   14.9139   -3.5110 H   0  0  0  0  0  0  0  0  0  0  0  0
   -1.0662    8.7708   -4.0740 H   0  0  0  0  0  0  0  0  0  0  0  0
   -0.2831    6.5996   -3.2470 H   0  0  0  0  0  0  0  0  0  0  0  0
    0.1739    2.4725    2.3066 H   0  0  0  0  0  0  0  0  0  0  0  0
   -1.1585   -1.2434    4.6307 H   0  0  0  0  0  0  0  0  0  0  0  0
   -2.2814   -0.6998    3.3612 H   0  0  0  0  0  0  0  0  0  0  0  0
   -3.2931   -0.4292    5.6227 H   0  0  0  0  0  0  0  0  0  0  0  0
   -3.1400    1.1136    4.7693 H   0  0  0  0  0  0  0  0  0  0  0  0
   -3.4569    0.8879    7.7321 H   0  0  0  0  0  0  0  0  0  0  0  0
   -3.2171    2.4133    6.8518 H   0  0  0  0  0  0  0  0  0  0  0  0
   -2.1387    1.9591    8.1870 H   0  0  0  0  0  0  0  0  0  0  0  0
   -0.1381    2.1257    6.7535 H   0  0  0  0  0  0  0  0  0  0  0  0
   -1.2151    2.6760    5.4607 H   0  0  0  0  0  0  0  0  0  0  0  0
    0.7073    0.2826    5.3203 H   0  0  0  0  0  0  0  0  0  0  0  0
    0.8973    1.8554    4.5351 H   0  0  0  0  0  0  0  0  0  0  0  0
  1  2  1  0  0  0  0
  1 37  1  0  0  0  0
  1 38  1  0  0  0  0
  1 39  1  0  0  0  0
  2  3  1  0  0  0  0
  2 36  2  0  0  0  0
  3  4  2  0  0  0  0
  4  5  1  0  0  0  0
  4 27  1  0  0  0  0
  5  6  1  0  0  0  0
  5 40  1  0  0  0  0
  6  7  2  0  0  0  0
  6 26  1  0  0  0  0
  7  8  1  0  0  0  0
  8  9  2  0  0  0  0
  8 41  1  0  0  0  0
  9 10  1  0  0  0  0
  9 26  1  0  0  0  0
 10 11  1  0  0  0  0
 10 25  2  0  0  0  0
 11 12  2  0  0  0  0
 11 42  1  0  0  0  0
 12 13  1  0  0  0  0
 12 43  1  0  0  0  0
 13 14  1  0  0  0  0
 13 24  2  0  0  0  0
 14 15  1  0  0  0  0
 14 44  1  0  0  0  0
 15 16  2  0  0  0  0
 15 17  1  0  0  0  0
 17 18  1  0  0  0  0
 17 45  1  0  0  0  0
 18 19  1  0  0  0  0
 18 23  2  0  0  0  0
 19 20  2  0  0  0  0
 19 46  1  0  0  0  0
 20 21  1  0  0  0  0
 20 47  1  0  0  0  0
 21 22  2  0  0  0  0
 21 48  1  0  0  0  0
 22 23  1  0  0  0  0
 22 49  1  0  0  0  0
 23 50  1  0  0  0  0
 24 25  1  0  0  0  0
 24 51  1  0  0  0  0
 25 52  1  0  0  0  0
 27 28  2  0  0  0  0
 27 53  1  0  0  0  0
 28 29  1  0  0  0  0
 28 36  1  0  0  0  0
 29 30  1  0  0  0  0
 29 35  1  0  0  0  0
 30 31  1  0  0  0  0
 30 54  1  0  0  0  0
 30 55  1  0  0  0  0
 31 32  1  0  0  0  0
 31 56  1  0  0  0  0
 31 57  1  0  0  0  0
 32 33  1  0  0  0  0
 32 34  1  0  0  0  0
 33 58  1  0  0  0  0
 33 59  1  0  0  0  0
 33 60  1  0  0  0  0
 34 35  1  0  0  0  0
 34 61  1  0  0  0  0
 34 62  1  0  0  0  0
 35 63  1  0  0  0  0
 35 64  1  0  0  0  0
M  END
$$$$
