CHEMBL3937330
 OpenBabel04072215373D

 53 57  0  0  0  0  0  0  0  0999 V2000
    2.1528    0.5526    0.0262 O   0  0  0  0  0  0  0  0  0  0  0  0
    3.0143   -0.3119   -0.1149 C   0  0  0  0  0  0  0  0  0  0  0  0
    3.3634   -1.2062    0.8791 N   0  0  0  0  0  0  0  0  0  0  0  0
    2.7733   -1.3188    2.1846 C   0  0  0  0  0  0  0  0  0  0  0  0
    1.7209   -0.5179    2.6505 C   0  0  0  0  0  0  0  0  0  0  0  0
    1.2011   -0.6696    3.9468 C   0  0  0  0  0  0  0  0  0  0  0  0
    1.7224   -1.6339    4.8018 C   0  0  0  0  0  0  0  0  0  0  0  0
    2.7584   -2.4630    4.3681 C   0  0  0  0  0  0  0  0  0  0  0  0
    3.3241   -3.5180    5.2893 C   0  0  0  0  0  0  0  0  0  0  0  0
    2.7507   -3.5350    6.5264 F   0  0  0  0  0  0  0  0  0  0  0  0
    3.1726   -4.7773    4.7938 F   0  0  0  0  0  0  0  0  0  0  0  0
    4.6598   -3.3590    5.5030 F   0  0  0  0  0  0  0  0  0  0  0  0
    3.2722   -2.2987    3.0583 C   0  0  0  0  0  0  0  0  0  0  0  0
    3.6722   -0.4129   -1.4827 C   0  0  0  0  0  0  0  0  0  0  0  0
    2.8586    0.0878   -2.5142 C   0  0  0  0  0  0  0  0  0  0  0  0
    3.2944    0.0991   -3.8258 C   0  0  0  0  0  0  0  0  0  0  0  0
    4.5741   -0.3618   -4.1218 C   0  0  0  0  0  0  0  0  0  0  0  0
    5.4896   -0.8341   -3.1464 C   0  0  0  0  0  0  0  0  0  0  0  0
    6.8059   -1.2291   -3.5648 N   0  0  0  0  0  0  0  0  0  0  0  0
    7.8522   -1.6392   -2.6144 C   0  0  0  0  0  0  0  0  0  0  0  0
    9.2593   -2.0266   -3.2113 C   0  0  0  0  0  0  0  0  0  0  0  0
    9.6417   -1.5200   -4.5869 C   0  0  0  0  0  0  0  0  0  0  0  0
    8.6402   -0.8917   -5.3148 C   0  0  0  0  0  0  0  0  0  0  0  0
    8.9409   -0.4747   -6.6076 C   0  0  0  0  0  0  0  0  0  0  0  0
   10.0690   -0.7594   -7.2695 N   0  0  0  0  0  0  0  0  0  0  0  0
   11.0340   -1.3886   -6.6006 C   0  0  0  0  0  0  0  0  0  0  0  0
   12.1694   -1.6797   -7.3419 C   0  0  0  0  0  0  0  0  0  0  0  0
   13.3219   -2.1757   -6.7507 C   0  0  0  0  0  0  0  0  0  0  0  0
   13.3209   -2.3933   -5.3795 C   0  0  0  0  0  0  0  0  0  0  0  0
   12.1404   -2.2091   -4.6300 C   0  0  0  0  0  0  0  0  0  0  0  0
   10.9358   -1.7234   -5.2220 C   0  0  0  0  0  0  0  0  0  0  0  0
    7.2412   -0.6382   -4.8428 C   0  0  0  0  0  0  0  0  0  0  0  0
    4.9886   -0.8849   -1.8047 C   0  0  0  0  0  0  0  0  0  0  0  0
    4.0680   -1.8944    0.6578 H   0  0  0  0  0  0  0  0  0  0  0  0
    1.2612    0.2482    2.0330 H   0  0  0  0  0  0  0  0  0  0  0  0
    0.3882   -0.0285    4.2849 H   0  0  0  0  0  0  0  0  0  0  0  0
    1.3092   -1.7323    5.8105 H   0  0  0  0  0  0  0  0  0  0  0  0
    4.0794   -2.9550    2.7358 H   0  0  0  0  0  0  0  0  0  0  0  0
    1.8587    0.4637   -2.3004 H   0  0  0  0  0  0  0  0  0  0  0  0
    2.6487    0.4786   -4.6150 H   0  0  0  0  0  0  0  0  0  0  0  0
    4.8259   -0.3219   -5.1762 H   0  0  0  0  0  0  0  0  0  0  0  0
    7.4879   -2.5194   -2.0665 H   0  0  0  0  0  0  0  0  0  0  0  0
    7.9997   -0.8453   -1.8736 H   0  0  0  0  0  0  0  0  0  0  0  0
   10.0178   -1.6966   -2.4902 H   0  0  0  0  0  0  0  0  0  0  0  0
    9.3177   -3.1234   -3.2426 H   0  0  0  0  0  0  0  0  0  0  0  0
    8.2338    0.1130   -7.1872 H   0  0  0  0  0  0  0  0  0  0  0  0
   12.1596   -1.4918   -8.4157 H   0  0  0  0  0  0  0  0  0  0  0  0
   14.2077   -2.3537   -7.3560 H   0  0  0  0  0  0  0  0  0  0  0  0
   14.2467   -2.7067   -4.9005 H   0  0  0  0  0  0  0  0  0  0  0  0
   12.1885   -2.4076   -3.5624 H   0  0  0  0  0  0  0  0  0  0  0  0
    7.1020    0.4501   -4.8210 H   0  0  0  0  0  0  0  0  0  0  0  0
    6.6210   -1.0746   -5.6359 H   0  0  0  0  0  0  0  0  0  0  0  0
    5.6287   -1.2359   -1.0128 H   0  0  0  0  0  0  0  0  0  0  0  0
  1  2  2  0  0  0  0
  2  3  1  0  0  0  0
  2 14  1  0  0  0  0
  3  4  1  0  0  0  0
  3 34  1  0  0  0  0
  4  5  1  0  0  0  0
  4 13  2  0  0  0  0
  5  6  2  0  0  0  0
  5 35  1  0  0  0  0
  6  7  1  0  0  0  0
  6 36  1  0  0  0  0
  7  8  2  0  0  0  0
  7 37  1  0  0  0  0
  8  9  1  0  0  0  0
  8 13  1  0  0  0  0
  9 10  1  0  0  0  0
  9 11  1  0  0  0  0
  9 12  1  0  0  0  0
 13 38  1  0  0  0  0
 14 15  1  0  0  0  0
 14 33  2  0  0  0  0
 15 16  2  0  0  0  0
 15 39  1  0  0  0  0
 16 17  1  0  0  0  0
 16 40  1  0  0  0  0
 17 18  2  0  0  0  0
 17 41  1  0  0  0  0
 18 19  1  0  0  0  0
 18 33  1  0  0  0  0
 19 20  1  0  0  0  0
 19 32  1  0  0  0  0
 20 21  1  0  0  0  0
 20 42  1  0  0  0  0
 20 43  1  0  0  0  0
 21 22  1  0  0  0  0
 21 44  1  0  0  0  0
 21 45  1  0  0  0  0
 22 23  1  0  0  0  0
 22 31  2  0  0  0  0
 23 24  2  0  0  0  0
 23 32  1  0  0  0  0
 24 25  1  0  0  0  0
 24 46  1  0  0  0  0
 25 26  2  0  0  0  0
 26 27  1  0  0  0  0
 26 31  1  0  0  0  0
 27 28  2  0  0  0  0
 27 47  1  0  0  0  0
 28 29  1  0  0  0  0
 28 48  1  0  0  0  0
 29 30  2  0  0  0  0
 29 49  1  0  0  0  0
 30 31  1  0  0  0  0
 30 50  1  0  0  0  0
 32 51  1  0  0  0  0
 32 52  1  0  0  0  0
 33 53  1  0  0  0  0
M  END
$$$$
