CHEMBL295973
 OpenBabel04072215363D

 42 45  0  0  0  0  0  0  0  0999 V2000
   -1.6923   -2.4753    4.7834 C   0  0  0  0  0  0  0  0  0  0  0  0
   -2.0482   -1.8283    3.4787 C   0  0  0  0  0  0  0  0  0  0  0  0
   -2.2298   -2.5768    2.3104 C   0  0  0  0  0  0  0  0  0  0  0  0
   -2.6471   -1.9601    1.1211 C   0  0  0  0  0  0  0  0  0  0  0  0
   -2.8974   -0.5870    1.0789 C   0  0  0  0  0  0  0  0  0  0  0  0
   -3.4917   -0.0127   -0.0545 N   0  0  0  0  0  0  0  0  0  0  0  0
   -4.2204    1.1728   -0.1105 C   0  0  0  0  0  0  0  0  0  0  0  0
   -4.9767    1.5151    0.9463 N   0  0  0  0  0  0  0  0  0  0  0  0
   -5.5829    2.7016    0.9198 C   0  0  0  0  0  0  0  0  0  0  0  0
   -5.4508    3.5936   -0.1053 C   0  0  0  0  0  0  0  0  0  0  0  0
   -4.6473    3.1844   -1.1519 C   0  0  0  0  0  0  0  0  0  0  0  0
   -4.3552    4.1257   -2.1902 N   0  0  0  0  0  0  0  0  0  0  0  0
   -5.1541    5.2043   -2.5322 C   0  0  0  0  0  0  0  0  0  0  0  0
   -4.5555    5.8034   -3.6077 C   0  0  0  0  0  0  0  0  0  0  0  0
   -3.3935    5.1692   -3.9215 N   0  0  0  0  0  0  0  0  0  0  0  0
   -3.2501    4.1752   -3.0513 C   0  0  0  0  0  0  0  0  0  0  0  0
   -2.0715    3.2913   -3.0470 C   0  0  0  0  0  0  0  0  0  0  0  0
   -1.4524    2.8409   -1.8729 C   0  0  0  0  0  0  0  0  0  0  0  0
   -0.4184    1.9026   -1.9228 C   0  0  0  0  0  0  0  0  0  0  0  0
    0.0636    1.4632   -3.1525 C   0  0  0  0  0  0  0  0  0  0  0  0
   -0.4702    1.9806   -4.3301 C   0  0  0  0  0  0  0  0  0  0  0  0
   -1.5287    2.8900   -4.2763 C   0  0  0  0  0  0  0  0  0  0  0  0
   -4.0842    1.9564   -1.1868 N   0  0  0  0  0  0  0  0  0  0  0  0
   -2.6613    0.1569    2.2464 C   0  0  0  0  0  0  0  0  0  0  0  0
   -2.2425   -0.4488    3.4300 C   0  0  0  0  0  0  0  0  0  0  0  0
   -1.5607   -3.5562    4.6746 H   0  0  0  0  0  0  0  0  0  0  0  0
   -2.4922   -2.3059    5.5126 H   0  0  0  0  0  0  0  0  0  0  0  0
   -0.7598   -2.0551    5.1728 H   0  0  0  0  0  0  0  0  0  0  0  0
   -2.0808   -3.6536    2.3215 H   0  0  0  0  0  0  0  0  0  0  0  0
   -2.8160   -2.5750    0.2419 H   0  0  0  0  0  0  0  0  0  0  0  0
   -3.2439   -0.3742   -0.9646 H   0  0  0  0  0  0  0  0  0  0  0  0
   -6.1723    2.9274    1.8062 H   0  0  0  0  0  0  0  0  0  0  0  0
   -5.8935    4.5749   -0.0192 H   0  0  0  0  0  0  0  0  0  0  0  0
   -6.0967    5.4145   -2.0472 H   0  0  0  0  0  0  0  0  0  0  0  0
   -4.9101    6.6528   -4.1783 H   0  0  0  0  0  0  0  0  0  0  0  0
   -1.7926    3.1790   -0.8976 H   0  0  0  0  0  0  0  0  0  0  0  0
   -0.0032    1.5074   -0.9991 H   0  0  0  0  0  0  0  0  0  0  0  0
    0.8601    0.7254   -3.1927 H   0  0  0  0  0  0  0  0  0  0  0  0
   -0.0763    1.6676   -5.2929 H   0  0  0  0  0  0  0  0  0  0  0  0
   -1.9454    3.2808   -5.2030 H   0  0  0  0  0  0  0  0  0  0  0  0
   -2.8131    1.2337    2.2526 H   0  0  0  0  0  0  0  0  0  0  0  0
   -2.1000    0.1630    4.3176 H   0  0  0  0  0  0  0  0  0  0  0  0
  1  2  1  0  0  0  0
  1 26  1  0  0  0  0
  1 27  1  0  0  0  0
  1 28  1  0  0  0  0
  2  3  1  0  0  0  0
  2 25  2  0  0  0  0
  3  4  2  0  0  0  0
  3 29  1  0  0  0  0
  4  5  1  0  0  0  0
  4 30  1  0  0  0  0
  5  6  1  0  0  0  0
  5 24  2  0  0  0  0
  6  7  1  0  0  0  0
  6 31  1  0  0  0  0
  7  8  1  0  0  0  0
  7 23  2  0  0  0  0
  8  9  2  0  0  0  0
  9 10  1  0  0  0  0
  9 32  1  0  0  0  0
 10 11  2  0  0  0  0
 10 33  1  0  0  0  0
 11 12  1  0  0  0  0
 11 23  1  0  0  0  0
 12 13  1  0  0  0  0
 12 16  1  0  0  0  0
 13 14  2  0  0  0  0
 13 34  1  0  0  0  0
 14 15  1  0  0  0  0
 14 35  1  0  0  0  0
 15 16  2  0  0  0  0
 16 17  1  0  0  0  0
 17 18  1  0  0  0  0
 17 22  2  0  0  0  0
 18 19  2  0  0  0  0
 18 36  1  0  0  0  0
 19 20  1  0  0  0  0
 19 37  1  0  0  0  0
 20 21  2  0  0  0  0
 20 38  1  0  0  0  0
 21 22  1  0  0  0  0
 21 39  1  0  0  0  0
 22 40  1  0  0  0  0
 24 25  1  0  0  0  0
 24 41  1  0  0  0  0
 25 42  1  0  0  0  0
M  END
$$$$
