CHEMBL243919
 OpenBabel04072215363D

 67 72  0  0  0  0  0  0  0  0999 V2000
    0.0466    9.6044    7.5037 O   0  0  0  0  0  0  0  0  0  0  0  0
    0.1454   10.0209    6.3541 C   0  0  0  0  0  0  0  0  0  0  0  0
    0.1159    9.2106    5.2333 N   0  0  0  0  0  0  0  0  0  0  0  0
    0.0041    7.7974    5.2698 C   0  0  0  0  0  0  0  0  0  0  0  0
   -0.3318    7.0919    6.4315 C   0  0  0  0  0  0  0  0  0  0  0  0
   -0.3378    5.7013    6.4629 C   0  0  0  0  0  0  0  0  0  0  0  0
   -0.0955    4.9875    5.3004 C   0  0  0  0  0  0  0  0  0  0  0  0
   -0.0806    3.6215    5.2283 O   0  0  0  0  0  0  0  0  0  0  0  0
   -0.8384    2.8489    6.0850 C   0  0  0  0  0  0  0  0  0  0  0  0
   -0.2412    1.6198    6.3842 C   0  0  0  0  0  0  0  0  0  0  0  0
   -0.9260    0.6514    7.1031 C   0  0  0  0  0  0  0  0  0  0  0  0
   -2.2114    0.9559    7.5525 C   0  0  0  0  0  0  0  0  0  0  0  0
   -3.0478    0.1507    8.2424 N   0  0  0  0  0  0  0  0  0  0  0  0
   -4.1182    0.8428    8.5310 C   0  0  0  0  0  0  0  0  0  0  0  0
   -5.1798    0.3479    9.2679 N   0  0  0  0  0  0  0  0  0  0  0  0
   -5.0667   -0.9661    9.7383 C   0  0  0  0  0  0  0  0  0  0  0  0
   -4.0781   -1.6882    9.6497 O   0  0  0  0  0  0  0  0  0  0  0  0
   -6.2093   -1.5599   10.4801 C   0  0  0  0  0  0  0  0  0  0  0  0
   -6.7258   -0.7897   11.5416 C   0  0  0  0  0  0  0  0  0  0  0  0
   -7.6838   -1.3185   12.4055 C   0  0  0  0  0  0  0  0  0  0  0  0
   -8.1326   -2.6191   12.2254 C   0  0  0  0  0  0  0  0  0  0  0  0
   -7.6230   -3.3952   11.1819 C   0  0  0  0  0  0  0  0  0  0  0  0
   -6.6502   -2.9008   10.2856 C   0  0  0  0  0  0  0  0  0  0  0  0
   -6.1929   -3.8507    9.2345 C   0  0  0  0  0  0  0  0  0  0  0  0
   -6.8387   -4.9578    8.6881 C   0  0  0  0  0  0  0  0  0  0  0  0
   -5.9791   -5.5835    7.7533 C   0  0  0  0  0  0  0  0  0  0  0  0
   -4.8131   -4.8618    7.7417 C   0  0  0  0  0  0  0  0  0  0  0  0
   -4.9413   -3.8403    8.6463 N   0  0  0  0  0  0  0  0  0  0  0  0
   -4.0094    2.1110    7.9839 N   0  0  0  0  0  0  0  0  0  0  0  0
   -2.7923    2.1943    7.3130 C   0  0  0  0  0  0  0  0  0  0  0  0
   -2.1396    3.1696    6.5403 C   0  0  0  0  0  0  0  0  0  0  0  0
    0.2351    5.6721    4.1269 C   0  0  0  0  0  0  0  0  0  0  0  0
    0.2777    7.0726    4.1066 C   0  0  0  0  0  0  0  0  0  0  0  0
    0.3256   11.3537    6.0555 N   0  0  0  0  0  0  0  0  0  0  0  0
    0.5085   12.3934    7.0042 C   0  0  0  0  0  0  0  0  0  0  0  0
    0.5994   12.1879    8.3910 C   0  0  0  0  0  0  0  0  0  0  0  0
    0.7809   13.2557    9.2811 C   0  0  0  0  0  0  0  0  0  0  0  0
    0.8620   13.0059   10.7708 C   0  0  0  0  0  0  0  0  0  0  0  0
    0.7218   11.6968   11.1221 F   0  0  0  0  0  0  0  0  0  0  0  0
    2.0524   13.4056   11.2973 F   0  0  0  0  0  0  0  0  0  0  0  0
   -0.0979   13.6798   11.4627 F   0  0  0  0  0  0  0  0  0  0  0  0
    0.8858   14.5563    8.7689 C   0  0  0  0  0  0  0  0  0  0  0  0
    0.8065   14.7764    7.3924 C   0  0  0  0  0  0  0  0  0  0  0  0
    0.6175   13.7024    6.5266 C   0  0  0  0  0  0  0  0  0  0  0  0
    0.5426   13.9303    5.2076 F   0  0  0  0  0  0  0  0  0  0  0  0
    0.3606    9.6257    4.3471 H   0  0  0  0  0  0  0  0  0  0  0  0
   -0.5940    7.5879    7.3587 H   0  0  0  0  0  0  0  0  0  0  0  0
   -0.5266    5.2050    7.4092 H   0  0  0  0  0  0  0  0  0  0  0  0
    0.7681    1.4031    6.0395 H   0  0  0  0  0  0  0  0  0  0  0  0
   -0.5033   -0.3195    7.3139 H   0  0  0  0  0  0  0  0  0  0  0  0
   -5.9922    0.9155    9.4554 H   0  0  0  0  0  0  0  0  0  0  0  0
   -6.3340    0.2036   11.7483 H   0  0  0  0  0  0  0  0  0  0  0  0
   -8.0506   -0.7312   13.2439 H   0  0  0  0  0  0  0  0  0  0  0  0
   -8.8599   -3.0498   12.9092 H   0  0  0  0  0  0  0  0  0  0  0  0
   -7.9729   -4.4218   11.1021 H   0  0  0  0  0  0  0  0  0  0  0  0
   -7.8371   -5.2925    8.9361 H   0  0  0  0  0  0  0  0  0  0  0  0
   -6.1879   -6.4633    7.1590 H   0  0  0  0  0  0  0  0  0  0  0  0
   -3.8968   -4.9844    7.1797 H   0  0  0  0  0  0  0  0  0  0  0  0
   -4.2139   -3.1617    8.8624 H   0  0  0  0  0  0  0  0  0  0  0  0
   -4.6776    2.8650    8.0750 H   0  0  0  0  0  0  0  0  0  0  0  0
   -2.6145    4.1139    6.3003 H   0  0  0  0  0  0  0  0  0  0  0  0
    0.4804    5.1101    3.2286 H   0  0  0  0  0  0  0  0  0  0  0  0
    0.5534    7.5730    3.1821 H   0  0  0  0  0  0  0  0  0  0  0  0
    0.2598   11.6440    5.0901 H   0  0  0  0  0  0  0  0  0  0  0  0
    0.5359   11.1927    8.8224 H   0  0  0  0  0  0  0  0  0  0  0  0
    1.0325   15.3994    9.4431 H   0  0  0  0  0  0  0  0  0  0  0  0
    0.8930   15.7798    6.9878 H   0  0  0  0  0  0  0  0  0  0  0  0
  1  2  2  0  0  0  0
  2  3  1  0  0  0  0
  2 34  1  0  0  0  0
  3  4  1  0  0  0  0
  3 46  1  0  0  0  0
  4  5  1  0  0  0  0
  4 33  2  0  0  0  0
  5  6  2  0  0  0  0
  5 47  1  0  0  0  0
  6  7  1  0  0  0  0
  6 48  1  0  0  0  0
  7  8  1  0  0  0  0
  7 32  2  0  0  0  0
  8  9  1  0  0  0  0
  9 10  1  0  0  0  0
  9 31  2  0  0  0  0
 10 11  2  0  0  0  0
 10 49  1  0  0  0  0
 11 12  1  0  0  0  0
 11 50  1  0  0  0  0
 12 13  1  0  0  0  0
 12 30  2  0  0  0  0
 13 14  2  0  0  0  0
 14 15  1  0  0  0  0
 14 29  1  0  0  0  0
 15 16  1  0  0  0  0
 15 51  1  0  0  0  0
 16 17  2  0  0  0  0
 16 18  1  0  0  0  0
 18 19  1  0  0  0  0
 18 23  2  0  0  0  0
 19 20  2  0  0  0  0
 19 52  1  0  0  0  0
 20 21  1  0  0  0  0
 20 53  1  0  0  0  0
 21 22  2  0  0  0  0
 21 54  1  0  0  0  0
 22 23  1  0  0  0  0
 22 55  1  0  0  0  0
 23 24  1  0  0  0  0
 24 25  2  0  0  0  0
 24 28  1  0  0  0  0
 25 26  1  0  0  0  0
 25 56  1  0  0  0  0
 26 27  2  0  0  0  0
 26 57  1  0  0  0  0
 27 28  1  0  0  0  0
 27 58  1  0  0  0  0
 28 59  1  0  0  0  0
 29 30  1  0  0  0  0
 29 60  1  0  0  0  0
 30 31  1  0  0  0  0
 31 61  1  0  0  0  0
 32 33  1  0  0  0  0
 32 62  1  0  0  0  0
 33 63  1  0  0  0  0
 34 35  1  0  0  0  0
 34 64  1  0  0  0  0
 35 36  1  0  0  0  0
 35 44  2  0  0  0  0
 36 37  2  0  0  0  0
 36 65  1  0  0  0  0
 37 38  1  0  0  0  0
 37 42  1  0  0  0  0
 38 39  1  0  0  0  0
 38 40  1  0  0  0  0
 38 41  1  0  0  0  0
 42 43  2  0  0  0  0
 42 66  1  0  0  0  0
 43 44  1  0  0  0  0
 43 67  1  0  0  0  0
 44 45  1  0  0  0  0
M  END
$$$$
