CHEMBL3934260
 OpenBabel04072215373D

 68 70  0  0  0  0  0  0  0  0999 V2000
    0.9703    5.0083    0.2926 C   0  0  0  0  0  0  0  0  0  0  0  0
    2.2597    4.8913   -0.1950 O   0  0  0  0  0  0  0  0  0  0  0  0
    2.9247    3.7266   -0.4366 C   0  0  0  0  0  0  0  0  0  0  0  0
    2.2909    2.4772   -0.3046 C   0  0  0  0  0  0  0  0  0  0  0  0
    2.9720    1.3096   -0.5883 C   0  0  0  0  0  0  0  0  0  0  0  0
    2.3218    0.1083   -0.4817 O   0  0  0  0  0  0  0  0  0  0  0  0
    2.8454   -1.1412   -0.7790 C   0  0  0  0  0  0  0  0  0  0  0  0
    4.3123    1.3832   -0.9975 C   0  0  0  0  0  0  0  0  0  0  0  0
    5.0108    2.6200   -1.1552 C   0  0  0  0  0  0  0  0  0  0  0  0
    6.3760    2.6500   -1.6965 N   0  0  0  0  0  0  0  0  0  0  0  0
    6.9633    1.4028   -2.2993 C   0  0  0  0  0  0  0  0  0  0  0  0
    8.3263    1.1017   -1.6527 C   0  0  0  0  0  0  0  0  0  0  0  0
    9.0854   -0.1221   -2.1833 C   0  0  0  0  0  0  0  0  0  0  0  0
   10.4004   -0.1481   -1.5161 N   0  0  0  0  0  0  0  0  0  0  0  0
   11.2483   -1.3120   -1.8148 C   0  0  0  0  0  0  0  0  0  0  0  0
   11.6538   -1.3588   -3.2938 C   0  0  0  0  0  0  0  0  0  0  0  0
   12.5226   -1.2295   -0.9554 C   0  0  0  0  0  0  0  0  0  0  0  0
    7.2882    3.7992   -1.7957 C   0  0  0  0  0  0  0  0  0  0  0  0
    7.9482    3.8843   -3.0329 C   0  0  0  0  0  0  0  0  0  0  0  0
    9.1304    4.5141   -3.1788 C   0  0  0  0  0  0  0  0  0  0  0  0
    9.6874    5.1887   -2.1453 C   0  0  0  0  0  0  0  0  0  0  0  0
   10.9361    5.6050   -2.3500 N   0  0  0  0  0  0  0  0  0  0  0  0
   11.5743    6.3631   -1.4777 C   0  0  0  0  0  0  0  0  0  0  0  0
   10.8967    6.8880   -0.3747 C   0  0  0  0  0  0  0  0  0  0  0  0
   11.5324    8.1845    0.1270 C   0  0  0  0  0  0  0  0  0  0  0  0
   12.5688    8.8422   -0.5774 C   0  0  0  0  0  0  0  0  0  0  0  0
   12.7907   10.0456   -0.0693 N   0  0  0  0  0  0  0  0  0  0  0  0
   11.9712   10.2120    0.9452 N   0  0  0  0  0  0  0  0  0  0  0  0
   11.8972   11.4943    1.6244 C   0  0  0  0  0  0  0  0  0  0  0  0
   11.2069    9.0976    1.1323 C   0  0  0  0  0  0  0  0  0  0  0  0
    9.6347    6.3461   -0.0572 N   0  0  0  0  0  0  0  0  0  0  0  0
    9.0237    5.4248   -0.9235 C   0  0  0  0  0  0  0  0  0  0  0  0
    7.7814    4.6651   -0.7162 C   0  0  0  0  0  0  0  0  0  0  0  0
    4.2831    3.7912   -0.8593 C   0  0  0  0  0  0  0  0  0  0  0  0
    2.0284   -0.6383    2.6749 Cl  0  0  0  0  0  0  0  0  0  0  0  0
    0.6814    6.0731    0.3213 H   0  0  0  0  0  0  0  0  0  0  0  0
    0.9092    4.5929    1.3249 H   0  0  0  0  0  0  0  0  0  0  0  0
    0.2451    4.4710   -0.3634 H   0  0  0  0  0  0  0  0  0  0  0  0
    1.2577    2.3999    0.0081 H   0  0  0  0  0  0  0  0  0  0  0  0
    2.0812   -1.9221   -0.5851 H   0  0  0  0  0  0  0  0  0  0  0  0
    3.7271   -1.3560   -0.1377 H   0  0  0  0  0  0  0  0  0  0  0  0
    3.1361   -1.1992   -1.8514 H   0  0  0  0  0  0  0  0  0  0  0  0
    4.7574    0.4381   -1.1885 H   0  0  0  0  0  0  0  0  0  0  0  0
    7.0802    1.4859   -3.3921 H   0  0  0  0  0  0  0  0  0  0  0  0
    6.3684    0.4931   -2.2528 H   0  0  0  0  0  0  0  0  0  0  0  0
    8.1727    0.9869   -0.5593 H   0  0  0  0  0  0  0  0  0  0  0  0
    9.0173    1.9500   -1.8150 H   0  0  0  0  0  0  0  0  0  0  0  0
    9.2204   -0.0073   -3.2792 H   0  0  0  0  0  0  0  0  0  0  0  0
    8.5130   -1.0510   -1.9716 H   0  0  0  0  0  0  0  0  0  0  0  0
   10.2316   -0.1368   -0.4807 H   0  0  0  0  0  0  0  0  0  0  0  0
   10.7087   -2.2470   -1.5473 H   0  0  0  0  0  0  0  0  0  0  0  0
   12.1837   -0.4249   -3.5817 H   0  0  0  0  0  0  0  0  0  0  0  0
   10.7703   -1.4942   -3.9481 H   0  0  0  0  0  0  0  0  0  0  0  0
   12.3304   -2.2222   -3.4711 H   0  0  0  0  0  0  0  0  0  0  0  0
   13.0977   -0.3079   -1.1950 H   0  0  0  0  0  0  0  0  0  0  0  0
   13.1713   -2.1124   -1.1364 H   0  0  0  0  0  0  0  0  0  0  0  0
   12.2645   -1.2086    0.1251 H   0  0  0  0  0  0  0  0  0  0  0  0
    7.6250    3.3475   -3.9014 H   0  0  0  0  0  0  0  0  0  0  0  0
    9.6598    4.4296   -4.1167 H   0  0  0  0  0  0  0  0  0  0  0  0
   12.5638    6.6381   -1.7712 H   0  0  0  0  0  0  0  0  0  0  0  0
   13.0917    8.5452   -1.4716 H   0  0  0  0  0  0  0  0  0  0  0  0
   12.5580   12.2332    1.1045 H   0  0  0  0  0  0  0  0  0  0  0  0
   12.2237   11.4048    2.6749 H   0  0  0  0  0  0  0  0  0  0  0  0
   10.8614   11.8835    1.5521 H   0  0  0  0  0  0  0  0  0  0  0  0
   10.4349    9.0150    1.8808 H   0  0  0  0  0  0  0  0  0  0  0  0
    7.2947    4.6649    0.2599 H   0  0  0  0  0  0  0  0  0  0  0  0
    4.7448    4.7598   -0.9847 H   0  0  0  0  0  0  0  0  0  0  0  0
    1.6346    0.4969    2.0059 H   0  0  0  0  0  0  0  0  0  0  0  0
  1  2  1  0  0  0  0
  1 36  1  0  0  0  0
  1 37  1  0  0  0  0
  1 38  1  0  0  0  0
  2  3  1  0  0  0  0
  3  4  1  0  0  0  0
  3 34  2  0  0  0  0
  4  5  2  0  0  0  0
  4 39  1  0  0  0  0
  5  6  1  0  0  0  0
  5  8  1  0  0  0  0
  6  7  1  0  0  0  0
  7 40  1  0  0  0  0
  7 41  1  0  0  0  0
  7 42  1  0  0  0  0
  8  9  2  0  0  0  0
  8 43  1  0  0  0  0
  9 10  1  0  0  0  0
  9 34  1  0  0  0  0
 10 11  1  0  0  0  0
 10 18  1  0  0  0  0
 11 12  1  0  0  0  0
 11 44  1  0  0  0  0
 11 45  1  0  0  0  0
 12 13  1  0  0  0  0
 12 46  1  0  0  0  0
 12 47  1  0  0  0  0
 13 14  1  0  0  0  0
 13 48  1  0  0  0  0
 13 49  1  0  0  0  0
 14 15  1  0  0  0  0
 14 50  1  0  0  0  0
 15 16  1  0  0  0  0
 15 17  1  0  0  0  0
 15 51  1  0  0  0  0
 16 52  1  0  0  0  0
 16 53  1  0  0  0  0
 16 54  1  0  0  0  0
 17 55  1  0  0  0  0
 17 56  1  0  0  0  0
 17 57  1  0  0  0  0
 18 19  1  0  0  0  0
 18 33  2  0  0  0  0
 19 20  2  0  0  0  0
 19 58  1  0  0  0  0
 20 21  1  0  0  0  0
 20 59  1  0  0  0  0
 21 22  1  0  0  0  0
 21 32  2  0  0  0  0
 22 23  2  0  0  0  0
 23 24  1  0  0  0  0
 23 60  1  0  0  0  0
 24 25  1  0  0  0  0
 24 31  2  0  0  0  0
 25 26  1  0  0  0  0
 25 30  2  0  0  0  0
 26 27  2  0  0  0  0
 26 61  1  0  0  0  0
 27 28  1  0  0  0  0
 28 29  1  0  0  0  0
 28 30  1  0  0  0  0
 29 62  1  0  0  0  0
 29 63  1  0  0  0  0
 29 64  1  0  0  0  0
 30 65  1  0  0  0  0
 31 32  1  0  0  0  0
 32 33  1  0  0  0  0
 33 66  1  0  0  0  0
 34 67  1  0  0  0  0
 35 68  1  0  0  0  0
M  END
$$$$
