CHEMBL495330
 OpenBabel04072215383D

 50 54  0  0  0  0  0  0  0  0999 V2000
    2.4801    0.2163   -0.1199 C   0  0  0  0  0  0  0  0  0  0  0  0
    0.9769    0.0932   -0.0429 C   0  0  0  0  0  0  0  0  0  0  0  0
    0.2417    1.2970   -0.0250 C   0  0  0  0  0  0  0  0  0  0  0  0
   -1.1543    1.3057   -0.0152 C   0  0  0  0  0  0  0  0  0  0  0  0
   -1.8491    0.1010   -0.0127 C   0  0  0  0  0  0  0  0  0  0  0  0
   -3.3378    0.0217   -0.0538 C   0  0  0  0  0  0  0  0  0  0  0  0
   -3.8786   -0.9582   -0.5645 O   0  0  0  0  0  0  0  0  0  0  0  0
   -4.0290    1.0629    0.5368 N   0  0  0  0  0  0  0  0  0  0  0  0
   -5.4554    1.0687    0.6019 C   0  0  0  0  0  0  0  0  0  0  0  0
   -6.2673    1.7242   -0.4794 C   0  0  0  0  0  0  0  0  0  0  0  0
   -6.2072    2.3407    0.8874 C   0  0  0  0  0  0  0  0  0  0  0  0
   -1.1295   -1.0979   -0.0035 C   0  0  0  0  0  0  0  0  0  0  0  0
    0.2873   -1.1458   -0.0058 C   0  0  0  0  0  0  0  0  0  0  0  0
    0.9475   -2.4792    0.0297 C   0  0  0  0  0  0  0  0  0  0  0  0
    0.3351   -3.5946   -0.5478 C   0  0  0  0  0  0  0  0  0  0  0  0
    0.9030   -4.8639   -0.4388 C   0  0  0  0  0  0  0  0  0  0  0  0
    2.1894   -5.0773    0.1073 C   0  0  0  0  0  0  0  0  0  0  0  0
    2.9056   -6.2893    0.1219 C   0  0  0  0  0  0  0  0  0  0  0  0
    2.4259   -7.5499   -0.4930 C   0  0  0  0  0  0  0  0  0  0  0  0
    1.6743   -7.5623   -1.6862 C   0  0  0  0  0  0  0  0  0  0  0  0
    1.1172   -8.7334   -2.1937 C   0  0  0  0  0  0  0  0  0  0  0  0
    1.3903   -9.9451   -1.5737 C   0  0  0  0  0  0  0  0  0  0  0  0
    2.2025   -9.9776   -0.4428 C   0  0  0  0  0  0  0  0  0  0  0  0
    2.7046   -8.7938    0.1010 C   0  0  0  0  0  0  0  0  0  0  0  0
    4.1228   -6.3885    0.7253 N   0  0  0  0  0  0  0  0  0  0  0  0
    4.7060   -5.3043    1.3092 N   0  0  0  0  0  0  0  0  0  0  0  0
    4.0607   -4.1244    1.2818 C   0  0  0  0  0  0  0  0  0  0  0  0
    2.8080   -3.9617    0.7036 C   0  0  0  0  0  0  0  0  0  0  0  0
    2.1615   -2.7120    0.6928 C   0  0  0  0  0  0  0  0  0  0  0  0
    2.7955    1.2453   -0.3202 H   0  0  0  0  0  0  0  0  0  0  0  0
    2.8807   -0.4050   -0.9275 H   0  0  0  0  0  0  0  0  0  0  0  0
    2.9438   -0.0440    0.8339 H   0  0  0  0  0  0  0  0  0  0  0  0
    0.7710    2.2498   -0.0406 H   0  0  0  0  0  0  0  0  0  0  0  0
   -1.6711    2.2593   -0.0482 H   0  0  0  0  0  0  0  0  0  0  0  0
   -3.5210    1.7447    1.0821 H   0  0  0  0  0  0  0  0  0  0  0  0
   -5.8648    0.1549    1.0282 H   0  0  0  0  0  0  0  0  0  0  0  0
   -7.1838    1.2319   -0.7833 H   0  0  0  0  0  0  0  0  0  0  0  0
   -5.7374    2.2113   -1.2900 H   0  0  0  0  0  0  0  0  0  0  0  0
   -7.0943    2.2775    1.5063 H   0  0  0  0  0  0  0  0  0  0  0  0
   -5.6512    3.2630    0.9995 H   0  0  0  0  0  0  0  0  0  0  0  0
   -1.7103   -2.0204    0.0154 H   0  0  0  0  0  0  0  0  0  0  0  0
   -0.6125   -3.5167   -1.0768 H   0  0  0  0  0  0  0  0  0  0  0  0
    0.2984   -5.6845   -0.8074 H   0  0  0  0  0  0  0  0  0  0  0  0
    1.4948   -6.6453   -2.2439 H   0  0  0  0  0  0  0  0  0  0  0  0
    0.4806   -8.6906   -3.0732 H   0  0  0  0  0  0  0  0  0  0  0  0
    0.9799  -10.8624   -1.9811 H   0  0  0  0  0  0  0  0  0  0  0  0
    2.4441  -10.9278    0.0248 H   0  0  0  0  0  0  0  0  0  0  0  0
    3.3179   -8.8510    0.9997 H   0  0  0  0  0  0  0  0  0  0  0  0
    4.5962   -3.3012    1.7418 H   0  0  0  0  0  0  0  0  0  0  0  0
    2.6394   -1.9207    1.2510 H   0  0  0  0  0  0  0  0  0  0  0  0
  1  2  1  0  0  0  0
  1 30  1  0  0  0  0
  1 31  1  0  0  0  0
  1 32  1  0  0  0  0
  2  3  1  0  0  0  0
  2 13  2  0  0  0  0
  3  4  2  0  0  0  0
  3 33  1  0  0  0  0
  4  5  1  0  0  0  0
  4 34  1  0  0  0  0
  5  6  1  0  0  0  0
  5 12  2  0  0  0  0
  6  7  2  0  0  0  0
  6  8  1  0  0  0  0
  8  9  1  0  0  0  0
  8 35  1  0  0  0  0
  9 10  1  0  0  0  0
  9 11  1  0  0  0  0
  9 36  1  0  0  0  0
 10 11  1  0  0  0  0
 10 37  1  0  0  0  0
 10 38  1  0  0  0  0
 11 39  1  0  0  0  0
 11 40  1  0  0  0  0
 12 13  1  0  0  0  0
 12 41  1  0  0  0  0
 13 14  1  0  0  0  0
 14 15  1  0  0  0  0
 14 29  2  0  0  0  0
 15 16  2  0  0  0  0
 15 42  1  0  0  0  0
 16 17  1  0  0  0  0
 16 43  1  0  0  0  0
 17 18  1  0  0  0  0
 17 28  2  0  0  0  0
 18 19  1  0  0  0  0
 18 25  2  0  0  0  0
 19 20  1  0  0  0  0
 19 24  2  0  0  0  0
 20 21  2  0  0  0  0
 20 44  1  0  0  0  0
 21 22  1  0  0  0  0
 21 45  1  0  0  0  0
 22 23  2  0  0  0  0
 22 46  1  0  0  0  0
 23 24  1  0  0  0  0
 23 47  1  0  0  0  0
 24 48  1  0  0  0  0
 25 26  1  0  0  0  0
 26 27  2  0  0  0  0
 27 28  1  0  0  0  0
 27 49  1  0  0  0  0
 28 29  1  0  0  0  0
 29 50  1  0  0  0  0
M  END
$$$$
