CHEMBL386760
 OpenBabel04072215373D

 96100  0  0  0  0  0  0  0  0999 V2000
   10.4055   -6.9110    3.3488 C   0  0  0  0  0  0  0  0  0  0  0  0
    9.1568   -6.3989    3.8043 O   0  0  0  0  0  0  0  0  0  0  0  0
    8.2021   -6.1565    2.8569 C   0  0  0  0  0  0  0  0  0  0  0  0
    8.3590   -6.3315    1.4816 C   0  0  0  0  0  0  0  0  0  0  0  0
    7.3109   -6.0147    0.6075 C   0  0  0  0  0  0  0  0  0  0  0  0
    6.0758   -5.5119    1.0822 C   0  0  0  0  0  0  0  0  0  0  0  0
    5.1235   -5.0668    0.1338 N   0  0  0  0  0  0  0  0  0  0  0  0
    4.5434   -3.7950    0.1360 C   0  0  0  0  0  0  0  0  0  0  0  0
    3.5539   -3.4718   -0.5122 O   0  0  0  0  0  0  0  0  0  0  0  0
    5.2865   -2.8715    0.8857 O   0  0  0  0  0  0  0  0  0  0  0  0
    5.3554   -1.4716    0.6244 C   0  0  0  0  0  0  0  0  0  0  0  0
    5.6835   -0.9554   -0.6442 C   0  0  0  0  0  0  0  0  0  0  0  0
    5.6608   -1.6910   -1.9500 C   0  0  0  0  0  0  0  0  0  0  0  0
    6.1120    0.3824   -0.7233 C   0  0  0  0  0  0  0  0  0  0  0  0
    6.1685    1.1951    0.4028 C   0  0  0  0  0  0  0  0  0  0  0  0
    5.7635    0.6962    1.6357 C   0  0  0  0  0  0  0  0  0  0  0  0
    5.3571   -0.6410    1.7662 C   0  0  0  0  0  0  0  0  0  0  0  0
    4.8985   -1.1311    3.1117 C   0  0  0  0  0  0  0  0  0  0  0  0
    4.7295   -6.0096   -0.8488 C   0  0  0  0  0  0  0  0  0  0  0  0
    4.7959   -5.6515   -2.1831 C   0  0  0  0  0  0  0  0  0  0  0  0
    4.2927   -6.5585   -3.0692 C   0  0  0  0  0  0  0  0  0  0  0  0
    3.7029   -7.6917   -2.6816 N   0  0  0  0  0  0  0  0  0  0  0  0
    3.6627   -7.9640   -1.3680 C   0  0  0  0  0  0  0  0  0  0  0  0
    2.9208   -9.0644   -0.9368 N   0  0  0  0  0  0  0  0  0  0  0  0
    1.8252   -9.6434   -1.5936 C   0  0  0  0  0  0  0  0  0  0  0  0
    1.5781  -11.0113   -1.4995 C   0  0  0  0  0  0  0  0  0  0  0  0
    0.5466  -11.6177   -2.2399 C   0  0  0  0  0  0  0  0  0  0  0  0
    0.2794  -12.9575   -2.0989 O   0  0  0  0  0  0  0  0  0  0  0  0
    1.3822  -13.8247   -1.8651 C   0  0  0  0  0  0  0  0  0  0  0  0
   -0.2844  -10.8370   -3.0824 C   0  0  0  0  0  0  0  0  0  0  0  0
   -1.2669  -11.3102   -3.9155 O   0  0  0  0  0  0  0  0  0  0  0  0
   -1.4539  -12.7111   -4.0498 C   0  0  0  0  0  0  0  0  0  0  0  0
   -2.5149  -12.9704   -5.1140 C   0  0  0  0  0  0  0  0  0  0  0  0
   -2.7537  -14.4779   -5.2444 C   0  0  0  0  0  0  0  0  0  0  0  0
   -3.8042  -14.8333   -6.2058 N   0  0  0  0  0  0  0  0  0  0  0  0
   -3.4841  -14.4213   -7.5858 C   0  0  0  0  0  0  0  0  0  0  0  0
   -4.5640  -14.8701   -8.5995 C   0  0  0  0  0  0  0  0  0  0  0  0
   -4.8808  -16.3113   -8.5825 N   0  0  0  0  0  0  0  0  0  0  0  0
   -3.8189  -17.1029   -9.1978 C   0  0  0  0  0  0  0  0  0  0  0  0
   -5.1359  -16.7266   -7.1887 C   0  0  0  0  0  0  0  0  0  0  0  0
   -4.0567  -16.2898   -6.1706 C   0  0  0  0  0  0  0  0  0  0  0  0
   -0.0838   -9.4455   -3.1173 C   0  0  0  0  0  0  0  0  0  0  0  0
   -0.7628   -8.5118   -3.8619 O   0  0  0  0  0  0  0  0  0  0  0  0
   -2.1314   -8.7616   -4.1483 C   0  0  0  0  0  0  0  0  0  0  0  0
    0.9626   -8.8764   -2.3839 C   0  0  0  0  0  0  0  0  0  0  0  0
    4.2619   -7.2085   -0.4439 N   0  0  0  0  0  0  0  0  0  0  0  0
    5.9038   -5.4193    2.4700 C   0  0  0  0  0  0  0  0  0  0  0  0
    4.7155   -5.0985    3.0765 O   0  0  0  0  0  0  0  0  0  0  0  0
    3.6029   -5.8544    2.5819 C   0  0  0  0  0  0  0  0  0  0  0  0
    6.9725   -5.7020    3.3420 C   0  0  0  0  0  0  0  0  0  0  0  0
   11.0528   -7.0485    4.2213 H   0  0  0  0  0  0  0  0  0  0  0  0
   10.9047   -6.2051    2.6764 H   0  0  0  0  0  0  0  0  0  0  0  0
   10.2793   -7.8883    2.8718 H   0  0  0  0  0  0  0  0  0  0  0  0
    9.2890   -6.6880    1.0538 H   0  0  0  0  0  0  0  0  0  0  0  0
    7.4929   -6.1165   -0.4598 H   0  0  0  0  0  0  0  0  0  0  0  0
    5.1373   -2.6369   -1.9242 H   0  0  0  0  0  0  0  0  0  0  0  0
    6.6763   -1.8791   -2.3056 H   0  0  0  0  0  0  0  0  0  0  0  0
    5.1273   -1.0874   -2.6945 H   0  0  0  0  0  0  0  0  0  0  0  0
    6.4232    0.7919   -1.6826 H   0  0  0  0  0  0  0  0  0  0  0  0
    6.5203    2.2194    0.3132 H   0  0  0  0  0  0  0  0  0  0  0  0
    5.7911    1.3539    2.5017 H   0  0  0  0  0  0  0  0  0  0  0  0
    5.0820   -0.3807    3.8905 H   0  0  0  0  0  0  0  0  0  0  0  0
    5.4265   -2.0413    3.4055 H   0  0  0  0  0  0  0  0  0  0  0  0
    3.8199   -1.3196    3.0892 H   0  0  0  0  0  0  0  0  0  0  0  0
    5.2390   -4.7307   -2.5253 H   0  0  0  0  0  0  0  0  0  0  0  0
    4.3198   -6.3902   -4.1404 H   0  0  0  0  0  0  0  0  0  0  0  0
    3.4290   -9.6063   -0.2579 H   0  0  0  0  0  0  0  0  0  0  0  0
    2.2017  -11.6002   -0.8367 H   0  0  0  0  0  0  0  0  0  0  0  0
    1.0188  -14.8518   -1.9746 H   0  0  0  0  0  0  0  0  0  0  0  0
    1.7572  -13.7228   -0.8438 H   0  0  0  0  0  0  0  0  0  0  0  0
    2.1787  -13.6701   -2.6006 H   0  0  0  0  0  0  0  0  0  0  0  0
   -1.8144  -13.1248   -3.1013 H   0  0  0  0  0  0  0  0  0  0  0  0
   -0.5207  -13.1915   -4.3685 H   0  0  0  0  0  0  0  0  0  0  0  0
   -2.1749  -12.5296   -6.0584 H   0  0  0  0  0  0  0  0  0  0  0  0
   -3.4428  -12.4510   -4.8460 H   0  0  0  0  0  0  0  0  0  0  0  0
   -3.0543  -14.8483   -4.2548 H   0  0  0  0  0  0  0  0  0  0  0  0
   -1.8112  -14.9814   -5.4970 H   0  0  0  0  0  0  0  0  0  0  0  0
   -2.5060  -14.8163   -7.8889 H   0  0  0  0  0  0  0  0  0  0  0  0
   -3.4275  -13.3294   -7.6471 H   0  0  0  0  0  0  0  0  0  0  0  0
   -4.2688  -14.5592   -9.6093 H   0  0  0  0  0  0  0  0  0  0  0  0
   -5.4897  -14.3198   -8.3830 H   0  0  0  0  0  0  0  0  0  0  0  0
   -3.6589  -16.7852  -10.2342 H   0  0  0  0  0  0  0  0  0  0  0  0
   -4.1094  -18.1584   -9.2385 H   0  0  0  0  0  0  0  0  0  0  0  0
   -2.8616  -17.0335   -8.6716 H   0  0  0  0  0  0  0  0  0  0  0  0
   -5.2720  -17.8140   -7.1374 H   0  0  0  0  0  0  0  0  0  0  0  0
   -6.0971  -16.2951   -6.8787 H   0  0  0  0  0  0  0  0  0  0  0  0
   -3.1286  -16.8456   -6.3601 H   0  0  0  0  0  0  0  0  0  0  0  0
   -4.4012  -16.5758   -5.1693 H   0  0  0  0  0  0  0  0  0  0  0  0
   -2.5848   -7.8070   -4.4370 H   0  0  0  0  0  0  0  0  0  0  0  0
   -2.6751   -9.1330   -3.2737 H   0  0  0  0  0  0  0  0  0  0  0  0
   -2.2329   -9.4305   -5.0069 H   0  0  0  0  0  0  0  0  0  0  0  0
    1.0916   -7.7963   -2.4345 H   0  0  0  0  0  0  0  0  0  0  0  0
    2.9188   -6.0545    3.4099 H   0  0  0  0  0  0  0  0  0  0  0  0
    3.8941   -6.8239    2.1607 H   0  0  0  0  0  0  0  0  0  0  0  0
    3.0573   -5.2597    1.8456 H   0  0  0  0  0  0  0  0  0  0  0  0
    6.8273   -5.5913    4.4172 H   0  0  0  0  0  0  0  0  0  0  0  0
  1  2  1  0  0  0  0
  1 51  1  0  0  0  0
  1 52  1  0  0  0  0
  1 53  1  0  0  0  0
  2  3  1  0  0  0  0
  3  4  1  0  0  0  0
  3 50  2  0  0  0  0
  4  5  2  0  0  0  0
  4 54  1  0  0  0  0
  5  6  1  0  0  0  0
  5 55  1  0  0  0  0
  6  7  1  0  0  0  0
  6 47  2  0  0  0  0
  7  8  1  0  0  0  0
  7 19  1  0  0  0  0
  8  9  2  0  0  0  0
  8 10  1  0  0  0  0
 10 11  1  0  0  0  0
 11 12  1  0  0  0  0
 11 17  2  0  0  0  0
 12 13  1  0  0  0  0
 12 14  2  0  0  0  0
 13 56  1  0  0  0  0
 13 57  1  0  0  0  0
 13 58  1  0  0  0  0
 14 15  1  0  0  0  0
 14 59  1  0  0  0  0
 15 16  2  0  0  0  0
 15 60  1  0  0  0  0
 16 17  1  0  0  0  0
 16 61  1  0  0  0  0
 17 18  1  0  0  0  0
 18 62  1  0  0  0  0
 18 63  1  0  0  0  0
 18 64  1  0  0  0  0
 19 20  1  0  0  0  0
 19 46  2  0  0  0  0
 20 21  2  0  0  0  0
 20 65  1  0  0  0  0
 21 22  1  0  0  0  0
 21 66  1  0  0  0  0
 22 23  2  0  0  0  0
 23 24  1  0  0  0  0
 23 46  1  0  0  0  0
 24 25  1  0  0  0  0
 24 67  1  0  0  0  0
 25 26  1  0  0  0  0
 25 45  2  0  0  0  0
 26 27  2  0  0  0  0
 26 68  1  0  0  0  0
 27 28  1  0  0  0  0
 27 30  1  0  0  0  0
 28 29  1  0  0  0  0
 29 69  1  0  0  0  0
 29 70  1  0  0  0  0
 29 71  1  0  0  0  0
 30 31  1  0  0  0  0
 30 42  2  0  0  0  0
 31 32  1  0  0  0  0
 32 33  1  0  0  0  0
 32 72  1  0  0  0  0
 32 73  1  0  0  0  0
 33 34  1  0  0  0  0
 33 74  1  0  0  0  0
 33 75  1  0  0  0  0
 34 35  1  0  0  0  0
 34 76  1  0  0  0  0
 34 77  1  0  0  0  0
 35 36  1  0  0  0  0
 35 41  1  0  0  0  0
 36 37  1  0  0  0  0
 36 78  1  0  0  0  0
 36 79  1  0  0  0  0
 37 38  1  0  0  0  0
 37 80  1  0  0  0  0
 37 81  1  0  0  0  0
 38 39  1  0  0  0  0
 38 40  1  0  0  0  0
 39 82  1  0  0  0  0
 39 83  1  0  0  0  0
 39 84  1  0  0  0  0
 40 41  1  0  0  0  0
 40 85  1  0  0  0  0
 40 86  1  0  0  0  0
 41 87  1  0  0  0  0
 41 88  1  0  0  0  0
 42 43  1  0  0  0  0
 42 45  1  0  0  0  0
 43 44  1  0  0  0  0
 44 89  1  0  0  0  0
 44 90  1  0  0  0  0
 44 91  1  0  0  0  0
 45 92  1  0  0  0  0
 47 48  1  0  0  0  0
 47 50  1  0  0  0  0
 48 49  1  0  0  0  0
 49 93  1  0  0  0  0
 49 94  1  0  0  0  0
 49 95  1  0  0  0  0
 50 96  1  0  0  0  0
M  END
$$$$
