CHEMBL1084061
 OpenBabel04072215363D

 64 70  0  0  1  0  0  0  0  0999 V2000
    3.8451   -0.6882   -3.3351 C   0  0  0  0  0  0  0  0  0  0  0  0
    3.2620    0.2462   -2.2859 C   0  0  0  0  0  0  0  0  0  0  0  0
    3.7482   -0.0465   -0.8575 C   0  0  0  0  0  0  0  0  0  0  0  0
    5.1861    0.0982   -0.6664 N   0  0  0  0  0  0  0  0  0  0  0  0
    5.8830    1.3200   -0.8030 C   0  0  0  0  0  0  0  0  0  0  0  0
    5.4464    2.6411   -1.0224 C   0  0  0  0  0  0  0  0  0  0  0  0
    6.4234    3.6482   -1.1914 C   0  0  0  0  0  0  0  0  0  0  0  0
    7.8029    3.3917   -1.0983 C   0  0  0  0  0  0  0  0  0  0  0  0
    8.8269    4.5233   -1.1341 C   0  0  3  0  0  0  0  0  0  0  0  0
    8.8869    5.3224   -2.4444 C   0  0  0  0  0  0  0  0  0  0  0  0
    9.9095    4.7882   -3.4382 C   0  0  0  0  0  0  0  0  0  0  0  0
   11.2551    4.6540   -2.7476 C   0  0  0  0  0  0  0  0  0  0  0  0
   11.1105    3.7227   -1.5609 C   0  0  0  0  0  0  0  0  0  0  0  0
   10.1281    4.1683   -0.6279 O   0  0  0  0  0  0  0  0  0  0  0  0
    8.1992    2.0743   -0.8844 C   0  0  0  0  0  0  0  0  0  0  0  0
    7.2532    1.0403   -0.7791 C   0  0  0  0  0  0  0  0  0  0  0  0
    7.2708   -0.3396   -0.7562 C   0  0  0  0  0  0  0  0  0  0  0  0
    8.3600   -1.0628   -1.2665 C   0  0  0  0  0  0  0  0  0  0  0  0
    8.0554   -2.3479   -1.7569 C   0  0  0  0  0  0  0  0  0  0  0  0
    6.7999   -2.9644   -1.5997 C   0  0  0  0  0  0  0  0  0  0  0  0
    6.0120   -2.3767   -0.5503 C   0  0  0  0  0  0  0  0  0  0  0  0
    6.0851   -0.9670   -0.5316 C   0  0  0  0  0  0  0  0  0  0  0  0
    6.0623   -3.2548    0.7730 C   0  0  0  0  0  0  0  0  0  0  0  0
    7.1120   -4.4421    0.7367 C   0  0  0  0  0  0  0  0  0  0  0  0
    6.8825   -5.1699   -0.5399 C   0  0  0  0  0  0  0  0  0  0  0  0
    6.4791   -6.4312   -0.6959 N   0  0  0  0  0  0  0  0  0  0  0  0
    5.9824   -6.4282   -1.9558 N   0  0  0  0  0  0  0  0  0  0  0  0
    5.3038   -7.5950   -2.4627 C   0  0  0  0  0  0  0  0  0  0  0  0
    5.9951   -5.1842   -2.5529 C   0  0  0  0  0  0  0  0  0  0  0  0
    6.7364   -4.3983   -1.7038 C   0  0  0  0  0  0  0  0  0  0  0  0
    9.2838   -2.9113   -2.2748 C   0  0  0  0  0  0  0  0  0  0  0  0
    9.5675   -3.9828   -2.7817 O   0  0  0  0  0  0  0  0  0  0  0  0
   10.2347   -1.9297   -2.0276 N   0  0  0  0  0  0  0  0  0  0  0  0
    9.7552   -0.6927   -1.4686 C   0  0  0  0  0  0  0  0  0  0  0  0
    3.4172   -0.4624   -4.3178 H   0  0  0  0  0  0  0  0  0  0  0  0
    3.6204   -1.7327   -3.1004 H   0  0  0  0  0  0  0  0  0  0  0  0
    4.9298   -0.5718   -3.4155 H   0  0  0  0  0  0  0  0  0  0  0  0
    2.1691    0.1611   -2.3101 H   0  0  0  0  0  0  0  0  0  0  0  0
    3.4934    1.2773   -2.5734 H   0  0  0  0  0  0  0  0  0  0  0  0
    3.4616   -1.0623   -0.5630 H   0  0  0  0  0  0  0  0  0  0  0  0
    3.2652    0.6428   -0.1526 H   0  0  0  0  0  0  0  0  0  0  0  0
    4.3924    2.8886   -1.0917 H   0  0  0  0  0  0  0  0  0  0  0  0
    6.0775    4.6644   -1.3774 H   0  0  0  0  0  0  0  0  0  0  0  0
    8.4510    5.2163   -0.3715 H   0  0  0  0  0  0  0  0  0  0  0  0
    9.1974    6.3443   -2.1880 H   0  0  0  0  0  0  0  0  0  0  0  0
    7.9043    5.4072   -2.9193 H   0  0  0  0  0  0  0  0  0  0  0  0
    9.9960    5.4720   -4.2891 H   0  0  0  0  0  0  0  0  0  0  0  0
    9.5892    3.8159   -3.8296 H   0  0  0  0  0  0  0  0  0  0  0  0
   11.5869    5.6406   -2.4035 H   0  0  0  0  0  0  0  0  0  0  0  0
   12.0121    4.2754   -3.4434 H   0  0  0  0  0  0  0  0  0  0  0  0
   12.0636    3.6702   -1.0232 H   0  0  0  0  0  0  0  0  0  0  0  0
   10.8871    2.7059   -1.8990 H   0  0  0  0  0  0  0  0  0  0  0  0
    9.2480    1.8394   -0.7719 H   0  0  0  0  0  0  0  0  0  0  0  0
    5.0651   -3.6820    0.9256 H   0  0  0  0  0  0  0  0  0  0  0  0
    6.3043   -2.6124    1.6269 H   0  0  0  0  0  0  0  0  0  0  0  0
    7.0333   -5.0969    1.6072 H   0  0  0  0  0  0  0  0  0  0  0  0
    8.1346   -4.0323    0.7284 H   0  0  0  0  0  0  0  0  0  0  0  0
    5.5247   -8.4490   -1.8172 H   0  0  0  0  0  0  0  0  0  0  0  0
    5.6577   -7.7908   -3.4770 H   0  0  0  0  0  0  0  0  0  0  0  0
    4.2300   -7.3917   -2.4618 H   0  0  0  0  0  0  0  0  0  0  0  0
    5.4331   -4.9744   -3.4460 H   0  0  0  0  0  0  0  0  0  0  0  0
   11.2055   -2.1254   -2.2203 H   0  0  0  0  0  0  0  0  0  0  0  0
    9.8837    0.1005   -2.2046 H   0  0  0  0  0  0  0  0  0  0  0  0
   10.2679   -0.4766   -0.5265 H   0  0  0  0  0  0  0  0  0  0  0  0
  1  2  1  0  0  0  0
  1 35  1  0  0  0  0
  1 36  1  0  0  0  0
  1 37  1  0  0  0  0
  2  3  1  0  0  0  0
  2 38  1  0  0  0  0
  2 39  1  0  0  0  0
  3  4  1  0  0  0  0
  3 40  1  0  0  0  0
  3 41  1  0  0  0  0
  4  5  1  0  0  0  0
  4 22  1  0  0  0  0
  5  6  1  0  0  0  0
  5 16  2  0  0  0  0
  6  7  2  0  0  0  0
  6 42  1  0  0  0  0
  7  8  1  0  0  0  0
  7 43  1  0  0  0  0
  8  9  1  0  0  0  0
  8 15  2  0  0  0  0
  9 10  1  0  0  0  0
  9 14  1  0  0  0  0
  9 44  1  0  0  0  0
 10 11  1  0  0  0  0
 10 45  1  0  0  0  0
 10 46  1  0  0  0  0
 11 12  1  0  0  0  0
 11 47  1  0  0  0  0
 11 48  1  0  0  0  0
 12 13  1  0  0  0  0
 12 49  1  0  0  0  0
 12 50  1  0  0  0  0
 13 14  1  0  0  0  0
 13 51  1  0  0  0  0
 13 52  1  0  0  0  0
 15 16  1  0  0  0  0
 15 53  1  0  0  0  0
 16 17  1  0  0  0  0
 17 18  1  0  0  0  0
 17 22  2  0  0  0  0
 18 19  2  0  0  0  0
 18 34  1  0  0  0  0
 19 20  1  0  0  0  0
 19 31  1  0  0  0  0
 20 21  2  0  0  0  0
 20 30  1  0  0  0  0
 21 22  1  0  0  0  0
 21 23  1  0  0  0  0
 23 24  1  0  0  0  0
 23 54  1  0  0  0  0
 23 55  1  0  0  0  0
 24 25  1  0  0  0  0
 24 56  1  0  0  0  0
 24 57  1  0  0  0  0
 25 26  2  0  0  0  0
 25 30  1  0  0  0  0
 26 27  1  0  0  0  0
 27 28  1  0  0  0  0
 27 29  1  0  0  0  0
 28 58  1  0  0  0  0
 28 59  1  0  0  0  0
 28 60  1  0  0  0  0
 29 30  2  0  0  0  0
 29 61  1  0  0  0  0
 31 32  2  0  0  0  0
 31 33  1  0  0  0  0
 33 34  1  0  0  0  0
 33 62  1  0  0  0  0
 34 63  1  0  0  0  0
 34 64  1  0  0  0  0
M  END
$$$$
