CHEMBL1076197
 OpenBabel04072215353D

 83 88  0  0  0  0  0  0  0  0999 V2000
  -16.5672   -0.0668    0.0138 C   0  0  0  0  0  0  0  0  0  0  0  0
  -15.6128   -1.0056    0.6941 C   0  0  0  0  0  0  0  0  0  0  0  0
  -16.1009   -1.9978    1.5485 C   0  0  0  0  0  0  0  0  0  0  0  0
  -15.2197   -2.8462    2.2075 C   0  0  0  0  0  0  0  0  0  0  0  0
  -13.8409   -2.7287    2.0052 C   0  0  0  0  0  0  0  0  0  0  0  0
  -13.3243   -1.7707    1.1289 C   0  0  0  0  0  0  0  0  0  0  0  0
  -11.9393   -1.6300    0.8551 N   0  0  0  0  0  0  0  0  0  0  0  0
  -10.9102   -2.4175    1.3494 C   0  0  0  0  0  0  0  0  0  0  0  0
  -11.0253   -3.3817    2.1046 O   0  0  0  0  0  0  0  0  0  0  0  0
   -9.5257   -2.0233    0.9649 C   0  0  0  0  0  0  0  0  0  0  0  0
   -8.5009   -2.2406    1.8892 C   0  0  0  0  0  0  0  0  0  0  0  0
   -7.2178   -1.7650    1.6361 C   0  0  0  0  0  0  0  0  0  0  0  0
   -6.9238   -1.1114    0.4285 C   0  0  0  0  0  0  0  0  0  0  0  0
   -5.6046   -0.3900    0.3317 C   0  0  0  0  0  0  0  0  0  0  0  0
   -7.9002   -1.0788   -0.5959 C   0  0  0  0  0  0  0  0  0  0  0  0
   -7.5583   -0.6840   -1.9161 N   0  0  0  0  0  0  0  0  0  0  0  0
   -8.4180   -0.1220   -2.8142 C   0  0  0  0  0  0  0  0  0  0  0  0
   -9.3964    0.7075   -2.5092 N   0  0  0  0  0  0  0  0  0  0  0  0
   -9.8075    1.2648   -3.6873 C   0  0  0  0  0  0  0  0  0  0  0  0
  -10.7546    2.2744   -3.9015 C   0  0  0  0  0  0  0  0  0  0  0  0
  -11.0309    2.6862   -5.2081 C   0  0  0  0  0  0  0  0  0  0  0  0
  -10.3886    2.0863   -6.2919 C   0  0  0  0  0  0  0  0  0  0  0  0
   -9.4379    1.0710   -6.0931 C   0  0  0  0  0  0  0  0  0  0  0  0
   -9.1427    0.7037   -4.7720 C   0  0  0  0  0  0  0  0  0  0  0  0
   -8.2898   -0.2424   -4.2086 N   0  0  0  0  0  0  0  0  0  0  0  0
   -7.4568   -1.1353   -4.9506 C   0  0  0  0  0  0  0  0  0  0  0  0
   -7.1842   -2.3968   -4.4557 C   0  0  0  0  0  0  0  0  0  0  0  0
   -6.2878   -3.1681   -5.1705 C   0  0  0  0  0  0  0  0  0  0  0  0
   -5.9735   -4.4509   -4.6880 N   0  0  0  0  0  0  0  0  0  0  0  0
   -4.6822   -4.9985   -5.1235 C   0  0  0  0  0  0  0  0  0  0  0  0
   -3.5039   -4.1601   -4.6026 C   0  0  0  0  0  0  0  0  0  0  0  0
   -2.1385   -4.7210   -5.0239 C   0  0  0  0  0  0  0  0  0  0  0  0
   -1.9797   -4.8703   -6.4731 N   0  0  0  0  0  0  0  0  0  0  0  0
   -2.0960   -3.5985   -7.2116 C   0  0  0  0  0  0  0  0  0  0  0  0
   -1.9912   -3.8287   -8.7355 C   0  0  0  0  0  0  0  0  0  0  0  0
   -0.7496   -4.4967   -9.1706 N   0  0  0  0  0  0  0  0  0  0  0  0
    0.3950   -3.5934   -9.0947 C   0  0  0  0  0  0  0  0  0  0  0  0
   -0.5459   -5.7118   -8.3535 C   0  0  0  0  0  0  0  0  0  0  0  0
   -0.7006   -5.5189   -6.8222 C   0  0  0  0  0  0  0  0  0  0  0  0
   -5.7614   -2.7447   -6.3276 N   0  0  0  0  0  0  0  0  0  0  0  0
   -6.1274   -1.5334   -6.7587 C   0  0  0  0  0  0  0  0  0  0  0  0
   -6.9563   -0.6985   -6.1270 N   0  0  0  0  0  0  0  0  0  0  0  0
   -9.2157   -1.4791   -0.2869 C   0  0  0  0  0  0  0  0  0  0  0  0
  -14.2224   -0.9026    0.4864 C   0  0  0  0  0  0  0  0  0  0  0  0
  -17.6041   -0.2782    0.2979 H   0  0  0  0  0  0  0  0  0  0  0  0
  -16.4941   -0.1669   -1.0733 H   0  0  0  0  0  0  0  0  0  0  0  0
  -16.3526    0.9675    0.3015 H   0  0  0  0  0  0  0  0  0  0  0  0
  -17.1712   -2.1127    1.7121 H   0  0  0  0  0  0  0  0  0  0  0  0
  -15.5998   -3.6058    2.8874 H   0  0  0  0  0  0  0  0  0  0  0  0
  -13.1986   -3.4017    2.5621 H   0  0  0  0  0  0  0  0  0  0  0  0
  -11.6875   -0.8521    0.2527 H   0  0  0  0  0  0  0  0  0  0  0  0
   -8.7075   -2.7438    2.8331 H   0  0  0  0  0  0  0  0  0  0  0  0
   -6.4564   -1.8744    2.4067 H   0  0  0  0  0  0  0  0  0  0  0  0
   -5.0869   -0.3930    1.3017 H   0  0  0  0  0  0  0  0  0  0  0  0
   -5.7721    0.6656    0.0879 H   0  0  0  0  0  0  0  0  0  0  0  0
   -4.9382   -0.8442   -0.4032 H   0  0  0  0  0  0  0  0  0  0  0  0
   -6.7175   -1.1571   -2.2296 H   0  0  0  0  0  0  0  0  0  0  0  0
  -11.2530    2.7394   -3.0554 H   0  0  0  0  0  0  0  0  0  0  0  0
  -11.7537    3.4792   -5.3842 H   0  0  0  0  0  0  0  0  0  0  0  0
  -10.6281    2.3997   -7.2974 H   0  0  0  0  0  0  0  0  0  0  0  0
   -8.9611    0.6028   -6.9488 H   0  0  0  0  0  0  0  0  0  0  0  0
   -7.6536   -2.7870   -3.5632 H   0  0  0  0  0  0  0  0  0  0  0  0
   -6.1137   -4.5487   -3.6884 H   0  0  0  0  0  0  0  0  0  0  0  0
   -4.6635   -5.1163   -6.2119 H   0  0  0  0  0  0  0  0  0  0  0  0
   -4.6006   -6.0090   -4.7027 H   0  0  0  0  0  0  0  0  0  0  0  0
   -3.5473   -4.1140   -3.5073 H   0  0  0  0  0  0  0  0  0  0  0  0
   -3.5832   -3.1185   -4.9329 H   0  0  0  0  0  0  0  0  0  0  0  0
   -2.0285   -5.7051   -4.5504 H   0  0  0  0  0  0  0  0  0  0  0  0
   -1.3487   -4.0807   -4.6111 H   0  0  0  0  0  0  0  0  0  0  0  0
   -1.3293   -2.8861   -6.8795 H   0  0  0  0  0  0  0  0  0  0  0  0
   -3.0667   -3.1295   -7.0318 H   0  0  0  0  0  0  0  0  0  0  0  0
   -2.1150   -2.8745   -9.2622 H   0  0  0  0  0  0  0  0  0  0  0  0
   -2.8414   -4.4489   -9.0515 H   0  0  0  0  0  0  0  0  0  0  0  0
    0.2131   -2.6965   -9.6979 H   0  0  0  0  0  0  0  0  0  0  0  0
    1.2848   -4.0745   -9.5146 H   0  0  0  0  0  0  0  0  0  0  0  0
    0.6300   -3.2731   -8.0749 H   0  0  0  0  0  0  0  0  0  0  0  0
    0.4339   -6.1539   -8.5724 H   0  0  0  0  0  0  0  0  0  0  0  0
   -1.2837   -6.4577   -8.6792 H   0  0  0  0  0  0  0  0  0  0  0  0
    0.1453   -4.9334   -6.4387 H   0  0  0  0  0  0  0  0  0  0  0  0
   -0.6495   -6.5074   -6.3500 H   0  0  0  0  0  0  0  0  0  0  0  0
   -5.7009   -1.1990   -7.6969 H   0  0  0  0  0  0  0  0  0  0  0  0
   -9.9867   -1.4136   -1.0460 H   0  0  0  0  0  0  0  0  0  0  0  0
  -13.8508   -0.1341   -0.1880 H   0  0  0  0  0  0  0  0  0  0  0  0
  1  2  1  0  0  0  0
  1 45  1  0  0  0  0
  1 46  1  0  0  0  0
  1 47  1  0  0  0  0
  2  3  1  0  0  0  0
  2 44  2  0  0  0  0
  3  4  2  0  0  0  0
  3 48  1  0  0  0  0
  4  5  1  0  0  0  0
  4 49  1  0  0  0  0
  5  6  2  0  0  0  0
  5 50  1  0  0  0  0
  6  7  1  0  0  0  0
  6 44  1  0  0  0  0
  7  8  1  0  0  0  0
  7 51  1  0  0  0  0
  8  9  2  0  0  0  0
  8 10  1  0  0  0  0
 10 11  1  0  0  0  0
 10 43  2  0  0  0  0
 11 12  2  0  0  0  0
 11 52  1  0  0  0  0
 12 13  1  0  0  0  0
 12 53  1  0  0  0  0
 13 14  1  0  0  0  0
 13 15  2  0  0  0  0
 14 54  1  0  0  0  0
 14 55  1  0  0  0  0
 14 56  1  0  0  0  0
 15 16  1  0  0  0  0
 15 43  1  0  0  0  0
 16 17  1  0  0  0  0
 16 57  1  0  0  0  0
 17 18  2  0  0  0  0
 17 25  1  0  0  0  0
 18 19  1  0  0  0  0
 19 20  1  0  0  0  0
 19 24  2  0  0  0  0
 20 21  2  0  0  0  0
 20 58  1  0  0  0  0
 21 22  1  0  0  0  0
 21 59  1  0  0  0  0
 22 23  2  0  0  0  0
 22 60  1  0  0  0  0
 23 24  1  0  0  0  0
 23 61  1  0  0  0  0
 24 25  1  0  0  0  0
 25 26  1  0  0  0  0
 26 27  1  0  0  0  0
 26 42  2  0  0  0  0
 27 28  2  0  0  0  0
 27 62  1  0  0  0  0
 28 29  1  0  0  0  0
 28 40  1  0  0  0  0
 29 30  1  0  0  0  0
 29 63  1  0  0  0  0
 30 31  1  0  0  0  0
 30 64  1  0  0  0  0
 30 65  1  0  0  0  0
 31 32  1  0  0  0  0
 31 66  1  0  0  0  0
 31 67  1  0  0  0  0
 32 33  1  0  0  0  0
 32 68  1  0  0  0  0
 32 69  1  0  0  0  0
 33 34  1  0  0  0  0
 33 39  1  0  0  0  0
 34 35  1  0  0  0  0
 34 70  1  0  0  0  0
 34 71  1  0  0  0  0
 35 36  1  0  0  0  0
 35 72  1  0  0  0  0
 35 73  1  0  0  0  0
 36 37  1  0  0  0  0
 36 38  1  0  0  0  0
 37 74  1  0  0  0  0
 37 75  1  0  0  0  0
 37 76  1  0  0  0  0
 38 39  1  0  0  0  0
 38 77  1  0  0  0  0
 38 78  1  0  0  0  0
 39 79  1  0  0  0  0
 39 80  1  0  0  0  0
 40 41  2  0  0  0  0
 41 42  1  0  0  0  0
 41 81  1  0  0  0  0
 43 82  1  0  0  0  0
 44 83  1  0  0  0  0
M  END
$$$$
