CHEMBL517399
 OpenBabel04072215383D

 42 45  0  0  0  0  0  0  0  0999 V2000
    1.0691    0.5766    0.4450 O   0  0  0  0  0  0  0  0  0  0  0  0
    2.1640    0.1703    0.0591 C   0  0  0  0  0  0  0  0  0  0  0  0
    2.6967   -1.0763    0.3543 N   0  0  0  0  0  0  0  0  0  0  0  0
    2.0716   -2.0810    1.1219 C   0  0  0  0  0  0  0  0  0  0  0  0
    0.7005   -2.0748    1.4052 C   0  0  0  0  0  0  0  0  0  0  0  0
    0.1278   -3.0558    2.2162 C   0  0  0  0  0  0  0  0  0  0  0  0
    0.9225   -4.0623    2.7520 C   0  0  0  0  0  0  0  0  0  0  0  0
    2.2832   -4.0927    2.4501 C   0  0  0  0  0  0  0  0  0  0  0  0
    3.3630   -5.4584    3.1904 Br  0  0  0  0  0  0  0  0  0  0  0  0
    2.8596   -3.1192    1.6278 C   0  0  0  0  0  0  0  0  0  0  0  0
    3.0492    1.0453   -0.7305 C   0  0  0  0  0  0  0  0  0  0  0  0
    4.2161    0.5889   -1.2110 N   0  0  0  0  0  0  0  0  0  0  0  0
    4.9555    1.8068   -2.0624 S   0  0  0  0  0  0  0  0  0  0  0  0
    3.7644    2.9961   -1.7707 C   0  0  0  0  0  0  0  0  0  0  0  0
    2.7607    2.4370   -1.0133 C   0  0  0  0  0  0  0  0  0  0  0  0
    1.6240    3.0722   -0.6028 N   0  0  0  0  0  0  0  0  0  0  0  0
    1.5766    4.4849   -0.2520 C   0  0  0  0  0  0  0  0  0  0  0  0
    1.1116    5.3772   -1.3843 C   0  0  0  0  0  0  0  0  0  0  0  0
    0.7160    4.8340   -2.6133 C   0  0  0  0  0  0  0  0  0  0  0  0
    0.3081    5.6819   -3.6215 C   0  0  0  0  0  0  0  0  0  0  0  0
    0.2530    7.0201   -3.4955 N   0  0  0  0  0  0  0  0  0  0  0  0
    0.6118    7.5593   -2.3198 C   0  0  0  0  0  0  0  0  0  0  0  0
    0.5425    8.9393   -2.1964 C   0  0  0  0  0  0  0  0  0  0  0  0
    0.8929    9.5948   -1.0154 C   0  0  0  0  0  0  0  0  0  0  0  0
    1.3219    8.8555    0.0754 C   0  0  0  0  0  0  0  0  0  0  0  0
    1.4008    7.4659   -0.0219 C   0  0  0  0  0  0  0  0  0  0  0  0
    1.0514    6.7889   -1.2174 C   0  0  0  0  0  0  0  0  0  0  0  0
    3.6665   -1.2015    0.0775 H   0  0  0  0  0  0  0  0  0  0  0  0
    0.0361   -1.3204    0.9945 H   0  0  0  0  0  0  0  0  0  0  0  0
   -0.9376   -3.0214    2.4289 H   0  0  0  0  0  0  0  0  0  0  0  0
    0.4734   -4.8119    3.3979 H   0  0  0  0  0  0  0  0  0  0  0  0
    3.9247   -3.1579    1.4173 H   0  0  0  0  0  0  0  0  0  0  0  0
    3.8464    3.9951   -2.1739 H   0  0  0  0  0  0  0  0  0  0  0  0
    0.9590    2.5142   -0.0522 H   0  0  0  0  0  0  0  0  0  0  0  0
    2.5567    4.8146    0.1133 H   0  0  0  0  0  0  0  0  0  0  0  0
    0.8653    4.5935    0.5769 H   0  0  0  0  0  0  0  0  0  0  0  0
    0.7268    3.7642   -2.7959 H   0  0  0  0  0  0  0  0  0  0  0  0
    0.0070    5.2922   -4.5890 H   0  0  0  0  0  0  0  0  0  0  0  0
    0.2003    9.5223   -3.0486 H   0  0  0  0  0  0  0  0  0  0  0  0
    0.8267   10.6777   -0.9570 H   0  0  0  0  0  0  0  0  0  0  0  0
    1.5970    9.3566    0.9993 H   0  0  0  0  0  0  0  0  0  0  0  0
    1.7399    6.9203    0.8540 H   0  0  0  0  0  0  0  0  0  0  0  0
  1  2  2  0  0  0  0
  2  3  1  0  0  0  0
  2 11  1  0  0  0  0
  3  4  1  0  0  0  0
  3 28  1  0  0  0  0
  4  5  1  0  0  0  0
  4 10  2  0  0  0  0
  5  6  2  0  0  0  0
  5 29  1  0  0  0  0
  6  7  1  0  0  0  0
  6 30  1  0  0  0  0
  7  8  2  0  0  0  0
  7 31  1  0  0  0  0
  8  9  1  0  0  0  0
  8 10  1  0  0  0  0
 10 32  1  0  0  0  0
 11 12  2  0  0  0  0
 11 15  1  0  0  0  0
 12 13  1  0  0  0  0
 13 14  1  0  0  0  0
 14 15  2  0  0  0  0
 14 33  1  0  0  0  0
 15 16  1  0  0  0  0
 16 17  1  0  0  0  0
 16 34  1  0  0  0  0
 17 18  1  0  0  0  0
 17 35  1  0  0  0  0
 17 36  1  0  0  0  0
 18 19  1  0  0  0  0
 18 27  2  0  0  0  0
 19 20  2  0  0  0  0
 19 37  1  0  0  0  0
 20 21  1  0  0  0  0
 20 38  1  0  0  0  0
 21 22  2  0  0  0  0
 22 23  1  0  0  0  0
 22 27  1  0  0  0  0
 23 24  2  0  0  0  0
 23 39  1  0  0  0  0
 24 25  1  0  0  0  0
 24 40  1  0  0  0  0
 25 26  2  0  0  0  0
 25 41  1  0  0  0  0
 26 27  1  0  0  0  0
 26 42  1  0  0  0  0
M  END
$$$$
