CHEMBL1807478
 OpenBabel04072215363D

 67 71  0  0  0  0  0  0  0  0999 V2000
    0.9542   -0.1411   -0.0721 O   0  0  0  0  0  0  0  0  0  0  0  0
    2.1673   -0.0362    0.0308 C   0  0  0  0  0  0  0  0  0  0  0  0
    2.8449   -0.2825    1.2753 N   0  0  0  0  0  0  0  0  0  0  0  0
    2.1478   -0.6546    2.4165 C   0  0  0  0  0  0  0  0  0  0  0  0
    0.8831   -1.1833    2.5042 C   0  0  0  0  0  0  0  0  0  0  0  0
    0.6333   -1.3761    3.8855 C   0  0  0  0  0  0  0  0  0  0  0  0
   -0.5616   -1.9706    4.4757 C   0  0  0  0  0  0  0  0  0  0  0  0
   -1.7833   -1.9146    3.7967 C   0  0  0  0  0  0  0  0  0  0  0  0
   -2.9197   -2.5132    4.3357 C   0  0  0  0  0  0  0  0  0  0  0  0
   -2.8347   -3.1995    5.5537 C   0  0  0  0  0  0  0  0  0  0  0  0
   -1.6119   -3.2812    6.2287 C   0  0  0  0  0  0  0  0  0  0  0  0
   -1.4996   -4.0039    7.4472 N   0  0  0  0  0  0  0  0  0  0  0  0
   -1.1875   -5.6694    7.4223 S   0  0  0  0  0  0  0  0  0  0  0  0
   -1.1301   -6.1116    8.7986 O   0  0  0  0  0  0  0  0  0  0  0  0
   -2.1076   -6.3000    6.4841 O   0  0  0  0  0  0  0  0  0  0  0  0
    0.4503   -5.8407    6.7497 C   0  0  0  0  0  0  0  0  0  0  0  0
    1.5296   -5.8708    7.6416 C   0  0  0  0  0  0  0  0  0  0  0  0
    2.8160   -6.1463    7.1808 C   0  0  0  0  0  0  0  0  0  0  0  0
    3.0273   -6.4227    5.8297 C   0  0  0  0  0  0  0  0  0  0  0  0
    1.9533   -6.4032    4.9356 C   0  0  0  0  0  0  0  0  0  0  0  0
    0.6597   -6.1136    5.3898 C   0  0  0  0  0  0  0  0  0  0  0  0
   -0.4844   -2.6531    5.7005 C   0  0  0  0  0  0  0  0  0  0  0  0
    1.6801   -0.9673    4.6182 N   0  0  0  0  0  0  0  0  0  0  0  0
    2.5867   -0.5766    3.7092 N   0  0  0  0  0  0  0  0  0  0  0  0
    2.9833    0.4623   -1.0880 C   0  0  0  0  0  0  0  0  0  0  0  0
    2.3976    1.4113   -1.9338 C   0  0  0  0  0  0  0  0  0  0  0  0
    3.1132    1.9110   -3.0203 C   0  0  0  0  0  0  0  0  0  0  0  0
    4.4165    1.4693   -3.2748 C   0  0  0  0  0  0  0  0  0  0  0  0
    5.2098    1.9168   -4.3075 O   0  0  0  0  0  0  0  0  0  0  0  0
    4.8828    3.2440   -4.7597 C   0  0  0  0  0  0  0  0  0  0  0  0
    6.0976    3.9704   -5.3682 C   0  0  0  0  0  0  0  0  0  0  0  0
    5.8039    5.3539   -5.8153 N   0  0  0  0  0  0  0  0  0  0  0  0
    7.0061    5.9944   -6.3836 C   0  0  0  0  0  0  0  0  0  0  0  0
    7.7487    6.5397   -5.1753 C   0  0  0  0  0  0  0  0  0  0  0  0
    6.6301    7.0327   -4.2761 C   0  0  0  0  0  0  0  0  0  0  0  0
    5.3836    6.2941   -4.7600 C   0  0  0  0  0  0  0  0  0  0  0  0
    4.9862    0.5048   -2.4374 C   0  0  0  0  0  0  0  0  0  0  0  0
    4.2795    0.0063   -1.3359 C   0  0  0  0  0  0  0  0  0  0  0  0
    3.8287   -0.0601    1.3557 H   0  0  0  0  0  0  0  0  0  0  0  0
    0.2192   -1.4395    1.6920 H   0  0  0  0  0  0  0  0  0  0  0  0
   -1.8732   -1.3966    2.8427 H   0  0  0  0  0  0  0  0  0  0  0  0
   -3.8684   -2.4431    3.8112 H   0  0  0  0  0  0  0  0  0  0  0  0
   -3.7369   -3.6403    5.9705 H   0  0  0  0  0  0  0  0  0  0  0  0
   -1.0005   -3.5439    8.2090 H   0  0  0  0  0  0  0  0  0  0  0  0
    1.3713   -5.7030    8.7062 H   0  0  0  0  0  0  0  0  0  0  0  0
    3.6515   -6.1657    7.8779 H   0  0  0  0  0  0  0  0  0  0  0  0
    4.0270   -6.6652    5.4776 H   0  0  0  0  0  0  0  0  0  0  0  0
    2.1255   -6.6303    3.8856 H   0  0  0  0  0  0  0  0  0  0  0  0
   -0.1676   -6.1170    4.6838 H   0  0  0  0  0  0  0  0  0  0  0  0
    0.4622   -2.7129    6.2268 H   0  0  0  0  0  0  0  0  0  0  0  0
    3.4810   -0.2416    4.0525 H   0  0  0  0  0  0  0  0  0  0  0  0
    1.3842    1.7672   -1.7516 H   0  0  0  0  0  0  0  0  0  0  0  0
    2.6221    2.6454   -3.6554 H   0  0  0  0  0  0  0  0  0  0  0  0
    4.5516    3.8241   -3.8974 H   0  0  0  0  0  0  0  0  0  0  0  0
    4.0820    3.1746   -5.5049 H   0  0  0  0  0  0  0  0  0  0  0  0
    6.4195    3.3910   -6.2453 H   0  0  0  0  0  0  0  0  0  0  0  0
    6.9341    3.9253   -4.6614 H   0  0  0  0  0  0  0  0  0  0  0  0
    6.6900    6.8280   -7.0276 H   0  0  0  0  0  0  0  0  0  0  0  0
    7.6163    5.3253   -6.9968 H   0  0  0  0  0  0  0  0  0  0  0  0
    8.4563    7.3326   -5.4325 H   0  0  0  0  0  0  0  0  0  0  0  0
    8.3080    5.7434   -4.6716 H   0  0  0  0  0  0  0  0  0  0  0  0
    6.4975    8.1153   -4.3910 H   0  0  0  0  0  0  0  0  0  0  0  0
    6.8494    6.8282   -3.2236 H   0  0  0  0  0  0  0  0  0  0  0  0
    4.7035    7.0256   -5.2172 H   0  0  0  0  0  0  0  0  0  0  0  0
    4.8233    5.8560   -3.9311 H   0  0  0  0  0  0  0  0  0  0  0  0
    5.9924    0.1458   -2.6475 H   0  0  0  0  0  0  0  0  0  0  0  0
    4.7430   -0.7586   -0.7171 H   0  0  0  0  0  0  0  0  0  0  0  0
  1  2  2  0  0  0  0
  2  3  1  0  0  0  0
  2 25  1  0  0  0  0
  3  4  1  0  0  0  0
  3 39  1  0  0  0  0
  4  5  2  0  0  0  0
  4 24  1  0  0  0  0
  5  6  1  0  0  0  0
  5 40  1  0  0  0  0
  6  7  1  0  0  0  0
  6 23  2  0  0  0  0
  7  8  1  0  0  0  0
  7 22  2  0  0  0  0
  8  9  2  0  0  0  0
  8 41  1  0  0  0  0
  9 10  1  0  0  0  0
  9 42  1  0  0  0  0
 10 11  2  0  0  0  0
 10 43  1  0  0  0  0
 11 12  1  0  0  0  0
 11 22  1  0  0  0  0
 12 13  1  0  0  0  0
 12 44  1  0  0  0  0
 13 14  2  0  0  0  0
 13 15  2  0  0  0  0
 13 16  1  0  0  0  0
 16 17  1  0  0  0  0
 16 21  2  0  0  0  0
 17 18  2  0  0  0  0
 17 45  1  0  0  0  0
 18 19  1  0  0  0  0
 18 46  1  0  0  0  0
 19 20  2  0  0  0  0
 19 47  1  0  0  0  0
 20 21  1  0  0  0  0
 20 48  1  0  0  0  0
 21 49  1  0  0  0  0
 22 50  1  0  0  0  0
 23 24  1  0  0  0  0
 24 51  1  0  0  0  0
 25 26  1  0  0  0  0
 25 38  2  0  0  0  0
 26 27  2  0  0  0  0
 26 52  1  0  0  0  0
 27 28  1  0  0  0  0
 27 53  1  0  0  0  0
 28 29  1  0  0  0  0
 28 37  2  0  0  0  0
 29 30  1  0  0  0  0
 30 31  1  0  0  0  0
 30 54  1  0  0  0  0
 30 55  1  0  0  0  0
 31 32  1  0  0  0  0
 31 56  1  0  0  0  0
 31 57  1  0  0  0  0
 32 33  1  0  0  0  0
 32 36  1  0  0  0  0
 33 34  1  0  0  0  0
 33 58  1  0  0  0  0
 33 59  1  0  0  0  0
 34 35  1  0  0  0  0
 34 60  1  0  0  0  0
 34 61  1  0  0  0  0
 35 36  1  0  0  0  0
 35 62  1  0  0  0  0
 35 63  1  0  0  0  0
 36 64  1  0  0  0  0
 36 65  1  0  0  0  0
 37 38  1  0  0  0  0
 37 66  1  0  0  0  0
 38 67  1  0  0  0  0
M  END
$$$$
