CHEMBL3930088
 OpenBabel04072215373D

 66 69  0  0  0  0  0  0  0  0999 V2000
    1.6050   -7.0386    0.0915 C   0  0  0  0  0  0  0  0  0  0  0  0
    2.7152   -6.7923   -0.9165 C   0  0  0  0  0  0  0  0  0  0  0  0
    3.4531   -5.5116   -0.6759 C   0  0  0  0  0  0  0  0  0  0  0  0
    3.2515   -4.2293   -1.1728 C   0  0  0  0  0  0  0  0  0  0  0  0
    2.1255   -3.8023   -1.9889 C   0  0  0  0  0  0  0  0  0  0  0  0
    2.2011   -2.7375   -2.8690 C   0  0  0  0  0  0  0  0  0  0  0  0
    1.1245   -2.2782   -3.5570 N   0  0  0  0  0  0  0  0  0  0  0  0
   -0.0479   -2.9041   -3.3231 C   0  0  0  0  0  0  0  0  0  0  0  0
   -1.2094   -2.4786   -3.9420 C   0  0  0  0  0  0  0  0  0  0  0  0
   -2.4440   -3.0796   -3.6707 C   0  0  0  0  0  0  0  0  0  0  0  0
   -2.5578   -4.1649   -2.7827 C   0  0  0  0  0  0  0  0  0  0  0  0
   -3.8385   -4.7125   -2.5244 N   0  0  0  0  0  0  0  0  0  0  0  0
   -4.0848   -5.5297   -1.2945 C   0  0  0  0  0  0  0  0  0  0  0  0
   -3.5694   -4.9650    0.0556 C   0  0  0  0  0  0  0  0  0  0  0  0
   -3.8511   -3.5634    0.3784 N   0  0  0  0  0  0  0  0  0  0  0  0
   -5.2895   -3.2958    0.5948 C   0  0  0  0  0  0  0  0  0  0  0  0
   -5.6700   -1.8756    1.0779 C   0  0  0  0  0  0  0  0  0  0  0  0
   -4.5945   -1.0770    1.2531 F   0  0  0  0  0  0  0  0  0  0  0  0
   -6.4809   -1.2687    0.1788 F   0  0  0  0  0  0  0  0  0  0  0  0
   -6.3391   -1.9277    2.2533 F   0  0  0  0  0  0  0  0  0  0  0  0
   -4.7499   -5.0794   -3.5811 C   0  0  0  0  0  0  0  0  0  0  0  0
   -4.2843   -5.4297   -4.8655 C   0  0  0  0  0  0  0  0  0  0  0  0
   -5.1710   -5.7619   -5.8961 C   0  0  0  0  0  0  0  0  0  0  0  0
   -4.8295   -6.1030   -7.1779 O   0  0  0  0  0  0  0  0  0  0  0  0
   -3.4457   -6.0995   -7.5039 C   0  0  0  0  0  0  0  0  0  0  0  0
   -6.5460   -5.7744   -5.6512 C   0  0  0  0  0  0  0  0  0  0  0  0
   -7.0363   -5.4614   -4.3880 C   0  0  0  0  0  0  0  0  0  0  0  0
   -8.3508   -5.4829   -4.0070 O   0  0  0  0  0  0  0  0  0  0  0  0
   -9.3059   -5.8461   -4.9975 C   0  0  0  0  0  0  0  0  0  0  0  0
   -6.1410   -5.0940   -3.3763 C   0  0  0  0  0  0  0  0  0  0  0  0
   -1.3651   -4.6197   -2.2125 C   0  0  0  0  0  0  0  0  0  0  0  0
   -0.1336   -4.0007   -2.4383 C   0  0  0  0  0  0  0  0  0  0  0  0
    0.9543   -4.4528   -1.7897 N   0  0  0  0  0  0  0  0  0  0  0  0
    4.3411   -3.4859   -0.6701 C   0  0  0  0  0  0  0  0  0  0  0  0
    5.1417   -4.2079    0.1134 N   0  0  0  0  0  0  0  0  0  0  0  0
    4.5556   -5.4191    0.1445 N   0  0  0  0  0  0  0  0  0  0  0  0
    5.0837   -6.4309    1.0277 C   0  0  0  0  0  0  0  0  0  0  0  0
    1.0842   -7.9709   -0.1498 H   0  0  0  0  0  0  0  0  0  0  0  0
    0.8634   -6.2339    0.0920 H   0  0  0  0  0  0  0  0  0  0  0  0
    1.9986   -7.1239    1.1086 H   0  0  0  0  0  0  0  0  0  0  0  0
    2.2941   -6.7856   -1.9281 H   0  0  0  0  0  0  0  0  0  0  0  0
    3.4122   -7.6374   -0.8976 H   0  0  0  0  0  0  0  0  0  0  0  0
    3.1281   -2.1972   -3.0497 H   0  0  0  0  0  0  0  0  0  0  0  0
   -1.1625   -1.6378   -4.6388 H   0  0  0  0  0  0  0  0  0  0  0  0
   -3.3313   -2.6879   -4.1637 H   0  0  0  0  0  0  0  0  0  0  0  0
   -3.6881   -6.5425   -1.4422 H   0  0  0  0  0  0  0  0  0  0  0  0
   -5.1608   -5.6586   -1.1343 H   0  0  0  0  0  0  0  0  0  0  0  0
   -2.4882   -5.0995    0.1334 H   0  0  0  0  0  0  0  0  0  0  0  0
   -3.9670   -5.6007    0.8586 H   0  0  0  0  0  0  0  0  0  0  0  0
   -3.5000   -2.9623   -0.3710 H   0  0  0  0  0  0  0  0  0  0  0  0
   -5.6725   -4.0083    1.3356 H   0  0  0  0  0  0  0  0  0  0  0  0
   -5.8309   -3.4858   -0.3380 H   0  0  0  0  0  0  0  0  0  0  0  0
   -3.2147   -5.4556   -5.0431 H   0  0  0  0  0  0  0  0  0  0  0  0
   -3.3515   -6.3826   -8.5573 H   0  0  0  0  0  0  0  0  0  0  0  0
   -2.9006   -6.8404   -6.9108 H   0  0  0  0  0  0  0  0  0  0  0  0
   -3.0149   -5.1000   -7.3874 H   0  0  0  0  0  0  0  0  0  0  0  0
   -7.2052   -6.0369   -6.4718 H   0  0  0  0  0  0  0  0  0  0  0  0
  -10.2743   -5.9614   -4.5009 H   0  0  0  0  0  0  0  0  0  0  0  0
   -9.0668   -6.8060   -5.4676 H   0  0  0  0  0  0  0  0  0  0  0  0
   -9.4008   -5.0520   -5.7448 H   0  0  0  0  0  0  0  0  0  0  0  0
   -6.5637   -4.7978   -2.4208 H   0  0  0  0  0  0  0  0  0  0  0  0
   -1.3527   -5.4925   -1.5678 H   0  0  0  0  0  0  0  0  0  0  0  0
    4.5796   -2.4411   -0.8213 H   0  0  0  0  0  0  0  0  0  0  0  0
    5.9849   -6.0543    1.5185 H   0  0  0  0  0  0  0  0  0  0  0  0
    5.3269   -7.3203    0.4439 H   0  0  0  0  0  0  0  0  0  0  0  0
    4.3253   -6.6555    1.7826 H   0  0  0  0  0  0  0  0  0  0  0  0
  1  2  1  0  0  0  0
  1 38  1  0  0  0  0
  1 39  1  0  0  0  0
  1 40  1  0  0  0  0
  2  3  1  0  0  0  0
  2 41  1  0  0  0  0
  2 42  1  0  0  0  0
  3  4  2  0  0  0  0
  3 36  1  0  0  0  0
  4  5  1  0  0  0  0
  4 34  1  0  0  0  0
  5  6  1  0  0  0  0
  5 33  2  0  0  0  0
  6  7  2  0  0  0  0
  6 43  1  0  0  0  0
  7  8  1  0  0  0  0
  8  9  1  0  0  0  0
  8 32  2  0  0  0  0
  9 10  2  0  0  0  0
  9 44  1  0  0  0  0
 10 11  1  0  0  0  0
 10 45  1  0  0  0  0
 11 12  1  0  0  0  0
 11 31  2  0  0  0  0
 12 13  1  0  0  0  0
 12 21  1  0  0  0  0
 13 14  1  0  0  0  0
 13 46  1  0  0  0  0
 13 47  1  0  0  0  0
 14 15  1  0  0  0  0
 14 48  1  0  0  0  0
 14 49  1  0  0  0  0
 15 16  1  0  0  0  0
 15 50  1  0  0  0  0
 16 17  1  0  0  0  0
 16 51  1  0  0  0  0
 16 52  1  0  0  0  0
 17 18  1  0  0  0  0
 17 19  1  0  0  0  0
 17 20  1  0  0  0  0
 21 22  1  0  0  0  0
 21 30  2  0  0  0  0
 22 23  2  0  0  0  0
 22 53  1  0  0  0  0
 23 24  1  0  0  0  0
 23 26  1  0  0  0  0
 24 25  1  0  0  0  0
 25 54  1  0  0  0  0
 25 55  1  0  0  0  0
 25 56  1  0  0  0  0
 26 27  2  0  0  0  0
 26 57  1  0  0  0  0
 27 28  1  0  0  0  0
 27 30  1  0  0  0  0
 28 29  1  0  0  0  0
 29 58  1  0  0  0  0
 29 59  1  0  0  0  0
 29 60  1  0  0  0  0
 30 61  1  0  0  0  0
 31 32  1  0  0  0  0
 31 62  1  0  0  0  0
 32 33  1  0  0  0  0
 34 35  2  0  0  0  0
 34 63  1  0  0  0  0
 35 36  1  0  0  0  0
 36 37  1  0  0  0  0
 37 64  1  0  0  0  0
 37 65  1  0  0  0  0
 37 66  1  0  0  0  0
M  END
$$$$
