CHEMBL379372
 OpenBabel04072215373D

 40 43  0  0  0  0  0  0  0  0999 V2000
    1.1199    0.0244   -1.6123 N   0  0  0  0  0  0  0  0  0  0  0  0
    2.4821   -0.0753   -1.3533 C   0  0  0  0  0  0  0  0  0  0  0  0
    3.2054    1.0013   -1.7209 N   0  0  0  0  0  0  0  0  0  0  0  0
    4.5220    1.0188   -1.4689 C   0  0  0  0  0  0  0  0  0  0  0  0
    5.2413    0.0692   -0.8730 N   0  0  0  0  0  0  0  0  0  0  0  0
    4.4905   -0.9932   -0.5433 C   0  0  0  0  0  0  0  0  0  0  0  0
    5.1399   -2.3532    0.2332 S   0  0  0  0  0  0  0  0  0  0  0  0
    3.7278   -3.1961    0.3076 N   0  0  0  0  0  0  0  0  0  0  0  0
    2.7329   -2.4774   -0.2342 C   0  0  0  0  0  0  0  0  0  0  0  0
    1.3825   -3.0648   -0.1913 C   0  0  0  0  0  0  0  0  0  0  0  0
    1.0001   -3.8014    0.9358 C   0  0  0  0  0  0  0  0  0  0  0  0
   -0.2839   -4.3401    1.0452 C   0  0  0  0  0  0  0  0  0  0  0  0
   -1.2337   -4.1359    0.0437 C   0  0  0  0  0  0  0  0  0  0  0  0
   -2.5535   -4.6344    0.1178 N   0  0  0  0  0  0  0  0  0  0  0  0
   -3.1295   -5.2606    1.2092 C   0  0  0  0  0  0  0  0  0  0  0  0
   -2.6235   -5.3559    2.3230 O   0  0  0  0  0  0  0  0  0  0  0  0
   -4.3472   -5.8349    0.8752 N   0  0  0  0  0  0  0  0  0  0  0  0
   -5.1088   -6.5402    1.8313 C   0  0  0  0  0  0  0  0  0  0  0  0
   -5.6868   -7.7568    1.4584 C   0  0  0  0  0  0  0  0  0  0  0  0
   -6.3979   -8.5063    2.3940 C   0  0  0  0  0  0  0  0  0  0  0  0
   -6.5758   -8.0268    3.6884 C   0  0  0  0  0  0  0  0  0  0  0  0
   -6.0329   -6.7942    4.0476 C   0  0  0  0  0  0  0  0  0  0  0  0
   -6.2784   -6.1825    5.6386 Cl  0  0  0  0  0  0  0  0  0  0  0  0
   -5.2921   -6.0510    3.1299 C   0  0  0  0  0  0  0  0  0  0  0  0
   -0.8485   -3.4333   -1.1024 C   0  0  0  0  0  0  0  0  0  0  0  0
    0.4574   -2.9321   -1.2320 C   0  0  0  0  0  0  0  0  0  0  0  0
    3.1267   -1.1678   -0.7462 C   0  0  0  0  0  0  0  0  0  0  0  0
    0.8950    0.9789   -1.8761 H   0  0  0  0  0  0  0  0  0  0  0  0
    0.5294   -0.3590   -0.8836 H   0  0  0  0  0  0  0  0  0  0  0  0
    5.0582    1.9099   -1.7786 H   0  0  0  0  0  0  0  0  0  0  0  0
    1.7016   -3.9742    1.7513 H   0  0  0  0  0  0  0  0  0  0  0  0
   -0.4997   -4.9146    1.9400 H   0  0  0  0  0  0  0  0  0  0  0  0
   -3.1784   -4.3924   -0.6381 H   0  0  0  0  0  0  0  0  0  0  0  0
   -4.3967   -6.1716   -0.0752 H   0  0  0  0  0  0  0  0  0  0  0  0
   -5.5386   -8.1596    0.4593 H   0  0  0  0  0  0  0  0  0  0  0  0
   -6.7999   -9.4797    2.1198 H   0  0  0  0  0  0  0  0  0  0  0  0
   -7.1365   -8.6103    4.4162 H   0  0  0  0  0  0  0  0  0  0  0  0
   -4.8680   -5.0952    3.4273 H   0  0  0  0  0  0  0  0  0  0  0  0
   -1.5487   -3.2681   -1.9171 H   0  0  0  0  0  0  0  0  0  0  0  0
    0.7327   -2.4345   -2.1595 H   0  0  0  0  0  0  0  0  0  0  0  0
  1  2  1  0  0  0  0
  1 28  1  0  0  0  0
  1 29  1  0  0  0  0
  2  3  1  0  0  0  0
  2 27  2  0  0  0  0
  3  4  2  0  0  0  0
  4  5  1  0  0  0  0
  4 30  1  0  0  0  0
  5  6  2  0  0  0  0
  6  7  1  0  0  0  0
  6 27  1  0  0  0  0
  7  8  1  0  0  0  0
  8  9  2  0  0  0  0
  9 10  1  0  0  0  0
  9 27  1  0  0  0  0
 10 11  1  0  0  0  0
 10 26  2  0  0  0  0
 11 12  2  0  0  0  0
 11 31  1  0  0  0  0
 12 13  1  0  0  0  0
 12 32  1  0  0  0  0
 13 14  1  0  0  0  0
 13 25  2  0  0  0  0
 14 15  1  0  0  0  0
 14 33  1  0  0  0  0
 15 16  2  0  0  0  0
 15 17  1  0  0  0  0
 17 18  1  0  0  0  0
 17 34  1  0  0  0  0
 18 19  1  0  0  0  0
 18 24  2  0  0  0  0
 19 20  2  0  0  0  0
 19 35  1  0  0  0  0
 20 21  1  0  0  0  0
 20 36  1  0  0  0  0
 21 22  2  0  0  0  0
 21 37  1  0  0  0  0
 22 23  1  0  0  0  0
 22 24  1  0  0  0  0
 24 38  1  0  0  0  0
 25 26  1  0  0  0  0
 25 39  1  0  0  0  0
 26 40  1  0  0  0  0
M  END
$$$$
