CHEMBL55496
 OpenBabel04072215383D

 69 73  0  0  1  0  0  0  0  0999 V2000
    2.1888    2.9698   -1.7859 C   0  0  0  0  0  0  0  0  0  0  0  0
    2.0454    1.7870   -0.9525 N   0  0  0  0  0  0  0  0  0  0  0  0
    3.4177    0.9186   -0.5121 S   0  0  0  0  0  0  0  0  0  0  0  0
    4.4406    1.8566   -0.1100 O   0  0  0  0  0  0  0  0  0  0  0  0
    2.9700   -0.1578    0.3420 O   0  0  0  0  0  0  0  0  0  0  0  0
    3.9339    0.1646   -2.0434 C   0  0  0  0  0  0  0  0  0  0  0  0
    2.9986   -0.6539   -2.7131 C   0  0  0  0  0  0  0  0  0  0  0  0
    3.3482   -1.2920   -3.8998 C   0  0  0  0  0  0  0  0  0  0  0  0
    4.6373   -1.1110   -4.3589 C   0  0  0  0  0  0  0  0  0  0  0  0
    5.5940   -0.3355   -3.6879 C   0  0  0  0  0  0  0  0  0  0  0  0
    5.2459    0.3349   -2.5239 C   0  0  0  0  0  0  0  0  0  0  0  0
    6.8304   -0.4535   -4.4875 C   0  0  0  0  0  0  0  0  0  0  0  0
    8.0265    0.0821   -4.1973 C   0  0  0  0  0  0  0  0  0  0  0  0
    9.1594   -0.0175   -5.0513 C   0  0  0  0  0  0  0  0  0  0  0  0
   10.0410   -1.0330   -4.7819 N   0  0  0  0  0  0  0  0  0  0  0  0
   11.1022   -0.9526   -5.6283 C   0  0  0  0  0  0  0  0  0  0  0  0
   10.9042    0.1129   -6.4888 C   0  0  0  0  0  0  0  0  0  0  0  0
    9.6565    0.7262   -6.1272 C   0  0  0  0  0  0  0  0  0  0  0  0
    9.0288    1.9391   -6.7911 C   0  0  0  0  0  0  0  0  0  0  0  0
    8.1475    2.7255   -5.8219 C   0  0  0  0  0  0  0  0  0  0  0  0
    7.4392    3.9705   -6.3512 C   0  0  0  0  0  0  0  0  0  0  0  0
    6.6862    4.6377   -5.2590 N   0  0  0  0  0  0  0  0  0  0  0  0
    5.6721    3.7661   -4.6519 C   0  0  0  0  0  0  0  0  0  0  0  0
    4.9809    4.4461   -3.4781 C   0  0  0  0  0  0  0  0  0  0  0  0
    4.3535    5.7699   -3.8727 C   0  0  3  0  0  0  0  0  0  0  0  0
    3.1997    5.5454   -4.6838 O   0  0  0  0  0  0  0  0  0  0  0  0
    5.3793    6.6442   -4.5851 C   0  0  0  0  0  0  0  0  0  0  0  0
    6.0947    5.9006   -5.7197 C   0  0  0  0  0  0  0  0  0  0  0  0
   11.9133    0.4720   -7.5343 C   0  0  0  0  0  0  0  0  0  0  0  0
   12.9822   -0.6319   -7.7100 C   0  0  0  0  0  0  0  0  0  0  0  0
   13.4373   -1.2406   -6.3706 C   0  0  0  0  0  0  0  0  0  0  0  0
   12.2632   -1.8791   -5.6156 C   0  0  0  0  0  0  0  0  0  0  0  0
    6.4940   -1.3022   -5.6915 C   0  0  0  0  0  0  0  0  0  0  0  0
    7.1956   -1.6407   -6.6228 O   0  0  0  0  0  0  0  0  0  0  0  0
    5.1683   -1.6577   -5.5173 N   0  0  0  0  0  0  0  0  0  0  0  0
    1.2289    3.4876   -1.8604 H   0  0  0  0  0  0  0  0  0  0  0  0
    2.4834    2.6798   -2.7963 H   0  0  0  0  0  0  0  0  0  0  0  0
    2.9055    3.6686   -1.3458 H   0  0  0  0  0  0  0  0  0  0  0  0
    1.2218    1.2085   -1.1027 H   0  0  0  0  0  0  0  0  0  0  0  0
    2.0058   -0.8109   -2.2969 H   0  0  0  0  0  0  0  0  0  0  0  0
    2.6395   -1.9221   -4.4259 H   0  0  0  0  0  0  0  0  0  0  0  0
    5.9605    0.9553   -1.9908 H   0  0  0  0  0  0  0  0  0  0  0  0
    8.1533    0.6839   -3.3008 H   0  0  0  0  0  0  0  0  0  0  0  0
    9.9221   -1.7315   -4.0628 H   0  0  0  0  0  0  0  0  0  0  0  0
    8.4276    1.5951   -7.6424 H   0  0  0  0  0  0  0  0  0  0  0  0
    9.8140    2.5916   -7.1903 H   0  0  0  0  0  0  0  0  0  0  0  0
    8.7337    2.9898   -4.9319 H   0  0  0  0  0  0  0  0  0  0  0  0
    7.3579    2.0400   -5.5236 H   0  0  0  0  0  0  0  0  0  0  0  0
    6.7650    3.6987   -7.1730 H   0  0  0  0  0  0  0  0  0  0  0  0
    8.1910    4.6615   -6.7488 H   0  0  0  0  0  0  0  0  0  0  0  0
    6.1205    2.8649   -4.2259 H   0  0  0  0  0  0  0  0  0  0  0  0
    4.9359    3.4389   -5.3973 H   0  0  0  0  0  0  0  0  0  0  0  0
    5.7006    4.6020   -2.6655 H   0  0  0  0  0  0  0  0  0  0  0  0
    4.2244    3.7623   -3.1121 H   0  0  0  0  0  0  0  0  0  0  0  0
    3.9943    6.2809   -2.9729 H   0  0  0  0  0  0  0  0  0  0  0  0
    3.4861    5.1757   -5.5352 H   0  0  0  0  0  0  0  0  0  0  0  0
    6.1261    6.9773   -3.8519 H   0  0  0  0  0  0  0  0  0  0  0  0
    4.8934    7.5375   -4.9919 H   0  0  0  0  0  0  0  0  0  0  0  0
    6.8849    6.5566   -6.1025 H   0  0  0  0  0  0  0  0  0  0  0  0
    5.3941    5.7202   -6.5445 H   0  0  0  0  0  0  0  0  0  0  0  0
   12.4101    1.4023   -7.2350 H   0  0  0  0  0  0  0  0  0  0  0  0
   11.4236    0.6541   -8.4970 H   0  0  0  0  0  0  0  0  0  0  0  0
   13.8495   -0.2215   -8.2409 H   0  0  0  0  0  0  0  0  0  0  0  0
   12.5780   -1.4352   -8.3389 H   0  0  0  0  0  0  0  0  0  0  0  0
   13.8850   -0.4518   -5.7555 H   0  0  0  0  0  0  0  0  0  0  0  0
   14.2134   -1.9955   -6.5408 H   0  0  0  0  0  0  0  0  0  0  0  0
   12.5631   -2.1191   -4.5902 H   0  0  0  0  0  0  0  0  0  0  0  0
   11.9742   -2.8162   -6.1080 H   0  0  0  0  0  0  0  0  0  0  0  0
    4.6835   -2.2468   -6.1766 H   0  0  0  0  0  0  0  0  0  0  0  0
  1  2  1  0  0  0  0
  1 36  1  0  0  0  0
  1 37  1  0  0  0  0
  1 38  1  0  0  0  0
  2  3  1  0  0  0  0
  2 39  1  0  0  0  0
  3  4  2  0  0  0  0
  3  5  2  0  0  0  0
  3  6  1  0  0  0  0
  6  7  1  0  0  0  0
  6 11  2  0  0  0  0
  7  8  2  0  0  0  0
  7 40  1  0  0  0  0
  8  9  1  0  0  0  0
  8 41  1  0  0  0  0
  9 10  2  0  0  0  0
  9 35  1  0  0  0  0
 10 11  1  0  0  0  0
 10 12  1  0  0  0  0
 11 42  1  0  0  0  0
 12 13  2  0  0  0  0
 12 33  1  0  0  0  0
 13 14  1  0  0  0  0
 13 43  1  0  0  0  0
 14 15  1  0  0  0  0
 14 18  2  0  0  0  0
 15 16  1  0  0  0  0
 15 44  1  0  0  0  0
 16 17  2  0  0  0  0
 16 32  1  0  0  0  0
 17 18  1  0  0  0  0
 17 29  1  0  0  0  0
 18 19  1  0  0  0  0
 19 20  1  0  0  0  0
 19 45  1  0  0  0  0
 19 46  1  0  0  0  0
 20 21  1  0  0  0  0
 20 47  1  0  0  0  0
 20 48  1  0  0  0  0
 21 22  1  0  0  0  0
 21 49  1  0  0  0  0
 21 50  1  0  0  0  0
 22 23  1  0  0  0  0
 22 28  1  0  0  0  0
 23 24  1  0  0  0  0
 23 51  1  0  0  0  0
 23 52  1  0  0  0  0
 24 25  1  0  0  0  0
 24 53  1  0  0  0  0
 24 54  1  0  0  0  0
 25 26  1  0  0  0  0
 25 27  1  0  0  0  0
 25 55  1  0  0  0  0
 26 56  1  0  0  0  0
 27 28  1  0  0  0  0
 27 57  1  0  0  0  0
 27 58  1  0  0  0  0
 28 59  1  0  0  0  0
 28 60  1  0  0  0  0
 29 30  1  0  0  0  0
 29 61  1  0  0  0  0
 29 62  1  0  0  0  0
 30 31  1  0  0  0  0
 30 63  1  0  0  0  0
 30 64  1  0  0  0  0
 31 32  1  0  0  0  0
 31 65  1  0  0  0  0
 31 66  1  0  0  0  0
 32 67  1  0  0  0  0
 32 68  1  0  0  0  0
 33 34  2  0  0  0  0
 33 35  1  0  0  0  0
 35 69  1  0  0  0  0
M  END
$$$$
