CHEMBL3694696
 OpenBabel04072215373D

 47 50  0  0  0  0  0  0  0  0999 V2000
    3.4971    1.0905    2.6100 N   0  0  0  0  0  0  0  0  0  0  0  0
    3.6819    0.5379    1.3421 C   0  0  0  0  0  0  0  0  0  0  0  0
    4.4508   -0.5613    1.2767 N   0  0  0  0  0  0  0  0  0  0  0  0
    4.5804   -1.1475    0.0617 C   0  0  0  0  0  0  0  0  0  0  0  0
    5.3311   -2.4359   -0.0236 C   0  0  0  0  0  0  0  0  0  0  0  0
    5.7731   -3.0379   -1.3039 C   0  0  0  0  0  0  0  0  0  0  0  0
    6.6740   -4.0478   -1.2880 C   0  0  0  0  0  0  0  0  0  0  0  0
    6.9986   -4.6336   -0.0496 N   0  0  0  0  0  0  0  0  0  0  0  0
    7.6457   -5.8343    0.3091 C   0  0  0  0  0  0  0  0  0  0  0  0
    8.8013   -5.8782    1.2760 C   0  0  0  0  0  0  0  0  0  0  0  0
    9.5937   -4.7563    1.5287 C   0  0  0  0  0  0  0  0  0  0  0  0
   10.4483   -4.7484    2.6296 C   0  0  0  0  0  0  0  0  0  0  0  0
   11.1443   -3.6373    2.9088 F   0  0  0  0  0  0  0  0  0  0  0  0
   10.5615   -5.8437    3.4819 C   0  0  0  0  0  0  0  0  0  0  0  0
    9.8340   -6.9995    3.2273 C   0  0  0  0  0  0  0  0  0  0  0  0
    9.9068   -8.1562    4.0485 N   0  0  0  0  0  0  0  0  0  0  0  0
   10.8804   -8.4074    4.9905 C   0  0  0  0  0  0  0  0  0  0  0  0
   11.8233   -7.6967    5.2797 O   0  0  0  0  0  0  0  0  0  0  0  0
   10.7130   -9.6426    5.5948 N   0  0  0  0  0  0  0  0  0  0  0  0
   11.7008  -10.0648    6.5982 C   0  0  0  0  0  0  0  0  0  0  0  0
   11.5378   -9.4788    8.0076 C   0  0  0  0  0  0  0  0  0  0  0  0
   10.3784   -8.7955    8.1440 F   0  0  0  0  0  0  0  0  0  0  0  0
   11.5062  -10.4852    8.9187 F   0  0  0  0  0  0  0  0  0  0  0  0
   12.5543   -8.6621    8.3510 F   0  0  0  0  0  0  0  0  0  0  0  0
    8.9575   -7.0067    2.1242 C   0  0  0  0  0  0  0  0  0  0  0  0
    6.4426   -6.4786    0.6536 C   0  0  0  0  0  0  0  0  0  0  0  0
    5.6711   -5.5861    1.3817 N   0  0  0  0  0  0  0  0  0  0  0  0
    6.1452   -4.3998    1.0227 C   0  0  0  0  0  0  0  0  0  0  0  0
    5.5861   -3.1058    1.1270 C   0  0  0  0  0  0  0  0  0  0  0  0
    4.0158   -0.6914   -1.0770 N   0  0  0  0  0  0  0  0  0  0  0  0
    3.2398    0.4058   -0.9557 C   0  0  0  0  0  0  0  0  0  0  0  0
    3.0315    1.0533    0.2355 C   0  0  0  0  0  0  0  0  0  0  0  0
    2.2482    2.1392    0.3074 F   0  0  0  0  0  0  0  0  0  0  0  0
    4.1229    0.6359    3.2687 H   0  0  0  0  0  0  0  0  0  0  0  0
    3.5760    2.1030    2.6146 H   0  0  0  0  0  0  0  0  0  0  0  0
    5.3284   -2.6722   -2.2249 H   0  0  0  0  0  0  0  0  0  0  0  0
    7.0238   -4.5453   -2.1860 H   0  0  0  0  0  0  0  0  0  0  0  0
    9.5180   -3.8502    0.9373 H   0  0  0  0  0  0  0  0  0  0  0  0
   11.2046   -5.7413    4.3489 H   0  0  0  0  0  0  0  0  0  0  0  0
    9.3033   -8.9288    3.8066 H   0  0  0  0  0  0  0  0  0  0  0  0
    9.7594   -9.9442    5.7383 H   0  0  0  0  0  0  0  0  0  0  0  0
   12.7038   -9.8200    6.2251 H   0  0  0  0  0  0  0  0  0  0  0  0
   11.6350  -11.1562    6.6450 H   0  0  0  0  0  0  0  0  0  0  0  0
    8.3427   -7.8872    1.9503 H   0  0  0  0  0  0  0  0  0  0  0  0
    6.2555   -7.5408    0.7118 H   0  0  0  0  0  0  0  0  0  0  0  0
    5.3335   -2.7308    2.1106 H   0  0  0  0  0  0  0  0  0  0  0  0
    2.7679    0.7563   -1.8674 H   0  0  0  0  0  0  0  0  0  0  0  0
  1  2  1  0  0  0  0
  1 34  1  0  0  0  0
  1 35  1  0  0  0  0
  2  3  1  0  0  0  0
  2 32  2  0  0  0  0
  3  4  2  0  0  0  0
  4  5  1  0  0  0  0
  4 30  1  0  0  0  0
  5  6  1  0  0  0  0
  5 29  2  0  0  0  0
  6  7  2  0  0  0  0
  6 36  1  0  0  0  0
  7  8  1  0  0  0  0
  7 37  1  0  0  0  0
  8  9  1  0  0  0  0
  8 28  1  0  0  0  0
  9 10  1  0  0  0  0
  9 26  2  0  0  0  0
 10 11  1  0  0  0  0
 10 25  2  0  0  0  0
 11 12  2  0  0  0  0
 11 38  1  0  0  0  0
 12 13  1  0  0  0  0
 12 14  1  0  0  0  0
 14 15  2  0  0  0  0
 14 39  1  0  0  0  0
 15 16  1  0  0  0  0
 15 25  1  0  0  0  0
 16 17  1  0  0  0  0
 16 40  1  0  0  0  0
 17 18  2  0  0  0  0
 17 19  1  0  0  0  0
 19 20  1  0  0  0  0
 19 41  1  0  0  0  0
 20 21  1  0  0  0  0
 20 42  1  0  0  0  0
 20 43  1  0  0  0  0
 21 22  1  0  0  0  0
 21 23  1  0  0  0  0
 21 24  1  0  0  0  0
 25 44  1  0  0  0  0
 26 27  1  0  0  0  0
 26 45  1  0  0  0  0
 27 28  2  0  0  0  0
 28 29  1  0  0  0  0
 29 46  1  0  0  0  0
 30 31  2  0  0  0  0
 31 32  1  0  0  0  0
 31 47  1  0  0  0  0
 32 33  1  0  0  0  0
M  END
$$$$
