CHEMBL453578
 OpenBabel04072215383D

 54 58  0  0  0  0  0  0  0  0999 V2000
    2.4077   -0.4141    1.3148 C   0  0  0  0  0  0  0  0  0  0  0  0
    0.9097   -0.3130    1.3130 C   0  0  0  0  0  0  0  0  0  0  0  0
    0.3052    0.8815    1.7168 C   0  0  0  0  0  0  0  0  0  0  0  0
   -1.0776    0.9936    1.7216 C   0  0  0  0  0  0  0  0  0  0  0  0
   -1.8671   -0.0850    1.3253 C   0  0  0  0  0  0  0  0  0  0  0  0
   -1.3002   -1.2945    0.9034 C   0  0  0  0  0  0  0  0  0  0  0  0
   -2.0832   -2.4104    0.4920 N   0  0  0  0  0  0  0  0  0  0  0  0
   -3.4616   -2.4037    0.3278 C   0  0  0  0  0  0  0  0  0  0  0  0
   -4.1762   -1.4112    0.4344 O   0  0  0  0  0  0  0  0  0  0  0  0
   -3.9844   -3.6669    0.0636 N   0  0  0  0  0  0  0  0  0  0  0  0
   -5.3913   -3.8140   -0.0990 C   0  0  0  0  0  0  0  0  0  0  0  0
   -6.1228   -2.9421   -0.9158 C   0  0  0  0  0  0  0  0  0  0  0  0
   -7.5189   -3.0034   -0.9604 C   0  0  0  0  0  0  0  0  0  0  0  0
   -8.2069   -3.9350   -0.1791 C   0  0  0  0  0  0  0  0  0  0  0  0
   -9.6761   -3.9338   -0.1477 C   0  0  0  0  0  0  0  0  0  0  0  0
  -10.4008   -3.1043    0.8672 C   0  0  0  0  0  0  0  0  0  0  0  0
  -11.6877   -3.0108    1.0271 N   0  0  0  0  0  0  0  0  0  0  0  0
  -12.4520   -3.7506    0.1670 C   0  0  0  0  0  0  0  0  0  0  0  0
  -13.8284   -3.9049    0.0449 C   0  0  0  0  0  0  0  0  0  0  0  0
  -14.8399   -3.2662    0.8736 C   0  0  0  0  0  0  0  0  0  0  0  0
  -16.1110   -2.9726    0.3651 C   0  0  0  0  0  0  0  0  0  0  0  0
  -17.0757   -2.3896    1.1888 C   0  0  0  0  0  0  0  0  0  0  0  0
  -16.7433   -2.1200    2.5050 C   0  0  0  0  0  0  0  0  0  0  0  0
  -15.5344   -2.3862    3.0379 N   0  0  0  0  0  0  0  0  0  0  0  0
  -14.6129   -2.9458    2.2108 C   0  0  0  0  0  0  0  0  0  0  0  0
  -13.9811   -4.8118   -1.0260 C   0  0  0  0  0  0  0  0  0  0  0  0
  -12.8245   -5.2107   -1.5539 N   0  0  0  0  0  0  0  0  0  0  0  0
  -11.8770   -4.5378   -0.8348 N   0  0  0  0  0  0  0  0  0  0  0  0
  -10.4639   -4.6230   -1.0014 C   0  0  0  0  0  0  0  0  0  0  0  0
  -10.0007   -5.4366   -2.0376 N   0  0  0  0  0  0  0  0  0  0  0  0
   -7.4729   -4.8416    0.5996 C   0  0  0  0  0  0  0  0  0  0  0  0
   -6.0698   -4.7981    0.6214 C   0  0  0  0  0  0  0  0  0  0  0  0
    0.1014   -1.3986    0.9069 C   0  0  0  0  0  0  0  0  0  0  0  0
    2.8676    0.5132    1.6787 H   0  0  0  0  0  0  0  0  0  0  0  0
    2.7792   -0.5888    0.3010 H   0  0  0  0  0  0  0  0  0  0  0  0
    2.7371   -1.2226    1.9739 H   0  0  0  0  0  0  0  0  0  0  0  0
    0.9041    1.7324    2.0322 H   0  0  0  0  0  0  0  0  0  0  0  0
   -1.5530    1.9190    2.0352 H   0  0  0  0  0  0  0  0  0  0  0  0
   -2.9387    0.0687    1.3664 H   0  0  0  0  0  0  0  0  0  0  0  0
   -1.5857   -3.2275    0.1718 H   0  0  0  0  0  0  0  0  0  0  0  0
   -3.5074   -4.4207    0.5360 H   0  0  0  0  0  0  0  0  0  0  0  0
   -5.6130   -2.1813   -1.5039 H   0  0  0  0  0  0  0  0  0  0  0  0
   -8.0593   -2.2939   -1.5852 H   0  0  0  0  0  0  0  0  0  0  0  0
   -9.7552   -2.5144    1.5415 H   0  0  0  0  0  0  0  0  0  0  0  0
  -16.3631   -3.1786   -0.6712 H   0  0  0  0  0  0  0  0  0  0  0  0
  -18.0638   -2.1508    0.8110 H   0  0  0  0  0  0  0  0  0  0  0  0
  -17.4603   -1.6699    3.1857 H   0  0  0  0  0  0  0  0  0  0  0  0
  -13.6582   -3.1466    2.6889 H   0  0  0  0  0  0  0  0  0  0  0  0
  -14.8992   -5.2144   -1.4360 H   0  0  0  0  0  0  0  0  0  0  0  0
  -10.7120   -6.1098   -2.3342 H   0  0  0  0  0  0  0  0  0  0  0  0
   -9.0834   -5.8415   -1.8769 H   0  0  0  0  0  0  0  0  0  0  0  0
   -7.9883   -5.5671    1.2259 H   0  0  0  0  0  0  0  0  0  0  0  0
   -5.5325   -5.4823    1.2717 H   0  0  0  0  0  0  0  0  0  0  0  0
    0.5837   -2.3208    0.5938 H   0  0  0  0  0  0  0  0  0  0  0  0
  1  2  1  0  0  0  0
  1 34  1  0  0  0  0
  1 35  1  0  0  0  0
  1 36  1  0  0  0  0
  2  3  1  0  0  0  0
  2 33  2  0  0  0  0
  3  4  2  0  0  0  0
  3 37  1  0  0  0  0
  4  5  1  0  0  0  0
  4 38  1  0  0  0  0
  5  6  2  0  0  0  0
  5 39  1  0  0  0  0
  6  7  1  0  0  0  0
  6 33  1  0  0  0  0
  7  8  1  0  0  0  0
  7 40  1  0  0  0  0
  8  9  2  0  0  0  0
  8 10  1  0  0  0  0
 10 11  1  0  0  0  0
 10 41  1  0  0  0  0
 11 12  1  0  0  0  0
 11 32  2  0  0  0  0
 12 13  2  0  0  0  0
 12 42  1  0  0  0  0
 13 14  1  0  0  0  0
 13 43  1  0  0  0  0
 14 15  1  0  0  0  0
 14 31  2  0  0  0  0
 15 16  1  0  0  0  0
 15 29  2  0  0  0  0
 16 17  2  0  0  0  0
 16 44  1  0  0  0  0
 17 18  1  0  0  0  0
 18 19  2  0  0  0  0
 18 28  1  0  0  0  0
 19 20  1  0  0  0  0
 19 26  1  0  0  0  0
 20 21  1  0  0  0  0
 20 25  2  0  0  0  0
 21 22  2  0  0  0  0
 21 45  1  0  0  0  0
 22 23  1  0  0  0  0
 22 46  1  0  0  0  0
 23 24  2  0  0  0  0
 23 47  1  0  0  0  0
 24 25  1  0  0  0  0
 25 48  1  0  0  0  0
 26 27  2  0  0  0  0
 26 49  1  0  0  0  0
 27 28  1  0  0  0  0
 28 29  1  0  0  0  0
 29 30  1  0  0  0  0
 30 50  1  0  0  0  0
 30 51  1  0  0  0  0
 31 32  1  0  0  0  0
 31 52  1  0  0  0  0
 32 53  1  0  0  0  0
 33 54  1  0  0  0  0
M  END
$$$$
