CHEMBL3671514
 OpenBabel04072215373D

 60 63  0  0  0  0  0  0  0  0999 V2000
    1.8750    1.4087    1.1886 C   0  0  0  0  0  0  0  0  0  0  0  0
    2.8349    0.6231    0.6844 C   0  0  0  0  0  0  0  0  0  0  0  0
    3.5358   -0.3723    1.5427 C   0  0  0  0  0  0  0  0  0  0  0  0
    3.3147   -0.4756    2.7399 O   0  0  0  0  0  0  0  0  0  0  0  0
    4.4521   -1.1143    0.8136 N   0  0  0  0  0  0  0  0  0  0  0  0
    5.2653   -2.0465    1.4869 C   0  0  0  0  0  0  0  0  0  0  0  0
    6.4548   -1.5756    2.0407 C   0  0  0  0  0  0  0  0  0  0  0  0
    7.2634   -2.4142    2.8373 C   0  0  0  0  0  0  0  0  0  0  0  0
    8.4065   -1.9952    3.5361 C   0  0  0  0  0  0  0  0  0  0  0  0
    8.7741   -0.6212    3.5494 N   0  0  0  0  0  0  0  0  0  0  0  0
    9.5996   -0.0585    4.5526 C   0  0  0  0  0  0  0  0  0  0  0  0
    9.4075   -0.4003    5.8990 C   0  0  0  0  0  0  0  0  0  0  0  0
   10.3060    0.0169    6.8804 C   0  0  0  0  0  0  0  0  0  0  0  0
   11.3902    0.8233    6.5339 C   0  0  0  0  0  0  0  0  0  0  0  0
   12.6348    1.2340    7.9088 Br  0  0  0  0  0  0  0  0  0  0  0  0
   11.5400    1.2549    5.2142 C   0  0  0  0  0  0  0  0  0  0  0  0
   12.8417    2.2940    4.7279 Cl  0  0  0  0  0  0  0  0  0  0  0  0
   10.6407    0.8187    4.2345 C   0  0  0  0  0  0  0  0  0  0  0  0
   10.7852    1.2066    2.9550 F   0  0  0  0  0  0  0  0  0  0  0  0
    9.1417   -2.8548    4.2701 N   0  0  0  0  0  0  0  0  0  0  0  0
    8.7188   -4.1110    4.3397 C   0  0  0  0  0  0  0  0  0  0  0  0
    7.6201   -4.6050    3.7587 N   0  0  0  0  0  0  0  0  0  0  0  0
    6.8949   -3.7554    3.0239 C   0  0  0  0  0  0  0  0  0  0  0  0
    5.7222   -4.2151    2.4316 C   0  0  0  0  0  0  0  0  0  0  0  0
    4.9060   -3.3952    1.6414 C   0  0  0  0  0  0  0  0  0  0  0  0
    3.8260   -4.0409    1.0854 O   0  0  0  0  0  0  0  0  0  0  0  0
    3.4019   -3.5508   -0.1907 C   0  0  0  0  0  0  0  0  0  0  0  0
    2.7858   -4.6696   -1.0362 C   0  0  0  0  0  0  0  0  0  0  0  0
    2.4152   -4.1994   -2.3684 N   0  0  0  0  0  0  0  0  0  0  0  0
    3.3659   -4.0674   -3.3479 C   0  0  0  0  0  0  0  0  0  0  0  0
    4.5466   -4.3306   -3.1335 O   0  0  0  0  0  0  0  0  0  0  0  0
    2.9194   -3.6015   -4.5674 N   0  0  0  0  0  0  0  0  0  0  0  0
    1.6127   -2.9981   -4.8586 C   0  0  0  0  0  0  0  0  0  0  0  0
    1.1343   -3.3920   -6.2632 C   0  0  0  0  0  0  0  0  0  0  0  0
    2.1180   -3.0825   -7.2621 O   0  0  0  0  0  0  0  0  0  0  0  0
    3.3484   -3.7715   -6.9880 C   0  0  0  0  0  0  0  0  0  0  0  0
    3.9087   -3.3636   -5.6257 C   0  0  0  0  0  0  0  0  0  0  0  0
    1.3345    2.1041    0.5550 H   0  0  0  0  0  0  0  0  0  0  0  0
    1.5958    1.3641    2.2383 H   0  0  0  0  0  0  0  0  0  0  0  0
    3.0851    0.6677   -0.3679 H   0  0  0  0  0  0  0  0  0  0  0  0
    4.9150   -0.5793    0.0895 H   0  0  0  0  0  0  0  0  0  0  0  0
    6.7207   -0.5282    1.9158 H   0  0  0  0  0  0  0  0  0  0  0  0
    9.0170   -0.3003    2.6152 H   0  0  0  0  0  0  0  0  0  0  0  0
    8.5728   -1.0345    6.1845 H   0  0  0  0  0  0  0  0  0  0  0  0
   10.1572   -0.3177    7.9035 H   0  0  0  0  0  0  0  0  0  0  0  0
    9.3147   -4.7977    4.9307 H   0  0  0  0  0  0  0  0  0  0  0  0
    5.4347   -5.2525    2.5918 H   0  0  0  0  0  0  0  0  0  0  0  0
    4.2410   -3.1245   -0.7523 H   0  0  0  0  0  0  0  0  0  0  0  0
    2.6378   -2.7822   -0.0299 H   0  0  0  0  0  0  0  0  0  0  0  0
    1.8806   -5.0558   -0.5539 H   0  0  0  0  0  0  0  0  0  0  0  0
    3.4822   -5.5119   -1.1268 H   0  0  0  0  0  0  0  0  0  0  0  0
    1.4815   -4.4202   -2.6742 H   0  0  0  0  0  0  0  0  0  0  0  0
    1.7576   -1.9117   -4.8104 H   0  0  0  0  0  0  0  0  0  0  0  0
    0.8567   -3.2641   -4.1185 H   0  0  0  0  0  0  0  0  0  0  0  0
    0.2221   -2.8426   -6.5158 H   0  0  0  0  0  0  0  0  0  0  0  0
    0.9056   -4.4633   -6.3118 H   0  0  0  0  0  0  0  0  0  0  0  0
    4.0592   -3.5148   -7.7817 H   0  0  0  0  0  0  0  0  0  0  0  0
    3.1704   -4.8536   -7.0340 H   0  0  0  0  0  0  0  0  0  0  0  0
    4.1217   -2.2876   -5.6182 H   0  0  0  0  0  0  0  0  0  0  0  0
    4.8454   -3.8946   -5.4299 H   0  0  0  0  0  0  0  0  0  0  0  0
  1  2  2  0  0  0  0
  1 38  1  0  0  0  0
  1 39  1  0  0  0  0
  2  3  1  0  0  0  0
  2 40  1  0  0  0  0
  3  4  2  0  0  0  0
  3  5  1  0  0  0  0
  5  6  1  0  0  0  0
  5 41  1  0  0  0  0
  6  7  1  0  0  0  0
  6 25  2  0  0  0  0
  7  8  2  0  0  0  0
  7 42  1  0  0  0  0
  8  9  1  0  0  0  0
  8 23  1  0  0  0  0
  9 10  1  0  0  0  0
  9 20  2  0  0  0  0
 10 11  1  0  0  0  0
 10 43  1  0  0  0  0
 11 12  1  0  0  0  0
 11 18  2  0  0  0  0
 12 13  2  0  0  0  0
 12 44  1  0  0  0  0
 13 14  1  0  0  0  0
 13 45  1  0  0  0  0
 14 15  1  0  0  0  0
 14 16  2  0  0  0  0
 16 17  1  0  0  0  0
 16 18  1  0  0  0  0
 18 19  1  0  0  0  0
 20 21  1  0  0  0  0
 21 22  2  0  0  0  0
 21 46  1  0  0  0  0
 22 23  1  0  0  0  0
 23 24  2  0  0  0  0
 24 25  1  0  0  0  0
 24 47  1  0  0  0  0
 25 26  1  0  0  0  0
 26 27  1  0  0  0  0
 27 28  1  0  0  0  0
 27 48  1  0  0  0  0
 27 49  1  0  0  0  0
 28 29  1  0  0  0  0
 28 50  1  0  0  0  0
 28 51  1  0  0  0  0
 29 30  1  0  0  0  0
 29 52  1  0  0  0  0
 30 31  2  0  0  0  0
 30 32  1  0  0  0  0
 32 33  1  0  0  0  0
 32 37  1  0  0  0  0
 33 34  1  0  0  0  0
 33 53  1  0  0  0  0
 33 54  1  0  0  0  0
 34 35  1  0  0  0  0
 34 55  1  0  0  0  0
 34 56  1  0  0  0  0
 35 36  1  0  0  0  0
 36 37  1  0  0  0  0
 36 57  1  0  0  0  0
 36 58  1  0  0  0  0
 37 59  1  0  0  0  0
 37 60  1  0  0  0  0
M  END
$$$$
