CHEMBL3740087
 OpenBabel04072215373D

 62 66  0  0  0  0  0  0  0  0999 V2000
    7.2320   -1.1801    6.4909 C   0  0  0  0  0  0  0  0  0  0  0  0
    5.4633   -1.1347    6.4571 S   0  0  0  0  0  0  0  0  0  0  0  0
    4.9659   -1.9838    7.5211 O   0  0  0  0  0  0  0  0  0  0  0  0
    5.0723    0.2701    6.4090 O   0  0  0  0  0  0  0  0  0  0  0  0
    5.0044   -1.8297    4.8620 C   0  0  0  0  0  0  0  0  0  0  0  0
    5.4828   -3.2460    4.7116 C   0  0  0  0  0  0  0  0  0  0  0  0
    4.7261   -4.3117    5.2151 C   0  0  0  0  0  0  0  0  0  0  0  0
    5.1459   -5.6266    5.0223 C   0  0  0  0  0  0  0  0  0  0  0  0
    6.3249   -5.8882    4.3238 C   0  0  0  0  0  0  0  0  0  0  0  0
    7.1180   -4.8425    3.8402 C   0  0  0  0  0  0  0  0  0  0  0  0
    8.2532   -5.1566    3.0674 N   0  0  0  0  0  0  0  0  0  0  0  0
    9.3803   -4.3498    2.8809 C   0  0  0  0  0  0  0  0  0  0  0  0
    9.8936   -4.3381    1.6421 N   0  0  0  0  0  0  0  0  0  0  0  0
   10.9744   -3.5645    1.4390 C   0  0  0  0  0  0  0  0  0  0  0  0
   11.5725   -2.8246    2.4272 C   0  0  0  0  0  0  0  0  0  0  0  0
   11.0097   -2.9422    3.6790 C   0  0  0  0  0  0  0  0  0  0  0  0
   11.4928   -2.3026    4.8045 O   0  0  0  0  0  0  0  0  0  0  0  0
   12.8187   -1.9438    4.8262 C   0  0  0  0  0  0  0  0  0  0  0  0
   13.1159   -0.6120    5.1016 C   0  0  0  0  0  0  0  0  0  0  0  0
   14.4300   -0.1621    4.9492 C   0  0  0  0  0  0  0  0  0  0  0  0
   15.4602   -1.0673    4.6251 C   0  0  0  0  0  0  0  0  0  0  0  0
   16.8107   -0.7065    4.4941 C   0  0  0  0  0  0  0  0  0  0  0  0
   17.4777   -1.2691    3.1660 C   0  0  0  0  0  0  0  0  0  0  0  0
   16.7846   -1.6367    2.2228 O   0  0  0  0  0  0  0  0  0  0  0  0
   18.8775   -1.3349    3.2015 N   0  0  0  0  0  0  0  0  0  0  0  0
   19.7803   -1.9705    2.3053 C   0  0  0  0  0  0  0  0  0  0  0  0
   19.4066   -2.7224    1.1897 C   0  0  0  0  0  0  0  0  0  0  0  0
   20.3788   -3.3174    0.3629 C   0  0  0  0  0  0  0  0  0  0  0  0
   21.7367   -3.1711    0.6422 C   0  0  0  0  0  0  0  0  0  0  0  0
   22.1149   -2.4402    1.7627 C   0  0  0  0  0  0  0  0  0  0  0  0
   23.9517   -2.2305    2.1674 Br  0  0  0  0  0  0  0  0  0  0  0  0
   21.1512   -1.8503    2.5904 C   0  0  0  0  0  0  0  0  0  0  0  0
   17.5213   -1.1676    5.5928 C   0  0  0  0  0  0  0  0  0  0  0  0
   17.3083   -2.4964    5.9562 C   0  0  0  0  0  0  0  0  0  0  0  0
   16.2036   -3.1809    5.4222 C   0  0  0  0  0  0  0  0  0  0  0  0
   15.1750   -2.4216    4.8396 C   0  0  0  0  0  0  0  0  0  0  0  0
   13.8512   -2.8770    4.7335 C   0  0  0  0  0  0  0  0  0  0  0  0
    9.8962   -3.6609    3.9092 N   0  0  0  0  0  0  0  0  0  0  0  0
    6.6765   -3.5253    4.0265 C   0  0  0  0  0  0  0  0  0  0  0  0
    7.5493   -0.6665    7.4005 H   0  0  0  0  0  0  0  0  0  0  0  0
    7.6114   -0.6463    5.6182 H   0  0  0  0  0  0  0  0  0  0  0  0
    7.5711   -2.2154    6.5116 H   0  0  0  0  0  0  0  0  0  0  0  0
    5.4248   -1.1793    4.0829 H   0  0  0  0  0  0  0  0  0  0  0  0
    3.9146   -1.7719    4.7759 H   0  0  0  0  0  0  0  0  0  0  0  0
    3.7981   -4.1273    5.7548 H   0  0  0  0  0  0  0  0  0  0  0  0
    4.5503   -6.4505    5.4075 H   0  0  0  0  0  0  0  0  0  0  0  0
    6.6387   -6.9190    4.1746 H   0  0  0  0  0  0  0  0  0  0  0  0
    7.9954   -5.4844    2.1421 H   0  0  0  0  0  0  0  0  0  0  0  0
   11.3614   -3.5620    0.4237 H   0  0  0  0  0  0  0  0  0  0  0  0
   12.4347   -2.2084    2.2138 H   0  0  0  0  0  0  0  0  0  0  0  0
   12.3340    0.0678    5.4328 H   0  0  0  0  0  0  0  0  0  0  0  0
   14.6626    0.8794    5.1668 H   0  0  0  0  0  0  0  0  0  0  0  0
   19.3199   -0.9151    4.0066 H   0  0  0  0  0  0  0  0  0  0  0  0
   18.3616   -2.8750    0.9414 H   0  0  0  0  0  0  0  0  0  0  0  0
   20.0717   -3.8913   -0.5095 H   0  0  0  0  0  0  0  0  0  0  0  0
   22.4815   -3.6210   -0.0110 H   0  0  0  0  0  0  0  0  0  0  0  0
   21.4834   -1.2939    3.4627 H   0  0  0  0  0  0  0  0  0  0  0  0
   18.2331   -0.5184    6.0835 H   0  0  0  0  0  0  0  0  0  0  0  0
   17.9532   -2.9654    6.6878 H   0  0  0  0  0  0  0  0  0  0  0  0
   16.0433   -4.2207    5.6913 H   0  0  0  0  0  0  0  0  0  0  0  0
   13.6252   -3.9387    4.7171 H   0  0  0  0  0  0  0  0  0  0  0  0
    7.2629   -2.7061    3.6158 H   0  0  0  0  0  0  0  0  0  0  0  0
  1  2  1  0  0  0  0
  1 40  1  0  0  0  0
  1 41  1  0  0  0  0
  1 42  1  0  0  0  0
  2  3  2  0  0  0  0
  2  4  2  0  0  0  0
  2  5  1  0  0  0  0
  5  6  1  0  0  0  0
  5 43  1  0  0  0  0
  5 44  1  0  0  0  0
  6  7  1  0  0  0  0
  6 39  2  0  0  0  0
  7  8  2  0  0  0  0
  7 45  1  0  0  0  0
  8  9  1  0  0  0  0
  8 46  1  0  0  0  0
  9 10  2  0  0  0  0
  9 47  1  0  0  0  0
 10 11  1  0  0  0  0
 10 39  1  0  0  0  0
 11 12  1  0  0  0  0
 11 48  1  0  0  0  0
 12 13  1  0  0  0  0
 12 38  2  0  0  0  0
 13 14  2  0  0  0  0
 14 15  1  0  0  0  0
 14 49  1  0  0  0  0
 15 16  2  0  0  0  0
 15 50  1  0  0  0  0
 16 17  1  0  0  0  0
 16 38  1  0  0  0  0
 17 18  1  0  0  0  0
 18 19  1  0  0  0  0
 18 37  2  0  0  0  0
 19 20  2  0  0  0  0
 19 51  1  0  0  0  0
 20 21  1  0  0  0  0
 20 52  1  0  0  0  0
 21 22  1  0  0  0  0
 21 36  2  0  0  0  0
 22 23  1  0  0  0  0
 22 33  2  0  0  0  0
 23 24  2  0  0  0  0
 23 25  1  0  0  0  0
 25 26  1  0  0  0  0
 25 53  1  0  0  0  0
 26 27  1  0  0  0  0
 26 32  2  0  0  0  0
 27 28  2  0  0  0  0
 27 54  1  0  0  0  0
 28 29  1  0  0  0  0
 28 55  1  0  0  0  0
 29 30  2  0  0  0  0
 29 56  1  0  0  0  0
 30 31  1  0  0  0  0
 30 32  1  0  0  0  0
 32 57  1  0  0  0  0
 33 34  1  0  0  0  0
 33 58  1  0  0  0  0
 34 35  2  0  0  0  0
 34 59  1  0  0  0  0
 35 36  1  0  0  0  0
 35 60  1  0  0  0  0
 36 37  1  0  0  0  0
 37 61  1  0  0  0  0
 39 62  1  0  0  0  0
M  END
$$$$
