CHEMBL3671560
 OpenBabel04072215373D

 51 54  0  0  0  0  0  0  0  0999 V2000
    2.5215   -2.5009    0.4280 C   0  0  0  0  0  0  0  0  0  0  0  0
    3.1482   -1.3533    0.1362 C   0  0  0  0  0  0  0  0  0  0  0  0
    3.9965   -1.2645   -1.0816 C   0  0  0  0  0  0  0  0  0  0  0  0
    4.1999   -2.2424   -1.7890 O   0  0  0  0  0  0  0  0  0  0  0  0
    4.4598    0.0173   -1.3184 N   0  0  0  0  0  0  0  0  0  0  0  0
    5.1666    0.3126   -2.5048 C   0  0  0  0  0  0  0  0  0  0  0  0
    6.2845   -0.4833   -2.7560 C   0  0  0  0  0  0  0  0  0  0  0  0
    6.9680   -0.4247   -3.9870 C   0  0  0  0  0  0  0  0  0  0  0  0
    8.0710   -1.2353   -4.3016 C   0  0  0  0  0  0  0  0  0  0  0  0
    8.5058   -2.1904   -3.3604 N   0  0  0  0  0  0  0  0  0  0  0  0
    9.8026   -2.6803   -3.1376 C   0  0  0  0  0  0  0  0  0  0  0  0
   10.9360   -1.8994   -3.3933 C   0  0  0  0  0  0  0  0  0  0  0  0
   12.2002   -2.3122   -2.9679 C   0  0  0  0  0  0  0  0  0  0  0  0
   12.3456   -3.5276   -2.3027 C   0  0  0  0  0  0  0  0  0  0  0  0
   14.0303   -4.0089   -1.5947 Br  0  0  0  0  0  0  0  0  0  0  0  0
   11.2501   -4.3641   -2.1142 C   0  0  0  0  0  0  0  0  0  0  0  0
    9.9935   -3.9298   -2.5284 C   0  0  0  0  0  0  0  0  0  0  0  0
    8.9332   -4.7246   -2.3086 F   0  0  0  0  0  0  0  0  0  0  0  0
    8.7158   -1.1136   -5.4711 N   0  0  0  0  0  0  0  0  0  0  0  0
    8.2274   -0.2314   -6.3349 C   0  0  0  0  0  0  0  0  0  0  0  0
    7.1708    0.5789   -6.1452 N   0  0  0  0  0  0  0  0  0  0  0  0
    6.5536    0.4796   -4.9605 C   0  0  0  0  0  0  0  0  0  0  0  0
    5.4679    1.3120   -4.6820 C   0  0  0  0  0  0  0  0  0  0  0  0
    4.7872    1.2718   -3.4478 C   0  0  0  0  0  0  0  0  0  0  0  0
    3.7278    2.1537   -3.3878 O   0  0  0  0  0  0  0  0  0  0  0  0
    3.4197    2.6618   -2.0919 C   0  0  0  0  0  0  0  0  0  0  0  0
    2.8883    4.0956   -2.1736 C   0  0  0  0  0  0  0  0  0  0  0  0
    2.6329    4.6199   -0.8368 N   0  0  0  0  0  0  0  0  0  0  0  0
    3.6561    5.1388   -0.1204 C   0  0  0  0  0  0  0  0  0  0  0  0
    4.9286    4.9295   -0.3640 N   0  0  0  0  0  0  0  0  0  0  0  0
    5.7112    5.6017    0.5556 C   0  0  0  0  0  0  0  0  0  0  0  0
    5.0211    6.3183    1.5069 C   0  0  0  0  0  0  0  0  0  0  0  0
    3.3376    6.1451    1.2436 S   0  0  0  0  0  0  0  0  0  0  0  0
    1.8942   -2.5881    1.3074 H   0  0  0  0  0  0  0  0  0  0  0  0
    2.6158   -3.3783   -0.2076 H   0  0  0  0  0  0  0  0  0  0  0  0
    3.0423   -0.4831    0.7702 H   0  0  0  0  0  0  0  0  0  0  0  0
    4.1607    0.7745   -0.7261 H   0  0  0  0  0  0  0  0  0  0  0  0
    6.6290   -1.1556   -1.9794 H   0  0  0  0  0  0  0  0  0  0  0  0
    7.7662   -2.8368   -3.0874 H   0  0  0  0  0  0  0  0  0  0  0  0
   10.8347   -0.9329   -3.8823 H   0  0  0  0  0  0  0  0  0  0  0  0
   13.0541   -1.6593   -3.1320 H   0  0  0  0  0  0  0  0  0  0  0  0
   11.3480   -5.3266   -1.6240 H   0  0  0  0  0  0  0  0  0  0  0  0
    8.7326   -0.1526   -7.2928 H   0  0  0  0  0  0  0  0  0  0  0  0
    5.1404    2.0081   -5.4502 H   0  0  0  0  0  0  0  0  0  0  0  0
    4.3106    2.6691   -1.4531 H   0  0  0  0  0  0  0  0  0  0  0  0
    2.6494    2.0247   -1.6440 H   0  0  0  0  0  0  0  0  0  0  0  0
    1.9492    4.1022   -2.7445 H   0  0  0  0  0  0  0  0  0  0  0  0
    3.5777    4.7366   -2.7343 H   0  0  0  0  0  0  0  0  0  0  0  0
    1.7026    4.9844   -0.6644 H   0  0  0  0  0  0  0  0  0  0  0  0
    6.7900    5.5334    0.4858 H   0  0  0  0  0  0  0  0  0  0  0  0
    5.4129    6.9149    2.3180 H   0  0  0  0  0  0  0  0  0  0  0  0
  1  2  2  0  0  0  0
  1 34  1  0  0  0  0
  1 35  1  0  0  0  0
  2  3  1  0  0  0  0
  2 36  1  0  0  0  0
  3  4  2  0  0  0  0
  3  5  1  0  0  0  0
  5  6  1  0  0  0  0
  5 37  1  0  0  0  0
  6  7  1  0  0  0  0
  6 24  2  0  0  0  0
  7  8  2  0  0  0  0
  7 38  1  0  0  0  0
  8  9  1  0  0  0  0
  8 22  1  0  0  0  0
  9 10  1  0  0  0  0
  9 19  2  0  0  0  0
 10 11  1  0  0  0  0
 10 39  1  0  0  0  0
 11 12  1  0  0  0  0
 11 17  2  0  0  0  0
 12 13  2  0  0  0  0
 12 40  1  0  0  0  0
 13 14  1  0  0  0  0
 13 41  1  0  0  0  0
 14 15  1  0  0  0  0
 14 16  2  0  0  0  0
 16 17  1  0  0  0  0
 16 42  1  0  0  0  0
 17 18  1  0  0  0  0
 19 20  1  0  0  0  0
 20 21  2  0  0  0  0
 20 43  1  0  0  0  0
 21 22  1  0  0  0  0
 22 23  2  0  0  0  0
 23 24  1  0  0  0  0
 23 44  1  0  0  0  0
 24 25  1  0  0  0  0
 25 26  1  0  0  0  0
 26 27  1  0  0  0  0
 26 45  1  0  0  0  0
 26 46  1  0  0  0  0
 27 28  1  0  0  0  0
 27 47  1  0  0  0  0
 27 48  1  0  0  0  0
 28 29  1  0  0  0  0
 28 49  1  0  0  0  0
 29 30  2  0  0  0  0
 29 33  1  0  0  0  0
 30 31  1  0  0  0  0
 31 32  2  0  0  0  0
 31 50  1  0  0  0  0
 32 33  1  0  0  0  0
 32 51  1  0  0  0  0
M  END
$$$$
