CHEMBL3944929
 OpenBabel04072215373D

 66 69  0  0  0  0  0  0  0  0999 V2000
   10.2734   -2.1890   -5.7719 C   0  0  0  0  0  0  0  0  0  0  0  0
    9.5695   -1.9889   -4.5456 O   0  0  0  0  0  0  0  0  0  0  0  0
   10.3394   -2.1610   -3.4307 C   0  0  0  0  0  0  0  0  0  0  0  0
   11.5370   -2.4201   -3.4387 O   0  0  0  0  0  0  0  0  0  0  0  0
    9.5034   -1.9115   -2.1770 C   0  0  0  0  0  0  0  0  0  0  0  0
   10.0141   -2.7165   -1.0528 N   0  0  0  0  0  0  0  0  0  0  0  0
    9.2563   -2.4665    0.1687 C   0  0  0  0  0  0  0  0  0  0  0  0
    9.8241   -3.3043    1.3139 C   0  0  0  0  0  0  0  0  0  0  0  0
    9.0271   -3.0646    2.5905 C   0  0  0  0  0  0  0  0  0  0  0  0
    9.5393   -3.8450    3.6887 N   0  0  0  0  0  0  0  0  0  0  0  0
   10.5242   -3.3974    4.5448 C   0  0  0  0  0  0  0  0  0  0  0  0
   11.0375   -2.2873    4.4247 O   0  0  0  0  0  0  0  0  0  0  0  0
   10.8813   -4.3329    5.6032 C   0  0  0  0  0  0  0  0  0  0  0  0
   11.7914   -4.1426    6.6218 C   0  0  0  0  0  0  0  0  0  0  0  0
   11.8514   -5.2505    7.5240 C   0  0  0  0  0  0  0  0  0  0  0  0
   12.6335   -5.3211    8.6336 N   0  0  0  0  0  0  0  0  0  0  0  0
   12.5204   -6.4521    9.3568 C   0  0  0  0  0  0  0  0  0  0  0  0
   11.6920   -7.5147    9.0535 C   0  0  0  0  0  0  0  0  0  0  0  0
   10.9279   -7.4580    7.8914 C   0  0  0  0  0  0  0  0  0  0  0  0
   10.0605   -8.4545    7.5045 O   0  0  0  0  0  0  0  0  0  0  0  0
   10.4648   -9.7661    7.5782 C   0  0  0  0  0  0  0  0  0  0  0  0
    9.4457  -10.7174    7.6498 C   0  0  0  0  0  0  0  0  0  0  0  0
    9.7491  -12.0786    7.7290 C   0  0  0  0  0  0  0  0  0  0  0  0
   11.0809  -12.4954    7.7393 C   0  0  0  0  0  0  0  0  0  0  0  0
   12.0955  -11.5424    7.6533 C   0  0  0  0  0  0  0  0  0  0  0  0
   13.5223  -11.9106    7.7571 C   0  0  0  0  0  0  0  0  0  0  0  0
   14.2602  -11.1370    8.3517 O   0  0  0  0  0  0  0  0  0  0  0  0
   13.8779  -13.0803    7.1088 N   0  0  0  0  0  0  0  0  0  0  0  0
   15.1972  -13.5663    7.0285 C   0  0  0  0  0  0  0  0  0  0  0  0
   16.2030  -13.1530    7.9006 C   0  0  0  0  0  0  0  0  0  0  0  0
   17.5344  -13.5299    7.6954 C   0  0  0  0  0  0  0  0  0  0  0  0
   18.5980  -13.0074    8.6139 C   0  0  0  0  0  0  0  0  0  0  0  0
   17.8507  -14.3484    6.6057 C   0  0  0  0  0  0  0  0  0  0  0  0
   16.8387  -14.8411    5.7790 C   0  0  0  0  0  0  0  0  0  0  0  0
   15.5189  -14.4622    6.0076 C   0  0  0  0  0  0  0  0  0  0  0  0
   14.5533  -14.9271    5.1981 F   0  0  0  0  0  0  0  0  0  0  0  0
   11.7927  -10.1853    7.5472 C   0  0  0  0  0  0  0  0  0  0  0  0
   10.9998   -6.2802    7.1347 C   0  0  0  0  0  0  0  0  0  0  0  0
   10.1531   -5.8765    5.7024 S   0  0  0  0  0  0  0  0  0  0  0  0
    9.5842   -1.9825   -6.5956 H   0  0  0  0  0  0  0  0  0  0  0  0
   10.6100   -3.2273   -5.8539 H   0  0  0  0  0  0  0  0  0  0  0  0
   11.1191   -1.4987   -5.8488 H   0  0  0  0  0  0  0  0  0  0  0  0
    8.4652   -2.1935   -2.3825 H   0  0  0  0  0  0  0  0  0  0  0  0
    9.5553   -0.8403   -1.9536 H   0  0  0  0  0  0  0  0  0  0  0  0
   11.0038   -2.4942   -0.9158 H   0  0  0  0  0  0  0  0  0  0  0  0
    8.2052   -2.7383    0.0120 H   0  0  0  0  0  0  0  0  0  0  0  0
    9.2953   -1.4038    0.4361 H   0  0  0  0  0  0  0  0  0  0  0  0
   10.8790   -3.0538    1.4814 H   0  0  0  0  0  0  0  0  0  0  0  0
    9.7914   -4.3710    1.0549 H   0  0  0  0  0  0  0  0  0  0  0  0
    7.9819   -3.3623    2.4534 H   0  0  0  0  0  0  0  0  0  0  0  0
    9.0475   -2.0054    2.8660 H   0  0  0  0  0  0  0  0  0  0  0  0
    9.2068   -4.7943    3.8115 H   0  0  0  0  0  0  0  0  0  0  0  0
   12.3785   -3.2408    6.7442 H   0  0  0  0  0  0  0  0  0  0  0  0
   13.1499   -6.4931   10.2429 H   0  0  0  0  0  0  0  0  0  0  0  0
   11.6704   -8.3835    9.7027 H   0  0  0  0  0  0  0  0  0  0  0  0
    8.4064  -10.3958    7.6556 H   0  0  0  0  0  0  0  0  0  0  0  0
    8.9482  -12.8102    7.8016 H   0  0  0  0  0  0  0  0  0  0  0  0
   11.3100  -13.5530    7.8475 H   0  0  0  0  0  0  0  0  0  0  0  0
   13.2188  -13.4878    6.4541 H   0  0  0  0  0  0  0  0  0  0  0  0
   15.9713  -12.5196    8.7531 H   0  0  0  0  0  0  0  0  0  0  0  0
   18.1605  -12.5102    9.4878 H   0  0  0  0  0  0  0  0  0  0  0  0
   19.2224  -12.2784    8.0901 H   0  0  0  0  0  0  0  0  0  0  0  0
   19.2182  -13.8290    8.9820 H   0  0  0  0  0  0  0  0  0  0  0  0
   18.8863  -14.6055    6.3995 H   0  0  0  0  0  0  0  0  0  0  0  0
   17.0735  -15.4946    4.9454 H   0  0  0  0  0  0  0  0  0  0  0  0
   12.6087   -9.4707    7.4650 H   0  0  0  0  0  0  0  0  0  0  0  0
  1  2  1  0  0  0  0
  1 40  1  0  0  0  0
  1 41  1  0  0  0  0
  1 42  1  0  0  0  0
  2  3  1  0  0  0  0
  3  4  2  0  0  0  0
  3  5  1  0  0  0  0
  5  6  1  0  0  0  0
  5 43  1  0  0  0  0
  5 44  1  0  0  0  0
  6  7  1  0  0  0  0
  6 45  1  0  0  0  0
  7  8  1  0  0  0  0
  7 46  1  0  0  0  0
  7 47  1  0  0  0  0
  8  9  1  0  0  0  0
  8 48  1  0  0  0  0
  8 49  1  0  0  0  0
  9 10  1  0  0  0  0
  9 50  1  0  0  0  0
  9 51  1  0  0  0  0
 10 11  1  0  0  0  0
 10 52  1  0  0  0  0
 11 12  2  0  0  0  0
 11 13  1  0  0  0  0
 13 14  2  0  0  0  0
 13 39  1  0  0  0  0
 14 15  1  0  0  0  0
 14 53  1  0  0  0  0
 15 16  1  0  0  0  0
 15 38  2  0  0  0  0
 16 17  2  0  0  0  0
 17 18  1  0  0  0  0
 17 54  1  0  0  0  0
 18 19  2  0  0  0  0
 18 55  1  0  0  0  0
 19 20  1  0  0  0  0
 19 38  1  0  0  0  0
 20 21  1  0  0  0  0
 21 22  1  0  0  0  0
 21 37  2  0  0  0  0
 22 23  2  0  0  0  0
 22 56  1  0  0  0  0
 23 24  1  0  0  0  0
 23 57  1  0  0  0  0
 24 25  2  0  0  0  0
 24 58  1  0  0  0  0
 25 26  1  0  0  0  0
 25 37  1  0  0  0  0
 26 27  2  0  0  0  0
 26 28  1  0  0  0  0
 28 29  1  0  0  0  0
 28 59  1  0  0  0  0
 29 30  1  0  0  0  0
 29 35  2  0  0  0  0
 30 31  2  0  0  0  0
 30 60  1  0  0  0  0
 31 32  1  0  0  0  0
 31 33  1  0  0  0  0
 32 61  1  0  0  0  0
 32 62  1  0  0  0  0
 32 63  1  0  0  0  0
 33 34  2  0  0  0  0
 33 64  1  0  0  0  0
 34 35  1  0  0  0  0
 34 65  1  0  0  0  0
 35 36  1  0  0  0  0
 37 66  1  0  0  0  0
 38 39  1  0  0  0  0
M  END
$$$$
