CHEMBL3104855
 OpenBabel04072215363D

 40 42  0  0  0  0  0  0  0  0999 V2000
    4.9312    2.7425   -1.4236 C   0  0  0  0  0  0  0  0  0  0  0  0
    4.3670    1.4566   -0.8793 C   0  0  0  0  0  0  0  0  0  0  0  0
    5.1546    0.2875   -0.8559 C   0  0  0  0  0  0  0  0  0  0  0  0
    6.4576    0.1978   -1.2777 O   0  0  0  0  0  0  0  0  0  0  0  0
    4.6290   -0.9203   -0.4129 C   0  0  0  0  0  0  0  0  0  0  0  0
    5.4010   -2.0563   -0.4354 O   0  0  0  0  0  0  0  0  0  0  0  0
    3.3135   -1.0224    0.0033 C   0  0  0  0  0  0  0  0  0  0  0  0
    2.8660   -2.2727    0.3345 O   0  0  0  0  0  0  0  0  0  0  0  0
    2.4882    0.1102   -0.0048 C   0  0  0  0  0  0  0  0  0  0  0  0
    1.0466   -0.0872    0.3447 C   0  0  0  0  0  0  0  0  0  0  0  0
    0.6221   -0.9465    1.1084 O   0  0  0  0  0  0  0  0  0  0  0  0
    3.0010    1.3861   -0.4389 C   0  0  0  0  0  0  0  0  0  0  0  0
    2.1365    2.5994   -0.4065 C   0  0  0  0  0  0  0  0  0  0  0  0
    2.0059    3.8208   -1.0632 C   0  0  0  0  0  0  0  0  0  0  0  0
    0.8580    4.5068   -0.5154 C   0  0  0  0  0  0  0  0  0  0  0  0
    0.1486    5.7328   -0.6956 C   0  0  0  0  0  0  0  0  0  0  0  0
    0.6462    6.7085   -1.7013 C   0  0  0  0  0  0  0  0  0  0  0  0
    1.6609    6.5061   -2.3635 O   0  0  0  0  0  0  0  0  0  0  0  0
   -1.0249    6.0022    0.0891 C   0  0  0  0  0  0  0  0  0  0  0  0
   -1.7979    7.2974    0.0404 C   0  0  0  0  0  0  0  0  0  0  0  0
   -1.4734    5.0085    0.9781 C   0  0  0  0  0  0  0  0  0  0  0  0
   -2.6098    5.1284    1.7469 O   0  0  0  0  0  0  0  0  0  0  0  0
   -0.7922    3.8120    1.1538 C   0  0  0  0  0  0  0  0  0  0  0  0
   -1.2613    2.8527    2.0076 O   0  0  0  0  0  0  0  0  0  0  0  0
    0.3718    3.6251    0.4324 C   0  0  0  0  0  0  0  0  0  0  0  0
    1.1743    2.5483    0.5528 O   0  0  0  0  0  0  0  0  0  0  0  0
    6.0099    2.7223   -1.5834 H   0  0  0  0  0  0  0  0  0  0  0  0
    4.7569    3.5710   -0.7319 H   0  0  0  0  0  0  0  0  0  0  0  0
    4.4729    2.9453   -2.3964 H   0  0  0  0  0  0  0  0  0  0  0  0
    6.7866    1.0563   -1.5808 H   0  0  0  0  0  0  0  0  0  0  0  0
    6.2638   -1.7529   -0.7879 H   0  0  0  0  0  0  0  0  0  0  0  0
    3.6328   -2.8701    0.2245 H   0  0  0  0  0  0  0  0  0  0  0  0
    0.3312    0.5887   -0.1467 H   0  0  0  0  0  0  0  0  0  0  0  0
    2.6284    4.1920   -1.8645 H   0  0  0  0  0  0  0  0  0  0  0  0
    0.0741    7.6283   -1.8672 H   0  0  0  0  0  0  0  0  0  0  0  0
   -1.4232    8.0400   -0.6608 H   0  0  0  0  0  0  0  0  0  0  0  0
   -1.7738    7.7675    1.0318 H   0  0  0  0  0  0  0  0  0  0  0  0
   -2.8427    7.1039   -0.2305 H   0  0  0  0  0  0  0  0  0  0  0  0
   -3.0004    6.0083    1.6550 H   0  0  0  0  0  0  0  0  0  0  0  0
   -2.0911    3.2127    2.3632 H   0  0  0  0  0  0  0  0  0  0  0  0
  1  2  1  0  0  0  0
  1 27  1  0  0  0  0
  1 28  1  0  0  0  0
  1 29  1  0  0  0  0
  2  3  1  0  0  0  0
  2 12  2  0  0  0  0
  3  4  1  0  0  0  0
  3  5  2  0  0  0  0
  4 30  1  0  0  0  0
  5  6  1  0  0  0  0
  5  7  1  0  0  0  0
  6 31  1  0  0  0  0
  7  8  1  0  0  0  0
  7  9  2  0  0  0  0
  8 32  1  0  0  0  0
  9 10  1  0  0  0  0
  9 12  1  0  0  0  0
 10 11  2  0  0  0  0
 10 33  1  0  0  0  0
 12 13  1  0  0  0  0
 13 14  2  0  0  0  0
 13 26  1  0  0  0  0
 14 15  1  0  0  0  0
 14 34  1  0  0  0  0
 15 16  1  0  0  0  0
 15 25  2  0  0  0  0
 16 17  1  0  0  0  0
 16 19  2  0  0  0  0
 17 18  2  0  0  0  0
 17 35  1  0  0  0  0
 19 20  1  0  0  0  0
 19 21  1  0  0  0  0
 20 36  1  0  0  0  0
 20 37  1  0  0  0  0
 20 38  1  0  0  0  0
 21 22  1  0  0  0  0
 21 23  2  0  0  0  0
 22 39  1  0  0  0  0
 23 24  1  0  0  0  0
 23 25  1  0  0  0  0
 24 40  1  0  0  0  0
 25 26  1  0  0  0  0
M  END
$$$$
