CHEMBL2023227
 OpenBabel04072215363D

 52 56  0  0  0  0  0  0  0  0999 V2000
   -2.1352    0.9665    0.9242 C   0  0  0  0  0  0  0  0  0  0  0  0
   -0.7061    0.8434    1.0619 N   0  0  0  0  0  0  0  0  0  0  0  0
   -0.0259    0.1610    2.0273 C   0  0  0  0  0  0  0  0  0  0  0  0
    1.3169    0.2890    1.7259 C   0  0  0  0  0  0  0  0  0  0  0  0
    2.3939   -0.2948    2.5015 C   0  0  0  0  0  0  0  0  0  0  0  0
    2.3045   -0.4267    3.8766 C   0  0  0  0  0  0  0  0  0  0  0  0
    3.2655   -0.9334    4.6627 N   0  0  0  0  0  0  0  0  0  0  0  0
    4.4247   -1.3560    4.1227 C   0  0  0  0  0  0  0  0  0  0  0  0
    5.3305   -1.8029    5.0729 N   0  0  0  0  0  0  0  0  0  0  0  0
    4.6355   -1.3101    2.7094 C   0  0  0  0  0  0  0  0  0  0  0  0
    5.7654   -1.7316    1.8565 C   0  0  0  0  0  0  0  0  0  0  0  0
    7.0263   -2.3829    2.2272 C   0  0  0  0  0  0  0  0  0  0  0  0
    7.0323   -3.3467    3.2308 C   0  0  0  0  0  0  0  0  0  0  0  0
    8.2321   -3.8786    3.7016 C   0  0  0  0  0  0  0  0  0  0  0  0
    9.4531   -3.5651    3.1009 C   0  0  0  0  0  0  0  0  0  0  0  0
   10.6846   -4.0893    3.5566 N   0  0  0  0  0  0  0  0  0  0  0  0
   10.8309   -5.0005    4.5860 C   0  0  0  0  0  0  0  0  0  0  0  0
    9.9098   -5.5379    5.1924 O   0  0  0  0  0  0  0  0  0  0  0  0
   12.1592   -5.2322    4.8989 N   0  0  0  0  0  0  0  0  0  0  0  0
   12.5028   -6.1837    5.8915 C   0  0  0  0  0  0  0  0  0  0  0  0
   11.8354   -7.4066    6.0073 C   0  0  0  0  0  0  0  0  0  0  0  0
   12.1570   -8.2909    7.0424 C   0  0  0  0  0  0  0  0  0  0  0  0
   13.1505   -7.9567    7.9611 C   0  0  0  0  0  0  0  0  0  0  0  0
   13.8349   -6.7476    7.8388 C   0  0  0  0  0  0  0  0  0  0  0  0
   13.5180   -5.8766    6.7980 C   0  0  0  0  0  0  0  0  0  0  0  0
   14.1581   -4.6998    6.7062 F   0  0  0  0  0  0  0  0  0  0  0  0
    9.4472   -2.6873    2.0181 C   0  0  0  0  0  0  0  0  0  0  0  0
    8.2461   -2.0814    1.6011 C   0  0  0  0  0  0  0  0  0  0  0  0
    5.5177   -1.4907    0.5222 C   0  0  0  0  0  0  0  0  0  0  0  0
    4.0013   -0.8102    0.2419 S   0  0  0  0  0  0  0  0  0  0  0  0
    3.5947   -0.7690    1.9232 C   0  0  0  0  0  0  0  0  0  0  0  0
    1.3217    1.1089    0.5724 C   0  0  0  0  0  0  0  0  0  0  0  0
    0.0942    1.4408    0.1654 N   0  0  0  0  0  0  0  0  0  0  0  0
   -2.6231    0.5454    1.8072 H   0  0  0  0  0  0  0  0  0  0  0  0
   -2.4422    0.4175    0.0304 H   0  0  0  0  0  0  0  0  0  0  0  0
   -2.3857    2.0257    0.8312 H   0  0  0  0  0  0  0  0  0  0  0  0
   -0.5460   -0.3603    2.8199 H   0  0  0  0  0  0  0  0  0  0  0  0
    1.4222   -0.0987    4.4205 H   0  0  0  0  0  0  0  0  0  0  0  0
    4.9967   -1.5721    6.0024 H   0  0  0  0  0  0  0  0  0  0  0  0
    6.2964   -1.5728    4.8857 H   0  0  0  0  0  0  0  0  0  0  0  0
    6.1142   -3.6827    3.6991 H   0  0  0  0  0  0  0  0  0  0  0  0
    8.1484   -4.5388    4.5577 H   0  0  0  0  0  0  0  0  0  0  0  0
   11.5119   -3.8590    3.0306 H   0  0  0  0  0  0  0  0  0  0  0  0
   12.7604   -4.4191    4.8518 H   0  0  0  0  0  0  0  0  0  0  0  0
   11.0464   -7.6818    5.3109 H   0  0  0  0  0  0  0  0  0  0  0  0
   11.6158   -9.2312    7.1328 H   0  0  0  0  0  0  0  0  0  0  0  0
   13.3845   -8.6358    8.7739 H   0  0  0  0  0  0  0  0  0  0  0  0
   14.5942   -6.4662    8.5589 H   0  0  0  0  0  0  0  0  0  0  0  0
   10.3655   -2.4405    1.4943 H   0  0  0  0  0  0  0  0  0  0  0  0
    8.2890   -1.3752    0.7744 H   0  0  0  0  0  0  0  0  0  0  0  0
    6.1536   -1.7072   -0.3255 H   0  0  0  0  0  0  0  0  0  0  0  0
    2.1660    1.4847    0.0101 H   0  0  0  0  0  0  0  0  0  0  0  0
  1  2  1  0  0  0  0
  1 34  1  0  0  0  0
  1 35  1  0  0  0  0
  1 36  1  0  0  0  0
  2  3  1  0  0  0  0
  2 33  1  0  0  0  0
  3  4  2  0  0  0  0
  3 37  1  0  0  0  0
  4  5  1  0  0  0  0
  4 32  1  0  0  0  0
  5  6  1  0  0  0  0
  5 31  2  0  0  0  0
  6  7  2  0  0  0  0
  6 38  1  0  0  0  0
  7  8  1  0  0  0  0
  8  9  1  0  0  0  0
  8 10  2  0  0  0  0
  9 39  1  0  0  0  0
  9 40  1  0  0  0  0
 10 11  1  0  0  0  0
 10 31  1  0  0  0  0
 11 12  1  0  0  0  0
 11 29  2  0  0  0  0
 12 13  1  0  0  0  0
 12 28  2  0  0  0  0
 13 14  2  0  0  0  0
 13 41  1  0  0  0  0
 14 15  1  0  0  0  0
 14 42  1  0  0  0  0
 15 16  1  0  0  0  0
 15 27  2  0  0  0  0
 16 17  1  0  0  0  0
 16 43  1  0  0  0  0
 17 18  2  0  0  0  0
 17 19  1  0  0  0  0
 19 20  1  0  0  0  0
 19 44  1  0  0  0  0
 20 21  1  0  0  0  0
 20 25  2  0  0  0  0
 21 22  2  0  0  0  0
 21 45  1  0  0  0  0
 22 23  1  0  0  0  0
 22 46  1  0  0  0  0
 23 24  2  0  0  0  0
 23 47  1  0  0  0  0
 24 25  1  0  0  0  0
 24 48  1  0  0  0  0
 25 26  1  0  0  0  0
 27 28  1  0  0  0  0
 27 49  1  0  0  0  0
 28 50  1  0  0  0  0
 29 30  1  0  0  0  0
 29 51  1  0  0  0  0
 30 31  1  0  0  0  0
 32 33  2  0  0  0  0
 32 52  1  0  0  0  0
M  END
$$$$
