CHEMBL3676372
 OpenBabel04072215373D

 58 60  0  0  0  0  0  0  0  0999 V2000
    2.9886   -0.6036   -2.4494 C   0  0  0  0  0  0  0  0  0  0  0  0
    3.1863   -0.0869   -1.2277 C   0  0  0  0  0  0  0  0  0  0  0  0
    4.0363    1.1212   -1.0865 C   0  0  0  0  0  0  0  0  0  0  0  0
    4.3829    1.7658   -2.0729 O   0  0  0  0  0  0  0  0  0  0  0  0
    4.3351    1.4444    0.2272 N   0  0  0  0  0  0  0  0  0  0  0  0
    5.1179    2.5809    0.5222 C   0  0  0  0  0  0  0  0  0  0  0  0
    6.2768    2.8031   -0.2297 C   0  0  0  0  0  0  0  0  0  0  0  0
    7.0237    3.9889   -0.0835 C   0  0  0  0  0  0  0  0  0  0  0  0
    8.1407    4.3280   -0.8532 C   0  0  0  0  0  0  0  0  0  0  0  0
    8.5944    3.4337   -1.8647 N   0  0  0  0  0  0  0  0  0  0  0  0
    9.8563    3.5630   -2.4841 C   0  0  0  0  0  0  0  0  0  0  0  0
   11.0051    3.7044   -1.6916 C   0  0  0  0  0  0  0  0  0  0  0  0
   12.2395    3.9985   -2.2648 C   0  0  0  0  0  0  0  0  0  0  0  0
   12.3413    4.1436   -3.6479 C   0  0  0  0  0  0  0  0  0  0  0  0
   14.0301    4.6584   -4.3450 Br  0  0  0  0  0  0  0  0  0  0  0  0
   11.2140    3.9429   -4.4542 C   0  0  0  0  0  0  0  0  0  0  0  0
   11.2680    4.0828   -6.1767 Cl  0  0  0  0  0  0  0  0  0  0  0  0
    9.9759    3.6447   -3.8707 C   0  0  0  0  0  0  0  0  0  0  0  0
    8.8010    5.4913   -0.6742 N   0  0  0  0  0  0  0  0  0  0  0  0
    8.3336    6.3095    0.2713 C   0  0  0  0  0  0  0  0  0  0  0  0
    7.2972    6.0684    1.0710 N   0  0  0  0  0  0  0  0  0  0  0  0
    6.6519    4.9162    0.8862 C   0  0  0  0  0  0  0  0  0  0  0  0
    5.5513    4.6443    1.6798 C   0  0  0  0  0  0  0  0  0  0  0  0
    4.7406    3.5104    1.4988 C   0  0  0  0  0  0  0  0  0  0  0  0
    3.5424    3.3300    2.1667 O   0  0  0  0  0  0  0  0  0  0  0  0
    3.0270    4.5424    2.7539 C   0  0  0  0  0  0  0  0  0  0  0  0
    1.5657    4.4220    3.1752 C   0  0  0  0  0  0  0  0  0  0  0  0
    1.0175    5.7172    3.5513 N   0  0  0  0  0  0  0  0  0  0  0  0
    1.1437    6.2506    4.8138 C   0  0  0  0  0  0  0  0  0  0  0  0
    1.7483    5.6798    5.7171 O   0  0  0  0  0  0  0  0  0  0  0  0
    0.5318    7.6513    5.0024 C   0  0  0  0  0  0  0  0  0  0  0  0
   -0.5709    7.9356    4.0433 N   0  0  0  0  0  0  0  0  0  0  0  0
   -1.7323    7.0723    4.3054 C   0  0  0  0  0  0  0  0  0  0  0  0
   -0.9918    9.3366    4.2014 C   0  0  0  0  0  0  0  0  0  0  0  0
    2.3737   -1.4831   -2.5967 H   0  0  0  0  0  0  0  0  0  0  0  0
    3.4402   -0.1599   -3.3355 H   0  0  0  0  0  0  0  0  0  0  0  0
    2.7409   -0.5299   -0.3493 H   0  0  0  0  0  0  0  0  0  0  0  0
    3.7902    1.0487    0.9821 H   0  0  0  0  0  0  0  0  0  0  0  0
    6.5963    2.0529   -0.9508 H   0  0  0  0  0  0  0  0  0  0  0  0
    7.8323    3.2621   -2.5293 H   0  0  0  0  0  0  0  0  0  0  0  0
   10.9269    3.6262   -0.6081 H   0  0  0  0  0  0  0  0  0  0  0  0
   13.0993    4.1448   -1.6168 H   0  0  0  0  0  0  0  0  0  0  0  0
    9.1000    3.5251   -4.5025 H   0  0  0  0  0  0  0  0  0  0  0  0
    8.8489    7.2544    0.3899 H   0  0  0  0  0  0  0  0  0  0  0  0
    5.3148    5.3966    2.4289 H   0  0  0  0  0  0  0  0  0  0  0  0
    3.0811    5.3592    2.0207 H   0  0  0  0  0  0  0  0  0  0  0  0
    3.6244    4.8014    3.6367 H   0  0  0  0  0  0  0  0  0  0  0  0
    1.4731    3.7267    4.0171 H   0  0  0  0  0  0  0  0  0  0  0  0
    0.9553    4.0314    2.3549 H   0  0  0  0  0  0  0  0  0  0  0  0
    0.5812    6.3205    2.8588 H   0  0  0  0  0  0  0  0  0  0  0  0
    1.3522    8.3637    4.8438 H   0  0  0  0  0  0  0  0  0  0  0  0
    0.1870    7.7458    6.0390 H   0  0  0  0  0  0  0  0  0  0  0  0
   -1.4877    6.0125    4.1865 H   0  0  0  0  0  0  0  0  0  0  0  0
   -2.5245    7.2824    3.5781 H   0  0  0  0  0  0  0  0  0  0  0  0
   -2.1382    7.2157    5.3129 H   0  0  0  0  0  0  0  0  0  0  0  0
   -0.1536   10.0206    4.0275 H   0  0  0  0  0  0  0  0  0  0  0  0
   -1.3916    9.5375    5.2029 H   0  0  0  0  0  0  0  0  0  0  0  0
   -1.7641    9.5905    3.4667 H   0  0  0  0  0  0  0  0  0  0  0  0
  1  2  2  0  0  0  0
  1 35  1  0  0  0  0
  1 36  1  0  0  0  0
  2  3  1  0  0  0  0
  2 37  1  0  0  0  0
  3  4  2  0  0  0  0
  3  5  1  0  0  0  0
  5  6  1  0  0  0  0
  5 38  1  0  0  0  0
  6  7  1  0  0  0  0
  6 24  2  0  0  0  0
  7  8  2  0  0  0  0
  7 39  1  0  0  0  0
  8  9  1  0  0  0  0
  8 22  1  0  0  0  0
  9 10  1  0  0  0  0
  9 19  2  0  0  0  0
 10 11  1  0  0  0  0
 10 40  1  0  0  0  0
 11 12  1  0  0  0  0
 11 18  2  0  0  0  0
 12 13  2  0  0  0  0
 12 41  1  0  0  0  0
 13 14  1  0  0  0  0
 13 42  1  0  0  0  0
 14 15  1  0  0  0  0
 14 16  2  0  0  0  0
 16 17  1  0  0  0  0
 16 18  1  0  0  0  0
 18 43  1  0  0  0  0
 19 20  1  0  0  0  0
 20 21  2  0  0  0  0
 20 44  1  0  0  0  0
 21 22  1  0  0  0  0
 22 23  2  0  0  0  0
 23 24  1  0  0  0  0
 23 45  1  0  0  0  0
 24 25  1  0  0  0  0
 25 26  1  0  0  0  0
 26 27  1  0  0  0  0
 26 46  1  0  0  0  0
 26 47  1  0  0  0  0
 27 28  1  0  0  0  0
 27 48  1  0  0  0  0
 27 49  1  0  0  0  0
 28 29  1  0  0  0  0
 28 50  1  0  0  0  0
 29 30  2  0  0  0  0
 29 31  1  0  0  0  0
 31 32  1  0  0  0  0
 31 51  1  0  0  0  0
 31 52  1  0  0  0  0
 32 33  1  0  0  0  0
 32 34  1  0  0  0  0
 33 53  1  0  0  0  0
 33 54  1  0  0  0  0
 33 55  1  0  0  0  0
 34 56  1  0  0  0  0
 34 57  1  0  0  0  0
 34 58  1  0  0  0  0
M  END
$$$$
