CHEMBL4459732
 OpenBabel04072215383D

 39 42  0  0  0  0  0  0  0  0999 V2000
    1.4469   -0.0779    1.4226 F   0  0  0  0  0  0  0  0  0  0  0  0
    0.2792   -0.1736    0.7667 C   0  0  0  0  0  0  0  0  0  0  0  0
   -0.5843    0.9194    0.8217 C   0  0  0  0  0  0  0  0  0  0  0  0
   -1.8035    0.8736    0.1503 C   0  0  0  0  0  0  0  0  0  0  0  0
   -2.1465   -0.2605   -0.5849 C   0  0  0  0  0  0  0  0  0  0  0  0
   -1.2746   -1.3538   -0.6406 C   0  0  0  0  0  0  0  0  0  0  0  0
   -0.0536   -1.3296    0.0495 C   0  0  0  0  0  0  0  0  0  0  0  0
    0.8063   -2.4954    0.0310 C   0  0  0  0  0  0  0  0  0  0  0  0
    1.6935   -2.8691    1.0128 C   0  0  0  0  0  0  0  0  0  0  0  0
    2.2030   -4.0565    0.5751 N   0  0  0  0  0  0  0  0  0  0  0  0
    3.1506   -4.9600    1.2128 C   0  0  0  0  0  0  0  0  0  0  0  0
    3.5840   -4.5120    2.5889 C   0  0  0  0  0  0  0  0  0  0  0  0
    2.8203   -4.8394    3.7145 C   0  0  0  0  0  0  0  0  0  0  0  0
    3.1751   -4.3562    4.9797 C   0  0  0  0  0  0  0  0  0  0  0  0
    4.3054   -3.5386    5.1691 C   0  0  0  0  0  0  0  0  0  0  0  0
    4.6443   -3.0022    6.5007 C   0  0  0  0  0  0  0  0  0  0  0  0
    4.3947   -3.6775    7.6874 C   0  0  0  0  0  0  0  0  0  0  0  0
    4.6529   -3.1983    8.9259 N   0  0  0  0  0  0  0  0  0  0  0  0
    5.2015   -1.9779    8.9713 C   0  0  0  0  0  0  0  0  0  0  0  0
    5.5125   -1.2211    7.9114 N   0  0  0  0  0  0  0  0  0  0  0  0
    5.2209   -1.7566    6.7034 C   0  0  0  0  0  0  0  0  0  0  0  0
    5.0720   -3.2366    4.0293 C   0  0  0  0  0  0  0  0  0  0  0  0
    4.7163   -3.7083    2.7588 C   0  0  0  0  0  0  0  0  0  0  0  0
    1.6759   -4.3936   -0.6203 N   0  0  0  0  0  0  0  0  0  0  0  0
    0.8067   -3.4476   -0.9565 N   0  0  0  0  0  0  0  0  0  0  0  0
   -0.2973    1.7974    1.3920 H   0  0  0  0  0  0  0  0  0  0  0  0
   -2.4839    1.7200    0.1988 H   0  0  0  0  0  0  0  0  0  0  0  0
   -3.0973   -0.2994   -1.1118 H   0  0  0  0  0  0  0  0  0  0  0  0
   -1.5643   -2.2339   -1.2128 H   0  0  0  0  0  0  0  0  0  0  0  0
    1.9670   -2.4189    1.9541 H   0  0  0  0  0  0  0  0  0  0  0  0
    4.0141   -5.0481    0.5437 H   0  0  0  0  0  0  0  0  0  0  0  0
    2.6683   -5.9430    1.2707 H   0  0  0  0  0  0  0  0  0  0  0  0
    1.9248   -5.4500    3.6175 H   0  0  0  0  0  0  0  0  0  0  0  0
    2.5266   -4.6095    5.8164 H   0  0  0  0  0  0  0  0  0  0  0  0
    3.9618   -4.6746    7.6906 H   0  0  0  0  0  0  0  0  0  0  0  0
    5.4096   -1.5654    9.9522 H   0  0  0  0  0  0  0  0  0  0  0  0
    5.4658   -1.1034    5.8697 H   0  0  0  0  0  0  0  0  0  0  0  0
    5.9670   -2.6218    4.1089 H   0  0  0  0  0  0  0  0  0  0  0  0
    5.3253   -3.4243    1.9019 H   0  0  0  0  0  0  0  0  0  0  0  0
  1  2  1  0  0  0  0
  2  3  1  0  0  0  0
  2  7  2  0  0  0  0
  3  4  2  0  0  0  0
  3 26  1  0  0  0  0
  4  5  1  0  0  0  0
  4 27  1  0  0  0  0
  5  6  2  0  0  0  0
  5 28  1  0  0  0  0
  6  7  1  0  0  0  0
  6 29  1  0  0  0  0
  7  8  1  0  0  0  0
  8  9  2  0  0  0  0
  8 25  1  0  0  0  0
  9 10  1  0  0  0  0
  9 30  1  0  0  0  0
 10 11  1  0  0  0  0
 10 24  1  0  0  0  0
 11 12  1  0  0  0  0
 11 31  1  0  0  0  0
 11 32  1  0  0  0  0
 12 13  1  0  0  0  0
 12 23  2  0  0  0  0
 13 14  2  0  0  0  0
 13 33  1  0  0  0  0
 14 15  1  0  0  0  0
 14 34  1  0  0  0  0
 15 16  1  0  0  0  0
 15 22  2  0  0  0  0
 16 17  1  0  0  0  0
 16 21  2  0  0  0  0
 17 18  2  0  0  0  0
 17 35  1  0  0  0  0
 18 19  1  0  0  0  0
 19 20  2  0  0  0  0
 19 36  1  0  0  0  0
 20 21  1  0  0  0  0
 21 37  1  0  0  0  0
 22 23  1  0  0  0  0
 22 38  1  0  0  0  0
 23 39  1  0  0  0  0
 24 25  2  0  0  0  0
M  END
$$$$
