CHEMBL473557
 OpenBabel04072215383D

 40 44  0  0  0  0  0  0  0  0999 V2000
    2.1538    0.0680   -0.0769 F   0  0  0  0  0  0  0  0  0  0  0  0
    0.8118    0.0339   -0.0345 C   0  0  0  0  0  0  0  0  0  0  0  0
    0.1026    1.2354   -0.0448 C   0  0  0  0  0  0  0  0  0  0  0  0
   -1.2996    1.2289   -0.0142 C   0  0  0  0  0  0  0  0  0  0  0  0
   -2.0365    2.5021   -0.0177 C   0  0  0  0  0  0  0  0  0  0  0  0
   -1.5729    3.6289    0.4829 N   0  0  0  0  0  0  0  0  0  0  0  0
   -2.5032    4.6434    0.3224 C   0  0  0  0  0  0  0  0  0  0  0  0
   -2.3581    5.9767    0.7553 C   0  0  0  0  0  0  0  0  0  0  0  0
   -3.3779    6.9019    0.5085 C   0  0  0  0  0  0  0  0  0  0  0  0
   -4.5365    6.5156   -0.1579 C   0  0  0  0  0  0  0  0  0  0  0  0
   -4.7087    5.1966   -0.5887 C   0  0  0  0  0  0  0  0  0  0  0  0
   -3.6766    4.2791   -0.3377 C   0  0  0  0  0  0  0  0  0  0  0  0
   -3.5936    2.6155   -0.7459 S   0  0  0  0  0  0  0  0  0  0  0  0
   -1.9575   -0.0092    0.0344 C   0  0  0  0  0  0  0  0  0  0  0  0
   -1.2369   -1.2056    0.0489 C   0  0  0  0  0  0  0  0  0  0  0  0
    0.1611   -1.2024    0.0388 C   0  0  0  0  0  0  0  0  0  0  0  0
    0.8948   -2.4113    0.0500 N   0  0  0  0  0  0  0  0  0  0  0  0
    0.5651   -3.5488    0.8317 C   0  0  0  0  0  0  0  0  0  0  0  0
   -0.2648   -3.3860    1.8804 N   0  0  0  0  0  0  0  0  0  0  0  0
   -0.5684   -4.4724    2.5906 C   0  0  0  0  0  0  0  0  0  0  0  0
   -0.1379   -5.7143    2.3478 N   0  0  0  0  0  0  0  0  0  0  0  0
    0.6812   -5.8723    1.3050 C   0  0  0  0  0  0  0  0  0  0  0  0
    1.1323   -7.1511    1.0154 C   0  0  0  0  0  0  0  0  0  0  0  0
    1.9966   -7.3896   -0.0509 C   0  0  0  0  0  0  0  0  0  0  0  0
    2.5433   -8.9899   -0.3659 Cl  0  0  0  0  0  0  0  0  0  0  0  0
    2.4198   -6.3446   -0.8619 C   0  0  0  0  0  0  0  0  0  0  0  0
    1.9659   -5.0544   -0.5990 C   0  0  0  0  0  0  0  0  0  0  0  0
    1.0962   -4.8047    0.4921 C   0  0  0  0  0  0  0  0  0  0  0  0
    0.6523    2.1729   -0.0783 H   0  0  0  0  0  0  0  0  0  0  0  0
   -1.4530    6.2747    1.2749 H   0  0  0  0  0  0  0  0  0  0  0  0
   -3.2604    7.9316    0.8387 H   0  0  0  0  0  0  0  0  0  0  0  0
   -5.3205    7.2448   -0.3453 H   0  0  0  0  0  0  0  0  0  0  0  0
   -5.6139    4.8935   -1.1059 H   0  0  0  0  0  0  0  0  0  0  0  0
   -3.0426   -0.0714    0.0792 H   0  0  0  0  0  0  0  0  0  0  0  0
   -1.7822   -2.1457    0.0798 H   0  0  0  0  0  0  0  0  0  0  0  0
    1.8969   -2.2392    0.0843 H   0  0  0  0  0  0  0  0  0  0  0  0
   -1.2221   -4.3336    3.4446 H   0  0  0  0  0  0  0  0  0  0  0  0
    0.7969   -7.9778    1.6379 H   0  0  0  0  0  0  0  0  0  0  0  0
    3.0904   -6.5264   -1.6975 H   0  0  0  0  0  0  0  0  0  0  0  0
    2.2805   -4.2435   -1.2528 H   0  0  0  0  0  0  0  0  0  0  0  0
  1  2  1  0  0  0  0
  2  3  1  0  0  0  0
  2 16  2  0  0  0  0
  3  4  2  0  0  0  0
  3 29  1  0  0  0  0
  4  5  1  0  0  0  0
  4 14  1  0  0  0  0
  5  6  2  0  0  0  0
  5 13  1  0  0  0  0
  6  7  1  0  0  0  0
  7  8  1  0  0  0  0
  7 12  2  0  0  0  0
  8  9  2  0  0  0  0
  8 30  1  0  0  0  0
  9 10  1  0  0  0  0
  9 31  1  0  0  0  0
 10 11  2  0  0  0  0
 10 32  1  0  0  0  0
 11 12  1  0  0  0  0
 11 33  1  0  0  0  0
 12 13  1  0  0  0  0
 14 15  2  0  0  0  0
 14 34  1  0  0  0  0
 15 16  1  0  0  0  0
 15 35  1  0  0  0  0
 16 17  1  0  0  0  0
 17 18  1  0  0  0  0
 17 36  1  0  0  0  0
 18 19  1  0  0  0  0
 18 28  2  0  0  0  0
 19 20  2  0  0  0  0
 20 21  1  0  0  0  0
 20 37  1  0  0  0  0
 21 22  2  0  0  0  0
 22 23  1  0  0  0  0
 22 28  1  0  0  0  0
 23 24  2  0  0  0  0
 23 38  1  0  0  0  0
 24 25  1  0  0  0  0
 24 26  1  0  0  0  0
 26 27  2  0  0  0  0
 26 39  1  0  0  0  0
 27 28  1  0  0  0  0
 27 40  1  0  0  0  0
M  END
$$$$
