CHEMBL2032028
 OpenBabel04072215363D

 67 71  0  0  1  0  0  0  0  0999 V2000
    5.4607   -2.1922   -0.5079 C   0  0  0  0  0  0  0  0  0  0  0  0
    6.5306   -2.4788    0.3893 O   0  0  0  0  0  0  0  0  0  0  0  0
    6.4115   -1.9146    1.6302 C   0  0  0  0  0  0  0  0  0  0  0  0
    5.2092   -1.5511    2.2169 C   0  0  0  0  0  0  0  0  0  0  0  0
    5.2076   -0.9831    3.4858 C   0  0  0  0  0  0  0  0  0  0  0  0
    6.3956   -0.8611    4.2417 C   0  0  0  0  0  0  0  0  0  0  0  0
    6.4493   -0.4501    5.5972 C   0  0  0  0  0  0  0  0  0  0  0  0
    5.3515   -0.1495    6.3868 O   0  0  0  0  0  0  0  0  0  0  0  0
    4.2853   -1.0228    6.4660 C   0  0  0  0  0  0  0  0  0  0  0  0
    4.3286   -2.3684    6.1070 C   0  0  0  0  0  0  0  0  0  0  0  0
    3.1463   -3.1164    6.0386 C   0  0  0  0  0  0  0  0  0  0  0  0
    1.9121   -2.5708    6.4130 C   0  0  0  0  0  0  0  0  0  0  0  0
    0.7020   -3.3015    6.3416 N   0  0  0  0  0  0  0  0  0  0  0  0
    0.5073   -4.4456    5.5795 C   0  0  0  0  0  0  0  0  0  0  0  0
    1.2856   -4.8488    4.7236 O   0  0  0  0  0  0  0  0  0  0  0  0
   -0.7452   -5.1901    5.8527 C   0  0  0  0  0  0  0  0  0  0  0  0
   -1.0827   -6.4369    5.4504 C   0  0  0  0  0  0  0  0  0  0  0  0
   -0.2942   -7.3537    4.5649 C   0  0  0  0  0  0  0  0  0  0  0  0
   -2.3022   -6.8451    5.9975 N   0  0  0  0  0  0  0  0  0  0  0  0
   -3.0988   -8.0280    5.6634 C   0  0  0  0  0  0  0  0  0  0  0  0
   -4.2368   -7.7734    4.6552 C   0  0  3  0  0  0  0  0  0  0  0  0
   -3.7572   -7.3539    3.2715 C   0  0  0  0  0  0  0  0  0  0  0  0
   -5.0368   -8.9581    4.5210 O   0  0  0  0  0  0  0  0  0  0  0  0
   -2.7859   -5.7801    6.7778 N   0  0  0  0  0  0  0  0  0  0  0  0
   -4.0752   -5.7394    7.3275 C   0  0  0  0  0  0  0  0  0  0  0  0
   -5.0231   -4.8236    6.8587 C   0  0  0  0  0  0  0  0  0  0  0  0
   -6.3071   -4.8032    7.4087 C   0  0  0  0  0  0  0  0  0  0  0  0
   -6.6302   -5.6585    8.4619 C   0  0  0  0  0  0  0  0  0  0  0  0
   -5.6788   -6.5519    8.9517 C   0  0  0  0  0  0  0  0  0  0  0  0
   -4.4095   -6.6058    8.3735 C   0  0  0  0  0  0  0  0  0  0  0  0
   -1.9068   -4.7047    6.6466 C   0  0  0  0  0  0  0  0  0  0  0  0
   -1.9868   -3.5689    7.0926 O   0  0  0  0  0  0  0  0  0  0  0  0
    1.8933   -1.2660    6.9116 C   0  0  0  0  0  0  0  0  0  0  0  0
    3.0665   -0.4996    6.9082 C   0  0  0  0  0  0  0  0  0  0  0  0
    2.9949    0.7806    7.3081 F   0  0  0  0  0  0  0  0  0  0  0  0
    7.6812   -0.2733    6.2210 C   0  0  0  0  0  0  0  0  0  0  0  0
    8.8198   -0.5750    5.5039 C   0  0  0  0  0  0  0  0  0  0  0  0
    8.8065   -1.0508    4.2416 N   0  0  0  0  0  0  0  0  0  0  0  0
    7.6201   -1.2005    3.6258 C   0  0  0  0  0  0  0  0  0  0  0  0
    7.6015   -1.7236    2.3374 C   0  0  0  0  0  0  0  0  0  0  0  0
    5.7268   -2.5899   -1.4908 H   0  0  0  0  0  0  0  0  0  0  0  0
    5.3175   -1.1103   -0.6080 H   0  0  0  0  0  0  0  0  0  0  0  0
    4.5327   -2.6833   -0.1966 H   0  0  0  0  0  0  0  0  0  0  0  0
    4.2530   -1.7162    1.7329 H   0  0  0  0  0  0  0  0  0  0  0  0
    4.2502   -0.6762    3.8960 H   0  0  0  0  0  0  0  0  0  0  0  0
    5.2557   -2.8475    5.8046 H   0  0  0  0  0  0  0  0  0  0  0  0
    3.2293   -4.1412    5.6856 H   0  0  0  0  0  0  0  0  0  0  0  0
   -0.1064   -2.9238    6.8372 H   0  0  0  0  0  0  0  0  0  0  0  0
    0.7311   -7.0262    4.3914 H   0  0  0  0  0  0  0  0  0  0  0  0
   -0.7781   -7.4377    3.5864 H   0  0  0  0  0  0  0  0  0  0  0  0
   -0.2226   -8.3532    5.0035 H   0  0  0  0  0  0  0  0  0  0  0  0
   -3.5155   -8.4682    6.5766 H   0  0  0  0  0  0  0  0  0  0  0  0
   -2.4540   -8.8240    5.2698 H   0  0  0  0  0  0  0  0  0  0  0  0
   -4.9076   -7.0013    5.0361 H   0  0  0  0  0  0  0  0  0  0  0  0
   -3.2985   -8.1924    2.7362 H   0  0  0  0  0  0  0  0  0  0  0  0
   -3.0474   -6.5250    3.3129 H   0  0  0  0  0  0  0  0  0  0  0  0
   -4.6118   -7.0291    2.6675 H   0  0  0  0  0  0  0  0  0  0  0  0
   -4.5849   -9.5743    3.9192 H   0  0  0  0  0  0  0  0  0  0  0  0
   -4.7864   -4.1569    6.0342 H   0  0  0  0  0  0  0  0  0  0  0  0
   -7.0564   -4.1196    7.0170 H   0  0  0  0  0  0  0  0  0  0  0  0
   -7.6231   -5.6257    8.9042 H   0  0  0  0  0  0  0  0  0  0  0  0
   -5.9236   -7.2005    9.7889 H   0  0  0  0  0  0  0  0  0  0  0  0
   -3.6682   -7.2932    8.7728 H   0  0  0  0  0  0  0  0  0  0  0  0
    0.9715   -0.7984    7.2422 H   0  0  0  0  0  0  0  0  0  0  0  0
    7.7500    0.0848    7.2415 H   0  0  0  0  0  0  0  0  0  0  0  0
    9.8080   -0.4502    5.9390 H   0  0  0  0  0  0  0  0  0  0  0  0
    8.5452   -1.9983    1.8706 H   0  0  0  0  0  0  0  0  0  0  0  0
  1  2  1  0  0  0  0
  1 41  1  0  0  0  0
  1 42  1  0  0  0  0
  1 43  1  0  0  0  0
  2  3  1  0  0  0  0
  3  4  1  0  0  0  0
  3 40  2  0  0  0  0
  4  5  2  0  0  0  0
  4 44  1  0  0  0  0
  5  6  1  0  0  0  0
  5 45  1  0  0  0  0
  6  7  1  0  0  0  0
  6 39  2  0  0  0  0
  7  8  1  0  0  0  0
  7 36  2  0  0  0  0
  8  9  1  0  0  0  0
  9 10  1  0  0  0  0
  9 34  2  0  0  0  0
 10 11  2  0  0  0  0
 10 46  1  0  0  0  0
 11 12  1  0  0  0  0
 11 47  1  0  0  0  0
 12 13  1  0  0  0  0
 12 33  2  0  0  0  0
 13 14  1  0  0  0  0
 13 48  1  0  0  0  0
 14 15  2  0  0  0  0
 14 16  1  0  0  0  0
 16 17  2  0  0  0  0
 16 31  1  0  0  0  0
 17 18  1  0  0  0  0
 17 19  1  0  0  0  0
 18 49  1  0  0  0  0
 18 50  1  0  0  0  0
 18 51  1  0  0  0  0
 19 20  1  0  0  0  0
 19 24  1  0  0  0  0
 20 21  1  0  0  0  0
 20 52  1  0  0  0  0
 20 53  1  0  0  0  0
 21 22  1  0  0  0  0
 21 23  1  0  0  0  0
 21 54  1  0  0  0  0
 22 55  1  0  0  0  0
 22 56  1  0  0  0  0
 22 57  1  0  0  0  0
 23 58  1  0  0  0  0
 24 25  1  0  0  0  0
 24 31  1  0  0  0  0
 25 26  1  0  0  0  0
 25 30  2  0  0  0  0
 26 27  2  0  0  0  0
 26 59  1  0  0  0  0
 27 28  1  0  0  0  0
 27 60  1  0  0  0  0
 28 29  2  0  0  0  0
 28 61  1  0  0  0  0
 29 30  1  0  0  0  0
 29 62  1  0  0  0  0
 30 63  1  0  0  0  0
 31 32  2  0  0  0  0
 33 34  1  0  0  0  0
 33 64  1  0  0  0  0
 34 35  1  0  0  0  0
 36 37  1  0  0  0  0
 36 65  1  0  0  0  0
 37 38  2  0  0  0  0
 37 66  1  0  0  0  0
 38 39  1  0  0  0  0
 39 40  1  0  0  0  0
 40 67  1  0  0  0  0
M  END
$$$$
