CHEMBL195853
 OpenBabel04072215363D

 55 57  0  0  0  0  0  0  0  0999 V2000
   10.4335    0.1515   -7.7810 C   0  0  0  0  0  0  0  0  0  0  0  0
    9.7277   -0.1245   -6.4694 C   0  0  0  0  0  0  0  0  0  0  0  0
    9.5187    1.1150   -5.7855 O   0  0  0  0  0  0  0  0  0  0  0  0
    8.8341    0.8406   -4.5774 N   0  0  0  0  0  0  0  0  0  0  0  0
    9.6364    0.6379   -3.4770 C   0  0  0  0  0  0  0  0  0  0  0  0
   10.8563    0.5000   -3.5161 O   0  0  0  0  0  0  0  0  0  0  0  0
    8.9380    0.5191   -2.1732 C   0  0  0  0  0  0  0  0  0  0  0  0
    9.5390   -0.2662   -1.1780 C   0  0  0  0  0  0  0  0  0  0  0  0
    8.9694   -0.4077    0.0969 C   0  0  0  0  0  0  0  0  0  0  0  0
    9.6075   -1.1028    1.1520 N   0  0  0  0  0  0  0  0  0  0  0  0
   10.9705   -1.2259    1.3467 C   0  0  0  0  0  0  0  0  0  0  0  0
   11.7671   -0.6248    0.5073 N   0  0  0  0  0  0  0  0  0  0  0  0
   13.1198   -0.7258    0.6033 C   0  0  0  0  0  0  0  0  0  0  0  0
   13.7679   -1.3890    1.4996 N   0  0  0  0  0  0  0  0  0  0  0  0
   12.9721   -1.9951    2.3899 N   0  0  0  0  0  0  0  0  0  0  0  0
   13.4602   -2.7273    3.4167 C   0  0  0  0  0  0  0  0  0  0  0  0
   12.4132   -3.1808    4.1910 C   0  0  0  0  0  0  0  0  0  0  0  0
   12.6236   -3.9513    5.4211 C   0  0  0  0  0  0  0  0  0  0  0  0
   11.7265   -4.3266    6.1644 O   0  0  0  0  0  0  0  0  0  0  0  0
   13.9548   -4.1188    5.6861 O   0  0  0  0  0  0  0  0  0  0  0  0
   14.2924   -4.4024    7.0478 C   0  0  0  0  0  0  0  0  0  0  0  0
   14.4375   -3.0801    7.7806 C   0  0  0  0  0  0  0  0  0  0  0  0
   11.1913   -2.6788    3.5671 C   0  0  0  0  0  0  0  0  0  0  0  0
    9.8065   -2.9175    4.1458 C   0  0  0  0  0  0  0  0  0  0  0  0
    9.1097   -1.6381    4.6108 C   0  0  0  0  0  0  0  0  0  0  0  0
    8.9165   -3.7990    3.2725 C   0  0  0  0  0  0  0  0  0  0  0  0
   11.6001   -1.9652    2.4258 C   0  0  0  0  0  0  0  0  0  0  0  0
    7.7536    0.2506    0.3321 C   0  0  0  0  0  0  0  0  0  0  0  0
    7.1798    0.1542    1.5418 F   0  0  0  0  0  0  0  0  0  0  0  0
    7.1305    1.0222   -0.6472 C   0  0  0  0  0  0  0  0  0  0  0  0
    7.7300    1.1524   -1.8964 C   0  0  0  0  0  0  0  0  0  0  0  0
    7.1216    1.9040   -2.8260 F   0  0  0  0  0  0  0  0  0  0  0  0
   10.6342   -0.7827   -8.3139 H   0  0  0  0  0  0  0  0  0  0  0  0
   11.3816    0.6711   -7.6092 H   0  0  0  0  0  0  0  0  0  0  0  0
    9.8232    0.7979   -8.4192 H   0  0  0  0  0  0  0  0  0  0  0  0
   10.3447   -0.7897   -5.8557 H   0  0  0  0  0  0  0  0  0  0  0  0
    8.7611   -0.6054   -6.6584 H   0  0  0  0  0  0  0  0  0  0  0  0
    7.9205    1.2745   -4.4874 H   0  0  0  0  0  0  0  0  0  0  0  0
   10.4673   -0.7779   -1.4259 H   0  0  0  0  0  0  0  0  0  0  0  0
    8.9951   -1.3273    1.9200 H   0  0  0  0  0  0  0  0  0  0  0  0
   13.6969   -0.1894   -0.1681 H   0  0  0  0  0  0  0  0  0  0  0  0
   14.5297   -2.8426    3.5323 H   0  0  0  0  0  0  0  0  0  0  0  0
   15.2491   -4.9349    7.0473 H   0  0  0  0  0  0  0  0  0  0  0  0
   13.5537   -5.0532    7.5269 H   0  0  0  0  0  0  0  0  0  0  0  0
   15.2367   -2.4825    7.3280 H   0  0  0  0  0  0  0  0  0  0  0  0
   14.6685   -3.2350    8.8369 H   0  0  0  0  0  0  0  0  0  0  0  0
   13.5212   -2.4852    7.7003 H   0  0  0  0  0  0  0  0  0  0  0  0
    9.9263   -3.4971    5.0652 H   0  0  0  0  0  0  0  0  0  0  0  0
    8.9280   -0.9249    3.8070 H   0  0  0  0  0  0  0  0  0  0  0  0
    9.7154   -1.1221    5.3641 H   0  0  0  0  0  0  0  0  0  0  0  0
    8.1417   -1.8727    5.0682 H   0  0  0  0  0  0  0  0  0  0  0  0
    8.5901   -3.3044    2.3574 H   0  0  0  0  0  0  0  0  0  0  0  0
    8.0160   -4.0906    3.8268 H   0  0  0  0  0  0  0  0  0  0  0  0
    9.4378   -4.7199    2.9884 H   0  0  0  0  0  0  0  0  0  0  0  0
    6.1973    1.5308   -0.4317 H   0  0  0  0  0  0  0  0  0  0  0  0
  1  2  1  0  0  0  0
  1 33  1  0  0  0  0
  1 34  1  0  0  0  0
  1 35  1  0  0  0  0
  2  3  1  0  0  0  0
  2 36  1  0  0  0  0
  2 37  1  0  0  0  0
  3  4  1  0  0  0  0
  4  5  1  0  0  0  0
  4 38  1  0  0  0  0
  5  6  2  0  0  0  0
  5  7  1  0  0  0  0
  7  8  1  0  0  0  0
  7 31  2  0  0  0  0
  8  9  2  0  0  0  0
  8 39  1  0  0  0  0
  9 10  1  0  0  0  0
  9 28  1  0  0  0  0
 10 11  1  0  0  0  0
 10 40  1  0  0  0  0
 11 12  2  0  0  0  0
 11 27  1  0  0  0  0
 12 13  1  0  0  0  0
 13 14  2  0  0  0  0
 13 41  1  0  0  0  0
 14 15  1  0  0  0  0
 15 16  1  0  0  0  0
 15 27  1  0  0  0  0
 16 17  2  0  0  0  0
 16 42  1  0  0  0  0
 17 18  1  0  0  0  0
 17 23  1  0  0  0  0
 18 19  2  0  0  0  0
 18 20  1  0  0  0  0
 20 21  1  0  0  0  0
 21 22  1  0  0  0  0
 21 43  1  0  0  0  0
 21 44  1  0  0  0  0
 22 45  1  0  0  0  0
 22 46  1  0  0  0  0
 22 47  1  0  0  0  0
 23 24  1  0  0  0  0
 23 27  2  0  0  0  0
 24 25  1  0  0  0  0
 24 26  1  0  0  0  0
 24 48  1  0  0  0  0
 25 49  1  0  0  0  0
 25 50  1  0  0  0  0
 25 51  1  0  0  0  0
 26 52  1  0  0  0  0
 26 53  1  0  0  0  0
 26 54  1  0  0  0  0
 28 29  1  0  0  0  0
 28 30  2  0  0  0  0
 30 31  1  0  0  0  0
 30 55  1  0  0  0  0
 31 32  1  0  0  0  0
M  END
$$$$
