CHEMBL4435024
 OpenBabel04072215383D

 45 48  0  0  0  0  0  0  0  0999 V2000
    3.5249    0.0261   -0.8346 O   0  0  0  0  0  0  0  0  0  0  0  0
    2.3224   -0.0713   -0.7101 C   0  0  0  0  0  0  0  0  0  0  0  0
    1.5061   -1.1703   -0.8829 N   0  0  0  0  0  0  0  0  0  0  0  0
    0.1742   -0.8353   -0.6484 C   0  0  0  0  0  0  0  0  0  0  0  0
   -0.9267   -1.6646   -0.7221 C   0  0  0  0  0  0  0  0  0  0  0  0
   -2.1762   -1.0941   -0.4460 C   0  0  0  0  0  0  0  0  0  0  0  0
   -2.2867    0.2686   -0.1121 C   0  0  0  0  0  0  0  0  0  0  0  0
   -3.5001    0.7764    0.1404 F   0  0  0  0  0  0  0  0  0  0  0  0
   -1.1729    1.0987   -0.0367 C   0  0  0  0  0  0  0  0  0  0  0  0
    0.0447    0.5129   -0.3073 C   0  0  0  0  0  0  0  0  0  0  0  0
    1.3901    1.0764   -0.3132 C   0  0  0  0  0  0  0  0  0  0  0  0
    1.6886    2.3015   -0.0241 N   0  0  0  0  0  0  0  0  0  0  0  0
    3.0091    2.6578   -0.0747 N   0  0  0  0  0  0  0  0  0  0  0  0
    3.3826    3.9544    0.2602 C   0  0  0  0  0  0  0  0  0  0  0  0
    2.6146    4.8261    0.6592 O   0  0  0  0  0  0  0  0  0  0  0  0
    4.8350    4.2793    0.1341 C   0  0  0  0  0  0  0  0  0  0  0  0
    5.6688    3.6080   -0.7587 C   0  0  0  0  0  0  0  0  0  0  0  0
    7.0206    3.9611   -0.8626 C   0  0  0  0  0  0  0  0  0  0  0  0
    7.5719    4.9910   -0.0924 C   0  0  0  0  0  0  0  0  0  0  0  0
    8.9384    5.3766   -0.1614 N   0  0  0  0  0  0  0  0  0  0  0  0
    9.8934    4.8138   -0.9943 C   0  0  0  0  0  0  0  0  0  0  0  0
    9.6884    3.9395   -1.8324 O   0  0  0  0  0  0  0  0  0  0  0  0
   11.3003    5.3044   -0.8913 C   0  0  0  0  0  0  0  0  0  0  0  0
   11.8474    5.8727    0.2649 C   0  0  0  0  0  0  0  0  0  0  0  0
   13.2124    6.1968    0.3017 C   0  0  0  0  0  0  0  0  0  0  0  0
   14.0264    5.9516   -0.8067 C   0  0  0  0  0  0  0  0  0  0  0  0
   15.7075    6.3081   -0.7360 Cl  0  0  0  0  0  0  0  0  0  0  0  0
   13.4900    5.3989   -1.9637 C   0  0  0  0  0  0  0  0  0  0  0  0
   12.1330    5.0787   -2.0036 C   0  0  0  0  0  0  0  0  0  0  0  0
    6.7285    5.6750    0.7908 C   0  0  0  0  0  0  0  0  0  0  0  0
    5.3713    5.3251    0.8996 C   0  0  0  0  0  0  0  0  0  0  0  0
    1.8491   -2.0821   -1.1489 H   0  0  0  0  0  0  0  0  0  0  0  0
   -0.8436   -2.7148   -0.9792 H   0  0  0  0  0  0  0  0  0  0  0  0
   -3.0794   -1.6985   -0.4868 H   0  0  0  0  0  0  0  0  0  0  0  0
   -1.2623    2.1471    0.2217 H   0  0  0  0  0  0  0  0  0  0  0  0
    3.6993    1.9422   -0.3039 H   0  0  0  0  0  0  0  0  0  0  0  0
    5.2968    2.8252   -1.4134 H   0  0  0  0  0  0  0  0  0  0  0  0
    7.6109    3.4019   -1.5803 H   0  0  0  0  0  0  0  0  0  0  0  0
    9.2112    6.1541    0.4244 H   0  0  0  0  0  0  0  0  0  0  0  0
   11.2550    6.0274    1.1610 H   0  0  0  0  0  0  0  0  0  0  0  0
   13.6448    6.6168    1.2070 H   0  0  0  0  0  0  0  0  0  0  0  0
   14.1161    5.1927   -2.8279 H   0  0  0  0  0  0  0  0  0  0  0  0
   11.7258    4.6228   -2.9058 H   0  0  0  0  0  0  0  0  0  0  0  0
    7.1023    6.4907    1.4043 H   0  0  0  0  0  0  0  0  0  0  0  0
    4.7290    5.8752    1.5858 H   0  0  0  0  0  0  0  0  0  0  0  0
  1  2  2  0  0  0  0
  2  3  1  0  0  0  0
  2 11  1  0  0  0  0
  3  4  1  0  0  0  0
  3 32  1  0  0  0  0
  4  5  1  0  0  0  0
  4 10  2  0  0  0  0
  5  6  2  0  0  0  0
  5 33  1  0  0  0  0
  6  7  1  0  0  0  0
  6 34  1  0  0  0  0
  7  8  1  0  0  0  0
  7  9  2  0  0  0  0
  9 10  1  0  0  0  0
  9 35  1  0  0  0  0
 10 11  1  0  0  0  0
 11 12  2  0  0  0  0
 12 13  1  0  0  0  0
 13 14  1  0  0  0  0
 13 36  1  0  0  0  0
 14 15  2  0  0  0  0
 14 16  1  0  0  0  0
 16 17  1  0  0  0  0
 16 31  2  0  0  0  0
 17 18  2  0  0  0  0
 17 37  1  0  0  0  0
 18 19  1  0  0  0  0
 18 38  1  0  0  0  0
 19 20  1  0  0  0  0
 19 30  2  0  0  0  0
 20 21  1  0  0  0  0
 20 39  1  0  0  0  0
 21 22  2  0  0  0  0
 21 23  1  0  0  0  0
 23 24  1  0  0  0  0
 23 29  2  0  0  0  0
 24 25  2  0  0  0  0
 24 40  1  0  0  0  0
 25 26  1  0  0  0  0
 25 41  1  0  0  0  0
 26 27  1  0  0  0  0
 26 28  2  0  0  0  0
 28 29  1  0  0  0  0
 28 42  1  0  0  0  0
 29 43  1  0  0  0  0
 30 31  1  0  0  0  0
 30 44  1  0  0  0  0
 31 45  1  0  0  0  0
M  END
$$$$
