CHEMBL576982
 OpenBabel04072215383D

 72 77  0  0  0  0  0  0  0  0999 V2000
    0.3812    7.0530   -4.5732 C   0  0  0  0  0  0  0  0  0  0  0  0
    0.9830    5.6404   -4.4574 C   0  0  0  0  0  0  0  0  0  0  0  0
    0.7201    5.1058   -3.0392 C   0  0  0  0  0  0  0  0  0  0  0  0
    0.3001    4.7227   -5.4858 C   0  0  0  0  0  0  0  0  0  0  0  0
    2.4601    5.6678   -4.7179 C   0  0  0  0  0  0  0  0  0  0  0  0
    3.3805    6.6387   -5.0221 C   0  0  0  0  0  0  0  0  0  0  0  0
    4.6173    5.9550   -5.0746 C   0  0  0  0  0  0  0  0  0  0  0  0
    5.8234    6.5626   -5.3061 N   0  0  0  0  0  0  0  0  0  0  0  0
    7.0686    5.9980   -5.3313 C   0  0  0  0  0  0  0  0  0  0  0  0
    8.0214    6.7552   -5.5133 O   0  0  0  0  0  0  0  0  0  0  0  0
    7.1331    4.6387   -5.1788 N   0  0  0  0  0  0  0  0  0  0  0  0
    8.2912    3.8484   -5.2503 C   0  0  0  0  0  0  0  0  0  0  0  0
    9.5700    4.3729   -5.0800 C   0  0  0  0  0  0  0  0  0  0  0  0
   10.6959    3.5947   -5.3401 C   0  0  0  0  0  0  0  0  0  0  0  0
   10.5530    2.2839   -5.7969 C   0  0  0  0  0  0  0  0  0  0  0  0
   11.6970    1.5060   -6.2322 C   0  0  0  0  0  0  0  0  0  0  0  0
   13.0357    1.8268   -6.0363 C   0  0  0  0  0  0  0  0  0  0  0  0
   13.6504    0.6175   -6.1919 N   0  0  0  0  0  0  0  0  0  0  0  0
   12.7765   -0.2025   -6.8623 C   0  0  0  0  0  0  0  0  0  0  0  0
   11.5589    0.2725   -6.8428 N   0  0  0  0  0  0  0  0  0  0  0  0
   13.2721   -1.8667   -6.8434 S   0  0  0  0  0  0  0  0  0  0  0  0
   14.3053   -1.4064   -5.4480 C   0  0  0  0  0  0  0  0  0  0  0  0
   14.3958   -2.1686   -4.3083 C   0  0  0  0  0  0  0  0  0  0  0  0
   14.8536   -1.5844   -3.1137 C   0  0  0  0  0  0  0  0  0  0  0  0
   14.7770   -2.2104   -1.8798 O   0  0  0  0  0  0  0  0  0  0  0  0
   14.2267   -3.5273   -1.9898 C   0  0  0  0  0  0  0  0  0  0  0  0
   14.3262   -4.3787   -0.7275 C   0  0  0  0  0  0  0  0  0  0  0  0
   13.9706   -5.7942   -1.0016 N   0  0  0  0  0  0  0  0  0  0  0  0
   14.1442   -6.6302    0.2071 C   0  0  0  0  0  0  0  0  0  0  0  0
   15.6200   -6.9048    0.5593 C   0  0  0  0  0  0  0  0  0  0  0  0
   16.3493   -7.4632   -0.5433 O   0  0  0  0  0  0  0  0  0  0  0  0
   16.2399   -6.6319   -1.7058 C   0  0  0  0  0  0  0  0  0  0  0  0
   14.7649   -6.4376   -2.0801 C   0  0  0  0  0  0  0  0  0  0  0  0
   15.3327   -0.2630   -3.1186 C   0  0  0  0  0  0  0  0  0  0  0  0
   15.1889    0.5388   -4.2582 C   0  0  0  0  0  0  0  0  0  0  0  0
   14.5730   -0.0388   -5.3623 C   0  0  0  0  0  0  0  0  0  0  0  0
    9.2712    1.7162   -5.8288 C   0  0  0  0  0  0  0  0  0  0  0  0
    8.1430    2.4918   -5.5481 C   0  0  0  0  0  0  0  0  0  0  0  0
    4.4428    4.6458   -4.8732 N   0  0  0  0  0  0  0  0  0  0  0  0
    3.0993    4.4666   -4.6446 O   0  0  0  0  0  0  0  0  0  0  0  0
   -0.7007    7.0387   -4.4010 H   0  0  0  0  0  0  0  0  0  0  0  0
    0.5527    7.4794   -5.5690 H   0  0  0  0  0  0  0  0  0  0  0  0
    0.8229    7.7400   -3.8413 H   0  0  0  0  0  0  0  0  0  0  0  0
   -0.3514    5.0697   -2.8260 H   0  0  0  0  0  0  0  0  0  0  0  0
    1.1824    5.7494   -2.2801 H   0  0  0  0  0  0  0  0  0  0  0  0
    1.1203    4.0906   -2.8977 H   0  0  0  0  0  0  0  0  0  0  0  0
   -0.7859    4.7053   -5.3432 H   0  0  0  0  0  0  0  0  0  0  0  0
    0.6588    3.6891   -5.4046 H   0  0  0  0  0  0  0  0  0  0  0  0
    0.5000    5.0583   -6.5098 H   0  0  0  0  0  0  0  0  0  0  0  0
    3.1955    7.6918   -5.1668 H   0  0  0  0  0  0  0  0  0  0  0  0
    5.8332    7.5613   -5.4448 H   0  0  0  0  0  0  0  0  0  0  0  0
    6.2414    4.1562   -5.2302 H   0  0  0  0  0  0  0  0  0  0  0  0
    9.7224    5.3988   -4.7581 H   0  0  0  0  0  0  0  0  0  0  0  0
   11.6733    4.0482   -5.2151 H   0  0  0  0  0  0  0  0  0  0  0  0
   13.5327    2.6797   -5.6013 H   0  0  0  0  0  0  0  0  0  0  0  0
   13.9487   -3.1551   -4.3555 H   0  0  0  0  0  0  0  0  0  0  0  0
   14.8332   -4.0256   -2.7452 H   0  0  0  0  0  0  0  0  0  0  0  0
   13.1730   -3.4749   -2.2976 H   0  0  0  0  0  0  0  0  0  0  0  0
   13.6281   -3.9704    0.0145 H   0  0  0  0  0  0  0  0  0  0  0  0
   15.3274   -4.2655   -0.2968 H   0  0  0  0  0  0  0  0  0  0  0  0
   13.6504   -7.5908    0.0089 H   0  0  0  0  0  0  0  0  0  0  0  0
   13.6181   -6.1871    1.0599 H   0  0  0  0  0  0  0  0  0  0  0  0
   15.6682   -7.6273    1.3801 H   0  0  0  0  0  0  0  0  0  0  0  0
   16.1275   -5.9945    0.8951 H   0  0  0  0  0  0  0  0  0  0  0  0
   16.7658   -7.1328   -2.5242 H   0  0  0  0  0  0  0  0  0  0  0  0
   16.7516   -5.6786   -1.5252 H   0  0  0  0  0  0  0  0  0  0  0  0
   14.3204   -7.4221   -2.2746 H   0  0  0  0  0  0  0  0  0  0  0  0
   14.6726   -5.9158   -3.0374 H   0  0  0  0  0  0  0  0  0  0  0  0
   15.7187    0.1733   -2.1995 H   0  0  0  0  0  0  0  0  0  0  0  0
   15.4260    1.5970   -4.2154 H   0  0  0  0  0  0  0  0  0  0  0  0
    9.1407    0.6706   -6.1063 H   0  0  0  0  0  0  0  0  0  0  0  0
    7.1590    2.0371   -5.6307 H   0  0  0  0  0  0  0  0  0  0  0  0
  1  2  1  0  0  0  0
  1 41  1  0  0  0  0
  1 42  1  0  0  0  0
  1 43  1  0  0  0  0
  2  3  1  0  0  0  0
  2  4  1  0  0  0  0
  2  5  1  0  0  0  0
  3 44  1  0  0  0  0
  3 45  1  0  0  0  0
  3 46  1  0  0  0  0
  4 47  1  0  0  0  0
  4 48  1  0  0  0  0
  4 49  1  0  0  0  0
  5  6  2  0  0  0  0
  5 40  1  0  0  0  0
  6  7  1  0  0  0  0
  6 50  1  0  0  0  0
  7  8  1  0  0  0  0
  7 39  2  0  0  0  0
  8  9  1  0  0  0  0
  8 51  1  0  0  0  0
  9 10  2  0  0  0  0
  9 11  1  0  0  0  0
 11 12  1  0  0  0  0
 11 52  1  0  0  0  0
 12 13  1  0  0  0  0
 12 38  2  0  0  0  0
 13 14  2  0  0  0  0
 13 53  1  0  0  0  0
 14 15  1  0  0  0  0
 14 54  1  0  0  0  0
 15 16  1  0  0  0  0
 15 37  2  0  0  0  0
 16 17  2  0  0  0  0
 16 20  1  0  0  0  0
 17 18  1  0  0  0  0
 17 55  1  0  0  0  0
 18 19  1  0  0  0  0
 18 36  1  0  0  0  0
 19 20  2  0  0  0  0
 19 21  1  0  0  0  0
 21 22  1  0  0  0  0
 22 23  1  0  0  0  0
 22 36  2  0  0  0  0
 23 24  2  0  0  0  0
 23 56  1  0  0  0  0
 24 25  1  0  0  0  0
 24 34  1  0  0  0  0
 25 26  1  0  0  0  0
 26 27  1  0  0  0  0
 26 57  1  0  0  0  0
 26 58  1  0  0  0  0
 27 28  1  0  0  0  0
 27 59  1  0  0  0  0
 27 60  1  0  0  0  0
 28 29  1  0  0  0  0
 28 33  1  0  0  0  0
 29 30  1  0  0  0  0
 29 61  1  0  0  0  0
 29 62  1  0  0  0  0
 30 31  1  0  0  0  0
 30 63  1  0  0  0  0
 30 64  1  0  0  0  0
 31 32  1  0  0  0  0
 32 33  1  0  0  0  0
 32 65  1  0  0  0  0
 32 66  1  0  0  0  0
 33 67  1  0  0  0  0
 33 68  1  0  0  0  0
 34 35  2  0  0  0  0
 34 69  1  0  0  0  0
 35 36  1  0  0  0  0
 35 70  1  0  0  0  0
 37 38  1  0  0  0  0
 37 71  1  0  0  0  0
 38 72  1  0  0  0  0
 39 40  1  0  0  0  0
M  END
$$$$
