CHEMBL247619
 OpenBabel04072215363D

 55 58  0  0  0  0  0  0  0  0999 V2000
    2.1514   -5.1013    8.9807 C   0  0  0  0  0  0  0  0  0  0  0  0
    2.6080   -4.3619    7.8272 N   0  0  0  0  0  0  0  0  0  0  0  0
    3.3238   -5.0140    6.8458 C   0  0  0  0  0  0  0  0  0  0  0  0
    3.5840   -6.2094    6.8968 O   0  0  0  0  0  0  0  0  0  0  0  0
    3.7382   -4.1403    5.8669 N   0  0  0  0  0  0  0  0  0  0  0  0
    4.5485   -4.5690    4.8094 C   0  0  0  0  0  0  0  0  0  0  0  0
    4.2569   -5.7130    4.0793 C   0  0  0  0  0  0  0  0  0  0  0  0
    5.1502   -6.1274    3.0900 C   0  0  0  0  0  0  0  0  0  0  0  0
    6.3282   -5.4099    2.8710 C   0  0  0  0  0  0  0  0  0  0  0  0
    7.4122   -5.8156    1.9044 C   0  0  0  0  0  0  0  0  0  0  0  0
    7.1111   -7.0319    1.1612 N   0  0  0  0  0  0  0  0  0  0  0  0
    7.7940   -8.2119    1.2599 C   0  0  0  0  0  0  0  0  0  0  0  0
    7.9771   -9.2119    0.3092 C   0  0  0  0  0  0  0  0  0  0  0  0
    7.5772   -9.3039   -1.0831 C   0  0  0  0  0  0  0  0  0  0  0  0
    7.2831  -10.3943   -1.5583 O   0  0  0  0  0  0  0  0  0  0  0  0
    7.6815   -8.1224   -1.8129 N   0  0  0  0  0  0  0  0  0  0  0  0
    7.4581   -8.0084   -3.2104 C   0  0  0  0  0  0  0  0  0  0  0  0
    6.7418   -8.9601   -3.9468 C   0  0  0  0  0  0  0  0  0  0  0  0
    6.5784   -8.8381   -5.3298 C   0  0  0  0  0  0  0  0  0  0  0  0
    7.1297   -7.7572   -6.0046 C   0  0  0  0  0  0  0  0  0  0  0  0
    7.8543   -6.7979   -5.2899 C   0  0  0  0  0  0  0  0  0  0  0  0
    7.9919   -6.9063   -3.8955 C   0  0  0  0  0  0  0  0  0  0  0  0
    8.4754   -5.7261   -5.8851 O   0  0  0  0  0  0  0  0  0  0  0  0
    8.5814   -5.9041   -7.3012 C   0  0  0  0  0  0  0  0  0  0  0  0
    9.6588   -6.7063   -7.5297 F   0  0  0  0  0  0  0  0  0  0  0  0
    8.8918   -4.6931   -7.8368 F   0  0  0  0  0  0  0  0  0  0  0  0
    7.3057   -6.4830   -7.9300 C   0  0  0  0  0  0  0  0  0  0  0  0
    6.2519   -5.6315   -7.7911 F   0  0  0  0  0  0  0  0  0  0  0  0
    7.4554   -6.6857   -9.2669 F   0  0  0  0  0  0  0  0  0  0  0  0
    6.9202   -7.7296   -7.3564 O   0  0  0  0  0  0  0  0  0  0  0  0
    8.6408  -10.2512    0.9961 C   0  0  0  0  0  0  0  0  0  0  0  0
    8.9172   -9.9422    2.2571 N   0  0  0  0  0  0  0  0  0  0  0  0
    8.3472   -8.7315    2.4249 N   0  0  0  0  0  0  0  0  0  0  0  0
    8.2949   -8.2259    3.7771 C   0  0  0  0  0  0  0  0  0  0  0  0
    6.4986   -4.2531    3.6314 C   0  0  0  0  0  0  0  0  0  0  0  0
    5.6242   -3.7977    4.5600 N   0  0  0  0  0  0  0  0  0  0  0  0
    1.4632   -4.4753    9.5518 H   0  0  0  0  0  0  0  0  0  0  0  0
    3.0182   -5.3580    9.5948 H   0  0  0  0  0  0  0  0  0  0  0  0
    1.6488   -6.0192    8.6629 H   0  0  0  0  0  0  0  0  0  0  0  0
    2.0371   -3.5930    7.5049 H   0  0  0  0  0  0  0  0  0  0  0  0
    4.0196   -3.2377    6.2194 H   0  0  0  0  0  0  0  0  0  0  0  0
    3.3557   -6.2858    4.2754 H   0  0  0  0  0  0  0  0  0  0  0  0
    4.9292   -7.0323    2.5290 H   0  0  0  0  0  0  0  0  0  0  0  0
    8.3680   -5.8940    2.4338 H   0  0  0  0  0  0  0  0  0  0  0  0
    7.5345   -5.0059    1.1750 H   0  0  0  0  0  0  0  0  0  0  0  0
    6.5115   -6.8670    0.3523 H   0  0  0  0  0  0  0  0  0  0  0  0
    8.1544   -7.3568   -1.3422 H   0  0  0  0  0  0  0  0  0  0  0  0
    6.2785   -9.8200   -3.4695 H   0  0  0  0  0  0  0  0  0  0  0  0
    6.0190   -9.5975   -5.8711 H   0  0  0  0  0  0  0  0  0  0  0  0
    8.5592   -6.1457   -3.3668 H   0  0  0  0  0  0  0  0  0  0  0  0
    8.9402  -11.2174    0.6082 H   0  0  0  0  0  0  0  0  0  0  0  0
    8.5559   -9.0281    4.4747 H   0  0  0  0  0  0  0  0  0  0  0  0
    7.2820   -7.8909    3.9980 H   0  0  0  0  0  0  0  0  0  0  0  0
    9.0241   -7.4199    3.8748 H   0  0  0  0  0  0  0  0  0  0  0  0
    7.3918   -3.6404    3.5296 H   0  0  0  0  0  0  0  0  0  0  0  0
  1  2  1  0  0  0  0
  1 37  1  0  0  0  0
  1 38  1  0  0  0  0
  1 39  1  0  0  0  0
  2  3  1  0  0  0  0
  2 40  1  0  0  0  0
  3  4  2  0  0  0  0
  3  5  1  0  0  0  0
  5  6  1  0  0  0  0
  5 41  1  0  0  0  0
  6  7  1  0  0  0  0
  6 36  2  0  0  0  0
  7  8  2  0  0  0  0
  7 42  1  0  0  0  0
  8  9  1  0  0  0  0
  8 43  1  0  0  0  0
  9 10  1  0  0  0  0
  9 35  2  0  0  0  0
 10 11  1  0  0  0  0
 10 44  1  0  0  0  0
 10 45  1  0  0  0  0
 11 12  1  0  0  0  0
 11 46  1  0  0  0  0
 12 13  2  0  0  0  0
 12 33  1  0  0  0  0
 13 14  1  0  0  0  0
 13 31  1  0  0  0  0
 14 15  2  0  0  0  0
 14 16  1  0  0  0  0
 16 17  1  0  0  0  0
 16 47  1  0  0  0  0
 17 18  1  0  0  0  0
 17 22  2  0  0  0  0
 18 19  2  0  0  0  0
 18 48  1  0  0  0  0
 19 20  1  0  0  0  0
 19 49  1  0  0  0  0
 20 21  2  0  0  0  0
 20 30  1  0  0  0  0
 21 22  1  0  0  0  0
 21 23  1  0  0  0  0
 22 50  1  0  0  0  0
 23 24  1  0  0  0  0
 24 25  1  0  0  0  0
 24 26  1  0  0  0  0
 24 27  1  0  0  0  0
 27 28  1  0  0  0  0
 27 29  1  0  0  0  0
 27 30  1  0  0  0  0
 31 32  2  0  0  0  0
 31 51  1  0  0  0  0
 32 33  1  0  0  0  0
 33 34  1  0  0  0  0
 34 52  1  0  0  0  0
 34 53  1  0  0  0  0
 34 54  1  0  0  0  0
 35 36  1  0  0  0  0
 35 55  1  0  0  0  0
M  END
$$$$
