CHEMBL1940864
 OpenBabel04072215363D

 36 38  0  0  0  0  0  0  0  0999 V2000
   -2.2498    6.1427    3.9818 C   0  0  0  0  0  0  0  0  0  0  0  0
   -3.0549    5.0363    3.3890 C   0  0  0  0  0  0  0  0  0  0  0  0
   -4.0934    4.3431    3.9680 C   0  0  0  0  0  0  0  0  0  0  0  0
   -4.6319    3.3524    3.0963 C   0  0  0  0  0  0  0  0  0  0  0  0
   -3.9896    3.2989    1.8702 C   0  0  0  0  0  0  0  0  0  0  0  0
   -4.2230    2.4193    0.7211 C   0  0  0  0  0  0  0  0  0  0  0  0
   -3.5766    2.4651   -0.3336 O   0  0  0  0  0  0  0  0  0  0  0  0
   -5.3487    1.4296    0.8308 C   0  0  0  0  0  0  0  0  0  0  0  0
   -5.4420    0.3371    0.0544 C   0  0  0  0  0  0  0  0  0  0  0  0
   -6.5997   -0.5722    0.1341 C   0  0  0  0  0  0  0  0  0  0  0  0
   -7.7106   -0.3391   -0.6855 C   0  0  0  0  0  0  0  0  0  0  0  0
   -8.8365   -1.1886   -0.6375 C   0  0  0  0  0  0  0  0  0  0  0  0
   -9.9664   -0.9747   -1.4483 C   0  0  0  0  0  0  0  0  0  0  0  0
  -11.0604   -1.8353   -1.3808 C   0  0  0  0  0  0  0  0  0  0  0  0
  -11.0352   -2.9169   -0.5078 C   0  0  0  0  0  0  0  0  0  0  0  0
   -9.9148   -3.1415    0.3059 C   0  0  0  0  0  0  0  0  0  0  0  0
   -9.8979   -4.3217    1.2423 C   0  0  0  0  0  0  0  0  0  0  0  0
   -8.8104   -2.2820    0.2554 C   0  0  0  0  0  0  0  0  0  0  0  0
   -7.7568   -2.5052    1.0571 N   0  0  0  0  0  0  0  0  0  0  0  0
   -6.6993   -1.6660    0.9916 C   0  0  0  0  0  0  0  0  0  0  0  0
   -5.4887   -2.0760    2.1434 Cl  0  0  0  0  0  0  0  0  0  0  0  0
   -2.7387    4.4795    1.8021 S   0  0  0  0  0  0  0  0  0  0  0  0
   -2.5786    6.3541    5.0059 H   0  0  0  0  0  0  0  0  0  0  0  0
   -2.3630    7.0637    3.4012 H   0  0  0  0  0  0  0  0  0  0  0  0
   -1.1887    5.8777    4.0230 H   0  0  0  0  0  0  0  0  0  0  0  0
   -4.4560    4.5365    4.9710 H   0  0  0  0  0  0  0  0  0  0  0  0
   -5.4572    2.7152    3.3883 H   0  0  0  0  0  0  0  0  0  0  0  0
   -6.1117    1.6434    1.5677 H   0  0  0  0  0  0  0  0  0  0  0  0
   -4.6744    0.0945   -0.6791 H   0  0  0  0  0  0  0  0  0  0  0  0
   -7.7099    0.5099   -1.3685 H   0  0  0  0  0  0  0  0  0  0  0  0
  -10.0023   -0.1352   -2.1391 H   0  0  0  0  0  0  0  0  0  0  0  0
  -11.9328   -1.6651   -2.0084 H   0  0  0  0  0  0  0  0  0  0  0  0
  -11.8917   -3.5864   -0.4611 H   0  0  0  0  0  0  0  0  0  0  0  0
  -10.8269   -4.8980    1.1823 H   0  0  0  0  0  0  0  0  0  0  0  0
   -9.7833   -3.9840    2.2777 H   0  0  0  0  0  0  0  0  0  0  0  0
   -9.0729   -4.9949    0.9863 H   0  0  0  0  0  0  0  0  0  0  0  0
  1  2  1  0  0  0  0
  1 23  1  0  0  0  0
  1 24  1  0  0  0  0
  1 25  1  0  0  0  0
  2  3  2  0  0  0  0
  2 22  1  0  0  0  0
  3  4  1  0  0  0  0
  3 26  1  0  0  0  0
  4  5  2  0  0  0  0
  4 27  1  0  0  0  0
  5  6  1  0  0  0  0
  5 22  1  0  0  0  0
  6  7  2  0  0  0  0
  6  8  1  0  0  0  0
  8  9  2  0  0  0  0
  8 28  1  0  0  0  0
  9 10  1  0  0  0  0
  9 29  1  0  0  0  0
 10 11  1  0  0  0  0
 10 20  2  0  0  0  0
 11 12  2  0  0  0  0
 11 30  1  0  0  0  0
 12 13  1  0  0  0  0
 12 18  1  0  0  0  0
 13 14  2  0  0  0  0
 13 31  1  0  0  0  0
 14 15  1  0  0  0  0
 14 32  1  0  0  0  0
 15 16  2  0  0  0  0
 15 33  1  0  0  0  0
 16 17  1  0  0  0  0
 16 18  1  0  0  0  0
 17 34  1  0  0  0  0
 17 35  1  0  0  0  0
 17 36  1  0  0  0  0
 18 19  2  0  0  0  0
 19 20  1  0  0  0  0
 20 21  1  0  0  0  0
M  END
$$$$
