CHEMBL3978214
 OpenBabel04072215373D

 56 60  0  0  0  0  0  0  0  0999 V2000
    3.8708   -0.8301   -0.1278 C   0  0  0  0  0  0  0  0  0  0  0  0
    2.6721    0.0882    0.1031 C   0  0  0  0  0  0  0  0  0  0  0  0
    1.4540   -0.7090    0.5771 C   0  0  0  0  0  0  0  0  0  0  0  0
    3.0107    1.2202    1.0592 C   0  0  0  0  0  0  0  0  0  0  0  0
    2.9764    2.5404    0.5859 C   0  0  0  0  0  0  0  0  0  0  0  0
    3.2423    3.6021    1.4415 C   0  0  0  0  0  0  0  0  0  0  0  0
    3.5063    3.3604    2.7884 C   0  0  0  0  0  0  0  0  0  0  0  0
    3.5012    2.0614    3.3037 C   0  0  0  0  0  0  0  0  0  0  0  0
    3.6373    1.7958    4.6933 N   0  0  0  0  0  0  0  0  0  0  0  0
    3.3728    2.7346    5.6835 C   0  0  0  0  0  0  0  0  0  0  0  0
    2.9671    3.8767    5.4866 O   0  0  0  0  0  0  0  0  0  0  0  0
    3.5457    2.3287    7.1073 C   0  0  0  0  0  0  0  0  0  0  0  0
    4.4349    1.3458    7.5307 C   0  0  0  0  0  0  0  0  0  0  0  0
    4.6218    1.1484    8.9008 C   0  0  0  0  0  0  0  0  0  0  0  0
    3.9362    1.9376    9.8393 C   0  0  0  0  0  0  0  0  0  0  0  0
    3.0413    2.9395    9.4455 C   0  0  0  0  0  0  0  0  0  0  0  0
    2.4186    3.7723   10.3577 N   0  0  0  0  0  0  0  0  0  0  0  0
    2.0471    5.1520   10.0046 C   0  0  0  0  0  0  0  0  0  0  0  0
    0.5237    5.2937    9.9397 C   0  0  0  0  0  0  0  0  0  0  0  0
   -0.1359    4.6326   11.1227 C   0  0  0  0  0  0  0  0  0  0  0  0
    0.5380    3.7474   11.8869 C   0  0  0  0  0  0  0  0  0  0  0  0
   -0.2298    3.1776   13.0299 C   0  0  0  0  0  0  0  0  0  0  0  0
   -1.4596    3.4538   13.3434 N   0  0  0  0  0  0  0  0  0  0  0  0
   -2.0912    4.3533   12.5327 C   0  0  0  0  0  0  0  0  0  0  0  0
   -3.3687    4.8642   12.5615 C   0  0  0  0  0  0  0  0  0  0  0  0
   -3.4345    5.7470   11.4743 C   0  0  0  0  0  0  0  0  0  0  0  0
   -2.2935    5.8091   10.7883 N   0  0  0  0  0  0  0  0  0  0  0  0
   -1.4586    4.9455   11.4330 N   0  0  0  0  0  0  0  0  0  0  0  0
    1.9474    3.2861   11.6589 C   0  0  0  0  0  0  0  0  0  0  0  0
    2.8480    3.0892    8.0664 C   0  0  0  0  0  0  0  0  0  0  0  0
    3.3137    0.9910    2.4192 C   0  0  0  0  0  0  0  0  0  0  0  0
    3.6136   -1.6310   -0.8294 H   0  0  0  0  0  0  0  0  0  0  0  0
    4.2119   -1.2960    0.8025 H   0  0  0  0  0  0  0  0  0  0  0  0
    4.7125   -0.2712   -0.5516 H   0  0  0  0  0  0  0  0  0  0  0  0
    2.4045    0.5211   -0.8711 H   0  0  0  0  0  0  0  0  0  0  0  0
    1.6460   -1.2263    1.5230 H   0  0  0  0  0  0  0  0  0  0  0  0
    1.1777   -1.4660   -0.1650 H   0  0  0  0  0  0  0  0  0  0  0  0
    0.5877   -0.0538    0.7233 H   0  0  0  0  0  0  0  0  0  0  0  0
    2.7339    2.7549   -0.4526 H   0  0  0  0  0  0  0  0  0  0  0  0
    3.2194    4.6248    1.0764 H   0  0  0  0  0  0  0  0  0  0  0  0
    3.7090    4.2203    3.4191 H   0  0  0  0  0  0  0  0  0  0  0  0
    3.7173    0.8256    4.9673 H   0  0  0  0  0  0  0  0  0  0  0  0
    5.0264    0.7703    6.8266 H   0  0  0  0  0  0  0  0  0  0  0  0
    5.3411    0.4105    9.2496 H   0  0  0  0  0  0  0  0  0  0  0  0
    4.1659    1.7952   10.8927 H   0  0  0  0  0  0  0  0  0  0  0  0
    2.5018    5.4960    9.0684 H   0  0  0  0  0  0  0  0  0  0  0  0
    2.4444    5.8235   10.7780 H   0  0  0  0  0  0  0  0  0  0  0  0
    0.1430    4.8324    9.0206 H   0  0  0  0  0  0  0  0  0  0  0  0
    0.2761    6.3603    9.9029 H   0  0  0  0  0  0  0  0  0  0  0  0
    0.3196    2.4567   13.6588 H   0  0  0  0  0  0  0  0  0  0  0  0
   -4.1384    4.6230   13.2799 H   0  0  0  0  0  0  0  0  0  0  0  0
   -4.2709    6.3508   11.1535 H   0  0  0  0  0  0  0  0  0  0  0  0
    1.9714    2.1921   11.7128 H   0  0  0  0  0  0  0  0  0  0  0  0
    2.5941    3.6797   12.4512 H   0  0  0  0  0  0  0  0  0  0  0  0
    2.1368    3.8295    7.7037 H   0  0  0  0  0  0  0  0  0  0  0  0
    3.3450   -0.0303    2.7892 H   0  0  0  0  0  0  0  0  0  0  0  0
  1  2  1  0  0  0  0
  1 32  1  0  0  0  0
  1 33  1  0  0  0  0
  1 34  1  0  0  0  0
  2  3  1  0  0  0  0
  2  4  1  0  0  0  0
  2 35  1  0  0  0  0
  3 36  1  0  0  0  0
  3 37  1  0  0  0  0
  3 38  1  0  0  0  0
  4  5  1  0  0  0  0
  4 31  2  0  0  0  0
  5  6  2  0  0  0  0
  5 39  1  0  0  0  0
  6  7  1  0  0  0  0
  6 40  1  0  0  0  0
  7  8  2  0  0  0  0
  7 41  1  0  0  0  0
  8  9  1  0  0  0  0
  8 31  1  0  0  0  0
  9 10  1  0  0  0  0
  9 42  1  0  0  0  0
 10 11  2  0  0  0  0
 10 12  1  0  0  0  0
 12 13  1  0  0  0  0
 12 30  2  0  0  0  0
 13 14  2  0  0  0  0
 13 43  1  0  0  0  0
 14 15  1  0  0  0  0
 14 44  1  0  0  0  0
 15 16  2  0  0  0  0
 15 45  1  0  0  0  0
 16 17  1  0  0  0  0
 16 30  1  0  0  0  0
 17 18  1  0  0  0  0
 17 29  1  0  0  0  0
 18 19  1  0  0  0  0
 18 46  1  0  0  0  0
 18 47  1  0  0  0  0
 19 20  1  0  0  0  0
 19 48  1  0  0  0  0
 19 49  1  0  0  0  0
 20 21  2  0  0  0  0
 20 28  1  0  0  0  0
 21 22  1  0  0  0  0
 21 29  1  0  0  0  0
 22 23  2  0  0  0  0
 22 50  1  0  0  0  0
 23 24  1  0  0  0  0
 24 25  2  0  0  0  0
 24 28  1  0  0  0  0
 25 26  1  0  0  0  0
 25 51  1  0  0  0  0
 26 27  2  0  0  0  0
 26 52  1  0  0  0  0
 27 28  1  0  0  0  0
 29 53  1  0  0  0  0
 29 54  1  0  0  0  0
 30 55  1  0  0  0  0
 31 56  1  0  0  0  0
M  END
$$$$
