CHEMBL3919838
 OpenBabel04072215373D

 53 56  0  0  0  0  0  0  0  0999 V2000
    5.0490   -2.0725   -0.3191 O   0  0  0  0  0  0  0  0  0  0  0  0
    4.3243   -1.0910   -0.2020 C   0  0  0  0  0  0  0  0  0  0  0  0
    3.0277   -1.0219   -0.6769 N   0  0  0  0  0  0  0  0  0  0  0  0
    2.3945   -2.0519   -1.4207 C   0  0  0  0  0  0  0  0  0  0  0  0
    2.8461   -3.3747   -1.4425 C   0  0  0  0  0  0  0  0  0  0  0  0
    2.2324   -4.3286   -2.2578 C   0  0  0  0  0  0  0  0  0  0  0  0
    1.1392   -3.9799   -3.0466 C   0  0  0  0  0  0  0  0  0  0  0  0
    0.6402   -4.9790   -3.8513 O   0  0  0  0  0  0  0  0  0  0  0  0
   -0.7164   -5.0675   -4.0634 C   0  0  0  0  0  0  0  0  0  0  0  0
   -1.6709   -4.6879   -3.1279 C   0  0  0  0  0  0  0  0  0  0  0  0
   -2.9941   -4.8005   -3.4908 C   0  0  0  0  0  0  0  0  0  0  0  0
   -3.4024   -5.3000   -4.6689 N   0  0  0  0  0  0  0  0  0  0  0  0
   -2.4792   -5.7333   -5.5454 C   0  0  0  0  0  0  0  0  0  0  0  0
   -2.8792   -6.2961   -6.7677 N   0  0  0  0  0  0  0  0  0  0  0  0
   -4.1942   -6.4593   -7.1481 C   0  0  0  0  0  0  0  0  0  0  0  0
   -5.1923   -6.1658   -6.5055 O   0  0  0  0  0  0  0  0  0  0  0  0
   -4.4299   -7.0724   -8.4883 C   0  0  0  0  0  0  0  0  0  0  0  0
   -3.9936   -8.4955   -8.7447 C   0  0  0  0  0  0  0  0  0  0  0  0
   -3.3936   -7.3700   -9.5387 C   0  0  0  0  0  0  0  0  0  0  0  0
   -1.1192   -5.6301   -5.2757 C   0  0  0  0  0  0  0  0  0  0  0  0
    0.6719   -2.6639   -3.0350 C   0  0  0  0  0  0  0  0  0  0  0  0
    1.2841   -1.7232   -2.2054 C   0  0  0  0  0  0  0  0  0  0  0  0
    0.8131   -0.4657   -2.1949 F   0  0  0  0  0  0  0  0  0  0  0  0
    4.7373    0.0854    0.3910 N   0  0  0  0  0  0  0  0  0  0  0  0
    6.0847    0.3762    0.7290 C   0  0  0  0  0  0  0  0  0  0  0  0
    7.1766   -0.2907    0.1592 C   0  0  0  0  0  0  0  0  0  0  0  0
    8.4961    0.0347    0.4989 C   0  0  0  0  0  0  0  0  0  0  0  0
    9.4339   -0.7093   -0.1485 O   0  0  0  0  0  0  0  0  0  0  0  0
   10.7090   -0.9280    0.4342 C   0  0  0  0  0  0  0  0  0  0  0  0
   10.8135   -0.5084    1.7120 F   0  0  0  0  0  0  0  0  0  0  0  0
   10.9714   -2.2541    0.4122 F   0  0  0  0  0  0  0  0  0  0  0  0
   11.6479   -0.3022   -0.3078 F   0  0  0  0  0  0  0  0  0  0  0  0
    8.7308    1.0864    1.3799 C   0  0  0  0  0  0  0  0  0  0  0  0
    7.6515    1.7564    1.9671 C   0  0  0  0  0  0  0  0  0  0  0  0
    6.3447    1.3991    1.6398 C   0  0  0  0  0  0  0  0  0  0  0  0
    5.3248    2.0525    2.2176 F   0  0  0  0  0  0  0  0  0  0  0  0
    2.6064   -0.1042   -0.7496 H   0  0  0  0  0  0  0  0  0  0  0  0
    3.6844   -3.7057   -0.8373 H   0  0  0  0  0  0  0  0  0  0  0  0
    2.6229   -5.3435   -2.2749 H   0  0  0  0  0  0  0  0  0  0  0  0
   -1.4113   -4.3017   -2.1501 H   0  0  0  0  0  0  0  0  0  0  0  0
   -3.7919   -4.4819   -2.8267 H   0  0  0  0  0  0  0  0  0  0  0  0
   -2.1568   -6.6168   -7.3893 H   0  0  0  0  0  0  0  0  0  0  0  0
   -5.4115   -6.8009   -8.8753 H   0  0  0  0  0  0  0  0  0  0  0  0
   -4.7096   -9.1503   -9.2293 H   0  0  0  0  0  0  0  0  0  0  0  0
   -3.3787   -8.9902   -8.0017 H   0  0  0  0  0  0  0  0  0  0  0  0
   -3.7026   -7.2636  -10.5744 H   0  0  0  0  0  0  0  0  0  0  0  0
   -2.3532   -7.1254   -9.3809 H   0  0  0  0  0  0  0  0  0  0  0  0
   -0.3699   -5.9761   -5.9823 H   0  0  0  0  0  0  0  0  0  0  0  0
   -0.1554   -2.3495   -3.6624 H   0  0  0  0  0  0  0  0  0  0  0  0
    4.0315    0.6738    0.8155 H   0  0  0  0  0  0  0  0  0  0  0  0
    7.0311   -1.0775   -0.5768 H   0  0  0  0  0  0  0  0  0  0  0  0
    9.7357    1.4215    1.6190 H   0  0  0  0  0  0  0  0  0  0  0  0
    7.8255    2.5607    2.6755 H   0  0  0  0  0  0  0  0  0  0  0  0
  1  2  2  0  0  0  0
  2  3  1  0  0  0  0
  2 24  1  0  0  0  0
  3  4  1  0  0  0  0
  3 37  1  0  0  0  0
  4  5  1  0  0  0  0
  4 22  2  0  0  0  0
  5  6  2  0  0  0  0
  5 38  1  0  0  0  0
  6  7  1  0  0  0  0
  6 39  1  0  0  0  0
  7  8  1  0  0  0  0
  7 21  2  0  0  0  0
  8  9  1  0  0  0  0
  9 10  1  0  0  0  0
  9 20  2  0  0  0  0
 10 11  2  0  0  0  0
 10 40  1  0  0  0  0
 11 12  1  0  0  0  0
 11 41  1  0  0  0  0
 12 13  2  0  0  0  0
 13 14  1  0  0  0  0
 13 20  1  0  0  0  0
 14 15  1  0  0  0  0
 14 42  1  0  0  0  0
 15 16  2  0  0  0  0
 15 17  1  0  0  0  0
 17 18  1  0  0  0  0
 17 19  1  0  0  0  0
 17 43  1  0  0  0  0
 18 19  1  0  0  0  0
 18 44  1  0  0  0  0
 18 45  1  0  0  0  0
 19 46  1  0  0  0  0
 19 47  1  0  0  0  0
 20 48  1  0  0  0  0
 21 22  1  0  0  0  0
 21 49  1  0  0  0  0
 22 23  1  0  0  0  0
 24 25  1  0  0  0  0
 24 50  1  0  0  0  0
 25 26  1  0  0  0  0
 25 35  2  0  0  0  0
 26 27  2  0  0  0  0
 26 51  1  0  0  0  0
 27 28  1  0  0  0  0
 27 33  1  0  0  0  0
 28 29  1  0  0  0  0
 29 30  1  0  0  0  0
 29 31  1  0  0  0  0
 29 32  1  0  0  0  0
 33 34  2  0  0  0  0
 33 52  1  0  0  0  0
 34 35  1  0  0  0  0
 34 53  1  0  0  0  0
 35 36  1  0  0  0  0
M  END
$$$$
