CHEMBL3952709
 OpenBabel04072215373D

 69 72  0  0  1  0  0  0  0  0999 V2000
    1.8657   -1.6898    1.6691 C   0  0  0  0  0  0  0  0  0  0  0  0
    2.0809   -0.6598    0.5496 C   0  0  1  0  0  0  0  0  0  0  0  0
    3.0907    0.3315    0.9325 N   0  0  0  0  0  0  0  0  0  0  0  0
    2.7319    1.1639    2.0017 C   0  0  0  0  0  0  0  0  0  0  0  0
    1.4281    1.3908    2.2980 N   0  0  0  0  0  0  0  0  0  0  0  0
    1.1250    2.1516    3.3668 C   0  0  0  0  0  0  0  0  0  0  0  0
    1.9689    2.7607    4.2096 N   0  0  0  0  0  0  0  0  0  0  0  0
    3.2437    2.5209    3.8764 C   0  0  0  0  0  0  0  0  0  0  0  0
    4.3223    2.9887    4.5589 N   0  0  0  0  0  0  0  0  0  0  0  0
    5.4952    2.5038    4.0160 C   0  0  0  0  0  0  0  0  0  0  0  0
    6.7995    2.7490    4.6306 C   0  0  0  0  0  0  0  0  0  0  0  0
    6.8919    2.8863    6.0175 C   0  0  0  0  0  0  0  0  0  0  0  0
    8.1205    3.1023    6.6365 C   0  0  0  0  0  0  0  0  0  0  0  0
    9.2933    3.1864    5.8906 C   0  0  0  0  0  0  0  0  0  0  0  0
   10.5623    3.3913    6.4788 N   0  0  0  0  0  0  0  0  0  0  0  0
   10.8070    3.5694    7.8296 C   0  0  0  0  0  0  0  0  0  0  0  0
    9.9707    3.6243    8.7271 O   0  0  0  0  0  0  0  0  0  0  0  0
   12.2697    3.7072    8.1744 C   0  0  0  0  0  0  0  0  0  0  0  0
   12.6608    2.5912    9.1432 C   0  0  0  0  0  0  0  0  0  0  0  0
   14.0944    2.7063    9.6531 C   0  0  0  0  0  0  0  0  0  0  0  0
   14.3302    3.9824   10.4619 C   0  0  0  0  0  0  0  0  0  0  0  0
   15.7608    4.0422   10.9842 C   0  0  0  0  0  0  0  0  0  0  0  0
   16.0106    5.3270   11.7677 C   0  0  0  0  0  0  0  0  0  0  0  0
   17.4324    5.3925   12.2805 C   0  0  0  0  0  0  0  0  0  0  0  0
   18.2848    4.5352   12.0718 O   0  0  0  0  0  0  0  0  0  0  0  0
   17.6981    6.5141   13.0205 N   0  0  0  0  0  0  0  0  0  0  0  0
   19.0265    6.6511   13.4801 O   0  0  0  0  0  0  0  0  0  0  0  0
    9.2141    3.0445    4.4994 C   0  0  0  0  0  0  0  0  0  0  0  0
    7.9747    2.8262    3.8756 C   0  0  0  0  0  0  0  0  0  0  0  0
    5.1275    1.7682    2.9008 C   0  0  0  0  0  0  0  0  0  0  0  0
    3.7039    1.7595    2.8147 C   0  0  0  0  0  0  0  0  0  0  0  0
    2.5596   -1.3682   -0.7135 C   0  0  0  0  0  0  0  0  0  0  0  0
    1.7989   -1.3077   -1.8924 C   0  0  0  0  0  0  0  0  0  0  0  0
    2.2082   -1.9958   -3.0373 C   0  0  0  0  0  0  0  0  0  0  0  0
    3.3808   -2.7488   -3.0200 C   0  0  0  0  0  0  0  0  0  0  0  0
    4.1535   -2.8064   -1.8629 C   0  0  0  0  0  0  0  0  0  0  0  0
    3.7494   -2.1154   -0.7202 C   0  0  0  0  0  0  0  0  0  0  0  0
    1.3545   -1.2458    2.5293 H   0  0  0  0  0  0  0  0  0  0  0  0
    2.8161   -2.0930    2.0380 H   0  0  0  0  0  0  0  0  0  0  0  0
    1.2528   -2.5291    1.3232 H   0  0  0  0  0  0  0  0  0  0  0  0
    1.1259   -0.1667    0.3244 H   0  0  0  0  0  0  0  0  0  0  0  0
    3.2868    0.9421    0.1414 H   0  0  0  0  0  0  0  0  0  0  0  0
    0.0670    2.2801    3.5724 H   0  0  0  0  0  0  0  0  0  0  0  0
    4.2497    3.5694    5.3820 H   0  0  0  0  0  0  0  0  0  0  0  0
    6.0169    2.8020    6.6558 H   0  0  0  0  0  0  0  0  0  0  0  0
    8.1114    3.1860    7.7168 H   0  0  0  0  0  0  0  0  0  0  0  0
   11.3506    3.4076    5.8457 H   0  0  0  0  0  0  0  0  0  0  0  0
   12.3761    4.6961    8.6327 H   0  0  0  0  0  0  0  0  0  0  0  0
   12.9062    3.6883    7.2834 H   0  0  0  0  0  0  0  0  0  0  0  0
   12.5381    1.6232    8.6410 H   0  0  0  0  0  0  0  0  0  0  0  0
   11.9771    2.5748   10.0018 H   0  0  0  0  0  0  0  0  0  0  0  0
   14.7898    2.6628    8.8068 H   0  0  0  0  0  0  0  0  0  0  0  0
   14.3066    1.8348   10.2850 H   0  0  0  0  0  0  0  0  0  0  0  0
   13.6246    4.0245   11.3005 H   0  0  0  0  0  0  0  0  0  0  0  0
   14.1497    4.8657    9.8407 H   0  0  0  0  0  0  0  0  0  0  0  0
   16.4604    3.9840   10.1408 H   0  0  0  0  0  0  0  0  0  0  0  0
   15.9595    3.1727   11.6221 H   0  0  0  0  0  0  0  0  0  0  0  0
   15.3257    5.3860   12.6235 H   0  0  0  0  0  0  0  0  0  0  0  0
   15.8324    6.2002   11.1266 H   0  0  0  0  0  0  0  0  0  0  0  0
   17.0830    7.3142   13.1219 H   0  0  0  0  0  0  0  0  0  0  0  0
   19.4424    5.8202   13.1583 H   0  0  0  0  0  0  0  0  0  0  0  0
   10.1053    3.0996    3.8805 H   0  0  0  0  0  0  0  0  0  0  0  0
    7.9404    2.7241    2.7931 H   0  0  0  0  0  0  0  0  0  0  0  0
    5.7996    1.2294    2.2443 H   0  0  0  0  0  0  0  0  0  0  0  0
    0.8748   -0.7342   -1.9244 H   0  0  0  0  0  0  0  0  0  0  0  0
    1.6073   -1.9500   -3.9419 H   0  0  0  0  0  0  0  0  0  0  0  0
    3.6925   -3.2918   -3.9082 H   0  0  0  0  0  0  0  0  0  0  0  0
    5.0681   -3.3926   -1.8456 H   0  0  0  0  0  0  0  0  0  0  0  0
    4.3639   -2.1660    0.1767 H   0  0  0  0  0  0  0  0  0  0  0  0
  1  2  1  0  0  0  0
  1 38  1  0  0  0  0
  1 39  1  0  0  0  0
  1 40  1  0  0  0  0
  2  3  1  0  0  0  0
  2 32  1  0  0  0  0
  2 41  1  6  0  0  0
  3  4  1  0  0  0  0
  3 42  1  0  0  0  0
  4  5  1  0  0  0  0
  4 31  2  0  0  0  0
  5  6  2  0  0  0  0
  6  7  1  0  0  0  0
  6 43  1  0  0  0  0
  7  8  2  0  0  0  0
  8  9  1  0  0  0  0
  8 31  1  0  0  0  0
  9 10  1  0  0  0  0
  9 44  1  0  0  0  0
 10 11  1  0  0  0  0
 10 30  2  0  0  0  0
 11 12  1  0  0  0  0
 11 29  2  0  0  0  0
 12 13  2  0  0  0  0
 12 45  1  0  0  0  0
 13 14  1  0  0  0  0
 13 46  1  0  0  0  0
 14 15  1  0  0  0  0
 14 28  2  0  0  0  0
 15 16  1  0  0  0  0
 15 47  1  0  0  0  0
 16 17  2  0  0  0  0
 16 18  1  0  0  0  0
 18 19  1  0  0  0  0
 18 48  1  0  0  0  0
 18 49  1  0  0  0  0
 19 20  1  0  0  0  0
 19 50  1  0  0  0  0
 19 51  1  0  0  0  0
 20 21  1  0  0  0  0
 20 52  1  0  0  0  0
 20 53  1  0  0  0  0
 21 22  1  0  0  0  0
 21 54  1  0  0  0  0
 21 55  1  0  0  0  0
 22 23  1  0  0  0  0
 22 56  1  0  0  0  0
 22 57  1  0  0  0  0
 23 24  1  0  0  0  0
 23 58  1  0  0  0  0
 23 59  1  0  0  0  0
 24 25  2  0  0  0  0
 24 26  1  0  0  0  0
 26 27  1  0  0  0  0
 26 60  1  0  0  0  0
 27 61  1  0  0  0  0
 28 29  1  0  0  0  0
 28 62  1  0  0  0  0
 29 63  1  0  0  0  0
 30 31  1  0  0  0  0
 30 64  1  0  0  0  0
 32 33  1  0  0  0  0
 32 37  2  0  0  0  0
 33 34  2  0  0  0  0
 33 65  1  0  0  0  0
 34 35  1  0  0  0  0
 34 66  1  0  0  0  0
 35 36  2  0  0  0  0
 35 67  1  0  0  0  0
 36 37  1  0  0  0  0
 36 68  1  0  0  0  0
 37 69  1  0  0  0  0
M  END
$$$$
