CHEMBL188421
 OpenBabel04072215363D

 63 66  0  0  0  0  0  0  0  0999 V2000
    1.2062   -0.0918   -0.1210 C   0  0  0  0  0  0  0  0  0  0  0  0
    2.6492   -0.0068    0.1074 N   0  0  0  0  0  0  0  0  0  0  0  0
    3.3170   -1.2044    0.4085 C   0  0  0  0  0  0  0  0  0  0  0  0
    2.9917   -2.4247   -0.1851 C   0  0  0  0  0  0  0  0  0  0  0  0
    3.7364   -3.5813    0.0907 C   0  0  0  0  0  0  0  0  0  0  0  0
    4.8195   -3.5673    0.9888 C   0  0  0  0  0  0  0  0  0  0  0  0
    5.5867   -4.7406    1.0980 N   0  0  0  0  0  0  0  0  0  0  0  0
    6.8248   -4.9946    1.6228 C   0  0  0  0  0  0  0  0  0  0  0  0
    7.6647   -4.1716    2.1514 N   0  0  0  0  0  0  0  0  0  0  0  0
    7.1527   -6.3283    1.4693 N   0  0  0  0  0  0  0  0  0  0  0  0
    8.1858   -6.9098    2.2491 C   0  0  0  0  0  0  0  0  0  0  0  0
    8.2356   -6.6790    3.6319 C   0  0  0  0  0  0  0  0  0  0  0  0
    9.2873   -7.1610    4.4059 C   0  0  0  0  0  0  0  0  0  0  0  0
   10.2965   -7.9076    3.8085 C   0  0  0  0  0  0  0  0  0  0  0  0
   10.2418   -8.1828    2.4414 C   0  0  0  0  0  0  0  0  0  0  0  0
    9.1866   -7.6930    1.6629 C   0  0  0  0  0  0  0  0  0  0  0  0
    5.1064   -2.3513    1.6076 C   0  0  0  0  0  0  0  0  0  0  0  0
    4.3758   -1.1940    1.3195 C   0  0  0  0  0  0  0  0  0  0  0  0
    3.2425    1.1750   -0.3993 C   0  0  0  0  0  0  0  0  0  0  0  0
    4.5655    1.1978   -0.8126 C   0  0  0  0  0  0  0  0  0  0  0  0
    5.0510    2.3810   -1.3021 C   0  0  0  0  0  0  0  0  0  0  0  0
    4.3238    3.5048   -1.3879 N   0  0  0  0  0  0  0  0  0  0  0  0
    3.0599    3.4218   -0.9564 C   0  0  0  0  0  0  0  0  0  0  0  0
    2.3041    4.5936   -1.0058 N   0  0  0  0  0  0  0  0  0  0  0  0
    1.3265    4.9823   -0.0662 C   0  0  0  0  0  0  0  0  0  0  0  0
    0.3162    5.8569   -0.4559 C   0  0  0  0  0  0  0  0  0  0  0  0
   -0.6787    6.2309    0.4457 C   0  0  0  0  0  0  0  0  0  0  0  0
   -0.6564    5.7536    1.7591 C   0  0  0  0  0  0  0  0  0  0  0  0
    0.3783    4.9166    2.1903 C   0  0  0  0  0  0  0  0  0  0  0  0
    0.4679    4.4513    3.6196 C   0  0  0  0  0  0  0  0  0  0  0  0
   -0.4281    2.9302    3.9025 S   0  0  0  0  0  0  0  0  0  0  0  0
    0.3019    1.7544    2.7959 C   0  0  0  0  0  0  0  0  0  0  0  0
   -0.1028    2.4887    5.2485 O   0  0  0  0  0  0  0  0  0  0  0  0
   -1.8164    3.1058    3.5174 O   0  0  0  0  0  0  0  0  0  0  0  0
    1.3681    4.5489    1.2667 C   0  0  0  0  0  0  0  0  0  0  0  0
    2.5007    2.2954   -0.4801 N   0  0  0  0  0  0  0  0  0  0  0  0
    0.7601   -0.9592    0.3819 H   0  0  0  0  0  0  0  0  0  0  0  0
    0.9774   -0.1529   -1.1898 H   0  0  0  0  0  0  0  0  0  0  0  0
    0.6853    0.7754    0.2855 H   0  0  0  0  0  0  0  0  0  0  0  0
    2.1833   -2.4898   -0.9082 H   0  0  0  0  0  0  0  0  0  0  0  0
    3.4739   -4.4932   -0.4346 H   0  0  0  0  0  0  0  0  0  0  0  0
    5.0418   -5.5792    0.9373 H   0  0  0  0  0  0  0  0  0  0  0  0
    7.3175   -3.2268    2.1542 H   0  0  0  0  0  0  0  0  0  0  0  0
    7.2284   -6.5907    0.4946 H   0  0  0  0  0  0  0  0  0  0  0  0
    7.4649   -6.0742    4.1039 H   0  0  0  0  0  0  0  0  0  0  0  0
    9.3235   -6.9259    5.4662 H   0  0  0  0  0  0  0  0  0  0  0  0
   11.1295   -8.2644    4.4073 H   0  0  0  0  0  0  0  0  0  0  0  0
   11.0371   -8.7611    1.9780 H   0  0  0  0  0  0  0  0  0  0  0  0
    9.1865   -7.8944    0.5958 H   0  0  0  0  0  0  0  0  0  0  0  0
    5.8722   -2.2384    2.3598 H   0  0  0  0  0  0  0  0  0  0  0  0
    4.6450   -0.2702    1.8293 H   0  0  0  0  0  0  0  0  0  0  0  0
    5.1984    0.3233   -0.7797 H   0  0  0  0  0  0  0  0  0  0  0  0
    6.0770    2.4591   -1.6546 H   0  0  0  0  0  0  0  0  0  0  0  0
    2.9178    5.3482   -1.2911 H   0  0  0  0  0  0  0  0  0  0  0  0
    0.2772    6.2247   -1.4798 H   0  0  0  0  0  0  0  0  0  0  0  0
   -1.4788    6.8932    0.1232 H   0  0  0  0  0  0  0  0  0  0  0  0
   -1.4493    6.0516    2.4431 H   0  0  0  0  0  0  0  0  0  0  0  0
    0.0547    5.2024    4.3004 H   0  0  0  0  0  0  0  0  0  0  0  0
    1.5096    4.2767    3.9106 H   0  0  0  0  0  0  0  0  0  0  0  0
    1.3834    1.7381    2.9436 H   0  0  0  0  0  0  0  0  0  0  0  0
    0.0412    2.0496    1.7816 H   0  0  0  0  0  0  0  0  0  0  0  0
   -0.1146    0.7678    3.0111 H   0  0  0  0  0  0  0  0  0  0  0  0
    2.1891    3.9135    1.5931 H   0  0  0  0  0  0  0  0  0  0  0  0
  1  2  1  0  0  0  0
  1 37  1  0  0  0  0
  1 38  1  0  0  0  0
  1 39  1  0  0  0  0
  2  3  1  0  0  0  0
  2 19  1  0  0  0  0
  3  4  1  0  0  0  0
  3 18  2  0  0  0  0
  4  5  2  0  0  0  0
  4 40  1  0  0  0  0
  5  6  1  0  0  0  0
  5 41  1  0  0  0  0
  6  7  1  0  0  0  0
  6 17  2  0  0  0  0
  7  8  1  0  0  0  0
  7 42  1  0  0  0  0
  8  9  2  0  0  0  0
  8 10  1  0  0  0  0
  9 43  1  0  0  0  0
 10 11  1  0  0  0  0
 10 44  1  0  0  0  0
 11 12  1  0  0  0  0
 11 16  2  0  0  0  0
 12 13  2  0  0  0  0
 12 45  1  0  0  0  0
 13 14  1  0  0  0  0
 13 46  1  0  0  0  0
 14 15  2  0  0  0  0
 14 47  1  0  0  0  0
 15 16  1  0  0  0  0
 15 48  1  0  0  0  0
 16 49  1  0  0  0  0
 17 18  1  0  0  0  0
 17 50  1  0  0  0  0
 18 51  1  0  0  0  0
 19 20  1  0  0  0  0
 19 36  2  0  0  0  0
 20 21  2  0  0  0  0
 20 52  1  0  0  0  0
 21 22  1  0  0  0  0
 21 53  1  0  0  0  0
 22 23  2  0  0  0  0
 23 24  1  0  0  0  0
 23 36  1  0  0  0  0
 24 25  1  0  0  0  0
 24 54  1  0  0  0  0
 25 26  1  0  0  0  0
 25 35  2  0  0  0  0
 26 27  2  0  0  0  0
 26 55  1  0  0  0  0
 27 28  1  0  0  0  0
 27 56  1  0  0  0  0
 28 29  2  0  0  0  0
 28 57  1  0  0  0  0
 29 30  1  0  0  0  0
 29 35  1  0  0  0  0
 30 31  1  0  0  0  0
 30 58  1  0  0  0  0
 30 59  1  0  0  0  0
 31 32  1  0  0  0  0
 31 33  2  0  0  0  0
 31 34  2  0  0  0  0
 32 60  1  0  0  0  0
 32 61  1  0  0  0  0
 32 62  1  0  0  0  0
 35 63  1  0  0  0  0
M  END
$$$$
