CHEMBL1092754
 OpenBabel04072215363D

 55 59  0  0  0  0  0  0  0  0999 V2000
    1.1850   -0.8209   -0.8496 C   0  0  0  0  0  0  0  0  0  0  0  0
    2.6149   -0.6374   -0.7813 N   0  0  0  0  0  0  0  0  0  0  0  0
    3.2612    0.5560   -0.9298 C   0  0  0  0  0  0  0  0  0  0  0  0
    4.5460    0.3831   -0.4455 C   0  0  0  0  0  0  0  0  0  0  0  0
    5.3233    1.5332   -0.0539 C   0  0  0  0  0  0  0  0  0  0  0  0
    5.1146    2.0633    1.1796 C   0  0  0  0  0  0  0  0  0  0  0  0
    4.6456    1.2627    2.2359 O   0  0  0  0  0  0  0  0  0  0  0  0
    3.3139    1.5914    2.3827 C   0  0  0  0  0  0  0  0  0  0  0  0
    2.3824    0.7252    2.9180 C   0  0  0  0  0  0  0  0  0  0  0  0
    1.0391    0.9855    2.6471 C   0  0  0  0  0  0  0  0  0  0  0  0
    0.6636    2.0910    1.8564 C   0  0  0  0  0  0  0  0  0  0  0  0
    1.6297    2.9676    1.3505 C   0  0  0  0  0  0  0  0  0  0  0  0
    1.2893    3.9378    0.4605 O   0  0  0  0  0  0  0  0  0  0  0  0
    2.9529    2.7280    1.6582 C   0  0  0  0  0  0  0  0  0  0  0  0
    4.1784    3.2328    1.0139 C   0  0  0  0  0  0  0  0  0  0  0  0
    4.3728    4.2572    0.3998 O   0  0  0  0  0  0  0  0  0  0  0  0
    4.7695   -1.0167   -0.2621 C   0  0  0  0  0  0  0  0  0  0  0  0
    5.8528   -1.8701    0.0791 C   0  0  0  0  0  0  0  0  0  0  0  0
    7.2378   -1.3670    0.1719 C   0  0  0  0  0  0  0  0  0  0  0  0
    8.1507   -1.8751    1.1134 C   0  0  0  0  0  0  0  0  0  0  0  0
    9.4635   -1.3889    1.1909 C   0  0  0  0  0  0  0  0  0  0  0  0
    9.8771   -0.3519    0.3527 C   0  0  0  0  0  0  0  0  0  0  0  0
   11.2594    0.1815    0.4720 C   0  0  0  0  0  0  0  0  0  0  0  0
   12.1806   -0.5690    0.7600 O   0  0  0  0  0  0  0  0  0  0  0  0
   11.4049    1.5278    0.2401 N   0  0  0  0  0  0  0  0  0  0  0  0
   12.7050    2.1770    0.3061 C   0  0  0  0  0  0  0  0  0  0  0  0
   13.4340    2.1188   -1.0356 C   0  0  0  0  0  0  0  0  0  0  0  0
   12.6801    2.8095   -2.0328 O   0  0  0  0  0  0  0  0  0  0  0  0
    9.0008    0.1473   -0.6089 C   0  0  0  0  0  0  0  0  0  0  0  0
    7.7145   -0.3838   -0.7147 C   0  0  0  0  0  0  0  0  0  0  0  0
    5.5359   -3.2303    0.2582 C   0  0  0  0  0  0  0  0  0  0  0  0
    4.2302   -3.6716    0.1014 C   0  0  0  0  0  0  0  0  0  0  0  0
    3.1821   -2.9024   -0.2409 N   0  0  0  0  0  0  0  0  0  0  0  0
    3.5113   -1.6101   -0.4249 C   0  0  0  0  0  0  0  0  0  0  0  0
    0.7168    0.0920   -1.2280 H   0  0  0  0  0  0  0  0  0  0  0  0
    0.8205   -1.0228    0.1621 H   0  0  0  0  0  0  0  0  0  0  0  0
    0.9627   -1.6579   -1.5136 H   0  0  0  0  0  0  0  0  0  0  0  0
    2.7213    1.4552   -1.2027 H   0  0  0  0  0  0  0  0  0  0  0  0
    5.5371    2.2286   -0.8677 H   0  0  0  0  0  0  0  0  0  0  0  0
    2.6929   -0.1799    3.4293 H   0  0  0  0  0  0  0  0  0  0  0  0
    0.2815    0.2840    2.9908 H   0  0  0  0  0  0  0  0  0  0  0  0
   -0.3860    2.2140    1.6030 H   0  0  0  0  0  0  0  0  0  0  0  0
    0.3731    3.8080    0.1659 H   0  0  0  0  0  0  0  0  0  0  0  0
    7.8517   -2.6601    1.8055 H   0  0  0  0  0  0  0  0  0  0  0  0
   10.1548   -1.8157    1.9152 H   0  0  0  0  0  0  0  0  0  0  0  0
   10.5872    2.1164    0.1528 H   0  0  0  0  0  0  0  0  0  0  0  0
   13.3089    1.7011    1.0851 H   0  0  0  0  0  0  0  0  0  0  0  0
   12.5145    3.2170    0.5886 H   0  0  0  0  0  0  0  0  0  0  0  0
   13.5858    1.0886   -1.3731 H   0  0  0  0  0  0  0  0  0  0  0  0
   14.4097    2.6066   -0.9562 H   0  0  0  0  0  0  0  0  0  0  0  0
   11.8536    2.3065   -2.1348 H   0  0  0  0  0  0  0  0  0  0  0  0
    9.3054    0.9219   -1.3055 H   0  0  0  0  0  0  0  0  0  0  0  0
    7.0774   -0.0100   -1.5138 H   0  0  0  0  0  0  0  0  0  0  0  0
    6.3049   -3.9571    0.4980 H   0  0  0  0  0  0  0  0  0  0  0  0
    3.9878   -4.7217    0.2453 H   0  0  0  0  0  0  0  0  0  0  0  0
  1  2  1  0  0  0  0
  1 35  1  0  0  0  0
  1 36  1  0  0  0  0
  1 37  1  0  0  0  0
  2  3  1  0  0  0  0
  2 34  1  0  0  0  0
  3  4  2  0  0  0  0
  3 38  1  0  0  0  0
  4  5  1  0  0  0  0
  4 17  1  0  0  0  0
  5  6  2  0  0  0  0
  5 39  1  0  0  0  0
  6  7  1  0  0  0  0
  6 15  1  0  0  0  0
  7  8  1  0  0  0  0
  8  9  1  0  0  0  0
  8 14  2  0  0  0  0
  9 10  2  0  0  0  0
  9 40  1  0  0  0  0
 10 11  1  0  0  0  0
 10 41  1  0  0  0  0
 11 12  2  0  0  0  0
 11 42  1  0  0  0  0
 12 13  1  0  0  0  0
 12 14  1  0  0  0  0
 13 43  1  0  0  0  0
 14 15  1  0  0  0  0
 15 16  2  0  0  0  0
 17 18  1  0  0  0  0
 17 34  2  0  0  0  0
 18 19  1  0  0  0  0
 18 31  2  0  0  0  0
 19 20  1  0  0  0  0
 19 30  2  0  0  0  0
 20 21  2  0  0  0  0
 20 44  1  0  0  0  0
 21 22  1  0  0  0  0
 21 45  1  0  0  0  0
 22 23  1  0  0  0  0
 22 29  2  0  0  0  0
 23 24  2  0  0  0  0
 23 25  1  0  0  0  0
 25 26  1  0  0  0  0
 25 46  1  0  0  0  0
 26 27  1  0  0  0  0
 26 47  1  0  0  0  0
 26 48  1  0  0  0  0
 27 28  1  0  0  0  0
 27 49  1  0  0  0  0
 27 50  1  0  0  0  0
 28 51  1  0  0  0  0
 29 30  1  0  0  0  0
 29 52  1  0  0  0  0
 30 53  1  0  0  0  0
 31 32  1  0  0  0  0
 31 54  1  0  0  0  0
 32 33  2  0  0  0  0
 32 55  1  0  0  0  0
 33 34  1  0  0  0  0
M  END
$$$$
