CHEMBL198155
 OpenBabel04072215363D

 54 57  0  0  0  0  0  0  0  0999 V2000
    4.4458    9.1619   -0.8716 C   0  0  0  0  0  0  0  0  0  0  0  0
    5.4120    8.1186   -0.9677 O   0  0  0  0  0  0  0  0  0  0  0  0
    5.0292    7.0209   -0.1404 C   0  0  0  0  0  0  0  0  0  0  0  0
    5.9679    5.8380   -0.3726 C   0  0  0  0  0  0  0  0  0  0  0  0
    5.5235    4.6104    0.3904 C   0  0  0  0  0  0  0  0  0  0  0  0
    6.5845    4.0618    1.6218 S   0  0  0  0  0  0  0  0  0  0  0  0
    5.5246    2.8418    2.1159 C   0  0  0  0  0  0  0  0  0  0  0  0
    5.8602    2.0783    3.1698 N   0  0  0  0  0  0  0  0  0  0  0  0
    4.9325    1.1720    3.4596 C   0  0  0  0  0  0  0  0  0  0  0  0
    3.7872    0.9549    2.8083 N   0  0  0  0  0  0  0  0  0  0  0  0
    3.4890    1.7235    1.7420 C   0  0  0  0  0  0  0  0  0  0  0  0
    2.2855    1.3952    1.1357 N   0  0  0  0  0  0  0  0  0  0  0  0
    4.3731    2.7628    1.3480 C   0  0  0  0  0  0  0  0  0  0  0  0
    4.3640    3.8305    0.3231 C   0  0  0  0  0  0  0  0  0  0  0  0
    3.2615    4.1218   -0.6205 C   0  0  0  0  0  0  0  0  0  0  0  0
    1.9442    3.9915   -0.1857 C   0  0  0  0  0  0  0  0  0  0  0  0
    0.8776    4.0113   -1.0853 C   0  0  0  0  0  0  0  0  0  0  0  0
    1.0669    4.3329   -2.4266 C   0  0  0  0  0  0  0  0  0  0  0  0
    0.0202    4.3272   -3.3768 N   0  0  0  0  0  0  0  0  0  0  0  0
   -1.2981    4.0028   -3.1134 C   0  0  0  0  0  0  0  0  0  0  0  0
   -1.7617    3.7918   -1.9987 O   0  0  0  0  0  0  0  0  0  0  0  0
   -2.0489    3.8594   -4.2741 N   0  0  0  0  0  0  0  0  0  0  0  0
   -3.4209    3.5116   -4.1982 C   0  0  0  0  0  0  0  0  0  0  0  0
   -3.9224    2.5421   -5.0656 C   0  0  0  0  0  0  0  0  0  0  0  0
   -5.2414    2.1040   -4.9264 C   0  0  0  0  0  0  0  0  0  0  0  0
   -6.0766    2.6686   -3.9593 C   0  0  0  0  0  0  0  0  0  0  0  0
   -5.6018    3.6799   -3.1205 C   0  0  0  0  0  0  0  0  0  0  0  0
   -6.4858    4.3206   -2.0915 C   0  0  0  0  0  0  0  0  0  0  0  0
   -4.2687    4.0907   -3.2452 C   0  0  0  0  0  0  0  0  0  0  0  0
    2.3642    4.6350   -2.8451 C   0  0  0  0  0  0  0  0  0  0  0  0
    3.4535    4.4878   -1.9616 C   0  0  0  0  0  0  0  0  0  0  0  0
    4.8196   10.0373   -1.4067 H   0  0  0  0  0  0  0  0  0  0  0  0
    4.2752    9.4324    0.1755 H   0  0  0  0  0  0  0  0  0  0  0  0
    3.5047    8.8434   -1.3322 H   0  0  0  0  0  0  0  0  0  0  0  0
    3.9951    6.7493   -0.3797 H   0  0  0  0  0  0  0  0  0  0  0  0
    5.0589    7.3292    0.9183 H   0  0  0  0  0  0  0  0  0  0  0  0
    6.9799    6.1464   -0.0720 H   0  0  0  0  0  0  0  0  0  0  0  0
    6.0757    5.6112   -1.4386 H   0  0  0  0  0  0  0  0  0  0  0  0
    5.1266    0.5306    4.3113 H   0  0  0  0  0  0  0  0  0  0  0  0
    1.9191    0.5225    1.4956 H   0  0  0  0  0  0  0  0  0  0  0  0
    2.2570    1.5064    0.1315 H   0  0  0  0  0  0  0  0  0  0  0  0
    1.7123    3.7886    0.8579 H   0  0  0  0  0  0  0  0  0  0  0  0
   -0.0909    3.7470   -0.6761 H   0  0  0  0  0  0  0  0  0  0  0  0
    0.2392    4.6187   -4.3167 H   0  0  0  0  0  0  0  0  0  0  0  0
   -1.5445    3.5129   -5.0771 H   0  0  0  0  0  0  0  0  0  0  0  0
   -3.2841    2.0675   -5.8042 H   0  0  0  0  0  0  0  0  0  0  0  0
   -5.6167    1.3049   -5.5601 H   0  0  0  0  0  0  0  0  0  0  0  0
   -7.0984    2.3095   -3.8615 H   0  0  0  0  0  0  0  0  0  0  0  0
   -7.4899    3.8839   -2.0958 H   0  0  0  0  0  0  0  0  0  0  0  0
   -6.5859    5.3914   -2.2981 H   0  0  0  0  0  0  0  0  0  0  0  0
   -6.0662    4.1870   -1.0888 H   0  0  0  0  0  0  0  0  0  0  0  0
   -3.8909    4.8618   -2.5759 H   0  0  0  0  0  0  0  0  0  0  0  0
    2.5627    4.9490   -3.8668 H   0  0  0  0  0  0  0  0  0  0  0  0
    4.4468    4.6581   -2.3635 H   0  0  0  0  0  0  0  0  0  0  0  0
  1  2  1  0  0  0  0
  1 32  1  0  0  0  0
  1 33  1  0  0  0  0
  1 34  1  0  0  0  0
  2  3  1  0  0  0  0
  3  4  1  0  0  0  0
  3 35  1  0  0  0  0
  3 36  1  0  0  0  0
  4  5  1  0  0  0  0
  4 37  1  0  0  0  0
  4 38  1  0  0  0  0
  5  6  1  0  0  0  0
  5 14  2  0  0  0  0
  6  7  1  0  0  0  0
  7  8  1  0  0  0  0
  7 13  2  0  0  0  0
  8  9  2  0  0  0  0
  9 10  1  0  0  0  0
  9 39  1  0  0  0  0
 10 11  2  0  0  0  0
 11 12  1  0  0  0  0
 11 13  1  0  0  0  0
 12 40  1  0  0  0  0
 12 41  1  0  0  0  0
 13 14  1  0  0  0  0
 14 15  1  0  0  0  0
 15 16  1  0  0  0  0
 15 31  2  0  0  0  0
 16 17  2  0  0  0  0
 16 42  1  0  0  0  0
 17 18  1  0  0  0  0
 17 43  1  0  0  0  0
 18 19  1  0  0  0  0
 18 30  2  0  0  0  0
 19 20  1  0  0  0  0
 19 44  1  0  0  0  0
 20 21  2  0  0  0  0
 20 22  1  0  0  0  0
 22 23  1  0  0  0  0
 22 45  1  0  0  0  0
 23 24  1  0  0  0  0
 23 29  2  0  0  0  0
 24 25  2  0  0  0  0
 24 46  1  0  0  0  0
 25 26  1  0  0  0  0
 25 47  1  0  0  0  0
 26 27  2  0  0  0  0
 26 48  1  0  0  0  0
 27 28  1  0  0  0  0
 27 29  1  0  0  0  0
 28 49  1  0  0  0  0
 28 50  1  0  0  0  0
 28 51  1  0  0  0  0
 29 52  1  0  0  0  0
 30 31  1  0  0  0  0
 30 53  1  0  0  0  0
 31 54  1  0  0  0  0
M  END
$$$$
