CHEMBL2203321
 OpenBabel04072215363D

 44 47  0  0  0  0  0  0  0  0999 V2000
    2.6969    0.5247   -1.2132 O   0  0  0  0  0  0  0  0  0  0  0  0
    2.3277    0.4749   -0.0450 C   0  0  0  0  0  0  0  0  0  0  0  0
    0.9938    0.4020    0.3333 N   0  0  0  0  0  0  0  0  0  0  0  0
   -0.1005    0.4292   -0.5708 C   0  0  0  0  0  0  0  0  0  0  0  0
    0.0317    0.1887   -1.9421 C   0  0  0  0  0  0  0  0  0  0  0  0
   -1.0448    0.3653   -2.8139 C   0  0  0  0  0  0  0  0  0  0  0  0
   -2.2924    0.7649   -2.3300 C   0  0  0  0  0  0  0  0  0  0  0  0
   -3.4344    1.0344   -3.2772 C   0  0  0  0  0  0  0  0  0  0  0  0
   -3.1073    0.8689   -4.5903 F   0  0  0  0  0  0  0  0  0  0  0  0
   -4.5030    0.2210   -3.0539 F   0  0  0  0  0  0  0  0  0  0  0  0
   -3.9056    2.3087   -3.1720 F   0  0  0  0  0  0  0  0  0  0  0  0
   -2.4504    0.9290   -0.9450 C   0  0  0  0  0  0  0  0  0  0  0  0
   -1.3659    0.7540   -0.0722 C   0  0  0  0  0  0  0  0  0  0  0  0
    3.1858    0.5171    1.0450 N   0  0  0  0  0  0  0  0  0  0  0  0
    4.5982    0.6714    0.9833 C   0  0  0  0  0  0  0  0  0  0  0  0
    5.2892    0.8634   -0.2207 C   0  0  0  0  0  0  0  0  0  0  0  0
    6.6806    0.9475   -0.2548 C   0  0  0  0  0  0  0  0  0  0  0  0
    7.4055    0.8651    0.9224 C   0  0  0  0  0  0  0  0  0  0  0  0
    6.7323    0.7427    2.1363 C   0  0  0  0  0  0  0  0  0  0  0  0
    7.4497    0.6281    3.3490 O   0  0  0  0  0  0  0  0  0  0  0  0
    8.5757    1.4235    3.5485 C   0  0  0  0  0  0  0  0  0  0  0  0
    9.4059    0.8090    4.6104 C   0  0  0  0  0  0  0  0  0  0  0  0
   10.5485    1.4405    4.9167 C   0  0  0  0  0  0  0  0  0  0  0  0
   10.8862    2.6316    4.2336 C   0  0  0  0  0  0  0  0  0  0  0  0
   11.9241    3.4356    4.3413 N   0  0  0  0  0  0  0  0  0  0  0  0
   11.7170    4.4173    3.4027 C   0  0  0  0  0  0  0  0  0  0  0  0
   10.5467    4.2031    2.7139 C   0  0  0  0  0  0  0  0  0  0  0  0
   10.0038    3.0740    3.2600 N   0  0  0  0  0  0  0  0  0  0  0  0
    8.8265    2.5071    2.8877 N   0  0  0  0  0  0  0  0  0  0  0  0
    5.3359    0.6242    2.1766 C   0  0  0  0  0  0  0  0  0  0  0  0
    0.7818    0.5859    1.3018 H   0  0  0  0  0  0  0  0  0  0  0  0
    0.9737   -0.1264   -2.3814 H   0  0  0  0  0  0  0  0  0  0  0  0
   -0.8845    0.2092   -3.8805 H   0  0  0  0  0  0  0  0  0  0  0  0
   -3.4184    1.2239   -0.5419 H   0  0  0  0  0  0  0  0  0  0  0  0
   -1.5223    0.9190    0.9906 H   0  0  0  0  0  0  0  0  0  0  0  0
    2.7909    0.3403    1.9557 H   0  0  0  0  0  0  0  0  0  0  0  0
    4.7862    0.9436   -1.1769 H   0  0  0  0  0  0  0  0  0  0  0  0
    7.1904    1.0812   -1.2050 H   0  0  0  0  0  0  0  0  0  0  0  0
    8.4907    0.9078    0.8745 H   0  0  0  0  0  0  0  0  0  0  0  0
    9.0945   -0.1159    5.0747 H   0  0  0  0  0  0  0  0  0  0  0  0
   11.2318    1.0608    5.6675 H   0  0  0  0  0  0  0  0  0  0  0  0
   12.4248    5.2258    3.2687 H   0  0  0  0  0  0  0  0  0  0  0  0
   10.0582    4.7342    1.9113 H   0  0  0  0  0  0  0  0  0  0  0  0
    4.8427    0.4944    3.1344 H   0  0  0  0  0  0  0  0  0  0  0  0
  1  2  2  0  0  0  0
  2  3  1  0  0  0  0
  2 14  1  0  0  0  0
  3  4  1  0  0  0  0
  3 31  1  0  0  0  0
  4  5  1  0  0  0  0
  4 13  2  0  0  0  0
  5  6  2  0  0  0  0
  5 32  1  0  0  0  0
  6  7  1  0  0  0  0
  6 33  1  0  0  0  0
  7  8  1  0  0  0  0
  7 12  2  0  0  0  0
  8  9  1  0  0  0  0
  8 10  1  0  0  0  0
  8 11  1  0  0  0  0
 12 13  1  0  0  0  0
 12 34  1  0  0  0  0
 13 35  1  0  0  0  0
 14 15  1  0  0  0  0
 14 36  1  0  0  0  0
 15 16  1  0  0  0  0
 15 30  2  0  0  0  0
 16 17  2  0  0  0  0
 16 37  1  0  0  0  0
 17 18  1  0  0  0  0
 17 38  1  0  0  0  0
 18 19  2  0  0  0  0
 18 39  1  0  0  0  0
 19 20  1  0  0  0  0
 19 30  1  0  0  0  0
 20 21  1  0  0  0  0
 21 22  1  0  0  0  0
 21 29  2  0  0  0  0
 22 23  2  0  0  0  0
 22 40  1  0  0  0  0
 23 24  1  0  0  0  0
 23 41  1  0  0  0  0
 24 25  2  0  0  0  0
 24 28  1  0  0  0  0
 25 26  1  0  0  0  0
 26 27  2  0  0  0  0
 26 42  1  0  0  0  0
 27 28  1  0  0  0  0
 27 43  1  0  0  0  0
 28 29  1  0  0  0  0
 30 44  1  0  0  0  0
M  END
$$$$
