CHEMBL270548
 OpenBabel04072215363D

 57 61  0  0  0  0  0  0  0  0999 V2000
   10.6351   -0.6586    1.0673 C   0  0  0  0  0  0  0  0  0  0  0  0
    9.9251   -0.9542    2.2747 O   0  0  0  0  0  0  0  0  0  0  0  0
    9.1177   -2.0621    2.2263 C   0  0  0  0  0  0  0  0  0  0  0  0
    9.4643   -3.1684    1.4342 C   0  0  0  0  0  0  0  0  0  0  0  0
    8.6225   -4.2502    1.2444 C   0  0  0  0  0  0  0  0  0  0  0  0
    9.0224   -5.2123    0.3972 N   0  0  0  0  0  0  0  0  0  0  0  0
    8.1974   -6.2535    0.1795 C   0  0  0  0  0  0  0  0  0  0  0  0
    6.9596   -6.3808    0.7658 C   0  0  0  0  0  0  0  0  0  0  0  0
    6.5243   -5.3507    1.5974 C   0  0  0  0  0  0  0  0  0  0  0  0
    5.2594   -5.3709    2.1485 O   0  0  0  0  0  0  0  0  0  0  0  0
    4.2001   -5.8037    1.3732 C   0  0  0  0  0  0  0  0  0  0  0  0
    3.1791   -6.4774    2.0334 C   0  0  0  0  0  0  0  0  0  0  0  0
    2.0538   -6.9301    1.3278 C   0  0  0  0  0  0  0  0  0  0  0  0
    1.9045   -6.6990   -0.0491 C   0  0  0  0  0  0  0  0  0  0  0  0
    2.9628   -6.0382   -0.7041 C   0  0  0  0  0  0  0  0  0  0  0  0
    4.0834   -5.5761    0.0009 C   0  0  0  0  0  0  0  0  0  0  0  0
    2.9976   -5.7836   -2.0552 O   0  0  0  0  0  0  0  0  0  0  0  0
    1.7031   -5.8099   -2.6513 C   0  0  0  0  0  0  0  0  0  0  0  0
    0.9380   -7.0608   -2.2566 C   0  0  0  0  0  0  0  0  0  0  0  0
    0.7270   -7.0912   -0.8005 N   0  0  0  0  0  0  0  0  0  0  0  0
   -0.5059   -7.3244   -0.1703 C   0  0  0  0  0  0  0  0  0  0  0  0
   -0.6576   -7.2123    1.0476 O   0  0  0  0  0  0  0  0  0  0  0  0
   -1.5648   -7.6470   -1.0040 N   0  0  0  0  0  0  0  0  0  0  0  0
   -2.9184   -7.8015   -0.6012 C   0  0  0  0  0  0  0  0  0  0  0  0
   -3.4079   -7.4019    0.6478 C   0  0  0  0  0  0  0  0  0  0  0  0
   -4.7209   -7.6890    1.0324 C   0  0  0  0  0  0  0  0  0  0  0  0
   -5.5685   -8.3482    0.1522 C   0  0  0  0  0  0  0  0  0  0  0  0
   -7.1648   -8.7546    0.6448 Cl  0  0  0  0  0  0  0  0  0  0  0  0
   -5.1234   -8.6868   -1.1233 C   0  0  0  0  0  0  0  0  0  0  0  0
   -3.8038   -8.4072   -1.5017 C   0  0  0  0  0  0  0  0  0  0  0  0
    7.3853   -4.2746    1.9070 C   0  0  0  0  0  0  0  0  0  0  0  0
    7.0900   -3.2256    2.8127 C   0  0  0  0  0  0  0  0  0  0  0  0
    7.9404   -2.1169    2.9757 C   0  0  0  0  0  0  0  0  0  0  0  0
    7.4424   -1.2171    3.8773 O   0  0  0  0  0  0  0  0  0  0  0  0
    8.0582    0.0517    4.0286 C   0  0  0  0  0  0  0  0  0  0  0  0
   10.6726    0.4280    0.9479 H   0  0  0  0  0  0  0  0  0  0  0  0
   10.1549   -1.0576    0.1647 H   0  0  0  0  0  0  0  0  0  0  0  0
   11.6603   -1.0344    1.1449 H   0  0  0  0  0  0  0  0  0  0  0  0
   10.4134   -3.1903    0.9069 H   0  0  0  0  0  0  0  0  0  0  0  0
    8.5614   -6.9966   -0.5237 H   0  0  0  0  0  0  0  0  0  0  0  0
    6.3383   -7.2396    0.5442 H   0  0  0  0  0  0  0  0  0  0  0  0
    3.2473   -6.6608    3.1032 H   0  0  0  0  0  0  0  0  0  0  0  0
    1.3160   -7.4848    1.9000 H   0  0  0  0  0  0  0  0  0  0  0  0
    4.8491   -5.0282   -0.5410 H   0  0  0  0  0  0  0  0  0  0  0  0
    1.8431   -5.7904   -3.7371 H   0  0  0  0  0  0  0  0  0  0  0  0
    1.1589   -4.9004   -2.3695 H   0  0  0  0  0  0  0  0  0  0  0  0
    1.5074   -7.9640   -2.5112 H   0  0  0  0  0  0  0  0  0  0  0  0
    0.0022   -7.0817   -2.8160 H   0  0  0  0  0  0  0  0  0  0  0  0
   -1.3434   -8.0346   -1.9052 H   0  0  0  0  0  0  0  0  0  0  0  0
   -2.7889   -6.8717    1.3653 H   0  0  0  0  0  0  0  0  0  0  0  0
   -5.0585   -7.4059    2.0260 H   0  0  0  0  0  0  0  0  0  0  0  0
   -5.7922   -9.1853   -1.8196 H   0  0  0  0  0  0  0  0  0  0  0  0
   -3.4802   -8.6942   -2.4985 H   0  0  0  0  0  0  0  0  0  0  0  0
    6.1708   -3.2616    3.3948 H   0  0  0  0  0  0  0  0  0  0  0  0
    7.3561    0.6839    4.5841 H   0  0  0  0  0  0  0  0  0  0  0  0
    8.2309    0.5485    3.0703 H   0  0  0  0  0  0  0  0  0  0  0  0
    8.9736   -0.0227    4.6239 H   0  0  0  0  0  0  0  0  0  0  0  0
  1  2  1  0  0  0  0
  1 36  1  0  0  0  0
  1 37  1  0  0  0  0
  1 38  1  0  0  0  0
  2  3  1  0  0  0  0
  3  4  1  0  0  0  0
  3 33  2  0  0  0  0
  4  5  2  0  0  0  0
  4 39  1  0  0  0  0
  5  6  1  0  0  0  0
  5 31  1  0  0  0  0
  6  7  2  0  0  0  0
  7  8  1  0  0  0  0
  7 40  1  0  0  0  0
  8  9  2  0  0  0  0
  8 41  1  0  0  0  0
  9 10  1  0  0  0  0
  9 31  1  0  0  0  0
 10 11  1  0  0  0  0
 11 12  1  0  0  0  0
 11 16  2  0  0  0  0
 12 13  2  0  0  0  0
 12 42  1  0  0  0  0
 13 14  1  0  0  0  0
 13 43  1  0  0  0  0
 14 15  2  0  0  0  0
 14 20  1  0  0  0  0
 15 16  1  0  0  0  0
 15 17  1  0  0  0  0
 16 44  1  0  0  0  0
 17 18  1  0  0  0  0
 18 19  1  0  0  0  0
 18 45  1  0  0  0  0
 18 46  1  0  0  0  0
 19 20  1  0  0  0  0
 19 47  1  0  0  0  0
 19 48  1  0  0  0  0
 20 21  1  0  0  0  0
 21 22  2  0  0  0  0
 21 23  1  0  0  0  0
 23 24  1  0  0  0  0
 23 49  1  0  0  0  0
 24 25  1  0  0  0  0
 24 30  2  0  0  0  0
 25 26  2  0  0  0  0
 25 50  1  0  0  0  0
 26 27  1  0  0  0  0
 26 51  1  0  0  0  0
 27 28  1  0  0  0  0
 27 29  2  0  0  0  0
 29 30  1  0  0  0  0
 29 52  1  0  0  0  0
 30 53  1  0  0  0  0
 31 32  2  0  0  0  0
 32 33  1  0  0  0  0
 32 54  1  0  0  0  0
 33 34  1  0  0  0  0
 34 35  1  0  0  0  0
 35 55  1  0  0  0  0
 35 56  1  0  0  0  0
 35 57  1  0  0  0  0
M  END
$$$$
