CHEMBL177434
 OpenBabel04072215363D

 43 45  0  0  0  0  0  0  0  0999 V2000
    0.4932   -2.1308    3.9697 O   0  0  0  0  0  0  0  0  0  0  0  0
    1.8682   -2.3761    4.2349 C   0  0  0  0  0  0  0  0  0  0  0  0
    2.7201   -1.5471    3.2812 C   0  0  0  0  0  0  0  0  0  0  0  0
    4.2053   -1.7895    3.5377 C   0  0  0  0  0  0  0  0  0  0  0  0
    5.0167   -0.9119    2.6914 N   0  0  0  0  0  0  0  0  0  0  0  0
    6.4004   -1.1051    2.8820 C   0  0  0  0  0  0  0  0  0  0  0  0
    7.2824   -0.1020    2.4817 C   0  0  0  0  0  0  0  0  0  0  0  0
    8.6697   -0.2522    2.6612 C   0  0  0  0  0  0  0  0  0  0  0  0
    9.6026    0.8477    2.3560 C   0  0  0  0  0  0  0  0  0  0  0  0
   10.9214    0.6586    1.9538 C   0  0  0  0  0  0  0  0  0  0  0  0
   11.7868    1.6764    1.7434 N   0  0  0  0  0  0  0  0  0  0  0  0
   11.2637    2.9111    1.9335 C   0  0  0  0  0  0  0  0  0  0  0  0
    9.9442    3.1538    2.3259 C   0  0  0  0  0  0  0  0  0  0  0  0
    9.4794    4.4838    2.3658 N   0  0  0  0  0  0  0  0  0  0  0  0
    8.1757    5.0095    2.4533 C   0  0  0  0  0  0  0  0  0  0  0  0
    7.9904    6.3664    2.1365 C   0  0  0  0  0  0  0  0  0  0  0  0
    6.7113    6.9227    2.0353 C   0  0  0  0  0  0  0  0  0  0  0  0
    5.5894    6.1277    2.2514 C   0  0  0  0  0  0  0  0  0  0  0  0
    5.7568    4.7873    2.5824 C   0  0  0  0  0  0  0  0  0  0  0  0
    4.3770    3.7912    2.8497 Cl  0  0  0  0  0  0  0  0  0  0  0  0
    7.0345    4.2338    2.6790 C   0  0  0  0  0  0  0  0  0  0  0  0
    9.1161    2.1055    2.5293 N   0  0  0  0  0  0  0  0  0  0  0  0
    9.1138   -1.4688    3.1877 C   0  0  0  0  0  0  0  0  0  0  0  0
    8.1817   -2.4357    3.5143 C   0  0  0  0  0  0  0  0  0  0  0  0
    6.8522   -2.2729    3.3793 N   0  0  0  0  0  0  0  0  0  0  0  0
   -0.0169   -2.6904    4.5798 H   0  0  0  0  0  0  0  0  0  0  0  0
    2.0638   -3.4449    4.1057 H   0  0  0  0  0  0  0  0  0  0  0  0
    2.0725   -2.1028    5.2746 H   0  0  0  0  0  0  0  0  0  0  0  0
    2.4734   -0.4846    3.3970 H   0  0  0  0  0  0  0  0  0  0  0  0
    2.4679   -1.7994    2.2441 H   0  0  0  0  0  0  0  0  0  0  0  0
    4.4251   -2.8447    3.3401 H   0  0  0  0  0  0  0  0  0  0  0  0
    4.4257   -1.5813    4.5941 H   0  0  0  0  0  0  0  0  0  0  0  0
    4.7880    0.0663    2.8483 H   0  0  0  0  0  0  0  0  0  0  0  0
    6.8880    0.8159    2.0540 H   0  0  0  0  0  0  0  0  0  0  0  0
   11.3314   -0.3297    1.7765 H   0  0  0  0  0  0  0  0  0  0  0  0
   11.9489    3.7285    1.7328 H   0  0  0  0  0  0  0  0  0  0  0  0
   10.2012    5.1561    2.5932 H   0  0  0  0  0  0  0  0  0  0  0  0
    8.8488    7.0003    1.9252 H   0  0  0  0  0  0  0  0  0  0  0  0
    6.5933    7.9683    1.7633 H   0  0  0  0  0  0  0  0  0  0  0  0
    4.5942    6.5512    2.1505 H   0  0  0  0  0  0  0  0  0  0  0  0
    7.1195    3.1859    2.9409 H   0  0  0  0  0  0  0  0  0  0  0  0
   10.1630   -1.6701    3.3733 H   0  0  0  0  0  0  0  0  0  0  0  0
    8.4890   -3.3957    3.9184 H   0  0  0  0  0  0  0  0  0  0  0  0
  1  2  1  0  0  0  0
  1 26  1  0  0  0  0
  2  3  1  0  0  0  0
  2 27  1  0  0  0  0
  2 28  1  0  0  0  0
  3  4  1  0  0  0  0
  3 29  1  0  0  0  0
  3 30  1  0  0  0  0
  4  5  1  0  0  0  0
  4 31  1  0  0  0  0
  4 32  1  0  0  0  0
  5  6  1  0  0  0  0
  5 33  1  0  0  0  0
  6  7  1  0  0  0  0
  6 25  2  0  0  0  0
  7  8  2  0  0  0  0
  7 34  1  0  0  0  0
  8  9  1  0  0  0  0
  8 23  1  0  0  0  0
  9 10  1  0  0  0  0
  9 22  2  0  0  0  0
 10 11  2  0  0  0  0
 10 35  1  0  0  0  0
 11 12  1  0  0  0  0
 12 13  2  0  0  0  0
 12 36  1  0  0  0  0
 13 14  1  0  0  0  0
 13 22  1  0  0  0  0
 14 15  1  0  0  0  0
 14 37  1  0  0  0  0
 15 16  1  0  0  0  0
 15 21  2  0  0  0  0
 16 17  2  0  0  0  0
 16 38  1  0  0  0  0
 17 18  1  0  0  0  0
 17 39  1  0  0  0  0
 18 19  2  0  0  0  0
 18 40  1  0  0  0  0
 19 20  1  0  0  0  0
 19 21  1  0  0  0  0
 21 41  1  0  0  0  0
 23 24  2  0  0  0  0
 23 42  1  0  0  0  0
 24 25  1  0  0  0  0
 24 43  1  0  0  0  0
M  END
$$$$
