CHEMBL512124
 OpenBabel04072215383D

 45 49  0  0  0  0  0  0  0  0999 V2000
    1.4947   -0.6572   -0.0560 O   0  0  0  0  0  0  0  0  0  0  0  0
    2.1798    0.3644   -0.0488 C   0  0  0  0  0  0  0  0  0  0  0  0
    2.7512    0.9096   -1.3148 C   0  0  0  0  0  0  0  0  0  0  0  0
    2.3085    2.2161   -1.6188 C   0  0  0  0  0  0  0  0  0  0  0  0
    3.0050    3.0182   -2.5118 C   0  0  0  0  0  0  0  0  0  0  0  0
    4.1305    2.5068   -3.1359 C   0  0  0  0  0  0  0  0  0  0  0  0
    4.5082    1.1757   -2.9202 C   0  0  0  0  0  0  0  0  0  0  0  0
    3.8041    0.3167   -2.0472 C   0  0  0  0  0  0  0  0  0  0  0  0
    4.3248   -0.9863   -1.9127 N   0  0  0  0  0  0  0  0  0  0  0  0
    3.3806   -2.1057   -1.7634 C   0  0  0  0  0  0  0  0  0  0  0  0
    3.9672   -3.3632   -2.4016 C   0  0  0  0  0  0  0  0  0  0  0  0
    3.5716   -3.7632   -3.6896 C   0  0  0  0  0  0  0  0  0  0  0  0
    4.0175   -4.9708   -4.2525 C   0  0  0  0  0  0  0  0  0  0  0  0
    4.8934   -5.7790   -3.5129 C   0  0  0  0  0  0  0  0  0  0  0  0
    5.5102   -7.0407   -3.6758 C   0  0  0  0  0  0  0  0  0  0  0  0
    6.3024   -7.3678   -2.6518 N   0  0  0  0  0  0  0  0  0  0  0  0
    6.1872   -6.3126   -1.8241 N   0  0  0  0  0  0  0  0  0  0  0  0
    5.3290   -5.3410   -2.2668 C   0  0  0  0  0  0  0  0  0  0  0  0
    4.8966   -4.1416   -1.6863 C   0  0  0  0  0  0  0  0  0  0  0  0
    2.4889    1.1396    1.1789 C   0  0  0  0  0  0  0  0  0  0  0  0
    3.2858    2.2307    1.1509 N   0  0  0  0  0  0  0  0  0  0  0  0
    3.4805    2.5378    2.4359 N   0  0  0  0  0  0  0  0  0  0  0  0
    2.8980    1.6653    3.3061 C   0  0  0  0  0  0  0  0  0  0  0  0
    3.0276    1.5131    4.6868 C   0  0  0  0  0  0  0  0  0  0  0  0
    2.2125    0.5542    5.2909 C   0  0  0  0  0  0  0  0  0  0  0  0
    1.2680   -0.1589    4.5507 C   0  0  0  0  0  0  0  0  0  0  0  0
    1.1942   -0.0242    3.1576 C   0  0  0  0  0  0  0  0  0  0  0  0
    2.0810    0.8610    2.5184 C   0  0  0  0  0  0  0  0  0  0  0  0
    1.4790    2.6515   -1.0640 H   0  0  0  0  0  0  0  0  0  0  0  0
    2.7091    4.0530   -2.6569 H   0  0  0  0  0  0  0  0  0  0  0  0
    4.7311    3.1458   -3.7785 H   0  0  0  0  0  0  0  0  0  0  0  0
    5.3963    0.8163   -3.4364 H   0  0  0  0  0  0  0  0  0  0  0  0
    4.9873   -1.1956   -2.6601 H   0  0  0  0  0  0  0  0  0  0  0  0
    2.4183   -1.8907   -2.2379 H   0  0  0  0  0  0  0  0  0  0  0  0
    3.2184   -2.3073   -0.7060 H   0  0  0  0  0  0  0  0  0  0  0  0
    2.8823   -3.1457   -4.2641 H   0  0  0  0  0  0  0  0  0  0  0  0
    3.6751   -5.2804   -5.2362 H   0  0  0  0  0  0  0  0  0  0  0  0
    5.4044   -7.7391   -4.4966 H   0  0  0  0  0  0  0  0  0  0  0  0
    6.7138   -6.3223   -0.9584 H   0  0  0  0  0  0  0  0  0  0  0  0
    5.2351   -3.8387   -0.6997 H   0  0  0  0  0  0  0  0  0  0  0  0
    4.0500    3.3474    2.6548 H   0  0  0  0  0  0  0  0  0  0  0  0
    3.7535    2.0812    5.2587 H   0  0  0  0  0  0  0  0  0  0  0  0
    2.3132    0.3662    6.3574 H   0  0  0  0  0  0  0  0  0  0  0  0
    0.6046   -0.8568    5.0559 H   0  0  0  0  0  0  0  0  0  0  0  0
    0.4822   -0.6103    2.5826 H   0  0  0  0  0  0  0  0  0  0  0  0
  1  2  2  0  0  0  0
  2  3  1  0  0  0  0
  2 20  1  0  0  0  0
  3  4  1  0  0  0  0
  3  8  2  0  0  0  0
  4  5  2  0  0  0  0
  4 29  1  0  0  0  0
  5  6  1  0  0  0  0
  5 30  1  0  0  0  0
  6  7  2  0  0  0  0
  6 31  1  0  0  0  0
  7  8  1  0  0  0  0
  7 32  1  0  0  0  0
  8  9  1  0  0  0  0
  9 10  1  0  0  0  0
  9 33  1  0  0  0  0
 10 11  1  0  0  0  0
 10 34  1  0  0  0  0
 10 35  1  0  0  0  0
 11 12  1  0  0  0  0
 11 19  2  0  0  0  0
 12 13  2  0  0  0  0
 12 36  1  0  0  0  0
 13 14  1  0  0  0  0
 13 37  1  0  0  0  0
 14 15  1  0  0  0  0
 14 18  2  0  0  0  0
 15 16  2  0  0  0  0
 15 38  1  0  0  0  0
 16 17  1  0  0  0  0
 17 18  1  0  0  0  0
 17 39  1  0  0  0  0
 18 19  1  0  0  0  0
 19 40  1  0  0  0  0
 20 21  2  0  0  0  0
 20 28  1  0  0  0  0
 21 22  1  0  0  0  0
 22 23  1  0  0  0  0
 22 41  1  0  0  0  0
 23 24  1  0  0  0  0
 23 28  2  0  0  0  0
 24 25  2  0  0  0  0
 24 42  1  0  0  0  0
 25 26  1  0  0  0  0
 25 43  1  0  0  0  0
 26 27  2  0  0  0  0
 26 44  1  0  0  0  0
 27 28  1  0  0  0  0
 27 45  1  0  0  0  0
M  END
$$$$
