CHEMBL2430263
 OpenBabel04072215363D

 60 63  0  0  0  0  0  0  0  0999 V2000
    4.8831    2.1293    1.2103 C   0  0  0  0  0  0  0  0  0  0  0  0
    4.4683    1.5893   -0.1546 C   0  0  0  0  0  0  0  0  0  0  0  0
    4.8433    0.1860   -0.4088 N   0  0  0  0  0  0  0  0  0  0  0  0
    4.3668   -0.7550    0.6223 C   0  0  0  0  0  0  0  0  0  0  0  0
    2.8537   -0.9382    0.7313 C   0  0  0  0  0  0  0  0  0  0  0  0
    4.4146   -0.2530   -1.7584 C   0  0  0  0  0  0  0  0  0  0  0  0
    5.0023    0.5594   -2.9211 C   0  0  0  0  0  0  0  0  0  0  0  0
    6.4488    0.5461   -2.9482 N   0  0  0  0  0  0  0  0  0  0  0  0
    7.1018    1.2306   -3.9458 C   0  0  0  0  0  0  0  0  0  0  0  0
    6.4836    1.8163   -4.8329 O   0  0  0  0  0  0  0  0  0  0  0  0
    8.5638    1.2818   -3.8558 C   0  0  0  0  0  0  0  0  0  0  0  0
    9.4598    0.3293   -3.3852 C   0  0  0  0  0  0  0  0  0  0  0  0
    9.2510   -1.0393   -2.8368 C   0  0  0  0  0  0  0  0  0  0  0  0
   10.7452    0.8256   -3.5676 N   0  0  0  0  0  0  0  0  0  0  0  0
   10.6980    2.0618   -4.1622 C   0  0  0  0  0  0  0  0  0  0  0  0
    9.3616    2.3636   -4.3402 C   0  0  0  0  0  0  0  0  0  0  0  0
    8.8467    3.6125   -4.9571 C   0  0  0  0  0  0  0  0  0  0  0  0
    9.9106    4.6120   -5.3716 C   0  0  0  0  0  0  0  0  0  0  0  0
   11.3838    4.2381   -5.1890 C   0  0  0  0  0  0  0  0  0  0  0  0
   11.7900    2.9057   -4.5552 C   0  0  0  0  0  0  0  0  0  0  0  0
   13.1207    2.6435   -4.4366 C   0  0  0  0  0  0  0  0  0  0  0  0
   13.8036    1.4083   -3.8674 C   0  0  0  0  0  0  0  0  0  0  0  0
   13.3007    0.4032   -3.3987 O   0  0  0  0  0  0  0  0  0  0  0  0
   15.1654    1.6383   -3.9789 N   0  0  0  0  0  0  0  0  0  0  0  0
   15.4374    2.8728   -4.5499 C   0  0  0  0  0  0  0  0  0  0  0  0
   16.6952    3.4022   -4.7939 C   0  0  0  0  0  0  0  0  0  0  0  0
   16.7737    4.6675   -5.3731 C   0  0  0  0  0  0  0  0  0  0  0  0
   15.6035    5.3652   -5.6951 C   0  0  0  0  0  0  0  0  0  0  0  0
   14.3515    4.8068   -5.4387 C   0  0  0  0  0  0  0  0  0  0  0  0
   14.2511    3.5432   -4.8566 C   0  0  0  0  0  0  0  0  0  0  0  0
    4.7836    3.2204    1.2190 H   0  0  0  0  0  0  0  0  0  0  0  0
    5.9279    1.8900    1.4330 H   0  0  0  0  0  0  0  0  0  0  0  0
    4.2500    1.7359    2.0110 H   0  0  0  0  0  0  0  0  0  0  0  0
    4.9766    2.2289   -0.8837 H   0  0  0  0  0  0  0  0  0  0  0  0
    3.3919    1.7447   -0.2934 H   0  0  0  0  0  0  0  0  0  0  0  0
    4.7618   -0.4605    1.6010 H   0  0  0  0  0  0  0  0  0  0  0  0
    4.8184   -1.7380    0.4338 H   0  0  0  0  0  0  0  0  0  0  0  0
    2.3198    0.0157    0.7592 H   0  0  0  0  0  0  0  0  0  0  0  0
    2.6099   -1.4774    1.6527 H   0  0  0  0  0  0  0  0  0  0  0  0
    2.4647   -1.5280   -0.1051 H   0  0  0  0  0  0  0  0  0  0  0  0
    3.3220   -0.2232   -1.8467 H   0  0  0  0  0  0  0  0  0  0  0  0
    4.7254   -1.2965   -1.9002 H   0  0  0  0  0  0  0  0  0  0  0  0
    4.6640    1.6016   -2.8951 H   0  0  0  0  0  0  0  0  0  0  0  0
    4.6460    0.1461   -3.8723 H   0  0  0  0  0  0  0  0  0  0  0  0
    6.9445    0.3770   -2.0815 H   0  0  0  0  0  0  0  0  0  0  0  0
    8.1994   -1.3387   -2.8607 H   0  0  0  0  0  0  0  0  0  0  0  0
    9.5892   -1.0937   -1.7974 H   0  0  0  0  0  0  0  0  0  0  0  0
    9.8027   -1.7799   -3.4241 H   0  0  0  0  0  0  0  0  0  0  0  0
   11.5953    0.3247   -3.3331 H   0  0  0  0  0  0  0  0  0  0  0  0
    8.1645    4.1012   -4.2500 H   0  0  0  0  0  0  0  0  0  0  0  0
    8.2527    3.3574   -5.8423 H   0  0  0  0  0  0  0  0  0  0  0  0
    9.7295    5.5573   -4.8428 H   0  0  0  0  0  0  0  0  0  0  0  0
    9.7528    4.8684   -6.4284 H   0  0  0  0  0  0  0  0  0  0  0  0
   11.8111    5.0384   -4.5732 H   0  0  0  0  0  0  0  0  0  0  0  0
   11.8171    4.2694   -6.1964 H   0  0  0  0  0  0  0  0  0  0  0  0
   15.8574    0.9717   -3.6726 H   0  0  0  0  0  0  0  0  0  0  0  0
   17.6002    2.8593   -4.5430 H   0  0  0  0  0  0  0  0  0  0  0  0
   17.7390    5.1233   -5.5807 H   0  0  0  0  0  0  0  0  0  0  0  0
   15.6662    6.3541   -6.1483 H   0  0  0  0  0  0  0  0  0  0  0  0
   13.4986    5.4092   -5.7170 H   0  0  0  0  0  0  0  0  0  0  0  0
  1  2  1  0  0  0  0
  1 31  1  0  0  0  0
  1 32  1  0  0  0  0
  1 33  1  0  0  0  0
  2  3  1  0  0  0  0
  2 34  1  0  0  0  0
  2 35  1  0  0  0  0
  3  4  1  0  0  0  0
  3  6  1  0  0  0  0
  4  5  1  0  0  0  0
  4 36  1  0  0  0  0
  4 37  1  0  0  0  0
  5 38  1  0  0  0  0
  5 39  1  0  0  0  0
  5 40  1  0  0  0  0
  6  7  1  0  0  0  0
  6 41  1  0  0  0  0
  6 42  1  0  0  0  0
  7  8  1  0  0  0  0
  7 43  1  0  0  0  0
  7 44  1  0  0  0  0
  8  9  1  0  0  0  0
  8 45  1  0  0  0  0
  9 10  2  0  0  0  0
  9 11  1  0  0  0  0
 11 12  2  0  0  0  0
 11 16  1  0  0  0  0
 12 13  1  0  0  0  0
 12 14  1  0  0  0  0
 13 46  1  0  0  0  0
 13 47  1  0  0  0  0
 13 48  1  0  0  0  0
 14 15  1  0  0  0  0
 14 49  1  0  0  0  0
 15 16  2  0  0  0  0
 15 20  1  0  0  0  0
 16 17  1  0  0  0  0
 17 18  1  0  0  0  0
 17 50  1  0  0  0  0
 17 51  1  0  0  0  0
 18 19  1  0  0  0  0
 18 52  1  0  0  0  0
 18 53  1  0  0  0  0
 19 20  1  0  0  0  0
 19 54  1  0  0  0  0
 19 55  1  0  0  0  0
 20 21  2  0  0  0  0
 21 22  1  0  0  0  0
 21 30  1  0  0  0  0
 22 23  2  0  0  0  0
 22 24  1  0  0  0  0
 24 25  1  0  0  0  0
 24 56  1  0  0  0  0
 25 26  1  0  0  0  0
 25 30  2  0  0  0  0
 26 27  2  0  0  0  0
 26 57  1  0  0  0  0
 27 28  1  0  0  0  0
 27 58  1  0  0  0  0
 28 29  2  0  0  0  0
 28 59  1  0  0  0  0
 29 30  1  0  0  0  0
 29 60  1  0  0  0  0
M  END
$$$$
