CHEMBL2409789
 OpenBabel04072215363D

 53 57  0  0  0  0  0  0  0  0999 V2000
    2.5188    0.2408   -0.0009 C   0  0  0  0  0  0  0  0  0  0  0  0
    1.0191    0.1214    0.0370 C   0  0  0  0  0  0  0  0  0  0  0  0
    0.2997    1.3323    0.1689 C   0  0  0  0  0  0  0  0  0  0  0  0
   -1.0901    1.3534    0.1945 C   0  0  0  0  0  0  0  0  0  0  0  0
   -1.7904    0.1695    0.0173 C   0  0  0  0  0  0  0  0  0  0  0  0
   -3.1701    0.1172   -0.0333 O   0  0  0  0  0  0  0  0  0  0  0  0
   -3.8622    1.0828   -0.7476 C   0  0  0  0  0  0  0  0  0  0  0  0
   -5.2377    1.3196   -0.3162 C   0  0  0  0  0  0  0  0  0  0  0  0
   -6.0142    2.2579   -0.9020 C   0  0  0  0  0  0  0  0  0  0  0  0
   -5.4878    3.0421   -1.9703 C   0  0  0  0  0  0  0  0  0  0  0  0
   -5.9798    4.0215   -2.7050 N   0  0  0  0  0  0  0  0  0  0  0  0
   -4.9156    4.3833   -3.4918 C   0  0  0  0  0  0  0  0  0  0  0  0
   -5.0423    5.4395   -4.3547 N   0  0  0  0  0  0  0  0  0  0  0  0
   -3.9663    6.0247   -4.9815 C   0  0  0  0  0  0  0  0  0  0  0  0
   -2.7856    5.7557   -4.8157 O   0  0  0  0  0  0  0  0  0  0  0  0
   -4.2624    7.1453   -5.9238 C   0  0  0  0  0  0  0  0  0  0  0  0
   -5.0345    8.3549   -5.4543 C   0  0  0  0  0  0  0  0  0  0  0  0
   -5.5985    7.4741   -6.5335 C   0  0  0  0  0  0  0  0  0  0  0  0
   -3.8294    3.6341   -3.3353 N   0  0  0  0  0  0  0  0  0  0  0  0
   -4.1798    2.7746   -2.3686 N   0  0  0  0  0  0  0  0  0  0  0  0
   -3.3939    1.7886   -1.7929 C   0  0  0  0  0  0  0  0  0  0  0  0
   -1.0925   -1.0416   -0.0666 C   0  0  0  0  0  0  0  0  0  0  0  0
    0.3141   -1.1042   -0.0404 C   0  0  0  0  0  0  0  0  0  0  0  0
    1.0257   -2.3564   -0.0828 N   0  0  0  0  0  0  0  0  0  0  0  0
    0.4375   -3.6245   -0.1325 C   0  0  0  0  0  0  0  0  0  0  0  0
   -0.7863   -3.8075   -0.1765 O   0  0  0  0  0  0  0  0  0  0  0  0
    1.2954   -4.8881   -0.1262 C   0  0  0  0  0  0  0  0  0  0  0  0
    2.8334   -5.0211   -0.1271 C   0  0  0  0  0  0  0  0  0  0  0  0
    2.6343   -6.3085   -0.9767 C   0  0  0  0  0  0  0  0  0  0  0  0
    1.3370   -5.6599   -1.4820 C   0  0  0  0  0  0  0  0  0  0  0  0
    2.8297    1.2944   -0.0224 H   0  0  0  0  0  0  0  0  0  0  0  0
    2.9218   -0.2211   -0.9063 H   0  0  0  0  0  0  0  0  0  0  0  0
    2.9639   -0.2092    0.8898 H   0  0  0  0  0  0  0  0  0  0  0  0
    0.8232    2.2846    0.2461 H   0  0  0  0  0  0  0  0  0  0  0  0
   -1.6088    2.2993    0.3209 H   0  0  0  0  0  0  0  0  0  0  0  0
   -5.6194    0.7137    0.5016 H   0  0  0  0  0  0  0  0  0  0  0  0
   -7.0310    2.4369   -0.5710 H   0  0  0  0  0  0  0  0  0  0  0  0
   -5.9697    5.8201   -4.4311 H   0  0  0  0  0  0  0  0  0  0  0  0
   -3.4069    7.3496   -6.5668 H   0  0  0  0  0  0  0  0  0  0  0  0
   -4.6392    9.3271   -5.7299 H   0  0  0  0  0  0  0  0  0  0  0  0
   -5.5020    8.3345   -4.4772 H   0  0  0  0  0  0  0  0  0  0  0  0
   -5.5940    7.8626   -7.5485 H   0  0  0  0  0  0  0  0  0  0  0  0
   -6.4650    6.8667   -6.3121 H   0  0  0  0  0  0  0  0  0  0  0  0
   -2.4064    1.6779   -2.2178 H   0  0  0  0  0  0  0  0  0  0  0  0
   -1.7087   -1.9272   -0.1619 H   0  0  0  0  0  0  0  0  0  0  0  0
    2.0344   -2.3116   -0.0510 H   0  0  0  0  0  0  0  0  0  0  0  0
    0.8918   -5.5412    0.6705 H   0  0  0  0  0  0  0  0  0  0  0  0
    3.2943   -5.2071    0.8481 H   0  0  0  0  0  0  0  0  0  0  0  0
    3.3852   -4.2325   -0.6456 H   0  0  0  0  0  0  0  0  0  0  0  0
    2.4550   -7.2199   -0.3909 H   0  0  0  0  0  0  0  0  0  0  0  0
    3.3884   -6.5238   -1.7367 H   0  0  0  0  0  0  0  0  0  0  0  0
    0.5001   -6.3381   -1.6680 H   0  0  0  0  0  0  0  0  0  0  0  0
    1.4772   -5.0188   -2.3609 H   0  0  0  0  0  0  0  0  0  0  0  0
  1  2  1  0  0  0  0
  1 31  1  0  0  0  0
  1 32  1  0  0  0  0
  1 33  1  0  0  0  0
  2  3  1  0  0  0  0
  2 23  2  0  0  0  0
  3  4  2  0  0  0  0
  3 34  1  0  0  0  0
  4  5  1  0  0  0  0
  4 35  1  0  0  0  0
  5  6  1  0  0  0  0
  5 22  2  0  0  0  0
  6  7  1  0  0  0  0
  7  8  1  0  0  0  0
  7 21  2  0  0  0  0
  8  9  2  0  0  0  0
  8 36  1  0  0  0  0
  9 10  1  0  0  0  0
  9 37  1  0  0  0  0
 10 11  2  0  0  0  0
 10 20  1  0  0  0  0
 11 12  1  0  0  0  0
 12 13  1  0  0  0  0
 12 19  2  0  0  0  0
 13 14  1  0  0  0  0
 13 38  1  0  0  0  0
 14 15  2  0  0  0  0
 14 16  1  0  0  0  0
 16 17  1  0  0  0  0
 16 18  1  0  0  0  0
 16 39  1  0  0  0  0
 17 18  1  0  0  0  0
 17 40  1  0  0  0  0
 17 41  1  0  0  0  0
 18 42  1  0  0  0  0
 18 43  1  0  0  0  0
 19 20  1  0  0  0  0
 20 21  1  0  0  0  0
 21 44  1  0  0  0  0
 22 23  1  0  0  0  0
 22 45  1  0  0  0  0
 23 24  1  0  0  0  0
 24 25  1  0  0  0  0
 24 46  1  0  0  0  0
 25 26  2  0  0  0  0
 25 27  1  0  0  0  0
 27 28  1  0  0  0  0
 27 30  1  0  0  0  0
 27 47  1  0  0  0  0
 28 29  1  0  0  0  0
 28 48  1  0  0  0  0
 28 49  1  0  0  0  0
 29 30  1  0  0  0  0
 29 50  1  0  0  0  0
 29 51  1  0  0  0  0
 30 52  1  0  0  0  0
 30 53  1  0  0  0  0
M  END
$$$$
