CHEMBL511251
 OpenBabel04072215383D

 46 50  0  0  0  0  0  0  0  0999 V2000
    1.8309   -0.3058    0.7362 O   0  0  0  0  0  0  0  0  0  0  0  0
    2.4521    0.3311   -0.1067 C   0  0  0  0  0  0  0  0  0  0  0  0
    2.8786   -0.2817   -1.4058 C   0  0  0  0  0  0  0  0  0  0  0  0
    2.4272    0.3910   -2.5604 C   0  0  0  0  0  0  0  0  0  0  0  0
    3.1989    0.3846   -3.7176 C   0  0  0  0  0  0  0  0  0  0  0  0
    4.3784   -0.3471   -3.7422 C   0  0  0  0  0  0  0  0  0  0  0  0
    4.7246   -1.1542   -2.6529 C   0  0  0  0  0  0  0  0  0  0  0  0
    3.9477   -1.1976   -1.4793 C   0  0  0  0  0  0  0  0  0  0  0  0
    4.3947   -2.0436   -0.4478 N   0  0  0  0  0  0  0  0  0  0  0  0
    3.3690   -2.7558    0.3252 C   0  0  0  0  0  0  0  0  0  0  0  0
    3.5188   -4.2582    0.1600 C   0  0  0  0  0  0  0  0  0  0  0  0
    2.6604   -4.9536   -0.7086 C   0  0  0  0  0  0  0  0  0  0  0  0
    2.7108   -6.3484   -0.8325 C   0  0  0  0  0  0  0  0  0  0  0  0
    3.6778   -7.0535   -0.0964 C   0  0  0  0  0  0  0  0  0  0  0  0
    4.0402   -8.4097    0.0826 C   0  0  0  0  0  0  0  0  0  0  0  0
    5.0884   -8.5623    0.8909 N   0  0  0  0  0  0  0  0  0  0  0  0
    5.4085   -7.3083    1.2420 N   0  0  0  0  0  0  0  0  0  0  0  0
    4.5648   -6.3530    0.7146 C   0  0  0  0  0  0  0  0  0  0  0  0
    4.5052   -4.9613    0.8798 C   0  0  0  0  0  0  0  0  0  0  0  0
    2.8165    1.7500    0.0734 C   0  0  0  0  0  0  0  0  0  0  0  0
    3.4650    2.5557   -0.8583 C   0  0  0  0  0  0  0  0  0  0  0  0
    3.3822    3.8265   -0.3843 N   0  0  0  0  0  0  0  0  0  0  0  0
    3.4172    3.7403    0.9765 C   0  0  0  0  0  0  0  0  0  0  0  0
    3.9560    4.5843    1.9443 C   0  0  0  0  0  0  0  0  0  0  0  0
    3.6909    4.2355    3.2652 C   0  0  0  0  0  0  0  0  0  0  0  0
    2.8190    3.1798    3.5488 C   0  0  0  0  0  0  0  0  0  0  0  0
    2.5453    2.9750    4.8191 F   0  0  0  0  0  0  0  0  0  0  0  0
    2.2838    2.3603    2.5774 C   0  0  0  0  0  0  0  0  0  0  0  0
    2.7325    2.5571    1.2599 C   0  0  0  0  0  0  0  0  0  0  0  0
    1.5779    1.0696   -2.4943 H   0  0  0  0  0  0  0  0  0  0  0  0
    2.9315    1.0272   -4.5520 H   0  0  0  0  0  0  0  0  0  0  0  0
    5.0373   -0.2894   -4.6050 H   0  0  0  0  0  0  0  0  0  0  0  0
    5.6404   -1.7390   -2.7209 H   0  0  0  0  0  0  0  0  0  0  0  0
    5.0866   -2.7076   -0.7918 H   0  0  0  0  0  0  0  0  0  0  0  0
    2.3462   -2.4986    0.0340 H   0  0  0  0  0  0  0  0  0  0  0  0
    3.4774   -2.4992    1.3848 H   0  0  0  0  0  0  0  0  0  0  0  0
    1.9172   -4.4054   -1.2887 H   0  0  0  0  0  0  0  0  0  0  0  0
    2.0198   -6.8679   -1.4891 H   0  0  0  0  0  0  0  0  0  0  0  0
    3.5724   -9.2890   -0.3492 H   0  0  0  0  0  0  0  0  0  0  0  0
    6.1972   -7.1517    1.8583 H   0  0  0  0  0  0  0  0  0  0  0  0
    5.1736   -4.4453    1.5614 H   0  0  0  0  0  0  0  0  0  0  0  0
    3.8672    2.3715   -1.8429 H   0  0  0  0  0  0  0  0  0  0  0  0
    3.2528    4.6660   -0.9340 H   0  0  0  0  0  0  0  0  0  0  0  0
    4.6329    5.3921    1.6821 H   0  0  0  0  0  0  0  0  0  0  0  0
    4.1783    4.7674    4.0754 H   0  0  0  0  0  0  0  0  0  0  0  0
    1.6298    1.5390    2.8405 H   0  0  0  0  0  0  0  0  0  0  0  0
  1  2  2  0  0  0  0
  2  3  1  0  0  0  0
  2 20  1  0  0  0  0
  3  4  1  0  0  0  0
  3  8  2  0  0  0  0
  4  5  2  0  0  0  0
  4 30  1  0  0  0  0
  5  6  1  0  0  0  0
  5 31  1  0  0  0  0
  6  7  2  0  0  0  0
  6 32  1  0  0  0  0
  7  8  1  0  0  0  0
  7 33  1  0  0  0  0
  8  9  1  0  0  0  0
  9 10  1  0  0  0  0
  9 34  1  0  0  0  0
 10 11  1  0  0  0  0
 10 35  1  0  0  0  0
 10 36  1  0  0  0  0
 11 12  1  0  0  0  0
 11 19  2  0  0  0  0
 12 13  2  0  0  0  0
 12 37  1  0  0  0  0
 13 14  1  0  0  0  0
 13 38  1  0  0  0  0
 14 15  1  0  0  0  0
 14 18  2  0  0  0  0
 15 16  2  0  0  0  0
 15 39  1  0  0  0  0
 16 17  1  0  0  0  0
 17 18  1  0  0  0  0
 17 40  1  0  0  0  0
 18 19  1  0  0  0  0
 19 41  1  0  0  0  0
 20 21  2  0  0  0  0
 20 29  1  0  0  0  0
 21 22  1  0  0  0  0
 21 42  1  0  0  0  0
 22 23  1  0  0  0  0
 22 43  1  0  0  0  0
 23 24  1  0  0  0  0
 23 29  2  0  0  0  0
 24 25  2  0  0  0  0
 24 44  1  0  0  0  0
 25 26  1  0  0  0  0
 25 45  1  0  0  0  0
 26 27  1  0  0  0  0
 26 28  2  0  0  0  0
 28 29  1  0  0  0  0
 28 46  1  0  0  0  0
M  END
$$$$
