CHEMBL2337364
 OpenBabel04072215363D

 34 37  0  0  0  0  0  0  0  0999 V2000
    1.2620    0.1143    0.1251 N   0  0  0  0  0  0  0  0  0  0  0  0
    2.6412    0.0885    0.0552 C   0  0  0  0  0  0  0  0  0  0  0  0
    3.2088   -1.1172    0.0367 N   0  0  0  0  0  0  0  0  0  0  0  0
    4.5629   -1.2540   -0.0354 C   0  0  0  0  0  0  0  0  0  0  0  0
    5.0826   -2.5498   -0.0588 N   0  0  0  0  0  0  0  0  0  0  0  0
    4.5486   -3.6989    0.5503 C   0  0  0  0  0  0  0  0  0  0  0  0
    3.7089   -3.6127    1.6699 C   0  0  0  0  0  0  0  0  0  0  0  0
    3.1301   -4.7540    2.2262 C   0  0  0  0  0  0  0  0  0  0  0  0
    3.3670   -5.9975    1.6477 C   0  0  0  0  0  0  0  0  0  0  0  0
    2.6197   -7.3970    2.3113 Cl  0  0  0  0  0  0  0  0  0  0  0  0
    4.1946   -6.1130    0.5348 C   0  0  0  0  0  0  0  0  0  0  0  0
    4.7835   -4.9685    0.0029 C   0  0  0  0  0  0  0  0  0  0  0  0
    5.5688   -5.0906   -1.0784 F   0  0  0  0  0  0  0  0  0  0  0  0
    5.3401   -0.0805   -0.0918 C   0  0  0  0  0  0  0  0  0  0  0  0
    4.6111    1.1004   -0.0787 C   0  0  0  0  0  0  0  0  0  0  0  0
    3.2816    1.2481   -0.0246 N   0  0  0  0  0  0  0  0  0  0  0  0
    5.4735    2.1502   -0.1178 N   0  0  0  0  0  0  0  0  0  0  0  0
    6.7711    1.7034   -0.1178 C   0  0  0  0  0  0  0  0  0  0  0  0
    7.9577    2.4509   -0.1095 C   0  0  0  0  0  0  0  0  0  0  0  0
    9.1711    1.7637   -0.0928 C   0  0  0  0  0  0  0  0  0  0  0  0
    9.1962    0.3761   -0.0887 C   0  0  0  0  0  0  0  0  0  0  0  0
    7.9990   -0.3462   -0.0995 C   0  0  0  0  0  0  0  0  0  0  0  0
    8.0562   -2.0521   -0.0834 Cl  0  0  0  0  0  0  0  0  0  0  0  0
    6.7371    0.2966   -0.1125 C   0  0  0  0  0  0  0  0  0  0  0  0
    0.8998   -0.7613   -0.2257 H   0  0  0  0  0  0  0  0  0  0  0  0
    0.9094    0.9601   -0.2969 H   0  0  0  0  0  0  0  0  0  0  0  0
    6.0459   -2.6410   -0.3617 H   0  0  0  0  0  0  0  0  0  0  0  0
    3.5111   -2.6475    2.1312 H   0  0  0  0  0  0  0  0  0  0  0  0
    2.4928   -4.6555    3.1007 H   0  0  0  0  0  0  0  0  0  0  0  0
    4.3786   -7.0743    0.0685 H   0  0  0  0  0  0  0  0  0  0  0  0
    5.1793    3.1151   -0.1088 H   0  0  0  0  0  0  0  0  0  0  0  0
    7.9402    3.5376   -0.1057 H   0  0  0  0  0  0  0  0  0  0  0  0
   10.1052    2.3211   -0.0786 H   0  0  0  0  0  0  0  0  0  0  0  0
   10.1497   -0.1457   -0.0711 H   0  0  0  0  0  0  0  0  0  0  0  0
  1  2  1  0  0  0  0
  1 25  1  0  0  0  0
  1 26  1  0  0  0  0
  2  3  1  0  0  0  0
  2 16  2  0  0  0  0
  3  4  2  0  0  0  0
  4  5  1  0  0  0  0
  4 14  1  0  0  0  0
  5  6  1  0  0  0  0
  5 27  1  0  0  0  0
  6  7  1  0  0  0  0
  6 12  2  0  0  0  0
  7  8  2  0  0  0  0
  7 28  1  0  0  0  0
  8  9  1  0  0  0  0
  8 29  1  0  0  0  0
  9 10  1  0  0  0  0
  9 11  2  0  0  0  0
 11 12  1  0  0  0  0
 11 30  1  0  0  0  0
 12 13  1  0  0  0  0
 14 15  2  0  0  0  0
 14 24  1  0  0  0  0
 15 16  1  0  0  0  0
 15 17  1  0  0  0  0
 17 18  1  0  0  0  0
 17 31  1  0  0  0  0
 18 19  1  0  0  0  0
 18 24  2  0  0  0  0
 19 20  2  0  0  0  0
 19 32  1  0  0  0  0
 20 21  1  0  0  0  0
 20 33  1  0  0  0  0
 21 22  2  0  0  0  0
 21 34  1  0  0  0  0
 22 23  1  0  0  0  0
 22 24  1  0  0  0  0
M  END
$$$$
