CHEMBL1965845
 OpenBabel04072215363D

 52 55  0  0  1  0  0  0  0  0999 V2000
    4.9705    3.6489   -3.1423 C   0  0  0  0  0  0  0  0  0  0  0  0
    5.1664    2.2399   -3.2041 O   0  0  0  0  0  0  0  0  0  0  0  0
    5.9491    1.6868   -2.2266 C   0  0  0  0  0  0  0  0  0  0  0  0
    6.5804    2.3883   -1.1997 C   0  0  0  0  0  0  0  0  0  0  0  0
    7.3567    1.7038   -0.2609 C   0  0  0  0  0  0  0  0  0  0  0  0
    7.4894    0.3168   -0.3332 C   0  0  0  0  0  0  0  0  0  0  0  0
    6.8400   -0.4147   -1.3381 C   0  0  0  0  0  0  0  0  0  0  0  0
    6.9172   -1.9356   -1.3354 C   0  0  3  0  0  0  0  0  0  0  0  0
    5.5150   -2.5478   -1.2327 C   0  0  0  0  0  0  0  0  0  0  0  0
    7.6252   -2.4286   -2.5092 N   0  0  0  0  0  0  0  0  0  0  0  0
    8.2569   -3.6470   -2.5045 C   0  0  0  0  0  0  0  0  0  0  0  0
    8.2726   -4.3593   -1.5037 O   0  0  0  0  0  0  0  0  0  0  0  0
    8.8878   -4.0005   -3.6854 N   0  0  0  0  0  0  0  0  0  0  0  0
    9.4634   -5.3441   -3.7713 C   0  0  0  0  0  0  0  0  0  0  0  0
   10.6566   -5.3972   -4.6833 C   0  0  0  0  0  0  0  0  0  0  0  0
   11.1245   -4.3668   -5.4139 C   0  0  0  0  0  0  0  0  0  0  0  0
   12.2902   -4.4354   -6.2503 C   0  0  0  0  0  0  0  0  0  0  0  0
   12.6937   -5.5775   -6.9218 C   0  0  0  0  0  0  0  0  0  0  0  0
   13.8543   -5.2944   -7.5940 N   0  0  0  0  0  0  0  0  0  0  0  0
   14.2139   -3.9965   -7.3709 C   0  0  0  0  0  0  0  0  0  0  0  0
   15.3203   -3.4256   -7.8831 N   0  0  0  0  0  0  0  0  0  0  0  0
   15.4749   -2.1393   -7.4997 C   0  0  0  0  0  0  0  0  0  0  0  0
   14.6127   -1.4333   -6.6744 C   0  0  0  0  0  0  0  0  0  0  0  0
   13.4784   -2.0748   -6.1756 C   0  0  0  0  0  0  0  0  0  0  0  0
   13.2600   -3.4184   -6.5362 C   0  0  0  0  0  0  0  0  0  0  0  0
   10.3930   -3.0501   -5.3926 C   0  0  0  0  0  0  0  0  0  0  0  0
    8.9476   -3.2080   -4.9137 C   0  0  0  0  0  0  0  0  0  0  0  0
    6.0878    0.2948   -2.2935 C   0  0  0  0  0  0  0  0  0  0  0  0
    4.3091    3.9346   -3.9656 H   0  0  0  0  0  0  0  0  0  0  0  0
    5.9173    4.1834   -3.2748 H   0  0  0  0  0  0  0  0  0  0  0  0
    4.4799    3.9410   -2.2072 H   0  0  0  0  0  0  0  0  0  0  0  0
    6.4887    3.4631   -1.0961 H   0  0  0  0  0  0  0  0  0  0  0  0
    7.8462    2.2561    0.5359 H   0  0  0  0  0  0  0  0  0  0  0  0
    8.0916   -0.1921    0.4175 H   0  0  0  0  0  0  0  0  0  0  0  0
    7.4804   -2.2591   -0.4506 H   0  0  0  0  0  0  0  0  0  0  0  0
    4.8907   -2.2850   -2.0943 H   0  0  0  0  0  0  0  0  0  0  0  0
    5.0018   -2.1941   -0.3310 H   0  0  0  0  0  0  0  0  0  0  0  0
    5.5598   -3.6405   -1.1910 H   0  0  0  0  0  0  0  0  0  0  0  0
    7.2428   -2.1268   -3.3889 H   0  0  0  0  0  0  0  0  0  0  0  0
    8.6865   -6.0160   -4.1537 H   0  0  0  0  0  0  0  0  0  0  0  0
    9.7593   -5.7018   -2.7798 H   0  0  0  0  0  0  0  0  0  0  0  0
   11.1779   -6.3515   -4.6994 H   0  0  0  0  0  0  0  0  0  0  0  0
   12.2634   -6.5685   -6.9778 H   0  0  0  0  0  0  0  0  0  0  0  0
   14.3939   -5.9321   -8.1594 H   0  0  0  0  0  0  0  0  0  0  0  0
   16.3676   -1.6572   -7.8913 H   0  0  0  0  0  0  0  0  0  0  0  0
   14.8213   -0.4016   -6.4132 H   0  0  0  0  0  0  0  0  0  0  0  0
   12.8023   -1.5430   -5.5174 H   0  0  0  0  0  0  0  0  0  0  0  0
   10.3763   -2.5837   -6.3850 H   0  0  0  0  0  0  0  0  0  0  0  0
   10.9082   -2.3701   -4.7031 H   0  0  0  0  0  0  0  0  0  0  0  0
    8.3414   -3.7243   -5.6688 H   0  0  0  0  0  0  0  0  0  0  0  0
    8.5256   -2.2101   -4.7852 H   0  0  0  0  0  0  0  0  0  0  0  0
    5.5758   -0.2363   -3.0920 H   0  0  0  0  0  0  0  0  0  0  0  0
  1  2  1  0  0  0  0
  1 29  1  0  0  0  0
  1 30  1  0  0  0  0
  1 31  1  0  0  0  0
  2  3  1  0  0  0  0
  3  4  1  0  0  0  0
  3 28  2  0  0  0  0
  4  5  2  0  0  0  0
  4 32  1  0  0  0  0
  5  6  1  0  0  0  0
  5 33  1  0  0  0  0
  6  7  2  0  0  0  0
  6 34  1  0  0  0  0
  7  8  1  0  0  0  0
  7 28  1  0  0  0  0
  8  9  1  0  0  0  0
  8 10  1  0  0  0  0
  8 35  1  0  0  0  0
  9 36  1  0  0  0  0
  9 37  1  0  0  0  0
  9 38  1  0  0  0  0
 10 11  1  0  0  0  0
 10 39  1  0  0  0  0
 11 12  2  0  0  0  0
 11 13  1  0  0  0  0
 13 14  1  0  0  0  0
 13 27  1  0  0  0  0
 14 15  1  0  0  0  0
 14 40  1  0  0  0  0
 14 41  1  0  0  0  0
 15 16  2  0  0  0  0
 15 42  1  0  0  0  0
 16 17  1  0  0  0  0
 16 26  1  0  0  0  0
 17 18  2  0  0  0  0
 17 25  1  0  0  0  0
 18 19  1  0  0  0  0
 18 43  1  0  0  0  0
 19 20  1  0  0  0  0
 19 44  1  0  0  0  0
 20 21  1  0  0  0  0
 20 25  2  0  0  0  0
 21 22  2  0  0  0  0
 22 23  1  0  0  0  0
 22 45  1  0  0  0  0
 23 24  2  0  0  0  0
 23 46  1  0  0  0  0
 24 25  1  0  0  0  0
 24 47  1  0  0  0  0
 26 27  1  0  0  0  0
 26 48  1  0  0  0  0
 26 49  1  0  0  0  0
 27 50  1  0  0  0  0
 27 51  1  0  0  0  0
 28 52  1  0  0  0  0
M  END
$$$$
