CHEMBL2408613
 OpenBabel04072215363D

 60 66  0  0  1  0  0  0  0  0999 V2000
   17.9913   -2.2056    2.3000 N   0  0  0  0  0  0  0  0  0  0  0  0
   16.8479   -1.6430    1.7590 C   0  0  0  0  0  0  0  0  0  0  0  0
   16.0936   -0.8630    2.5522 N   0  0  0  0  0  0  0  0  0  0  0  0
   14.9501   -0.3292    2.0550 C   0  0  0  0  0  0  0  0  0  0  0  0
   14.4706   -0.5044    0.7554 C   0  0  0  0  0  0  0  0  0  0  0  0
   13.2100    0.0837    0.3627 C   0  0  0  0  0  0  0  0  0  0  0  0
   12.8307    0.8185   -0.7800 C   0  0  0  0  0  0  0  0  0  0  0  0
   11.5238    1.0865   -0.8049 N   0  0  0  0  0  0  0  0  0  0  0  0
   11.0671    0.5953    0.3623 N   0  0  0  0  0  0  0  0  0  0  0  0
    9.6436    0.7028    0.6900 C   0  0  1  0  0  0  0  0  0  0  0  0
    9.1279    2.1312    0.4321 C   0  0  0  0  0  0  0  0  0  0  0  0
    7.6216    2.2639    0.6045 C   0  0  0  0  0  0  0  0  0  0  0  0
    6.8703    1.2236   -0.2232 C   0  0  2  0  0  0  0  0  0  0  0  0
    5.4722    1.3567   -0.0126 O   0  0  0  0  0  0  0  0  0  0  0  0
    7.3208   -0.1857    0.1500 C   0  0  0  0  0  0  0  0  0  0  0  0
    8.8215   -0.3632   -0.0569 C   0  0  0  0  0  0  0  0  0  0  0  0
   12.0517    0.0202    1.1171 C   0  0  0  0  0  0  0  0  0  0  0  0
   15.2607   -1.3034   -0.1112 C   0  0  0  0  0  0  0  0  0  0  0  0
   15.2343   -1.7970   -1.4762 C   0  0  0  0  0  0  0  0  0  0  0  0
   14.2429   -1.5999   -2.5265 C   0  0  0  0  0  0  0  0  0  0  0  0
   12.8881   -1.8451   -2.2939 C   0  0  0  0  0  0  0  0  0  0  0  0
   11.9524   -1.6002   -3.2980 C   0  0  0  0  0  0  0  0  0  0  0  0
   12.4092   -1.1906   -4.5379 C   0  0  0  0  0  0  0  0  0  0  0  0
   13.7128   -0.9911   -4.8238 N   0  0  0  0  0  0  0  0  0  0  0  0
   14.5929   -1.1735   -3.8086 C   0  0  0  0  0  0  0  0  0  0  0  0
   16.3844   -2.5725   -1.6494 C   0  0  0  0  0  0  0  0  0  0  0  0
   16.9566   -3.3775   -2.7379 C   0  0  0  0  0  0  0  0  0  0  0  0
   16.1434   -3.9755   -3.7227 C   0  0  0  0  0  0  0  0  0  0  0  0
   16.6713   -4.6536   -4.8165 C   0  0  0  0  0  0  0  0  0  0  0  0
   18.0472   -4.8167   -4.9407 C   0  0  0  0  0  0  0  0  0  0  0  0
   18.9027   -4.2906   -3.9495 C   0  0  0  0  0  0  0  0  0  0  0  0
   20.2883   -4.4116   -3.9473 N   0  0  0  0  0  0  0  0  0  0  0  0
   20.8322   -3.8164   -2.9082 N   0  0  0  0  0  0  0  0  0  0  0  0
   19.7142   -3.0639   -1.9326 S   0  0  0  0  0  0  0  0  0  0  0  0
   18.3508   -3.5752   -2.8769 C   0  0  0  0  0  0  0  0  0  0  0  0
   17.0911   -2.5890   -0.4844 O   0  0  0  0  0  0  0  0  0  0  0  0
   16.4258   -1.8403    0.4360 C   0  0  0  0  0  0  0  0  0  0  0  0
   18.2902   -1.7203    3.1413 H   0  0  0  0  0  0  0  0  0  0  0  0
   18.7037   -2.4490    1.6273 H   0  0  0  0  0  0  0  0  0  0  0  0
   14.4067    0.2740    2.7767 H   0  0  0  0  0  0  0  0  0  0  0  0
   13.4359    1.1243   -1.6236 H   0  0  0  0  0  0  0  0  0  0  0  0
    9.5631    0.5019    1.7675 H   0  0  0  0  0  0  0  0  0  0  0  0
    9.3787    2.4474   -0.5885 H   0  0  0  0  0  0  0  0  0  0  0  0
    9.6387    2.8308    1.1048 H   0  0  0  0  0  0  0  0  0  0  0  0
    7.3020    3.2712    0.3109 H   0  0  0  0  0  0  0  0  0  0  0  0
    7.3539    2.1641    1.6653 H   0  0  0  0  0  0  0  0  0  0  0  0
    7.0542    1.3996   -1.2904 H   0  0  0  0  0  0  0  0  0  0  0  0
    5.2907    1.2338    0.9355 H   0  0  0  0  0  0  0  0  0  0  0  0
    6.7652   -0.9242   -0.4482 H   0  0  0  0  0  0  0  0  0  0  0  0
    7.0546   -0.3976    1.1913 H   0  0  0  0  0  0  0  0  0  0  0  0
    9.0395   -0.3255   -1.1328 H   0  0  0  0  0  0  0  0  0  0  0  0
    9.1150   -1.3659    0.2803 H   0  0  0  0  0  0  0  0  0  0  0  0
   11.8407   -0.4058    2.0887 H   0  0  0  0  0  0  0  0  0  0  0  0
   12.5391   -2.1720   -1.3180 H   0  0  0  0  0  0  0  0  0  0  0  0
   10.8903   -1.7015   -3.1044 H   0  0  0  0  0  0  0  0  0  0  0  0
   11.7181   -1.0005   -5.3543 H   0  0  0  0  0  0  0  0  0  0  0  0
   15.6269   -0.9795   -4.0839 H   0  0  0  0  0  0  0  0  0  0  0  0
   15.0591   -3.9082   -3.6580 H   0  0  0  0  0  0  0  0  0  0  0  0
   16.0066   -5.0527   -5.5791 H   0  0  0  0  0  0  0  0  0  0  0  0
   18.4680   -5.3492   -5.7877 H   0  0  0  0  0  0  0  0  0  0  0  0
  1  2  1  0  0  0  0
  1 38  1  0  0  0  0
  1 39  1  0  0  0  0
  2  3  1  0  0  0  0
  2 37  2  0  0  0  0
  3  4  2  0  0  0  0
  4  5  1  0  0  0  0
  4 40  1  0  0  0  0
  5  6  1  0  0  0  0
  5 18  2  0  0  0  0
  6  7  1  0  0  0  0
  6 17  2  0  0  0  0
  7  8  2  0  0  0  0
  7 41  1  0  0  0  0
  8  9  1  0  0  0  0
  9 17  1  0  0  0  0
 10 11  1  0  0  0  0
 10 16  1  0  0  0  0
 10  9  1  0  0  0  0
 10 42  1  1  0  0  0
 11 12  1  0  0  0  0
 11 43  1  0  0  0  0
 11 44  1  0  0  0  0
 12 13  1  0  0  0  0
 12 45  1  0  0  0  0
 12 46  1  0  0  0  0
 13 14  1  0  0  0  0
 13 15  1  0  0  0  0
 13 47  1  6  0  0  0
 14 48  1  0  0  0  0
 15 16  1  0  0  0  0
 15 49  1  0  0  0  0
 15 50  1  0  0  0  0
 16 51  1  0  0  0  0
 16 52  1  0  0  0  0
 17 53  1  0  0  0  0
 18 19  1  0  0  0  0
 18 37  1  0  0  0  0
 19 20  1  0  0  0  0
 19 26  2  0  0  0  0
 20 21  1  0  0  0  0
 20 25  2  0  0  0  0
 21 22  2  0  0  0  0
 21 54  1  0  0  0  0
 22 23  1  0  0  0  0
 22 55  1  0  0  0  0
 23 24  2  0  0  0  0
 23 56  1  0  0  0  0
 24 25  1  0  0  0  0
 25 57  1  0  0  0  0
 26 27  1  0  0  0  0
 26 36  1  0  0  0  0
 27 28  1  0  0  0  0
 27 35  2  0  0  0  0
 28 29  2  0  0  0  0
 28 58  1  0  0  0  0
 29 30  1  0  0  0  0
 29 59  1  0  0  0  0
 30 31  2  0  0  0  0
 30 60  1  0  0  0  0
 31 32  1  0  0  0  0
 31 35  1  0  0  0  0
 32 33  2  0  0  0  0
 33 34  1  0  0  0  0
 34 35  1  0  0  0  0
 36 37  1  0  0  0  0
M  END
$$$$
