CHEMBL3983996
 OpenBabel04072215373D

 68 71  0  0  1  0  0  0  0  0999 V2000
    1.6557    2.3132    5.0710 C   0  0  0  0  0  0  0  0  0  0  0  0
    2.8878    1.9043    4.6649 O   0  0  0  0  0  0  0  0  0  0  0  0
    3.2985    1.7258    3.4013 C   0  0  0  0  0  0  0  0  0  0  0  0
    2.4493    1.3817    2.3392 C   0  0  0  0  0  0  0  0  0  0  0  0
    2.9901    1.1525    1.0802 C   0  0  0  0  0  0  0  0  0  0  0  0
    2.1524    0.7828    0.0795 O   0  0  0  0  0  0  0  0  0  0  0  0
    2.3975    0.9180   -1.2691 C   0  0  0  0  0  0  0  0  0  0  0  0
    4.3759    1.3064    0.8923 C   0  0  0  0  0  0  0  0  0  0  0  0
    5.2239    1.7610    1.9448 C   0  0  0  0  0  0  0  0  0  0  0  0
    6.6028    2.1192    1.7210 N   0  0  0  0  0  0  0  0  0  0  0  0
    7.0838    2.1429    0.2711 C   0  0  0  0  0  0  0  0  0  0  0  0
    6.3287    3.0711   -0.7743 C   0  0  0  0  0  0  0  0  0  0  0  0
    6.8738    2.9527   -2.1477 N   0  0  0  0  0  0  0  0  0  0  0  0
    6.0523    3.7322   -3.1085 C   0  0  0  0  0  0  0  0  0  0  0  0
    5.9611    2.9246   -4.4042 C   0  0  0  0  0  0  0  0  0  0  0  0
    6.8610    1.7136   -4.1709 C   0  0  3  0  0  0  0  0  0  0  0  0
    8.2220    1.9740   -4.6364 N   0  0  0  0  0  0  0  0  0  0  0  0
    6.8527    1.5749   -2.6634 C   0  0  0  0  0  0  0  0  0  0  0  0
    7.5322    2.6269    2.7882 C   0  0  0  0  0  0  0  0  0  0  0  0
    8.1988    3.6713    2.2462 C   0  0  0  0  0  0  0  0  0  0  0  0
    9.1799    4.1725    2.8284 C   0  0  0  0  0  0  0  0  0  0  0  0
    9.6103    3.8561    4.0205 C   0  0  0  0  0  0  0  0  0  0  0  0
   10.7062    4.3645    4.0049 N   0  0  0  0  0  0  0  0  0  0  0  0
   11.4753    4.5793    4.9647 C   0  0  0  0  0  0  0  0  0  0  0  0
   11.2472    4.3068    6.2133 C   0  0  0  0  0  0  0  0  0  0  0  0
   12.4676    5.3410    6.9261 C   0  0  0  0  0  0  0  0  0  0  0  0
   13.4501    6.1038    6.0895 C   0  0  0  0  0  0  0  0  0  0  0  0
   14.1891    6.9803    6.7865 N   0  0  0  0  0  0  0  0  0  0  0  0
   13.8383    6.8865    8.0571 N   0  0  0  0  0  0  0  0  0  0  0  0
   14.4146    7.8453    9.0440 C   0  0  0  0  0  0  0  0  0  0  0  0
   12.8650    5.8623    8.2031 C   0  0  0  0  0  0  0  0  0  0  0  0
   10.0090    3.3484    6.2187 N   0  0  0  0  0  0  0  0  0  0  0  0
    9.1555    3.0596    4.9961 C   0  0  0  0  0  0  0  0  0  0  0  0
    7.9339    2.2728    4.2711 C   0  0  0  0  0  0  0  0  0  0  0  0
    4.6471    1.9354    3.1875 C   0  0  0  0  0  0  0  0  0  0  0  0
    0.3387   -1.8281    0.3301 Cl  0  0  0  0  0  0  0  0  0  0  0  0
    1.8206    2.7054    6.0937 H   0  0  0  0  0  0  0  0  0  0  0  0
    0.9462    1.4797    5.1848 H   0  0  0  0  0  0  0  0  0  0  0  0
    1.2611    3.0604    4.3431 H   0  0  0  0  0  0  0  0  0  0  0  0
    1.3835    1.2683    2.4845 H   0  0  0  0  0  0  0  0  0  0  0  0
    1.5859    0.4161   -1.8335 H   0  0  0  0  0  0  0  0  0  0  0  0
    3.3540    0.4448   -1.5689 H   0  0  0  0  0  0  0  0  0  0  0  0
    2.4044    1.9995   -1.5143 H   0  0  0  0  0  0  0  0  0  0  0  0
    4.7695    1.0706   -0.0736 H   0  0  0  0  0  0  0  0  0  0  0  0
    7.0901    1.1134   -0.0989 H   0  0  0  0  0  0  0  0  0  0  0  0
    8.1418    2.4602    0.1604 H   0  0  0  0  0  0  0  0  0  0  0  0
    6.3989    4.1394   -0.4800 H   0  0  0  0  0  0  0  0  0  0  0  0
    5.2582    2.8450   -0.8578 H   0  0  0  0  0  0  0  0  0  0  0  0
    6.4879    4.7384   -3.2731 H   0  0  0  0  0  0  0  0  0  0  0  0
    5.0067    3.9011   -2.7498 H   0  0  0  0  0  0  0  0  0  0  0  0
    6.2453    3.5155   -5.3020 H   0  0  0  0  0  0  0  0  0  0  0  0
    4.9054    2.5862   -4.5171 H   0  0  0  0  0  0  0  0  0  0  0  0
    6.4969    0.7921   -4.6793 H   0  0  0  0  0  0  0  0  0  0  0  0
    8.6170    2.8341   -4.1954 H   0  0  0  0  0  0  0  0  0  0  0  0
    8.1966    2.0947   -5.6752 H   0  0  0  0  0  0  0  0  0  0  0  0
    7.7270    0.9839   -2.3040 H   0  0  0  0  0  0  0  0  0  0  0  0
    5.9158    1.0592   -2.3622 H   0  0  0  0  0  0  0  0  0  0  0  0
    8.0782    4.1465    1.2882 H   0  0  0  0  0  0  0  0  0  0  0  0
    9.7127    4.9486    2.2571 H   0  0  0  0  0  0  0  0  0  0  0  0
   12.1808    5.1260    4.5259 H   0  0  0  0  0  0  0  0  0  0  0  0
   13.6434    6.1756    4.9933 H   0  0  0  0  0  0  0  0  0  0  0  0
   15.1786    8.5616    8.6165 H   0  0  0  0  0  0  0  0  0  0  0  0
   14.8949    7.3242    9.8991 H   0  0  0  0  0  0  0  0  0  0  0  0
   13.6155    8.5318    9.4363 H   0  0  0  0  0  0  0  0  0  0  0  0
   12.4325    5.6747    9.1708 H   0  0  0  0  0  0  0  0  0  0  0  0
    7.2719    1.4271    4.6263 H   0  0  0  0  0  0  0  0  0  0  0  0
    5.2212    2.2675    4.0303 H   0  0  0  0  0  0  0  0  0  0  0  0
    1.6113   -1.5579   -0.1095 H   0  0  0  0  0  0  0  0  0  0  0  0
  1  2  1  0  0  0  0
  1 37  1  0  0  0  0
  1 38  1  0  0  0  0
  1 39  1  0  0  0  0
  2  3  1  0  0  0  0
  3  4  1  0  0  0  0
  3 35  2  0  0  0  0
  4  5  2  0  0  0  0
  4 40  1  0  0  0  0
  5  6  1  0  0  0  0
  5  8  1  0  0  0  0
  6  7  1  0  0  0  0
  7 41  1  0  0  0  0
  7 42  1  0  0  0  0
  7 43  1  0  0  0  0
  8  9  2  0  0  0  0
  8 44  1  0  0  0  0
  9 10  1  0  0  0  0
  9 35  1  0  0  0  0
 10 11  1  0  0  0  0
 10 19  1  0  0  0  0
 11 12  1  0  0  0  0
 11 45  1  0  0  0  0
 11 46  1  0  0  0  0
 12 13  1  0  0  0  0
 12 47  1  0  0  0  0
 12 48  1  0  0  0  0
 13 14  1  0  0  0  0
 13 18  1  0  0  0  0
 14 15  1  0  0  0  0
 14 49  1  0  0  0  0
 14 50  1  0  0  0  0
 15 16  1  0  0  0  0
 15 51  1  0  0  0  0
 15 52  1  0  0  0  0
 16 17  1  0  0  0  0
 16 18  1  0  0  0  0
 16 53  1  0  0  0  0
 17 54  1  0  0  0  0
 17 55  1  0  0  0  0
 18 56  1  0  0  0  0
 18 57  1  0  0  0  0
 19 20  1  0  0  0  0
 19 34  2  0  0  0  0
 20 21  2  0  0  0  0
 20 58  1  0  0  0  0
 21 22  1  0  0  0  0
 21 59  1  0  0  0  0
 22 23  1  0  0  0  0
 22 33  2  0  0  0  0
 23 24  2  0  0  0  0
 24 25  1  0  0  0  0
 24 60  1  0  0  0  0
 25 26  1  0  0  0  0
 25 32  2  0  0  0  0
 26 27  1  0  0  0  0
 26 31  2  0  0  0  0
 27 28  2  0  0  0  0
 27 61  1  0  0  0  0
 28 29  1  0  0  0  0
 29 30  1  0  0  0  0
 29 31  1  0  0  0  0
 30 62  1  0  0  0  0
 30 63  1  0  0  0  0
 30 64  1  0  0  0  0
 31 65  1  0  0  0  0
 32 33  1  0  0  0  0
 33 34  1  0  0  0  0
 34 66  1  0  0  0  0
 35 67  1  0  0  0  0
 36 68  1  0  0  0  0
M  END
$$$$
