CHEMBL3694694
 OpenBabel04072215373D

 45 48  0  0  0  0  0  0  0  0999 V2000
    2.5840   -0.8423    1.4845 O   0  0  0  0  0  0  0  0  0  0  0  0
    2.2604   -0.7158    0.3130 C   0  0  0  0  0  0  0  0  0  0  0  0
    0.9382   -0.5609   -0.0537 N   0  0  0  0  0  0  0  0  0  0  0  0
   -0.0943   -0.7124    0.9792 C   0  0  0  0  0  0  0  0  0  0  0  0
   -0.4926   -2.1633    1.2845 C   0  0  0  0  0  0  0  0  0  0  0  0
    0.1292   -3.0384    0.4588 F   0  0  0  0  0  0  0  0  0  0  0  0
   -0.2208   -2.5176    2.5559 F   0  0  0  0  0  0  0  0  0  0  0  0
   -1.8250   -2.3273    1.0908 F   0  0  0  0  0  0  0  0  0  0  0  0
    3.0917   -0.6901   -0.7837 N   0  0  0  0  0  0  0  0  0  0  0  0
    4.5008   -0.7864   -0.7833 C   0  0  0  0  0  0  0  0  0  0  0  0
    5.2632   -0.9373    0.3727 C   0  0  0  0  0  0  0  0  0  0  0  0
    6.6481   -0.9710    0.2851 C   0  0  0  0  0  0  0  0  0  0  0  0
    7.3749   -1.1215    1.4001 F   0  0  0  0  0  0  0  0  0  0  0  0
    7.2979   -0.8419   -0.9341 C   0  0  0  0  0  0  0  0  0  0  0  0
    6.5602   -0.6974   -2.1139 C   0  0  0  0  0  0  0  0  0  0  0  0
    7.2728   -0.5852   -3.3936 C   0  0  0  0  0  0  0  0  0  0  0  0
    8.4710   -1.1795   -3.7704 C   0  0  0  0  0  0  0  0  0  0  0  0
    8.8491   -0.8363   -5.0362 N   0  0  0  0  0  0  0  0  0  0  0  0
    7.9152   -0.0165   -5.4597 C   0  0  0  0  0  0  0  0  0  0  0  0
    7.7954    0.6679   -6.7020 C   0  0  0  0  0  0  0  0  0  0  0  0
    6.7591    1.5048   -6.9480 C   0  0  0  0  0  0  0  0  0  0  0  0
    6.6949    2.2169   -8.2539 C   0  0  0  0  0  0  0  0  0  0  0  0
    7.6792    2.0044   -9.1491 N   0  0  0  0  0  0  0  0  0  0  0  0
    7.6025    2.6881  -10.3050 C   0  0  0  0  0  0  0  0  0  0  0  0
    6.5908    3.5672  -10.5993 C   0  0  0  0  0  0  0  0  0  0  0  0
    5.6310    3.7112   -9.6266 C   0  0  0  0  0  0  0  0  0  0  0  0
    5.6559    3.0528   -8.4519 N   0  0  0  0  0  0  0  0  0  0  0  0
    5.7488    1.6997   -5.8945 C   0  0  0  0  0  0  0  0  0  0  0  0
    5.8645    1.0690   -4.7139 C   0  0  0  0  0  0  0  0  0  0  0  0
    6.9305    0.1950   -4.4962 N   0  0  0  0  0  0  0  0  0  0  0  0
    5.1573   -0.7035   -2.0241 C   0  0  0  0  0  0  0  0  0  0  0  0
    0.6933   -0.9051   -0.9714 H   0  0  0  0  0  0  0  0  0  0  0  0
   -0.9672   -0.1568    0.6223 H   0  0  0  0  0  0  0  0  0  0  0  0
    0.2462   -0.2250    1.9001 H   0  0  0  0  0  0  0  0  0  0  0  0
    2.6508   -0.4933   -1.6692 H   0  0  0  0  0  0  0  0  0  0  0  0
    4.8234   -1.0279    1.3587 H   0  0  0  0  0  0  0  0  0  0  0  0
    8.3842   -0.8562   -0.9400 H   0  0  0  0  0  0  0  0  0  0  0  0
    9.0842   -1.8500   -3.1806 H   0  0  0  0  0  0  0  0  0  0  0  0
    8.5828    0.4932   -7.4288 H   0  0  0  0  0  0  0  0  0  0  0  0
    8.4111    2.5016  -11.0062 H   0  0  0  0  0  0  0  0  0  0  0  0
    6.5509    4.1081  -11.5344 H   0  0  0  0  0  0  0  0  0  0  0  0
    4.7884    4.3819   -9.7641 H   0  0  0  0  0  0  0  0  0  0  0  0
    4.9219    2.3776   -6.0888 H   0  0  0  0  0  0  0  0  0  0  0  0
    5.1527    1.2273   -3.9179 H   0  0  0  0  0  0  0  0  0  0  0  0
    4.5610   -0.6629   -2.9314 H   0  0  0  0  0  0  0  0  0  0  0  0
  1  2  2  0  0  0  0
  2  3  1  0  0  0  0
  2  9  1  0  0  0  0
  3  4  1  0  0  0  0
  3 32  1  0  0  0  0
  4  5  1  0  0  0  0
  4 33  1  0  0  0  0
  4 34  1  0  0  0  0
  5  6  1  0  0  0  0
  5  7  1  0  0  0  0
  5  8  1  0  0  0  0
  9 10  1  0  0  0  0
  9 35  1  0  0  0  0
 10 11  1  0  0  0  0
 10 31  2  0  0  0  0
 11 12  2  0  0  0  0
 11 36  1  0  0  0  0
 12 13  1  0  0  0  0
 12 14  1  0  0  0  0
 14 15  2  0  0  0  0
 14 37  1  0  0  0  0
 15 16  1  0  0  0  0
 15 31  1  0  0  0  0
 16 17  2  0  0  0  0
 16 30  1  0  0  0  0
 17 18  1  0  0  0  0
 17 38  1  0  0  0  0
 18 19  2  0  0  0  0
 19 20  1  0  0  0  0
 19 30  1  0  0  0  0
 20 21  2  0  0  0  0
 20 39  1  0  0  0  0
 21 22  1  0  0  0  0
 21 28  1  0  0  0  0
 22 23  1  0  0  0  0
 22 27  2  0  0  0  0
 23 24  2  0  0  0  0
 24 25  1  0  0  0  0
 24 40  1  0  0  0  0
 25 26  2  0  0  0  0
 25 41  1  0  0  0  0
 26 27  1  0  0  0  0
 26 42  1  0  0  0  0
 28 29  2  0  0  0  0
 28 43  1  0  0  0  0
 29 30  1  0  0  0  0
 29 44  1  0  0  0  0
 31 45  1  0  0  0  0
M  END
$$$$
