CHEMBL2349004
 OpenBabel04072215363D

 47 51  0  0  0  0  0  0  0  0999 V2000
    2.1388   -4.0480   -5.9649 O   0  0  0  0  0  0  0  0  0  0  0  0
    3.0366   -3.6066   -5.2603 C   0  0  0  0  0  0  0  0  0  0  0  0
    3.2084   -2.2832   -4.8806 N   0  0  0  0  0  0  0  0  0  0  0  0
    2.3310   -1.2208   -5.2118 C   0  0  0  0  0  0  0  0  0  0  0  0
    1.0227   -1.4538   -5.6510 C   0  0  0  0  0  0  0  0  0  0  0  0
    0.1948   -0.4038   -6.0448 C   0  0  0  0  0  0  0  0  0  0  0  0
    0.6590    0.9038   -5.9922 C   0  0  0  0  0  0  0  0  0  0  0  0
    1.9541    1.1538   -5.5362 C   0  0  0  0  0  0  0  0  0  0  0  0
    2.4233    2.4835   -5.4031 O   0  0  0  0  0  0  0  0  0  0  0  0
    2.1261    3.4141   -6.3975 C   0  0  0  0  0  0  0  0  0  0  0  0
    2.1748    4.7738   -5.8069 C   0  0  0  0  0  0  0  0  0  0  0  0
    1.8135    5.7850   -6.6078 C   0  0  0  0  0  0  0  0  0  0  0  0
    1.4643    5.5133   -7.9493 C   0  0  0  0  0  0  0  0  0  0  0  0
    1.0938    6.3098   -8.9262 N   0  0  0  0  0  0  0  0  0  0  0  0
    0.9145    5.5021  -10.0105 C   0  0  0  0  0  0  0  0  0  0  0  0
    0.5316    5.9602  -11.2491 N   0  0  0  0  0  0  0  0  0  0  0  0
    0.2853    7.2872  -11.5295 C   0  0  0  0  0  0  0  0  0  0  0  0
    0.3359    8.2397  -10.7598 O   0  0  0  0  0  0  0  0  0  0  0  0
   -0.1134    7.5246  -12.9547 C   0  0  0  0  0  0  0  0  0  0  0  0
   -0.1791    8.9341  -13.5037 C   0  0  0  0  0  0  0  0  0  0  0  0
   -1.4473    8.1741  -13.2476 C   0  0  0  0  0  0  0  0  0  0  0  0
    1.1753    4.1884   -9.6949 C   0  0  0  0  0  0  0  0  0  0  0  0
    1.5234    4.1962   -8.3689 N   0  0  0  0  0  0  0  0  0  0  0  0
    1.8396    3.1027   -7.6224 N   0  0  0  0  0  0  0  0  0  0  0  0
    2.7824    0.1054   -5.1094 C   0  0  0  0  0  0  0  0  0  0  0  0
    4.0693   -4.5858   -4.8137 C   0  0  0  0  0  0  0  0  0  0  0  0
    5.1349   -4.3470   -3.7793 C   0  0  0  0  0  0  0  0  0  0  0  0
    5.5098   -4.4163   -5.2328 C   0  0  0  0  0  0  0  0  0  0  0  0
    4.0911   -2.0333   -4.4582 H   0  0  0  0  0  0  0  0  0  0  0  0
    0.6045   -2.4559   -5.6887 H   0  0  0  0  0  0  0  0  0  0  0  0
   -0.8111   -0.6155   -6.3988 H   0  0  0  0  0  0  0  0  0  0  0  0
    0.0048    1.7068   -6.3127 H   0  0  0  0  0  0  0  0  0  0  0  0
    2.4625    4.9128   -4.7743 H   0  0  0  0  0  0  0  0  0  0  0  0
    1.7791    6.8149   -6.2661 H   0  0  0  0  0  0  0  0  0  0  0  0
    0.4283    5.2723  -11.9792 H   0  0  0  0  0  0  0  0  0  0  0  0
    0.2226    6.7697  -13.6587 H   0  0  0  0  0  0  0  0  0  0  0  0
    0.1188    9.1000  -14.5316 H   0  0  0  0  0  0  0  0  0  0  0  0
    0.0597    9.7589  -12.8388 H   0  0  0  0  0  0  0  0  0  0  0  0
   -2.0110    7.8234  -14.1027 H   0  0  0  0  0  0  0  0  0  0  0  0
   -2.0585    8.4923  -12.4086 H   0  0  0  0  0  0  0  0  0  0  0  0
    1.1514    3.2686  -10.2582 H   0  0  0  0  0  0  0  0  0  0  0  0
    3.7753    0.3317   -4.7334 H   0  0  0  0  0  0  0  0  0  0  0  0
    3.6869   -5.6048   -4.8530 H   0  0  0  0  0  0  0  0  0  0  0  0
    5.4018   -5.1892   -3.1469 H   0  0  0  0  0  0  0  0  0  0  0  0
    5.2027   -3.3959   -3.2702 H   0  0  0  0  0  0  0  0  0  0  0  0
    6.0272   -5.2997   -5.5919 H   0  0  0  0  0  0  0  0  0  0  0  0
    5.7993   -3.5030   -5.7387 H   0  0  0  0  0  0  0  0  0  0  0  0
  1  2  2  0  0  0  0
  2  3  1  0  0  0  0
  2 26  1  0  0  0  0
  3  4  1  0  0  0  0
  3 29  1  0  0  0  0
  4  5  1  0  0  0  0
  4 25  2  0  0  0  0
  5  6  2  0  0  0  0
  5 30  1  0  0  0  0
  6  7  1  0  0  0  0
  6 31  1  0  0  0  0
  7  8  2  0  0  0  0
  7 32  1  0  0  0  0
  8  9  1  0  0  0  0
  8 25  1  0  0  0  0
  9 10  1  0  0  0  0
 10 11  1  0  0  0  0
 10 24  2  0  0  0  0
 11 12  2  0  0  0  0
 11 33  1  0  0  0  0
 12 13  1  0  0  0  0
 12 34  1  0  0  0  0
 13 14  2  0  0  0  0
 13 23  1  0  0  0  0
 14 15  1  0  0  0  0
 15 16  1  0  0  0  0
 15 22  2  0  0  0  0
 16 17  1  0  0  0  0
 16 35  1  0  0  0  0
 17 18  2  0  0  0  0
 17 19  1  0  0  0  0
 19 20  1  0  0  0  0
 19 21  1  0  0  0  0
 19 36  1  0  0  0  0
 20 21  1  0  0  0  0
 20 37  1  0  0  0  0
 20 38  1  0  0  0  0
 21 39  1  0  0  0  0
 21 40  1  0  0  0  0
 22 23  1  0  0  0  0
 22 41  1  0  0  0  0
 23 24  1  0  0  0  0
 25 42  1  0  0  0  0
 26 27  1  0  0  0  0
 26 28  1  0  0  0  0
 26 43  1  0  0  0  0
 27 28  1  0  0  0  0
 27 44  1  0  0  0  0
 27 45  1  0  0  0  0
 28 46  1  0  0  0  0
 28 47  1  0  0  0  0
M  END
$$$$
