CHEMBL2088089
 OpenBabel04072215363D

 39 41  0  0  0  0  0  0  0  0999 V2000
    5.8638   -0.2333   -3.0263 C   0  0  0  0  0  0  0  0  0  0  0  0
    4.8799    0.0506   -1.9622 C   0  0  0  0  0  0  0  0  0  0  0  0
    4.1315    1.1716   -1.6820 C   0  0  0  0  0  0  0  0  0  0  0  0
    3.3580    0.8460   -0.5499 C   0  0  0  0  0  0  0  0  0  0  0  0
    2.4921    1.6472    0.1009 N   0  0  0  0  0  0  0  0  0  0  0  0
    2.3347    3.0511    0.0502 C   0  0  0  0  0  0  0  0  0  0  0  0
    2.8452    3.7478   -0.9877 N   0  0  0  0  0  0  0  0  0  0  0  0
    2.8462    5.0893   -0.9290 C   0  0  0  0  0  0  0  0  0  0  0  0
    3.4197    5.7470   -1.9789 N   0  0  0  0  0  0  0  0  0  0  0  0
    3.8521    7.1140   -1.8206 C   0  0  0  0  0  0  0  0  0  0  0  0
    4.4654    7.6499   -3.1177 C   0  0  0  0  0  0  0  0  0  0  0  0
    4.9935    9.0465   -2.9372 C   0  0  0  0  0  0  0  0  0  0  0  0
    4.1723   10.1635   -3.1077 C   0  0  0  0  0  0  0  0  0  0  0  0
    4.6864   11.4374   -2.8840 C   0  0  0  0  0  0  0  0  0  0  0  0
    6.0098   11.5522   -2.4927 C   0  0  0  0  0  0  0  0  0  0  0  0
    6.8334   10.4977   -2.3153 N   0  0  0  0  0  0  0  0  0  0  0  0
    6.3079    9.2722   -2.5383 C   0  0  0  0  0  0  0  0  0  0  0  0
    2.3211    5.7811    0.0829 N   0  0  0  0  0  0  0  0  0  0  0  0
    1.7401    5.0773    1.0678 C   0  0  0  0  0  0  0  0  0  0  0  0
    1.7200    3.7064    1.1115 C   0  0  0  0  0  0  0  0  0  0  0  0
    0.9339    2.8149    2.5782 Br  0  0  0  0  0  0  0  0  0  0  0  0
    3.5921   -0.4119   -0.1513 N   0  0  0  0  0  0  0  0  0  0  0  0
    4.5395   -0.8540   -0.9985 N   0  0  0  0  0  0  0  0  0  0  0  0
    5.9153    0.5972   -3.7380 H   0  0  0  0  0  0  0  0  0  0  0  0
    5.5830   -1.1339   -3.5814 H   0  0  0  0  0  0  0  0  0  0  0  0
    6.8628   -0.3798   -2.6041 H   0  0  0  0  0  0  0  0  0  0  0  0
    4.1478    2.0970   -2.2317 H   0  0  0  0  0  0  0  0  0  0  0  0
    2.0177    1.2276    0.8877 H   0  0  0  0  0  0  0  0  0  0  0  0
    3.5560    5.2098   -2.8204 H   0  0  0  0  0  0  0  0  0  0  0  0
    4.5931    7.1820   -1.0123 H   0  0  0  0  0  0  0  0  0  0  0  0
    3.0002    7.7449   -1.5378 H   0  0  0  0  0  0  0  0  0  0  0  0
    3.7151    7.6380   -3.9191 H   0  0  0  0  0  0  0  0  0  0  0  0
    5.2747    6.9915   -3.4605 H   0  0  0  0  0  0  0  0  0  0  0  0
    3.1334   10.0486   -3.4066 H   0  0  0  0  0  0  0  0  0  0  0  0
    4.0686   12.3197   -3.0069 H   0  0  0  0  0  0  0  0  0  0  0  0
    6.4552   12.5245   -2.3028 H   0  0  0  0  0  0  0  0  0  0  0  0
    6.9990    8.4492   -2.3735 H   0  0  0  0  0  0  0  0  0  0  0  0
    1.2963    5.6799    1.8539 H   0  0  0  0  0  0  0  0  0  0  0  0
    4.9047   -1.7896   -0.8598 H   0  0  0  0  0  0  0  0  0  0  0  0
  1  2  1  0  0  0  0
  1 24  1  0  0  0  0
  1 25  1  0  0  0  0
  1 26  1  0  0  0  0
  2  3  2  0  0  0  0
  2 23  1  0  0  0  0
  3  4  1  0  0  0  0
  3 27  1  0  0  0  0
  4  5  1  0  0  0  0
  4 22  2  0  0  0  0
  5  6  1  0  0  0  0
  5 28  1  0  0  0  0
  6  7  1  0  0  0  0
  6 20  2  0  0  0  0
  7  8  2  0  0  0  0
  8  9  1  0  0  0  0
  8 18  1  0  0  0  0
  9 10  1  0  0  0  0
  9 29  1  0  0  0  0
 10 11  1  0  0  0  0
 10 30  1  0  0  0  0
 10 31  1  0  0  0  0
 11 12  1  0  0  0  0
 11 32  1  0  0  0  0
 11 33  1  0  0  0  0
 12 13  1  0  0  0  0
 12 17  2  0  0  0  0
 13 14  2  0  0  0  0
 13 34  1  0  0  0  0
 14 15  1  0  0  0  0
 14 35  1  0  0  0  0
 15 16  2  0  0  0  0
 15 36  1  0  0  0  0
 16 17  1  0  0  0  0
 17 37  1  0  0  0  0
 18 19  2  0  0  0  0
 19 20  1  0  0  0  0
 19 38  1  0  0  0  0
 20 21  1  0  0  0  0
 22 23  1  0  0  0  0
 23 39  1  0  0  0  0
M  END
$$$$
