CHEMBL387829
 OpenBabel04072215373D

 52 55  0  0  0  0  0  0  0  0999 V2000
    2.9544   -0.9896   -0.5827 C   0  0  0  0  0  0  0  0  0  0  0  0
    2.3240   -0.2210    0.4402 O   0  0  0  0  0  0  0  0  0  0  0  0
    3.1758    0.2533    1.4066 C   0  0  0  0  0  0  0  0  0  0  0  0
    2.8151   -0.1126    2.7277 C   0  0  0  0  0  0  0  0  0  0  0  0
    3.5804    0.2794    3.8345 C   0  0  0  0  0  0  0  0  0  0  0  0
    3.3140   -0.2246    5.1215 N   0  0  0  0  0  0  0  0  0  0  0  0
    4.2377   -0.5788    6.1117 C   0  0  0  0  0  0  0  0  0  0  0  0
    5.5409   -0.3404    5.9114 N   0  0  0  0  0  0  0  0  0  0  0  0
    6.4193   -0.7685    6.8250 C   0  0  0  0  0  0  0  0  0  0  0  0
    6.0573   -1.4456    7.9613 C   0  0  0  0  0  0  0  0  0  0  0  0
    7.0866   -1.8658    8.8451 C   0  0  0  0  0  0  0  0  0  0  0  0
    7.9666   -2.2269    9.5169 N   0  0  0  0  0  0  0  0  0  0  0  0
    4.6974   -1.6597    8.1278 C   0  0  0  0  0  0  0  0  0  0  0  0
    4.0974   -2.3763    9.2827 C   0  0  0  0  0  0  0  0  0  0  0  0
    2.8761   -1.9457    9.8369 C   0  0  0  0  0  0  0  0  0  0  0  0
    2.2882   -2.6098   10.9204 C   0  0  0  0  0  0  0  0  0  0  0  0
    2.9130   -3.7183   11.4830 C   0  0  0  0  0  0  0  0  0  0  0  0
    4.1168   -4.1692   10.9565 C   0  0  0  0  0  0  0  0  0  0  0  0
    4.6914   -3.5156    9.8617 C   0  0  0  0  0  0  0  0  0  0  0  0
    3.7878   -1.2158    7.2054 N   0  0  0  0  0  0  0  0  0  0  0  0
    4.6851    1.0921    3.5842 C   0  0  0  0  0  0  0  0  0  0  0  0
    5.0416    1.4676    2.2912 C   0  0  0  0  0  0  0  0  0  0  0  0
    4.2863    1.0801    1.1717 C   0  0  0  0  0  0  0  0  0  0  0  0
    4.7523    1.6177   -0.1685 C   0  0  0  0  0  0  0  0  0  0  0  0
    4.2478    2.9163   -0.6345 N   0  0  0  0  0  0  0  0  0  0  0  0
    4.5090    4.0549    0.2455 C   0  0  0  0  0  0  0  0  0  0  0  0
    3.2384    4.2239    1.0544 C   0  0  0  0  0  0  0  0  0  0  0  0
    2.1514    3.8740    0.0565 C   0  0  0  0  0  0  0  0  0  0  0  0
    2.8197    2.9489   -0.9562 C   0  0  0  0  0  0  0  0  0  0  0  0
    2.2812   -1.8049   -0.8668 H   0  0  0  0  0  0  0  0  0  0  0  0
    3.9087   -1.4297   -0.2718 H   0  0  0  0  0  0  0  0  0  0  0  0
    3.0846   -0.3708   -1.4746 H   0  0  0  0  0  0  0  0  0  0  0  0
    1.9431   -0.7464    2.8707 H   0  0  0  0  0  0  0  0  0  0  0  0
    2.4120   -0.6416    5.2943 H   0  0  0  0  0  0  0  0  0  0  0  0
    7.4578   -0.5460    6.5902 H   0  0  0  0  0  0  0  0  0  0  0  0
    2.3645   -1.0791    9.4203 H   0  0  0  0  0  0  0  0  0  0  0  0
    1.3408   -2.2595   11.3222 H   0  0  0  0  0  0  0  0  0  0  0  0
    2.4598   -4.2350   12.3254 H   0  0  0  0  0  0  0  0  0  0  0  0
    4.6117   -5.0354   11.3890 H   0  0  0  0  0  0  0  0  0  0  0  0
    5.6129   -3.9364    9.4671 H   0  0  0  0  0  0  0  0  0  0  0  0
    5.3059    1.4548    4.4001 H   0  0  0  0  0  0  0  0  0  0  0  0
    5.9263    2.0877    2.1670 H   0  0  0  0  0  0  0  0  0  0  0  0
    4.6172    0.8783   -0.9585 H   0  0  0  0  0  0  0  0  0  0  0  0
    5.8487    1.6988   -0.1248 H   0  0  0  0  0  0  0  0  0  0  0  0
    4.6540    4.9434   -0.3829 H   0  0  0  0  0  0  0  0  0  0  0  0
    5.4110    3.9610    0.8566 H   0  0  0  0  0  0  0  0  0  0  0  0
    3.1272    5.2354    1.4546 H   0  0  0  0  0  0  0  0  0  0  0  0
    3.2036    3.5314    1.9004 H   0  0  0  0  0  0  0  0  0  0  0  0
    1.8025    4.7853   -0.4434 H   0  0  0  0  0  0  0  0  0  0  0  0
    1.2933    3.4028    0.5445 H   0  0  0  0  0  0  0  0  0  0  0  0
    2.6993    3.3708   -1.9615 H   0  0  0  0  0  0  0  0  0  0  0  0
    2.3446    1.9654   -0.9817 H   0  0  0  0  0  0  0  0  0  0  0  0
  1  2  1  0  0  0  0
  1 30  1  0  0  0  0
  1 31  1  0  0  0  0
  1 32  1  0  0  0  0
  2  3  1  0  0  0  0
  3  4  1  0  0  0  0
  3 23  2  0  0  0  0
  4  5  2  0  0  0  0
  4 33  1  0  0  0  0
  5  6  1  0  0  0  0
  5 21  1  0  0  0  0
  6  7  1  0  0  0  0
  6 34  1  0  0  0  0
  7  8  1  0  0  0  0
  7 20  2  0  0  0  0
  8  9  2  0  0  0  0
  9 10  1  0  0  0  0
  9 35  1  0  0  0  0
 10 11  1  0  0  0  0
 10 13  2  0  0  0  0
 11 12  3  0  0  0  0
 13 14  1  0  0  0  0
 13 20  1  0  0  0  0
 14 15  1  0  0  0  0
 14 19  2  0  0  0  0
 15 16  2  0  0  0  0
 15 36  1  0  0  0  0
 16 17  1  0  0  0  0
 16 37  1  0  0  0  0
 17 18  2  0  0  0  0
 17 38  1  0  0  0  0
 18 19  1  0  0  0  0
 18 39  1  0  0  0  0
 19 40  1  0  0  0  0
 21 22  2  0  0  0  0
 21 41  1  0  0  0  0
 22 23  1  0  0  0  0
 22 42  1  0  0  0  0
 23 24  1  0  0  0  0
 24 25  1  0  0  0  0
 24 43  1  0  0  0  0
 24 44  1  0  0  0  0
 25 26  1  0  0  0  0
 25 29  1  0  0  0  0
 26 27  1  0  0  0  0
 26 45  1  0  0  0  0
 26 46  1  0  0  0  0
 27 28  1  0  0  0  0
 27 47  1  0  0  0  0
 27 48  1  0  0  0  0
 28 29  1  0  0  0  0
 28 49  1  0  0  0  0
 28 50  1  0  0  0  0
 29 51  1  0  0  0  0
 29 52  1  0  0  0  0
M  END
$$$$
