CHEMBL358672
 OpenBabel04072215363D

 46 49  0  0  0  0  0  0  0  0999 V2000
    2.5047    0.9952   -0.3686 C   0  0  0  0  0  0  0  0  0  0  0  0
    2.2236   -0.3648   -0.0322 O   0  0  0  0  0  0  0  0  0  0  0  0
    3.0726   -0.9850    0.8488 C   0  0  0  0  0  0  0  0  0  0  0  0
    4.2963   -0.4383    1.2482 C   0  0  0  0  0  0  0  0  0  0  0  0
    5.0752   -1.0465    2.2614 C   0  0  0  0  0  0  0  0  0  0  0  0
    6.2263   -0.4908    2.8421 C   0  0  0  0  0  0  0  0  0  0  0  0
    6.6575    0.7958    2.4291 N   0  0  0  0  0  0  0  0  0  0  0  0
    7.9029    1.4058    2.6985 C   0  0  0  0  0  0  0  0  0  0  0  0
    9.0669    0.6625    2.9198 C   0  0  0  0  0  0  0  0  0  0  0  0
   10.2908    1.2899    3.1592 C   0  0  0  0  0  0  0  0  0  0  0  0
   10.3775    2.6826    3.1320 C   0  0  0  0  0  0  0  0  0  0  0  0
   11.6341    3.3242    3.3908 C   0  0  0  0  0  0  0  0  0  0  0  0
   12.6461    3.8365    3.6040 N   0  0  0  0  0  0  0  0  0  0  0  0
    9.2417    3.4442    2.8479 C   0  0  0  0  0  0  0  0  0  0  0  0
    8.0271    2.8025    2.6278 C   0  0  0  0  0  0  0  0  0  0  0  0
    6.9432    3.5455    2.3528 F   0  0  0  0  0  0  0  0  0  0  0  0
    6.9248   -1.1442    3.7904 N   0  0  0  0  0  0  0  0  0  0  0  0
    6.4856   -2.3487    4.1533 C   0  0  0  0  0  0  0  0  0  0  0  0
    5.3980   -2.9576    3.6797 N   0  0  0  0  0  0  0  0  0  0  0  0
    4.7018   -2.2954    2.7563 C   0  0  0  0  0  0  0  0  0  0  0  0
    3.5375   -2.8727    2.2896 C   0  0  0  0  0  0  0  0  0  0  0  0
    2.6740   -2.2168    1.3972 C   0  0  0  0  0  0  0  0  0  0  0  0
    1.4328   -2.7271    1.0629 O   0  0  0  0  0  0  0  0  0  0  0  0
    0.9609   -3.7718    1.9358 C   0  0  0  0  0  0  0  0  0  0  0  0
   -0.5233   -4.0496    1.7627 C   0  0  0  0  0  0  0  0  0  0  0  0
   -0.8148   -4.8078    0.5693 N   0  0  0  0  0  0  0  0  0  0  0  0
   -1.2100   -4.3357   -0.6439 C   0  0  0  0  0  0  0  0  0  0  0  0
   -1.4588   -5.4749   -1.3689 C   0  0  0  0  0  0  0  0  0  0  0  0
   -1.2128   -6.5730   -0.5943 N   0  0  0  0  0  0  0  0  0  0  0  0
   -0.8189   -6.1521    0.6003 N   0  0  0  0  0  0  0  0  0  0  0  0
    3.1924    1.0413   -1.2202 H   0  0  0  0  0  0  0  0  0  0  0  0
    2.8981    1.5778    0.4725 H   0  0  0  0  0  0  0  0  0  0  0  0
    1.5656    1.4745   -0.6588 H   0  0  0  0  0  0  0  0  0  0  0  0
    4.6699    0.4765    0.7993 H   0  0  0  0  0  0  0  0  0  0  0  0
    5.8975    1.4686    2.5082 H   0  0  0  0  0  0  0  0  0  0  0  0
    9.0386   -0.4233    2.9168 H   0  0  0  0  0  0  0  0  0  0  0  0
   11.1656    0.6772    3.3650 H   0  0  0  0  0  0  0  0  0  0  0  0
    9.2889    4.5294    2.7975 H   0  0  0  0  0  0  0  0  0  0  0  0
    7.0613   -2.8797    4.9028 H   0  0  0  0  0  0  0  0  0  0  0  0
    3.3059   -3.8552    2.6865 H   0  0  0  0  0  0  0  0  0  0  0  0
    1.0900   -3.4482    2.9772 H   0  0  0  0  0  0  0  0  0  0  0  0
    1.5355   -4.6886    1.7550 H   0  0  0  0  0  0  0  0  0  0  0  0
   -1.1063   -3.1247    1.7252 H   0  0  0  0  0  0  0  0  0  0  0  0
   -0.8819   -4.6481    2.6094 H   0  0  0  0  0  0  0  0  0  0  0  0
   -1.2781   -3.2830   -0.8708 H   0  0  0  0  0  0  0  0  0  0  0  0
   -1.8006   -5.5642   -2.3900 H   0  0  0  0  0  0  0  0  0  0  0  0
  1  2  1  0  0  0  0
  1 31  1  0  0  0  0
  1 32  1  0  0  0  0
  1 33  1  0  0  0  0
  2  3  1  0  0  0  0
  3  4  1  0  0  0  0
  3 22  2  0  0  0  0
  4  5  2  0  0  0  0
  4 34  1  0  0  0  0
  5  6  1  0  0  0  0
  5 20  1  0  0  0  0
  6  7  1  0  0  0  0
  6 17  2  0  0  0  0
  7  8  1  0  0  0  0
  7 35  1  0  0  0  0
  8  9  1  0  0  0  0
  8 15  2  0  0  0  0
  9 10  2  0  0  0  0
  9 36  1  0  0  0  0
 10 11  1  0  0  0  0
 10 37  1  0  0  0  0
 11 12  1  0  0  0  0
 11 14  2  0  0  0  0
 12 13  3  0  0  0  0
 14 15  1  0  0  0  0
 14 38  1  0  0  0  0
 15 16  1  0  0  0  0
 17 18  1  0  0  0  0
 18 19  2  0  0  0  0
 18 39  1  0  0  0  0
 19 20  1  0  0  0  0
 20 21  2  0  0  0  0
 21 22  1  0  0  0  0
 21 40  1  0  0  0  0
 22 23  1  0  0  0  0
 23 24  1  0  0  0  0
 24 25  1  0  0  0  0
 24 41  1  0  0  0  0
 24 42  1  0  0  0  0
 25 26  1  0  0  0  0
 25 43  1  0  0  0  0
 25 44  1  0  0  0  0
 26 27  1  0  0  0  0
 26 30  1  0  0  0  0
 27 28  2  0  0  0  0
 27 45  1  0  0  0  0
 28 29  1  0  0  0  0
 28 46  1  0  0  0  0
 29 30  2  0  0  0  0
M  END
$$$$
