CHEMBL255526
 OpenBabel04072215363D

 51 54  0  0  0  0  0  0  0  0999 V2000
    1.3566   -0.4778   -1.9835 N   0  0  0  0  0  0  0  0  0  0  0  0
    2.6561   -0.4962   -1.6452 C   0  0  0  0  0  0  0  0  0  0  0  0
    3.4782    0.4598   -2.0759 N   0  0  0  0  0  0  0  0  0  0  0  0
    4.6501    0.1474   -1.5020 N   0  0  0  0  0  0  0  0  0  0  0  0
    4.6054   -0.9722   -0.7281 C   0  0  0  0  0  0  0  0  0  0  0  0
    5.6465   -1.4608   -0.0295 N   0  0  0  0  0  0  0  0  0  0  0  0
    5.3365   -2.5793    0.6492 C   0  0  0  0  0  0  0  0  0  0  0  0
    4.0959   -3.1988    0.6411 C   0  0  0  0  0  0  0  0  0  0  0  0
    3.0174   -2.6538   -0.0949 C   0  0  0  0  0  0  0  0  0  0  0  0
    1.6791   -3.2727   -0.0432 C   0  0  0  0  0  0  0  0  0  0  0  0
    1.2093   -3.8051    1.1648 C   0  0  0  0  0  0  0  0  0  0  0  0
   -0.0588   -4.3781    1.2741 C   0  0  0  0  0  0  0  0  0  0  0  0
   -0.9346   -4.4027    0.1910 C   0  0  0  0  0  0  0  0  0  0  0  0
   -2.2548   -4.9037    0.2782 N   0  0  0  0  0  0  0  0  0  0  0  0
   -2.8477   -5.3984    1.4178 C   0  0  0  0  0  0  0  0  0  0  0  0
   -2.3341   -5.4796    2.5293 O   0  0  0  0  0  0  0  0  0  0  0  0
   -4.1500   -5.8130    1.2125 N   0  0  0  0  0  0  0  0  0  0  0  0
   -4.7980   -6.4250    2.3560 C   0  0  0  0  0  0  0  0  0  0  0  0
   -6.2602   -6.8127    2.1421 C   0  0  0  0  0  0  0  0  0  0  0  0
   -7.1284   -5.6047    1.7664 C   0  0  0  0  0  0  0  0  0  0  0  0
   -8.6044   -5.9869    1.6668 C   0  0  0  0  0  0  0  0  0  0  0  0
   -9.1060   -6.6353    2.9534 C   0  0  0  0  0  0  0  0  0  0  0  0
   -8.2528   -7.8389    3.3419 C   0  0  0  0  0  0  0  0  0  0  0  0
   -6.7798   -7.4719    3.4304 C   0  0  0  0  0  0  0  0  0  0  0  0
   -0.4797   -3.9021   -1.0298 C   0  0  0  0  0  0  0  0  0  0  0  0
    0.8229   -3.3816   -1.1498 C   0  0  0  0  0  0  0  0  0  0  0  0
    3.3049   -1.4632   -0.8128 C   0  0  0  0  0  0  0  0  0  0  0  0
    1.0456    0.3748   -2.4375 H   0  0  0  0  0  0  0  0  0  0  0  0
    0.6745   -0.8385   -1.3254 H   0  0  0  0  0  0  0  0  0  0  0  0
    5.4530    0.7396   -1.6590 H   0  0  0  0  0  0  0  0  0  0  0  0
    6.1498   -2.9951    1.2400 H   0  0  0  0  0  0  0  0  0  0  0  0
    3.9711   -4.1090    1.2222 H   0  0  0  0  0  0  0  0  0  0  0  0
    1.8189   -3.7776    2.0657 H   0  0  0  0  0  0  0  0  0  0  0  0
   -0.3239   -4.7776    2.2463 H   0  0  0  0  0  0  0  0  0  0  0  0
   -2.8430   -4.8044   -0.5340 H   0  0  0  0  0  0  0  0  0  0  0  0
   -4.3556   -6.1914    0.2988 H   0  0  0  0  0  0  0  0  0  0  0  0
   -4.7165   -5.7291    3.2008 H   0  0  0  0  0  0  0  0  0  0  0  0
   -4.2168   -7.3184    2.6167 H   0  0  0  0  0  0  0  0  0  0  0  0
   -6.3158   -7.5451    1.3262 H   0  0  0  0  0  0  0  0  0  0  0  0
   -6.8036   -5.1883    0.8065 H   0  0  0  0  0  0  0  0  0  0  0  0
   -7.0102   -4.8118    2.5141 H   0  0  0  0  0  0  0  0  0  0  0  0
   -8.7430   -6.6812    0.8303 H   0  0  0  0  0  0  0  0  0  0  0  0
   -9.2005   -5.0958    1.4473 H   0  0  0  0  0  0  0  0  0  0  0  0
  -10.1487   -6.9477    2.8273 H   0  0  0  0  0  0  0  0  0  0  0  0
   -9.0901   -5.8990    3.7662 H   0  0  0  0  0  0  0  0  0  0  0  0
   -8.3840   -8.6373    2.6020 H   0  0  0  0  0  0  0  0  0  0  0  0
   -8.5955   -8.2352    4.3030 H   0  0  0  0  0  0  0  0  0  0  0  0
   -6.1920   -8.3737    3.6585 H   0  0  0  0  0  0  0  0  0  0  0  0
   -6.6366   -6.7881    4.2779 H   0  0  0  0  0  0  0  0  0  0  0  0
   -1.1187   -3.9068   -1.9090 H   0  0  0  0  0  0  0  0  0  0  0  0
    1.1532   -3.0454   -2.1317 H   0  0  0  0  0  0  0  0  0  0  0  0
  1  2  1  0  0  0  0
  1 28  1  0  0  0  0
  1 29  1  0  0  0  0
  2  3  2  0  0  0  0
  2 27  1  0  0  0  0
  3  4  1  0  0  0  0
  4  5  1  0  0  0  0
  4 30  1  0  0  0  0
  5  6  1  0  0  0  0
  5 27  2  0  0  0  0
  6  7  2  0  0  0  0
  7  8  1  0  0  0  0
  7 31  1  0  0  0  0
  8  9  2  0  0  0  0
  8 32  1  0  0  0  0
  9 10  1  0  0  0  0
  9 27  1  0  0  0  0
 10 11  1  0  0  0  0
 10 26  2  0  0  0  0
 11 12  2  0  0  0  0
 11 33  1  0  0  0  0
 12 13  1  0  0  0  0
 12 34  1  0  0  0  0
 13 14  1  0  0  0  0
 13 25  2  0  0  0  0
 14 15  1  0  0  0  0
 14 35  1  0  0  0  0
 15 16  2  0  0  0  0
 15 17  1  0  0  0  0
 17 18  1  0  0  0  0
 17 36  1  0  0  0  0
 18 19  1  0  0  0  0
 18 37  1  0  0  0  0
 18 38  1  0  0  0  0
 19 20  1  0  0  0  0
 19 24  1  0  0  0  0
 19 39  1  0  0  0  0
 20 21  1  0  0  0  0
 20 40  1  0  0  0  0
 20 41  1  0  0  0  0
 21 22  1  0  0  0  0
 21 42  1  0  0  0  0
 21 43  1  0  0  0  0
 22 23  1  0  0  0  0
 22 44  1  0  0  0  0
 22 45  1  0  0  0  0
 23 24  1  0  0  0  0
 23 46  1  0  0  0  0
 23 47  1  0  0  0  0
 24 48  1  0  0  0  0
 24 49  1  0  0  0  0
 25 26  1  0  0  0  0
 25 50  1  0  0  0  0
 26 51  1  0  0  0  0
M  END
$$$$
