CHEMBL47852
 OpenBabel04072215383D

 47 50  0  0  0  0  0  0  0  0999 V2000
    6.1633   -6.8017   -2.1208 C   0  0  0  0  0  0  0  0  0  0  0  0
    4.8650   -6.9647   -1.5696 O   0  0  0  0  0  0  0  0  0  0  0  0
    3.9187   -6.0370   -1.9104 C   0  0  0  0  0  0  0  0  0  0  0  0
    4.1174   -4.9311   -2.7443 C   0  0  0  0  0  0  0  0  0  0  0  0
    3.0566   -4.0667   -3.0219 C   0  0  0  0  0  0  0  0  0  0  0  0
    3.1907   -3.0113   -3.9310 N   0  0  0  0  0  0  0  0  0  0  0  0
    2.1596   -2.4197   -4.6541 C   0  0  0  0  0  0  0  0  0  0  0  0
    1.1285   -3.1775   -5.0540 N   0  0  0  0  0  0  0  0  0  0  0  0
    0.0956   -2.5773   -5.6670 C   0  0  0  0  0  0  0  0  0  0  0  0
    0.0343   -1.2312   -5.8826 C   0  0  0  0  0  0  0  0  0  0  0  0
    1.1552   -0.5251   -5.4974 C   0  0  0  0  0  0  0  0  0  0  0  0
    1.2295    0.8631   -5.7942 N   0  0  0  0  0  0  0  0  0  0  0  0
    0.1553    1.7321   -5.8583 C   0  0  0  0  0  0  0  0  0  0  0  0
    0.6933    2.9795   -6.0383 C   0  0  0  0  0  0  0  0  0  0  0  0
    2.0509    2.9055   -6.1559 N   0  0  0  0  0  0  0  0  0  0  0  0
    2.3720    1.6204   -6.0688 C   0  0  0  0  0  0  0  0  0  0  0  0
    3.7355    1.1040   -6.3064 C   0  0  0  0  0  0  0  0  0  0  0  0
    4.8429    1.8943   -5.9687 C   0  0  0  0  0  0  0  0  0  0  0  0
    6.1449    1.4136   -6.1388 C   0  0  0  0  0  0  0  0  0  0  0  0
    6.3613    0.1311   -6.6402 C   0  0  0  0  0  0  0  0  0  0  0  0
    5.2783   -0.6493   -7.0234 C   0  0  0  0  0  0  0  0  0  0  0  0
    3.9821   -0.1456   -6.8994 C   0  0  0  0  0  0  0  0  0  0  0  0
    2.2229   -1.1113   -4.9000 N   0  0  0  0  0  0  0  0  0  0  0  0
    1.8154   -4.3048   -2.4070 C   0  0  0  0  0  0  0  0  0  0  0  0
    1.5910   -5.4155   -1.6061 C   0  0  0  0  0  0  0  0  0  0  0  0
    0.3923   -5.7440   -1.0418 O   0  0  0  0  0  0  0  0  0  0  0  0
   -0.7210   -4.9190   -1.3926 C   0  0  0  0  0  0  0  0  0  0  0  0
    2.6546   -6.2776   -1.3591 C   0  0  0  0  0  0  0  0  0  0  0  0
    6.7788   -7.6411   -1.7815 H   0  0  0  0  0  0  0  0  0  0  0  0
    6.6300   -5.8786   -1.7625 H   0  0  0  0  0  0  0  0  0  0  0  0
    6.1344   -6.8336   -3.2147 H   0  0  0  0  0  0  0  0  0  0  0  0
    5.0840   -4.7339   -3.1950 H   0  0  0  0  0  0  0  0  0  0  0  0
    4.1033   -2.7226   -4.2445 H   0  0  0  0  0  0  0  0  0  0  0  0
   -0.6933   -3.2489   -5.9946 H   0  0  0  0  0  0  0  0  0  0  0  0
   -0.8141   -0.7864   -6.3880 H   0  0  0  0  0  0  0  0  0  0  0  0
   -0.8651    1.4186   -5.6933 H   0  0  0  0  0  0  0  0  0  0  0  0
    0.1739    3.9283   -6.0813 H   0  0  0  0  0  0  0  0  0  0  0  0
    4.6897    2.8944   -5.5644 H   0  0  0  0  0  0  0  0  0  0  0  0
    6.9905    2.0429   -5.8762 H   0  0  0  0  0  0  0  0  0  0  0  0
    7.3727   -0.2518   -6.7460 H   0  0  0  0  0  0  0  0  0  0  0  0
    5.4326   -1.6487   -7.4216 H   0  0  0  0  0  0  0  0  0  0  0  0
    3.1652   -0.7708   -7.2486 H   0  0  0  0  0  0  0  0  0  0  0  0
    1.0170   -3.5917   -2.5778 H   0  0  0  0  0  0  0  0  0  0  0  0
   -1.6300   -5.3902   -1.0073 H   0  0  0  0  0  0  0  0  0  0  0  0
   -0.8395   -4.8296   -2.4788 H   0  0  0  0  0  0  0  0  0  0  0  0
   -0.6293   -3.9338   -0.9264 H   0  0  0  0  0  0  0  0  0  0  0  0
    2.4972   -7.1507   -0.7316 H   0  0  0  0  0  0  0  0  0  0  0  0
  1  2  1  0  0  0  0
  1 29  1  0  0  0  0
  1 30  1  0  0  0  0
  1 31  1  0  0  0  0
  2  3  1  0  0  0  0
  3  4  1  0  0  0  0
  3 28  2  0  0  0  0
  4  5  2  0  0  0  0
  4 32  1  0  0  0  0
  5  6  1  0  0  0  0
  5 24  1  0  0  0  0
  6  7  1  0  0  0  0
  6 33  1  0  0  0  0
  7  8  1  0  0  0  0
  7 23  2  0  0  0  0
  8  9  2  0  0  0  0
  9 10  1  0  0  0  0
  9 34  1  0  0  0  0
 10 11  2  0  0  0  0
 10 35  1  0  0  0  0
 11 12  1  0  0  0  0
 11 23  1  0  0  0  0
 12 13  1  0  0  0  0
 12 16  1  0  0  0  0
 13 14  2  0  0  0  0
 13 36  1  0  0  0  0
 14 15  1  0  0  0  0
 14 37  1  0  0  0  0
 15 16  2  0  0  0  0
 16 17  1  0  0  0  0
 17 18  1  0  0  0  0
 17 22  2  0  0  0  0
 18 19  2  0  0  0  0
 18 38  1  0  0  0  0
 19 20  1  0  0  0  0
 19 39  1  0  0  0  0
 20 21  2  0  0  0  0
 20 40  1  0  0  0  0
 21 22  1  0  0  0  0
 21 41  1  0  0  0  0
 22 42  1  0  0  0  0
 24 25  2  0  0  0  0
 24 43  1  0  0  0  0
 25 26  1  0  0  0  0
 25 28  1  0  0  0  0
 26 27  1  0  0  0  0
 27 44  1  0  0  0  0
 27 45  1  0  0  0  0
 27 46  1  0  0  0  0
 28 47  1  0  0  0  0
M  END
$$$$
