CHEMBL3894122
 OpenBabel04072215373D

 47 51  0  0  0  0  0  0  0  0999 V2000
    1.1549   -0.1987    0.7414 O   0  0  0  0  0  0  0  0  0  0  0  0
    2.2784    0.0324    0.3081 C   0  0  0  0  0  0  0  0  0  0  0  0
    2.8620    1.2766    0.1420 N   0  0  0  0  0  0  0  0  0  0  0  0
    2.2798    2.5138    0.5085 C   0  0  0  0  0  0  0  0  0  0  0  0
    1.1734    2.6076    1.3476 C   0  0  0  0  0  0  0  0  0  0  0  0
    0.6267    3.8482    1.6473 C   0  0  0  0  0  0  0  0  0  0  0  0
    1.1888    5.0052    1.1105 C   0  0  0  0  0  0  0  0  0  0  0  0
    2.3073    4.9667    0.2623 C   0  0  0  0  0  0  0  0  0  0  0  0
    2.8217    6.1218   -0.3031 N   0  0  0  0  0  0  0  0  0  0  0  0
    4.2285    6.2664   -0.6972 C   0  0  0  0  0  0  0  0  0  0  0  0
    4.3283    6.5901   -2.1965 C   0  0  0  0  0  0  0  0  0  0  0  0
    3.2871    7.5872   -2.6303 C   0  0  0  0  0  0  0  0  0  0  0  0
    2.2550    7.9101   -1.8251 C   0  0  0  0  0  0  0  0  0  0  0  0
    1.2742    8.8802   -2.3856 C   0  0  0  0  0  0  0  0  0  0  0  0
    1.3330    9.4408   -3.5562 N   0  0  0  0  0  0  0  0  0  0  0  0
    2.4009    9.0805   -4.3311 C   0  0  0  0  0  0  0  0  0  0  0  0
    2.7668    9.4553   -5.6020 C   0  0  0  0  0  0  0  0  0  0  0  0
    3.9511    8.7533   -5.8617 C   0  0  0  0  0  0  0  0  0  0  0  0
    4.3317    7.9797   -4.8442 N   0  0  0  0  0  0  0  0  0  0  0  0
    3.3762    8.1710   -3.8955 N   0  0  0  0  0  0  0  0  0  0  0  0
    1.9876    7.3178   -0.4806 C   0  0  0  0  0  0  0  0  0  0  0  0
    2.8450    3.6933   -0.0082 C   0  0  0  0  0  0  0  0  0  0  0  0
    3.0848   -1.1272   -0.1530 C   0  0  0  0  0  0  0  0  0  0  0  0
    2.4053   -2.2055   -0.7358 C   0  0  0  0  0  0  0  0  0  0  0  0
    3.1082   -3.3360   -1.1498 C   0  0  0  0  0  0  0  0  0  0  0  0
    4.4893   -3.3944   -0.9725 C   0  0  0  0  0  0  0  0  0  0  0  0
    5.1694   -2.3264   -0.3814 C   0  0  0  0  0  0  0  0  0  0  0  0
    4.4703   -1.1887    0.0317 C   0  0  0  0  0  0  0  0  0  0  0  0
    3.7120    1.3250   -0.4047 H   0  0  0  0  0  0  0  0  0  0  0  0
    0.7146    1.7309    1.7957 H   0  0  0  0  0  0  0  0  0  0  0  0
   -0.2409    3.9132    2.2986 H   0  0  0  0  0  0  0  0  0  0  0  0
    0.7318    5.9495    1.3924 H   0  0  0  0  0  0  0  0  0  0  0  0
    4.8439    5.3924   -0.4605 H   0  0  0  0  0  0  0  0  0  0  0  0
    4.6626    7.0926   -0.1180 H   0  0  0  0  0  0  0  0  0  0  0  0
    4.1964    5.6677   -2.7757 H   0  0  0  0  0  0  0  0  0  0  0  0
    5.3367    6.9684   -2.4026 H   0  0  0  0  0  0  0  0  0  0  0  0
    0.4241    9.1309   -1.7288 H   0  0  0  0  0  0  0  0  0  0  0  0
    2.2364   10.1436   -6.2426 H   0  0  0  0  0  0  0  0  0  0  0  0
    4.5580    8.7735   -6.7580 H   0  0  0  0  0  0  0  0  0  0  0  0
    0.9190    7.0809   -0.4334 H   0  0  0  0  0  0  0  0  0  0  0  0
    2.2137    8.0464    0.3061 H   0  0  0  0  0  0  0  0  0  0  0  0
    3.6840    3.6050   -0.6924 H   0  0  0  0  0  0  0  0  0  0  0  0
    1.3248   -2.1669   -0.8601 H   0  0  0  0  0  0  0  0  0  0  0  0
    2.5753   -4.1709   -1.5969 H   0  0  0  0  0  0  0  0  0  0  0  0
    5.0359   -4.2816   -1.2839 H   0  0  0  0  0  0  0  0  0  0  0  0
    6.2436   -2.3914   -0.2270 H   0  0  0  0  0  0  0  0  0  0  0  0
    5.0079   -0.3869    0.5278 H   0  0  0  0  0  0  0  0  0  0  0  0
  1  2  2  0  0  0  0
  2  3  1  0  0  0  0
  2 23  1  0  0  0  0
  3  4  1  0  0  0  0
  3 29  1  0  0  0  0
  4  5  1  0  0  0  0
  4 22  2  0  0  0  0
  5  6  2  0  0  0  0
  5 30  1  0  0  0  0
  6  7  1  0  0  0  0
  6 31  1  0  0  0  0
  7  8  2  0  0  0  0
  7 32  1  0  0  0  0
  8  9  1  0  0  0  0
  8 22  1  0  0  0  0
  9 10  1  0  0  0  0
  9 21  1  0  0  0  0
 10 11  1  0  0  0  0
 10 33  1  0  0  0  0
 10 34  1  0  0  0  0
 11 12  1  0  0  0  0
 11 35  1  0  0  0  0
 11 36  1  0  0  0  0
 12 13  2  0  0  0  0
 12 20  1  0  0  0  0
 13 14  1  0  0  0  0
 13 21  1  0  0  0  0
 14 15  2  0  0  0  0
 14 37  1  0  0  0  0
 15 16  1  0  0  0  0
 16 17  2  0  0  0  0
 16 20  1  0  0  0  0
 17 18  1  0  0  0  0
 17 38  1  0  0  0  0
 18 19  2  0  0  0  0
 18 39  1  0  0  0  0
 19 20  1  0  0  0  0
 21 40  1  0  0  0  0
 21 41  1  0  0  0  0
 22 42  1  0  0  0  0
 23 24  1  0  0  0  0
 23 28  2  0  0  0  0
 24 25  2  0  0  0  0
 24 43  1  0  0  0  0
 25 26  1  0  0  0  0
 25 44  1  0  0  0  0
 26 27  2  0  0  0  0
 26 45  1  0  0  0  0
 27 28  1  0  0  0  0
 27 46  1  0  0  0  0
 28 47  1  0  0  0  0
M  END
$$$$
