CHEMBL3690461
 OpenBabel04072215373D

 49 52  0  0  0  0  0  0  0  0999 V2000
   -1.9276   -2.1678    1.0991 C   0  0  0  0  0  0  0  0  0  0  0  0
   -1.1260   -1.0565    0.4898 C   0  0  0  0  0  0  0  0  0  0  0  0
    0.1056   -1.3134   -0.0997 C   0  0  0  0  0  0  0  0  0  0  0  0
    0.8194   -0.2543   -0.6425 C   0  0  0  0  0  0  0  0  0  0  0  0
    0.2783    1.0261   -0.5902 C   0  0  0  0  0  0  0  0  0  0  0  0
   -0.9748    1.2135   -0.0117 C   0  0  0  0  0  0  0  0  0  0  0  0
   -1.6383    2.5465    0.0387 C   0  0  0  0  0  0  0  0  0  0  0  0
   -2.5292    2.9414    1.1407 C   0  0  0  0  0  0  0  0  0  0  0  0
   -3.1378    4.1415    1.1312 C   0  0  0  0  0  0  0  0  0  0  0  0
   -2.9410    5.0087    0.0539 N   0  0  0  0  0  0  0  0  0  0  0  0
   -3.4549    6.2715   -0.2292 C   0  0  0  0  0  0  0  0  0  0  0  0
   -4.4101    7.0748    0.5488 C   0  0  0  0  0  0  0  0  0  0  0  0
   -4.2556    8.4711    0.5465 C   0  0  0  0  0  0  0  0  0  0  0  0
   -5.1624    9.2940    1.2028 C   0  0  0  0  0  0  0  0  0  0  0  0
   -6.2459    8.7360    1.8735 C   0  0  0  0  0  0  0  0  0  0  0  0
   -6.4470    7.3540    1.8846 C   0  0  0  0  0  0  0  0  0  0  0  0
   -7.5524    6.7476    2.5279 N   0  0  0  0  0  0  0  0  0  0  0  0
   -8.6119    7.4054    3.1205 C   0  0  0  0  0  0  0  0  0  0  0  0
   -8.8064    8.6146    3.1588 O   0  0  0  0  0  0  0  0  0  0  0  0
   -9.4931    6.5409    3.7354 N   0  0  0  0  0  0  0  0  0  0  0  0
  -10.6982    7.1116    4.3547 C   0  0  0  0  0  0  0  0  0  0  0  0
  -11.8237    7.5212    3.3933 C   0  0  0  0  0  0  0  0  0  0  0  0
  -11.5930    7.0955    2.1295 F   0  0  0  0  0  0  0  0  0  0  0  0
  -12.9915    6.9525    3.7877 F   0  0  0  0  0  0  0  0  0  0  0  0
  -12.0198    8.8546    3.3621 F   0  0  0  0  0  0  0  0  0  0  0  0
   -5.5193    6.5289    1.2204 C   0  0  0  0  0  0  0  0  0  0  0  0
   -2.8262    6.6236   -1.4187 C   0  0  0  0  0  0  0  0  0  0  0  0
   -1.9959    5.6487   -1.8833 N   0  0  0  0  0  0  0  0  0  0  0  0
   -2.0898    4.6823   -1.0011 C   0  0  0  0  0  0  0  0  0  0  0  0
   -1.4563    3.4102   -0.9875 C   0  0  0  0  0  0  0  0  0  0  0  0
   -1.6683    0.1872    0.5445 N   0  0  0  0  0  0  0  0  0  0  0  0
   -1.4184   -3.1325    1.0054 H   0  0  0  0  0  0  0  0  0  0  0  0
   -2.8980   -2.2452    0.5997 H   0  0  0  0  0  0  0  0  0  0  0  0
   -2.0878   -1.9699    2.1636 H   0  0  0  0  0  0  0  0  0  0  0  0
    0.5102   -2.3203   -0.1374 H   0  0  0  0  0  0  0  0  0  0  0  0
    1.7870   -0.4222   -1.1059 H   0  0  0  0  0  0  0  0  0  0  0  0
    0.8437    1.8553   -1.0013 H   0  0  0  0  0  0  0  0  0  0  0  0
   -2.6755    2.2379    1.9562 H   0  0  0  0  0  0  0  0  0  0  0  0
   -3.7780    4.4645    1.9390 H   0  0  0  0  0  0  0  0  0  0  0  0
   -3.4259    8.9405    0.0218 H   0  0  0  0  0  0  0  0  0  0  0  0
   -5.0355   10.3741    1.1859 H   0  0  0  0  0  0  0  0  0  0  0  0
   -6.9168    9.4225    2.3795 H   0  0  0  0  0  0  0  0  0  0  0  0
   -7.5770    5.7389    2.5399 H   0  0  0  0  0  0  0  0  0  0  0  0
   -9.5755    5.6135    3.3447 H   0  0  0  0  0  0  0  0  0  0  0  0
  -10.3998    7.9871    4.9473 H   0  0  0  0  0  0  0  0  0  0  0  0
  -11.0663    6.3595    5.0591 H   0  0  0  0  0  0  0  0  0  0  0  0
   -5.6911    5.4575    1.1916 H   0  0  0  0  0  0  0  0  0  0  0  0
   -2.9464    7.5469   -1.9718 H   0  0  0  0  0  0  0  0  0  0  0  0
   -0.8421    3.1789   -1.8501 H   0  0  0  0  0  0  0  0  0  0  0  0
  1  2  1  0  0  0  0
  1 32  1  0  0  0  0
  1 33  1  0  0  0  0
  1 34  1  0  0  0  0
  2  3  1  0  0  0  0
  2 31  2  0  0  0  0
  3  4  2  0  0  0  0
  3 35  1  0  0  0  0
  4  5  1  0  0  0  0
  4 36  1  0  0  0  0
  5  6  2  0  0  0  0
  5 37  1  0  0  0  0
  6  7  1  0  0  0  0
  6 31  1  0  0  0  0
  7  8  1  0  0  0  0
  7 30  2  0  0  0  0
  8  9  2  0  0  0  0
  8 38  1  0  0  0  0
  9 10  1  0  0  0  0
  9 39  1  0  0  0  0
 10 11  1  0  0  0  0
 10 29  1  0  0  0  0
 11 12  1  0  0  0  0
 11 27  2  0  0  0  0
 12 13  1  0  0  0  0
 12 26  2  0  0  0  0
 13 14  2  0  0  0  0
 13 40  1  0  0  0  0
 14 15  1  0  0  0  0
 14 41  1  0  0  0  0
 15 16  2  0  0  0  0
 15 42  1  0  0  0  0
 16 17  1  0  0  0  0
 16 26  1  0  0  0  0
 17 18  1  0  0  0  0
 17 43  1  0  0  0  0
 18 19  2  0  0  0  0
 18 20  1  0  0  0  0
 20 21  1  0  0  0  0
 20 44  1  0  0  0  0
 21 22  1  0  0  0  0
 21 45  1  0  0  0  0
 21 46  1  0  0  0  0
 22 23  1  0  0  0  0
 22 24  1  0  0  0  0
 22 25  1  0  0  0  0
 26 47  1  0  0  0  0
 27 28  1  0  0  0  0
 27 48  1  0  0  0  0
 28 29  2  0  0  0  0
 29 30  1  0  0  0  0
 30 49  1  0  0  0  0
M  END
$$$$
