CHEMBL192101
 OpenBabel04072215363D

 60 63  0  0  0  0  0  0  0  0999 V2000
   -1.4208    8.5325   -4.8650 C   0  0  0  0  0  0  0  0  0  0  0  0
   -1.7805    7.5631   -3.8829 O   0  0  0  0  0  0  0  0  0  0  0  0
   -0.6334    6.7896   -3.5823 N   0  0  0  0  0  0  0  0  0  0  0  0
    0.1041    7.2411   -2.5099 C   0  0  0  0  0  0  0  0  0  0  0  0
   -0.0352    8.3364   -1.9726 O   0  0  0  0  0  0  0  0  0  0  0  0
    1.1602    6.3329   -2.0069 C   0  0  0  0  0  0  0  0  0  0  0  0
    2.2802    6.9076   -1.3859 C   0  0  0  0  0  0  0  0  0  0  0  0
    3.2684    6.1089   -0.7995 C   0  0  0  0  0  0  0  0  0  0  0  0
    4.4021    6.6511   -0.1590 N   0  0  0  0  0  0  0  0  0  0  0  0
    4.9304    7.9087   -0.3473 C   0  0  0  0  0  0  0  0  0  0  0  0
    4.9161    8.4068   -1.5525 N   0  0  0  0  0  0  0  0  0  0  0  0
    5.4709    9.6252   -1.8052 C   0  0  0  0  0  0  0  0  0  0  0  0
    6.0357   10.4062   -0.9424 N   0  0  0  0  0  0  0  0  0  0  0  0
    6.0469    9.9179    0.3037 N   0  0  0  0  0  0  0  0  0  0  0  0
    6.5599   10.5924    1.3693 C   0  0  0  0  0  0  0  0  0  0  0  0
    6.4033    9.8089    2.4874 C   0  0  0  0  0  0  0  0  0  0  0  0
    6.8672   10.2467    3.8447 C   0  0  0  0  0  0  0  0  0  0  0  0
    6.8194    9.4910    4.9235 N   0  0  0  0  0  0  0  0  0  0  0  0
    7.2808   10.2395    5.9773 N   0  0  0  0  0  0  0  0  0  0  0  0
    7.5881   11.4173    5.4794 C   0  0  0  0  0  0  0  0  0  0  0  0
    8.0793   12.6148    6.2018 C   0  0  0  0  0  0  0  0  0  0  0  0
    7.1858   13.8548    6.0260 C   0  0  0  0  0  0  0  0  0  0  0  0
    5.7431   13.6106    6.4788 C   0  0  0  0  0  0  0  0  0  0  0  0
    7.7737   15.0287    6.8151 C   0  0  0  0  0  0  0  0  0  0  0  0
    7.3838   11.4963    4.1292 O   0  0  0  0  0  0  0  0  0  0  0  0
    5.7191    8.5959    2.0894 C   0  0  0  0  0  0  0  0  0  0  0  0
    5.2754    7.5194    3.0635 C   0  0  0  0  0  0  0  0  0  0  0  0
    3.7602    7.3220    3.1065 C   0  0  0  0  0  0  0  0  0  0  0  0
    6.0573    6.2116    2.9522 C   0  0  0  0  0  0  0  0  0  0  0  0
    5.5390    8.7048    0.7004 C   0  0  0  0  0  0  0  0  0  0  0  0
    3.1215    4.7149   -0.8898 C   0  0  0  0  0  0  0  0  0  0  0  0
    4.0486    3.9179   -0.3367 F   0  0  0  0  0  0  0  0  0  0  0  0
    2.0347    4.1286   -1.5327 C   0  0  0  0  0  0  0  0  0  0  0  0
    1.0566    4.9455   -2.0865 C   0  0  0  0  0  0  0  0  0  0  0  0
    0.0019    4.3693   -2.6824 F   0  0  0  0  0  0  0  0  0  0  0  0
   -2.3091    9.1197   -5.1109 H   0  0  0  0  0  0  0  0  0  0  0  0
   -1.0608    8.0386   -5.7729 H   0  0  0  0  0  0  0  0  0  0  0  0
   -0.6538    9.2113   -4.4780 H   0  0  0  0  0  0  0  0  0  0  0  0
   -0.7233    5.7956   -3.7701 H   0  0  0  0  0  0  0  0  0  0  0  0
    2.3520    7.9930   -1.3339 H   0  0  0  0  0  0  0  0  0  0  0  0
    4.6613    6.1408    0.6683 H   0  0  0  0  0  0  0  0  0  0  0  0
    5.4297    9.9620   -2.8558 H   0  0  0  0  0  0  0  0  0  0  0  0
    6.9932   11.5739    1.2338 H   0  0  0  0  0  0  0  0  0  0  0  0
    9.0970   12.8383    5.8605 H   0  0  0  0  0  0  0  0  0  0  0  0
    8.1560   12.3699    7.2698 H   0  0  0  0  0  0  0  0  0  0  0  0
    7.1674   14.1326    4.9647 H   0  0  0  0  0  0  0  0  0  0  0  0
    5.6999   13.3281    7.5361 H   0  0  0  0  0  0  0  0  0  0  0  0
    5.2680   12.8162    5.8944 H   0  0  0  0  0  0  0  0  0  0  0  0
    5.1403   14.5155    6.3459 H   0  0  0  0  0  0  0  0  0  0  0  0
    7.7827   14.8183    7.8905 H   0  0  0  0  0  0  0  0  0  0  0  0
    7.1850   15.9383    6.6556 H   0  0  0  0  0  0  0  0  0  0  0  0
    8.8023   15.2358    6.5025 H   0  0  0  0  0  0  0  0  0  0  0  0
    5.5026    7.8691    4.0723 H   0  0  0  0  0  0  0  0  0  0  0  0
    3.3335    7.0303    2.1476 H   0  0  0  0  0  0  0  0  0  0  0  0
    3.2661    8.2522    3.4108 H   0  0  0  0  0  0  0  0  0  0  0  0
    3.4927    6.5527    3.8393 H   0  0  0  0  0  0  0  0  0  0  0  0
    5.8476    5.6502    2.0430 H   0  0  0  0  0  0  0  0  0  0  0  0
    5.8145    5.5561    3.7972 H   0  0  0  0  0  0  0  0  0  0  0  0
    7.1364    6.3981    2.9801 H   0  0  0  0  0  0  0  0  0  0  0  0
    1.9471    3.0493   -1.5879 H   0  0  0  0  0  0  0  0  0  0  0  0
  1  2  1  0  0  0  0
  1 36  1  0  0  0  0
  1 37  1  0  0  0  0
  1 38  1  0  0  0  0
  2  3  1  0  0  0  0
  3  4  1  0  0  0  0
  3 39  1  0  0  0  0
  4  5  2  0  0  0  0
  4  6  1  0  0  0  0
  6  7  1  0  0  0  0
  6 34  2  0  0  0  0
  7  8  2  0  0  0  0
  7 40  1  0  0  0  0
  8  9  1  0  0  0  0
  8 31  1  0  0  0  0
  9 10  1  0  0  0  0
  9 41  1  0  0  0  0
 10 11  2  0  0  0  0
 10 30  1  0  0  0  0
 11 12  1  0  0  0  0
 12 13  2  0  0  0  0
 12 42  1  0  0  0  0
 13 14  1  0  0  0  0
 14 15  1  0  0  0  0
 14 30  1  0  0  0  0
 15 16  2  0  0  0  0
 15 43  1  0  0  0  0
 16 17  1  0  0  0  0
 16 26  1  0  0  0  0
 17 18  2  0  0  0  0
 17 25  1  0  0  0  0
 18 19  1  0  0  0  0
 19 20  2  0  0  0  0
 20 21  1  0  0  0  0
 20 25  1  0  0  0  0
 21 22  1  0  0  0  0
 21 44  1  0  0  0  0
 21 45  1  0  0  0  0
 22 23  1  0  0  0  0
 22 24  1  0  0  0  0
 22 46  1  0  0  0  0
 23 47  1  0  0  0  0
 23 48  1  0  0  0  0
 23 49  1  0  0  0  0
 24 50  1  0  0  0  0
 24 51  1  0  0  0  0
 24 52  1  0  0  0  0
 26 27  1  0  0  0  0
 26 30  2  0  0  0  0
 27 28  1  0  0  0  0
 27 29  1  0  0  0  0
 27 53  1  0  0  0  0
 28 54  1  0  0  0  0
 28 55  1  0  0  0  0
 28 56  1  0  0  0  0
 29 57  1  0  0  0  0
 29 58  1  0  0  0  0
 29 59  1  0  0  0  0
 31 32  1  0  0  0  0
 31 33  2  0  0  0  0
 33 34  1  0  0  0  0
 33 60  1  0  0  0  0
 34 35  1  0  0  0  0
M  END
$$$$
