CHEMBL3978209
 OpenBabel04072215373D

 42 45  0  0  0  0  0  0  0  0999 V2000
    2.2866   -1.0035   -1.8706 N   0  0  0  0  0  0  0  0  0  0  0  0
    1.0197   -0.6626   -1.3779 C   0  0  0  0  0  0  0  0  0  0  0  0
    0.4845    0.6014   -1.6371 C   0  0  0  0  0  0  0  0  0  0  0  0
   -0.8053    0.9284   -1.2166 C   0  0  0  0  0  0  0  0  0  0  0  0
   -1.5941   -0.0298   -0.5826 C   0  0  0  0  0  0  0  0  0  0  0  0
   -1.1230   -1.3374   -0.4478 C   0  0  0  0  0  0  0  0  0  0  0  0
   -1.8522   -2.3795    0.0867 O   0  0  0  0  0  0  0  0  0  0  0  0
   -3.2225   -2.4047   -0.0683 C   0  0  0  0  0  0  0  0  0  0  0  0
   -3.8841   -1.9613   -1.2158 C   0  0  0  0  0  0  0  0  0  0  0  0
   -5.2841   -1.9437   -1.2805 C   0  0  0  0  0  0  0  0  0  0  0  0
   -6.0262   -2.4481   -0.1949 C   0  0  0  0  0  0  0  0  0  0  0  0
   -7.4068   -2.5856    0.1423 C   0  0  0  0  0  0  0  0  0  0  0  0
   -8.5035   -2.1300   -0.6669 C   0  0  0  0  0  0  0  0  0  0  0  0
   -9.7993   -2.2768   -0.3291 C   0  0  0  0  0  0  0  0  0  0  0  0
  -10.9660   -1.8437   -1.1138 C   0  0  0  0  0  0  0  0  0  0  0  0
  -10.9552   -1.7443   -2.5105 C   0  0  0  0  0  0  0  0  0  0  0  0
  -12.1197   -1.4071   -3.2094 C   0  0  0  0  0  0  0  0  0  0  0  0
  -13.3079   -1.1727   -2.5203 C   0  0  0  0  0  0  0  0  0  0  0  0
  -13.3328   -1.2679   -1.1321 C   0  0  0  0  0  0  0  0  0  0  0  0
  -12.1700   -1.6030   -0.4348 C   0  0  0  0  0  0  0  0  0  0  0  0
   -7.5583   -3.1957    1.3276 N   0  0  0  0  0  0  0  0  0  0  0  0
   -6.3050   -3.4315    1.7411 N   0  0  0  0  0  0  0  0  0  0  0  0
   -5.3367   -2.9724    0.8937 C   0  0  0  0  0  0  0  0  0  0  0  0
   -3.9405   -2.9706    0.9942 C   0  0  0  0  0  0  0  0  0  0  0  0
    0.1872   -1.6433   -0.8311 C   0  0  0  0  0  0  0  0  0  0  0  0
    2.9149   -0.2108   -1.9550 H   0  0  0  0  0  0  0  0  0  0  0  0
    2.7176   -1.7775   -1.3741 H   0  0  0  0  0  0  0  0  0  0  0  0
    1.0753    1.3497   -2.1596 H   0  0  0  0  0  0  0  0  0  0  0  0
   -1.1999    1.9247   -1.3959 H   0  0  0  0  0  0  0  0  0  0  0  0
   -2.5850    0.2502   -0.2368 H   0  0  0  0  0  0  0  0  0  0  0  0
   -3.3198   -1.5952   -2.0700 H   0  0  0  0  0  0  0  0  0  0  0  0
   -5.7787   -1.5434   -2.1600 H   0  0  0  0  0  0  0  0  0  0  0  0
   -8.2491   -1.6255   -1.5939 H   0  0  0  0  0  0  0  0  0  0  0  0
  -10.0364   -2.7609    0.6177 H   0  0  0  0  0  0  0  0  0  0  0  0
  -10.0524   -1.9493   -3.0784 H   0  0  0  0  0  0  0  0  0  0  0  0
  -12.1011   -1.3430   -4.2943 H   0  0  0  0  0  0  0  0  0  0  0  0
  -14.2153   -0.9256   -3.0654 H   0  0  0  0  0  0  0  0  0  0  0  0
  -14.2580   -1.0923   -0.5896 H   0  0  0  0  0  0  0  0  0  0  0  0
  -12.2136   -1.6805    0.6501 H   0  0  0  0  0  0  0  0  0  0  0  0
   -6.1762   -3.9074    2.6260 H   0  0  0  0  0  0  0  0  0  0  0  0
   -3.4300   -3.3712    1.8638 H   0  0  0  0  0  0  0  0  0  0  0  0
    0.5522   -2.6587   -0.7020 H   0  0  0  0  0  0  0  0  0  0  0  0
  1  2  1  0  0  0  0
  1 26  1  0  0  0  0
  1 27  1  0  0  0  0
  2  3  1  0  0  0  0
  2 25  2  0  0  0  0
  3  4  2  0  0  0  0
  3 28  1  0  0  0  0
  4  5  1  0  0  0  0
  4 29  1  0  0  0  0
  5  6  2  0  0  0  0
  5 30  1  0  0  0  0
  6  7  1  0  0  0  0
  6 25  1  0  0  0  0
  7  8  1  0  0  0  0
  8  9  1  0  0  0  0
  8 24  2  0  0  0  0
  9 10  2  0  0  0  0
  9 31  1  0  0  0  0
 10 11  1  0  0  0  0
 10 32  1  0  0  0  0
 11 12  1  0  0  0  0
 11 23  2  0  0  0  0
 12 13  1  0  0  0  0
 12 21  2  0  0  0  0
 13 14  2  0  0  0  0
 13 33  1  0  0  0  0
 14 15  1  0  0  0  0
 14 34  1  0  0  0  0
 15 16  1  0  0  0  0
 15 20  2  0  0  0  0
 16 17  2  0  0  0  0
 16 35  1  0  0  0  0
 17 18  1  0  0  0  0
 17 36  1  0  0  0  0
 18 19  2  0  0  0  0
 18 37  1  0  0  0  0
 19 20  1  0  0  0  0
 19 38  1  0  0  0  0
 20 39  1  0  0  0  0
 21 22  1  0  0  0  0
 22 23  1  0  0  0  0
 22 40  1  0  0  0  0
 23 24  1  0  0  0  0
 24 41  1  0  0  0  0
 25 42  1  0  0  0  0
M  END
$$$$
