CHEMBL4790899
 OpenBabel04072215383D

 81 87  0  0  0  0  0  0  0  0999 V2000
    2.7340   -1.2351   -0.7740 C   0  0  0  0  0  0  0  0  0  0  0  0
    2.4865   -0.0030   -0.0986 O   0  0  0  0  0  0  0  0  0  0  0  0
    3.2058    1.1042   -0.4599 C   0  0  0  0  0  0  0  0  0  0  0  0
    4.3524    1.0466   -1.2586 C   0  0  0  0  0  0  0  0  0  0  0  0
    5.0029    2.1793   -1.7175 C   0  0  0  0  0  0  0  0  0  0  0  0
    6.0715    2.0049   -2.5017 N   0  0  0  0  0  0  0  0  0  0  0  0
    6.6770    3.1060   -2.9602 C   0  0  0  0  0  0  0  0  0  0  0  0
    6.3160    4.3606   -2.7045 N   0  0  0  0  0  0  0  0  0  0  0  0
    5.2797    4.4991   -1.8512 C   0  0  0  0  0  0  0  0  0  0  0  0
    4.9634    5.7913   -1.4465 O   0  0  0  0  0  0  0  0  0  0  0  0
    6.0229    6.6512   -1.2272 C   0  0  0  0  0  0  0  0  0  0  0  0
    5.8300    7.9904   -1.5620 C   0  0  0  0  0  0  0  0  0  0  0  0
    6.8301    8.9336   -1.2872 C   0  0  0  0  0  0  0  0  0  0  0  0
    8.0295    8.5639   -0.6540 C   0  0  0  0  0  0  0  0  0  0  0  0
    8.9506    9.5716   -0.3009 N   0  0  0  0  0  0  0  0  0  0  0  0
    9.8665    9.5926    0.7804 C   0  0  0  0  0  0  0  0  0  0  0  0
   10.3225    8.4199    1.2876 N   0  0  0  0  0  0  0  0  0  0  0  0
   11.1729    8.4300    2.3339 C   0  0  0  0  0  0  0  0  0  0  0  0
   11.6183    9.5839    2.9407 C   0  0  0  0  0  0  0  0  0  0  0  0
   11.1655   10.7992    2.4403 C   0  0  0  0  0  0  0  0  0  0  0  0
   11.6432   12.0044    2.9794 N   0  0  0  0  0  0  0  0  0  0  0  0
   11.1697   13.2041    2.5233 C   0  0  0  0  0  0  0  0  0  0  0  0
   10.3025   13.3591    1.5110 C   0  0  0  0  0  0  0  0  0  0  0  0
    9.7974   14.6970    1.1940 C   0  0  0  0  0  0  0  0  0  0  0  0
   10.4160   15.5065    0.2313 C   0  0  0  0  0  0  0  0  0  0  0  0
    9.9815   16.8207    0.0421 C   0  0  0  0  0  0  0  0  0  0  0  0
    8.9344   17.3174    0.8127 C   0  0  0  0  0  0  0  0  0  0  0  0
    8.5477   18.5906    0.6583 F   0  0  0  0  0  0  0  0  0  0  0  0
    8.2975   16.5195    1.7504 C   0  0  0  0  0  0  0  0  0  0  0  0
    8.7203   15.2056    1.9386 C   0  0  0  0  0  0  0  0  0  0  0  0
    9.7963   12.1229    0.8406 C   0  0  0  0  0  0  0  0  0  0  0  0
    8.9623   12.1832   -0.0602 O   0  0  0  0  0  0  0  0  0  0  0  0
   10.2965   10.8078    1.3319 C   0  0  0  0  0  0  0  0  0  0  0  0
    8.2306    7.2101   -0.3822 C   0  0  0  0  0  0  0  0  0  0  0  0
    7.2278    6.2761   -0.6288 C   0  0  0  0  0  0  0  0  0  0  0  0
    7.4450    5.0111   -0.2368 F   0  0  0  0  0  0  0  0  0  0  0  0
    4.5219    3.4345   -1.3426 C   0  0  0  0  0  0  0  0  0  0  0  0
    3.3836    3.5190   -0.4966 C   0  0  0  0  0  0  0  0  0  0  0  0
    2.7565    2.3592   -0.0198 C   0  0  0  0  0  0  0  0  0  0  0  0
    1.7106    2.5846    0.8455 O   0  0  0  0  0  0  0  0  0  0  0  0
    1.6265    1.6775    1.9570 C   0  0  0  0  0  0  0  0  0  0  0  0
    1.1671    2.4262    3.2164 C   0  0  0  0  0  0  0  0  0  0  0  0
   -0.2355    3.0294    3.0481 C   0  0  0  0  0  0  0  0  0  0  0  0
   -0.7820    3.6533    4.2722 N   0  0  0  0  0  0  0  0  0  0  0  0
   -2.1676    4.1353    4.0331 C   0  0  0  0  0  0  0  0  0  0  0  0
   -2.2388    5.3736    3.1193 C   0  0  0  0  0  0  0  0  0  0  0  0
   -1.4539    6.4536    3.6411 O   0  0  0  0  0  0  0  0  0  0  0  0
   -0.0932    6.0506    3.8464 C   0  0  0  0  0  0  0  0  0  0  0  0
   -0.0021    4.8144    4.7580 C   0  0  0  0  0  0  0  0  0  0  0  0
    3.3729   -1.8693   -0.1515 H   0  0  0  0  0  0  0  0  0  0  0  0
    3.1650   -1.1316   -1.7743 H   0  0  0  0  0  0  0  0  0  0  0  0
    1.7740   -1.7425   -0.9085 H   0  0  0  0  0  0  0  0  0  0  0  0
    4.7835    0.0983   -1.5560 H   0  0  0  0  0  0  0  0  0  0  0  0
    7.5517    2.9627   -3.5838 H   0  0  0  0  0  0  0  0  0  0  0  0
    4.9019    8.3078   -2.0273 H   0  0  0  0  0  0  0  0  0  0  0  0
    6.6469    9.9759   -1.5421 H   0  0  0  0  0  0  0  0  0  0  0  0
    8.6087   10.5155   -0.5055 H   0  0  0  0  0  0  0  0  0  0  0  0
   11.4929    7.4506    2.6764 H   0  0  0  0  0  0  0  0  0  0  0  0
   12.3006    9.5270    3.7805 H   0  0  0  0  0  0  0  0  0  0  0  0
   12.0508   11.9841    3.9091 H   0  0  0  0  0  0  0  0  0  0  0  0
   11.5469   14.0568    3.0839 H   0  0  0  0  0  0  0  0  0  0  0  0
   11.2411   15.1257   -0.3661 H   0  0  0  0  0  0  0  0  0  0  0  0
   10.4605   17.4657   -0.6888 H   0  0  0  0  0  0  0  0  0  0  0  0
    7.4711   16.9205    2.3277 H   0  0  0  0  0  0  0  0  0  0  0  0
    8.2171   14.5818    2.6738 H   0  0  0  0  0  0  0  0  0  0  0  0
    9.1567    6.8475    0.0480 H   0  0  0  0  0  0  0  0  0  0  0  0
    2.9916    4.4912   -0.2024 H   0  0  0  0  0  0  0  0  0  0  0  0
    2.6004    1.2264    2.1833 H   0  0  0  0  0  0  0  0  0  0  0  0
    0.9086    0.8861    1.7132 H   0  0  0  0  0  0  0  0  0  0  0  0
    1.8895    3.2173    3.4278 H   0  0  0  0  0  0  0  0  0  0  0  0
    1.1682    1.7298    4.0643 H   0  0  0  0  0  0  0  0  0  0  0  0
   -0.9117    2.2130    2.7633 H   0  0  0  0  0  0  0  0  0  0  0  0
   -0.2205    3.7334    2.2097 H   0  0  0  0  0  0  0  0  0  0  0  0
   -2.6000    4.4013    5.0073 H   0  0  0  0  0  0  0  0  0  0  0  0
   -2.7926    3.3284    3.6340 H   0  0  0  0  0  0  0  0  0  0  0  0
   -3.2742    5.7225    3.0518 H   0  0  0  0  0  0  0  0  0  0  0  0
   -1.9092    5.1480    2.0989 H   0  0  0  0  0  0  0  0  0  0  0  0
    0.4259    6.8912    4.3194 H   0  0  0  0  0  0  0  0  0  0  0  0
    0.3852    5.8736    2.8779 H   0  0  0  0  0  0  0  0  0  0  0  0
   -0.4062    5.0866    5.7427 H   0  0  0  0  0  0  0  0  0  0  0  0
    1.0431    4.5462    4.9410 H   0  0  0  0  0  0  0  0  0  0  0  0
  1  2  1  0  0  0  0
  1 50  1  0  0  0  0
  1 51  1  0  0  0  0
  1 52  1  0  0  0  0
  2  3  1  0  0  0  0
  3  4  1  0  0  0  0
  3 39  2  0  0  0  0
  4  5  2  0  0  0  0
  4 53  1  0  0  0  0
  5  6  1  0  0  0  0
  5 37  1  0  0  0  0
  6  7  2  0  0  0  0
  7  8  1  0  0  0  0
  7 54  1  0  0  0  0
  8  9  2  0  0  0  0
  9 10  1  0  0  0  0
  9 37  1  0  0  0  0
 10 11  1  0  0  0  0
 11 12  1  0  0  0  0
 11 35  2  0  0  0  0
 12 13  2  0  0  0  0
 12 55  1  0  0  0  0
 13 14  1  0  0  0  0
 13 56  1  0  0  0  0
 14 15  1  0  0  0  0
 14 34  2  0  0  0  0
 15 16  1  0  0  0  0
 15 57  1  0  0  0  0
 16 17  1  0  0  0  0
 16 33  2  0  0  0  0
 17 18  2  0  0  0  0
 18 19  1  0  0  0  0
 18 58  1  0  0  0  0
 19 20  2  0  0  0  0
 19 59  1  0  0  0  0
 20 21  1  0  0  0  0
 20 33  1  0  0  0  0
 21 22  1  0  0  0  0
 21 60  1  0  0  0  0
 22 23  2  0  0  0  0
 22 61  1  0  0  0  0
 23 24  1  0  0  0  0
 23 31  1  0  0  0  0
 24 25  1  0  0  0  0
 24 30  2  0  0  0  0
 25 26  2  0  0  0  0
 25 62  1  0  0  0  0
 26 27  1  0  0  0  0
 26 63  1  0  0  0  0
 27 28  1  0  0  0  0
 27 29  2  0  0  0  0
 29 30  1  0  0  0  0
 29 64  1  0  0  0  0
 30 65  1  0  0  0  0
 31 32  2  0  0  0  0
 31 33  1  0  0  0  0
 34 35  1  0  0  0  0
 34 66  1  0  0  0  0
 35 36  1  0  0  0  0
 37 38  2  0  0  0  0
 38 39  1  0  0  0  0
 38 67  1  0  0  0  0
 39 40  1  0  0  0  0
 40 41  1  0  0  0  0
 41 42  1  0  0  0  0
 41 68  1  0  0  0  0
 41 69  1  0  0  0  0
 42 43  1  0  0  0  0
 42 70  1  0  0  0  0
 42 71  1  0  0  0  0
 43 44  1  0  0  0  0
 43 72  1  0  0  0  0
 43 73  1  0  0  0  0
 44 45  1  0  0  0  0
 44 49  1  0  0  0  0
 45 46  1  0  0  0  0
 45 74  1  0  0  0  0
 45 75  1  0  0  0  0
 46 47  1  0  0  0  0
 46 76  1  0  0  0  0
 46 77  1  0  0  0  0
 47 48  1  0  0  0  0
 48 49  1  0  0  0  0
 48 78  1  0  0  0  0
 48 79  1  0  0  0  0
 49 80  1  0  0  0  0
 49 81  1  0  0  0  0
M  END
$$$$
