CHEMBL468420
 OpenBabel04072215383D

 49 53  0  0  0  0  0  0  0  0999 V2000
    1.2663    0.1606    2.7844 C   0  0  0  0  0  0  0  0  0  0  0  0
    2.6542    0.0936    2.2121 C   0  0  0  0  0  0  0  0  0  0  0  0
    3.0371    0.9623    1.1886 C   0  0  0  0  0  0  0  0  0  0  0  0
    4.3402    0.9454    0.6765 C   0  0  0  0  0  0  0  0  0  0  0  0
    5.3025    0.0653    1.2184 C   0  0  0  0  0  0  0  0  0  0  0  0
    6.7272   -0.1059    1.0522 C   0  0  0  0  0  0  0  0  0  0  0  0
    7.7012    0.7025    0.2937 C   0  0  0  0  0  0  0  0  0  0  0  0
    8.7046    0.2067   -0.2191 O   0  0  0  0  0  0  0  0  0  0  0  0
    7.4986    2.1901    0.2140 C   0  0  0  0  0  0  0  0  0  0  0  0
    6.8471    2.8303    1.2869 C   0  0  0  0  0  0  0  0  0  0  0  0
    6.4955    4.1741    1.2153 C   0  0  0  0  0  0  0  0  0  0  0  0
    6.8307    4.9044    0.0871 C   0  0  0  0  0  0  0  0  0  0  0  0
    7.5590    4.3028   -0.9423 C   0  0  0  0  0  0  0  0  0  0  0  0
    7.9664    2.9556   -0.8826 C   0  0  0  0  0  0  0  0  0  0  0  0
    8.6940    2.3927   -1.9539 N   0  0  0  0  0  0  0  0  0  0  0  0
    9.7350    3.2137   -2.5946 C   0  0  0  0  0  0  0  0  0  0  0  0
    9.4731    3.4862   -4.0682 C   0  0  0  0  0  0  0  0  0  0  0  0
   10.3738    4.3139   -4.7684 C   0  0  0  0  0  0  0  0  0  0  0  0
   10.2151    4.5991   -6.1351 C   0  0  0  0  0  0  0  0  0  0  0  0
    9.1249    4.0358   -6.8154 C   0  0  0  0  0  0  0  0  0  0  0  0
    8.6199    4.0611   -8.1352 C   0  0  0  0  0  0  0  0  0  0  0  0
    7.5101    3.3307   -8.2776 N   0  0  0  0  0  0  0  0  0  0  0  0
    7.3072    2.8325   -7.0430 N   0  0  0  0  0  0  0  0  0  0  0  0
    8.2414    3.2215   -6.1198 C   0  0  0  0  0  0  0  0  0  0  0  0
    8.3825    2.9254   -4.7567 C   0  0  0  0  0  0  0  0  0  0  0  0
    7.0671   -1.2102    1.8201 C   0  0  0  0  0  0  0  0  0  0  0  0
    5.9563   -1.6331    2.5021 N   0  0  0  0  0  0  0  0  0  0  0  0
    4.8771   -0.8388    2.1935 C   0  0  0  0  0  0  0  0  0  0  0  0
    3.5699   -0.8485    2.7078 C   0  0  0  0  0  0  0  0  0  0  0  0
    0.6884    0.9789    2.3410 H   0  0  0  0  0  0  0  0  0  0  0  0
    1.3114    0.3390    3.8643 H   0  0  0  0  0  0  0  0  0  0  0  0
    0.7303   -0.7737    2.5938 H   0  0  0  0  0  0  0  0  0  0  0  0
    2.3286    1.6827    0.7849 H   0  0  0  0  0  0  0  0  0  0  0  0
    4.6080    1.6433   -0.1121 H   0  0  0  0  0  0  0  0  0  0  0  0
    6.5674    2.2803    2.1832 H   0  0  0  0  0  0  0  0  0  0  0  0
    5.9362    4.6327    2.0257 H   0  0  0  0  0  0  0  0  0  0  0  0
    6.5316    5.9458    0.0022 H   0  0  0  0  0  0  0  0  0  0  0  0
    7.7920    4.9090   -1.8147 H   0  0  0  0  0  0  0  0  0  0  0  0
    9.0752    1.4787   -1.6753 H   0  0  0  0  0  0  0  0  0  0  0  0
   10.6878    2.6751   -2.5187 H   0  0  0  0  0  0  0  0  0  0  0  0
    9.8887    4.1719   -2.0813 H   0  0  0  0  0  0  0  0  0  0  0  0
   11.2259    4.7513   -4.2492 H   0  0  0  0  0  0  0  0  0  0  0  0
   10.9239    5.2385   -6.6526 H   0  0  0  0  0  0  0  0  0  0  0  0
    9.0173    4.5822   -8.9964 H   0  0  0  0  0  0  0  0  0  0  0  0
    6.5089    2.2285   -6.8930 H   0  0  0  0  0  0  0  0  0  0  0  0
    7.6704    2.2813   -4.2492 H   0  0  0  0  0  0  0  0  0  0  0  0
    8.0230   -1.6951    1.9738 H   0  0  0  0  0  0  0  0  0  0  0  0
    5.9339   -2.3956    3.1660 H   0  0  0  0  0  0  0  0  0  0  0  0
    3.2806   -1.5474    3.4871 H   0  0  0  0  0  0  0  0  0  0  0  0
  1  2  1  0  0  0  0
  1 30  1  0  0  0  0
  1 31  1  0  0  0  0
  1 32  1  0  0  0  0
  2  3  1  0  0  0  0
  2 29  2  0  0  0  0
  3  4  2  0  0  0  0
  3 33  1  0  0  0  0
  4  5  1  0  0  0  0
  4 34  1  0  0  0  0
  5  6  1  0  0  0  0
  5 28  2  0  0  0  0
  6  7  1  0  0  0  0
  6 26  2  0  0  0  0
  7  8  2  0  0  0  0
  7  9  1  0  0  0  0
  9 10  1  0  0  0  0
  9 14  2  0  0  0  0
 10 11  2  0  0  0  0
 10 35  1  0  0  0  0
 11 12  1  0  0  0  0
 11 36  1  0  0  0  0
 12 13  2  0  0  0  0
 12 37  1  0  0  0  0
 13 14  1  0  0  0  0
 13 38  1  0  0  0  0
 14 15  1  0  0  0  0
 15 16  1  0  0  0  0
 15 39  1  0  0  0  0
 16 17  1  0  0  0  0
 16 40  1  0  0  0  0
 16 41  1  0  0  0  0
 17 18  1  0  0  0  0
 17 25  2  0  0  0  0
 18 19  2  0  0  0  0
 18 42  1  0  0  0  0
 19 20  1  0  0  0  0
 19 43  1  0  0  0  0
 20 21  1  0  0  0  0
 20 24  2  0  0  0  0
 21 22  2  0  0  0  0
 21 44  1  0  0  0  0
 22 23  1  0  0  0  0
 23 24  1  0  0  0  0
 23 45  1  0  0  0  0
 24 25  1  0  0  0  0
 25 46  1  0  0  0  0
 26 27  1  0  0  0  0
 26 47  1  0  0  0  0
 27 28  1  0  0  0  0
 27 48  1  0  0  0  0
 28 29  1  0  0  0  0
 29 49  1  0  0  0  0
M  END
$$$$
