CHEMBL260135
 OpenBabel04072215363D

 35 38  0  0  0  0  0  0  0  0999 V2000
    1.2728    0.3352    0.1544 N   0  0  0  0  0  0  0  0  0  0  0  0
    2.5934    0.1458    0.0869 C   0  0  0  0  0  0  0  0  0  0  0  0
    3.4302    1.1861    0.0742 N   0  0  0  0  0  0  0  0  0  0  0  0
    4.6430    0.6130    0.0136 N   0  0  0  0  0  0  0  0  0  0  0  0
    4.6037   -0.7420   -0.0205 C   0  0  0  0  0  0  0  0  0  0  0  0
    5.6656   -1.5495   -0.0783 N   0  0  0  0  0  0  0  0  0  0  0  0
    5.4164   -2.8451   -0.1297 N   0  0  0  0  0  0  0  0  0  0  0  0
    4.1390   -3.3398   -0.1275 C   0  0  0  0  0  0  0  0  0  0  0  0
    4.1141   -4.8291   -0.1933 C   0  0  0  0  0  0  0  0  0  0  0  0
    5.0474   -5.5912    0.5387 C   0  0  0  0  0  0  0  0  0  0  0  0
    4.9611   -6.9861    0.6078 C   0  0  0  0  0  0  0  0  0  0  0  0
    3.9292   -7.6525   -0.0442 C   0  0  0  0  0  0  0  0  0  0  0  0
    3.0347   -6.9328   -0.8279 C   0  0  0  0  0  0  0  0  0  0  0  0
    3.1596   -5.5444   -0.9384 C   0  0  0  0  0  0  0  0  0  0  0  0
    2.9848   -2.5068   -0.0392 C   0  0  0  0  0  0  0  0  0  0  0  0
    1.5877   -2.9895   -0.0218 C   0  0  0  0  0  0  0  0  0  0  0  0
    1.1755   -4.0471    0.8152 C   0  0  0  0  0  0  0  0  0  0  0  0
   -0.0930   -4.6249    0.6921 C   0  0  0  0  0  0  0  0  0  0  0  0
   -1.0183   -4.0919   -0.1982 C   0  0  0  0  0  0  0  0  0  0  0  0
   -0.6686   -2.9953   -0.9781 C   0  0  0  0  0  0  0  0  0  0  0  0
    0.6274   -2.4772   -0.9141 C   0  0  0  0  0  0  0  0  0  0  0  0
    3.2713   -1.1174    0.0098 C   0  0  0  0  0  0  0  0  0  0  0  0
    0.9646    1.2900    0.3262 H   0  0  0  0  0  0  0  0  0  0  0  0
    0.6675   -0.3622    0.5736 H   0  0  0  0  0  0  0  0  0  0  0  0
    5.4671    1.2041   -0.0103 H   0  0  0  0  0  0  0  0  0  0  0  0
    5.8496   -5.0944    1.0838 H   0  0  0  0  0  0  0  0  0  0  0  0
    5.6899   -7.5461    1.1877 H   0  0  0  0  0  0  0  0  0  0  0  0
    3.8280   -8.7302    0.0493 H   0  0  0  0  0  0  0  0  0  0  0  0
    2.2257   -7.4434   -1.3439 H   0  0  0  0  0  0  0  0  0  0  0  0
    2.4523   -5.0208   -1.5786 H   0  0  0  0  0  0  0  0  0  0  0  0
    1.8730   -4.4952    1.5224 H   0  0  0  0  0  0  0  0  0  0  0  0
   -0.3442   -5.5074    1.2760 H   0  0  0  0  0  0  0  0  0  0  0  0
   -2.0054   -4.5360   -0.2921 H   0  0  0  0  0  0  0  0  0  0  0  0
   -1.3931   -2.5574   -1.6606 H   0  0  0  0  0  0  0  0  0  0  0  0
    0.8864   -1.6618   -1.5897 H   0  0  0  0  0  0  0  0  0  0  0  0
  1  2  1  0  0  0  0
  1 23  1  0  0  0  0
  1 24  1  0  0  0  0
  2  3  2  0  0  0  0
  2 22  1  0  0  0  0
  3  4  1  0  0  0  0
  4  5  1  0  0  0  0
  4 25  1  0  0  0  0
  5  6  1  0  0  0  0
  5 22  2  0  0  0  0
  6  7  2  0  0  0  0
  7  8  1  0  0  0  0
  8  9  1  0  0  0  0
  8 15  2  0  0  0  0
  9 10  1  0  0  0  0
  9 14  2  0  0  0  0
 10 11  2  0  0  0  0
 10 26  1  0  0  0  0
 11 12  1  0  0  0  0
 11 27  1  0  0  0  0
 12 13  2  0  0  0  0
 12 28  1  0  0  0  0
 13 14  1  0  0  0  0
 13 29  1  0  0  0  0
 14 30  1  0  0  0  0
 15 16  1  0  0  0  0
 15 22  1  0  0  0  0
 16 17  1  0  0  0  0
 16 21  2  0  0  0  0
 17 18  2  0  0  0  0
 17 31  1  0  0  0  0
 18 19  1  0  0  0  0
 18 32  1  0  0  0  0
 19 20  2  0  0  0  0
 19 33  1  0  0  0  0
 20 21  1  0  0  0  0
 20 34  1  0  0  0  0
 21 35  1  0  0  0  0
M  END
$$$$
