CHEMBL3656050
 OpenBabel04072215373D

 47 50  0  0  0  0  0  0  0  0999 V2000
   -3.7950    0.9773   -1.3064 C   0  0  0  0  0  0  0  0  0  0  0  0
   -2.4447    0.6526   -0.7774 C   0  0  0  0  0  0  0  0  0  0  0  0
   -1.4043    1.5700   -0.4673 C   0  0  0  0  0  0  0  0  0  0  0  0
   -0.3462    0.8221   -0.0115 C   0  0  0  0  0  0  0  0  0  0  0  0
   -0.6605   -0.4980   -0.0074 O   0  0  0  0  0  0  0  0  0  0  0  0
   -1.9409   -0.6091   -0.4831 C   0  0  0  0  0  0  0  0  0  0  0  0
   -2.5417   -1.9229   -0.6189 C   0  0  0  0  0  0  0  0  0  0  0  0
   -3.6467   -2.0735   -1.1341 O   0  0  0  0  0  0  0  0  0  0  0  0
   -1.7830   -2.9535   -0.0851 N   0  0  0  0  0  0  0  0  0  0  0  0
   -2.0909   -4.3318   -0.1185 C   0  0  0  0  0  0  0  0  0  0  0  0
   -3.0851   -4.8725   -0.9351 C   0  0  0  0  0  0  0  0  0  0  0  0
   -3.3537   -6.2442   -0.9226 C   0  0  0  0  0  0  0  0  0  0  0  0
   -4.3543   -6.6494   -1.7730 O   0  0  0  0  0  0  0  0  0  0  0  0
   -5.1790   -7.6902   -1.4227 C   0  0  0  0  0  0  0  0  0  0  0  0
   -5.5313   -8.0301   -0.1218 C   0  0  0  0  0  0  0  0  0  0  0  0
   -6.3393   -9.1375    0.0600 C   0  0  0  0  0  0  0  0  0  0  0  0
   -6.8461   -9.8745   -0.9524 N   0  0  0  0  0  0  0  0  0  0  0  0
   -6.5455   -9.4751   -2.2114 C   0  0  0  0  0  0  0  0  0  0  0  0
   -7.1647  -10.2707   -3.2645 C   0  0  0  0  0  0  0  0  0  0  0  0
   -7.1273  -10.1706   -4.6466 C   0  0  0  0  0  0  0  0  0  0  0  0
   -7.9458  -11.1976   -5.2078 C   0  0  0  0  0  0  0  0  0  0  0  0
   -8.2514  -11.5135   -6.6022 C   0  0  0  0  0  0  0  0  0  0  0  0
   -8.9768  -12.4387   -6.9396 O   0  0  0  0  0  0  0  0  0  0  0  0
   -7.6732  -10.6995   -7.5225 O   0  0  0  0  0  0  0  0  0  0  0  0
   -8.4475  -11.9035   -4.1267 C   0  0  0  0  0  0  0  0  0  0  0  0
   -7.9708  -11.3464   -2.9731 N   0  0  0  0  0  0  0  0  0  0  0  0
   -5.7246   -8.3951   -2.4884 C   0  0  0  0  0  0  0  0  0  0  0  0
   -2.5808   -7.1048   -0.1405 C   0  0  0  0  0  0  0  0  0  0  0  0
   -1.5955   -6.5774    0.6927 C   0  0  0  0  0  0  0  0  0  0  0  0
   -1.3559   -5.2033    0.6939 C   0  0  0  0  0  0  0  0  0  0  0  0
   -0.4075   -4.7155    1.5086 F   0  0  0  0  0  0  0  0  0  0  0  0
   -3.9398    2.0601   -1.3781 H   0  0  0  0  0  0  0  0  0  0  0  0
   -4.5739    0.5790   -0.6479 H   0  0  0  0  0  0  0  0  0  0  0  0
   -3.9320    0.5520   -2.3058 H   0  0  0  0  0  0  0  0  0  0  0  0
   -1.4280    2.6466   -0.5680 H   0  0  0  0  0  0  0  0  0  0  0  0
    0.6486    1.0696    0.3318 H   0  0  0  0  0  0  0  0  0  0  0  0
   -0.9558   -2.6773    0.4372 H   0  0  0  0  0  0  0  0  0  0  0  0
   -3.6643   -4.2544   -1.6139 H   0  0  0  0  0  0  0  0  0  0  0  0
   -5.1860   -7.4664    0.7365 H   0  0  0  0  0  0  0  0  0  0  0  0
   -6.6064   -9.4718    1.0587 H   0  0  0  0  0  0  0  0  0  0  0  0
   -6.5680   -9.4167   -5.1830 H   0  0  0  0  0  0  0  0  0  0  0  0
   -7.1285  -10.0008   -7.1258 H   0  0  0  0  0  0  0  0  0  0  0  0
   -9.1108  -12.7592   -4.0927 H   0  0  0  0  0  0  0  0  0  0  0  0
   -8.1697  -11.6504   -2.0267 H   0  0  0  0  0  0  0  0  0  0  0  0
   -5.5028   -8.0942   -3.5049 H   0  0  0  0  0  0  0  0  0  0  0  0
   -2.7394   -8.1795   -0.1656 H   0  0  0  0  0  0  0  0  0  0  0  0
   -1.0154   -7.2285    1.3394 H   0  0  0  0  0  0  0  0  0  0  0  0
  1  2  1  0  0  0  0
  1 32  1  0  0  0  0
  1 33  1  0  0  0  0
  1 34  1  0  0  0  0
  2  3  1  0  0  0  0
  2  6  2  0  0  0  0
  3  4  2  0  0  0  0
  3 35  1  0  0  0  0
  4  5  1  0  0  0  0
  4 36  1  0  0  0  0
  5  6  1  0  0  0  0
  6  7  1  0  0  0  0
  7  8  2  0  0  0  0
  7  9  1  0  0  0  0
  9 10  1  0  0  0  0
  9 37  1  0  0  0  0
 10 11  1  0  0  0  0
 10 30  2  0  0  0  0
 11 12  2  0  0  0  0
 11 38  1  0  0  0  0
 12 13  1  0  0  0  0
 12 28  1  0  0  0  0
 13 14  1  0  0  0  0
 14 15  1  0  0  0  0
 14 27  2  0  0  0  0
 15 16  2  0  0  0  0
 15 39  1  0  0  0  0
 16 17  1  0  0  0  0
 16 40  1  0  0  0  0
 17 18  2  0  0  0  0
 18 19  1  0  0  0  0
 18 27  1  0  0  0  0
 19 20  2  0  0  0  0
 19 26  1  0  0  0  0
 20 21  1  0  0  0  0
 20 41  1  0  0  0  0
 21 22  1  0  0  0  0
 21 25  2  0  0  0  0
 22 23  2  0  0  0  0
 22 24  1  0  0  0  0
 24 42  1  0  0  0  0
 25 26  1  0  0  0  0
 25 43  1  0  0  0  0
 26 44  1  0  0  0  0
 27 45  1  0  0  0  0
 28 29  2  0  0  0  0
 28 46  1  0  0  0  0
 29 30  1  0  0  0  0
 29 47  1  0  0  0  0
 30 31  1  0  0  0  0
M  END
$$$$
