CHEMBL249176
 OpenBabel04072215363D

 34 37  0  0  0  0  0  0  0  0999 V2000
    1.0331   -0.2057   -0.0827 C   0  0  0  0  0  0  0  0  0  0  0  0
    2.4756   -0.1006   -0.0812 N   0  0  0  0  0  0  0  0  0  0  0  0
    3.1618    1.0831   -0.0971 C   0  0  0  0  0  0  0  0  0  0  0  0
    4.5037    0.8056    0.0096 C   0  0  0  0  0  0  0  0  0  0  0  0
    5.5647    1.7617    0.0700 C   0  0  0  0  0  0  0  0  0  0  0  0
    5.5767    3.0003    0.5885 C   0  0  0  0  0  0  0  0  0  0  0  0
    4.4950    3.7973    1.2206 C   0  0  0  0  0  0  0  0  0  0  0  0
    3.3930    3.4617    1.6008 O   0  0  0  0  0  0  0  0  0  0  0  0
    5.0510    5.0619    1.3111 N   0  0  0  0  0  0  0  0  0  0  0  0
    6.3764    5.1438    0.9645 N   0  0  0  0  0  0  0  0  0  0  0  0
    6.7333    3.9431    0.5730 C   0  0  0  0  0  0  0  0  0  0  0  0
    8.0897    3.6227    0.2498 C   0  0  0  0  0  0  0  0  0  0  0  0
    8.8224    2.4559    0.3708 C   0  0  0  0  0  0  0  0  0  0  0  0
   10.1452    2.5335   -0.0307 N   0  0  0  0  0  0  0  0  0  0  0  0
   10.4569    3.7526   -0.4342 N   0  0  0  0  0  0  0  0  0  0  0  0
    9.1736    4.8206   -0.3323 S   0  0  0  0  0  0  0  0  0  0  0  0
    4.6439   -0.6213   -0.0245 C   0  0  0  0  0  0  0  0  0  0  0  0
    5.7437   -1.5106   -0.0139 C   0  0  0  0  0  0  0  0  0  0  0  0
    5.5213   -2.8974   -0.0388 C   0  0  0  0  0  0  0  0  0  0  0  0
    6.6371   -3.7993   -0.0373 C   0  0  0  0  0  0  0  0  0  0  0  0
    7.5410   -4.5264   -0.0367 N   0  0  0  0  0  0  0  0  0  0  0  0
    4.2211   -3.4033   -0.0652 C   0  0  0  0  0  0  0  0  0  0  0  0
    3.1171   -2.5467   -0.0774 C   0  0  0  0  0  0  0  0  0  0  0  0
    3.3532   -1.1633   -0.0641 C   0  0  0  0  0  0  0  0  0  0  0  0
    0.5929    0.7950   -0.0787 H   0  0  0  0  0  0  0  0  0  0  0  0
    0.7261   -0.7454    0.8169 H   0  0  0  0  0  0  0  0  0  0  0  0
    0.7258   -0.7422   -0.9835 H   0  0  0  0  0  0  0  0  0  0  0  0
    2.6242    2.0203   -0.1564 H   0  0  0  0  0  0  0  0  0  0  0  0
    6.4771    1.4019   -0.3946 H   0  0  0  0  0  0  0  0  0  0  0  0
    4.5751    5.8514    1.7338 H   0  0  0  0  0  0  0  0  0  0  0  0
    8.4660    1.5123    0.7621 H   0  0  0  0  0  0  0  0  0  0  0  0
    6.7592   -1.1237    0.0094 H   0  0  0  0  0  0  0  0  0  0  0  0
    4.0516   -4.4793   -0.0778 H   0  0  0  0  0  0  0  0  0  0  0  0
    2.1077   -2.9493   -0.0993 H   0  0  0  0  0  0  0  0  0  0  0  0
  1  2  1  0  0  0  0
  1 25  1  0  0  0  0
  1 26  1  0  0  0  0
  1 27  1  0  0  0  0
  2  3  1  0  0  0  0
  2 24  1  0  0  0  0
  3  4  2  0  0  0  0
  3 28  1  0  0  0  0
  4  5  1  0  0  0  0
  4 17  1  0  0  0  0
  5  6  2  0  0  0  0
  5 29  1  0  0  0  0
  6  7  1  0  0  0  0
  6 11  1  0  0  0  0
  7  8  2  0  0  0  0
  7  9  1  0  0  0  0
  9 10  1  0  0  0  0
  9 30  1  0  0  0  0
 10 11  2  0  0  0  0
 11 12  1  0  0  0  0
 12 13  2  0  0  0  0
 12 16  1  0  0  0  0
 13 14  1  0  0  0  0
 13 31  1  0  0  0  0
 14 15  2  0  0  0  0
 15 16  1  0  0  0  0
 17 18  1  0  0  0  0
 17 24  2  0  0  0  0
 18 19  2  0  0  0  0
 18 32  1  0  0  0  0
 19 20  1  0  0  0  0
 19 22  1  0  0  0  0
 20 21  3  0  0  0  0
 22 23  2  0  0  0  0
 22 33  1  0  0  0  0
 23 24  1  0  0  0  0
 23 34  1  0  0  0  0
M  END
$$$$
