CHEMBL3746359
 OpenBabel04072215373D

 44 47  0  0  0  0  0  0  0  0999 V2000
   -1.7315   -2.0697   -1.9711 N   0  0  0  0  0  0  0  0  0  0  0  0
   -1.1295   -0.9256   -1.4498 C   0  0  0  0  0  0  0  0  0  0  0  0
   -1.8909    0.1269   -0.9986 C   0  0  0  0  0  0  0  0  0  0  0  0
   -1.1903    1.2241   -0.5540 C   0  0  0  0  0  0  0  0  0  0  0  0
   -1.9444    2.3177   -0.1292 O   0  0  0  0  0  0  0  0  0  0  0  0
   -1.3498    3.5635   -0.1600 C   0  0  0  0  0  0  0  0  0  0  0  0
   -0.5406    3.9898   -1.2125 C   0  0  0  0  0  0  0  0  0  0  0  0
    0.0735    5.2439   -1.1860 C   0  0  0  0  0  0  0  0  0  0  0  0
   -0.1780    6.0872   -0.0904 C   0  0  0  0  0  0  0  0  0  0  0  0
   -1.0295    5.7034    0.9482 C   0  0  0  0  0  0  0  0  0  0  0  0
   -1.0763    6.7846    1.8668 C   0  0  0  0  0  0  0  0  0  0  0  0
   -0.1908    7.7441    1.4330 C   0  0  0  0  0  0  0  0  0  0  0  0
    0.3618    7.3306    0.2317 N   0  0  0  0  0  0  0  0  0  0  0  0
    1.2854    8.0478   -0.5515 C   0  0  0  0  0  0  0  0  0  0  0  0
    1.1437    8.0763   -1.7656 O   0  0  0  0  0  0  0  0  0  0  0  0
    2.3311    8.5330    0.2187 N   0  0  0  0  0  0  0  0  0  0  0  0
    3.4247    9.2399   -0.3395 C   0  0  0  0  0  0  0  0  0  0  0  0
    3.2749   10.0432   -1.4727 C   0  0  0  0  0  0  0  0  0  0  0  0
    4.3735   10.6921   -2.0360 C   0  0  0  0  0  0  0  0  0  0  0  0
    5.6391   10.5276   -1.4830 C   0  0  0  0  0  0  0  0  0  0  0  0
    5.8156    9.7320   -0.3409 C   0  0  0  0  0  0  0  0  0  0  0  0
    7.1999    9.4978    0.2191 C   0  0  0  0  0  0  0  0  0  0  0  0
    8.1946   10.0365   -0.5412 F   0  0  0  0  0  0  0  0  0  0  0  0
    7.3542   10.0218    1.4645 F   0  0  0  0  0  0  0  0  0  0  0  0
    7.4938    8.1725    0.3306 F   0  0  0  0  0  0  0  0  0  0  0  0
    4.6879    9.1224    0.2509 C   0  0  0  0  0  0  0  0  0  0  0  0
   -1.6435    4.4322    0.8991 C   0  0  0  0  0  0  0  0  0  0  0  0
    0.1536    1.2743   -0.5007 N   0  0  0  0  0  0  0  0  0  0  0  0
    0.7878    0.2054   -0.9884 C   0  0  0  0  0  0  0  0  0  0  0  0
    0.2080   -0.9020   -1.4710 N   0  0  0  0  0  0  0  0  0  0  0  0
   -2.3957   -2.4792   -1.3250 H   0  0  0  0  0  0  0  0  0  0  0  0
   -0.9869   -2.7216   -2.2097 H   0  0  0  0  0  0  0  0  0  0  0  0
   -2.9707    0.1084   -1.0179 H   0  0  0  0  0  0  0  0  0  0  0  0
   -0.3446    3.3369   -2.0588 H   0  0  0  0  0  0  0  0  0  0  0  0
    0.7459    5.5375   -1.9889 H   0  0  0  0  0  0  0  0  0  0  0  0
   -1.6888    6.8470    2.7586 H   0  0  0  0  0  0  0  0  0  0  0  0
    0.0429    8.7225    1.8340 H   0  0  0  0  0  0  0  0  0  0  0  0
    2.4744    8.0947    1.1211 H   0  0  0  0  0  0  0  0  0  0  0  0
    2.3018   10.1861   -1.9355 H   0  0  0  0  0  0  0  0  0  0  0  0
    4.2379   11.3106   -2.9206 H   0  0  0  0  0  0  0  0  0  0  0  0
    6.4921   11.0111   -1.9581 H   0  0  0  0  0  0  0  0  0  0  0  0
    4.8291    8.5047    1.1365 H   0  0  0  0  0  0  0  0  0  0  0  0
   -2.3106    4.1155    1.6960 H   0  0  0  0  0  0  0  0  0  0  0  0
    1.8710    0.2427   -1.0066 H   0  0  0  0  0  0  0  0  0  0  0  0
  1  2  1  0  0  0  0
  1 31  1  0  0  0  0
  1 32  1  0  0  0  0
  2  3  1  0  0  0  0
  2 30  2  0  0  0  0
  3  4  2  0  0  0  0
  3 33  1  0  0  0  0
  4  5  1  0  0  0  0
  4 28  1  0  0  0  0
  5  6  1  0  0  0  0
  6  7  1  0  0  0  0
  6 27  2  0  0  0  0
  7  8  2  0  0  0  0
  7 34  1  0  0  0  0
  8  9  1  0  0  0  0
  8 35  1  0  0  0  0
  9 10  2  0  0  0  0
  9 13  1  0  0  0  0
 10 11  1  0  0  0  0
 10 27  1  0  0  0  0
 11 12  2  0  0  0  0
 11 36  1  0  0  0  0
 12 13  1  0  0  0  0
 12 37  1  0  0  0  0
 13 14  1  0  0  0  0
 14 15  2  0  0  0  0
 14 16  1  0  0  0  0
 16 17  1  0  0  0  0
 16 38  1  0  0  0  0
 17 18  1  0  0  0  0
 17 26  2  0  0  0  0
 18 19  2  0  0  0  0
 18 39  1  0  0  0  0
 19 20  1  0  0  0  0
 19 40  1  0  0  0  0
 20 21  2  0  0  0  0
 20 41  1  0  0  0  0
 21 22  1  0  0  0  0
 21 26  1  0  0  0  0
 22 23  1  0  0  0  0
 22 24  1  0  0  0  0
 22 25  1  0  0  0  0
 26 42  1  0  0  0  0
 27 43  1  0  0  0  0
 28 29  2  0  0  0  0
 29 30  1  0  0  0  0
 29 44  1  0  0  0  0
M  END
$$$$
