CHEMBL3925077
 OpenBabel04072215373D

 70 74  0  0  0  0  0  0  0  0999 V2000
    2.2955    4.2122    4.3813 C   0  0  0  0  0  0  0  0  0  0  0  0
    2.2210    2.8220    4.1362 O   0  0  0  0  0  0  0  0  0  0  0  0
    3.0798    2.2972    3.2068 C   0  0  0  0  0  0  0  0  0  0  0  0
    2.4999    1.2403    2.5248 C   0  0  0  0  0  0  0  0  0  0  0  0
    3.2669    0.4695    1.6829 C   0  0  0  0  0  0  0  0  0  0  0  0
    2.8044   -0.6203    0.9887 O   0  0  0  0  0  0  0  0  0  0  0  0
    1.6252   -1.2487    1.5103 C   0  0  0  0  0  0  0  0  0  0  0  0
    4.6353    0.8165    1.5053 C   0  0  0  0  0  0  0  0  0  0  0  0
    5.2518    1.9782    2.0574 C   0  0  0  0  0  0  0  0  0  0  0  0
    6.6702    2.3640    1.8659 N   0  0  0  0  0  0  0  0  0  0  0  0
    7.2746    2.3260    0.4866 C   0  0  0  0  0  0  0  0  0  0  0  0
    6.3886    1.7349   -0.6193 C   0  0  0  0  0  0  0  0  0  0  0  0
    6.9659    1.4954   -2.0060 C   0  0  0  0  0  0  0  0  0  0  0  0
    7.2327    2.6490   -2.8659 N   0  0  0  0  0  0  0  0  0  0  0  0
    6.0751    3.5355   -3.0746 C   0  0  0  0  0  0  0  0  0  0  0  0
    4.8654    2.8797   -3.7144 C   0  0  0  0  0  0  0  0  0  0  0  0
    5.2879    2.1651   -5.2940 S   0  0  0  0  0  0  0  0  0  0  0  0
    4.3066    1.1752   -5.6008 O   0  0  0  0  0  0  0  0  0  0  0  0
    5.5553    3.2576   -6.2192 O   0  0  0  0  0  0  0  0  0  0  0  0
    6.8248    1.3320   -4.9922 C   0  0  0  0  0  0  0  0  0  0  0  0
    7.7693    2.2002   -4.1712 C   0  0  0  0  0  0  0  0  0  0  0  0
    7.6501    2.1919    2.9352 C   0  0  0  0  0  0  0  0  0  0  0  0
    7.2885    1.2100    3.8045 C   0  0  0  0  0  0  0  0  0  0  0  0
    7.7269    1.3113    5.0821 C   0  0  0  0  0  0  0  0  0  0  0  0
    8.5599    2.2858    5.4471 C   0  0  0  0  0  0  0  0  0  0  0  0
    8.3330    2.5318    6.7346 N   0  0  0  0  0  0  0  0  0  0  0  0
    9.3907    2.5268    7.4904 C   0  0  0  0  0  0  0  0  0  0  0  0
   10.6964    2.4494    7.0577 C   0  0  0  0  0  0  0  0  0  0  0  0
   11.5299    1.7491    8.1479 C   0  0  0  0  0  0  0  0  0  0  0  0
   10.9025    0.8859    9.1349 C   0  0  0  0  0  0  0  0  0  0  0  0
   11.6462    0.5383   10.1678 N   0  0  0  0  0  0  0  0  0  0  0  0
   12.8306    1.0817    9.8957 N   0  0  0  0  0  0  0  0  0  0  0  0
   13.8686    0.7658   10.8620 C   0  0  0  0  0  0  0  0  0  0  0  0
   12.8153    1.8522    8.7179 C   0  0  0  0  0  0  0  0  0  0  0  0
   10.8585    2.6698    5.6587 N   0  0  0  0  0  0  0  0  0  0  0  0
    9.6107    2.6379    4.6963 C   0  0  0  0  0  0  0  0  0  0  0  0
    8.9130    2.8470    3.2968 C   0  0  0  0  0  0  0  0  0  0  0  0
    4.4325    2.6724    2.9844 C   0  0  0  0  0  0  0  0  0  0  0  0
    1.2685    4.5907    4.4113 H   0  0  0  0  0  0  0  0  0  0  0  0
    2.8342    4.7655    3.6099 H   0  0  0  0  0  0  0  0  0  0  0  0
    2.7419    4.3685    5.3646 H   0  0  0  0  0  0  0  0  0  0  0  0
    1.4459    1.0282    2.6998 H   0  0  0  0  0  0  0  0  0  0  0  0
    1.3524   -2.0736    0.8446 H   0  0  0  0  0  0  0  0  0  0  0  0
    0.7588   -0.5790    1.5430 H   0  0  0  0  0  0  0  0  0  0  0  0
    1.8296   -1.6677    2.5014 H   0  0  0  0  0  0  0  0  0  0  0  0
    5.2024    0.0616    0.9844 H   0  0  0  0  0  0  0  0  0  0  0  0
    8.1951    1.7313    0.5200 H   0  0  0  0  0  0  0  0  0  0  0  0
    7.5543    3.3490    0.2089 H   0  0  0  0  0  0  0  0  0  0  0  0
    5.4323    2.2653   -0.6854 H   0  0  0  0  0  0  0  0  0  0  0  0
    6.1868    0.7051   -0.3452 H   0  0  0  0  0  0  0  0  0  0  0  0
    6.2425    0.8297   -2.4962 H   0  0  0  0  0  0  0  0  0  0  0  0
    7.8798    0.8975   -1.8983 H   0  0  0  0  0  0  0  0  0  0  0  0
    6.3960    4.3872   -3.6891 H   0  0  0  0  0  0  0  0  0  0  0  0
    5.7801    3.9835   -2.1174 H   0  0  0  0  0  0  0  0  0  0  0  0
    4.0790    3.6167   -3.8969 H   0  0  0  0  0  0  0  0  0  0  0  0
    4.4438    2.0899   -3.0866 H   0  0  0  0  0  0  0  0  0  0  0  0
    7.2654    1.0991   -5.9685 H   0  0  0  0  0  0  0  0  0  0  0  0
    6.6054    0.3753   -4.5063 H   0  0  0  0  0  0  0  0  0  0  0  0
    8.0571    3.0822   -4.7554 H   0  0  0  0  0  0  0  0  0  0  0  0
    8.7039    1.6500   -3.9992 H   0  0  0  0  0  0  0  0  0  0  0  0
    6.5105    0.4803    3.6068 H   0  0  0  0  0  0  0  0  0  0  0  0
    7.2590    0.6709    5.8521 H   0  0  0  0  0  0  0  0  0  0  0  0
    9.0794    2.3299    8.5208 H   0  0  0  0  0  0  0  0  0  0  0  0
    9.8775    0.5442    9.1796 H   0  0  0  0  0  0  0  0  0  0  0  0
   13.4119    0.2323   11.7140 H   0  0  0  0  0  0  0  0  0  0  0  0
   14.3314    1.6728   11.2507 H   0  0  0  0  0  0  0  0  0  0  0  0
   14.5890    0.0855   10.4044 H   0  0  0  0  0  0  0  0  0  0  0  0
   13.7059    2.4050    8.4621 H   0  0  0  0  0  0  0  0  0  0  0  0
    9.3805    3.5527    2.5995 H   0  0  0  0  0  0  0  0  0  0  0  0
    4.8652    3.4691    3.5806 H   0  0  0  0  0  0  0  0  0  0  0  0
  1  2  1  0  0  0  0
  1 39  1  0  0  0  0
  1 40  1  0  0  0  0
  1 41  1  0  0  0  0
  2  3  1  0  0  0  0
  3  4  1  0  0  0  0
  3 38  2  0  0  0  0
  4  5  2  0  0  0  0
  4 42  1  0  0  0  0
  5  6  1  0  0  0  0
  5  8  1  0  0  0  0
  6  7  1  0  0  0  0
  7 43  1  0  0  0  0
  7 44  1  0  0  0  0
  7 45  1  0  0  0  0
  8  9  2  0  0  0  0
  8 46  1  0  0  0  0
  9 10  1  0  0  0  0
  9 38  1  0  0  0  0
 10 11  1  0  0  0  0
 10 22  1  0  0  0  0
 11 12  1  0  0  0  0
 11 47  1  0  0  0  0
 11 48  1  0  0  0  0
 12 13  1  0  0  0  0
 12 49  1  0  0  0  0
 12 50  1  0  0  0  0
 13 14  1  0  0  0  0
 13 51  1  0  0  0  0
 13 52  1  0  0  0  0
 14 15  1  0  0  0  0
 14 21  1  0  0  0  0
 15 16  1  0  0  0  0
 15 53  1  0  0  0  0
 15 54  1  0  0  0  0
 16 17  1  0  0  0  0
 16 55  1  0  0  0  0
 16 56  1  0  0  0  0
 17 18  2  0  0  0  0
 17 19  2  0  0  0  0
 17 20  1  0  0  0  0
 20 21  1  0  0  0  0
 20 57  1  0  0  0  0
 20 58  1  0  0  0  0
 21 59  1  0  0  0  0
 21 60  1  0  0  0  0
 22 23  1  0  0  0  0
 22 37  2  0  0  0  0
 23 24  2  0  0  0  0
 23 61  1  0  0  0  0
 24 25  1  0  0  0  0
 24 62  1  0  0  0  0
 25 26  1  0  0  0  0
 25 36  2  0  0  0  0
 26 27  2  0  0  0  0
 27 28  1  0  0  0  0
 27 63  1  0  0  0  0
 28 29  1  0  0  0  0
 28 35  2  0  0  0  0
 29 30  1  0  0  0  0
 29 34  2  0  0  0  0
 30 31  2  0  0  0  0
 30 64  1  0  0  0  0
 31 32  1  0  0  0  0
 32 33  1  0  0  0  0
 32 34  1  0  0  0  0
 33 65  1  0  0  0  0
 33 66  1  0  0  0  0
 33 67  1  0  0  0  0
 34 68  1  0  0  0  0
 35 36  1  0  0  0  0
 36 37  1  0  0  0  0
 37 69  1  0  0  0  0
 38 70  1  0  0  0  0
M  END
$$$$
