CHEMBL3951099
 OpenBabel04072215373D

 63 67  0  0  0  0  0  0  0  0999 V2000
    4.4513    0.9046   -4.3936 C   0  0  0  0  0  0  0  0  0  0  0  0
    4.6153   -0.4724   -4.0695 O   0  0  0  0  0  0  0  0  0  0  0  0
    3.9554   -0.9447   -2.9688 C   0  0  0  0  0  0  0  0  0  0  0  0
    4.6325   -1.9857   -2.3189 C   0  0  0  0  0  0  0  0  0  0  0  0
    4.1313   -2.5702   -1.1240 C   0  0  0  0  0  0  0  0  0  0  0  0
    4.7512   -3.5603   -0.3472 C   0  0  0  0  0  0  0  0  0  0  0  0
    5.9840   -4.1179   -0.7714 N   0  0  0  0  0  0  0  0  0  0  0  0
    6.6179   -5.2754   -0.2671 C   0  0  0  0  0  0  0  0  0  0  0  0
    5.9063   -6.3256    0.3287 C   0  0  0  0  0  0  0  0  0  0  0  0
    6.5538   -7.4642    0.8116 C   0  0  0  0  0  0  0  0  0  0  0  0
    7.9309   -7.5974    0.6572 C   0  0  0  0  0  0  0  0  0  0  0  0
    8.6751   -9.0214    1.2881 Cl  0  0  0  0  0  0  0  0  0  0  0  0
    8.6504   -6.5942    0.0017 C   0  0  0  0  0  0  0  0  0  0  0  0
   10.3533   -6.7095   -0.2717 Cl  0  0  0  0  0  0  0  0  0  0  0  0
    7.9941   -5.4465   -0.4634 C   0  0  0  0  0  0  0  0  0  0  0  0
    4.1909   -4.0236    0.7936 N   0  0  0  0  0  0  0  0  0  0  0  0
    3.0065   -3.5260    1.1455 C   0  0  0  0  0  0  0  0  0  0  0  0
    2.3230   -2.6082    0.4688 N   0  0  0  0  0  0  0  0  0  0  0  0
    2.8945   -2.1454   -0.6400 C   0  0  0  0  0  0  0  0  0  0  0  0
    2.2032   -1.1724   -1.3326 C   0  0  0  0  0  0  0  0  0  0  0  0
    2.7193   -0.5275   -2.4682 C   0  0  0  0  0  0  0  0  0  0  0  0
    2.0320    0.4895   -3.0922 O   0  0  0  0  0  0  0  0  0  0  0  0
    1.0398    1.0995   -2.2590 C   0  0  0  0  0  0  0  0  0  0  0  0
    0.6807    2.4238   -2.7828 C   0  0  0  0  0  0  0  0  0  0  0  0
    1.0242    3.5909   -2.2995 N   0  0  0  0  0  0  0  0  0  0  0  0
    0.1692    4.4445   -2.9513 C   0  0  0  0  0  0  0  0  0  0  0  0
    0.1612    5.8593   -2.6326 C   0  0  0  0  0  0  0  0  0  0  0  0
    1.0885    6.3552   -1.7090 C   0  0  0  0  0  0  0  0  0  0  0  0
    1.1405    7.7146   -1.4077 C   0  0  0  0  0  0  0  0  0  0  0  0
    0.2630    8.6221   -2.0164 C   0  0  0  0  0  0  0  0  0  0  0  0
    0.3425   10.1325   -1.7541 C   0  0  0  0  0  0  0  0  0  0  0  0
    1.4480   10.5230   -0.7468 C   0  0  0  0  0  0  0  0  0  0  0  0
    0.6494   10.8591   -3.0805 C   0  0  0  0  0  0  0  0  0  0  0  0
   -0.9983   10.6387   -1.1869 C   0  0  0  0  0  0  0  0  0  0  0  0
   -0.6940    8.1035   -2.9122 C   0  0  0  0  0  0  0  0  0  0  0  0
   -0.7466    6.7405   -3.2175 C   0  0  0  0  0  0  0  0  0  0  0  0
   -0.6383    3.8400   -3.8391 N   0  0  0  0  0  0  0  0  0  0  0  0
   -0.3006    2.4897   -3.7230 O   0  0  0  0  0  0  0  0  0  0  0  0
    5.3990    1.2550   -4.8178 H   0  0  0  0  0  0  0  0  0  0  0  0
    4.2417    1.5335   -3.5235 H   0  0  0  0  0  0  0  0  0  0  0  0
    3.6803    1.0163   -5.1614 H   0  0  0  0  0  0  0  0  0  0  0  0
    5.5776   -2.3259   -2.7379 H   0  0  0  0  0  0  0  0  0  0  0  0
    6.6412   -3.3720   -0.9716 H   0  0  0  0  0  0  0  0  0  0  0  0
    4.8259   -6.2739    0.4386 H   0  0  0  0  0  0  0  0  0  0  0  0
    5.9688   -8.2377    1.3025 H   0  0  0  0  0  0  0  0  0  0  0  0
    8.5683   -4.6804   -0.9778 H   0  0  0  0  0  0  0  0  0  0  0  0
    2.5614   -3.9020    2.0590 H   0  0  0  0  0  0  0  0  0  0  0  0
    1.2230   -0.9309   -0.9308 H   0  0  0  0  0  0  0  0  0  0  0  0
    1.4379    1.2675   -1.2463 H   0  0  0  0  0  0  0  0  0  0  0  0
    0.1457    0.4687   -2.2083 H   0  0  0  0  0  0  0  0  0  0  0  0
    1.7938    5.6856   -1.2193 H   0  0  0  0  0  0  0  0  0  0  0  0
    1.8967    8.0333   -0.6965 H   0  0  0  0  0  0  0  0  0  0  0  0
    2.4421   10.2312   -1.1071 H   0  0  0  0  0  0  0  0  0  0  0  0
    1.2884   10.0482    0.2290 H   0  0  0  0  0  0  0  0  0  0  0  0
    1.4705   11.6055   -0.5803 H   0  0  0  0  0  0  0  0  0  0  0  0
    1.6049   10.5231   -3.5016 H   0  0  0  0  0  0  0  0  0  0  0  0
    0.7116   11.9428   -2.9319 H   0  0  0  0  0  0  0  0  0  0  0  0
   -0.1210   10.6811   -3.8391 H   0  0  0  0  0  0  0  0  0  0  0  0
   -1.2472   10.1282   -0.2489 H   0  0  0  0  0  0  0  0  0  0  0  0
   -1.8305   10.4767   -1.8803 H   0  0  0  0  0  0  0  0  0  0  0  0
   -0.9561   11.7144   -0.9811 H   0  0  0  0  0  0  0  0  0  0  0  0
   -1.4084    8.7617   -3.4022 H   0  0  0  0  0  0  0  0  0  0  0  0
   -1.4950    6.3808   -3.9205 H   0  0  0  0  0  0  0  0  0  0  0  0
  1  2  1  0  0  0  0
  1 39  1  0  0  0  0
  1 40  1  0  0  0  0
  1 41  1  0  0  0  0
  2  3  1  0  0  0  0
  3  4  1  0  0  0  0
  3 21  2  0  0  0  0
  4  5  2  0  0  0  0
  4 42  1  0  0  0  0
  5  6  1  0  0  0  0
  5 19  1  0  0  0  0
  6  7  1  0  0  0  0
  6 16  2  0  0  0  0
  7  8  1  0  0  0  0
  7 43  1  0  0  0  0
  8  9  1  0  0  0  0
  8 15  2  0  0  0  0
  9 10  2  0  0  0  0
  9 44  1  0  0  0  0
 10 11  1  0  0  0  0
 10 45  1  0  0  0  0
 11 12  1  0  0  0  0
 11 13  2  0  0  0  0
 13 14  1  0  0  0  0
 13 15  1  0  0  0  0
 15 46  1  0  0  0  0
 16 17  1  0  0  0  0
 17 18  2  0  0  0  0
 17 47  1  0  0  0  0
 18 19  1  0  0  0  0
 19 20  2  0  0  0  0
 20 21  1  0  0  0  0
 20 48  1  0  0  0  0
 21 22  1  0  0  0  0
 22 23  1  0  0  0  0
 23 24  1  0  0  0  0
 23 49  1  0  0  0  0
 23 50  1  0  0  0  0
 24 25  2  0  0  0  0
 24 38  1  0  0  0  0
 25 26  1  0  0  0  0
 26 27  1  0  0  0  0
 26 37  2  0  0  0  0
 27 28  1  0  0  0  0
 27 36  2  0  0  0  0
 28 29  2  0  0  0  0
 28 51  1  0  0  0  0
 29 30  1  0  0  0  0
 29 52  1  0  0  0  0
 30 31  1  0  0  0  0
 30 35  2  0  0  0  0
 31 32  1  0  0  0  0
 31 33  1  0  0  0  0
 31 34  1  0  0  0  0
 32 53  1  0  0  0  0
 32 54  1  0  0  0  0
 32 55  1  0  0  0  0
 33 56  1  0  0  0  0
 33 57  1  0  0  0  0
 33 58  1  0  0  0  0
 34 59  1  0  0  0  0
 34 60  1  0  0  0  0
 34 61  1  0  0  0  0
 35 36  1  0  0  0  0
 35 62  1  0  0  0  0
 36 63  1  0  0  0  0
 37 38  1  0  0  0  0
M  END
$$$$
