CHEMBL4069672
 OpenBabel04072215383D

 55 58  0  0  0  0  0  0  0  0999 V2000
    6.7677    7.5415   -6.2474 C   0  0  0  0  0  0  0  0  0  0  0  0
    6.0131    6.4663   -5.8194 O   0  0  0  0  0  0  0  0  0  0  0  0
    5.8486    6.0935   -4.5238 C   0  0  0  0  0  0  0  0  0  0  0  0
    6.3987    6.8264   -3.4584 C   0  0  0  0  0  0  0  0  0  0  0  0
    6.2197    6.4080   -2.1450 C   0  0  0  0  0  0  0  0  0  0  0  0
    5.4886    5.2379   -1.8528 C   0  0  0  0  0  0  0  0  0  0  0  0
    4.9252    4.5015   -2.9233 C   0  0  0  0  0  0  0  0  0  0  0  0
    5.1152    4.9332   -4.2454 C   0  0  0  0  0  0  0  0  0  0  0  0
    4.1331    3.2374   -2.6675 C   0  0  0  0  0  0  0  0  0  0  0  0
    3.7871    3.0444   -1.1883 C   0  0  0  0  0  0  0  0  0  0  0  0
    4.9907    3.3575   -0.3180 C   0  0  0  0  0  0  0  0  0  0  0  0
    5.3498    4.7609   -0.5034 N   0  0  0  0  0  0  0  0  0  0  0  0
    5.4102    5.6628    0.6141 C   0  0  0  0  0  0  0  0  0  0  0  0
    5.0191    6.9652    0.4534 N   0  0  0  0  0  0  0  0  0  0  0  0
    4.9897    7.8623    1.4869 C   0  0  0  0  0  0  0  0  0  0  0  0
    4.5561    9.2706    1.2337 C   0  0  0  0  0  0  0  0  0  0  0  0
    5.3502    7.4711    2.7457 N   0  0  0  0  0  0  0  0  0  0  0  0
    5.7591    6.1914    2.9246 C   0  0  0  0  0  0  0  0  0  0  0  0
    6.2020    5.5627    4.0673 C   0  0  0  0  0  0  0  0  0  0  0  0
    6.3125    6.1144    5.4537 C   0  0  0  0  0  0  0  0  0  0  0  0
    4.9949    5.9914    6.1733 C   0  0  0  0  0  0  0  0  0  0  0  0
    4.4136    4.7230    6.3678 C   0  0  0  0  0  0  0  0  0  0  0  0
    3.1975    4.5980    7.0435 C   0  0  0  0  0  0  0  0  0  0  0  0
    2.5525    5.7351    7.5351 C   0  0  0  0  0  0  0  0  0  0  0  0
    3.1236    6.9976    7.3504 C   0  0  0  0  0  0  0  0  0  0  0  0
    4.3403    7.1282    6.6718 C   0  0  0  0  0  0  0  0  0  0  0  0
    6.5399    4.2747    3.6767 C   0  0  0  0  0  0  0  0  0  0  0  0
    6.3036    4.1092    2.3577 N   0  0  0  0  0  0  0  0  0  0  0  0
    5.8119    5.2835    1.9053 C   0  0  0  0  0  0  0  0  0  0  0  0
    1.8801   -2.0523   -1.8025 Cl  0  0  0  0  0  0  0  0  0  0  0  0
    6.7192    7.6080   -7.3520 H   0  0  0  0  0  0  0  0  0  0  0  0
    7.8281    7.4023   -5.9448 H   0  0  0  0  0  0  0  0  0  0  0  0
    6.3724    8.4859   -5.8158 H   0  0  0  0  0  0  0  0  0  0  0  0
    6.9790    7.7230   -3.6333 H   0  0  0  0  0  0  0  0  0  0  0  0
    6.6928    6.9841   -1.3629 H   0  0  0  0  0  0  0  0  0  0  0  0
    4.6882    4.3654   -5.0637 H   0  0  0  0  0  0  0  0  0  0  0  0
    4.7446    2.3865   -3.0365 H   0  0  0  0  0  0  0  0  0  0  0  0
    3.1718    3.2495   -3.2263 H   0  0  0  0  0  0  0  0  0  0  0  0
    3.4255    2.0063   -1.0193 H   0  0  0  0  0  0  0  0  0  0  0  0
    2.9767    3.7492   -0.8926 H   0  0  0  0  0  0  0  0  0  0  0  0
    5.8440    2.7037   -0.6053 H   0  0  0  0  0  0  0  0  0  0  0  0
    4.6837    3.1427    0.7225 H   0  0  0  0  0  0  0  0  0  0  0  0
    4.2976    9.4135    0.1614 H   0  0  0  0  0  0  0  0  0  0  0  0
    5.3761    9.9723    1.4945 H   0  0  0  0  0  0  0  0  0  0  0  0
    3.6636    9.5043    1.8492 H   0  0  0  0  0  0  0  0  0  0  0  0
    6.6845    7.1609    5.4064 H   0  0  0  0  0  0  0  0  0  0  0  0
    7.0618    5.5216    6.0209 H   0  0  0  0  0  0  0  0  0  0  0  0
    4.9023    3.8298    5.9983 H   0  0  0  0  0  0  0  0  0  0  0  0
    2.7570    3.6197    7.1881 H   0  0  0  0  0  0  0  0  0  0  0  0
    1.6117    5.6363    8.0608 H   0  0  0  0  0  0  0  0  0  0  0  0
    2.6234    7.8761    7.7353 H   0  0  0  0  0  0  0  0  0  0  0  0
    4.7715    8.1122    6.5391 H   0  0  0  0  0  0  0  0  0  0  0  0
    6.9314    3.4997    4.3218 H   0  0  0  0  0  0  0  0  0  0  0  0
    6.4982    3.2308    1.8326 H   0  0  0  0  0  0  0  0  0  0  0  0
    1.8590   -2.1504   -0.4306 H   0  0  0  0  0  0  0  0  0  0  0  0
  1  2  1  0  0  0  0
  1 31  1  0  0  0  0
  1 32  1  0  0  0  0
  1 33  1  0  0  0  0
  2  3  1  0  0  0  0
  3  4  1  0  0  0  0
  3  8  2  0  0  0  0
  4  5  2  0  0  0  0
  4 34  1  0  0  0  0
  5  6  1  0  0  0  0
  5 35  1  0  0  0  0
  6  7  2  0  0  0  0
  6 12  1  0  0  0  0
  7  8  1  0  0  0  0
  7  9  1  0  0  0  0
  8 36  1  0  0  0  0
  9 10  1  0  0  0  0
  9 37  1  0  0  0  0
  9 38  1  0  0  0  0
 10 11  1  0  0  0  0
 10 39  1  0  0  0  0
 10 40  1  0  0  0  0
 11 12  1  0  0  0  0
 11 41  1  0  0  0  0
 11 42  1  0  0  0  0
 12 13  1  0  0  0  0
 13 14  1  0  0  0  0
 13 29  2  0  0  0  0
 14 15  2  0  0  0  0
 15 16  1  0  0  0  0
 15 17  1  0  0  0  0
 16 43  1  0  0  0  0
 16 44  1  0  0  0  0
 16 45  1  0  0  0  0
 17 18  2  0  0  0  0
 18 19  1  0  0  0  0
 18 29  1  0  0  0  0
 19 20  1  0  0  0  0
 19 27  2  0  0  0  0
 20 21  1  0  0  0  0
 20 46  1  0  0  0  0
 20 47  1  0  0  0  0
 21 22  1  0  0  0  0
 21 26  2  0  0  0  0
 22 23  2  0  0  0  0
 22 48  1  0  0  0  0
 23 24  1  0  0  0  0
 23 49  1  0  0  0  0
 24 25  2  0  0  0  0
 24 50  1  0  0  0  0
 25 26  1  0  0  0  0
 25 51  1  0  0  0  0
 26 52  1  0  0  0  0
 27 28  1  0  0  0  0
 27 53  1  0  0  0  0
 28 29  1  0  0  0  0
 28 54  1  0  0  0  0
 30 55  1  0  0  0  0
M  END
$$$$
