CHEMBL3109350
 OpenBabel04072215363D

 57 61  0  0  1  0  0  0  0  0999 V2000
    1.2788   -5.4770   -2.0283 C   0  0  0  0  0  0  0  0  0  0  0  0
    2.6684   -5.2053   -1.8904 O   0  0  0  0  0  0  0  0  0  0  0  0
    3.0702   -4.1280   -2.7354 C   0  0  0  0  0  0  0  0  0  0  0  0
    4.5577   -3.8652   -2.5650 C   0  0  0  0  0  0  0  0  0  0  0  0
    4.9372   -2.7748   -3.4133 O   0  0  0  0  0  0  0  0  0  0  0  0
    6.2725   -2.4158   -3.4082 C   0  0  0  0  0  0  0  0  0  0  0  0
    7.2009   -3.1048   -2.5130 C   0  0  0  0  0  0  0  0  0  0  0  0
    8.4993   -2.8052   -2.5527 C   0  0  0  0  0  0  0  0  0  0  0  0
    8.9669   -1.8308   -3.4388 N   0  0  0  0  0  0  0  0  0  0  0  0
   10.2329   -1.3209   -3.6450 C   0  0  0  0  0  0  0  0  0  0  0  0
   11.4435   -1.6653   -2.9146 C   0  0  0  0  0  0  0  0  0  0  0  0
   12.4497   -0.7261   -2.7554 C   0  0  0  0  0  0  0  0  0  0  0  0
   13.6139   -1.1131   -2.1159 C   0  0  0  0  0  0  0  0  0  0  0  0
   13.7507   -2.4278   -1.6578 C   0  0  0  0  0  0  0  0  0  0  0  0
   14.9429   -2.8169   -1.0306 C   0  0  0  0  0  0  0  0  0  0  0  0
   15.1062   -4.1198   -0.5814 C   0  0  0  0  0  0  0  0  0  0  0  0
   14.0863   -5.0456   -0.7734 C   0  0  0  0  0  0  0  0  0  0  0  0
   12.8961   -4.6702   -1.4123 C   0  0  0  0  0  0  0  0  0  0  0  0
   11.8717   -5.5537   -1.6658 O   0  0  0  0  0  0  0  0  0  0  0  0
   12.0195   -6.9170   -1.2627 C   0  0  0  0  0  0  0  0  0  0  0  0
   10.7542   -7.7054   -1.6568 C   0  0  3  0  0  0  0  0  0  0  0  0
   10.4849   -7.6815   -3.1596 C   0  0  0  0  0  0  0  0  0  0  0  0
    9.4795   -6.5635   -3.3411 C   0  0  0  0  0  0  0  0  0  0  0  0
    8.6122   -6.6713   -2.1642 N   0  0  0  0  0  0  0  0  0  0  0  0
    9.4782   -7.1013   -1.0543 C   0  0  0  0  0  0  0  0  0  0  0  0
   12.6918   -3.3426   -1.8584 C   0  0  0  0  0  0  0  0  0  0  0  0
   11.5493   -2.9405   -2.4739 N   0  0  0  0  0  0  0  0  0  0  0  0
   10.0659   -0.3814   -4.6545 C   0  0  0  0  0  0  0  0  0  0  0  0
    8.7590   -0.2786   -5.0480 N   0  0  0  0  0  0  0  0  0  0  0  0
    8.1099   -1.1488   -4.3068 C   0  0  0  0  0  0  0  0  0  0  0  0
    6.7239   -1.4798   -4.2645 C   0  0  0  0  0  0  0  0  0  0  0  0
    1.0198   -6.3081   -1.3670 H   0  0  0  0  0  0  0  0  0  0  0  0
    1.0443   -5.7651   -3.0580 H   0  0  0  0  0  0  0  0  0  0  0  0
    0.6875   -4.6030   -1.7386 H   0  0  0  0  0  0  0  0  0  0  0  0
    2.5041   -3.2216   -2.4862 H   0  0  0  0  0  0  0  0  0  0  0  0
    2.8633   -4.3773   -3.7814 H   0  0  0  0  0  0  0  0  0  0  0  0
    5.1109   -4.7752   -2.8305 H   0  0  0  0  0  0  0  0  0  0  0  0
    4.7712   -3.6212   -1.5168 H   0  0  0  0  0  0  0  0  0  0  0  0
    6.8551   -3.8828   -1.8481 H   0  0  0  0  0  0  0  0  0  0  0  0
    9.2302   -3.3101   -1.9265 H   0  0  0  0  0  0  0  0  0  0  0  0
   12.3406    0.2866   -3.1268 H   0  0  0  0  0  0  0  0  0  0  0  0
   14.4140   -0.3867   -1.9901 H   0  0  0  0  0  0  0  0  0  0  0  0
   15.7551   -2.1060   -0.8886 H   0  0  0  0  0  0  0  0  0  0  0  0
   16.0313   -4.4156   -0.0924 H   0  0  0  0  0  0  0  0  0  0  0  0
   14.2551   -6.0574   -0.4203 H   0  0  0  0  0  0  0  0  0  0  0  0
   12.1401   -6.9688   -0.1734 H   0  0  0  0  0  0  0  0  0  0  0  0
   12.9006   -7.3617   -1.7417 H   0  0  0  0  0  0  0  0  0  0  0  0
   10.8700   -8.7457   -1.3256 H   0  0  0  0  0  0  0  0  0  0  0  0
   10.0291   -8.6351   -3.4567 H   0  0  0  0  0  0  0  0  0  0  0  0
   11.3835   -7.5390   -3.7677 H   0  0  0  0  0  0  0  0  0  0  0  0
    8.9088   -6.6767   -4.2684 H   0  0  0  0  0  0  0  0  0  0  0  0
    9.9681   -5.5845   -3.3656 H   0  0  0  0  0  0  0  0  0  0  0  0
    7.9217   -7.3998   -2.3383 H   0  0  0  0  0  0  0  0  0  0  0  0
    8.9452   -7.8552   -0.4631 H   0  0  0  0  0  0  0  0  0  0  0  0
    9.6802   -6.2567   -0.3875 H   0  0  0  0  0  0  0  0  0  0  0  0
   10.8296    0.2330   -5.1040 H   0  0  0  0  0  0  0  0  0  0  0  0
    6.0567   -0.9799   -4.9600 H   0  0  0  0  0  0  0  0  0  0  0  0
  1  2  1  0  0  0  0
  1 32  1  0  0  0  0
  1 33  1  0  0  0  0
  1 34  1  0  0  0  0
  2  3  1  0  0  0  0
  3  4  1  0  0  0  0
  3 35  1  0  0  0  0
  3 36  1  0  0  0  0
  4  5  1  0  0  0  0
  4 37  1  0  0  0  0
  4 38  1  0  0  0  0
  5  6  1  0  0  0  0
  6  7  1  0  0  0  0
  6 31  2  0  0  0  0
  7  8  2  0  0  0  0
  7 39  1  0  0  0  0
  8  9  1  0  0  0  0
  8 40  1  0  0  0  0
  9 10  1  0  0  0  0
  9 30  1  0  0  0  0
 10 11  1  0  0  0  0
 10 28  2  0  0  0  0
 11 12  1  0  0  0  0
 11 27  2  0  0  0  0
 12 13  2  0  0  0  0
 12 41  1  0  0  0  0
 13 14  1  0  0  0  0
 13 42  1  0  0  0  0
 14 15  1  0  0  0  0
 14 26  2  0  0  0  0
 15 16  2  0  0  0  0
 15 43  1  0  0  0  0
 16 17  1  0  0  0  0
 16 44  1  0  0  0  0
 17 18  2  0  0  0  0
 17 45  1  0  0  0  0
 18 19  1  0  0  0  0
 18 26  1  0  0  0  0
 19 20  1  0  0  0  0
 20 21  1  0  0  0  0
 20 46  1  0  0  0  0
 20 47  1  0  0  0  0
 21 22  1  0  0  0  0
 21 25  1  0  0  0  0
 21 48  1  0  0  0  0
 22 23  1  0  0  0  0
 22 49  1  0  0  0  0
 22 50  1  0  0  0  0
 23 24  1  0  0  0  0
 23 51  1  0  0  0  0
 23 52  1  0  0  0  0
 24 25  1  0  0  0  0
 24 53  1  0  0  0  0
 25 54  1  0  0  0  0
 25 55  1  0  0  0  0
 26 27  1  0  0  0  0
 28 29  1  0  0  0  0
 28 56  1  0  0  0  0
 29 30  2  0  0  0  0
 30 31  1  0  0  0  0
 31 57  1  0  0  0  0
M  END
$$$$
