CHEMBL265600
 OpenBabel04072215363D

 73 79  0  0  0  0  0  0  0  0999 V2000
    6.5166   -2.8962    3.1474 C   0  0  0  0  0  0  0  0  0  0  0  0
    5.6185   -1.7972    2.9657 O   0  0  0  0  0  0  0  0  0  0  0  0
    4.6390   -1.9923    2.0159 C   0  0  0  0  0  0  0  0  0  0  0  0
    4.3567   -3.2534    1.4571 C   0  0  0  0  0  0  0  0  0  0  0  0
    3.3214   -3.4265    0.5398 C   0  0  0  0  0  0  0  0  0  0  0  0
    2.5403   -2.3459    0.1802 C   0  0  0  0  0  0  0  0  0  0  0  0
    2.8267   -1.0885    0.7017 C   0  0  0  0  0  0  0  0  0  0  0  0
    3.8697   -0.8789    1.6204 C   0  0  0  0  0  0  0  0  0  0  0  0
    4.1683    0.4305    2.1086 N   0  0  0  0  0  0  0  0  0  0  0  0
    3.2986    1.5034    2.0074 C   0  0  0  0  0  0  0  0  0  0  0  0
    2.1496    1.4058    1.5881 O   0  0  0  0  0  0  0  0  0  0  0  0
    3.8455    2.7089    2.4129 N   0  0  0  0  0  0  0  0  0  0  0  0
    3.1094    3.9264    2.3796 C   0  0  0  0  0  0  0  0  0  0  0  0
    1.7118    3.9719    2.3334 C   0  0  0  0  0  0  0  0  0  0  0  0
    1.0097    5.1370    1.9963 C   0  0  0  0  0  0  0  0  0  0  0  0
    1.7563    6.2967    1.7584 C   0  0  0  0  0  0  0  0  0  0  0  0
    3.1010    6.2937    2.0042 C   0  0  0  0  0  0  0  0  0  0  0  0
    3.8138    5.1239    2.3184 C   0  0  0  0  0  0  0  0  0  0  0  0
    3.4044    7.6132    1.8063 C   0  0  0  0  0  0  0  0  0  0  0  0
    3.7661    8.2503    3.0434 C   0  0  0  0  0  0  0  0  0  0  0  0
    4.6785    9.3039    2.8233 C   0  0  0  0  0  0  0  0  0  0  0  0
    5.1128    9.5529    1.5024 C   0  0  0  0  0  0  0  0  0  0  0  0
    3.7661    9.3360    0.6768 C   0  0  0  0  0  0  0  0  0  0  0  0
    2.5405    8.4672    0.9835 C   0  0  0  0  0  0  0  0  0  0  0  0
    1.4224    7.6047    1.3384 N   0  0  0  0  0  0  0  0  0  0  0  0
   -0.0515    7.8269    1.0728 C   0  0  0  0  0  0  0  0  0  0  0  0
   -1.1915    7.6773    2.2178 C   0  0  0  0  0  0  0  0  0  0  0  0
   -1.1660    8.7477    3.3066 C   0  0  0  0  0  0  0  0  0  0  0  0
   -2.6332    7.7180    1.6275 C   0  0  0  0  0  0  0  0  0  0  0  0
    3.7894   10.4089   -0.4524 C   0  0  0  0  0  0  0  0  0  0  0  0
    4.0580   11.8187    0.1806 C   0  0  0  0  0  0  0  0  0  0  0  0
    5.4956   11.8402    0.5435 C   0  0  0  0  0  0  0  0  0  0  0  0
    6.3553   12.7051    0.0141 N   0  0  0  0  0  0  0  0  0  0  0  0
    7.5047   12.0100   -0.0287 N   0  0  0  0  0  0  0  0  0  0  0  0
    8.5542   12.5913   -0.8574 C   0  0  0  0  0  0  0  0  0  0  0  0
    7.3370   10.7208    0.5072 C   0  0  0  0  0  0  0  0  0  0  0  0
    6.0584   10.6718    1.1002 C   0  0  0  0  0  0  0  0  0  0  0  0
    4.4876   10.2471    3.9113 C   0  0  0  0  0  0  0  0  0  0  0  0
    4.9434   11.3559    4.1539 O   0  0  0  0  0  0  0  0  0  0  0  0
    3.4384    9.7106    4.6763 N   0  0  0  0  0  0  0  0  0  0  0  0
    2.8549    8.4923    4.1729 C   0  0  0  0  0  0  0  0  0  0  0  0
    7.2956   -2.5987    3.8541 H   0  0  0  0  0  0  0  0  0  0  0  0
    7.0050   -3.1498    2.1996 H   0  0  0  0  0  0  0  0  0  0  0  0
    6.0117   -3.7738    3.5718 H   0  0  0  0  0  0  0  0  0  0  0  0
    4.9198   -4.1417    1.7206 H   0  0  0  0  0  0  0  0  0  0  0  0
    3.1226   -4.4051    0.1142 H   0  0  0  0  0  0  0  0  0  0  0  0
    1.7094   -2.4596   -0.5097 H   0  0  0  0  0  0  0  0  0  0  0  0
    2.2015   -0.2797    0.3410 H   0  0  0  0  0  0  0  0  0  0  0  0
    4.9693    0.5066    2.7208 H   0  0  0  0  0  0  0  0  0  0  0  0
    4.8505    2.7887    2.3431 H   0  0  0  0  0  0  0  0  0  0  0  0
    1.1155    3.0787    2.4998 H   0  0  0  0  0  0  0  0  0  0  0  0
   -0.0656    5.0804    1.8792 H   0  0  0  0  0  0  0  0  0  0  0  0
    4.8959    5.1657    2.3764 H   0  0  0  0  0  0  0  0  0  0  0  0
   -0.2941    7.0293    0.3516 H   0  0  0  0  0  0  0  0  0  0  0  0
   -0.1611    8.7784    0.5527 H   0  0  0  0  0  0  0  0  0  0  0  0
   -1.1143    6.7088    2.7287 H   0  0  0  0  0  0  0  0  0  0  0  0
   -1.3589    9.7370    2.8836 H   0  0  0  0  0  0  0  0  0  0  0  0
   -0.2207    8.7537    3.8402 H   0  0  0  0  0  0  0  0  0  0  0  0
   -1.9495    8.5622    4.0589 H   0  0  0  0  0  0  0  0  0  0  0  0
   -2.8304    8.6749    1.1323 H   0  0  0  0  0  0  0  0  0  0  0  0
   -3.3973    7.6158    2.4168 H   0  0  0  0  0  0  0  0  0  0  0  0
   -2.8189    6.9106    0.9131 H   0  0  0  0  0  0  0  0  0  0  0  0
    2.8922   10.3918   -1.0628 H   0  0  0  0  0  0  0  0  0  0  0  0
    4.6348   10.1317   -1.1127 H   0  0  0  0  0  0  0  0  0  0  0  0
    3.4757   11.9677    1.0960 H   0  0  0  0  0  0  0  0  0  0  0  0
    3.8522   12.6225   -0.5267 H   0  0  0  0  0  0  0  0  0  0  0  0
    8.4182   13.6845   -0.8853 H   0  0  0  0  0  0  0  0  0  0  0  0
    8.4501   12.2273   -1.8857 H   0  0  0  0  0  0  0  0  0  0  0  0
    9.5511   12.3843   -0.4654 H   0  0  0  0  0  0  0  0  0  0  0  0
    8.1056    9.9813    0.3137 H   0  0  0  0  0  0  0  0  0  0  0  0
    2.9233   10.3327    5.2844 H   0  0  0  0  0  0  0  0  0  0  0  0
    1.8447    8.7253    3.8269 H   0  0  0  0  0  0  0  0  0  0  0  0
    2.8293    7.7064    4.9265 H   0  0  0  0  0  0  0  0  0  0  0  0
  1  2  1  0  0  0  0
  1 42  1  0  0  0  0
  1 43  1  0  0  0  0
  1 44  1  0  0  0  0
  2  3  1  0  0  0  0
  3  4  1  0  0  0  0
  3  8  2  0  0  0  0
  4  5  2  0  0  0  0
  4 45  1  0  0  0  0
  5  6  1  0  0  0  0
  5 46  1  0  0  0  0
  6  7  2  0  0  0  0
  6 47  1  0  0  0  0
  7  8  1  0  0  0  0
  7 48  1  0  0  0  0
  8  9  1  0  0  0  0
  9 10  1  0  0  0  0
  9 49  1  0  0  0  0
 10 11  2  0  0  0  0
 10 12  1  0  0  0  0
 12 13  1  0  0  0  0
 12 50  1  0  0  0  0
 13 14  1  0  0  0  0
 13 18  2  0  0  0  0
 14 15  2  0  0  0  0
 14 51  1  0  0  0  0
 15 16  1  0  0  0  0
 15 52  1  0  0  0  0
 16 17  2  0  0  0  0
 16 25  1  0  0  0  0
 17 18  1  0  0  0  0
 17 19  1  0  0  0  0
 18 53  1  0  0  0  0
 19 20  1  0  0  0  0
 19 24  2  0  0  0  0
 20 21  2  0  0  0  0
 20 41  1  0  0  0  0
 21 22  1  0  0  0  0
 21 38  1  0  0  0  0
 22 23  2  0  0  0  0
 22 37  1  0  0  0  0
 23 24  1  0  0  0  0
 23 30  1  0  0  0  0
 24 25  1  0  0  0  0
 25 26  1  0  0  0  0
 26 27  1  0  0  0  0
 26 54  1  0  0  0  0
 26 55  1  0  0  0  0
 27 28  1  0  0  0  0
 27 29  1  0  0  0  0
 27 56  1  0  0  0  0
 28 57  1  0  0  0  0
 28 58  1  0  0  0  0
 28 59  1  0  0  0  0
 29 60  1  0  0  0  0
 29 61  1  0  0  0  0
 29 62  1  0  0  0  0
 30 31  1  0  0  0  0
 30 63  1  0  0  0  0
 30 64  1  0  0  0  0
 31 32  1  0  0  0  0
 31 65  1  0  0  0  0
 31 66  1  0  0  0  0
 32 33  2  0  0  0  0
 32 37  1  0  0  0  0
 33 34  1  0  0  0  0
 34 35  1  0  0  0  0
 34 36  1  0  0  0  0
 35 67  1  0  0  0  0
 35 68  1  0  0  0  0
 35 69  1  0  0  0  0
 36 37  2  0  0  0  0
 36 70  1  0  0  0  0
 38 39  2  0  0  0  0
 38 40  1  0  0  0  0
 40 41  1  0  0  0  0
 40 71  1  0  0  0  0
 41 72  1  0  0  0  0
 41 73  1  0  0  0  0
M  END
$$$$
