CHEMBL1993941
 OpenBabel04072215363D

 58 62  0  0  0  0  0  0  0  0999 V2000
    5.8041   -2.3609   -1.5205 C   0  0  0  0  0  0  0  0  0  0  0  0
    4.6722   -2.0928   -0.5384 C   0  0  0  0  0  0  0  0  0  0  0  0
    5.0583   -1.1254    0.5796 C   0  0  0  0  0  0  0  0  0  0  0  0
    5.4832    0.1805    0.1132 N   0  0  0  0  0  0  0  0  0  0  0  0
    6.7063    0.7485    0.3107 C   0  0  0  0  0  0  0  0  0  0  0  0
    6.6764    1.9805   -0.3041 C   0  0  0  0  0  0  0  0  0  0  0  0
    7.8052    2.8978   -0.3233 C   0  0  0  0  0  0  0  0  0  0  0  0
    9.1059    2.4180   -0.3020 C   0  0  0  0  0  0  0  0  0  0  0  0
   10.2040    3.1838   -0.2531 N   0  0  0  0  0  0  0  0  0  0  0  0
   10.0872    4.5235   -0.2363 C   0  0  0  0  0  0  0  0  0  0  0  0
   11.3099    5.1668   -0.1215 N   0  0  0  0  0  0  0  0  0  0  0  0
    8.8050    5.1483   -0.3193 C   0  0  0  0  0  0  0  0  0  0  0  0
    8.3943    6.5659   -0.3928 C   0  0  0  0  0  0  0  0  0  0  0  0
    9.2306    7.7707   -0.4437 C   0  0  0  0  0  0  0  0  0  0  0  0
   10.4356    7.7466   -1.1350 C   0  0  0  0  0  0  0  0  0  0  0  0
   11.3289    8.8062   -1.0461 C   0  0  0  0  0  0  0  0  0  0  0  0
   10.9741    9.9939   -0.4089 C   0  0  0  0  0  0  0  0  0  0  0  0
   11.8383   11.1097   -0.3860 N   0  0  0  0  0  0  0  0  0  0  0  0
   12.8793   11.2806   -1.2803 C   0  0  0  0  0  0  0  0  0  0  0  0
   13.1029   10.5563   -2.2445 O   0  0  0  0  0  0  0  0  0  0  0  0
   13.6726   12.3665   -0.9557 N   0  0  0  0  0  0  0  0  0  0  0  0
   14.7352   12.7492   -1.8055 C   0  0  0  0  0  0  0  0  0  0  0  0
   14.5898   12.7460   -3.2013 C   0  0  0  0  0  0  0  0  0  0  0  0
   15.6594   13.0865   -4.0298 C   0  0  0  0  0  0  0  0  0  0  0  0
   16.8836   13.4249   -3.4637 C   0  0  0  0  0  0  0  0  0  0  0  0
   17.0200   13.4280   -2.0781 C   0  0  0  0  0  0  0  0  0  0  0  0
   18.2102   13.7208   -1.5378 F   0  0  0  0  0  0  0  0  0  0  0  0
   15.9539   13.1136   -1.2407 C   0  0  0  0  0  0  0  0  0  0  0  0
    9.7285   10.0741    0.2129 C   0  0  0  0  0  0  0  0  0  0  0  0
    8.8695    8.9624    0.2090 C   0  0  0  0  0  0  0  0  0  0  0  0
    7.0242    6.7004   -0.4430 C   0  0  0  0  0  0  0  0  0  0  0  0
    6.2093    5.2261   -0.3456 S   0  0  0  0  0  0  0  0  0  0  0  0
    7.6739    4.3002   -0.3394 C   0  0  0  0  0  0  0  0  0  0  0  0
    5.3735    2.0480   -0.8522 C   0  0  0  0  0  0  0  0  0  0  0  0
    4.6404    0.9561   -0.5818 N   0  0  0  0  0  0  0  0  0  0  0  0
    5.4936   -3.1109   -2.2549 H   0  0  0  0  0  0  0  0  0  0  0  0
    6.6933   -2.7367   -1.0050 H   0  0  0  0  0  0  0  0  0  0  0  0
    6.0802   -1.4550   -2.0693 H   0  0  0  0  0  0  0  0  0  0  0  0
    4.3676   -3.0429   -0.0837 H   0  0  0  0  0  0  0  0  0  0  0  0
    3.8042   -1.7098   -1.0872 H   0  0  0  0  0  0  0  0  0  0  0  0
    5.8737   -1.5472    1.1781 H   0  0  0  0  0  0  0  0  0  0  0  0
    4.2085   -0.9578    1.2507 H   0  0  0  0  0  0  0  0  0  0  0  0
    7.4791    0.2312    0.8678 H   0  0  0  0  0  0  0  0  0  0  0  0
    9.3185    1.3535   -0.3182 H   0  0  0  0  0  0  0  0  0  0  0  0
   12.0385    4.4938    0.0893 H   0  0  0  0  0  0  0  0  0  0  0  0
   11.3032    6.0023    0.4451 H   0  0  0  0  0  0  0  0  0  0  0  0
   10.7323    6.8854   -1.7297 H   0  0  0  0  0  0  0  0  0  0  0  0
   12.3072    8.6575   -1.4925 H   0  0  0  0  0  0  0  0  0  0  0  0
   11.5208   11.9398    0.0934 H   0  0  0  0  0  0  0  0  0  0  0  0
   13.7987   12.5123    0.0358 H   0  0  0  0  0  0  0  0  0  0  0  0
   13.6439   12.4657   -3.6615 H   0  0  0  0  0  0  0  0  0  0  0  0
   15.5346   13.0674   -5.1093 H   0  0  0  0  0  0  0  0  0  0  0  0
   17.7321   13.6760   -4.0905 H   0  0  0  0  0  0  0  0  0  0  0  0
   16.1146   13.0963   -0.1693 H   0  0  0  0  0  0  0  0  0  0  0  0
    9.4016   10.9882    0.6998 H   0  0  0  0  0  0  0  0  0  0  0  0
    7.9145    9.0490    0.7229 H   0  0  0  0  0  0  0  0  0  0  0  0
    6.4439    7.6094   -0.5245 H   0  0  0  0  0  0  0  0  0  0  0  0
    4.9180    2.8331   -1.4386 H   0  0  0  0  0  0  0  0  0  0  0  0
  1  2  1  0  0  0  0
  1 36  1  0  0  0  0
  1 37  1  0  0  0  0
  1 38  1  0  0  0  0
  2  3  1  0  0  0  0
  2 39  1  0  0  0  0
  2 40  1  0  0  0  0
  3  4  1  0  0  0  0
  3 41  1  0  0  0  0
  3 42  1  0  0  0  0
  4  5  1  0  0  0  0
  4 35  1  0  0  0  0
  5  6  2  0  0  0  0
  5 43  1  0  0  0  0
  6  7  1  0  0  0  0
  6 34  1  0  0  0  0
  7  8  1  0  0  0  0
  7 33  2  0  0  0  0
  8  9  2  0  0  0  0
  8 44  1  0  0  0  0
  9 10  1  0  0  0  0
 10 11  1  0  0  0  0
 10 12  2  0  0  0  0
 11 45  1  0  0  0  0
 11 46  1  0  0  0  0
 12 13  1  0  0  0  0
 12 33  1  0  0  0  0
 13 14  1  0  0  0  0
 13 31  2  0  0  0  0
 14 15  1  0  0  0  0
 14 30  2  0  0  0  0
 15 16  2  0  0  0  0
 15 47  1  0  0  0  0
 16 17  1  0  0  0  0
 16 48  1  0  0  0  0
 17 18  1  0  0  0  0
 17 29  2  0  0  0  0
 18 19  1  0  0  0  0
 18 49  1  0  0  0  0
 19 20  2  0  0  0  0
 19 21  1  0  0  0  0
 21 22  1  0  0  0  0
 21 50  1  0  0  0  0
 22 23  1  0  0  0  0
 22 28  2  0  0  0  0
 23 24  2  0  0  0  0
 23 51  1  0  0  0  0
 24 25  1  0  0  0  0
 24 52  1  0  0  0  0
 25 26  2  0  0  0  0
 25 53  1  0  0  0  0
 26 27  1  0  0  0  0
 26 28  1  0  0  0  0
 28 54  1  0  0  0  0
 29 30  1  0  0  0  0
 29 55  1  0  0  0  0
 30 56  1  0  0  0  0
 31 32  1  0  0  0  0
 31 57  1  0  0  0  0
 32 33  1  0  0  0  0
 34 35  2  0  0  0  0
 34 58  1  0  0  0  0
M  END
$$$$
