CHEMBL265431
 OpenBabel04072215363D

 50 54  0  0  0  0  0  0  0  0999 V2000
    2.7936    2.1258    0.9727 C   0  0  0  0  0  0  0  0  0  0  0  0
    4.1733    2.7887    0.0092 S   0  0  0  0  0  0  0  0  0  0  0  0
    3.9224    1.9525   -1.4921 C   0  0  0  0  0  0  0  0  0  0  0  0
    2.9770    1.0609   -1.6983 N   0  0  0  0  0  0  0  0  0  0  0  0
    3.0835    0.6765   -3.0118 N   0  0  0  0  0  0  0  0  0  0  0  0
    4.0957    1.3422   -3.5331 C   0  0  0  0  0  0  0  0  0  0  0  0
    4.5434    1.2269   -4.9567 C   0  0  0  0  0  0  0  0  0  0  0  0
    5.6319    1.9115   -5.4347 C   0  0  0  0  0  0  0  0  0  0  0  0
    5.7706    1.6066   -6.7524 N   0  0  0  0  0  0  0  0  0  0  0  0
    6.7561    2.0959   -7.5161 N   0  0  0  0  0  0  0  0  0  0  0  0
    6.6879    1.7365   -8.7549 C   0  0  0  0  0  0  0  0  0  0  0  0
    5.7194    0.9579   -9.3118 N   0  0  0  0  0  0  0  0  0  0  0  0
    4.7651    0.4529   -8.5808 C   0  0  0  0  0  0  0  0  0  0  0  0
    3.8374   -0.3690   -9.1869 N   0  0  0  0  0  0  0  0  0  0  0  0
    3.5845   -0.3580  -10.5820 C   0  0  0  0  0  0  0  0  0  0  0  0
    3.5037    0.8286  -11.3248 C   0  0  0  0  0  0  0  0  0  0  0  0
    3.2854    0.9405  -12.6621 N   0  0  0  0  0  0  0  0  0  0  0  0
    3.1711   -0.2567  -13.2617 C   0  0  0  0  0  0  0  0  0  0  0  0
    3.0243   -0.4369  -14.6100 N   0  0  0  0  0  0  0  0  0  0  0  0
    3.0265   -1.7806  -14.9065 C   0  0  0  0  0  0  0  0  0  0  0  0
    3.0163   -2.2870  -16.2997 C   0  0  0  0  0  0  0  0  0  0  0  0
    3.0725   -2.4653  -13.7047 C   0  0  0  0  0  0  0  0  0  0  0  0
    3.2017   -1.5089  -12.6630 C   0  0  0  0  0  0  0  0  0  0  0  0
    3.3775   -1.5612  -11.2687 C   0  0  0  0  0  0  0  0  0  0  0  0
    4.7654    0.7660   -7.1646 C   0  0  0  0  0  0  0  0  0  0  0  0
    3.9610    0.4747   -6.0504 C   0  0  0  0  0  0  0  0  0  0  0  0
    2.6798   -0.3315   -5.8808 C   0  0  0  0  0  0  0  0  0  0  0  0
    1.4411    0.5477   -6.0708 C   0  0  0  0  0  0  0  0  0  0  0  0
    2.5430   -1.6331   -6.6556 C   0  0  0  0  0  0  0  0  0  0  0  0
    4.6850    2.1716   -2.6065 O   0  0  0  0  0  0  0  0  0  0  0  0
    2.7563    2.6273    1.9432 H   0  0  0  0  0  0  0  0  0  0  0  0
    2.9254    1.0532    1.1420 H   0  0  0  0  0  0  0  0  0  0  0  0
    1.8414    2.2975    0.4618 H   0  0  0  0  0  0  0  0  0  0  0  0
    6.3200    2.5954   -4.9581 H   0  0  0  0  0  0  0  0  0  0  0  0
    7.4784    2.0829   -9.4406 H   0  0  0  0  0  0  0  0  0  0  0  0
    3.8813   -1.3133   -8.8257 H   0  0  0  0  0  0  0  0  0  0  0  0
    3.6191    1.7894  -10.8272 H   0  0  0  0  0  0  0  0  0  0  0  0
    2.9853    0.3259  -15.2697 H   0  0  0  0  0  0  0  0  0  0  0  0
    2.9374   -1.4736  -17.0277 H   0  0  0  0  0  0  0  0  0  0  0  0
    2.1773   -2.9716  -16.4555 H   0  0  0  0  0  0  0  0  0  0  0  0
    3.9453   -2.8310  -16.5025 H   0  0  0  0  0  0  0  0  0  0  0  0
    3.0792   -3.5417  -13.5953 H   0  0  0  0  0  0  0  0  0  0  0  0
    3.4110   -2.5208  -10.7664 H   0  0  0  0  0  0  0  0  0  0  0  0
    2.6646   -0.6761   -4.8413 H   0  0  0  0  0  0  0  0  0  0  0  0
    1.4047    0.9764   -7.0773 H   0  0  0  0  0  0  0  0  0  0  0  0
    1.4343    1.3776   -5.3548 H   0  0  0  0  0  0  0  0  0  0  0  0
    0.5241   -0.0297   -5.9095 H   0  0  0  0  0  0  0  0  0  0  0  0
    2.2485   -1.4697   -7.6916 H   0  0  0  0  0  0  0  0  0  0  0  0
    1.7360   -2.2368   -6.2205 H   0  0  0  0  0  0  0  0  0  0  0  0
    3.4588   -2.2303   -6.6139 H   0  0  0  0  0  0  0  0  0  0  0  0
  1  2  1  0  0  0  0
  1 31  1  0  0  0  0
  1 32  1  0  0  0  0
  1 33  1  0  0  0  0
  2  3  1  0  0  0  0
  3  4  2  0  0  0  0
  3 30  1  0  0  0  0
  4  5  1  0  0  0  0
  5  6  2  0  0  0  0
  6  7  1  0  0  0  0
  6 30  1  0  0  0  0
  7  8  2  0  0  0  0
  7 26  1  0  0  0  0
  8  9  1  0  0  0  0
  8 34  1  0  0  0  0
  9 10  1  0  0  0  0
  9 25  1  0  0  0  0
 10 11  2  0  0  0  0
 11 12  1  0  0  0  0
 11 35  1  0  0  0  0
 12 13  2  0  0  0  0
 13 14  1  0  0  0  0
 13 25  1  0  0  0  0
 14 15  1  0  0  0  0
 14 36  1  0  0  0  0
 15 16  1  0  0  0  0
 15 24  2  0  0  0  0
 16 17  2  0  0  0  0
 16 37  1  0  0  0  0
 17 18  1  0  0  0  0
 18 19  1  0  0  0  0
 18 23  2  0  0  0  0
 19 20  1  0  0  0  0
 19 38  1  0  0  0  0
 20 21  1  0  0  0  0
 20 22  2  0  0  0  0
 21 39  1  0  0  0  0
 21 40  1  0  0  0  0
 21 41  1  0  0  0  0
 22 23  1  0  0  0  0
 22 42  1  0  0  0  0
 23 24  1  0  0  0  0
 24 43  1  0  0  0  0
 25 26  2  0  0  0  0
 26 27  1  0  0  0  0
 27 28  1  0  0  0  0
 27 29  1  0  0  0  0
 27 44  1  0  0  0  0
 28 45  1  0  0  0  0
 28 46  1  0  0  0  0
 28 47  1  0  0  0  0
 29 48  1  0  0  0  0
 29 49  1  0  0  0  0
 29 50  1  0  0  0  0
M  END
$$$$
