CHEMBL4788980
 OpenBabel04072215383D

 59 61  0  0  0  0  0  0  0  0999 V2000
    2.5968    2.0171   -2.0558 C   0  0  0  0  0  0  0  0  0  0  0  0
    4.1070    2.1951   -2.1083 C   0  0  0  0  0  0  0  0  0  0  0  0
    4.7381    2.0627   -3.4334 N   0  0  0  0  0  0  0  0  0  0  0  0
    4.1870    2.9862   -4.4434 C   0  0  0  0  0  0  0  0  0  0  0  0
    4.4042    4.4781   -4.1952 C   0  0  0  0  0  0  0  0  0  0  0  0
    6.2063    2.2035   -3.3128 C   0  0  0  0  0  0  0  0  0  0  0  0
    6.8807    1.1552   -2.4071 C   0  0  0  0  0  0  0  0  0  0  0  0
    6.6617   -0.2847   -2.8612 C   0  0  0  0  0  0  0  0  0  0  0  0
    7.2202   -0.5454   -4.1647 N   0  0  0  0  0  0  0  0  0  0  0  0
    8.5334   -0.9084   -4.3332 C   0  0  0  0  0  0  0  0  0  0  0  0
    9.2960   -1.0722   -3.3847 O   0  0  0  0  0  0  0  0  0  0  0  0
    8.9448   -1.1425   -5.7199 C   0  0  0  0  0  0  0  0  0  0  0  0
    8.4775   -0.5345   -6.8790 C   0  0  0  0  0  0  0  0  0  0  0  0
    7.4978    0.5489   -7.1481 C   0  0  0  0  0  0  0  0  0  0  0  0
    9.1620   -1.0864   -7.9405 N   0  0  0  0  0  0  0  0  0  0  0  0
   10.0801   -2.0051   -7.5086 C   0  0  0  0  0  0  0  0  0  0  0  0
   10.9315   -2.7080   -8.3974 C   0  0  0  0  0  0  0  0  0  0  0  0
   11.0355   -2.6338   -9.7338 C   0  0  0  0  0  0  0  0  0  0  0  0
   10.3046   -1.8019  -10.7671 C   0  0  0  0  0  0  0  0  0  0  0  0
    9.4352   -0.9798  -10.5842 O   0  0  0  0  0  0  0  0  0  0  0  0
   10.8511   -2.1860  -11.9864 N   0  0  0  0  0  0  0  0  0  0  0  0
   11.8327   -3.1571  -11.8265 C   0  0  0  0  0  0  0  0  0  0  0  0
   12.5762   -3.7675  -12.8176 C   0  0  0  0  0  0  0  0  0  0  0  0
   13.5125   -4.7268  -12.4176 C   0  0  0  0  0  0  0  0  0  0  0  0
   13.6729   -5.0399  -11.0617 C   0  0  0  0  0  0  0  0  0  0  0  0
   14.5743   -5.9637  -10.7046 F   0  0  0  0  0  0  0  0  0  0  0  0
   12.9181   -4.4187  -10.0729 C   0  0  0  0  0  0  0  0  0  0  0  0
   11.9928   -3.4708  -10.4744 C   0  0  0  0  0  0  0  0  0  0  0  0
    9.9773   -2.0618   -6.1246 C   0  0  0  0  0  0  0  0  0  0  0  0
   10.7739   -2.9190   -5.1907 C   0  0  0  0  0  0  0  0  0  0  0  0
    2.2972    1.8499   -1.0144 H   0  0  0  0  0  0  0  0  0  0  0  0
    2.2709    1.1478   -2.6350 H   0  0  0  0  0  0  0  0  0  0  0  0
    2.0715    2.9072   -2.4114 H   0  0  0  0  0  0  0  0  0  0  0  0
    4.4960    1.4084   -1.4566 H   0  0  0  0  0  0  0  0  0  0  0  0
    4.3768    3.1498   -1.6442 H   0  0  0  0  0  0  0  0  0  0  0  0
    3.1105    2.8090   -4.5460 H   0  0  0  0  0  0  0  0  0  0  0  0
    4.6007    2.7312   -5.4307 H   0  0  0  0  0  0  0  0  0  0  0  0
    4.2246    4.7507   -3.1521 H   0  0  0  0  0  0  0  0  0  0  0  0
    3.7061    5.0609   -4.8045 H   0  0  0  0  0  0  0  0  0  0  0  0
    5.4198    4.7868   -4.4626 H   0  0  0  0  0  0  0  0  0  0  0  0
    6.4559    3.1964   -2.9196 H   0  0  0  0  0  0  0  0  0  0  0  0
    6.6639    2.1425   -4.3072 H   0  0  0  0  0  0  0  0  0  0  0  0
    6.5242    1.2523   -1.3753 H   0  0  0  0  0  0  0  0  0  0  0  0
    7.9537    1.3757   -2.3571 H   0  0  0  0  0  0  0  0  0  0  0  0
    5.5983   -0.5374   -2.9027 H   0  0  0  0  0  0  0  0  0  0  0  0
    7.1329   -0.9634   -2.1416 H   0  0  0  0  0  0  0  0  0  0  0  0
    6.6050   -0.5290   -4.9643 H   0  0  0  0  0  0  0  0  0  0  0  0
    7.0660    0.9692   -6.2406 H   0  0  0  0  0  0  0  0  0  0  0  0
    6.6778    0.1749   -7.7696 H   0  0  0  0  0  0  0  0  0  0  0  0
    7.9837    1.3764   -7.6745 H   0  0  0  0  0  0  0  0  0  0  0  0
    9.0183   -0.8134   -8.9082 H   0  0  0  0  0  0  0  0  0  0  0  0
   11.5992   -3.4036   -7.8959 H   0  0  0  0  0  0  0  0  0  0  0  0
   10.5480   -1.7893  -12.8626 H   0  0  0  0  0  0  0  0  0  0  0  0
   12.4462   -3.5219  -13.8651 H   0  0  0  0  0  0  0  0  0  0  0  0
   14.1250   -5.2417  -13.1513 H   0  0  0  0  0  0  0  0  0  0  0  0
   13.0686   -4.6882   -9.0352 H   0  0  0  0  0  0  0  0  0  0  0  0
   11.4937   -3.5538   -5.7140 H   0  0  0  0  0  0  0  0  0  0  0  0
   10.1100   -3.5772   -4.6204 H   0  0  0  0  0  0  0  0  0  0  0  0
   11.3404   -2.2976   -4.4898 H   0  0  0  0  0  0  0  0  0  0  0  0
  1  2  1  0  0  0  0
  1 31  1  0  0  0  0
  1 32  1  0  0  0  0
  1 33  1  0  0  0  0
  2  3  1  0  0  0  0
  2 34  1  0  0  0  0
  2 35  1  0  0  0  0
  3  4  1  0  0  0  0
  3  6  1  0  0  0  0
  4  5  1  0  0  0  0
  4 36  1  0  0  0  0
  4 37  1  0  0  0  0
  5 38  1  0  0  0  0
  5 39  1  0  0  0  0
  5 40  1  0  0  0  0
  6  7  1  0  0  0  0
  6 41  1  0  0  0  0
  6 42  1  0  0  0  0
  7  8  1  0  0  0  0
  7 43  1  0  0  0  0
  7 44  1  0  0  0  0
  8  9  1  0  0  0  0
  8 45  1  0  0  0  0
  8 46  1  0  0  0  0
  9 10  1  0  0  0  0
  9 47  1  0  0  0  0
 10 11  2  0  0  0  0
 10 12  1  0  0  0  0
 12 13  2  0  0  0  0
 12 29  1  0  0  0  0
 13 14  1  0  0  0  0
 13 15  1  0  0  0  0
 14 48  1  0  0  0  0
 14 49  1  0  0  0  0
 14 50  1  0  0  0  0
 15 16  1  0  0  0  0
 15 51  1  0  0  0  0
 16 17  1  0  0  0  0
 16 29  2  0  0  0  0
 17 18  2  0  0  0  0
 17 52  1  0  0  0  0
 18 19  1  0  0  0  0
 18 28  1  0  0  0  0
 19 20  2  0  0  0  0
 19 21  1  0  0  0  0
 21 22  1  0  0  0  0
 21 53  1  0  0  0  0
 22 23  1  0  0  0  0
 22 28  2  0  0  0  0
 23 24  2  0  0  0  0
 23 54  1  0  0  0  0
 24 25  1  0  0  0  0
 24 55  1  0  0  0  0
 25 26  1  0  0  0  0
 25 27  2  0  0  0  0
 27 28  1  0  0  0  0
 27 56  1  0  0  0  0
 29 30  1  0  0  0  0
 30 57  1  0  0  0  0
 30 58  1  0  0  0  0
 30 59  1  0  0  0  0
M  END
$$$$
