CHEMBL3978101
 OpenBabel04072215373D

 56 59  0  0  0  0  0  0  0  0999 V2000
    2.5539    0.0185   -0.1449 C   0  0  0  0  0  0  0  0  0  0  0  0
    1.0512    0.0219   -0.1093 C   0  0  0  0  0  0  0  0  0  0  0  0
    0.4138    1.2727   -0.1306 C   0  0  0  0  0  0  0  0  0  0  0  0
   -0.9781    1.4112   -0.0679 C   0  0  0  0  0  0  0  0  0  0  0  0
   -1.6120    2.6743    0.0307 N   0  0  0  0  0  0  0  0  0  0  0  0
   -0.9693    3.8736    0.2812 C   0  0  0  0  0  0  0  0  0  0  0  0
    0.2415    4.0090    0.4179 O   0  0  0  0  0  0  0  0  0  0  0  0
   -1.8531    4.9356    0.4260 N   0  0  0  0  0  0  0  0  0  0  0  0
   -1.3508    6.2326    0.6929 C   0  0  0  0  0  0  0  0  0  0  0  0
   -1.9325    6.9826    1.7139 C   0  0  0  0  0  0  0  0  0  0  0  0
   -1.4054    8.2337    2.0378 C   0  0  0  0  0  0  0  0  0  0  0  0
   -0.3183    8.7565    1.3273 C   0  0  0  0  0  0  0  0  0  0  0  0
    0.2815    8.0067    0.3189 C   0  0  0  0  0  0  0  0  0  0  0  0
    1.3592    8.3702   -0.4285 O   0  0  0  0  0  0  0  0  0  0  0  0
    2.3143    9.2811    0.0947 C   0  0  0  0  0  0  0  0  0  0  0  0
    2.2324    9.4657    1.4277 F   0  0  0  0  0  0  0  0  0  0  0  0
    3.5521    8.8093   -0.1797 F   0  0  0  0  0  0  0  0  0  0  0  0
    2.1794   10.4765   -0.5211 F   0  0  0  0  0  0  0  0  0  0  0  0
   -0.2589    6.7590   -0.0109 C   0  0  0  0  0  0  0  0  0  0  0  0
   -1.7519    0.2539   -0.0757 C   0  0  0  0  0  0  0  0  0  0  0  0
   -1.1338   -1.0047   -0.0661 C   0  0  0  0  0  0  0  0  0  0  0  0
    0.2657   -1.1303   -0.0015 C   0  0  0  0  0  0  0  0  0  0  0  0
    0.8850   -2.3643    0.1293 O   0  0  0  0  0  0  0  0  0  0  0  0
    0.2996   -3.3127    0.9568 C   0  0  0  0  0  0  0  0  0  0  0  0
   -0.3686   -2.9763    2.1305 C   0  0  0  0  0  0  0  0  0  0  0  0
   -0.9773   -3.9894    2.8354 C   0  0  0  0  0  0  0  0  0  0  0  0
   -0.9033   -5.2819    2.4788 N   0  0  0  0  0  0  0  0  0  0  0  0
   -0.1897   -5.6256    1.3967 C   0  0  0  0  0  0  0  0  0  0  0  0
   -0.0766   -6.9909    1.0623 N   0  0  0  0  0  0  0  0  0  0  0  0
   -0.6593   -8.0081    1.8050 C   0  0  0  0  0  0  0  0  0  0  0  0
   -1.3408   -7.8998    2.8138 O   0  0  0  0  0  0  0  0  0  0  0  0
   -0.3780   -9.3916    1.2926 C   0  0  0  0  0  0  0  0  0  0  0  0
   -1.1861  -10.5608    1.8278 C   0  0  0  0  0  0  0  0  0  0  0  0
    0.2529  -10.4089    2.2205 C   0  0  0  0  0  0  0  0  0  0  0  0
    0.4244   -4.6628    0.5976 C   0  0  0  0  0  0  0  0  0  0  0  0
    2.9384    0.9956   -0.4698 H   0  0  0  0  0  0  0  0  0  0  0  0
    2.9305   -0.7153   -0.8618 H   0  0  0  0  0  0  0  0  0  0  0  0
    2.9624   -0.1766    0.8505 H   0  0  0  0  0  0  0  0  0  0  0  0
    1.0509    2.1466   -0.2151 H   0  0  0  0  0  0  0  0  0  0  0  0
   -2.6233    2.6846   -0.0162 H   0  0  0  0  0  0  0  0  0  0  0  0
   -2.7345    4.6993    0.8553 H   0  0  0  0  0  0  0  0  0  0  0  0
   -2.7483    6.5806    2.3060 H   0  0  0  0  0  0  0  0  0  0  0  0
   -1.8293    8.7989    2.8641 H   0  0  0  0  0  0  0  0  0  0  0  0
    0.0362    9.7469    1.5956 H   0  0  0  0  0  0  0  0  0  0  0  0
    0.2002    6.1827   -0.8139 H   0  0  0  0  0  0  0  0  0  0  0  0
   -2.8364    0.3030   -0.0490 H   0  0  0  0  0  0  0  0  0  0  0  0
   -1.7622   -1.8907   -0.0643 H   0  0  0  0  0  0  0  0  0  0  0  0
   -0.4514   -1.9552    2.4821 H   0  0  0  0  0  0  0  0  0  0  0  0
   -1.5651   -3.7925    3.7262 H   0  0  0  0  0  0  0  0  0  0  0  0
    0.4789   -7.2332    0.2583 H   0  0  0  0  0  0  0  0  0  0  0  0
   -0.1077   -9.4550    0.2438 H   0  0  0  0  0  0  0  0  0  0  0  0
   -1.4488  -11.3669    1.1526 H   0  0  0  0  0  0  0  0  0  0  0  0
   -1.9374  -10.3694    2.5894 H   0  0  0  0  0  0  0  0  0  0  0  0
    0.9610  -11.1196    1.8124 H   0  0  0  0  0  0  0  0  0  0  0  0
    0.4611  -10.1123    3.2444 H   0  0  0  0  0  0  0  0  0  0  0  0
    0.9932   -4.9349   -0.2824 H   0  0  0  0  0  0  0  0  0  0  0  0
  1  2  1  0  0  0  0
  1 36  1  0  0  0  0
  1 37  1  0  0  0  0
  1 38  1  0  0  0  0
  2  3  1  0  0  0  0
  2 22  2  0  0  0  0
  3  4  2  0  0  0  0
  3 39  1  0  0  0  0
  4  5  1  0  0  0  0
  4 20  1  0  0  0  0
  5  6  1  0  0  0  0
  5 40  1  0  0  0  0
  6  7  2  0  0  0  0
  6  8  1  0  0  0  0
  8  9  1  0  0  0  0
  8 41  1  0  0  0  0
  9 10  1  0  0  0  0
  9 19  2  0  0  0  0
 10 11  2  0  0  0  0
 10 42  1  0  0  0  0
 11 12  1  0  0  0  0
 11 43  1  0  0  0  0
 12 13  2  0  0  0  0
 12 44  1  0  0  0  0
 13 14  1  0  0  0  0
 13 19  1  0  0  0  0
 14 15  1  0  0  0  0
 15 16  1  0  0  0  0
 15 17  1  0  0  0  0
 15 18  1  0  0  0  0
 19 45  1  0  0  0  0
 20 21  2  0  0  0  0
 20 46  1  0  0  0  0
 21 22  1  0  0  0  0
 21 47  1  0  0  0  0
 22 23  1  0  0  0  0
 23 24  1  0  0  0  0
 24 25  1  0  0  0  0
 24 35  2  0  0  0  0
 25 26  2  0  0  0  0
 25 48  1  0  0  0  0
 26 27  1  0  0  0  0
 26 49  1  0  0  0  0
 27 28  2  0  0  0  0
 28 29  1  0  0  0  0
 28 35  1  0  0  0  0
 29 30  1  0  0  0  0
 29 50  1  0  0  0  0
 30 31  2  0  0  0  0
 30 32  1  0  0  0  0
 32 33  1  0  0  0  0
 32 34  1  0  0  0  0
 32 51  1  0  0  0  0
 33 34  1  0  0  0  0
 33 52  1  0  0  0  0
 33 53  1  0  0  0  0
 34 54  1  0  0  0  0
 34 55  1  0  0  0  0
 35 56  1  0  0  0  0
M  END
$$$$
