CHEMBL4277848
 OpenBabel04072215383D

 80 85  0  0  1  0  0  0  0  0999 V2000
    0.9601   -0.1376    0.0150 C   0  0  0  0  0  0  0  0  0  0  0  0
    2.4471   -0.0324   -0.0122 C   0  0  0  0  0  0  0  0  0  0  0  0
    3.2807    1.1394   -0.0063 C   0  0  0  0  0  0  0  0  0  0  0  0
    2.8858    2.4417    0.0222 O   0  0  0  0  0  0  0  0  0  0  0  0
    4.0097    3.3537    0.0068 C   0  0  0  0  0  0  0  0  0  0  0  0
    3.5676    4.8183    0.0763 C   0  0  3  0  0  0  0  0  0  0  0  0
    2.7969    5.1196   -1.0925 O   0  0  0  0  0  0  0  0  0  0  0  0
    2.7756    5.0633    1.3765 C   0  0  0  0  0  0  0  0  0  0  0  0
    2.3125    6.4226    1.6759 N   0  0  0  0  0  0  0  0  0  0  0  0
    1.4017    6.9689    0.6691 C   0  0  0  0  0  0  0  0  0  0  0  0
    0.6783    8.1791    1.2543 C   0  0  0  0  0  0  0  0  0  0  0  0
    1.6543    9.2232    1.7976 C   0  0  3  0  0  0  0  0  0  0  0  0
    2.2303    9.9696    0.7247 O   0  0  0  0  0  0  0  0  0  0  0  0
    2.7588    8.5998    2.6524 C   0  0  0  0  0  0  0  0  0  0  0  0
    3.3820    7.3700    1.9875 C   0  0  0  0  0  0  0  0  0  0  0  0
    4.5884    0.7184   -0.0352 C   0  0  0  0  0  0  0  0  0  0  0  0
    4.6052   -0.6337   -0.0934 N   0  0  0  0  0  0  0  0  0  0  0  0
    5.7185   -1.3773   -0.1542 N   0  0  0  0  0  0  0  0  0  0  0  0
    5.5027   -2.6503   -0.2213 C   0  0  0  0  0  0  0  0  0  0  0  0
    4.2831   -3.2679   -0.2081 N   0  0  0  0  0  0  0  0  0  0  0  0
    3.2392   -2.5186   -0.0782 C   0  0  0  0  0  0  0  0  0  0  0  0
    1.9632   -2.9963    0.1614 O   0  0  0  0  0  0  0  0  0  0  0  0
    1.9524   -4.2188    0.8484 C   0  0  0  0  0  0  0  0  0  0  0  0
    2.8536   -4.4691    1.8874 C   0  0  0  0  0  0  0  0  0  0  0  0
    2.8434   -5.6941    2.5318 C   0  0  0  0  0  0  0  0  0  0  0  0
    1.8726   -6.6431    2.2186 C   0  0  0  0  0  0  0  0  0  0  0  0
    1.7480   -7.8311    2.9517 N   0  0  0  0  0  0  0  0  0  0  0  0
    2.2523   -8.0288    4.2241 C   0  0  0  0  0  0  0  0  0  0  0  0
    2.8816   -7.2406    4.9135 O   0  0  0  0  0  0  0  0  0  0  0  0
    1.9638   -9.3776    4.7874 C   0  0  0  0  0  0  0  0  0  0  0  0
    3.0657  -10.3407    4.5309 C   0  0  0  0  0  0  0  0  0  0  0  0
    3.0573  -10.9133    3.4294 O   0  0  0  0  0  0  0  0  0  0  0  0
    4.0425  -10.4904    5.4932 N   0  0  0  0  0  0  0  0  0  0  0  0
    5.2550  -11.1421    5.1829 C   0  0  0  0  0  0  0  0  0  0  0  0
    5.8965  -10.9037    3.9573 C   0  0  0  0  0  0  0  0  0  0  0  0
    6.9991  -11.6654    3.5767 C   0  0  0  0  0  0  0  0  0  0  0  0
    7.4588  -12.6573    4.4286 C   0  0  0  0  0  0  0  0  0  0  0  0
    8.4667  -13.4467    4.0361 F   0  0  0  0  0  0  0  0  0  0  0  0
    6.8792  -12.8501    5.6813 C   0  0  0  0  0  0  0  0  0  0  0  0
    5.7907  -12.0666    6.0763 C   0  0  0  0  0  0  0  0  0  0  0  0
    0.5405   -9.9375    4.6955 C   0  0  0  0  0  0  0  0  0  0  0  0
    1.0594   -9.4397    6.0062 C   0  0  0  0  0  0  0  0  0  0  0  0
    0.9670   -6.3962    1.1807 C   0  0  0  0  0  0  0  0  0  0  0  0
    0.9988   -5.1728    0.5144 C   0  0  0  0  0  0  0  0  0  0  0  0
    0.0819   -4.9162   -0.4283 F   0  0  0  0  0  0  0  0  0  0  0  0
    3.3317   -1.1049   -0.0641 C   0  0  0  0  0  0  0  0  0  0  0  0
    0.4674    0.8378    0.0036 H   0  0  0  0  0  0  0  0  0  0  0  0
    0.6286   -0.6742    0.9127 H   0  0  0  0  0  0  0  0  0  0  0  0
    0.6057   -0.7044   -0.8552 H   0  0  0  0  0  0  0  0  0  0  0  0
    4.5693    3.2141   -0.9264 H   0  0  0  0  0  0  0  0  0  0  0  0
    4.6552    3.1577    0.8737 H   0  0  0  0  0  0  0  0  0  0  0  0
    4.4598    5.4533    0.0532 H   0  0  0  0  0  0  0  0  0  0  0  0
    2.0451    4.4990   -1.0915 H   0  0  0  0  0  0  0  0  0  0  0  0
    3.3852    4.7223    2.2252 H   0  0  0  0  0  0  0  0  0  0  0  0
    1.8888    4.4185    1.3792 H   0  0  0  0  0  0  0  0  0  0  0  0
    0.6498    6.2228    0.3860 H   0  0  0  0  0  0  0  0  0  0  0  0
    1.9337    7.2630   -0.2435 H   0  0  0  0  0  0  0  0  0  0  0  0
    0.0251    7.8372    2.0672 H   0  0  0  0  0  0  0  0  0  0  0  0
    0.0403    8.6201    0.4800 H   0  0  0  0  0  0  0  0  0  0  0  0
    1.0977    9.9456    2.4040 H   0  0  0  0  0  0  0  0  0  0  0  0
    2.7027    9.3537    0.1402 H   0  0  0  0  0  0  0  0  0  0  0  0
    2.3335    8.2971    3.6184 H   0  0  0  0  0  0  0  0  0  0  0  0
    3.5437    9.3372    2.8559 H   0  0  0  0  0  0  0  0  0  0  0  0
    4.0992    6.9296    2.6905 H   0  0  0  0  0  0  0  0  0  0  0  0
    3.9459    7.6574    1.0909 H   0  0  0  0  0  0  0  0  0  0  0  0
    5.5290    1.2488   -0.0368 H   0  0  0  0  0  0  0  0  0  0  0  0
    6.3799   -3.3175   -0.2550 H   0  0  0  0  0  0  0  0  0  0  0  0
    3.5943   -3.7372    2.1962 H   0  0  0  0  0  0  0  0  0  0  0  0
    3.6163   -5.8808    3.2714 H   0  0  0  0  0  0  0  0  0  0  0  0
    1.1501   -8.5533    2.5690 H   0  0  0  0  0  0  0  0  0  0  0  0
    3.7687  -10.3836    6.4600 H   0  0  0  0  0  0  0  0  0  0  0  0
    5.5367  -10.1284    3.2836 H   0  0  0  0  0  0  0  0  0  0  0  0
    7.4753  -11.5078    2.6133 H   0  0  0  0  0  0  0  0  0  0  0  0
    7.2621  -13.6366    6.3253 H   0  0  0  0  0  0  0  0  0  0  0  0
    5.3236  -12.2538    7.0393 H   0  0  0  0  0  0  0  0  0  0  0  0
    0.4210  -11.0098    4.5704 H   0  0  0  0  0  0  0  0  0  0  0  0
   -0.2224   -9.3572    4.1914 H   0  0  0  0  0  0  0  0  0  0  0  0
    1.2511  -10.1639    6.7848 H   0  0  0  0  0  0  0  0  0  0  0  0
    0.6401   -8.5043    6.3699 H   0  0  0  0  0  0  0  0  0  0  0  0
    0.2030   -7.1169    0.9089 H   0  0  0  0  0  0  0  0  0  0  0  0
  1  2  1  0  0  0  0
  1 47  1  0  0  0  0
  1 48  1  0  0  0  0
  1 49  1  0  0  0  0
  2  3  1  0  0  0  0
  2 46  2  0  0  0  0
  3  4  1  0  0  0  0
  3 16  2  0  0  0  0
  4  5  1  0  0  0  0
  5  6  1  0  0  0  0
  5 50  1  0  0  0  0
  5 51  1  0  0  0  0
  6  7  1  0  0  0  0
  6  8  1  0  0  0  0
  6 52  1  0  0  0  0
  7 53  1  0  0  0  0
  8  9  1  0  0  0  0
  8 54  1  0  0  0  0
  8 55  1  0  0  0  0
  9 10  1  0  0  0  0
  9 15  1  0  0  0  0
 10 11  1  0  0  0  0
 10 56  1  0  0  0  0
 10 57  1  0  0  0  0
 11 12  1  0  0  0  0
 11 58  1  0  0  0  0
 11 59  1  0  0  0  0
 12 13  1  0  0  0  0
 12 14  1  0  0  0  0
 12 60  1  0  0  0  0
 13 61  1  0  0  0  0
 14 15  1  0  0  0  0
 14 62  1  0  0  0  0
 14 63  1  0  0  0  0
 15 64  1  0  0  0  0
 15 65  1  0  0  0  0
 16 17  1  0  0  0  0
 16 66  1  0  0  0  0
 17 18  1  0  0  0  0
 17 46  1  0  0  0  0
 18 19  2  0  0  0  0
 19 20  1  0  0  0  0
 19 67  1  0  0  0  0
 20 21  2  0  0  0  0
 21 22  1  0  0  0  0
 21 46  1  0  0  0  0
 22 23  1  0  0  0  0
 23 24  1  0  0  0  0
 23 44  2  0  0  0  0
 24 25  2  0  0  0  0
 24 68  1  0  0  0  0
 25 26  1  0  0  0  0
 25 69  1  0  0  0  0
 26 27  1  0  0  0  0
 26 43  2  0  0  0  0
 27 28  1  0  0  0  0
 27 70  1  0  0  0  0
 28 29  2  0  0  0  0
 28 30  1  0  0  0  0
 30 31  1  0  0  0  0
 30 41  1  0  0  0  0
 30 42  1  0  0  0  0
 31 32  2  0  0  0  0
 31 33  1  0  0  0  0
 33 34  1  0  0  0  0
 33 71  1  0  0  0  0
 34 35  1  0  0  0  0
 34 40  2  0  0  0  0
 35 36  2  0  0  0  0
 35 72  1  0  0  0  0
 36 37  1  0  0  0  0
 36 73  1  0  0  0  0
 37 38  1  0  0  0  0
 37 39  2  0  0  0  0
 39 40  1  0  0  0  0
 39 74  1  0  0  0  0
 40 75  1  0  0  0  0
 41 42  1  0  0  0  0
 41 76  1  0  0  0  0
 41 77  1  0  0  0  0
 42 78  1  0  0  0  0
 42 79  1  0  0  0  0
 43 44  1  0  0  0  0
 43 80  1  0  0  0  0
 44 45  1  0  0  0  0
M  END
$$$$
