CHEMBL3982995
 OpenBabel04072215373D

 52 56  0  0  0  0  0  0  0  0999 V2000
    2.3461   -0.4054    1.6348 C   0  0  0  0  0  0  0  0  0  0  0  0
    0.8484   -0.3129    1.5747 C   0  0  0  0  0  0  0  0  0  0  0  0
    0.2294    0.8780    1.9683 C   0  0  0  0  0  0  0  0  0  0  0  0
   -1.1504    0.9948    1.9188 C   0  0  0  0  0  0  0  0  0  0  0  0
   -1.9253   -0.0799    1.4773 C   0  0  0  0  0  0  0  0  0  0  0  0
   -1.3452   -1.2877    1.0737 C   0  0  0  0  0  0  0  0  0  0  0  0
   -2.1254   -2.3975    0.6294 N   0  0  0  0  0  0  0  0  0  0  0  0
   -3.5020   -2.4086    0.4794 C   0  0  0  0  0  0  0  0  0  0  0  0
   -4.2368   -1.4376    0.6665 O   0  0  0  0  0  0  0  0  0  0  0  0
   -4.0106   -3.6515    0.1257 N   0  0  0  0  0  0  0  0  0  0  0  0
   -5.4166   -3.8002   -0.0649 C   0  0  0  0  0  0  0  0  0  0  0  0
   -6.1321   -2.9082   -0.8682 C   0  0  0  0  0  0  0  0  0  0  0  0
   -7.5133   -3.0218   -0.9864 C   0  0  0  0  0  0  0  0  0  0  0  0
   -8.1828   -4.0394   -0.3084 C   0  0  0  0  0  0  0  0  0  0  0  0
   -7.4963   -4.9760    0.4826 C   0  0  0  0  0  0  0  0  0  0  0  0
   -8.2061   -5.9526    1.1603 N   0  0  0  0  0  0  0  0  0  0  0  0
   -7.7663   -6.4694    2.4583 C   0  0  0  0  0  0  0  0  0  0  0  0
   -8.9768   -6.4987    3.4043 C   0  0  0  0  0  0  0  0  0  0  0  0
  -10.1935   -7.0745    2.7317 C   0  0  0  0  0  0  0  0  0  0  0  0
  -10.2499   -7.2165    1.3921 C   0  0  0  0  0  0  0  0  0  0  0  0
  -11.5094   -7.8104    0.8633 C   0  0  0  0  0  0  0  0  0  0  0  0
  -12.5396   -8.1765    1.5651 N   0  0  0  0  0  0  0  0  0  0  0  0
  -12.4375   -7.9822    2.9161 C   0  0  0  0  0  0  0  0  0  0  0  0
  -13.3231   -8.2168    3.9422 C   0  0  0  0  0  0  0  0  0  0  0  0
  -12.6528   -7.8097    5.1035 C   0  0  0  0  0  0  0  0  0  0  0  0
  -11.4224   -7.3604    4.8617 N   0  0  0  0  0  0  0  0  0  0  0  0
  -11.2876   -7.4484    3.5123 N   0  0  0  0  0  0  0  0  0  0  0  0
   -9.1823   -6.7813    0.4377 C   0  0  0  0  0  0  0  0  0  0  0  0
   -6.1000   -4.8351    0.5898 C   0  0  0  0  0  0  0  0  0  0  0  0
    0.0554   -1.3937    1.1264 C   0  0  0  0  0  0  0  0  0  0  0  0
    2.7836    0.5201    2.0295 H   0  0  0  0  0  0  0  0  0  0  0  0
    2.7610   -0.5620    0.6348 H   0  0  0  0  0  0  0  0  0  0  0  0
    2.6544   -1.2192    2.2976 H   0  0  0  0  0  0  0  0  0  0  0  0
    0.8156    1.7245    2.3188 H   0  0  0  0  0  0  0  0  0  0  0  0
   -1.6375    1.9158    2.2191 H   0  0  0  0  0  0  0  0  0  0  0  0
   -2.9948    0.0833    1.4680 H   0  0  0  0  0  0  0  0  0  0  0  0
   -1.6188   -3.2131    0.3090 H   0  0  0  0  0  0  0  0  0  0  0  0
   -3.5339   -4.4380    0.5389 H   0  0  0  0  0  0  0  0  0  0  0  0
   -5.6226   -2.1048   -1.3948 H   0  0  0  0  0  0  0  0  0  0  0  0
   -8.0722   -2.3049   -1.5815 H   0  0  0  0  0  0  0  0  0  0  0  0
   -9.2692   -4.0589   -0.3622 H   0  0  0  0  0  0  0  0  0  0  0  0
   -6.9882   -5.8547    2.9235 H   0  0  0  0  0  0  0  0  0  0  0  0
   -7.3566   -7.4798    2.3298 H   0  0  0  0  0  0  0  0  0  0  0  0
   -9.2095   -5.4753    3.7250 H   0  0  0  0  0  0  0  0  0  0  0  0
   -8.7097   -7.0751    4.2972 H   0  0  0  0  0  0  0  0  0  0  0  0
  -11.5468   -7.9511   -0.2311 H   0  0  0  0  0  0  0  0  0  0  0  0
  -14.3199   -8.6202    3.8472 H   0  0  0  0  0  0  0  0  0  0  0  0
  -13.0120   -7.8211    6.1247 H   0  0  0  0  0  0  0  0  0  0  0  0
   -9.6439   -6.2458   -0.3984 H   0  0  0  0  0  0  0  0  0  0  0  0
   -8.6749   -7.6606    0.0228 H   0  0  0  0  0  0  0  0  0  0  0  0
   -5.5416   -5.5130    1.2264 H   0  0  0  0  0  0  0  0  0  0  0  0
    0.5498   -2.3137    0.8233 H   0  0  0  0  0  0  0  0  0  0  0  0
  1  2  1  0  0  0  0
  1 31  1  0  0  0  0
  1 32  1  0  0  0  0
  1 33  1  0  0  0  0
  2  3  1  0  0  0  0
  2 30  2  0  0  0  0
  3  4  2  0  0  0  0
  3 34  1  0  0  0  0
  4  5  1  0  0  0  0
  4 35  1  0  0  0  0
  5  6  2  0  0  0  0
  5 36  1  0  0  0  0
  6  7  1  0  0  0  0
  6 30  1  0  0  0  0
  7  8  1  0  0  0  0
  7 37  1  0  0  0  0
  8  9  2  0  0  0  0
  8 10  1  0  0  0  0
 10 11  1  0  0  0  0
 10 38  1  0  0  0  0
 11 12  1  0  0  0  0
 11 29  2  0  0  0  0
 12 13  2  0  0  0  0
 12 39  1  0  0  0  0
 13 14  1  0  0  0  0
 13 40  1  0  0  0  0
 14 15  2  0  0  0  0
 14 41  1  0  0  0  0
 15 16  1  0  0  0  0
 15 29  1  0  0  0  0
 16 17  1  0  0  0  0
 16 28  1  0  0  0  0
 17 18  1  0  0  0  0
 17 42  1  0  0  0  0
 17 43  1  0  0  0  0
 18 19  1  0  0  0  0
 18 44  1  0  0  0  0
 18 45  1  0  0  0  0
 19 20  2  0  0  0  0
 19 27  1  0  0  0  0
 20 21  1  0  0  0  0
 20 28  1  0  0  0  0
 21 22  2  0  0  0  0
 21 46  1  0  0  0  0
 22 23  1  0  0  0  0
 23 24  2  0  0  0  0
 23 27  1  0  0  0  0
 24 25  1  0  0  0  0
 24 47  1  0  0  0  0
 25 26  2  0  0  0  0
 25 48  1  0  0  0  0
 26 27  1  0  0  0  0
 28 49  1  0  0  0  0
 28 50  1  0  0  0  0
 29 51  1  0  0  0  0
 30 52  1  0  0  0  0
M  END
$$$$
