CHEMBL257858
 OpenBabel04072215363D

 77 81  0  0  0  0  0  0  0  0999 V2000
    2.4624   -1.2362    0.5527 C   0  0  0  0  0  0  0  0  0  0  0  0
    2.2736    0.0100   -0.1273 O   0  0  0  0  0  0  0  0  0  0  0  0
    2.9526    0.0639   -1.3311 C   0  0  0  0  0  0  0  0  0  0  0  0
    3.9998   -0.7668   -1.4858 N   0  0  0  0  0  0  0  0  0  0  0  0
    4.6612   -0.7466   -2.6533 C   0  0  0  0  0  0  0  0  0  0  0  0
    5.7203   -1.6166   -2.8590 N   0  0  0  0  0  0  0  0  0  0  0  0
    6.5864   -2.1752   -1.9166 C   0  0  0  0  0  0  0  0  0  0  0  0
    7.1822   -3.4037   -2.1845 C   0  0  0  0  0  0  0  0  0  0  0  0
    7.9555   -4.0407   -1.2114 C   0  0  0  0  0  0  0  0  0  0  0  0
    8.1735   -3.4769    0.0553 C   0  0  0  0  0  0  0  0  0  0  0  0
    8.9619   -4.1435    0.9722 N   0  0  0  0  0  0  0  0  0  0  0  0
    9.6402   -3.4496    2.0750 C   0  0  0  0  0  0  0  0  0  0  0  0
   10.9363   -4.2253    2.4214 C   0  0  0  0  0  0  0  0  0  0  0  0
   10.6847   -5.6494    2.7528 N   0  0  0  0  0  0  0  0  0  0  0  0
   11.9426   -6.3479    3.0023 C   0  0  0  0  0  0  0  0  0  0  0  0
    9.9537   -6.2907    1.6339 C   0  0  0  0  0  0  0  0  0  0  0  0
    8.6459   -5.5495    1.2827 C   0  0  0  0  0  0  0  0  0  0  0  0
    7.6076   -2.2250    0.2986 C   0  0  0  0  0  0  0  0  0  0  0  0
    6.8137   -1.5930   -0.6651 C   0  0  0  0  0  0  0  0  0  0  0  0
    4.3282    0.0505   -3.6711 N   0  0  0  0  0  0  0  0  0  0  0  0
    3.3064    0.9078   -3.4567 C   0  0  0  0  0  0  0  0  0  0  0  0
    2.5670    0.9689   -2.2916 C   0  0  0  0  0  0  0  0  0  0  0  0
    1.4636    1.9461   -2.2149 C   0  0  0  0  0  0  0  0  0  0  0  0
    1.2958    2.6753   -3.1929 O   0  0  0  0  0  0  0  0  0  0  0  0
    0.7243    1.9972   -1.0512 N   0  0  0  0  0  0  0  0  0  0  0  0
   -0.3856    2.8478   -0.8081 C   0  0  0  0  0  0  0  0  0  0  0  0
   -1.0661    3.4775   -1.8639 C   0  0  0  0  0  0  0  0  0  0  0  0
   -2.1348    4.3386   -1.6170 C   0  0  0  0  0  0  0  0  0  0  0  0
   -2.8812    5.0419   -2.6975 C   0  0  0  0  0  0  0  0  0  0  0  0
   -4.0484    5.3348   -2.4600 O   0  0  0  0  0  0  0  0  0  0  0  0
   -2.2046    5.3176   -3.8761 N   0  0  0  0  0  0  0  0  0  0  0  0
   -2.7288    6.0429   -4.9775 C   0  0  0  0  0  0  0  0  0  0  0  0
   -3.9198    6.7716   -4.9182 C   0  0  0  0  0  0  0  0  0  0  0  0
   -4.4060    7.4435   -6.0413 C   0  0  0  0  0  0  0  0  0  0  0  0
   -3.7009    7.4033   -7.2403 C   0  0  0  0  0  0  0  0  0  0  0  0
   -2.4871    6.7066   -7.3205 C   0  0  0  0  0  0  0  0  0  0  0  0
   -1.6992    6.6602   -8.5939 C   0  0  0  0  0  0  0  0  0  0  0  0
   -2.2806    7.3718   -9.6047 F   0  0  0  0  0  0  0  0  0  0  0  0
   -0.4464    7.1762   -8.4643 F   0  0  0  0  0  0  0  0  0  0  0  0
   -1.5464    5.3988   -9.0818 F   0  0  0  0  0  0  0  0  0  0  0  0
   -2.0141    6.0413   -6.1845 C   0  0  0  0  0  0  0  0  0  0  0  0
   -0.8560    5.3652   -6.2553 F   0  0  0  0  0  0  0  0  0  0  0  0
   -2.5671    4.5315   -0.3014 C   0  0  0  0  0  0  0  0  0  0  0  0
   -1.9206    3.8924    0.7539 C   0  0  0  0  0  0  0  0  0  0  0  0
   -0.8214    3.0522    0.5176 C   0  0  0  0  0  0  0  0  0  0  0  0
   -0.1364    2.4278    1.7032 C   0  0  0  0  0  0  0  0  0  0  0  0
    1.8571   -1.2146    1.4639 H   0  0  0  0  0  0  0  0  0  0  0  0
    3.5056   -1.3848    0.8537 H   0  0  0  0  0  0  0  0  0  0  0  0
    2.1095   -2.0719   -0.0629 H   0  0  0  0  0  0  0  0  0  0  0  0
    6.0032   -1.6491   -3.8262 H   0  0  0  0  0  0  0  0  0  0  0  0
    7.0289   -3.8962   -3.1404 H   0  0  0  0  0  0  0  0  0  0  0  0
    8.4166   -4.9911   -1.4662 H   0  0  0  0  0  0  0  0  0  0  0  0
    8.9846   -3.3911    2.9535 H   0  0  0  0  0  0  0  0  0  0  0  0
    9.9240   -2.4289    1.7928 H   0  0  0  0  0  0  0  0  0  0  0  0
   11.4239   -3.7291    3.2681 H   0  0  0  0  0  0  0  0  0  0  0  0
   11.6182   -4.1565    1.5617 H   0  0  0  0  0  0  0  0  0  0  0  0
   12.4689   -5.8953    3.8492 H   0  0  0  0  0  0  0  0  0  0  0  0
   12.6086   -6.3316    2.1319 H   0  0  0  0  0  0  0  0  0  0  0  0
   11.7512   -7.3928    3.2697 H   0  0  0  0  0  0  0  0  0  0  0  0
    9.7060   -7.3249    1.8989 H   0  0  0  0  0  0  0  0  0  0  0  0
   10.5869   -6.3218    0.7361 H   0  0  0  0  0  0  0  0  0  0  0  0
    7.9486   -5.5927    2.1302 H   0  0  0  0  0  0  0  0  0  0  0  0
    8.1632   -6.0731    0.4507 H   0  0  0  0  0  0  0  0  0  0  0  0
    7.7432   -1.7253    1.2529 H   0  0  0  0  0  0  0  0  0  0  0  0
    6.3846   -0.6236   -0.4241 H   0  0  0  0  0  0  0  0  0  0  0  0
    3.0972    1.5682   -4.2959 H   0  0  0  0  0  0  0  0  0  0  0  0
    1.0518    1.4392   -0.2680 H   0  0  0  0  0  0  0  0  0  0  0  0
   -0.8008    3.2591   -2.8908 H   0  0  0  0  0  0  0  0  0  0  0  0
   -1.2640    4.9577   -4.0033 H   0  0  0  0  0  0  0  0  0  0  0  0
   -4.4934    6.8544   -4.0006 H   0  0  0  0  0  0  0  0  0  0  0  0
   -5.3396    7.9976   -5.9702 H   0  0  0  0  0  0  0  0  0  0  0  0
   -4.1014    7.9233   -8.1094 H   0  0  0  0  0  0  0  0  0  0  0  0
   -3.4156    5.1818   -0.0943 H   0  0  0  0  0  0  0  0  0  0  0  0
   -2.2797    4.0668    1.7660 H   0  0  0  0  0  0  0  0  0  0  0  0
   -0.5663    2.7807    2.6474 H   0  0  0  0  0  0  0  0  0  0  0  0
    0.9248    2.6965    1.7132 H   0  0  0  0  0  0  0  0  0  0  0  0
   -0.2424    1.3391    1.6771 H   0  0  0  0  0  0  0  0  0  0  0  0
  1  2  1  0  0  0  0
  1 47  1  0  0  0  0
  1 48  1  0  0  0  0
  1 49  1  0  0  0  0
  2  3  1  0  0  0  0
  3  4  1  0  0  0  0
  3 22  2  0  0  0  0
  4  5  2  0  0  0  0
  5  6  1  0  0  0  0
  5 20  1  0  0  0  0
  6  7  1  0  0  0  0
  6 50  1  0  0  0  0
  7  8  1  0  0  0  0
  7 19  2  0  0  0  0
  8  9  2  0  0  0  0
  8 51  1  0  0  0  0
  9 10  1  0  0  0  0
  9 52  1  0  0  0  0
 10 11  1  0  0  0  0
 10 18  2  0  0  0  0
 11 12  1  0  0  0  0
 11 17  1  0  0  0  0
 12 13  1  0  0  0  0
 12 53  1  0  0  0  0
 12 54  1  0  0  0  0
 13 14  1  0  0  0  0
 13 55  1  0  0  0  0
 13 56  1  0  0  0  0
 14 15  1  0  0  0  0
 14 16  1  0  0  0  0
 15 57  1  0  0  0  0
 15 58  1  0  0  0  0
 15 59  1  0  0  0  0
 16 17  1  0  0  0  0
 16 60  1  0  0  0  0
 16 61  1  0  0  0  0
 17 62  1  0  0  0  0
 17 63  1  0  0  0  0
 18 19  1  0  0  0  0
 18 64  1  0  0  0  0
 19 65  1  0  0  0  0
 20 21  2  0  0  0  0
 21 22  1  0  0  0  0
 21 66  1  0  0  0  0
 22 23  1  0  0  0  0
 23 24  2  0  0  0  0
 23 25  1  0  0  0  0
 25 26  1  0  0  0  0
 25 67  1  0  0  0  0
 26 27  1  0  0  0  0
 26 45  2  0  0  0  0
 27 28  2  0  0  0  0
 27 68  1  0  0  0  0
 28 29  1  0  0  0  0
 28 43  1  0  0  0  0
 29 30  2  0  0  0  0
 29 31  1  0  0  0  0
 31 32  1  0  0  0  0
 31 69  1  0  0  0  0
 32 33  1  0  0  0  0
 32 41  2  0  0  0  0
 33 34  2  0  0  0  0
 33 70  1  0  0  0  0
 34 35  1  0  0  0  0
 34 71  1  0  0  0  0
 35 36  2  0  0  0  0
 35 72  1  0  0  0  0
 36 37  1  0  0  0  0
 36 41  1  0  0  0  0
 37 38  1  0  0  0  0
 37 39  1  0  0  0  0
 37 40  1  0  0  0  0
 41 42  1  0  0  0  0
 43 44  2  0  0  0  0
 43 73  1  0  0  0  0
 44 45  1  0  0  0  0
 44 74  1  0  0  0  0
 45 46  1  0  0  0  0
 46 75  1  0  0  0  0
 46 76  1  0  0  0  0
 46 77  1  0  0  0  0
M  END
$$$$
