CHEMBL4208845
 OpenBabel04072215383D

 66 70  0  0  0  0  0  0  0  0999 V2000
    5.1447    1.5251   -4.2477 C   0  0  0  0  0  0  0  0  0  0  0  0
    5.7726    0.7959   -3.2017 O   0  0  0  0  0  0  0  0  0  0  0  0
    7.0387    1.3633   -2.8479 C   0  0  0  0  0  0  0  0  0  0  0  0
    7.6283    0.5630   -1.6916 C   0  0  0  0  0  0  0  0  0  0  0  0
    7.8838   -0.8125   -2.0685 N   0  0  0  0  0  0  0  0  0  0  0  0
    8.3757   -1.7230   -1.1636 C   0  0  0  0  0  0  0  0  0  0  0  0
    8.7184   -1.3720   -0.0349 O   0  0  0  0  0  0  0  0  0  0  0  0
    8.4611   -3.1089   -1.6286 C   0  0  0  0  0  0  0  0  0  0  0  0
    7.9397   -3.5304   -3.2060 S   0  0  0  0  0  0  0  0  0  0  0  0
    8.3728   -5.1531   -2.9970 C   0  0  0  0  0  0  0  0  0  0  0  0
    8.2058   -6.0239   -4.0066 N   0  0  0  0  0  0  0  0  0  0  0  0
    8.5676   -7.2634   -3.6806 C   0  0  0  0  0  0  0  0  0  0  0  0
    9.0534   -7.6778   -2.5068 N   0  0  0  0  0  0  0  0  0  0  0  0
    9.2563   -6.7552   -1.5358 C   0  0  0  0  0  0  0  0  0  0  0  0
    9.8197   -7.1509   -0.3311 O   0  0  0  0  0  0  0  0  0  0  0  0
   10.7035   -8.2014   -0.3505 C   0  0  0  0  0  0  0  0  0  0  0  0
   11.5837   -8.4484   -1.4056 C   0  0  0  0  0  0  0  0  0  0  0  0
   12.4130   -9.5673   -1.3804 C   0  0  0  0  0  0  0  0  0  0  0  0
   12.4059  -10.4237   -0.2815 C   0  0  0  0  0  0  0  0  0  0  0  0
   13.1925  -11.5815   -0.2204 N   0  0  0  0  0  0  0  0  0  0  0  0
   14.2460  -11.9150   -1.0479 C   0  0  0  0  0  0  0  0  0  0  0  0
   14.7352  -11.2556   -1.9537 O   0  0  0  0  0  0  0  0  0  0  0  0
   14.8168  -13.2637   -0.7456 C   0  0  0  0  0  0  0  0  0  0  0  0
   14.1667  -14.3597   -1.5196 C   0  0  0  0  0  0  0  0  0  0  0  0
   13.1221  -14.8309   -1.0744 O   0  0  0  0  0  0  0  0  0  0  0  0
   14.7856  -14.7470   -2.6951 N   0  0  0  0  0  0  0  0  0  0  0  0
   14.1510  -15.6361   -3.5851 C   0  0  0  0  0  0  0  0  0  0  0  0
   12.7950  -15.4701   -3.9106 C   0  0  0  0  0  0  0  0  0  0  0  0
   12.1333  -16.4244   -4.6842 C   0  0  0  0  0  0  0  0  0  0  0  0
   12.8281  -17.5445   -5.1157 C   0  0  0  0  0  0  0  0  0  0  0  0
   12.1813  -18.5013   -5.7930 F   0  0  0  0  0  0  0  0  0  0  0  0
   14.1860  -17.6927   -4.8436 C   0  0  0  0  0  0  0  0  0  0  0  0
   14.8623  -16.7138   -4.1073 C   0  0  0  0  0  0  0  0  0  0  0  0
   15.1605  -13.5447    0.7255 C   0  0  0  0  0  0  0  0  0  0  0  0
   16.2590  -13.3781   -0.2746 C   0  0  0  0  0  0  0  0  0  0  0  0
   11.5720  -10.1435    0.8056 C   0  0  0  0  0  0  0  0  0  0  0  0
   10.7413   -9.0269    0.7693 C   0  0  0  0  0  0  0  0  0  0  0  0
    9.9734   -8.7576    1.8361 F   0  0  0  0  0  0  0  0  0  0  0  0
    8.8887   -5.4184   -1.7403 C   0  0  0  0  0  0  0  0  0  0  0  0
    8.9503   -4.2112   -0.9357 C   0  0  0  0  0  0  0  0  0  0  0  0
    9.4864   -4.1372    0.4676 C   0  0  0  0  0  0  0  0  0  0  0  0
    4.1777    1.0605   -4.4588 H   0  0  0  0  0  0  0  0  0  0  0  0
    5.7558    1.4908   -5.1543 H   0  0  0  0  0  0  0  0  0  0  0  0
    4.9751    2.5627   -3.9447 H   0  0  0  0  0  0  0  0  0  0  0  0
    6.9009    2.4052   -2.5400 H   0  0  0  0  0  0  0  0  0  0  0  0
    7.7044    1.3270   -3.7184 H   0  0  0  0  0  0  0  0  0  0  0  0
    6.9391    0.5472   -0.8414 H   0  0  0  0  0  0  0  0  0  0  0  0
    8.5766    1.0031   -1.3636 H   0  0  0  0  0  0  0  0  0  0  0  0
    7.4308   -1.1696   -2.9030 H   0  0  0  0  0  0  0  0  0  0  0  0
    8.4709   -8.0179   -4.4552 H   0  0  0  0  0  0  0  0  0  0  0  0
   11.6152   -7.8026   -2.2780 H   0  0  0  0  0  0  0  0  0  0  0  0
   13.0235   -9.7629   -2.2570 H   0  0  0  0  0  0  0  0  0  0  0  0
   12.9592  -12.2461    0.5090 H   0  0  0  0  0  0  0  0  0  0  0  0
   15.7844  -14.5867   -2.7866 H   0  0  0  0  0  0  0  0  0  0  0  0
   12.2442  -14.5984   -3.5655 H   0  0  0  0  0  0  0  0  0  0  0  0
   11.0813  -16.3093   -4.9257 H   0  0  0  0  0  0  0  0  0  0  0  0
   14.6991  -18.5880   -5.1801 H   0  0  0  0  0  0  0  0  0  0  0  0
   15.9134  -16.8571   -3.8746 H   0  0  0  0  0  0  0  0  0  0  0  0
   14.9422  -14.5336    1.1123 H   0  0  0  0  0  0  0  0  0  0  0  0
   15.0287  -12.7532    1.4569 H   0  0  0  0  0  0  0  0  0  0  0  0
   16.8399  -14.2623   -0.5039 H   0  0  0  0  0  0  0  0  0  0  0  0
   16.8478  -12.4662   -0.2247 H   0  0  0  0  0  0  0  0  0  0  0  0
   11.5625  -10.7675    1.6937 H   0  0  0  0  0  0  0  0  0  0  0  0
    9.8602   -5.0922    0.8375 H   0  0  0  0  0  0  0  0  0  0  0  0
    8.7010   -3.8080    1.1558 H   0  0  0  0  0  0  0  0  0  0  0  0
   10.3200   -3.4285    0.5163 H   0  0  0  0  0  0  0  0  0  0  0  0
  1  2  1  0  0  0  0
  1 42  1  0  0  0  0
  1 43  1  0  0  0  0
  1 44  1  0  0  0  0
  2  3  1  0  0  0  0
  3  4  1  0  0  0  0
  3 45  1  0  0  0  0
  3 46  1  0  0  0  0
  4  5  1  0  0  0  0
  4 47  1  0  0  0  0
  4 48  1  0  0  0  0
  5  6  1  0  0  0  0
  5 49  1  0  0  0  0
  6  7  2  0  0  0  0
  6  8  1  0  0  0  0
  8  9  1  0  0  0  0
  8 40  2  0  0  0  0
  9 10  1  0  0  0  0
 10 11  1  0  0  0  0
 10 39  2  0  0  0  0
 11 12  2  0  0  0  0
 12 13  1  0  0  0  0
 12 50  1  0  0  0  0
 13 14  2  0  0  0  0
 14 15  1  0  0  0  0
 14 39  1  0  0  0  0
 15 16  1  0  0  0  0
 16 17  1  0  0  0  0
 16 37  2  0  0  0  0
 17 18  2  0  0  0  0
 17 51  1  0  0  0  0
 18 19  1  0  0  0  0
 18 52  1  0  0  0  0
 19 20  1  0  0  0  0
 19 36  2  0  0  0  0
 20 21  1  0  0  0  0
 20 53  1  0  0  0  0
 21 22  2  0  0  0  0
 21 23  1  0  0  0  0
 23 24  1  0  0  0  0
 23 34  1  0  0  0  0
 23 35  1  0  0  0  0
 24 25  2  0  0  0  0
 24 26  1  0  0  0  0
 26 27  1  0  0  0  0
 26 54  1  0  0  0  0
 27 28  1  0  0  0  0
 27 33  2  0  0  0  0
 28 29  2  0  0  0  0
 28 55  1  0  0  0  0
 29 30  1  0  0  0  0
 29 56  1  0  0  0  0
 30 31  1  0  0  0  0
 30 32  2  0  0  0  0
 32 33  1  0  0  0  0
 32 57  1  0  0  0  0
 33 58  1  0  0  0  0
 34 35  1  0  0  0  0
 34 59  1  0  0  0  0
 34 60  1  0  0  0  0
 35 61  1  0  0  0  0
 35 62  1  0  0  0  0
 36 37  1  0  0  0  0
 36 63  1  0  0  0  0
 37 38  1  0  0  0  0
 39 40  1  0  0  0  0
 40 41  1  0  0  0  0
 41 64  1  0  0  0  0
 41 65  1  0  0  0  0
 41 66  1  0  0  0  0
M  END
$$$$
