CHEMBL4470543
 OpenBabel04072215383D

 56 60  0  0  0  0  0  0  0  0999 V2000
    1.8848    1.5317   -2.1406 C   0  0  0  0  0  0  0  0  0  0  0  0
    1.6465    1.4008   -0.7446 O   0  0  0  0  0  0  0  0  0  0  0  0
    2.1725    2.4324    0.0105 C   0  0  0  0  0  0  0  0  0  0  0  0
    1.8612    2.4105    1.3632 C   0  0  0  0  0  0  0  0  0  0  0  0
    2.3397    3.4205    2.2037 C   0  0  0  0  0  0  0  0  0  0  0  0
    2.0063    3.5149    3.5941 N   0  0  0  0  0  0  0  0  0  0  0  0
    1.0924    2.7040    4.2598 C   0  0  0  0  0  0  0  0  0  0  0  0
    0.5281    1.7390    3.7350 O   0  0  0  0  0  0  0  0  0  0  0  0
    0.7986    3.1083    5.5609 N   0  0  0  0  0  0  0  0  0  0  0  0
   -0.2309    2.4495    6.3178 C   0  0  0  0  0  0  0  0  0  0  0  0
   -0.4030    1.0588    6.3019 C   0  0  0  0  0  0  0  0  0  0  0  0
   -1.5338    0.4438    6.8930 C   0  0  0  0  0  0  0  0  0  0  0  0
   -2.5202    1.2025    7.5389 C   0  0  0  0  0  0  0  0  0  0  0  0
   -3.7587    0.6846    7.9660 O   0  0  0  0  0  0  0  0  0  0  0  0
   -3.7928   -0.4898    8.7409 C   0  0  0  0  0  0  0  0  0  0  0  0
   -2.5793   -0.8811    9.2053 N   0  0  0  0  0  0  0  0  0  0  0  0
   -2.5410   -1.9719    9.9636 C   0  0  0  0  0  0  0  0  0  0  0  0
   -3.5850   -2.7008   10.3065 N   0  0  0  0  0  0  0  0  0  0  0  0
   -4.7824   -2.2774    9.9226 C   0  0  0  0  0  0  0  0  0  0  0  0
   -5.7965   -3.0935   10.4199 C   0  0  0  0  0  0  0  0  0  0  0  0
   -7.1313   -2.7681   10.2981 C   0  0  0  0  0  0  0  0  0  0  0  0
   -8.1782   -3.5016   10.7816 O   0  0  0  0  0  0  0  0  0  0  0  0
   -7.9417   -4.8878   10.9946 C   0  0  0  0  0  0  0  0  0  0  0  0
   -7.4426   -1.6263    9.5861 C   0  0  0  0  0  0  0  0  0  0  0  0
   -6.4621   -0.9120    8.8615 C   0  0  0  0  0  0  0  0  0  0  0  0
   -5.0385   -1.1450    9.1119 C   0  0  0  0  0  0  0  0  0  0  0  0
   -6.8862   -0.0477    7.8760 O   0  0  0  0  0  0  0  0  0  0  0  0
   -8.2868   -0.1905    7.4779 C   0  0  0  0  0  0  0  0  0  0  0  0
   -9.1218   -1.2446    8.1983 C   0  0  0  0  0  0  0  0  0  0  0  0
   -8.7638   -1.2532    9.5638 O   0  0  0  0  0  0  0  0  0  0  0  0
   -2.2965    2.5877    7.6336 C   0  0  0  0  0  0  0  0  0  0  0  0
   -1.1507    3.2004    7.0553 C   0  0  0  0  0  0  0  0  0  0  0  0
    3.1610    4.3938    1.6282 C   0  0  0  0  0  0  0  0  0  0  0  0
    3.4213    4.3300    0.2601 C   0  0  0  0  0  0  0  0  0  0  0  0
    2.9421    3.3764   -0.5631 N   0  0  0  0  0  0  0  0  0  0  0  0
    1.3956    0.6899   -2.6408 H   0  0  0  0  0  0  0  0  0  0  0  0
    2.9548    1.4767   -2.3680 H   0  0  0  0  0  0  0  0  0  0  0  0
    1.4428    2.4531   -2.5354 H   0  0  0  0  0  0  0  0  0  0  0  0
    1.2512    1.5903    1.7135 H   0  0  0  0  0  0  0  0  0  0  0  0
    2.4755    4.2309    4.1306 H   0  0  0  0  0  0  0  0  0  0  0  0
    0.9290    4.0904    5.7445 H   0  0  0  0  0  0  0  0  0  0  0  0
    0.3250    0.4278    5.7962 H   0  0  0  0  0  0  0  0  0  0  0  0
   -1.6294   -0.6333    6.8092 H   0  0  0  0  0  0  0  0  0  0  0  0
   -1.5676   -2.2917   10.3317 H   0  0  0  0  0  0  0  0  0  0  0  0
   -5.5057   -3.9872   10.9649 H   0  0  0  0  0  0  0  0  0  0  0  0
   -8.9131   -5.3854   11.0836 H   0  0  0  0  0  0  0  0  0  0  0  0
   -7.3975   -5.0373   11.9311 H   0  0  0  0  0  0  0  0  0  0  0  0
   -7.4140   -5.3494   10.1523 H   0  0  0  0  0  0  0  0  0  0  0  0
   -8.7591    0.7866    7.6285 H   0  0  0  0  0  0  0  0  0  0  0  0
   -8.3232   -0.4080    6.4042 H   0  0  0  0  0  0  0  0  0  0  0  0
   -8.9907   -2.2556    7.7855 H   0  0  0  0  0  0  0  0  0  0  0  0
  -10.1966   -1.0284    8.1292 H   0  0  0  0  0  0  0  0  0  0  0  0
   -3.0287    3.2162    8.1311 H   0  0  0  0  0  0  0  0  0  0  0  0
   -1.0469    4.2804    7.1196 H   0  0  0  0  0  0  0  0  0  0  0  0
    3.5834    5.2083    2.2056 H   0  0  0  0  0  0  0  0  0  0  0  0
    4.0395    5.0784   -0.2306 H   0  0  0  0  0  0  0  0  0  0  0  0
  1  2  1  0  0  0  0
  1 36  1  0  0  0  0
  1 37  1  0  0  0  0
  1 38  1  0  0  0  0
  2  3  1  0  0  0  0
  3  4  1  0  0  0  0
  3 35  2  0  0  0  0
  4  5  2  0  0  0  0
  4 39  1  0  0  0  0
  5  6  1  0  0  0  0
  5 33  1  0  0  0  0
  6  7  1  0  0  0  0
  6 40  1  0  0  0  0
  7  8  2  0  0  0  0
  7  9  1  0  0  0  0
  9 10  1  0  0  0  0
  9 41  1  0  0  0  0
 10 11  1  0  0  0  0
 10 32  2  0  0  0  0
 11 12  2  0  0  0  0
 11 42  1  0  0  0  0
 12 13  1  0  0  0  0
 12 43  1  0  0  0  0
 13 14  1  0  0  0  0
 13 31  2  0  0  0  0
 14 15  1  0  0  0  0
 15 16  1  0  0  0  0
 15 26  2  0  0  0  0
 16 17  2  0  0  0  0
 17 18  1  0  0  0  0
 17 44  1  0  0  0  0
 18 19  2  0  0  0  0
 19 20  1  0  0  0  0
 19 26  1  0  0  0  0
 20 21  2  0  0  0  0
 20 45  1  0  0  0  0
 21 22  1  0  0  0  0
 21 24  1  0  0  0  0
 22 23  1  0  0  0  0
 23 46  1  0  0  0  0
 23 47  1  0  0  0  0
 23 48  1  0  0  0  0
 24 25  2  0  0  0  0
 24 30  1  0  0  0  0
 25 26  1  0  0  0  0
 25 27  1  0  0  0  0
 27 28  1  0  0  0  0
 28 29  1  0  0  0  0
 28 49  1  0  0  0  0
 28 50  1  0  0  0  0
 29 30  1  0  0  0  0
 29 51  1  0  0  0  0
 29 52  1  0  0  0  0
 31 32  1  0  0  0  0
 31 53  1  0  0  0  0
 32 54  1  0  0  0  0
 33 34  2  0  0  0  0
 33 55  1  0  0  0  0
 34 35  1  0  0  0  0
 34 56  1  0  0  0  0
M  END
$$$$
