CHEMBL2105717
 OpenBabel04072215363D

 61 65  0  0  0  0  0  0  0  0999 V2000
    5.4526    1.6437   -0.7361 C   0  0  0  0  0  0  0  0  0  0  0  0
    4.2768    0.8475   -0.8926 O   0  0  0  0  0  0  0  0  0  0  0  0
    4.4623   -0.5092   -0.8908 C   0  0  0  0  0  0  0  0  0  0  0  0
    5.5546   -1.1131   -0.2460 C   0  0  0  0  0  0  0  0  0  0  0  0
    5.8435   -2.4667   -0.3649 C   0  0  0  0  0  0  0  0  0  0  0  0
    6.9847   -2.9122    0.1840 N   0  0  0  0  0  0  0  0  0  0  0  0
    7.3218   -4.2032   -0.0021 C   0  0  0  0  0  0  0  0  0  0  0  0
    6.5679   -5.0890   -0.7407 C   0  0  0  0  0  0  0  0  0  0  0  0
    5.3793   -4.6353   -1.3101 C   0  0  0  0  0  0  0  0  0  0  0  0
    4.7262   -5.6136   -2.0428 O   0  0  0  0  0  0  0  0  0  0  0  0
    3.9676   -5.3018   -3.1468 C   0  0  0  0  0  0  0  0  0  0  0  0
    4.2607   -4.2824   -4.0502 C   0  0  0  0  0  0  0  0  0  0  0  0
    3.3028   -3.8908   -4.9964 C   0  0  0  0  0  0  0  0  0  0  0  0
    2.0855   -4.5661   -5.1056 C   0  0  0  0  0  0  0  0  0  0  0  0
    1.0416   -4.1617   -5.9659 N   0  0  0  0  0  0  0  0  0  0  0  0
    1.0002   -3.0230   -6.7499 C   0  0  0  0  0  0  0  0  0  0  0  0
    1.8596   -2.1598   -6.8688 O   0  0  0  0  0  0  0  0  0  0  0  0
   -0.2666   -2.8745   -7.5428 C   0  0  0  0  0  0  0  0  0  0  0  0
   -1.4441   -2.3565   -6.7733 C   0  0  0  0  0  0  0  0  0  0  0  0
   -2.0597   -3.1594   -6.0862 O   0  0  0  0  0  0  0  0  0  0  0  0
   -1.7259   -1.0105   -6.9482 N   0  0  0  0  0  0  0  0  0  0  0  0
   -2.7895   -0.3052   -6.3359 C   0  0  0  0  0  0  0  0  0  0  0  0
   -3.4903   -0.8062   -5.2327 C   0  0  0  0  0  0  0  0  0  0  0  0
   -4.5828   -0.1129   -4.7038 C   0  0  0  0  0  0  0  0  0  0  0  0
   -4.9711    1.0887   -5.2736 C   0  0  0  0  0  0  0  0  0  0  0  0
   -6.0402    1.7340   -4.7890 F   0  0  0  0  0  0  0  0  0  0  0  0
   -4.2645    1.6294   -6.3400 C   0  0  0  0  0  0  0  0  0  0  0  0
   -3.1619    0.9403   -6.8641 C   0  0  0  0  0  0  0  0  0  0  0  0
   -0.5404   -3.9491   -8.6006 C   0  0  0  0  0  0  0  0  0  0  0  0
   -0.1558   -2.5721   -9.0368 C   0  0  0  0  0  0  0  0  0  0  0  0
    1.8721   -5.6928   -4.3005 C   0  0  0  0  0  0  0  0  0  0  0  0
    2.8075   -6.0573   -3.3238 C   0  0  0  0  0  0  0  0  0  0  0  0
    4.9582   -3.2958   -1.0786 C   0  0  0  0  0  0  0  0  0  0  0  0
    3.7490   -2.7126   -1.5182 C   0  0  0  0  0  0  0  0  0  0  0  0
    3.5282   -1.3315   -1.5159 C   0  0  0  0  0  0  0  0  0  0  0  0
    2.3857   -1.0123   -2.1917 O   0  0  0  0  0  0  0  0  0  0  0  0
    2.1473    0.3229   -2.5987 C   0  0  0  0  0  0  0  0  0  0  0  0
    5.3050    2.5791   -1.2837 H   0  0  0  0  0  0  0  0  0  0  0  0
    6.3545    1.1753   -1.1487 H   0  0  0  0  0  0  0  0  0  0  0  0
    5.5950    1.8827    0.3223 H   0  0  0  0  0  0  0  0  0  0  0  0
    6.2470   -0.5186    0.3443 H   0  0  0  0  0  0  0  0  0  0  0  0
    8.2543   -4.5094    0.4632 H   0  0  0  0  0  0  0  0  0  0  0  0
    6.9013   -6.1108   -0.8800 H   0  0  0  0  0  0  0  0  0  0  0  0
    5.1786   -3.7066   -3.9679 H   0  0  0  0  0  0  0  0  0  0  0  0
    3.5250   -3.0157   -5.5985 H   0  0  0  0  0  0  0  0  0  0  0  0
    0.1861   -4.7132   -5.9322 H   0  0  0  0  0  0  0  0  0  0  0  0
   -1.1784   -0.5069   -7.6356 H   0  0  0  0  0  0  0  0  0  0  0  0
   -3.1993   -1.7312   -4.7481 H   0  0  0  0  0  0  0  0  0  0  0  0
   -5.1280   -0.5153   -3.8570 H   0  0  0  0  0  0  0  0  0  0  0  0
   -4.5867    2.5752   -6.7649 H   0  0  0  0  0  0  0  0  0  0  0  0
   -2.6333    1.3767   -7.7080 H   0  0  0  0  0  0  0  0  0  0  0  0
   -1.5662   -4.2680   -8.7530 H   0  0  0  0  0  0  0  0  0  0  0  0
    0.1877   -4.7416   -8.7343 H   0  0  0  0  0  0  0  0  0  0  0  0
   -0.9209   -1.9793   -9.5239 H   0  0  0  0  0  0  0  0  0  0  0  0
    0.8382   -2.4254   -9.4479 H   0  0  0  0  0  0  0  0  0  0  0  0
    0.9588   -6.2768   -4.3843 H   0  0  0  0  0  0  0  0  0  0  0  0
    2.6057   -6.8997   -2.6676 H   0  0  0  0  0  0  0  0  0  0  0  0
    2.9678   -3.3286   -1.9544 H   0  0  0  0  0  0  0  0  0  0  0  0
    1.4450    0.2827   -3.4397 H   0  0  0  0  0  0  0  0  0  0  0  0
    3.0412    0.8356   -2.9641 H   0  0  0  0  0  0  0  0  0  0  0  0
    1.6625    0.8724   -1.7881 H   0  0  0  0  0  0  0  0  0  0  0  0
  1  2  1  0  0  0  0
  1 38  1  0  0  0  0
  1 39  1  0  0  0  0
  1 40  1  0  0  0  0
  2  3  1  0  0  0  0
  3  4  1  0  0  0  0
  3 35  2  0  0  0  0
  4  5  2  0  0  0  0
  4 41  1  0  0  0  0
  5  6  1  0  0  0  0
  5 33  1  0  0  0  0
  6  7  2  0  0  0  0
  7  8  1  0  0  0  0
  7 42  1  0  0  0  0
  8  9  2  0  0  0  0
  8 43  1  0  0  0  0
  9 10  1  0  0  0  0
  9 33  1  0  0  0  0
 10 11  1  0  0  0  0
 11 12  1  0  0  0  0
 11 32  2  0  0  0  0
 12 13  2  0  0  0  0
 12 44  1  0  0  0  0
 13 14  1  0  0  0  0
 13 45  1  0  0  0  0
 14 15  1  0  0  0  0
 14 31  2  0  0  0  0
 15 16  1  0  0  0  0
 15 46  1  0  0  0  0
 16 17  2  0  0  0  0
 16 18  1  0  0  0  0
 18 19  1  0  0  0  0
 18 29  1  0  0  0  0
 18 30  1  0  0  0  0
 19 20  2  0  0  0  0
 19 21  1  0  0  0  0
 21 22  1  0  0  0  0
 21 47  1  0  0  0  0
 22 23  1  0  0  0  0
 22 28  2  0  0  0  0
 23 24  2  0  0  0  0
 23 48  1  0  0  0  0
 24 25  1  0  0  0  0
 24 49  1  0  0  0  0
 25 26  1  0  0  0  0
 25 27  2  0  0  0  0
 27 28  1  0  0  0  0
 27 50  1  0  0  0  0
 28 51  1  0  0  0  0
 29 30  1  0  0  0  0
 29 52  1  0  0  0  0
 29 53  1  0  0  0  0
 30 54  1  0  0  0  0
 30 55  1  0  0  0  0
 31 32  1  0  0  0  0
 31 56  1  0  0  0  0
 32 57  1  0  0  0  0
 33 34  2  0  0  0  0
 34 35  1  0  0  0  0
 34 58  1  0  0  0  0
 35 36  1  0  0  0  0
 36 37  1  0  0  0  0
 37 59  1  0  0  0  0
 37 60  1  0  0  0  0
 37 61  1  0  0  0  0
M  END
$$$$
