CHEMBL3958153
 OpenBabel04072215373D

 53 56  0  0  0  0  0  0  0  0999 V2000
    0.5911   -0.3697    4.0602 C   0  0  0  0  0  0  0  0  0  0  0  0
    1.9209    0.0466    4.3829 O   0  0  0  0  0  0  0  0  0  0  0  0
    2.8798   -0.1074    3.4114 C   0  0  0  0  0  0  0  0  0  0  0  0
    2.6438   -0.6807    2.1620 C   0  0  0  0  0  0  0  0  0  0  0  0
    3.6632   -0.7295    1.2162 C   0  0  0  0  0  0  0  0  0  0  0  0
    3.5454   -1.2173   -0.0582 O   0  0  0  0  0  0  0  0  0  0  0  0
    2.2957   -1.7947   -0.4169 C   0  0  0  0  0  0  0  0  0  0  0  0
    4.9266   -0.2168    1.5280 C   0  0  0  0  0  0  0  0  0  0  0  0
    5.2174    0.3615    2.7746 C   0  0  0  0  0  0  0  0  0  0  0  0
    6.4345    1.0460    3.0218 N   0  0  0  0  0  0  0  0  0  0  0  0
    7.0625    1.7430    1.8304 C   0  0  0  0  0  0  0  0  0  0  0  0
    6.2035    2.8070    1.1252 C   0  0  0  0  0  0  0  0  0  0  0  0
    5.9780    3.9502    1.9485 O   0  0  0  0  0  0  0  0  0  0  0  0
    7.5003    0.7436    3.9436 C   0  0  0  0  0  0  0  0  0  0  0  0
    8.1655    1.8482    4.4478 C   0  0  0  0  0  0  0  0  0  0  0  0
    9.4997    1.7556    4.8185 C   0  0  0  0  0  0  0  0  0  0  0  0
   10.1418    0.5458    4.8734 C   0  0  0  0  0  0  0  0  0  0  0  0
   11.4582    0.6375    5.0781 N   0  0  0  0  0  0  0  0  0  0  0  0
   12.1052   -0.5040    5.3376 C   0  0  0  0  0  0  0  0  0  0  0  0
   11.4463   -1.7104    5.4705 C   0  0  0  0  0  0  0  0  0  0  0  0
   12.1899   -2.7619    6.1636 C   0  0  0  0  0  0  0  0  0  0  0  0
   12.1234   -3.1587    7.5271 C   0  0  0  0  0  0  0  0  0  0  0  0
   13.1250   -3.9715    7.8883 N   0  0  0  0  0  0  0  0  0  0  0  0
   13.8460   -4.0980    6.7620 N   0  0  0  0  0  0  0  0  0  0  0  0
   14.8803   -5.1023    6.6648 C   0  0  0  0  0  0  0  0  0  0  0  0
   13.4147   -3.2724    5.7579 C   0  0  0  0  0  0  0  0  0  0  0  0
   10.1166   -1.8317    5.1331 N   0  0  0  0  0  0  0  0  0  0  0  0
    9.4303   -0.6725    4.7579 C   0  0  0  0  0  0  0  0  0  0  0  0
    8.0859   -0.5335    4.2103 C   0  0  0  0  0  0  0  0  0  0  0  0
    4.1650    0.3900    3.7143 C   0  0  0  0  0  0  0  0  0  0  0  0
   -0.0665   -0.1246    4.9009 H   0  0  0  0  0  0  0  0  0  0  0  0
    0.5424   -1.4556    3.9114 H   0  0  0  0  0  0  0  0  0  0  0  0
    0.1995    0.1586    3.1809 H   0  0  0  0  0  0  0  0  0  0  0  0
    1.6630   -1.0661    1.9158 H   0  0  0  0  0  0  0  0  0  0  0  0
    2.3814   -2.1760   -1.4396 H   0  0  0  0  0  0  0  0  0  0  0  0
    1.5011   -1.0428   -0.4110 H   0  0  0  0  0  0  0  0  0  0  0  0
    2.0465   -2.6421    0.2321 H   0  0  0  0  0  0  0  0  0  0  0  0
    5.6815   -0.2536    0.7472 H   0  0  0  0  0  0  0  0  0  0  0  0
    7.4063    0.9935    1.1099 H   0  0  0  0  0  0  0  0  0  0  0  0
    7.9675    2.2892    2.1253 H   0  0  0  0  0  0  0  0  0  0  0  0
    5.2493    2.4268    0.7538 H   0  0  0  0  0  0  0  0  0  0  0  0
    6.7667    3.1672    0.2549 H   0  0  0  0  0  0  0  0  0  0  0  0
    5.0169    4.1034    1.9629 H   0  0  0  0  0  0  0  0  0  0  0  0
    7.7175    2.8410    4.3743 H   0  0  0  0  0  0  0  0  0  0  0  0
   10.0653    2.6617    5.0152 H   0  0  0  0  0  0  0  0  0  0  0  0
   13.1708   -0.4049    5.4992 H   0  0  0  0  0  0  0  0  0  0  0  0
   11.4145   -2.8536    8.2870 H   0  0  0  0  0  0  0  0  0  0  0  0
   14.9408   -5.6681    7.5991 H   0  0  0  0  0  0  0  0  0  0  0  0
   15.8390   -4.6234    6.4514 H   0  0  0  0  0  0  0  0  0  0  0  0
   14.6017   -5.7764    5.8504 H   0  0  0  0  0  0  0  0  0  0  0  0
   13.9984   -3.1422    4.8575 H   0  0  0  0  0  0  0  0  0  0  0  0
    7.5568   -1.4375    3.9360 H   0  0  0  0  0  0  0  0  0  0  0  0
    4.3192    0.8792    4.6777 H   0  0  0  0  0  0  0  0  0  0  0  0
  1  2  1  0  0  0  0
  1 31  1  0  0  0  0
  1 32  1  0  0  0  0
  1 33  1  0  0  0  0
  2  3  1  0  0  0  0
  3  4  1  0  0  0  0
  3 30  2  0  0  0  0
  4  5  2  0  0  0  0
  4 34  1  0  0  0  0
  5  6  1  0  0  0  0
  5  8  1  0  0  0  0
  6  7  1  0  0  0  0
  7 35  1  0  0  0  0
  7 36  1  0  0  0  0
  7 37  1  0  0  0  0
  8  9  2  0  0  0  0
  8 38  1  0  0  0  0
  9 10  1  0  0  0  0
  9 30  1  0  0  0  0
 10 11  1  0  0  0  0
 10 14  1  0  0  0  0
 11 12  1  0  0  0  0
 11 39  1  0  0  0  0
 11 40  1  0  0  0  0
 12 13  1  0  0  0  0
 12 41  1  0  0  0  0
 12 42  1  0  0  0  0
 13 43  1  0  0  0  0
 14 15  1  0  0  0  0
 14 29  2  0  0  0  0
 15 16  2  0  0  0  0
 15 44  1  0  0  0  0
 16 17  1  0  0  0  0
 16 45  1  0  0  0  0
 17 18  1  0  0  0  0
 17 28  2  0  0  0  0
 18 19  2  0  0  0  0
 19 20  1  0  0  0  0
 19 46  1  0  0  0  0
 20 21  1  0  0  0  0
 20 27  2  0  0  0  0
 21 22  1  0  0  0  0
 21 26  2  0  0  0  0
 22 23  2  0  0  0  0
 22 47  1  0  0  0  0
 23 24  1  0  0  0  0
 24 25  1  0  0  0  0
 24 26  1  0  0  0  0
 25 48  1  0  0  0  0
 25 49  1  0  0  0  0
 25 50  1  0  0  0  0
 26 51  1  0  0  0  0
 27 28  1  0  0  0  0
 28 29  1  0  0  0  0
 29 52  1  0  0  0  0
 30 53  1  0  0  0  0
M  END
$$$$
