CHEMBL369747
 OpenBabel04072215373D

 52 55  0  0  0  0  0  0  0  0999 V2000
    4.5764   -1.3382    0.0479 C   0  0  0  0  0  0  0  0  0  0  0  0
    4.1040   -0.1612    0.7034 O   0  0  0  0  0  0  0  0  0  0  0  0
    4.3033    0.9919   -0.0128 C   0  0  0  0  0  0  0  0  0  0  0  0
    5.4560    1.1996   -0.7767 C   0  0  0  0  0  0  0  0  0  0  0  0
    5.6329    2.3233   -1.5758 C   0  0  0  0  0  0  0  0  0  0  0  0
    6.7707    2.3925   -2.2796 N   0  0  0  0  0  0  0  0  0  0  0  0
    6.9668    3.4585   -3.0742 C   0  0  0  0  0  0  0  0  0  0  0  0
    6.0797    4.5027   -3.1774 C   0  0  0  0  0  0  0  0  0  0  0  0
    4.9046    4.4524   -2.4235 C   0  0  0  0  0  0  0  0  0  0  0  0
    4.0941    5.5594   -2.6293 O   0  0  0  0  0  0  0  0  0  0  0  0
    3.3524    6.0865   -1.6019 C   0  0  0  0  0  0  0  0  0  0  0  0
    3.7476    6.0769   -0.2700 C   0  0  0  0  0  0  0  0  0  0  0  0
    2.8169    6.3858    0.7245 C   0  0  0  0  0  0  0  0  0  0  0  0
    1.5169    6.7948    0.4037 C   0  0  0  0  0  0  0  0  0  0  0  0
    0.4980    6.9824    1.3674 N   0  0  0  0  0  0  0  0  0  0  0  0
    0.6320    6.7847    2.7261 C   0  0  0  0  0  0  0  0  0  0  0  0
    1.6792    6.5411    3.3116 O   0  0  0  0  0  0  0  0  0  0  0  0
   -0.5879    6.8538    3.3913 N   0  0  0  0  0  0  0  0  0  0  0  0
   -0.6277    6.6823    4.8061 C   0  0  0  0  0  0  0  0  0  0  0  0
    0.2926    7.3514    5.6258 C   0  0  0  0  0  0  0  0  0  0  0  0
    0.3086    7.1151    6.9988 C   0  0  0  0  0  0  0  0  0  0  0  0
    1.4551    7.9280    7.9927 Cl  0  0  0  0  0  0  0  0  0  0  0  0
   -0.5900    6.2201    7.5712 C   0  0  0  0  0  0  0  0  0  0  0  0
   -1.5305    5.5707    6.7666 C   0  0  0  0  0  0  0  0  0  0  0  0
   -1.5608    5.8144    5.3896 C   0  0  0  0  0  0  0  0  0  0  0  0
   -2.7066    4.9559    4.4227 Cl  0  0  0  0  0  0  0  0  0  0  0  0
    1.1917    6.9719   -0.9456 C   0  0  0  0  0  0  0  0  0  0  0  0
    2.1069    6.6154   -1.9448 C   0  0  0  0  0  0  0  0  0  0  0  0
    4.6269    3.3119   -1.6168 C   0  0  0  0  0  0  0  0  0  0  0  0
    3.4487    3.0699   -0.8493 C   0  0  0  0  0  0  0  0  0  0  0  0
    3.3208    1.9738    0.0088 C   0  0  0  0  0  0  0  0  0  0  0  0
    2.1688    1.9678    0.7487 O   0  0  0  0  0  0  0  0  0  0  0  0
    2.2893    1.4689    2.0802 C   0  0  0  0  0  0  0  0  0  0  0  0
    4.0269   -2.1932    0.4495 H   0  0  0  0  0  0  0  0  0  0  0  0
    5.6395   -1.4867    0.2602 H   0  0  0  0  0  0  0  0  0  0  0  0
    4.3978   -1.3086   -1.0342 H   0  0  0  0  0  0  0  0  0  0  0  0
    6.2608    0.4713   -0.7676 H   0  0  0  0  0  0  0  0  0  0  0  0
    7.8919    3.4441   -3.6466 H   0  0  0  0  0  0  0  0  0  0  0  0
    6.2918    5.3447   -3.8299 H   0  0  0  0  0  0  0  0  0  0  0  0
    4.7317    5.7253    0.0272 H   0  0  0  0  0  0  0  0  0  0  0  0
    3.1418    6.2386    1.7490 H   0  0  0  0  0  0  0  0  0  0  0  0
   -0.4035    7.2873    1.0369 H   0  0  0  0  0  0  0  0  0  0  0  0
   -1.3594    6.4308    2.8888 H   0  0  0  0  0  0  0  0  0  0  0  0
    1.0125    8.0433    5.1946 H   0  0  0  0  0  0  0  0  0  0  0  0
   -0.5606    6.0203    8.6398 H   0  0  0  0  0  0  0  0  0  0  0  0
   -2.2189    4.8596    7.2164 H   0  0  0  0  0  0  0  0  0  0  0  0
    0.2124    7.3344   -1.2437 H   0  0  0  0  0  0  0  0  0  0  0  0
    1.8249    6.6978   -2.9919 H   0  0  0  0  0  0  0  0  0  0  0  0
    2.6144    3.7604   -0.8846 H   0  0  0  0  0  0  0  0  0  0  0  0
    1.6171    2.0523    2.7195 H   0  0  0  0  0  0  0  0  0  0  0  0
    3.2974    1.5670    2.4995 H   0  0  0  0  0  0  0  0  0  0  0  0
    1.9544    0.4279    2.1105 H   0  0  0  0  0  0  0  0  0  0  0  0
  1  2  1  0  0  0  0
  1 34  1  0  0  0  0
  1 35  1  0  0  0  0
  1 36  1  0  0  0  0
  2  3  1  0  0  0  0
  3  4  1  0  0  0  0
  3 31  2  0  0  0  0
  4  5  2  0  0  0  0
  4 37  1  0  0  0  0
  5  6  1  0  0  0  0
  5 29  1  0  0  0  0
  6  7  2  0  0  0  0
  7  8  1  0  0  0  0
  7 38  1  0  0  0  0
  8  9  2  0  0  0  0
  8 39  1  0  0  0  0
  9 10  1  0  0  0  0
  9 29  1  0  0  0  0
 10 11  1  0  0  0  0
 11 12  1  0  0  0  0
 11 28  2  0  0  0  0
 12 13  2  0  0  0  0
 12 40  1  0  0  0  0
 13 14  1  0  0  0  0
 13 41  1  0  0  0  0
 14 15  1  0  0  0  0
 14 27  2  0  0  0  0
 15 16  1  0  0  0  0
 15 42  1  0  0  0  0
 16 17  2  0  0  0  0
 16 18  1  0  0  0  0
 18 19  1  0  0  0  0
 18 43  1  0  0  0  0
 19 20  1  0  0  0  0
 19 25  2  0  0  0  0
 20 21  2  0  0  0  0
 20 44  1  0  0  0  0
 21 22  1  0  0  0  0
 21 23  1  0  0  0  0
 23 24  2  0  0  0  0
 23 45  1  0  0  0  0
 24 25  1  0  0  0  0
 24 46  1  0  0  0  0
 25 26  1  0  0  0  0
 27 28  1  0  0  0  0
 27 47  1  0  0  0  0
 28 48  1  0  0  0  0
 29 30  2  0  0  0  0
 30 31  1  0  0  0  0
 30 49  1  0  0  0  0
 31 32  1  0  0  0  0
 32 33  1  0  0  0  0
 33 50  1  0  0  0  0
 33 51  1  0  0  0  0
 33 52  1  0  0  0  0
M  END
$$$$
