CHEMBL3915272
 OpenBabel04072215373D

 71 73  0  0  0  0  0  0  0  0999 V2000
    1.7837   -7.9976   -2.9958 C   0  0  0  0  0  0  0  0  0  0  0  0
    2.8163   -7.8098   -2.0259 O   0  0  0  0  0  0  0  0  0  0  0  0
    3.7009   -6.8224   -2.3431 C   0  0  0  0  0  0  0  0  0  0  0  0
    3.6555   -6.1373   -3.3548 O   0  0  0  0  0  0  0  0  0  0  0  0
    4.7454   -6.7070   -1.2556 C   0  0  0  0  0  0  0  0  0  0  0  0
    5.7576   -5.6024   -1.5638 C   0  0  0  0  0  0  0  0  0  0  0  0
    6.8230   -5.4819   -0.4725 C   0  0  0  0  0  0  0  0  0  0  0  0
    7.8361   -4.3896   -0.8063 C   0  0  0  0  0  0  0  0  0  0  0  0
    9.0618   -4.1866    0.4848 S   0  0  3  0  0  0  0  0  0  0  0  0
   10.0413   -2.8452   -0.1675 C   0  0  0  0  0  0  0  0  0  0  0  0
    8.3566   -3.6809    1.6468 O   0  0  0  0  0  0  0  0  0  0  0  0
    9.9379   -5.4591    0.4930 N   0  0  0  0  0  0  0  0  0  0  0  0
   10.9697   -5.6131    1.4406 C   0  0  0  0  0  0  0  0  0  0  0  0
   11.5602   -4.6537    1.9295 O   0  0  0  0  0  0  0  0  0  0  0  0
   11.4801   -6.9626    1.8111 C   0  0  0  0  0  0  0  0  0  0  0  0
   10.9517   -8.1047    1.2295 C   0  0  0  0  0  0  0  0  0  0  0  0
   11.3933   -9.3643    1.4890 N   0  0  0  0  0  0  0  0  0  0  0  0
   12.4009   -9.5012    2.3746 C   0  0  0  0  0  0  0  0  0  0  0  0
   12.8740  -10.8034    2.5407 N   0  0  0  0  0  0  0  0  0  0  0  0
   12.9855   -8.4086    3.0290 C   0  0  0  0  0  0  0  0  0  0  0  0
   14.0388   -8.5923    3.9827 C   0  0  0  0  0  0  0  0  0  0  0  0
   14.9200   -8.8036    4.7734 C   0  0  0  0  0  0  0  0  0  0  0  0
   15.9870   -9.0730    5.6848 C   0  0  0  0  0  0  0  0  0  0  0  0
   16.7045   -8.0084    6.2331 C   0  0  0  0  0  0  0  0  0  0  0  0
   17.7749   -8.2634    7.0812 C   0  0  0  0  0  0  0  0  0  0  0  0
   18.1222   -9.5801    7.3815 C   0  0  0  0  0  0  0  0  0  0  0  0
   17.3910  -10.6603    6.8689 C   0  0  0  0  0  0  0  0  0  0  0  0
   17.7130  -12.0070    7.1739 N   0  0  0  0  0  0  0  0  0  0  0  0
   18.4510  -12.3855    8.2774 C   0  0  0  0  0  0  0  0  0  0  0  0
   18.7781  -11.6216    9.1813 O   0  0  0  0  0  0  0  0  0  0  0  0
   18.8068  -13.7309    8.2548 N   0  0  0  0  0  0  0  0  0  0  0  0
   19.6159  -14.2051    9.3255 C   0  0  0  0  0  0  0  0  0  0  0  0
   19.2718  -13.9248   10.6533 C   0  0  0  0  0  0  0  0  0  0  0  0
   20.1861  -14.1400   11.6902 C   0  0  0  0  0  0  0  0  0  0  0  0
   19.8621  -13.6853   13.0831 C   0  0  0  0  0  0  0  0  0  0  0  0
   21.4389  -14.6883   11.3883 C   0  0  0  0  0  0  0  0  0  0  0  0
   21.7562  -15.0460   10.0739 C   0  0  0  0  0  0  0  0  0  0  0  0
   20.8376  -14.8173    9.0526 C   0  0  0  0  0  0  0  0  0  0  0  0
   21.1822  -15.0892    7.7843 F   0  0  0  0  0  0  0  0  0  0  0  0
   16.3249  -10.3971    6.0041 C   0  0  0  0  0  0  0  0  0  0  0  0
   12.5156   -7.1243    2.7389 C   0  0  0  0  0  0  0  0  0  0  0  0
    1.1349   -8.8058   -2.6470 H   0  0  0  0  0  0  0  0  0  0  0  0
    2.2104   -8.2880   -3.9612 H   0  0  0  0  0  0  0  0  0  0  0  0
    1.1818   -7.0887   -3.0961 H   0  0  0  0  0  0  0  0  0  0  0  0
    5.2607   -7.6704   -1.1733 H   0  0  0  0  0  0  0  0  0  0  0  0
    4.2351   -6.4911   -0.3103 H   0  0  0  0  0  0  0  0  0  0  0  0
    5.2319   -4.6451   -1.6723 H   0  0  0  0  0  0  0  0  0  0  0  0
    6.2400   -5.8065   -2.5280 H   0  0  0  0  0  0  0  0  0  0  0  0
    7.3385   -6.4420   -0.3534 H   0  0  0  0  0  0  0  0  0  0  0  0
    6.3410   -5.2603    0.4872 H   0  0  0  0  0  0  0  0  0  0  0  0
    7.3316   -3.4234   -0.9175 H   0  0  0  0  0  0  0  0  0  0  0  0
    8.3648   -4.6143   -1.7383 H   0  0  0  0  0  0  0  0  0  0  0  0
    9.4009   -1.9667   -0.2730 H   0  0  0  0  0  0  0  0  0  0  0  0
   10.4471   -3.1353   -1.1392 H   0  0  0  0  0  0  0  0  0  0  0  0
   10.8503   -2.6186    0.5282 H   0  0  0  0  0  0  0  0  0  0  0  0
   10.1396   -8.0542    0.5084 H   0  0  0  0  0  0  0  0  0  0  0  0
   12.2506  -11.4236    2.0365 H   0  0  0  0  0  0  0  0  0  0  0  0
   12.9749  -11.0510    3.5183 H   0  0  0  0  0  0  0  0  0  0  0  0
   16.4449   -6.9798    5.9964 H   0  0  0  0  0  0  0  0  0  0  0  0
   18.3501   -7.4458    7.5076 H   0  0  0  0  0  0  0  0  0  0  0  0
   18.9859   -9.7299    8.0236 H   0  0  0  0  0  0  0  0  0  0  0  0
   17.1748  -12.7359    6.7282 H   0  0  0  0  0  0  0  0  0  0  0  0
   19.0839  -14.0622    7.3380 H   0  0  0  0  0  0  0  0  0  0  0  0
   18.3110  -13.4618   10.8718 H   0  0  0  0  0  0  0  0  0  0  0  0
   18.8145  -13.3759   13.1698 H   0  0  0  0  0  0  0  0  0  0  0  0
   20.4869  -12.8261   13.3489 H   0  0  0  0  0  0  0  0  0  0  0  0
   20.0308  -14.4935   13.8004 H   0  0  0  0  0  0  0  0  0  0  0  0
   22.1824  -14.8119   12.1728 H   0  0  0  0  0  0  0  0  0  0  0  0
   22.7352  -15.4489    9.8355 H   0  0  0  0  0  0  0  0  0  0  0  0
   15.7427  -11.2117    5.5836 H   0  0  0  0  0  0  0  0  0  0  0  0
   12.9579   -6.2564    3.2234 H   0  0  0  0  0  0  0  0  0  0  0  0
  1  2  1  0  0  0  0
  1 42  1  0  0  0  0
  1 43  1  0  0  0  0
  1 44  1  0  0  0  0
  2  3  1  0  0  0  0
  3  4  2  0  0  0  0
  3  5  1  0  0  0  0
  5  6  1  0  0  0  0
  5 45  1  0  0  0  0
  5 46  1  0  0  0  0
  6  7  1  0  0  0  0
  6 47  1  0  0  0  0
  6 48  1  0  0  0  0
  7  8  1  0  0  0  0
  7 49  1  0  0  0  0
  7 50  1  0  0  0  0
  8  9  1  0  0  0  0
  8 51  1  0  0  0  0
  8 52  1  0  0  0  0
  9 10  1  0  0  0  0
  9 11  2  0  0  0  0
  9 12  2  0  0  0  0
 10 53  1  0  0  0  0
 10 54  1  0  0  0  0
 10 55  1  0  0  0  0
 12 13  1  0  0  0  0
 13 14  2  0  0  0  0
 13 15  1  0  0  0  0
 15 16  1  0  0  0  0
 15 41  2  0  0  0  0
 16 17  2  0  0  0  0
 16 56  1  0  0  0  0
 17 18  1  0  0  0  0
 18 19  1  0  0  0  0
 18 20  2  0  0  0  0
 19 57  1  0  0  0  0
 19 58  1  0  0  0  0
 20 21  1  0  0  0  0
 20 41  1  0  0  0  0
 21 22  3  0  0  0  0
 22 23  1  0  0  0  0
 23 24  1  0  0  0  0
 23 40  2  0  0  0  0
 24 25  2  0  0  0  0
 24 59  1  0  0  0  0
 25 26  1  0  0  0  0
 25 60  1  0  0  0  0
 26 27  2  0  0  0  0
 26 61  1  0  0  0  0
 27 28  1  0  0  0  0
 27 40  1  0  0  0  0
 28 29  1  0  0  0  0
 28 62  1  0  0  0  0
 29 30  2  0  0  0  0
 29 31  1  0  0  0  0
 31 32  1  0  0  0  0
 31 63  1  0  0  0  0
 32 33  1  0  0  0  0
 32 38  2  0  0  0  0
 33 34  2  0  0  0  0
 33 64  1  0  0  0  0
 34 35  1  0  0  0  0
 34 36  1  0  0  0  0
 35 65  1  0  0  0  0
 35 66  1  0  0  0  0
 35 67  1  0  0  0  0
 36 37  2  0  0  0  0
 36 68  1  0  0  0  0
 37 38  1  0  0  0  0
 37 69  1  0  0  0  0
 38 39  1  0  0  0  0
 40 70  1  0  0  0  0
 41 71  1  0  0  0  0
M  END
$$$$
