CHEMBL246152
 OpenBabel04072215363D

 55 58  0  0  0  0  0  0  0  0999 V2000
   13.7345   -4.4019    4.5700 C   0  0  0  0  0  0  0  0  0  0  0  0
   12.4898   -5.0684    4.2701 N   0  0  0  0  0  0  0  0  0  0  0  0
   11.7216   -4.5223    3.2522 C   0  0  0  0  0  0  0  0  0  0  0  0
   12.2739   -3.7998    2.2951 N   0  0  0  0  0  0  0  0  0  0  0  0
   11.4364   -3.3834    1.3531 C   0  0  0  0  0  0  0  0  0  0  0  0
   10.1244   -3.6179    1.2884 N   0  0  0  0  0  0  0  0  0  0  0  0
    9.6659   -4.3566    2.2914 C   0  0  0  0  0  0  0  0  0  0  0  0
    8.2691   -4.8192    2.2905 C   0  0  0  0  0  0  0  0  0  0  0  0
    7.9642   -6.0337    2.9558 C   0  0  0  0  0  0  0  0  0  0  0  0
    6.6756   -6.5538    2.9956 C   0  0  0  0  0  0  0  0  0  0  0  0
    5.6748   -5.8121    2.4186 C   0  0  0  0  0  0  0  0  0  0  0  0
    5.8935   -4.6350    1.8071 N   0  0  0  0  0  0  0  0  0  0  0  0
    7.1817   -4.1927    1.6711 C   0  0  0  0  0  0  0  0  0  0  0  0
    7.3678   -3.0959    0.8172 O   0  0  0  0  0  0  0  0  0  0  0  0
    6.4555   -2.9918   -0.2336 C   0  0  0  0  0  0  0  0  0  0  0  0
    6.0535   -4.1404   -0.9394 C   0  0  0  0  0  0  0  0  0  0  0  0
    4.9997   -4.1103   -1.8517 C   0  0  0  0  0  0  0  0  0  0  0  0
    4.4989   -5.2709   -2.4913 N   0  0  0  0  0  0  0  0  0  0  0  0
    5.1120   -6.5148   -2.5064 C   0  0  0  0  0  0  0  0  0  0  0  0
    6.1888   -6.8122   -2.0003 O   0  0  0  0  0  0  0  0  0  0  0  0
    4.4309   -7.5696   -3.3034 C   0  0  0  0  0  0  0  0  0  0  0  0
    5.2405   -8.4773   -3.9971 C   0  0  0  0  0  0  0  0  0  0  0  0
    4.6654   -9.4446   -4.8158 C   0  0  0  0  0  0  0  0  0  0  0  0
    3.2770   -9.5379   -4.9142 C   0  0  0  0  0  0  0  0  0  0  0  0
    2.4605   -8.7134   -4.1387 C   0  0  0  0  0  0  0  0  0  0  0  0
    1.1003   -8.7695   -4.0887 O   0  0  0  0  0  0  0  0  0  0  0  0
    0.4409  -10.0157   -4.2940 C   0  0  0  0  0  0  0  0  0  0  0  0
    1.2633  -11.0841   -4.3405 F   0  0  0  0  0  0  0  0  0  0  0  0
   -0.4271  -10.2128   -3.2761 F   0  0  0  0  0  0  0  0  0  0  0  0
   -0.2648   -9.9598   -5.4439 F   0  0  0  0  0  0  0  0  0  0  0  0
    3.0394   -7.6998   -3.3616 C   0  0  0  0  0  0  0  0  0  0  0  0
    4.3927   -2.8819   -2.1198 C   0  0  0  0  0  0  0  0  0  0  0  0
    4.8764   -1.7074   -1.5261 C   0  0  0  0  0  0  0  0  0  0  0  0
    5.9198   -1.7455   -0.5834 C   0  0  0  0  0  0  0  0  0  0  0  0
    6.4378   -0.4578   -0.0102 C   0  0  0  0  0  0  0  0  0  0  0  0
   10.4271   -4.8069    3.3011 N   0  0  0  0  0  0  0  0  0  0  0  0
   14.2323   -4.9232    5.3949 H   0  0  0  0  0  0  0  0  0  0  0  0
   13.5707   -3.3651    4.8814 H   0  0  0  0  0  0  0  0  0  0  0  0
   14.4191   -4.4235    3.7156 H   0  0  0  0  0  0  0  0  0  0  0  0
   11.8804   -5.2620    5.0541 H   0  0  0  0  0  0  0  0  0  0  0  0
   11.8605   -2.7934    0.5462 H   0  0  0  0  0  0  0  0  0  0  0  0
    8.7609   -6.6087    3.4278 H   0  0  0  0  0  0  0  0  0  0  0  0
    6.4696   -7.5091    3.4633 H   0  0  0  0  0  0  0  0  0  0  0  0
    4.6468   -6.1601    2.4061 H   0  0  0  0  0  0  0  0  0  0  0  0
    6.5331   -5.0802   -0.6915 H   0  0  0  0  0  0  0  0  0  0  0  0
    3.6762   -5.1411   -3.0634 H   0  0  0  0  0  0  0  0  0  0  0  0
    6.3247   -8.4185   -3.9124 H   0  0  0  0  0  0  0  0  0  0  0  0
    5.3008  -10.1256   -5.3771 H   0  0  0  0  0  0  0  0  0  0  0  0
    2.8678  -10.2756   -5.5993 H   0  0  0  0  0  0  0  0  0  0  0  0
    2.3976   -7.0469   -2.7756 H   0  0  0  0  0  0  0  0  0  0  0  0
    3.5573   -2.8108   -2.8105 H   0  0  0  0  0  0  0  0  0  0  0  0
    4.4220   -0.7577   -1.8022 H   0  0  0  0  0  0  0  0  0  0  0  0
    5.8295    0.3927   -0.3295 H   0  0  0  0  0  0  0  0  0  0  0  0
    7.4587   -0.2767   -0.3617 H   0  0  0  0  0  0  0  0  0  0  0  0
    6.4233   -0.4773    1.0846 H   0  0  0  0  0  0  0  0  0  0  0  0
  1  2  1  0  0  0  0
  1 37  1  0  0  0  0
  1 38  1  0  0  0  0
  1 39  1  0  0  0  0
  2  3  1  0  0  0  0
  2 40  1  0  0  0  0
  3  4  1  0  0  0  0
  3 36  2  0  0  0  0
  4  5  2  0  0  0  0
  5  6  1  0  0  0  0
  5 41  1  0  0  0  0
  6  7  2  0  0  0  0
  7  8  1  0  0  0  0
  7 36  1  0  0  0  0
  8  9  1  0  0  0  0
  8 13  2  0  0  0  0
  9 10  2  0  0  0  0
  9 42  1  0  0  0  0
 10 11  1  0  0  0  0
 10 43  1  0  0  0  0
 11 12  2  0  0  0  0
 11 44  1  0  0  0  0
 12 13  1  0  0  0  0
 13 14  1  0  0  0  0
 14 15  1  0  0  0  0
 15 16  1  0  0  0  0
 15 34  2  0  0  0  0
 16 17  2  0  0  0  0
 16 45  1  0  0  0  0
 17 18  1  0  0  0  0
 17 32  1  0  0  0  0
 18 19  1  0  0  0  0
 18 46  1  0  0  0  0
 19 20  2  0  0  0  0
 19 21  1  0  0  0  0
 21 22  1  0  0  0  0
 21 31  2  0  0  0  0
 22 23  2  0  0  0  0
 22 47  1  0  0  0  0
 23 24  1  0  0  0  0
 23 48  1  0  0  0  0
 24 25  2  0  0  0  0
 24 49  1  0  0  0  0
 25 26  1  0  0  0  0
 25 31  1  0  0  0  0
 26 27  1  0  0  0  0
 27 28  1  0  0  0  0
 27 29  1  0  0  0  0
 27 30  1  0  0  0  0
 31 50  1  0  0  0  0
 32 33  2  0  0  0  0
 32 51  1  0  0  0  0
 33 34  1  0  0  0  0
 33 52  1  0  0  0  0
 34 35  1  0  0  0  0
 35 53  1  0  0  0  0
 35 54  1  0  0  0  0
 35 55  1  0  0  0  0
M  END
$$$$
