CHEMBL4449964
 OpenBabel04072215383D

 71 75  0  0  0  0  0  0  0  0999 V2000
    4.8526    1.5392   -0.2968 C   0  0  0  0  0  0  0  0  0  0  0  0
    5.2354    0.3450   -0.9750 O   0  0  0  0  0  0  0  0  0  0  0  0
    5.3423   -0.7888   -0.2142 C   0  0  0  0  0  0  0  0  0  0  0  0
    4.9048   -0.9227    1.0975 C   0  0  0  0  0  0  0  0  0  0  0  0
    4.9497   -2.1701    1.7362 C   0  0  0  0  0  0  0  0  0  0  0  0
    5.3210   -3.3501    1.0478 C   0  0  0  0  0  0  0  0  0  0  0  0
    4.6991   -4.7065    1.5340 C   0  0  0  0  0  0  0  0  0  0  0  0
    3.3666   -4.4935    1.9044 C   0  0  0  0  0  0  0  0  0  0  0  0
    2.5946   -4.1274    0.8019 C   0  0  0  0  0  0  0  0  0  0  0  0
    1.8126   -2.9560    0.8137 C   0  0  0  0  0  0  0  0  0  0  0  0
    1.5934   -2.3016   -0.3964 C   0  0  0  0  0  0  0  0  0  0  0  0
    1.1817   -1.0102   -0.5632 O   0  0  0  0  0  0  0  0  0  0  0  0
    0.4304   -0.4033    0.4717 C   0  0  0  0  0  0  0  0  0  0  0  0
    1.9815   -2.9132   -1.5913 C   0  0  0  0  0  0  0  0  0  0  0  0
    2.6007   -4.1540   -1.6016 C   0  0  0  0  0  0  0  0  0  0  0  0
    2.9931   -4.7322   -0.4102 C   0  0  0  0  0  0  0  0  0  0  0  0
    3.9038   -5.7184   -0.4196 N   0  0  0  0  0  0  0  0  0  0  0  0
    4.7102   -5.7942    0.6609 C   0  0  0  0  0  0  0  0  0  0  0  0
    5.2511   -7.0362    1.0693 N   0  0  0  0  0  0  0  0  0  0  0  0
    5.2823   -8.2594    0.3575 C   0  0  0  0  0  0  0  0  0  0  0  0
    6.2091   -9.2366    0.7309 C   0  0  0  0  0  0  0  0  0  0  0  0
    6.3778  -10.4070   -0.0258 C   0  0  0  0  0  0  0  0  0  0  0  0
    5.6116  -10.6504   -1.1631 C   0  0  0  0  0  0  0  0  0  0  0  0
    5.8600  -11.7114   -2.0702 N   0  0  0  0  0  0  0  0  0  0  0  0
    6.9681  -12.5372   -2.0655 C   0  0  0  0  0  0  0  0  0  0  0  0
    7.8217  -12.5952   -1.1799 O   0  0  0  0  0  0  0  0  0  0  0  0
    7.0962  -13.4816   -3.2671 C   0  0  0  0  0  0  0  0  0  0  0  0
    6.5812  -12.9456   -4.5449 N   0  0  0  0  0  0  0  0  0  0  0  0
    7.2750  -11.7065   -4.9684 C   0  0  0  0  0  0  0  0  0  0  0  0
    6.7214  -11.2226   -6.3315 C   0  0  0  0  0  0  0  0  0  0  0  0
    6.8800  -12.1877   -7.4361 N   0  0  0  0  0  0  0  0  0  0  0  0
    8.2641  -12.2486   -7.8993 C   0  0  0  0  0  0  0  0  0  0  0  0
    6.3793  -13.5102   -7.0111 C   0  0  0  0  0  0  0  0  0  0  0  0
    6.8246  -13.9681   -5.6006 C   0  0  0  0  0  0  0  0  0  0  0  0
    4.5664   -9.7649   -1.4447 C   0  0  0  0  0  0  0  0  0  0  0  0
    4.3955   -8.6009   -0.6735 C   0  0  0  0  0  0  0  0  0  0  0  0
    5.8969   -3.1721   -0.2276 C   0  0  0  0  0  0  0  0  0  0  0  0
    5.8907   -1.9057   -0.8504 C   0  0  0  0  0  0  0  0  0  0  0  0
    4.7358    2.3354   -1.0392 H   0  0  0  0  0  0  0  0  0  0  0  0
    5.6393    1.8421    0.4015 H   0  0  0  0  0  0  0  0  0  0  0  0
    3.8889    1.4409    0.2153 H   0  0  0  0  0  0  0  0  0  0  0  0
    4.4274   -0.1057    1.6270 H   0  0  0  0  0  0  0  0  0  0  0  0
    4.4981   -2.2373    2.7254 H   0  0  0  0  0  0  0  0  0  0  0  0
    2.9062   -5.1779    2.6241 H   0  0  0  0  0  0  0  0  0  0  0  0
    1.6048   -2.4667    1.7611 H   0  0  0  0  0  0  0  0  0  0  0  0
    0.2806    0.6429    0.1843 H   0  0  0  0  0  0  0  0  0  0  0  0
    0.9477   -0.4020    1.4349 H   0  0  0  0  0  0  0  0  0  0  0  0
   -0.5513   -0.8784    0.5431 H   0  0  0  0  0  0  0  0  0  0  0  0
    1.8815   -2.3701   -2.5260 H   0  0  0  0  0  0  0  0  0  0  0  0
    2.9684   -4.5827   -2.5294 H   0  0  0  0  0  0  0  0  0  0  0  0
    6.1024   -6.8854    1.5988 H   0  0  0  0  0  0  0  0  0  0  0  0
    6.8524   -9.0893    1.5952 H   0  0  0  0  0  0  0  0  0  0  0  0
    7.1490  -11.0964    0.3002 H   0  0  0  0  0  0  0  0  0  0  0  0
    5.2818  -11.7677   -2.9031 H   0  0  0  0  0  0  0  0  0  0  0  0
    6.5381  -14.3918   -2.9985 H   0  0  0  0  0  0  0  0  0  0  0  0
    8.1538  -13.7485   -3.3574 H   0  0  0  0  0  0  0  0  0  0  0  0
    8.3597  -11.8618   -5.0313 H   0  0  0  0  0  0  0  0  0  0  0  0
    7.1118  -10.9014   -4.2454 H   0  0  0  0  0  0  0  0  0  0  0  0
    7.1764  -10.2614   -6.5988 H   0  0  0  0  0  0  0  0  0  0  0  0
    5.6482  -11.0161   -6.2165 H   0  0  0  0  0  0  0  0  0  0  0  0
    8.6031  -11.2549   -8.2145 H   0  0  0  0  0  0  0  0  0  0  0  0
    8.3423  -12.8941   -8.7810 H   0  0  0  0  0  0  0  0  0  0  0  0
    8.9600  -12.6213   -7.1414 H   0  0  0  0  0  0  0  0  0  0  0  0
    6.6560  -14.2759   -7.7470 H   0  0  0  0  0  0  0  0  0  0  0  0
    5.2824  -13.4718   -7.0246 H   0  0  0  0  0  0  0  0  0  0  0  0
    7.8919  -14.2294   -5.6376 H   0  0  0  0  0  0  0  0  0  0  0  0
    6.2801  -14.8867   -5.3507 H   0  0  0  0  0  0  0  0  0  0  0  0
    3.8936   -9.9369   -2.2771 H   0  0  0  0  0  0  0  0  0  0  0  0
    3.5664   -7.9482   -0.9292 H   0  0  0  0  0  0  0  0  0  0  0  0
    6.2096   -4.0262   -0.8264 H   0  0  0  0  0  0  0  0  0  0  0  0
    6.2425   -1.8119   -1.8762 H   0  0  0  0  0  0  0  0  0  0  0  0
  1  2  1  0  0  0  0
  1 39  1  0  0  0  0
  1 40  1  0  0  0  0
  1 41  1  0  0  0  0
  2  3  1  0  0  0  0
  3  4  1  0  0  0  0
  3 38  2  0  0  0  0
  4  5  2  0  0  0  0
  4 42  1  0  0  0  0
  5  6  1  0  0  0  0
  5 43  1  0  0  0  0
  6  7  1  0  0  0  0
  6 37  2  0  0  0  0
  7  8  1  0  0  0  0
  7 18  2  0  0  0  0
  8  9  2  0  0  0  0
  8 44  1  0  0  0  0
  9 10  1  0  0  0  0
  9 16  1  0  0  0  0
 10 11  2  0  0  0  0
 10 45  1  0  0  0  0
 11 12  1  0  0  0  0
 11 14  1  0  0  0  0
 12 13  1  0  0  0  0
 13 46  1  0  0  0  0
 13 47  1  0  0  0  0
 13 48  1  0  0  0  0
 14 15  2  0  0  0  0
 14 49  1  0  0  0  0
 15 16  1  0  0  0  0
 15 50  1  0  0  0  0
 16 17  2  0  0  0  0
 17 18  1  0  0  0  0
 18 19  1  0  0  0  0
 19 20  1  0  0  0  0
 19 51  1  0  0  0  0
 20 21  1  0  0  0  0
 20 36  2  0  0  0  0
 21 22  2  0  0  0  0
 21 52  1  0  0  0  0
 22 23  1  0  0  0  0
 22 53  1  0  0  0  0
 23 24  1  0  0  0  0
 23 35  2  0  0  0  0
 24 25  1  0  0  0  0
 24 54  1  0  0  0  0
 25 26  2  0  0  0  0
 25 27  1  0  0  0  0
 27 28  1  0  0  0  0
 27 55  1  0  0  0  0
 27 56  1  0  0  0  0
 28 29  1  0  0  0  0
 28 34  1  0  0  0  0
 29 30  1  0  0  0  0
 29 57  1  0  0  0  0
 29 58  1  0  0  0  0
 30 31  1  0  0  0  0
 30 59  1  0  0  0  0
 30 60  1  0  0  0  0
 31 32  1  0  0  0  0
 31 33  1  0  0  0  0
 32 61  1  0  0  0  0
 32 62  1  0  0  0  0
 32 63  1  0  0  0  0
 33 34  1  0  0  0  0
 33 64  1  0  0  0  0
 33 65  1  0  0  0  0
 34 66  1  0  0  0  0
 34 67  1  0  0  0  0
 35 36  1  0  0  0  0
 35 68  1  0  0  0  0
 36 69  1  0  0  0  0
 37 38  1  0  0  0  0
 37 70  1  0  0  0  0
 38 71  1  0  0  0  0
M  END
$$$$
