CHEMBL4171943
 OpenBabel04072215383D

 45 47  0  0  0  0  0  0  0  0999 V2000
    0.9019    0.3302   -0.6668 C   0  0  0  0  0  0  0  0  0  0  0  0
    2.2114    0.0978   -0.5182 C   0  0  0  0  0  0  0  0  0  0  0  0
    2.9628   -0.6242   -1.5791 C   0  0  0  0  0  0  0  0  0  0  0  0
    2.4621   -0.8457   -2.6719 O   0  0  0  0  0  0  0  0  0  0  0  0
    4.2028   -1.0511   -1.1513 N   0  0  0  0  0  0  0  0  0  0  0  0
    5.0317   -1.8409   -1.9484 C   0  0  0  0  0  0  0  0  0  0  0  0
    5.1691   -1.6091   -3.3070 C   0  0  0  0  0  0  0  0  0  0  0  0
    5.9135   -2.5069   -4.0652 C   0  0  0  0  0  0  0  0  0  0  0  0
    6.5008   -3.6324   -3.4701 C   0  0  0  0  0  0  0  0  0  0  0  0
    7.2234   -4.6350   -4.2784 C   0  0  0  0  0  0  0  0  0  0  0  0
    7.9900   -4.2321   -5.3753 C   0  0  0  0  0  0  0  0  0  0  0  0
    8.6201   -5.1579   -6.2062 C   0  0  0  0  0  0  0  0  0  0  0  0
    8.5397   -6.5260   -5.9672 C   0  0  0  0  0  0  0  0  0  0  0  0
    9.1410   -7.5015   -6.8050 N   0  0  0  0  0  0  0  0  0  0  0  0
    9.9740   -7.2146   -7.8739 C   0  0  0  0  0  0  0  0  0  0  0  0
   10.4009   -6.0976   -8.1557 O   0  0  0  0  0  0  0  0  0  0  0  0
   10.2508   -8.3377   -8.6473 N   0  0  0  0  0  0  0  0  0  0  0  0
   11.0455   -8.1944   -9.8134 C   0  0  0  0  0  0  0  0  0  0  0  0
   12.2278   -7.4401   -9.7996 C   0  0  0  0  0  0  0  0  0  0  0  0
   12.9235   -7.1935  -10.9836 C   0  0  0  0  0  0  0  0  0  0  0  0
   12.4330   -7.7048  -12.1760 C   0  0  0  0  0  0  0  0  0  0  0  0
   13.0694   -7.4314  -13.3215 F   0  0  0  0  0  0  0  0  0  0  0  0
   11.2821   -8.4874  -12.2003 C   0  0  0  0  0  0  0  0  0  0  0  0
   10.5963   -8.7565  -11.0107 C   0  0  0  0  0  0  0  0  0  0  0  0
    7.7980   -6.9518   -4.8593 C   0  0  0  0  0  0  0  0  0  0  0  0
    7.1469   -6.0182   -4.0313 C   0  0  0  0  0  0  0  0  0  0  0  0
    6.3478   -3.7267   -2.0877 C   0  0  0  0  0  0  0  0  0  0  0  0
    5.6643   -2.8427   -1.3104 N   0  0  0  0  0  0  0  0  0  0  0  0
    0.3416    0.8828    0.0827 H   0  0  0  0  0  0  0  0  0  0  0  0
    0.3575   -0.0219   -1.5391 H   0  0  0  0  0  0  0  0  0  0  0  0
    2.7513    0.4545    0.3496 H   0  0  0  0  0  0  0  0  0  0  0  0
    4.3611   -1.1660   -0.1622 H   0  0  0  0  0  0  0  0  0  0  0  0
    4.7028   -0.7533   -3.7861 H   0  0  0  0  0  0  0  0  0  0  0  0
    5.9931   -2.3284   -5.1356 H   0  0  0  0  0  0  0  0  0  0  0  0
    8.1084   -3.1748   -5.6181 H   0  0  0  0  0  0  0  0  0  0  0  0
    9.1645   -4.7408   -7.0542 H   0  0  0  0  0  0  0  0  0  0  0  0
    9.0438   -8.4658   -6.5408 H   0  0  0  0  0  0  0  0  0  0  0  0
    9.4906   -9.0006   -8.7011 H   0  0  0  0  0  0  0  0  0  0  0  0
   12.6002   -7.0090   -8.8732 H   0  0  0  0  0  0  0  0  0  0  0  0
   13.8210   -6.5836  -10.9796 H   0  0  0  0  0  0  0  0  0  0  0  0
   10.9101   -8.8569  -13.1501 H   0  0  0  0  0  0  0  0  0  0  0  0
    9.6778   -9.3329  -11.0509 H   0  0  0  0  0  0  0  0  0  0  0  0
    7.6965   -8.0099   -4.6320 H   0  0  0  0  0  0  0  0  0  0  0  0
    6.5491   -6.3967   -3.2044 H   0  0  0  0  0  0  0  0  0  0  0  0
    6.7803   -4.5544   -1.5313 H   0  0  0  0  0  0  0  0  0  0  0  0
  1  2  2  0  0  0  0
  1 29  1  0  0  0  0
  1 30  1  0  0  0  0
  2  3  1  0  0  0  0
  2 31  1  0  0  0  0
  3  4  2  0  0  0  0
  3  5  1  0  0  0  0
  5  6  1  0  0  0  0
  5 32  1  0  0  0  0
  6  7  1  0  0  0  0
  6 28  2  0  0  0  0
  7  8  2  0  0  0  0
  7 33  1  0  0  0  0
  8  9  1  0  0  0  0
  8 34  1  0  0  0  0
  9 10  1  0  0  0  0
  9 27  2  0  0  0  0
 10 11  1  0  0  0  0
 10 26  2  0  0  0  0
 11 12  2  0  0  0  0
 11 35  1  0  0  0  0
 12 13  1  0  0  0  0
 12 36  1  0  0  0  0
 13 14  1  0  0  0  0
 13 25  2  0  0  0  0
 14 15  1  0  0  0  0
 14 37  1  0  0  0  0
 15 16  2  0  0  0  0
 15 17  1  0  0  0  0
 17 18  1  0  0  0  0
 17 38  1  0  0  0  0
 18 19  1  0  0  0  0
 18 24  2  0  0  0  0
 19 20  2  0  0  0  0
 19 39  1  0  0  0  0
 20 21  1  0  0  0  0
 20 40  1  0  0  0  0
 21 22  1  0  0  0  0
 21 23  2  0  0  0  0
 23 24  1  0  0  0  0
 23 41  1  0  0  0  0
 24 42  1  0  0  0  0
 25 26  1  0  0  0  0
 25 43  1  0  0  0  0
 26 44  1  0  0  0  0
 27 28  1  0  0  0  0
 27 45  1  0  0  0  0
M  END
$$$$
