CHEMBL3660290
 OpenBabel04072215373D

 63 66  0  0  1  0  0  0  0  0999 V2000
   -9.3871   16.3226    2.2375 C   0  0  0  0  0  0  0  0  0  0  0  0
   -8.9656   15.0837    1.5016 C   0  0  0  0  0  0  0  0  0  0  0  0
   -8.5899   15.1716    0.1576 C   0  0  0  0  0  0  0  0  0  0  0  0
   -8.1648   14.0363   -0.5184 C   0  0  0  0  0  0  0  0  0  0  0  0
   -8.1255   12.8079    0.1332 C   0  0  0  0  0  0  0  0  0  0  0  0
   -7.5720   11.8011   -0.5535 F   0  0  0  0  0  0  0  0  0  0  0  0
   -8.5569   12.6661    1.4616 C   0  0  0  0  0  0  0  0  0  0  0  0
   -8.6292   11.4302    2.1595 N   0  0  0  0  0  0  0  0  0  0  0  0
   -8.6556   10.1798    1.5642 C   0  0  0  0  0  0  0  0  0  0  0  0
   -8.6624    9.9631    0.3577 O   0  0  0  0  0  0  0  0  0  0  0  0
   -8.7656    9.1512    2.4958 N   0  0  0  0  0  0  0  0  0  0  0  0
   -8.7994    7.8199    2.0157 C   0  0  0  0  0  0  0  0  0  0  0  0
   -7.7770    7.3176    1.1993 C   0  0  0  0  0  0  0  0  0  0  0  0
   -7.8708    6.0294    0.6657 C   0  0  0  0  0  0  0  0  0  0  0  0
   -8.9936    5.2492    0.9297 C   0  0  0  0  0  0  0  0  0  0  0  0
   -9.0267    3.9939    0.3595 O   0  0  0  0  0  0  0  0  0  0  0  0
   -9.6860    2.9844    1.0248 C   0  0  0  0  0  0  0  0  0  0  0  0
   -9.6689    2.8393    2.4111 C   0  0  0  0  0  0  0  0  0  0  0  0
  -10.4255    1.8290    2.9700 C   0  0  0  0  0  0  0  0  0  0  0  0
  -11.1286    0.9290    2.2516 N   0  0  0  0  0  0  0  0  0  0  0  0
  -11.0701    1.0498    0.8989 C   0  0  0  0  0  0  0  0  0  0  0  0
  -11.8061    0.0173    0.1802 C   0  0  0  0  0  0  0  0  0  0  0  0
  -11.9694   -0.2210   -1.1712 C   0  0  0  0  0  0  0  0  0  0  0  0
  -12.7650   -1.3922   -1.3405 C   0  0  0  0  0  0  0  0  0  0  0  0
  -13.1290   -2.0430   -2.5888 C   0  0  0  0  0  0  0  0  0  0  0  0
  -13.7634   -3.0901   -2.6616 O   0  0  0  0  0  0  0  0  0  0  0  0
  -12.6067   -1.3801   -3.6639 O   0  0  0  0  0  0  0  0  0  0  0  0
  -12.4632   -2.1665   -4.8544 C   0  0  0  0  0  0  0  0  0  0  0  0
  -11.1127   -2.8952   -4.8029 C   0  0  3  0  0  0  0  0  0  0  0  0
  -11.0358   -3.7747   -3.6740 O   0  0  0  0  0  0  0  0  0  0  0  0
  -10.8608   -3.6891   -6.0870 C   0  0  0  0  0  0  0  0  0  0  0  0
   -9.6009   -4.3569   -6.0604 O   0  0  0  0  0  0  0  0  0  0  0  0
  -13.0737   -1.8337   -0.0673 C   0  0  0  0  0  0  0  0  0  0  0  0
  -12.4857   -0.9876    0.8351 N   0  0  0  0  0  0  0  0  0  0  0  0
  -10.3681    2.0557    0.2491 C   0  0  0  0  0  0  0  0  0  0  0  0
  -10.0353    5.7745    1.7056 C   0  0  0  0  0  0  0  0  0  0  0  0
   -9.9144    7.0343    2.2936 C   0  0  0  0  0  0  0  0  0  0  0  0
   -8.9469   13.8301    2.1474 C   0  0  0  0  0  0  0  0  0  0  0  0
   -9.3247   17.2081    1.5935 H   0  0  0  0  0  0  0  0  0  0  0  0
   -8.7317   16.4940    3.0968 H   0  0  0  0  0  0  0  0  0  0  0  0
  -10.4228   16.2313    2.5772 H   0  0  0  0  0  0  0  0  0  0  0  0
   -8.6051   16.1244   -0.3670 H   0  0  0  0  0  0  0  0  0  0  0  0
   -7.8415   14.0907   -1.5532 H   0  0  0  0  0  0  0  0  0  0  0  0
   -8.8139   11.4691    3.1506 H   0  0  0  0  0  0  0  0  0  0  0  0
   -9.4165    9.3589    3.2395 H   0  0  0  0  0  0  0  0  0  0  0  0
   -6.9125    7.9328    0.9604 H   0  0  0  0  0  0  0  0  0  0  0  0
   -7.0739    5.6503    0.0277 H   0  0  0  0  0  0  0  0  0  0  0  0
   -9.1106    3.5158    3.0479 H   0  0  0  0  0  0  0  0  0  0  0  0
  -10.4967    1.7207    4.0481 H   0  0  0  0  0  0  0  0  0  0  0  0
  -11.5384    0.3662   -1.9720 H   0  0  0  0  0  0  0  0  0  0  0  0
  -12.4839   -1.4725   -5.7017 H   0  0  0  0  0  0  0  0  0  0  0  0
  -13.3029   -2.8599   -4.9760 H   0  0  0  0  0  0  0  0  0  0  0  0
  -10.3099   -2.1647   -4.6501 H   0  0  0  0  0  0  0  0  0  0  0  0
  -11.7728   -4.4118   -3.7273 H   0  0  0  0  0  0  0  0  0  0  0  0
  -10.8694   -3.0278   -6.9578 H   0  0  0  0  0  0  0  0  0  0  0  0
  -11.6282   -4.4580   -6.2206 H   0  0  0  0  0  0  0  0  0  0  0  0
   -9.0006   -3.8494   -5.4855 H   0  0  0  0  0  0  0  0  0  0  0  0
  -13.6376   -2.6959    0.2654 H   0  0  0  0  0  0  0  0  0  0  0  0
  -12.5092   -1.0721    1.8444 H   0  0  0  0  0  0  0  0  0  0  0  0
  -10.3506    2.1305   -0.8314 H   0  0  0  0  0  0  0  0  0  0  0  0
  -10.9580    5.2199    1.8441 H   0  0  0  0  0  0  0  0  0  0  0  0
  -10.7346    7.4152    2.8939 H   0  0  0  0  0  0  0  0  0  0  0  0
   -9.2649   13.7749    3.1862 H   0  0  0  0  0  0  0  0  0  0  0  0
  1  2  1  0  0  0  0
  1 39  1  0  0  0  0
  1 40  1  0  0  0  0
  1 41  1  0  0  0  0
  2  3  1  0  0  0  0
  2 38  2  0  0  0  0
  3  4  2  0  0  0  0
  3 42  1  0  0  0  0
  4  5  1  0  0  0  0
  4 43  1  0  0  0  0
  5  6  1  0  0  0  0
  5  7  2  0  0  0  0
  7  8  1  0  0  0  0
  7 38  1  0  0  0  0
  8  9  1  0  0  0  0
  8 44  1  0  0  0  0
  9 10  2  0  0  0  0
  9 11  1  0  0  0  0
 11 12  1  0  0  0  0
 11 45  1  0  0  0  0
 12 13  1  0  0  0  0
 12 37  2  0  0  0  0
 13 14  2  0  0  0  0
 13 46  1  0  0  0  0
 14 15  1  0  0  0  0
 14 47  1  0  0  0  0
 15 16  1  0  0  0  0
 15 36  2  0  0  0  0
 16 17  1  0  0  0  0
 17 18  1  0  0  0  0
 17 35  2  0  0  0  0
 18 19  2  0  0  0  0
 18 48  1  0  0  0  0
 19 20  1  0  0  0  0
 19 49  1  0  0  0  0
 20 21  2  0  0  0  0
 21 22  1  0  0  0  0
 21 35  1  0  0  0  0
 22 23  2  0  0  0  0
 22 34  1  0  0  0  0
 23 24  1  0  0  0  0
 23 50  1  0  0  0  0
 24 25  1  0  0  0  0
 24 33  2  0  0  0  0
 25 26  2  0  0  0  0
 25 27  1  0  0  0  0
 27 28  1  0  0  0  0
 28 29  1  0  0  0  0
 28 51  1  0  0  0  0
 28 52  1  0  0  0  0
 29 30  1  0  0  0  0
 29 31  1  0  0  0  0
 29 53  1  0  0  0  0
 30 54  1  0  0  0  0
 31 32  1  0  0  0  0
 31 55  1  0  0  0  0
 31 56  1  0  0  0  0
 32 57  1  0  0  0  0
 33 34  1  0  0  0  0
 33 58  1  0  0  0  0
 34 59  1  0  0  0  0
 35 60  1  0  0  0  0
 36 37  1  0  0  0  0
 36 61  1  0  0  0  0
 37 62  1  0  0  0  0
 38 63  1  0  0  0  0
M  END
$$$$
