CHEMBL2022856
 OpenBabel04072215363D

 59 63  0  0  1  0  0  0  0  0999 V2000
    3.0685   -0.7165    3.4227 C   0  0  0  0  0  0  0  0  0  0  0  0
    4.3520   -1.5309    3.3102 C   0  0  1  0  0  0  0  0  0  0  0  0
    4.0754   -2.8794    3.7082 O   0  0  0  0  0  0  0  0  0  0  0  0
    4.9535   -1.5401    1.9044 C   0  0  0  0  0  0  0  0  0  0  0  0
    5.3864   -0.2343    1.4624 N   0  0  0  0  0  0  0  0  0  0  0  0
    6.6049    0.3362    1.6850 C   0  0  0  0  0  0  0  0  0  0  0  0
    6.5773    1.5754    1.0742 C   0  0  0  0  0  0  0  0  0  0  0  0
    7.7042    2.4877    1.0620 C   0  0  0  0  0  0  0  0  0  0  0  0
    9.0030    2.0087    1.0727 C   0  0  0  0  0  0  0  0  0  0  0  0
   10.1047    2.7689    1.1125 N   0  0  0  0  0  0  0  0  0  0  0  0
    9.9930    4.1090    1.1239 C   0  0  0  0  0  0  0  0  0  0  0  0
   11.2202    4.7451    1.2199 N   0  0  0  0  0  0  0  0  0  0  0  0
    8.7116    4.7391    1.0495 C   0  0  0  0  0  0  0  0  0  0  0  0
    8.3047    6.1560    0.9706 C   0  0  0  0  0  0  0  0  0  0  0  0
    9.1453    7.3572    0.9088 C   0  0  0  0  0  0  0  0  0  0  0  0
   10.3477    7.3237    0.2156 C   0  0  0  0  0  0  0  0  0  0  0  0
   11.2524    8.3753    0.3055 C   0  0  0  0  0  0  0  0  0  0  0  0
   10.9031    9.5644    0.9373 C   0  0  0  0  0  0  0  0  0  0  0  0
   11.7819   10.6742    0.9556 N   0  0  0  0  0  0  0  0  0  0  0  0
   12.8235   10.8323    0.0600 C   0  0  0  0  0  0  0  0  0  0  0  0
   13.0334   10.1060   -0.9097 O   0  0  0  0  0  0  0  0  0  0  0  0
   13.6361   11.9036    0.3847 N   0  0  0  0  0  0  0  0  0  0  0  0
   14.7121   12.2619   -0.4595 C   0  0  0  0  0  0  0  0  0  0  0  0
   14.5753   12.2708   -1.8557 C   0  0  0  0  0  0  0  0  0  0  0  0
   15.6554   12.5895   -2.6765 C   0  0  0  0  0  0  0  0  0  0  0  0
   16.8870   12.9071   -2.1011 C   0  0  0  0  0  0  0  0  0  0  0  0
   17.0151   12.8863   -0.7152 C   0  0  0  0  0  0  0  0  0  0  0  0
   18.2098   13.1446   -0.1657 F   0  0  0  0  0  0  0  0  0  0  0  0
   15.9362   12.5920    0.1141 C   0  0  0  0  0  0  0  0  0  0  0  0
    9.6597    9.6622    1.5578 C   0  0  0  0  0  0  0  0  0  0  0  0
    8.7919    8.5566    1.5563 C   0  0  0  0  0  0  0  0  0  0  0  0
    6.9339    6.2944    0.9339 C   0  0  0  0  0  0  0  0  0  0  0  0
    6.1172    4.8227    1.0514 S   0  0  0  0  0  0  0  0  0  0  0  0
    7.5770    3.8939    1.0424 C   0  0  0  0  0  0  0  0  0  0  0  0
    5.2820    1.6392    0.5093 C   0  0  0  0  0  0  0  0  0  0  0  0
    4.5594    0.5391    0.7410 N   0  0  0  0  0  0  0  0  0  0  0  0
    2.6776   -0.7661    4.4447 H   0  0  0  0  0  0  0  0  0  0  0  0
    2.2890   -1.1179    2.7664 H   0  0  0  0  0  0  0  0  0  0  0  0
    3.2297    0.3364    3.1752 H   0  0  0  0  0  0  0  0  0  0  0  0
    5.0843   -1.1357    4.0236 H   0  0  0  0  0  0  0  0  0  0  0  0
    3.3550   -3.2171    3.1462 H   0  0  0  0  0  0  0  0  0  0  0  0
    4.2444   -1.9381    1.1692 H   0  0  0  0  0  0  0  0  0  0  0  0
    5.8269   -2.2039    1.8757 H   0  0  0  0  0  0  0  0  0  0  0  0
    7.3683   -0.1806    2.2511 H   0  0  0  0  0  0  0  0  0  0  0  0
    9.2124    0.9424    1.0543 H   0  0  0  0  0  0  0  0  0  0  0  0
   11.9475    4.0715    1.4308 H   0  0  0  0  0  0  0  0  0  0  0  0
   11.2247    5.5891    1.7746 H   0  0  0  0  0  0  0  0  0  0  0  0
   10.6377    6.4590   -0.3776 H   0  0  0  0  0  0  0  0  0  0  0  0
   12.2306    8.2142   -0.1364 H   0  0  0  0  0  0  0  0  0  0  0  0
   11.4742   11.5099    1.4345 H   0  0  0  0  0  0  0  0  0  0  0  0
   13.7578   12.0507    1.3760 H   0  0  0  0  0  0  0  0  0  0  0  0
   13.6252   12.0127   -2.3230 H   0  0  0  0  0  0  0  0  0  0  0  0
   15.5390   12.5808   -3.7571 H   0  0  0  0  0  0  0  0  0  0  0  0
   17.7435   13.1324   -2.7210 H   0  0  0  0  0  0  0  0  0  0  0  0
   16.0921   12.5597    1.1860 H   0  0  0  0  0  0  0  0  0  0  0  0
    9.3412   10.5815    2.0450 H   0  0  0  0  0  0  0  0  0  0  0  0
    7.8347    8.6526    2.0641 H   0  0  0  0  0  0  0  0  0  0  0  0
    6.3556    7.2046    0.8529 H   0  0  0  0  0  0  0  0  0  0  0  0
    4.8304    2.4309   -0.0737 H   0  0  0  0  0  0  0  0  0  0  0  0
  1  2  1  0  0  0  0
  1 37  1  0  0  0  0
  1 38  1  0  0  0  0
  1 39  1  0  0  0  0
  2  3  1  0  0  0  0
  2  4  1  0  0  0  0
  2 40  1  1  0  0  0
  3 41  1  0  0  0  0
  4  5  1  0  0  0  0
  4 42  1  0  0  0  0
  4 43  1  0  0  0  0
  5  6  1  0  0  0  0
  5 36  1  0  0  0  0
  6  7  2  0  0  0  0
  6 44  1  0  0  0  0
  7  8  1  0  0  0  0
  7 35  1  0  0  0  0
  8  9  1  0  0  0  0
  8 34  2  0  0  0  0
  9 10  2  0  0  0  0
  9 45  1  0  0  0  0
 10 11  1  0  0  0  0
 11 12  1  0  0  0  0
 11 13  2  0  0  0  0
 12 46  1  0  0  0  0
 12 47  1  0  0  0  0
 13 14  1  0  0  0  0
 13 34  1  0  0  0  0
 14 15  1  0  0  0  0
 14 32  2  0  0  0  0
 15 16  1  0  0  0  0
 15 31  2  0  0  0  0
 16 17  2  0  0  0  0
 16 48  1  0  0  0  0
 17 18  1  0  0  0  0
 17 49  1  0  0  0  0
 18 19  1  0  0  0  0
 18 30  2  0  0  0  0
 19 20  1  0  0  0  0
 19 50  1  0  0  0  0
 20 21  2  0  0  0  0
 20 22  1  0  0  0  0
 22 23  1  0  0  0  0
 22 51  1  0  0  0  0
 23 24  1  0  0  0  0
 23 29  2  0  0  0  0
 24 25  2  0  0  0  0
 24 52  1  0  0  0  0
 25 26  1  0  0  0  0
 25 53  1  0  0  0  0
 26 27  2  0  0  0  0
 26 54  1  0  0  0  0
 27 28  1  0  0  0  0
 27 29  1  0  0  0  0
 29 55  1  0  0  0  0
 30 31  1  0  0  0  0
 30 56  1  0  0  0  0
 31 57  1  0  0  0  0
 32 33  1  0  0  0  0
 32 58  1  0  0  0  0
 33 34  1  0  0  0  0
 35 36  2  0  0  0  0
 35 59  1  0  0  0  0
M  END
$$$$
