CHEMBL1996255
 OpenBabel04072215363D

 46 49  0  0  0  0  0  0  0  0999 V2000
    2.8887    0.9127   -2.2851 C   0  0  0  0  0  0  0  0  0  0  0  0
    1.4799    0.6123   -1.8617 C   0  0  0  0  0  0  0  0  0  0  0  0
    0.9918   -0.6937   -1.9614 C   0  0  0  0  0  0  0  0  0  0  0  0
   -0.2954   -0.9873   -1.5319 C   0  0  0  0  0  0  0  0  0  0  0  0
   -1.1079    0.0214   -1.0189 C   0  0  0  0  0  0  0  0  0  0  0  0
   -2.2753   -0.3824   -0.5024 F   0  0  0  0  0  0  0  0  0  0  0  0
   -0.6790    1.3584   -0.9661 C   0  0  0  0  0  0  0  0  0  0  0  0
   -1.4823    2.4523   -0.5413 N   0  0  0  0  0  0  0  0  0  0  0  0
   -2.8604    2.4500   -0.4559 C   0  0  0  0  0  0  0  0  0  0  0  0
   -3.5920    1.5048   -0.7583 O   0  0  0  0  0  0  0  0  0  0  0  0
   -3.3757    3.6819   -0.0597 N   0  0  0  0  0  0  0  0  0  0  0  0
   -4.7772    3.8154    0.1233 C   0  0  0  0  0  0  0  0  0  0  0  0
   -5.5036    2.9026    0.8913 C   0  0  0  0  0  0  0  0  0  0  0  0
   -6.9037    2.9723    0.9562 C   0  0  0  0  0  0  0  0  0  0  0  0
   -7.6212    3.9634    0.2690 C   0  0  0  0  0  0  0  0  0  0  0  0
   -9.1054    4.0190    0.2791 C   0  0  0  0  0  0  0  0  0  0  0  0
   -9.8820    3.6669    1.4101 C   0  0  0  0  0  0  0  0  0  0  0  0
   -9.2914    3.1659    2.5076 F   0  0  0  0  0  0  0  0  0  0  0  0
  -11.2649    3.8396    1.4731 C   0  0  0  0  0  0  0  0  0  0  0  0
  -11.9547    4.4417    0.4266 C   0  0  0  0  0  0  0  0  0  0  0  0
  -11.2083    4.7574   -0.7097 C   0  0  0  0  0  0  0  0  0  0  0  0
  -11.5755    5.3820   -1.8717 N   0  0  0  0  0  0  0  0  0  0  0  0
  -10.6390    5.3582   -2.8258 N   0  0  0  0  0  0  0  0  0  0  0  0
   -9.5966    4.7873   -2.2301 C   0  0  0  0  0  0  0  0  0  0  0  0
   -8.4672    4.5154   -2.9002 N   0  0  0  0  0  0  0  0  0  0  0  0
   -9.8433    4.4916   -0.8489 C   0  0  0  0  0  0  0  0  0  0  0  0
   -6.8496    4.9299   -0.4112 C   0  0  0  0  0  0  0  0  0  0  0  0
   -5.4523    4.8545   -0.5019 C   0  0  0  0  0  0  0  0  0  0  0  0
    0.6410    1.6315   -1.3647 C   0  0  0  0  0  0  0  0  0  0  0  0
    3.3969    0.0104   -2.6439 H   0  0  0  0  0  0  0  0  0  0  0  0
    3.4629    1.2995   -1.4375 H   0  0  0  0  0  0  0  0  0  0  0  0
    2.8963    1.6438   -3.0990 H   0  0  0  0  0  0  0  0  0  0  0  0
    1.6139   -1.4956   -2.3527 H   0  0  0  0  0  0  0  0  0  0  0  0
   -0.6785   -2.0022   -1.5706 H   0  0  0  0  0  0  0  0  0  0  0  0
   -1.0188    3.3412   -0.4148 H   0  0  0  0  0  0  0  0  0  0  0  0
   -2.9139    4.4732   -0.4783 H   0  0  0  0  0  0  0  0  0  0  0  0
   -4.9923    2.1073    1.4293 H   0  0  0  0  0  0  0  0  0  0  0  0
   -7.4194    2.2167    1.5455 H   0  0  0  0  0  0  0  0  0  0  0  0
  -11.7948    3.5313    2.3707 H   0  0  0  0  0  0  0  0  0  0  0  0
  -13.0215    4.6308    0.4882 H   0  0  0  0  0  0  0  0  0  0  0  0
  -12.4604    5.8300   -2.0790 H   0  0  0  0  0  0  0  0  0  0  0  0
   -8.4890    4.6029   -3.9092 H   0  0  0  0  0  0  0  0  0  0  0  0
   -7.8273    3.8018   -2.5633 H   0  0  0  0  0  0  0  0  0  0  0  0
   -7.3379    5.7528   -0.9318 H   0  0  0  0  0  0  0  0  0  0  0  0
   -4.9304    5.5715   -1.1283 H   0  0  0  0  0  0  0  0  0  0  0  0
    1.0266    2.6471   -1.3151 H   0  0  0  0  0  0  0  0  0  0  0  0
  1  2  1  0  0  0  0
  1 30  1  0  0  0  0
  1 31  1  0  0  0  0
  1 32  1  0  0  0  0
  2  3  1  0  0  0  0
  2 29  2  0  0  0  0
  3  4  2  0  0  0  0
  3 33  1  0  0  0  0
  4  5  1  0  0  0  0
  4 34  1  0  0  0  0
  5  6  1  0  0  0  0
  5  7  2  0  0  0  0
  7  8  1  0  0  0  0
  7 29  1  0  0  0  0
  8  9  1  0  0  0  0
  8 35  1  0  0  0  0
  9 10  2  0  0  0  0
  9 11  1  0  0  0  0
 11 12  1  0  0  0  0
 11 36  1  0  0  0  0
 12 13  1  0  0  0  0
 12 28  2  0  0  0  0
 13 14  2  0  0  0  0
 13 37  1  0  0  0  0
 14 15  1  0  0  0  0
 14 38  1  0  0  0  0
 15 16  1  0  0  0  0
 15 27  2  0  0  0  0
 16 17  1  0  0  0  0
 16 26  2  0  0  0  0
 17 18  1  0  0  0  0
 17 19  2  0  0  0  0
 19 20  1  0  0  0  0
 19 39  1  0  0  0  0
 20 21  2  0  0  0  0
 20 40  1  0  0  0  0
 21 22  1  0  0  0  0
 21 26  1  0  0  0  0
 22 23  1  0  0  0  0
 22 41  1  0  0  0  0
 23 24  2  0  0  0  0
 24 25  1  0  0  0  0
 24 26  1  0  0  0  0
 25 42  1  0  0  0  0
 25 43  1  0  0  0  0
 27 28  1  0  0  0  0
 27 44  1  0  0  0  0
 28 45  1  0  0  0  0
 29 46  1  0  0  0  0
M  END
$$$$
