CHEMBL4445854
 OpenBabel04072215383D

 45 49  0  0  0  0  0  0  0  0999 V2000
    2.0152   -0.6456    1.0722 O   0  0  0  0  0  0  0  0  0  0  0  0
    2.0337    0.0680    0.0781 C   0  0  0  0  0  0  0  0  0  0  0  0
    1.3041    1.2299   -0.0696 N   0  0  0  0  0  0  0  0  0  0  0  0
    0.5754    1.7296    0.9714 C   0  0  0  0  0  0  0  0  0  0  0  0
    0.6229    1.3848    2.2289 N   0  0  0  0  0  0  0  0  0  0  0  0
   -0.3029    2.1070    2.9449 C   0  0  0  0  0  0  0  0  0  0  0  0
   -0.5307    1.9964    4.3298 C   0  0  0  0  0  0  0  0  0  0  0  0
   -1.5235    2.7744    4.9298 C   0  0  0  0  0  0  0  0  0  0  0  0
   -2.2878    3.6464    4.1598 C   0  0  0  0  0  0  0  0  0  0  0  0
   -3.5158    4.5847    4.9197 Cl  0  0  0  0  0  0  0  0  0  0  0  0
   -2.0787    3.7832    2.7836 C   0  0  0  0  0  0  0  0  0  0  0  0
   -1.0652    3.0087    2.1971 C   0  0  0  0  0  0  0  0  0  0  0  0
   -0.5211    2.9643    0.5572 S   0  0  0  0  0  0  0  0  0  0  0  0
    2.8286   -0.3011   -1.0918 C   0  0  0  0  0  0  0  0  0  0  0  0
    2.6692    0.1617   -2.3873 C   0  0  0  0  0  0  0  0  0  0  0  0
    3.5593   -0.5190   -3.1827 N   0  0  0  0  0  0  0  0  0  0  0  0
    3.7306   -0.3939   -4.5906 C   0  0  0  0  0  0  0  0  0  0  0  0
    3.0044    0.5535   -5.3282 C   0  0  0  0  0  0  0  0  0  0  0  0
    3.2020    0.6711   -6.7062 C   0  0  0  0  0  0  0  0  0  0  0  0
    4.1147   -0.1564   -7.3562 C   0  0  0  0  0  0  0  0  0  0  0  0
    4.8312   -1.1073   -6.6322 C   0  0  0  0  0  0  0  0  0  0  0  0
    4.6437   -1.2272   -5.2532 C   0  0  0  0  0  0  0  0  0  0  0  0
    4.3069   -1.3784   -2.4598 N   0  0  0  0  0  0  0  0  0  0  0  0
    3.8991   -1.2475   -1.1873 C   0  0  0  0  0  0  0  0  0  0  0  0
    4.5375   -2.0446   -0.1286 C   0  0  0  0  0  0  0  0  0  0  0  0
    4.7780   -1.5141    1.1469 C   0  0  0  0  0  0  0  0  0  0  0  0
    5.3339   -2.3021    2.1590 C   0  0  0  0  0  0  0  0  0  0  0  0
    5.6908   -3.6220    1.8983 C   0  0  0  0  0  0  0  0  0  0  0  0
    5.5012   -4.1517    0.6239 C   0  0  0  0  0  0  0  0  0  0  0  0
    4.9295   -3.3679   -0.3837 C   0  0  0  0  0  0  0  0  0  0  0  0
    1.2463    1.7145   -0.9477 H   0  0  0  0  0  0  0  0  0  0  0  0
    0.0681    1.3035    4.9140 H   0  0  0  0  0  0  0  0  0  0  0  0
   -1.6928    2.6856    6.0000 H   0  0  0  0  0  0  0  0  0  0  0  0
   -2.6774    4.4645    2.1881 H   0  0  0  0  0  0  0  0  0  0  0  0
    1.9704    0.8654   -2.8077 H   0  0  0  0  0  0  0  0  0  0  0  0
    2.2863    1.2241   -4.8691 H   0  0  0  0  0  0  0  0  0  0  0  0
    2.6446    1.4132   -7.2729 H   0  0  0  0  0  0  0  0  0  0  0  0
    4.2685   -0.0595   -8.4279 H   0  0  0  0  0  0  0  0  0  0  0  0
    5.5406   -1.7561   -7.1399 H   0  0  0  0  0  0  0  0  0  0  0  0
    5.2153   -1.9776   -4.7092 H   0  0  0  0  0  0  0  0  0  0  0  0
    4.5138   -0.4871    1.3845 H   0  0  0  0  0  0  0  0  0  0  0  0
    5.4730   -1.8837    3.1525 H   0  0  0  0  0  0  0  0  0  0  0  0
    6.1147   -4.2361    2.6882 H   0  0  0  0  0  0  0  0  0  0  0  0
    5.7879   -5.1784    0.4140 H   0  0  0  0  0  0  0  0  0  0  0  0
    4.7801   -3.7997   -1.3706 H   0  0  0  0  0  0  0  0  0  0  0  0
  1  2  2  0  0  0  0
  2  3  1  0  0  0  0
  2 14  1  0  0  0  0
  3  4  1  0  0  0  0
  3 31  1  0  0  0  0
  4  5  2  0  0  0  0
  4 13  1  0  0  0  0
  5  6  1  0  0  0  0
  6  7  1  0  0  0  0
  6 12  2  0  0  0  0
  7  8  2  0  0  0  0
  7 32  1  0  0  0  0
  8  9  1  0  0  0  0
  8 33  1  0  0  0  0
  9 10  1  0  0  0  0
  9 11  2  0  0  0  0
 11 12  1  0  0  0  0
 11 34  1  0  0  0  0
 12 13  1  0  0  0  0
 14 15  2  0  0  0  0
 14 24  1  0  0  0  0
 15 16  1  0  0  0  0
 15 35  1  0  0  0  0
 16 17  1  0  0  0  0
 16 23  1  0  0  0  0
 17 18  1  0  0  0  0
 17 22  2  0  0  0  0
 18 19  2  0  0  0  0
 18 36  1  0  0  0  0
 19 20  1  0  0  0  0
 19 37  1  0  0  0  0
 20 21  2  0  0  0  0
 20 38  1  0  0  0  0
 21 22  1  0  0  0  0
 21 39  1  0  0  0  0
 22 40  1  0  0  0  0
 23 24  2  0  0  0  0
 24 25  1  0  0  0  0
 25 26  1  0  0  0  0
 25 30  2  0  0  0  0
 26 27  2  0  0  0  0
 26 41  1  0  0  0  0
 27 28  1  0  0  0  0
 27 42  1  0  0  0  0
 28 29  2  0  0  0  0
 28 43  1  0  0  0  0
 29 30  1  0  0  0  0
 29 44  1  0  0  0  0
 30 45  1  0  0  0  0
M  END
$$$$
