CHEMBL3628810
 OpenBabel04072215373D

 40 43  0  0  0  0  0  0  0  0999 V2000
    2.7210    2.3025    2.2438 O   0  0  0  0  0  0  0  0  0  0  0  0
    2.2975    1.4664    1.4496 C   0  0  0  0  0  0  0  0  0  0  0  0
    0.9852    1.0313    1.4062 N   0  0  0  0  0  0  0  0  0  0  0  0
   -0.0246    1.4402    2.3140 C   0  0  0  0  0  0  0  0  0  0  0  0
    0.0903    2.5725    3.1313 C   0  0  0  0  0  0  0  0  0  0  0  0
   -0.8875    2.8769    4.0821 C   0  0  0  0  0  0  0  0  0  0  0  0
   -2.0052    2.0648    4.2145 C   0  0  0  0  0  0  0  0  0  0  0  0
   -2.1471    0.9578    3.3810 C   0  0  0  0  0  0  0  0  0  0  0  0
   -3.6582   -0.1581    3.5719 Br  0  0  0  0  0  0  0  0  0  0  0  0
   -1.1711    0.6508    2.4223 C   0  0  0  0  0  0  0  0  0  0  0  0
    3.0981    0.8531    0.5056 N   0  0  0  0  0  0  0  0  0  0  0  0
    4.5157    0.9672    0.4642 C   0  0  0  0  0  0  0  0  0  0  0  0
    5.2620    1.3494    1.5883 C   0  0  0  0  0  0  0  0  0  0  0  0
    6.6566    1.3754    1.5597 C   0  0  0  0  0  0  0  0  0  0  0  0
    7.3335    0.9962    0.4082 C   0  0  0  0  0  0  0  0  0  0  0  0
    8.7064    1.0391    0.4643 O   0  0  0  0  0  0  0  0  0  0  0  0
    9.4167    0.0522   -0.2076 C   0  0  0  0  0  0  0  0  0  0  0  0
    8.8541   -1.1565   -0.4313 N   0  0  0  0  0  0  0  0  0  0  0  0
    9.5732   -2.0660   -1.1028 C   0  0  0  0  0  0  0  0  0  0  0  0
   10.8189   -1.9350   -1.5671 N   0  0  0  0  0  0  0  0  0  0  0  0
   11.3521   -0.7343   -1.2847 C   0  0  0  0  0  0  0  0  0  0  0  0
   12.9431   -0.3464   -1.7584 S   0  0  0  0  0  0  0  0  0  0  0  0
   12.8281    1.2208   -1.0820 C   0  0  0  0  0  0  0  0  0  0  0  0
   11.5960    1.4441   -0.5061 C   0  0  0  0  0  0  0  0  0  0  0  0
   10.7291    0.3060   -0.6142 C   0  0  0  0  0  0  0  0  0  0  0  0
    6.6107    0.6729   -0.7439 C   0  0  0  0  0  0  0  0  0  0  0  0
    5.2117    0.6511   -0.7118 C   0  0  0  0  0  0  0  0  0  0  0  0
    4.3720    0.2734   -2.1774 Cl  0  0  0  0  0  0  0  0  0  0  0  0
    0.7989    0.2099    0.8532 H   0  0  0  0  0  0  0  0  0  0  0  0
    0.9367    3.2491    3.0621 H   0  0  0  0  0  0  0  0  0  0  0  0
   -0.7614    3.7473    4.7173 H   0  0  0  0  0  0  0  0  0  0  0  0
   -2.7511    2.2996    4.9705 H   0  0  0  0  0  0  0  0  0  0  0  0
   -1.3009   -0.2268    1.7990 H   0  0  0  0  0  0  0  0  0  0  0  0
    2.6572    0.4537   -0.3098 H   0  0  0  0  0  0  0  0  0  0  0  0
    4.7871    1.6113    2.5288 H   0  0  0  0  0  0  0  0  0  0  0  0
    7.2015    1.6772    2.4516 H   0  0  0  0  0  0  0  0  0  0  0  0
    9.0816   -3.0136   -1.3000 H   0  0  0  0  0  0  0  0  0  0  0  0
   13.6668    1.9018   -1.1425 H   0  0  0  0  0  0  0  0  0  0  0  0
   11.3225    2.3767   -0.0282 H   0  0  0  0  0  0  0  0  0  0  0  0
    7.1316    0.4220   -1.6628 H   0  0  0  0  0  0  0  0  0  0  0  0
  1  2  2  0  0  0  0
  2  3  1  0  0  0  0
  2 11  1  0  0  0  0
  3  4  1  0  0  0  0
  3 29  1  0  0  0  0
  4  5  1  0  0  0  0
  4 10  2  0  0  0  0
  5  6  2  0  0  0  0
  5 30  1  0  0  0  0
  6  7  1  0  0  0  0
  6 31  1  0  0  0  0
  7  8  2  0  0  0  0
  7 32  1  0  0  0  0
  8  9  1  0  0  0  0
  8 10  1  0  0  0  0
 10 33  1  0  0  0  0
 11 12  1  0  0  0  0
 11 34  1  0  0  0  0
 12 13  1  0  0  0  0
 12 27  2  0  0  0  0
 13 14  2  0  0  0  0
 13 35  1  0  0  0  0
 14 15  1  0  0  0  0
 14 36  1  0  0  0  0
 15 16  1  0  0  0  0
 15 26  2  0  0  0  0
 16 17  1  0  0  0  0
 17 18  1  0  0  0  0
 17 25  2  0  0  0  0
 18 19  2  0  0  0  0
 19 20  1  0  0  0  0
 19 37  1  0  0  0  0
 20 21  2  0  0  0  0
 21 22  1  0  0  0  0
 21 25  1  0  0  0  0
 22 23  1  0  0  0  0
 23 24  2  0  0  0  0
 23 38  1  0  0  0  0
 24 25  1  0  0  0  0
 24 39  1  0  0  0  0
 26 27  1  0  0  0  0
 26 40  1  0  0  0  0
 27 28  1  0  0  0  0
M  END
$$$$
