CHEMBL1970142
 OpenBabel04072215363D

 65 69  0  0  1  0  0  0  0  0999 V2000
    8.2984    0.9496    1.6398 C   0  0  0  0  0  0  0  0  0  0  0  0
    7.7758    0.9380    0.2984 N   0  0  0  0  0  0  0  0  0  0  0  0
    8.5117    1.4413   -0.7533 C   0  0  0  0  0  0  0  0  0  0  0  0
    9.6492    1.8888   -0.6082 O   0  0  0  0  0  0  0  0  0  0  0  0
    7.8477    1.3856   -2.1232 C   0  0  3  0  0  0  0  0  0  0  0  0
    7.4774   -0.0435   -2.5143 C   0  0  0  0  0  0  0  0  0  0  0  0
    6.7351    2.3235   -2.1777 N   0  0  0  0  0  0  0  0  0  0  0  0
    6.8243    3.6583   -2.4648 C   0  0  0  0  0  0  0  0  0  0  0  0
    5.5680    4.1921   -2.2594 C   0  0  0  0  0  0  0  0  0  0  0  0
    5.2818    5.6135   -2.3174 C   0  0  0  0  0  0  0  0  0  0  0  0
    5.9515    6.4509   -3.1923 C   0  0  0  0  0  0  0  0  0  0  0  0
    5.8299    7.7851   -3.2221 N   0  0  0  0  0  0  0  0  0  0  0  0
    5.0145    8.4051   -2.3469 C   0  0  0  0  0  0  0  0  0  0  0  0
    5.0646    9.7875   -2.4472 N   0  0  0  0  0  0  0  0  0  0  0  0
    4.2247    7.6543   -1.4219 C   0  0  0  0  0  0  0  0  0  0  0  0
    3.2525    8.0597   -0.3901 C   0  0  0  0  0  0  0  0  0  0  0  0
    2.8060    9.4032   -0.0103 C   0  0  0  0  0  0  0  0  0  0  0  0
    2.5915   10.3660   -0.9880 C   0  0  0  0  0  0  0  0  0  0  0  0
    2.3339   11.6853   -0.6349 C   0  0  0  0  0  0  0  0  0  0  0  0
    2.1237   12.0503    0.6968 C   0  0  0  0  0  0  0  0  0  0  0  0
    1.7787   13.3702    1.0619 N   0  0  0  0  0  0  0  0  0  0  0  0
    1.2255   14.2707    0.1721 C   0  0  0  0  0  0  0  0  0  0  0  0
    0.8581   13.9828   -0.9630 O   0  0  0  0  0  0  0  0  0  0  0  0
    1.1628   15.5578    0.6896 N   0  0  0  0  0  0  0  0  0  0  0  0
    0.6958   16.5821   -0.1719 C   0  0  0  0  0  0  0  0  0  0  0  0
   -0.4812   16.4066   -0.9089 C   0  0  0  0  0  0  0  0  0  0  0  0
   -0.8058   17.2888   -1.9353 C   0  0  0  0  0  0  0  0  0  0  0  0
    0.0346   18.3667   -2.2219 C   0  0  0  0  0  0  0  0  0  0  0  0
   -0.2355   19.2392   -3.4110 C   0  0  0  0  0  0  0  0  0  0  0  0
    1.1720   18.5796   -1.4290 C   0  0  0  0  0  0  0  0  0  0  0  0
    1.4920   17.7028   -0.3882 C   0  0  0  0  0  0  0  0  0  0  0  0
    2.2571   11.0784    1.6858 C   0  0  0  0  0  0  0  0  0  0  0  0
    2.6097    9.7665    1.3343 C   0  0  0  0  0  0  0  0  0  0  0  0
    2.7211    6.9743    0.2723 C   0  0  0  0  0  0  0  0  0  0  0  0
    3.3846    5.5084   -0.2279 S   0  0  0  0  0  0  0  0  0  0  0  0
    4.3805    6.2504   -1.4332 C   0  0  0  0  0  0  0  0  0  0  0  0
    4.7694    3.0640   -1.9483 C   0  0  0  0  0  0  0  0  0  0  0  0
    5.4787    1.9358   -1.8795 N   0  0  0  0  0  0  0  0  0  0  0  0
    7.5381    0.5593    2.3186 H   0  0  0  0  0  0  0  0  0  0  0  0
    8.5616    1.9724    1.9211 H   0  0  0  0  0  0  0  0  0  0  0  0
    9.1932    0.3217    1.6828 H   0  0  0  0  0  0  0  0  0  0  0  0
    6.7772    0.7979    0.1622 H   0  0  0  0  0  0  0  0  0  0  0  0
    8.5809    1.7499   -2.8544 H   0  0  0  0  0  0  0  0  0  0  0  0
    6.7546   -0.4916   -1.8231 H   0  0  0  0  0  0  0  0  0  0  0  0
    8.3674   -0.6814   -2.5108 H   0  0  0  0  0  0  0  0  0  0  0  0
    7.0393   -0.0730   -3.5177 H   0  0  0  0  0  0  0  0  0  0  0  0
    7.7729    4.1106   -2.7270 H   0  0  0  0  0  0  0  0  0  0  0  0
    6.6589    6.0608   -3.9195 H   0  0  0  0  0  0  0  0  0  0  0  0
    5.8281   10.0584   -3.0569 H   0  0  0  0  0  0  0  0  0  0  0  0
    5.0230   10.2754   -1.5629 H   0  0  0  0  0  0  0  0  0  0  0  0
    2.6601   10.1263   -2.0468 H   0  0  0  0  0  0  0  0  0  0  0  0
    2.3076   12.4095   -1.4443 H   0  0  0  0  0  0  0  0  0  0  0  0
    1.6492   13.5740    2.0421 H   0  0  0  0  0  0  0  0  0  0  0  0
    1.9488   15.7932    1.2784 H   0  0  0  0  0  0  0  0  0  0  0  0
   -1.1161   15.5394   -0.7403 H   0  0  0  0  0  0  0  0  0  0  0  0
   -1.6876   17.0895   -2.5398 H   0  0  0  0  0  0  0  0  0  0  0  0
   -1.2123   19.0203   -3.8550 H   0  0  0  0  0  0  0  0  0  0  0  0
    0.5283   19.0714   -4.1778 H   0  0  0  0  0  0  0  0  0  0  0  0
   -0.2293   20.2926   -3.1194 H   0  0  0  0  0  0  0  0  0  0  0  0
    1.8482   19.3994   -1.6591 H   0  0  0  0  0  0  0  0  0  0  0  0
    2.4144   17.8510    0.1647 H   0  0  0  0  0  0  0  0  0  0  0  0
    2.0839   11.3151    2.7316 H   0  0  0  0  0  0  0  0  0  0  0  0
    2.7275    9.0345    2.1302 H   0  0  0  0  0  0  0  0  0  0  0  0
    1.9726    6.9700    1.0536 H   0  0  0  0  0  0  0  0  0  0  0  0
    3.7090    3.0142   -1.7538 H   0  0  0  0  0  0  0  0  0  0  0  0
  1  2  1  0  0  0  0
  1 39  1  0  0  0  0
  1 40  1  0  0  0  0
  1 41  1  0  0  0  0
  2  3  1  0  0  0  0
  2 42  1  0  0  0  0
  3  4  2  0  0  0  0
  3  5  1  0  0  0  0
  5  6  1  0  0  0  0
  5  7  1  0  0  0  0
  5 43  1  0  0  0  0
  6 44  1  0  0  0  0
  6 45  1  0  0  0  0
  6 46  1  0  0  0  0
  7  8  1  0  0  0  0
  7 38  1  0  0  0  0
  8  9  2  0  0  0  0
  8 47  1  0  0  0  0
  9 10  1  0  0  0  0
  9 37  1  0  0  0  0
 10 11  1  0  0  0  0
 10 36  2  0  0  0  0
 11 12  2  0  0  0  0
 11 48  1  0  0  0  0
 12 13  1  0  0  0  0
 13 14  1  0  0  0  0
 13 15  2  0  0  0  0
 14 49  1  0  0  0  0
 14 50  1  0  0  0  0
 15 16  1  0  0  0  0
 15 36  1  0  0  0  0
 16 17  1  0  0  0  0
 16 34  2  0  0  0  0
 17 18  1  0  0  0  0
 17 33  2  0  0  0  0
 18 19  2  0  0  0  0
 18 51  1  0  0  0  0
 19 20  1  0  0  0  0
 19 52  1  0  0  0  0
 20 21  1  0  0  0  0
 20 32  2  0  0  0  0
 21 22  1  0  0  0  0
 21 53  1  0  0  0  0
 22 23  2  0  0  0  0
 22 24  1  0  0  0  0
 24 25  1  0  0  0  0
 24 54  1  0  0  0  0
 25 26  1  0  0  0  0
 25 31  2  0  0  0  0
 26 27  2  0  0  0  0
 26 55  1  0  0  0  0
 27 28  1  0  0  0  0
 27 56  1  0  0  0  0
 28 29  1  0  0  0  0
 28 30  2  0  0  0  0
 29 57  1  0  0  0  0
 29 58  1  0  0  0  0
 29 59  1  0  0  0  0
 30 31  1  0  0  0  0
 30 60  1  0  0  0  0
 31 61  1  0  0  0  0
 32 33  1  0  0  0  0
 32 62  1  0  0  0  0
 33 63  1  0  0  0  0
 34 35  1  0  0  0  0
 34 64  1  0  0  0  0
 35 36  1  0  0  0  0
 37 38  2  0  0  0  0
 37 65  1  0  0  0  0
M  END
$$$$
