CHEMBL3758796
 OpenBabel04072215373D

 68 72  0  0  0  0  0  0  0  0999 V2000
    2.5964    1.0342   -0.6428 C   0  0  0  0  0  0  0  0  0  0  0  0
    2.4031   -0.2885   -0.1398 O   0  0  0  0  0  0  0  0  0  0  0  0
    3.1471   -0.6751    0.9402 C   0  0  0  0  0  0  0  0  0  0  0  0
    4.3412   -0.0344    1.2684 C   0  0  0  0  0  0  0  0  0  0  0  0
    5.0034   -0.2826    2.4743 C   0  0  0  0  0  0  0  0  0  0  0  0
    6.1354    0.4377    2.8900 C   0  0  0  0  0  0  0  0  0  0  0  0
    6.6348    1.4920    2.0572 N   0  0  0  0  0  0  0  0  0  0  0  0
    7.8653    2.1749    2.1896 C   0  0  0  0  0  0  0  0  0  0  0  0
    8.9641    1.5774    2.7887 C   0  0  0  0  0  0  0  0  0  0  0  0
   10.1608    2.2689    2.9662 C   0  0  0  0  0  0  0  0  0  0  0  0
   10.3222    3.5695    2.5016 C   0  0  0  0  0  0  0  0  0  0  0  0
   11.4840    4.3394    2.7516 N   0  0  0  0  0  0  0  0  0  0  0  0
   12.5560    3.9262    3.5258 C   0  0  0  0  0  0  0  0  0  0  0  0
   12.7031    2.8195    4.0351 O   0  0  0  0  0  0  0  0  0  0  0  0
   13.6540    4.9025    3.7847 C   0  0  0  0  0  0  0  0  0  0  0  0
   13.4706    6.2883    3.8012 C   0  0  0  0  0  0  0  0  0  0  0  0
   14.5406    7.1243    4.1463 C   0  0  0  0  0  0  0  0  0  0  0  0
   15.7827    6.5782    4.4802 C   0  0  0  0  0  0  0  0  0  0  0  0
   17.0810    7.6131    4.9335 Cl  0  0  0  0  0  0  0  0  0  0  0  0
   15.9755    5.2023    4.4687 C   0  0  0  0  0  0  0  0  0  0  0  0
   14.9115    4.3684    4.1225 C   0  0  0  0  0  0  0  0  0  0  0  0
    9.2667    4.1391    1.7793 C   0  0  0  0  0  0  0  0  0  0  0  0
    8.0506    3.4419    1.6160 C   0  0  0  0  0  0  0  0  0  0  0  0
    6.7526    0.1445    4.0443 N   0  0  0  0  0  0  0  0  0  0  0  0
    6.2475   -0.8599    4.7724 C   0  0  0  0  0  0  0  0  0  0  0  0
    5.1560   -1.5813    4.4773 N   0  0  0  0  0  0  0  0  0  0  0  0
    4.5349   -1.2867    3.3350 C   0  0  0  0  0  0  0  0  0  0  0  0
    3.4027   -2.0021    2.9469 C   0  0  0  0  0  0  0  0  0  0  0  0
    2.7139   -1.7410    1.7500 C   0  0  0  0  0  0  0  0  0  0  0  0
    1.6629   -2.6035    1.4904 O   0  0  0  0  0  0  0  0  0  0  0  0
    1.3605   -2.7701    0.0961 C   0  0  0  0  0  0  0  0  0  0  0  0
    0.7592   -4.1544   -0.2439 C   0  0  0  0  0  0  0  0  0  0  0  0
    0.5185   -4.3390   -1.7046 N   0  0  0  0  0  0  0  0  0  0  0  0
    1.7686   -4.2451   -2.4811 C   0  0  0  0  0  0  0  0  0  0  0  0
    1.5484   -4.4202   -3.9839 C   0  0  0  0  0  0  0  0  0  0  0  0
    0.8241   -5.7188   -4.2930 C   0  0  0  0  0  0  0  0  0  0  0  0
   -0.4524   -5.8088   -3.4628 C   0  0  0  0  0  0  0  0  0  0  0  0
   -0.1596   -5.6203   -1.9681 C   0  0  0  0  0  0  0  0  0  0  0  0
    3.1787    0.9837   -1.5679 H   0  0  0  0  0  0  0  0  0  0  0  0
    3.0746    1.7273    0.0588 H   0  0  0  0  0  0  0  0  0  0  0  0
    1.6149    1.4587   -0.8664 H   0  0  0  0  0  0  0  0  0  0  0  0
    4.7809    0.6705    0.5652 H   0  0  0  0  0  0  0  0  0  0  0  0
    5.8775    2.1246    1.8165 H   0  0  0  0  0  0  0  0  0  0  0  0
    8.9134    0.5620    3.1640 H   0  0  0  0  0  0  0  0  0  0  0  0
   10.9435    1.7303    3.4922 H   0  0  0  0  0  0  0  0  0  0  0  0
   11.5061    5.2613    2.3468 H   0  0  0  0  0  0  0  0  0  0  0  0
   12.5028    6.7371    3.6011 H   0  0  0  0  0  0  0  0  0  0  0  0
   14.3963    8.2022    4.1772 H   0  0  0  0  0  0  0  0  0  0  0  0
   16.9303    4.7667    4.7420 H   0  0  0  0  0  0  0  0  0  0  0  0
   15.0600    3.2886    4.1401 H   0  0  0  0  0  0  0  0  0  0  0  0
    9.3576    5.1325    1.3495 H   0  0  0  0  0  0  0  0  0  0  0  0
    7.2477    3.9210    1.0583 H   0  0  0  0  0  0  0  0  0  0  0  0
    6.7805   -1.1158    5.6822 H   0  0  0  0  0  0  0  0  0  0  0  0
    3.0486   -2.8025    3.5961 H   0  0  0  0  0  0  0  0  0  0  0  0
    2.2887   -2.6731   -0.4689 H   0  0  0  0  0  0  0  0  0  0  0  0
    0.6416   -1.9972   -0.1980 H   0  0  0  0  0  0  0  0  0  0  0  0
   -0.1916   -4.2508    0.2976 H   0  0  0  0  0  0  0  0  0  0  0  0
    1.4106   -4.9465    0.1482 H   0  0  0  0  0  0  0  0  0  0  0  0
    2.4975   -4.9837   -2.1254 H   0  0  0  0  0  0  0  0  0  0  0  0
    2.2179   -3.2547   -2.3684 H   0  0  0  0  0  0  0  0  0  0  0  0
    2.5160   -4.4022   -4.4988 H   0  0  0  0  0  0  0  0  0  0  0  0
    0.9670   -3.5737   -4.3704 H   0  0  0  0  0  0  0  0  0  0  0  0
    1.4775   -6.5693   -4.0636 H   0  0  0  0  0  0  0  0  0  0  0  0
    0.5894   -5.7712   -5.3621 H   0  0  0  0  0  0  0  0  0  0  0  0
   -0.9282   -6.7802   -3.6330 H   0  0  0  0  0  0  0  0  0  0  0  0
   -1.1588   -5.0414   -3.8018 H   0  0  0  0  0  0  0  0  0  0  0  0
    0.4464   -6.4616   -1.6102 H   0  0  0  0  0  0  0  0  0  0  0  0
   -1.1152   -5.6535   -1.4336 H   0  0  0  0  0  0  0  0  0  0  0  0
  1  2  1  0  0  0  0
  1 39  1  0  0  0  0
  1 40  1  0  0  0  0
  1 41  1  0  0  0  0
  2  3  1  0  0  0  0
  3  4  1  0  0  0  0
  3 29  2  0  0  0  0
  4  5  2  0  0  0  0
  4 42  1  0  0  0  0
  5  6  1  0  0  0  0
  5 27  1  0  0  0  0
  6  7  1  0  0  0  0
  6 24  2  0  0  0  0
  7  8  1  0  0  0  0
  7 43  1  0  0  0  0
  8  9  1  0  0  0  0
  8 23  2  0  0  0  0
  9 10  2  0  0  0  0
  9 44  1  0  0  0  0
 10 11  1  0  0  0  0
 10 45  1  0  0  0  0
 11 12  1  0  0  0  0
 11 22  2  0  0  0  0
 12 13  1  0  0  0  0
 12 46  1  0  0  0  0
 13 14  2  0  0  0  0
 13 15  1  0  0  0  0
 15 16  1  0  0  0  0
 15 21  2  0  0  0  0
 16 17  2  0  0  0  0
 16 47  1  0  0  0  0
 17 18  1  0  0  0  0
 17 48  1  0  0  0  0
 18 19  1  0  0  0  0
 18 20  2  0  0  0  0
 20 21  1  0  0  0  0
 20 49  1  0  0  0  0
 21 50  1  0  0  0  0
 22 23  1  0  0  0  0
 22 51  1  0  0  0  0
 23 52  1  0  0  0  0
 24 25  1  0  0  0  0
 25 26  2  0  0  0  0
 25 53  1  0  0  0  0
 26 27  1  0  0  0  0
 27 28  2  0  0  0  0
 28 29  1  0  0  0  0
 28 54  1  0  0  0  0
 29 30  1  0  0  0  0
 30 31  1  0  0  0  0
 31 32  1  0  0  0  0
 31 55  1  0  0  0  0
 31 56  1  0  0  0  0
 32 33  1  0  0  0  0
 32 57  1  0  0  0  0
 32 58  1  0  0  0  0
 33 34  1  0  0  0  0
 33 38  1  0  0  0  0
 34 35  1  0  0  0  0
 34 59  1  0  0  0  0
 34 60  1  0  0  0  0
 35 36  1  0  0  0  0
 35 61  1  0  0  0  0
 35 62  1  0  0  0  0
 36 37  1  0  0  0  0
 36 63  1  0  0  0  0
 36 64  1  0  0  0  0
 37 38  1  0  0  0  0
 37 65  1  0  0  0  0
 37 66  1  0  0  0  0
 38 67  1  0  0  0  0
 38 68  1  0  0  0  0
M  END
$$$$
