CHEMBL1255010
 OpenBabel04072215363D

 42 45  0  0  0  0  0  0  0  0999 V2000
    3.5837   -0.8647   -1.1678 C   0  0  0  0  0  0  0  0  0  0  0  0
    3.3495   -0.5394    0.2216 N   0  0  0  0  0  0  0  0  0  0  0  0
    3.9380    0.5126    0.8811 C   0  0  0  0  0  0  0  0  0  0  0  0
    3.4660    0.5184    2.1757 C   0  0  0  0  0  0  0  0  0  0  0  0
    2.5614   -0.5613    2.2985 C   0  0  0  0  0  0  0  0  0  0  0  0
    1.8563   -0.9498    3.3799 N   0  0  0  0  0  0  0  0  0  0  0  0
    1.0728   -2.0089    3.1504 C   0  0  0  0  0  0  0  0  0  0  0  0
    0.9375   -2.7001    2.0075 N   0  0  0  0  0  0  0  0  0  0  0  0
    1.6926   -2.3348    0.9456 C   0  0  0  0  0  0  0  0  0  0  0  0
    1.6246   -3.0697   -0.2358 O   0  0  0  0  0  0  0  0  0  0  0  0
    1.4573   -4.4384   -0.1235 C   0  0  0  0  0  0  0  0  0  0  0  0
    2.0061   -5.1834    0.9246 C   0  0  0  0  0  0  0  0  0  0  0  0
    1.7941   -6.5513    0.9890 C   0  0  0  0  0  0  0  0  0  0  0  0
    1.0740   -7.1917   -0.0178 C   0  0  0  0  0  0  0  0  0  0  0  0
    0.5528   -6.4834   -1.1065 C   0  0  0  0  0  0  0  0  0  0  0  0
   -0.1761   -7.1098   -2.1604 N   0  0  0  0  0  0  0  0  0  0  0  0
   -0.4724   -8.4675   -2.2314 C   0  0  0  0  0  0  0  0  0  0  0  0
   -0.1669   -9.3167   -1.3980 O   0  0  0  0  0  0  0  0  0  0  0  0
   -1.2403   -8.9605   -3.4112 C   0  0  0  0  0  0  0  0  0  0  0  0
   -1.2171   -8.3526   -4.6701 C   0  0  0  0  0  0  0  0  0  0  0  0
   -1.8827   -8.9553   -5.7458 C   0  0  0  0  0  0  0  0  0  0  0  0
   -2.5674  -10.1604   -5.5726 C   0  0  0  0  0  0  0  0  0  0  0  0
   -2.6030  -10.7662   -4.3210 C   0  0  0  0  0  0  0  0  0  0  0  0
   -1.9452  -10.1677   -3.2483 C   0  0  0  0  0  0  0  0  0  0  0  0
    0.7564   -5.0935   -1.1533 C   0  0  0  0  0  0  0  0  0  0  0  0
    2.5033   -1.2145    1.0711 C   0  0  0  0  0  0  0  0  0  0  0  0
    4.2932   -0.1506   -1.5941 H   0  0  0  0  0  0  0  0  0  0  0  0
    2.6328   -0.8006   -1.7022 H   0  0  0  0  0  0  0  0  0  0  0  0
    3.9990   -1.8735   -1.2226 H   0  0  0  0  0  0  0  0  0  0  0  0
    4.6402    1.1708    0.3850 H   0  0  0  0  0  0  0  0  0  0  0  0
    3.7370    1.2190    2.9537 H   0  0  0  0  0  0  0  0  0  0  0  0
    0.4827   -2.3599    3.9917 H   0  0  0  0  0  0  0  0  0  0  0  0
    2.5801   -4.7104    1.7165 H   0  0  0  0  0  0  0  0  0  0  0  0
    2.1803   -7.1286    1.8250 H   0  0  0  0  0  0  0  0  0  0  0  0
    0.9433   -8.2613    0.0947 H   0  0  0  0  0  0  0  0  0  0  0  0
   -0.5414   -6.4989   -2.8744 H   0  0  0  0  0  0  0  0  0  0  0  0
   -0.6522   -7.4434   -4.8528 H   0  0  0  0  0  0  0  0  0  0  0  0
   -1.8489   -8.4996   -6.7332 H   0  0  0  0  0  0  0  0  0  0  0  0
   -3.0614  -10.6374   -6.4156 H   0  0  0  0  0  0  0  0  0  0  0  0
   -3.1216  -11.7110   -4.1780 H   0  0  0  0  0  0  0  0  0  0  0  0
   -1.9599  -10.6627   -2.2780 H   0  0  0  0  0  0  0  0  0  0  0  0
    0.3685   -4.5026   -1.9774 H   0  0  0  0  0  0  0  0  0  0  0  0
  1  2  1  0  0  0  0
  1 27  1  0  0  0  0
  1 28  1  0  0  0  0
  1 29  1  0  0  0  0
  2  3  1  0  0  0  0
  2 26  1  0  0  0  0
  3  4  2  0  0  0  0
  3 30  1  0  0  0  0
  4  5  1  0  0  0  0
  4 31  1  0  0  0  0
  5  6  1  0  0  0  0
  5 26  2  0  0  0  0
  6  7  2  0  0  0  0
  7  8  1  0  0  0  0
  7 32  1  0  0  0  0
  8  9  2  0  0  0  0
  9 10  1  0  0  0  0
  9 26  1  0  0  0  0
 10 11  1  0  0  0  0
 11 12  1  0  0  0  0
 11 25  2  0  0  0  0
 12 13  2  0  0  0  0
 12 33  1  0  0  0  0
 13 14  1  0  0  0  0
 13 34  1  0  0  0  0
 14 15  2  0  0  0  0
 14 35  1  0  0  0  0
 15 16  1  0  0  0  0
 15 25  1  0  0  0  0
 16 17  1  0  0  0  0
 16 36  1  0  0  0  0
 17 18  2  0  0  0  0
 17 19  1  0  0  0  0
 19 20  1  0  0  0  0
 19 24  2  0  0  0  0
 20 21  2  0  0  0  0
 20 37  1  0  0  0  0
 21 22  1  0  0  0  0
 21 38  1  0  0  0  0
 22 23  2  0  0  0  0
 22 39  1  0  0  0  0
 23 24  1  0  0  0  0
 23 40  1  0  0  0  0
 24 41  1  0  0  0  0
 25 42  1  0  0  0  0
M  END
$$$$
