CHEMBL438653
 OpenBabel04072215383D

 61 64  0  0  0  0  0  0  0  0999 V2000
    2.4206   -0.1821   -0.6087 C   0  0  0  0  0  0  0  0  0  0  0  0
    0.9276   -0.0712   -0.7045 C   0  0  0  0  0  0  0  0  0  0  0  0
    0.3457    1.1605   -1.0209 C   0  0  0  0  0  0  0  0  0  0  0  0
   -1.0352    1.2768   -1.1088 C   0  0  0  0  0  0  0  0  0  0  0  0
   -1.8440    0.1637   -0.8836 C   0  0  0  0  0  0  0  0  0  0  0  0
   -1.2922   -1.0849   -0.5790 C   0  0  0  0  0  0  0  0  0  0  0  0
   -2.0783   -2.2380   -0.3430 N   0  0  0  0  0  0  0  0  0  0  0  0
   -3.4456   -2.3323   -0.5397 C   0  0  0  0  0  0  0  0  0  0  0  0
   -4.1408   -1.4521   -1.0500 O   0  0  0  0  0  0  0  0  0  0  0  0
   -3.9704   -3.5263   -0.0691 N   0  0  0  0  0  0  0  0  0  0  0  0
   -5.3606   -3.7782   -0.1811 C   0  0  0  0  0  0  0  0  0  0  0  0
   -6.0686   -3.4463   -1.3380 C   0  0  0  0  0  0  0  0  0  0  0  0
   -7.4640   -3.5199   -1.3689 C   0  0  0  0  0  0  0  0  0  0  0  0
   -8.1953   -3.9584   -0.2552 C   0  0  0  0  0  0  0  0  0  0  0  0
   -9.6749   -3.9753   -0.2621 C   0  0  0  0  0  0  0  0  0  0  0  0
  -10.4013   -4.2929   -1.4316 C   0  0  0  0  0  0  0  0  0  0  0  0
  -11.7953   -4.3909   -1.4475 C   0  0  0  0  0  0  0  0  0  0  0  0
  -12.5495   -4.2380   -0.2829 C   0  0  0  0  0  0  0  0  0  0  0  0
  -13.9142   -4.3440   -0.1867 O   0  0  0  0  0  0  0  0  0  0  0  0
  -14.5962   -4.5417   -1.4328 C   0  0  0  0  0  0  0  0  0  0  0  0
  -16.1158   -4.6128   -1.2093 C   0  0  0  0  0  0  0  0  0  0  0  0
  -16.8866   -4.8157   -2.4551 N   0  0  0  0  0  0  0  0  0  0  0  0
  -16.5450   -6.0744   -3.1222 C   0  0  0  0  0  0  0  0  0  0  0  0
  -18.3236   -4.7859   -2.1701 C   0  0  0  0  0  0  0  0  0  0  0  0
  -11.8251   -3.9226    0.8701 C   0  0  0  0  0  0  0  0  0  0  0  0
  -12.2450   -3.7678    2.1633 N   0  0  0  0  0  0  0  0  0  0  0  0
  -11.3113   -3.2856    2.9942 N   0  0  0  0  0  0  0  0  0  0  0  0
  -10.2280   -3.2028    2.2281 C   0  0  0  0  0  0  0  0  0  0  0  0
   -9.0875   -2.6514    2.6776 N   0  0  0  0  0  0  0  0  0  0  0  0
  -10.4454   -3.7099    0.9056 C   0  0  0  0  0  0  0  0  0  0  0  0
   -7.4478   -4.4095    0.8507 C   0  0  0  0  0  0  0  0  0  0  0  0
   -6.0511   -4.3094    0.9013 C   0  0  0  0  0  0  0  0  0  0  0  0
    0.1034   -1.1914   -0.4856 C   0  0  0  0  0  0  0  0  0  0  0  0
    2.9026    0.7849   -0.7953 H   0  0  0  0  0  0  0  0  0  0  0  0
    2.7967   -0.8893   -1.3532 H   0  0  0  0  0  0  0  0  0  0  0  0
    2.7142   -0.5096    0.3932 H   0  0  0  0  0  0  0  0  0  0  0  0
    0.9592    2.0384   -1.1974 H   0  0  0  0  0  0  0  0  0  0  0  0
   -1.4938    2.2314   -1.3534 H   0  0  0  0  0  0  0  0  0  0  0  0
   -2.9143    0.3221   -0.9545 H   0  0  0  0  0  0  0  0  0  0  0  0
   -1.5893   -3.1026   -0.1587 H   0  0  0  0  0  0  0  0  0  0  0  0
   -3.5120   -3.8995    0.7512 H   0  0  0  0  0  0  0  0  0  0  0  0
   -5.5463   -3.0856   -2.2219 H   0  0  0  0  0  0  0  0  0  0  0  0
   -7.9660   -3.1916   -2.2766 H   0  0  0  0  0  0  0  0  0  0  0  0
   -9.8752   -4.4852   -2.3653 H   0  0  0  0  0  0  0  0  0  0  0  0
  -12.2610   -4.6168   -2.4025 H   0  0  0  0  0  0  0  0  0  0  0  0
  -14.2498   -5.4864   -1.8640 H   0  0  0  0  0  0  0  0  0  0  0  0
  -14.3793   -3.7086   -2.1131 H   0  0  0  0  0  0  0  0  0  0  0  0
  -16.4239   -3.6657   -0.7453 H   0  0  0  0  0  0  0  0  0  0  0  0
  -16.3408   -5.3946   -0.4717 H   0  0  0  0  0  0  0  0  0  0  0  0
  -15.5189   -6.0535   -3.5030 H   0  0  0  0  0  0  0  0  0  0  0  0
  -17.1792   -6.2332   -4.0017 H   0  0  0  0  0  0  0  0  0  0  0  0
  -16.6559   -6.9376   -2.4566 H   0  0  0  0  0  0  0  0  0  0  0  0
  -18.6125   -3.8238   -1.7340 H   0  0  0  0  0  0  0  0  0  0  0  0
  -18.6246   -5.5853   -1.4835 H   0  0  0  0  0  0  0  0  0  0  0  0
  -18.9006   -4.8936   -3.0960 H   0  0  0  0  0  0  0  0  0  0  0  0
  -13.1704   -3.9598    2.5279 H   0  0  0  0  0  0  0  0  0  0  0  0
   -9.1628   -2.1223    3.5390 H   0  0  0  0  0  0  0  0  0  0  0  0
   -8.4557   -2.2244    2.0063 H   0  0  0  0  0  0  0  0  0  0  0  0
   -7.9579   -4.8071    1.7276 H   0  0  0  0  0  0  0  0  0  0  0  0
   -5.5417   -4.5790    1.8211 H   0  0  0  0  0  0  0  0  0  0  0  0
    0.5660   -2.1451   -0.2441 H   0  0  0  0  0  0  0  0  0  0  0  0
  1  2  1  0  0  0  0
  1 34  1  0  0  0  0
  1 35  1  0  0  0  0
  1 36  1  0  0  0  0
  2  3  1  0  0  0  0
  2 33  2  0  0  0  0
  3  4  2  0  0  0  0
  3 37  1  0  0  0  0
  4  5  1  0  0  0  0
  4 38  1  0  0  0  0
  5  6  2  0  0  0  0
  5 39  1  0  0  0  0
  6  7  1  0  0  0  0
  6 33  1  0  0  0  0
  7  8  1  0  0  0  0
  7 40  1  0  0  0  0
  8  9  2  0  0  0  0
  8 10  1  0  0  0  0
 10 11  1  0  0  0  0
 10 41  1  0  0  0  0
 11 12  1  0  0  0  0
 11 32  2  0  0  0  0
 12 13  2  0  0  0  0
 12 42  1  0  0  0  0
 13 14  1  0  0  0  0
 13 43  1  0  0  0  0
 14 15  1  0  0  0  0
 14 31  2  0  0  0  0
 15 16  1  0  0  0  0
 15 30  2  0  0  0  0
 16 17  2  0  0  0  0
 16 44  1  0  0  0  0
 17 18  1  0  0  0  0
 17 45  1  0  0  0  0
 18 19  1  0  0  0  0
 18 25  2  0  0  0  0
 19 20  1  0  0  0  0
 20 21  1  0  0  0  0
 20 46  1  0  0  0  0
 20 47  1  0  0  0  0
 21 22  1  0  0  0  0
 21 48  1  0  0  0  0
 21 49  1  0  0  0  0
 22 23  1  0  0  0  0
 22 24  1  0  0  0  0
 23 50  1  0  0  0  0
 23 51  1  0  0  0  0
 23 52  1  0  0  0  0
 24 53  1  0  0  0  0
 24 54  1  0  0  0  0
 24 55  1  0  0  0  0
 25 26  1  0  0  0  0
 25 30  1  0  0  0  0
 26 27  1  0  0  0  0
 26 56  1  0  0  0  0
 27 28  2  0  0  0  0
 28 29  1  0  0  0  0
 28 30  1  0  0  0  0
 29 57  1  0  0  0  0
 29 58  1  0  0  0  0
 31 32  1  0  0  0  0
 31 59  1  0  0  0  0
 32 60  1  0  0  0  0
 33 61  1  0  0  0  0
M  END
$$$$
