CHEMBL3965482
 OpenBabel04072215373D

 68 70  0  0  1  0  0  0  0  0999 V2000
    3.8705   -3.6445    2.4944 C   0  0  0  0  0  0  0  0  0  0  0  0
    3.7170   -3.6522    1.0915 O   0  0  0  0  0  0  0  0  0  0  0  0
    4.6142   -2.7367    0.4717 C   0  0  0  0  0  0  0  0  0  0  0  0
    4.3910   -2.8268   -1.0495 C   0  0  1  0  0  0  0  0  0  0  0  0
    3.0185   -2.6490   -1.3131 O   0  0  0  0  0  0  0  0  0  0  0  0
    5.2030   -1.8406   -2.0095 C   0  0  0  0  0  0  0  0  0  0  0  0
    6.6811   -2.0284   -2.2116 N   0  0  0  0  0  0  0  0  0  0  0  0
    7.5537   -1.3224   -1.2871 C   0  0  0  0  0  0  0  0  0  0  0  0
    8.7507   -1.9059   -0.8349 C   0  0  0  0  0  0  0  0  0  0  0  0
    9.5544   -1.2613    0.1395 C   0  0  0  0  0  0  0  0  0  0  0  0
   10.7022   -1.8051    0.6176 O   0  0  0  0  0  0  0  0  0  0  0  0
   11.2131   -3.0292    0.2562 C   0  0  0  0  0  0  0  0  0  0  0  0
    9.1771   -0.0177    0.6426 C   0  0  0  0  0  0  0  0  0  0  0  0
    8.0021    0.6025    0.1986 C   0  0  0  0  0  0  0  0  0  0  0  0
    7.6251    1.8429    0.6134 O   0  0  0  0  0  0  0  0  0  0  0  0
    8.3596    2.6832    1.4285 C   0  0  0  0  0  0  0  0  0  0  0  0
    7.1985   -0.0572   -0.7347 C   0  0  0  0  0  0  0  0  0  0  0  0
    7.1356   -3.0705   -3.1717 C   0  0  0  0  0  0  0  0  0  0  0  0
    6.1989   -4.0723   -3.4261 C   0  0  0  0  0  0  0  0  0  0  0  0
    6.4588   -5.1859   -4.1188 C   0  0  0  0  0  0  0  0  0  0  0  0
    7.6337   -5.3603   -4.7455 C   0  0  0  0  0  0  0  0  0  0  0  0
    7.7777   -6.5526   -5.2979 N   0  0  0  0  0  0  0  0  0  0  0  0
    8.7871   -6.8378   -6.0991 C   0  0  0  0  0  0  0  0  0  0  0  0
    9.6394   -5.8304   -6.5297 C   0  0  0  0  0  0  0  0  0  0  0  0
   10.1945   -6.1780   -7.9432 C   0  0  0  0  0  0  0  0  0  0  0  0
   10.9274   -5.4491   -8.8742 C   0  0  0  0  0  0  0  0  0  0  0  0
   10.8437   -6.0650  -10.0938 N   0  0  0  0  0  0  0  0  0  0  0  0
   10.1285   -7.1763   -9.9773 N   0  0  0  0  0  0  0  0  0  0  0  0
    9.5787   -7.9730  -11.1148 C   0  0  0  0  0  0  0  0  0  0  0  0
   10.0865   -9.4237  -11.2290 C   0  0  0  0  0  0  0  0  0  0  0  0
    8.0315   -8.0123  -11.0384 C   0  0  0  0  0  0  0  0  0  0  0  0
    9.7742   -7.3116   -8.6949 C   0  0  0  0  0  0  0  0  0  0  0  0
    9.6151   -4.6031   -5.8243 N   0  0  0  0  0  0  0  0  0  0  0  0
    8.6146   -4.3689   -4.8462 C   0  0  0  0  0  0  0  0  0  0  0  0
    8.3984   -3.1868   -3.9543 C   0  0  0  0  0  0  0  0  0  0  0  0
    1.9054   -0.6487    2.4227 Cl  0  0  0  0  0  0  0  0  0  0  0  0
    2.9608   -4.0948    2.9520 H   0  0  0  0  0  0  0  0  0  0  0  0
    3.9448   -2.6180    2.9121 H   0  0  0  0  0  0  0  0  0  0  0  0
    4.7390   -4.2657    2.7967 H   0  0  0  0  0  0  0  0  0  0  0  0
    5.6660   -3.0131    0.7004 H   0  0  0  0  0  0  0  0  0  0  0  0
    4.3858   -1.7019    0.7987 H   0  0  0  0  0  0  0  0  0  0  0  0
    4.5878   -3.8935   -1.2367 H   0  0  0  0  0  0  0  0  0  0  0  0
    2.7824   -1.7143   -1.0778 H   0  0  0  0  0  0  0  0  0  0  0  0
    4.9248   -0.8213   -1.7161 H   0  0  0  0  0  0  0  0  0  0  0  0
    4.7399   -1.8862   -3.0175 H   0  0  0  0  0  0  0  0  0  0  0  0
    9.0328   -2.8781   -1.2057 H   0  0  0  0  0  0  0  0  0  0  0  0
   12.1751   -3.1887    0.7822 H   0  0  0  0  0  0  0  0  0  0  0  0
   11.3948   -3.0499   -0.8388 H   0  0  0  0  0  0  0  0  0  0  0  0
   10.5046   -3.8345    0.5454 H   0  0  0  0  0  0  0  0  0  0  0  0
    9.8072    0.4675    1.3808 H   0  0  0  0  0  0  0  0  0  0  0  0
    7.8872    3.6877    1.4383 H   0  0  0  0  0  0  0  0  0  0  0  0
    9.3875    2.8002    1.0222 H   0  0  0  0  0  0  0  0  0  0  0  0
    8.3998    2.2909    2.4664 H   0  0  0  0  0  0  0  0  0  0  0  0
    6.3092    0.4741   -1.0232 H   0  0  0  0  0  0  0  0  0  0  0  0
    5.2176   -4.0800   -3.0655 H   0  0  0  0  0  0  0  0  0  0  0  0
    5.6989   -5.9472   -4.1924 H   0  0  0  0  0  0  0  0  0  0  0  0
    8.7402   -7.8260   -6.5030 H   0  0  0  0  0  0  0  0  0  0  0  0
   11.3952   -4.4856   -8.7328 H   0  0  0  0  0  0  0  0  0  0  0  0
    9.8500   -7.4660  -12.0670 H   0  0  0  0  0  0  0  0  0  0  0  0
    9.8284  -10.0381  -10.3411 H   0  0  0  0  0  0  0  0  0  0  0  0
   11.1775   -9.4539  -11.4148 H   0  0  0  0  0  0  0  0  0  0  0  0
    9.5989   -9.9086  -12.1123 H   0  0  0  0  0  0  0  0  0  0  0  0
    7.6833   -8.5735  -10.1421 H   0  0  0  0  0  0  0  0  0  0  0  0
    7.5973   -8.5229  -11.9265 H   0  0  0  0  0  0  0  0  0  0  0  0
    7.6156   -6.9856  -10.9921 H   0  0  0  0  0  0  0  0  0  0  0  0
    9.1296   -8.1265   -8.4162 H   0  0  0  0  0  0  0  0  0  0  0  0
    9.1434   -2.3943   -3.9045 H   0  0  0  0  0  0  0  0  0  0  0  0
    2.3578    0.2743    1.5100 H   0  0  0  0  0  0  0  0  0  0  0  0
  1  2  1  0  0  0  0
  1 37  1  0  0  0  0
  1 38  1  0  0  0  0
  1 39  1  0  0  0  0
  2  3  1  0  0  0  0
  3  4  1  0  0  0  0
  3 40  1  0  0  0  0
  3 41  1  0  0  0  0
  4  5  1  0  0  0  0
  4  6  1  0  0  0  0
  4 42  1  6  0  0  0
  5 43  1  0  0  0  0
  6  7  1  0  0  0  0
  6 44  1  0  0  0  0
  6 45  1  0  0  0  0
  7  8  1  0  0  0  0
  7 18  1  0  0  0  0
  8  9  1  0  0  0  0
  8 17  2  0  0  0  0
  9 10  2  0  0  0  0
  9 46  1  0  0  0  0
 10 11  1  0  0  0  0
 10 13  1  0  0  0  0
 11 12  1  0  0  0  0
 12 47  1  0  0  0  0
 12 48  1  0  0  0  0
 12 49  1  0  0  0  0
 13 14  2  0  0  0  0
 13 50  1  0  0  0  0
 14 15  1  0  0  0  0
 14 17  1  0  0  0  0
 15 16  1  0  0  0  0
 16 51  1  0  0  0  0
 16 52  1  0  0  0  0
 16 53  1  0  0  0  0
 17 54  1  0  0  0  0
 18 19  1  0  0  0  0
 18 35  2  0  0  0  0
 19 20  2  0  0  0  0
 19 55  1  0  0  0  0
 20 21  1  0  0  0  0
 20 56  1  0  0  0  0
 21 22  1  0  0  0  0
 21 34  2  0  0  0  0
 22 23  2  0  0  0  0
 23 24  1  0  0  0  0
 23 57  1  0  0  0  0
 24 25  1  0  0  0  0
 24 33  2  0  0  0  0
 25 26  1  0  0  0  0
 25 32  2  0  0  0  0
 26 27  2  0  0  0  0
 26 58  1  0  0  0  0
 27 28  1  0  0  0  0
 28 29  1  0  0  0  0
 28 32  1  0  0  0  0
 29 30  1  0  0  0  0
 29 31  1  0  0  0  0
 29 59  1  0  0  0  0
 30 60  1  0  0  0  0
 30 61  1  0  0  0  0
 30 62  1  0  0  0  0
 31 63  1  0  0  0  0
 31 64  1  0  0  0  0
 31 65  1  0  0  0  0
 32 66  1  0  0  0  0
 33 34  1  0  0  0  0
 34 35  1  0  0  0  0
 35 67  1  0  0  0  0
 36 68  1  0  0  0  0
M  END
$$$$
