CHEMBL150315
 OpenBabel04072215363D

 36 38  0  0  0  0  0  0  0  0999 V2000
    3.5113   -1.2583   -0.2952 C   0  0  0  0  0  0  0  0  0  0  0  0
    2.5929   -0.2212    0.0651 O   0  0  0  0  0  0  0  0  0  0  0  0
    3.1234    1.0401    0.1346 C   0  0  0  0  0  0  0  0  0  0  0  0
    4.1701    1.4374   -0.7115 C   0  0  0  0  0  0  0  0  0  0  0  0
    4.8248    2.6515   -0.5709 C   0  0  0  0  0  0  0  0  0  0  0  0
    5.8826    2.9071   -1.3471 N   0  0  0  0  0  0  0  0  0  0  0  0
    6.5404    4.0444   -1.1021 C   0  0  0  0  0  0  0  0  0  0  0  0
    6.2482    4.9334   -0.1601 N   0  0  0  0  0  0  0  0  0  0  0  0
    5.1649    4.6792    0.6027 C   0  0  0  0  0  0  0  0  0  0  0  0
    4.8787    5.5528    1.6831 N   0  0  0  0  0  0  0  0  0  0  0  0
    5.8095    6.4450    2.2546 C   0  0  0  0  0  0  0  0  0  0  0  0
    7.1304    6.0452    2.5028 C   0  0  0  0  0  0  0  0  0  0  0  0
    8.0728    6.9538    2.9865 C   0  0  0  0  0  0  0  0  0  0  0  0
    7.6925    8.2691    3.2427 C   0  0  0  0  0  0  0  0  0  0  0  0
    8.8720    9.4039    3.7716 Cl  0  0  0  0  0  0  0  0  0  0  0  0
    6.3722    8.6720    3.0620 C   0  0  0  0  0  0  0  0  0  0  0  0
    5.4424    7.7541    2.5809 C   0  0  0  0  0  0  0  0  0  0  0  0
    4.1727    8.1505    2.3954 F   0  0  0  0  0  0  0  0  0  0  0  0
    4.3778    3.5349    0.4126 C   0  0  0  0  0  0  0  0  0  0  0  0
    3.2395    3.2035    1.1776 C   0  0  0  0  0  0  0  0  0  0  0  0
    2.6117    1.9602    1.0590 C   0  0  0  0  0  0  0  0  0  0  0  0
    1.5768    1.8463    1.9406 O   0  0  0  0  0  0  0  0  0  0  0  0
    0.8989    0.6121    2.0920 C   0  0  0  0  0  0  0  0  0  0  0  0
    3.2715   -2.1470    0.2961 H   0  0  0  0  0  0  0  0  0  0  0  0
    4.5609   -1.0156   -0.0871 H   0  0  0  0  0  0  0  0  0  0  0  0
    3.3849   -1.5031   -1.3543 H   0  0  0  0  0  0  0  0  0  0  0  0
    4.5330    0.7709   -1.4935 H   0  0  0  0  0  0  0  0  0  0  0  0
    7.4139    4.2508   -1.7165 H   0  0  0  0  0  0  0  0  0  0  0  0
    3.9512    5.9595    1.5889 H   0  0  0  0  0  0  0  0  0  0  0  0
    7.4364    5.0219    2.2978 H   0  0  0  0  0  0  0  0  0  0  0  0
    9.0986    6.6287    3.1381 H   0  0  0  0  0  0  0  0  0  0  0  0
    6.0612    9.6893    3.2727 H   0  0  0  0  0  0  0  0  0  0  0  0
    2.8574    3.9011    1.9201 H   0  0  0  0  0  0  0  0  0  0  0  0
    0.3062    0.6904    3.0107 H   0  0  0  0  0  0  0  0  0  0  0  0
    1.5843   -0.2264    2.2345 H   0  0  0  0  0  0  0  0  0  0  0  0
    0.2062    0.4473    1.2635 H   0  0  0  0  0  0  0  0  0  0  0  0
  1  2  1  0  0  0  0
  1 24  1  0  0  0  0
  1 25  1  0  0  0  0
  1 26  1  0  0  0  0
  2  3  1  0  0  0  0
  3  4  1  0  0  0  0
  3 21  2  0  0  0  0
  4  5  2  0  0  0  0
  4 27  1  0  0  0  0
  5  6  1  0  0  0  0
  5 19  1  0  0  0  0
  6  7  2  0  0  0  0
  7  8  1  0  0  0  0
  7 28  1  0  0  0  0
  8  9  2  0  0  0  0
  9 10  1  0  0  0  0
  9 19  1  0  0  0  0
 10 11  1  0  0  0  0
 10 29  1  0  0  0  0
 11 12  1  0  0  0  0
 11 17  2  0  0  0  0
 12 13  2  0  0  0  0
 12 30  1  0  0  0  0
 13 14  1  0  0  0  0
 13 31  1  0  0  0  0
 14 15  1  0  0  0  0
 14 16  2  0  0  0  0
 16 17  1  0  0  0  0
 16 32  1  0  0  0  0
 17 18  1  0  0  0  0
 19 20  2  0  0  0  0
 20 21  1  0  0  0  0
 20 33  1  0  0  0  0
 21 22  1  0  0  0  0
 22 23  1  0  0  0  0
 23 34  1  0  0  0  0
 23 35  1  0  0  0  0
 23 36  1  0  0  0  0
M  END
$$$$
