CHEMBL2003785
 OpenBabel04072215363D

 28 30  0  0  0  0  0  0  0  0999 V2000
   -0.9244    1.7410    2.1828 F   0  0  0  0  0  0  0  0  0  0  0  0
   -0.7855    0.9037    1.1463 C   0  0  0  0  0  0  0  0  0  0  0  0
    0.0899    1.2303    0.1177 C   0  0  0  0  0  0  0  0  0  0  0  0
    0.2361    0.3594   -0.9607 C   0  0  0  0  0  0  0  0  0  0  0  0
   -0.4921   -0.8339   -0.9994 C   0  0  0  0  0  0  0  0  0  0  0  0
   -1.3739   -1.1693    0.0408 C   0  0  0  0  0  0  0  0  0  0  0  0
   -2.1377   -2.4755    0.0256 C   0  0  0  0  0  0  0  0  0  0  0  0
   -3.5610   -2.2059    0.0395 N   0  0  0  0  0  0  0  0  0  0  0  0
   -4.3886   -3.3311    0.0602 C   0  0  0  0  0  0  0  0  0  0  0  0
   -3.9824   -4.4929    0.6407 N   0  0  0  0  0  0  0  0  0  0  0  0
   -4.8364   -5.5419    0.6702 C   0  0  0  0  0  0  0  0  0  0  0  0
   -6.0879   -5.6183    0.1739 N   0  0  0  0  0  0  0  0  0  0  0  0
   -6.4365   -4.4567   -0.3950 C   0  0  0  0  0  0  0  0  0  0  0  0
   -7.6247   -4.1615   -0.9970 N   0  0  0  0  0  0  0  0  0  0  0  0
   -7.5507   -2.8700   -1.4446 C   0  0  0  0  0  0  0  0  0  0  0  0
   -6.3875   -2.3190   -1.1676 N   0  0  0  0  0  0  0  0  0  0  0  0
   -5.6822   -3.3016   -0.4984 C   0  0  0  0  0  0  0  0  0  0  0  0
   -1.5138   -0.2808    1.1186 C   0  0  0  0  0  0  0  0  0  0  0  0
    0.6508    2.1581    0.1644 H   0  0  0  0  0  0  0  0  0  0  0  0
    0.9194    0.6073   -1.7690 H   0  0  0  0  0  0  0  0  0  0  0  0
   -0.3621   -1.5036   -1.8476 H   0  0  0  0  0  0  0  0  0  0  0  0
   -1.8271   -3.0556    0.9037 H   0  0  0  0  0  0  0  0  0  0  0  0
   -1.8717   -3.0538   -0.8682 H   0  0  0  0  0  0  0  0  0  0  0  0
   -3.8870   -1.5393   -0.6568 H   0  0  0  0  0  0  0  0  0  0  0  0
   -4.4641   -6.4389    1.1573 H   0  0  0  0  0  0  0  0  0  0  0  0
   -8.4066   -4.7927   -1.0857 H   0  0  0  0  0  0  0  0  0  0  0  0
   -8.3714   -2.3896   -1.9622 H   0  0  0  0  0  0  0  0  0  0  0  0
   -2.1908   -0.5080    1.9380 H   0  0  0  0  0  0  0  0  0  0  0  0
  1  2  1  0  0  0  0
  2  3  1  0  0  0  0
  2 18  2  0  0  0  0
  3  4  2  0  0  0  0
  3 19  1  0  0  0  0
  4  5  1  0  0  0  0
  4 20  1  0  0  0  0
  5  6  2  0  0  0  0
  5 21  1  0  0  0  0
  6  7  1  0  0  0  0
  6 18  1  0  0  0  0
  7  8  1  0  0  0  0
  7 22  1  0  0  0  0
  7 23  1  0  0  0  0
  8  9  1  0  0  0  0
  8 24  1  0  0  0  0
  9 10  1  0  0  0  0
  9 17  2  0  0  0  0
 10 11  2  0  0  0  0
 11 12  1  0  0  0  0
 11 25  1  0  0  0  0
 12 13  2  0  0  0  0
 13 14  1  0  0  0  0
 13 17  1  0  0  0  0
 14 15  1  0  0  0  0
 14 26  1  0  0  0  0
 15 16  2  0  0  0  0
 15 27  1  0  0  0  0
 16 17  1  0  0  0  0
 18 28  1  0  0  0  0
M  END
$$$$
