CHEMBL1254752
 OpenBabel04072215363D

 44 47  0  0  0  0  0  0  0  0999 V2000
    0.5889   -0.3755    0.4307 C   0  0  0  0  0  0  0  0  0  0  0  0
    1.9548   -0.2583    0.8898 N   0  0  0  0  0  0  0  0  0  0  0  0
    2.4879    0.8706    1.4604 C   0  0  0  0  0  0  0  0  0  0  0  0
    3.7930    0.5963    1.8058 C   0  0  0  0  0  0  0  0  0  0  0  0
    4.0589   -0.7352    1.4162 C   0  0  0  0  0  0  0  0  0  0  0  0
    5.1978   -1.4418    1.5524 N   0  0  0  0  0  0  0  0  0  0  0  0
    5.1217   -2.6768    1.0435 C   0  0  0  0  0  0  0  0  0  0  0  0
    4.0720   -3.2534    0.4356 N   0  0  0  0  0  0  0  0  0  0  0  0
    2.9178   -2.5523    0.3514 C   0  0  0  0  0  0  0  0  0  0  0  0
    1.7961   -3.1152   -0.2526 O   0  0  0  0  0  0  0  0  0  0  0  0
    1.6027   -4.4731   -0.1230 C   0  0  0  0  0  0  0  0  0  0  0  0
    2.0095   -5.2023    0.9827 C   0  0  0  0  0  0  0  0  0  0  0  0
    1.7959   -6.5762    1.0439 C   0  0  0  0  0  0  0  0  0  0  0  0
    1.1089   -7.2547    0.0295 C   0  0  0  0  0  0  0  0  0  0  0  0
    0.8856   -8.6566    0.0674 N   0  0  0  0  0  0  0  0  0  0  0  0
    1.2050   -9.4766    1.1354 C   0  0  0  0  0  0  0  0  0  0  0  0
    1.6321   -9.0828    2.2160 O   0  0  0  0  0  0  0  0  0  0  0  0
    1.0376  -10.8297    0.8543 N   0  0  0  0  0  0  0  0  0  0  0  0
    1.4041  -11.7584    1.8648 C   0  0  0  0  0  0  0  0  0  0  0  0
    0.9714  -11.5825    3.1877 C   0  0  0  0  0  0  0  0  0  0  0  0
    1.5110  -12.3493    4.2193 C   0  0  0  0  0  0  0  0  0  0  0  0
    2.4739  -13.3077    3.9235 C   0  0  0  0  0  0  0  0  0  0  0  0
    3.2138  -14.1921    5.2003 Cl  0  0  0  0  0  0  0  0  0  0  0  0
    2.8611  -13.5368    2.6015 C   0  0  0  0  0  0  0  0  0  0  0  0
    2.3077  -12.7777    1.5634 C   0  0  0  0  0  0  0  0  0  0  0  0
    0.6480   -6.5127   -1.0595 C   0  0  0  0  0  0  0  0  0  0  0  0
    0.8910   -5.1281   -1.1360 C   0  0  0  0  0  0  0  0  0  0  0  0
    2.9074   -1.2500    0.8320 C   0  0  0  0  0  0  0  0  0  0  0  0
    0.0697    0.5743    0.5857 H   0  0  0  0  0  0  0  0  0  0  0  0
    0.0971   -1.1612    1.0098 H   0  0  0  0  0  0  0  0  0  0  0  0
    0.5979   -0.6186   -0.6344 H   0  0  0  0  0  0  0  0  0  0  0  0
    1.9014    1.7709    1.5870 H   0  0  0  0  0  0  0  0  0  0  0  0
    4.4845    1.2778    2.2836 H   0  0  0  0  0  0  0  0  0  0  0  0
    6.0132   -3.2893    1.1380 H   0  0  0  0  0  0  0  0  0  0  0  0
    2.5271   -4.7327    1.8166 H   0  0  0  0  0  0  0  0  0  0  0  0
    2.2012   -7.0740    1.9170 H   0  0  0  0  0  0  0  0  0  0  0  0
    0.3495   -9.0632   -0.6845 H   0  0  0  0  0  0  0  0  0  0  0  0
    1.2761  -11.0839   -0.0937 H   0  0  0  0  0  0  0  0  0  0  0  0
    0.2561  -10.7995    3.4336 H   0  0  0  0  0  0  0  0  0  0  0  0
    1.2079  -12.1578    5.2448 H   0  0  0  0  0  0  0  0  0  0  0  0
    3.6268  -14.2750    2.3797 H   0  0  0  0  0  0  0  0  0  0  0  0
    2.6655  -12.9298    0.5499 H   0  0  0  0  0  0  0  0  0  0  0  0
    0.1007   -6.9898   -1.8678 H   0  0  0  0  0  0  0  0  0  0  0  0
    0.5339   -4.5647   -1.9933 H   0  0  0  0  0  0  0  0  0  0  0  0
  1  2  1  0  0  0  0
  1 29  1  0  0  0  0
  1 30  1  0  0  0  0
  1 31  1  0  0  0  0
  2  3  1  0  0  0  0
  2 28  1  0  0  0  0
  3  4  2  0  0  0  0
  3 32  1  0  0  0  0
  4  5  1  0  0  0  0
  4 33  1  0  0  0  0
  5  6  1  0  0  0  0
  5 28  2  0  0  0  0
  6  7  2  0  0  0  0
  7  8  1  0  0  0  0
  7 34  1  0  0  0  0
  8  9  2  0  0  0  0
  9 10  1  0  0  0  0
  9 28  1  0  0  0  0
 10 11  1  0  0  0  0
 11 12  1  0  0  0  0
 11 27  2  0  0  0  0
 12 13  2  0  0  0  0
 12 35  1  0  0  0  0
 13 14  1  0  0  0  0
 13 36  1  0  0  0  0
 14 15  1  0  0  0  0
 14 26  2  0  0  0  0
 15 16  1  0  0  0  0
 15 37  1  0  0  0  0
 16 17  2  0  0  0  0
 16 18  1  0  0  0  0
 18 19  1  0  0  0  0
 18 38  1  0  0  0  0
 19 20  1  0  0  0  0
 19 25  2  0  0  0  0
 20 21  2  0  0  0  0
 20 39  1  0  0  0  0
 21 22  1  0  0  0  0
 21 40  1  0  0  0  0
 22 23  1  0  0  0  0
 22 24  2  0  0  0  0
 24 25  1  0  0  0  0
 24 41  1  0  0  0  0
 25 42  1  0  0  0  0
 26 27  1  0  0  0  0
 26 43  1  0  0  0  0
 27 44  1  0  0  0  0
M  END
$$$$
