CHEMBL219158
 OpenBabel04072215363D

 68 72  0  0  0  0  0  0  0  0999 V2000
    0.9311   -6.6584   -8.5803 C   0  0  0  0  0  0  0  0  0  0  0  0
    0.0469   -5.8845   -7.7398 N   0  0  0  0  0  0  0  0  0  0  0  0
    0.6244   -5.2933   -6.6311 C   0  0  0  0  0  0  0  0  0  0  0  0
   -0.1577   -5.2299   -5.5494 N   0  0  0  0  0  0  0  0  0  0  0  0
    0.3519   -4.6086   -4.4703 C   0  0  0  0  0  0  0  0  0  0  0  0
    1.6033   -4.0520   -4.4306 C   0  0  0  0  0  0  0  0  0  0  0  0
    2.3538   -4.1572   -5.5836 C   0  0  0  0  0  0  0  0  0  0  0  0
    3.7292   -3.6272   -5.7283 C   0  0  0  0  0  0  0  0  0  0  0  0
    4.6640   -4.3366   -6.5079 C   0  0  0  0  0  0  0  0  0  0  0  0
    5.9593   -3.8619   -6.6970 C   0  0  0  0  0  0  0  0  0  0  0  0
    6.3028   -2.6629   -6.1101 C   0  0  0  0  0  0  0  0  0  0  0  0
    5.4548   -1.9377   -5.3560 N   0  0  0  0  0  0  0  0  0  0  0  0
    4.2039   -2.4364   -5.1561 C   0  0  0  0  0  0  0  0  0  0  0  0
    3.3312   -1.6678   -4.3970 O   0  0  0  0  0  0  0  0  0  0  0  0
    3.8567   -0.8675   -3.3945 C   0  0  0  0  0  0  0  0  0  0  0  0
    4.8709   -1.3076   -2.5346 C   0  0  0  0  0  0  0  0  0  0  0  0
    5.2903   -0.5084   -1.4632 C   0  0  0  0  0  0  0  0  0  0  0  0
    6.2984   -1.0758   -0.5145 C   0  0  0  0  0  0  0  0  0  0  0  0
    7.0323   -1.9852   -0.8873 O   0  0  0  0  0  0  0  0  0  0  0  0
    6.3427   -0.4898    0.7414 N   0  0  0  0  0  0  0  0  0  0  0  0
    7.3652   -0.7700    1.6693 C   0  0  0  0  0  0  0  0  0  0  0  0
    7.5116   -2.0987    2.1004 C   0  0  0  0  0  0  0  0  0  0  0  0
    8.3821   -2.4165    3.1446 C   0  0  0  0  0  0  0  0  0  0  0  0
    8.5101   -3.8293    3.6515 C   0  0  0  0  0  0  0  0  0  0  0  0
    7.6504   -4.7075    3.0668 F   0  0  0  0  0  0  0  0  0  0  0  0
    9.7577   -4.3411    3.4600 F   0  0  0  0  0  0  0  0  0  0  0  0
    8.2750   -3.9216    4.9913 F   0  0  0  0  0  0  0  0  0  0  0  0
    9.1264   -1.3830    3.7210 C   0  0  0  0  0  0  0  0  0  0  0  0
    8.9906   -0.0600    3.2704 C   0  0  0  0  0  0  0  0  0  0  0  0
    8.1054    0.2975    2.2384 C   0  0  0  0  0  0  0  0  0  0  0  0
    8.0409    1.6097    1.7859 N   0  0  0  0  0  0  0  0  0  0  0  0
    7.8073    1.9718    0.3756 C   0  0  0  0  0  0  0  0  0  0  0  0
    8.8008    3.0281   -0.1198 C   0  0  0  0  0  0  0  0  0  0  0  0
    8.8457    4.1647    0.7522 O   0  0  0  0  0  0  0  0  0  0  0  0
    9.2363    3.7501    2.0716 C   0  0  0  0  0  0  0  0  0  0  0  0
    8.2141    2.7725    2.6742 C   0  0  0  0  0  0  0  0  0  0  0  0
    4.7318    0.7653   -1.3052 C   0  0  0  0  0  0  0  0  0  0  0  0
    3.7180    1.2043   -2.1542 C   0  0  0  0  0  0  0  0  0  0  0  0
    3.2436    0.3780   -3.1776 C   0  0  0  0  0  0  0  0  0  0  0  0
    2.0773    0.8344   -4.0030 C   0  0  0  0  0  0  0  0  0  0  0  0
    1.8715   -4.8009   -6.6753 N   0  0  0  0  0  0  0  0  0  0  0  0
    0.3651   -7.0349   -9.4404 H   0  0  0  0  0  0  0  0  0  0  0  0
    1.3319   -7.5259   -8.0458 H   0  0  0  0  0  0  0  0  0  0  0  0
    1.7577   -6.0581   -8.9742 H   0  0  0  0  0  0  0  0  0  0  0  0
   -0.7718   -6.3776   -7.4010 H   0  0  0  0  0  0  0  0  0  0  0  0
   -0.3097   -4.5727   -3.6065 H   0  0  0  0  0  0  0  0  0  0  0  0
    1.9617   -3.5704   -3.5296 H   0  0  0  0  0  0  0  0  0  0  0  0
    4.3764   -5.2752   -6.9791 H   0  0  0  0  0  0  0  0  0  0  0  0
    6.6763   -4.4146   -7.2951 H   0  0  0  0  0  0  0  0  0  0  0  0
    7.2945   -2.2383   -6.2330 H   0  0  0  0  0  0  0  0  0  0  0  0
    5.3332   -2.2822   -2.6795 H   0  0  0  0  0  0  0  0  0  0  0  0
    5.9120    0.4094    0.8833 H   0  0  0  0  0  0  0  0  0  0  0  0
    6.8987   -2.8794    1.6510 H   0  0  0  0  0  0  0  0  0  0  0  0
    9.8301   -1.6007    4.5234 H   0  0  0  0  0  0  0  0  0  0  0  0
    9.6375    0.6857    3.7243 H   0  0  0  0  0  0  0  0  0  0  0  0
    6.7999    2.3958    0.3114 H   0  0  0  0  0  0  0  0  0  0  0  0
    7.8889    1.1208   -0.3036 H   0  0  0  0  0  0  0  0  0  0  0  0
    8.4886    3.3791   -1.1097 H   0  0  0  0  0  0  0  0  0  0  0  0
    9.8061    2.6047   -0.2181 H   0  0  0  0  0  0  0  0  0  0  0  0
    9.3018    4.6498    2.6899 H   0  0  0  0  0  0  0  0  0  0  0  0
   10.2344    3.2992    2.0220 H   0  0  0  0  0  0  0  0  0  0  0  0
    7.2422    3.2755    2.7521 H   0  0  0  0  0  0  0  0  0  0  0  0
    8.5139    2.5063    3.6914 H   0  0  0  0  0  0  0  0  0  0  0  0
    5.0463    1.4493   -0.5288 H   0  0  0  0  0  0  0  0  0  0  0  0
    3.2865    2.1903   -1.9924 H   0  0  0  0  0  0  0  0  0  0  0  0
    1.7184    1.8163   -3.6749 H   0  0  0  0  0  0  0  0  0  0  0  0
    1.2461    0.1305   -3.8922 H   0  0  0  0  0  0  0  0  0  0  0  0
    2.3587    0.9148   -5.0570 H   0  0  0  0  0  0  0  0  0  0  0  0
  1  2  1  0  0  0  0
  1 42  1  0  0  0  0
  1 43  1  0  0  0  0
  1 44  1  0  0  0  0
  2  3  1  0  0  0  0
  2 45  1  0  0  0  0
  3  4  1  0  0  0  0
  3 41  2  0  0  0  0
  4  5  2  0  0  0  0
  5  6  1  0  0  0  0
  5 46  1  0  0  0  0
  6  7  2  0  0  0  0
  6 47  1  0  0  0  0
  7  8  1  0  0  0  0
  7 41  1  0  0  0  0
  8  9  1  0  0  0  0
  8 13  2  0  0  0  0
  9 10  2  0  0  0  0
  9 48  1  0  0  0  0
 10 11  1  0  0  0  0
 10 49  1  0  0  0  0
 11 12  2  0  0  0  0
 11 50  1  0  0  0  0
 12 13  1  0  0  0  0
 13 14  1  0  0  0  0
 14 15  1  0  0  0  0
 15 16  1  0  0  0  0
 15 39  2  0  0  0  0
 16 17  2  0  0  0  0
 16 51  1  0  0  0  0
 17 18  1  0  0  0  0
 17 37  1  0  0  0  0
 18 19  2  0  0  0  0
 18 20  1  0  0  0  0
 20 21  1  0  0  0  0
 20 52  1  0  0  0  0
 21 22  1  0  0  0  0
 21 30  2  0  0  0  0
 22 23  2  0  0  0  0
 22 53  1  0  0  0  0
 23 24  1  0  0  0  0
 23 28  1  0  0  0  0
 24 25  1  0  0  0  0
 24 26  1  0  0  0  0
 24 27  1  0  0  0  0
 28 29  2  0  0  0  0
 28 54  1  0  0  0  0
 29 30  1  0  0  0  0
 29 55  1  0  0  0  0
 30 31  1  0  0  0  0
 31 32  1  0  0  0  0
 31 36  1  0  0  0  0
 32 33  1  0  0  0  0
 32 56  1  0  0  0  0
 32 57  1  0  0  0  0
 33 34  1  0  0  0  0
 33 58  1  0  0  0  0
 33 59  1  0  0  0  0
 34 35  1  0  0  0  0
 35 36  1  0  0  0  0
 35 60  1  0  0  0  0
 35 61  1  0  0  0  0
 36 62  1  0  0  0  0
 36 63  1  0  0  0  0
 37 38  2  0  0  0  0
 37 64  1  0  0  0  0
 38 39  1  0  0  0  0
 38 65  1  0  0  0  0
 39 40  1  0  0  0  0
 40 66  1  0  0  0  0
 40 67  1  0  0  0  0
 40 68  1  0  0  0  0
M  END
$$$$
