CHEMBL373621
 OpenBabel04072215373D

 63 65  0  0  0  0  0  0  0  0999 V2000
    3.0297    2.3713    1.6421 C   0  0  0  0  0  0  0  0  0  0  0  0
    4.1129    3.2650    2.0576 N   0  0  0  0  0  0  0  0  0  0  0  0
    3.7456    3.9266    3.3150 C   0  0  0  0  0  0  0  0  0  0  0  0
    5.3991    2.5580    2.2117 C   0  0  0  0  0  0  0  0  0  0  0  0
    5.9402    1.8985    0.9279 C   0  0  0  0  0  0  0  0  0  0  0  0
    6.0948    2.9033   -0.2171 C   0  0  0  0  0  0  0  0  0  0  0  0
    6.7487    2.3418   -1.4345 N   0  0  0  0  0  0  0  0  0  0  0  0
    6.1356    1.1390   -2.0026 C   0  0  0  0  0  0  0  0  0  0  0  0
    7.2460    3.3000   -2.3655 C   0  0  0  0  0  0  0  0  0  0  0  0
    6.8034    4.6472   -2.2897 C   0  0  0  0  0  0  0  0  0  0  0  0
    7.3554    5.6818   -3.0513 C   0  0  0  0  0  0  0  0  0  0  0  0
    8.3917    5.4131   -3.9331 C   0  0  0  0  0  0  0  0  0  0  0  0
    9.0978    6.5042   -4.6929 C   0  0  0  0  0  0  0  0  0  0  0  0
    8.5637    7.7417   -4.4874 F   0  0  0  0  0  0  0  0  0  0  0  0
   10.4121    6.6097   -4.3475 F   0  0  0  0  0  0  0  0  0  0  0  0
    9.0780    6.3112   -6.0399 F   0  0  0  0  0  0  0  0  0  0  0  0
    8.7948    4.0837   -4.0932 C   0  0  0  0  0  0  0  0  0  0  0  0
    8.2177    3.0194   -3.3713 C   0  0  0  0  0  0  0  0  0  0  0  0
    8.6788    1.6990   -3.6351 N   0  0  0  0  0  0  0  0  0  0  0  0
    9.2663    1.2602   -4.8245 C   0  0  0  0  0  0  0  0  0  0  0  0
    9.4646    1.9547   -5.8204 O   0  0  0  0  0  0  0  0  0  0  0  0
    9.6541   -0.1838   -4.9466 C   0  0  0  0  0  0  0  0  0  0  0  0
   10.2900   -0.6272   -6.1332 C   0  0  0  0  0  0  0  0  0  0  0  0
   10.6578   -1.9721   -6.2967 C   0  0  0  0  0  0  0  0  0  0  0  0
   11.3037   -2.4433   -7.4893 C   0  0  0  0  0  0  0  0  0  0  0  0
   11.8565   -2.8987   -8.4610 C   0  0  0  0  0  0  0  0  0  0  0  0
   12.5310   -3.4442   -9.5992 C   0  0  0  0  0  0  0  0  0  0  0  0
   13.0630   -4.7157   -9.6267 C   0  0  0  0  0  0  0  0  0  0  0  0
   13.7352   -5.2310  -10.6842 N   0  0  0  0  0  0  0  0  0  0  0  0
   13.8863   -4.4311  -11.7436 C   0  0  0  0  0  0  0  0  0  0  0  0
   14.6015   -4.9082  -12.8191 N   0  0  0  0  0  0  0  0  0  0  0  0
   13.3780   -3.1988  -11.8398 N   0  0  0  0  0  0  0  0  0  0  0  0
   12.7142   -2.7289  -10.7593 C   0  0  0  0  0  0  0  0  0  0  0  0
   10.3893   -2.8816   -5.2716 C   0  0  0  0  0  0  0  0  0  0  0  0
    9.7615   -2.4545   -4.1007 C   0  0  0  0  0  0  0  0  0  0  0  0
    9.4013   -1.1184   -3.9434 C   0  0  0  0  0  0  0  0  0  0  0  0
    8.7954   -0.7624   -2.8038 F   0  0  0  0  0  0  0  0  0  0  0  0
    2.0888    2.9264    1.5505 H   0  0  0  0  0  0  0  0  0  0  0  0
    2.8778    1.5487    2.3492 H   0  0  0  0  0  0  0  0  0  0  0  0
    3.2212    1.9502    0.6503 H   0  0  0  0  0  0  0  0  0  0  0  0
    2.7921    4.4576    3.2100 H   0  0  0  0  0  0  0  0  0  0  0  0
    4.4923    4.6803    3.5879 H   0  0  0  0  0  0  0  0  0  0  0  0
    3.6504    3.2154    4.1439 H   0  0  0  0  0  0  0  0  0  0  0  0
    5.3180    1.7881    2.9903 H   0  0  0  0  0  0  0  0  0  0  0  0
    6.1548    3.2756    2.5585 H   0  0  0  0  0  0  0  0  0  0  0  0
    5.2782    1.0743    0.6472 H   0  0  0  0  0  0  0  0  0  0  0  0
    6.9136    1.4441    1.1465 H   0  0  0  0  0  0  0  0  0  0  0  0
    6.7148    3.7223    0.1733 H   0  0  0  0  0  0  0  0  0  0  0  0
    5.1110    3.3104   -0.4819 H   0  0  0  0  0  0  0  0  0  0  0  0
    5.2707    0.7990   -1.4247 H   0  0  0  0  0  0  0  0  0  0  0  0
    6.8515    0.3143   -1.9633 H   0  0  0  0  0  0  0  0  0  0  0  0
    5.7870    1.2767   -3.0303 H   0  0  0  0  0  0  0  0  0  0  0  0
    5.9985    4.9379   -1.6192 H   0  0  0  0  0  0  0  0  0  0  0  0
    6.9847    6.6971   -2.9210 H   0  0  0  0  0  0  0  0  0  0  0  0
    9.6280    3.9018   -4.7689 H   0  0  0  0  0  0  0  0  0  0  0  0
    8.4452    1.0164   -2.9220 H   0  0  0  0  0  0  0  0  0  0  0  0
   10.4951    0.0851   -6.9320 H   0  0  0  0  0  0  0  0  0  0  0  0
   12.9776   -5.3878   -8.7759 H   0  0  0  0  0  0  0  0  0  0  0  0
   14.5952   -5.9173  -12.8393 H   0  0  0  0  0  0  0  0  0  0  0  0
   14.3409   -4.4157  -13.6613 H   0  0  0  0  0  0  0  0  0  0  0  0
   12.3317   -1.7179  -10.8650 H   0  0  0  0  0  0  0  0  0  0  0  0
   10.6669   -3.9286   -5.3779 H   0  0  0  0  0  0  0  0  0  0  0  0
    9.5487   -3.1612   -3.3040 H   0  0  0  0  0  0  0  0  0  0  0  0
  1  2  1  0  0  0  0
  1 38  1  0  0  0  0
  1 39  1  0  0  0  0
  1 40  1  0  0  0  0
  2  3  1  0  0  0  0
  2  4  1  0  0  0  0
  3 41  1  0  0  0  0
  3 42  1  0  0  0  0
  3 43  1  0  0  0  0
  4  5  1  0  0  0  0
  4 44  1  0  0  0  0
  4 45  1  0  0  0  0
  5  6  1  0  0  0  0
  5 46  1  0  0  0  0
  5 47  1  0  0  0  0
  6  7  1  0  0  0  0
  6 48  1  0  0  0  0
  6 49  1  0  0  0  0
  7  8  1  0  0  0  0
  7  9  1  0  0  0  0
  8 50  1  0  0  0  0
  8 51  1  0  0  0  0
  8 52  1  0  0  0  0
  9 10  1  0  0  0  0
  9 18  2  0  0  0  0
 10 11  2  0  0  0  0
 10 53  1  0  0  0  0
 11 12  1  0  0  0  0
 11 54  1  0  0  0  0
 12 13  1  0  0  0  0
 12 17  2  0  0  0  0
 13 14  1  0  0  0  0
 13 15  1  0  0  0  0
 13 16  1  0  0  0  0
 17 18  1  0  0  0  0
 17 55  1  0  0  0  0
 18 19  1  0  0  0  0
 19 20  1  0  0  0  0
 19 56  1  0  0  0  0
 20 21  2  0  0  0  0
 20 22  1  0  0  0  0
 22 23  1  0  0  0  0
 22 36  2  0  0  0  0
 23 24  2  0  0  0  0
 23 57  1  0  0  0  0
 24 25  1  0  0  0  0
 24 34  1  0  0  0  0
 25 26  3  0  0  0  0
 26 27  1  0  0  0  0
 27 28  1  0  0  0  0
 27 33  2  0  0  0  0
 28 29  2  0  0  0  0
 28 58  1  0  0  0  0
 29 30  1  0  0  0  0
 30 31  1  0  0  0  0
 30 32  2  0  0  0  0
 31 59  1  0  0  0  0
 31 60  1  0  0  0  0
 32 33  1  0  0  0  0
 33 61  1  0  0  0  0
 34 35  2  0  0  0  0
 34 62  1  0  0  0  0
 35 36  1  0  0  0  0
 35 63  1  0  0  0  0
 36 37  1  0  0  0  0
M  END
$$$$
