CHEMBL184274
 OpenBabel04072215363D

 59 63  0  0  0  0  0  0  0  0999 V2000
   -4.1199    3.3857    2.3152 C   0  0  0  0  0  0  0  0  0  0  0  0
   -3.4389    2.2431    1.6426 C   0  0  0  0  0  0  0  0  0  0  0  0
   -2.1281    2.4088    1.1945 C   0  0  0  0  0  0  0  0  0  0  0  0
   -1.4571    1.3801    0.5731 C   0  0  0  0  0  0  0  0  0  0  0  0
   -2.1085    0.1772    0.3876 C   0  0  0  0  0  0  0  0  0  0  0  0
   -3.4211   -0.0483    0.7732 C   0  0  0  0  0  0  0  0  0  0  0  0
   -4.0683   -1.3276    0.5372 N   0  0  0  0  0  0  0  0  0  0  0  0
   -3.3242   -2.5057    0.3032 C   0  0  0  0  0  0  0  0  0  0  0  0
   -2.0943   -2.5179    0.2874 O   0  0  0  0  0  0  0  0  0  0  0  0
   -4.0068   -3.6944    0.0272 N   0  0  0  0  0  0  0  0  0  0  0  0
   -5.4489   -3.7405    0.0333 C   0  0  0  0  0  0  0  0  0  0  0  0
   -6.1641   -2.9390   -0.8327 C   0  0  0  0  0  0  0  0  0  0  0  0
   -7.5466   -3.0009   -0.9494 C   0  0  0  0  0  0  0  0  0  0  0  0
   -8.2997   -3.8671   -0.1882 C   0  0  0  0  0  0  0  0  0  0  0  0
   -9.7251   -3.8625   -0.1929 C   0  0  0  0  0  0  0  0  0  0  0  0
  -10.4689   -5.0162    0.0362 C   0  0  0  0  0  0  0  0  0  0  0  0
  -11.8784   -5.0088    0.0293 C   0  0  0  0  0  0  0  0  0  0  0  0
  -12.5829   -3.8134   -0.1956 C   0  0  0  0  0  0  0  0  0  0  0  0
  -14.0281   -3.8130   -0.1747 N   0  0  0  0  0  0  0  0  0  0  0  0
  -14.7650   -4.8351    0.4536 C   0  0  0  0  0  0  0  0  0  0  0  0
  -14.3033   -5.8024    1.0295 O   0  0  0  0  0  0  0  0  0  0  0  0
  -16.2297   -4.8325    0.4653 C   0  0  0  0  0  0  0  0  0  0  0  0
  -16.9684   -4.2777   -0.5435 C   0  0  0  0  0  0  0  0  0  0  0  0
  -18.3508   -4.3319   -0.5039 C   0  0  0  0  0  0  0  0  0  0  0  0
  -18.9512   -4.9668    0.5598 C   0  0  0  0  0  0  0  0  0  0  0  0
  -18.2848   -5.5276    1.5785 N   0  0  0  0  0  0  0  0  0  0  0  0
  -16.9328   -5.4584    1.4907 C   0  0  0  0  0  0  0  0  0  0  0  0
  -11.7751   -2.6533   -0.4312 C   0  0  0  0  0  0  0  0  0  0  0  0
  -10.4090   -2.7210   -0.4161 C   0  0  0  0  0  0  0  0  0  0  0  0
   -9.7819   -1.4829   -0.6955 C   0  0  0  0  0  0  0  0  0  0  0  0
  -10.7469   -0.5285   -0.8648 N   0  0  0  0  0  0  0  0  0  0  0  0
  -12.0675   -1.2280   -0.7200 C   0  0  0  0  0  0  0  0  0  0  0  0
  -12.2877   -0.0612   -0.9559 O   0  0  0  0  0  0  0  0  0  0  0  0
   -7.5677   -4.7312    0.6097 C   0  0  0  0  0  0  0  0  0  0  0  0
   -6.1907   -4.5945    0.8238 C   0  0  0  0  0  0  0  0  0  0  0  0
   -4.0748    1.0367    1.3711 C   0  0  0  0  0  0  0  0  0  0  0  0
   -3.4635    4.2618    2.3828 H   0  0  0  0  0  0  0  0  0  0  0  0
   -4.3963    3.0903    3.3295 H   0  0  0  0  0  0  0  0  0  0  0  0
   -5.0202    3.6774    1.7704 H   0  0  0  0  0  0  0  0  0  0  0  0
   -1.6018    3.3404    1.3491 H   0  0  0  0  0  0  0  0  0  0  0  0
   -0.4338    1.5038    0.2322 H   0  0  0  0  0  0  0  0  0  0  0  0
   -1.5322   -0.5930   -0.0841 H   0  0  0  0  0  0  0  0  0  0  0  0
   -5.0844   -1.3236    0.5523 H   0  0  0  0  0  0  0  0  0  0  0  0
   -3.5514   -4.5737   -0.1853 H   0  0  0  0  0  0  0  0  0  0  0  0
   -5.6270   -2.2004   -1.4105 H   0  0  0  0  0  0  0  0  0  0  0  0
   -8.0258   -2.3763   -1.6804 H   0  0  0  0  0  0  0  0  0  0  0  0
   -9.9214   -5.9402    0.2304 H   0  0  0  0  0  0  0  0  0  0  0  0
  -12.3810   -5.9548    0.1999 H   0  0  0  0  0  0  0  0  0  0  0  0
  -14.5120   -3.0317   -0.6163 H   0  0  0  0  0  0  0  0  0  0  0  0
  -16.4842   -3.7990   -1.3809 H   0  0  0  0  0  0  0  0  0  0  0  0
  -18.9608   -3.8878   -1.2792 H   0  0  0  0  0  0  0  0  0  0  0  0
  -20.0360   -5.0273    0.5907 H   0  0  0  0  0  0  0  0  0  0  0  0
  -16.3939   -5.9124    2.3187 H   0  0  0  0  0  0  0  0  0  0  0  0
   -9.1612   -1.4783   -1.6096 H   0  0  0  0  0  0  0  0  0  0  0  0
   -9.1180   -1.1045    0.1135 H   0  0  0  0  0  0  0  0  0  0  0  0
  -10.6533    0.4893   -1.0643 H   0  0  0  0  0  0  0  0  0  0  0  0
   -8.1123   -5.5579    1.0343 H   0  0  0  0  0  0  0  0  0  0  0  0
   -5.7339   -5.1188    1.6556 H   0  0  0  0  0  0  0  0  0  0  0  0
   -5.0814    0.9065    1.7361 H   0  0  0  0  0  0  0  0  0  0  0  0
  1  2  1  0  0  0  0
  1 37  1  0  0  0  0
  1 38  1  0  0  0  0
  1 39  1  0  0  0  0
  2  3  1  0  0  0  0
  2 36  2  0  0  0  0
  3  4  2  0  0  0  0
  3 40  1  0  0  0  0
  4  5  1  0  0  0  0
  4 41  1  0  0  0  0
  5  6  2  0  0  0  0
  5 42  1  0  0  0  0
  6  7  1  0  0  0  0
  6 36  1  0  0  0  0
  7  8  1  0  0  0  0
  7 43  1  0  0  0  0
  8  9  2  0  0  0  0
  8 10  1  0  0  0  0
 10 11  1  0  0  0  0
 10 44  1  0  0  0  0
 11 12  1  0  0  0  0
 11 35  2  0  0  0  0
 12 13  2  0  0  0  0
 12 45  1  0  0  0  0
 13 14  1  0  0  0  0
 13 46  1  0  0  0  0
 14 15  1  0  0  0  0
 14 34  2  0  0  0  0
 15 16  1  0  0  0  0
 15 29  2  0  0  0  0
 16 17  2  0  0  0  0
 16 47  1  0  0  0  0
 17 18  1  0  0  0  0
 17 48  1  0  0  0  0
 18 19  1  0  0  0  0
 18 28  2  0  0  0  0
 19 20  1  0  0  0  0
 19 49  1  0  0  0  0
 20 21  2  0  0  0  0
 20 22  1  0  0  0  0
 22 23  1  0  0  0  0
 22 27  2  0  0  0  0
 23 24  2  0  0  0  0
 23 50  1  0  0  0  0
 24 25  1  0  0  0  0
 24 51  1  0  0  0  0
 25 26  2  0  0  0  0
 25 52  1  0  0  0  0
 26 27  1  0  0  0  0
 27 53  1  0  0  0  0
 28 29  1  0  0  0  0
 28 32  1  0  0  0  0
 29 30  1  0  0  0  0
 30 31  1  0  0  0  0
 30 54  1  0  0  0  0
 30 55  1  0  0  0  0
 31 32  1  0  0  0  0
 31 56  1  0  0  0  0
 32 33  2  0  0  0  0
 34 35  1  0  0  0  0
 34 57  1  0  0  0  0
 35 58  1  0  0  0  0
 36 59  1  0  0  0  0
M  END
$$$$
