CHEMBL3668018
 OpenBabel04072215373D

 59 64  0  0  0  0  0  0  0  0999 V2000
   -3.7163    1.8727   -0.2584 C   0  0  0  0  0  0  0  0  0  0  0  0
   -2.6574    1.5622    0.5736 C   0  0  0  0  0  0  0  0  0  0  0  0
   -2.1473    0.2646    0.5771 C   0  0  0  0  0  0  0  0  0  0  0  0
   -2.6496   -0.7486   -0.2856 C   0  0  0  0  0  0  0  0  0  0  0  0
   -2.1555   -2.0873   -0.3840 C   0  0  0  0  0  0  0  0  0  0  0  0
   -0.9944   -2.5610    0.3776 C   0  0  0  0  0  0  0  0  0  0  0  0
    0.2007   -1.8968    0.7345 C   0  0  0  0  0  0  0  0  0  0  0  0
    1.0236   -2.6358    1.4741 N   0  0  0  0  0  0  0  0  0  0  0  0
    0.4041   -3.8320    1.5626 N   0  0  0  0  0  0  0  0  0  0  0  0
    0.8648   -4.9590    2.2285 C   0  0  0  0  0  0  0  0  0  0  0  0
    0.1564   -6.0987    2.2021 C   0  0  0  0  0  0  0  0  0  0  0  0
    0.5925   -7.3079    2.8866 C   0  0  0  0  0  0  0  0  0  0  0  0
    0.2508   -7.5131    4.2272 C   0  0  0  0  0  0  0  0  0  0  0  0
    0.6571   -8.6770    4.8840 C   0  0  0  0  0  0  0  0  0  0  0  0
    1.3929   -9.6460    4.1998 C   0  0  0  0  0  0  0  0  0  0  0  0
    1.8017  -10.8390    4.7336 O   0  0  0  0  0  0  0  0  0  0  0  0
    0.9582  -11.3494    5.7741 C   0  0  0  0  0  0  0  0  0  0  0  0
    1.0598  -12.8825    5.7869 C   0  0  0  0  0  0  0  0  0  0  0  0
    0.2181  -13.5430    6.8062 N   0  0  0  0  0  0  0  0  0  0  0  0
    0.3668  -15.0179    6.7346 C   0  0  0  0  0  0  0  0  0  0  0  0
   -0.3232  -15.6609    5.5139 C   0  0  0  0  0  0  0  0  0  0  0  0
   -1.7040  -15.2862    5.4141 O   0  0  0  0  0  0  0  0  0  0  0  0
   -1.8554  -13.8617    5.4105 C   0  0  0  0  0  0  0  0  0  0  0  0
   -1.2272  -13.2480    6.6703 C   0  0  0  0  0  0  0  0  0  0  0  0
    1.7682   -9.4223    2.8747 C   0  0  0  0  0  0  0  0  0  0  0  0
    1.3646   -8.2591    2.2159 C   0  0  0  0  0  0  0  0  0  0  0  0
   -1.1096   -6.0336    1.4143 C   0  0  0  0  0  0  0  0  0  0  0  0
   -1.5809   -4.9878    0.8011 N   0  0  0  0  0  0  0  0  0  0  0  0
   -0.8179   -3.8461    0.8747 C   0  0  0  0  0  0  0  0  0  0  0  0
   -2.7939   -2.9774   -1.2541 C   0  0  0  0  0  0  0  0  0  0  0  0
   -3.8744   -2.5367   -1.9884 C   0  0  0  0  0  0  0  0  0  0  0  0
   -4.3484   -1.2804   -1.9380 N   0  0  0  0  0  0  0  0  0  0  0  0
   -3.7501   -0.4122   -1.1102 C   0  0  0  0  0  0  0  0  0  0  0  0
   -4.2580    0.8832   -1.0780 C   0  0  0  0  0  0  0  0  0  0  0  0
   -4.1346    2.8762   -0.2662 H   0  0  0  0  0  0  0  0  0  0  0  0
   -2.2285    2.3179    1.2265 H   0  0  0  0  0  0  0  0  0  0  0  0
   -1.3498    0.0595    1.2833 H   0  0  0  0  0  0  0  0  0  0  0  0
    0.5058   -0.8864    0.4949 H   0  0  0  0  0  0  0  0  0  0  0  0
    1.8060   -4.8428    2.7514 H   0  0  0  0  0  0  0  0  0  0  0  0
   -0.3319   -6.7735    4.7708 H   0  0  0  0  0  0  0  0  0  0  0  0
    0.3885   -8.8013    5.9288 H   0  0  0  0  0  0  0  0  0  0  0  0
   -0.0812  -11.0659    5.5799 H   0  0  0  0  0  0  0  0  0  0  0  0
    1.2837  -10.9370    6.7363 H   0  0  0  0  0  0  0  0  0  0  0  0
    2.1107  -13.1429    5.9708 H   0  0  0  0  0  0  0  0  0  0  0  0
    0.8469  -13.2481    4.7752 H   0  0  0  0  0  0  0  0  0  0  0  0
   -0.0852  -15.4347    7.6444 H   0  0  0  0  0  0  0  0  0  0  0  0
    1.4254  -15.3011    6.7654 H   0  0  0  0  0  0  0  0  0  0  0  0
   -0.2895  -16.7509    5.6085 H   0  0  0  0  0  0  0  0  0  0  0  0
    0.1848  -15.4001    4.5791 H   0  0  0  0  0  0  0  0  0  0  0  0
   -2.9274  -13.6418    5.3888 H   0  0  0  0  0  0  0  0  0  0  0  0
   -1.4210  -13.4495    4.4923 H   0  0  0  0  0  0  0  0  0  0  0  0
   -1.7315  -13.6702    7.5498 H   0  0  0  0  0  0  0  0  0  0  0  0
   -1.4249  -12.1733    6.7190 H   0  0  0  0  0  0  0  0  0  0  0  0
    2.3618  -10.1653    2.3483 H   0  0  0  0  0  0  0  0  0  0  0  0
    1.6605   -8.1061    1.1795 H   0  0  0  0  0  0  0  0  0  0  0  0
   -1.6829   -6.9743    1.3625 H   0  0  0  0  0  0  0  0  0  0  0  0
   -2.4672   -4.0049   -1.3692 H   0  0  0  0  0  0  0  0  0  0  0  0
   -4.4000   -3.2050   -2.6649 H   0  0  0  0  0  0  0  0  0  0  0  0
   -5.1027    1.1269   -1.7160 H   0  0  0  0  0  0  0  0  0  0  0  0
  1  2  1  0  0  0  0
  1 34  2  0  0  0  0
  1 35  1  0  0  0  0
  2  3  2  0  0  0  0
  2 36  1  0  0  0  0
  3  4  1  0  0  0  0
  3 37  1  0  0  0  0
  4  5  1  0  0  0  0
  4 33  2  0  0  0  0
  5  6  1  0  0  0  0
  5 30  2  0  0  0  0
  6  7  1  0  0  0  0
  6 29  2  0  0  0  0
  7  8  2  0  0  0  0
  7 38  1  0  0  0  0
  8  9  1  0  0  0  0
  9 10  1  0  0  0  0
  9 29  1  0  0  0  0
 10 11  2  0  0  0  0
 10 39  1  0  0  0  0
 11 12  1  0  0  0  0
 11 27  1  0  0  0  0
 12 13  1  0  0  0  0
 12 26  2  0  0  0  0
 13 14  2  0  0  0  0
 13 40  1  0  0  0  0
 14 15  1  0  0  0  0
 14 41  1  0  0  0  0
 15 16  1  0  0  0  0
 15 25  2  0  0  0  0
 16 17  1  0  0  0  0
 17 18  1  0  0  0  0
 17 42  1  0  0  0  0
 17 43  1  0  0  0  0
 18 19  1  0  0  0  0
 18 44  1  0  0  0  0
 18 45  1  0  0  0  0
 19 20  1  0  0  0  0
 19 24  1  0  0  0  0
 20 21  1  0  0  0  0
 20 46  1  0  0  0  0
 20 47  1  0  0  0  0
 21 22  1  0  0  0  0
 21 48  1  0  0  0  0
 21 49  1  0  0  0  0
 22 23  1  0  0  0  0
 23 24  1  0  0  0  0
 23 50  1  0  0  0  0
 23 51  1  0  0  0  0
 24 52  1  0  0  0  0
 24 53  1  0  0  0  0
 25 26  1  0  0  0  0
 25 54  1  0  0  0  0
 26 55  1  0  0  0  0
 27 28  2  0  0  0  0
 27 56  1  0  0  0  0
 28 29  1  0  0  0  0
 30 31  1  0  0  0  0
 30 57  1  0  0  0  0
 31 32  2  0  0  0  0
 31 58  1  0  0  0  0
 32 33  1  0  0  0  0
 33 34  1  0  0  0  0
 34 59  1  0  0  0  0
M  END
$$$$
