CHEMBL183803
 OpenBabel04072215363D

 48 51  0  0  0  0  0  0  0  0999 V2000
    2.4315   -0.3975    1.3783 C   0  0  0  0  0  0  0  0  0  0  0  0
    0.9351   -0.2872    1.3924 C   0  0  0  0  0  0  0  0  0  0  0  0
    0.3319    0.9016    1.8176 C   0  0  0  0  0  0  0  0  0  0  0  0
   -1.0507    1.0128    1.8336 C   0  0  0  0  0  0  0  0  0  0  0  0
   -1.8425   -0.0596    1.4260 C   0  0  0  0  0  0  0  0  0  0  0  0
   -1.2699   -1.2573    0.9807 C   0  0  0  0  0  0  0  0  0  0  0  0
   -2.0417   -2.3679    0.5500 N   0  0  0  0  0  0  0  0  0  0  0  0
   -3.4091   -2.3696    0.3851 C   0  0  0  0  0  0  0  0  0  0  0  0
   -4.1370   -1.3843    0.5219 O   0  0  0  0  0  0  0  0  0  0  0  0
   -3.9160   -3.6280    0.0910 N   0  0  0  0  0  0  0  0  0  0  0  0
   -5.3131   -3.7836   -0.0819 C   0  0  0  0  0  0  0  0  0  0  0  0
   -6.0528   -2.8864   -0.8539 C   0  0  0  0  0  0  0  0  0  0  0  0
   -7.4500   -2.9489   -0.8764 C   0  0  0  0  0  0  0  0  0  0  0  0
   -8.1531   -3.9293   -0.1564 C   0  0  0  0  0  0  0  0  0  0  0  0
   -9.6378   -3.9569   -0.1520 C   0  0  0  0  0  0  0  0  0  0  0  0
  -10.3692   -3.5973   -1.3083 C   0  0  0  0  0  0  0  0  0  0  0  0
  -11.7810   -3.5960   -1.3532 C   0  0  0  0  0  0  0  0  0  0  0  0
  -12.5389   -4.0031   -0.2592 C   0  0  0  0  0  0  0  0  0  0  0  0
  -13.9289   -3.8704   -0.2712 N   0  0  0  0  0  0  0  0  0  0  0  0
  -11.8194   -4.3035    0.8876 C   0  0  0  0  0  0  0  0  0  0  0  0
  -10.4128   -4.2939    0.9609 C   0  0  0  0  0  0  0  0  0  0  0  0
  -10.0034   -4.6509    2.3569 C   0  0  0  0  0  0  0  0  0  0  0  0
  -11.2573   -4.8453    3.0358 N   0  0  0  0  0  0  0  0  0  0  0  0
  -12.3402   -4.7123    2.2002 C   0  0  0  0  0  0  0  0  0  0  0  0
  -13.5014   -4.9374    2.4805 O   0  0  0  0  0  0  0  0  0  0  0  0
   -7.3760   -4.8734    0.5417 C   0  0  0  0  0  0  0  0  0  0  0  0
   -5.9751   -4.8059    0.5851 C   0  0  0  0  0  0  0  0  0  0  0  0
    0.1280   -1.3636    0.9747 C   0  0  0  0  0  0  0  0  0  0  0  0
    2.9007    0.5174    1.7585 H   0  0  0  0  0  0  0  0  0  0  0  0
    2.7910   -0.5554    0.3573 H   0  0  0  0  0  0  0  0  0  0  0  0
    2.7585   -1.2250    2.0154 H   0  0  0  0  0  0  0  0  0  0  0  0
    0.9338    1.7465    2.1414 H   0  0  0  0  0  0  0  0  0  0  0  0
   -1.5260    1.9328    2.1635 H   0  0  0  0  0  0  0  0  0  0  0  0
   -2.9130    0.0896    1.4746 H   0  0  0  0  0  0  0  0  0  0  0  0
   -1.5389   -3.1754    0.2102 H   0  0  0  0  0  0  0  0  0  0  0  0
   -3.4316   -4.3859    0.5490 H   0  0  0  0  0  0  0  0  0  0  0  0
   -5.5541   -2.0982   -1.4148 H   0  0  0  0  0  0  0  0  0  0  0  0
   -7.9754   -2.1855   -1.4469 H   0  0  0  0  0  0  0  0  0  0  0  0
   -9.8467   -3.2956   -2.2155 H   0  0  0  0  0  0  0  0  0  0  0  0
  -12.2752   -3.2634   -2.2633 H   0  0  0  0  0  0  0  0  0  0  0  0
  -14.3691   -4.0212   -1.1716 H   0  0  0  0  0  0  0  0  0  0  0  0
  -14.3815   -4.3909    0.4858 H   0  0  0  0  0  0  0  0  0  0  0  0
   -9.4498   -3.8504    2.8536 H   0  0  0  0  0  0  0  0  0  0  0  0
   -9.4693   -5.6010    2.4100 H   0  0  0  0  0  0  0  0  0  0  0  0
  -11.3658   -5.2042    3.9747 H   0  0  0  0  0  0  0  0  0  0  0  0
   -7.8456   -5.6886    1.0809 H   0  0  0  0  0  0  0  0  0  0  0  0
   -5.4327   -5.5159    1.2021 H   0  0  0  0  0  0  0  0  0  0  0  0
    0.6079   -2.2806    0.6428 H   0  0  0  0  0  0  0  0  0  0  0  0
  1  2  1  0  0  0  0
  1 29  1  0  0  0  0
  1 30  1  0  0  0  0
  1 31  1  0  0  0  0
  2  3  1  0  0  0  0
  2 28  2  0  0  0  0
  3  4  2  0  0  0  0
  3 32  1  0  0  0  0
  4  5  1  0  0  0  0
  4 33  1  0  0  0  0
  5  6  2  0  0  0  0
  5 34  1  0  0  0  0
  6  7  1  0  0  0  0
  6 28  1  0  0  0  0
  7  8  1  0  0  0  0
  7 35  1  0  0  0  0
  8  9  2  0  0  0  0
  8 10  1  0  0  0  0
 10 11  1  0  0  0  0
 10 36  1  0  0  0  0
 11 12  1  0  0  0  0
 11 27  2  0  0  0  0
 12 13  2  0  0  0  0
 12 37  1  0  0  0  0
 13 14  1  0  0  0  0
 13 38  1  0  0  0  0
 14 15  1  0  0  0  0
 14 26  2  0  0  0  0
 15 16  1  0  0  0  0
 15 21  2  0  0  0  0
 16 17  2  0  0  0  0
 16 39  1  0  0  0  0
 17 18  1  0  0  0  0
 17 40  1  0  0  0  0
 18 19  1  0  0  0  0
 18 20  2  0  0  0  0
 19 41  1  0  0  0  0
 19 42  1  0  0  0  0
 20 21  1  0  0  0  0
 20 24  1  0  0  0  0
 21 22  1  0  0  0  0
 22 23  1  0  0  0  0
 22 43  1  0  0  0  0
 22 44  1  0  0  0  0
 23 24  1  0  0  0  0
 23 45  1  0  0  0  0
 24 25  2  0  0  0  0
 26 27  1  0  0  0  0
 26 46  1  0  0  0  0
 27 47  1  0  0  0  0
 28 48  1  0  0  0  0
M  END
$$$$
