CHEMBL1922225
 OpenBabel04072215363D

 72 74  0  0  1  0  0  0  0  0999 V2000
    5.7139    1.9765    3.8851 C   0  0  0  0  0  0  0  0  0  0  0  0
    4.4504    1.6318    3.5710 C   0  0  0  0  0  0  0  0  0  0  0  0
    4.1684    0.3100    2.8949 C   0  0  0  0  0  0  0  0  0  0  0  0
    3.2657   -0.6135    3.7247 C   0  0  0  0  0  0  0  0  0  0  0  0
    2.9687   -1.9718    3.0397 C   0  0  1  0  0  0  0  0  0  0  0  0
    4.2660   -2.7365    2.7775 C   0  0  0  0  0  0  0  0  0  0  0  0
    1.9913   -2.7945    3.9153 C   0  0  1  0  0  0  0  0  0  0  0  0
    0.6490   -2.0560    4.1186 C   0  0  0  0  0  0  0  0  0  0  0  0
   -0.3904   -3.1350    4.3877 C   0  0  0  0  0  0  0  0  0  0  0  0
    0.3774   -4.4529    4.4390 C   0  0  1  0  0  0  0  0  0  0  0  0
   -0.3602   -5.7801    4.1969 C   0  0  2  0  0  0  0  0  0  0  0  0
   -1.5313   -6.0315    5.1649 C   0  0  0  0  0  0  0  0  0  0  0  0
   -2.6907   -5.0651    4.9587 C   0  0  0  0  0  0  0  0  0  0  0  0
   -3.8408   -5.2928    5.9056 C   0  0  0  0  0  0  0  0  0  0  0  0
   -3.7681   -4.7125    7.1889 C   0  0  0  0  0  0  0  0  0  0  0  0
   -4.8301   -4.8435    8.0626 C   0  0  0  0  0  0  0  0  0  0  0  0
   -4.8007   -4.2850    9.3071 O   0  0  0  0  0  0  0  0  0  0  0  0
   -5.9679   -5.5415    7.6872 C   0  0  0  0  0  0  0  0  0  0  0  0
   -6.0348   -6.1275    6.4205 C   0  0  0  0  0  0  0  0  0  0  0  0
   -4.9787   -6.0133    5.5166 C   0  0  0  0  0  0  0  0  0  0  0  0
   -5.0682   -6.6498    4.1538 C   0  0  0  0  0  0  0  0  0  0  0  0
    0.6898   -6.8970    4.3382 C   0  0  0  0  0  0  0  0  0  0  0  0
    0.4770   -7.9331    4.9690 O   0  0  0  0  0  0  0  0  0  0  0  0
    1.9793   -6.7350    3.5604 C   0  0  0  0  0  0  0  0  0  0  0  0
    2.5771   -5.3391    3.7168 C   0  0  0  0  0  0  0  0  0  0  0  0
    1.5523   -4.2189    3.4507 C   0  0  2  0  0  0  0  0  0  0  0  0
    1.1050   -4.2190    1.9685 C   0  0  0  0  0  0  0  0  0  0  0  0
    3.2609    2.5406    3.8539 C   0  0  0  0  0  0  0  0  0  0  0  0
    3.1220    2.8182    5.3523 C   0  0  0  0  0  0  0  0  0  0  0  0
    3.3325    3.8418    3.0552 C   0  0  0  0  0  0  0  0  0  0  0  0
    6.5517    1.3213    3.6751 H   0  0  0  0  0  0  0  0  0  0  0  0
    5.9454    2.9249    4.3597 H   0  0  0  0  0  0  0  0  0  0  0  0
    5.1230   -0.1903    2.7052 H   0  0  0  0  0  0  0  0  0  0  0  0
    3.7129    0.4933    1.9150 H   0  0  0  0  0  0  0  0  0  0  0  0
    2.3169   -0.0974    3.9073 H   0  0  0  0  0  0  0  0  0  0  0  0
    3.7156   -0.7870    4.7098 H   0  0  0  0  0  0  0  0  0  0  0  0
    2.4920   -1.7627    2.0737 H   0  0  0  0  0  0  0  0  0  0  0  0
    4.7446   -3.0284    3.7187 H   0  0  0  0  0  0  0  0  0  0  0  0
    4.9793   -2.1582    2.1919 H   0  0  0  0  0  0  0  0  0  0  0  0
    4.0818   -3.6270    2.1775 H   0  0  0  0  0  0  0  0  0  0  0  0
    2.4498   -2.8975    4.9110 H   0  0  0  0  0  0  0  0  0  0  0  0
    0.3532   -1.4716    3.2401 H   0  0  0  0  0  0  0  0  0  0  0  0
    0.7034   -1.3661    4.9680 H   0  0  0  0  0  0  0  0  0  0  0  0
   -1.1467   -3.1296    3.5966 H   0  0  0  0  0  0  0  0  0  0  0  0
   -0.8647   -2.9092    5.3459 H   0  0  0  0  0  0  0  0  0  0  0  0
    0.7965   -4.5168    5.4575 H   0  0  0  0  0  0  0  0  0  0  0  0
   -0.7474   -5.8386    3.1742 H   0  0  0  0  0  0  0  0  0  0  0  0
   -1.1728   -5.9978    6.2012 H   0  0  0  0  0  0  0  0  0  0  0  0
   -1.9045   -7.0546    5.0121 H   0  0  0  0  0  0  0  0  0  0  0  0
   -3.0128   -5.0738    3.9119 H   0  0  0  0  0  0  0  0  0  0  0  0
   -2.4094   -4.0377    5.1475 H   0  0  0  0  0  0  0  0  0  0  0  0
   -2.8867   -4.1530    7.4728 H   0  0  0  0  0  0  0  0  0  0  0  0
   -3.9351   -3.8622    9.4357 H   0  0  0  0  0  0  0  0  0  0  0  0
   -6.7998   -5.6308    8.3791 H   0  0  0  0  0  0  0  0  0  0  0  0
   -6.9368   -6.6803    6.1453 H   0  0  0  0  0  0  0  0  0  0  0  0
   -6.0316   -7.1514    4.0073 H   0  0  0  0  0  0  0  0  0  0  0  0
   -4.2787   -7.3955    4.0350 H   0  0  0  0  0  0  0  0  0  0  0  0
   -4.9747   -5.8928    3.3708 H   0  0  0  0  0  0  0  0  0  0  0  0
    1.7790   -6.9664    2.5087 H   0  0  0  0  0  0  0  0  0  0  0  0
    2.7068   -7.4733    3.9213 H   0  0  0  0  0  0  0  0  0  0  0  0
    3.4343   -5.2806    3.0459 H   0  0  0  0  0  0  0  0  0  0  0  0
    2.9733   -5.2350    4.7356 H   0  0  0  0  0  0  0  0  0  0  0  0
    0.7203   -5.1901    1.6460 H   0  0  0  0  0  0  0  0  0  0  0  0
    1.9402   -3.9800    1.3029 H   0  0  0  0  0  0  0  0  0  0  0  0
    0.3139   -3.4893    1.7695 H   0  0  0  0  0  0  0  0  0  0  0  0
    2.3416    2.0360    3.5319 H   0  0  0  0  0  0  0  0  0  0  0  0
    3.9918    3.3516    5.7518 H   0  0  0  0  0  0  0  0  0  0  0  0
    3.0155    1.8826    5.9143 H   0  0  0  0  0  0  0  0  0  0  0  0
    2.2374    3.4306    5.5523 H   0  0  0  0  0  0  0  0  0  0  0  0
    4.1904    4.4552    3.3463 H   0  0  0  0  0  0  0  0  0  0  0  0
    2.4261    4.4355    3.2150 H   0  0  0  0  0  0  0  0  0  0  0  0
    3.4085    3.6357    1.9811 H   0  0  0  0  0  0  0  0  0  0  0  0
  1  2  2  0  0  0  0
  1 31  1  0  0  0  0
  1 32  1  0  0  0  0
  2  3  1  0  0  0  0
  2 28  1  0  0  0  0
  3  4  1  0  0  0  0
  3 33  1  0  0  0  0
  3 34  1  0  0  0  0
  4  5  1  0  0  0  0
  4 35  1  0  0  0  0
  4 36  1  0  0  0  0
  5  6  1  0  0  0  0
  5  7  1  0  0  0  0
  5 37  1  6  0  0  0
  6 38  1  0  0  0  0
  6 39  1  0  0  0  0
  6 40  1  0  0  0  0
  7  8  1  0  0  0  0
  7 26  1  0  0  0  0
  7 41  1  1  0  0  0
  8  9  1  0  0  0  0
  8 42  1  0  0  0  0
  8 43  1  0  0  0  0
  9 10  1  0  0  0  0
  9 44  1  0  0  0  0
  9 45  1  0  0  0  0
 10 11  1  0  0  0  0
 10 26  1  0  0  0  0
 10 46  1  1  0  0  0
 11 12  1  0  0  0  0
 11 22  1  0  0  0  0
 11 47  1  6  0  0  0
 12 13  1  0  0  0  0
 12 48  1  0  0  0  0
 12 49  1  0  0  0  0
 13 14  1  0  0  0  0
 13 50  1  0  0  0  0
 13 51  1  0  0  0  0
 14 15  1  0  0  0  0
 14 20  2  0  0  0  0
 15 16  2  0  0  0  0
 15 52  1  0  0  0  0
 16 17  1  0  0  0  0
 16 18  1  0  0  0  0
 17 53  1  0  0  0  0
 18 19  2  0  0  0  0
 18 54  1  0  0  0  0
 19 20  1  0  0  0  0
 19 55  1  0  0  0  0
 20 21  1  0  0  0  0
 21 56  1  0  0  0  0
 21 57  1  0  0  0  0
 21 58  1  0  0  0  0
 22 23  2  0  0  0  0
 22 24  1  0  0  0  0
 24 25  1  0  0  0  0
 24 59  1  0  0  0  0
 24 60  1  0  0  0  0
 25 26  1  0  0  0  0
 25 61  1  0  0  0  0
 25 62  1  0  0  0  0
 26 27  1  6  0  0  0
 27 63  1  0  0  0  0
 27 64  1  0  0  0  0
 27 65  1  0  0  0  0
 28 29  1  0  0  0  0
 28 30  1  0  0  0  0
 28 66  1  0  0  0  0
 29 67  1  0  0  0  0
 29 68  1  0  0  0  0
 29 69  1  0  0  0  0
 30 70  1  0  0  0  0
 30 71  1  0  0  0  0
 30 72  1  0  0  0  0
M  END
$$$$
