CHEMBL3969879
 OpenBabel04072215373D

 53 56  0  0  0  0  0  0  0  0999 V2000
    0.1403    3.0306   -2.6642 C   0  0  0  0  0  0  0  0  0  0  0  0
    1.4827    3.4201   -2.9674 O   0  0  0  0  0  0  0  0  0  0  0  0
    2.4812    2.8798   -2.1931 C   0  0  0  0  0  0  0  0  0  0  0  0
    2.2616    2.1393   -1.0331 C   0  0  0  0  0  0  0  0  0  0  0  0
    3.3418    1.5640   -0.3680 C   0  0  0  0  0  0  0  0  0  0  0  0
    3.2369    0.7829    0.7520 O   0  0  0  0  0  0  0  0  0  0  0  0
    2.1474    1.0965    1.6133 C   0  0  0  0  0  0  0  0  0  0  0  0
    4.6372    1.6941   -0.8825 C   0  0  0  0  0  0  0  0  0  0  0  0
    4.9032    2.4407   -2.0389 C   0  0  0  0  0  0  0  0  0  0  0  0
    6.1462    2.3760   -2.7208 N   0  0  0  0  0  0  0  0  0  0  0  0
    6.8618    1.0427   -2.6387 C   0  0  0  0  0  0  0  0  0  0  0  0
    6.1070   -0.2115   -3.1015 C   0  0  0  0  0  0  0  0  0  0  0  0
    5.0675   -0.0871   -3.9736 N   0  0  0  0  0  0  0  0  0  0  0  0
    6.5037   -1.3387   -2.8047 O   0  0  0  0  0  0  0  0  0  0  0  0
    7.1856    3.3796   -2.8435 C   0  0  0  0  0  0  0  0  0  0  0  0
    7.8553    3.3588   -4.0728 C   0  0  0  0  0  0  0  0  0  0  0  0
    9.1827    3.7208   -4.1311 C   0  0  0  0  0  0  0  0  0  0  0  0
    9.8339    4.2928   -3.0646 C   0  0  0  0  0  0  0  0  0  0  0  0
   11.1545    4.4268   -3.2350 N   0  0  0  0  0  0  0  0  0  0  0  0
   11.8155    5.1103   -2.2969 C   0  0  0  0  0  0  0  0  0  0  0  0
   11.1668    5.7408   -1.2525 C   0  0  0  0  0  0  0  0  0  0  0  0
   11.9328    6.7819   -0.5761 C   0  0  0  0  0  0  0  0  0  0  0  0
   11.9477    8.1818   -0.8215 C   0  0  0  0  0  0  0  0  0  0  0  0
   12.9617    8.8118   -0.2144 N   0  0  0  0  0  0  0  0  0  0  0  0
   13.6123    7.8202    0.4164 N   0  0  0  0  0  0  0  0  0  0  0  0
   14.6380    8.1219    1.3887 C   0  0  0  0  0  0  0  0  0  0  0  0
   13.1270    6.5785    0.0992 C   0  0  0  0  0  0  0  0  0  0  0  0
    9.8225    5.5057   -1.0074 N   0  0  0  0  0  0  0  0  0  0  0  0
    9.1262    4.6966   -1.8979 C   0  0  0  0  0  0  0  0  0  0  0  0
    7.7915    4.1474   -1.7934 C   0  0  0  0  0  0  0  0  0  0  0  0
    3.7995    3.0653   -2.6617 C   0  0  0  0  0  0  0  0  0  0  0  0
   -0.5082    3.3655   -3.4808 H   0  0  0  0  0  0  0  0  0  0  0  0
   -0.2064    3.5138   -1.7441 H   0  0  0  0  0  0  0  0  0  0  0  0
    0.0322    1.9414   -2.5960 H   0  0  0  0  0  0  0  0  0  0  0  0
    1.2576    1.9820   -0.6603 H   0  0  0  0  0  0  0  0  0  0  0  0
    2.3216    0.5901    2.5676 H   0  0  0  0  0  0  0  0  0  0  0  0
    1.2034    0.7219    1.2049 H   0  0  0  0  0  0  0  0  0  0  0  0
    2.0913    2.1728    1.8095 H   0  0  0  0  0  0  0  0  0  0  0  0
    5.4342    1.1696   -0.3641 H   0  0  0  0  0  0  0  0  0  0  0  0
    7.2201    0.8746   -1.6185 H   0  0  0  0  0  0  0  0  0  0  0  0
    7.7504    1.0355   -3.2847 H   0  0  0  0  0  0  0  0  0  0  0  0
    4.5659    0.7874   -4.0561 H   0  0  0  0  0  0  0  0  0  0  0  0
    4.5714   -0.9392   -4.1967 H   0  0  0  0  0  0  0  0  0  0  0  0
    7.4095    2.8501   -4.9282 H   0  0  0  0  0  0  0  0  0  0  0  0
    9.7525    3.5286   -5.0361 H   0  0  0  0  0  0  0  0  0  0  0  0
   12.8827    5.2012   -2.4522 H   0  0  0  0  0  0  0  0  0  0  0  0
   11.2905    8.7648   -1.4547 H   0  0  0  0  0  0  0  0  0  0  0  0
   14.8040    9.2022    1.4364 H   0  0  0  0  0  0  0  0  0  0  0  0
   15.5641    7.6107    1.1154 H   0  0  0  0  0  0  0  0  0  0  0  0
   14.2781    7.7659    2.3580 H   0  0  0  0  0  0  0  0  0  0  0  0
   13.6589    5.6843    0.3934 H   0  0  0  0  0  0  0  0  0  0  0  0
    7.2564    4.2681   -0.8478 H   0  0  0  0  0  0  0  0  0  0  0  0
    3.9472    3.6246   -3.5839 H   0  0  0  0  0  0  0  0  0  0  0  0
  1  2  1  0  0  0  0
  1 32  1  0  0  0  0
  1 33  1  0  0  0  0
  1 34  1  0  0  0  0
  2  3  1  0  0  0  0
  3  4  1  0  0  0  0
  3 31  2  0  0  0  0
  4  5  2  0  0  0  0
  4 35  1  0  0  0  0
  5  6  1  0  0  0  0
  5  8  1  0  0  0  0
  6  7  1  0  0  0  0
  7 36  1  0  0  0  0
  7 37  1  0  0  0  0
  7 38  1  0  0  0  0
  8  9  2  0  0  0  0
  8 39  1  0  0  0  0
  9 10  1  0  0  0  0
  9 31  1  0  0  0  0
 10 11  1  0  0  0  0
 10 15  1  0  0  0  0
 11 12  1  0  0  0  0
 11 40  1  0  0  0  0
 11 41  1  0  0  0  0
 12 13  1  0  0  0  0
 12 14  2  0  0  0  0
 13 42  1  0  0  0  0
 13 43  1  0  0  0  0
 15 16  1  0  0  0  0
 15 30  2  0  0  0  0
 16 17  2  0  0  0  0
 16 44  1  0  0  0  0
 17 18  1  0  0  0  0
 17 45  1  0  0  0  0
 18 19  1  0  0  0  0
 18 29  2  0  0  0  0
 19 20  2  0  0  0  0
 20 21  1  0  0  0  0
 20 46  1  0  0  0  0
 21 22  1  0  0  0  0
 21 28  2  0  0  0  0
 22 23  1  0  0  0  0
 22 27  2  0  0  0  0
 23 24  2  0  0  0  0
 23 47  1  0  0  0  0
 24 25  1  0  0  0  0
 25 26  1  0  0  0  0
 25 27  1  0  0  0  0
 26 48  1  0  0  0  0
 26 49  1  0  0  0  0
 26 50  1  0  0  0  0
 27 51  1  0  0  0  0
 28 29  1  0  0  0  0
 29 30  1  0  0  0  0
 30 52  1  0  0  0  0
 31 53  1  0  0  0  0
M  END
$$$$
