CHEMBL1982465
 OpenBabel04072215363D

 63 67  0  0  0  0  0  0  0  0999 V2000
    2.3872   -0.0908   -0.4014 C   0  0  0  0  0  0  0  0  0  0  0  0
    0.8941    0.0083   -0.5073 C   0  0  0  0  0  0  0  0  0  0  0  0
    0.3006    1.2487   -0.7666 C   0  0  0  0  0  0  0  0  0  0  0  0
   -1.0782    1.3553   -0.8648 C   0  0  0  0  0  0  0  0  0  0  0  0
   -1.8795    0.2205   -0.7039 C   0  0  0  0  0  0  0  0  0  0  0  0
   -1.3182   -1.0384   -0.4568 C   0  0  0  0  0  0  0  0  0  0  0  0
   -2.0961   -2.2132   -0.2841 N   0  0  0  0  0  0  0  0  0  0  0  0
   -3.4656   -2.3047   -0.4750 C   0  0  0  0  0  0  0  0  0  0  0  0
   -4.1785   -1.3977   -0.8948 O   0  0  0  0  0  0  0  0  0  0  0  0
   -3.9769   -3.5407   -0.0787 N   0  0  0  0  0  0  0  0  0  0  0  0
   -5.3681   -3.8033   -0.1895 C   0  0  0  0  0  0  0  0  0  0  0  0
   -6.0968   -3.3890   -1.3057 C   0  0  0  0  0  0  0  0  0  0  0  0
   -7.4927   -3.4739   -1.3189 C   0  0  0  0  0  0  0  0  0  0  0  0
   -8.1968   -4.0130   -0.2301 C   0  0  0  0  0  0  0  0  0  0  0  0
   -9.6740   -3.9972   -0.2190 C   0  0  0  0  0  0  0  0  0  0  0  0
  -10.3478   -4.2562   -1.3985 C   0  0  0  0  0  0  0  0  0  0  0  0
  -12.0318   -4.1571   -1.2594 S   0  0  0  0  0  0  0  0  0  0  0  0
  -11.9540   -3.7751    0.4210 C   0  0  0  0  0  0  0  0  0  0  0  0
  -13.0404   -3.5382    1.2839 C   0  0  0  0  0  0  0  0  0  0  0  0
  -14.3938   -3.5868    0.8248 C   0  0  0  0  0  0  0  0  0  0  0  0
  -15.6313   -3.6553    0.4201 C   0  0  0  0  0  0  0  0  0  0  0  0
  -17.0740   -3.7352   -0.0517 C   0  0  0  0  0  0  0  0  0  0  0  0
  -17.8946   -4.8229    0.4748 N   0  0  0  0  0  0  0  0  0  0  0  0
  -17.3396   -6.1603    0.1833 C   0  0  0  0  0  0  0  0  0  0  0  0
  -17.3220   -6.5100   -1.3128 C   0  0  0  0  0  0  0  0  0  0  0  0
  -18.6269   -6.4012   -1.8997 O   0  0  0  0  0  0  0  0  0  0  0  0
  -19.2032   -5.1091   -1.6792 C   0  0  0  0  0  0  0  0  0  0  0  0
  -19.2321   -4.7537   -0.1769 C   0  0  0  0  0  0  0  0  0  0  0  0
  -12.7318   -3.2638    2.5967 C   0  0  0  0  0  0  0  0  0  0  0  0
  -11.4786   -3.1772    3.0722 N   0  0  0  0  0  0  0  0  0  0  0  0
  -10.4241   -3.3689    2.2489 C   0  0  0  0  0  0  0  0  0  0  0  0
   -9.1951   -3.1742    2.8664 N   0  0  0  0  0  0  0  0  0  0  0  0
  -10.6184   -3.7084    0.8766 C   0  0  0  0  0  0  0  0  0  0  0  0
   -7.4449   -4.5458    0.8252 C   0  0  0  0  0  0  0  0  0  0  0  0
   -6.0423   -4.4325    0.8558 C   0  0  0  0  0  0  0  0  0  0  0  0
    0.0771   -1.1288   -0.3536 C   0  0  0  0  0  0  0  0  0  0  0  0
    2.8597    0.8921   -0.5220 H   0  0  0  0  0  0  0  0  0  0  0  0
    2.7819   -0.7454   -1.1847 H   0  0  0  0  0  0  0  0  0  0  0  0
    2.6733   -0.4759    0.5811 H   0  0  0  0  0  0  0  0  0  0  0  0
    0.9072    2.1423   -0.8912 H   0  0  0  0  0  0  0  0  0  0  0  0
   -1.5467    2.3156   -1.0620 H   0  0  0  0  0  0  0  0  0  0  0  0
   -2.9476    0.3717   -0.7807 H   0  0  0  0  0  0  0  0  0  0  0  0
   -1.5966   -3.0805   -0.1521 H   0  0  0  0  0  0  0  0  0  0  0  0
   -3.4986   -3.9705    0.7005 H   0  0  0  0  0  0  0  0  0  0  0  0
   -5.5921   -2.9517   -2.1651 H   0  0  0  0  0  0  0  0  0  0  0  0
   -8.0119   -3.0746   -2.1871 H   0  0  0  0  0  0  0  0  0  0  0  0
   -9.9274   -4.4990   -2.3653 H   0  0  0  0  0  0  0  0  0  0  0  0
  -17.0177   -3.7301   -1.1453 H   0  0  0  0  0  0  0  0  0  0  0  0
  -17.5356   -2.7798    0.2319 H   0  0  0  0  0  0  0  0  0  0  0  0
  -17.9720   -6.8932    0.7028 H   0  0  0  0  0  0  0  0  0  0  0  0
  -16.3403   -6.2721    0.6178 H   0  0  0  0  0  0  0  0  0  0  0  0
  -16.9972   -7.5489   -1.4379 H   0  0  0  0  0  0  0  0  0  0  0  0
  -16.6178   -5.8808   -1.8682 H   0  0  0  0  0  0  0  0  0  0  0  0
  -20.2239   -5.1274   -2.0734 H   0  0  0  0  0  0  0  0  0  0  0  0
  -18.6573   -4.3652   -2.2720 H   0  0  0  0  0  0  0  0  0  0  0  0
  -19.8941   -5.4622    0.3365 H   0  0  0  0  0  0  0  0  0  0  0  0
  -19.6773   -3.7604   -0.0328 H   0  0  0  0  0  0  0  0  0  0  0  0
  -13.5133   -3.0906    3.3324 H   0  0  0  0  0  0  0  0  0  0  0  0
   -9.3553   -2.7451    3.7724 H   0  0  0  0  0  0  0  0  0  0  0  0
   -8.5289   -2.6856    2.2806 H   0  0  0  0  0  0  0  0  0  0  0  0
   -7.9413   -5.0205    1.6693 H   0  0  0  0  0  0  0  0  0  0  0  0
   -5.5103   -4.7724    1.7399 H   0  0  0  0  0  0  0  0  0  0  0  0
    0.5529   -2.0915   -0.1555 H   0  0  0  0  0  0  0  0  0  0  0  0
  1  2  1  0  0  0  0
  1 37  1  0  0  0  0
  1 38  1  0  0  0  0
  1 39  1  0  0  0  0
  2  3  1  0  0  0  0
  2 36  2  0  0  0  0
  3  4  2  0  0  0  0
  3 40  1  0  0  0  0
  4  5  1  0  0  0  0
  4 41  1  0  0  0  0
  5  6  2  0  0  0  0
  5 42  1  0  0  0  0
  6  7  1  0  0  0  0
  6 36  1  0  0  0  0
  7  8  1  0  0  0  0
  7 43  1  0  0  0  0
  8  9  2  0  0  0  0
  8 10  1  0  0  0  0
 10 11  1  0  0  0  0
 10 44  1  0  0  0  0
 11 12  1  0  0  0  0
 11 35  2  0  0  0  0
 12 13  2  0  0  0  0
 12 45  1  0  0  0  0
 13 14  1  0  0  0  0
 13 46  1  0  0  0  0
 14 15  1  0  0  0  0
 14 34  2  0  0  0  0
 15 16  2  0  0  0  0
 15 33  1  0  0  0  0
 16 17  1  0  0  0  0
 16 47  1  0  0  0  0
 17 18  1  0  0  0  0
 18 19  1  0  0  0  0
 18 33  2  0  0  0  0
 19 20  1  0  0  0  0
 19 29  2  0  0  0  0
 20 21  3  0  0  0  0
 21 22  1  0  0  0  0
 22 23  1  0  0  0  0
 22 48  1  0  0  0  0
 22 49  1  0  0  0  0
 23 24  1  0  0  0  0
 23 28  1  0  0  0  0
 24 25  1  0  0  0  0
 24 50  1  0  0  0  0
 24 51  1  0  0  0  0
 25 26  1  0  0  0  0
 25 52  1  0  0  0  0
 25 53  1  0  0  0  0
 26 27  1  0  0  0  0
 27 28  1  0  0  0  0
 27 54  1  0  0  0  0
 27 55  1  0  0  0  0
 28 56  1  0  0  0  0
 28 57  1  0  0  0  0
 29 30  1  0  0  0  0
 29 58  1  0  0  0  0
 30 31  2  0  0  0  0
 31 32  1  0  0  0  0
 31 33  1  0  0  0  0
 32 59  1  0  0  0  0
 32 60  1  0  0  0  0
 34 35  1  0  0  0  0
 34 61  1  0  0  0  0
 35 62  1  0  0  0  0
 36 63  1  0  0  0  0
M  END
$$$$
