CHEMBL452284
 OpenBabel04072215383D

 45 48  0  0  0  0  0  0  0  0999 V2000
    5.2312   -1.9554   -1.1398 N   0  0  0  0  0  0  0  0  0  0  0  0
    4.3377   -0.9868   -0.6813 C   0  0  0  0  0  0  0  0  0  0  0  0
    3.0755   -1.2295   -0.2597 C   0  0  0  0  0  0  0  0  0  0  0  0
    2.4720   -2.5625   -0.1952 C   0  0  0  0  0  0  0  0  0  0  0  0
    2.6739   -3.3404    0.9383 C   0  0  0  0  0  0  0  0  0  0  0  0
    2.0853   -4.6021    1.0361 C   0  0  0  0  0  0  0  0  0  0  0  0
    1.2722   -5.1123    0.0199 C   0  0  0  0  0  0  0  0  0  0  0  0
    0.6232   -6.3722    0.1041 N   0  0  0  0  0  0  0  0  0  0  0  0
    0.5941   -7.1717    1.2269 C   0  0  0  0  0  0  0  0  0  0  0  0
    1.1079   -6.8845    2.3089 O   0  0  0  0  0  0  0  0  0  0  0  0
   -0.0653   -8.3798    1.0289 N   0  0  0  0  0  0  0  0  0  0  0  0
   -0.1188   -9.2677    2.1395 C   0  0  0  0  0  0  0  0  0  0  0  0
   -0.5679   -8.8168    3.3886 C   0  0  0  0  0  0  0  0  0  0  0  0
   -0.3844   -9.5936    4.5414 C   0  0  0  0  0  0  0  0  0  0  0  0
   -0.7986   -9.0686    5.8955 C   0  0  0  0  0  0  0  0  0  0  0  0
   -1.4044   -7.8497    5.8521 F   0  0  0  0  0  0  0  0  0  0  0  0
   -1.6830   -9.8978    6.5178 F   0  0  0  0  0  0  0  0  0  0  0  0
    0.2521   -8.9360    6.7509 F   0  0  0  0  0  0  0  0  0  0  0  0
    0.2350  -10.8482    4.4174 C   0  0  0  0  0  0  0  0  0  0  0  0
    0.6202  -11.3300    3.1613 C   0  0  0  0  0  0  0  0  0  0  0  0
    0.4219  -10.5464    2.0276 C   0  0  0  0  0  0  0  0  0  0  0  0
    0.8517  -10.9887    0.8363 F   0  0  0  0  0  0  0  0  0  0  0  0
    1.0923   -4.3381   -1.1310 C   0  0  0  0  0  0  0  0  0  0  0  0
    1.6888   -3.0704   -1.2392 C   0  0  0  0  0  0  0  0  0  0  0  0
    2.3161   -0.0391    0.2418 C   0  0  0  0  0  0  0  0  0  0  0  0
    2.7272    1.1920    0.2751 N   0  0  0  0  0  0  0  0  0  0  0  0
    3.9909    1.4005   -0.1970 C   0  0  0  0  0  0  0  0  0  0  0  0
    4.7382    2.5492   -0.3225 C   0  0  0  0  0  0  0  0  0  0  0  0
    5.9553    2.1361   -0.8811 C   0  0  0  0  0  0  0  0  0  0  0  0
    6.0042    0.8235   -1.1113 N   0  0  0  0  0  0  0  0  0  0  0  0
    4.7974    0.3582   -0.6649 N   0  0  0  0  0  0  0  0  0  0  0  0
    4.7959   -2.7725   -1.5550 H   0  0  0  0  0  0  0  0  0  0  0  0
    5.9790   -1.5410   -1.7018 H   0  0  0  0  0  0  0  0  0  0  0  0
    3.2874   -2.9847    1.7643 H   0  0  0  0  0  0  0  0  0  0  0  0
    2.2924   -5.1523    1.9493 H   0  0  0  0  0  0  0  0  0  0  0  0
    0.0190   -6.6388   -0.6598 H   0  0  0  0  0  0  0  0  0  0  0  0
    0.1547   -8.8221    0.1436 H   0  0  0  0  0  0  0  0  0  0  0  0
   -1.0048   -7.8216    3.4750 H   0  0  0  0  0  0  0  0  0  0  0  0
    0.4343  -11.4461    5.3062 H   0  0  0  0  0  0  0  0  0  0  0  0
    1.1143  -12.2923    3.0687 H   0  0  0  0  0  0  0  0  0  0  0  0
    0.4832   -4.6987   -1.9557 H   0  0  0  0  0  0  0  0  0  0  0  0
    1.5295   -2.4816   -2.1412 H   0  0  0  0  0  0  0  0  0  0  0  0
    1.3041   -0.2576    0.6263 H   0  0  0  0  0  0  0  0  0  0  0  0
    4.4279    3.5463   -0.0478 H   0  0  0  0  0  0  0  0  0  0  0  0
    6.8135    2.7443   -1.1383 H   0  0  0  0  0  0  0  0  0  0  0  0
  1  2  1  0  0  0  0
  1 32  1  0  0  0  0
  1 33  1  0  0  0  0
  2  3  2  0  0  0  0
  2 31  1  0  0  0  0
  3  4  1  0  0  0  0
  3 25  1  0  0  0  0
  4  5  1  0  0  0  0
  4 24  2  0  0  0  0
  5  6  2  0  0  0  0
  5 34  1  0  0  0  0
  6  7  1  0  0  0  0
  6 35  1  0  0  0  0
  7  8  1  0  0  0  0
  7 23  2  0  0  0  0
  8  9  1  0  0  0  0
  8 36  1  0  0  0  0
  9 10  2  0  0  0  0
  9 11  1  0  0  0  0
 11 12  1  0  0  0  0
 11 37  1  0  0  0  0
 12 13  1  0  0  0  0
 12 21  2  0  0  0  0
 13 14  2  0  0  0  0
 13 38  1  0  0  0  0
 14 15  1  0  0  0  0
 14 19  1  0  0  0  0
 15 16  1  0  0  0  0
 15 17  1  0  0  0  0
 15 18  1  0  0  0  0
 19 20  2  0  0  0  0
 19 39  1  0  0  0  0
 20 21  1  0  0  0  0
 20 40  1  0  0  0  0
 21 22  1  0  0  0  0
 23 24  1  0  0  0  0
 23 41  1  0  0  0  0
 24 42  1  0  0  0  0
 25 26  2  0  0  0  0
 25 43  1  0  0  0  0
 26 27  1  0  0  0  0
 27 28  2  0  0  0  0
 27 31  1  0  0  0  0
 28 29  1  0  0  0  0
 28 44  1  0  0  0  0
 29 30  2  0  0  0  0
 29 45  1  0  0  0  0
 30 31  1  0  0  0  0
M  END
$$$$
