CHEMBL4105329
 OpenBabel04072215383D

 57 61  0  0  1  0  0  0  0  0999 V2000
    2.6046   -3.3255   -1.0985 C   0  0  0  0  0  0  0  0  0  0  0  0
    1.5191   -2.5334   -0.4706 C   0  0  0  0  0  0  0  0  0  0  0  0
    0.3300   -3.0862   -0.1987 N   0  0  0  0  0  0  0  0  0  0  0  0
   -0.3847   -2.0703    0.3178 N   0  0  0  0  0  0  0  0  0  0  0  0
    0.2742   -0.8708    0.3301 C   0  0  0  0  0  0  0  0  0  0  0  0
   -0.1270    0.4121    0.6991 C   0  0  0  0  0  0  0  0  0  0  0  0
    0.8147    1.4392    0.5367 C   0  0  0  0  0  0  0  0  0  0  0  0
    2.1320    1.2028    0.0878 C   0  0  0  0  0  0  0  0  0  0  0  0
    3.1107    2.3141   -0.0743 C   0  0  0  0  0  0  0  0  0  0  0  0
    3.1723    3.2834    0.9536 C   0  0  0  0  0  0  0  0  0  0  0  0
    4.1709    4.2496    1.0459 C   0  0  0  0  0  0  0  0  0  0  0  0
    4.2196    5.2063    2.0578 N   0  0  0  0  0  0  0  0  0  0  0  0
    3.5835    4.9885    3.3711 C   0  0  1  0  0  0  0  0  0  0  0  0
    4.5163    4.2225    4.3432 C   0  0  0  0  0  0  0  0  0  0  0  0
    5.7453    4.8918    4.6157 O   0  0  0  0  0  0  0  0  0  0  0  0
    3.0589    6.2981    3.9482 C   0  0  0  0  0  0  0  0  0  0  0  0
    1.6821    6.4390    4.2090 C   0  0  0  0  0  0  0  0  0  0  0  0
    1.1789    7.5928    4.8171 C   0  0  0  0  0  0  0  0  0  0  0  0
    2.0438    8.6214    5.1681 C   0  0  0  0  0  0  0  0  0  0  0  0
    3.4075    8.5113    4.8987 C   0  0  0  0  0  0  0  0  0  0  0  0
    3.9115    7.3594    4.2902 C   0  0  0  0  0  0  0  0  0  0  0  0
    5.0654    4.2441   -0.0184 C   0  0  0  0  0  0  0  0  0  0  0  0
    5.0273    3.3919   -1.0801 N   0  0  0  0  0  0  0  0  0  0  0  0
    4.0345    2.4537   -1.1342 C   0  0  0  0  0  0  0  0  0  0  0  0
    4.0588    1.6309   -2.3851 C   0  0  0  0  0  0  0  0  0  0  0  0
    5.2921    1.2715   -2.9712 C   0  0  0  0  0  0  0  0  0  0  0  0
    5.3519    0.4546   -4.1069 C   0  0  0  0  0  0  0  0  0  0  0  0
    6.8708    0.1041   -4.8376 Cl  0  0  0  0  0  0  0  0  0  0  0  0
    4.1921   -0.0738   -4.6634 C   0  0  0  0  0  0  0  0  0  0  0  0
    2.9593    0.2786   -4.1278 C   0  0  0  0  0  0  0  0  0  0  0  0
    2.9014    1.1643   -3.0458 C   0  0  0  0  0  0  0  0  0  0  0  0
    1.6623    1.6039   -2.6627 O   0  0  0  0  0  0  0  0  0  0  0  0
    2.5023   -0.1261   -0.1968 C   0  0  0  0  0  0  0  0  0  0  0  0
    1.5492   -1.1566   -0.1326 C   0  0  0  0  0  0  0  0  0  0  0  0
    2.3375   -4.3833   -1.1825 H   0  0  0  0  0  0  0  0  0  0  0  0
    3.5228   -3.2496   -0.5084 H   0  0  0  0  0  0  0  0  0  0  0  0
    2.8122   -2.9475   -2.1059 H   0  0  0  0  0  0  0  0  0  0  0  0
   -1.3310   -2.2587    0.6277 H   0  0  0  0  0  0  0  0  0  0  0  0
   -1.1281    0.6233    1.0603 H   0  0  0  0  0  0  0  0  0  0  0  0
    0.4896    2.4558    0.7573 H   0  0  0  0  0  0  0  0  0  0  0  0
    2.3918    3.2518    1.7035 H   0  0  0  0  0  0  0  0  0  0  0  0
    5.0698    5.7560    2.1062 H   0  0  0  0  0  0  0  0  0  0  0  0
    2.6972    4.3577    3.2655 H   0  0  0  0  0  0  0  0  0  0  0  0
    4.7643    3.2393    3.9313 H   0  0  0  0  0  0  0  0  0  0  0  0
    4.0067    4.0583    5.3009 H   0  0  0  0  0  0  0  0  0  0  0  0
    6.3016    4.7842    3.8209 H   0  0  0  0  0  0  0  0  0  0  0  0
    0.9854    5.6394    3.9498 H   0  0  0  0  0  0  0  0  0  0  0  0
    0.1149    7.6760    5.0270 H   0  0  0  0  0  0  0  0  0  0  0  0
    1.6575    9.5123    5.6583 H   0  0  0  0  0  0  0  0  0  0  0  0
    4.0828    9.3177    5.1742 H   0  0  0  0  0  0  0  0  0  0  0  0
    4.9803    7.2892    4.1071 H   0  0  0  0  0  0  0  0  0  0  0  0
    5.8854    4.9566   -0.0597 H   0  0  0  0  0  0  0  0  0  0  0  0
    6.2208    1.6442   -2.5416 H   0  0  0  0  0  0  0  0  0  0  0  0
    4.2380   -0.7280   -5.5300 H   0  0  0  0  0  0  0  0  0  0  0  0
    2.0511   -0.1096   -4.5800 H   0  0  0  0  0  0  0  0  0  0  0  0
    1.0112    0.9071   -2.8513 H   0  0  0  0  0  0  0  0  0  0  0  0
    3.5094   -0.3650   -0.5278 H   0  0  0  0  0  0  0  0  0  0  0  0
  1  2  1  0  0  0  0
  1 35  1  0  0  0  0
  1 36  1  0  0  0  0
  1 37  1  0  0  0  0
  2  3  2  0  0  0  0
  2 34  1  0  0  0  0
  3  4  1  0  0  0  0
  4  5  1  0  0  0  0
  4 38  1  0  0  0  0
  5  6  1  0  0  0  0
  5 34  2  0  0  0  0
  6  7  2  0  0  0  0
  6 39  1  0  0  0  0
  7  8  1  0  0  0  0
  7 40  1  0  0  0  0
  8  9  1  0  0  0  0
  8 33  2  0  0  0  0
  9 10  1  0  0  0  0
  9 24  2  0  0  0  0
 10 11  2  0  0  0  0
 10 41  1  0  0  0  0
 11 12  1  0  0  0  0
 11 22  1  0  0  0  0
 12 13  1  0  0  0  0
 12 42  1  0  0  0  0
 13 14  1  0  0  0  0
 13 16  1  0  0  0  0
 13 43  1  6  0  0  0
 14 15  1  0  0  0  0
 14 44  1  0  0  0  0
 14 45  1  0  0  0  0
 15 46  1  0  0  0  0
 16 17  1  0  0  0  0
 16 21  2  0  0  0  0
 17 18  2  0  0  0  0
 17 47  1  0  0  0  0
 18 19  1  0  0  0  0
 18 48  1  0  0  0  0
 19 20  2  0  0  0  0
 19 49  1  0  0  0  0
 20 21  1  0  0  0  0
 20 50  1  0  0  0  0
 21 51  1  0  0  0  0
 22 23  2  0  0  0  0
 22 52  1  0  0  0  0
 23 24  1  0  0  0  0
 24 25  1  0  0  0  0
 25 26  1  0  0  0  0
 25 31  2  0  0  0  0
 26 27  2  0  0  0  0
 26 53  1  0  0  0  0
 27 28  1  0  0  0  0
 27 29  1  0  0  0  0
 29 30  2  0  0  0  0
 29 54  1  0  0  0  0
 30 31  1  0  0  0  0
 30 55  1  0  0  0  0
 31 32  1  0  0  0  0
 32 56  1  0  0  0  0
 33 34  1  0  0  0  0
 33 57  1  0  0  0  0
M  END
$$$$
