CHEMBL3741960
 OpenBabel04072215373D

 49 53  0  0  0  0  0  0  0  0999 V2000
    2.3856    0.0729   -0.1142 C   0  0  0  0  0  0  0  0  0  0  0  0
    0.8924    0.0615   -0.0177 C   0  0  0  0  0  0  0  0  0  0  0  0
    0.0566   -1.0553    0.0697 C   0  0  0  0  0  0  0  0  0  0  0  0
    0.2699   -2.5031    0.1153 C   0  0  0  0  0  0  0  0  0  0  0  0
   -0.6150   -3.2757   -0.2464 O   0  0  0  0  0  0  0  0  0  0  0  0
    1.5253   -3.0024    0.6423 C   0  0  0  0  0  0  0  0  0  0  0  0
    2.2606   -2.4764    1.6866 C   0  0  0  0  0  0  0  0  0  0  0  0
    3.4307   -3.1438    1.8513 O   0  0  0  0  0  0  0  0  0  0  0  0
    3.4272   -4.1693    0.9590 C   0  0  0  0  0  0  0  0  0  0  0  0
    4.4554   -5.1005    0.8032 C   0  0  0  0  0  0  0  0  0  0  0  0
    4.2495   -6.1111   -0.1418 C   0  0  0  0  0  0  0  0  0  0  0  0
    3.0685   -6.1526   -0.8799 C   0  0  0  0  0  0  0  0  0  0  0  0
    2.8482   -7.1493   -1.7917 O   0  0  0  0  0  0  0  0  0  0  0  0
    2.0634   -5.1942   -0.7271 C   0  0  0  0  0  0  0  0  0  0  0  0
    2.2527   -4.1668    0.2190 C   0  0  0  0  0  0  0  0  0  0  0  0
   -1.2342   -0.5695   -0.0009 N   0  0  0  0  0  0  0  0  0  0  0  0
   -1.2862    0.8049   -0.0186 C   0  0  0  0  0  0  0  0  0  0  0  0
   -2.5865    1.5084   -0.0791 C   0  0  0  0  0  0  0  0  0  0  0  0
   -3.7065    1.0237    0.6153 C   0  0  0  0  0  0  0  0  0  0  0  0
   -4.9120    1.7370    0.6261 C   0  0  0  0  0  0  0  0  0  0  0  0
   -5.0103    2.9567   -0.0382 C   0  0  0  0  0  0  0  0  0  0  0  0
   -3.9203    3.4394   -0.7532 C   0  0  0  0  0  0  0  0  0  0  0  0
   -2.7337    2.7019   -0.8012 C   0  0  0  0  0  0  0  0  0  0  0  0
    0.0434    1.2415   -0.0032 C   0  0  0  0  0  0  0  0  0  0  0  0
    0.4441    2.6591   -0.0211 C   0  0  0  0  0  0  0  0  0  0  0  0
   -0.2090    3.6123    0.7764 C   0  0  0  0  0  0  0  0  0  0  0  0
    0.0733    4.9768    0.6454 C   0  0  0  0  0  0  0  0  0  0  0  0
    1.0790    5.4024   -0.2171 C   0  0  0  0  0  0  0  0  0  0  0  0
    1.7895    4.4661   -0.9595 C   0  0  0  0  0  0  0  0  0  0  0  0
    1.4517    3.1117   -0.8835 C   0  0  0  0  0  0  0  0  0  0  0  0
    2.8091   -0.9170   -0.2858 H   0  0  0  0  0  0  0  0  0  0  0  0
    2.8245    0.4931    0.7962 H   0  0  0  0  0  0  0  0  0  0  0  0
    2.7282    0.6525   -0.9705 H   0  0  0  0  0  0  0  0  0  0  0  0
    2.1168   -1.6309    2.3467 H   0  0  0  0  0  0  0  0  0  0  0  0
    5.3637   -5.0372    1.3902 H   0  0  0  0  0  0  0  0  0  0  0  0
    5.0257   -6.8573   -0.2842 H   0  0  0  0  0  0  0  0  0  0  0  0
    3.5954   -7.7701   -1.7717 H   0  0  0  0  0  0  0  0  0  0  0  0
    1.1559   -5.2490   -1.3224 H   0  0  0  0  0  0  0  0  0  0  0  0
   -2.0459   -1.1771   -0.0446 H   0  0  0  0  0  0  0  0  0  0  0  0
   -3.6561    0.0977    1.1819 H   0  0  0  0  0  0  0  0  0  0  0  0
   -5.7695    1.3485    1.1702 H   0  0  0  0  0  0  0  0  0  0  0  0
   -5.9332    3.5294   -0.0007 H   0  0  0  0  0  0  0  0  0  0  0  0
   -3.9815    4.3944   -1.2687 H   0  0  0  0  0  0  0  0  0  0  0  0
   -1.9073    3.0981   -1.3868 H   0  0  0  0  0  0  0  0  0  0  0  0
   -0.9958    3.3105    1.4647 H   0  0  0  0  0  0  0  0  0  0  0  0
   -0.5070    5.7052    1.2058 H   0  0  0  0  0  0  0  0  0  0  0  0
    1.3021    6.4608   -0.3193 H   0  0  0  0  0  0  0  0  0  0  0  0
    2.5879    4.7864   -1.6238 H   0  0  0  0  0  0  0  0  0  0  0  0
    1.9714    2.4293   -1.5452 H   0  0  0  0  0  0  0  0  0  0  0  0
  1  2  1  0  0  0  0
  1 31  1  0  0  0  0
  1 32  1  0  0  0  0
  1 33  1  0  0  0  0
  2  3  2  0  0  0  0
  2 24  1  0  0  0  0
  3  4  1  0  0  0  0
  3 16  1  0  0  0  0
  4  5  2  0  0  0  0
  4  6  1  0  0  0  0
  6  7  2  0  0  0  0
  6 15  1  0  0  0  0
  7  8  1  0  0  0  0
  7 34  1  0  0  0  0
  8  9  1  0  0  0  0
  9 10  1  0  0  0  0
  9 15  2  0  0  0  0
 10 11  2  0  0  0  0
 10 35  1  0  0  0  0
 11 12  1  0  0  0  0
 11 36  1  0  0  0  0
 12 13  1  0  0  0  0
 12 14  2  0  0  0  0
 13 37  1  0  0  0  0
 14 15  1  0  0  0  0
 14 38  1  0  0  0  0
 16 17  1  0  0  0  0
 16 39  1  0  0  0  0
 17 18  1  0  0  0  0
 17 24  2  0  0  0  0
 18 19  1  0  0  0  0
 18 23  2  0  0  0  0
 19 20  2  0  0  0  0
 19 40  1  0  0  0  0
 20 21  1  0  0  0  0
 20 41  1  0  0  0  0
 21 22  2  0  0  0  0
 21 42  1  0  0  0  0
 22 23  1  0  0  0  0
 22 43  1  0  0  0  0
 23 44  1  0  0  0  0
 24 25  1  0  0  0  0
 25 26  1  0  0  0  0
 25 30  2  0  0  0  0
 26 27  2  0  0  0  0
 26 45  1  0  0  0  0
 27 28  1  0  0  0  0
 27 46  1  0  0  0  0
 28 29  2  0  0  0  0
 28 47  1  0  0  0  0
 29 30  1  0  0  0  0
 29 48  1  0  0  0  0
 30 49  1  0  0  0  0
M  END
$$$$
