CHEMBL3696088
 OpenBabel04072215373D

 43 45  0  0  0  0  0  0  0  0999 V2000
    2.8212    0.7810   -2.1345 C   0  0  0  0  0  0  0  0  0  0  0  0
    1.4025    0.5067   -1.7203 C   0  0  0  0  0  0  0  0  0  0  0  0
    0.9082   -0.7989   -1.7944 C   0  0  0  0  0  0  0  0  0  0  0  0
   -0.3870   -1.0697   -1.3801 C   0  0  0  0  0  0  0  0  0  0  0  0
   -1.2037   -0.0428   -0.9103 C   0  0  0  0  0  0  0  0  0  0  0  0
   -2.3797   -0.4278   -0.4026 F   0  0  0  0  0  0  0  0  0  0  0  0
   -0.7724    1.2928   -0.8872 C   0  0  0  0  0  0  0  0  0  0  0  0
   -1.5862    2.4070   -0.5160 N   0  0  0  0  0  0  0  0  0  0  0  0
   -2.9705    2.4065   -0.4708 C   0  0  0  0  0  0  0  0  0  0  0  0
   -3.6881    1.4517   -0.7433 O   0  0  0  0  0  0  0  0  0  0  0  0
   -3.5059    3.6589   -0.1547 N   0  0  0  0  0  0  0  0  0  0  0  0
   -4.9191    3.7908   -0.0410 C   0  0  0  0  0  0  0  0  0  0  0  0
   -5.6592    2.9072    0.7472 C   0  0  0  0  0  0  0  0  0  0  0  0
   -7.0576    2.9710    0.7658 C   0  0  0  0  0  0  0  0  0  0  0  0
   -7.7575    3.9132   -0.0072 C   0  0  0  0  0  0  0  0  0  0  0  0
   -9.2389    3.9445    0.0616 C   0  0  0  0  0  0  0  0  0  0  0  0
   -9.7783    3.6938    1.2625 N   0  0  0  0  0  0  0  0  0  0  0  0
  -11.4084    3.7956    1.1988 S   0  0  0  0  0  0  0  0  0  0  0  0
  -11.5142    4.1818   -0.4633 C   0  0  0  0  0  0  0  0  0  0  0  0
  -12.7260    4.3692   -1.0566 N   0  0  0  0  0  0  0  0  0  0  0  0
  -10.2227    4.2235   -0.9932 C   0  0  0  0  0  0  0  0  0  0  0  0
   -9.9255    4.4753   -2.3971 C   0  0  0  0  0  0  0  0  0  0  0  0
  -10.8460    5.2110   -3.0951 N   0  0  0  0  0  0  0  0  0  0  0  0
   -8.9124    4.0908   -2.9696 O   0  0  0  0  0  0  0  0  0  0  0  0
   -7.0025    4.8301   -0.7529 C   0  0  0  0  0  0  0  0  0  0  0  0
   -5.5930    4.7815   -0.7570 C   0  0  0  0  0  0  0  0  0  0  0  0
    0.5601    1.5470   -1.2665 C   0  0  0  0  0  0  0  0  0  0  0  0
    3.3310   -0.1406   -2.4433 H   0  0  0  0  0  0  0  0  0  0  0  0
    3.3887    1.2026   -1.2990 H   0  0  0  0  0  0  0  0  0  0  0  0
    2.8478    1.4712   -2.9833 H   0  0  0  0  0  0  0  0  0  0  0  0
    1.5318   -1.6147   -2.1532 H   0  0  0  0  0  0  0  0  0  0  0  0
   -0.7774   -2.0823   -1.3991 H   0  0  0  0  0  0  0  0  0  0  0  0
   -1.1227    3.2941   -0.3964 H   0  0  0  0  0  0  0  0  0  0  0  0
   -3.0263    4.4330   -0.5878 H   0  0  0  0  0  0  0  0  0  0  0  0
   -5.1601    2.1471    1.3443 H   0  0  0  0  0  0  0  0  0  0  0  0
   -7.5994    2.2611    1.3887 H   0  0  0  0  0  0  0  0  0  0  0  0
  -13.5432    4.0681   -0.5257 H   0  0  0  0  0  0  0  0  0  0  0  0
  -12.8267    4.1416   -2.0443 H   0  0  0  0  0  0  0  0  0  0  0  0
  -11.5701    5.7262   -2.6106 H   0  0  0  0  0  0  0  0  0  0  0  0
  -10.5913    5.4865   -4.0341 H   0  0  0  0  0  0  0  0  0  0  0  0
   -7.4917    5.5874   -1.3592 H   0  0  0  0  0  0  0  0  0  0  0  0
   -5.0477    5.4806   -1.3836 H   0  0  0  0  0  0  0  0  0  0  0  0
    0.9563    2.5599   -1.2364 H   0  0  0  0  0  0  0  0  0  0  0  0
  1  2  1  0  0  0  0
  1 28  1  0  0  0  0
  1 29  1  0  0  0  0
  1 30  1  0  0  0  0
  2  3  1  0  0  0  0
  2 27  2  0  0  0  0
  3  4  2  0  0  0  0
  3 31  1  0  0  0  0
  4  5  1  0  0  0  0
  4 32  1  0  0  0  0
  5  6  1  0  0  0  0
  5  7  2  0  0  0  0
  7  8  1  0  0  0  0
  7 27  1  0  0  0  0
  8  9  1  0  0  0  0
  8 33  1  0  0  0  0
  9 10  2  0  0  0  0
  9 11  1  0  0  0  0
 11 12  1  0  0  0  0
 11 34  1  0  0  0  0
 12 13  1  0  0  0  0
 12 26  2  0  0  0  0
 13 14  2  0  0  0  0
 13 35  1  0  0  0  0
 14 15  1  0  0  0  0
 14 36  1  0  0  0  0
 15 16  1  0  0  0  0
 15 25  2  0  0  0  0
 16 17  2  0  0  0  0
 16 21  1  0  0  0  0
 17 18  1  0  0  0  0
 18 19  1  0  0  0  0
 19 20  1  0  0  0  0
 19 21  2  0  0  0  0
 20 37  1  0  0  0  0
 20 38  1  0  0  0  0
 21 22  1  0  0  0  0
 22 23  1  0  0  0  0
 22 24  2  0  0  0  0
 23 39  1  0  0  0  0
 23 40  1  0  0  0  0
 25 26  1  0  0  0  0
 25 41  1  0  0  0  0
 26 42  1  0  0  0  0
 27 43  1  0  0  0  0
M  END
$$$$
