CHEMBL3913774
 OpenBabel04072215373D

 71 75  0  0  0  0  0  0  0  0999 V2000
    0.4977    3.7714   -3.7791 C   0  0  0  0  0  0  0  0  0  0  0  0
   -0.0500    2.5706   -3.1438 N   0  0  0  0  0  0  0  0  0  0  0  0
    0.3556    1.3828   -3.9059 C   0  0  0  0  0  0  0  0  0  0  0  0
   -0.1747    0.1104   -3.2528 C   0  0  0  0  0  0  0  0  0  0  0  0
    0.3556   -0.0117   -1.8189 C   0  0  0  0  0  0  0  0  0  0  0  0
    1.7995   -0.0697   -1.7698 O   0  0  0  0  0  0  0  0  0  0  0  0
    2.4039   -1.1082   -2.4202 C   0  0  0  0  0  0  0  0  0  0  0  0
    1.8045   -2.3589   -2.5002 C   0  0  0  0  0  0  0  0  0  0  0  0
    2.3982   -3.3812   -3.2257 C   0  0  0  0  0  0  0  0  0  0  0  0
    3.6345   -3.2162   -3.8470 C   0  0  0  0  0  0  0  0  0  0  0  0
    4.2869   -4.2855   -4.5156 N   0  0  0  0  0  0  0  0  0  0  0  0
    3.9292   -5.6165   -4.3650 C   0  0  0  0  0  0  0  0  0  0  0  0
    3.0033   -6.0160   -3.6651 O   0  0  0  0  0  0  0  0  0  0  0  0
    4.7593   -6.4993   -5.0437 N   0  0  0  0  0  0  0  0  0  0  0  0
    4.4853   -7.8909   -4.9417 C   0  0  0  0  0  0  0  0  0  0  0  0
    3.1819   -8.3803   -5.1125 C   0  0  0  0  0  0  0  0  0  0  0  0
    2.8820   -9.7246   -4.8764 C   0  0  0  0  0  0  0  0  0  0  0  0
    3.8983  -10.6171   -4.5298 C   0  0  0  0  0  0  0  0  0  0  0  0
    3.6801  -11.9607   -4.2873 O   0  0  0  0  0  0  0  0  0  0  0  0
    2.7827  -12.6556   -5.0789 C   0  0  0  0  0  0  0  0  0  0  0  0
    2.5196  -12.3258   -6.4042 C   0  0  0  0  0  0  0  0  0  0  0  0
    1.5601  -13.0538   -7.0688 C   0  0  0  0  0  0  0  0  0  0  0  0
    0.9169  -14.1002   -6.5252 N   0  0  0  0  0  0  0  0  0  0  0  0
    1.2210  -14.4727   -5.2714 C   0  0  0  0  0  0  0  0  0  0  0  0
    0.5767  -15.5948   -4.7225 N   0  0  0  0  0  0  0  0  0  0  0  0
   -0.3898  -16.3299   -5.3844 C   0  0  0  0  0  0  0  0  0  0  0  0
   -0.8392  -16.1279   -6.5050 O   0  0  0  0  0  0  0  0  0  0  0  0
   -0.9756  -17.4997   -4.6614 C   0  0  0  0  0  0  0  0  0  0  0  0
   -1.7404  -17.2774   -3.3775 C   0  0  0  0  0  0  0  0  0  0  0  0
   -0.4924  -18.1126   -3.3714 C   0  0  0  0  0  0  0  0  0  0  0  0
    2.1525  -13.7710   -4.5100 C   0  0  0  0  0  0  0  0  0  0  0  0
    5.1942  -10.1199   -4.3568 C   0  0  0  0  0  0  0  0  0  0  0  0
    6.1754  -10.9356   -3.9426 F   0  0  0  0  0  0  0  0  0  0  0  0
    5.5010   -8.7725   -4.5814 C   0  0  0  0  0  0  0  0  0  0  0  0
    4.2464   -1.9602   -3.7651 C   0  0  0  0  0  0  0  0  0  0  0  0
    3.6517   -0.8997   -3.0256 C   0  0  0  0  0  0  0  0  0  0  0  0
    4.3924    0.4125   -2.9243 C   0  0  0  0  0  0  0  0  0  0  0  0
    3.8331    1.3671   -2.1330 F   0  0  0  0  0  0  0  0  0  0  0  0
    5.6595    0.2419   -2.4433 F   0  0  0  0  0  0  0  0  0  0  0  0
    4.5522    1.0017   -4.1469 F   0  0  0  0  0  0  0  0  0  0  0  0
   -0.0821    1.2308   -1.0436 C   0  0  0  0  0  0  0  0  0  0  0  0
    0.3936    2.5054   -1.7411 C   0  0  0  0  0  0  0  0  0  0  0  0
    0.1700    3.8400   -4.8222 H   0  0  0  0  0  0  0  0  0  0  0  0
    1.5943    3.7801   -3.7637 H   0  0  0  0  0  0  0  0  0  0  0  0
    0.1366    4.6716   -3.2715 H   0  0  0  0  0  0  0  0  0  0  0  0
    1.4477    1.3299   -4.0028 H   0  0  0  0  0  0  0  0  0  0  0  0
   -0.0520    1.4381   -4.9226 H   0  0  0  0  0  0  0  0  0  0  0  0
    0.1172   -0.7466   -3.8681 H   0  0  0  0  0  0  0  0  0  0  0  0
   -1.2722    0.1229   -3.2408 H   0  0  0  0  0  0  0  0  0  0  0  0
   -0.0741   -0.8798   -1.3067 H   0  0  0  0  0  0  0  0  0  0  0  0
    0.8605   -2.5818   -2.0153 H   0  0  0  0  0  0  0  0  0  0  0  0
    1.8323   -4.3041   -3.2878 H   0  0  0  0  0  0  0  0  0  0  0  0
    5.1135   -4.0704   -5.0524 H   0  0  0  0  0  0  0  0  0  0  0  0
    5.7312   -6.2287   -5.0686 H   0  0  0  0  0  0  0  0  0  0  0  0
    2.3733   -7.7093   -5.3991 H   0  0  0  0  0  0  0  0  0  0  0  0
    1.8492  -10.0511   -4.9651 H   0  0  0  0  0  0  0  0  0  0  0  0
    3.0170  -11.5118   -6.9159 H   0  0  0  0  0  0  0  0  0  0  0  0
    1.2644  -12.8102   -8.0840 H   0  0  0  0  0  0  0  0  0  0  0  0
    0.8278  -15.8673   -3.7819 H   0  0  0  0  0  0  0  0  0  0  0  0
   -1.4220  -18.2093   -5.3593 H   0  0  0  0  0  0  0  0  0  0  0  0
   -2.7022  -17.7718   -3.2872 H   0  0  0  0  0  0  0  0  0  0  0  0
   -1.7057  -16.2974   -2.9163 H   0  0  0  0  0  0  0  0  0  0  0  0
   -0.6148  -19.1891   -3.2650 H   0  0  0  0  0  0  0  0  0  0  0  0
    0.3879  -17.7345   -2.8773 H   0  0  0  0  0  0  0  0  0  0  0  0
    2.3923  -14.0663   -3.4947 H   0  0  0  0  0  0  0  0  0  0  0  0
    6.5118   -8.4277   -4.3939 H   0  0  0  0  0  0  0  0  0  0  0  0
    5.2097   -1.7856   -4.2438 H   0  0  0  0  0  0  0  0  0  0  0  0
    0.3298    1.2038   -0.0280 H   0  0  0  0  0  0  0  0  0  0  0  0
   -1.1762    1.2417   -0.9542 H   0  0  0  0  0  0  0  0  0  0  0  0
    1.4866    2.5718   -1.6714 H   0  0  0  0  0  0  0  0  0  0  0  0
   -0.0171    3.3621   -1.1932 H   0  0  0  0  0  0  0  0  0  0  0  0
  1  2  1  0  0  0  0
  1 43  1  0  0  0  0
  1 44  1  0  0  0  0
  1 45  1  0  0  0  0
  2  3  1  0  0  0  0
  2 42  1  0  0  0  0
  3  4  1  0  0  0  0
  3 46  1  0  0  0  0
  3 47  1  0  0  0  0
  4  5  1  0  0  0  0
  4 48  1  0  0  0  0
  4 49  1  0  0  0  0
  5  6  1  0  0  0  0
  5 41  1  0  0  0  0
  5 50  1  0  0  0  0
  6  7  1  0  0  0  0
  7  8  1  0  0  0  0
  7 36  2  0  0  0  0
  8  9  2  0  0  0  0
  8 51  1  0  0  0  0
  9 10  1  0  0  0  0
  9 52  1  0  0  0  0
 10 11  1  0  0  0  0
 10 35  2  0  0  0  0
 11 12  1  0  0  0  0
 11 53  1  0  0  0  0
 12 13  2  0  0  0  0
 12 14  1  0  0  0  0
 14 15  1  0  0  0  0
 14 54  1  0  0  0  0
 15 16  1  0  0  0  0
 15 34  2  0  0  0  0
 16 17  2  0  0  0  0
 16 55  1  0  0  0  0
 17 18  1  0  0  0  0
 17 56  1  0  0  0  0
 18 19  1  0  0  0  0
 18 32  2  0  0  0  0
 19 20  1  0  0  0  0
 20 21  1  0  0  0  0
 20 31  2  0  0  0  0
 21 22  2  0  0  0  0
 21 57  1  0  0  0  0
 22 23  1  0  0  0  0
 22 58  1  0  0  0  0
 23 24  2  0  0  0  0
 24 25  1  0  0  0  0
 24 31  1  0  0  0  0
 25 26  1  0  0  0  0
 25 59  1  0  0  0  0
 26 27  2  0  0  0  0
 26 28  1  0  0  0  0
 28 29  1  0  0  0  0
 28 30  1  0  0  0  0
 28 60  1  0  0  0  0
 29 30  1  0  0  0  0
 29 61  1  0  0  0  0
 29 62  1  0  0  0  0
 30 63  1  0  0  0  0
 30 64  1  0  0  0  0
 31 65  1  0  0  0  0
 32 33  1  0  0  0  0
 32 34  1  0  0  0  0
 34 66  1  0  0  0  0
 35 36  1  0  0  0  0
 35 67  1  0  0  0  0
 36 37  1  0  0  0  0
 37 38  1  0  0  0  0
 37 39  1  0  0  0  0
 37 40  1  0  0  0  0
 41 42  1  0  0  0  0
 41 68  1  0  0  0  0
 41 69  1  0  0  0  0
 42 70  1  0  0  0  0
 42 71  1  0  0  0  0
M  END
$$$$
