CHEMBL4210670
 OpenBabel04072215383D

 64 67  0  0  0  0  0  0  0  0999 V2000
    1.1999    0.5529    1.0537 C   0  0  0  0  0  0  0  0  0  0  0  0
    2.6917    0.2797    0.9156 C   0  0  0  0  0  0  0  0  0  0  0  0
    3.1826    0.3572   -0.4671 N   0  0  0  0  0  0  0  0  0  0  0  0
    4.6061   -0.0428   -0.5191 C   0  0  0  0  0  0  0  0  0  0  0  0
    5.5966    1.0451   -0.0254 C   0  0  0  0  0  0  0  0  0  0  0  0
    5.4783    2.3492   -0.7215 N   0  0  0  0  0  0  0  0  0  0  0  0
    5.8799    2.3086   -2.1441 C   0  0  0  0  0  0  0  0  0  0  0  0
    7.3104    1.8583   -2.3885 C   0  0  0  0  0  0  0  0  0  0  0  0
    7.4972    0.4811   -2.5805 C   0  0  0  0  0  0  0  0  0  0  0  0
    8.7573   -0.0812   -2.7144 C   0  0  0  0  0  0  0  0  0  0  0  0
    9.8975    0.7079   -2.7025 C   0  0  0  0  0  0  0  0  0  0  0  0
   11.1978    0.1443   -2.7638 N   0  0  0  0  0  0  0  0  0  0  0  0
   11.4805   -1.1946   -2.5145 C   0  0  0  0  0  0  0  0  0  0  0  0
   10.6463   -2.0469   -2.2248 O   0  0  0  0  0  0  0  0  0  0  0  0
   12.8408   -1.4769   -2.5581 N   0  0  0  0  0  0  0  0  0  0  0  0
   13.2830   -2.7935   -2.2637 C   0  0  0  0  0  0  0  0  0  0  0  0
   12.6890   -3.9180   -2.8628 C   0  0  0  0  0  0  0  0  0  0  0  0
   13.0647   -5.2076   -2.4772 C   0  0  0  0  0  0  0  0  0  0  0  0
   14.0303   -5.3908   -1.4842 C   0  0  0  0  0  0  0  0  0  0  0  0
   14.3795   -6.7429   -1.0330 C   0  0  0  0  0  0  0  0  0  0  0  0
   13.6803   -7.4328    0.0404 C   0  0  0  0  0  0  0  0  0  0  0  0
   14.0312   -8.6650    0.4325 C   0  0  0  0  0  0  0  0  0  0  0  0
   15.1605   -9.3558   -0.2473 C   0  0  0  0  0  0  0  0  0  0  0  0
   15.5175  -10.4795    0.0856 O   0  0  0  0  0  0  0  0  0  0  0  0
   15.7658   -8.6508   -1.2610 N   0  0  0  0  0  0  0  0  0  0  0  0
   15.3946   -7.3827   -1.6477 C   0  0  0  0  0  0  0  0  0  0  0  0
   14.6388   -4.2688   -0.9063 C   0  0  0  0  0  0  0  0  0  0  0  0
   14.2880   -2.9754   -1.3137 C   0  0  0  0  0  0  0  0  0  0  0  0
    9.7319    2.0972   -2.6094 C   0  0  0  0  0  0  0  0  0  0  0  0
    8.4466    2.6924   -2.4219 C   0  0  0  0  0  0  0  0  0  0  0  0
    8.3983    4.2010   -2.2787 C   0  0  0  0  0  0  0  0  0  0  0  0
    7.1735    4.7512   -2.0729 F   0  0  0  0  0  0  0  0  0  0  0  0
    9.1789    4.6473   -1.2530 F   0  0  0  0  0  0  0  0  0  0  0  0
    8.8847    4.8216   -3.3950 F   0  0  0  0  0  0  0  0  0  0  0  0
    4.0543    2.7629   -0.6139 C   0  0  0  0  0  0  0  0  0  0  0  0
    3.0337    1.6913   -1.0872 C   0  0  0  0  0  0  0  0  0  0  0  0
    0.8898    0.3814    2.0895 H   0  0  0  0  0  0  0  0  0  0  0  0
    0.6140   -0.1115    0.4106 H   0  0  0  0  0  0  0  0  0  0  0  0
    0.9490    1.5888    0.8105 H   0  0  0  0  0  0  0  0  0  0  0  0
    2.8580   -0.7424    1.2818 H   0  0  0  0  0  0  0  0  0  0  0  0
    3.2420    0.9489    1.5849 H   0  0  0  0  0  0  0  0  0  0  0  0
    4.8239   -0.3060   -1.5581 H   0  0  0  0  0  0  0  0  0  0  0  0
    4.7704   -0.9702    0.0440 H   0  0  0  0  0  0  0  0  0  0  0  0
    6.6236    0.6681   -0.0596 H   0  0  0  0  0  0  0  0  0  0  0  0
    5.4226    1.2204    1.0451 H   0  0  0  0  0  0  0  0  0  0  0  0
    5.7263    3.2896   -2.6034 H   0  0  0  0  0  0  0  0  0  0  0  0
    5.2257    1.6488   -2.7266 H   0  0  0  0  0  0  0  0  0  0  0  0
    6.6517   -0.2001   -2.5961 H   0  0  0  0  0  0  0  0  0  0  0  0
    8.7938   -1.1579   -2.8296 H   0  0  0  0  0  0  0  0  0  0  0  0
   11.9744    0.7743   -2.8988 H   0  0  0  0  0  0  0  0  0  0  0  0
   13.4314   -0.7298   -2.2273 H   0  0  0  0  0  0  0  0  0  0  0  0
   11.9165   -3.7954   -3.6174 H   0  0  0  0  0  0  0  0  0  0  0  0
   12.5776   -6.0624   -2.9418 H   0  0  0  0  0  0  0  0  0  0  0  0
   12.8601   -6.9140    0.5272 H   0  0  0  0  0  0  0  0  0  0  0  0
   13.5410   -9.2038    1.2294 H   0  0  0  0  0  0  0  0  0  0  0  0
   16.5326   -9.1213   -1.7260 H   0  0  0  0  0  0  0  0  0  0  0  0
   15.9654   -6.9457   -2.4581 H   0  0  0  0  0  0  0  0  0  0  0  0
   15.3735   -4.3944   -0.1140 H   0  0  0  0  0  0  0  0  0  0  0  0
   14.7445   -2.1249   -0.8192 H   0  0  0  0  0  0  0  0  0  0  0  0
   10.6043    2.7510   -2.6437 H   0  0  0  0  0  0  0  0  0  0  0  0
    3.8917    3.6947   -1.1692 H   0  0  0  0  0  0  0  0  0  0  0  0
    3.8447    3.0096    0.4355 H   0  0  0  0  0  0  0  0  0  0  0  0
    3.1369    1.5599   -2.1721 H   0  0  0  0  0  0  0  0  0  0  0  0
    2.0167    2.0765   -0.9678 H   0  0  0  0  0  0  0  0  0  0  0  0
  1  2  1  0  0  0  0
  1 37  1  0  0  0  0
  1 38  1  0  0  0  0
  1 39  1  0  0  0  0
  2  3  1  0  0  0  0
  2 40  1  0  0  0  0
  2 41  1  0  0  0  0
  3  4  1  0  0  0  0
  3 36  1  0  0  0  0
  4  5  1  0  0  0  0
  4 42  1  0  0  0  0
  4 43  1  0  0  0  0
  5  6  1  0  0  0  0
  5 44  1  0  0  0  0
  5 45  1  0  0  0  0
  6  7  1  0  0  0  0
  6 35  1  0  0  0  0
  7  8  1  0  0  0  0
  7 46  1  0  0  0  0
  7 47  1  0  0  0  0
  8  9  1  0  0  0  0
  8 30  2  0  0  0  0
  9 10  2  0  0  0  0
  9 48  1  0  0  0  0
 10 11  1  0  0  0  0
 10 49  1  0  0  0  0
 11 12  1  0  0  0  0
 11 29  2  0  0  0  0
 12 13  1  0  0  0  0
 12 50  1  0  0  0  0
 13 14  2  0  0  0  0
 13 15  1  0  0  0  0
 15 16  1  0  0  0  0
 15 51  1  0  0  0  0
 16 17  1  0  0  0  0
 16 28  2  0  0  0  0
 17 18  2  0  0  0  0
 17 52  1  0  0  0  0
 18 19  1  0  0  0  0
 18 53  1  0  0  0  0
 19 20  1  0  0  0  0
 19 27  2  0  0  0  0
 20 21  1  0  0  0  0
 20 26  2  0  0  0  0
 21 22  2  0  0  0  0
 21 54  1  0  0  0  0
 22 23  1  0  0  0  0
 22 55  1  0  0  0  0
 23 24  2  0  0  0  0
 23 25  1  0  0  0  0
 25 26  1  0  0  0  0
 25 56  1  0  0  0  0
 26 57  1  0  0  0  0
 27 28  1  0  0  0  0
 27 58  1  0  0  0  0
 28 59  1  0  0  0  0
 29 30  1  0  0  0  0
 29 60  1  0  0  0  0
 30 31  1  0  0  0  0
 31 32  1  0  0  0  0
 31 33  1  0  0  0  0
 31 34  1  0  0  0  0
 35 36  1  0  0  0  0
 35 61  1  0  0  0  0
 35 62  1  0  0  0  0
 36 63  1  0  0  0  0
 36 64  1  0  0  0  0
M  END
$$$$
