CHEMBL460465
 OpenBabel04072215383D

 60 64  0  0  0  0  0  0  0  0999 V2000
    4.2262  -12.2842   -5.2141 C   0  0  0  0  0  0  0  0  0  0  0  0
    3.9862  -12.0993   -3.8207 O   0  0  0  0  0  0  0  0  0  0  0  0
    4.2629  -10.8433   -3.3521 C   0  0  0  0  0  0  0  0  0  0  0  0
    4.2537   -9.6979   -4.1333 C   0  0  0  0  0  0  0  0  0  0  0  0
    4.5617   -8.4723   -3.5585 C   0  0  0  0  0  0  0  0  0  0  0  0
    4.7829   -8.3413   -2.1702 C   0  0  0  0  0  0  0  0  0  0  0  0
    4.9417   -7.1010   -1.5022 C   0  0  0  0  0  0  0  0  0  0  0  0
    4.8645   -5.8569   -2.1118 O   0  0  0  0  0  0  0  0  0  0  0  0
    3.7711   -5.5251   -2.8825 C   0  0  0  0  0  0  0  0  0  0  0  0
    2.5570   -6.2022   -2.8674 C   0  0  0  0  0  0  0  0  0  0  0  0
    1.5612   -5.8894   -3.8007 C   0  0  0  0  0  0  0  0  0  0  0  0
    1.6997   -4.8352   -4.7126 C   0  0  0  0  0  0  0  0  0  0  0  0
    0.6809   -4.4763   -5.6437 N   0  0  0  0  0  0  0  0  0  0  0  0
   -0.4903   -5.1842   -5.8536 C   0  0  0  0  0  0  0  0  0  0  0  0
   -0.7375   -6.2765   -5.3532 O   0  0  0  0  0  0  0  0  0  0  0  0
   -1.5180   -4.5500   -6.7177 C   0  0  0  0  0  0  0  0  0  0  0  0
   -2.7568   -5.0165   -7.0014 C   0  0  0  0  0  0  0  0  0  0  0  0
   -3.3475   -6.3515   -6.6527 C   0  0  0  0  0  0  0  0  0  0  0  0
   -3.5226   -4.0857   -7.7147 N   0  0  0  0  0  0  0  0  0  0  0  0
   -4.6133   -4.4332   -8.6255 C   0  0  0  0  0  0  0  0  0  0  0  0
   -2.6294   -3.0790   -8.1185 N   0  0  0  0  0  0  0  0  0  0  0  0
   -3.0461   -1.8940   -8.7465 C   0  0  0  0  0  0  0  0  0  0  0  0
   -2.3326   -1.4334   -9.8579 C   0  0  0  0  0  0  0  0  0  0  0  0
   -2.7641   -0.3019  -10.5531 C   0  0  0  0  0  0  0  0  0  0  0  0
   -3.8833    0.4028  -10.1126 C   0  0  0  0  0  0  0  0  0  0  0  0
   -4.5881   -0.0386   -8.9931 C   0  0  0  0  0  0  0  0  0  0  0  0
   -4.1840   -1.1979   -8.3235 C   0  0  0  0  0  0  0  0  0  0  0  0
   -1.4058   -3.2706   -7.4669 C   0  0  0  0  0  0  0  0  0  0  0  0
   -0.4042   -2.5695   -7.4536 O   0  0  0  0  0  0  0  0  0  0  0  0
    2.8859   -4.0957   -4.6673 C   0  0  0  0  0  0  0  0  0  0  0  0
    3.9079   -4.4516   -3.7688 C   0  0  0  0  0  0  0  0  0  0  0  0
    5.0512   -3.7477   -3.7899 F   0  0  0  0  0  0  0  0  0  0  0  0
    5.2394   -7.0866   -0.1418 C   0  0  0  0  0  0  0  0  0  0  0  0
    5.3073   -8.2949    0.5225 C   0  0  0  0  0  0  0  0  0  0  0  0
    5.0816   -9.4889   -0.0630 N   0  0  0  0  0  0  0  0  0  0  0  0
    4.8180   -9.5118   -1.3826 C   0  0  0  0  0  0  0  0  0  0  0  0
    4.5502  -10.7407   -1.9879 C   0  0  0  0  0  0  0  0  0  0  0  0
    4.1028  -13.3458   -5.4431 H   0  0  0  0  0  0  0  0  0  0  0  0
    5.2524  -11.9992   -5.4732 H   0  0  0  0  0  0  0  0  0  0  0  0
    3.5019  -11.7319   -5.8223 H   0  0  0  0  0  0  0  0  0  0  0  0
    3.9894   -9.7133   -5.1848 H   0  0  0  0  0  0  0  0  0  0  0  0
    4.5807   -7.6026   -4.2088 H   0  0  0  0  0  0  0  0  0  0  0  0
    2.3673   -7.0244   -2.1829 H   0  0  0  0  0  0  0  0  0  0  0  0
    0.6768   -6.5163   -3.7696 H   0  0  0  0  0  0  0  0  0  0  0  0
    0.8160   -3.6182   -6.1799 H   0  0  0  0  0  0  0  0  0  0  0  0
   -2.7565   -6.9483   -5.9601 H   0  0  0  0  0  0  0  0  0  0  0  0
   -3.4513   -6.9518   -7.5650 H   0  0  0  0  0  0  0  0  0  0  0  0
   -4.3371   -6.2324   -6.2025 H   0  0  0  0  0  0  0  0  0  0  0  0
   -4.9971   -5.4432   -8.4505 H   0  0  0  0  0  0  0  0  0  0  0  0
   -4.2998   -4.3761   -9.6729 H   0  0  0  0  0  0  0  0  0  0  0  0
   -5.4578   -3.7539   -8.4705 H   0  0  0  0  0  0  0  0  0  0  0  0
   -1.4693   -1.9853  -10.2212 H   0  0  0  0  0  0  0  0  0  0  0  0
   -2.2282    0.0268  -11.4397 H   0  0  0  0  0  0  0  0  0  0  0  0
   -4.2043    1.2974  -10.6410 H   0  0  0  0  0  0  0  0  0  0  0  0
   -5.4490    0.5229   -8.6396 H   0  0  0  0  0  0  0  0  0  0  0  0
   -4.7379   -1.5289   -7.4488 H   0  0  0  0  0  0  0  0  0  0  0  0
    3.0569   -3.2557   -5.3339 H   0  0  0  0  0  0  0  0  0  0  0  0
    5.4079   -6.1563    0.3887 H   0  0  0  0  0  0  0  0  0  0  0  0
    5.5472   -8.3428    1.5816 H   0  0  0  0  0  0  0  0  0  0  0  0
    4.5640  -11.6399   -1.3780 H   0  0  0  0  0  0  0  0  0  0  0  0
  1  2  1  0  0  0  0
  1 38  1  0  0  0  0
  1 39  1  0  0  0  0
  1 40  1  0  0  0  0
  2  3  1  0  0  0  0
  3  4  1  0  0  0  0
  3 37  2  0  0  0  0
  4  5  2  0  0  0  0
  4 41  1  0  0  0  0
  5  6  1  0  0  0  0
  5 42  1  0  0  0  0
  6  7  1  0  0  0  0
  6 36  2  0  0  0  0
  7  8  1  0  0  0  0
  7 33  2  0  0  0  0
  8  9  1  0  0  0  0
  9 10  1  0  0  0  0
  9 31  2  0  0  0  0
 10 11  2  0  0  0  0
 10 43  1  0  0  0  0
 11 12  1  0  0  0  0
 11 44  1  0  0  0  0
 12 13  1  0  0  0  0
 12 30  2  0  0  0  0
 13 14  1  0  0  0  0
 13 45  1  0  0  0  0
 14 15  2  0  0  0  0
 14 16  1  0  0  0  0
 16 17  2  0  0  0  0
 16 28  1  0  0  0  0
 17 18  1  0  0  0  0
 17 19  1  0  0  0  0
 18 46  1  0  0  0  0
 18 47  1  0  0  0  0
 18 48  1  0  0  0  0
 19 20  1  0  0  0  0
 19 21  1  0  0  0  0
 20 49  1  0  0  0  0
 20 50  1  0  0  0  0
 20 51  1  0  0  0  0
 21 22  1  0  0  0  0
 21 28  1  0  0  0  0
 22 23  1  0  0  0  0
 22 27  2  0  0  0  0
 23 24  2  0  0  0  0
 23 52  1  0  0  0  0
 24 25  1  0  0  0  0
 24 53  1  0  0  0  0
 25 26  2  0  0  0  0
 25 54  1  0  0  0  0
 26 27  1  0  0  0  0
 26 55  1  0  0  0  0
 27 56  1  0  0  0  0
 28 29  2  0  0  0  0
 30 31  1  0  0  0  0
 30 57  1  0  0  0  0
 31 32  1  0  0  0  0
 33 34  1  0  0  0  0
 33 58  1  0  0  0  0
 34 35  2  0  0  0  0
 34 59  1  0  0  0  0
 35 36  1  0  0  0  0
 36 37  1  0  0  0  0
 37 60  1  0  0  0  0
M  END
$$$$
