CHEMBL3929966
 OpenBabel04072215373D

 61 65  0  0  1  0  0  0  0  0999 V2000
    1.2989   -0.4114   -0.2785 C   0  0  0  0  0  0  0  0  0  0  0  0
    2.7046   -0.4494   -0.1360 O   0  0  0  0  0  0  0  0  0  0  0  0
    3.2100   -0.7256    1.1002 C   0  0  0  0  0  0  0  0  0  0  0  0
    4.3438    0.0540    1.3885 C   0  0  0  0  0  0  0  0  0  0  0  0
    5.0916   -0.1554    2.5660 C   0  0  0  0  0  0  0  0  0  0  0  0
    6.2045    0.5847    2.9804 C   0  0  0  0  0  0  0  0  0  0  0  0
    6.6153    1.7233    2.2298 N   0  0  0  0  0  0  0  0  0  0  0  0
    7.8991    2.2878    2.3628 C   0  0  0  0  0  0  0  0  0  0  0  0
    9.0363    1.4641    2.3020 C   0  0  0  0  0  0  0  0  0  0  0  0
   10.3048    1.9693    2.5400 C   0  0  0  0  0  0  0  0  0  0  0  0
   10.4688    3.3252    2.8352 C   0  0  0  0  0  0  0  0  0  0  0  0
   12.0651    3.8810    3.1806 Cl  0  0  0  0  0  0  0  0  0  0  0  0
    9.3513    4.1690    2.8574 C   0  0  0  0  0  0  0  0  0  0  0  0
    9.4826    5.8579    3.2087 Cl  0  0  0  0  0  0  0  0  0  0  0  0
    8.0716    3.6548    2.6131 C   0  0  0  0  0  0  0  0  0  0  0  0
    6.9086    0.2659    4.0858 N   0  0  0  0  0  0  0  0  0  0  0  0
    6.4891   -0.7908    4.7878 C   0  0  0  0  0  0  0  0  0  0  0  0
    5.4333   -1.5431    4.5055 N   0  0  0  0  0  0  0  0  0  0  0  0
    4.7531   -1.2123    3.4082 C   0  0  0  0  0  0  0  0  0  0  0  0
    3.6425   -1.9697    3.1065 C   0  0  0  0  0  0  0  0  0  0  0  0
    2.8084   -1.7104    2.0071 C   0  0  0  0  0  0  0  0  0  0  0  0
    1.6394   -2.4266    1.8296 O   0  0  0  0  0  0  0  0  0  0  0  0
    1.1525   -3.0378    3.0474 C   0  0  0  0  0  0  0  0  0  0  0  0
   -0.3284   -3.4078    3.0064 C   0  0  3  0  0  0  0  0  0  0  0  0
   -1.1481   -2.1761    2.6271 C   0  0  0  0  0  0  0  0  0  0  0  0
   -2.5842   -2.4327    2.7384 N   0  0  0  0  0  0  0  0  0  0  0  0
   -3.5534   -2.2395    1.7556 C   0  0  0  0  0  0  0  0  0  0  0  0
   -4.7381   -2.5071    1.9562 O   0  0  0  0  0  0  0  0  0  0  0  0
   -3.1900   -1.7560    0.4049 C   0  0  0  0  0  0  0  0  0  0  0  0
   -2.3429   -0.6691    0.1822 C   0  0  0  0  0  0  0  0  0  0  0  0
   -1.8576    0.0552    1.2012 F   0  0  0  0  0  0  0  0  0  0  0  0
   -1.9412   -0.3132   -1.1080 C   0  0  0  0  0  0  0  0  0  0  0  0
   -2.4413   -1.0017   -2.2066 C   0  0  0  0  0  0  0  0  0  0  0  0
   -3.3724   -2.0118   -1.9990 C   0  0  0  0  0  0  0  0  0  0  0  0
   -3.9095   -2.6246   -3.0619 F   0  0  0  0  0  0  0  0  0  0  0  0
   -3.7433   -2.3925   -0.7093 C   0  0  0  0  0  0  0  0  0  0  0  0
   -4.6227   -3.3956   -0.5710 F   0  0  0  0  0  0  0  0  0  0  0  0
   -2.9668   -2.9886    4.0432 C   0  0  0  0  0  0  0  0  0  0  0  0
   -2.1007   -4.2105    4.3744 C   0  0  0  0  0  0  0  0  0  0  0  0
   -0.7002   -3.8899    4.3146 O   0  0  0  0  0  0  0  0  0  0  0  0
    1.0453    0.5574   -0.7238 H   0  0  0  0  0  0  0  0  0  0  0  0
    0.7441   -0.4937    0.6553 H   0  0  0  0  0  0  0  0  0  0  0  0
    0.9966   -1.1925   -0.9816 H   0  0  0  0  0  0  0  0  0  0  0  0
    4.6504    0.8174    0.6751 H   0  0  0  0  0  0  0  0  0  0  0  0
    5.8669    2.4094    2.2235 H   0  0  0  0  0  0  0  0  0  0  0  0
    8.9151    0.3955    2.0959 H   0  0  0  0  0  0  0  0  0  0  0  0
   11.1596    1.2984    2.5173 H   0  0  0  0  0  0  0  0  0  0  0  0
    7.2107    4.3158    2.6611 H   0  0  0  0  0  0  0  0  0  0  0  0
    7.0642   -1.0528    5.6704 H   0  0  0  0  0  0  0  0  0  0  0  0
    3.4430   -2.7915    3.7916 H   0  0  0  0  0  0  0  0  0  0  0  0
    1.2772   -2.3510    3.8984 H   0  0  0  0  0  0  0  0  0  0  0  0
    1.7256   -3.9505    3.2466 H   0  0  0  0  0  0  0  0  0  0  0  0
   -0.4938   -4.2058    2.2723 H   0  0  0  0  0  0  0  0  0  0  0  0
   -0.8622   -1.8975    1.6200 H   0  0  0  0  0  0  0  0  0  0  0  0
   -0.9318   -1.3403    3.3058 H   0  0  0  0  0  0  0  0  0  0  0  0
   -1.2366    0.5009   -1.2459 H   0  0  0  0  0  0  0  0  0  0  0  0
   -2.1313   -0.7463   -3.2155 H   0  0  0  0  0  0  0  0  0  0  0  0
   -4.0263   -3.2602    4.0754 H   0  0  0  0  0  0  0  0  0  0  0  0
   -2.7946   -2.2005    4.7853 H   0  0  0  0  0  0  0  0  0  0  0  0
   -2.2992   -5.0374    3.6841 H   0  0  0  0  0  0  0  0  0  0  0  0
   -2.3154   -4.5602    5.3901 H   0  0  0  0  0  0  0  0  0  0  0  0
  1  2  1  0  0  0  0
  1 41  1  0  0  0  0
  1 42  1  0  0  0  0
  1 43  1  0  0  0  0
  2  3  1  0  0  0  0
  3  4  1  0  0  0  0
  3 21  2  0  0  0  0
  4  5  2  0  0  0  0
  4 44  1  0  0  0  0
  5  6  1  0  0  0  0
  5 19  1  0  0  0  0
  6  7  1  0  0  0  0
  6 16  2  0  0  0  0
  7  8  1  0  0  0  0
  7 45  1  0  0  0  0
  8  9  1  0  0  0  0
  8 15  2  0  0  0  0
  9 10  2  0  0  0  0
  9 46  1  0  0  0  0
 10 11  1  0  0  0  0
 10 47  1  0  0  0  0
 11 12  1  0  0  0  0
 11 13  2  0  0  0  0
 13 14  1  0  0  0  0
 13 15  1  0  0  0  0
 15 48  1  0  0  0  0
 16 17  1  0  0  0  0
 17 18  2  0  0  0  0
 17 49  1  0  0  0  0
 18 19  1  0  0  0  0
 19 20  2  0  0  0  0
 20 21  1  0  0  0  0
 20 50  1  0  0  0  0
 21 22  1  0  0  0  0
 22 23  1  0  0  0  0
 23 24  1  0  0  0  0
 23 51  1  0  0  0  0
 23 52  1  0  0  0  0
 24 25  1  0  0  0  0
 24 40  1  0  0  0  0
 24 53  1  0  0  0  0
 25 26  1  0  0  0  0
 25 54  1  0  0  0  0
 25 55  1  0  0  0  0
 26 27  1  0  0  0  0
 26 38  1  0  0  0  0
 27 28  2  0  0  0  0
 27 29  1  0  0  0  0
 29 30  1  0  0  0  0
 29 36  2  0  0  0  0
 30 31  1  0  0  0  0
 30 32  2  0  0  0  0
 32 33  1  0  0  0  0
 32 56  1  0  0  0  0
 33 34  2  0  0  0  0
 33 57  1  0  0  0  0
 34 35  1  0  0  0  0
 34 36  1  0  0  0  0
 36 37  1  0  0  0  0
 38 39  1  0  0  0  0
 38 58  1  0  0  0  0
 38 59  1  0  0  0  0
 39 40  1  0  0  0  0
 39 60  1  0  0  0  0
 39 61  1  0  0  0  0
M  END
$$$$
