CHEMBL1983640
 OpenBabel04072215363D

 63 67  0  0  0  0  0  0  0  0999 V2000
    2.6947   -0.2828   -0.1781 C   0  0  0  0  0  0  0  0  0  0  0  0
    1.2792   -0.2761    0.3253 C   0  0  0  0  0  0  0  0  0  0  0  0
    0.7497   -1.4263    0.9091 C   0  0  0  0  0  0  0  0  0  0  0  0
   -0.5455   -1.4180    1.4113 C   0  0  0  0  0  0  0  0  0  0  0  0
   -1.3249   -0.2665    1.3185 C   0  0  0  0  0  0  0  0  0  0  0  0
   -2.5063   -0.3196    1.9451 F   0  0  0  0  0  0  0  0  0  0  0  0
   -0.8560    0.8933    0.6849 C   0  0  0  0  0  0  0  0  0  0  0  0
   -1.6208    2.0791    0.4745 N   0  0  0  0  0  0  0  0  0  0  0  0
   -3.0026    2.1911    0.5766 C   0  0  0  0  0  0  0  0  0  0  0  0
   -3.7721    1.2834    0.8568 O   0  0  0  0  0  0  0  0  0  0  0  0
   -3.4608    3.4677    0.2337 N   0  0  0  0  0  0  0  0  0  0  0  0
   -4.8528    3.7601    0.2881 C   0  0  0  0  0  0  0  0  0  0  0  0
   -5.6421    3.3862    1.3801 C   0  0  0  0  0  0  0  0  0  0  0  0
   -7.0407    3.5276    1.3415 C   0  0  0  0  0  0  0  0  0  0  0  0
   -7.6823    4.0500    0.2084 C   0  0  0  0  0  0  0  0  0  0  0  0
   -9.1472    4.0225    0.0771 C   0  0  0  0  0  0  0  0  0  0  0  0
  -10.0123    4.2152    1.1385 C   0  0  0  0  0  0  0  0  0  0  0  0
  -11.3114    4.1041    0.7540 O   0  0  0  0  0  0  0  0  0  0  0  0
  -11.3261    3.8205   -0.5839 C   0  0  0  0  0  0  0  0  0  0  0  0
  -12.4562    3.6119   -1.3821 C   0  0  0  0  0  0  0  0  0  0  0  0
  -13.8082    3.6721   -0.9091 C   0  0  0  0  0  0  0  0  0  0  0  0
  -15.0483    3.7441   -0.5129 C   0  0  0  0  0  0  0  0  0  0  0  0
  -16.4940    3.8280   -0.0509 C   0  0  0  0  0  0  0  0  0  0  0  0
  -17.3960    3.4402   -1.1492 N   0  0  0  0  0  0  0  0  0  0  0  0
  -18.8142    3.5262   -0.7439 C   0  0  0  0  0  0  0  0  0  0  0  0
  -19.2727    2.3649    0.1543 C   0  0  0  0  0  0  0  0  0  0  0  0
  -19.0738    1.1050   -0.4947 O   0  0  0  0  0  0  0  0  0  0  0  0
  -17.6973    0.9212   -0.8444 C   0  0  0  0  0  0  0  0  0  0  0  0
  -17.1600    2.0830   -1.6982 C   0  0  0  0  0  0  0  0  0  0  0  0
  -12.1539    3.3363   -2.7013 C   0  0  0  0  0  0  0  0  0  0  0  0
  -10.9037    3.2422   -3.2083 N   0  0  0  0  0  0  0  0  0  0  0  0
   -9.8257    3.4288   -2.4205 C   0  0  0  0  0  0  0  0  0  0  0  0
   -8.5953    3.2498   -3.0409 N   0  0  0  0  0  0  0  0  0  0  0  0
  -10.0074    3.7493   -1.0567 C   0  0  0  0  0  0  0  0  0  0  0  0
   -6.8656    4.5404   -0.8225 C   0  0  0  0  0  0  0  0  0  0  0  0
   -5.4656    4.3939   -0.7903 C   0  0  0  0  0  0  0  0  0  0  0  0
    0.4727    0.8820    0.2163 C   0  0  0  0  0  0  0  0  0  0  0  0
    3.1720   -1.2553   -0.0064 H   0  0  0  0  0  0  0  0  0  0  0  0
    3.2880    0.4712    0.3474 H   0  0  0  0  0  0  0  0  0  0  0  0
    2.7191   -0.0879   -1.2537 H   0  0  0  0  0  0  0  0  0  0  0  0
    1.3425   -2.3365    0.9965 H   0  0  0  0  0  0  0  0  0  0  0  0
   -0.9613   -2.2963    1.8962 H   0  0  0  0  0  0  0  0  0  0  0  0
   -1.1235    2.8858    0.1248 H   0  0  0  0  0  0  0  0  0  0  0  0
   -2.9491    3.9049   -0.5173 H   0  0  0  0  0  0  0  0  0  0  0  0
   -5.1806    2.9408    2.2599 H   0  0  0  0  0  0  0  0  0  0  0  0
   -7.6092    3.1703    2.1967 H   0  0  0  0  0  0  0  0  0  0  0  0
   -9.8676    4.4299    2.1887 H   0  0  0  0  0  0  0  0  0  0  0  0
  -16.6945    4.8637    0.2467 H   0  0  0  0  0  0  0  0  0  0  0  0
  -16.6153    3.1895    0.8307 H   0  0  0  0  0  0  0  0  0  0  0  0
  -19.4155    3.5050   -1.6627 H   0  0  0  0  0  0  0  0  0  0  0  0
  -19.0224    4.4882   -0.2630 H   0  0  0  0  0  0  0  0  0  0  0  0
  -20.3432    2.4606    0.3609 H   0  0  0  0  0  0  0  0  0  0  0  0
  -18.7517    2.3614    1.1182 H   0  0  0  0  0  0  0  0  0  0  0  0
  -17.6358   -0.0083   -1.4218 H   0  0  0  0  0  0  0  0  0  0  0  0
  -17.1073    0.7827    0.0679 H   0  0  0  0  0  0  0  0  0  0  0  0
  -17.6725    2.0471   -2.6691 H   0  0  0  0  0  0  0  0  0  0  0  0
  -16.1040    1.9082   -1.9305 H   0  0  0  0  0  0  0  0  0  0  0  0
  -12.9489    3.1650   -3.4240 H   0  0  0  0  0  0  0  0  0  0  0  0
   -8.7413    2.8073   -3.9420 H   0  0  0  0  0  0  0  0  0  0  0  0
   -7.9143    2.7896   -2.4481 H   0  0  0  0  0  0  0  0  0  0  0  0
   -7.3097    5.0071   -1.6994 H   0  0  0  0  0  0  0  0  0  0  0  0
   -4.8884    4.7061   -1.6560 H   0  0  0  0  0  0  0  0  0  0  0  0
    0.8953    1.7620   -0.2590 H   0  0  0  0  0  0  0  0  0  0  0  0
  1  2  1  0  0  0  0
  1 38  1  0  0  0  0
  1 39  1  0  0  0  0
  1 40  1  0  0  0  0
  2  3  1  0  0  0  0
  2 37  2  0  0  0  0
  3  4  2  0  0  0  0
  3 41  1  0  0  0  0
  4  5  1  0  0  0  0
  4 42  1  0  0  0  0
  5  6  1  0  0  0  0
  5  7  2  0  0  0  0
  7  8  1  0  0  0  0
  7 37  1  0  0  0  0
  8  9  1  0  0  0  0
  8 43  1  0  0  0  0
  9 10  2  0  0  0  0
  9 11  1  0  0  0  0
 11 12  1  0  0  0  0
 11 44  1  0  0  0  0
 12 13  1  0  0  0  0
 12 36  2  0  0  0  0
 13 14  2  0  0  0  0
 13 45  1  0  0  0  0
 14 15  1  0  0  0  0
 14 46  1  0  0  0  0
 15 16  1  0  0  0  0
 15 35  2  0  0  0  0
 16 17  2  0  0  0  0
 16 34  1  0  0  0  0
 17 18  1  0  0  0  0
 17 47  1  0  0  0  0
 18 19  1  0  0  0  0
 19 20  1  0  0  0  0
 19 34  2  0  0  0  0
 20 21  1  0  0  0  0
 20 30  2  0  0  0  0
 21 22  3  0  0  0  0
 22 23  1  0  0  0  0
 23 24  1  0  0  0  0
 23 48  1  0  0  0  0
 23 49  1  0  0  0  0
 24 25  1  0  0  0  0
 24 29  1  0  0  0  0
 25 26  1  0  0  0  0
 25 50  1  0  0  0  0
 25 51  1  0  0  0  0
 26 27  1  0  0  0  0
 26 52  1  0  0  0  0
 26 53  1  0  0  0  0
 27 28  1  0  0  0  0
 28 29  1  0  0  0  0
 28 54  1  0  0  0  0
 28 55  1  0  0  0  0
 29 56  1  0  0  0  0
 29 57  1  0  0  0  0
 30 31  1  0  0  0  0
 30 58  1  0  0  0  0
 31 32  2  0  0  0  0
 32 33  1  0  0  0  0
 32 34  1  0  0  0  0
 33 59  1  0  0  0  0
 33 60  1  0  0  0  0
 35 36  1  0  0  0  0
 35 61  1  0  0  0  0
 36 62  1  0  0  0  0
 37 63  1  0  0  0  0
M  END
$$$$
