CHEMBL212143
 OpenBabel04072215363D

 93 97  0  0  0  0  0  0  0  0999 V2000
    0.7787   -0.6392   -0.8406 C   0  0  0  0  0  0  0  0  0  0  0  0
    2.1996   -0.5461   -0.8004 O   0  0  0  0  0  0  0  0  0  0  0  0
    2.7843    0.4384   -1.5549 C   0  0  0  0  0  0  0  0  0  0  0  0
    2.1022    1.3542   -2.3536 C   0  0  0  0  0  0  0  0  0  0  0  0
    2.8129    2.2949   -3.1141 C   0  0  0  0  0  0  0  0  0  0  0  0
    4.2215    2.3372   -3.0796 C   0  0  0  0  0  0  0  0  0  0  0  0
    4.9459    3.2465   -3.8966 N   0  0  0  0  0  0  0  0  0  0  0  0
    5.8610    2.8386   -4.8693 C   0  0  0  0  0  0  0  0  0  0  0  0
    6.7850    3.5492   -5.2745 O   0  0  0  0  0  0  0  0  0  0  0  0
    5.5875    1.5682   -5.3800 O   0  0  0  0  0  0  0  0  0  0  0  0
    5.8994    1.1490   -6.7093 C   0  0  0  0  0  0  0  0  0  0  0  0
    5.6113    1.9147   -7.8572 C   0  0  0  0  0  0  0  0  0  0  0  0
    5.2466    3.3691   -7.9235 C   0  0  0  0  0  0  0  0  0  0  0  0
    5.6365    1.2643   -9.1072 C   0  0  0  0  0  0  0  0  0  0  0  0
    5.9758   -0.0786   -9.2278 C   0  0  0  0  0  0  0  0  0  0  0  0
    6.3290   -0.8049   -8.0988 C   0  0  0  0  0  0  0  0  0  0  0  0
    6.2909   -0.2078   -6.8276 C   0  0  0  0  0  0  0  0  0  0  0  0
    6.7056   -1.0170   -5.6326 C   0  0  0  0  0  0  0  0  0  0  0  0
    4.4496    4.5650   -3.9954 C   0  0  0  0  0  0  0  0  0  0  0  0
    4.5065    5.3794   -2.8818 C   0  0  0  0  0  0  0  0  0  0  0  0
    4.0469    6.6568   -3.0501 C   0  0  0  0  0  0  0  0  0  0  0  0
    3.5299    7.0865   -4.2016 N   0  0  0  0  0  0  0  0  0  0  0  0
    3.4825    6.2313   -5.2387 C   0  0  0  0  0  0  0  0  0  0  0  0
    2.9019    6.6174   -6.4440 N   0  0  0  0  0  0  0  0  0  0  0  0
    2.3111    7.8451   -6.7649 C   0  0  0  0  0  0  0  0  0  0  0  0
    2.7721    9.0460   -6.2234 C   0  0  0  0  0  0  0  0  0  0  0  0
    2.1051   10.2617   -6.4070 C   0  0  0  0  0  0  0  0  0  0  0  0
    2.5879   11.4227   -5.8591 O   0  0  0  0  0  0  0  0  0  0  0  0
    3.3254   11.3311   -4.6435 C   0  0  0  0  0  0  0  0  0  0  0  0
    0.9437   10.2959   -7.2064 C   0  0  0  0  0  0  0  0  0  0  0  0
    0.1645   11.4057   -7.4220 O   0  0  0  0  0  0  0  0  0  0  0  0
    0.7365   12.7023   -7.2287 C   0  0  0  0  0  0  0  0  0  0  0  0
   -0.1239   13.7256   -7.9878 C   0  0  0  0  0  0  0  0  0  0  0  0
    0.3874   15.1104   -7.9673 N   0  0  0  0  0  0  0  0  0  0  0  0
   -0.4583   15.9682   -8.8234 C   0  0  0  0  0  0  0  0  0  0  0  0
   -0.0791   17.4673   -8.7686 C   0  0  0  0  0  0  0  0  0  0  0  0
    0.0005   18.0418   -7.4120 N   0  0  0  0  0  0  0  0  0  0  0  0
   -1.3245   18.2349   -6.8276 C   0  0  0  0  0  0  0  0  0  0  0  0
    0.8435   17.1648   -6.5767 C   0  0  0  0  0  0  0  0  0  0  0  0
    0.4563   15.6650   -6.6016 C   0  0  0  0  0  0  0  0  0  0  0  0
    0.4805    9.0902   -7.7804 C   0  0  0  0  0  0  0  0  0  0  0  0
   -0.6436    8.8941   -8.5427 O   0  0  0  0  0  0  0  0  0  0  0  0
   -1.1039    9.9880   -9.3214 C   0  0  0  0  0  0  0  0  0  0  0  0
    1.1631    7.8824   -7.5488 C   0  0  0  0  0  0  0  0  0  0  0  0
    3.9243    4.9703   -5.1675 N   0  0  0  0  0  0  0  0  0  0  0  0
    4.8985    1.4607   -2.2112 C   0  0  0  0  0  0  0  0  0  0  0  0
    6.2469    1.5051   -1.9573 O   0  0  0  0  0  0  0  0  0  0  0  0
    6.7344    2.8089   -1.6285 C   0  0  0  0  0  0  0  0  0  0  0  0
    4.1763    0.4999   -1.4836 C   0  0  0  0  0  0  0  0  0  0  0  0
    0.4755   -1.4861   -0.2149 H   0  0  0  0  0  0  0  0  0  0  0  0
    0.4193   -0.8353   -1.8556 H   0  0  0  0  0  0  0  0  0  0  0  0
    0.3166    0.2617   -0.4254 H   0  0  0  0  0  0  0  0  0  0  0  0
    1.0193    1.3546   -2.4316 H   0  0  0  0  0  0  0  0  0  0  0  0
    2.2528    2.9610   -3.7627 H   0  0  0  0  0  0  0  0  0  0  0  0
    5.3940    3.9273   -7.0092 H   0  0  0  0  0  0  0  0  0  0  0  0
    4.2022    3.4901   -8.2223 H   0  0  0  0  0  0  0  0  0  0  0  0
    5.8847    3.8627   -8.6691 H   0  0  0  0  0  0  0  0  0  0  0  0
    5.3738    1.8182  -10.0075 H   0  0  0  0  0  0  0  0  0  0  0  0
    5.9753   -0.5520  -10.2056 H   0  0  0  0  0  0  0  0  0  0  0  0
    6.6132   -1.8467   -8.2087 H   0  0  0  0  0  0  0  0  0  0  0  0
    6.8664   -2.0673   -5.9015 H   0  0  0  0  0  0  0  0  0  0  0  0
    5.9409   -0.9938   -4.8510 H   0  0  0  0  0  0  0  0  0  0  0  0
    7.6508   -0.6316   -5.2353 H   0  0  0  0  0  0  0  0  0  0  0  0
    4.9413    5.0797   -1.9445 H   0  0  0  0  0  0  0  0  0  0  0  0
    4.0948    7.3905   -2.2515 H   0  0  0  0  0  0  0  0  0  0  0  0
    2.7262    5.8267   -7.0391 H   0  0  0  0  0  0  0  0  0  0  0  0
    3.6931    9.0116   -5.6546 H   0  0  0  0  0  0  0  0  0  0  0  0
    3.6429   12.3443   -4.3774 H   0  0  0  0  0  0  0  0  0  0  0  0
    4.2397   10.7397   -4.7428 H   0  0  0  0  0  0  0  0  0  0  0  0
    2.6926   10.9505   -3.8356 H   0  0  0  0  0  0  0  0  0  0  0  0
    1.7539   12.7472   -7.6339 H   0  0  0  0  0  0  0  0  0  0  0  0
    0.7226   12.9315   -6.1583 H   0  0  0  0  0  0  0  0  0  0  0  0
   -1.1530   13.6807   -7.6070 H   0  0  0  0  0  0  0  0  0  0  0  0
   -0.1791   13.3845   -9.0304 H   0  0  0  0  0  0  0  0  0  0  0  0
   -1.5137   15.8592   -8.5436 H   0  0  0  0  0  0  0  0  0  0  0  0
   -0.3647   15.6360   -9.8647 H   0  0  0  0  0  0  0  0  0  0  0  0
   -0.7859   18.0434   -9.3789 H   0  0  0  0  0  0  0  0  0  0  0  0
    0.8991   17.6005   -9.2494 H   0  0  0  0  0  0  0  0  0  0  0  0
   -1.9283   18.8947   -7.4607 H   0  0  0  0  0  0  0  0  0  0  0  0
   -1.2406   18.7314   -5.8544 H   0  0  0  0  0  0  0  0  0  0  0  0
   -1.8800   17.3024   -6.6862 H   0  0  0  0  0  0  0  0  0  0  0  0
    0.8499   17.5244   -5.5401 H   0  0  0  0  0  0  0  0  0  0  0  0
    1.8804   17.2617   -6.9263 H   0  0  0  0  0  0  0  0  0  0  0  0
   -0.5017   15.5280   -6.0847 H   0  0  0  0  0  0  0  0  0  0  0  0
    1.2166   15.1275   -6.0234 H   0  0  0  0  0  0  0  0  0  0  0  0
   -1.7199    9.5794  -10.1289 H   0  0  0  0  0  0  0  0  0  0  0  0
   -0.2821   10.5417   -9.7867 H   0  0  0  0  0  0  0  0  0  0  0  0
   -1.7466   10.6384   -8.7214 H   0  0  0  0  0  0  0  0  0  0  0  0
    0.7629    6.9667   -7.9741 H   0  0  0  0  0  0  0  0  0  0  0  0
    7.5758    2.7166   -0.9399 H   0  0  0  0  0  0  0  0  0  0  0  0
    5.9783    3.4251   -1.1290 H   0  0  0  0  0  0  0  0  0  0  0  0
    7.1107    3.3100   -2.5257 H   0  0  0  0  0  0  0  0  0  0  0  0
    4.7095   -0.1911   -0.8357 H   0  0  0  0  0  0  0  0  0  0  0  0
  1  2  1  0  0  0  0
  1 50  1  0  0  0  0
  1 51  1  0  0  0  0
  1 52  1  0  0  0  0
  2  3  1  0  0  0  0
  3  4  1  0  0  0  0
  3 49  2  0  0  0  0
  4  5  2  0  0  0  0
  4 53  1  0  0  0  0
  5  6  1  0  0  0  0
  5 54  1  0  0  0  0
  6  7  1  0  0  0  0
  6 46  2  0  0  0  0
  7  8  1  0  0  0  0
  7 19  1  0  0  0  0
  8  9  2  0  0  0  0
  8 10  1  0  0  0  0
 10 11  1  0  0  0  0
 11 12  1  0  0  0  0
 11 17  2  0  0  0  0
 12 13  1  0  0  0  0
 12 14  2  0  0  0  0
 13 55  1  0  0  0  0
 13 56  1  0  0  0  0
 13 57  1  0  0  0  0
 14 15  1  0  0  0  0
 14 58  1  0  0  0  0
 15 16  2  0  0  0  0
 15 59  1  0  0  0  0
 16 17  1  0  0  0  0
 16 60  1  0  0  0  0
 17 18  1  0  0  0  0
 18 61  1  0  0  0  0
 18 62  1  0  0  0  0
 18 63  1  0  0  0  0
 19 20  1  0  0  0  0
 19 45  2  0  0  0  0
 20 21  2  0  0  0  0
 20 64  1  0  0  0  0
 21 22  1  0  0  0  0
 21 65  1  0  0  0  0
 22 23  2  0  0  0  0
 23 24  1  0  0  0  0
 23 45  1  0  0  0  0
 24 25  1  0  0  0  0
 24 66  1  0  0  0  0
 25 26  1  0  0  0  0
 25 44  2  0  0  0  0
 26 27  2  0  0  0  0
 26 67  1  0  0  0  0
 27 28  1  0  0  0  0
 27 30  1  0  0  0  0
 28 29  1  0  0  0  0
 29 68  1  0  0  0  0
 29 69  1  0  0  0  0
 29 70  1  0  0  0  0
 30 31  1  0  0  0  0
 30 41  2  0  0  0  0
 31 32  1  0  0  0  0
 32 33  1  0  0  0  0
 32 71  1  0  0  0  0
 32 72  1  0  0  0  0
 33 34  1  0  0  0  0
 33 73  1  0  0  0  0
 33 74  1  0  0  0  0
 34 35  1  0  0  0  0
 34 40  1  0  0  0  0
 35 36  1  0  0  0  0
 35 75  1  0  0  0  0
 35 76  1  0  0  0  0
 36 37  1  0  0  0  0
 36 77  1  0  0  0  0
 36 78  1  0  0  0  0
 37 38  1  0  0  0  0
 37 39  1  0  0  0  0
 38 79  1  0  0  0  0
 38 80  1  0  0  0  0
 38 81  1  0  0  0  0
 39 40  1  0  0  0  0
 39 82  1  0  0  0  0
 39 83  1  0  0  0  0
 40 84  1  0  0  0  0
 40 85  1  0  0  0  0
 41 42  1  0  0  0  0
 41 44  1  0  0  0  0
 42 43  1  0  0  0  0
 43 86  1  0  0  0  0
 43 87  1  0  0  0  0
 43 88  1  0  0  0  0
 44 89  1  0  0  0  0
 46 47  1  0  0  0  0
 46 49  1  0  0  0  0
 47 48  1  0  0  0  0
 48 90  1  0  0  0  0
 48 91  1  0  0  0  0
 48 92  1  0  0  0  0
 49 93  1  0  0  0  0
M  END
$$$$
