CHEMBL4242522
 OpenBabel04072215383D

 37 39  0  0  0  0  0  0  0  0999 V2000
    1.2182   -0.1046    1.4020 C   0  0  0  0  0  0  0  0  0  0  0  0
    2.4159   -0.0981    0.4610 C   0  0  0  0  0  0  0  0  0  0  0  0
    2.9889    1.2793    0.2433 C   0  0  0  0  0  0  0  0  0  0  0  0
    3.9918    1.7731    1.0830 C   0  0  0  0  0  0  0  0  0  0  0  0
    4.4963    3.0686    0.9119 C   0  0  0  0  0  0  0  0  0  0  0  0
    3.9881    3.9268   -0.0741 C   0  0  0  0  0  0  0  0  0  0  0  0
    4.3765    5.2715   -0.1817 N   0  0  0  0  0  0  0  0  0  0  0  0
    5.7323    5.6531    0.2166 C   0  0  0  0  0  0  0  0  0  0  0  0
    3.5271    6.4007   -0.2948 C   0  0  0  0  0  0  0  0  0  0  0  0
    4.0206    7.4902   -0.9601 N   0  0  0  0  0  0  0  0  0  0  0  0
    3.2624    8.5849   -1.1274 C   0  0  0  0  0  0  0  0  0  0  0  0
    2.0205    8.7814   -0.6989 N   0  0  0  0  0  0  0  0  0  0  0  0
    1.5684    7.7286   -0.0094 C   0  0  0  0  0  0  0  0  0  0  0  0
    0.3338    7.7328    0.5543 O   0  0  0  0  0  0  0  0  0  0  0  0
    0.1922    6.5743    1.2243 C   0  0  0  0  0  0  0  0  0  0  0  0
    1.3265    5.7912    1.1182 C   0  0  0  0  0  0  0  0  0  0  0  0
    1.4958    4.4986    1.8128 C   0  0  0  0  0  0  0  0  0  0  0  0
    2.2264    6.5284    0.2594 C   0  0  0  0  0  0  0  0  0  0  0  0
    3.0117    3.4027   -0.9412 C   0  0  0  0  0  0  0  0  0  0  0  0
    2.5160    2.1005   -0.7862 C   0  0  0  0  0  0  0  0  0  0  0  0
    0.8604   -1.1304    1.5450 H   0  0  0  0  0  0  0  0  0  0  0  0
    0.3882    0.4867    1.0000 H   0  0  0  0  0  0  0  0  0  0  0  0
    1.4752    0.3012    2.3861 H   0  0  0  0  0  0  0  0  0  0  0  0
    2.1246   -0.5295   -0.5039 H   0  0  0  0  0  0  0  0  0  0  0  0
    3.1960   -0.7550    0.8633 H   0  0  0  0  0  0  0  0  0  0  0  0
    4.3739    1.1637    1.8981 H   0  0  0  0  0  0  0  0  0  0  0  0
    5.2426    3.4201    1.6184 H   0  0  0  0  0  0  0  0  0  0  0  0
    6.4247    4.8035    0.2299 H   0  0  0  0  0  0  0  0  0  0  0  0
    5.7255    6.1008    1.2181 H   0  0  0  0  0  0  0  0  0  0  0  0
    6.1751    6.3734   -0.4822 H   0  0  0  0  0  0  0  0  0  0  0  0
    3.7182    9.4060   -1.6730 H   0  0  0  0  0  0  0  0  0  0  0  0
   -0.7445    6.4462    1.7510 H   0  0  0  0  0  0  0  0  0  0  0  0
    0.8036    4.4104    2.6571 H   0  0  0  0  0  0  0  0  0  0  0  0
    2.5014    4.3962    2.2242 H   0  0  0  0  0  0  0  0  0  0  0  0
    1.2666    3.6677    1.1428 H   0  0  0  0  0  0  0  0  0  0  0  0
    2.6100    4.0235   -1.7393 H   0  0  0  0  0  0  0  0  0  0  0  0
    1.7363    1.7489   -1.4574 H   0  0  0  0  0  0  0  0  0  0  0  0
  1  2  1  0  0  0  0
  1 21  1  0  0  0  0
  1 22  1  0  0  0  0
  1 23  1  0  0  0  0
  2  3  1  0  0  0  0
  2 24  1  0  0  0  0
  2 25  1  0  0  0  0
  3  4  1  0  0  0  0
  3 20  2  0  0  0  0
  4  5  2  0  0  0  0
  4 26  1  0  0  0  0
  5  6  1  0  0  0  0
  5 27  1  0  0  0  0
  6  7  1  0  0  0  0
  6 19  2  0  0  0  0
  7  8  1  0  0  0  0
  7  9  1  0  0  0  0
  8 28  1  0  0  0  0
  8 29  1  0  0  0  0
  8 30  1  0  0  0  0
  9 10  1  0  0  0  0
  9 18  2  0  0  0  0
 10 11  2  0  0  0  0
 11 12  1  0  0  0  0
 11 31  1  0  0  0  0
 12 13  2  0  0  0  0
 13 14  1  0  0  0  0
 13 18  1  0  0  0  0
 14 15  1  0  0  0  0
 15 16  2  0  0  0  0
 15 32  1  0  0  0  0
 16 17  1  0  0  0  0
 16 18  1  0  0  0  0
 17 33  1  0  0  0  0
 17 34  1  0  0  0  0
 17 35  1  0  0  0  0
 19 20  1  0  0  0  0
 19 36  1  0  0  0  0
 20 37  1  0  0  0  0
M  END
$$$$
