CHEMBL2031899
 OpenBabel04072215363D

 64 68  0  0  0  0  0  0  0  0999 V2000
    2.7968   -0.6349    1.0331 C   0  0  0  0  0  0  0  0  0  0  0  0
    4.1295   -0.1851    0.7958 O   0  0  0  0  0  0  0  0  0  0  0  0
    4.2210    1.0208    0.1556 C   0  0  0  0  0  0  0  0  0  0  0  0
    3.2352    1.9924    0.1755 C   0  0  0  0  0  0  0  0  0  0  0  0
    3.4242    3.1771   -0.5251 C   0  0  0  0  0  0  0  0  0  0  0  0
    4.6467    3.4822   -1.1642 C   0  0  0  0  0  0  0  0  0  0  0  0
    4.9767    4.7317   -1.7523 C   0  0  0  0  0  0  0  0  0  0  0  0
    4.2239    5.8972   -1.7388 O   0  0  0  0  0  0  0  0  0  0  0  0
    3.4124    6.2307   -0.6781 C   0  0  0  0  0  0  0  0  0  0  0  0
    3.6847    5.9632    0.6576 C   0  0  0  0  0  0  0  0  0  0  0  0
    2.6755    6.1327    1.6238 C   0  0  0  0  0  0  0  0  0  0  0  0
    1.4065    6.6451    1.2970 C   0  0  0  0  0  0  0  0  0  0  0  0
    0.3320    6.6591    2.2369 N   0  0  0  0  0  0  0  0  0  0  0  0
    0.3128    6.1513    3.5251 C   0  0  0  0  0  0  0  0  0  0  0  0
    1.2346    5.5347    4.0503 O   0  0  0  0  0  0  0  0  0  0  0  0
   -0.9341    6.4226    4.2990 C   0  0  0  0  0  0  0  0  0  0  0  0
   -1.2491    6.0569    5.5627 C   0  0  0  0  0  0  0  0  0  0  0  0
   -0.4975    5.1253    6.4633 C   0  0  0  0  0  0  0  0  0  0  0  0
   -2.4345    6.6554    6.0117 N   0  0  0  0  0  0  0  0  0  0  0  0
   -3.3226    6.0993    7.0333 C   0  0  0  0  0  0  0  0  0  0  0  0
   -3.0305    7.2317    4.8841 N   0  0  0  0  0  0  0  0  0  0  0  0
   -4.1365    8.1017    4.9543 C   0  0  0  0  0  0  0  0  0  0  0  0
   -5.1510    8.0083    3.9932 C   0  0  0  0  0  0  0  0  0  0  0  0
   -6.2909    8.8137    4.0875 C   0  0  0  0  0  0  0  0  0  0  0  0
   -6.4010    9.7486    5.1147 C   0  0  0  0  0  0  0  0  0  0  0  0
   -5.3826    9.8688    6.0584 C   0  0  0  0  0  0  0  0  0  0  0  0
   -4.2619    9.0372    5.9879 C   0  0  0  0  0  0  0  0  0  0  0  0
   -2.1217    7.1777    3.8255 C   0  0  0  0  0  0  0  0  0  0  0  0
   -2.2245    7.6645    2.7033 O   0  0  0  0  0  0  0  0  0  0  0  0
    1.2182    7.0971   -0.0267 C   0  0  0  0  0  0  0  0  0  0  0  0
    0.0864    7.6497   -0.5678 O   0  0  0  0  0  0  0  0  0  0  0  0
   -0.6072    8.6401    0.1794 C   0  0  0  0  0  0  0  0  0  0  0  0
    2.2109    6.8621   -0.9995 C   0  0  0  0  0  0  0  0  0  0  0  0
    6.1543    4.8480   -2.4910 C   0  0  0  0  0  0  0  0  0  0  0  0
    7.0033    3.7625   -2.5504 C   0  0  0  0  0  0  0  0  0  0  0  0
    6.7750    2.5999   -1.9082 N   0  0  0  0  0  0  0  0  0  0  0  0
    5.6259    2.4631   -1.2241 C   0  0  0  0  0  0  0  0  0  0  0  0
    5.3986    1.2635   -0.5545 C   0  0  0  0  0  0  0  0  0  0  0  0
    2.8455   -1.6521    1.4299 H   0  0  0  0  0  0  0  0  0  0  0  0
    2.2246   -0.6630    0.0985 H   0  0  0  0  0  0  0  0  0  0  0  0
    2.2912   -0.0160    1.7822 H   0  0  0  0  0  0  0  0  0  0  0  0
    2.3135    1.8778    0.7345 H   0  0  0  0  0  0  0  0  0  0  0  0
    2.5924    3.8729   -0.5389 H   0  0  0  0  0  0  0  0  0  0  0  0
    4.6315    5.5202    0.9569 H   0  0  0  0  0  0  0  0  0  0  0  0
    2.9129    5.7983    2.6291 H   0  0  0  0  0  0  0  0  0  0  0  0
   -0.5459    7.0443    1.9033 H   0  0  0  0  0  0  0  0  0  0  0  0
    0.4842    4.8370    6.0898 H   0  0  0  0  0  0  0  0  0  0  0  0
   -1.0700    4.1975    6.5855 H   0  0  0  0  0  0  0  0  0  0  0  0
   -0.3524    5.5725    7.4510 H   0  0  0  0  0  0  0  0  0  0  0  0
   -2.8298    5.3365    7.6436 H   0  0  0  0  0  0  0  0  0  0  0  0
   -4.2157    5.6463    6.5904 H   0  0  0  0  0  0  0  0  0  0  0  0
   -3.6367    6.8901    7.7234 H   0  0  0  0  0  0  0  0  0  0  0  0
   -5.0867    7.2718    3.1978 H   0  0  0  0  0  0  0  0  0  0  0  0
   -7.0936    8.7046    3.3629 H   0  0  0  0  0  0  0  0  0  0  0  0
   -7.2790   10.3867    5.1779 H   0  0  0  0  0  0  0  0  0  0  0  0
   -5.4575   10.6159    6.8442 H   0  0  0  0  0  0  0  0  0  0  0  0
   -3.4675    9.1537    6.7217 H   0  0  0  0  0  0  0  0  0  0  0  0
   -0.8480    9.4770   -0.4828 H   0  0  0  0  0  0  0  0  0  0  0  0
   -0.0480    9.0357    1.0334 H   0  0  0  0  0  0  0  0  0  0  0  0
   -1.5592    8.2088    0.4930 H   0  0  0  0  0  0  0  0  0  0  0  0
    2.0174    7.1382   -2.0343 H   0  0  0  0  0  0  0  0  0  0  0  0
    6.4030    5.7656   -3.0123 H   0  0  0  0  0  0  0  0  0  0  0  0
    7.9251    3.7990   -3.1250 H   0  0  0  0  0  0  0  0  0  0  0  0
    6.1647    0.4915   -0.5904 H   0  0  0  0  0  0  0  0  0  0  0  0
  1  2  1  0  0  0  0
  1 39  1  0  0  0  0
  1 40  1  0  0  0  0
  1 41  1  0  0  0  0
  2  3  1  0  0  0  0
  3  4  1  0  0  0  0
  3 38  2  0  0  0  0
  4  5  2  0  0  0  0
  4 42  1  0  0  0  0
  5  6  1  0  0  0  0
  5 43  1  0  0  0  0
  6  7  1  0  0  0  0
  6 37  2  0  0  0  0
  7  8  1  0  0  0  0
  7 34  2  0  0  0  0
  8  9  1  0  0  0  0
  9 10  1  0  0  0  0
  9 33  2  0  0  0  0
 10 11  2  0  0  0  0
 10 44  1  0  0  0  0
 11 12  1  0  0  0  0
 11 45  1  0  0  0  0
 12 13  1  0  0  0  0
 12 30  2  0  0  0  0
 13 14  1  0  0  0  0
 13 46  1  0  0  0  0
 14 15  2  0  0  0  0
 14 16  1  0  0  0  0
 16 17  2  0  0  0  0
 16 28  1  0  0  0  0
 17 18  1  0  0  0  0
 17 19  1  0  0  0  0
 18 47  1  0  0  0  0
 18 48  1  0  0  0  0
 18 49  1  0  0  0  0
 19 20  1  0  0  0  0
 19 21  1  0  0  0  0
 20 50  1  0  0  0  0
 20 51  1  0  0  0  0
 20 52  1  0  0  0  0
 21 22  1  0  0  0  0
 21 28  1  0  0  0  0
 22 23  1  0  0  0  0
 22 27  2  0  0  0  0
 23 24  2  0  0  0  0
 23 53  1  0  0  0  0
 24 25  1  0  0  0  0
 24 54  1  0  0  0  0
 25 26  2  0  0  0  0
 25 55  1  0  0  0  0
 26 27  1  0  0  0  0
 26 56  1  0  0  0  0
 27 57  1  0  0  0  0
 28 29  2  0  0  0  0
 30 31  1  0  0  0  0
 30 33  1  0  0  0  0
 31 32  1  0  0  0  0
 32 58  1  0  0  0  0
 32 59  1  0  0  0  0
 32 60  1  0  0  0  0
 33 61  1  0  0  0  0
 34 35  1  0  0  0  0
 34 62  1  0  0  0  0
 35 36  2  0  0  0  0
 35 63  1  0  0  0  0
 36 37  1  0  0  0  0
 37 38  1  0  0  0  0
 38 64  1  0  0  0  0
M  END
$$$$
