CHEMBL1987009
 OpenBabel04072215363D

 43 46  0  0  0  0  0  0  0  0999 V2000
    1.0579    1.6908    2.0634 C   0  0  0  0  0  0  0  0  0  0  0  0
    2.0683    2.3399    1.2993 O   0  0  0  0  0  0  0  0  0  0  0  0
    3.3324    1.8189    1.3752 C   0  0  0  0  0  0  0  0  0  0  0  0
    3.7257    0.7525    2.1836 C   0  0  0  0  0  0  0  0  0  0  0  0
    5.0526    0.3164    2.1678 C   0  0  0  0  0  0  0  0  0  0  0  0
    5.9859    0.9274    1.3294 C   0  0  0  0  0  0  0  0  0  0  0  0
    5.6016    1.9742    0.4817 C   0  0  0  0  0  0  0  0  0  0  0  0
    6.5930    2.5690   -0.4875 C   0  0  0  0  0  0  0  0  0  0  0  0
    7.3059    3.6831    0.0856 N   0  0  0  0  0  0  0  0  0  0  0  0
    8.5636    4.0601   -0.3410 C   0  0  0  0  0  0  0  0  0  0  0  0
    9.1823    3.4194   -1.1840 O   0  0  0  0  0  0  0  0  0  0  0  0
    9.0956    5.2746    0.2793 C   0  0  0  0  0  0  0  0  0  0  0  0
   10.3293    5.9014    0.0329 C   0  0  0  0  0  0  0  0  0  0  0  0
   10.4500    7.0294    0.8459 C   0  0  0  0  0  0  0  0  0  0  0  0
   11.3713    8.0603    1.0961 C   0  0  0  0  0  0  0  0  0  0  0  0
   12.6560    8.4014    0.4827 C   0  0  0  0  0  0  0  0  0  0  0  0
   12.9380    8.1049   -0.8554 C   0  0  0  0  0  0  0  0  0  0  0  0
   14.1364    8.5302   -1.4392 C   0  0  0  0  0  0  0  0  0  0  0  0
   15.0666    9.2536   -0.6935 C   0  0  0  0  0  0  0  0  0  0  0  0
   14.8064    9.5450    0.6417 C   0  0  0  0  0  0  0  0  0  0  0  0
   13.6101    9.1213    1.2246 C   0  0  0  0  0  0  0  0  0  0  0  0
   10.8679    8.8460    2.0863 N   0  0  0  0  0  0  0  0  0  0  0  0
    9.6620    8.3141    2.3892 N   0  0  0  0  0  0  0  0  0  0  0  0
    9.4012    7.2203    1.6492 C   0  0  0  0  0  0  0  0  0  0  0  0
    8.1741    6.1288    1.5030 S   0  0  0  0  0  0  0  0  0  0  0  0
    4.2751    2.4325    0.5398 C   0  0  0  0  0  0  0  0  0  0  0  0
    0.1033    2.1778    1.8413 H   0  0  0  0  0  0  0  0  0  0  0  0
    1.2468    1.8006    3.1365 H   0  0  0  0  0  0  0  0  0  0  0  0
    0.9615    0.6355    1.7855 H   0  0  0  0  0  0  0  0  0  0  0  0
    3.0276    0.2372    2.8345 H   0  0  0  0  0  0  0  0  0  0  0  0
    5.3553   -0.5142    2.8013 H   0  0  0  0  0  0  0  0  0  0  0  0
    7.0126    0.5662    1.3239 H   0  0  0  0  0  0  0  0  0  0  0  0
    6.0736    2.9314   -1.3823 H   0  0  0  0  0  0  0  0  0  0  0  0
    7.2999    1.8019   -0.8220 H   0  0  0  0  0  0  0  0  0  0  0  0
    6.7942    4.3257    0.6751 H   0  0  0  0  0  0  0  0  0  0  0  0
   11.0529    5.5244   -0.6791 H   0  0  0  0  0  0  0  0  0  0  0  0
   12.2177    7.5777   -1.4748 H   0  0  0  0  0  0  0  0  0  0  0  0
   14.3365    8.3138   -2.4862 H   0  0  0  0  0  0  0  0  0  0  0  0
   15.9880    9.5994   -1.1549 H   0  0  0  0  0  0  0  0  0  0  0  0
   15.5215   10.1166    1.2282 H   0  0  0  0  0  0  0  0  0  0  0  0
   13.4121    9.3770    2.2643 H   0  0  0  0  0  0  0  0  0  0  0  0
    9.0935    8.7560    3.1056 H   0  0  0  0  0  0  0  0  0  0  0  0
    3.9549    3.2590   -0.0915 H   0  0  0  0  0  0  0  0  0  0  0  0
  1  2  1  0  0  0  0
  1 27  1  0  0  0  0
  1 28  1  0  0  0  0
  1 29  1  0  0  0  0
  2  3  1  0  0  0  0
  3  4  1  0  0  0  0
  3 26  2  0  0  0  0
  4  5  2  0  0  0  0
  4 30  1  0  0  0  0
  5  6  1  0  0  0  0
  5 31  1  0  0  0  0
  6  7  2  0  0  0  0
  6 32  1  0  0  0  0
  7  8  1  0  0  0  0
  7 26  1  0  0  0  0
  8  9  1  0  0  0  0
  8 33  1  0  0  0  0
  8 34  1  0  0  0  0
  9 10  1  0  0  0  0
  9 35  1  0  0  0  0
 10 11  2  0  0  0  0
 10 12  1  0  0  0  0
 12 13  2  0  0  0  0
 12 25  1  0  0  0  0
 13 14  1  0  0  0  0
 13 36  1  0  0  0  0
 14 15  1  0  0  0  0
 14 24  2  0  0  0  0
 15 16  1  0  0  0  0
 15 22  2  0  0  0  0
 16 17  1  0  0  0  0
 16 21  2  0  0  0  0
 17 18  2  0  0  0  0
 17 37  1  0  0  0  0
 18 19  1  0  0  0  0
 18 38  1  0  0  0  0
 19 20  2  0  0  0  0
 19 39  1  0  0  0  0
 20 21  1  0  0  0  0
 20 40  1  0  0  0  0
 21 41  1  0  0  0  0
 22 23  1  0  0  0  0
 23 24  1  0  0  0  0
 23 42  1  0  0  0  0
 24 25  1  0  0  0  0
 26 43  1  0  0  0  0
M  END
$$$$
