CHEMBL425749
 OpenBabel04072215383D

 44 47  0  0  0  0  0  0  0  0999 V2000
    2.8639   -5.9961   -0.9163 C   0  0  0  0  0  0  0  0  0  0  0  0
    1.4063   -6.3261   -1.0148 C   0  0  0  0  0  0  0  0  0  0  0  0
    1.0022   -7.5934   -1.4506 C   0  0  0  0  0  0  0  0  0  0  0  0
   -0.3468   -7.9018   -1.5514 C   0  0  0  0  0  0  0  0  0  0  0  0
   -1.3087   -6.9486   -1.2169 C   0  0  0  0  0  0  0  0  0  0  0  0
   -0.9405   -5.6786   -0.7640 C   0  0  0  0  0  0  0  0  0  0  0  0
   -1.8863   -4.6775   -0.4239 N   0  0  0  0  0  0  0  0  0  0  0  0
   -3.2499   -4.8779   -0.3116 C   0  0  0  0  0  0  0  0  0  0  0  0
   -3.8057   -5.9688   -0.3620 O   0  0  0  0  0  0  0  0  0  0  0  0
   -3.9482   -3.6842   -0.1733 N   0  0  0  0  0  0  0  0  0  0  0  0
   -5.3593   -3.6859   -0.0473 C   0  0  0  0  0  0  0  0  0  0  0  0
   -6.1106   -2.7131   -0.7049 C   0  0  0  0  0  0  0  0  0  0  0  0
   -7.5139   -2.7499   -0.6482 C   0  0  0  0  0  0  0  0  0  0  0  0
   -8.1898   -3.7440    0.0839 C   0  0  0  0  0  0  0  0  0  0  0  0
   -9.6584   -3.7847    0.1411 C   0  0  0  0  0  0  0  0  0  0  0  0
  -10.3845   -3.5382   -1.0149 C   0  0  0  0  0  0  0  0  0  0  0  0
  -12.0670   -3.6767   -0.7966 S   0  0  0  0  0  0  0  0  0  0  0  0
  -11.8726   -4.0953    0.8389 C   0  0  0  0  0  0  0  0  0  0  0  0
  -12.9631   -4.3795    1.5701 N   0  0  0  0  0  0  0  0  0  0  0  0
  -12.6654   -4.6749    2.8320 C   0  0  0  0  0  0  0  0  0  0  0  0
  -11.4548   -4.6705    3.3987 N   0  0  0  0  0  0  0  0  0  0  0  0
  -10.3829   -4.3535    2.6459 C   0  0  0  0  0  0  0  0  0  0  0  0
   -9.1859   -4.3174    3.3528 N   0  0  0  0  0  0  0  0  0  0  0  0
  -10.5475   -4.0864    1.2654 C   0  0  0  0  0  0  0  0  0  0  0  0
   -7.4099   -4.7131    0.7170 C   0  0  0  0  0  0  0  0  0  0  0  0
   -7.9841   -5.7283    1.3824 F   0  0  0  0  0  0  0  0  0  0  0  0
   -6.0213   -4.6700    0.6880 C   0  0  0  0  0  0  0  0  0  0  0  0
    0.4228   -5.3742   -0.6704 C   0  0  0  0  0  0  0  0  0  0  0  0
    3.4838   -6.8401   -1.2392 H   0  0  0  0  0  0  0  0  0  0  0  0
    3.1305   -5.7640    0.1200 H   0  0  0  0  0  0  0  0  0  0  0  0
    3.1029   -5.1393   -1.5556 H   0  0  0  0  0  0  0  0  0  0  0  0
    1.7388   -8.3499   -1.7145 H   0  0  0  0  0  0  0  0  0  0  0  0
   -0.6621   -8.8862   -1.8851 H   0  0  0  0  0  0  0  0  0  0  0  0
   -2.3451   -7.2465   -1.3295 H   0  0  0  0  0  0  0  0  0  0  0  0
   -1.5256   -3.8018   -0.0798 H   0  0  0  0  0  0  0  0  0  0  0  0
   -3.5257   -2.8827   -0.6209 H   0  0  0  0  0  0  0  0  0  0  0  0
   -5.6275   -1.9529   -1.3144 H   0  0  0  0  0  0  0  0  0  0  0  0
   -8.0697   -1.9961   -1.2040 H   0  0  0  0  0  0  0  0  0  0  0  0
  -10.0153   -3.2921   -2.0015 H   0  0  0  0  0  0  0  0  0  0  0  0
  -13.4959   -4.9443    3.4765 H   0  0  0  0  0  0  0  0  0  0  0  0
   -9.3023   -4.8401    4.2153 H   0  0  0  0  0  0  0  0  0  0  0  0
   -8.3827   -4.6078    2.8164 H   0  0  0  0  0  0  0  0  0  0  0  0
   -5.4762   -5.4314    1.2385 H   0  0  0  0  0  0  0  0  0  0  0  0
    0.7443   -4.3949   -0.3223 H   0  0  0  0  0  0  0  0  0  0  0  0
  1  2  1  0  0  0  0
  1 29  1  0  0  0  0
  1 30  1  0  0  0  0
  1 31  1  0  0  0  0
  2  3  1  0  0  0  0
  2 28  2  0  0  0  0
  3  4  2  0  0  0  0
  3 32  1  0  0  0  0
  4  5  1  0  0  0  0
  4 33  1  0  0  0  0
  5  6  2  0  0  0  0
  5 34  1  0  0  0  0
  6  7  1  0  0  0  0
  6 28  1  0  0  0  0
  7  8  1  0  0  0  0
  7 35  1  0  0  0  0
  8  9  2  0  0  0  0
  8 10  1  0  0  0  0
 10 11  1  0  0  0  0
 10 36  1  0  0  0  0
 11 12  1  0  0  0  0
 11 27  2  0  0  0  0
 12 13  2  0  0  0  0
 12 37  1  0  0  0  0
 13 14  1  0  0  0  0
 13 38  1  0  0  0  0
 14 15  1  0  0  0  0
 14 25  2  0  0  0  0
 15 16  2  0  0  0  0
 15 24  1  0  0  0  0
 16 17  1  0  0  0  0
 16 39  1  0  0  0  0
 17 18  1  0  0  0  0
 18 19  1  0  0  0  0
 18 24  2  0  0  0  0
 19 20  2  0  0  0  0
 20 21  1  0  0  0  0
 20 40  1  0  0  0  0
 21 22  2  0  0  0  0
 22 23  1  0  0  0  0
 22 24  1  0  0  0  0
 23 41  1  0  0  0  0
 23 42  1  0  0  0  0
 25 26  1  0  0  0  0
 25 27  1  0  0  0  0
 27 43  1  0  0  0  0
 28 44  1  0  0  0  0
M  END
$$$$
