CHEMBL3968843
 OpenBabel04072215373D

 52 55  0  0  0  0  0  0  0  0999 V2000
    2.9808   -1.1189   -0.5142 C   0  0  0  0  0  0  0  0  0  0  0  0
    2.7263   -0.0105    0.3530 O   0  0  0  0  0  0  0  0  0  0  0  0
    3.4042    1.1504    0.0788 C   0  0  0  0  0  0  0  0  0  0  0  0
    4.5209    1.1886   -0.7616 C   0  0  0  0  0  0  0  0  0  0  0  0
    5.1165    2.4110   -1.1259 C   0  0  0  0  0  0  0  0  0  0  0  0
    6.1441    2.5447   -2.0694 C   0  0  0  0  0  0  0  0  0  0  0  0
    6.5607    1.3981   -2.8015 N   0  0  0  0  0  0  0  0  0  0  0  0
    7.7723    1.3192   -3.5159 C   0  0  0  0  0  0  0  0  0  0  0  0
    8.9684    1.7270   -2.9131 C   0  0  0  0  0  0  0  0  0  0  0  0
   10.1699    1.7102   -3.6194 C   0  0  0  0  0  0  0  0  0  0  0  0
   10.1918    1.2670   -4.9411 C   0  0  0  0  0  0  0  0  0  0  0  0
   11.7029    1.3079   -5.7726 Cl  0  0  0  0  0  0  0  0  0  0  0  0
    9.0090    0.8216   -5.5432 C   0  0  0  0  0  0  0  0  0  0  0  0
    8.9629    0.2565   -7.1762 Cl  0  0  0  0  0  0  0  0  0  0  0  0
    7.8018    0.8424   -4.8247 C   0  0  0  0  0  0  0  0  0  0  0  0
    6.7130    3.7331   -2.3442 N   0  0  0  0  0  0  0  0  0  0  0  0
    6.2320    4.7939   -1.6931 C   0  0  0  0  0  0  0  0  0  0  0  0
    5.2368    4.7845   -0.8020 N   0  0  0  0  0  0  0  0  0  0  0  0
    4.6835    3.5977   -0.5347 C   0  0  0  0  0  0  0  0  0  0  0  0
    3.6251    3.5444    0.3611 C   0  0  0  0  0  0  0  0  0  0  0  0
    2.9433    2.3507    0.6474 C   0  0  0  0  0  0  0  0  0  0  0  0
    1.8336    2.3074    1.4674 O   0  0  0  0  0  0  0  0  0  0  0  0
    1.1727    3.5707    1.6873 C   0  0  0  0  0  0  0  0  0  0  0  0
   -0.2019    3.3481    2.3418 C   0  0  0  0  0  0  0  0  0  0  0  0
   -1.1015    4.5191    2.2913 N   0  0  0  0  0  0  0  0  0  0  0  0
   -0.6690    5.6921    3.0827 C   0  0  0  0  0  0  0  0  0  0  0  0
   -0.9474    5.6265    4.5995 C   0  0  0  0  0  0  0  0  0  0  0  0
   -2.2868    5.2163    4.9006 O   0  0  0  0  0  0  0  0  0  0  0  0
   -2.5965    3.9840    4.2419 C   0  0  0  0  0  0  0  0  0  0  0  0
   -2.4706    4.1536    2.7214 C   0  0  0  0  0  0  0  0  0  0  0  0
    3.8447   -1.6895   -0.1554 H   0  0  0  0  0  0  0  0  0  0  0  0
    3.1292   -0.8209   -1.5597 H   0  0  0  0  0  0  0  0  0  0  0  0
    2.1058   -1.7740   -0.5010 H   0  0  0  0  0  0  0  0  0  0  0  0
    4.9552    0.2728   -1.1497 H   0  0  0  0  0  0  0  0  0  0  0  0
    5.7643    1.0429   -3.3274 H   0  0  0  0  0  0  0  0  0  0  0  0
    8.9608    2.0754   -1.8828 H   0  0  0  0  0  0  0  0  0  0  0  0
   11.0781    2.0461   -3.1263 H   0  0  0  0  0  0  0  0  0  0  0  0
    6.8885    0.5056   -5.3124 H   0  0  0  0  0  0  0  0  0  0  0  0
    6.6835    5.7542   -1.9162 H   0  0  0  0  0  0  0  0  0  0  0  0
    3.3297    4.4849    0.8130 H   0  0  0  0  0  0  0  0  0  0  0  0
    1.0247    4.0795    0.7263 H   0  0  0  0  0  0  0  0  0  0  0  0
    1.7884    4.1862    2.3531 H   0  0  0  0  0  0  0  0  0  0  0  0
   -0.0586    2.9798    3.3638 H   0  0  0  0  0  0  0  0  0  0  0  0
   -0.6784    2.5267    1.7900 H   0  0  0  0  0  0  0  0  0  0  0  0
   -1.2290    6.5516    2.6888 H   0  0  0  0  0  0  0  0  0  0  0  0
    0.3852    5.9319    2.9086 H   0  0  0  0  0  0  0  0  0  0  0  0
   -0.8189    6.6248    5.0337 H   0  0  0  0  0  0  0  0  0  0  0  0
   -0.2473    4.9533    5.1047 H   0  0  0  0  0  0  0  0  0  0  0  0
   -3.6239    3.7133    4.5034 H   0  0  0  0  0  0  0  0  0  0  0  0
   -1.9427    3.1924    4.6258 H   0  0  0  0  0  0  0  0  0  0  0  0
   -3.1433    4.9619    2.4044 H   0  0  0  0  0  0  0  0  0  0  0  0
   -2.8104    3.2503    2.2032 H   0  0  0  0  0  0  0  0  0  0  0  0
  1  2  1  0  0  0  0
  1 31  1  0  0  0  0
  1 32  1  0  0  0  0
  1 33  1  0  0  0  0
  2  3  1  0  0  0  0
  3  4  1  0  0  0  0
  3 21  2  0  0  0  0
  4  5  2  0  0  0  0
  4 34  1  0  0  0  0
  5  6  1  0  0  0  0
  5 19  1  0  0  0  0
  6  7  1  0  0  0  0
  6 16  2  0  0  0  0
  7  8  1  0  0  0  0
  7 35  1  0  0  0  0
  8  9  1  0  0  0  0
  8 15  2  0  0  0  0
  9 10  2  0  0  0  0
  9 36  1  0  0  0  0
 10 11  1  0  0  0  0
 10 37  1  0  0  0  0
 11 12  1  0  0  0  0
 11 13  2  0  0  0  0
 13 14  1  0  0  0  0
 13 15  1  0  0  0  0
 15 38  1  0  0  0  0
 16 17  1  0  0  0  0
 17 18  2  0  0  0  0
 17 39  1  0  0  0  0
 18 19  1  0  0  0  0
 19 20  2  0  0  0  0
 20 21  1  0  0  0  0
 20 40  1  0  0  0  0
 21 22  1  0  0  0  0
 22 23  1  0  0  0  0
 23 24  1  0  0  0  0
 23 41  1  0  0  0  0
 23 42  1  0  0  0  0
 24 25  1  0  0  0  0
 24 43  1  0  0  0  0
 24 44  1  0  0  0  0
 25 26  1  0  0  0  0
 25 30  1  0  0  0  0
 26 27  1  0  0  0  0
 26 45  1  0  0  0  0
 26 46  1  0  0  0  0
 27 28  1  0  0  0  0
 27 47  1  0  0  0  0
 27 48  1  0  0  0  0
 28 29  1  0  0  0  0
 29 30  1  0  0  0  0
 29 49  1  0  0  0  0
 29 50  1  0  0  0  0
 30 51  1  0  0  0  0
 30 52  1  0  0  0  0
M  END
$$$$
