CHEMBL1985681
 OpenBabel04072215363D

 38 41  0  0  1  0  0  0  0  0999 V2000
   12.0544    4.7112    0.4380 N   0  0  0  0  0  0  0  0  0  0  0  0
   11.0263    4.5808   -0.0836 C   0  0  0  0  0  0  0  0  0  0  0  0
    9.7541    4.4271   -0.7242 C   0  0  0  0  0  0  0  0  0  0  0  0
    9.4804    5.1302   -1.9236 C   0  0  0  0  0  0  0  0  0  0  0  0
    8.2366    5.0184   -2.5597 C   0  0  0  0  0  0  0  0  0  0  0  0
    7.2835    4.2259   -1.9581 C   0  0  0  0  0  0  0  0  0  0  0  0
    7.5303    3.5412   -0.7738 C   0  0  0  0  0  0  0  0  0  0  0  0
    8.7708    3.6113   -0.1540 C   0  0  0  0  0  0  0  0  0  0  0  0
    6.2732    2.8046   -0.3549 C   0  0  3  0  0  0  0  0  0  0  0  0
    5.8799    3.1006    1.0653 C   0  0  0  0  0  0  0  0  0  0  0  0
    5.1694    4.2089    1.5068 C   0  0  0  0  0  0  0  0  0  0  0  0
    5.0877    4.4425    2.8881 C   0  0  0  0  0  0  0  0  0  0  0  0
    5.7242    3.5919    3.8066 C   0  0  0  0  0  0  0  0  0  0  0  0
    6.3923    2.5066    3.2733 C   0  0  0  0  0  0  0  0  0  0  0  0
    6.4626    2.2555    1.9432 N   0  0  0  0  0  0  0  0  0  0  0  0
    7.1559    1.5100    4.0775 C   0  0  0  0  0  0  0  0  0  0  0  0
    7.3092    1.7752    5.5574 C   0  0  0  0  0  0  0  0  0  0  0  0
    6.3759    2.7996    6.1810 C   0  0  0  0  0  0  0  0  0  0  0  0
    5.8087    3.9048    5.2762 C   0  0  3  0  0  0  0  0  0  0  0  0
    4.5152    4.2604    5.7722 O   0  0  0  0  0  0  0  0  0  0  0  0
    5.2845    3.2043   -1.4555 C   0  0  0  0  0  0  0  0  0  0  0  0
    4.1135    2.8814   -1.5629 O   0  0  0  0  0  0  0  0  0  0  0  0
    5.9782    4.0033   -2.3670 N   0  0  0  0  0  0  0  0  0  0  0  0
   10.2415    5.7762   -2.3568 H   0  0  0  0  0  0  0  0  0  0  0  0
    8.0325    5.5587   -3.4773 H   0  0  0  0  0  0  0  0  0  0  0  0
    8.9590    3.0629    0.7689 H   0  0  0  0  0  0  0  0  0  0  0  0
    6.4521    1.7268   -0.4769 H   0  0  0  0  0  0  0  0  0  0  0  0
    4.7185    4.9091    0.8101 H   0  0  0  0  0  0  0  0  0  0  0  0
    4.5494    5.3231    3.2495 H   0  0  0  0  0  0  0  0  0  0  0  0
    6.6821    0.5292    3.9204 H   0  0  0  0  0  0  0  0  0  0  0  0
    8.1554    1.4391    3.6385 H   0  0  0  0  0  0  0  0  0  0  0  0
    8.3496    2.0607    5.7541 H   0  0  0  0  0  0  0  0  0  0  0  0
    7.1800    0.8189    6.0849 H   0  0  0  0  0  0  0  0  0  0  0  0
    6.9252    3.2895    6.9999 H   0  0  0  0  0  0  0  0  0  0  0  0
    5.5617    2.2679    6.6887 H   0  0  0  0  0  0  0  0  0  0  0  0
    6.4405    4.7947    5.3814 H   0  0  0  0  0  0  0  0  0  0  0  0
    4.5800    4.3190    6.7423 H   0  0  0  0  0  0  0  0  0  0  0  0
    5.5454    4.3759   -3.1991 H   0  0  0  0  0  0  0  0  0  0  0  0
  1  2  3  0  0  0  0
  2  3  1  0  0  0  0
  3  4  1  0  0  0  0
  3  8  2  0  0  0  0
  4  5  2  0  0  0  0
  4 24  1  0  0  0  0
  5  6  1  0  0  0  0
  5 25  1  0  0  0  0
  6  7  2  0  0  0  0
  6 23  1  0  0  0  0
  7  8  1  0  0  0  0
  7  9  1  0  0  0  0
  8 26  1  0  0  0  0
  9 10  1  0  0  0  0
  9 21  1  0  0  0  0
  9 27  1  0  0  0  0
 10 11  1  0  0  0  0
 10 15  2  0  0  0  0
 11 12  2  0  0  0  0
 11 28  1  0  0  0  0
 12 13  1  0  0  0  0
 12 29  1  0  0  0  0
 13 14  2  0  0  0  0
 13 19  1  0  0  0  0
 14 15  1  0  0  0  0
 14 16  1  0  0  0  0
 16 17  1  0  0  0  0
 16 30  1  0  0  0  0
 16 31  1  0  0  0  0
 17 18  1  0  0  0  0
 17 32  1  0  0  0  0
 17 33  1  0  0  0  0
 18 19  1  0  0  0  0
 18 34  1  0  0  0  0
 18 35  1  0  0  0  0
 19 20  1  0  0  0  0
 19 36  1  0  0  0  0
 20 37  1  0  0  0  0
 21 22  2  0  0  0  0
 21 23  1  0  0  0  0
 23 38  1  0  0  0  0
M  END
$$$$
