CHEMBL3125885
 OpenBabel04072215363D

 56 60  0  0  0  0  0  0  0  0999 V2000
    0.7441    0.7847   -0.5261 N   0  0  0  0  0  0  0  0  0  0  0  0
    1.8838    0.6562   -0.7109 C   0  0  0  0  0  0  0  0  0  0  0  0
    3.2804    0.4607   -0.9528 C   0  0  0  0  0  0  0  0  0  0  0  0
    4.2648    1.3443   -0.4984 C   0  0  0  0  0  0  0  0  0  0  0  0
    3.8386    2.4761    0.1818 O   0  0  0  0  0  0  0  0  0  0  0  0
    4.5280    3.6552    0.0104 C   0  0  0  0  0  0  0  0  0  0  0  0
    4.5605    4.5218    1.1074 C   0  0  0  0  0  0  0  0  0  0  0  0
    5.2703    5.7262    1.0226 C   0  0  0  0  0  0  0  0  0  0  0  0
    5.9290    6.0545   -0.1572 C   0  0  0  0  0  0  0  0  0  0  0  0
    6.6641    7.1760   -0.2084 F   0  0  0  0  0  0  0  0  0  0  0  0
    5.8995    5.1996   -1.2596 C   0  0  0  0  0  0  0  0  0  0  0  0
    6.6592    5.5316   -2.4063 N   0  0  0  0  0  0  0  0  0  0  0  0
    7.4838    4.5956   -3.0184 C   0  0  0  0  0  0  0  0  0  0  0  0
    7.5426    3.4151   -2.6892 O   0  0  0  0  0  0  0  0  0  0  0  0
    8.2743    5.1762   -4.0000 N   0  0  0  0  0  0  0  0  0  0  0  0
    9.1948    4.4371   -4.7737 C   0  0  0  0  0  0  0  0  0  0  0  0
    8.8989    3.1581   -5.2511 C   0  0  0  0  0  0  0  0  0  0  0  0
    9.8319    2.4566   -6.0152 C   0  0  0  0  0  0  0  0  0  0  0  0
   11.0841    3.0126   -6.2709 C   0  0  0  0  0  0  0  0  0  0  0  0
   11.4083    4.2850   -5.7787 C   0  0  0  0  0  0  0  0  0  0  0  0
   12.7938    4.8537   -5.9560 C   0  0  0  0  0  0  0  0  0  0  0  0
   13.6295    4.0513   -6.6722 F   0  0  0  0  0  0  0  0  0  0  0  0
   12.7886    6.0557   -6.5954 F   0  0  0  0  0  0  0  0  0  0  0  0
   13.4182    5.0701   -4.7640 F   0  0  0  0  0  0  0  0  0  0  0  0
   10.4360    5.0105   -5.0655 C   0  0  0  0  0  0  0  0  0  0  0  0
    5.1561    4.0217   -1.1907 C   0  0  0  0  0  0  0  0  0  0  0  0
    5.6158    1.0609   -0.6999 C   0  0  0  0  0  0  0  0  0  0  0  0
    6.0080   -0.0617   -1.4316 C   0  0  0  0  0  0  0  0  0  0  0  0
    5.0380   -0.9616   -1.9097 C   0  0  0  0  0  0  0  0  0  0  0  0
    5.3082   -2.1302   -2.5985 N   0  0  0  0  0  0  0  0  0  0  0  0
    4.1898   -2.7451   -2.8571 C   0  0  0  0  0  0  0  0  0  0  0  0
    3.9675   -3.9526   -3.4420 N   0  0  0  0  0  0  0  0  0  0  0  0
    4.9686   -4.8218   -3.8044 C   0  0  0  0  0  0  0  0  0  0  0  0
    6.1751   -4.6848   -3.7417 O   0  0  0  0  0  0  0  0  0  0  0  0
    4.3691   -6.1054   -4.3192 C   0  0  0  0  0  0  0  0  0  0  0  0
    3.9731   -5.6678   -5.8009 C   0  0  0  0  0  0  0  0  0  0  0  0
    4.2284   -7.0450   -5.5118 C   0  0  0  0  0  0  0  0  0  0  0  0
    2.7540   -1.9678   -2.3737 S   0  0  0  0  0  0  0  0  0  0  0  0
    3.6841   -0.6965   -1.6622 C   0  0  0  0  0  0  0  0  0  0  0  0
    4.0527    4.2558    2.0271 H   0  0  0  0  0  0  0  0  0  0  0  0
    5.3341    6.3887    1.8796 H   0  0  0  0  0  0  0  0  0  0  0  0
    6.9576    6.4954   -2.4604 H   0  0  0  0  0  0  0  0  0  0  0  0
    8.4697    6.1584   -3.8836 H   0  0  0  0  0  0  0  0  0  0  0  0
    7.9346    2.6971   -5.0493 H   0  0  0  0  0  0  0  0  0  0  0  0
    9.5855    1.4673   -6.3942 H   0  0  0  0  0  0  0  0  0  0  0  0
   11.8128    2.4389   -6.8420 H   0  0  0  0  0  0  0  0  0  0  0  0
   10.6891    5.9966   -4.6806 H   0  0  0  0  0  0  0  0  0  0  0  0
    5.0938    3.3787   -2.0623 H   0  0  0  0  0  0  0  0  0  0  0  0
    6.3947    1.7227   -0.3263 H   0  0  0  0  0  0  0  0  0  0  0  0
    7.0602   -0.2453   -1.6317 H   0  0  0  0  0  0  0  0  0  0  0  0
    3.0087   -4.2311   -3.5608 H   0  0  0  0  0  0  0  0  0  0  0  0
    5.0141   -6.8052   -3.7807 H   0  0  0  0  0  0  0  0  0  0  0  0
    4.7124   -5.1400   -6.3978 H   0  0  0  0  0  0  0  0  0  0  0  0
    2.9569   -5.3233   -5.9514 H   0  0  0  0  0  0  0  0  0  0  0  0
    5.1192   -7.5020   -5.9288 H   0  0  0  0  0  0  0  0  0  0  0  0
    3.3841   -7.7305   -5.4803 H   0  0  0  0  0  0  0  0  0  0  0  0
  1  2  3  0  0  0  0
  2  3  1  0  0  0  0
  3  4  1  0  0  0  0
  3 39  2  0  0  0  0
  4  5  1  0  0  0  0
  4 27  2  0  0  0  0
  5  6  1  0  0  0  0
  6  7  1  0  0  0  0
  6 26  2  0  0  0  0
  7  8  2  0  0  0  0
  7 40  1  0  0  0  0
  8  9  1  0  0  0  0
  8 41  1  0  0  0  0
  9 10  1  0  0  0  0
  9 11  2  0  0  0  0
 11 12  1  0  0  0  0
 11 26  1  0  0  0  0
 12 13  1  0  0  0  0
 12 42  1  0  0  0  0
 13 14  2  0  0  0  0
 13 15  1  0  0  0  0
 15 16  1  0  0  0  0
 15 43  1  0  0  0  0
 16 17  1  0  0  0  0
 16 25  2  0  0  0  0
 17 18  2  0  0  0  0
 17 44  1  0  0  0  0
 18 19  1  0  0  0  0
 18 45  1  0  0  0  0
 19 20  2  0  0  0  0
 19 46  1  0  0  0  0
 20 21  1  0  0  0  0
 20 25  1  0  0  0  0
 21 22  1  0  0  0  0
 21 23  1  0  0  0  0
 21 24  1  0  0  0  0
 25 47  1  0  0  0  0
 26 48  1  0  0  0  0
 27 28  1  0  0  0  0
 27 49  1  0  0  0  0
 28 29  2  0  0  0  0
 28 50  1  0  0  0  0
 29 30  1  0  0  0  0
 29 39  1  0  0  0  0
 30 31  2  0  0  0  0
 31 32  1  0  0  0  0
 31 38  1  0  0  0  0
 32 33  1  0  0  0  0
 32 51  1  0  0  0  0
 33 34  2  0  0  0  0
 33 35  1  0  0  0  0
 35 36  1  0  0  0  0
 35 37  1  0  0  0  0
 35 52  1  0  0  0  0
 36 37  1  0  0  0  0
 36 53  1  0  0  0  0
 36 54  1  0  0  0  0
 37 55  1  0  0  0  0
 37 56  1  0  0  0  0
 38 39  1  0  0  0  0
M  END
$$$$
