CHEMBL2032019
 OpenBabel04072215363D

 65 70  0  0  0  0  0  0  0  0999 V2000
    3.5173    0.8935    0.8384 C   0  0  0  0  0  0  0  0  0  0  0  0
    4.7729    1.0709    0.1830 O   0  0  0  0  0  0  0  0  0  0  0  0
    4.9681    0.2527   -0.8958 C   0  0  0  0  0  0  0  0  0  0  0  0
    3.9439   -0.2877   -1.6584 C   0  0  0  0  0  0  0  0  0  0  0  0
    4.2454   -1.1372   -2.7153 C   0  0  0  0  0  0  0  0  0  0  0  0
    5.5787   -1.3818   -3.1008 C   0  0  0  0  0  0  0  0  0  0  0  0
    5.9526   -2.1307   -4.2437 C   0  0  0  0  0  0  0  0  0  0  0  0
    5.0669   -2.7149   -5.1336 O   0  0  0  0  0  0  0  0  0  0  0  0
    4.0534   -1.9742   -5.6996 C   0  0  0  0  0  0  0  0  0  0  0  0
    2.9549   -2.6737   -6.1985 C   0  0  0  0  0  0  0  0  0  0  0  0
    1.8469   -1.9779   -6.7138 C   0  0  0  0  0  0  0  0  0  0  0  0
    1.8581   -0.5863   -6.7115 C   0  0  0  0  0  0  0  0  0  0  0  0
    0.7335    0.1244   -7.1951 N   0  0  0  0  0  0  0  0  0  0  0  0
    0.6235    1.4997   -7.1315 C   0  0  0  0  0  0  0  0  0  0  0  0
    1.4510    2.2527   -6.6149 O   0  0  0  0  0  0  0  0  0  0  0  0
   -0.5589    2.1128   -7.7702 C   0  0  0  0  0  0  0  0  0  0  0  0
   -1.0101    3.3710   -7.5780 C   0  0  0  0  0  0  0  0  0  0  0  0
   -0.5873    4.2604   -6.5392 C   0  0  0  0  0  0  0  0  0  0  0  0
    0.4111    5.1999   -6.6695 C   0  0  0  0  0  0  0  0  0  0  0  0
    0.5485    6.0901   -5.2148 S   0  0  0  0  0  0  0  0  0  0  0  0
   -0.7428    5.1739   -4.5376 C   0  0  0  0  0  0  0  0  0  0  0  0
   -1.2053    5.4538   -3.1466 C   0  0  0  0  0  0  0  0  0  0  0  0
   -1.2693    4.2632   -5.3356 N   0  0  0  0  0  0  0  0  0  0  0  0
   -1.9788    3.7383   -8.5226 N   0  0  0  0  0  0  0  0  0  0  0  0
   -3.0295    4.7229   -8.2721 C   0  0  0  0  0  0  0  0  0  0  0  0
   -2.3279    2.5595   -9.2010 N   0  0  0  0  0  0  0  0  0  0  0  0
   -3.1873    2.5443  -10.3102 C   0  0  0  0  0  0  0  0  0  0  0  0
   -4.2016    1.5833  -10.3684 C   0  0  0  0  0  0  0  0  0  0  0  0
   -5.1282    1.5957  -11.4115 C   0  0  0  0  0  0  0  0  0  0  0  0
   -5.0196    2.5411  -12.4322 C   0  0  0  0  0  0  0  0  0  0  0  0
   -4.0014    3.4908  -12.3935 C   0  0  0  0  0  0  0  0  0  0  0  0
   -3.1003    3.5104  -11.3243 C   0  0  0  0  0  0  0  0  0  0  0  0
   -1.4486    1.5386   -8.8140 C   0  0  0  0  0  0  0  0  0  0  0  0
   -1.3562    0.3927   -9.2226 O   0  0  0  0  0  0  0  0  0  0  0  0
    2.9325    0.0894   -6.2667 N   0  0  0  0  0  0  0  0  0  0  0  0
    4.0040   -0.5962   -5.7974 C   0  0  0  0  0  0  0  0  0  0  0  0
    7.2999   -2.3942   -4.4869 C   0  0  0  0  0  0  0  0  0  0  0  0
    8.2360   -1.8542   -3.6287 C   0  0  0  0  0  0  0  0  0  0  0  0
    7.9204   -1.0737   -2.5746 N   0  0  0  0  0  0  0  0  0  0  0  0
    6.6219   -0.8376   -2.3161 C   0  0  0  0  0  0  0  0  0  0  0  0
    6.2923   -0.0293   -1.2380 C   0  0  0  0  0  0  0  0  0  0  0  0
    3.5302    1.4758    1.7636 H   0  0  0  0  0  0  0  0  0  0  0  0
    3.3613   -0.1585    1.1034 H   0  0  0  0  0  0  0  0  0  0  0  0
    2.6907    1.2688    0.2261 H   0  0  0  0  0  0  0  0  0  0  0  0
    2.8993   -0.0564   -1.4763 H   0  0  0  0  0  0  0  0  0  0  0  0
    3.4098   -1.5729   -3.2534 H   0  0  0  0  0  0  0  0  0  0  0  0
    2.9470   -3.7597   -6.1710 H   0  0  0  0  0  0  0  0  0  0  0  0
    0.9923   -2.5341   -7.0842 H   0  0  0  0  0  0  0  0  0  0  0  0
   -0.0096   -0.4064   -7.6367 H   0  0  0  0  0  0  0  0  0  0  0  0
    1.0544    5.3859   -7.5140 H   0  0  0  0  0  0  0  0  0  0  0  0
   -0.6814    6.3031   -2.6965 H   0  0  0  0  0  0  0  0  0  0  0  0
   -1.0402    4.5802   -2.5080 H   0  0  0  0  0  0  0  0  0  0  0  0
   -2.2751    5.6839   -3.1444 H   0  0  0  0  0  0  0  0  0  0  0  0
   -2.8054    5.3724   -7.4202 H   0  0  0  0  0  0  0  0  0  0  0  0
   -3.9975    4.2473   -8.0819 H   0  0  0  0  0  0  0  0  0  0  0  0
   -3.1267    5.3813   -9.1420 H   0  0  0  0  0  0  0  0  0  0  0  0
   -4.3089    0.8554   -9.5672 H   0  0  0  0  0  0  0  0  0  0  0  0
   -5.9383    0.8705  -11.4259 H   0  0  0  0  0  0  0  0  0  0  0  0
   -5.7307    2.5344  -13.2555 H   0  0  0  0  0  0  0  0  0  0  0  0
   -3.9064    4.2154  -13.2004 H   0  0  0  0  0  0  0  0  0  0  0  0
   -2.3084    4.2532  -11.3081 H   0  0  0  0  0  0  0  0  0  0  0  0
    4.8144    0.0428   -5.4586 H   0  0  0  0  0  0  0  0  0  0  0  0
    7.6112   -3.0060   -5.3252 H   0  0  0  0  0  0  0  0  0  0  0  0
    9.2981   -2.0331   -3.7697 H   0  0  0  0  0  0  0  0  0  0  0  0
    7.1005    0.3948   -0.6356 H   0  0  0  0  0  0  0  0  0  0  0  0
  1  2  1  0  0  0  0
  1 42  1  0  0  0  0
  1 43  1  0  0  0  0
  1 44  1  0  0  0  0
  2  3  1  0  0  0  0
  3  4  1  0  0  0  0
  3 41  2  0  0  0  0
  4  5  2  0  0  0  0
  4 45  1  0  0  0  0
  5  6  1  0  0  0  0
  5 46  1  0  0  0  0
  6  7  1  0  0  0  0
  6 40  2  0  0  0  0
  7  8  1  0  0  0  0
  7 37  2  0  0  0  0
  8  9  1  0  0  0  0
  9 10  1  0  0  0  0
  9 36  2  0  0  0  0
 10 11  2  0  0  0  0
 10 47  1  0  0  0  0
 11 12  1  0  0  0  0
 11 48  1  0  0  0  0
 12 13  1  0  0  0  0
 12 35  2  0  0  0  0
 13 14  1  0  0  0  0
 13 49  1  0  0  0  0
 14 15  2  0  0  0  0
 14 16  1  0  0  0  0
 16 17  2  0  0  0  0
 16 33  1  0  0  0  0
 17 18  1  0  0  0  0
 17 24  1  0  0  0  0
 18 19  2  0  0  0  0
 18 23  1  0  0  0  0
 19 20  1  0  0  0  0
 19 50  1  0  0  0  0
 20 21  1  0  0  0  0
 21 22  1  0  0  0  0
 21 23  2  0  0  0  0
 22 51  1  0  0  0  0
 22 52  1  0  0  0  0
 22 53  1  0  0  0  0
 24 25  1  0  0  0  0
 24 26  1  0  0  0  0
 25 54  1  0  0  0  0
 25 55  1  0  0  0  0
 25 56  1  0  0  0  0
 26 27  1  0  0  0  0
 26 33  1  0  0  0  0
 27 28  1  0  0  0  0
 27 32  2  0  0  0  0
 28 29  2  0  0  0  0
 28 57  1  0  0  0  0
 29 30  1  0  0  0  0
 29 58  1  0  0  0  0
 30 31  2  0  0  0  0
 30 59  1  0  0  0  0
 31 32  1  0  0  0  0
 31 60  1  0  0  0  0
 32 61  1  0  0  0  0
 33 34  2  0  0  0  0
 35 36  1  0  0  0  0
 36 62  1  0  0  0  0
 37 38  1  0  0  0  0
 37 63  1  0  0  0  0
 38 39  2  0  0  0  0
 38 64  1  0  0  0  0
 39 40  1  0  0  0  0
 40 41  1  0  0  0  0
 41 65  1  0  0  0  0
M  END
$$$$
