CHEMBL474208
 OpenBabel04072215383D

 56 60  0  0  0  0  0  0  0  0999 V2000
    8.3417  -12.3334    4.3657 N   0  0  0  0  0  0  0  0  0  0  0  0
    8.0690  -12.1570    5.7400 C   0  0  0  0  0  0  0  0  0  0  0  0
    8.5512  -13.1285    6.6335 C   0  0  0  0  0  0  0  0  0  0  0  0
    8.4320  -12.9645    8.0133 C   0  0  0  0  0  0  0  0  0  0  0  0
    7.8625  -11.8063    8.5231 C   0  0  0  0  0  0  0  0  0  0  0  0
    7.4307  -10.8025    7.6540 C   0  0  0  0  0  0  0  0  0  0  0  0
    7.5534  -10.9487    6.2678 C   0  0  0  0  0  0  0  0  0  0  0  0
    7.1560   -9.9285    5.3745 N   0  0  0  0  0  0  0  0  0  0  0  0
    6.8238   -8.6161    5.6704 C   0  0  0  0  0  0  0  0  0  0  0  0
    6.8970   -8.1122    6.7872 O   0  0  0  0  0  0  0  0  0  0  0  0
    6.3892   -7.8220    4.5213 C   0  0  0  0  0  0  0  0  0  0  0  0
    6.0390   -6.4844    4.5323 C   0  0  0  0  0  0  0  0  0  0  0  0
    5.6704   -6.0060    3.2438 C   0  0  0  0  0  0  0  0  0  0  0  0
    5.7625   -6.9826    2.2705 C   0  0  0  0  0  0  0  0  0  0  0  0
    5.4878   -6.8177    0.8437 C   0  0  0  0  0  0  0  0  0  0  0  0
    5.0023   -5.7784    0.4069 O   0  0  0  0  0  0  0  0  0  0  0  0
    5.8644   -7.8945    0.0606 N   0  0  0  0  0  0  0  0  0  0  0  0
    5.7139   -8.0516   -1.3306 C   0  0  0  0  0  0  0  0  0  0  0  0
    4.9494   -7.2134   -2.1341 C   0  0  0  0  0  0  0  0  0  0  0  0
    4.8336   -7.4737   -3.5006 C   0  0  0  0  0  0  0  0  0  0  0  0
    5.4854   -8.5708   -4.0722 C   0  0  0  0  0  0  0  0  0  0  0  0
    6.2656   -9.4280   -3.2901 C   0  0  0  0  0  0  0  0  0  0  0  0
    6.8432  -10.5702   -3.8809 N   0  0  0  0  0  0  0  0  0  0  0  0
    7.2866  -11.6737   -3.2314 C   0  0  0  0  0  0  0  0  0  0  0  0
    7.0697  -11.9545   -1.9658 N   0  0  0  0  0  0  0  0  0  0  0  0
    7.6980  -13.1175   -1.6071 C   0  0  0  0  0  0  0  0  0  0  0  0
    8.3931  -13.7663   -2.6069 C   0  0  0  0  0  0  0  0  0  0  0  0
    9.1721  -14.9997   -2.5070 C   0  0  0  0  0  0  0  0  0  0  0  0
    8.8182  -15.9810   -1.5707 C   0  0  0  0  0  0  0  0  0  0  0  0
    9.6099  -17.1139   -1.4043 C   0  0  0  0  0  0  0  0  0  0  0  0
   10.7397  -17.2413   -2.1911 C   0  0  0  0  0  0  0  0  0  0  0  0
   11.1126  -16.3325   -3.1166 N   0  0  0  0  0  0  0  0  0  0  0  0
   10.3244  -15.2366   -3.2521 C   0  0  0  0  0  0  0  0  0  0  0  0
    8.2041  -12.8788   -4.0664 S   0  0  0  0  0  0  0  0  0  0  0  0
    6.3610   -9.1455   -1.9179 C   0  0  0  0  0  0  0  0  0  0  0  0
    6.2432   -8.4806    2.9480 S   0  0  0  0  0  0  0  0  0  0  0  0
    8.4847  -13.3091    4.1180 H   0  0  0  0  0  0  0  0  0  0  0  0
    7.6909  -11.8905    3.7336 H   0  0  0  0  0  0  0  0  0  0  0  0
    9.0270  -14.0309    6.2586 H   0  0  0  0  0  0  0  0  0  0  0  0
    8.7943  -13.7344    8.6894 H   0  0  0  0  0  0  0  0  0  0  0  0
    7.7676  -11.6646    9.5967 H   0  0  0  0  0  0  0  0  0  0  0  0
    6.9992   -9.9132    8.1007 H   0  0  0  0  0  0  0  0  0  0  0  0
    7.1964  -10.1581    4.3946 H   0  0  0  0  0  0  0  0  0  0  0  0
    6.0551   -5.8772    5.4315 H   0  0  0  0  0  0  0  0  0  0  0  0
    5.3701   -4.9860    3.0283 H   0  0  0  0  0  0  0  0  0  0  0  0
    6.3412   -8.6448    0.5453 H   0  0  0  0  0  0  0  0  0  0  0  0
    4.4069   -6.3699   -1.7219 H   0  0  0  0  0  0  0  0  0  0  0  0
    4.2164   -6.8239   -4.1149 H   0  0  0  0  0  0  0  0  0  0  0  0
    5.3522   -8.7585   -5.1345 H   0  0  0  0  0  0  0  0  0  0  0  0
    6.9719  -10.5200   -4.8833 H   0  0  0  0  0  0  0  0  0  0  0  0
    7.6308  -13.4446   -0.5773 H   0  0  0  0  0  0  0  0  0  0  0  0
    7.9268  -15.8731   -0.9570 H   0  0  0  0  0  0  0  0  0  0  0  0
    9.3527  -17.8717   -0.6726 H   0  0  0  0  0  0  0  0  0  0  0  0
   11.3962  -18.1007   -2.0921 H   0  0  0  0  0  0  0  0  0  0  0  0
   10.6868  -14.5240   -3.9883 H   0  0  0  0  0  0  0  0  0  0  0  0
    6.9790   -9.7753   -1.2839 H   0  0  0  0  0  0  0  0  0  0  0  0
  1  2  1  0  0  0  0
  1 37  1  0  0  0  0
  1 38  1  0  0  0  0
  2  3  1  0  0  0  0
  2  7  2  0  0  0  0
  3  4  2  0  0  0  0
  3 39  1  0  0  0  0
  4  5  1  0  0  0  0
  4 40  1  0  0  0  0
  5  6  2  0  0  0  0
  5 41  1  0  0  0  0
  6  7  1  0  0  0  0
  6 42  1  0  0  0  0
  7  8  1  0  0  0  0
  8  9  1  0  0  0  0
  8 43  1  0  0  0  0
  9 10  2  0  0  0  0
  9 11  1  0  0  0  0
 11 12  2  0  0  0  0
 11 36  1  0  0  0  0
 12 13  1  0  0  0  0
 12 44  1  0  0  0  0
 13 14  2  0  0  0  0
 13 45  1  0  0  0  0
 14 15  1  0  0  0  0
 14 36  1  0  0  0  0
 15 16  2  0  0  0  0
 15 17  1  0  0  0  0
 17 18  1  0  0  0  0
 17 46  1  0  0  0  0
 18 19  1  0  0  0  0
 18 35  2  0  0  0  0
 19 20  2  0  0  0  0
 19 47  1  0  0  0  0
 20 21  1  0  0  0  0
 20 48  1  0  0  0  0
 21 22  2  0  0  0  0
 21 49  1  0  0  0  0
 22 23  1  0  0  0  0
 22 35  1  0  0  0  0
 23 24  1  0  0  0  0
 23 50  1  0  0  0  0
 24 25  2  0  0  0  0
 24 34  1  0  0  0  0
 25 26  1  0  0  0  0
 26 27  2  0  0  0  0
 26 51  1  0  0  0  0
 27 28  1  0  0  0  0
 27 34  1  0  0  0  0
 28 29  1  0  0  0  0
 28 33  2  0  0  0  0
 29 30  2  0  0  0  0
 29 52  1  0  0  0  0
 30 31  1  0  0  0  0
 30 53  1  0  0  0  0
 31 32  2  0  0  0  0
 31 54  1  0  0  0  0
 32 33  1  0  0  0  0
 33 55  1  0  0  0  0
 35 56  1  0  0  0  0
M  END
$$$$
