CHEMBL566836
 OpenBabel04072215383D

 63 68  0  0  0  0  0  0  0  0999 V2000
    8.5261   -5.0685    0.3060 C   0  0  0  0  0  0  0  0  0  0  0  0
    7.7139   -6.3448    0.2040 C   0  0  0  0  0  0  0  0  0  0  0  0
    6.3376   -6.0427    0.4898 N   0  0  0  0  0  0  0  0  0  0  0  0
    5.3834   -5.6759   -0.4116 C   0  0  0  0  0  0  0  0  0  0  0  0
    4.1896   -5.6816    0.1222 N   0  0  0  0  0  0  0  0  0  0  0  0
    4.4321   -6.0500    1.3993 C   0  0  0  0  0  0  0  0  0  0  0  0
    3.4509   -6.1368    2.4342 C   0  0  0  0  0  0  0  0  0  0  0  0
    2.1729   -5.8185    2.0936 C   0  0  0  0  0  0  0  0  0  0  0  0
    1.4756   -6.0619    3.2147 C   0  0  0  0  0  0  0  0  0  0  0  0
    0.2801   -5.8326    3.4784 N   0  0  0  0  0  0  0  0  0  0  0  0
   -0.8622   -5.5934    3.6794 C   0  0  0  0  0  0  0  0  0  0  0  0
   -0.3489   -5.9444    4.9505 C   0  0  0  0  0  0  0  0  0  0  0  0
    1.2297   -6.4766    5.5092 C   0  0  0  0  0  0  0  0  0  0  0  0
    1.9829   -6.0986    6.7154 O   0  0  0  0  0  0  0  0  0  0  0  0
    1.5325   -5.6778    8.0503 C   0  0  0  0  0  0  0  0  0  0  0  0
    0.1151   -5.5800    8.3473 C   0  0  0  0  0  0  0  0  0  0  0  0
   -0.5032   -6.2698    9.4600 C   0  0  0  0  0  0  0  0  0  0  0  0
    0.2807   -6.7918   10.4767 C   0  0  0  0  0  0  0  0  0  0  0  0
   -0.2720   -7.5050   11.6159 N   0  0  0  0  0  0  0  0  0  0  0  0
   -1.6315   -7.3372   11.9535 C   0  0  0  0  0  0  0  0  0  0  0  0
   -2.4220   -6.6175   11.3501 O   0  0  0  0  0  0  0  0  0  0  0  0
   -2.2281   -8.0826   13.1400 C   0  0  0  0  0  0  0  0  0  0  0  0
   -2.0702   -7.2081   14.3812 C   0  0  0  0  0  0  0  0  0  0  0  0
   -1.0268   -7.3717   15.0153 O   0  0  0  0  0  0  0  0  0  0  0  0
   -3.0299   -6.3041   14.8510 N   0  0  0  0  0  0  0  0  0  0  0  0
   -2.7141   -5.6149   16.0796 C   0  0  0  0  0  0  0  0  0  0  0  0
   -1.5824   -4.8030   16.1717 C   0  0  0  0  0  0  0  0  0  0  0  0
   -1.5095   -3.8414   17.1964 C   0  0  0  0  0  0  0  0  0  0  0  0
   -2.3338   -3.9342   18.3174 C   0  0  0  0  0  0  0  0  0  0  0  0
   -3.3542   -4.8734   18.3273 C   0  0  0  0  0  0  0  0  0  0  0  0
   -3.5980   -5.6248   17.1789 C   0  0  0  0  0  0  0  0  0  0  0  0
   -4.6878   -6.4090   17.1722 F   0  0  0  0  0  0  0  0  0  0  0  0
   -1.9485   -9.6078   13.1221 C   0  0  0  0  0  0  0  0  0  0  0  0
   -3.3434   -9.0932   12.9238 C   0  0  0  0  0  0  0  0  0  0  0  0
    1.6589   -6.5111   10.3365 C   0  0  0  0  0  0  0  0  0  0  0  0
    2.2759   -6.0150    9.1539 C   0  0  0  0  0  0  0  0  0  0  0  0
    3.6091   -5.9019    9.1276 F   0  0  0  0  0  0  0  0  0  0  0  0
    2.0802   -6.4685    4.3796 C   0  0  0  0  0  0  0  0  0  0  0  0
    3.7325   -6.5732    4.0553 S   0  0  0  0  0  0  0  0  0  0  0  0
    5.7525   -6.2494    1.6884 C   0  0  0  0  0  0  0  0  0  0  0  0
    9.5653   -5.3166    0.1288 H   0  0  0  0  0  0  0  0  0  0  0  0
    8.4463   -4.6249    1.3054 H   0  0  0  0  0  0  0  0  0  0  0  0
    8.1949   -4.3171   -0.4242 H   0  0  0  0  0  0  0  0  0  0  0  0
    8.0580   -7.1034    0.9111 H   0  0  0  0  0  0  0  0  0  0  0  0
    7.7421   -6.7930   -0.7950 H   0  0  0  0  0  0  0  0  0  0  0  0
    5.6188   -5.4419   -1.4342 H   0  0  0  0  0  0  0  0  0  0  0  0
    1.6838   -5.4827    1.1795 H   0  0  0  0  0  0  0  0  0  0  0  0
   -0.9819   -5.3352    2.6152 H   0  0  0  0  0  0  0  0  0  0  0  0
   -1.2676   -6.0772    5.5454 H   0  0  0  0  0  0  0  0  0  0  0  0
   -0.5311   -4.7994    7.9084 H   0  0  0  0  0  0  0  0  0  0  0  0
   -1.5813   -6.4323    9.4662 H   0  0  0  0  0  0  0  0  0  0  0  0
    0.3436   -8.0821   12.1975 H   0  0  0  0  0  0  0  0  0  0  0  0
   -3.9944   -6.4055   14.5718 H   0  0  0  0  0  0  0  0  0  0  0  0
   -0.7952   -4.8286   15.4274 H   0  0  0  0  0  0  0  0  0  0  0  0
   -0.8254   -2.9979   17.1112 H   0  0  0  0  0  0  0  0  0  0  0  0
   -2.1824   -3.2824   19.1749 H   0  0  0  0  0  0  0  0  0  0  0  0
   -3.9924   -4.9977   19.1958 H   0  0  0  0  0  0  0  0  0  0  0  0
   -1.7588  -10.1906   14.0154 H   0  0  0  0  0  0  0  0  0  0  0  0
   -1.4161  -10.0340   12.2664 H   0  0  0  0  0  0  0  0  0  0  0  0
   -4.0522   -9.3264   13.7074 H   0  0  0  0  0  0  0  0  0  0  0  0
   -3.7926   -9.1685   11.9362 H   0  0  0  0  0  0  0  0  0  0  0  0
    2.3882   -6.7262   11.1102 H   0  0  0  0  0  0  0  0  0  0  0  0
    6.2634   -6.5707    2.5909 H   0  0  0  0  0  0  0  0  0  0  0  0
  1  2  1  0  0  0  0
  1 41  1  0  0  0  0
  1 42  1  0  0  0  0
  1 43  1  0  0  0  0
  2  3  1  0  0  0  0
  2 44  1  0  0  0  0
  2 45  1  0  0  0  0
  3  4  1  0  0  0  0
  3 40  1  0  0  0  0
  4  5  2  0  0  0  0
  4 46  1  0  0  0  0
  5  6  1  0  0  0  0
  6  7  1  0  0  0  0
  6 40  2  0  0  0  0
  7  8  2  0  0  0  0
  7 39  1  0  0  0  0
  8  9  1  0  0  0  0
  8 47  1  0  0  0  0
  9 10  1  0  0  0  0
  9 38  2  0  0  0  0
 10 11  2  0  0  0  0
 11 12  1  0  0  0  0
 11 48  1  0  0  0  0
 12 13  2  0  0  0  0
 12 49  1  0  0  0  0
 13 14  1  0  0  0  0
 13 38  1  0  0  0  0
 14 15  1  0  0  0  0
 15 16  1  0  0  0  0
 15 36  2  0  0  0  0
 16 17  2  0  0  0  0
 16 50  1  0  0  0  0
 17 18  1  0  0  0  0
 17 51  1  0  0  0  0
 18 19  1  0  0  0  0
 18 35  2  0  0  0  0
 19 20  1  0  0  0  0
 19 52  1  0  0  0  0
 20 21  2  0  0  0  0
 20 22  1  0  0  0  0
 22 23  1  0  0  0  0
 22 33  1  0  0  0  0
 22 34  1  0  0  0  0
 23 24  2  0  0  0  0
 23 25  1  0  0  0  0
 25 26  1  0  0  0  0
 25 53  1  0  0  0  0
 26 27  1  0  0  0  0
 26 31  2  0  0  0  0
 27 28  2  0  0  0  0
 27 54  1  0  0  0  0
 28 29  1  0  0  0  0
 28 55  1  0  0  0  0
 29 30  2  0  0  0  0
 29 56  1  0  0  0  0
 30 31  1  0  0  0  0
 30 57  1  0  0  0  0
 31 32  1  0  0  0  0
 33 34  1  0  0  0  0
 33 58  1  0  0  0  0
 33 59  1  0  0  0  0
 34 60  1  0  0  0  0
 34 61  1  0  0  0  0
 35 36  1  0  0  0  0
 35 62  1  0  0  0  0
 36 37  1  0  0  0  0
 38 39  1  0  0  0  0
 40 63  1  0  0  0  0
M  END
$$$$
