CHEMBL171736
 OpenBabel04072215363D

 59 62  0  0  0  0  0  0  0  0999 V2000
    5.0166   -4.7568   -3.5216 C   0  0  0  0  0  0  0  0  0  0  0  0
    4.9392   -4.5603   -2.1158 O   0  0  0  0  0  0  0  0  0  0  0  0
    5.7622   -3.4642   -1.7042 C   0  0  0  0  0  0  0  0  0  0  0  0
    5.6709   -3.2973   -0.1779 C   0  0  0  0  0  0  0  0  0  0  0  0
    6.5243   -2.2158    0.3692 N   0  0  0  0  0  0  0  0  0  0  0  0
    6.1142   -0.9050   -0.1482 C   0  0  0  0  0  0  0  0  0  0  0  0
    6.4901   -2.1871    1.8452 C   0  0  0  0  0  0  0  0  0  0  0  0
    7.0262   -3.4456    2.5419 C   0  0  0  0  0  0  0  0  0  0  0  0
    8.4492   -3.8082    2.1038 C   0  0  0  0  0  0  0  0  0  0  0  0
    8.9181   -5.0554    2.7114 N   0  0  0  0  0  0  0  0  0  0  0  0
    9.9829   -5.0366    3.5941 C   0  0  0  0  0  0  0  0  0  0  0  0
   10.4859   -6.1707    4.0986 C   0  0  0  0  0  0  0  0  0  0  0  0
    9.9199   -7.4573    3.7348 C   0  0  0  0  0  0  0  0  0  0  0  0
   10.5201   -8.7298    4.1519 C   0  0  0  0  0  0  0  0  0  0  0  0
   10.4232   -9.2871    5.5150 C   0  0  0  0  0  0  0  0  0  0  0  0
   10.8519  -10.5492    5.7519 C   0  0  0  0  0  0  0  0  0  0  0  0
   11.5736  -11.2109    4.7352 N   0  0  0  0  0  0  0  0  0  0  0  0
   12.4654  -12.2963    4.7951 C   0  0  0  0  0  0  0  0  0  0  0  0
   12.4218  -13.5219    3.9255 C   0  0  0  0  0  0  0  0  0  0  0  0
   13.6394  -14.1928    3.6759 C   0  0  0  0  0  0  0  0  0  0  0  0
   13.7577  -15.1784    2.6944 C   0  0  0  0  0  0  0  0  0  0  0  0
   12.6435  -15.5468    1.9552 C   0  0  0  0  0  0  0  0  0  0  0  0
   11.4175  -14.9299    2.2062 C   0  0  0  0  0  0  0  0  0  0  0  0
   11.3024  -13.9214    3.1850 C   0  0  0  0  0  0  0  0  0  0  0  0
   13.6141  -11.4885    4.7768 C   0  0  0  0  0  0  0  0  0  0  0  0
   13.4191  -10.4947    3.8338 N   0  0  0  0  0  0  0  0  0  0  0  0
   12.1125  -10.4262    3.7142 C   0  0  0  0  0  0  0  0  0  0  0  0
   11.2997   -9.3658    3.2422 C   0  0  0  0  0  0  0  0  0  0  0  0
    8.8789   -7.4895    2.8972 C   0  0  0  0  0  0  0  0  0  0  0  0
    8.3305   -6.2508    2.2976 C   0  0  0  0  0  0  0  0  0  0  0  0
    7.4260   -6.3451    1.4715 O   0  0  0  0  0  0  0  0  0  0  0  0
    4.3630   -5.5899   -3.7923 H   0  0  0  0  0  0  0  0  0  0  0  0
    6.0409   -5.0028   -3.8181 H   0  0  0  0  0  0  0  0  0  0  0  0
    4.6777   -3.8606   -4.0507 H   0  0  0  0  0  0  0  0  0  0  0  0
    5.4065   -2.5652   -2.2164 H   0  0  0  0  0  0  0  0  0  0  0  0
    6.8014   -3.6585   -1.9953 H   0  0  0  0  0  0  0  0  0  0  0  0
    5.9686   -4.2626    0.2458 H   0  0  0  0  0  0  0  0  0  0  0  0
    4.6217   -3.1558    0.1139 H   0  0  0  0  0  0  0  0  0  0  0  0
    6.2349   -0.8465   -1.2342 H   0  0  0  0  0  0  0  0  0  0  0  0
    6.7524   -0.1128    0.2591 H   0  0  0  0  0  0  0  0  0  0  0  0
    5.0726   -0.6717    0.1004 H   0  0  0  0  0  0  0  0  0  0  0  0
    5.4673   -1.9984    2.1978 H   0  0  0  0  0  0  0  0  0  0  0  0
    7.1012   -1.3439    2.1934 H   0  0  0  0  0  0  0  0  0  0  0  0
    6.3368   -4.2793    2.3747 H   0  0  0  0  0  0  0  0  0  0  0  0
    7.0166   -3.2787    3.6265 H   0  0  0  0  0  0  0  0  0  0  0  0
    9.1339   -2.9904    2.3582 H   0  0  0  0  0  0  0  0  0  0  0  0
    8.4996   -3.9431    1.0180 H   0  0  0  0  0  0  0  0  0  0  0  0
   10.4124   -4.0698    3.8431 H   0  0  0  0  0  0  0  0  0  0  0  0
   11.3470   -6.1450    4.7604 H   0  0  0  0  0  0  0  0  0  0  0  0
   10.0363   -8.6511    6.3090 H   0  0  0  0  0  0  0  0  0  0  0  0
   10.8306  -11.0109    6.7319 H   0  0  0  0  0  0  0  0  0  0  0  0
   14.5467  -13.9001    4.1983 H   0  0  0  0  0  0  0  0  0  0  0  0
   14.7290  -15.6227    2.4914 H   0  0  0  0  0  0  0  0  0  0  0  0
   12.7385  -16.2985    1.1746 H   0  0  0  0  0  0  0  0  0  0  0  0
   10.5546  -15.2130    1.6070 H   0  0  0  0  0  0  0  0  0  0  0  0
   10.3410  -13.4301    3.3026 H   0  0  0  0  0  0  0  0  0  0  0  0
   14.6122  -11.7548    5.0901 H   0  0  0  0  0  0  0  0  0  0  0  0
   11.4200   -9.0360    2.2195 H   0  0  0  0  0  0  0  0  0  0  0  0
    8.4268   -8.4076    2.5471 H   0  0  0  0  0  0  0  0  0  0  0  0
  1  2  1  0  0  0  0
  1 32  1  0  0  0  0
  1 33  1  0  0  0  0
  1 34  1  0  0  0  0
  2  3  1  0  0  0  0
  3  4  1  0  0  0  0
  3 35  1  0  0  0  0
  3 36  1  0  0  0  0
  4  5  1  0  0  0  0
  4 37  1  0  0  0  0
  4 38  1  0  0  0  0
  5  6  1  0  0  0  0
  5  7  1  0  0  0  0
  6 39  1  0  0  0  0
  6 40  1  0  0  0  0
  6 41  1  0  0  0  0
  7  8  1  0  0  0  0
  7 42  1  0  0  0  0
  7 43  1  0  0  0  0
  8  9  1  0  0  0  0
  8 44  1  0  0  0  0
  8 45  1  0  0  0  0
  9 10  1  0  0  0  0
  9 46  1  0  0  0  0
  9 47  1  0  0  0  0
 10 11  1  0  0  0  0
 10 30  1  0  0  0  0
 11 12  2  0  0  0  0
 11 48  1  0  0  0  0
 12 13  1  0  0  0  0
 12 49  1  0  0  0  0
 13 14  1  0  0  0  0
 13 29  2  0  0  0  0
 14 15  1  0  0  0  0
 14 28  2  0  0  0  0
 15 16  2  0  0  0  0
 15 50  1  0  0  0  0
 16 17  1  0  0  0  0
 16 51  1  0  0  0  0
 17 18  1  0  0  0  0
 17 27  1  0  0  0  0
 18 19  1  0  0  0  0
 18 25  2  0  0  0  0
 19 20  1  0  0  0  0
 19 24  2  0  0  0  0
 20 21  2  0  0  0  0
 20 52  1  0  0  0  0
 21 22  1  0  0  0  0
 21 53  1  0  0  0  0
 22 23  2  0  0  0  0
 22 54  1  0  0  0  0
 23 24  1  0  0  0  0
 23 55  1  0  0  0  0
 24 56  1  0  0  0  0
 25 26  1  0  0  0  0
 25 57  1  0  0  0  0
 26 27  2  0  0  0  0
 27 28  1  0  0  0  0
 28 58  1  0  0  0  0
 29 30  1  0  0  0  0
 29 59  1  0  0  0  0
 30 31  2  0  0  0  0
M  END
$$$$
