CHEMBL2086745
 OpenBabel04072215363D

 60 65  0  0  0  0  0  0  0  0999 V2000
   -3.1590    1.8225   -4.4755 C   0  0  0  0  0  0  0  0  0  0  0  0
   -3.6281    1.5718   -3.1139 N   0  0  0  0  0  0  0  0  0  0  0  0
   -3.7593    0.1241   -2.8924 C   0  0  0  0  0  0  0  0  0  0  0  0
   -4.2817   -0.1825   -1.4859 C   0  0  0  0  0  0  0  0  0  0  0  0
   -3.4664    0.4159   -0.4231 N   0  0  0  0  0  0  0  0  0  0  0  0
   -3.1967   -0.1498    0.8347 C   0  0  0  0  0  0  0  0  0  0  0  0
   -2.4665    0.3967    1.6583 O   0  0  0  0  0  0  0  0  0  0  0  0
   -3.7909   -1.4732    1.2189 C   0  0  0  0  0  0  0  0  0  0  0  0
   -5.1227   -1.7804    0.8786 C   0  0  0  0  0  0  0  0  0  0  0  0
   -5.6450   -3.0490    1.1009 C   0  0  0  0  0  0  0  0  0  0  0  0
   -4.8550   -3.9448    1.7902 C   0  0  0  0  0  0  0  0  0  0  0  0
   -3.5794   -3.6421    2.2857 C   0  0  0  0  0  0  0  0  0  0  0  0
   -3.0285   -2.3983    1.9749 C   0  0  0  0  0  0  0  0  0  0  0  0
   -3.1561   -4.8485    3.0649 C   0  0  0  0  0  0  0  0  0  0  0  0
   -2.0923   -5.0586    3.8805 C   0  0  0  0  0  0  0  0  0  0  0  0
   -1.1434   -3.9620    4.1530 C   0  0  0  0  0  0  0  0  0  0  0  0
   -1.4123   -3.0583    5.1931 C   0  0  0  0  0  0  0  0  0  0  0  0
   -0.4966   -2.0565    5.5067 C   0  0  0  0  0  0  0  0  0  0  0  0
    0.6861   -1.9478    4.7777 C   0  0  0  0  0  0  0  0  0  0  0  0
    0.9553   -2.8383    3.7375 C   0  0  0  0  0  0  0  0  0  0  0  0
    0.0457   -3.8494    3.4265 C   0  0  0  0  0  0  0  0  0  0  0  0
   -1.9604   -6.2844    4.6141 C   0  0  0  0  0  0  0  0  0  0  0  0
   -1.3368   -7.4218    4.3613 N   0  0  0  0  0  0  0  0  0  0  0  0
   -1.5834   -8.2305    5.4554 C   0  0  0  0  0  0  0  0  0  0  0  0
   -1.2107   -9.5611    5.7161 C   0  0  0  0  0  0  0  0  0  0  0  0
   -1.6366  -10.1629    6.9123 C   0  0  0  0  0  0  0  0  0  0  0  0
   -2.4010   -9.4526    7.8406 C   0  0  0  0  0  0  0  0  0  0  0  0
   -2.7460   -8.1170    7.6184 C   0  0  0  0  0  0  0  0  0  0  0  0
   -2.3259   -7.5543    6.4174 C   0  0  0  0  0  0  0  0  0  0  0  0
   -2.5015   -6.3085    5.8775 N   0  0  0  0  0  0  0  0  0  0  0  0
   -4.2795   -5.8634    2.8958 C   0  0  0  0  0  0  0  0  0  0  0  0
   -4.4090   -6.9684    3.3866 O   0  0  0  0  0  0  0  0  0  0  0  0
   -5.2294   -5.2362    2.1158 N   0  0  0  0  0  0  0  0  0  0  0  0
   -3.1370    1.8319   -0.6524 C   0  0  0  0  0  0  0  0  0  0  0  0
   -2.6966    2.1284   -2.1078 C   0  0  0  0  0  0  0  0  0  0  0  0
   -3.8692    1.4089   -5.2018 H   0  0  0  0  0  0  0  0  0  0  0  0
   -2.1782    1.3727   -4.6670 H   0  0  0  0  0  0  0  0  0  0  0  0
   -3.0973    2.8971   -4.6738 H   0  0  0  0  0  0  0  0  0  0  0  0
   -2.7938   -0.3796   -3.0329 H   0  0  0  0  0  0  0  0  0  0  0  0
   -4.4645   -0.3034   -3.6155 H   0  0  0  0  0  0  0  0  0  0  0  0
   -4.3160   -1.2676   -1.3867 H   0  0  0  0  0  0  0  0  0  0  0  0
   -5.2967    0.2216   -1.3776 H   0  0  0  0  0  0  0  0  0  0  0  0
   -5.7609   -1.0348    0.4140 H   0  0  0  0  0  0  0  0  0  0  0  0
   -6.6414   -3.3058    0.7601 H   0  0  0  0  0  0  0  0  0  0  0  0
   -2.0311   -2.1170    2.2996 H   0  0  0  0  0  0  0  0  0  0  0  0
   -2.3308   -3.1321    5.7700 H   0  0  0  0  0  0  0  0  0  0  0  0
   -0.7031   -1.3644    6.3187 H   0  0  0  0  0  0  0  0  0  0  0  0
    1.4017   -1.1667    5.0227 H   0  0  0  0  0  0  0  0  0  0  0  0
    1.8805   -2.7501    3.1739 H   0  0  0  0  0  0  0  0  0  0  0  0
    0.2712   -4.5517    2.6268 H   0  0  0  0  0  0  0  0  0  0  0  0
   -0.6171  -10.1142    4.9973 H   0  0  0  0  0  0  0  0  0  0  0  0
   -1.3746  -11.1984    7.1155 H   0  0  0  0  0  0  0  0  0  0  0  0
   -2.7346   -9.9440    8.7521 H   0  0  0  0  0  0  0  0  0  0  0  0
   -3.3367   -7.5592    8.3383 H   0  0  0  0  0  0  0  0  0  0  0  0
   -2.9769   -5.5419    6.3232 H   0  0  0  0  0  0  0  0  0  0  0  0
   -6.1020   -5.6810    1.8750 H   0  0  0  0  0  0  0  0  0  0  0  0
   -2.3596    2.1689    0.0412 H   0  0  0  0  0  0  0  0  0  0  0  0
   -4.0448    2.4053   -0.4235 H   0  0  0  0  0  0  0  0  0  0  0  0
   -1.6898    1.7181   -2.2604 H   0  0  0  0  0  0  0  0  0  0  0  0
   -2.6306    3.2158   -2.2351 H   0  0  0  0  0  0  0  0  0  0  0  0
  1  2  1  0  0  0  0
  1 36  1  0  0  0  0
  1 37  1  0  0  0  0
  1 38  1  0  0  0  0
  2  3  1  0  0  0  0
  2 35  1  0  0  0  0
  3  4  1  0  0  0  0
  3 39  1  0  0  0  0
  3 40  1  0  0  0  0
  4  5  1  0  0  0  0
  4 41  1  0  0  0  0
  4 42  1  0  0  0  0
  5  6  1  0  0  0  0
  5 34  1  0  0  0  0
  6  7  2  0  0  0  0
  6  8  1  0  0  0  0
  8  9  1  0  0  0  0
  8 13  2  0  0  0  0
  9 10  2  0  0  0  0
  9 43  1  0  0  0  0
 10 11  1  0  0  0  0
 10 44  1  0  0  0  0
 11 12  2  0  0  0  0
 11 33  1  0  0  0  0
 12 13  1  0  0  0  0
 12 14  1  0  0  0  0
 13 45  1  0  0  0  0
 14 15  2  3  0  0  0
 14 31  1  0  0  0  0
 15 16  1  0  0  0  0
 15 22  1  0  0  0  0
 16 17  1  0  0  0  0
 16 21  2  0  0  0  0
 17 18  2  0  0  0  0
 17 46  1  0  0  0  0
 18 19  1  0  0  0  0
 18 47  1  0  0  0  0
 19 20  2  0  0  0  0
 19 48  1  0  0  0  0
 20 21  1  0  0  0  0
 20 49  1  0  0  0  0
 21 50  1  0  0  0  0
 22 23  2  0  0  0  0
 22 30  1  0  0  0  0
 23 24  1  0  0  0  0
 24 25  1  0  0  0  0
 24 29  2  0  0  0  0
 25 26  2  0  0  0  0
 25 51  1  0  0  0  0
 26 27  1  0  0  0  0
 26 52  1  0  0  0  0
 27 28  2  0  0  0  0
 27 53  1  0  0  0  0
 28 29  1  0  0  0  0
 28 54  1  0  0  0  0
 29 30  1  0  0  0  0
 30 55  1  0  0  0  0
 31 32  2  0  0  0  0
 31 33  1  0  0  0  0
 33 56  1  0  0  0  0
 34 35  1  0  0  0  0
 34 57  1  0  0  0  0
 34 58  1  0  0  0  0
 35 59  1  0  0  0  0
 35 60  1  0  0  0  0
M  END
$$$$
