CHEMBL3919314
 OpenBabel04072215373D

 64 68  0  0  0  0  0  0  0  0999 V2000
    0.9498   -0.3798    0.5484 O   0  0  0  0  0  0  0  0  0  0  0  0
    2.0887   -0.0371    0.2637 C   0  0  0  0  0  0  0  0  0  0  0  0
    2.6752    1.1529    0.6706 N   0  0  0  0  0  0  0  0  0  0  0  0
    2.0455    2.1800    1.4227 C   0  0  0  0  0  0  0  0  0  0  0  0
    0.8500    2.0179    2.1297 C   0  0  0  0  0  0  0  0  0  0  0  0
    0.2213    3.1139    2.7518 C   0  0  0  0  0  0  0  0  0  0  0  0
    0.7857    4.3902    2.6839 C   0  0  0  0  0  0  0  0  0  0  0  0
    0.1062    5.5375    3.2281 C   0  0  0  0  0  0  0  0  0  0  0  0
   -0.4932    6.4934    3.6519 C   0  0  0  0  0  0  0  0  0  0  0  0
   -1.3029    7.5687    4.1909 C   0  0  0  0  0  0  0  0  0  0  0  0
   -2.5475    7.2592    4.9369 C   0  0  0  0  0  0  0  0  0  0  0  0
   -3.2381    8.2906    5.4348 C   0  0  0  0  0  0  0  0  0  0  0  0
   -2.7560    9.5987    5.2227 C   0  0  0  0  0  0  0  0  0  0  0  0
   -3.2357   10.7547    5.6174 N   0  0  0  0  0  0  0  0  0  0  0  0
   -2.3852   11.6908    5.1024 C   0  0  0  0  0  0  0  0  0  0  0  0
   -2.5816   13.0333    5.3001 N   0  0  0  0  0  0  0  0  0  0  0  0
   -3.6030   13.6381    5.9884 C   0  0  0  0  0  0  0  0  0  0  0  0
   -3.6142   14.8676    6.0378 O   0  0  0  0  0  0  0  0  0  0  0  0
   -4.5182   12.8090    6.5866 N   0  0  0  0  0  0  0  0  0  0  0  0
   -5.6428   13.1796    7.3493 C   0  0  0  0  0  0  0  0  0  0  0  0
   -6.1847   14.4652    7.3198 C   0  0  0  0  0  0  0  0  0  0  0  0
   -7.2406   14.8278    8.1732 C   0  0  0  0  0  0  0  0  0  0  0  0
   -7.7544   16.2470    8.1817 C   0  0  0  0  0  0  0  0  0  0  0  0
   -7.1370   17.0639    7.2845 F   0  0  0  0  0  0  0  0  0  0  0  0
   -9.0843   16.3216    7.8980 F   0  0  0  0  0  0  0  0  0  0  0  0
   -7.5981   16.8425    9.3967 F   0  0  0  0  0  0  0  0  0  0  0  0
   -7.7822   13.8645    9.0396 C   0  0  0  0  0  0  0  0  0  0  0  0
   -7.2877   12.5595    9.0345 C   0  0  0  0  0  0  0  0  0  0  0  0
   -6.2318   12.2254    8.1876 C   0  0  0  0  0  0  0  0  0  0  0  0
   -5.7533   10.9713    8.2204 F   0  0  0  0  0  0  0  0  0  0  0  0
   -1.3601   11.1004    4.3994 C   0  0  0  0  0  0  0  0  0  0  0  0
   -1.5931    9.7475    4.4831 N   0  0  0  0  0  0  0  0  0  0  0  0
   -0.8174    8.7473    3.9447 N   0  0  0  0  0  0  0  0  0  0  0  0
    2.0148    4.5418    2.0413 C   0  0  0  0  0  0  0  0  0  0  0  0
    2.6446    3.4454    1.4260 C   0  0  0  0  0  0  0  0  0  0  0  0
    2.9468   -0.7899   -0.5334 N   0  0  0  0  0  0  0  0  0  0  0  0
    2.5903   -1.9889   -1.2088 C   0  0  0  0  0  0  0  0  0  0  0  0
    1.2661   -2.3456   -1.4841 C   0  0  0  0  0  0  0  0  0  0  0  0
    0.9475   -3.5873   -2.0651 C   0  0  0  0  0  0  0  0  0  0  0  0
   -0.4949   -3.9914   -2.2678 C   0  0  0  0  0  0  0  0  0  0  0  0
   -1.3931   -3.0527   -1.8617 F   0  0  0  0  0  0  0  0  0  0  0  0
   -0.7854   -4.2440   -3.5740 F   0  0  0  0  0  0  0  0  0  0  0  0
   -0.8112   -5.1290   -1.5888 F   0  0  0  0  0  0  0  0  0  0  0  0
    1.9870   -4.4596   -2.4234 C   0  0  0  0  0  0  0  0  0  0  0  0
    3.3162   -4.0899   -2.2117 C   0  0  0  0  0  0  0  0  0  0  0  0
    3.6062   -2.8631   -1.6132 C   0  0  0  0  0  0  0  0  0  0  0  0
    4.8900   -2.5375   -1.3944 F   0  0  0  0  0  0  0  0  0  0  0  0
    3.5302    1.4062    0.1981 H   0  0  0  0  0  0  0  0  0  0  0  0
    0.3678    1.0468    2.2087 H   0  0  0  0  0  0  0  0  0  0  0  0
   -0.7224    2.9494    3.2665 H   0  0  0  0  0  0  0  0  0  0  0  0
   -2.8546    6.2303    5.0549 H   0  0  0  0  0  0  0  0  0  0  0  0
   -4.1584    8.1609    5.9920 H   0  0  0  0  0  0  0  0  0  0  0  0
   -1.9195   13.6804    4.8968 H   0  0  0  0  0  0  0  0  0  0  0  0
   -4.2591   11.8219    6.5969 H   0  0  0  0  0  0  0  0  0  0  0  0
   -5.7944   15.2106    6.6307 H   0  0  0  0  0  0  0  0  0  0  0  0
   -8.5857   14.1335    9.7243 H   0  0  0  0  0  0  0  0  0  0  0  0
   -7.7014   11.8079    9.7006 H   0  0  0  0  0  0  0  0  0  0  0  0
   -0.5114   11.4931    3.8606 H   0  0  0  0  0  0  0  0  0  0  0  0
    2.4849    5.5215    1.9890 H   0  0  0  0  0  0  0  0  0  0  0  0
    3.5893    3.6135    0.9161 H   0  0  0  0  0  0  0  0  0  0  0  0
    3.9412   -0.6411   -0.4151 H   0  0  0  0  0  0  0  0  0  0  0  0
    0.4500   -1.6666   -1.2455 H   0  0  0  0  0  0  0  0  0  0  0  0
    1.7591   -5.4309   -2.8622 H   0  0  0  0  0  0  0  0  0  0  0  0
    4.1246   -4.7605   -2.4896 H   0  0  0  0  0  0  0  0  0  0  0  0
  1  2  2  0  0  0  0
  2  3  1  0  0  0  0
  2 36  1  0  0  0  0
  3  4  1  0  0  0  0
  3 48  1  0  0  0  0
  4  5  1  0  0  0  0
  4 35  2  0  0  0  0
  5  6  2  0  0  0  0
  5 49  1  0  0  0  0
  6  7  1  0  0  0  0
  6 50  1  0  0  0  0
  7  8  1  0  0  0  0
  7 34  2  0  0  0  0
  8  9  3  0  0  0  0
  9 10  1  0  0  0  0
 10 11  1  0  0  0  0
 10 33  2  0  0  0  0
 11 12  2  0  0  0  0
 11 51  1  0  0  0  0
 12 13  1  0  0  0  0
 12 52  1  0  0  0  0
 13 14  2  0  0  0  0
 13 32  1  0  0  0  0
 14 15  1  0  0  0  0
 15 16  1  0  0  0  0
 15 31  2  0  0  0  0
 16 17  1  0  0  0  0
 16 53  1  0  0  0  0
 17 18  2  0  0  0  0
 17 19  1  0  0  0  0
 19 20  1  0  0  0  0
 19 54  1  0  0  0  0
 20 21  1  0  0  0  0
 20 29  2  0  0  0  0
 21 22  2  0  0  0  0
 21 55  1  0  0  0  0
 22 23  1  0  0  0  0
 22 27  1  0  0  0  0
 23 24  1  0  0  0  0
 23 25  1  0  0  0  0
 23 26  1  0  0  0  0
 27 28  2  0  0  0  0
 27 56  1  0  0  0  0
 28 29  1  0  0  0  0
 28 57  1  0  0  0  0
 29 30  1  0  0  0  0
 31 32  1  0  0  0  0
 31 58  1  0  0  0  0
 32 33  1  0  0  0  0
 34 35  1  0  0  0  0
 34 59  1  0  0  0  0
 35 60  1  0  0  0  0
 36 37  1  0  0  0  0
 36 61  1  0  0  0  0
 37 38  1  0  0  0  0
 37 46  2  0  0  0  0
 38 39  2  0  0  0  0
 38 62  1  0  0  0  0
 39 40  1  0  0  0  0
 39 44  1  0  0  0  0
 40 41  1  0  0  0  0
 40 42  1  0  0  0  0
 40 43  1  0  0  0  0
 44 45  2  0  0  0  0
 44 63  1  0  0  0  0
 45 46  1  0  0  0  0
 45 64  1  0  0  0  0
 46 47  1  0  0  0  0
M  END
$$$$
