CHEMBL4457815
 OpenBabel04072215383D

 55 58  0  0  0  0  0  0  0  0999 V2000
    0.7903   -0.6814    0.4427 C   0  0  0  0  0  0  0  0  0  0  0  0
    2.1730   -0.6488    0.7847 O   0  0  0  0  0  0  0  0  0  0  0  0
    2.7770   -1.8576    1.0098 C   0  0  0  0  0  0  0  0  0  0  0  0
    2.1280   -3.0951    0.9947 C   0  0  0  0  0  0  0  0  0  0  0  0
    2.8505   -4.2591    1.2352 C   0  0  0  0  0  0  0  0  0  0  0  0
    4.2220   -4.1969    1.4639 C   0  0  0  0  0  0  0  0  0  0  0  0
    4.8987   -2.9711    1.4389 C   0  0  0  0  0  0  0  0  0  0  0  0
    6.3041   -2.8838    1.5921 N   0  0  0  0  0  0  0  0  0  0  0  0
    7.1680   -3.9161    1.2772 C   0  0  0  0  0  0  0  0  0  0  0  0
    6.8279   -4.9576    0.7128 O   0  0  0  0  0  0  0  0  0  0  0  0
    8.4712   -3.6555    1.6784 N   0  0  0  0  0  0  0  0  0  0  0  0
    9.4627   -4.6310    1.4483 C   0  0  0  0  0  0  0  0  0  0  0  0
    9.5886   -5.2447    0.1818 C   0  0  0  0  0  0  0  0  0  0  0  0
   10.4471   -6.3258   -0.0088 C   0  0  0  0  0  0  0  0  0  0  0  0
   11.1879   -6.8016    1.0774 C   0  0  0  0  0  0  0  0  0  0  0  0
   12.0185   -8.0058    0.8870 C   0  0  0  0  0  0  0  0  0  0  0  0
   12.8112   -8.0660   -0.0466 O   0  0  0  0  0  0  0  0  0  0  0  0
   11.8193   -8.9770    1.8620 N   0  0  0  0  0  0  0  0  0  0  0  0
   12.9318   -9.6147    2.3392 N   0  0  0  0  0  0  0  0  0  0  0  0
   12.7924  -10.2564    3.4550 C   0  0  0  0  0  0  0  0  0  0  0  0
   11.5139  -10.6108    4.2219 C   0  0  0  0  0  0  0  0  0  0  0  0
   10.3998  -10.6842    3.7515 O   0  0  0  0  0  0  0  0  0  0  0  0
   11.8984  -10.6845    5.5432 N   0  0  0  0  0  0  0  0  0  0  0  0
   13.2322  -10.3061    5.6587 C   0  0  0  0  0  0  0  0  0  0  0  0
   13.8256   -9.7043    6.7456 C   0  0  0  0  0  0  0  0  0  0  0  0
   15.1169   -9.1878    6.5632 C   0  0  0  0  0  0  0  0  0  0  0  0
   15.8238   -9.3773    5.3542 C   0  0  0  0  0  0  0  0  0  0  0  0
   17.0983   -8.9417    5.1126 O   0  0  0  0  0  0  0  0  0  0  0  0
   17.8797   -8.6478    6.2625 C   0  0  0  0  0  0  0  0  0  0  0  0
   15.1893   -9.9462    4.2530 C   0  0  0  0  0  0  0  0  0  0  0  0
   13.8778  -10.3321    4.4274 C   0  0  0  0  0  0  0  0  0  0  0  0
   11.1371   -6.1338    2.3025 C   0  0  0  0  0  0  0  0  0  0  0  0
   10.3077   -5.0362    2.4864 C   0  0  0  0  0  0  0  0  0  0  0  0
    4.1576   -1.8010    1.2539 C   0  0  0  0  0  0  0  0  0  0  0  0
    0.4712    0.3420    0.2277 H   0  0  0  0  0  0  0  0  0  0  0  0
    0.1889   -1.0500    1.2806 H   0  0  0  0  0  0  0  0  0  0  0  0
    0.6150   -1.2775   -0.4599 H   0  0  0  0  0  0  0  0  0  0  0  0
    1.0674   -3.1883    0.7983 H   0  0  0  0  0  0  0  0  0  0  0  0
    2.3494   -5.2250    1.2333 H   0  0  0  0  0  0  0  0  0  0  0  0
    4.7480   -5.1293    1.6528 H   0  0  0  0  0  0  0  0  0  0  0  0
    6.7137   -1.9600    1.5986 H   0  0  0  0  0  0  0  0  0  0  0  0
    8.5292   -3.1521    2.5550 H   0  0  0  0  0  0  0  0  0  0  0  0
    8.9704   -4.9081   -0.6500 H   0  0  0  0  0  0  0  0  0  0  0  0
   10.5084   -6.8079   -0.9768 H   0  0  0  0  0  0  0  0  0  0  0  0
   11.0388   -8.8625    2.5057 H   0  0  0  0  0  0  0  0  0  0  0  0
   11.2503  -10.8464    6.3004 H   0  0  0  0  0  0  0  0  0  0  0  0
   13.2672   -9.4842    7.6496 H   0  0  0  0  0  0  0  0  0  0  0  0
   15.5347   -8.5725    7.3550 H   0  0  0  0  0  0  0  0  0  0  0  0
   18.9173   -8.5276    5.9393 H   0  0  0  0  0  0  0  0  0  0  0  0
   17.8468   -9.4676    6.9881 H   0  0  0  0  0  0  0  0  0  0  0  0
   17.5561   -7.7064    6.7151 H   0  0  0  0  0  0  0  0  0  0  0  0
   15.6640   -9.9854    3.2795 H   0  0  0  0  0  0  0  0  0  0  0  0
   11.7600   -6.4770    3.1326 H   0  0  0  0  0  0  0  0  0  0  0  0
   10.2401   -4.5519    3.4600 H   0  0  0  0  0  0  0  0  0  0  0  0
    4.6467   -0.8296    1.2496 H   0  0  0  0  0  0  0  0  0  0  0  0
  1  2  1  0  0  0  0
  1 35  1  0  0  0  0
  1 36  1  0  0  0  0
  1 37  1  0  0  0  0
  2  3  1  0  0  0  0
  3  4  1  0  0  0  0
  3 34  2  0  0  0  0
  4  5  2  0  0  0  0
  4 38  1  0  0  0  0
  5  6  1  0  0  0  0
  5 39  1  0  0  0  0
  6  7  2  0  0  0  0
  6 40  1  0  0  0  0
  7  8  1  0  0  0  0
  7 34  1  0  0  0  0
  8  9  1  0  0  0  0
  8 41  1  0  0  0  0
  9 10  2  0  0  0  0
  9 11  1  0  0  0  0
 11 12  1  0  0  0  0
 11 42  1  0  0  0  0
 12 13  1  0  0  0  0
 12 33  2  0  0  0  0
 13 14  2  0  0  0  0
 13 43  1  0  0  0  0
 14 15  1  0  0  0  0
 14 44  1  0  0  0  0
 15 16  1  0  0  0  0
 15 32  2  0  0  0  0
 16 17  2  0  0  0  0
 16 18  1  0  0  0  0
 18 19  1  0  0  0  0
 18 45  1  0  0  0  0
 19 20  2  0  0  0  0
 20 21  1  0  0  0  0
 20 31  1  0  0  0  0
 21 22  2  0  0  0  0
 21 23  1  0  0  0  0
 23 24  1  0  0  0  0
 23 46  1  0  0  0  0
 24 25  1  0  0  0  0
 24 31  2  0  0  0  0
 25 26  2  0  0  0  0
 25 47  1  0  0  0  0
 26 27  1  0  0  0  0
 26 48  1  0  0  0  0
 27 28  1  0  0  0  0
 27 30  2  0  0  0  0
 28 29  1  0  0  0  0
 29 49  1  0  0  0  0
 29 50  1  0  0  0  0
 29 51  1  0  0  0  0
 30 31  1  0  0  0  0
 30 52  1  0  0  0  0
 32 33  1  0  0  0  0
 32 53  1  0  0  0  0
 33 54  1  0  0  0  0
 34 55  1  0  0  0  0
M  END
$$$$
