CHEMBL3690410
 OpenBabel04072215373D

 48 51  0  0  0  0  0  0  0  0999 V2000
    2.4623   -0.1695   -1.2185 O   0  0  0  0  0  0  0  0  0  0  0  0
    2.3728   -0.5737   -0.0671 C   0  0  0  0  0  0  0  0  0  0  0  0
    1.3021   -1.3475    0.3293 N   0  0  0  0  0  0  0  0  0  0  0  0
    0.1896   -1.5392   -0.6103 C   0  0  0  0  0  0  0  0  0  0  0  0
   -0.8499   -0.4089   -0.6333 C   0  0  0  0  0  0  0  0  0  0  0  0
   -0.5634    0.5623    0.2648 F   0  0  0  0  0  0  0  0  0  0  0  0
   -0.9633    0.1625   -1.8493 F   0  0  0  0  0  0  0  0  0  0  0  0
   -2.0707   -0.8985   -0.2999 F   0  0  0  0  0  0  0  0  0  0  0  0
    3.2631   -0.3660    0.9642 N   0  0  0  0  0  0  0  0  0  0  0  0
    4.4756    0.3580    0.9032 C   0  0  0  0  0  0  0  0  0  0  0  0
    4.9469    0.9507   -0.2690 C   0  0  0  0  0  0  0  0  0  0  0  0
    6.1857    1.5820   -0.2957 C   0  0  0  0  0  0  0  0  0  0  0  0
    6.9479    1.6615    0.8632 C   0  0  0  0  0  0  0  0  0  0  0  0
    6.4473    1.1992    2.0857 C   0  0  0  0  0  0  0  0  0  0  0  0
    7.1502    1.4941    3.3433 C   0  0  0  0  0  0  0  0  0  0  0  0
    7.2756    0.7412    4.5011 C   0  0  0  0  0  0  0  0  0  0  0  0
    7.9907    1.3970    5.4691 N   0  0  0  0  0  0  0  0  0  0  0  0
    8.3056    2.5587    4.9385 C   0  0  0  0  0  0  0  0  0  0  0  0
    9.0442    3.6542    5.4796 C   0  0  0  0  0  0  0  0  0  0  0  0
    9.2620    4.7779    4.7556 C   0  0  0  0  0  0  0  0  0  0  0  0
   10.0585    5.8908    5.3468 C   0  0  0  0  0  0  0  0  0  0  0  0
   10.5247    5.7499    6.5984 N   0  0  0  0  0  0  0  0  0  0  0  0
   11.2595    6.7601    7.0881 C   0  0  0  0  0  0  0  0  0  0  0  0
   11.5479    7.9014    6.3792 C   0  0  0  0  0  0  0  0  0  0  0  0
   11.0293    7.9821    5.0981 C   0  0  0  0  0  0  0  0  0  0  0  0
   11.2892    9.2133    4.2489 C   0  0  0  0  0  0  0  0  0  0  0  0
   12.0630   10.1465    4.8800 F   0  0  0  0  0  0  0  0  0  0  0  0
   11.9394    8.9314    3.0844 F   0  0  0  0  0  0  0  0  0  0  0  0
   10.1473    9.8686    3.8965 F   0  0  0  0  0  0  0  0  0  0  0  0
   10.2798    6.9728    4.5746 N   0  0  0  0  0  0  0  0  0  0  0  0
    8.6957    4.8720    3.4040 C   0  0  0  0  0  0  0  0  0  0  0  0
    7.9779    3.8572    2.9038 C   0  0  0  0  0  0  0  0  0  0  0  0
    7.8016    2.6885    3.6487 N   0  0  0  0  0  0  0  0  0  0  0  0
    5.2310    0.4922    2.0818 C   0  0  0  0  0  0  0  0  0  0  0  0
    1.0593   -1.3061    1.3084 H   0  0  0  0  0  0  0  0  0  0  0  0
   -0.2935   -2.4785   -0.3244 H   0  0  0  0  0  0  0  0  0  0  0  0
    0.5940   -1.6789   -1.6198 H   0  0  0  0  0  0  0  0  0  0  0  0
    3.0543   -0.8208    1.8396 H   0  0  0  0  0  0  0  0  0  0  0  0
    4.3844    0.9247   -1.1957 H   0  0  0  0  0  0  0  0  0  0  0  0
    6.5510    2.0187   -1.2212 H   0  0  0  0  0  0  0  0  0  0  0  0
    7.9307    2.1200    0.7952 H   0  0  0  0  0  0  0  0  0  0  0  0
    6.8896   -0.2515    4.6879 H   0  0  0  0  0  0  0  0  0  0  0  0
    9.4234    3.5332    6.4865 H   0  0  0  0  0  0  0  0  0  0  0  0
   11.6228    6.6165    8.1010 H   0  0  0  0  0  0  0  0  0  0  0  0
   12.1511    8.6896    6.8109 H   0  0  0  0  0  0  0  0  0  0  0  0
    8.8585    5.7751    2.8221 H   0  0  0  0  0  0  0  0  0  0  0  0
    7.5284    3.9274    1.9244 H   0  0  0  0  0  0  0  0  0  0  0  0
    4.8553    0.0743    3.0128 H   0  0  0  0  0  0  0  0  0  0  0  0
  1  2  2  0  0  0  0
  2  3  1  0  0  0  0
  2  9  1  0  0  0  0
  3  4  1  0  0  0  0
  3 35  1  0  0  0  0
  4  5  1  0  0  0  0
  4 36  1  0  0  0  0
  4 37  1  0  0  0  0
  5  6  1  0  0  0  0
  5  7  1  0  0  0  0
  5  8  1  0  0  0  0
  9 10  1  0  0  0  0
  9 38  1  0  0  0  0
 10 11  1  0  0  0  0
 10 34  2  0  0  0  0
 11 12  2  0  0  0  0
 11 39  1  0  0  0  0
 12 13  1  0  0  0  0
 12 40  1  0  0  0  0
 13 14  2  0  0  0  0
 13 41  1  0  0  0  0
 14 15  1  0  0  0  0
 14 34  1  0  0  0  0
 15 16  2  0  0  0  0
 15 33  1  0  0  0  0
 16 17  1  0  0  0  0
 16 42  1  0  0  0  0
 17 18  2  0  0  0  0
 18 19  1  0  0  0  0
 18 33  1  0  0  0  0
 19 20  2  0  0  0  0
 19 43  1  0  0  0  0
 20 21  1  0  0  0  0
 20 31  1  0  0  0  0
 21 22  1  0  0  0  0
 21 30  2  0  0  0  0
 22 23  2  0  0  0  0
 23 24  1  0  0  0  0
 23 44  1  0  0  0  0
 24 25  2  0  0  0  0
 24 45  1  0  0  0  0
 25 26  1  0  0  0  0
 25 30  1  0  0  0  0
 26 27  1  0  0  0  0
 26 28  1  0  0  0  0
 26 29  1  0  0  0  0
 31 32  2  0  0  0  0
 31 46  1  0  0  0  0
 32 33  1  0  0  0  0
 32 47  1  0  0  0  0
 34 48  1  0  0  0  0
M  END
$$$$
