CHEMBL272827
 OpenBabel04072215363D

 47 50  0  0  0  0  0  0  0  0999 V2000
    2.1162   -0.5946    0.4328 C   0  0  0  0  0  0  0  0  0  0  0  0
    3.5081   -0.3089    0.6794 N   0  0  0  0  0  0  0  0  0  0  0  0
    3.9236    0.9553    1.0429 C   0  0  0  0  0  0  0  0  0  0  0  0
    3.1123    1.8385    1.7361 C   0  0  0  0  0  0  0  0  0  0  0  0
    3.6549    3.0108    2.2602 C   0  0  0  0  0  0  0  0  0  0  0  0
    2.9540    3.8837    3.0666 O   0  0  0  0  0  0  0  0  0  0  0  0
    1.9397    3.3848    3.8572 C   0  0  0  0  0  0  0  0  0  0  0  0
    2.0004    2.1562    4.5067 C   0  0  0  0  0  0  0  0  0  0  0  0
    0.8851    1.6684    5.1899 C   0  0  0  0  0  0  0  0  0  0  0  0
   -0.2972    2.4319    5.3449 C   0  0  0  0  0  0  0  0  0  0  0  0
   -1.4628    2.0031    6.0524 C   0  0  0  0  0  0  0  0  0  0  0  0
   -1.5594    0.6392    6.6850 C   0  0  0  0  0  0  0  0  0  0  0  0
   -0.5669    0.1406    7.2022 O   0  0  0  0  0  0  0  0  0  0  0  0
   -2.8178    0.0515    6.6348 N   0  0  0  0  0  0  0  0  0  0  0  0
   -3.1905   -1.2267    7.1096 C   0  0  0  0  0  0  0  0  0  0  0  0
   -2.2929   -2.1618    7.6314 C   0  0  0  0  0  0  0  0  0  0  0  0
   -2.7327   -3.4347    8.0156 C   0  0  0  0  0  0  0  0  0  0  0  0
   -4.0766   -3.7733    7.8938 C   0  0  0  0  0  0  0  0  0  0  0  0
   -4.6093   -5.3489    8.3313 Cl  0  0  0  0  0  0  0  0  0  0  0  0
   -4.9896   -2.8425    7.4080 C   0  0  0  0  0  0  0  0  0  0  0  0
   -4.5463   -1.5747    7.0153 C   0  0  0  0  0  0  0  0  0  0  0  0
   -2.5534    2.8798    6.2044 C   0  0  0  0  0  0  0  0  0  0  0  0
   -2.5314    4.1462    5.6313 C   0  0  0  0  0  0  0  0  0  0  0  0
   -1.4185    4.5599    4.9048 C   0  0  0  0  0  0  0  0  0  0  0  0
   -0.3021    3.7254    4.7554 C   0  0  0  0  0  0  0  0  0  0  0  0
    0.8078    4.1811    4.0156 C   0  0  0  0  0  0  0  0  0  0  0  0
    4.9680    3.3402    1.9628 C   0  0  0  0  0  0  0  0  0  0  0  0
    5.6948    2.4362    1.2105 C   0  0  0  0  0  0  0  0  0  0  0  0
    5.2069    1.2543    0.7669 N   0  0  0  0  0  0  0  0  0  0  0  0
    2.0122   -1.6181    0.0602 H   0  0  0  0  0  0  0  0  0  0  0  0
    1.6958    0.0827   -0.3174 H   0  0  0  0  0  0  0  0  0  0  0  0
    1.5240   -0.5275    1.3533 H   0  0  0  0  0  0  0  0  0  0  0  0
    4.1939   -0.7280    0.0606 H   0  0  0  0  0  0  0  0  0  0  0  0
    2.0764    1.5881    1.9185 H   0  0  0  0  0  0  0  0  0  0  0  0
    2.8932    1.5371    4.4550 H   0  0  0  0  0  0  0  0  0  0  0  0
    0.9700    0.6692    5.6116 H   0  0  0  0  0  0  0  0  0  0  0  0
   -3.5542    0.5686    6.1737 H   0  0  0  0  0  0  0  0  0  0  0  0
   -1.2345   -1.9434    7.7334 H   0  0  0  0  0  0  0  0  0  0  0  0
   -2.0139   -4.1554    8.3973 H   0  0  0  0  0  0  0  0  0  0  0  0
   -6.0425   -3.0980    7.3237 H   0  0  0  0  0  0  0  0  0  0  0  0
   -5.2790   -0.8665    6.6372 H   0  0  0  0  0  0  0  0  0  0  0  0
   -3.4187    2.6028    6.8010 H   0  0  0  0  0  0  0  0  0  0  0  0
   -3.3751    4.8196    5.7584 H   0  0  0  0  0  0  0  0  0  0  0  0
   -1.4226    5.5568    4.4670 H   0  0  0  0  0  0  0  0  0  0  0  0
    0.7915    5.1619    3.5446 H   0  0  0  0  0  0  0  0  0  0  0  0
    5.4158    4.2607    2.3146 H   0  0  0  0  0  0  0  0  0  0  0  0
    6.7324    2.6302    0.9520 H   0  0  0  0  0  0  0  0  0  0  0  0
  1  2  1  0  0  0  0
  1 30  1  0  0  0  0
  1 31  1  0  0  0  0
  1 32  1  0  0  0  0
  2  3  1  0  0  0  0
  2 33  1  0  0  0  0
  3  4  1  0  0  0  0
  3 29  2  0  0  0  0
  4  5  2  0  0  0  0
  4 34  1  0  0  0  0
  5  6  1  0  0  0  0
  5 27  1  0  0  0  0
  6  7  1  0  0  0  0
  7  8  1  0  0  0  0
  7 26  2  0  0  0  0
  8  9  2  0  0  0  0
  8 35  1  0  0  0  0
  9 10  1  0  0  0  0
  9 36  1  0  0  0  0
 10 11  1  0  0  0  0
 10 25  2  0  0  0  0
 11 12  1  0  0  0  0
 11 22  2  0  0  0  0
 12 13  2  0  0  0  0
 12 14  1  0  0  0  0
 14 15  1  0  0  0  0
 14 37  1  0  0  0  0
 15 16  1  0  0  0  0
 15 21  2  0  0  0  0
 16 17  2  0  0  0  0
 16 38  1  0  0  0  0
 17 18  1  0  0  0  0
 17 39  1  0  0  0  0
 18 19  1  0  0  0  0
 18 20  2  0  0  0  0
 20 21  1  0  0  0  0
 20 40  1  0  0  0  0
 21 41  1  0  0  0  0
 22 23  1  0  0  0  0
 22 42  1  0  0  0  0
 23 24  2  0  0  0  0
 23 43  1  0  0  0  0
 24 25  1  0  0  0  0
 24 44  1  0  0  0  0
 25 26  1  0  0  0  0
 26 45  1  0  0  0  0
 27 28  2  0  0  0  0
 27 46  1  0  0  0  0
 28 29  1  0  0  0  0
 28 47  1  0  0  0  0
M  END
$$$$
