CHEMBL1257912
 OpenBabel04072215363D

 39 42  0  0  0  0  0  0  0  0999 V2000
    0.9999    0.1071    0.2888 C   0  0  0  0  0  0  0  0  0  0  0  0
    2.4696    0.4158    0.4128 C   0  0  0  0  0  0  0  0  0  0  0  0
    2.8697    1.5728    0.3947 O   0  0  0  0  0  0  0  0  0  0  0  0
    3.2400   -0.7314    0.5280 N   0  0  0  0  0  0  0  0  0  0  0  0
    4.6444   -0.7840    0.6542 C   0  0  0  0  0  0  0  0  0  0  0  0
    5.4143    0.3237    0.9984 C   0  0  0  0  0  0  0  0  0  0  0  0
    6.8042    0.2297    1.0455 C   0  0  0  0  0  0  0  0  0  0  0  0
    7.4598   -0.9686    0.7227 C   0  0  0  0  0  0  0  0  0  0  0  0
    6.6903   -2.1093    0.4178 C   0  0  0  0  0  0  0  0  0  0  0  0
    5.2835   -2.0069    0.4025 C   0  0  0  0  0  0  0  0  0  0  0  0
    7.3189   -3.4449    0.0860 C   0  0  0  0  0  0  0  0  0  0  0  0
    6.7303   -4.6936    0.7112 C   0  0  0  0  0  0  0  0  0  0  0  0
    6.2934   -4.6318    2.0480 C   0  0  0  0  0  0  0  0  0  0  0  0
    5.8786   -5.7856    2.7220 C   0  0  0  0  0  0  0  0  0  0  0  0
    5.9166   -7.0206    2.0827 C   0  0  0  0  0  0  0  0  0  0  0  0
    6.3367   -7.0986    0.7567 C   0  0  0  0  0  0  0  0  0  0  0  0
    6.7297   -5.9441    0.0628 C   0  0  0  0  0  0  0  0  0  0  0  0
    7.1331   -6.1734   -1.6059 Cl  0  0  0  0  0  0  0  0  0  0  0  0
    8.3623   -3.6536   -0.6638 N   0  0  0  0  0  0  0  0  0  0  0  0
    9.0810   -2.5875   -1.1832 C   0  0  0  0  0  0  0  0  0  0  0  0
    9.7601   -2.6129   -2.3700 C   0  0  0  0  0  0  0  0  0  0  0  0
   10.4553   -1.4407   -2.4049 N   0  0  0  0  0  0  0  0  0  0  0  0
   10.2890   -0.6700   -1.3113 N   0  0  0  0  0  0  0  0  0  0  0  0
    9.4204   -1.3650   -0.5734 C   0  0  0  0  0  0  0  0  0  0  0  0
    8.8677   -0.9213    0.5760 N   0  0  0  0  0  0  0  0  0  0  0  0
    0.4638    1.0087   -0.0233 H   0  0  0  0  0  0  0  0  0  0  0  0
    0.6146   -0.2207    1.2574 H   0  0  0  0  0  0  0  0  0  0  0  0
    0.8332   -0.6686   -0.4637 H   0  0  0  0  0  0  0  0  0  0  0  0
    2.7656   -1.6133    0.3777 H   0  0  0  0  0  0  0  0  0  0  0  0
    4.9677    1.2884    1.2207 H   0  0  0  0  0  0  0  0  0  0  0  0
    7.3749    1.1302    1.2620 H   0  0  0  0  0  0  0  0  0  0  0  0
    4.6882   -2.8762    0.1347 H   0  0  0  0  0  0  0  0  0  0  0  0
    6.3055   -3.6940    2.5984 H   0  0  0  0  0  0  0  0  0  0  0  0
    5.5514   -5.7221    3.7572 H   0  0  0  0  0  0  0  0  0  0  0  0
    5.6264   -7.9234    2.6153 H   0  0  0  0  0  0  0  0  0  0  0  0
    6.3654   -8.0686    0.2649 H   0  0  0  0  0  0  0  0  0  0  0  0
    9.8256   -3.3497   -3.1554 H   0  0  0  0  0  0  0  0  0  0  0  0
   11.0738   -1.1062   -3.1356 H   0  0  0  0  0  0  0  0  0  0  0  0
    9.2561   -0.0329    0.8721 H   0  0  0  0  0  0  0  0  0  0  0  0
  1  2  1  0  0  0  0
  1 26  1  0  0  0  0
  1 27  1  0  0  0  0
  1 28  1  0  0  0  0
  2  3  2  0  0  0  0
  2  4  1  0  0  0  0
  4  5  1  0  0  0  0
  4 29  1  0  0  0  0
  5  6  1  0  0  0  0
  5 10  2  0  0  0  0
  6  7  2  0  0  0  0
  6 30  1  0  0  0  0
  7  8  1  0  0  0  0
  7 31  1  0  0  0  0
  8  9  2  0  0  0  0
  8 25  1  0  0  0  0
  9 10  1  0  0  0  0
  9 11  1  0  0  0  0
 10 32  1  0  0  0  0
 11 12  1  0  0  0  0
 11 19  2  0  0  0  0
 12 13  1  0  0  0  0
 12 17  2  0  0  0  0
 13 14  2  0  0  0  0
 13 33  1  0  0  0  0
 14 15  1  0  0  0  0
 14 34  1  0  0  0  0
 15 16  2  0  0  0  0
 15 35  1  0  0  0  0
 16 17  1  0  0  0  0
 16 36  1  0  0  0  0
 17 18  1  0  0  0  0
 19 20  1  0  0  0  0
 20 21  2  0  0  0  0
 20 24  1  0  0  0  0
 21 22  1  0  0  0  0
 21 37  1  0  0  0  0
 22 23  1  0  0  0  0
 22 38  1  0  0  0  0
 23 24  2  0  0  0  0
 24 25  1  0  0  0  0
 25 39  1  0  0  0  0
M  END
$$$$
