CHEMBL3671577
 OpenBabel04072215373D

 60 63  0  0  0  0  0  0  0  0999 V2000
    2.3384    1.2390   -1.8898 C   0  0  0  0  0  0  0  0  0  0  0  0
    2.8910    0.7151   -0.7897 C   0  0  0  0  0  0  0  0  0  0  0  0
    3.5078    1.5834    0.2475 C   0  0  0  0  0  0  0  0  0  0  0  0
    3.2516    2.7734    0.3457 O   0  0  0  0  0  0  0  0  0  0  0  0
    4.4143    0.8712    1.0215 N   0  0  0  0  0  0  0  0  0  0  0  0
    5.1522    1.5558    2.0093 C   0  0  0  0  0  0  0  0  0  0  0  0
    6.3364    2.1818    1.6159 C   0  0  0  0  0  0  0  0  0  0  0  0
    7.0694    2.9718    2.5307 C   0  0  0  0  0  0  0  0  0  0  0  0
    8.2078    3.7300    2.2070 C   0  0  0  0  0  0  0  0  0  0  0  0
    8.6669    3.7868    0.8632 N   0  0  0  0  0  0  0  0  0  0  0  0
    9.5269    4.7967    0.3678 C   0  0  0  0  0  0  0  0  0  0  0  0
    9.3217    6.1439    0.6975 C   0  0  0  0  0  0  0  0  0  0  0  0
   10.2108    7.1304    0.2705 C   0  0  0  0  0  0  0  0  0  0  0  0
   11.3104    6.7764   -0.5082 C   0  0  0  0  0  0  0  0  0  0  0  0
   12.5543    8.1029   -1.0218 Br  0  0  0  0  0  0  0  0  0  0  0  0
   11.5040    5.4532   -0.8964 C   0  0  0  0  0  0  0  0  0  0  0  0
   10.6064    4.4805   -0.4655 C   0  0  0  0  0  0  0  0  0  0  0  0
   10.8034    3.2032   -0.8320 F   0  0  0  0  0  0  0  0  0  0  0  0
    8.8655    4.4570    3.1299 N   0  0  0  0  0  0  0  0  0  0  0  0
    8.3714    4.4523    4.3696 C   0  0  0  0  0  0  0  0  0  0  0  0
    7.2766    3.8067    4.7784 N   0  0  0  0  0  0  0  0  0  0  0  0
    6.6253    3.0838    3.8584 C   0  0  0  0  0  0  0  0  0  0  0  0
    5.4634    2.4282    4.2338 C   0  0  0  0  0  0  0  0  0  0  0  0
    4.7221    1.6471    3.3400 C   0  0  0  0  0  0  0  0  0  0  0  0
    3.6311    1.0302    3.9073 O   0  0  0  0  0  0  0  0  0  0  0  0
    3.3068   -0.2544    3.3713 C   0  0  0  0  0  0  0  0  0  0  0  0
    2.6789   -1.1528    4.4403 C   0  0  0  0  0  0  0  0  0  0  0  0
    2.3890   -2.4804    3.9132 N   0  0  0  0  0  0  0  0  0  0  0  0
    3.3890   -3.4213    3.7538 C   0  0  0  0  0  0  0  0  0  0  0  0
    4.5474   -3.2140    4.1093 O   0  0  0  0  0  0  0  0  0  0  0  0
    2.9589   -4.7179    3.0469 C   0  0  0  0  0  0  0  0  0  0  0  0
    2.9352   -5.8574    3.9739 N   0  0  0  0  0  0  0  0  0  0  0  0
    4.2795   -6.1901    4.4960 C   0  0  0  0  0  0  0  0  0  0  0  0
    4.4026   -7.6668    4.3519 C   0  0  0  0  0  0  0  0  0  0  0  0
    3.3554   -8.1628    3.6937 C   0  0  0  0  0  0  0  0  0  0  0  0
    2.4064   -7.0762    3.3277 C   0  0  0  0  0  0  0  0  0  0  0  0
    1.8492    0.6049   -2.6220 H   0  0  0  0  0  0  0  0  0  0  0  0
    2.3544    2.3090   -2.0814 H   0  0  0  0  0  0  0  0  0  0  0  0
    2.8557   -0.3504   -0.5996 H   0  0  0  0  0  0  0  0  0  0  0  0
    4.9442    0.2042    0.4727 H   0  0  0  0  0  0  0  0  0  0  0  0
    6.6564    2.1149    0.5793 H   0  0  0  0  0  0  0  0  0  0  0  0
    8.9395    2.8638    0.5371 H   0  0  0  0  0  0  0  0  0  0  0  0
    8.4704    6.4296    1.3122 H   0  0  0  0  0  0  0  0  0  0  0  0
   10.0457    8.1617    0.5718 H   0  0  0  0  0  0  0  0  0  0  0  0
   12.3486    5.1639   -1.5143 H   0  0  0  0  0  0  0  0  0  0  0  0
    8.9123    5.0268    5.1128 H   0  0  0  0  0  0  0  0  0  0  0  0
    5.1218    2.5283    5.2622 H   0  0  0  0  0  0  0  0  0  0  0  0
    4.1969   -0.7618    2.9834 H   0  0  0  0  0  0  0  0  0  0  0  0
    2.5796   -0.1201    2.5627 H   0  0  0  0  0  0  0  0  0  0  0  0
    1.7418   -0.7221    4.8083 H   0  0  0  0  0  0  0  0  0  0  0  0
    3.3539   -1.2447    5.2990 H   0  0  0  0  0  0  0  0  0  0  0  0
    1.4559   -2.6780    3.5756 H   0  0  0  0  0  0  0  0  0  0  0  0
    3.6446   -4.8846    2.2071 H   0  0  0  0  0  0  0  0  0  0  0  0
    1.9600   -4.5698    2.6206 H   0  0  0  0  0  0  0  0  0  0  0  0
    4.3497   -5.8981    5.5486 H   0  0  0  0  0  0  0  0  0  0  0  0
    5.0949   -5.7211    3.9360 H   0  0  0  0  0  0  0  0  0  0  0  0
    5.2428   -8.2394    4.7162 H   0  0  0  0  0  0  0  0  0  0  0  0
    3.2123   -9.2023    3.4387 H   0  0  0  0  0  0  0  0  0  0  0  0
    1.4074   -7.2947    3.7178 H   0  0  0  0  0  0  0  0  0  0  0  0
    2.3481   -6.9947    2.2364 H   0  0  0  0  0  0  0  0  0  0  0  0
  1  2  2  0  0  0  0
  1 37  1  0  0  0  0
  1 38  1  0  0  0  0
  2  3  1  0  0  0  0
  2 39  1  0  0  0  0
  3  4  2  0  0  0  0
  3  5  1  0  0  0  0
  5  6  1  0  0  0  0
  5 40  1  0  0  0  0
  6  7  1  0  0  0  0
  6 24  2  0  0  0  0
  7  8  2  0  0  0  0
  7 41  1  0  0  0  0
  8  9  1  0  0  0  0
  8 22  1  0  0  0  0
  9 10  1  0  0  0  0
  9 19  2  0  0  0  0
 10 11  1  0  0  0  0
 10 42  1  0  0  0  0
 11 12  1  0  0  0  0
 11 17  2  0  0  0  0
 12 13  2  0  0  0  0
 12 43  1  0  0  0  0
 13 14  1  0  0  0  0
 13 44  1  0  0  0  0
 14 15  1  0  0  0  0
 14 16  2  0  0  0  0
 16 17  1  0  0  0  0
 16 45  1  0  0  0  0
 17 18  1  0  0  0  0
 19 20  1  0  0  0  0
 20 21  2  0  0  0  0
 20 46  1  0  0  0  0
 21 22  1  0  0  0  0
 22 23  2  0  0  0  0
 23 24  1  0  0  0  0
 23 47  1  0  0  0  0
 24 25  1  0  0  0  0
 25 26  1  0  0  0  0
 26 27  1  0  0  0  0
 26 48  1  0  0  0  0
 26 49  1  0  0  0  0
 27 28  1  0  0  0  0
 27 50  1  0  0  0  0
 27 51  1  0  0  0  0
 28 29  1  0  0  0  0
 28 52  1  0  0  0  0
 29 30  2  0  0  0  0
 29 31  1  0  0  0  0
 31 32  1  0  0  0  0
 31 53  1  0  0  0  0
 31 54  1  0  0  0  0
 32 33  1  0  0  0  0
 32 36  1  0  0  0  0
 33 34  1  0  0  0  0
 33 55  1  0  0  0  0
 33 56  1  0  0  0  0
 34 35  2  0  0  0  0
 34 57  1  0  0  0  0
 35 36  1  0  0  0  0
 35 58  1  0  0  0  0
 36 59  1  0  0  0  0
 36 60  1  0  0  0  0
M  END
$$$$
