CHEMBL3982718
 OpenBabel04072215373D

 69 73  0  0  0  0  0  0  0  0999 V2000
    0.9623    0.0628   -4.9518 C   0  0  0  0  0  0  0  0  0  0  0  0
    2.2086   -0.6185   -4.8153 O   0  0  0  0  0  0  0  0  0  0  0  0
    2.9739   -0.3092   -3.7171 C   0  0  0  0  0  0  0  0  0  0  0  0
    2.5287    0.4552   -2.6304 C   0  0  0  0  0  0  0  0  0  0  0  0
    3.3802    0.6995   -1.5611 C   0  0  0  0  0  0  0  0  0  0  0  0
    3.1028    1.4322   -0.4432 O   0  0  0  0  0  0  0  0  0  0  0  0
    1.7351    1.5656   -0.0932 C   0  0  0  0  0  0  0  0  0  0  0  0
    4.6729    0.1949   -1.5942 C   0  0  0  0  0  0  0  0  0  0  0  0
    5.1442   -0.6135   -2.6354 C   0  0  0  0  0  0  0  0  0  0  0  0
    6.4174   -1.2039   -2.4898 N   0  0  0  0  0  0  0  0  0  0  0  0
    6.6076   -2.0027   -1.1764 C   0  0  0  0  0  0  0  0  0  0  0  0
    5.4934   -2.1550   -0.1908 C   0  0  0  0  0  0  0  0  0  0  0  0
    4.6589   -2.2718    0.7069 C   0  0  0  0  0  0  0  0  0  0  0  0
    3.6939   -2.3828    1.7698 C   0  0  0  0  0  0  0  0  0  0  0  0
    3.3692   -3.6395    2.1578 N   0  0  0  0  0  0  0  0  0  0  0  0
    2.4932   -3.7300    3.1813 C   0  0  0  0  0  0  0  0  0  0  0  0
    1.9405   -2.6413    3.8077 C   0  0  0  0  0  0  0  0  0  0  0  0
    2.3462   -1.4149    3.3346 C   0  0  0  0  0  0  0  0  0  0  0  0
    1.7234   -0.3451    3.9587 O   0  0  0  0  0  0  0  0  0  0  0  0
    2.3635    0.9295    3.8618 C   0  0  0  0  0  0  0  0  0  0  0  0
    1.3292    1.9717    4.3043 C   0  0  0  0  0  0  0  0  0  0  0  0
    3.5560    0.9850    4.8112 C   0  0  0  0  0  0  0  0  0  0  0  0
    3.2202   -1.2394    2.3191 N   0  0  0  0  0  0  0  0  0  0  0  0
    7.4150   -1.4808   -3.4897 C   0  0  0  0  0  0  0  0  0  0  0  0
    7.7001   -2.8308   -3.6422 C   0  0  0  0  0  0  0  0  0  0  0  0
    8.9643   -3.1727   -4.0279 C   0  0  0  0  0  0  0  0  0  0  0  0
    9.8882   -2.2842   -4.4839 C   0  0  0  0  0  0  0  0  0  0  0  0
   10.9652   -3.0101   -4.5162 N   0  0  0  0  0  0  0  0  0  0  0  0
   11.9167   -2.5714   -5.2899 C   0  0  0  0  0  0  0  0  0  0  0  0
   11.9520   -1.3227   -5.8599 C   0  0  0  0  0  0  0  0  0  0  0  0
   13.3143   -1.1736   -6.5178 C   0  0  0  0  0  0  0  0  0  0  0  0
   13.7615   -1.4075   -7.8701 C   0  0  0  0  0  0  0  0  0  0  0  0
   14.9661   -2.0133   -7.9641 N   0  0  0  0  0  0  0  0  0  0  0  0
   15.3094   -2.2558   -6.6909 N   0  0  0  0  0  0  0  0  0  0  0  0
   16.4010   -3.1481   -6.3344 C   0  0  0  0  0  0  0  0  0  0  0  0
   14.4145   -1.7070   -5.8101 C   0  0  0  0  0  0  0  0  0  0  0  0
   10.8700   -0.4506   -5.6040 N   0  0  0  0  0  0  0  0  0  0  0  0
    9.6883   -0.9528   -4.8089 C   0  0  0  0  0  0  0  0  0  0  0  0
    8.3179   -0.5675   -4.1845 C   0  0  0  0  0  0  0  0  0  0  0  0
    4.2805   -0.8451   -3.7162 C   0  0  0  0  0  0  0  0  0  0  0  0
    0.4603   -0.3232   -5.8447 H   0  0  0  0  0  0  0  0  0  0  0  0
    1.1189    1.1379   -5.0941 H   0  0  0  0  0  0  0  0  0  0  0  0
    0.2955   -0.1276   -4.1036 H   0  0  0  0  0  0  0  0  0  0  0  0
    1.5315    0.8709   -2.6181 H   0  0  0  0  0  0  0  0  0  0  0  0
    1.6901    2.1523    0.8290 H   0  0  0  0  0  0  0  0  0  0  0  0
    1.2803    0.5890    0.1034 H   0  0  0  0  0  0  0  0  0  0  0  0
    1.1813    2.1190   -0.8556 H   0  0  0  0  0  0  0  0  0  0  0  0
    5.3178    0.3908   -0.7417 H   0  0  0  0  0  0  0  0  0  0  0  0
    7.4401   -1.5178   -0.6574 H   0  0  0  0  0  0  0  0  0  0  0  0
    6.9452   -3.0303   -1.3695 H   0  0  0  0  0  0  0  0  0  0  0  0
    2.2264   -4.7368    3.4927 H   0  0  0  0  0  0  0  0  0  0  0  0
    1.2338   -2.7329    4.6225 H   0  0  0  0  0  0  0  0  0  0  0  0
    2.6611    1.1506    2.8317 H   0  0  0  0  0  0  0  0  0  0  0  0
    0.9689    1.7613    5.3192 H   0  0  0  0  0  0  0  0  0  0  0  0
    0.4483    1.9496    3.6538 H   0  0  0  0  0  0  0  0  0  0  0  0
    1.7456    2.9842    4.2914 H   0  0  0  0  0  0  0  0  0  0  0  0
    3.2465    0.7370    5.8334 H   0  0  0  0  0  0  0  0  0  0  0  0
    4.0142    1.9786    4.8157 H   0  0  0  0  0  0  0  0  0  0  0  0
    4.3174    0.2530    4.5274 H   0  0  0  0  0  0  0  0  0  0  0  0
    7.0400   -3.6369   -3.3212 H   0  0  0  0  0  0  0  0  0  0  0  0
    9.2492   -4.2262   -3.9727 H   0  0  0  0  0  0  0  0  0  0  0  0
   12.6899   -3.3125   -5.4215 H   0  0  0  0  0  0  0  0  0  0  0  0
   13.2415   -1.2560   -8.8077 H   0  0  0  0  0  0  0  0  0  0  0  0
   16.9661   -3.4575   -7.2176 H   0  0  0  0  0  0  0  0  0  0  0  0
   15.9952   -4.0395   -5.8369 H   0  0  0  0  0  0  0  0  0  0  0  0
   17.0571   -2.6194   -5.6377 H   0  0  0  0  0  0  0  0  0  0  0  0
   14.5019   -1.9751   -4.7649 H   0  0  0  0  0  0  0  0  0  0  0  0
    8.0055    0.4766   -4.2503 H   0  0  0  0  0  0  0  0  0  0  0  0
    4.5837   -1.4820   -4.5436 H   0  0  0  0  0  0  0  0  0  0  0  0
  1  2  1  0  0  0  0
  1 41  1  0  0  0  0
  1 42  1  0  0  0  0
  1 43  1  0  0  0  0
  2  3  1  0  0  0  0
  3  4  1  0  0  0  0
  3 40  2  0  0  0  0
  4  5  2  0  0  0  0
  4 44  1  0  0  0  0
  5  6  1  0  0  0  0
  5  8  1  0  0  0  0
  6  7  1  0  0  0  0
  7 45  1  0  0  0  0
  7 46  1  0  0  0  0
  7 47  1  0  0  0  0
  8  9  2  0  0  0  0
  8 48  1  0  0  0  0
  9 10  1  0  0  0  0
  9 40  1  0  0  0  0
 10 11  1  0  0  0  0
 10 24  1  0  0  0  0
 11 12  1  0  0  0  0
 11 49  1  0  0  0  0
 11 50  1  0  0  0  0
 12 13  3  0  0  0  0
 13 14  1  0  0  0  0
 14 15  1  0  0  0  0
 14 23  2  0  0  0  0
 15 16  2  0  0  0  0
 16 17  1  0  0  0  0
 16 51  1  0  0  0  0
 17 18  2  0  0  0  0
 17 52  1  0  0  0  0
 18 19  1  0  0  0  0
 18 23  1  0  0  0  0
 19 20  1  0  0  0  0
 20 21  1  0  0  0  0
 20 22  1  0  0  0  0
 20 53  1  0  0  0  0
 21 54  1  0  0  0  0
 21 55  1  0  0  0  0
 21 56  1  0  0  0  0
 22 57  1  0  0  0  0
 22 58  1  0  0  0  0
 22 59  1  0  0  0  0
 24 25  1  0  0  0  0
 24 39  2  0  0  0  0
 25 26  2  0  0  0  0
 25 60  1  0  0  0  0
 26 27  1  0  0  0  0
 26 61  1  0  0  0  0
 27 28  1  0  0  0  0
 27 38  2  0  0  0  0
 28 29  2  0  0  0  0
 29 30  1  0  0  0  0
 29 62  1  0  0  0  0
 30 31  1  0  0  0  0
 30 37  2  0  0  0  0
 31 32  1  0  0  0  0
 31 36  2  0  0  0  0
 32 33  2  0  0  0  0
 32 63  1  0  0  0  0
 33 34  1  0  0  0  0
 34 35  1  0  0  0  0
 34 36  1  0  0  0  0
 35 64  1  0  0  0  0
 35 65  1  0  0  0  0
 35 66  1  0  0  0  0
 36 67  1  0  0  0  0
 37 38  1  0  0  0  0
 38 39  1  0  0  0  0
 39 68  1  0  0  0  0
 40 69  1  0  0  0  0
M  END
$$$$
