CHEMBL3656070
 OpenBabel04072215373D

 68 71  0  0  1  0  0  0  0  0999 V2000
   -5.3493  -15.5684   -0.3154 C   0  0  0  0  0  0  0  0  0  0  0  0
   -5.8647  -14.3164    0.3350 C   0  0  0  0  0  0  0  0  0  0  0  0
   -6.0058  -14.2694    1.7240 C   0  0  0  0  0  0  0  0  0  0  0  0
   -6.4855  -13.1188    2.3407 C   0  0  0  0  0  0  0  0  0  0  0  0
   -6.8247  -12.0074    1.5700 C   0  0  0  0  0  0  0  0  0  0  0  0
   -6.6833  -12.0168    0.1801 C   0  0  0  0  0  0  0  0  0  0  0  0
   -7.0285  -10.9056   -0.6311 N   0  0  0  0  0  0  0  0  0  0  0  0
   -7.3810   -9.6502   -0.1730 C   0  0  0  0  0  0  0  0  0  0  0  0
   -7.3352   -9.2822    0.9998 O   0  0  0  0  0  0  0  0  0  0  0  0
   -7.8392   -8.8253   -1.1912 N   0  0  0  0  0  0  0  0  0  0  0  0
   -8.2799   -7.5072   -0.9011 C   0  0  0  0  0  0  0  0  0  0  0  0
   -7.5631   -6.6468   -0.0604 C   0  0  0  0  0  0  0  0  0  0  0  0
   -8.0515   -5.3649    0.2141 C   0  0  0  0  0  0  0  0  0  0  0  0
   -9.2608   -4.9390   -0.3426 C   0  0  0  0  0  0  0  0  0  0  0  0
   -9.6639   -3.6618   -0.0201 O   0  0  0  0  0  0  0  0  0  0  0  0
  -10.3675   -2.9202   -0.9446 C   0  0  0  0  0  0  0  0  0  0  0  0
  -10.1951   -3.0177   -2.3229 C   0  0  0  0  0  0  0  0  0  0  0  0
  -10.9970   -2.2401   -3.1355 C   0  0  0  0  0  0  0  0  0  0  0  0
  -11.8926   -1.3464   -2.6691 N   0  0  0  0  0  0  0  0  0  0  0  0
  -11.9899   -1.2143   -1.3227 C   0  0  0  0  0  0  0  0  0  0  0  0
  -12.9069   -0.1604   -0.9020 C   0  0  0  0  0  0  0  0  0  0  0  0
  -13.2679    0.3308    0.3427 C   0  0  0  0  0  0  0  0  0  0  0  0
  -14.1478    1.4443    0.1620 C   0  0  0  0  0  0  0  0  0  0  0  0
  -14.7615    2.3387    1.1400 C   0  0  0  0  0  0  0  0  0  0  0  0
  -15.4079    3.3301    0.8141 O   0  0  0  0  0  0  0  0  0  0  0  0
  -14.5669    1.9904    2.4542 N   0  0  0  0  0  0  0  0  0  0  0  0
  -15.0963    2.7810    3.5631 C   0  0  1  0  0  0  0  0  0  0  0  0
  -16.6353    2.7357    3.5959 C   0  0  0  0  0  0  0  0  0  0  0  0
  -17.2717    3.4979    4.7517 C   0  0  0  0  0  0  0  0  0  0  0  0
  -16.8658    4.9444    4.7161 C   0  0  0  0  0  0  0  0  0  0  0  0
  -15.8062    5.3363    5.1749 O   0  0  0  0  0  0  0  0  0  0  0  0
  -17.7244    5.7418    4.0507 O   0  0  0  0  0  0  0  0  0  0  0  0
  -14.5058    2.1798    4.8446 C   0  0  0  0  0  0  0  0  0  0  0  0
  -14.5391    0.9810    5.1004 O   0  0  0  0  0  0  0  0  0  0  0  0
  -13.9257    3.0759    5.6701 O   0  0  0  0  0  0  0  0  0  0  0  0
  -14.3256    1.5618   -1.2055 C   0  0  0  0  0  0  0  0  0  0  0  0
  -13.5858    0.5984   -1.8288 N   0  0  0  0  0  0  0  0  0  0  0  0
  -11.2563   -1.9806   -0.4297 C   0  0  0  0  0  0  0  0  0  0  0  0
  -10.0072   -5.8195   -1.1289 C   0  0  0  0  0  0  0  0  0  0  0  0
   -9.4862   -7.0694   -1.4409 C   0  0  0  0  0  0  0  0  0  0  0  0
  -10.1953   -7.8888   -2.2381 F   0  0  0  0  0  0  0  0  0  0  0  0
   -6.2055  -13.1854   -0.4348 C   0  0  0  0  0  0  0  0  0  0  0  0
   -5.1579  -16.3506    0.4286 H   0  0  0  0  0  0  0  0  0  0  0  0
   -4.4074  -15.3678   -0.8340 H   0  0  0  0  0  0  0  0  0  0  0  0
   -6.0844  -15.9610   -1.0237 H   0  0  0  0  0  0  0  0  0  0  0  0
   -5.7489  -15.1275    2.3407 H   0  0  0  0  0  0  0  0  0  0  0  0
   -6.5979  -13.0788    3.4183 H   0  0  0  0  0  0  0  0  0  0  0  0
   -7.2067  -11.1462    2.1068 H   0  0  0  0  0  0  0  0  0  0  0  0
   -6.8766  -10.9990   -1.6268 H   0  0  0  0  0  0  0  0  0  0  0  0
   -8.3716   -9.3049   -1.9072 H   0  0  0  0  0  0  0  0  0  0  0  0
   -6.6240   -6.9628    0.3891 H   0  0  0  0  0  0  0  0  0  0  0  0
   -7.4877   -4.7060    0.8708 H   0  0  0  0  0  0  0  0  0  0  0  0
   -9.4711   -3.6888   -2.7691 H   0  0  0  0  0  0  0  0  0  0  0  0
  -10.9352   -2.3168   -4.2173 H   0  0  0  0  0  0  0  0  0  0  0  0
  -12.8998   -0.0541    1.2841 H   0  0  0  0  0  0  0  0  0  0  0  0
  -14.0375    1.1575    2.6815 H   0  0  0  0  0  0  0  0  0  0  0  0
  -14.7262    3.8010    3.4173 H   0  0  0  0  0  0  0  0  0  0  0  0
  -16.9713    1.6920    3.6392 H   0  0  0  0  0  0  0  0  0  0  0  0
  -17.0338    3.1440    2.6597 H   0  0  0  0  0  0  0  0  0  0  0  0
  -16.9771    3.0847    5.7223 H   0  0  0  0  0  0  0  0  0  0  0  0
  -18.3634    3.4170    4.7095 H   0  0  0  0  0  0  0  0  0  0  0  0
  -18.4988    5.2799    3.6575 H   0  0  0  0  0  0  0  0  0  0  0  0
  -13.9986    4.0170    5.3887 H   0  0  0  0  0  0  0  0  0  0  0  0
  -14.9125    2.2674   -1.7799 H   0  0  0  0  0  0  0  0  0  0  0  0
  -13.5001    0.4540   -2.8283 H   0  0  0  0  0  0  0  0  0  0  0  0
  -11.3570   -1.8545    0.6418 H   0  0  0  0  0  0  0  0  0  0  0  0
  -10.9860   -5.5490   -1.5105 H   0  0  0  0  0  0  0  0  0  0  0  0
   -6.0913  -13.2296   -1.5147 H   0  0  0  0  0  0  0  0  0  0  0  0
  1  2  1  0  0  0  0
  1 43  1  0  0  0  0
  1 44  1  0  0  0  0
  1 45  1  0  0  0  0
  2  3  1  0  0  0  0
  2 42  2  0  0  0  0
  3  4  2  0  0  0  0
  3 46  1  0  0  0  0
  4  5  1  0  0  0  0
  4 47  1  0  0  0  0
  5  6  2  0  0  0  0
  5 48  1  0  0  0  0
  6  7  1  0  0  0  0
  6 42  1  0  0  0  0
  7  8  1  0  0  0  0
  7 49  1  0  0  0  0
  8  9  2  0  0  0  0
  8 10  1  0  0  0  0
 10 11  1  0  0  0  0
 10 50  1  0  0  0  0
 11 12  1  0  0  0  0
 11 40  2  0  0  0  0
 12 13  2  0  0  0  0
 12 51  1  0  0  0  0
 13 14  1  0  0  0  0
 13 52  1  0  0  0  0
 14 15  1  0  0  0  0
 14 39  2  0  0  0  0
 15 16  1  0  0  0  0
 16 17  1  0  0  0  0
 16 38  2  0  0  0  0
 17 18  2  0  0  0  0
 17 53  1  0  0  0  0
 18 19  1  0  0  0  0
 18 54  1  0  0  0  0
 19 20  2  0  0  0  0
 20 21  1  0  0  0  0
 20 38  1  0  0  0  0
 21 22  2  0  0  0  0
 21 37  1  0  0  0  0
 22 23  1  0  0  0  0
 22 55  1  0  0  0  0
 23 24  1  0  0  0  0
 23 36  2  0  0  0  0
 24 25  2  0  0  0  0
 24 26  1  0  0  0  0
 26 27  1  0  0  0  0
 26 56  1  0  0  0  0
 27 28  1  0  0  0  0
 27 33  1  0  0  0  0
 27 57  1  6  0  0  0
 28 29  1  0  0  0  0
 28 58  1  0  0  0  0
 28 59  1  0  0  0  0
 29 30  1  0  0  0  0
 29 60  1  0  0  0  0
 29 61  1  0  0  0  0
 30 31  2  0  0  0  0
 30 32  1  0  0  0  0
 32 62  1  0  0  0  0
 33 34  2  0  0  0  0
 33 35  1  0  0  0  0
 35 63  1  0  0  0  0
 36 37  1  0  0  0  0
 36 64  1  0  0  0  0
 37 65  1  0  0  0  0
 38 66  1  0  0  0  0
 39 40  1  0  0  0  0
 39 67  1  0  0  0  0
 40 41  1  0  0  0  0
 42 68  1  0  0  0  0
M  END
$$$$
