CHEMBL380957
 OpenBabel04072215373D

 55 59  0  0  1  0  0  0  0  0999 V2000
    2.4374   -0.7914    2.3832 C   0  0  0  0  0  0  0  0  0  0  0  0
    3.7715   -0.6943    1.7425 C   0  0  0  0  0  0  0  0  0  0  0  0
    4.6686   -1.6753    1.3714 C   0  0  0  0  0  0  0  0  0  0  0  0
    5.6434   -1.0721    0.5289 C   0  0  0  0  0  0  0  0  0  0  0  0
    6.6804   -1.5618   -0.2860 C   0  0  0  0  0  0  0  0  0  0  0  0
    6.9235   -2.8812   -0.3509 F   0  0  0  0  0  0  0  0  0  0  0  0
    7.3943   -0.6783   -1.0995 C   0  0  0  0  0  0  0  0  0  0  0  0
    8.2604   -1.2614   -2.0536 O   0  0  0  0  0  0  0  0  0  0  0  0
    9.4173   -0.6385   -2.4807 C   0  0  0  0  0  0  0  0  0  0  0  0
   10.1070    0.1893   -1.7692 N   0  0  0  0  0  0  0  0  0  0  0  0
   11.2176    0.7278   -2.3699 C   0  0  0  0  0  0  0  0  0  0  0  0
   11.6305    0.5177   -3.5779 N   0  0  0  0  0  0  0  0  0  0  0  0
   10.8794   -0.3390   -4.2906 N   0  0  0  0  0  0  0  0  0  0  0  0
   11.0696   -0.6896   -5.5770 C   0  0  0  0  0  0  0  0  0  0  0  0
   10.1038   -1.5855   -5.9477 C   0  0  0  0  0  0  0  0  0  0  0  0
   10.0390   -2.1626   -7.1895 O   0  0  0  0  0  0  0  0  0  0  0  0
   11.3470   -2.2120   -7.8107 C   0  0  0  0  0  0  0  0  0  0  0  0
   11.4949   -3.3718   -8.8151 C   0  0  0  0  0  0  0  0  0  0  0  0
   12.8574   -3.3971   -9.3904 N   0  0  0  0  0  0  0  0  0  0  0  0
   13.8878   -3.6044   -8.3524 C   0  0  0  0  0  0  0  0  0  0  0  0
   14.7656   -4.7588   -8.7955 C   0  0  0  0  0  0  0  0  0  0  0  0
   13.8896   -5.5337   -9.7557 C   0  0  2  0  0  0  0  0  0  0  0  0
   14.6678   -6.2693  -10.6859 O   0  0  0  0  0  0  0  0  0  0  0  0
   13.0495   -4.4411  -10.4084 C   0  0  0  0  0  0  0  0  0  0  0  0
    9.2340   -1.7837   -4.8139 C   0  0  0  0  0  0  0  0  0  0  0  0
    8.0149   -2.6159   -4.6071 C   0  0  0  0  0  0  0  0  0  0  0  0
    9.7766   -0.9699   -3.8109 C   0  0  0  0  0  0  0  0  0  0  0  0
    7.1120    0.6890   -1.0955 C   0  0  0  0  0  0  0  0  0  0  0  0
    6.1166    1.2049   -0.2544 C   0  0  0  0  0  0  0  0  0  0  0  0
    5.3835    0.3004    0.5213 C   0  0  0  0  0  0  0  0  0  0  0  0
    4.3028    0.5102    1.3496 N   0  0  0  0  0  0  0  0  0  0  0  0
    2.1714   -1.8361    2.5734 H   0  0  0  0  0  0  0  0  0  0  0  0
    1.6750   -0.3762    1.7133 H   0  0  0  0  0  0  0  0  0  0  0  0
    2.4029   -0.2441    3.3286 H   0  0  0  0  0  0  0  0  0  0  0  0
    4.5663   -2.7348    1.5709 H   0  0  0  0  0  0  0  0  0  0  0  0
   11.8016    1.4220   -1.7405 H   0  0  0  0  0  0  0  0  0  0  0  0
   11.9052   -0.2711   -6.1404 H   0  0  0  0  0  0  0  0  0  0  0  0
   12.0931   -2.3809   -7.0235 H   0  0  0  0  0  0  0  0  0  0  0  0
   11.5672   -1.2650   -8.3279 H   0  0  0  0  0  0  0  0  0  0  0  0
   10.7358   -3.2674   -9.5961 H   0  0  0  0  0  0  0  0  0  0  0  0
   11.2788   -4.3072   -8.2847 H   0  0  0  0  0  0  0  0  0  0  0  0
   13.4584   -3.8471   -7.3730 H   0  0  0  0  0  0  0  0  0  0  0  0
   14.4797   -2.6898   -8.2328 H   0  0  0  0  0  0  0  0  0  0  0  0
   15.0847   -5.3807   -7.9526 H   0  0  0  0  0  0  0  0  0  0  0  0
   15.6697   -4.3887   -9.2908 H   0  0  0  0  0  0  0  0  0  0  0  0
   13.2442   -6.2318   -9.2106 H   0  0  0  0  0  0  0  0  0  0  0  0
   15.2985   -5.6580  -11.1054 H   0  0  0  0  0  0  0  0  0  0  0  0
   12.1245   -4.8488  -10.8299 H   0  0  0  0  0  0  0  0  0  0  0  0
   13.6000   -4.0018  -11.2508 H   0  0  0  0  0  0  0  0  0  0  0  0
    7.7071   -3.2093   -5.4703 H   0  0  0  0  0  0  0  0  0  0  0  0
    7.1679   -1.9700   -4.3364 H   0  0  0  0  0  0  0  0  0  0  0  0
    8.1784   -3.3128   -3.7726 H   0  0  0  0  0  0  0  0  0  0  0  0
    7.6277    1.3758   -1.7600 H   0  0  0  0  0  0  0  0  0  0  0  0
    5.8863    2.2661   -0.2574 H   0  0  0  0  0  0  0  0  0  0  0  0
    3.8901    1.4154    1.5290 H   0  0  0  0  0  0  0  0  0  0  0  0
  1  2  1  0  0  0  0
  1 32  1  0  0  0  0
  1 33  1  0  0  0  0
  1 34  1  0  0  0  0
  2  3  2  0  0  0  0
  2 31  1  0  0  0  0
  3  4  1  0  0  0  0
  3 35  1  0  0  0  0
  4  5  1  0  0  0  0
  4 30  2  0  0  0  0
  5  6  1  0  0  0  0
  5  7  2  0  0  0  0
  7  8  1  0  0  0  0
  7 28  1  0  0  0  0
  8  9  1  0  0  0  0
  9 10  2  0  0  0  0
  9 27  1  0  0  0  0
 10 11  1  0  0  0  0
 11 12  2  0  0  0  0
 11 36  1  0  0  0  0
 12 13  1  0  0  0  0
 13 14  1  0  0  0  0
 13 27  1  0  0  0  0
 14 15  2  0  0  0  0
 14 37  1  0  0  0  0
 15 16  1  0  0  0  0
 15 25  1  0  0  0  0
 16 17  1  0  0  0  0
 17 18  1  0  0  0  0
 17 38  1  0  0  0  0
 17 39  1  0  0  0  0
 18 19  1  0  0  0  0
 18 40  1  0  0  0  0
 18 41  1  0  0  0  0
 19 20  1  0  0  0  0
 19 24  1  0  0  0  0
 20 21  1  0  0  0  0
 20 42  1  0  0  0  0
 20 43  1  0  0  0  0
 21 22  1  0  0  0  0
 21 44  1  0  0  0  0
 21 45  1  0  0  0  0
 22 23  1  0  0  0  0
 22 24  1  0  0  0  0
 22 46  1  1  0  0  0
 23 47  1  0  0  0  0
 24 48  1  0  0  0  0
 24 49  1  0  0  0  0
 25 26  1  0  0  0  0
 25 27  2  0  0  0  0
 26 50  1  0  0  0  0
 26 51  1  0  0  0  0
 26 52  1  0  0  0  0
 28 29  2  0  0  0  0
 28 53  1  0  0  0  0
 29 30  1  0  0  0  0
 29 54  1  0  0  0  0
 30 31  1  0  0  0  0
 31 55  1  0  0  0  0
M  END
$$$$
