CHEMBL1079424
 OpenBabel04072215353D

 56 60  0  0  0  0  0  0  0  0999 V2000
   -5.5857   -2.5313   -3.0497 C   0  0  0  0  0  0  0  0  0  0  0  0
   -4.3081   -3.3075   -3.1441 C   0  0  0  0  0  0  0  0  0  0  0  0
   -3.4416   -3.3609   -2.0587 C   0  0  0  0  0  0  0  0  0  0  0  0
   -2.2679   -4.1071   -2.1542 C   0  0  0  0  0  0  0  0  0  0  0  0
   -1.3353   -4.2468   -1.0954 N   0  0  0  0  0  0  0  0  0  0  0  0
   -1.4272   -3.6792    0.1660 C   0  0  0  0  0  0  0  0  0  0  0  0
   -2.3219   -2.9455    0.5726 O   0  0  0  0  0  0  0  0  0  0  0  0
   -0.2891   -3.9535    1.0873 C   0  0  0  0  0  0  0  0  0  0  0  0
    0.0885   -2.9603    1.9849 C   0  0  0  0  0  0  0  0  0  0  0  0
    1.2288   -3.1368    2.7623 C   0  0  0  0  0  0  0  0  0  0  0  0
    1.9640   -4.3347    2.7066 C   0  0  0  0  0  0  0  0  0  0  0  0
    3.2930   -4.3752    3.4120 C   0  0  0  0  0  0  0  0  0  0  0  0
    1.4558   -5.4358    1.9774 C   0  0  0  0  0  0  0  0  0  0  0  0
    2.0356   -6.7314    2.1132 N   0  0  0  0  0  0  0  0  0  0  0  0
    1.4668   -7.8994    1.6916 C   0  0  0  0  0  0  0  0  0  0  0  0
    0.5191   -8.0403    0.7863 N   0  0  0  0  0  0  0  0  0  0  0  0
    0.3169   -9.3741    0.6250 C   0  0  0  0  0  0  0  0  0  0  0  0
   -0.5903  -10.0173   -0.2291 C   0  0  0  0  0  0  0  0  0  0  0  0
   -0.6278  -11.4128   -0.2508 C   0  0  0  0  0  0  0  0  0  0  0  0
    0.1884  -12.1507    0.6019 C   0  0  0  0  0  0  0  0  0  0  0  0
    1.0711  -11.5197    1.4886 C   0  0  0  0  0  0  0  0  0  0  0  0
    1.1560  -10.1143    1.4490 C   0  0  0  0  0  0  0  0  0  0  0  0
    1.9132   -9.1545    2.1257 N   0  0  0  0  0  0  0  0  0  0  0  0
    2.9550   -9.3937    3.0676 C   0  0  0  0  0  0  0  0  0  0  0  0
    3.7475  -10.5160    2.9219 C   0  0  0  0  0  0  0  0  0  0  0  0
    4.7374  -10.7050    3.8571 C   0  0  0  0  0  0  0  0  0  0  0  0
    5.6462  -11.7474    3.7012 N   0  0  0  0  0  0  0  0  0  0  0  0
    4.9256   -9.8721    4.8837 N   0  0  0  0  0  0  0  0  0  0  0  0
    4.1175   -8.8035    4.9374 C   0  0  0  0  0  0  0  0  0  0  0  0
    3.1577   -8.4881    4.0543 N   0  0  0  0  0  0  0  0  0  0  0  0
    0.3818   -5.1805    1.1004 C   0  0  0  0  0  0  0  0  0  0  0  0
   -1.9985   -4.7655   -3.3533 C   0  0  0  0  0  0  0  0  0  0  0  0
   -2.9110   -4.6467   -4.3917 C   0  0  0  0  0  0  0  0  0  0  0  0
   -4.0547   -3.9370   -4.3110 N   0  0  0  0  0  0  0  0  0  0  0  0
   -5.7434   -2.1317   -2.0433 H   0  0  0  0  0  0  0  0  0  0  0  0
   -6.4317   -3.1842   -3.2885 H   0  0  0  0  0  0  0  0  0  0  0  0
   -5.5692   -1.6964   -3.7553 H   0  0  0  0  0  0  0  0  0  0  0  0
   -3.6951   -2.8146   -1.1602 H   0  0  0  0  0  0  0  0  0  0  0  0
   -0.5073   -4.7930   -1.3028 H   0  0  0  0  0  0  0  0  0  0  0  0
   -0.4766   -2.0333    2.0484 H   0  0  0  0  0  0  0  0  0  0  0  0
    1.5505   -2.3207    3.4054 H   0  0  0  0  0  0  0  0  0  0  0  0
    3.5872   -3.3739    3.7542 H   0  0  0  0  0  0  0  0  0  0  0  0
    4.0730   -4.6990    2.7142 H   0  0  0  0  0  0  0  0  0  0  0  0
    3.2690   -5.0388    4.2785 H   0  0  0  0  0  0  0  0  0  0  0  0
    2.6716   -6.7970    2.9064 H   0  0  0  0  0  0  0  0  0  0  0  0
   -1.2449   -9.4305   -0.8659 H   0  0  0  0  0  0  0  0  0  0  0  0
   -1.3089  -11.9216   -0.9290 H   0  0  0  0  0  0  0  0  0  0  0  0
    0.1329  -13.2378    0.5846 H   0  0  0  0  0  0  0  0  0  0  0  0
    1.6549  -12.1231    2.1745 H   0  0  0  0  0  0  0  0  0  0  0  0
    3.6715  -11.1845    2.0757 H   0  0  0  0  0  0  0  0  0  0  0  0
    5.2083  -12.6469    3.5423 H   0  0  0  0  0  0  0  0  0  0  0  0
    6.2707  -11.7541    4.5026 H   0  0  0  0  0  0  0  0  0  0  0  0
    4.2596   -8.1303    5.7771 H   0  0  0  0  0  0  0  0  0  0  0  0
    0.0251   -5.9557    0.4355 H   0  0  0  0  0  0  0  0  0  0  0  0
   -1.1039   -5.3603   -3.4976 H   0  0  0  0  0  0  0  0  0  0  0  0
   -2.7411   -5.1378   -5.3454 H   0  0  0  0  0  0  0  0  0  0  0  0
  1  2  1  0  0  0  0
  1 35  1  0  0  0  0
  1 36  1  0  0  0  0
  1 37  1  0  0  0  0
  2  3  1  0  0  0  0
  2 34  2  0  0  0  0
  3  4  2  0  0  0  0
  3 38  1  0  0  0  0
  4  5  1  0  0  0  0
  4 32  1  0  0  0  0
  5  6  1  0  0  0  0
  5 39  1  0  0  0  0
  6  7  2  0  0  0  0
  6  8  1  0  0  0  0
  8  9  1  0  0  0  0
  8 31  2  0  0  0  0
  9 10  2  0  0  0  0
  9 40  1  0  0  0  0
 10 11  1  0  0  0  0
 10 41  1  0  0  0  0
 11 12  1  0  0  0  0
 11 13  2  0  0  0  0
 12 42  1  0  0  0  0
 12 43  1  0  0  0  0
 12 44  1  0  0  0  0
 13 14  1  0  0  0  0
 13 31  1  0  0  0  0
 14 15  1  0  0  0  0
 14 45  1  0  0  0  0
 15 16  2  0  0  0  0
 15 23  1  0  0  0  0
 16 17  1  0  0  0  0
 17 18  1  0  0  0  0
 17 22  2  0  0  0  0
 18 19  2  0  0  0  0
 18 46  1  0  0  0  0
 19 20  1  0  0  0  0
 19 47  1  0  0  0  0
 20 21  2  0  0  0  0
 20 48  1  0  0  0  0
 21 22  1  0  0  0  0
 21 49  1  0  0  0  0
 22 23  1  0  0  0  0
 23 24  1  0  0  0  0
 24 25  1  0  0  0  0
 24 30  2  0  0  0  0
 25 26  2  0  0  0  0
 25 50  1  0  0  0  0
 26 27  1  0  0  0  0
 26 28  1  0  0  0  0
 27 51  1  0  0  0  0
 27 52  1  0  0  0  0
 28 29  2  0  0  0  0
 29 30  1  0  0  0  0
 29 53  1  0  0  0  0
 31 54  1  0  0  0  0
 32 33  2  0  0  0  0
 32 55  1  0  0  0  0
 33 34  1  0  0  0  0
 33 56  1  0  0  0  0
M  END
$$$$
