CHEMBL2023492
 OpenBabel04072215363D

 53 56  0  0  0  0  0  0  0  0999 V2000
    3.0477   -1.7748   -0.5002 C   0  0  0  0  0  0  0  0  0  0  0  0
    4.2477   -1.0339   -0.3012 O   0  0  0  0  0  0  0  0  0  0  0  0
    4.4074   -0.4636    0.9307 C   0  0  0  0  0  0  0  0  0  0  0  0
    3.4748   -0.4869    1.9509 C   0  0  0  0  0  0  0  0  0  0  0  0
    3.7598    0.1466    3.1586 C   0  0  0  0  0  0  0  0  0  0  0  0
    5.0257    0.7174    3.4315 C   0  0  0  0  0  0  0  0  0  0  0  0
    5.4634    1.2150    4.6924 C   0  0  0  0  0  0  0  0  0  0  0  0
    4.7928    1.1758    5.9047 O   0  0  0  0  0  0  0  0  0  0  0  0
    3.9285    0.1533    6.2231 C   0  0  0  0  0  0  0  0  0  0  0  0
    4.1087   -1.1773    5.8611 C   0  0  0  0  0  0  0  0  0  0  0  0
    3.0355   -2.0674    5.9762 C   0  0  0  0  0  0  0  0  0  0  0  0
    1.7991   -1.6576    6.5161 C   0  0  0  0  0  0  0  0  0  0  0  0
    0.5968   -2.5680    6.4284 C   0  0  0  0  0  0  0  0  0  0  0  0
    0.5316   -3.4537    5.2016 C   0  0  0  0  0  0  0  0  0  0  0  0
    0.8842   -4.6299    5.2616 O   0  0  0  0  0  0  0  0  0  0  0  0
    0.0343   -2.8221    4.0756 N   0  0  0  0  0  0  0  0  0  0  0  0
   -0.2747   -3.4934    2.9053 C   0  0  0  0  0  0  0  0  0  0  0  0
   -0.2692   -4.8758    2.6103 C   0  0  0  0  0  0  0  0  0  0  0  0
   -0.6559   -5.1291    1.3574 N   0  0  0  0  0  0  0  0  0  0  0  0
   -0.9143   -3.9132    0.8536 N   0  0  0  0  0  0  0  0  0  0  0  0
   -1.3791   -3.7892   -0.5061 C   0  0  0  0  0  0  0  0  0  0  0  0
   -0.7064   -2.8965    1.7443 C   0  0  0  0  0  0  0  0  0  0  0  0
    1.7249   -0.3859    7.1084 C   0  0  0  0  0  0  0  0  0  0  0  0
    0.6415    0.1409    7.7611 O   0  0  0  0  0  0  0  0  0  0  0  0
   -0.0493   -0.7111    8.6736 C   0  0  0  0  0  0  0  0  0  0  0  0
    2.7792    0.5197    6.9269 C   0  0  0  0  0  0  0  0  0  0  0  0
    6.6865    1.8789    4.7791 C   0  0  0  0  0  0  0  0  0  0  0  0
    7.4691    1.9655    3.6475 C   0  0  0  0  0  0  0  0  0  0  0  0
    7.1320    1.4187    2.4618 N   0  0  0  0  0  0  0  0  0  0  0  0
    5.9417    0.7984    2.3582 C   0  0  0  0  0  0  0  0  0  0  0  0
    5.6137    0.2081    1.1367 C   0  0  0  0  0  0  0  0  0  0  0  0
    3.0392   -2.1394   -1.5319 H   0  0  0  0  0  0  0  0  0  0  0  0
    2.1638   -1.1401   -0.3706 H   0  0  0  0  0  0  0  0  0  0  0  0
    3.0068   -2.6443    0.1652 H   0  0  0  0  0  0  0  0  0  0  0  0
    2.5185   -0.9884    1.8547 H   0  0  0  0  0  0  0  0  0  0  0  0
    2.9711    0.1581    3.9006 H   0  0  0  0  0  0  0  0  0  0  0  0
    5.0260   -1.5070    5.3798 H   0  0  0  0  0  0  0  0  0  0  0  0
    3.1618   -3.0714    5.5697 H   0  0  0  0  0  0  0  0  0  0  0  0
   -0.3235   -1.9754    6.4018 H   0  0  0  0  0  0  0  0  0  0  0  0
    0.5573   -3.2109    7.3146 H   0  0  0  0  0  0  0  0  0  0  0  0
   -0.1141   -1.8213    4.0930 H   0  0  0  0  0  0  0  0  0  0  0  0
   -0.0167   -5.7082    3.2551 H   0  0  0  0  0  0  0  0  0  0  0  0
   -1.4683   -4.7832   -0.9539 H   0  0  0  0  0  0  0  0  0  0  0  0
   -0.6540   -3.1930   -1.0651 H   0  0  0  0  0  0  0  0  0  0  0  0
   -2.3555   -3.2992   -0.4929 H   0  0  0  0  0  0  0  0  0  0  0  0
   -0.8720   -1.8629    1.4705 H   0  0  0  0  0  0  0  0  0  0  0  0
   -0.3433   -0.1191    9.5454 H   0  0  0  0  0  0  0  0  0  0  0  0
    0.5498   -1.5558    9.0295 H   0  0  0  0  0  0  0  0  0  0  0  0
   -0.9740   -1.0632    8.2058 H   0  0  0  0  0  0  0  0  0  0  0  0
    2.6816    1.5372    7.3005 H   0  0  0  0  0  0  0  0  0  0  0  0
    7.0218    2.3175    5.7121 H   0  0  0  0  0  0  0  0  0  0  0  0
    8.4235    2.4828    3.6628 H   0  0  0  0  0  0  0  0  0  0  0  0
    6.3347    0.2680    0.3274 H   0  0  0  0  0  0  0  0  0  0  0  0
  1  2  1  0  0  0  0
  1 32  1  0  0  0  0
  1 33  1  0  0  0  0
  1 34  1  0  0  0  0
  2  3  1  0  0  0  0
  3  4  1  0  0  0  0
  3 31  2  0  0  0  0
  4  5  2  0  0  0  0
  4 35  1  0  0  0  0
  5  6  1  0  0  0  0
  5 36  1  0  0  0  0
  6  7  1  0  0  0  0
  6 30  2  0  0  0  0
  7  8  1  0  0  0  0
  7 27  2  0  0  0  0
  8  9  1  0  0  0  0
  9 10  1  0  0  0  0
  9 26  2  0  0  0  0
 10 11  2  0  0  0  0
 10 37  1  0  0  0  0
 11 12  1  0  0  0  0
 11 38  1  0  0  0  0
 12 13  1  0  0  0  0
 12 23  2  0  0  0  0
 13 14  1  0  0  0  0
 13 39  1  0  0  0  0
 13 40  1  0  0  0  0
 14 15  2  0  0  0  0
 14 16  1  0  0  0  0
 16 17  1  0  0  0  0
 16 41  1  0  0  0  0
 17 18  1  0  0  0  0
 17 22  2  0  0  0  0
 18 19  2  0  0  0  0
 18 42  1  0  0  0  0
 19 20  1  0  0  0  0
 20 21  1  0  0  0  0
 20 22  1  0  0  0  0
 21 43  1  0  0  0  0
 21 44  1  0  0  0  0
 21 45  1  0  0  0  0
 22 46  1  0  0  0  0
 23 24  1  0  0  0  0
 23 26  1  0  0  0  0
 24 25  1  0  0  0  0
 25 47  1  0  0  0  0
 25 48  1  0  0  0  0
 25 49  1  0  0  0  0
 26 50  1  0  0  0  0
 27 28  1  0  0  0  0
 27 51  1  0  0  0  0
 28 29  2  0  0  0  0
 28 52  1  0  0  0  0
 29 30  1  0  0  0  0
 30 31  1  0  0  0  0
 31 53  1  0  0  0  0
M  END
$$$$
