CHEMBL380536
 OpenBabel04072215373D

 47 50  0  0  0  0  0  0  0  0999 V2000
    7.0226    8.2663   -3.7363 F   0  0  0  0  0  0  0  0  0  0  0  0
    7.8019    9.3140   -3.3954 C   0  0  0  0  0  0  0  0  0  0  0  0
    8.4500    9.7566   -4.4939 F   0  0  0  0  0  0  0  0  0  0  0  0
    6.9872   10.3022   -2.9601 F   0  0  0  0  0  0  0  0  0  0  0  0
    8.7422    9.0275   -2.3703 O   0  0  0  0  0  0  0  0  0  0  0  0
    9.0702    7.7375   -2.0884 C   0  0  0  0  0  0  0  0  0  0  0  0
    8.9538    6.6442   -2.9379 C   0  0  0  0  0  0  0  0  0  0  0  0
    9.2710    5.3543   -2.4824 C   0  0  0  0  0  0  0  0  0  0  0  0
    9.7314    5.1281   -1.1798 C   0  0  0  0  0  0  0  0  0  0  0  0
   10.0683    3.8616   -0.6636 N   0  0  0  0  0  0  0  0  0  0  0  0
   10.0591    2.6619   -1.2763 C   0  0  0  0  0  0  0  0  0  0  0  0
    9.9267    1.4690   -0.7331 N   0  0  0  0  0  0  0  0  0  0  0  0
   10.0155    0.5473   -1.7619 N   0  0  0  0  0  0  0  0  0  0  0  0
   10.2396    1.2371   -2.8636 C   0  0  0  0  0  0  0  0  0  0  0  0
   10.4519    0.8178   -4.2477 C   0  0  0  0  0  0  0  0  0  0  0  0
   10.6986    1.7979   -5.2328 C   0  0  0  0  0  0  0  0  0  0  0  0
   10.8972    1.4517   -6.5652 C   0  0  0  0  0  0  0  0  0  0  0  0
   10.8398    0.1186   -6.8959 C   0  0  0  0  0  0  0  0  0  0  0  0
   10.6090   -0.8536   -5.9944 N   0  0  0  0  0  0  0  0  0  0  0  0
   10.4353   -0.5199   -4.6797 C   0  0  0  0  0  0  0  0  0  0  0  0
   10.1574   -1.7022   -3.7653 C   0  0  0  0  0  0  0  0  0  0  0  0
   10.8132   -3.0057   -4.2637 C   0  0  0  0  0  0  0  0  0  0  0  0
   10.5142   -4.2712   -3.4920 C   0  0  0  0  0  0  0  0  0  0  0  0
   10.6279   -5.4982   -4.1609 C   0  0  0  0  0  0  0  0  0  0  0  0
   10.3806   -6.6725   -3.4690 C   0  0  0  0  0  0  0  0  0  0  0  0
   10.0451   -6.7126   -2.1642 N   0  0  0  0  0  0  0  0  0  0  0  0
    9.9582   -5.5265   -1.5286 C   0  0  0  0  0  0  0  0  0  0  0  0
   10.1873   -4.2976   -2.1350 C   0  0  0  0  0  0  0  0  0  0  0  0
   10.2790    2.5891   -2.6234 O   0  0  0  0  0  0  0  0  0  0  0  0
    9.9311    6.2533   -0.3670 C   0  0  0  0  0  0  0  0  0  0  0  0
    9.6003    7.5392   -0.8139 C   0  0  0  0  0  0  0  0  0  0  0  0
    8.6090    6.7428   -3.9630 H   0  0  0  0  0  0  0  0  0  0  0  0
    9.1074    4.5325   -3.1703 H   0  0  0  0  0  0  0  0  0  0  0  0
   10.0049    3.8151    0.3482 H   0  0  0  0  0  0  0  0  0  0  0  0
   10.7394    2.8535   -4.9700 H   0  0  0  0  0  0  0  0  0  0  0  0
   11.0884    2.2052   -7.3206 H   0  0  0  0  0  0  0  0  0  0  0  0
   10.9813   -0.2189   -7.9181 H   0  0  0  0  0  0  0  0  0  0  0  0
    9.0703   -1.8292   -3.6895 H   0  0  0  0  0  0  0  0  0  0  0  0
   10.5498   -1.5053   -2.7660 H   0  0  0  0  0  0  0  0  0  0  0  0
   11.9029   -2.8725   -4.2811 H   0  0  0  0  0  0  0  0  0  0  0  0
   10.4981   -3.1840   -5.3003 H   0  0  0  0  0  0  0  0  0  0  0  0
   10.9045   -5.5417   -5.2106 H   0  0  0  0  0  0  0  0  0  0  0  0
   10.4537   -7.6379   -3.9621 H   0  0  0  0  0  0  0  0  0  0  0  0
    9.6959   -5.5855   -0.4767 H   0  0  0  0  0  0  0  0  0  0  0  0
   10.1089   -3.3942   -1.5410 H   0  0  0  0  0  0  0  0  0  0  0  0
   10.3405    6.1453    0.6352 H   0  0  0  0  0  0  0  0  0  0  0  0
    9.7477    8.3881   -0.1502 H   0  0  0  0  0  0  0  0  0  0  0  0
  1  2  1  0  0  0  0
  2  3  1  0  0  0  0
  2  4  1  0  0  0  0
  2  5  1  0  0  0  0
  5  6  1  0  0  0  0
  6  7  1  0  0  0  0
  6 31  2  0  0  0  0
  7  8  2  0  0  0  0
  7 32  1  0  0  0  0
  8  9  1  0  0  0  0
  8 33  1  0  0  0  0
  9 10  1  0  0  0  0
  9 30  2  0  0  0  0
 10 11  1  0  0  0  0
 10 34  1  0  0  0  0
 11 12  2  0  0  0  0
 11 29  1  0  0  0  0
 12 13  1  0  0  0  0
 13 14  2  0  0  0  0
 14 15  1  0  0  0  0
 14 29  1  0  0  0  0
 15 16  1  0  0  0  0
 15 20  2  0  0  0  0
 16 17  2  0  0  0  0
 16 35  1  0  0  0  0
 17 18  1  0  0  0  0
 17 36  1  0  0  0  0
 18 19  2  0  0  0  0
 18 37  1  0  0  0  0
 19 20  1  0  0  0  0
 20 21  1  0  0  0  0
 21 22  1  0  0  0  0
 21 38  1  0  0  0  0
 21 39  1  0  0  0  0
 22 23  1  0  0  0  0
 22 40  1  0  0  0  0
 22 41  1  0  0  0  0
 23 24  1  0  0  0  0
 23 28  2  0  0  0  0
 24 25  2  0  0  0  0
 24 42  1  0  0  0  0
 25 26  1  0  0  0  0
 25 43  1  0  0  0  0
 26 27  2  0  0  0  0
 27 28  1  0  0  0  0
 27 44  1  0  0  0  0
 28 45  1  0  0  0  0
 30 31  1  0  0  0  0
 30 46  1  0  0  0  0
 31 47  1  0  0  0  0
M  END
$$$$
