CHEMBL4068447
 OpenBabel04072215383D

 67 73  0  0  1  0  0  0  0  0999 V2000
    1.6670    2.4923    2.3150 C   0  0  0  0  0  0  0  0  0  0  0  0
    3.1278    2.2933    2.0918 C   0  0  0  0  0  0  0  0  0  0  0  0
    4.1045    3.1678    2.5140 C   0  0  0  0  0  0  0  0  0  0  0  0
    5.6630    2.6530    2.0870 S   0  0  0  0  0  0  0  0  0  0  0  0
    5.0926    1.2250    1.2898 C   0  0  0  0  0  0  0  0  0  0  0  0
    5.7604    0.1910    0.5923 C   0  0  0  0  0  0  0  0  0  0  0  0
    7.1730    0.1608    0.4299 N   0  0  0  0  0  0  0  0  0  0  0  0
    7.9450    1.1035    0.9733 N   0  0  0  0  0  0  0  0  0  0  0  0
    9.1793    0.6567    0.7695 C   0  0  0  0  0  0  0  0  0  0  0  0
   10.2701    1.1653    1.3660 N   0  0  0  0  0  0  0  0  0  0  0  0
   10.2040    1.9126    2.5590 C   0  0  0  0  0  0  0  0  0  0  0  0
    9.2992    1.5349    3.5615 C   0  0  0  0  0  0  0  0  0  0  0  0
    8.9781    2.3813    4.6163 C   0  0  0  0  0  0  0  0  0  0  0  0
    9.5610    3.6411    4.7313 C   0  0  0  0  0  0  0  0  0  0  0  0
    9.2372    4.4660    5.7890 N   0  0  0  0  0  0  0  0  0  0  0  0
   10.1751    5.4927    6.2440 C   0  0  0  0  0  0  0  0  0  0  0  0
   10.1252    5.5706    7.7812 C   0  0  0  0  0  0  0  0  0  0  0  0
    8.7815    5.8551    8.3430 N   0  0  0  0  0  0  0  0  0  0  0  0
    8.3193    7.2196    8.0441 C   0  0  3  0  0  0  0  0  0  0  0  0
    9.2477    8.3116    8.6452 C   0  0  0  0  0  0  0  0  0  0  0  0
    8.3229    9.0871    9.5902 C   0  0  3  0  0  0  0  0  0  0  0  0
    7.9290    8.1742   10.7702 C   0  0  0  0  0  0  0  0  0  0  0  0
    6.8758    7.2457   10.1532 C   0  0  0  0  0  0  0  0  0  0  0  0
    6.9394    7.6118    8.6625 C   0  0  3  0  0  0  0  0  0  0  0  0
    7.0453    9.1389    8.7608 C   0  0  0  0  0  0  0  0  0  0  0  0
    7.8647    4.8005    7.8437 C   0  0  0  0  0  0  0  0  0  0  0  0
    7.8614    4.5765    6.3102 C   0  0  0  0  0  0  0  0  0  0  0  0
   10.5171    3.9860    3.7572 C   0  0  0  0  0  0  0  0  0  0  0  0
   10.8426    3.1380    2.6857 C   0  0  0  0  0  0  0  0  0  0  0  0
    9.2574   -0.4245   -0.0481 N   0  0  0  0  0  0  0  0  0  0  0  0
    7.9956   -0.7625   -0.2200 C   0  0  0  0  0  0  0  0  0  0  0  0
    7.5559   -1.8433   -0.8907 N   0  0  0  0  0  0  0  0  0  0  0  0
    5.0150   -0.8197    0.0683 N   0  0  0  0  0  0  0  0  0  0  0  0
    3.6924   -0.7769    0.2553 C   0  0  0  0  0  0  0  0  0  0  0  0
    2.8145   -2.0900   -0.3957 Cl  0  0  0  0  0  0  0  0  0  0  0  0
    2.9696    0.1512    0.8795 N   0  0  0  0  0  0  0  0  0  0  0  0
    3.6995    1.1689    1.3959 C   0  0  0  0  0  0  0  0  0  0  0  0
    1.4684    3.4340    2.8382 H   0  0  0  0  0  0  0  0  0  0  0  0
    1.2571    1.6768    2.9194 H   0  0  0  0  0  0  0  0  0  0  0  0
    1.1368    2.5216    1.3582 H   0  0  0  0  0  0  0  0  0  0  0  0
    3.9744    4.0972    3.0537 H   0  0  0  0  0  0  0  0  0  0  0  0
   11.1594    1.1365    0.8868 H   0  0  0  0  0  0  0  0  0  0  0  0
    8.7938    0.5727    3.5067 H   0  0  0  0  0  0  0  0  0  0  0  0
    8.2659    2.0190    5.3494 H   0  0  0  0  0  0  0  0  0  0  0  0
    9.9314    6.4570    5.7805 H   0  0  0  0  0  0  0  0  0  0  0  0
   11.2068    5.2479    5.9715 H   0  0  0  0  0  0  0  0  0  0  0  0
   10.8740    6.2879    8.1289 H   0  0  0  0  0  0  0  0  0  0  0  0
   10.4555    4.6023    8.1834 H   0  0  0  0  0  0  0  0  0  0  0  0
    8.2557    7.3803    6.9600 H   0  0  0  0  0  0  0  0  0  0  0  0
    9.6114    8.9611    7.8386 H   0  0  0  0  0  0  0  0  0  0  0  0
   10.1219    7.9319    9.1807 H   0  0  0  0  0  0  0  0  0  0  0  0
    8.7342   10.0494    9.9006 H   0  0  0  0  0  0  0  0  0  0  0  0
    7.4901    8.7507   11.5900 H   0  0  0  0  0  0  0  0  0  0  0  0
    8.7816    7.6109   11.1621 H   0  0  0  0  0  0  0  0  0  0  0  0
    5.8841    7.4851   10.5567 H   0  0  0  0  0  0  0  0  0  0  0  0
    7.0684    6.1904   10.3628 H   0  0  0  0  0  0  0  0  0  0  0  0
    6.0814    7.2553    8.0874 H   0  0  0  0  0  0  0  0  0  0  0  0
    6.2095    9.6022    9.2954 H   0  0  0  0  0  0  0  0  0  0  0  0
    7.1782    9.6305    7.7913 H   0  0  0  0  0  0  0  0  0  0  0  0
    6.8402    4.9708    8.1927 H   0  0  0  0  0  0  0  0  0  0  0  0
    8.1684    3.8577    8.3205 H   0  0  0  0  0  0  0  0  0  0  0  0
    7.3492    5.4090    5.8132 H   0  0  0  0  0  0  0  0  0  0  0  0
    7.2574    3.6835    6.1147 H   0  0  0  0  0  0  0  0  0  0  0  0
   10.9960    4.9610    3.7799 H   0  0  0  0  0  0  0  0  0  0  0  0
   11.5366    3.4833    1.9262 H   0  0  0  0  0  0  0  0  0  0  0  0
    8.2144   -2.3751   -1.4480 H   0  0  0  0  0  0  0  0  0  0  0  0
    6.5707   -1.9666   -1.1132 H   0  0  0  0  0  0  0  0  0  0  0  0
  1  2  1  0  0  0  0
  1 38  1  0  0  0  0
  1 39  1  0  0  0  0
  1 40  1  0  0  0  0
  2  3  2  0  0  0  0
  2 37  1  0  0  0  0
  3  4  1  0  0  0  0
  3 41  1  0  0  0  0
  4  5  1  0  0  0  0
  5  6  1  0  0  0  0
  5 37  2  0  0  0  0
  6  7  1  0  0  0  0
  6 33  2  0  0  0  0
  7  8  1  0  0  0  0
  7 31  1  0  0  0  0
  8  9  2  0  0  0  0
  9 10  1  0  0  0  0
  9 30  1  0  0  0  0
 10 11  1  0  0  0  0
 10 42  1  0  0  0  0
 11 12  1  0  0  0  0
 11 29  2  0  0  0  0
 12 13  2  0  0  0  0
 12 43  1  0  0  0  0
 13 14  1  0  0  0  0
 13 44  1  0  0  0  0
 14 15  1  0  0  0  0
 14 28  2  0  0  0  0
 15 16  1  0  0  0  0
 15 27  1  0  0  0  0
 16 17  1  0  0  0  0
 16 45  1  0  0  0  0
 16 46  1  0  0  0  0
 17 18  1  0  0  0  0
 17 47  1  0  0  0  0
 17 48  1  0  0  0  0
 18 19  1  0  0  0  0
 18 26  1  0  0  0  0
 19 20  1  0  0  0  0
 19 24  1  0  0  0  0
 19 49  1  0  0  0  0
 20 21  1  0  0  0  0
 20 50  1  0  0  0  0
 20 51  1  0  0  0  0
 21 22  1  0  0  0  0
 21 25  1  0  0  0  0
 21 52  1  0  0  0  0
 22 23  1  0  0  0  0
 22 53  1  0  0  0  0
 22 54  1  0  0  0  0
 23 24  1  0  0  0  0
 23 55  1  0  0  0  0
 23 56  1  0  0  0  0
 24 25  1  0  0  0  0
 24 57  1  0  0  0  0
 25 58  1  0  0  0  0
 25 59  1  0  0  0  0
 26 27  1  0  0  0  0
 26 60  1  0  0  0  0
 26 61  1  0  0  0  0
 27 62  1  0  0  0  0
 27 63  1  0  0  0  0
 28 29  1  0  0  0  0
 28 64  1  0  0  0  0
 29 65  1  0  0  0  0
 30 31  2  0  0  0  0
 31 32  1  0  0  0  0
 32 66  1  0  0  0  0
 32 67  1  0  0  0  0
 33 34  1  0  0  0  0
 34 35  1  0  0  0  0
 34 36  2  0  0  0  0
 36 37  1  0  0  0  0
M  END
$$$$
