CHEMBL202805
 OpenBabel04072215363D

 45 48  0  0  0  0  0  0  0  0999 V2000
    3.1601   -2.6799    0.3073 C   0  0  0  0  0  0  0  0  0  0  0  0
    1.8290   -3.3672    0.2200 C   0  0  0  0  0  0  0  0  0  0  0  0
    1.6798   -4.6976    0.6136 C   0  0  0  0  0  0  0  0  0  0  0  0
    0.4340   -5.3178    0.5150 C   0  0  0  0  0  0  0  0  0  0  0  0
   -0.6831   -4.6044    0.0600 C   0  0  0  0  0  0  0  0  0  0  0  0
   -0.5693   -3.2566   -0.2798 C   0  0  0  0  0  0  0  0  0  0  0  0
   -1.6544   -2.4249   -0.6496 N   0  0  0  0  0  0  0  0  0  0  0  0
   -3.0050   -2.7561   -0.7223 C   0  0  0  0  0  0  0  0  0  0  0  0
   -3.4851   -3.8330   -0.4042 O   0  0  0  0  0  0  0  0  0  0  0  0
   -3.9134   -1.6903   -1.2942 C   0  0  0  0  0  0  0  0  0  0  0  0
   -3.3764   -0.8268   -2.2747 C   0  0  0  0  0  0  0  0  0  0  0  0
   -4.1744    0.0966   -2.9545 C   0  0  0  0  0  0  0  0  0  0  0  0
   -5.5343    0.1562   -2.6956 C   0  0  0  0  0  0  0  0  0  0  0  0
   -6.0883   -0.6886   -1.7382 C   0  0  0  0  0  0  0  0  0  0  0  0
   -5.2996   -1.6114   -1.0062 C   0  0  0  0  0  0  0  0  0  0  0  0
   -6.0374   -2.4670    0.0030 C   0  0  0  0  0  0  0  0  0  0  0  0
   -6.1757   -1.8673    1.3369 N   0  0  0  0  0  0  0  0  0  0  0  0
   -6.8754   -0.7122    1.6169 C   0  0  0  0  0  0  0  0  0  0  0  0
   -7.0853   -0.6444    2.9713 C   0  0  0  0  0  0  0  0  0  0  0  0
   -6.4975   -1.7996    3.5583 C   0  0  0  0  0  0  0  0  0  0  0  0
   -6.4363   -2.3039    4.8648 C   0  0  0  0  0  0  0  0  0  0  0  0
   -5.7905   -3.4651    5.1298 N   0  0  0  0  0  0  0  0  0  0  0  0
   -5.1932   -4.1187    4.1101 C   0  0  0  0  0  0  0  0  0  0  0  0
   -5.1973   -3.7074    2.7866 C   0  0  0  0  0  0  0  0  0  0  0  0
   -5.8910   -2.5236    2.5250 C   0  0  0  0  0  0  0  0  0  0  0  0
    0.7032   -2.6615   -0.2378 C   0  0  0  0  0  0  0  0  0  0  0  0
    3.9322   -3.3431    0.7119 H   0  0  0  0  0  0  0  0  0  0  0  0
    3.0881   -1.8104    0.9690 H   0  0  0  0  0  0  0  0  0  0  0  0
    3.4854   -2.3509   -0.6849 H   0  0  0  0  0  0  0  0  0  0  0  0
    2.5267   -5.2601    1.0017 H   0  0  0  0  0  0  0  0  0  0  0  0
    0.3260   -6.3591    0.8108 H   0  0  0  0  0  0  0  0  0  0  0  0
   -1.6302   -5.1300   -0.0008 H   0  0  0  0  0  0  0  0  0  0  0  0
   -1.4097   -1.4568   -0.8020 H   0  0  0  0  0  0  0  0  0  0  0  0
   -2.3338   -0.8907   -2.5761 H   0  0  0  0  0  0  0  0  0  0  0  0
   -3.7381    0.7438   -3.7118 H   0  0  0  0  0  0  0  0  0  0  0  0
   -6.1694    0.8444   -3.2482 H   0  0  0  0  0  0  0  0  0  0  0  0
   -7.1650   -0.6381   -1.5729 H   0  0  0  0  0  0  0  0  0  0  0  0
   -5.6331   -3.4713    0.0975 H   0  0  0  0  0  0  0  0  0  0  0  0
   -7.0714   -2.6239   -0.3411 H   0  0  0  0  0  0  0  0  0  0  0  0
   -7.2036   -0.0469    0.8303 H   0  0  0  0  0  0  0  0  0  0  0  0
   -7.6322    0.1310    3.4935 H   0  0  0  0  0  0  0  0  0  0  0  0
   -6.9069   -1.8131    5.7086 H   0  0  0  0  0  0  0  0  0  0  0  0
   -4.6877   -5.0388    4.3933 H   0  0  0  0  0  0  0  0  0  0  0  0
   -4.6960   -4.2792    2.0163 H   0  0  0  0  0  0  0  0  0  0  0  0
    0.8329   -1.6281   -0.5492 H   0  0  0  0  0  0  0  0  0  0  0  0
  1  2  1  0  0  0  0
  1 27  1  0  0  0  0
  1 28  1  0  0  0  0
  1 29  1  0  0  0  0
  2  3  1  0  0  0  0
  2 26  2  0  0  0  0
  3  4  2  0  0  0  0
  3 30  1  0  0  0  0
  4  5  1  0  0  0  0
  4 31  1  0  0  0  0
  5  6  2  0  0  0  0
  5 32  1  0  0  0  0
  6  7  1  0  0  0  0
  6 26  1  0  0  0  0
  7  8  1  0  0  0  0
  7 33  1  0  0  0  0
  8  9  2  0  0  0  0
  8 10  1  0  0  0  0
 10 11  1  0  0  0  0
 10 15  2  0  0  0  0
 11 12  2  0  0  0  0
 11 34  1  0  0  0  0
 12 13  1  0  0  0  0
 12 35  1  0  0  0  0
 13 14  2  0  0  0  0
 13 36  1  0  0  0  0
 14 15  1  0  0  0  0
 14 37  1  0  0  0  0
 15 16  1  0  0  0  0
 16 17  1  0  0  0  0
 16 38  1  0  0  0  0
 16 39  1  0  0  0  0
 17 18  1  0  0  0  0
 17 25  1  0  0  0  0
 18 19  2  0  0  0  0
 18 40  1  0  0  0  0
 19 20  1  0  0  0  0
 19 41  1  0  0  0  0
 20 21  1  0  0  0  0
 20 25  2  0  0  0  0
 21 22  2  0  0  0  0
 21 42  1  0  0  0  0
 22 23  1  0  0  0  0
 23 24  2  0  0  0  0
 23 43  1  0  0  0  0
 24 25  1  0  0  0  0
 24 44  1  0  0  0  0
 26 45  1  0  0  0  0
M  END
$$$$
