CHEMBL1241950
 OpenBabel04072215363D

 43 46  0  0  0  0  0  0  0  0999 V2000
    3.7849    0.7843    0.4340 C   0  0  0  0  0  0  0  0  0  0  0  0
    2.6045   -0.0888    0.0158 C   0  0  0  0  0  0  0  0  0  0  0  0
    1.3906    0.7713   -0.3383 C   0  0  0  0  0  0  0  0  0  0  0  0
    3.0183   -0.9596   -1.0825 N   0  0  0  0  0  0  0  0  0  0  0  0
    3.4618   -0.4164   -2.2393 N   0  0  0  0  0  0  0  0  0  0  0  0
    3.4515   -1.4530   -3.1066 C   0  0  0  0  0  0  0  0  0  0  0  0
    4.0499   -1.3525   -4.4216 C   0  0  0  0  0  0  0  0  0  0  0  0
    5.1013   -0.4648   -4.3563 C   0  0  0  0  0  0  0  0  0  0  0  0
    6.0568   -0.6705   -5.2677 C   0  0  0  0  0  0  0  0  0  0  0  0
    5.7575   -1.3066   -6.4294 C   0  0  0  0  0  0  0  0  0  0  0  0
    6.3751   -0.9601   -7.5017 N   0  0  0  0  0  0  0  0  0  0  0  0
    6.9938   -0.5928   -8.5298 C   0  0  0  0  0  0  0  0  0  0  0  0
    7.3561    0.7714   -8.5347 N   0  0  0  0  0  0  0  0  0  0  0  0
    7.4003    1.3090   -9.9261 N   0  0  0  0  0  0  0  0  0  0  0  0
    6.1837   -1.4618   -9.2039 C   0  0  0  0  0  0  0  0  0  0  0  0
    5.0249   -2.3334   -8.4084 C   0  0  0  0  0  0  0  0  0  0  0  0
    4.7142   -2.0575   -6.8361 C   0  0  0  0  0  0  0  0  0  0  0  0
    3.8783   -2.2214   -5.5848 C   0  0  0  0  0  0  0  0  0  0  0  0
    3.1634   -2.6719   -2.4602 C   0  0  0  0  0  0  0  0  0  0  0  0
    3.1416   -4.0298   -2.7896 C   0  0  0  0  0  0  0  0  0  0  0  0
    3.5201   -4.5367   -4.0158 N   0  0  0  0  0  0  0  0  0  0  0  0
    2.6768   -4.8942   -1.8683 N   0  0  0  0  0  0  0  0  0  0  0  0
    2.3090   -4.4093   -0.6642 C   0  0  0  0  0  0  0  0  0  0  0  0
    2.3827   -3.1453   -0.2156 N   0  0  0  0  0  0  0  0  0  0  0  0
    2.8334   -2.3160   -1.1685 C   0  0  0  0  0  0  0  0  0  0  0  0
    3.5166    1.4503    1.2586 H   0  0  0  0  0  0  0  0  0  0  0  0
    4.1266    1.4041   -0.4021 H   0  0  0  0  0  0  0  0  0  0  0  0
    4.6319    0.1658    0.7516 H   0  0  0  0  0  0  0  0  0  0  0  0
    2.3273   -0.7359    0.8605 H   0  0  0  0  0  0  0  0  0  0  0  0
    1.5916    1.4197   -1.1951 H   0  0  0  0  0  0  0  0  0  0  0  0
    1.1156    1.4255    0.4960 H   0  0  0  0  0  0  0  0  0  0  0  0
    0.5261    0.1478   -0.5883 H   0  0  0  0  0  0  0  0  0  0  0  0
    5.3048    0.2359   -3.5594 H   0  0  0  0  0  0  0  0  0  0  0  0
    6.9966   -0.1469   -5.1103 H   0  0  0  0  0  0  0  0  0  0  0  0
    6.6196    1.3290   -8.0902 H   0  0  0  0  0  0  0  0  0  0  0  0
    7.2013    0.4318  -10.3889 H   0  0  0  0  0  0  0  0  0  0  0  0
    8.3313    1.4312  -10.3477 H   0  0  0  0  0  0  0  0  0  0  0  0
    6.3346   -1.6692  -10.2667 H   0  0  0  0  0  0  0  0  0  0  0  0
    4.4748   -3.0998   -8.9533 H   0  0  0  0  0  0  0  0  0  0  0  0
    3.1083   -2.9926   -5.5106 H   0  0  0  0  0  0  0  0  0  0  0  0
    4.1023   -3.9899   -4.6323 H   0  0  0  0  0  0  0  0  0  0  0  0
    3.5582   -5.5408   -4.0924 H   0  0  0  0  0  0  0  0  0  0  0  0
    1.8958   -5.1303    0.0319 H   0  0  0  0  0  0  0  0  0  0  0  0
  1  2  1  0  0  0  0
  1 26  1  0  0  0  0
  1 27  1  0  0  0  0
  1 28  1  0  0  0  0
  2  3  1  0  0  0  0
  2  4  1  0  0  0  0
  2 29  1  0  0  0  0
  3 30  1  0  0  0  0
  3 31  1  0  0  0  0
  3 32  1  0  0  0  0
  4  5  1  0  0  0  0
  4 25  1  0  0  0  0
  5  6  2  0  0  0  0
  6  7  1  0  0  0  0
  6 19  1  0  0  0  0
  7  8  1  0  0  0  0
  7 18  2  0  0  0  0
  8  9  2  0  0  0  0
  8 33  1  0  0  0  0
  9 10  1  0  0  0  0
  9 34  1  0  0  0  0
 10 11  1  0  0  0  0
 10 17  2  0  0  0  0
 11 12  2  0  0  0  0
 12 13  1  0  0  0  0
 12 15  1  0  0  0  0
 13 14  1  0  0  0  0
 13 35  1  0  0  0  0
 14 36  1  0  0  0  0
 14 37  1  0  0  0  0
 15 16  2  0  0  0  0
 15 38  1  0  0  0  0
 16 17  1  0  0  0  0
 16 39  1  0  0  0  0
 17 18  1  0  0  0  0
 18 40  1  0  0  0  0
 19 20  1  0  0  0  0
 19 25  2  0  0  0  0
 20 21  1  0  0  0  0
 20 22  2  0  0  0  0
 21 41  1  0  0  0  0
 21 42  1  0  0  0  0
 22 23  1  0  0  0  0
 23 24  2  0  0  0  0
 23 43  1  0  0  0  0
 24 25  1  0  0  0  0
M  END
$$$$
