CHEMBL3589813
 OpenBabel04072215363D

 43 46  0  0  0  0  0  0  0  0999 V2000
    1.1652    0.2369   -0.5341 O   0  0  0  0  0  0  0  0  0  0  0  0
    2.3746    0.3420   -0.3681 C   0  0  0  0  0  0  0  0  0  0  0  0
    2.9834    0.5577    0.8634 N   0  0  0  0  0  0  0  0  0  0  0  0
    2.2856    0.5211    2.0928 C   0  0  0  0  0  0  0  0  0  0  0  0
    1.0119   -0.0145    2.1558 C   0  0  0  0  0  0  0  0  0  0  0  0
    0.2897    0.0370    3.3249 C   0  0  0  0  0  0  0  0  0  0  0  0
    0.8610    0.4247    4.5367 C   0  0  0  0  0  0  0  0  0  0  0  0
    0.0971    0.2811    5.7218 N   0  0  0  0  0  0  0  0  0  0  0  0
   -0.5096   -0.8743    5.8238 C   0  0  0  0  0  0  0  0  0  0  0  0
    0.1024   -2.2571    5.4693 C   0  0  0  0  0  0  0  0  0  0  0  0
    1.2240   -2.6288    5.7329 O   0  0  0  0  0  0  0  0  0  0  0  0
   -0.8623   -2.9171    4.7363 N   0  0  0  0  0  0  0  0  0  0  0  0
   -1.9996   -2.1195    4.6053 C   0  0  0  0  0  0  0  0  0  0  0  0
   -2.9336   -2.2152    3.5907 C   0  0  0  0  0  0  0  0  0  0  0  0
   -3.8173   -1.1395    3.4281 C   0  0  0  0  0  0  0  0  0  0  0  0
   -3.7904   -0.0382    4.3089 C   0  0  0  0  0  0  0  0  0  0  0  0
   -4.8635    1.2809    4.0394 Cl  0  0  0  0  0  0  0  0  0  0  0  0
   -2.8405    0.0521    5.3268 C   0  0  0  0  0  0  0  0  0  0  0  0
   -1.9368   -0.9900    5.4346 C   0  0  0  0  0  0  0  0  0  0  0  0
    2.1406    0.9714    4.4956 C   0  0  0  0  0  0  0  0  0  0  0  0
    2.8516    1.0327    3.2696 C   0  0  0  0  0  0  0  0  0  0  0  0
    3.2866    0.2290   -1.3976 N   0  0  0  0  0  0  0  0  0  0  0  0
    2.9419    0.0024   -2.7563 C   0  0  0  0  0  0  0  0  0  0  0  0
    1.6416    0.1487   -3.2545 C   0  0  0  0  0  0  0  0  0  0  0  0
    1.3407   -0.1258   -4.5902 C   0  0  0  0  0  0  0  0  0  0  0  0
    2.3508   -0.5296   -5.4537 C   0  0  0  0  0  0  0  0  0  0  0  0
    3.6493   -0.6465   -4.9690 C   0  0  0  0  0  0  0  0  0  0  0  0
    4.9095   -1.1438   -6.0415 Cl  0  0  0  0  0  0  0  0  0  0  0  0
    3.9561   -0.3828   -3.6343 C   0  0  0  0  0  0  0  0  0  0  0  0
    3.9099    0.9551    0.8670 H   0  0  0  0  0  0  0  0  0  0  0  0
    0.5154   -0.4882    1.3185 H   0  0  0  0  0  0  0  0  0  0  0  0
   -0.7402   -0.2752    3.2469 H   0  0  0  0  0  0  0  0  0  0  0  0
   -0.6589   -3.7532    4.2133 H   0  0  0  0  0  0  0  0  0  0  0  0
   -2.8938   -3.0072    2.8483 H   0  0  0  0  0  0  0  0  0  0  0  0
   -4.4842   -1.1217    2.5667 H   0  0  0  0  0  0  0  0  0  0  0  0
   -2.7182    0.9578    5.9118 H   0  0  0  0  0  0  0  0  0  0  0  0
    2.5853    1.3612    5.4066 H   0  0  0  0  0  0  0  0  0  0  0  0
    3.8378    1.4852    3.2661 H   0  0  0  0  0  0  0  0  0  0  0  0
    4.2497    0.0775   -1.1365 H   0  0  0  0  0  0  0  0  0  0  0  0
    0.8122    0.4800   -2.6353 H   0  0  0  0  0  0  0  0  0  0  0  0
    0.3184   -0.0274   -4.9449 H   0  0  0  0  0  0  0  0  0  0  0  0
    2.1170   -0.7523   -6.4905 H   0  0  0  0  0  0  0  0  0  0  0  0
    4.9778   -0.4925   -3.2882 H   0  0  0  0  0  0  0  0  0  0  0  0
  1  2  2  0  0  0  0
  2  3  1  0  0  0  0
  2 22  1  0  0  0  0
  3  4  1  0  0  0  0
  3 30  1  0  0  0  0
  4  5  1  0  0  0  0
  4 21  2  0  0  0  0
  5  6  2  0  0  0  0
  5 31  1  0  0  0  0
  6  7  1  0  0  0  0
  6 32  1  0  0  0  0
  7  8  1  0  0  0  0
  7 20  2  0  0  0  0
  8  9  2  0  0  0  0
  9 10  1  0  0  0  0
  9 19  1  0  0  0  0
 10 11  2  0  0  0  0
 10 12  1  0  0  0  0
 12 13  1  0  0  0  0
 12 33  1  0  0  0  0
 13 14  1  0  0  0  0
 13 19  2  0  0  0  0
 14 15  2  0  0  0  0
 14 34  1  0  0  0  0
 15 16  1  0  0  0  0
 15 35  1  0  0  0  0
 16 17  1  0  0  0  0
 16 18  2  0  0  0  0
 18 19  1  0  0  0  0
 18 36  1  0  0  0  0
 20 21  1  0  0  0  0
 20 37  1  0  0  0  0
 21 38  1  0  0  0  0
 22 23  1  0  0  0  0
 22 39  1  0  0  0  0
 23 24  1  0  0  0  0
 23 29  2  0  0  0  0
 24 25  2  0  0  0  0
 24 40  1  0  0  0  0
 25 26  1  0  0  0  0
 25 41  1  0  0  0  0
 26 27  2  0  0  0  0
 26 42  1  0  0  0  0
 27 28  1  0  0  0  0
 27 29  1  0  0  0  0
 29 43  1  0  0  0  0
M  END
$$$$
