CHEMBL3409416
 OpenBabel04072215363D

 46 49  0  0  0  0  0  0  0  0999 V2000
    9.7449    5.8906    2.1869 C   0  0  0  0  0  0  0  0  0  0  0  0
    9.0366    5.0375    1.2680 N   0  0  0  0  0  0  0  0  0  0  0  0
    7.8308    5.4410    0.7133 C   0  0  0  0  0  0  0  0  0  0  0  0
    7.3400    6.5425    0.9436 O   0  0  0  0  0  0  0  0  0  0  0  0
    7.1538    4.4316   -0.1871 C   0  0  0  0  0  0  0  0  0  0  0  0
    5.9875    4.8083   -0.7524 N   0  0  0  0  0  0  0  0  0  0  0  0
    5.3827    3.8981   -1.5299 C   0  0  0  0  0  0  0  0  0  0  0  0
    5.8989    2.6479   -1.7648 C   0  0  0  0  0  0  0  0  0  0  0  0
    7.1117    2.3790   -1.1634 C   0  0  0  0  0  0  0  0  0  0  0  0
    7.6182    1.1002   -1.3815 O   0  0  0  0  0  0  0  0  0  0  0  0
    8.9823    0.9276   -1.4126 C   0  0  0  0  0  0  0  0  0  0  0  0
    9.4758   -0.2702   -0.8978 C   0  0  0  0  0  0  0  0  0  0  0  0
   10.8539   -0.5364   -0.9173 C   0  0  0  0  0  0  0  0  0  0  0  0
   11.7542    0.3906   -1.4535 C   0  0  0  0  0  0  0  0  0  0  0  0
   13.1587    0.2255   -1.4701 N   0  0  0  0  0  0  0  0  0  0  0  0
   13.8763   -0.8333   -0.9879 C   0  0  0  0  0  0  0  0  0  0  0  0
   13.4102   -1.8296   -0.4374 O   0  0  0  0  0  0  0  0  0  0  0  0
   15.2220   -0.8241   -1.1859 N   0  0  0  0  0  0  0  0  0  0  0  0
   16.0001    0.1340   -1.7689 C   0  0  0  0  0  0  0  0  0  0  0  0
   15.7086    1.3664   -2.0967 N   0  0  0  0  0  0  0  0  0  0  0  0
   16.8210    1.9301   -2.7306 C   0  0  0  0  0  0  0  0  0  0  0  0
   16.9369    3.2496   -3.2200 C   0  0  0  0  0  0  0  0  0  0  0  0
   18.0786    3.6325   -3.9395 C   0  0  0  0  0  0  0  0  0  0  0  0
   19.1094    2.7270   -4.1681 C   0  0  0  0  0  0  0  0  0  0  0  0
   19.0508    1.4358   -3.6410 C   0  0  0  0  0  0  0  0  0  0  0  0
   17.9056    1.0652   -2.9153 C   0  0  0  0  0  0  0  0  0  0  0  0
   17.5689   -0.4232   -2.1247 S   0  0  0  0  0  0  0  0  0  0  0  0
   11.2412    1.5639   -2.0167 C   0  0  0  0  0  0  0  0  0  0  0  0
    9.8642    1.8266   -2.0097 C   0  0  0  0  0  0  0  0  0  0  0  0
    7.7627    3.2371   -0.3530 N   0  0  0  0  0  0  0  0  0  0  0  0
   10.6916    5.4196    2.4596 H   0  0  0  0  0  0  0  0  0  0  0  0
    9.1301    6.0412    3.0786 H   0  0  0  0  0  0  0  0  0  0  0  0
    9.9306    6.8593    1.7145 H   0  0  0  0  0  0  0  0  0  0  0  0
    9.3642    4.0969    1.0670 H   0  0  0  0  0  0  0  0  0  0  0  0
    4.4414    4.2151   -1.9695 H   0  0  0  0  0  0  0  0  0  0  0  0
    5.3895    1.9260   -2.3857 H   0  0  0  0  0  0  0  0  0  0  0  0
    8.7956   -1.0063   -0.4749 H   0  0  0  0  0  0  0  0  0  0  0  0
   11.1859   -1.4803   -0.4972 H   0  0  0  0  0  0  0  0  0  0  0  0
   13.7124    0.9806   -1.8661 H   0  0  0  0  0  0  0  0  0  0  0  0
   15.6804   -1.6848   -0.9292 H   0  0  0  0  0  0  0  0  0  0  0  0
   16.1339    3.9608   -3.0533 H   0  0  0  0  0  0  0  0  0  0  0  0
   18.1536    4.6434   -4.3358 H   0  0  0  0  0  0  0  0  0  0  0  0
   19.9748    3.0262   -4.7571 H   0  0  0  0  0  0  0  0  0  0  0  0
   19.8626    0.7323   -3.8028 H   0  0  0  0  0  0  0  0  0  0  0  0
   11.9050    2.2916   -2.4758 H   0  0  0  0  0  0  0  0  0  0  0  0
    9.5005    2.7387   -2.4729 H   0  0  0  0  0  0  0  0  0  0  0  0
  1  2  1  0  0  0  0
  1 31  1  0  0  0  0
  1 32  1  0  0  0  0
  1 33  1  0  0  0  0
  2  3  1  0  0  0  0
  2 34  1  0  0  0  0
  3  4  2  0  0  0  0
  3  5  1  0  0  0  0
  5  6  1  0  0  0  0
  5 30  2  0  0  0  0
  6  7  2  0  0  0  0
  7  8  1  0  0  0  0
  7 35  1  0  0  0  0
  8  9  2  0  0  0  0
  8 36  1  0  0  0  0
  9 10  1  0  0  0  0
  9 30  1  0  0  0  0
 10 11  1  0  0  0  0
 11 12  1  0  0  0  0
 11 29  2  0  0  0  0
 12 13  2  0  0  0  0
 12 37  1  0  0  0  0
 13 14  1  0  0  0  0
 13 38  1  0  0  0  0
 14 15  1  0  0  0  0
 14 28  2  0  0  0  0
 15 16  1  0  0  0  0
 15 39  1  0  0  0  0
 16 17  2  0  0  0  0
 16 18  1  0  0  0  0
 18 19  1  0  0  0  0
 18 40  1  0  0  0  0
 19 20  2  0  0  0  0
 19 27  1  0  0  0  0
 20 21  1  0  0  0  0
 21 22  1  0  0  0  0
 21 26  2  0  0  0  0
 22 23  2  0  0  0  0
 22 41  1  0  0  0  0
 23 24  1  0  0  0  0
 23 42  1  0  0  0  0
 24 25  2  0  0  0  0
 24 43  1  0  0  0  0
 25 26  1  0  0  0  0
 25 44  1  0  0  0  0
 26 27  1  0  0  0  0
 28 29  1  0  0  0  0
 28 45  1  0  0  0  0
 29 46  1  0  0  0  0
M  END
$$$$
