CHEMBL3655081
 OpenBabel04072215373D

 43 45  0  0  1  0  0  0  0  0999 V2000
    6.1542    1.7867   -4.3413 C   0  0  0  0  0  0  0  0  0  0  0  0
    5.9269    1.0972   -3.0068 C   0  0  0  0  0  0  0  0  0  0  0  0
    6.4428    1.9675   -1.8705 C   0  0  0  0  0  0  0  0  0  0  0  0
    6.2212    1.1933   -0.2795 S   0  0  0  0  0  0  0  0  0  0  0  0
    4.7999    1.0574   -0.0240 O   0  0  0  0  0  0  0  0  0  0  0  0
    7.1278    0.0764   -0.1824 O   0  0  0  0  0  0  0  0  0  0  0  0
    6.7897    2.4279    0.7309 N   0  0  0  0  0  0  0  0  0  0  0  0
    6.6978    2.3535    2.2298 C   0  0  1  0  0  0  0  0  0  0  0  0
    7.5393    1.2683    2.9180 C   0  0  0  0  0  0  0  0  0  0  0  0
    8.5818    2.3369    3.3177 C   0  0  1  0  0  0  0  0  0  0  0  0
    9.7104    2.5040    2.4207 N   0  0  0  0  0  0  0  0  0  0  0  0
   10.4213    1.3190    1.9343 C   0  0  0  0  0  0  0  0  0  0  0  0
   10.6015    3.5935    2.6093 C   0  0  0  0  0  0  0  0  0  0  0  0
   10.6656    4.2190    3.8181 N   0  0  0  0  0  0  0  0  0  0  0  0
   11.4794    5.2805    3.9746 C   0  0  0  0  0  0  0  0  0  0  0  0
   12.2575    5.8717    3.0490 N   0  0  0  0  0  0  0  0  0  0  0  0
   12.1444    5.2563    1.8636 C   0  0  0  0  0  0  0  0  0  0  0  0
   12.7698    5.6644    0.7188 N   0  0  0  0  0  0  0  0  0  0  0  0
   12.4316    4.8340   -0.3207 C   0  0  0  0  0  0  0  0  0  0  0  0
   11.5665    3.8840    0.1757 C   0  0  0  0  0  0  0  0  0  0  0  0
   11.3737    4.1451    1.5582 C   0  0  0  0  0  0  0  0  0  0  0  0
    7.4949    3.4093    3.0261 C   0  0  0  0  0  0  0  0  0  0  0  0
    5.7786    1.1689   -5.1616 H   0  0  0  0  0  0  0  0  0  0  0  0
    7.2209    1.9673   -4.5084 H   0  0  0  0  0  0  0  0  0  0  0  0
    5.6358    2.7508   -4.3739 H   0  0  0  0  0  0  0  0  0  0  0  0
    6.4331    0.1253   -3.0026 H   0  0  0  0  0  0  0  0  0  0  0  0
    4.8572    0.8981   -2.8751 H   0  0  0  0  0  0  0  0  0  0  0  0
    5.9003    2.9187   -1.8455 H   0  0  0  0  0  0  0  0  0  0  0  0
    7.5136    2.1618   -1.9833 H   0  0  0  0  0  0  0  0  0  0  0  0
    6.5897    3.3626    0.3742 H   0  0  0  0  0  0  0  0  0  0  0  0
    5.6403    2.3266    2.5231 H   0  0  0  0  0  0  0  0  0  0  0  0
    7.8495    0.4474    2.2723 H   0  0  0  0  0  0  0  0  0  0  0  0
    7.0373    0.8161    3.7818 H   0  0  0  0  0  0  0  0  0  0  0  0
    8.8942    2.2695    4.3650 H   0  0  0  0  0  0  0  0  0  0  0  0
    9.8290    0.4061    2.0036 H   0  0  0  0  0  0  0  0  0  0  0  0
   11.3466    1.1355    2.4916 H   0  0  0  0  0  0  0  0  0  0  0  0
   10.6592    1.4214    0.8732 H   0  0  0  0  0  0  0  0  0  0  0  0
   11.5084    5.7221    4.9641 H   0  0  0  0  0  0  0  0  0  0  0  0
   13.3650    6.4774    0.6626 H   0  0  0  0  0  0  0  0  0  0  0  0
   12.8193    4.9958   -1.3183 H   0  0  0  0  0  0  0  0  0  0  0  0
   11.1029    3.1019   -0.4077 H   0  0  0  0  0  0  0  0  0  0  0  0
    7.7991    4.2896    2.4490 H   0  0  0  0  0  0  0  0  0  0  0  0
    6.9753    3.7638    3.9247 H   0  0  0  0  0  0  0  0  0  0  0  0
  1  2  1  0  0  0  0
  1 23  1  0  0  0  0
  1 24  1  0  0  0  0
  1 25  1  0  0  0  0
  2  3  1  0  0  0  0
  2 26  1  0  0  0  0
  2 27  1  0  0  0  0
  3  4  1  0  0  0  0
  3 28  1  0  0  0  0
  3 29  1  0  0  0  0
  4  5  2  0  0  0  0
  4  6  2  0  0  0  0
  4  7  1  0  0  0  0
  7 30  1  0  0  0  0
  8  9  1  0  0  0  0
  8 22  1  0  0  0  0
  8  7  1  0  0  0  0
  8 31  1  1  0  0  0
  9 10  1  0  0  0  0
  9 32  1  0  0  0  0
  9 33  1  0  0  0  0
 10 11  1  0  0  0  0
 10 22  1  0  0  0  0
 10 34  1  1  0  0  0
 11 12  1  0  0  0  0
 11 13  1  0  0  0  0
 12 35  1  0  0  0  0
 12 36  1  0  0  0  0
 12 37  1  0  0  0  0
 13 14  1  0  0  0  0
 13 21  2  0  0  0  0
 14 15  2  0  0  0  0
 15 16  1  0  0  0  0
 15 38  1  0  0  0  0
 16 17  2  0  0  0  0
 17 18  1  0  0  0  0
 17 21  1  0  0  0  0
 18 19  1  0  0  0  0
 18 39  1  0  0  0  0
 19 20  2  0  0  0  0
 19 40  1  0  0  0  0
 20 21  1  0  0  0  0
 20 41  1  0  0  0  0
 22 42  1  0  0  0  0
 22 43  1  0  0  0  0
M  END
$$$$
