CHEMBL3949400
 OpenBabel04072215373D

 54 58  0  0  1  0  0  0  0  0999 V2000
    1.1397   -0.4803   -0.0345 C   0  0  0  0  0  0  0  0  0  0  0  0
    2.5364   -0.2494    0.0564 O   0  0  0  0  0  0  0  0  0  0  0  0
    3.0920   -0.0004    1.2773 C   0  0  0  0  0  0  0  0  0  0  0  0
    4.2202    0.8304    1.1907 C   0  0  0  0  0  0  0  0  0  0  0  0
    4.9679    1.1959    2.3378 C   0  0  0  0  0  0  0  0  0  0  0  0
    6.0753    2.0551    2.3708 C   0  0  0  0  0  0  0  0  0  0  0  0
    6.5098    2.6940    1.1767 N   0  0  0  0  0  0  0  0  0  0  0  0
    7.7749    3.3090    1.0527 C   0  0  0  0  0  0  0  0  0  0  0  0
    8.9317    2.6280    1.4600 C   0  0  0  0  0  0  0  0  0  0  0  0
   10.1817    3.2436    1.4234 C   0  0  0  0  0  0  0  0  0  0  0  0
   10.2934    4.5557    0.9676 C   0  0  0  0  0  0  0  0  0  0  0  0
   11.8614    5.2792    0.9885 Cl  0  0  0  0  0  0  0  0  0  0  0  0
    9.1523    5.2372    0.5268 C   0  0  0  0  0  0  0  0  0  0  0  0
    9.2202    6.8640   -0.0557 Cl  0  0  0  0  0  0  0  0  0  0  0  0
    7.8985    4.6117    0.5613 C   0  0  0  0  0  0  0  0  0  0  0  0
    6.7498    2.3120    3.5092 N   0  0  0  0  0  0  0  0  0  0  0  0
    6.3189    1.7191    4.6225 C   0  0  0  0  0  0  0  0  0  0  0  0
    5.2774    0.8968    4.7051 N   0  0  0  0  0  0  0  0  0  0  0  0
    4.6211    0.6495    3.5708 C   0  0  0  0  0  0  0  0  0  0  0  0
    3.5279   -0.1906    3.6394 C   0  0  0  0  0  0  0  0  0  0  0  0
    2.7162   -0.4968    2.5291 C   0  0  0  0  0  0  0  0  0  0  0  0
    1.5892   -1.2824    2.6611 O   0  0  0  0  0  0  0  0  0  0  0  0
    1.0696   -1.3073    4.0061 C   0  0  0  0  0  0  0  0  0  0  0  0
   -0.3227   -1.8227    4.1412 C   0  0  0  0  0  0  0  0  0  0  0  0
   -0.9593   -2.7778    3.3746 C   0  0  0  0  0  0  0  0  0  0  0  0
   -2.5126   -3.1005    4.0204 S   0  0  0  0  0  0  0  0  0  0  0  0
   -2.2312   -1.9524    5.2790 C   0  0  0  0  0  0  0  0  0  0  0  0
   -3.3080   -1.6656    6.2875 C   0  0  2  0  0  0  0  0  0  0  0  0
   -2.9549   -0.5790    7.2949 C   0  0  0  0  0  0  0  0  0  0  0  0
   -4.0652   -0.7357    8.3213 C   0  0  0  0  0  0  0  0  0  0  0  0
   -4.3971   -2.2246    8.2886 C   0  0  0  0  0  0  0  0  0  0  0  0
   -3.6012   -2.7890    7.1962 N   0  0  0  0  0  0  0  0  0  0  0  0
   -1.0661   -1.3475    5.2155 N   0  0  0  0  0  0  0  0  0  0  0  0
    0.7701    0.1141   -0.8774 H   0  0  0  0  0  0  0  0  0  0  0  0
    0.5684   -0.1710    0.8429 H   0  0  0  0  0  0  0  0  0  0  0  0
    0.9622   -1.5340   -0.2682 H   0  0  0  0  0  0  0  0  0  0  0  0
    4.5197    1.1981    0.2106 H   0  0  0  0  0  0  0  0  0  0  0  0
    5.7516    3.2517    0.7966 H   0  0  0  0  0  0  0  0  0  0  0  0
    8.8542    1.6093    1.8360 H   0  0  0  0  0  0  0  0  0  0  0  0
   11.0540    2.6952    1.7691 H   0  0  0  0  0  0  0  0  0  0  0  0
    7.0186    5.1610    0.2374 H   0  0  0  0  0  0  0  0  0  0  0  0
    6.8580    1.9280    5.5385 H   0  0  0  0  0  0  0  0  0  0  0  0
    3.3284   -0.6066    4.6228 H   0  0  0  0  0  0  0  0  0  0  0  0
    1.0664   -0.2878    4.4180 H   0  0  0  0  0  0  0  0  0  0  0  0
    1.7049   -1.9568    4.6208 H   0  0  0  0  0  0  0  0  0  0  0  0
   -0.5822   -3.2990    2.5091 H   0  0  0  0  0  0  0  0  0  0  0  0
   -4.2219   -1.3789    5.7501 H   0  0  0  0  0  0  0  0  0  0  0  0
   -2.9324    0.4243    6.8580 H   0  0  0  0  0  0  0  0  0  0  0  0
   -1.9805   -0.7605    7.7706 H   0  0  0  0  0  0  0  0  0  0  0  0
   -4.9407   -0.1546    8.0055 H   0  0  0  0  0  0  0  0  0  0  0  0
   -3.7658   -0.3884    9.3142 H   0  0  0  0  0  0  0  0  0  0  0  0
   -5.4671   -2.3735    8.1065 H   0  0  0  0  0  0  0  0  0  0  0  0
   -4.1399   -2.7119    9.2339 H   0  0  0  0  0  0  0  0  0  0  0  0
   -4.1038   -3.5256    6.7075 H   0  0  0  0  0  0  0  0  0  0  0  0
  1  2  1  0  0  0  0
  1 34  1  0  0  0  0
  1 35  1  0  0  0  0
  1 36  1  0  0  0  0
  2  3  1  0  0  0  0
  3  4  1  0  0  0  0
  3 21  2  0  0  0  0
  4  5  2  0  0  0  0
  4 37  1  0  0  0  0
  5  6  1  0  0  0  0
  5 19  1  0  0  0  0
  6  7  1  0  0  0  0
  6 16  2  0  0  0  0
  7  8  1  0  0  0  0
  7 38  1  0  0  0  0
  8  9  1  0  0  0  0
  8 15  2  0  0  0  0
  9 10  2  0  0  0  0
  9 39  1  0  0  0  0
 10 11  1  0  0  0  0
 10 40  1  0  0  0  0
 11 12  1  0  0  0  0
 11 13  2  0  0  0  0
 13 14  1  0  0  0  0
 13 15  1  0  0  0  0
 15 41  1  0  0  0  0
 16 17  1  0  0  0  0
 17 18  2  0  0  0  0
 17 42  1  0  0  0  0
 18 19  1  0  0  0  0
 19 20  2  0  0  0  0
 20 21  1  0  0  0  0
 20 43  1  0  0  0  0
 21 22  1  0  0  0  0
 22 23  1  0  0  0  0
 23 24  1  0  0  0  0
 23 44  1  0  0  0  0
 23 45  1  0  0  0  0
 24 25  2  0  0  0  0
 24 33  1  0  0  0  0
 25 26  1  0  0  0  0
 25 46  1  0  0  0  0
 26 27  1  0  0  0  0
 27 28  1  0  0  0  0
 27 33  2  0  0  0  0
 28 29  1  0  0  0  0
 28 32  1  0  0  0  0
 28 47  1  6  0  0  0
 29 30  1  0  0  0  0
 29 48  1  0  0  0  0
 29 49  1  0  0  0  0
 30 31  1  0  0  0  0
 30 50  1  0  0  0  0
 30 51  1  0  0  0  0
 31 32  1  0  0  0  0
 31 52  1  0  0  0  0
 31 53  1  0  0  0  0
 32 54  1  0  0  0  0
M  END
$$$$
