CHEMBL1172815
 OpenBabel04072215363D

 45 48  0  0  0  0  0  0  0  0999 V2000
   -7.0118   -5.8059   -3.3483 C   0  0  0  0  0  0  0  0  0  0  0  0
   -6.5790   -4.5136   -2.7007 C   0  0  0  0  0  0  0  0  0  0  0  0
   -7.3742   -3.3879   -2.8148 C   0  0  0  0  0  0  0  0  0  0  0  0
   -6.9852   -2.1864   -2.2191 C   0  0  0  0  0  0  0  0  0  0  0  0
   -5.7992   -2.0932   -1.4837 C   0  0  0  0  0  0  0  0  0  0  0  0
   -5.3669   -0.8872   -0.8646 N   0  0  0  0  0  0  0  0  0  0  0  0
   -6.1500    0.2507   -0.7331 C   0  0  0  0  0  0  0  0  0  0  0  0
   -7.3369    0.3133   -1.0381 O   0  0  0  0  0  0  0  0  0  0  0  0
   -5.4262    1.3372   -0.2511 N   0  0  0  0  0  0  0  0  0  0  0  0
   -6.0270    2.6027   -0.0300 C   0  0  0  0  0  0  0  0  0  0  0  0
   -5.2584    3.7680   -0.2443 C   0  0  0  0  0  0  0  0  0  0  0  0
   -5.8266    5.0532   -0.1345 C   0  0  0  0  0  0  0  0  0  0  0  0
   -7.1763    5.1393    0.1611 C   0  0  0  0  0  0  0  0  0  0  0  0
   -7.9416    3.9742    0.2440 C   0  0  0  0  0  0  0  0  0  0  0  0
   -7.3880    2.7172    0.2696 C   0  0  0  0  0  0  0  0  0  0  0  0
   -9.2775    4.2469   -0.0956 N   0  0  0  0  0  0  0  0  0  0  0  0
   -9.3414    5.5276   -0.6342 C   0  0  0  0  0  0  0  0  0  0  0  0
  -10.0578    5.9520   -1.5179 O   0  0  0  0  0  0  0  0  0  0  0  0
   -8.1662    6.2092    0.0068 C   0  0  0  0  0  0  0  0  0  0  0  0
   -8.5169    7.1130    0.9499 C   0  0  0  0  0  0  0  0  0  0  0  0
   -9.6048    8.0228    0.7954 C   0  0  0  0  0  0  0  0  0  0  0  0
  -10.4851    8.6429    1.6643 C   0  0  0  0  0  0  0  0  0  0  0  0
  -11.3050    9.5205    0.9033 C   0  0  0  0  0  0  0  0  0  0  0  0
  -10.9218    9.4026   -0.4107 C   0  0  0  0  0  0  0  0  0  0  0  0
   -9.9093    8.4865   -0.4679 N   0  0  0  0  0  0  0  0  0  0  0  0
   -4.9929   -3.2254   -1.3788 C   0  0  0  0  0  0  0  0  0  0  0  0
   -5.3839   -4.4253   -1.9853 C   0  0  0  0  0  0  0  0  0  0  0  0
   -7.9688   -5.6850   -3.8714 H   0  0  0  0  0  0  0  0  0  0  0  0
   -7.1459   -6.5861   -2.5935 H   0  0  0  0  0  0  0  0  0  0  0  0
   -6.2716   -6.1318   -4.0852 H   0  0  0  0  0  0  0  0  0  0  0  0
   -8.3118   -3.4154   -3.3636 H   0  0  0  0  0  0  0  0  0  0  0  0
   -7.6533   -1.3453   -2.3662 H   0  0  0  0  0  0  0  0  0  0  0  0
   -4.5057   -0.9234   -0.3384 H   0  0  0  0  0  0  0  0  0  0  0  0
   -4.4372    1.3239   -0.4486 H   0  0  0  0  0  0  0  0  0  0  0  0
   -4.2408    3.6799   -0.6181 H   0  0  0  0  0  0  0  0  0  0  0  0
   -5.2583    5.9270   -0.4403 H   0  0  0  0  0  0  0  0  0  0  0  0
   -8.0373    1.8608    0.4047 H   0  0  0  0  0  0  0  0  0  0  0  0
   -9.9281    3.5283   -0.3765 H   0  0  0  0  0  0  0  0  0  0  0  0
   -8.0231    7.0862    1.9195 H   0  0  0  0  0  0  0  0  0  0  0  0
  -10.5464    8.4902    2.7342 H   0  0  0  0  0  0  0  0  0  0  0  0
  -12.0959   10.1631    1.2676 H   0  0  0  0  0  0  0  0  0  0  0  0
  -11.2873    9.8645   -1.3173 H   0  0  0  0  0  0  0  0  0  0  0  0
   -9.5011    8.1320   -1.3245 H   0  0  0  0  0  0  0  0  0  0  0  0
   -4.0596   -3.2004   -0.8278 H   0  0  0  0  0  0  0  0  0  0  0  0
   -4.7392   -5.3081   -1.8939 H   0  0  0  0  0  0  0  0  0  0  0  0
  1  2  1  0  0  0  0
  1 28  1  0  0  0  0
  1 29  1  0  0  0  0
  1 30  1  0  0  0  0
  2  3  1  0  0  0  0
  2 27  2  0  0  0  0
  3  4  2  0  0  0  0
  3 31  1  0  0  0  0
  4  5  1  0  0  0  0
  4 32  1  0  0  0  0
  5  6  1  0  0  0  0
  5 26  2  0  0  0  0
  6  7  1  0  0  0  0
  6 33  1  0  0  0  0
  7  8  2  0  0  0  0
  7  9  1  0  0  0  0
  9 10  1  0  0  0  0
  9 34  1  0  0  0  0
 10 11  1  0  0  0  0
 10 15  2  0  0  0  0
 11 12  2  0  0  0  0
 11 35  1  0  0  0  0
 12 13  1  0  0  0  0
 12 36  1  0  0  0  0
 13 14  2  0  0  0  0
 13 19  1  0  0  0  0
 14 15  1  0  0  0  0
 14 16  1  0  0  0  0
 15 37  1  0  0  0  0
 16 17  1  0  0  0  0
 16 38  1  0  0  0  0
 17 18  2  0  0  0  0
 17 19  1  0  0  0  0
 19 20  2  0  0  0  0
 20 21  1  0  0  0  0
 20 39  1  0  0  0  0
 21 22  2  0  0  0  0
 21 25  1  0  0  0  0
 22 23  1  0  0  0  0
 22 40  1  0  0  0  0
 23 24  2  0  0  0  0
 23 41  1  0  0  0  0
 24 25  1  0  0  0  0
 24 42  1  0  0  0  0
 25 43  1  0  0  0  0
 26 27  1  0  0  0  0
 26 44  1  0  0  0  0
 27 45  1  0  0  0  0
M  END
$$$$
