CHEMBL3919480
 OpenBabel04072215373D

 66 69  0  0  0  0  0  0  0  0999 V2000
    4.5404   -3.4196   -7.7692 C   0  0  0  0  0  0  0  0  0  0  0  0
    5.6267   -2.8216   -8.6460 C   0  0  0  0  0  0  0  0  0  0  0  0
    6.5084   -2.0742   -7.7979 O   0  0  0  0  0  0  0  0  0  0  0  0
    6.1298   -0.7838   -7.5739 C   0  0  0  0  0  0  0  0  0  0  0  0
    5.3009   -0.1654   -8.2246 O   0  0  0  0  0  0  0  0  0  0  0  0
    6.8120   -0.2851   -6.3258 C   0  0  0  0  0  0  0  0  0  0  0  0
    6.3352    1.1191   -5.9584 C   0  0  0  0  0  0  0  0  0  0  0  0
    6.9044    1.5963   -4.6271 C   0  0  0  0  0  0  0  0  0  0  0  0
    8.3463    1.6734   -4.6447 N   0  0  0  0  0  0  0  0  0  0  0  0
    9.0340    2.7731   -5.1029 C   0  0  0  0  0  0  0  0  0  0  0  0
    8.4559    3.7937   -5.4761 O   0  0  0  0  0  0  0  0  0  0  0  0
   10.4843    2.6470   -5.1124 C   0  0  0  0  0  0  0  0  0  0  0  0
   11.3925    3.6312   -5.4452 C   0  0  0  0  0  0  0  0  0  0  0  0
   12.7441    3.1960   -5.3376 C   0  0  0  0  0  0  0  0  0  0  0  0
   13.8281    3.9747   -5.5957 N   0  0  0  0  0  0  0  0  0  0  0  0
   15.0236    3.3898   -5.4107 C   0  0  0  0  0  0  0  0  0  0  0  0
   15.2157    2.0840   -5.0039 C   0  0  0  0  0  0  0  0  0  0  0  0
   14.1017    1.2613   -4.8142 C   0  0  0  0  0  0  0  0  0  0  0  0
   14.2094   -0.0826   -4.4851 O   0  0  0  0  0  0  0  0  0  0  0  0
   15.1419   -0.8477   -5.1568 C   0  0  0  0  0  0  0  0  0  0  0  0
   15.5809   -0.5560   -6.4485 C   0  0  0  0  0  0  0  0  0  0  0  0
   16.6227   -1.2828   -7.0181 C   0  0  0  0  0  0  0  0  0  0  0  0
   17.2136   -2.3498   -6.3356 C   0  0  0  0  0  0  0  0  0  0  0  0
   18.3316   -3.0426   -6.8722 N   0  0  0  0  0  0  0  0  0  0  0  0
   19.2281   -2.4337   -7.7322 C   0  0  0  0  0  0  0  0  0  0  0  0
   19.2176   -1.2322   -7.9889 O   0  0  0  0  0  0  0  0  0  0  0  0
   20.1244   -3.3244   -8.3064 N   0  0  0  0  0  0  0  0  0  0  0  0
   21.0195   -2.8070   -9.2853 C   0  0  0  0  0  0  0  0  0  0  0  0
   21.7787   -1.6579   -9.0293 C   0  0  0  0  0  0  0  0  0  0  0  0
   22.4788   -1.0179  -10.0594 C   0  0  0  0  0  0  0  0  0  0  0  0
   23.2138    0.2636   -9.7948 C   0  0  0  0  0  0  0  0  0  0  0  0
   22.4195   -1.5496  -11.3539 C   0  0  0  0  0  0  0  0  0  0  0  0
   21.7170   -2.7329  -11.6007 C   0  0  0  0  0  0  0  0  0  0  0  0
   21.0413   -3.3667  -10.5614 C   0  0  0  0  0  0  0  0  0  0  0  0
   20.3202   -4.4684  -10.8206 F   0  0  0  0  0  0  0  0  0  0  0  0
   16.6724   -2.7219   -5.1029 C   0  0  0  0  0  0  0  0  0  0  0  0
   17.1719   -3.7817   -4.4470 F   0  0  0  0  0  0  0  0  0  0  0  0
   15.6483   -1.9745   -4.5041 C   0  0  0  0  0  0  0  0  0  0  0  0
   12.8385    1.8607   -4.9441 C   0  0  0  0  0  0  0  0  0  0  0  0
   11.2774    1.1845   -4.7043 S   0  0  0  0  0  0  0  0  0  0  0  0
    3.8358   -4.0124   -8.3562 H   0  0  0  0  0  0  0  0  0  0  0  0
    3.9885   -2.6336   -7.2417 H   0  0  0  0  0  0  0  0  0  0  0  0
    4.9870   -4.0563   -6.9974 H   0  0  0  0  0  0  0  0  0  0  0  0
    5.2038   -2.2062   -9.4482 H   0  0  0  0  0  0  0  0  0  0  0  0
    6.2119   -3.6172   -9.1176 H   0  0  0  0  0  0  0  0  0  0  0  0
    7.8945   -0.3038   -6.4867 H   0  0  0  0  0  0  0  0  0  0  0  0
    6.5582   -0.9777   -5.5139 H   0  0  0  0  0  0  0  0  0  0  0  0
    5.2399    1.1270   -5.8895 H   0  0  0  0  0  0  0  0  0  0  0  0
    6.6057    1.8174   -6.7594 H   0  0  0  0  0  0  0  0  0  0  0  0
    6.6264    0.9104   -3.8199 H   0  0  0  0  0  0  0  0  0  0  0  0
    6.4960    2.5839   -4.3869 H   0  0  0  0  0  0  0  0  0  0  0  0
    8.8871    0.8546   -4.3909 H   0  0  0  0  0  0  0  0  0  0  0  0
   11.1053    4.6278   -5.7425 H   0  0  0  0  0  0  0  0  0  0  0  0
   15.8781    4.0294   -5.6220 H   0  0  0  0  0  0  0  0  0  0  0  0
   16.2258    1.7067   -4.8845 H   0  0  0  0  0  0  0  0  0  0  0  0
   15.1610    0.2644   -7.0242 H   0  0  0  0  0  0  0  0  0  0  0  0
   16.9659   -0.9763   -8.0030 H   0  0  0  0  0  0  0  0  0  0  0  0
   18.6735   -3.8386   -6.3474 H   0  0  0  0  0  0  0  0  0  0  0  0
   19.7082   -4.2177   -8.5434 H   0  0  0  0  0  0  0  0  0  0  0  0
   21.7777   -1.2248   -8.0305 H   0  0  0  0  0  0  0  0  0  0  0  0
   23.2722    0.4778   -8.7219 H   0  0  0  0  0  0  0  0  0  0  0  0
   22.6996    1.1001  -10.2788 H   0  0  0  0  0  0  0  0  0  0  0  0
   24.2381    0.1993  -10.1746 H   0  0  0  0  0  0  0  0  0  0  0  0
   22.9057   -1.0320  -12.1784 H   0  0  0  0  0  0  0  0  0  0  0  0
   21.6571   -3.1367  -12.6062 H   0  0  0  0  0  0  0  0  0  0  0  0
   15.2774   -2.2609   -3.5252 H   0  0  0  0  0  0  0  0  0  0  0  0
  1  2  1  0  0  0  0
  1 41  1  0  0  0  0
  1 42  1  0  0  0  0
  1 43  1  0  0  0  0
  2  3  1  0  0  0  0
  2 44  1  0  0  0  0
  2 45  1  0  0  0  0
  3  4  1  0  0  0  0
  4  5  2  0  0  0  0
  4  6  1  0  0  0  0
  6  7  1  0  0  0  0
  6 46  1  0  0  0  0
  6 47  1  0  0  0  0
  7  8  1  0  0  0  0
  7 48  1  0  0  0  0
  7 49  1  0  0  0  0
  8  9  1  0  0  0  0
  8 50  1  0  0  0  0
  8 51  1  0  0  0  0
  9 10  1  0  0  0  0
  9 52  1  0  0  0  0
 10 11  2  0  0  0  0
 10 12  1  0  0  0  0
 12 13  2  0  0  0  0
 12 40  1  0  0  0  0
 13 14  1  0  0  0  0
 13 53  1  0  0  0  0
 14 15  1  0  0  0  0
 14 39  2  0  0  0  0
 15 16  2  0  0  0  0
 16 17  1  0  0  0  0
 16 54  1  0  0  0  0
 17 18  2  0  0  0  0
 17 55  1  0  0  0  0
 18 19  1  0  0  0  0
 18 39  1  0  0  0  0
 19 20  1  0  0  0  0
 20 21  1  0  0  0  0
 20 38  2  0  0  0  0
 21 22  2  0  0  0  0
 21 56  1  0  0  0  0
 22 23  1  0  0  0  0
 22 57  1  0  0  0  0
 23 24  1  0  0  0  0
 23 36  2  0  0  0  0
 24 25  1  0  0  0  0
 24 58  1  0  0  0  0
 25 26  2  0  0  0  0
 25 27  1  0  0  0  0
 27 28  1  0  0  0  0
 27 59  1  0  0  0  0
 28 29  1  0  0  0  0
 28 34  2  0  0  0  0
 29 30  2  0  0  0  0
 29 60  1  0  0  0  0
 30 31  1  0  0  0  0
 30 32  1  0  0  0  0
 31 61  1  0  0  0  0
 31 62  1  0  0  0  0
 31 63  1  0  0  0  0
 32 33  2  0  0  0  0
 32 64  1  0  0  0  0
 33 34  1  0  0  0  0
 33 65  1  0  0  0  0
 34 35  1  0  0  0  0
 36 37  1  0  0  0  0
 36 38  1  0  0  0  0
 38 66  1  0  0  0  0
 39 40  1  0  0  0  0
M  END
$$$$
