CHEMBL3971073
 OpenBabel04072215373D

 59 63  0  0  0  0  0  0  0  0999 V2000
    0.9039   -0.0698    0.0438 C   0  0  0  0  0  0  0  0  0  0  0  0
    2.0661    0.7542    0.0469 O   0  0  0  0  0  0  0  0  0  0  0  0
    2.8816    0.6634    1.1414 C   0  0  0  0  0  0  0  0  0  0  0  0
    2.6443   -0.1190    2.2448 C   0  0  0  0  0  0  0  0  0  0  0  0
    3.5760   -0.1826    3.2728 C   0  0  0  0  0  0  0  0  0  0  0  0
    3.4263   -0.9904    4.3704 O   0  0  0  0  0  0  0  0  0  0  0  0
    2.2389   -1.7810    4.3463 C   0  0  0  0  0  0  0  0  0  0  0  0
    4.7481    0.5628    3.2052 C   0  0  0  0  0  0  0  0  0  0  0  0
    5.0917    1.3134    2.0848 C   0  0  0  0  0  0  0  0  0  0  0  0
    6.4089    1.8824    2.0437 N   0  0  0  0  0  0  0  0  0  0  0  0
    6.9714    2.1324    0.6257 C   0  0  0  0  0  0  0  0  0  0  0  0
    7.9299    1.0213    0.2675 C   0  0  0  0  0  0  0  0  0  0  0  0
    8.6769    0.9411   -1.0644 C   0  0  0  0  0  0  0  0  0  0  0  0
    7.7207   -0.1472   -0.6586 C   0  0  0  0  0  0  0  0  0  0  0  0
    7.4501    1.8628    3.1028 C   0  0  0  0  0  0  0  0  0  0  0  0
    8.1915    3.0006    3.1743 C   0  0  0  0  0  0  0  0  0  0  0  0
    9.1646    3.0706    4.1216 C   0  0  0  0  0  0  0  0  0  0  0  0
    9.5982    1.9769    4.8248 C   0  0  0  0  0  0  0  0  0  0  0  0
   10.8669    1.9693    4.6744 N   0  0  0  0  0  0  0  0  0  0  0  0
   11.4293    2.5707    5.6608 C   0  0  0  0  0  0  0  0  0  0  0  0
   11.4671    1.8679    6.7624 C   0  0  0  0  0  0  0  0  0  0  0  0
   12.8992    2.5025    7.5910 C   0  0  0  0  0  0  0  0  0  0  0  0
   13.7420    2.0250    8.6579 C   0  0  0  0  0  0  0  0  0  0  0  0
   14.7284    2.8147    9.1573 N   0  0  0  0  0  0  0  0  0  0  0  0
   14.6917    3.9554    8.4519 N   0  0  0  0  0  0  0  0  0  0  0  0
   15.6918    5.0463    8.7685 C   0  0  0  0  0  0  0  0  0  0  0  0
   16.9989    4.9044    7.9869 C   0  0  0  0  0  0  0  0  0  0  0  0
   16.7501    4.9595    6.6528 F   0  0  0  0  0  0  0  0  0  0  0  0
   13.5860    3.8433    7.5111 C   0  0  0  0  0  0  0  0  0  0  0  0
   10.2777    0.8401    6.6455 N   0  0  0  0  0  0  0  0  0  0  0  0
    9.1124    0.8921    5.3608 C   0  0  0  0  0  0  0  0  0  0  0  0
    7.8168    0.7957    4.1536 C   0  0  0  0  0  0  0  0  0  0  0  0
    4.0571    1.4263    1.1062 C   0  0  0  0  0  0  0  0  0  0  0  0
    0.4449   -0.0089   -0.9467 H   0  0  0  0  0  0  0  0  0  0  0  0
    0.1876    0.3059    0.7805 H   0  0  0  0  0  0  0  0  0  0  0  0
    1.1435   -1.1239    0.2296 H   0  0  0  0  0  0  0  0  0  0  0  0
    1.7105   -0.6465    2.3128 H   0  0  0  0  0  0  0  0  0  0  0  0
    2.2297   -2.4170    5.2292 H   0  0  0  0  0  0  0  0  0  0  0  0
    2.2029   -2.4339    3.4623 H   0  0  0  0  0  0  0  0  0  0  0  0
    1.3533   -1.1347    4.3831 H   0  0  0  0  0  0  0  0  0  0  0  0
    5.3957    0.5416    4.0680 H   0  0  0  0  0  0  0  0  0  0  0  0
    7.5171    3.1002    0.5333 H   0  0  0  0  0  0  0  0  0  0  0  0
    6.1765    2.1772   -0.1213 H   0  0  0  0  0  0  0  0  0  0  0  0
    8.2491    0.6023    1.2074 H   0  0  0  0  0  0  0  0  0  0  0  0
    9.7340    0.6726   -1.1005 H   0  0  0  0  0  0  0  0  0  0  0  0
    8.4435    1.6004   -1.8973 H   0  0  0  0  0  0  0  0  0  0  0  0
    8.1854   -1.0824   -0.3343 H   0  0  0  0  0  0  0  0  0  0  0  0
    6.7290   -0.3135   -1.0516 H   0  0  0  0  0  0  0  0  0  0  0  0
    8.2101    3.8150    2.4446 H   0  0  0  0  0  0  0  0  0  0  0  0
    9.9245    3.8351    4.0227 H   0  0  0  0  0  0  0  0  0  0  0  0
   11.8991    3.4867    5.4265 H   0  0  0  0  0  0  0  0  0  0  0  0
   13.6231    1.1052    9.1848 H   0  0  0  0  0  0  0  0  0  0  0  0
   15.9721    5.0384    9.8478 H   0  0  0  0  0  0  0  0  0  0  0  0
   15.2788    6.0533    8.6007 H   0  0  0  0  0  0  0  0  0  0  0  0
   17.4870    3.9536    8.2115 H   0  0  0  0  0  0  0  0  0  0  0  0
   17.7055    5.7198    8.2120 H   0  0  0  0  0  0  0  0  0  0  0  0
   13.4089    4.8043    7.0277 H   0  0  0  0  0  0  0  0  0  0  0  0
    7.2213   -0.1448    3.9395 H   0  0  0  0  0  0  0  0  0  0  0  0
    4.0187    2.1327    0.2846 H   0  0  0  0  0  0  0  0  0  0  0  0
  1  2  1  0  0  0  0
  1 34  1  0  0  0  0
  1 35  1  0  0  0  0
  1 36  1  0  0  0  0
  2  3  1  0  0  0  0
  3  4  1  0  0  0  0
  3 33  2  0  0  0  0
  4  5  2  0  0  0  0
  4 37  1  0  0  0  0
  5  6  1  0  0  0  0
  5  8  1  0  0  0  0
  6  7  1  0  0  0  0
  7 38  1  0  0  0  0
  7 39  1  0  0  0  0
  7 40  1  0  0  0  0
  8  9  2  0  0  0  0
  8 41  1  0  0  0  0
  9 10  1  0  0  0  0
  9 33  1  0  0  0  0
 10 11  1  0  0  0  0
 10 15  1  0  0  0  0
 11 12  1  0  0  0  0
 11 42  1  0  0  0  0
 11 43  1  0  0  0  0
 12 13  1  0  0  0  0
 12 14  1  0  0  0  0
 12 44  1  0  0  0  0
 13 14  1  0  0  0  0
 13 45  1  0  0  0  0
 13 46  1  0  0  0  0
 14 47  1  0  0  0  0
 14 48  1  0  0  0  0
 15 16  1  0  0  0  0
 15 32  2  0  0  0  0
 16 17  2  0  0  0  0
 16 49  1  0  0  0  0
 17 18  1  0  0  0  0
 17 50  1  0  0  0  0
 18 19  1  0  0  0  0
 18 31  2  0  0  0  0
 19 20  2  0  0  0  0
 20 21  1  0  0  0  0
 20 51  1  0  0  0  0
 21 22  1  0  0  0  0
 21 30  2  0  0  0  0
 22 23  1  0  0  0  0
 22 29  2  0  0  0  0
 23 24  2  0  0  0  0
 23 52  1  0  0  0  0
 24 25  1  0  0  0  0
 25 26  1  0  0  0  0
 25 29  1  0  0  0  0
 26 27  1  0  0  0  0
 26 53  1  0  0  0  0
 26 54  1  0  0  0  0
 27 28  1  0  0  0  0
 27 55  1  0  0  0  0
 27 56  1  0  0  0  0
 29 57  1  0  0  0  0
 30 31  1  0  0  0  0
 31 32  1  0  0  0  0
 32 58  1  0  0  0  0
 33 59  1  0  0  0  0
M  END
$$$$
