CHEMBL1987054
 OpenBabel04072215363D

 69 74  0  0  1  0  0  0  0  0999 V2000
    0.7530   -3.2726    6.5769 C   0  0  0  0  0  0  0  0  0  0  0  0
    2.1716   -3.2721    6.6175 O   0  0  0  0  0  0  0  0  0  0  0  0
    2.7183   -2.0947    6.0213 C   0  0  0  0  0  0  0  0  0  0  0  0
    4.2360   -2.1994    6.0661 C   0  0  0  0  0  0  0  0  0  0  0  0
    4.8350   -1.0870    5.4000 O   0  0  0  0  0  0  0  0  0  0  0  0
    6.2665   -1.1024    5.4608 C   0  0  3  0  0  0  0  0  0  0  0  0
    6.7735    0.2117    4.8541 C   0  0  0  0  0  0  0  0  0  0  0  0
    8.2988    0.2684    4.8124 C   0  0  0  0  0  0  0  0  0  0  0  0
    8.8971   -0.9434    4.0851 C   0  0  3  0  0  0  0  0  0  0  0  0
   10.3552   -0.9261    4.1125 N   0  0  0  0  0  0  0  0  0  0  0  0
   11.0068   -0.9340    5.2953 N   0  0  0  0  0  0  0  0  0  0  0  0
   12.3087   -0.8919    4.9564 C   0  0  0  0  0  0  0  0  0  0  0  0
   13.3454   -0.8548    5.9876 C   0  0  0  0  0  0  0  0  0  0  0  0
   13.2119   -1.5381    7.1996 C   0  0  0  0  0  0  0  0  0  0  0  0
   14.3012   -1.6464    8.0823 C   0  0  0  0  0  0  0  0  0  0  0  0
   15.5527   -1.1027    7.7515 C   0  0  0  0  0  0  0  0  0  0  0  0
   16.6768   -1.3804    8.5550 N   0  0  0  0  0  0  0  0  0  0  0  0
   17.9597   -1.2835    8.1484 C   0  0  0  0  0  0  0  0  0  0  0  0
   18.4841   -0.6514    7.1164 N   0  0  0  0  0  0  0  0  0  0  0  0
   19.8064   -0.9697    7.1555 C   0  0  0  0  0  0  0  0  0  0  0  0
   20.8526   -0.5917    6.3026 C   0  0  0  0  0  0  0  0  0  0  0  0
   22.1445   -1.0741    6.5741 C   0  0  0  0  0  0  0  0  0  0  0  0
   23.2962   -0.6737    5.6964 C   0  0  0  0  0  0  0  0  0  0  0  0
   22.3605   -1.9277    7.6714 C   0  0  0  0  0  0  0  0  0  0  0  0
   21.3143   -2.3100    8.5255 C   0  0  0  0  0  0  0  0  0  0  0  0
   21.5922   -3.3540    9.8527 Cl  0  0  0  0  0  0  0  0  0  0  0  0
   20.0558   -1.8006    8.2299 C   0  0  0  0  0  0  0  0  0  0  0  0
   18.8703   -1.9950    8.8878 O   0  0  0  0  0  0  0  0  0  0  0  0
   15.6231   -0.3164    6.5988 C   0  0  0  0  0  0  0  0  0  0  0  0
   14.5293   -0.1638    5.7508 C   0  0  0  0  0  0  0  0  0  0  0  0
   12.4765   -0.9317    3.5266 C   0  0  0  0  0  0  0  0  0  0  0  0
   13.5079   -0.9614    2.5754 C   0  0  0  0  0  0  0  0  0  0  0  0
   14.8698   -0.9912    2.8444 N   0  0  0  0  0  0  0  0  0  0  0  0
   13.1853   -0.9696    1.2639 N   0  0  0  0  0  0  0  0  0  0  0  0
   11.8836   -0.9611    0.9207 C   0  0  0  0  0  0  0  0  0  0  0  0
   10.8185   -0.9531    1.7349 N   0  0  0  0  0  0  0  0  0  0  0  0
   11.1862   -0.9374    3.0270 C   0  0  0  0  0  0  0  0  0  0  0  0
    8.3634   -2.2671    4.6430 C   0  0  0  0  0  0  0  0  0  0  0  0
    6.8440   -2.2924    4.6855 C   0  0  0  0  0  0  0  0  0  0  0  0
    0.3982   -4.1988    7.0371 H   0  0  0  0  0  0  0  0  0  0  0  0
    0.3986   -3.2386    5.5424 H   0  0  0  0  0  0  0  0  0  0  0  0
    0.3564   -2.4250    7.1429 H   0  0  0  0  0  0  0  0  0  0  0  0
    2.3833   -1.2031    6.5639 H   0  0  0  0  0  0  0  0  0  0  0  0
    2.3825   -2.0071    4.9811 H   0  0  0  0  0  0  0  0  0  0  0  0
    4.5170   -3.1352    5.5735 H   0  0  0  0  0  0  0  0  0  0  0  0
    4.5793   -2.2517    7.1061 H   0  0  0  0  0  0  0  0  0  0  0  0
    6.5773   -1.1461    6.5134 H   0  0  0  0  0  0  0  0  0  0  0  0
    6.3855    1.0619    5.4283 H   0  0  0  0  0  0  0  0  0  0  0  0
    6.3691    0.3315    3.8404 H   0  0  0  0  0  0  0  0  0  0  0  0
    8.6781    0.3225    5.8407 H   0  0  0  0  0  0  0  0  0  0  0  0
    8.6190    1.1926    4.3154 H   0  0  0  0  0  0  0  0  0  0  0  0
    8.5989   -0.8804    3.0289 H   0  0  0  0  0  0  0  0  0  0  0  0
   12.2696   -2.0198    7.4554 H   0  0  0  0  0  0  0  0  0  0  0  0
   14.1684   -2.2043    9.0056 H   0  0  0  0  0  0  0  0  0  0  0  0
   16.5015   -1.9924    9.3399 H   0  0  0  0  0  0  0  0  0  0  0  0
   20.6482    0.0578    5.4593 H   0  0  0  0  0  0  0  0  0  0  0  0
   22.9758    0.0031    4.8965 H   0  0  0  0  0  0  0  0  0  0  0  0
   23.7421   -1.5580    5.2307 H   0  0  0  0  0  0  0  0  0  0  0  0
   24.0543   -0.1535    6.2897 H   0  0  0  0  0  0  0  0  0  0  0  0
   23.3637   -2.3018    7.8663 H   0  0  0  0  0  0  0  0  0  0  0  0
   16.5413    0.1839    6.3045 H   0  0  0  0  0  0  0  0  0  0  0  0
   14.6486    0.4681    4.8741 H   0  0  0  0  0  0  0  0  0  0  0  0
   15.1398   -1.5075    3.6727 H   0  0  0  0  0  0  0  0  0  0  0  0
   15.4029   -1.2010    2.0081 H   0  0  0  0  0  0  0  0  0  0  0  0
   11.6750   -0.9637   -0.1450 H   0  0  0  0  0  0  0  0  0  0  0  0
    8.7469   -2.4385    5.6572 H   0  0  0  0  0  0  0  0  0  0  0  0
    8.7209   -3.1055    4.0319 H   0  0  0  0  0  0  0  0  0  0  0  0
    6.5375   -3.2389    5.1413 H   0  0  0  0  0  0  0  0  0  0  0  0
    6.4323   -2.3003    3.6684 H   0  0  0  0  0  0  0  0  0  0  0  0
  1  2  1  0  0  0  0
  1 40  1  0  0  0  0
  1 41  1  0  0  0  0
  1 42  1  0  0  0  0
  2  3  1  0  0  0  0
  3  4  1  0  0  0  0
  3 43  1  0  0  0  0
  3 44  1  0  0  0  0
  4  5  1  0  0  0  0
  4 45  1  0  0  0  0
  4 46  1  0  0  0  0
  5  6  1  0  0  0  0
  6  7  1  0  0  0  0
  6 39  1  0  0  0  0
  6 47  1  0  0  0  0
  7  8  1  0  0  0  0
  7 48  1  0  0  0  0
  7 49  1  0  0  0  0
  8  9  1  0  0  0  0
  8 50  1  0  0  0  0
  8 51  1  0  0  0  0
  9 10  1  0  0  0  0
  9 38  1  0  0  0  0
  9 52  1  0  0  0  0
 10 11  1  0  0  0  0
 10 37  1  0  0  0  0
 11 12  2  0  0  0  0
 12 13  1  0  0  0  0
 12 31  1  0  0  0  0
 13 14  1  0  0  0  0
 13 30  2  0  0  0  0
 14 15  2  0  0  0  0
 14 53  1  0  0  0  0
 15 16  1  0  0  0  0
 15 54  1  0  0  0  0
 16 17  1  0  0  0  0
 16 29  2  0  0  0  0
 17 18  1  0  0  0  0
 17 55  1  0  0  0  0
 18 19  2  0  0  0  0
 18 28  1  0  0  0  0
 19 20  1  0  0  0  0
 20 21  1  0  0  0  0
 20 27  2  0  0  0  0
 21 22  2  0  0  0  0
 21 56  1  0  0  0  0
 22 23  1  0  0  0  0
 22 24  1  0  0  0  0
 23 57  1  0  0  0  0
 23 58  1  0  0  0  0
 23 59  1  0  0  0  0
 24 25  2  0  0  0  0
 24 60  1  0  0  0  0
 25 26  1  0  0  0  0
 25 27  1  0  0  0  0
 27 28  1  0  0  0  0
 29 30  1  0  0  0  0
 29 61  1  0  0  0  0
 30 62  1  0  0  0  0
 31 32  1  0  0  0  0
 31 37  2  0  0  0  0
 32 33  1  0  0  0  0
 32 34  2  0  0  0  0
 33 63  1  0  0  0  0
 33 64  1  0  0  0  0
 34 35  1  0  0  0  0
 35 36  2  0  0  0  0
 35 65  1  0  0  0  0
 36 37  1  0  0  0  0
 38 39  1  0  0  0  0
 38 66  1  0  0  0  0
 38 67  1  0  0  0  0
 39 68  1  0  0  0  0
 39 69  1  0  0  0  0
M  END
$$$$
