CHEMBL2113174
 OpenBabel04072215363D

 54 57  0  0  0  0  0  0  0  0999 V2000
    1.0476    0.7962    0.5827 C   0  0  0  0  0  0  0  0  0  0  0  0
    2.2941    0.4364    0.0190 O   0  0  0  0  0  0  0  0  0  0  0  0
    2.7880    1.3890   -0.9288 C   0  0  0  0  0  0  0  0  0  0  0  0
    4.0961    0.7998   -1.4397 C   0  0  0  0  0  0  0  0  0  0  0  0
    4.7652    1.6152   -2.3781 O   0  0  0  0  0  0  0  0  0  0  0  0
    6.1216    1.4528   -2.5210 C   0  0  0  0  0  0  0  0  0  0  0  0
    6.6996    2.6340   -3.0468 C   0  0  0  0  0  0  0  0  0  0  0  0
    8.0670    2.8134   -3.2386 C   0  0  0  0  0  0  0  0  0  0  0  0
    8.5276    3.9909   -3.6749 N   0  0  0  0  0  0  0  0  0  0  0  0
    9.8562    4.1123   -3.8051 C   0  0  0  0  0  0  0  0  0  0  0  0
   10.7567    3.1553   -3.5682 N   0  0  0  0  0  0  0  0  0  0  0  0
   10.2804    1.9688   -3.1480 C   0  0  0  0  0  0  0  0  0  0  0  0
   11.2039    0.9120   -2.9048 N   0  0  0  0  0  0  0  0  0  0  0  0
   12.5772    1.1285   -2.9073 C   0  0  0  0  0  0  0  0  0  0  0  0
   13.2155    2.0746   -2.2088 C   0  0  0  0  0  0  0  0  0  0  0  0
   14.6667    2.2972   -2.2932 C   0  0  0  0  0  0  0  0  0  0  0  0
   15.1874    3.1903   -1.6348 O   0  0  0  0  0  0  0  0  0  0  0  0
   15.4501    1.4144   -3.1991 C   0  0  0  0  0  0  0  0  0  0  0  0
   16.8138    1.6945   -3.2841 O   0  0  0  0  0  0  0  0  0  0  0  0
   17.6938    0.6643   -3.5290 C   0  0  0  0  0  0  0  0  0  0  0  0
   18.7331    0.9165   -4.4222 C   0  0  0  0  0  0  0  0  0  0  0  0
   19.6240   -0.1057   -4.7368 C   0  0  0  0  0  0  0  0  0  0  0  0
   19.4782   -1.3674   -4.1678 C   0  0  0  0  0  0  0  0  0  0  0  0
   18.4683   -1.6040   -3.2402 C   0  0  0  0  0  0  0  0  0  0  0  0
   17.5886   -0.5773   -2.8963 C   0  0  0  0  0  0  0  0  0  0  0  0
   14.8203    0.4631   -3.9055 C   0  0  0  0  0  0  0  0  0  0  0  0
   13.3805    0.2013   -3.7596 C   0  0  0  0  0  0  0  0  0  0  0  0
   12.8508   -0.7499   -4.3278 O   0  0  0  0  0  0  0  0  0  0  0  0
    8.9086    1.7473   -2.9396 C   0  0  0  0  0  0  0  0  0  0  0  0
    8.3516    0.5593   -2.4210 C   0  0  0  0  0  0  0  0  0  0  0  0
    6.9714    0.3880   -2.2023 C   0  0  0  0  0  0  0  0  0  0  0  0
    6.7555   -0.8004   -1.5693 O   0  0  0  0  0  0  0  0  0  0  0  0
    5.6623   -1.6413   -1.8830 C   0  0  0  0  0  0  0  0  0  0  0  0
    0.7697    0.0161    1.2980 H   0  0  0  0  0  0  0  0  0  0  0  0
    0.2781    0.8479   -0.1918 H   0  0  0  0  0  0  0  0  0  0  0  0
    1.1275    1.7466    1.1156 H   0  0  0  0  0  0  0  0  0  0  0  0
    2.9486    2.3635   -0.4566 H   0  0  0  0  0  0  0  0  0  0  0  0
    2.0744    1.5124   -1.7522 H   0  0  0  0  0  0  0  0  0  0  0  0
    3.7968   -0.1172   -1.9473 H   0  0  0  0  0  0  0  0  0  0  0  0
    4.7307    0.5827   -0.5748 H   0  0  0  0  0  0  0  0  0  0  0  0
    6.0482    3.4788   -3.2711 H   0  0  0  0  0  0  0  0  0  0  0  0
   10.2387    5.0742   -4.1303 H   0  0  0  0  0  0  0  0  0  0  0  0
   10.9654    0.1157   -3.5047 H   0  0  0  0  0  0  0  0  0  0  0  0
   12.6754    2.7525   -1.5579 H   0  0  0  0  0  0  0  0  0  0  0  0
   18.8452    1.8976   -4.8713 H   0  0  0  0  0  0  0  0  0  0  0  0
   20.4257    0.0728   -5.4521 H   0  0  0  0  0  0  0  0  0  0  0  0
   20.1545   -2.1741   -4.4395 H   0  0  0  0  0  0  0  0  0  0  0  0
   18.3602   -2.5822   -2.7821 H   0  0  0  0  0  0  0  0  0  0  0  0
   16.8187   -0.7673   -2.1573 H   0  0  0  0  0  0  0  0  0  0  0  0
   15.3369   -0.1837   -4.6054 H   0  0  0  0  0  0  0  0  0  0  0  0
    9.0124   -0.2587   -2.1365 H   0  0  0  0  0  0  0  0  0  0  0  0
    6.0193   -2.6728   -1.9568 H   0  0  0  0  0  0  0  0  0  0  0  0
    5.1629   -1.3915   -2.8222 H   0  0  0  0  0  0  0  0  0  0  0  0
    4.9753   -1.6309   -1.0302 H   0  0  0  0  0  0  0  0  0  0  0  0
  1  2  1  0  0  0  0
  1 34  1  0  0  0  0
  1 35  1  0  0  0  0
  1 36  1  0  0  0  0
  2  3  1  0  0  0  0
  3  4  1  0  0  0  0
  3 37  1  0  0  0  0
  3 38  1  0  0  0  0
  4  5  1  0  0  0  0
  4 39  1  0  0  0  0
  4 40  1  0  0  0  0
  5  6  1  0  0  0  0
  6  7  1  0  0  0  0
  6 31  2  0  0  0  0
  7  8  2  0  0  0  0
  7 41  1  0  0  0  0
  8  9  1  0  0  0  0
  8 29  1  0  0  0  0
  9 10  2  0  0  0  0
 10 11  1  0  0  0  0
 10 42  1  0  0  0  0
 11 12  2  0  0  0  0
 12 13  1  0  0  0  0
 12 29  1  0  0  0  0
 13 14  1  0  0  0  0
 13 43  1  0  0  0  0
 14 15  2  0  0  0  0
 14 27  1  0  0  0  0
 15 16  1  0  0  0  0
 15 44  1  0  0  0  0
 16 17  2  0  0  0  0
 16 18  1  0  0  0  0
 18 19  1  0  0  0  0
 18 26  2  0  0  0  0
 19 20  1  0  0  0  0
 20 21  1  0  0  0  0
 20 25  2  0  0  0  0
 21 22  2  0  0  0  0
 21 45  1  0  0  0  0
 22 23  1  0  0  0  0
 22 46  1  0  0  0  0
 23 24  2  0  0  0  0
 23 47  1  0  0  0  0
 24 25  1  0  0  0  0
 24 48  1  0  0  0  0
 25 49  1  0  0  0  0
 26 27  1  0  0  0  0
 26 50  1  0  0  0  0
 27 28  2  0  0  0  0
 29 30  2  0  0  0  0
 30 31  1  0  0  0  0
 30 51  1  0  0  0  0
 31 32  1  0  0  0  0
 32 33  1  0  0  0  0
 33 52  1  0  0  0  0
 33 53  1  0  0  0  0
 33 54  1  0  0  0  0
M  END
$$$$
