CHEMBL3922278
 OpenBabel04072215373D

 56 60  0  0  1  0  0  0  0  0999 V2000
   -3.4874   -0.4964   -0.3127 C   0  0  0  0  0  0  0  0  0  0  0  0
   -3.0410    0.1284   -1.5164 O   0  0  0  0  0  0  0  0  0  0  0  0
   -3.9452    0.2504   -2.5426 C   0  0  0  0  0  0  0  0  0  0  0  0
   -5.2854   -0.1221   -2.4398 C   0  0  0  0  0  0  0  0  0  0  0  0
   -6.1641   -0.0394   -3.5499 C   0  0  0  0  0  0  0  0  0  0  0  0
   -7.5118   -0.4289   -3.5301 C   0  0  0  0  0  0  0  0  0  0  0  0
   -8.0752   -0.8596   -2.3134 N   0  0  0  0  0  0  0  0  0  0  0  0
   -9.0226   -1.8776   -2.0977 C   0  0  0  0  0  0  0  0  0  0  0  0
   -9.1626   -2.9518   -2.9876 C   0  0  0  0  0  0  0  0  0  0  0  0
   -9.9685   -4.0434   -2.6625 C   0  0  0  0  0  0  0  0  0  0  0  0
  -10.6509   -4.0605   -1.4498 C   0  0  0  0  0  0  0  0  0  0  0  0
  -11.3787   -5.1436   -1.1412 F   0  0  0  0  0  0  0  0  0  0  0  0
  -10.5629   -2.9889   -0.5669 C   0  0  0  0  0  0  0  0  0  0  0  0
  -11.4266   -3.0090    0.9220 Cl  0  0  0  0  0  0  0  0  0  0  0  0
   -9.7445   -1.9106   -0.8938 C   0  0  0  0  0  0  0  0  0  0  0  0
   -9.6109   -0.8790   -0.0413 F   0  0  0  0  0  0  0  0  0  0  0  0
   -8.2876   -0.3980   -4.6279 N   0  0  0  0  0  0  0  0  0  0  0  0
   -7.7147    0.0545   -5.7466 C   0  0  0  0  0  0  0  0  0  0  0  0
   -6.4470    0.4598   -5.8753 N   0  0  0  0  0  0  0  0  0  0  0  0
   -5.6865    0.4034   -4.7792 C   0  0  0  0  0  0  0  0  0  0  0  0
   -4.3577    0.7952   -4.8636 C   0  0  0  0  0  0  0  0  0  0  0  0
   -3.4857    0.7708   -3.7625 C   0  0  0  0  0  0  0  0  0  0  0  0
   -2.1897    1.2491   -3.8233 O   0  0  0  0  0  0  0  0  0  0  0  0
   -1.9377    2.1406   -4.9177 C   0  0  0  0  0  0  0  0  0  0  0  0
   -0.7633    3.1025   -4.6829 C   0  0  2  0  0  0  0  0  0  0  0  0
   -0.9594    3.8311   -3.3168 C   0  0  0  0  0  0  0  0  0  0  0  0
   -0.2825    5.1262   -3.2725 N   0  0  3  0  0  0  0  0  0  0  0  0
   -0.6400    5.9820   -2.1480 C   0  0  0  0  0  0  0  0  0  0  0  0
   -0.0683    7.3199   -2.6069 C   0  0  0  0  0  0  0  0  0  0  0  0
   -0.1606    7.2995   -4.1380 C   0  0  0  0  0  0  0  0  0  0  0  0
   -0.6613    5.9058   -4.4619 C   0  0  1  0  0  0  0  0  0  0  0  0
   -0.0646    5.1997   -5.6702 C   0  0  0  0  0  0  0  0  0  0  0  0
   -0.7667    3.9621   -5.8553 O   0  0  0  0  0  0  0  0  0  0  0  0
   -2.6089   -0.8102    0.2586 H   0  0  0  0  0  0  0  0  0  0  0  0
   -4.0786   -1.4024   -0.4905 H   0  0  0  0  0  0  0  0  0  0  0  0
   -4.0512    0.2208    0.2930 H   0  0  0  0  0  0  0  0  0  0  0  0
   -5.6869   -0.5087   -1.5106 H   0  0  0  0  0  0  0  0  0  0  0  0
   -8.0997   -0.1173   -1.6180 H   0  0  0  0  0  0  0  0  0  0  0  0
   -8.6139   -2.9642   -3.9274 H   0  0  0  0  0  0  0  0  0  0  0  0
  -10.0471   -4.8891   -3.3389 H   0  0  0  0  0  0  0  0  0  0  0  0
   -8.3351    0.0992   -6.6349 H   0  0  0  0  0  0  0  0  0  0  0  0
   -4.0150    1.1198   -5.8436 H   0  0  0  0  0  0  0  0  0  0  0  0
   -2.8106    2.7828   -5.1015 H   0  0  0  0  0  0  0  0  0  0  0  0
   -1.7527    1.5577   -5.8294 H   0  0  0  0  0  0  0  0  0  0  0  0
    0.1879    2.5566   -4.6720 H   0  0  0  0  0  0  0  0  0  0  0  0
   -0.5660    3.1878   -2.5200 H   0  0  0  0  0  0  0  0  0  0  0  0
   -2.0306    3.9634   -3.1215 H   0  0  0  0  0  0  0  0  0  0  0  0
   -0.1928    5.6458   -1.2084 H   0  0  0  0  0  0  0  0  0  0  0  0
   -1.7271    6.0590   -2.0179 H   0  0  0  0  0  0  0  0  0  0  0  0
    0.9845    7.4040   -2.3117 H   0  0  0  0  0  0  0  0  0  0  0  0
   -0.6088    8.1667   -2.1722 H   0  0  0  0  0  0  0  0  0  0  0  0
    0.8124    7.5178   -4.5873 H   0  0  0  0  0  0  0  0  0  0  0  0
   -0.8732    8.0558   -4.4895 H   0  0  0  0  0  0  0  0  0  0  0  0
   -1.7584    5.9457   -4.5559 H   0  0  0  0  0  0  0  0  0  0  0  0
    1.0083    4.9989   -5.5574 H   0  0  0  0  0  0  0  0  0  0  0  0
   -0.2048    5.8012   -6.5742 H   0  0  0  0  0  0  0  0  0  0  0  0
  1  2  1  0  0  0  0
  1 34  1  0  0  0  0
  1 35  1  0  0  0  0
  1 36  1  0  0  0  0
  2  3  1  0  0  0  0
  3  4  1  0  0  0  0
  3 22  2  0  0  0  0
  4  5  2  0  0  0  0
  4 37  1  0  0  0  0
  5  6  1  0  0  0  0
  5 20  1  0  0  0  0
  6  7  1  0  0  0  0
  6 17  2  0  0  0  0
  7  8  1  0  0  0  0
  7 38  1  0  0  0  0
  8  9  1  0  0  0  0
  8 15  2  0  0  0  0
  9 10  2  0  0  0  0
  9 39  1  0  0  0  0
 10 11  1  0  0  0  0
 10 40  1  0  0  0  0
 11 12  1  0  0  0  0
 11 13  2  0  0  0  0
 13 14  1  0  0  0  0
 13 15  1  0  0  0  0
 15 16  1  0  0  0  0
 17 18  1  0  0  0  0
 18 19  2  0  0  0  0
 18 41  1  0  0  0  0
 19 20  1  0  0  0  0
 20 21  2  0  0  0  0
 21 22  1  0  0  0  0
 21 42  1  0  0  0  0
 22 23  1  0  0  0  0
 23 24  1  0  0  0  0
 24 43  1  0  0  0  0
 24 44  1  0  0  0  0
 25 26  1  0  0  0  0
 25 33  1  0  0  0  0
 25 24  1  0  0  0  0
 25 45  1  1  0  0  0
 26 27  1  0  0  0  0
 26 46  1  0  0  0  0
 26 47  1  0  0  0  0
 27 28  1  0  0  0  0
 27 31  1  0  0  0  0
 28 29  1  0  0  0  0
 28 48  1  0  0  0  0
 28 49  1  0  0  0  0
 29 30  1  0  0  0  0
 29 50  1  0  0  0  0
 29 51  1  0  0  0  0
 30 31  1  0  0  0  0
 30 52  1  0  0  0  0
 30 53  1  0  0  0  0
 31 32  1  0  0  0  0
 31 54  1  6  0  0  0
 32 33  1  0  0  0  0
 32 55  1  0  0  0  0
 32 56  1  0  0  0  0
M  END
$$$$
