CHEMBL503524
 OpenBabel04072215383D

 74 80  0  0  0  0  0  0  0  0999 V2000
   -1.4716   -0.7612    0.1719 O   0  0  0  0  0  0  0  0  0  0  0  0
   -0.3682   -1.2115    0.4790 C   0  0  0  0  0  0  0  0  0  0  0  0
    0.6385   -1.5319   -0.4109 N   0  0  0  0  0  0  0  0  0  0  0  0
    0.6497   -1.2813   -1.7866 C   0  0  0  0  0  0  0  0  0  0  0  0
   -0.2598   -0.4140   -2.3806 C   0  0  0  0  0  0  0  0  0  0  0  0
   -0.3231   -0.3076   -3.7658 C   0  0  0  0  0  0  0  0  0  0  0  0
    0.5429   -1.0523   -4.5609 C   0  0  0  0  0  0  0  0  0  0  0  0
    0.3593   -0.8973   -5.9071 O   0  0  0  0  0  0  0  0  0  0  0  0
    0.5591   -1.9403   -6.7760 C   0  0  0  0  0  0  0  0  0  0  0  0
    0.4720   -3.2911   -6.4470 C   0  0  0  0  0  0  0  0  0  0  0  0
    0.7086   -4.2378   -7.4245 C   0  0  0  0  0  0  0  0  0  0  0  0
    0.9302   -3.9750   -8.7245 N   0  0  0  0  0  0  0  0  0  0  0  0
    0.9367   -2.6554   -9.0577 C   0  0  0  0  0  0  0  0  0  0  0  0
    1.0691   -2.1507  -10.3803 C   0  0  0  0  0  0  0  0  0  0  0  0
    1.0710   -0.7740  -10.4119 C   0  0  0  0  0  0  0  0  0  0  0  0
    1.2258    0.0396  -11.6419 C   0  0  0  0  0  0  0  0  0  0  0  0
    1.3240   -0.4711  -12.9140 C   0  0  0  0  0  0  0  0  0  0  0  0
    1.5293    0.6085  -13.7144 N   0  0  0  0  0  0  0  0  0  0  0  0
    1.6807    0.5531  -15.1599 C   0  0  0  0  0  0  0  0  0  0  0  0
    2.5981    1.6554  -15.6930 C   0  0  0  0  0  0  0  0  0  0  0  0
    2.7590    1.7007  -17.1597 N   0  0  0  0  0  0  0  0  0  0  0  0
    3.6764    2.8101  -17.5097 C   0  0  0  0  0  0  0  0  0  0  0  0
    2.8003    4.0481  -17.4231 C   0  0  0  0  0  0  0  0  0  0  0  0
    1.5146    3.5691  -18.0711 C   0  0  0  0  0  0  0  0  0  0  0  0
    1.5017    2.0564  -17.8510 C   0  0  0  0  0  0  0  0  0  0  0  0
    1.5592    1.7149  -12.9159 C   0  0  0  0  0  0  0  0  0  0  0  0
    1.3360    1.4055  -11.6585 N   0  0  0  0  0  0  0  0  0  0  0  0
    0.9126   -0.0897   -8.8665 S   0  0  0  0  0  0  0  0  0  0  0  0
    0.7852   -1.6346   -8.1233 C   0  0  0  0  0  0  0  0  0  0  0  0
    1.5376   -1.8205   -3.9534 C   0  0  0  0  0  0  0  0  0  0  0  0
    2.4378   -2.4966   -4.6805 F   0  0  0  0  0  0  0  0  0  0  0  0
    1.5913   -1.9516   -2.5699 C   0  0  0  0  0  0  0  0  0  0  0  0
   -0.0698   -1.4905    1.7927 N   0  0  0  0  0  0  0  0  0  0  0  0
   -0.9726   -1.2517    2.8913 C   0  0  0  0  0  0  0  0  0  0  0  0
   -0.6666   -2.4009    3.8491 C   0  0  0  0  0  0  0  0  0  0  0  0
    0.6991   -2.7286    3.5199 N   0  0  0  0  0  0  0  0  0  0  0  0
    1.5423   -3.5662    4.2545 C   0  0  0  0  0  0  0  0  0  0  0  0
    2.9093   -3.6425    3.9240 C   0  0  0  0  0  0  0  0  0  0  0  0
    3.7725   -4.4900    4.5817 C   0  0  0  0  0  0  0  0  0  0  0  0
    3.2815   -5.3022    5.6041 C   0  0  0  0  0  0  0  0  0  0  0  0
    1.9437   -5.2297    5.9687 C   0  0  0  0  0  0  0  0  0  0  0  0
    1.0696   -4.3483    5.3174 C   0  0  0  0  0  0  0  0  0  0  0  0
    0.9761   -2.3006    2.2151 C   0  0  0  0  0  0  0  0  0  0  0  0
    1.9410   -2.5979    1.5052 O   0  0  0  0  0  0  0  0  0  0  0  0
    1.3585   -2.1644   -0.0536 H   0  0  0  0  0  0  0  0  0  0  0  0
   -0.9499    0.1791   -1.7913 H   0  0  0  0  0  0  0  0  0  0  0  0
   -1.0718    0.3401   -4.2125 H   0  0  0  0  0  0  0  0  0  0  0  0
    0.2558   -3.6195   -5.4379 H   0  0  0  0  0  0  0  0  0  0  0  0
    0.7191   -5.2927   -7.1616 H   0  0  0  0  0  0  0  0  0  0  0  0
    1.1658   -2.7862  -11.2490 H   0  0  0  0  0  0  0  0  0  0  0  0
    1.2701   -1.4856  -13.2897 H   0  0  0  0  0  0  0  0  0  0  0  0
    0.6643    0.6244  -15.5562 H   0  0  0  0  0  0  0  0  0  0  0  0
    2.0829   -0.4334  -15.4179 H   0  0  0  0  0  0  0  0  0  0  0  0
    3.5864    1.5143  -15.2341 H   0  0  0  0  0  0  0  0  0  0  0  0
    2.2235    2.6162  -15.3317 H   0  0  0  0  0  0  0  0  0  0  0  0
    4.0282    2.6713  -18.5399 H   0  0  0  0  0  0  0  0  0  0  0  0
    4.5620    2.8621  -16.8676 H   0  0  0  0  0  0  0  0  0  0  0  0
    3.2310    4.9193  -17.9230 H   0  0  0  0  0  0  0  0  0  0  0  0
    2.6148    4.3367  -16.3819 H   0  0  0  0  0  0  0  0  0  0  0  0
    1.5414    3.7854  -19.1446 H   0  0  0  0  0  0  0  0  0  0  0  0
    0.6353    4.0582  -17.6415 H   0  0  0  0  0  0  0  0  0  0  0  0
    1.4763    1.5444  -18.8206 H   0  0  0  0  0  0  0  0  0  0  0  0
    0.5981    1.7425  -17.3215 H   0  0  0  0  0  0  0  0  0  0  0  0
    1.7579    2.7164  -13.2721 H   0  0  0  0  0  0  0  0  0  0  0  0
    2.3436   -2.6022   -2.1391 H   0  0  0  0  0  0  0  0  0  0  0  0
   -2.0226   -1.1906    2.5853 H   0  0  0  0  0  0  0  0  0  0  0  0
   -0.6789   -0.2978    3.3425 H   0  0  0  0  0  0  0  0  0  0  0  0
   -1.3027   -3.2635    3.6183 H   0  0  0  0  0  0  0  0  0  0  0  0
   -0.7861   -2.1093    4.8947 H   0  0  0  0  0  0  0  0  0  0  0  0
    3.3309   -3.0228    3.1422 H   0  0  0  0  0  0  0  0  0  0  0  0
    4.8174   -4.5261    4.2915 H   0  0  0  0  0  0  0  0  0  0  0  0
    3.9548   -5.9904    6.1076 H   0  0  0  0  0  0  0  0  0  0  0  0
    1.5684   -5.8705    6.7561 H   0  0  0  0  0  0  0  0  0  0  0  0
    0.0334   -4.3235    5.6232 H   0  0  0  0  0  0  0  0  0  0  0  0
  1  2  2  0  0  0  0
  2  3  1  0  0  0  0
  2 33  1  0  0  0  0
  3  4  1  0  0  0  0
  3 45  1  0  0  0  0
  4  5  1  0  0  0  0
  4 32  2  0  0  0  0
  5  6  2  0  0  0  0
  5 46  1  0  0  0  0
  6  7  1  0  0  0  0
  6 47  1  0  0  0  0
  7  8  1  0  0  0  0
  7 30  2  0  0  0  0
  8  9  1  0  0  0  0
  9 10  1  0  0  0  0
  9 29  2  0  0  0  0
 10 11  2  0  0  0  0
 10 48  1  0  0  0  0
 11 12  1  0  0  0  0
 11 49  1  0  0  0  0
 12 13  2  0  0  0  0
 13 14  1  0  0  0  0
 13 29  1  0  0  0  0
 14 15  2  0  0  0  0
 14 50  1  0  0  0  0
 15 16  1  0  0  0  0
 15 28  1  0  0  0  0
 16 17  2  0  0  0  0
 16 27  1  0  0  0  0
 17 18  1  0  0  0  0
 17 51  1  0  0  0  0
 18 19  1  0  0  0  0
 18 26  1  0  0  0  0
 19 20  1  0  0  0  0
 19 52  1  0  0  0  0
 19 53  1  0  0  0  0
 20 21  1  0  0  0  0
 20 54  1  0  0  0  0
 20 55  1  0  0  0  0
 21 22  1  0  0  0  0
 21 25  1  0  0  0  0
 22 23  1  0  0  0  0
 22 56  1  0  0  0  0
 22 57  1  0  0  0  0
 23 24  1  0  0  0  0
 23 58  1  0  0  0  0
 23 59  1  0  0  0  0
 24 25  1  0  0  0  0
 24 60  1  0  0  0  0
 24 61  1  0  0  0  0
 25 62  1  0  0  0  0
 25 63  1  0  0  0  0
 26 27  2  0  0  0  0
 26 64  1  0  0  0  0
 28 29  1  0  0  0  0
 30 31  1  0  0  0  0
 30 32  1  0  0  0  0
 32 65  1  0  0  0  0
 33 34  1  0  0  0  0
 33 43  1  0  0  0  0
 34 35  1  0  0  0  0
 34 66  1  0  0  0  0
 34 67  1  0  0  0  0
 35 36  1  0  0  0  0
 35 68  1  0  0  0  0
 35 69  1  0  0  0  0
 36 37  1  0  0  0  0
 36 43  1  0  0  0  0
 37 38  1  0  0  0  0
 37 42  2  0  0  0  0
 38 39  2  0  0  0  0
 38 70  1  0  0  0  0
 39 40  1  0  0  0  0
 39 71  1  0  0  0  0
 40 41  2  0  0  0  0
 40 72  1  0  0  0  0
 41 42  1  0  0  0  0
 41 73  1  0  0  0  0
 42 74  1  0  0  0  0
 43 44  2  0  0  0  0
M  END
$$$$
