CHEMBL3642837
 OpenBabel04072215373D

 58 61  0  0  0  0  0  0  0  0999 V2000
    2.4435    0.2476   -0.0476 C   0  0  0  0  0  0  0  0  0  0  0  0
    0.9440    0.1312    0.0142 C   0  0  0  0  0  0  0  0  0  0  0  0
    0.1848    1.3193   -0.0469 C   0  0  0  0  0  0  0  0  0  0  0  0
   -1.2103    1.2894    0.0069 C   0  0  0  0  0  0  0  0  0  0  0  0
   -1.8614    0.0665    0.0839 C   0  0  0  0  0  0  0  0  0  0  0  0
   -3.3449    0.0003    0.1661 C   0  0  0  0  0  0  0  0  0  0  0  0
   -3.9967    0.8537   -0.4166 O   0  0  0  0  0  0  0  0  0  0  0  0
   -3.8406   -1.0122    0.9847 N   0  0  0  0  0  0  0  0  0  0  0  0
   -5.2009   -1.2653    1.2590 C   0  0  0  0  0  0  0  0  0  0  0  0
   -6.2389   -0.7644    0.4890 C   0  0  0  0  0  0  0  0  0  0  0  0
   -7.5695   -0.9802    0.8602 C   0  0  0  0  0  0  0  0  0  0  0  0
   -7.9067   -1.6709    2.0299 C   0  0  0  0  0  0  0  0  0  0  0  0
   -9.2608   -1.8230    2.4233 N   0  0  0  0  0  0  0  0  0  0  0  0
  -10.3564   -1.1296    1.9230 C   0  0  0  0  0  0  0  0  0  0  0  0
  -10.3035   -0.1872    1.1339 O   0  0  0  0  0  0  0  0  0  0  0  0
  -11.6988   -1.5159    2.5181 C   0  0  0  0  0  0  0  0  0  0  0  0
  -11.7923   -3.2502    2.8813 Cl  0  0  0  0  0  0  0  0  0  0  0  0
   -6.8610   -2.2160    2.8010 C   0  0  0  0  0  0  0  0  0  0  0  0
   -7.0649   -2.9182    4.1188 C   0  0  0  0  0  0  0  0  0  0  0  0
   -8.3532   -2.9115    4.5672 F   0  0  0  0  0  0  0  0  0  0  0  0
   -6.6952   -4.2285    4.0775 F   0  0  0  0  0  0  0  0  0  0  0  0
   -6.3257   -2.3601    5.1200 F   0  0  0  0  0  0  0  0  0  0  0  0
   -5.5184   -2.0386    2.3789 C   0  0  0  0  0  0  0  0  0  0  0  0
   -1.1148   -1.1086    0.0943 C   0  0  0  0  0  0  0  0  0  0  0  0
    0.2856   -1.1110    0.1423 C   0  0  0  0  0  0  0  0  0  0  0  0
    0.9933   -2.3115    0.3503 N   0  0  0  0  0  0  0  0  0  0  0  0
    0.5491   -3.5623    0.7988 C   0  0  0  0  0  0  0  0  0  0  0  0
   -0.7618   -3.8072    0.9611 N   0  0  0  0  0  0  0  0  0  0  0  0
   -1.1445   -5.0237    1.3655 C   0  0  0  0  0  0  0  0  0  0  0  0
   -0.2571   -6.0207    1.6454 C   0  0  0  0  0  0  0  0  0  0  0  0
    1.0771   -5.7066    1.4739 C   0  0  0  0  0  0  0  0  0  0  0  0
    2.1383   -6.6969    1.6925 C   0  0  0  0  0  0  0  0  0  0  0  0
    1.9763   -8.0562    1.3764 C   0  0  0  0  0  0  0  0  0  0  0  0
    3.0158   -8.9571    1.5668 C   0  0  0  0  0  0  0  0  0  0  0  0
    4.2074   -8.4821    2.0810 C   0  0  0  0  0  0  0  0  0  0  0  0
    4.4144   -7.1908    2.4156 N   0  0  0  0  0  0  0  0  0  0  0  0
    3.3821   -6.3350    2.2077 C   0  0  0  0  0  0  0  0  0  0  0  0
    1.4878   -4.4801    1.0626 N   0  0  0  0  0  0  0  0  0  0  0  0
    2.7522    1.2574   -0.3421 H   0  0  0  0  0  0  0  0  0  0  0  0
    2.8519   -0.4367   -0.7987 H   0  0  0  0  0  0  0  0  0  0  0  0
    2.8852    0.0310    0.9292 H   0  0  0  0  0  0  0  0  0  0  0  0
    0.6808    2.2861   -0.1234 H   0  0  0  0  0  0  0  0  0  0  0  0
   -1.7808    2.2162   -0.0143 H   0  0  0  0  0  0  0  0  0  0  0  0
   -3.1679   -1.5140    1.5517 H   0  0  0  0  0  0  0  0  0  0  0  0
   -6.0514   -0.1992   -0.4195 H   0  0  0  0  0  0  0  0  0  0  0  0
   -8.3269   -0.5773    0.1932 H   0  0  0  0  0  0  0  0  0  0  0  0
   -9.4609   -2.4550    3.1972 H   0  0  0  0  0  0  0  0  0  0  0  0
  -12.4867   -1.2843    1.7948 H   0  0  0  0  0  0  0  0  0  0  0  0
  -11.8668   -0.9484    3.4371 H   0  0  0  0  0  0  0  0  0  0  0  0
   -4.7183   -2.4595    2.9884 H   0  0  0  0  0  0  0  0  0  0  0  0
   -1.6596   -2.0428    0.0444 H   0  0  0  0  0  0  0  0  0  0  0  0
    2.0025   -2.2778    0.3646 H   0  0  0  0  0  0  0  0  0  0  0  0
   -2.2166   -5.1721    1.4500 H   0  0  0  0  0  0  0  0  0  0  0  0
   -0.6011   -6.9890    1.9807 H   0  0  0  0  0  0  0  0  0  0  0  0
    1.0417   -8.4199    0.9518 H   0  0  0  0  0  0  0  0  0  0  0  0
    2.9026  -10.0052    1.3091 H   0  0  0  0  0  0  0  0  0  0  0  0
    5.0552   -9.1432    2.2379 H   0  0  0  0  0  0  0  0  0  0  0  0
    3.5941   -5.3040    2.4840 H   0  0  0  0  0  0  0  0  0  0  0  0
  1  2  1  0  0  0  0
  1 39  1  0  0  0  0
  1 40  1  0  0  0  0
  1 41  1  0  0  0  0
  2  3  1  0  0  0  0
  2 25  2  0  0  0  0
  3  4  2  0  0  0  0
  3 42  1  0  0  0  0
  4  5  1  0  0  0  0
  4 43  1  0  0  0  0
  5  6  1  0  0  0  0
  5 24  2  0  0  0  0
  6  7  2  0  0  0  0
  6  8  1  0  0  0  0
  8  9  1  0  0  0  0
  8 44  1  0  0  0  0
  9 10  1  0  0  0  0
  9 23  2  0  0  0  0
 10 11  2  0  0  0  0
 10 45  1  0  0  0  0
 11 12  1  0  0  0  0
 11 46  1  0  0  0  0
 12 13  1  0  0  0  0
 12 18  2  0  0  0  0
 13 14  1  0  0  0  0
 13 47  1  0  0  0  0
 14 15  2  0  0  0  0
 14 16  1  0  0  0  0
 16 17  1  0  0  0  0
 16 48  1  0  0  0  0
 16 49  1  0  0  0  0
 18 19  1  0  0  0  0
 18 23  1  0  0  0  0
 19 20  1  0  0  0  0
 19 21  1  0  0  0  0
 19 22  1  0  0  0  0
 23 50  1  0  0  0  0
 24 25  1  0  0  0  0
 24 51  1  0  0  0  0
 25 26  1  0  0  0  0
 26 27  1  0  0  0  0
 26 52  1  0  0  0  0
 27 28  1  0  0  0  0
 27 38  2  0  0  0  0
 28 29  2  0  0  0  0
 29 30  1  0  0  0  0
 29 53  1  0  0  0  0
 30 31  2  0  0  0  0
 30 54  1  0  0  0  0
 31 32  1  0  0  0  0
 31 38  1  0  0  0  0
 32 33  1  0  0  0  0
 32 37  2  0  0  0  0
 33 34  2  0  0  0  0
 33 55  1  0  0  0  0
 34 35  1  0  0  0  0
 34 56  1  0  0  0  0
 35 36  2  0  0  0  0
 35 57  1  0  0  0  0
 36 37  1  0  0  0  0
 37 58  1  0  0  0  0
M  END
$$$$
