CHEMBL3898120
 OpenBabel04072215373D

 64 68  0  0  0  0  0  0  0  0999 V2000
    4.1794   -3.9262   -5.3067 C   0  0  0  0  0  0  0  0  0  0  0  0
    3.9352   -2.5412   -5.0554 O   0  0  0  0  0  0  0  0  0  0  0  0
    5.0177   -1.7019   -5.1663 C   0  0  0  0  0  0  0  0  0  0  0  0
    6.1436   -1.9734   -5.9290 C   0  0  0  0  0  0  0  0  0  0  0  0
    7.2035   -1.0698   -5.9427 C   0  0  0  0  0  0  0  0  0  0  0  0
    8.3553   -1.2295   -6.6695 O   0  0  0  0  0  0  0  0  0  0  0  0
    8.3506   -2.2643   -7.6491 C   0  0  0  0  0  0  0  0  0  0  0  0
    7.1427    0.1049   -5.1715 C   0  0  0  0  0  0  0  0  0  0  0  0
    5.9981    0.4719   -4.4571 C   0  0  0  0  0  0  0  0  0  0  0  0
    5.9367    1.6846   -3.7162 N   0  0  0  0  0  0  0  0  0  0  0  0
    4.5755    2.1705   -3.2954 C   0  0  0  0  0  0  0  0  0  0  0  0
    4.0577    1.6072   -1.9738 C   0  0  0  0  0  0  0  0  0  0  0  0
    2.6790    2.0458   -1.5107 C   0  0  0  0  0  0  0  0  0  0  0  0
    3.8864    2.4604   -0.7302 C   0  0  0  0  0  0  0  0  0  0  0  0
    6.9064    2.7267   -3.5045 C   0  0  0  0  0  0  0  0  0  0  0  0
    7.0312    3.1591   -2.1885 C   0  0  0  0  0  0  0  0  0  0  0  0
    7.4446    4.4448   -1.9208 C   0  0  0  0  0  0  0  0  0  0  0  0
    7.8963    5.2710   -2.9113 C   0  0  0  0  0  0  0  0  0  0  0  0
    8.0283    6.5564   -2.5406 N   0  0  0  0  0  0  0  0  0  0  0  0
    8.6952    7.3575   -3.3792 C   0  0  0  0  0  0  0  0  0  0  0  0
    9.3477    6.8617   -4.4911 C   0  0  0  0  0  0  0  0  0  0  0  0
   10.5797    7.5862   -4.8298 C   0  0  0  0  0  0  0  0  0  0  0  0
   10.9803    8.3970   -5.9130 C   0  0  0  0  0  0  0  0  0  0  0  0
   12.1507    9.0327   -5.6916 N   0  0  0  0  0  0  0  0  0  0  0  0
   12.5015    8.6350   -4.4549 N   0  0  0  0  0  0  0  0  0  0  0  0
   13.7916    9.0046   -3.8891 C   0  0  0  0  0  0  0  0  0  0  0  0
   14.8293    7.8833   -3.9992 C   0  0  0  0  0  0  0  0  0  0  0  0
   15.0862    7.3947   -5.4256 C   0  0  0  0  0  0  0  0  0  0  0  0
   15.6307    8.4508   -6.2717 N   0  0  0  0  0  0  0  0  0  0  0  0
   11.5500    7.8531   -3.8670 C   0  0  0  0  0  0  0  0  0  0  0  0
    9.0547    5.5985   -4.9747 N   0  0  0  0  0  0  0  0  0  0  0  0
    8.2141    4.7868   -4.1871 C   0  0  0  0  0  0  0  0  0  0  0  0
    7.6061    3.4924   -4.4892 C   0  0  0  0  0  0  0  0  0  0  0  0
    4.9406   -0.4759   -4.4736 C   0  0  0  0  0  0  0  0  0  0  0  0
    3.2513   -4.4796   -5.1236 H   0  0  0  0  0  0  0  0  0  0  0  0
    4.9424   -4.3225   -4.6264 H   0  0  0  0  0  0  0  0  0  0  0  0
    4.4563   -4.1131   -6.3502 H   0  0  0  0  0  0  0  0  0  0  0  0
    6.1922   -2.8811   -6.5153 H   0  0  0  0  0  0  0  0  0  0  0  0
    9.2424   -2.1429   -8.2700 H   0  0  0  0  0  0  0  0  0  0  0  0
    7.4793   -2.1961   -8.3109 H   0  0  0  0  0  0  0  0  0  0  0  0
    8.4032   -3.2471   -7.1691 H   0  0  0  0  0  0  0  0  0  0  0  0
    8.0222    0.7446   -5.1600 H   0  0  0  0  0  0  0  0  0  0  0  0
    3.8464    1.9596   -4.0846 H   0  0  0  0  0  0  0  0  0  0  0  0
    4.5674    3.2672   -3.2177 H   0  0  0  0  0  0  0  0  0  0  0  0
    4.3043    0.5623   -1.8285 H   0  0  0  0  0  0  0  0  0  0  0  0
    2.0164    1.3175   -1.0531 H   0  0  0  0  0  0  0  0  0  0  0  0
    2.1528    2.8227   -2.0568 H   0  0  0  0  0  0  0  0  0  0  0  0
    4.0179    1.9984    0.2443 H   0  0  0  0  0  0  0  0  0  0  0  0
    4.1615    3.5084   -0.7539 H   0  0  0  0  0  0  0  0  0  0  0  0
    6.6628    2.5425   -1.3716 H   0  0  0  0  0  0  0  0  0  0  0  0
    7.3771    4.8236   -0.9002 H   0  0  0  0  0  0  0  0  0  0  0  0
    8.8138    8.3845   -3.0492 H   0  0  0  0  0  0  0  0  0  0  0  0
   10.4637    8.6086   -6.8385 H   0  0  0  0  0  0  0  0  0  0  0  0
   13.6298    9.2522   -2.8320 H   0  0  0  0  0  0  0  0  0  0  0  0
   14.1370    9.9213   -4.3801 H   0  0  0  0  0  0  0  0  0  0  0  0
   14.5002    7.0267   -3.3970 H   0  0  0  0  0  0  0  0  0  0  0  0
   15.7742    8.2241   -3.5553 H   0  0  0  0  0  0  0  0  0  0  0  0
   14.1699    6.9970   -5.8738 H   0  0  0  0  0  0  0  0  0  0  0  0
   15.8039    6.5677   -5.3920 H   0  0  0  0  0  0  0  0  0  0  0  0
   14.9042    9.1558   -6.4264 H   0  0  0  0  0  0  0  0  0  0  0  0
   15.8049    8.0636   -7.2002 H   0  0  0  0  0  0  0  0  0  0  0  0
   11.6374    7.5530   -2.8305 H   0  0  0  0  0  0  0  0  0  0  0  0
    7.6410    3.1464   -5.5229 H   0  0  0  0  0  0  0  0  0  0  0  0
    4.0239   -0.3081   -3.9152 H   0  0  0  0  0  0  0  0  0  0  0  0
  1  2  1  0  0  0  0
  1 35  1  0  0  0  0
  1 36  1  0  0  0  0
  1 37  1  0  0  0  0
  2  3  1  0  0  0  0
  3  4  1  0  0  0  0
  3 34  2  0  0  0  0
  4  5  2  0  0  0  0
  4 38  1  0  0  0  0
  5  6  1  0  0  0  0
  5  8  1  0  0  0  0
  6  7  1  0  0  0  0
  7 39  1  0  0  0  0
  7 40  1  0  0  0  0
  7 41  1  0  0  0  0
  8  9  2  0  0  0  0
  8 42  1  0  0  0  0
  9 10  1  0  0  0  0
  9 34  1  0  0  0  0
 10 11  1  0  0  0  0
 10 15  1  0  0  0  0
 11 12  1  0  0  0  0
 11 43  1  0  0  0  0
 11 44  1  0  0  0  0
 12 13  1  0  0  0  0
 12 14  1  0  0  0  0
 12 45  1  0  0  0  0
 13 14  1  0  0  0  0
 13 46  1  0  0  0  0
 13 47  1  0  0  0  0
 14 48  1  0  0  0  0
 14 49  1  0  0  0  0
 15 16  1  0  0  0  0
 15 33  2  0  0  0  0
 16 17  2  0  0  0  0
 16 50  1  0  0  0  0
 17 18  1  0  0  0  0
 17 51  1  0  0  0  0
 18 19  1  0  0  0  0
 18 32  2  0  0  0  0
 19 20  2  0  0  0  0
 20 21  1  0  0  0  0
 20 52  1  0  0  0  0
 21 22  1  0  0  0  0
 21 31  2  0  0  0  0
 22 23  1  0  0  0  0
 22 30  2  0  0  0  0
 23 24  2  0  0  0  0
 23 53  1  0  0  0  0
 24 25  1  0  0  0  0
 25 26  1  0  0  0  0
 25 30  1  0  0  0  0
 26 27  1  0  0  0  0
 26 54  1  0  0  0  0
 26 55  1  0  0  0  0
 27 28  1  0  0  0  0
 27 56  1  0  0  0  0
 27 57  1  0  0  0  0
 28 29  1  0  0  0  0
 28 58  1  0  0  0  0
 28 59  1  0  0  0  0
 29 60  1  0  0  0  0
 29 61  1  0  0  0  0
 30 62  1  0  0  0  0
 31 32  1  0  0  0  0
 32 33  1  0  0  0  0
 33 63  1  0  0  0  0
 34 64  1  0  0  0  0
M  END
$$$$
