CHEMBL3221547
 OpenBabel04072215363D

 55 56  0  0  0  0  0  0  0  0999 V2000
    4.4398   -1.4242    0.5798 C   0  0  0  0  0  0  0  0  0  0  0  0
    4.2999   -0.9236   -0.8495 C   0  0  0  0  0  0  0  0  0  0  0  0
    5.0773    0.3654   -1.0718 C   0  0  0  0  0  0  0  0  0  0  0  0
    4.6214    1.4458   -0.3106 O   0  0  0  0  0  0  0  0  0  0  0  0
    5.2129    2.6800   -0.3787 C   0  0  0  0  0  0  0  0  0  0  0  0
    6.3097    2.8742   -1.2534 C   0  0  0  0  0  0  0  0  0  0  0  0
    6.9722    4.0823   -1.3481 C   0  0  0  0  0  0  0  0  0  0  0  0
    8.0351    4.1766   -2.1798 N   0  0  0  0  0  0  0  0  0  0  0  0
    8.7347    5.3262   -2.2838 C   0  0  0  0  0  0  0  0  0  0  0  0
    8.3815    6.3945   -1.5309 N   0  0  0  0  0  0  0  0  0  0  0  0
    7.3387    6.3626   -0.6597 C   0  0  0  0  0  0  0  0  0  0  0  0
    7.0761    7.5026    0.1739 N   0  0  0  0  0  0  0  0  0  0  0  0
    8.0812    8.3832    0.6897 C   0  0  0  0  0  0  0  0  0  0  0  0
    9.4518    8.2673    0.3813 C   0  0  0  0  0  0  0  0  0  0  0  0
   10.3929    9.0890    0.9767 C   0  0  0  0  0  0  0  0  0  0  0  0
   10.0193   10.0668    1.9164 C   0  0  0  0  0  0  0  0  0  0  0  0
   10.9868   10.8910    2.5790 N   0  0  0  0  0  0  0  0  0  0  0  0
   12.2465   11.1643    2.1335 C   0  0  0  0  0  0  0  0  0  0  0  0
   12.9700   11.8812    2.8093 O   0  0  0  0  0  0  0  0  0  0  0  0
   12.6791   10.7243    0.9239 O   0  0  0  0  0  0  0  0  0  0  0  0
   13.7370   11.2647    0.2209 C   0  0  0  0  0  0  0  0  0  0  0  0
   13.3852   12.6819   -0.2249 C   0  0  0  0  0  0  0  0  0  0  0  0
    8.6474   10.1901    2.2347 C   0  0  0  0  0  0  0  0  0  0  0  0
    8.0684   11.3742    3.4037 Cl  0  0  0  0  0  0  0  0  0  0  0  0
    7.6990    9.3646    1.6186 C   0  0  0  0  0  0  0  0  0  0  0  0
    6.5715    5.1795   -0.5618 C   0  0  0  0  0  0  0  0  0  0  0  0
    5.4785    5.0140    0.3056 C   0  0  0  0  0  0  0  0  0  0  0  0
    4.7940    3.7940    0.4197 C   0  0  0  0  0  0  0  0  0  0  0  0
    3.7970    3.8014    1.3483 O   0  0  0  0  0  0  0  0  0  0  0  0
    2.8536    2.8646    1.6924 C   0  0  0  0  0  0  0  0  0  0  0  0
   -0.9591   -1.1964    1.5476 Cl  0  0  0  0  0  0  0  0  0  0  0  0
    3.8982   -2.3870    0.6841 H   0  0  0  0  0  0  0  0  0  0  0  0
    4.0130   -0.6830    1.2851 H   0  0  0  0  0  0  0  0  0  0  0  0
    5.5119   -1.5928    0.8231 H   0  0  0  0  0  0  0  0  0  0  0  0
    3.2330   -0.7744   -1.1130 H   0  0  0  0  0  0  0  0  0  0  0  0
    4.7252   -1.6972   -1.5309 H   0  0  0  0  0  0  0  0  0  0  0  0
    4.9955    0.6166   -2.1534 H   0  0  0  0  0  0  0  0  0  0  0  0
    6.1456    0.1596   -0.8282 H   0  0  0  0  0  0  0  0  0  0  0  0
    6.6979    2.0779   -1.8721 H   0  0  0  0  0  0  0  0  0  0  0  0
    9.5890    5.3877   -2.9433 H   0  0  0  0  0  0  0  0  0  0  0  0
    6.1389    7.6068    0.5788 H   0  0  0  0  0  0  0  0  0  0  0  0
    9.8633    7.5374   -0.2851 H   0  0  0  0  0  0  0  0  0  0  0  0
   11.4156    8.8955    0.7061 H   0  0  0  0  0  0  0  0  0  0  0  0
   10.7052   11.3544    3.4552 H   0  0  0  0  0  0  0  0  0  0  0  0
   13.9139   10.6458   -0.6840 H   0  0  0  0  0  0  0  0  0  0  0  0
   14.6629   11.2587    0.8373 H   0  0  0  0  0  0  0  0  0  0  0  0
   12.4641   12.6568   -0.8467 H   0  0  0  0  0  0  0  0  0  0  0  0
   14.2151   13.1137   -0.8189 H   0  0  0  0  0  0  0  0  0  0  0  0
   13.2001   13.3324    0.6557 H   0  0  0  0  0  0  0  0  0  0  0  0
    6.6561    9.4725    1.8885 H   0  0  0  0  0  0  0  0  0  0  0  0
    5.1358    5.8183    0.9378 H   0  0  0  0  0  0  0  0  0  0  0  0
    2.3851    3.2102    2.6424 H   0  0  0  0  0  0  0  0  0  0  0  0
    3.3194    1.8812    1.8881 H   0  0  0  0  0  0  0  0  0  0  0  0
    2.0495    2.8155    0.9301 H   0  0  0  0  0  0  0  0  0  0  0  0
   -0.1199   -1.9751    2.3102 H   0  0  0  0  0  0  0  0  0  0  0  0
  1  2  1  0  0  0  0
  1 32  1  0  0  0  0
  1 33  1  0  0  0  0
  1 34  1  0  0  0  0
  2  3  1  0  0  0  0
  2 35  1  0  0  0  0
  2 36  1  0  0  0  0
  3  4  1  0  0  0  0
  3 37  1  0  0  0  0
  3 38  1  0  0  0  0
  4  5  1  0  0  0  0
  5  6  1  0  0  0  0
  5 28  2  0  0  0  0
  6  7  2  0  0  0  0
  6 39  1  0  0  0  0
  7  8  1  0  0  0  0
  7 26  1  0  0  0  0
  8  9  2  0  0  0  0
  9 10  1  0  0  0  0
  9 40  1  0  0  0  0
 10 11  2  0  0  0  0
 11 12  1  0  0  0  0
 11 26  1  0  0  0  0
 12 13  1  0  0  0  0
 12 41  1  0  0  0  0
 13 14  1  0  0  0  0
 13 25  2  0  0  0  0
 14 15  2  0  0  0  0
 14 42  1  0  0  0  0
 15 16  1  0  0  0  0
 15 43  1  0  0  0  0
 16 17  1  0  0  0  0
 16 23  2  0  0  0  0
 17 18  1  0  0  0  0
 17 44  1  0  0  0  0
 18 19  2  0  0  0  0
 18 20  1  0  0  0  0
 20 21  1  0  0  0  0
 21 22  1  0  0  0  0
 21 45  1  0  0  0  0
 21 46  1  0  0  0  0
 22 47  1  0  0  0  0
 22 48  1  0  0  0  0
 22 49  1  0  0  0  0
 23 24  1  0  0  0  0
 23 25  1  0  0  0  0
 25 50  1  0  0  0  0
 26 27  2  0  0  0  0
 27 28  1  0  0  0  0
 27 51  1  0  0  0  0
 28 29  1  0  0  0  0
 29 30  1  0  0  0  0
 30 52  1  0  0  0  0
 30 53  1  0  0  0  0
 30 54  1  0  0  0  0
 31 55  1  0  0  0  0
M  END
$$$$
