CHEMBL3656060
 OpenBabel04072215373D

 54 57  0  0  0  0  0  0  0  0999 V2000
    3.3133    5.9852    1.5243 C   0  0  0  0  0  0  0  0  0  0  0  0
    1.9161    6.4141    1.1784 C   0  0  0  0  0  0  0  0  0  0  0  0
    1.5899    7.7731    1.1781 C   0  0  0  0  0  0  0  0  0  0  0  0
    0.3099    8.1783    0.8236 C   0  0  0  0  0  0  0  0  0  0  0  0
   -0.6580    7.2347    0.4891 C   0  0  0  0  0  0  0  0  0  0  0  0
   -1.8192    7.7236    0.0391 F   0  0  0  0  0  0  0  0  0  0  0  0
   -0.3884    5.8601    0.5409 C   0  0  0  0  0  0  0  0  0  0  0  0
   -1.3435    4.8343    0.3019 N   0  0  0  0  0  0  0  0  0  0  0  0
   -2.7205    4.9833    0.3078 C   0  0  0  0  0  0  0  0  0  0  0  0
   -3.3333    6.0203    0.5266 O   0  0  0  0  0  0  0  0  0  0  0  0
   -3.3739    3.7728    0.1036 N   0  0  0  0  0  0  0  0  0  0  0  0
   -4.7917    3.7338    0.0423 C   0  0  0  0  0  0  0  0  0  0  0  0
   -5.5274    4.6339   -0.7347 C   0  0  0  0  0  0  0  0  0  0  0  0
   -6.9259    4.6052   -0.7041 C   0  0  0  0  0  0  0  0  0  0  0  0
   -7.5972    3.6913    0.1139 C   0  0  0  0  0  0  0  0  0  0  0  0
   -8.9727    3.7703    0.0972 O   0  0  0  0  0  0  0  0  0  0  0  0
   -9.6917    3.4077    1.2136 C   0  0  0  0  0  0  0  0  0  0  0  0
   -9.2981    3.6841    2.5189 C   0  0  0  0  0  0  0  0  0  0  0  0
  -10.1033    3.2288    3.5474 C   0  0  0  0  0  0  0  0  0  0  0  0
  -11.2683    2.5706    3.3586 N   0  0  0  0  0  0  0  0  0  0  0  0
  -11.6615    2.3731    2.0756 C   0  0  0  0  0  0  0  0  0  0  0  0
  -12.9414    1.6826    1.9391 C   0  0  0  0  0  0  0  0  0  0  0  0
  -13.6926    1.3274    0.8341 C   0  0  0  0  0  0  0  0  0  0  0  0
  -14.8799    0.6636    1.2697 C   0  0  0  0  0  0  0  0  0  0  0  0
  -15.9333    0.1449    0.4018 C   0  0  0  0  0  0  0  0  0  0  0  0
  -15.8909    0.2311   -0.8243 O   0  0  0  0  0  0  0  0  0  0  0  0
  -16.9951   -0.4549    1.0355 N   0  0  0  0  0  0  0  0  0  0  0  0
  -18.0391   -0.9533    0.2277 O   0  0  0  0  0  0  0  0  0  0  0  0
  -14.8052    0.6288    2.6529 C   0  0  0  0  0  0  0  0  0  0  0  0
  -13.6409    1.2423    3.0393 N   0  0  0  0  0  0  0  0  0  0  0  0
  -10.9121    2.7808    0.9817 C   0  0  0  0  0  0  0  0  0  0  0  0
   -6.8660    2.7458    0.8360 C   0  0  0  0  0  0  0  0  0  0  0  0
   -5.4742    2.7799    0.7976 C   0  0  0  0  0  0  0  0  0  0  0  0
   -4.7799    1.9229    1.5629 F   0  0  0  0  0  0  0  0  0  0  0  0
    0.9247    5.4641    0.8574 C   0  0  0  0  0  0  0  0  0  0  0  0
    3.9540    6.8500    1.7327 H   0  0  0  0  0  0  0  0  0  0  0  0
    3.7606    5.4385    0.6885 H   0  0  0  0  0  0  0  0  0  0  0  0
    3.3092    5.3529    2.4169 H   0  0  0  0  0  0  0  0  0  0  0  0
    2.3309    8.5267    1.4339 H   0  0  0  0  0  0  0  0  0  0  0  0
    0.0488    9.2315    0.7888 H   0  0  0  0  0  0  0  0  0  0  0  0
   -0.9929    3.8913    0.2293 H   0  0  0  0  0  0  0  0  0  0  0  0
   -2.9563    2.9875    0.5860 H   0  0  0  0  0  0  0  0  0  0  0  0
   -5.0241    5.3703   -1.3581 H   0  0  0  0  0  0  0  0  0  0  0  0
   -7.4906    5.3129   -1.3077 H   0  0  0  0  0  0  0  0  0  0  0  0
   -8.3855    4.2246    2.7417 H   0  0  0  0  0  0  0  0  0  0  0  0
   -9.8198    3.3835    4.5848 H   0  0  0  0  0  0  0  0  0  0  0  0
  -13.4339    1.5226   -0.2004 H   0  0  0  0  0  0  0  0  0  0  0  0
  -17.0931   -0.5272    2.0427 H   0  0  0  0  0  0  0  0  0  0  0  0
  -17.7269   -0.7310   -0.6762 H   0  0  0  0  0  0  0  0  0  0  0  0
  -15.4692    0.2289    3.4061 H   0  0  0  0  0  0  0  0  0  0  0  0
  -13.3110    1.3751    3.9885 H   0  0  0  0  0  0  0  0  0  0  0  0
  -11.2540    2.6119   -0.0326 H   0  0  0  0  0  0  0  0  0  0  0  0
   -7.3500    1.9965    1.4522 H   0  0  0  0  0  0  0  0  0  0  0  0
    1.1893    4.4088    0.8816 H   0  0  0  0  0  0  0  0  0  0  0  0
  1  2  1  0  0  0  0
  1 36  1  0  0  0  0
  1 37  1  0  0  0  0
  1 38  1  0  0  0  0
  2  3  1  0  0  0  0
  2 35  2  0  0  0  0
  3  4  2  0  0  0  0
  3 39  1  0  0  0  0
  4  5  1  0  0  0  0
  4 40  1  0  0  0  0
  5  6  1  0  0  0  0
  5  7  2  0  0  0  0
  7  8  1  0  0  0  0
  7 35  1  0  0  0  0
  8  9  1  0  0  0  0
  8 41  1  0  0  0  0
  9 10  2  0  0  0  0
  9 11  1  0  0  0  0
 11 12  1  0  0  0  0
 11 42  1  0  0  0  0
 12 13  1  0  0  0  0
 12 33  2  0  0  0  0
 13 14  2  0  0  0  0
 13 43  1  0  0  0  0
 14 15  1  0  0  0  0
 14 44  1  0  0  0  0
 15 16  1  0  0  0  0
 15 32  2  0  0  0  0
 16 17  1  0  0  0  0
 17 18  1  0  0  0  0
 17 31  2  0  0  0  0
 18 19  2  0  0  0  0
 18 45  1  0  0  0  0
 19 20  1  0  0  0  0
 19 46  1  0  0  0  0
 20 21  2  0  0  0  0
 21 22  1  0  0  0  0
 21 31  1  0  0  0  0
 22 23  2  0  0  0  0
 22 30  1  0  0  0  0
 23 24  1  0  0  0  0
 23 47  1  0  0  0  0
 24 25  1  0  0  0  0
 24 29  2  0  0  0  0
 25 26  2  0  0  0  0
 25 27  1  0  0  0  0
 27 28  1  0  0  0  0
 27 48  1  0  0  0  0
 28 49  1  0  0  0  0
 29 30  1  0  0  0  0
 29 50  1  0  0  0  0
 30 51  1  0  0  0  0
 31 52  1  0  0  0  0
 32 33  1  0  0  0  0
 32 53  1  0  0  0  0
 33 34  1  0  0  0  0
 35 54  1  0  0  0  0
M  END
$$$$
