CHEMBL304271
 OpenBabel04072215363D

 67 70  0  0  1  0  0  0  0  0999 V2000
    3.1280    0.6726    3.1124 C   0  0  0  0  0  0  0  0  0  0  0  0
    4.2926   -0.0013    2.3918 C   0  0  0  0  0  0  0  0  0  0  0  0
    3.9514   -0.6197    1.0978 N   0  0  0  0  0  0  0  0  0  0  0  0
    3.2859    0.2976    0.1553 C   0  0  0  0  0  0  0  0  0  0  0  0
    4.1155    1.4682   -0.3680 C   0  0  0  0  0  0  0  0  0  0  0  0
    5.1264   -1.2855    0.4869 C   0  0  0  0  0  0  0  0  0  0  0  0
    5.7535   -2.4347    1.3249 C   0  0  3  0  0  0  0  0  0  0  0  0
    4.7963   -3.4727    1.5995 O   0  0  0  0  0  0  0  0  0  0  0  0
    6.9384   -3.0695    0.5787 C   0  0  0  0  0  0  0  0  0  0  0  0
    7.5616   -4.1106    1.3807 N   0  0  0  0  0  0  0  0  0  0  0  0
    8.5228   -3.7910    2.3160 C   0  0  0  0  0  0  0  0  0  0  0  0
    8.9859   -2.6552    2.3953 O   0  0  0  0  0  0  0  0  0  0  0  0
    8.9376   -4.8669    3.1924 C   0  0  0  0  0  0  0  0  0  0  0  0
    9.8961   -4.7942    4.1847 C   0  0  0  0  0  0  0  0  0  0  0  0
   10.0011   -6.0610    4.8164 C   0  0  0  0  0  0  0  0  0  0  0  0
   10.9292   -6.3652    5.9400 C   0  0  0  0  0  0  0  0  0  0  0  0
    9.0825   -6.9029    4.1964 C   0  0  0  0  0  0  0  0  0  0  0  0
    8.7395   -8.2604    4.4625 C   0  0  0  0  0  0  0  0  0  0  0  0
    7.8337   -9.0631    3.8754 C   0  0  0  0  0  0  0  0  0  0  0  0
    6.9518   -8.8385    2.6729 C   0  0  0  0  0  0  0  0  0  0  0  0
    6.8161   -7.8161    2.0231 O   0  0  0  0  0  0  0  0  0  0  0  0
    6.3293  -10.0484    2.4393 N   0  0  0  0  0  0  0  0  0  0  0  0
    6.6824  -10.9953    3.3870 C   0  0  0  0  0  0  0  0  0  0  0  0
    6.1942  -12.2344    3.4002 N   0  0  0  0  0  0  0  0  0  0  0  0
    6.6387  -12.9638    4.4310 C   0  0  0  0  0  0  0  0  0  0  0  0
    7.4735  -12.5412    5.4023 N   0  0  0  0  0  0  0  0  0  0  0  0
    7.9164  -11.2655    5.3497 C   0  0  0  0  0  0  0  0  0  0  0  0
    8.6785  -10.7485    6.4171 N   0  0  0  0  0  0  0  0  0  0  0  0
    9.4833  -11.4736    7.3164 C   0  0  0  0  0  0  0  0  0  0  0  0
   10.1730  -12.6284    6.9200 C   0  0  0  0  0  0  0  0  0  0  0  0
   11.0276  -13.2925    7.8014 C   0  0  0  0  0  0  0  0  0  0  0  0
   11.2068  -12.7953    9.0861 C   0  0  0  0  0  0  0  0  0  0  0  0
   12.0300  -13.4467    9.9198 F   0  0  0  0  0  0  0  0  0  0  0  0
   10.5534  -11.6352    9.4902 C   0  0  0  0  0  0  0  0  0  0  0  0
   10.7822  -11.0029   11.0756 Cl  0  0  0  0  0  0  0  0  0  0  0  0
    9.7062  -10.9664    8.6043 C   0  0  0  0  0  0  0  0  0  0  0  0
    7.5609  -10.4493    4.3023 C   0  0  0  0  0  0  0  0  0  0  0  0
    8.4739   -6.1639    3.2078 N   0  0  0  0  0  0  0  0  0  0  0  0
    3.4129    0.8900    4.1479 H   0  0  0  0  0  0  0  0  0  0  0  0
    2.2469    0.0234    3.1407 H   0  0  0  0  0  0  0  0  0  0  0  0
    2.8539    1.6219    2.6427 H   0  0  0  0  0  0  0  0  0  0  0  0
    4.6429   -0.7802    3.0761 H   0  0  0  0  0  0  0  0  0  0  0  0
    5.1130    0.7179    2.2820 H   0  0  0  0  0  0  0  0  0  0  0  0
    2.3697    0.6910    0.6108 H   0  0  0  0  0  0  0  0  0  0  0  0
    2.9281   -0.2817   -0.7059 H   0  0  0  0  0  0  0  0  0  0  0  0
    4.6301    2.0059    0.4330 H   0  0  0  0  0  0  0  0  0  0  0  0
    3.4625    2.1869   -0.8757 H   0  0  0  0  0  0  0  0  0  0  0  0
    4.8605    1.1316   -1.0959 H   0  0  0  0  0  0  0  0  0  0  0  0
    5.9062   -0.5480    0.2611 H   0  0  0  0  0  0  0  0  0  0  0  0
    4.8001   -1.7203   -0.4675 H   0  0  0  0  0  0  0  0  0  0  0  0
    6.1110   -2.0604    2.2893 H   0  0  0  0  0  0  0  0  0  0  0  0
    4.2573   -3.5921    0.7997 H   0  0  0  0  0  0  0  0  0  0  0  0
    7.6845   -2.3100    0.3207 H   0  0  0  0  0  0  0  0  0  0  0  0
    6.5976   -3.5561   -0.3407 H   0  0  0  0  0  0  0  0  0  0  0  0
    7.0177   -4.9520    1.5086 H   0  0  0  0  0  0  0  0  0  0  0  0
   10.4611   -3.9011    4.4261 H   0  0  0  0  0  0  0  0  0  0  0  0
   11.5212   -5.4821    6.2056 H   0  0  0  0  0  0  0  0  0  0  0  0
   11.6267   -7.1621    5.6628 H   0  0  0  0  0  0  0  0  0  0  0  0
   10.3736   -6.6739    6.8308 H   0  0  0  0  0  0  0  0  0  0  0  0
    9.3275   -8.6803    5.2753 H   0  0  0  0  0  0  0  0  0  0  0  0
    5.6752  -10.2300    1.6937 H   0  0  0  0  0  0  0  0  0  0  0  0
    6.2865  -13.9883    4.5060 H   0  0  0  0  0  0  0  0  0  0  0  0
    8.1527  -10.0061    6.8713 H   0  0  0  0  0  0  0  0  0  0  0  0
   10.0583  -13.0174    5.9101 H   0  0  0  0  0  0  0  0  0  0  0  0
   11.5550  -14.1876    7.4889 H   0  0  0  0  0  0  0  0  0  0  0  0
    9.2151  -10.0520    8.9267 H   0  0  0  0  0  0  0  0  0  0  0  0
    7.7683   -6.5224    2.5756 H   0  0  0  0  0  0  0  0  0  0  0  0
  1  2  1  0  0  0  0
  1 39  1  0  0  0  0
  1 40  1  0  0  0  0
  1 41  1  0  0  0  0
  2  3  1  0  0  0  0
  2 42  1  0  0  0  0
  2 43  1  0  0  0  0
  3  4  1  0  0  0  0
  3  6  1  0  0  0  0
  4  5  1  0  0  0  0
  4 44  1  0  0  0  0
  4 45  1  0  0  0  0
  5 46  1  0  0  0  0
  5 47  1  0  0  0  0
  5 48  1  0  0  0  0
  6  7  1  0  0  0  0
  6 49  1  0  0  0  0
  6 50  1  0  0  0  0
  7  8  1  0  0  0  0
  7  9  1  0  0  0  0
  7 51  1  0  0  0  0
  8 52  1  0  0  0  0
  9 10  1  0  0  0  0
  9 53  1  0  0  0  0
  9 54  1  0  0  0  0
 10 11  1  0  0  0  0
 10 55  1  0  0  0  0
 11 12  2  0  0  0  0
 11 13  1  0  0  0  0
 13 14  2  0  0  0  0
 13 38  1  0  0  0  0
 14 15  1  0  0  0  0
 14 56  1  0  0  0  0
 15 16  1  0  0  0  0
 15 17  2  0  0  0  0
 16 57  1  0  0  0  0
 16 58  1  0  0  0  0
 16 59  1  0  0  0  0
 17 18  1  0  0  0  0
 17 38  1  0  0  0  0
 18 19  2  0  0  0  0
 18 60  1  0  0  0  0
 19 20  1  0  0  0  0
 19 37  1  0  0  0  0
 20 21  2  0  0  0  0
 20 22  1  0  0  0  0
 22 23  1  0  0  0  0
 22 61  1  0  0  0  0
 23 24  1  0  0  0  0
 23 37  2  0  0  0  0
 24 25  2  0  0  0  0
 25 26  1  0  0  0  0
 25 62  1  0  0  0  0
 26 27  2  0  0  0  0
 27 28  1  0  0  0  0
 27 37  1  0  0  0  0
 28 29  1  0  0  0  0
 28 63  1  0  0  0  0
 29 30  1  0  0  0  0
 29 36  2  0  0  0  0
 30 31  2  0  0  0  0
 30 64  1  0  0  0  0
 31 32  1  0  0  0  0
 31 65  1  0  0  0  0
 32 33  1  0  0  0  0
 32 34  2  0  0  0  0
 34 35  1  0  0  0  0
 34 36  1  0  0  0  0
 36 66  1  0  0  0  0
 38 67  1  0  0  0  0
M  END
$$$$
