CHEMBL502351
 OpenBabel04072215383D

 43 47  0  0  0  0  0  0  0  0999 V2000
    2.8441   -1.0246    0.3468 C   0  0  0  0  0  0  0  0  0  0  0  0
    2.8166    0.3933    0.2273 O   0  0  0  0  0  0  0  0  0  0  0  0
    3.3857    0.9320   -0.8925 C   0  0  0  0  0  0  0  0  0  0  0  0
    4.0113    0.2275   -1.9156 C   0  0  0  0  0  0  0  0  0  0  0  0
    4.5724    0.9118   -3.0049 C   0  0  0  0  0  0  0  0  0  0  0  0
    4.5134    2.3136   -3.1054 C   0  0  0  0  0  0  0  0  0  0  0  0
    5.1523    3.0257   -4.2345 C   0  0  0  0  0  0  0  0  0  0  0  0
    5.7432    4.4050   -4.1194 C   0  0  0  0  0  0  0  0  0  0  0  0
    6.3805    5.0698   -5.0395 N   0  0  0  0  0  0  0  0  0  0  0  0
    6.5542    4.4333   -6.2410 C   0  0  0  0  0  0  0  0  0  0  0  0
    7.2645    4.7440   -7.3927 C   0  0  0  0  0  0  0  0  0  0  0  0
    8.0498    5.9494   -7.6884 C   0  0  0  0  0  0  0  0  0  0  0  0
    7.8910    6.4874   -8.9821 C   0  0  0  0  0  0  0  0  0  0  0  0
    8.6200    7.5942   -9.3979 C   0  0  0  0  0  0  0  0  0  0  0  0
    9.5000    8.2029   -8.5130 C   0  0  0  0  0  0  0  0  0  0  0  0
    9.6942    7.7208   -7.2313 C   0  0  0  0  0  0  0  0  0  0  0  0
   10.5773    8.3933   -6.4747 N   0  0  0  0  0  0  0  0  0  0  0  0
   10.8329    7.9369   -5.2360 C   0  0  0  0  0  0  0  0  0  0  0  0
   10.2568    6.8013   -4.7137 C   0  0  0  0  0  0  0  0  0  0  0  0
    9.3399    6.1100   -5.5047 C   0  0  0  0  0  0  0  0  0  0  0  0
    8.9935    6.5624   -6.7995 C   0  0  0  0  0  0  0  0  0  0  0  0
    6.9704    3.6700   -8.2693 C   0  0  0  0  0  0  0  0  0  0  0  0
    6.1893    2.7374   -7.7308 N   0  0  0  0  0  0  0  0  0  0  0  0
    5.9661    3.1812   -6.4731 N   0  0  0  0  0  0  0  0  0  0  0  0
    5.2791    2.5054   -5.4699 C   0  0  0  0  0  0  0  0  0  0  0  0
    3.8708    3.0069   -2.0723 C   0  0  0  0  0  0  0  0  0  0  0  0
    3.3182    2.3220   -0.9790 C   0  0  0  0  0  0  0  0  0  0  0  0
    2.3615   -1.2919    1.2921 H   0  0  0  0  0  0  0  0  0  0  0  0
    3.8721   -1.4004    0.3820 H   0  0  0  0  0  0  0  0  0  0  0  0
    2.2777   -1.4980   -0.4620 H   0  0  0  0  0  0  0  0  0  0  0  0
    4.0909   -0.8545   -1.8982 H   0  0  0  0  0  0  0  0  0  0  0  0
    5.0723    0.3172   -3.7670 H   0  0  0  0  0  0  0  0  0  0  0  0
    5.6231    4.8945   -3.1399 H   0  0  0  0  0  0  0  0  0  0  0  0
    7.1940    6.0444   -9.6906 H   0  0  0  0  0  0  0  0  0  0  0  0
    8.5057    7.9851  -10.4055 H   0  0  0  0  0  0  0  0  0  0  0  0
   10.0649    9.0749   -8.8360 H   0  0  0  0  0  0  0  0  0  0  0  0
   11.5423    8.5263   -4.6624 H   0  0  0  0  0  0  0  0  0  0  0  0
   10.5065    6.4599   -3.7171 H   0  0  0  0  0  0  0  0  0  0  0  0
    8.9008    5.2059   -5.0957 H   0  0  0  0  0  0  0  0  0  0  0  0
    7.2986    3.5360   -9.2926 H   0  0  0  0  0  0  0  0  0  0  0  0
    4.8952    1.5394   -5.7642 H   0  0  0  0  0  0  0  0  0  0  0  0
    3.7750    4.0896   -2.0901 H   0  0  0  0  0  0  0  0  0  0  0  0
    2.8315    2.8848   -0.1835 H   0  0  0  0  0  0  0  0  0  0  0  0
  1  2  1  0  0  0  0
  1 28  1  0  0  0  0
  1 29  1  0  0  0  0
  1 30  1  0  0  0  0
  2  3  1  0  0  0  0
  3  4  1  0  0  0  0
  3 27  2  0  0  0  0
  4  5  2  0  0  0  0
  4 31  1  0  0  0  0
  5  6  1  0  0  0  0
  5 32  1  0  0  0  0
  6  7  1  0  0  0  0
  6 26  2  0  0  0  0
  7  8  1  0  0  0  0
  7 25  2  0  0  0  0
  8  9  2  0  0  0  0
  8 33  1  0  0  0  0
  9 10  1  0  0  0  0
 10 11  2  0  0  0  0
 10 24  1  0  0  0  0
 11 12  1  0  0  0  0
 11 22  1  0  0  0  0
 12 13  1  0  0  0  0
 12 21  2  0  0  0  0
 13 14  2  0  0  0  0
 13 34  1  0  0  0  0
 14 15  1  0  0  0  0
 14 35  1  0  0  0  0
 15 16  2  0  0  0  0
 15 36  1  0  0  0  0
 16 17  1  0  0  0  0
 16 21  1  0  0  0  0
 17 18  2  0  0  0  0
 18 19  1  0  0  0  0
 18 37  1  0  0  0  0
 19 20  2  0  0  0  0
 19 38  1  0  0  0  0
 20 21  1  0  0  0  0
 20 39  1  0  0  0  0
 22 23  2  0  0  0  0
 22 40  1  0  0  0  0
 23 24  1  0  0  0  0
 24 25  1  0  0  0  0
 25 41  1  0  0  0  0
 26 27  1  0  0  0  0
 26 42  1  0  0  0  0
 27 43  1  0  0  0  0
M  END
$$$$
