CHEMBL1254671
 OpenBabel04072215363D

 63 67  0  0  0  0  0  0  0  0999 V2000
    3.7673   -0.8863   -0.8242 C   0  0  0  0  0  0  0  0  0  0  0  0
    3.3458   -0.5678    0.5222 N   0  0  0  0  0  0  0  0  0  0  0  0
    3.8341    0.4860    1.2602 C   0  0  0  0  0  0  0  0  0  0  0  0
    3.1912    0.4824    2.4782 C   0  0  0  0  0  0  0  0  0  0  0  0
    2.2874   -0.6040    2.4742 C   0  0  0  0  0  0  0  0  0  0  0  0
    1.4458   -1.0035    3.4492 N   0  0  0  0  0  0  0  0  0  0  0  0
    0.7100   -2.0686    3.1132 C   0  0  0  0  0  0  0  0  0  0  0  0
    0.7371   -2.7576    1.9606 N   0  0  0  0  0  0  0  0  0  0  0  0
    1.6227   -2.3762    1.0113 C   0  0  0  0  0  0  0  0  0  0  0  0
    1.7091   -3.0964   -0.1795 O   0  0  0  0  0  0  0  0  0  0  0  0
    1.5170   -4.4620   -0.1147 C   0  0  0  0  0  0  0  0  0  0  0  0
    1.9416   -5.2449    0.9618 C   0  0  0  0  0  0  0  0  0  0  0  0
    1.7384   -6.6287    0.9656 C   0  0  0  0  0  0  0  0  0  0  0  0
    1.1345   -7.2681   -0.1188 C   0  0  0  0  0  0  0  0  0  0  0  0
    0.9369   -8.6755   -0.1547 N   0  0  0  0  0  0  0  0  0  0  0  0
    1.1640   -9.5857    0.8716 C   0  0  0  0  0  0  0  0  0  0  0  0
    1.4387   -9.3061    2.0309 O   0  0  0  0  0  0  0  0  0  0  0  0
    1.1124  -10.8876    0.3916 N   0  0  0  0  0  0  0  0  0  0  0  0
    1.3439  -12.0294    1.1947 C   0  0  0  0  0  0  0  0  0  0  0  0
    2.1458  -13.0318    0.6693 C   0  0  0  0  0  0  0  0  0  0  0  0
    2.3753  -14.2015    1.3928 C   0  0  0  0  0  0  0  0  0  0  0  0
    1.7676  -14.4423    2.6443 C   0  0  0  0  0  0  0  0  0  0  0  0
    2.0676  -15.7828    3.3001 C   0  0  0  0  0  0  0  0  0  0  0  0
    1.2577  -16.9482    2.9434 N   0  0  0  0  0  0  0  0  0  0  0  0
    1.1273  -17.3016    1.5267 C   0  0  0  0  0  0  0  0  0  0  0  0
   -0.1132  -16.7071    0.8341 C   0  0  0  0  0  0  0  0  0  0  0  0
   -1.3158  -16.9785    1.5635 O   0  0  0  0  0  0  0  0  0  0  0  0
   -1.2185  -16.5041    2.9126 C   0  0  0  0  0  0  0  0  0  0  0  0
   -0.0191  -17.1288    3.6376 C   0  0  0  0  0  0  0  0  0  0  0  0
    0.9799  -13.4096    3.2050 C   0  0  0  0  0  0  0  0  0  0  0  0
    0.3169  -13.4686    4.5692 C   0  0  0  0  0  0  0  0  0  0  0  0
    0.4875  -14.6200    5.2618 F   0  0  0  0  0  0  0  0  0  0  0  0
    0.7560  -12.4849    5.4050 F   0  0  0  0  0  0  0  0  0  0  0  0
   -1.0366  -13.3074    4.4878 F   0  0  0  0  0  0  0  0  0  0  0  0
    0.7886  -12.2050    2.4662 C   0  0  0  0  0  0  0  0  0  0  0  0
    0.7540   -6.4758   -1.2224 C   0  0  0  0  0  0  0  0  0  0  0  0
    0.0500   -7.1977   -2.6303 Cl  0  0  0  0  0  0  0  0  0  0  0  0
    0.9438   -5.0817   -1.2231 C   0  0  0  0  0  0  0  0  0  0  0  0
    2.4008   -1.2511    1.2481 C   0  0  0  0  0  0  0  0  0  0  0  0
    4.5215   -0.1654   -1.1501 H   0  0  0  0  0  0  0  0  0  0  0  0
    2.8961   -0.8281   -1.4813 H   0  0  0  0  0  0  0  0  0  0  0  0
    4.1946   -1.8917   -0.8256 H   0  0  0  0  0  0  0  0  0  0  0  0
    4.5902    1.1503    0.8628 H   0  0  0  0  0  0  0  0  0  0  0  0
    3.3495    1.1818    3.2874 H   0  0  0  0  0  0  0  0  0  0  0  0
    0.0136   -2.4256    3.8658 H   0  0  0  0  0  0  0  0  0  0  0  0
    2.4230   -4.7966    1.8258 H   0  0  0  0  0  0  0  0  0  0  0  0
    2.0697   -7.1734    1.8424 H   0  0  0  0  0  0  0  0  0  0  0  0
    0.4702   -9.0259   -0.9810 H   0  0  0  0  0  0  0  0  0  0  0  0
    1.3870  -10.9719   -0.5765 H   0  0  0  0  0  0  0  0  0  0  0  0
    2.6470  -12.8988   -0.2856 H   0  0  0  0  0  0  0  0  0  0  0  0
    3.0554  -14.9397    0.9683 H   0  0  0  0  0  0  0  0  0  0  0  0
    2.1333  -15.6792    4.3873 H   0  0  0  0  0  0  0  0  0  0  0  0
    3.1058  -16.0377    3.0391 H   0  0  0  0  0  0  0  0  0  0  0  0
    1.0259  -18.3949    1.4879 H   0  0  0  0  0  0  0  0  0  0  0  0
    2.0380  -17.0774    0.9618 H   0  0  0  0  0  0  0  0  0  0  0  0
   -0.2280  -17.1709   -0.1526 H   0  0  0  0  0  0  0  0  0  0  0  0
   -0.0236  -15.6292    0.6770 H   0  0  0  0  0  0  0  0  0  0  0  0
   -2.1421  -16.7955    3.4240 H   0  0  0  0  0  0  0  0  0  0  0  0
   -1.1747  -15.4117    2.9104 H   0  0  0  0  0  0  0  0  0  0  0  0
   -0.1962  -18.2123    3.6848 H   0  0  0  0  0  0  0  0  0  0  0  0
    0.0313  -16.8014    4.6798 H   0  0  0  0  0  0  0  0  0  0  0  0
    0.1703  -11.4145    2.8961 H   0  0  0  0  0  0  0  0  0  0  0  0
    0.6431   -4.4838   -2.0812 H   0  0  0  0  0  0  0  0  0  0  0  0
  1  2  1  0  0  0  0
  1 40  1  0  0  0  0
  1 41  1  0  0  0  0
  1 42  1  0  0  0  0
  2  3  1  0  0  0  0
  2 39  1  0  0  0  0
  3  4  2  0  0  0  0
  3 43  1  0  0  0  0
  4  5  1  0  0  0  0
  4 44  1  0  0  0  0
  5  6  1  0  0  0  0
  5 39  2  0  0  0  0
  6  7  2  0  0  0  0
  7  8  1  0  0  0  0
  7 45  1  0  0  0  0
  8  9  2  0  0  0  0
  9 10  1  0  0  0  0
  9 39  1  0  0  0  0
 10 11  1  0  0  0  0
 11 12  1  0  0  0  0
 11 38  2  0  0  0  0
 12 13  2  0  0  0  0
 12 46  1  0  0  0  0
 13 14  1  0  0  0  0
 13 47  1  0  0  0  0
 14 15  1  0  0  0  0
 14 36  2  0  0  0  0
 15 16  1  0  0  0  0
 15 48  1  0  0  0  0
 16 17  2  0  0  0  0
 16 18  1  0  0  0  0
 18 19  1  0  0  0  0
 18 49  1  0  0  0  0
 19 20  1  0  0  0  0
 19 35  2  0  0  0  0
 20 21  2  0  0  0  0
 20 50  1  0  0  0  0
 21 22  1  0  0  0  0
 21 51  1  0  0  0  0
 22 23  1  0  0  0  0
 22 30  2  0  0  0  0
 23 24  1  0  0  0  0
 23 52  1  0  0  0  0
 23 53  1  0  0  0  0
 24 25  1  0  0  0  0
 24 29  1  0  0  0  0
 25 26  1  0  0  0  0
 25 54  1  0  0  0  0
 25 55  1  0  0  0  0
 26 27  1  0  0  0  0
 26 56  1  0  0  0  0
 26 57  1  0  0  0  0
 27 28  1  0  0  0  0
 28 29  1  0  0  0  0
 28 58  1  0  0  0  0
 28 59  1  0  0  0  0
 29 60  1  0  0  0  0
 29 61  1  0  0  0  0
 30 31  1  0  0  0  0
 30 35  1  0  0  0  0
 31 32  1  0  0  0  0
 31 33  1  0  0  0  0
 31 34  1  0  0  0  0
 35 62  1  0  0  0  0
 36 37  1  0  0  0  0
 36 38  1  0  0  0  0
 38 63  1  0  0  0  0
M  END
$$$$
