CHEMBL3907975
 OpenBabel04072215373D

 52 55  0  0  0  0  0  0  0  0999 V2000
    1.0889    0.8614    0.5386 O   0  0  0  0  0  0  0  0  0  0  0  0
    2.1997    0.4644    0.2085 C   0  0  0  0  0  0  0  0  0  0  0  0
    2.7814    0.7065   -1.0245 N   0  0  0  0  0  0  0  0  0  0  0  0
    2.1536    1.4011   -2.0815 C   0  0  0  0  0  0  0  0  0  0  0  0
    1.0364    2.2252   -1.9110 C   0  0  0  0  0  0  0  0  0  0  0  0
    0.3559    2.7492   -3.0141 C   0  0  0  0  0  0  0  0  0  0  0  0
    0.7950    2.4659   -4.3061 C   0  0  0  0  0  0  0  0  0  0  0  0
    0.0186    2.9715   -5.3256 O   0  0  0  0  0  0  0  0  0  0  0  0
   -0.1051    2.2849   -6.5140 C   0  0  0  0  0  0  0  0  0  0  0  0
    0.0424    0.9068   -6.6356 C   0  0  0  0  0  0  0  0  0  0  0  0
   -0.0393    0.3675   -7.9006 C   0  0  0  0  0  0  0  0  0  0  0  0
   -0.3231    1.0886   -8.9915 N   0  0  0  0  0  0  0  0  0  0  0  0
   -0.5402    2.4145   -8.8667 C   0  0  0  0  0  0  0  0  0  0  0  0
   -0.8680    3.1581  -10.0230 N   0  0  0  0  0  0  0  0  0  0  0  0
   -0.9686    2.5932  -11.2767 C   0  0  0  0  0  0  0  0  0  0  0  0
   -0.8127    1.4174  -11.5777 O   0  0  0  0  0  0  0  0  0  0  0  0
   -1.3137    3.5392  -12.3920 C   0  0  0  0  0  0  0  0  0  0  0  0
   -2.1869    3.0389  -13.5276 C   0  0  0  0  0  0  0  0  0  0  0  0
   -0.7302    3.2995  -13.7734 C   0  0  0  0  0  0  0  0  0  0  0  0
   -0.4391    3.0469   -7.6353 C   0  0  0  0  0  0  0  0  0  0  0  0
    1.9881    1.7531   -4.4611 C   0  0  0  0  0  0  0  0  0  0  0  0
    2.5089    1.5208   -5.6740 F   0  0  0  0  0  0  0  0  0  0  0  0
    2.6553    1.2084   -3.3661 C   0  0  0  0  0  0  0  0  0  0  0  0
    3.0212   -0.3046    1.0166 N   0  0  0  0  0  0  0  0  0  0  0  0
    2.6490   -0.8138    2.2813 C   0  0  0  0  0  0  0  0  0  0  0  0
    1.3186   -0.9537    2.6748 C   0  0  0  0  0  0  0  0  0  0  0  0
    0.9963   -1.4225    3.9472 C   0  0  0  0  0  0  0  0  0  0  0  0
    1.9902   -1.7735    4.8674 C   0  0  0  0  0  0  0  0  0  0  0  0
    1.5672   -2.2718    6.2236 C   0  0  0  0  0  0  0  0  0  0  0  0
    0.2069   -2.2768    6.3728 F   0  0  0  0  0  0  0  0  0  0  0  0
    1.9529   -3.5540    6.4651 F   0  0  0  0  0  0  0  0  0  0  0  0
    2.0324   -1.5220    7.2584 F   0  0  0  0  0  0  0  0  0  0  0  0
    3.3276   -1.6601    4.4621 C   0  0  0  0  0  0  0  0  0  0  0  0
    4.6387   -2.0595    5.5105 Cl  0  0  0  0  0  0  0  0  0  0  0  0
    3.6535   -1.2014    3.1722 C   0  0  0  0  0  0  0  0  0  0  0  0
    3.5393    0.0921   -1.2824 H   0  0  0  0  0  0  0  0  0  0  0  0
    0.6471    2.4613   -0.9230 H   0  0  0  0  0  0  0  0  0  0  0  0
   -0.5321    3.3563   -2.8522 H   0  0  0  0  0  0  0  0  0  0  0  0
    0.2621    0.2583   -5.8012 H   0  0  0  0  0  0  0  0  0  0  0  0
    0.1383   -0.6869   -8.0792 H   0  0  0  0  0  0  0  0  0  0  0  0
   -1.0237    4.1498   -9.9129 H   0  0  0  0  0  0  0  0  0  0  0  0
   -1.4461    4.5799  -12.1075 H   0  0  0  0  0  0  0  0  0  0  0  0
   -2.9048    3.7152  -13.9726 H   0  0  0  0  0  0  0  0  0  0  0  0
   -2.5108    2.0024  -13.5079 H   0  0  0  0  0  0  0  0  0  0  0  0
   -0.4737    4.1458  -14.3970 H   0  0  0  0  0  0  0  0  0  0  0  0
   -0.0837    2.4386  -13.9150 H   0  0  0  0  0  0  0  0  0  0  0  0
   -0.6070    4.1158   -7.5245 H   0  0  0  0  0  0  0  0  0  0  0  0
    3.5371    0.6044   -3.5538 H   0  0  0  0  0  0  0  0  0  0  0  0
    4.0014   -0.3267    0.7779 H   0  0  0  0  0  0  0  0  0  0  0  0
    0.4942   -0.7183    2.0065 H   0  0  0  0  0  0  0  0  0  0  0  0
   -0.0568   -1.5124    4.2133 H   0  0  0  0  0  0  0  0  0  0  0  0
    4.6967   -1.1196    2.8830 H   0  0  0  0  0  0  0  0  0  0  0  0
  1  2  2  0  0  0  0
  2  3  1  0  0  0  0
  2 24  1  0  0  0  0
  3  4  1  0  0  0  0
  3 36  1  0  0  0  0
  4  5  1  0  0  0  0
  4 23  2  0  0  0  0
  5  6  2  0  0  0  0
  5 37  1  0  0  0  0
  6  7  1  0  0  0  0
  6 38  1  0  0  0  0
  7  8  1  0  0  0  0
  7 21  2  0  0  0  0
  8  9  1  0  0  0  0
  9 10  1  0  0  0  0
  9 20  2  0  0  0  0
 10 11  2  0  0  0  0
 10 39  1  0  0  0  0
 11 12  1  0  0  0  0
 11 40  1  0  0  0  0
 12 13  2  0  0  0  0
 13 14  1  0  0  0  0
 13 20  1  0  0  0  0
 14 15  1  0  0  0  0
 14 41  1  0  0  0  0
 15 16  2  0  0  0  0
 15 17  1  0  0  0  0
 17 18  1  0  0  0  0
 17 19  1  0  0  0  0
 17 42  1  0  0  0  0
 18 19  1  0  0  0  0
 18 43  1  0  0  0  0
 18 44  1  0  0  0  0
 19 45  1  0  0  0  0
 19 46  1  0  0  0  0
 20 47  1  0  0  0  0
 21 22  1  0  0  0  0
 21 23  1  0  0  0  0
 23 48  1  0  0  0  0
 24 25  1  0  0  0  0
 24 49  1  0  0  0  0
 25 26  1  0  0  0  0
 25 35  2  0  0  0  0
 26 27  2  0  0  0  0
 26 50  1  0  0  0  0
 27 28  1  0  0  0  0
 27 51  1  0  0  0  0
 28 29  1  0  0  0  0
 28 33  2  0  0  0  0
 29 30  1  0  0  0  0
 29 31  1  0  0  0  0
 29 32  1  0  0  0  0
 33 34  1  0  0  0  0
 33 35  1  0  0  0  0
 35 52  1  0  0  0  0
M  END
$$$$
