CHEMBL224027
 OpenBabel04072215363D

 56 61  0  0  0  0  0  0  0  0999 V2000
   -1.2065    1.8299    3.9534 C   0  0  0  0  0  0  0  0  0  0  0  0
   -1.7656    0.9608    3.1584 C   0  0  0  0  0  0  0  0  0  0  0  0
   -2.2799    0.1237    2.0980 C   0  0  0  0  0  0  0  0  0  0  0  0
   -3.6150   -0.0747    1.8341 C   0  0  0  0  0  0  0  0  0  0  0  0
   -3.8994   -1.0190    0.7619 C   0  0  0  0  0  0  0  0  0  0  0  0
   -5.3485   -1.3612    0.4783 C   0  0  0  0  0  0  0  0  0  0  0  0
   -6.2264   -0.9511    1.4121 N   0  0  0  0  0  0  0  0  0  0  0  0
   -6.7840    0.1191    0.7855 N   0  0  0  0  0  0  0  0  0  0  0  0
   -6.5125    0.1038   -0.5642 C   0  0  0  0  0  0  0  0  0  0  0  0
   -6.0799   -1.2201   -0.7664 C   0  0  0  0  0  0  0  0  0  0  0  0
   -5.8446   -1.4215   -2.2304 C   0  0  0  0  0  0  0  0  0  0  0  0
   -5.2293   -0.0477   -2.4607 C   0  0  0  0  0  0  0  0  0  0  0  0
   -4.0365    0.0418   -3.1817 C   0  0  0  0  0  0  0  0  0  0  0  0
   -3.0816    0.9287   -2.6862 C   0  0  0  0  0  0  0  0  0  0  0  0
   -1.6339    0.4382   -2.7363 C   0  0  0  0  0  0  0  0  0  0  0  0
   -0.7385    0.7277   -3.8345 N   0  0  0  0  0  0  0  0  0  0  0  0
   -1.0985    0.3164   -5.1824 C   0  0  0  0  0  0  0  0  0  0  0  0
   -1.6313    1.5040   -5.9787 C   0  0  0  0  0  0  0  0  0  0  0  0
   -0.9905    2.9886   -5.1654 S   0  0  0  0  0  0  0  0  0  0  0  0
   -0.1878    2.0628   -3.8491 C   0  0  0  0  0  0  0  0  0  0  0  0
   -3.4850    1.9302   -1.7574 C   0  0  0  0  0  0  0  0  0  0  0  0
   -4.7786    1.9330   -1.1617 C   0  0  0  0  0  0  0  0  0  0  0  0
   -5.6347    0.8837   -1.4672 C   0  0  0  0  0  0  0  0  0  0  0  0
   -2.7270   -1.3791    0.1400 C   0  0  0  0  0  0  0  0  0  0  0  0
   -1.3350   -0.7019    0.9318 S   0  0  0  0  0  0  0  0  0  0  0  0
   -0.5547    2.8431    4.8802 C   0  0  0  0  0  0  0  0  0  0  0  0
    0.7981    2.4832    5.1283 O   0  0  0  0  0  0  0  0  0  0  0  0
    1.4885    3.3286    5.9588 C   0  0  0  0  0  0  0  0  0  0  0  0
    0.9741    4.4740    6.5772 C   0  0  0  0  0  0  0  0  0  0  0  0
    1.7870    5.2618    7.3982 C   0  0  0  0  0  0  0  0  0  0  0  0
    3.1193    4.9127    7.6046 C   0  0  0  0  0  0  0  0  0  0  0  0
    3.6398    3.7739    6.9900 C   0  0  0  0  0  0  0  0  0  0  0  0
    2.8235    2.9840    6.1750 C   0  0  0  0  0  0  0  0  0  0  0  0
   -4.3844    0.4237    2.4080 H   0  0  0  0  0  0  0  0  0  0  0  0
   -7.5701    0.5535    1.2514 H   0  0  0  0  0  0  0  0  0  0  0  0
   -6.8030   -1.4734   -2.7685 H   0  0  0  0  0  0  0  0  0  0  0  0
   -5.2097   -2.2666   -2.4844 H   0  0  0  0  0  0  0  0  0  0  0  0
   -3.7426   -0.7871   -3.8175 H   0  0  0  0  0  0  0  0  0  0  0  0
   -1.6746   -0.6587   -2.6533 H   0  0  0  0  0  0  0  0  0  0  0  0
   -1.1463    0.7300   -1.7988 H   0  0  0  0  0  0  0  0  0  0  0  0
   -1.7912   -0.5324   -5.2145 H   0  0  0  0  0  0  0  0  0  0  0  0
   -0.1844   -0.0489   -5.6723 H   0  0  0  0  0  0  0  0  0  0  0  0
   -2.7230    1.5327   -5.9798 H   0  0  0  0  0  0  0  0  0  0  0  0
   -1.2709    1.4737   -7.0115 H   0  0  0  0  0  0  0  0  0  0  0  0
   -0.2635    2.5758   -2.8853 H   0  0  0  0  0  0  0  0  0  0  0  0
    0.8795    1.9917   -4.0856 H   0  0  0  0  0  0  0  0  0  0  0  0
   -2.7319    2.5993   -1.3404 H   0  0  0  0  0  0  0  0  0  0  0  0
   -4.9620    2.5814   -0.3107 H   0  0  0  0  0  0  0  0  0  0  0  0
   -2.5714   -1.9996   -0.7324 H   0  0  0  0  0  0  0  0  0  0  0  0
   -1.1275    2.8489    5.8156 H   0  0  0  0  0  0  0  0  0  0  0  0
   -0.6106    3.8242    4.3931 H   0  0  0  0  0  0  0  0  0  0  0  0
   -0.0566    4.7900    6.4422 H   0  0  0  0  0  0  0  0  0  0  0  0
    1.3803    6.1495    7.8786 H   0  0  0  0  0  0  0  0  0  0  0  0
    3.7527    5.5176    8.2461 H   0  0  0  0  0  0  0  0  0  0  0  0
    4.6757    3.4925    7.1452 H   0  0  0  0  0  0  0  0  0  0  0  0
    3.2339    2.0956    5.6959 H   0  0  0  0  0  0  0  0  0  0  0  0
  1  2  3  0  0  0  0
  1 26  1  0  0  0  0
  2  3  1  0  0  0  0
  3  4  2  0  0  0  0
  3 25  1  0  0  0  0
  4  5  1  0  0  0  0
  4 34  1  0  0  0  0
  5  6  1  0  0  0  0
  5 24  2  0  0  0  0
  6  7  2  0  0  0  0
  6 10  1  0  0  0  0
  7  8  1  0  0  0  0
  8  9  1  0  0  0  0
  8 35  1  0  0  0  0
  9 10  2  0  0  0  0
  9 23  1  0  0  0  0
 10 11  1  0  0  0  0
 11 12  1  0  0  0  0
 11 36  1  0  0  0  0
 11 37  1  0  0  0  0
 12 13  1  0  0  0  0
 12 23  2  0  0  0  0
 13 14  2  0  0  0  0
 13 38  1  0  0  0  0
 14 15  1  0  0  0  0
 14 21  1  0  0  0  0
 15 16  1  0  0  0  0
 15 39  1  0  0  0  0
 15 40  1  0  0  0  0
 16 17  1  0  0  0  0
 16 20  1  0  0  0  0
 17 18  1  0  0  0  0
 17 41  1  0  0  0  0
 17 42  1  0  0  0  0
 18 19  1  0  0  0  0
 18 43  1  0  0  0  0
 18 44  1  0  0  0  0
 19 20  1  0  0  0  0
 20 45  1  0  0  0  0
 20 46  1  0  0  0  0
 21 22  2  0  0  0  0
 21 47  1  0  0  0  0
 22 23  1  0  0  0  0
 22 48  1  0  0  0  0
 24 25  1  0  0  0  0
 24 49  1  0  0  0  0
 26 27  1  0  0  0  0
 26 50  1  0  0  0  0
 26 51  1  0  0  0  0
 27 28  1  0  0  0  0
 28 29  1  0  0  0  0
 28 33  2  0  0  0  0
 29 30  2  0  0  0  0
 29 52  1  0  0  0  0
 30 31  1  0  0  0  0
 30 53  1  0  0  0  0
 31 32  2  0  0  0  0
 31 54  1  0  0  0  0
 32 33  1  0  0  0  0
 32 55  1  0  0  0  0
 33 56  1  0  0  0  0
M  END
$$$$
