CHEMBL4443752
 OpenBabel04072215383D

 65 69  0  0  0  0  0  0  0  0999 V2000
    2.0937    8.2034  -10.2552 C   0  0  0  0  0  0  0  0  0  0  0  0
    3.5516    8.2943  -10.6003 C   0  0  0  0  0  0  0  0  0  0  0  0
    3.6404    7.8991  -12.0656 C   0  0  0  0  0  0  0  0  0  0  0  0
    5.0545    7.5155  -12.4294 C   0  0  0  0  0  0  0  0  0  0  0  0
    5.5953    6.5409  -11.4047 C   0  0  0  0  0  0  0  0  0  0  0  0
    6.6050    6.7990  -10.7561 O   0  0  0  0  0  0  0  0  0  0  0  0
    4.8127    5.4128  -11.2585 N   0  0  0  0  0  0  0  0  0  0  0  0
    5.1431    4.4232  -10.3397 C   0  0  0  0  0  0  0  0  0  0  0  0
    5.3953    4.7199   -9.0048 C   0  0  0  0  0  0  0  0  0  0  0  0
    5.7507    3.6753   -8.1561 C   0  0  0  0  0  0  0  0  0  0  0  0
    5.9290    3.7919   -6.7923 O   0  0  0  0  0  0  0  0  0  0  0  0
    5.1397    4.6960   -6.1134 C   0  0  0  0  0  0  0  0  0  0  0  0
    3.7852    4.8940   -6.4017 C   0  0  0  0  0  0  0  0  0  0  0  0
    3.0827    5.9560   -5.8173 C   0  0  0  0  0  0  0  0  0  0  0  0
    3.7041    6.7986   -4.8985 C   0  0  0  0  0  0  0  0  0  0  0  0
    3.1130    7.9680   -4.4030 N   0  0  0  0  0  0  0  0  0  0  0  0
    2.0294    8.7971   -4.7268 C   0  0  0  0  0  0  0  0  0  0  0  0
    1.2314    8.9861   -3.6449 N   0  0  0  0  0  0  0  0  0  0  0  0
    0.5183   10.1351   -3.5507 C   0  0  0  0  0  0  0  0  0  0  0  0
    0.6841   11.2052   -4.3740 C   0  0  0  0  0  0  0  0  0  0  0  0
    1.4717   11.0127   -5.4577 C   0  0  0  0  0  0  0  0  0  0  0  0
    1.5015   12.0666   -6.3985 N   0  0  0  0  0  0  0  0  0  0  0  0
    0.9332   11.6531   -7.5807 C   0  0  0  0  0  0  0  0  0  0  0  0
    1.4554   10.6089   -8.2276 C   0  0  0  0  0  0  0  0  0  0  0  0
    1.5942   11.0823   -9.6537 C   0  0  0  0  0  0  0  0  0  0  0  0
    2.7844   11.7486   -9.9713 C   0  0  0  0  0  0  0  0  0  0  0  0
    2.8220   12.6491  -11.0363 C   0  0  0  0  0  0  0  0  0  0  0  0
    1.6884   12.8677  -11.8082 C   0  0  0  0  0  0  0  0  0  0  0  0
    1.7194   13.8065  -12.7616 F   0  0  0  0  0  0  0  0  0  0  0  0
    0.5184   12.1573  -11.5792 C   0  0  0  0  0  0  0  0  0  0  0  0
    0.4601   11.2567  -10.5029 C   0  0  0  0  0  0  0  0  0  0  0  0
    2.3216    9.6315   -7.2465 C   0  0  0  0  0  0  0  0  0  0  0  0
    3.1245    8.7864   -7.6181 O   0  0  0  0  0  0  0  0  0  0  0  0
    2.0283    9.7668   -5.7576 C   0  0  0  0  0  0  0  0  0  0  0  0
    4.9938    6.4383   -4.4480 C   0  0  0  0  0  0  0  0  0  0  0  0
    5.7102    5.4100   -5.0666 C   0  0  0  0  0  0  0  0  0  0  0  0
    6.9605    5.1476   -4.6613 F   0  0  0  0  0  0  0  0  0  0  0  0
    5.9726    2.4159   -8.7050 C   0  0  0  0  0  0  0  0  0  0  0  0
    5.6750    2.2215  -10.0446 C   0  0  0  0  0  0  0  0  0  0  0  0
    5.1936    3.1843  -10.8542 N   0  0  0  0  0  0  0  0  0  0  0  0
    1.9626    8.8167   -9.4096 H   0  0  0  0  0  0  0  0  0  0  0  0
    1.7858    7.2134   -9.9149 H   0  0  0  0  0  0  0  0  0  0  0  0
    1.4329    8.5882  -11.0343 H   0  0  0  0  0  0  0  0  0  0  0  0
    4.0901    7.6429   -9.9115 H   0  0  0  0  0  0  0  0  0  0  0  0
    3.9856    9.2879  -10.4645 H   0  0  0  0  0  0  0  0  0  0  0  0
    3.2904    8.7362  -12.6829 H   0  0  0  0  0  0  0  0  0  0  0  0
    2.9567    7.0619  -12.2586 H   0  0  0  0  0  0  0  0  0  0  0  0
    5.6851    8.4111  -12.4252 H   0  0  0  0  0  0  0  0  0  0  0  0
    5.0811    7.0745  -13.4284 H   0  0  0  0  0  0  0  0  0  0  0  0
    4.3413    5.0678  -12.0823 H   0  0  0  0  0  0  0  0  0  0  0  0
    5.2794    5.7332   -8.6363 H   0  0  0  0  0  0  0  0  0  0  0  0
    3.2748    4.2674   -7.1301 H   0  0  0  0  0  0  0  0  0  0  0  0
    2.0501    6.1315   -6.1051 H   0  0  0  0  0  0  0  0  0  0  0  0
    3.6770    8.4375   -3.7063 H   0  0  0  0  0  0  0  0  0  0  0  0
   -0.1879   10.1678   -2.7032 H   0  0  0  0  0  0  0  0  0  0  0  0
    0.1308   12.1215   -4.2477 H   0  0  0  0  0  0  0  0  0  0  0  0
    2.5065   12.1579   -6.6359 H   0  0  0  0  0  0  0  0  0  0  0  0
    0.3861   12.4746   -8.0318 H   0  0  0  0  0  0  0  0  0  0  0  0
    3.6453   11.6383   -9.3280 H   0  0  0  0  0  0  0  0  0  0  0  0
    3.7246   13.2208  -11.2220 H   0  0  0  0  0  0  0  0  0  0  0  0
   -0.3594   12.3493  -12.1897 H   0  0  0  0  0  0  0  0  0  0  0  0
   -0.4856   10.7744  -10.2830 H   0  0  0  0  0  0  0  0  0  0  0  0
    5.4813    6.9717   -3.6349 H   0  0  0  0  0  0  0  0  0  0  0  0
    6.3643    1.6013   -8.1066 H   0  0  0  0  0  0  0  0  0  0  0  0
    5.8352    1.2615  -10.5257 H   0  0  0  0  0  0  0  0  0  0  0  0
  1  2  1  0  0  0  0
  1 41  1  0  0  0  0
  1 42  1  0  0  0  0
  1 43  1  0  0  0  0
  2  3  1  0  0  0  0
  2 44  1  0  0  0  0
  2 45  1  0  0  0  0
  3  4  1  0  0  0  0
  3 46  1  0  0  0  0
  3 47  1  0  0  0  0
  4  5  1  0  0  0  0
  4 48  1  0  0  0  0
  4 49  1  0  0  0  0
  5  6  2  0  0  0  0
  5  7  1  0  0  0  0
  7  8  1  0  0  0  0
  7 50  1  0  0  0  0
  8  9  1  0  0  0  0
  8 40  2  0  0  0  0
  9 10  2  0  0  0  0
  9 51  1  0  0  0  0
 10 11  1  0  0  0  0
 10 38  1  0  0  0  0
 11 12  1  0  0  0  0
 12 13  1  0  0  0  0
 12 36  2  0  0  0  0
 13 14  2  0  0  0  0
 13 52  1  0  0  0  0
 14 15  1  0  0  0  0
 14 53  1  0  0  0  0
 15 16  1  0  0  0  0
 15 35  2  0  0  0  0
 16 17  1  0  0  0  0
 16 54  1  0  0  0  0
 17 18  1  0  0  0  0
 17 34  2  0  0  0  0
 18 19  2  0  0  0  0
 19 20  1  0  0  0  0
 19 55  1  0  0  0  0
 20 21  2  0  0  0  0
 20 56  1  0  0  0  0
 21 22  1  0  0  0  0
 21 34  1  0  0  0  0
 22 23  1  0  0  0  0
 22 57  1  0  0  0  0
 23 24  2  0  0  0  0
 23 58  1  0  0  0  0
 24 25  1  0  0  0  0
 24 32  1  0  0  0  0
 25 26  1  0  0  0  0
 25 31  2  0  0  0  0
 26 27  2  0  0  0  0
 26 59  1  0  0  0  0
 27 28  1  0  0  0  0
 27 60  1  0  0  0  0
 28 29  1  0  0  0  0
 28 30  2  0  0  0  0
 30 31  1  0  0  0  0
 30 61  1  0  0  0  0
 31 62  1  0  0  0  0
 32 33  2  0  0  0  0
 32 34  1  0  0  0  0
 35 36  1  0  0  0  0
 35 63  1  0  0  0  0
 36 37  1  0  0  0  0
 38 39  2  0  0  0  0
 38 64  1  0  0  0  0
 39 40  1  0  0  0  0
 39 65  1  0  0  0  0
M  END
$$$$
