CHEMBL353281
 OpenBabel04072215363D

 38 41  0  0  0  0  0  0  0  0999 V2000
    3.5129   -1.0377   -0.1045 C   0  0  0  0  0  0  0  0  0  0  0  0
    2.8138    0.1851    0.1013 O   0  0  0  0  0  0  0  0  0  0  0  0
    3.3324    0.9267    1.1430 C   0  0  0  0  0  0  0  0  0  0  0  0
    2.7072    2.1316    1.4080 C   0  0  0  0  0  0  0  0  0  0  0  0
    3.1721    2.8953    2.4747 C   0  0  0  0  0  0  0  0  0  0  0  0
    4.2433    2.4358    3.2493 C   0  0  0  0  0  0  0  0  0  0  0  0
    4.6520    3.1904    4.4298 C   0  0  0  0  0  0  0  0  0  0  0  0
    4.8036    4.5588    4.5873 C   0  0  0  0  0  0  0  0  0  0  0  0
    4.8733    4.9202    5.9043 N   0  0  0  0  0  0  0  0  0  0  0  0
    4.7364    3.7962    6.5717 C   0  0  0  0  0  0  0  0  0  0  0  0
    4.5012    3.5639    7.9581 C   0  0  0  0  0  0  0  0  0  0  0  0
    4.3430    2.3009    8.4134 C   0  0  0  0  0  0  0  0  0  0  0  0
    3.8125    2.1310    9.7729 C   0  0  0  0  0  0  0  0  0  0  0  0
    2.4210    2.0839    9.9504 C   0  0  0  0  0  0  0  0  0  0  0  0
    1.8769    1.9179   11.2213 C   0  0  0  0  0  0  0  0  0  0  0  0
    2.7225    1.7935   12.3213 C   0  0  0  0  0  0  0  0  0  0  0  0
    4.1084    1.8316   12.1497 C   0  0  0  0  0  0  0  0  0  0  0  0
    4.6547    1.9982   10.8777 C   0  0  0  0  0  0  0  0  0  0  0  0
    4.5358    1.1616    7.5188 C   0  0  0  0  0  0  0  0  0  0  0  0
    4.6805    1.3790    6.2030 C   0  0  0  0  0  0  0  0  0  0  0  0
    4.7189    2.6901    5.7238 N   0  0  0  0  0  0  0  0  0  0  0  0
    4.8224    1.2300    2.8708 C   0  0  0  0  0  0  0  0  0  0  0  0
    4.3859    0.4598    1.8463 N   0  0  0  0  0  0  0  0  0  0  0  0
    3.0400   -1.5561   -0.9418 H   0  0  0  0  0  0  0  0  0  0  0  0
    3.4413   -1.6889    0.7748 H   0  0  0  0  0  0  0  0  0  0  0  0
    4.5593   -0.8528   -0.3729 H   0  0  0  0  0  0  0  0  0  0  0  0
    1.8669    2.4638    0.8085 H   0  0  0  0  0  0  0  0  0  0  0  0
    2.6726    3.8306    2.7133 H   0  0  0  0  0  0  0  0  0  0  0  0
    4.7876    5.3130    3.8093 H   0  0  0  0  0  0  0  0  0  0  0  0
    4.3443    4.4306    8.5892 H   0  0  0  0  0  0  0  0  0  0  0  0
    1.7550    2.1797    9.0943 H   0  0  0  0  0  0  0  0  0  0  0  0
    0.7982    1.8866   11.3528 H   0  0  0  0  0  0  0  0  0  0  0  0
    2.3015    1.6673   13.3152 H   0  0  0  0  0  0  0  0  0  0  0  0
    4.7618    1.7326   13.0122 H   0  0  0  0  0  0  0  0  0  0  0  0
    5.7389    2.0265   10.7562 H   0  0  0  0  0  0  0  0  0  0  0  0
    4.5055    0.1579    7.9313 H   0  0  0  0  0  0  0  0  0  0  0  0
    4.7618    0.5624    5.5003 H   0  0  0  0  0  0  0  0  0  0  0  0
    5.6774    0.8188    3.3995 H   0  0  0  0  0  0  0  0  0  0  0  0
  1  2  1  0  0  0  0
  1 24  1  0  0  0  0
  1 25  1  0  0  0  0
  1 26  1  0  0  0  0
  2  3  1  0  0  0  0
  3  4  1  0  0  0  0
  3 23  2  0  0  0  0
  4  5  2  0  0  0  0
  4 27  1  0  0  0  0
  5  6  1  0  0  0  0
  5 28  1  0  0  0  0
  6  7  1  0  0  0  0
  6 22  2  0  0  0  0
  7  8  2  0  0  0  0
  7 21  1  0  0  0  0
  8  9  1  0  0  0  0
  8 29  1  0  0  0  0
  9 10  2  0  0  0  0
 10 11  1  0  0  0  0
 10 21  1  0  0  0  0
 11 12  2  0  0  0  0
 11 30  1  0  0  0  0
 12 13  1  0  0  0  0
 12 19  1  0  0  0  0
 13 14  1  0  0  0  0
 13 18  2  0  0  0  0
 14 15  2  0  0  0  0
 14 31  1  0  0  0  0
 15 16  1  0  0  0  0
 15 32  1  0  0  0  0
 16 17  2  0  0  0  0
 16 33  1  0  0  0  0
 17 18  1  0  0  0  0
 17 34  1  0  0  0  0
 18 35  1  0  0  0  0
 19 20  2  0  0  0  0
 19 36  1  0  0  0  0
 20 21  1  0  0  0  0
 20 37  1  0  0  0  0
 22 23  1  0  0  0  0
 22 38  1  0  0  0  0
M  END
$$$$
