CHEMBL4765039
 OpenBabel04072215383D

 53 56  0  0  0  0  0  0  0  0999 V2000
    7.7636   -1.4080  -10.5340 C   0  0  0  0  0  0  0  0  0  0  0  0
    8.3587   -0.9794   -9.3049 O   0  0  0  0  0  0  0  0  0  0  0  0
    7.4906   -0.4369   -8.3918 C   0  0  0  0  0  0  0  0  0  0  0  0
    6.1584   -0.8767   -8.3049 C   0  0  0  0  0  0  0  0  0  0  0  0
    5.2176   -0.2575   -7.4980 C   0  0  0  0  0  0  0  0  0  0  0  0
    3.9485   -0.6656   -7.5647 N   0  0  0  0  0  0  0  0  0  0  0  0
    3.0586    0.0293   -6.8533 C   0  0  0  0  0  0  0  0  0  0  0  0
    3.3223    1.0915   -6.0902 N   0  0  0  0  0  0  0  0  0  0  0  0
    4.6084    1.4854   -6.0145 C   0  0  0  0  0  0  0  0  0  0  0  0
    4.9218    2.6556   -5.2757 N   0  0  0  0  0  0  0  0  0  0  0  0
    3.9994    3.6479   -4.8885 C   0  0  0  0  0  0  0  0  0  0  0  0
    4.1423    4.2952   -3.6638 C   0  0  0  0  0  0  0  0  0  0  0  0
    3.1806    5.2158   -3.2319 C   0  0  0  0  0  0  0  0  0  0  0  0
    2.0702    5.5286   -4.0207 C   0  0  0  0  0  0  0  0  0  0  0  0
    1.0049    6.3547   -3.5919 N   0  0  0  0  0  0  0  0  0  0  0  0
    0.8943    6.9378   -2.3394 C   0  0  0  0  0  0  0  0  0  0  0  0
    1.7541    6.9215   -1.4696 O   0  0  0  0  0  0  0  0  0  0  0  0
   -0.3755    7.6515   -2.0132 C   0  0  0  0  0  0  0  0  0  0  0  0
   -1.6066    7.3913   -2.6258 C   0  0  0  0  0  0  0  0  0  0  0  0
   -2.7556    8.0551   -2.1753 C   0  0  0  0  0  0  0  0  0  0  0  0
   -2.6852    8.9591   -1.1099 C   0  0  0  0  0  0  0  0  0  0  0  0
   -1.4643    9.2145   -0.4824 C   0  0  0  0  0  0  0  0  0  0  0  0
   -1.3508   10.1300    0.6988 C   0  0  0  0  0  0  0  0  0  0  0  0
   -0.3184    8.5666   -0.9525 C   0  0  0  0  0  0  0  0  0  0  0  0
    1.9828    4.9616   -5.2924 C   0  0  0  0  0  0  0  0  0  0  0  0
    2.9447    4.0407   -5.7224 C   0  0  0  0  0  0  0  0  0  0  0  0
    5.6305    0.8116   -6.6982 C   0  0  0  0  0  0  0  0  0  0  0  0
    6.9962    1.1714   -6.6765 C   0  0  0  0  0  0  0  0  0  0  0  0
    7.9314    0.5661   -7.5223 C   0  0  0  0  0  0  0  0  0  0  0  0
    9.1720    1.1127   -7.3637 O   0  0  0  0  0  0  0  0  0  0  0  0
   10.2115    0.7838   -8.2673 C   0  0  0  0  0  0  0  0  0  0  0  0
    8.4756   -1.2185  -11.3423 H   0  0  0  0  0  0  0  0  0  0  0  0
    6.8436   -0.8667  -10.7898 H   0  0  0  0  0  0  0  0  0  0  0  0
    7.5690   -2.4843  -10.4898 H   0  0  0  0  0  0  0  0  0  0  0  0
    5.8107   -1.7068   -8.9122 H   0  0  0  0  0  0  0  0  0  0  0  0
    2.0227   -0.2847   -6.9101 H   0  0  0  0  0  0  0  0  0  0  0  0
    5.6009    2.4401   -4.5540 H   0  0  0  0  0  0  0  0  0  0  0  0
    4.9753    4.0688   -3.0047 H   0  0  0  0  0  0  0  0  0  0  0  0
    3.3317    5.6515   -2.2506 H   0  0  0  0  0  0  0  0  0  0  0  0
    0.2572    6.4995   -4.2557 H   0  0  0  0  0  0  0  0  0  0  0  0
   -1.7118    6.6530   -3.4134 H   0  0  0  0  0  0  0  0  0  0  0  0
   -3.7193    7.8485   -2.6365 H   0  0  0  0  0  0  0  0  0  0  0  0
   -3.5935    9.4455   -0.7606 H   0  0  0  0  0  0  0  0  0  0  0  0
   -2.3234   10.5364    0.9918 H   0  0  0  0  0  0  0  0  0  0  0  0
   -0.6848   10.9672    0.4661 H   0  0  0  0  0  0  0  0  0  0  0  0
   -0.9451    9.5811    1.5562 H   0  0  0  0  0  0  0  0  0  0  0  0
    0.6352    8.7573   -0.4607 H   0  0  0  0  0  0  0  0  0  0  0  0
    1.1620    5.1994   -5.9632 H   0  0  0  0  0  0  0  0  0  0  0  0
    2.8474    3.6041   -6.7132 H   0  0  0  0  0  0  0  0  0  0  0  0
    7.3386    1.9766   -6.0297 H   0  0  0  0  0  0  0  0  0  0  0  0
   11.0155    1.5099   -8.1033 H   0  0  0  0  0  0  0  0  0  0  0  0
    9.9038    0.8867   -9.3111 H   0  0  0  0  0  0  0  0  0  0  0  0
   10.6143   -0.2095   -8.0504 H   0  0  0  0  0  0  0  0  0  0  0  0
  1  2  1  0  0  0  0
  1 32  1  0  0  0  0
  1 33  1  0  0  0  0
  1 34  1  0  0  0  0
  2  3  1  0  0  0  0
  3  4  1  0  0  0  0
  3 29  2  0  0  0  0
  4  5  2  0  0  0  0
  4 35  1  0  0  0  0
  5  6  1  0  0  0  0
  5 27  1  0  0  0  0
  6  7  2  0  0  0  0
  7  8  1  0  0  0  0
  7 36  1  0  0  0  0
  8  9  2  0  0  0  0
  9 10  1  0  0  0  0
  9 27  1  0  0  0  0
 10 11  1  0  0  0  0
 10 37  1  0  0  0  0
 11 12  1  0  0  0  0
 11 26  2  0  0  0  0
 12 13  2  0  0  0  0
 12 38  1  0  0  0  0
 13 14  1  0  0  0  0
 13 39  1  0  0  0  0
 14 15  1  0  0  0  0
 14 25  2  0  0  0  0
 15 16  1  0  0  0  0
 15 40  1  0  0  0  0
 16 17  2  0  0  0  0
 16 18  1  0  0  0  0
 18 19  1  0  0  0  0
 18 24  2  0  0  0  0
 19 20  2  0  0  0  0
 19 41  1  0  0  0  0
 20 21  1  0  0  0  0
 20 42  1  0  0  0  0
 21 22  2  0  0  0  0
 21 43  1  0  0  0  0
 22 23  1  0  0  0  0
 22 24  1  0  0  0  0
 23 44  1  0  0  0  0
 23 45  1  0  0  0  0
 23 46  1  0  0  0  0
 24 47  1  0  0  0  0
 25 26  1  0  0  0  0
 25 48  1  0  0  0  0
 26 49  1  0  0  0  0
 27 28  2  0  0  0  0
 28 29  1  0  0  0  0
 28 50  1  0  0  0  0
 29 30  1  0  0  0  0
 30 31  1  0  0  0  0
 31 51  1  0  0  0  0
 31 52  1  0  0  0  0
 31 53  1  0  0  0  0
M  END
$$$$
