CHEMBL3925024
 OpenBabel04072215373D

 58 63  0  0  0  0  0  0  0  0999 V2000
    1.3767   -1.0299    0.2656 O   0  0  0  0  0  0  0  0  0  0  0  0
    2.4749   -0.4912    0.1708 C   0  0  0  0  0  0  0  0  0  0  0  0
    2.9941    0.4645    1.0511 N   0  0  0  0  0  0  0  0  0  0  0  0
    2.3665    0.9273    2.2476 C   0  0  0  0  0  0  0  0  0  0  0  0
    1.1959    0.3526    2.7549 C   0  0  0  0  0  0  0  0  0  0  0  0
    0.5930    0.8395    3.9187 C   0  0  0  0  0  0  0  0  0  0  0  0
    1.1528    1.9098    4.6030 C   0  0  0  0  0  0  0  0  0  0  0  0
    2.3175    2.5083    4.1159 C   0  0  0  0  0  0  0  0  0  0  0  0
    2.9230    3.5612    4.7854 O   0  0  0  0  0  0  0  0  0  0  0  0
    2.1119    4.5770    5.2583 C   0  0  0  0  0  0  0  0  0  0  0  0
    2.3353    5.0712    6.5503 C   0  0  0  0  0  0  0  0  0  0  0  0
    1.4926    6.0480    7.1191 C   0  0  0  0  0  0  0  0  0  0  0  0
    0.4975    6.6475    6.2906 C   0  0  0  0  0  0  0  0  0  0  0  0
   -0.6293    7.5285    6.3721 C   0  0  0  0  0  0  0  0  0  0  0  0
   -1.9973    7.2297    6.8022 C   0  0  0  0  0  0  0  0  0  0  0  0
   -2.4708    5.9583    6.8953 C   0  0  0  0  0  0  0  0  0  0  0  0
   -3.7365    5.5313    6.2624 C   0  0  0  0  0  0  0  0  0  0  0  0
   -4.0762    5.9744    4.9759 C   0  0  0  0  0  0  0  0  0  0  0  0
   -5.1127    5.3753    4.2396 C   0  0  0  0  0  0  0  0  0  0  0  0
   -5.8264    4.3175    4.7925 C   0  0  0  0  0  0  0  0  0  0  0  0
   -5.5243    3.8871    6.0901 C   0  0  0  0  0  0  0  0  0  0  0  0
   -4.4854    4.4774    6.8146 C   0  0  0  0  0  0  0  0  0  0  0  0
   -0.6233    8.2412    5.2133 N   0  0  0  0  0  0  0  0  0  0  0  0
   -0.2067    7.3014    4.3462 N   0  0  0  0  0  0  0  0  0  0  0  0
    0.4999    6.2907    4.9489 C   0  0  0  0  0  0  0  0  0  0  0  0
    1.1715    5.1810    4.4210 C   0  0  0  0  0  0  0  0  0  0  0  0
    2.9384    2.0006    2.9573 C   0  0  0  0  0  0  0  0  0  0  0  0
    3.2713   -0.8084   -1.0490 C   0  0  0  0  0  0  0  0  0  0  0  0
    2.5968   -1.3349   -2.1753 C   0  0  0  0  0  0  0  0  0  0  0  0
    3.2579   -1.5825   -3.3785 C   0  0  0  0  0  0  0  0  0  0  0  0
    4.5900   -1.2086   -3.5428 C   0  0  0  0  0  0  0  0  0  0  0  0
    5.2567   -0.7347   -2.4100 C   0  0  0  0  0  0  0  0  0  0  0  0
    6.5321   -0.2409   -2.2599 N   0  0  0  0  0  0  0  0  0  0  0  0
    6.9159   -0.4253   -0.9605 C   0  0  0  0  0  0  0  0  0  0  0  0
    5.7548   -0.5199   -0.2242 C   0  0  0  0  0  0  0  0  0  0  0  0
    4.6677   -0.6521   -1.1383 C   0  0  0  0  0  0  0  0  0  0  0  0
    3.8304    0.9383    0.7755 H   0  0  0  0  0  0  0  0  0  0  0  0
    0.7182   -0.4914    2.2720 H   0  0  0  0  0  0  0  0  0  0  0  0
   -0.3223    0.3754    4.2763 H   0  0  0  0  0  0  0  0  0  0  0  0
    0.6732    2.2662    5.5103 H   0  0  0  0  0  0  0  0  0  0  0  0
    3.1818    4.7029    7.1232 H   0  0  0  0  0  0  0  0  0  0  0  0
    1.6598    6.4144    8.1290 H   0  0  0  0  0  0  0  0  0  0  0  0
   -2.7121    8.0070    6.5382 H   0  0  0  0  0  0  0  0  0  0  0  0
   -1.7861    5.1250    7.1000 H   0  0  0  0  0  0  0  0  0  0  0  0
   -3.5005    6.7633    4.4832 H   0  0  0  0  0  0  0  0  0  0  0  0
   -5.3285    5.7039    3.2238 H   0  0  0  0  0  0  0  0  0  0  0  0
   -6.6038    3.8243    4.2191 H   0  0  0  0  0  0  0  0  0  0  0  0
   -6.0706    3.0502    6.5124 H   0  0  0  0  0  0  0  0  0  0  0  0
   -4.2346    4.0918    7.7965 H   0  0  0  0  0  0  0  0  0  0  0  0
   -0.3624    7.4473    3.3621 H   0  0  0  0  0  0  0  0  0  0  0  0
    1.0141    4.8664    3.4032 H   0  0  0  0  0  0  0  0  0  0  0  0
    3.8537    2.4740    2.6092 H   0  0  0  0  0  0  0  0  0  0  0  0
    1.5354   -1.5693   -2.1050 H   0  0  0  0  0  0  0  0  0  0  0  0
    2.7208   -2.0471   -4.2035 H   0  0  0  0  0  0  0  0  0  0  0  0
    5.1003   -1.3516   -4.4909 H   0  0  0  0  0  0  0  0  0  0  0  0
    7.1131    0.1161   -3.0091 H   0  0  0  0  0  0  0  0  0  0  0  0
    7.9594   -0.4161   -0.6764 H   0  0  0  0  0  0  0  0  0  0  0  0
    5.7048   -0.5961    0.8547 H   0  0  0  0  0  0  0  0  0  0  0  0
  1  2  2  0  0  0  0
  2  3  1  0  0  0  0
  2 28  1  0  0  0  0
  3  4  1  0  0  0  0
  3 37  1  0  0  0  0
  4  5  1  0  0  0  0
  4 27  2  0  0  0  0
  5  6  2  0  0  0  0
  5 38  1  0  0  0  0
  6  7  1  0  0  0  0
  6 39  1  0  0  0  0
  7  8  2  0  0  0  0
  7 40  1  0  0  0  0
  8  9  1  0  0  0  0
  8 27  1  0  0  0  0
  9 10  1  0  0  0  0
 10 11  1  0  0  0  0
 10 26  2  0  0  0  0
 11 12  2  0  0  0  0
 11 41  1  0  0  0  0
 12 13  1  0  0  0  0
 12 42  1  0  0  0  0
 13 14  1  0  0  0  0
 13 25  2  0  0  0  0
 14 15  1  0  0  0  0
 14 23  2  0  0  0  0
 15 16  2  0  0  0  0
 15 43  1  0  0  0  0
 16 17  1  0  0  0  0
 16 44  1  0  0  0  0
 17 18  1  0  0  0  0
 17 22  2  0  0  0  0
 18 19  2  0  0  0  0
 18 45  1  0  0  0  0
 19 20  1  0  0  0  0
 19 46  1  0  0  0  0
 20 21  2  0  0  0  0
 20 47  1  0  0  0  0
 21 22  1  0  0  0  0
 21 48  1  0  0  0  0
 22 49  1  0  0  0  0
 23 24  1  0  0  0  0
 24 25  1  0  0  0  0
 24 50  1  0  0  0  0
 25 26  1  0  0  0  0
 26 51  1  0  0  0  0
 27 52  1  0  0  0  0
 28 29  1  0  0  0  0
 28 36  2  0  0  0  0
 29 30  2  0  0  0  0
 29 53  1  0  0  0  0
 30 31  1  0  0  0  0
 30 54  1  0  0  0  0
 31 32  2  0  0  0  0
 31 55  1  0  0  0  0
 32 33  1  0  0  0  0
 32 36  1  0  0  0  0
 33 34  1  0  0  0  0
 33 56  1  0  0  0  0
 34 35  2  0  0  0  0
 34 57  1  0  0  0  0
 35 36  1  0  0  0  0
 35 58  1  0  0  0  0
M  END
$$$$
