CHEMBL3904736
 OpenBabel04072215373D

 55 58  0  0  0  0  0  0  0  0999 V2000
    1.2850    3.5294   -0.5612 C   0  0  0  0  0  0  0  0  0  0  0  0
    1.5938    2.1965   -1.0174 N   0  0  0  0  0  0  0  0  0  0  0  0
    2.5815    1.3776   -0.5605 C   0  0  0  0  0  0  0  0  0  0  0  0
    2.4622    0.1861   -1.2533 C   0  0  0  0  0  0  0  0  0  0  0  0
    3.2924   -0.9825   -1.0234 C   0  0  0  0  0  0  0  0  0  0  0  0
    3.0639   -2.2060   -1.6330 C   0  0  0  0  0  0  0  0  0  0  0  0
    3.7909   -3.3210   -1.3507 N   0  0  0  0  0  0  0  0  0  0  0  0
    4.7663   -3.1839   -0.4262 C   0  0  0  0  0  0  0  0  0  0  0  0
    5.5419   -4.2612   -0.0225 C   0  0  0  0  0  0  0  0  0  0  0  0
    6.5151   -4.1274    0.9855 C   0  0  0  0  0  0  0  0  0  0  0  0
    6.7994   -2.8905    1.5899 C   0  0  0  0  0  0  0  0  0  0  0  0
    7.7973   -2.7764    2.5910 N   0  0  0  0  0  0  0  0  0  0  0  0
    7.6950   -1.8474    3.7778 C   0  0  0  0  0  0  0  0  0  0  0  0
    6.4941   -0.9163    3.8571 C   0  0  0  0  0  0  0  0  0  0  0  0
    6.3693   -0.0521    5.1129 C   0  0  0  0  0  0  0  0  0  0  0  0
    5.1474    0.7179    4.8907 N   0  0  0  0  0  0  0  0  0  0  0  0
    4.8265    1.7222    5.9133 C   0  0  0  0  0  0  0  0  0  0  0  0
    3.4970    2.4840    5.6701 C   0  0  0  0  0  0  0  0  0  0  0  0
    2.8465    2.0393    4.5695 F   0  0  0  0  0  0  0  0  0  0  0  0
    2.6552    2.3231    6.7185 F   0  0  0  0  0  0  0  0  0  0  0  0
    3.7074    3.8097    5.5130 F   0  0  0  0  0  0  0  0  0  0  0  0
    8.9994   -3.5644    2.6053 C   0  0  0  0  0  0  0  0  0  0  0  0
    9.6258   -3.9190    1.3947 C   0  0  0  0  0  0  0  0  0  0  0  0
   10.7710   -4.7206    1.3730 C   0  0  0  0  0  0  0  0  0  0  0  0
   11.4754   -5.1595   -0.1345 Cl  0  0  0  0  0  0  0  0  0  0  0  0
   11.3429   -5.1790    2.5553 C   0  0  0  0  0  0  0  0  0  0  0  0
   10.7534   -4.8214    3.7608 C   0  0  0  0  0  0  0  0  0  0  0  0
   11.4468   -5.3651    5.2382 Cl  0  0  0  0  0  0  0  0  0  0  0  0
    9.5972   -4.0318    3.7904 C   0  0  0  0  0  0  0  0  0  0  0  0
    6.0640   -1.8138    1.0824 C   0  0  0  0  0  0  0  0  0  0  0  0
    5.0286   -1.9346    0.1614 C   0  0  0  0  0  0  0  0  0  0  0  0
    4.3021   -0.8401   -0.1345 N   0  0  0  0  0  0  0  0  0  0  0  0
    1.3651    0.4116   -2.1145 C   0  0  0  0  0  0  0  0  0  0  0  0
    0.8404    1.6340   -1.9792 N   0  0  0  0  0  0  0  0  0  0  0  0
    2.0577    3.8665    0.1338 H   0  0  0  0  0  0  0  0  0  0  0  0
    0.3150    3.5007   -0.0584 H   0  0  0  0  0  0  0  0  0  0  0  0
    1.2480    4.1947   -1.4279 H   0  0  0  0  0  0  0  0  0  0  0  0
    3.2625    1.6830    0.2215 H   0  0  0  0  0  0  0  0  0  0  0  0
    2.2784   -2.3495   -2.3663 H   0  0  0  0  0  0  0  0  0  0  0  0
    5.3778   -5.2313   -0.4855 H   0  0  0  0  0  0  0  0  0  0  0  0
    7.0534   -5.0240    1.2868 H   0  0  0  0  0  0  0  0  0  0  0  0
    8.6078   -1.2372    3.8148 H   0  0  0  0  0  0  0  0  0  0  0  0
    7.6607   -2.4466    4.6944 H   0  0  0  0  0  0  0  0  0  0  0  0
    5.5776   -1.5081    3.7429 H   0  0  0  0  0  0  0  0  0  0  0  0
    6.5725   -0.1856    3.0525 H   0  0  0  0  0  0  0  0  0  0  0  0
    7.2352    0.6159    5.1913 H   0  0  0  0  0  0  0  0  0  0  0  0
    6.3067   -0.6610    6.0200 H   0  0  0  0  0  0  0  0  0  0  0  0
    4.3452    0.1002    4.7454 H   0  0  0  0  0  0  0  0  0  0  0  0
    5.6387    2.4568    5.9589 H   0  0  0  0  0  0  0  0  0  0  0  0
    4.7695    1.2344    6.8929 H   0  0  0  0  0  0  0  0  0  0  0  0
    9.2222   -3.5611    0.4502 H   0  0  0  0  0  0  0  0  0  0  0  0
   12.2315   -5.7974    2.5357 H   0  0  0  0  0  0  0  0  0  0  0  0
    9.1604   -3.8265    4.7614 H   0  0  0  0  0  0  0  0  0  0  0  0
    6.2870   -0.7952    1.3597 H   0  0  0  0  0  0  0  0  0  0  0  0
    0.9139   -0.2615   -2.8289 H   0  0  0  0  0  0  0  0  0  0  0  0
  1  2  1  0  0  0  0
  1 35  1  0  0  0  0
  1 36  1  0  0  0  0
  1 37  1  0  0  0  0
  2  3  1  0  0  0  0
  2 34  1  0  0  0  0
  3  4  2  0  0  0  0
  3 38  1  0  0  0  0
  4  5  1  0  0  0  0
  4 33  1  0  0  0  0
  5  6  1  0  0  0  0
  5 32  2  0  0  0  0
  6  7  2  0  0  0  0
  6 39  1  0  0  0  0
  7  8  1  0  0  0  0
  8  9  1  0  0  0  0
  8 31  2  0  0  0  0
  9 10  2  0  0  0  0
  9 40  1  0  0  0  0
 10 11  1  0  0  0  0
 10 41  1  0  0  0  0
 11 12  1  0  0  0  0
 11 30  2  0  0  0  0
 12 13  1  0  0  0  0
 12 22  1  0  0  0  0
 13 14  1  0  0  0  0
 13 42  1  0  0  0  0
 13 43  1  0  0  0  0
 14 15  1  0  0  0  0
 14 44  1  0  0  0  0
 14 45  1  0  0  0  0
 15 16  1  0  0  0  0
 15 46  1  0  0  0  0
 15 47  1  0  0  0  0
 16 17  1  0  0  0  0
 16 48  1  0  0  0  0
 17 18  1  0  0  0  0
 17 49  1  0  0  0  0
 17 50  1  0  0  0  0
 18 19  1  0  0  0  0
 18 20  1  0  0  0  0
 18 21  1  0  0  0  0
 22 23  1  0  0  0  0
 22 29  2  0  0  0  0
 23 24  2  0  0  0  0
 23 51  1  0  0  0  0
 24 25  1  0  0  0  0
 24 26  1  0  0  0  0
 26 27  2  0  0  0  0
 26 52  1  0  0  0  0
 27 28  1  0  0  0  0
 27 29  1  0  0  0  0
 29 53  1  0  0  0  0
 30 31  1  0  0  0  0
 30 54  1  0  0  0  0
 31 32  1  0  0  0  0
 33 34  2  0  0  0  0
 33 55  1  0  0  0  0
M  END
$$$$
