CHEMBL389499
 OpenBabel04072215373D

 43 47  0  0  0  0  0  0  0  0999 V2000
    1.0717    0.0661   -0.0222 C   0  0  0  0  0  0  0  0  0  0  0  0
   -0.2322    0.0661   -0.0222 C   0  0  0  0  0  0  0  0  0  0  0  0
   -1.6547    0.0727    0.2379 C   0  0  0  0  0  0  0  0  0  0  0  0
   -2.5476   -0.8774   -0.2045 C   0  0  0  0  0  0  0  0  0  0  0  0
   -3.9145   -0.6730    0.2417 C   0  0  0  0  0  0  0  0  0  0  0  0
   -4.9695   -1.6947   -0.1202 C   0  0  0  0  0  0  0  0  0  0  0  0
   -4.7063   -2.4807   -1.1813 N   0  0  0  0  0  0  0  0  0  0  0  0
   -4.4233   -3.6587   -0.5681 N   0  0  0  0  0  0  0  0  0  0  0  0
   -4.7764   -3.6336    0.7509 C   0  0  0  0  0  0  0  0  0  0  0  0
   -5.6415   -2.5343    0.8434 C   0  0  0  0  0  0  0  0  0  0  0  0
   -6.0925   -2.3773    2.2655 C   0  0  0  0  0  0  0  0  0  0  0  0
   -4.7677   -2.7853    2.8847 C   0  0  0  0  0  0  0  0  0  0  0  0
   -4.2245   -2.1665    3.9993 C   0  0  0  0  0  0  0  0  0  0  0  0
   -2.8429   -2.2466    4.1552 C   0  0  0  0  0  0  0  0  0  0  0  0
   -2.0528   -2.9835    3.2508 C   0  0  0  0  0  0  0  0  0  0  0  0
   -2.6235   -3.6828    2.1683 C   0  0  0  0  0  0  0  0  0  0  0  0
   -3.9942   -3.5939    1.9807 C   0  0  0  0  0  0  0  0  0  0  0  0
   -3.9939    0.4222    1.0695 C   0  0  0  0  0  0  0  0  0  0  0  0
   -2.4641    1.2117    1.2365 S   0  0  0  0  0  0  0  0  0  0  0  0
    2.5917    0.0661   -0.0222 C   0  0  0  0  0  0  0  0  0  0  0  0
    3.0851   -1.2614    0.1081 O   0  0  0  0  0  0  0  0  0  0  0  0
    4.4492   -1.3834    0.1242 C   0  0  0  0  0  0  0  0  0  0  0  0
    5.3686   -0.3347    0.0296 C   0  0  0  0  0  0  0  0  0  0  0  0
    6.7405   -0.5917    0.0616 C   0  0  0  0  0  0  0  0  0  0  0  0
    7.2032   -1.9013    0.1870 C   0  0  0  0  0  0  0  0  0  0  0  0
    6.2906   -2.9536    0.2803 C   0  0  0  0  0  0  0  0  0  0  0  0
    4.9217   -2.6909    0.2500 C   0  0  0  0  0  0  0  0  0  0  0  0
   -2.2345   -1.7246   -0.8008 H   0  0  0  0  0  0  0  0  0  0  0  0
   -4.0930   -4.4337   -1.1310 H   0  0  0  0  0  0  0  0  0  0  0  0
   -6.8580   -3.1308    2.5113 H   0  0  0  0  0  0  0  0  0  0  0  0
   -6.4339   -1.3758    2.5238 H   0  0  0  0  0  0  0  0  0  0  0  0
   -4.8176   -1.5153    4.6245 H   0  0  0  0  0  0  0  0  0  0  0  0
   -2.3652   -1.6580    4.9343 H   0  0  0  0  0  0  0  0  0  0  0  0
   -0.9690   -2.9313    3.3421 H   0  0  0  0  0  0  0  0  0  0  0  0
   -1.9828   -4.1205    1.4189 H   0  0  0  0  0  0  0  0  0  0  0  0
   -4.8522    0.8090    1.6014 H   0  0  0  0  0  0  0  0  0  0  0  0
    2.9230    0.6845    0.8208 H   0  0  0  0  0  0  0  0  0  0  0  0
    2.9225    0.5073   -0.9704 H   0  0  0  0  0  0  0  0  0  0  0  0
    5.0584    0.6998   -0.0694 H   0  0  0  0  0  0  0  0  0  0  0  0
    7.4497    0.2287   -0.0113 H   0  0  0  0  0  0  0  0  0  0  0  0
    8.2719   -2.1045    0.2113 H   0  0  0  0  0  0  0  0  0  0  0  0
    6.6471   -3.9752    0.3762 H   0  0  0  0  0  0  0  0  0  0  0  0
    4.2143   -3.5147    0.3202 H   0  0  0  0  0  0  0  0  0  0  0  0
  1  2  3  0  0  0  0
  1 20  1  0  0  0  0
  2  3  1  0  0  0  0
  3  4  2  0  0  0  0
  3 19  1  0  0  0  0
  4  5  1  0  0  0  0
  4 28  1  0  0  0  0
  5  6  1  0  0  0  0
  5 18  2  0  0  0  0
  6  7  2  0  0  0  0
  6 10  1  0  0  0  0
  7  8  1  0  0  0  0
  8  9  1  0  0  0  0
  8 29  1  0  0  0  0
  9 10  2  0  0  0  0
  9 17  1  0  0  0  0
 10 11  1  0  0  0  0
 11 12  1  0  0  0  0
 11 30  1  0  0  0  0
 11 31  1  0  0  0  0
 12 13  1  0  0  0  0
 12 17  2  0  0  0  0
 13 14  2  0  0  0  0
 13 32  1  0  0  0  0
 14 15  1  0  0  0  0
 14 33  1  0  0  0  0
 15 16  2  0  0  0  0
 15 34  1  0  0  0  0
 16 17  1  0  0  0  0
 16 35  1  0  0  0  0
 18 19  1  0  0  0  0
 18 36  1  0  0  0  0
 20 21  1  0  0  0  0
 20 37  1  0  0  0  0
 20 38  1  0  0  0  0
 21 22  1  0  0  0  0
 22 23  1  0  0  0  0
 22 27  2  0  0  0  0
 23 24  2  0  0  0  0
 23 39  1  0  0  0  0
 24 25  1  0  0  0  0
 24 40  1  0  0  0  0
 25 26  2  0  0  0  0
 25 41  1  0  0  0  0
 26 27  1  0  0  0  0
 26 42  1  0  0  0  0
 27 43  1  0  0  0  0
M  END
$$$$
