CHEMBL3986769
 OpenBabel04072215373D

 69 73  0  0  0  0  0  0  0  0999 V2000
    3.3767   -5.1656   -0.7533 C   0  0  0  0  0  0  0  0  0  0  0  0
    2.9427   -3.8721   -0.2153 N   0  0  0  0  0  0  0  0  0  0  0  0
    3.8970   -2.8283   -0.6068 C   0  0  0  0  0  0  0  0  0  0  0  0
    3.4481   -1.4235   -0.1963 C   0  0  0  0  0  0  0  0  0  0  0  0
    2.0415   -1.0835   -0.7068 C   0  0  0  0  0  0  0  0  0  0  0  0
    1.9124   -0.7573   -2.1953 C   0  0  0  0  0  0  0  0  0  0  0  0
    0.6388   -0.4434   -2.6943 C   0  0  0  0  0  0  0  0  0  0  0  0
    0.3874   -0.1061   -4.0309 C   0  0  0  0  0  0  0  0  0  0  0  0
   -0.9286    0.1405   -4.5121 N   0  0  0  0  0  0  0  0  0  0  0  0
   -2.0857   -0.1410   -3.8051 C   0  0  0  0  0  0  0  0  0  0  0  0
   -2.1127   -0.6602   -2.6926 O   0  0  0  0  0  0  0  0  0  0  0  0
   -3.2491    0.2087   -4.4661 N   0  0  0  0  0  0  0  0  0  0  0  0
   -4.4814    0.0160   -3.8052 C   0  0  0  0  0  0  0  0  0  0  0  0
   -4.6459    0.4013   -2.4749 C   0  0  0  0  0  0  0  0  0  0  0  0
   -5.8077    0.0430   -1.7950 C   0  0  0  0  0  0  0  0  0  0  0  0
   -6.8123   -0.6361   -2.4745 C   0  0  0  0  0  0  0  0  0  0  0  0
   -7.9895   -1.0632   -1.9016 O   0  0  0  0  0  0  0  0  0  0  0  0
   -8.6159   -0.2654   -0.9626 C   0  0  0  0  0  0  0  0  0  0  0  0
   -8.5419    1.1230   -0.9697 C   0  0  0  0  0  0  0  0  0  0  0  0
   -9.1753    1.8074    0.0418 C   0  0  0  0  0  0  0  0  0  0  0  0
   -9.9003    1.2051    0.9977 N   0  0  0  0  0  0  0  0  0  0  0  0
  -10.0366   -0.1318    0.9754 C   0  0  0  0  0  0  0  0  0  0  0  0
  -10.8321   -0.7510    1.9544 N   0  0  0  0  0  0  0  0  0  0  0  0
  -11.4675   -0.0607    2.9700 C   0  0  0  0  0  0  0  0  0  0  0  0
  -11.4345    1.1444    3.1812 O   0  0  0  0  0  0  0  0  0  0  0  0
  -12.2635   -0.9171    3.9066 C   0  0  0  0  0  0  0  0  0  0  0  0
  -13.5120   -0.3382    4.5534 C   0  0  0  0  0  0  0  0  0  0  0  0
  -12.2855   -0.5689    5.3860 C   0  0  0  0  0  0  0  0  0  0  0  0
   -9.4063   -0.9083    0.0036 C   0  0  0  0  0  0  0  0  0  0  0  0
   -6.5719   -0.9538   -3.8087 C   0  0  0  0  0  0  0  0  0  0  0  0
   -5.4473   -0.6145   -4.5016 N   0  0  0  0  0  0  0  0  0  0  0  0
    1.4795   -0.0015   -4.8948 C   0  0  0  0  0  0  0  0  0  0  0  0
    2.7836   -0.2687   -4.4267 C   0  0  0  0  0  0  0  0  0  0  0  0
    3.9981   -0.1331   -5.3144 C   0  0  0  0  0  0  0  0  0  0  0  0
    3.7153    0.3123   -6.5693 F   0  0  0  0  0  0  0  0  0  0  0  0
    4.9123    0.7405   -4.8056 F   0  0  0  0  0  0  0  0  0  0  0  0
    4.6626   -1.3115   -5.4742 F   0  0  0  0  0  0  0  0  0  0  0  0
    2.9806   -0.6576   -3.0859 C   0  0  0  0  0  0  0  0  0  0  0  0
    1.0958   -2.2049   -0.2263 C   0  0  0  0  0  0  0  0  0  0  0  0
    1.5736   -3.5871   -0.6665 C   0  0  0  0  0  0  0  0  0  0  0  0
    4.3909   -5.4064   -0.4168 H   0  0  0  0  0  0  0  0  0  0  0  0
    3.3707   -5.1740   -1.8505 H   0  0  0  0  0  0  0  0  0  0  0  0
    2.7230   -5.9707   -0.4012 H   0  0  0  0  0  0  0  0  0  0  0  0
    4.0817   -2.8637   -1.6860 H   0  0  0  0  0  0  0  0  0  0  0  0
    4.8581   -3.0245   -0.1155 H   0  0  0  0  0  0  0  0  0  0  0  0
    4.1809   -0.6784   -0.5257 H   0  0  0  0  0  0  0  0  0  0  0  0
    3.4399   -1.3676    0.9014 H   0  0  0  0  0  0  0  0  0  0  0  0
    1.7384   -0.1582   -0.1955 H   0  0  0  0  0  0  0  0  0  0  0  0
   -0.1668   -0.4333   -1.9685 H   0  0  0  0  0  0  0  0  0  0  0  0
   -1.0256    0.4978   -5.4517 H   0  0  0  0  0  0  0  0  0  0  0  0
   -3.2946   -0.0454   -5.4420 H   0  0  0  0  0  0  0  0  0  0  0  0
   -3.8622    0.9374   -1.9473 H   0  0  0  0  0  0  0  0  0  0  0  0
   -5.8966    0.2907   -0.7413 H   0  0  0  0  0  0  0  0  0  0  0  0
   -7.9957    1.6773   -1.7227 H   0  0  0  0  0  0  0  0  0  0  0  0
   -9.1153    2.8878    0.1243 H   0  0  0  0  0  0  0  0  0  0  0  0
  -10.9403   -1.7551    1.9094 H   0  0  0  0  0  0  0  0  0  0  0  0
  -12.3033   -1.9701    3.6707 H   0  0  0  0  0  0  0  0  0  0  0  0
  -14.3636   -0.9895    4.7150 H   0  0  0  0  0  0  0  0  0  0  0  0
  -13.7811    0.6901    4.3286 H   0  0  0  0  0  0  0  0  0  0  0  0
  -12.3109   -1.3737    6.1112 H   0  0  0  0  0  0  0  0  0  0  0  0
  -11.7328    0.3062    5.7184 H   0  0  0  0  0  0  0  0  0  0  0  0
   -9.5110   -1.9849   -0.0142 H   0  0  0  0  0  0  0  0  0  0  0  0
   -7.2992   -1.5266   -4.3782 H   0  0  0  0  0  0  0  0  0  0  0  0
    1.3370    0.2848   -5.9344 H   0  0  0  0  0  0  0  0  0  0  0  0
    3.9996   -0.8515   -2.7577 H   0  0  0  0  0  0  0  0  0  0  0  0
    0.0653   -2.0579   -0.5663 H   0  0  0  0  0  0  0  0  0  0  0  0
    1.0496   -2.1784    0.8714 H   0  0  0  0  0  0  0  0  0  0  0  0
    1.4862   -3.6763   -1.7564 H   0  0  0  0  0  0  0  0  0  0  0  0
    0.8958   -4.3307   -0.2273 H   0  0  0  0  0  0  0  0  0  0  0  0
  1  2  1  0  0  0  0
  1 41  1  0  0  0  0
  1 42  1  0  0  0  0
  1 43  1  0  0  0  0
  2  3  1  0  0  0  0
  2 40  1  0  0  0  0
  3  4  1  0  0  0  0
  3 44  1  0  0  0  0
  3 45  1  0  0  0  0
  4  5  1  0  0  0  0
  4 46  1  0  0  0  0
  4 47  1  0  0  0  0
  5  6  1  0  0  0  0
  5 39  1  0  0  0  0
  5 48  1  0  0  0  0
  6  7  1  0  0  0  0
  6 38  2  0  0  0  0
  7  8  2  0  0  0  0
  7 49  1  0  0  0  0
  8  9  1  0  0  0  0
  8 32  1  0  0  0  0
  9 10  1  0  0  0  0
  9 50  1  0  0  0  0
 10 11  2  0  0  0  0
 10 12  1  0  0  0  0
 12 13  1  0  0  0  0
 12 51  1  0  0  0  0
 13 14  1  0  0  0  0
 13 31  2  0  0  0  0
 14 15  2  0  0  0  0
 14 52  1  0  0  0  0
 15 16  1  0  0  0  0
 15 53  1  0  0  0  0
 16 17  1  0  0  0  0
 16 30  2  0  0  0  0
 17 18  1  0  0  0  0
 18 19  1  0  0  0  0
 18 29  2  0  0  0  0
 19 20  2  0  0  0  0
 19 54  1  0  0  0  0
 20 21  1  0  0  0  0
 20 55  1  0  0  0  0
 21 22  2  0  0  0  0
 22 23  1  0  0  0  0
 22 29  1  0  0  0  0
 23 24  1  0  0  0  0
 23 56  1  0  0  0  0
 24 25  2  0  0  0  0
 24 26  1  0  0  0  0
 26 27  1  0  0  0  0
 26 28  1  0  0  0  0
 26 57  1  0  0  0  0
 27 28  1  0  0  0  0
 27 58  1  0  0  0  0
 27 59  1  0  0  0  0
 28 60  1  0  0  0  0
 28 61  1  0  0  0  0
 29 62  1  0  0  0  0
 30 31  1  0  0  0  0
 30 63  1  0  0  0  0
 32 33  2  0  0  0  0
 32 64  1  0  0  0  0
 33 34  1  0  0  0  0
 33 38  1  0  0  0  0
 34 35  1  0  0  0  0
 34 36  1  0  0  0  0
 34 37  1  0  0  0  0
 38 65  1  0  0  0  0
 39 40  1  0  0  0  0
 39 66  1  0  0  0  0
 39 67  1  0  0  0  0
 40 68  1  0  0  0  0
 40 69  1  0  0  0  0
M  END
$$$$
