CHEMBL221053
 OpenBabel04072215363D

 49 52  0  0  0  0  0  0  0  0999 V2000
    4.1941   -0.8287    1.6556 C   0  0  0  0  0  0  0  0  0  0  0  0
    3.0758   -0.5613    0.6620 C   0  0  0  0  0  0  0  0  0  0  0  0
    3.5308   -0.7435   -0.7642 C   0  0  0  0  0  0  0  0  0  0  0  0
    4.0997    0.3419   -1.4443 C   0  0  0  0  0  0  0  0  0  0  0  0
    4.5052    0.2037   -2.7611 C   0  0  0  0  0  0  0  0  0  0  0  0
    4.3793   -1.0285   -3.3959 C   0  0  0  0  0  0  0  0  0  0  0  0
    3.8933   -2.1546   -2.7175 C   0  0  0  0  0  0  0  0  0  0  0  0
    3.8855   -3.4547   -3.3030 N   0  0  0  0  0  0  0  0  0  0  0  0
    4.6664   -3.8014   -4.3824 C   0  0  0  0  0  0  0  0  0  0  0  0
    5.4249   -3.0209   -4.9428 O   0  0  0  0  0  0  0  0  0  0  0  0
    4.5275   -5.1191   -4.7768 N   0  0  0  0  0  0  0  0  0  0  0  0
    5.2990   -5.6912   -5.8236 C   0  0  0  0  0  0  0  0  0  0  0  0
    6.5007   -5.1289   -6.2592 C   0  0  0  0  0  0  0  0  0  0  0  0
    7.1338   -5.5658   -7.4226 C   0  0  0  0  0  0  0  0  0  0  0  0
    6.6391   -6.6483   -8.1540 C   0  0  0  0  0  0  0  0  0  0  0  0
    7.2721   -7.0575   -9.4266 C   0  0  0  0  0  0  0  0  0  0  0  0
    8.6701   -6.9256   -9.6376 C   0  0  0  0  0  0  0  0  0  0  0  0
    9.3005   -7.3668  -10.8012 C   0  0  0  0  0  0  0  0  0  0  0  0
    8.5778   -8.0170  -11.7952 C   0  0  0  0  0  0  0  0  0  0  0  0
    7.1951   -8.1186  -11.6113 C   0  0  0  0  0  0  0  0  0  0  0  0
    6.2348   -8.7042  -12.3857 N   0  0  0  0  0  0  0  0  0  0  0  0
    4.9806   -8.4676  -11.9818 N   0  0  0  0  0  0  0  0  0  0  0  0
    5.1380   -7.7699  -10.8630 C   0  0  0  0  0  0  0  0  0  0  0  0
    4.0833   -7.2575  -10.2060 N   0  0  0  0  0  0  0  0  0  0  0  0
    6.5155   -7.6017  -10.5052 C   0  0  0  0  0  0  0  0  0  0  0  0
    5.5359   -7.3249   -7.5970 C   0  0  0  0  0  0  0  0  0  0  0  0
    4.8439   -6.8340   -6.4729 C   0  0  0  0  0  0  0  0  0  0  0  0
    3.4340   -1.9932   -1.4060 C   0  0  0  0  0  0  0  0  0  0  0  0
    3.8329   -0.6810    2.6779 H   0  0  0  0  0  0  0  0  0  0  0  0
    5.0402   -0.1509    1.4950 H   0  0  0  0  0  0  0  0  0  0  0  0
    4.5659   -1.8550    1.5693 H   0  0  0  0  0  0  0  0  0  0  0  0
    2.7038    0.4622    0.7952 H   0  0  0  0  0  0  0  0  0  0  0  0
    2.2244   -1.2220    0.8652 H   0  0  0  0  0  0  0  0  0  0  0  0
    4.2194    1.3066   -0.9509 H   0  0  0  0  0  0  0  0  0  0  0  0
    4.9398    1.0440   -3.2994 H   0  0  0  0  0  0  0  0  0  0  0  0
    4.6896   -1.0685   -4.4360 H   0  0  0  0  0  0  0  0  0  0  0  0
    3.5180   -4.2057   -2.7381 H   0  0  0  0  0  0  0  0  0  0  0  0
    3.6559   -5.5801   -4.5409 H   0  0  0  0  0  0  0  0  0  0  0  0
    6.9699   -4.3038   -5.7329 H   0  0  0  0  0  0  0  0  0  0  0  0
    8.0090   -5.0116   -7.7508 H   0  0  0  0  0  0  0  0  0  0  0  0
    9.2982   -6.4764   -8.8698 H   0  0  0  0  0  0  0  0  0  0  0  0
   10.3726   -7.2239  -10.9185 H   0  0  0  0  0  0  0  0  0  0  0  0
    9.0679   -8.4037  -12.6823 H   0  0  0  0  0  0  0  0  0  0  0  0
    6.3723   -9.2604  -13.2211 H   0  0  0  0  0  0  0  0  0  0  0  0
    3.2057   -7.2680  -10.7090 H   0  0  0  0  0  0  0  0  0  0  0  0
    4.2154   -6.4156   -9.6578 H   0  0  0  0  0  0  0  0  0  0  0  0
    5.1582   -8.2299   -8.0690 H   0  0  0  0  0  0  0  0  0  0  0  0
    3.9384   -7.3454   -6.1592 H   0  0  0  0  0  0  0  0  0  0  0  0
    3.0297   -2.8386   -0.8590 H   0  0  0  0  0  0  0  0  0  0  0  0
  1  2  1  0  0  0  0
  1 29  1  0  0  0  0
  1 30  1  0  0  0  0
  1 31  1  0  0  0  0
  2  3  1  0  0  0  0
  2 32  1  0  0  0  0
  2 33  1  0  0  0  0
  3  4  1  0  0  0  0
  3 28  2  0  0  0  0
  4  5  2  0  0  0  0
  4 34  1  0  0  0  0
  5  6  1  0  0  0  0
  5 35  1  0  0  0  0
  6  7  2  0  0  0  0
  6 36  1  0  0  0  0
  7  8  1  0  0  0  0
  7 28  1  0  0  0  0
  8  9  1  0  0  0  0
  8 37  1  0  0  0  0
  9 10  2  0  0  0  0
  9 11  1  0  0  0  0
 11 12  1  0  0  0  0
 11 38  1  0  0  0  0
 12 13  1  0  0  0  0
 12 27  2  0  0  0  0
 13 14  2  0  0  0  0
 13 39  1  0  0  0  0
 14 15  1  0  0  0  0
 14 40  1  0  0  0  0
 15 16  1  0  0  0  0
 15 26  2  0  0  0  0
 16 17  1  0  0  0  0
 16 25  2  0  0  0  0
 17 18  2  0  0  0  0
 17 41  1  0  0  0  0
 18 19  1  0  0  0  0
 18 42  1  0  0  0  0
 19 20  2  0  0  0  0
 19 43  1  0  0  0  0
 20 21  1  0  0  0  0
 20 25  1  0  0  0  0
 21 22  1  0  0  0  0
 21 44  1  0  0  0  0
 22 23  2  0  0  0  0
 23 24  1  0  0  0  0
 23 25  1  0  0  0  0
 24 45  1  0  0  0  0
 24 46  1  0  0  0  0
 26 27  1  0  0  0  0
 26 47  1  0  0  0  0
 27 48  1  0  0  0  0
 28 49  1  0  0  0  0
M  END
$$$$
