CHEMBL279459
 OpenBabel04072215363D

 51 54  0  0  0  0  0  0  0  0999 V2000
    2.7438    0.8946   -0.8190 C   0  0  0  0  0  0  0  0  0  0  0  0
    2.7803   -0.2757   -0.0035 O   0  0  0  0  0  0  0  0  0  0  0  0
    3.3850   -0.1874    1.2202 C   0  0  0  0  0  0  0  0  0  0  0  0
    4.5079    0.6209    1.3611 C   0  0  0  0  0  0  0  0  0  0  0  0
    5.1044    0.8391    2.6074 C   0  0  0  0  0  0  0  0  0  0  0  0
    6.1570    1.7491    2.7862 C   0  0  0  0  0  0  0  0  0  0  0  0
    6.5311    2.5820    1.6916 N   0  0  0  0  0  0  0  0  0  0  0  0
    7.7581    3.2752    1.5993 C   0  0  0  0  0  0  0  0  0  0  0  0
    8.9858    2.6492    1.8513 C   0  0  0  0  0  0  0  0  0  0  0  0
    9.0336    1.3339    2.1186 F   0  0  0  0  0  0  0  0  0  0  0  0
   10.1874    3.3503    1.7955 C   0  0  0  0  0  0  0  0  0  0  0  0
   10.1718    4.7023    1.4660 C   0  0  0  0  0  0  0  0  0  0  0  0
   11.7914    5.6747    1.4487 Br  0  0  0  0  0  0  0  0  0  0  0  0
    8.9746    5.3425    1.1542 C   0  0  0  0  0  0  0  0  0  0  0  0
    7.7854    4.6208    1.2148 C   0  0  0  0  0  0  0  0  0  0  0  0
    6.6334    5.2397    0.9070 F   0  0  0  0  0  0  0  0  0  0  0  0
    6.7547    1.9174    3.9749 N   0  0  0  0  0  0  0  0  0  0  0  0
    6.2777    1.1738    4.9774 C   0  0  0  0  0  0  0  0  0  0  0  0
    5.2504    0.3065    4.9214 N   0  0  0  0  0  0  0  0  0  0  0  0
    4.6634    0.1320    3.7268 C   0  0  0  0  0  0  0  0  0  0  0  0
    3.5938   -0.7568    3.5629 C   0  0  0  0  0  0  0  0  0  0  0  0
    2.9381   -0.9410    2.3265 C   0  0  0  0  0  0  0  0  0  0  0  0
    1.9016   -1.8766    2.3508 O   0  0  0  0  0  0  0  0  0  0  0  0
    1.3125   -2.1125    1.0761 C   0  0  0  0  0  0  0  0  0  0  0  0
    0.1872   -3.1586    0.9593 C   0  0  0  0  0  0  0  0  0  0  0  0
    0.5654   -4.5946    1.3435 C   0  0  0  0  0  0  0  0  0  0  0  0
    1.5035   -5.2623    0.3297 C   0  0  0  0  0  0  0  0  0  0  0  0
    1.0042   -5.1921   -1.0422 N   0  0  0  0  0  0  0  0  0  0  0  0
    0.7458   -3.8122   -1.4462 C   0  0  0  0  0  0  0  0  0  0  0  0
   -0.2819   -3.1519   -0.5180 C   0  0  0  0  0  0  0  0  0  0  0  0
    3.2309    0.6595   -1.7691 H   0  0  0  0  0  0  0  0  0  0  0  0
    3.2081    1.7861   -0.3867 H   0  0  0  0  0  0  0  0  0  0  0  0
    1.6973    1.1454   -1.0141 H   0  0  0  0  0  0  0  0  0  0  0  0
    4.9518    1.0800    0.4805 H   0  0  0  0  0  0  0  0  0  0  0  0
    5.7468    3.1905    1.4613 H   0  0  0  0  0  0  0  0  0  0  0  0
   11.1117    2.8249    2.0131 H   0  0  0  0  0  0  0  0  0  0  0  0
    8.9489    6.3915    0.8769 H   0  0  0  0  0  0  0  0  0  0  0  0
    6.7583    1.2934    5.9430 H   0  0  0  0  0  0  0  0  0  0  0  0
    3.2578   -1.3237    4.4300 H   0  0  0  0  0  0  0  0  0  0  0  0
    2.1051   -2.4204    0.3972 H   0  0  0  0  0  0  0  0  0  0  0  0
    0.8441   -1.1705    0.7663 H   0  0  0  0  0  0  0  0  0  0  0  0
   -0.6415   -2.8441    1.6066 H   0  0  0  0  0  0  0  0  0  0  0  0
   -0.3588   -5.1892    1.3894 H   0  0  0  0  0  0  0  0  0  0  0  0
    1.0035   -4.6268    2.3466 H   0  0  0  0  0  0  0  0  0  0  0  0
    1.6205   -6.3195    0.6002 H   0  0  0  0  0  0  0  0  0  0  0  0
    2.5037   -4.8181    0.3915 H   0  0  0  0  0  0  0  0  0  0  0  0
    0.1361   -5.7220   -1.1089 H   0  0  0  0  0  0  0  0  0  0  0  0
    0.3717   -3.8029   -2.4752 H   0  0  0  0  0  0  0  0  0  0  0  0
    1.6887   -3.2523   -1.4745 H   0  0  0  0  0  0  0  0  0  0  0  0
   -1.2383   -3.6818   -0.6031 H   0  0  0  0  0  0  0  0  0  0  0  0
   -0.4640   -2.1241   -0.8559 H   0  0  0  0  0  0  0  0  0  0  0  0
  1  2  1  0  0  0  0
  1 31  1  0  0  0  0
  1 32  1  0  0  0  0
  1 33  1  0  0  0  0
  2  3  1  0  0  0  0
  3  4  1  0  0  0  0
  3 22  2  0  0  0  0
  4  5  2  0  0  0  0
  4 34  1  0  0  0  0
  5  6  1  0  0  0  0
  5 20  1  0  0  0  0
  6  7  1  0  0  0  0
  6 17  2  0  0  0  0
  7  8  1  0  0  0  0
  7 35  1  0  0  0  0
  8  9  1  0  0  0  0
  8 15  2  0  0  0  0
  9 10  1  0  0  0  0
  9 11  2  0  0  0  0
 11 12  1  0  0  0  0
 11 36  1  0  0  0  0
 12 13  1  0  0  0  0
 12 14  2  0  0  0  0
 14 15  1  0  0  0  0
 14 37  1  0  0  0  0
 15 16  1  0  0  0  0
 17 18  1  0  0  0  0
 18 19  2  0  0  0  0
 18 38  1  0  0  0  0
 19 20  1  0  0  0  0
 20 21  2  0  0  0  0
 21 22  1  0  0  0  0
 21 39  1  0  0  0  0
 22 23  1  0  0  0  0
 23 24  1  0  0  0  0
 24 25  1  0  0  0  0
 24 40  1  0  0  0  0
 24 41  1  0  0  0  0
 25 26  1  0  0  0  0
 25 30  1  0  0  0  0
 25 42  1  0  0  0  0
 26 27  1  0  0  0  0
 26 43  1  0  0  0  0
 26 44  1  0  0  0  0
 27 28  1  0  0  0  0
 27 45  1  0  0  0  0
 27 46  1  0  0  0  0
 28 29  1  0  0  0  0
 28 47  1  0  0  0  0
 29 30  1  0  0  0  0
 29 48  1  0  0  0  0
 29 49  1  0  0  0  0
 30 50  1  0  0  0  0
 30 51  1  0  0  0  0
M  END
$$$$
