CHEMBL2063326
 OpenBabel04072215363D

 74 78  0  0  0  0  0  0  0  0999 V2000
    3.8106   -0.0085   -0.5928 O   0  0  0  0  0  0  0  0  0  0  0  0
    3.1630   -0.4839   -1.5132 C   0  0  0  0  0  0  0  0  0  0  0  0
    2.4897   -1.6662   -1.4639 N   0  0  0  0  0  0  0  0  0  0  0  0
    2.4078   -2.4715   -0.2721 C   0  0  0  0  0  0  0  0  0  0  0  0
    3.3687   -3.6288   -0.3193 C   0  0  0  0  0  0  0  0  0  0  0  0
    4.6754   -3.4651    0.1539 C   0  0  0  0  0  0  0  0  0  0  0  0
    5.5788   -4.5270    0.1150 C   0  0  0  0  0  0  0  0  0  0  0  0
    5.1988   -5.7704   -0.4095 C   0  0  0  0  0  0  0  0  0  0  0  0
    6.1509   -6.8777   -0.4087 C   0  0  0  0  0  0  0  0  0  0  0  0
    7.1448   -7.1280    0.5734 C   0  0  0  0  0  0  0  0  0  0  0  0
    7.8182   -8.2494    0.1587 C   0  0  0  0  0  0  0  0  0  0  0  0
    8.8829   -8.8986    0.7759 N   0  0  0  0  0  0  0  0  0  0  0  0
    9.2400   -8.6514    2.1500 C   0  0  0  0  0  0  0  0  0  0  0  0
    8.5455   -7.9280    2.8504 O   0  0  0  0  0  0  0  0  0  0  0  0
   10.4558   -9.2979    2.7063 C   0  0  0  0  0  0  0  0  0  0  0  0
   11.2735  -10.1627    1.9705 C   0  0  0  0  0  0  0  0  0  0  0  0
   12.4419  -10.6760    2.5487 C   0  0  0  0  0  0  0  0  0  0  0  0
   12.8096  -10.3166    3.8460 C   0  0  0  0  0  0  0  0  0  0  0  0
   13.9646  -10.6976    4.4698 O   0  0  0  0  0  0  0  0  0  0  0  0
   15.0558  -11.0122    3.5951 C   0  0  0  0  0  0  0  0  0  0  0  0
   16.3770  -10.7817    4.3436 C   0  0  0  0  0  0  0  0  0  0  0  0
   17.5701  -10.9316    3.4910 N   0  0  0  0  0  0  0  0  0  0  0  0
   17.7602  -12.2975    2.9548 C   0  0  0  0  0  0  0  0  0  0  0  0
   18.2285  -13.3256    3.9975 C   0  0  0  0  0  0  0  0  0  0  0  0
   19.4296  -12.8968    4.6480 O   0  0  0  0  0  0  0  0  0  0  0  0
   19.2493  -11.6138    5.2598 C   0  0  0  0  0  0  0  0  0  0  0  0
   18.8019  -10.5615    4.2294 C   0  0  0  0  0  0  0  0  0  0  0  0
   11.9648   -9.5070    4.6006 C   0  0  0  0  0  0  0  0  0  0  0  0
   10.8009   -8.9956    4.0321 C   0  0  0  0  0  0  0  0  0  0  0  0
    7.2317   -8.5920   -1.0305 N   0  0  0  0  0  0  0  0  0  0  0  0
    6.1960   -7.8097   -1.3734 N   0  0  0  0  0  0  0  0  0  0  0  0
    3.8997   -5.9304   -0.9036 C   0  0  0  0  0  0  0  0  0  0  0  0
    2.9900   -4.8675   -0.8564 C   0  0  0  0  0  0  0  0  0  0  0  0
    2.9410    0.1069   -2.7119 O   0  0  0  0  0  0  0  0  0  0  0  0
    3.2804    1.4974   -2.7846 C   0  0  0  0  0  0  0  0  0  0  0  0
    4.4110    1.7519   -3.7487 C   0  0  0  0  0  0  0  0  0  0  0  0
    4.1586    1.9601   -5.1124 C   0  0  0  0  0  0  0  0  0  0  0  0
    5.2038    2.2589   -5.9897 C   0  0  0  0  0  0  0  0  0  0  0  0
    6.5113    2.3433   -5.5153 C   0  0  0  0  0  0  0  0  0  0  0  0
    6.7762    2.1211   -4.1652 C   0  0  0  0  0  0  0  0  0  0  0  0
    5.7327    1.8210   -3.2865 C   0  0  0  0  0  0  0  0  0  0  0  0
    2.0107   -1.9531   -2.3040 H   0  0  0  0  0  0  0  0  0  0  0  0
    1.3785   -2.8373   -0.1854 H   0  0  0  0  0  0  0  0  0  0  0  0
    2.6005   -1.8583    0.6167 H   0  0  0  0  0  0  0  0  0  0  0  0
    4.9970   -2.5045    0.5541 H   0  0  0  0  0  0  0  0  0  0  0  0
    6.5860   -4.3606    0.4887 H   0  0  0  0  0  0  0  0  0  0  0  0
    7.3220   -6.5349    1.4584 H   0  0  0  0  0  0  0  0  0  0  0  0
    9.3882   -9.5811    0.2323 H   0  0  0  0  0  0  0  0  0  0  0  0
   11.0557  -10.4559    0.9512 H   0  0  0  0  0  0  0  0  0  0  0  0
   13.0564  -11.3535    1.9605 H   0  0  0  0  0  0  0  0  0  0  0  0
   15.0481  -10.3699    2.7057 H   0  0  0  0  0  0  0  0  0  0  0  0
   14.9544  -12.0610    3.2983 H   0  0  0  0  0  0  0  0  0  0  0  0
   16.4072  -11.4224    5.2322 H   0  0  0  0  0  0  0  0  0  0  0  0
   16.3486   -9.7515    4.7256 H   0  0  0  0  0  0  0  0  0  0  0  0
   18.5276  -12.2297    2.1722 H   0  0  0  0  0  0  0  0  0  0  0  0
   16.8605  -12.6573    2.4462 H   0  0  0  0  0  0  0  0  0  0  0  0
   18.4472  -14.2757    3.4994 H   0  0  0  0  0  0  0  0  0  0  0  0
   17.4566  -13.5186    4.7508 H   0  0  0  0  0  0  0  0  0  0  0  0
   20.2098  -11.3187    5.6936 H   0  0  0  0  0  0  0  0  0  0  0  0
   18.5326  -11.7062    6.0836 H   0  0  0  0  0  0  0  0  0  0  0  0
   19.6023  -10.4427    3.4873 H   0  0  0  0  0  0  0  0  0  0  0  0
   18.6854   -9.5834    4.7104 H   0  0  0  0  0  0  0  0  0  0  0  0
   12.2291   -9.2512    5.6247 H   0  0  0  0  0  0  0  0  0  0  0  0
   10.1709   -8.3375    4.6378 H   0  0  0  0  0  0  0  0  0  0  0  0
    7.4585   -9.3651   -1.6453 H   0  0  0  0  0  0  0  0  0  0  0  0
    3.5843   -6.8861   -1.3175 H   0  0  0  0  0  0  0  0  0  0  0  0
    1.9822   -5.0160   -1.2381 H   0  0  0  0  0  0  0  0  0  0  0  0
    3.5059    1.9401   -1.8068 H   0  0  0  0  0  0  0  0  0  0  0  0
    2.3846    2.0219   -3.1388 H   0  0  0  0  0  0  0  0  0  0  0  0
    3.1425    1.9090   -5.4972 H   0  0  0  0  0  0  0  0  0  0  0  0
    4.9968    2.4346   -7.0424 H   0  0  0  0  0  0  0  0  0  0  0  0
    7.3234    2.5835   -6.1968 H   0  0  0  0  0  0  0  0  0  0  0  0
    7.7954    2.1902   -3.7939 H   0  0  0  0  0  0  0  0  0  0  0  0
    5.9529    1.6592   -2.2329 H   0  0  0  0  0  0  0  0  0  0  0  0
  1  2  2  0  0  0  0
  2  3  1  0  0  0  0
  2 34  1  0  0  0  0
  3  4  1  0  0  0  0
  3 42  1  0  0  0  0
  4  5  1  0  0  0  0
  4 43  1  0  0  0  0
  4 44  1  0  0  0  0
  5  6  1  0  0  0  0
  5 33  2  0  0  0  0
  6  7  2  0  0  0  0
  6 45  1  0  0  0  0
  7  8  1  0  0  0  0
  7 46  1  0  0  0  0
  8  9  1  0  0  0  0
  8 32  2  0  0  0  0
  9 10  1  0  0  0  0
  9 31  2  0  0  0  0
 10 11  2  0  0  0  0
 10 47  1  0  0  0  0
 11 12  1  0  0  0  0
 11 30  1  0  0  0  0
 12 13  1  0  0  0  0
 12 48  1  0  0  0  0
 13 14  2  0  0  0  0
 13 15  1  0  0  0  0
 15 16  1  0  0  0  0
 15 29  2  0  0  0  0
 16 17  2  0  0  0  0
 16 49  1  0  0  0  0
 17 18  1  0  0  0  0
 17 50  1  0  0  0  0
 18 19  1  0  0  0  0
 18 28  2  0  0  0  0
 19 20  1  0  0  0  0
 20 21  1  0  0  0  0
 20 51  1  0  0  0  0
 20 52  1  0  0  0  0
 21 22  1  0  0  0  0
 21 53  1  0  0  0  0
 21 54  1  0  0  0  0
 22 23  1  0  0  0  0
 22 27  1  0  0  0  0
 23 24  1  0  0  0  0
 23 55  1  0  0  0  0
 23 56  1  0  0  0  0
 24 25  1  0  0  0  0
 24 57  1  0  0  0  0
 24 58  1  0  0  0  0
 25 26  1  0  0  0  0
 26 27  1  0  0  0  0
 26 59  1  0  0  0  0
 26 60  1  0  0  0  0
 27 61  1  0  0  0  0
 27 62  1  0  0  0  0
 28 29  1  0  0  0  0
 28 63  1  0  0  0  0
 29 64  1  0  0  0  0
 30 31  1  0  0  0  0
 30 65  1  0  0  0  0
 32 33  1  0  0  0  0
 32 66  1  0  0  0  0
 33 67  1  0  0  0  0
 34 35  1  0  0  0  0
 35 36  1  0  0  0  0
 35 68  1  0  0  0  0
 35 69  1  0  0  0  0
 36 37  1  0  0  0  0
 36 41  2  0  0  0  0
 37 38  2  0  0  0  0
 37 70  1  0  0  0  0
 38 39  1  0  0  0  0
 38 71  1  0  0  0  0
 39 40  2  0  0  0  0
 39 72  1  0  0  0  0
 40 41  1  0  0  0  0
 40 73  1  0  0  0  0
 41 74  1  0  0  0  0
M  END
$$$$
