CHEMBL3966022
 OpenBabel04072215373D

 67 71  0  0  0  0  0  0  0  0999 V2000
    4.3275    5.6431    0.4178 C   0  0  0  0  0  0  0  0  0  0  0  0
    4.4782    4.2265    0.5698 O   0  0  0  0  0  0  0  0  0  0  0  0
    5.5380    3.7932    1.3384 C   0  0  0  0  0  0  0  0  0  0  0  0
    6.5329    4.6332    1.8177 C   0  0  0  0  0  0  0  0  0  0  0  0
    7.5697    4.1103    2.5851 C   0  0  0  0  0  0  0  0  0  0  0  0
    8.5891    4.8337    3.1427 O   0  0  0  0  0  0  0  0  0  0  0  0
    8.4490    6.2448    3.0668 C   0  0  0  0  0  0  0  0  0  0  0  0
    7.6149    2.7500    2.8918 C   0  0  0  0  0  0  0  0  0  0  0  0
    6.5826    1.8850    2.5522 C   0  0  0  0  0  0  0  0  0  0  0  0
    6.6150    0.5497    3.0499 N   0  0  0  0  0  0  0  0  0  0  0  0
    5.2765   -0.1752    2.9929 C   0  0  0  0  0  0  0  0  0  0  0  0
    4.5707   -0.0218    4.3095 C   0  0  0  0  0  0  0  0  0  0  0  0
    5.1678   -0.6844    5.5268 C   0  0  0  0  0  0  0  0  0  0  0  0
    3.8136   -1.1064    5.0491 C   0  0  0  0  0  0  0  0  0  0  0  0
    7.6880   -0.2523    3.6326 C   0  0  0  0  0  0  0  0  0  0  0  0
    7.7715   -1.4914    3.0502 C   0  0  0  0  0  0  0  0  0  0  0  0
    8.3741   -2.4955    3.7335 C   0  0  0  0  0  0  0  0  0  0  0  0
    9.0265   -2.3478    4.9128 C   0  0  0  0  0  0  0  0  0  0  0  0
    9.0640   -3.5711    5.3403 N   0  0  0  0  0  0  0  0  0  0  0  0
   10.1370   -3.9756    5.9524 C   0  0  0  0  0  0  0  0  0  0  0  0
   11.0641   -3.1879    6.5420 C   0  0  0  0  0  0  0  0  0  0  0  0
   12.0918   -4.1880    7.1793 C   0  0  0  0  0  0  0  0  0  0  0  0
   12.3861   -4.5131    8.5270 C   0  0  0  0  0  0  0  0  0  0  0  0
   12.8372   -5.7700    8.7455 N   0  0  0  0  0  0  0  0  0  0  0  0
   12.8268   -6.3747    7.5380 N   0  0  0  0  0  0  0  0  0  0  0  0
   13.2389   -7.7776    7.3652 C   0  0  0  0  0  0  0  0  0  0  0  0
   12.5393   -8.9125    8.1821 C   0  0  0  0  0  0  0  0  0  0  0  0
   11.0858   -9.0924    7.9155 N   0  0  0  0  0  0  0  0  0  0  0  0
   10.6602   -9.7372    6.4163 S   0  0  0  0  0  0  0  0  0  0  0  0
    8.8844   -9.5962    6.4430 C   0  0  0  0  0  0  0  0  0  0  0  0
   11.1449   -8.8003    5.4215 O   0  0  0  0  0  0  0  0  0  0  0  0
   11.0284  -11.1320    6.4013 O   0  0  0  0  0  0  0  0  0  0  0  0
   12.4089   -5.4504    6.5771 C   0  0  0  0  0  0  0  0  0  0  0  0
   10.7794   -1.7735    6.4409 N   0  0  0  0  0  0  0  0  0  0  0  0
    9.5932   -1.2292    5.4603 C   0  0  0  0  0  0  0  0  0  0  0  0
    8.6505   -0.0672    4.7640 C   0  0  0  0  0  0  0  0  0  0  0  0
    5.5867    2.4281    1.6769 C   0  0  0  0  0  0  0  0  0  0  0  0
    3.3598    5.8503   -0.0534 H   0  0  0  0  0  0  0  0  0  0  0  0
    5.1042    6.0573   -0.2364 H   0  0  0  0  0  0  0  0  0  0  0  0
    4.3237    6.1643    1.3832 H   0  0  0  0  0  0  0  0  0  0  0  0
    6.5052    5.6932    1.6008 H   0  0  0  0  0  0  0  0  0  0  0  0
    9.2595    6.6893    3.6475 H   0  0  0  0  0  0  0  0  0  0  0  0
    7.5002    6.5770    3.5028 H   0  0  0  0  0  0  0  0  0  0  0  0
    8.5471    6.5755    2.0290 H   0  0  0  0  0  0  0  0  0  0  0  0
    8.4680    2.3787    3.4428 H   0  0  0  0  0  0  0  0  0  0  0  0
    5.3474   -1.2342    2.7136 H   0  0  0  0  0  0  0  0  0  0  0  0
    4.6023    0.2039    2.2168 H   0  0  0  0  0  0  0  0  0  0  0  0
    4.1260    0.9641    4.3825 H   0  0  0  0  0  0  0  0  0  0  0  0
    5.2835   -0.0531    6.3972 H   0  0  0  0  0  0  0  0  0  0  0  0
    5.9492   -1.4283    5.4198 H   0  0  0  0  0  0  0  0  0  0  0  0
    2.9831   -0.8146    5.6846 H   0  0  0  0  0  0  0  0  0  0  0  0
    3.7171   -2.0982    4.6248 H   0  0  0  0  0  0  0  0  0  0  0  0
    7.2189   -1.7874    2.1687 H   0  0  0  0  0  0  0  0  0  0  0  0
    8.2720   -3.5070    3.3469 H   0  0  0  0  0  0  0  0  0  0  0  0
   10.2205   -5.0345    5.8244 H   0  0  0  0  0  0  0  0  0  0  0  0
   12.2028   -3.9574    9.4324 H   0  0  0  0  0  0  0  0  0  0  0  0
   14.2984   -7.8086    7.6553 H   0  0  0  0  0  0  0  0  0  0  0  0
   13.2279   -8.0290    6.2971 H   0  0  0  0  0  0  0  0  0  0  0  0
   12.6529   -8.7353    9.2573 H   0  0  0  0  0  0  0  0  0  0  0  0
   13.0327   -9.8836    7.9999 H   0  0  0  0  0  0  0  0  0  0  0  0
   10.5390   -8.2842    8.2123 H   0  0  0  0  0  0  0  0  0  0  0  0
    8.6218   -8.5480    6.6126 H   0  0  0  0  0  0  0  0  0  0  0  0
    8.4754  -10.2392    7.2214 H   0  0  0  0  0  0  0  0  0  0  0  0
    8.5137   -9.9021    5.4603 H   0  0  0  0  0  0  0  0  0  0  0  0
   12.2487   -5.8263    5.5667 H   0  0  0  0  0  0  0  0  0  0  0  0
    8.6942    0.9364    5.2086 H   0  0  0  0  0  0  0  0  0  0  0  0
    4.8367    1.8115    1.1833 H   0  0  0  0  0  0  0  0  0  0  0  0
  1  2  1  0  0  0  0
  1 38  1  0  0  0  0
  1 39  1  0  0  0  0
  1 40  1  0  0  0  0
  2  3  1  0  0  0  0
  3  4  1  0  0  0  0
  3 37  2  0  0  0  0
  4  5  2  0  0  0  0
  4 41  1  0  0  0  0
  5  6  1  0  0  0  0
  5  8  1  0  0  0  0
  6  7  1  0  0  0  0
  7 42  1  0  0  0  0
  7 43  1  0  0  0  0
  7 44  1  0  0  0  0
  8  9  2  0  0  0  0
  8 45  1  0  0  0  0
  9 10  1  0  0  0  0
  9 37  1  0  0  0  0
 10 11  1  0  0  0  0
 10 15  1  0  0  0  0
 11 12  1  0  0  0  0
 11 46  1  0  0  0  0
 11 47  1  0  0  0  0
 12 13  1  0  0  0  0
 12 14  1  0  0  0  0
 12 48  1  0  0  0  0
 13 14  1  0  0  0  0
 13 49  1  0  0  0  0
 13 50  1  0  0  0  0
 14 51  1  0  0  0  0
 14 52  1  0  0  0  0
 15 16  1  0  0  0  0
 15 36  2  0  0  0  0
 16 17  2  0  0  0  0
 16 53  1  0  0  0  0
 17 18  1  0  0  0  0
 17 54  1  0  0  0  0
 18 19  1  0  0  0  0
 18 35  2  0  0  0  0
 19 20  2  0  0  0  0
 20 21  1  0  0  0  0
 20 55  1  0  0  0  0
 21 22  1  0  0  0  0
 21 34  2  0  0  0  0
 22 23  1  0  0  0  0
 22 33  2  0  0  0  0
 23 24  2  0  0  0  0
 23 56  1  0  0  0  0
 24 25  1  0  0  0  0
 25 26  1  0  0  0  0
 25 33  1  0  0  0  0
 26 27  1  0  0  0  0
 26 57  1  0  0  0  0
 26 58  1  0  0  0  0
 27 28  1  0  0  0  0
 27 59  1  0  0  0  0
 27 60  1  0  0  0  0
 28 29  1  0  0  0  0
 28 61  1  0  0  0  0
 29 30  1  0  0  0  0
 29 31  2  0  0  0  0
 29 32  2  0  0  0  0
 30 62  1  0  0  0  0
 30 63  1  0  0  0  0
 30 64  1  0  0  0  0
 33 65  1  0  0  0  0
 34 35  1  0  0  0  0
 35 36  1  0  0  0  0
 36 66  1  0  0  0  0
 37 67  1  0  0  0  0
M  END
$$$$
