CHEMBL223604
 OpenBabel04072215363D

 54 58  0  0  0  0  0  0  0  0999 V2000
    0.9297   -1.2483   -1.1164 C   0  0  0  0  0  0  0  0  0  0  0  0
    2.3451   -1.3325   -1.2153 O   0  0  0  0  0  0  0  0  0  0  0  0
    2.8905   -0.2173   -1.9219 C   0  0  0  0  0  0  0  0  0  0  0  0
    4.4064   -0.3675   -1.9914 C   0  0  0  0  0  0  0  0  0  0  0  0
    4.9642    0.7458   -2.6912 O   0  0  0  0  0  0  0  0  0  0  0  0
    6.3219    0.7257   -2.8840 C   0  0  0  0  0  0  0  0  0  0  0  0
    7.2000   -0.2638   -2.3897 C   0  0  0  0  0  0  0  0  0  0  0  0
    8.5740   -0.2205   -2.6536 C   0  0  0  0  0  0  0  0  0  0  0  0
    9.0361    0.8264   -3.4136 C   0  0  0  0  0  0  0  0  0  0  0  0
    8.1776    1.8456   -3.9056 C   0  0  0  0  0  0  0  0  0  0  0  0
    6.8180    1.7960   -3.6414 C   0  0  0  0  0  0  0  0  0  0  0  0
    8.9160    2.9193   -4.7235 C   0  0  0  0  0  0  0  0  0  0  0  0
   10.2792    2.3291   -4.6240 C   0  0  0  0  0  0  0  0  0  0  0  0
   11.6054    2.5709   -4.9949 C   0  0  0  0  0  0  0  0  0  0  0  0
   12.0756    3.7447   -5.7353 C   0  0  0  0  0  0  0  0  0  0  0  0
   13.3489    4.2664   -5.6451 C   0  0  0  0  0  0  0  0  0  0  0  0
   13.5281    5.6943   -6.5680 S   0  0  0  0  0  0  0  0  0  0  0  0
   11.9101    5.6180   -7.1116 C   0  0  0  0  0  0  0  0  0  0  0  0
   11.3310    6.6059   -7.9571 C   0  0  0  0  0  0  0  0  0  0  0  0
   10.8961    7.4757   -8.6637 C   0  0  0  0  0  0  0  0  0  0  0  0
   10.4766    8.5656   -9.5458 C   0  0  0  0  0  0  0  0  0  0  0  0
    9.1159    8.9160   -9.2939 O   0  0  0  0  0  0  0  0  0  0  0  0
    8.6127    9.9274  -10.0736 C   0  0  0  0  0  0  0  0  0  0  0  0
    9.3273   10.6343  -11.0451 C   0  0  0  0  0  0  0  0  0  0  0  0
    8.7109   11.6496  -11.7783 C   0  0  0  0  0  0  0  0  0  0  0  0
    7.3743   11.9634  -11.5497 C   0  0  0  0  0  0  0  0  0  0  0  0
    6.6525   11.2612  -10.5866 C   0  0  0  0  0  0  0  0  0  0  0  0
    7.2718   10.2483   -9.8490 C   0  0  0  0  0  0  0  0  0  0  0  0
   11.2559    4.5067   -6.6249 C   0  0  0  0  0  0  0  0  0  0  0  0
   12.4273    1.6124   -4.5182 N   0  0  0  0  0  0  0  0  0  0  0  0
   11.6040    0.7600   -3.8509 N   0  0  0  0  0  0  0  0  0  0  0  0
   10.3253    1.1760   -3.8915 C   0  0  0  0  0  0  0  0  0  0  0  0
    0.5703   -2.1209   -0.5641 H   0  0  0  0  0  0  0  0  0  0  0  0
    0.4759   -1.2535   -2.1120 H   0  0  0  0  0  0  0  0  0  0  0  0
    0.6373   -0.3454   -0.5720 H   0  0  0  0  0  0  0  0  0  0  0  0
    2.6306    0.7161   -1.4089 H   0  0  0  0  0  0  0  0  0  0  0  0
    2.4724   -0.1737   -2.9346 H   0  0  0  0  0  0  0  0  0  0  0  0
    4.6432   -1.3066   -2.5074 H   0  0  0  0  0  0  0  0  0  0  0  0
    4.8043   -0.4142   -0.9700 H   0  0  0  0  0  0  0  0  0  0  0  0
    6.8334   -1.0930   -1.7914 H   0  0  0  0  0  0  0  0  0  0  0  0
    9.2351   -0.9900   -2.2730 H   0  0  0  0  0  0  0  0  0  0  0  0
    6.1479    2.5615   -4.0193 H   0  0  0  0  0  0  0  0  0  0  0  0
    8.8557    3.8967   -4.2381 H   0  0  0  0  0  0  0  0  0  0  0  0
    8.5488    2.9407   -5.7517 H   0  0  0  0  0  0  0  0  0  0  0  0
   14.1734    3.8907   -5.0538 H   0  0  0  0  0  0  0  0  0  0  0  0
   10.5912    8.2381  -10.5852 H   0  0  0  0  0  0  0  0  0  0  0  0
   11.1243    9.4313   -9.3559 H   0  0  0  0  0  0  0  0  0  0  0  0
   10.3693   10.4255  -11.2626 H   0  0  0  0  0  0  0  0  0  0  0  0
    9.2790   12.1925  -12.5294 H   0  0  0  0  0  0  0  0  0  0  0  0
    6.8973   12.7535  -12.1232 H   0  0  0  0  0  0  0  0  0  0  0  0
    5.6071   11.5013  -10.4103 H   0  0  0  0  0  0  0  0  0  0  0  0
    6.7025    9.7069   -9.0971 H   0  0  0  0  0  0  0  0  0  0  0  0
   10.2312    4.2747   -6.8836 H   0  0  0  0  0  0  0  0  0  0  0  0
   12.0056   -0.0548   -3.3983 H   0  0  0  0  0  0  0  0  0  0  0  0
  1  2  1  0  0  0  0
  1 33  1  0  0  0  0
  1 34  1  0  0  0  0
  1 35  1  0  0  0  0
  2  3  1  0  0  0  0
  3  4  1  0  0  0  0
  3 36  1  0  0  0  0
  3 37  1  0  0  0  0
  4  5  1  0  0  0  0
  4 38  1  0  0  0  0
  4 39  1  0  0  0  0
  5  6  1  0  0  0  0
  6  7  1  0  0  0  0
  6 11  2  0  0  0  0
  7  8  2  0  0  0  0
  7 40  1  0  0  0  0
  8  9  1  0  0  0  0
  8 41  1  0  0  0  0
  9 10  2  0  0  0  0
  9 32  1  0  0  0  0
 10 11  1  0  0  0  0
 10 12  1  0  0  0  0
 11 42  1  0  0  0  0
 12 13  1  0  0  0  0
 12 43  1  0  0  0  0
 12 44  1  0  0  0  0
 13 14  1  0  0  0  0
 13 32  2  0  0  0  0
 14 15  1  0  0  0  0
 14 30  2  0  0  0  0
 15 16  2  0  0  0  0
 15 29  1  0  0  0  0
 16 17  1  0  0  0  0
 16 45  1  0  0  0  0
 17 18  1  0  0  0  0
 18 19  1  0  0  0  0
 18 29  2  0  0  0  0
 19 20  3  0  0  0  0
 20 21  1  0  0  0  0
 21 22  1  0  0  0  0
 21 46  1  0  0  0  0
 21 47  1  0  0  0  0
 22 23  1  0  0  0  0
 23 24  1  0  0  0  0
 23 28  2  0  0  0  0
 24 25  2  0  0  0  0
 24 48  1  0  0  0  0
 25 26  1  0  0  0  0
 25 49  1  0  0  0  0
 26 27  2  0  0  0  0
 26 50  1  0  0  0  0
 27 28  1  0  0  0  0
 27 51  1  0  0  0  0
 28 52  1  0  0  0  0
 29 53  1  0  0  0  0
 30 31  1  0  0  0  0
 31 32  1  0  0  0  0
 31 54  1  0  0  0  0
M  END
$$$$
