CHEMBL4587222
 OpenBabel04072215383D

 87 92  0  0  1  0  0  0  0  0999 V2000
    2.8082   -2.5989   -4.2205 C   0  0  0  0  0  0  0  0  0  0  0  0
    2.6175   -3.9215   -3.4906 C   0  0  0  0  0  0  0  0  0  0  0  0
    2.5835   -3.8143   -2.0215 N   0  0  0  0  0  0  0  0  0  0  0  0
    3.8308   -3.2618   -1.4470 C   0  0  0  0  0  0  0  0  0  0  0  0
    5.0542   -4.1963   -1.5903 C   0  0  0  0  0  0  0  0  0  0  0  0
    4.8554   -5.5417   -1.0116 N   0  0  0  0  0  0  0  0  0  0  0  0
    4.7814   -5.5487    0.4545 C   0  0  0  0  0  0  0  0  0  0  0  0
    5.9854   -4.9517    1.1768 C   0  0  0  0  0  0  0  0  0  0  0  0
    5.7248   -5.0266    2.6766 C   0  0  0  0  0  0  0  0  0  0  0  0
    5.8726   -6.3033    3.2795 O   0  0  0  0  0  0  0  0  0  0  0  0
    6.9127   -7.1306    2.9589 C   0  0  0  0  0  0  0  0  0  0  0  0
    6.4815   -8.4634    2.7980 C   0  0  0  0  0  0  0  0  0  0  0  0
    7.3519   -9.5225    2.5470 C   0  0  0  0  0  0  0  0  0  0  0  0
    6.8374  -10.7631    2.4354 N   0  0  0  0  0  0  0  0  0  0  0  0
    7.6958  -11.7908    2.2870 C   0  0  0  0  0  0  0  0  0  0  0  0
    9.0659  -11.6459    2.2477 C   0  0  0  0  0  0  0  0  0  0  0  0
    9.5954  -10.3537    2.2616 C   0  0  0  0  0  0  0  0  0  0  0  0
   10.9625  -10.1028    2.1640 O   0  0  0  0  0  0  0  0  0  0  0  0
   11.7598  -11.0302    1.5247 C   0  0  0  0  0  0  0  0  0  0  0  0
   11.4133  -11.6212    0.3145 C   0  0  0  0  0  0  0  0  0  0  0  0
   10.3197  -11.2242   -0.3517 F   0  0  0  0  0  0  0  0  0  0  0  0
   12.1483  -12.6792   -0.2078 C   0  0  0  0  0  0  0  0  0  0  0  0
   13.3034  -13.1394    0.4328 C   0  0  0  0  0  0  0  0  0  0  0  0
   14.0353  -14.2500   -0.0596 N   0  0  0  0  0  0  0  0  0  0  0  0
   13.5331  -15.1780   -0.9664 C   0  0  0  0  0  0  0  0  0  0  0  0
   12.3466  -15.3452   -1.2278 O   0  0  0  0  0  0  0  0  0  0  0  0
   14.5362  -15.8928   -1.6113 N   0  0  0  0  0  0  0  0  0  0  0  0
   14.1921  -16.6114   -2.7981 N   0  0  0  0  0  0  0  0  0  0  0  0
   13.5528  -15.9605   -3.8506 C   0  0  0  0  0  0  0  0  0  0  0  0
   13.4632  -14.7441   -3.9882 O   0  0  0  0  0  0  0  0  0  0  0  0
   12.9542  -16.9440   -4.8338 C   0  0  0  0  0  0  0  0  0  0  0  0
   13.5095  -18.6006   -4.3595 S   0  0  0  0  0  0  0  0  0  0  0  0
   14.1209  -18.0539   -2.7424 C   0  0  3  0  0  0  0  0  0  0  0  0
   15.4386  -18.6744   -2.3636 C   0  0  0  0  0  0  0  0  0  0  0  0
   16.6055  -18.4883   -3.1119 C   0  0  0  0  0  0  0  0  0  0  0  0
   16.5741  -17.7977   -4.2589 F   0  0  0  0  0  0  0  0  0  0  0  0
   17.8369  -18.9839   -2.6780 C   0  0  0  0  0  0  0  0  0  0  0  0
   17.9178  -19.6753   -1.4744 C   0  0  0  0  0  0  0  0  0  0  0  0
   16.7629  -19.8940   -0.7244 C   0  0  0  0  0  0  0  0  0  0  0  0
   15.5415  -19.3993   -1.1781 C   0  0  0  0  0  0  0  0  0  0  0  0
   14.4531  -19.5963   -0.4211 F   0  0  0  0  0  0  0  0  0  0  0  0
   13.7537  -12.4381    1.5575 C   0  0  0  0  0  0  0  0  0  0  0  0
   12.9760  -11.4002    2.0979 C   0  0  0  0  0  0  0  0  0  0  0  0
   13.4141  -10.7807    3.2060 F   0  0  0  0  0  0  0  0  0  0  0  0
    8.7227   -9.2528    2.4430 C   0  0  0  0  0  0  0  0  0  0  0  0
    9.1500   -7.9127    2.5463 C   0  0  0  0  0  0  0  0  0  0  0  0
    8.2715   -6.8424    2.8248 C   0  0  0  0  0  0  0  0  0  0  0  0
    8.9431   -5.6638    2.8503 O   0  0  0  0  0  0  0  0  0  0  0  0
    8.5783   -4.6164    3.7268 C   0  0  0  0  0  0  0  0  0  0  0  0
    3.5935   -6.1134   -1.5437 C   0  0  0  0  0  0  0  0  0  0  0  0
    2.3658   -5.1630   -1.4395 C   0  0  0  0  0  0  0  0  0  0  0  0
    2.7779   -2.7749   -5.3009 H   0  0  0  0  0  0  0  0  0  0  0  0
    3.7767   -2.1411   -4.0002 H   0  0  0  0  0  0  0  0  0  0  0  0
    2.0152   -1.8889   -3.9689 H   0  0  0  0  0  0  0  0  0  0  0  0
    3.3915   -4.6149   -3.8353 H   0  0  0  0  0  0  0  0  0  0  0  0
    1.6581   -4.3371   -3.8234 H   0  0  0  0  0  0  0  0  0  0  0  0
    3.6575   -3.0564   -0.3820 H   0  0  0  0  0  0  0  0  0  0  0  0
    4.0609   -2.2794   -1.8722 H   0  0  0  0  0  0  0  0  0  0  0  0
    5.9424   -3.7105   -1.1721 H   0  0  0  0  0  0  0  0  0  0  0  0
    5.2959   -4.3143   -2.6533 H   0  0  0  0  0  0  0  0  0  0  0  0
    4.6734   -6.5898    0.7843 H   0  0  0  0  0  0  0  0  0  0  0  0
    3.8876   -5.0199    0.8025 H   0  0  0  0  0  0  0  0  0  0  0  0
    6.1103   -3.8954    0.9191 H   0  0  0  0  0  0  0  0  0  0  0  0
    6.8984   -5.4726    0.8751 H   0  0  0  0  0  0  0  0  0  0  0  0
    4.6831   -4.7317    2.8641 H   0  0  0  0  0  0  0  0  0  0  0  0
    6.2752   -4.2749    3.2313 H   0  0  0  0  0  0  0  0  0  0  0  0
    5.4212   -8.6865    2.8683 H   0  0  0  0  0  0  0  0  0  0  0  0
    7.2383  -12.7715    2.2021 H   0  0  0  0  0  0  0  0  0  0  0  0
    9.6834  -12.5313    2.1760 H   0  0  0  0  0  0  0  0  0  0  0  0
   11.7895  -13.1210   -1.1312 H   0  0  0  0  0  0  0  0  0  0  0  0
   14.9569  -14.4140    0.3185 H   0  0  0  0  0  0  0  0  0  0  0  0
   15.2689  -16.2948   -1.0397 H   0  0  0  0  0  0  0  0  0  0  0  0
   13.2897  -16.7085   -5.8467 H   0  0  0  0  0  0  0  0  0  0  0  0
   11.8629  -16.8962   -4.7788 H   0  0  0  0  0  0  0  0  0  0  0  0
   13.3375  -18.3130   -2.0222 H   0  0  0  0  0  0  0  0  0  0  0  0
   18.7274  -18.8053   -3.2794 H   0  0  0  0  0  0  0  0  0  0  0  0
   18.8754  -20.0461   -1.1162 H   0  0  0  0  0  0  0  0  0  0  0  0
   16.8044  -20.4368    0.2154 H   0  0  0  0  0  0  0  0  0  0  0  0
   14.6822  -12.7003    2.0590 H   0  0  0  0  0  0  0  0  0  0  0  0
   10.2084   -7.6823    2.4323 H   0  0  0  0  0  0  0  0  0  0  0  0
    9.4829   -4.2319    4.2103 H   0  0  0  0  0  0  0  0  0  0  0  0
    7.8774   -4.9076    4.5136 H   0  0  0  0  0  0  0  0  0  0  0  0
    8.1981   -3.7874    3.1218 H   0  0  0  0  0  0  0  0  0  0  0  0
    3.3633   -7.0581   -1.0336 H   0  0  0  0  0  0  0  0  0  0  0  0
    3.7584   -6.3908   -2.5907 H   0  0  0  0  0  0  0  0  0  0  0  0
    2.0870   -5.0368   -0.3855 H   0  0  0  0  0  0  0  0  0  0  0  0
    1.4939   -5.6405   -1.9028 H   0  0  0  0  0  0  0  0  0  0  0  0
  1  2  1  0  0  0  0
  1 52  1  0  0  0  0
  1 53  1  0  0  0  0
  1 54  1  0  0  0  0
  2  3  1  0  0  0  0
  2 55  1  0  0  0  0
  2 56  1  0  0  0  0
  3  4  1  0  0  0  0
  3 51  1  0  0  0  0
  4  5  1  0  0  0  0
  4 57  1  0  0  0  0
  4 58  1  0  0  0  0
  5  6  1  0  0  0  0
  5 59  1  0  0  0  0
  5 60  1  0  0  0  0
  6  7  1  0  0  0  0
  6 50  1  0  0  0  0
  7  8  1  0  0  0  0
  7 61  1  0  0  0  0
  7 62  1  0  0  0  0
  8  9  1  0  0  0  0
  8 63  1  0  0  0  0
  8 64  1  0  0  0  0
  9 10  1  0  0  0  0
  9 65  1  0  0  0  0
  9 66  1  0  0  0  0
 10 11  1  0  0  0  0
 11 12  1  0  0  0  0
 11 47  2  0  0  0  0
 12 13  2  0  0  0  0
 12 67  1  0  0  0  0
 13 14  1  0  0  0  0
 13 45  1  0  0  0  0
 14 15  2  0  0  0  0
 15 16  1  0  0  0  0
 15 68  1  0  0  0  0
 16 17  2  0  0  0  0
 16 69  1  0  0  0  0
 17 18  1  0  0  0  0
 17 45  1  0  0  0  0
 18 19  1  0  0  0  0
 19 20  1  0  0  0  0
 19 43  2  0  0  0  0
 20 21  1  0  0  0  0
 20 22  2  0  0  0  0
 22 23  1  0  0  0  0
 22 70  1  0  0  0  0
 23 24  1  0  0  0  0
 23 42  2  0  0  0  0
 24 25  1  0  0  0  0
 24 71  1  0  0  0  0
 25 26  2  0  0  0  0
 25 27  1  0  0  0  0
 27 28  1  0  0  0  0
 27 72  1  0  0  0  0
 28 29  1  0  0  0  0
 28 33  1  0  0  0  0
 29 30  2  0  0  0  0
 29 31  1  0  0  0  0
 31 32  1  0  0  0  0
 31 73  1  0  0  0  0
 31 74  1  0  0  0  0
 32 33  1  0  0  0  0
 33 34  1  0  0  0  0
 33 75  1  0  0  0  0
 34 35  1  0  0  0  0
 34 40  2  0  0  0  0
 35 36  1  0  0  0  0
 35 37  2  0  0  0  0
 37 38  1  0  0  0  0
 37 76  1  0  0  0  0
 38 39  2  0  0  0  0
 38 77  1  0  0  0  0
 39 40  1  0  0  0  0
 39 78  1  0  0  0  0
 40 41  1  0  0  0  0
 42 43  1  0  0  0  0
 42 79  1  0  0  0  0
 43 44  1  0  0  0  0
 45 46  2  0  0  0  0
 46 47  1  0  0  0  0
 46 80  1  0  0  0  0
 47 48  1  0  0  0  0
 48 49  1  0  0  0  0
 49 81  1  0  0  0  0
 49 82  1  0  0  0  0
 49 83  1  0  0  0  0
 50 51  1  0  0  0  0
 50 84  1  0  0  0  0
 50 85  1  0  0  0  0
 51 86  1  0  0  0  0
 51 87  1  0  0  0  0
M  END
$$$$
