CHEMBL3954731
 OpenBabel04072215373D

 52 55  0  0  0  0  0  0  0  0999 V2000
    2.9465   -1.4887   -0.2245 C   0  0  0  0  0  0  0  0  0  0  0  0
    2.3952   -0.1806   -0.0749 O   0  0  0  0  0  0  0  0  0  0  0  0
    3.0143    0.8456   -0.7372 C   0  0  0  0  0  0  0  0  0  0  0  0
    4.2018    0.6229   -1.4365 C   0  0  0  0  0  0  0  0  0  0  0  0
    4.6979    1.5432   -2.3598 C   0  0  0  0  0  0  0  0  0  0  0  0
    5.7051    1.2284   -3.2840 C   0  0  0  0  0  0  0  0  0  0  0  0
    6.1994   -0.1037   -3.3419 N   0  0  0  0  0  0  0  0  0  0  0  0
    6.6397   -0.8610   -4.4416 C   0  0  0  0  0  0  0  0  0  0  0  0
    6.2132   -0.6037   -5.7492 C   0  0  0  0  0  0  0  0  0  0  0  0
    6.5536   -1.4631   -6.8008 C   0  0  0  0  0  0  0  0  0  0  0  0
    7.3460   -2.5861   -6.5625 C   0  0  0  0  0  0  0  0  0  0  0  0
    7.6542   -3.6551   -7.8833 Cl  0  0  0  0  0  0  0  0  0  0  0  0
    7.8302   -2.8241   -5.2743 C   0  0  0  0  0  0  0  0  0  0  0  0
    8.8368   -4.1788   -4.8983 Cl  0  0  0  0  0  0  0  0  0  0  0  0
    7.4775   -1.9655   -4.2247 C   0  0  0  0  0  0  0  0  0  0  0  0
    6.1397    2.1168   -4.1753 N   0  0  0  0  0  0  0  0  0  0  0  0
    5.5775    3.3370   -4.1179 C   0  0  0  0  0  0  0  0  0  0  0  0
    4.5903    3.7274   -3.3018 N   0  0  0  0  0  0  0  0  0  0  0  0
    4.1239    2.8122   -2.4332 C   0  0  0  0  0  0  0  0  0  0  0  0
    3.0291    3.0976   -1.6163 C   0  0  0  0  0  0  0  0  0  0  0  0
    2.4394    2.1249   -0.7849 C   0  0  0  0  0  0  0  0  0  0  0  0
    1.3254    2.5704   -0.1115 O   0  0  0  0  0  0  0  0  0  0  0  0
    0.6999    1.6370    0.7696 C   0  0  0  0  0  0  0  0  0  0  0  0
   -0.4467    2.2703    1.5658 C   0  0  0  0  0  0  0  0  0  0  0  0
    0.0663    3.4140    2.4532 C   0  0  0  0  0  0  0  0  0  0  0  0
   -1.0160    3.9310    3.3957 C   0  0  0  0  0  0  0  0  0  0  0  0
   -1.5966    2.8012    4.2385 C   0  0  0  0  0  0  0  0  0  0  0  0
   -2.1813    1.7086    3.3529 C   0  0  0  0  0  0  0  0  0  0  0  0
   -1.1348    1.1645    2.3893 C   0  0  0  0  0  0  0  0  0  0  0  0
    2.1863   -2.2261    0.0414 H   0  0  0  0  0  0  0  0  0  0  0  0
    3.7954   -1.5927    0.4581 H   0  0  0  0  0  0  0  0  0  0  0  0
    3.2415   -1.7132   -1.2566 H   0  0  0  0  0  0  0  0  0  0  0  0
    4.7304   -0.3121   -1.3093 H   0  0  0  0  0  0  0  0  0  0  0  0
    6.4946   -0.4550   -2.4407 H   0  0  0  0  0  0  0  0  0  0  0  0
    5.5701    0.2477   -5.9605 H   0  0  0  0  0  0  0  0  0  0  0  0
    6.1715   -1.2606   -7.7986 H   0  0  0  0  0  0  0  0  0  0  0  0
    7.8544   -2.1725   -3.2261 H   0  0  0  0  0  0  0  0  0  0  0  0
    5.9552    4.0729   -4.8167 H   0  0  0  0  0  0  0  0  0  0  0  0
    2.5874    4.0914   -1.6602 H   0  0  0  0  0  0  0  0  0  0  0  0
    1.4344    1.2598    1.4920 H   0  0  0  0  0  0  0  0  0  0  0  0
    0.2764    0.8178    0.1748 H   0  0  0  0  0  0  0  0  0  0  0  0
   -1.1754    2.6950    0.8631 H   0  0  0  0  0  0  0  0  0  0  0  0
    0.4238    4.2403    1.8274 H   0  0  0  0  0  0  0  0  0  0  0  0
    0.9243    3.0731    3.0469 H   0  0  0  0  0  0  0  0  0  0  0  0
   -1.8160    4.4018    2.8113 H   0  0  0  0  0  0  0  0  0  0  0  0
   -0.5971    4.7034    4.0492 H   0  0  0  0  0  0  0  0  0  0  0  0
   -2.3744    3.1939    4.9015 H   0  0  0  0  0  0  0  0  0  0  0  0
   -0.8108    2.3765    4.8760 H   0  0  0  0  0  0  0  0  0  0  0  0
   -3.0305    2.1062    2.7851 H   0  0  0  0  0  0  0  0  0  0  0  0
   -2.5660    0.8923    3.9756 H   0  0  0  0  0  0  0  0  0  0  0  0
   -1.6094    0.4424    1.7133 H   0  0  0  0  0  0  0  0  0  0  0  0
   -0.3839    0.6047    2.9630 H   0  0  0  0  0  0  0  0  0  0  0  0
  1  2  1  0  0  0  0
  1 30  1  0  0  0  0
  1 31  1  0  0  0  0
  1 32  1  0  0  0  0
  2  3  1  0  0  0  0
  3  4  1  0  0  0  0
  3 21  2  0  0  0  0
  4  5  2  0  0  0  0
  4 33  1  0  0  0  0
  5  6  1  0  0  0  0
  5 19  1  0  0  0  0
  6  7  1  0  0  0  0
  6 16  2  0  0  0  0
  7  8  1  0  0  0  0
  7 34  1  0  0  0  0
  8  9  1  0  0  0  0
  8 15  2  0  0  0  0
  9 10  2  0  0  0  0
  9 35  1  0  0  0  0
 10 11  1  0  0  0  0
 10 36  1  0  0  0  0
 11 12  1  0  0  0  0
 11 13  2  0  0  0  0
 13 14  1  0  0  0  0
 13 15  1  0  0  0  0
 15 37  1  0  0  0  0
 16 17  1  0  0  0  0
 17 18  2  0  0  0  0
 17 38  1  0  0  0  0
 18 19  1  0  0  0  0
 19 20  2  0  0  0  0
 20 21  1  0  0  0  0
 20 39  1  0  0  0  0
 21 22  1  0  0  0  0
 22 23  1  0  0  0  0
 23 24  1  0  0  0  0
 23 40  1  0  0  0  0
 23 41  1  0  0  0  0
 24 25  1  0  0  0  0
 24 29  1  0  0  0  0
 24 42  1  0  0  0  0
 25 26  1  0  0  0  0
 25 43  1  0  0  0  0
 25 44  1  0  0  0  0
 26 27  1  0  0  0  0
 26 45  1  0  0  0  0
 26 46  1  0  0  0  0
 27 28  1  0  0  0  0
 27 47  1  0  0  0  0
 27 48  1  0  0  0  0
 28 29  1  0  0  0  0
 28 49  1  0  0  0  0
 28 50  1  0  0  0  0
 29 51  1  0  0  0  0
 29 52  1  0  0  0  0
M  END
$$$$
