CHEMBL3694685
 OpenBabel04072215373D

 51 54  0  0  0  0  0  0  0  0999 V2000
    2.2590   -0.2946    1.6066 C   0  0  0  0  0  0  0  0  0  0  0  0
    2.4349   -0.0464    0.1168 C   0  0  0  0  0  0  0  0  0  0  0  0
    1.2551    0.4433   -0.3630 F   0  0  0  0  0  0  0  0  0  0  0  0
    3.3329    0.9706   -0.0295 F   0  0  0  0  0  0  0  0  0  0  0  0
    2.8625   -1.2812   -0.6026 C   0  0  0  0  0  0  0  0  0  0  0  0
    1.9596   -2.1808   -1.1237 C   0  0  0  0  0  0  0  0  0  0  0  0
    2.3152   -3.3094   -1.7679 N   0  0  0  0  0  0  0  0  0  0  0  0
    3.6352   -3.5407   -1.9038 C   0  0  0  0  0  0  0  0  0  0  0  0
    4.0753   -4.7727   -2.6148 C   0  0  0  0  0  0  0  0  0  0  0  0
    5.4976   -5.0796   -2.8293 C   0  0  0  0  0  0  0  0  0  0  0  0
    5.8623   -6.2132   -3.4485 C   0  0  0  0  0  0  0  0  0  0  0  0
    4.8895   -7.1267   -3.8645 N   0  0  0  0  0  0  0  0  0  0  0  0
    4.9980   -8.4019   -4.4240 C   0  0  0  0  0  0  0  0  0  0  0  0
    6.2289   -9.1926   -4.6010 C   0  0  0  0  0  0  0  0  0  0  0  0
    7.2806   -9.0768   -3.6835 C   0  0  0  0  0  0  0  0  0  0  0  0
    8.4604   -9.7897   -3.8514 C   0  0  0  0  0  0  0  0  0  0  0  0
    8.5761  -10.7014   -4.8923 C   0  0  0  0  0  0  0  0  0  0  0  0
    7.5190  -10.9263   -5.7731 C   0  0  0  0  0  0  0  0  0  0  0  0
    7.5689  -11.9264   -6.7826 N   0  0  0  0  0  0  0  0  0  0  0  0
    8.5829  -12.8451   -6.9558 C   0  0  0  0  0  0  0  0  0  0  0  0
    9.6045  -12.9622   -6.2892 O   0  0  0  0  0  0  0  0  0  0  0  0
    8.3805  -13.6663   -8.0443 N   0  0  0  0  0  0  0  0  0  0  0  0
    9.3910  -14.6988   -8.3230 C   0  0  0  0  0  0  0  0  0  0  0  0
    9.3381  -15.9618   -7.4477 C   0  0  0  0  0  0  0  0  0  0  0  0
    8.2344  -15.9978   -6.6670 F   0  0  0  0  0  0  0  0  0  0  0  0
    9.2917  -17.0647   -8.2389 F   0  0  0  0  0  0  0  0  0  0  0  0
   10.4222  -16.0881   -6.6544 F   0  0  0  0  0  0  0  0  0  0  0  0
    6.3581  -10.1393   -5.6427 C   0  0  0  0  0  0  0  0  0  0  0  0
    3.6826   -8.7515   -4.6917 C   0  0  0  0  0  0  0  0  0  0  0  0
    2.7926   -7.7990   -4.2733 N   0  0  0  0  0  0  0  0  0  0  0  0
    3.5292   -6.8486   -3.7418 C   0  0  0  0  0  0  0  0  0  0  0  0
    3.1478   -5.6399   -3.0897 C   0  0  0  0  0  0  0  0  0  0  0  0
    4.5974   -2.7246   -1.4262 N   0  0  0  0  0  0  0  0  0  0  0  0
    4.1859   -1.6105   -0.7890 C   0  0  0  0  0  0  0  0  0  0  0  0
    1.9220    0.6234    2.0993 H   0  0  0  0  0  0  0  0  0  0  0  0
    3.2017   -0.5950    2.0756 H   0  0  0  0  0  0  0  0  0  0  0  0
    1.5075   -1.0675    1.7987 H   0  0  0  0  0  0  0  0  0  0  0  0
    0.8867   -2.0217   -1.0415 H   0  0  0  0  0  0  0  0  0  0  0  0
    6.2422   -4.3704   -2.4790 H   0  0  0  0  0  0  0  0  0  0  0  0
    6.9017   -6.4423   -3.6360 H   0  0  0  0  0  0  0  0  0  0  0  0
    7.2018   -8.4429   -2.8056 H   0  0  0  0  0  0  0  0  0  0  0  0
    9.2853   -9.6565   -3.1573 H   0  0  0  0  0  0  0  0  0  0  0  0
    9.5174  -11.2334   -4.9711 H   0  0  0  0  0  0  0  0  0  0  0  0
    6.7700  -12.0021   -7.3891 H   0  0  0  0  0  0  0  0  0  0  0  0
    7.4249  -13.8772   -8.2912 H   0  0  0  0  0  0  0  0  0  0  0  0
   10.3849  -14.2446   -8.2243 H   0  0  0  0  0  0  0  0  0  0  0  0
    9.2679  -14.9721   -9.3743 H   0  0  0  0  0  0  0  0  0  0  0  0
    5.5363  -10.2707   -6.3445 H   0  0  0  0  0  0  0  0  0  0  0  0
    3.3257   -9.6744   -5.1307 H   0  0  0  0  0  0  0  0  0  0  0  0
    2.0824   -5.4631   -2.9775 H   0  0  0  0  0  0  0  0  0  0  0  0
    4.9873   -0.9709   -0.4241 H   0  0  0  0  0  0  0  0  0  0  0  0
  1  2  1  0  0  0  0
  1 35  1  0  0  0  0
  1 36  1  0  0  0  0
  1 37  1  0  0  0  0
  2  3  1  0  0  0  0
  2  4  1  0  0  0  0
  2  5  1  0  0  0  0
  5  6  1  0  0  0  0
  5 34  2  0  0  0  0
  6  7  2  0  0  0  0
  6 38  1  0  0  0  0
  7  8  1  0  0  0  0
  8  9  1  0  0  0  0
  8 33  2  0  0  0  0
  9 10  1  0  0  0  0
  9 32  2  0  0  0  0
 10 11  2  0  0  0  0
 10 39  1  0  0  0  0
 11 12  1  0  0  0  0
 11 40  1  0  0  0  0
 12 13  1  0  0  0  0
 12 31  1  0  0  0  0
 13 14  1  0  0  0  0
 13 29  2  0  0  0  0
 14 15  1  0  0  0  0
 14 28  2  0  0  0  0
 15 16  2  0  0  0  0
 15 41  1  0  0  0  0
 16 17  1  0  0  0  0
 16 42  1  0  0  0  0
 17 18  2  0  0  0  0
 17 43  1  0  0  0  0
 18 19  1  0  0  0  0
 18 28  1  0  0  0  0
 19 20  1  0  0  0  0
 19 44  1  0  0  0  0
 20 21  2  0  0  0  0
 20 22  1  0  0  0  0
 22 23  1  0  0  0  0
 22 45  1  0  0  0  0
 23 24  1  0  0  0  0
 23 46  1  0  0  0  0
 23 47  1  0  0  0  0
 24 25  1  0  0  0  0
 24 26  1  0  0  0  0
 24 27  1  0  0  0  0
 28 48  1  0  0  0  0
 29 30  1  0  0  0  0
 29 49  1  0  0  0  0
 30 31  2  0  0  0  0
 31 32  1  0  0  0  0
 32 50  1  0  0  0  0
 33 34  1  0  0  0  0
 34 51  1  0  0  0  0
M  END
$$$$
