CHEMBL365318
 OpenBabel04072215373D

 51 54  0  0  0  0  0  0  0  0999 V2000
   -1.5958   -9.2496    2.5113 C   0  0  0  0  0  0  0  0  0  0  0  0
   -1.9639   -8.0506    1.8324 O   0  0  0  0  0  0  0  0  0  0  0  0
   -0.8086   -7.2435    1.7042 N   0  0  0  0  0  0  0  0  0  0  0  0
   -0.1196   -7.3948    0.5212 C   0  0  0  0  0  0  0  0  0  0  0  0
   -0.3129   -8.2915   -0.2947 O   0  0  0  0  0  0  0  0  0  0  0  0
    0.9592   -6.4132    0.2604 C   0  0  0  0  0  0  0  0  0  0  0  0
    2.0392   -6.8204   -0.5378 C   0  0  0  0  0  0  0  0  0  0  0  0
    3.0639   -5.9286   -0.8758 C   0  0  0  0  0  0  0  0  0  0  0  0
    4.1723   -6.3085   -1.6580 N   0  0  0  0  0  0  0  0  0  0  0  0
    4.6423   -7.5844   -1.8583 C   0  0  0  0  0  0  0  0  0  0  0  0
    4.5773   -8.4303   -0.8648 N   0  0  0  0  0  0  0  0  0  0  0  0
    5.0747   -9.6929   -0.9996 C   0  0  0  0  0  0  0  0  0  0  0  0
    5.6168  -10.1967   -2.0563 N   0  0  0  0  0  0  0  0  0  0  0  0
    5.6730   -9.3517   -3.0936 N   0  0  0  0  0  0  0  0  0  0  0  0
    6.1574   -9.6928   -4.3188 C   0  0  0  0  0  0  0  0  0  0  0  0
    6.0570   -8.5958   -5.1395 C   0  0  0  0  0  0  0  0  0  0  0  0
    6.4809   -8.6286   -6.5756 C   0  0  0  0  0  0  0  0  0  0  0  0
    6.5489   -7.5672   -7.3609 N   0  0  0  0  0  0  0  0  0  0  0  0
    6.9008   -8.0037   -8.6158 N   0  0  0  0  0  0  0  0  0  0  0  0
    7.0283   -9.3066   -8.5245 C   0  0  0  0  0  0  0  0  0  0  0  0
    7.2987  -10.2885   -9.5869 C   0  0  0  0  0  0  0  0  0  0  0  0
    6.8136   -9.7796   -7.2597 O   0  0  0  0  0  0  0  0  0  0  0  0
    5.4530   -7.5237   -4.3796 C   0  0  0  0  0  0  0  0  0  0  0  0
    5.0899   -6.1744   -4.9736 C   0  0  0  0  0  0  0  0  0  0  0  0
    3.5891   -5.8882   -4.9646 C   0  0  0  0  0  0  0  0  0  0  0  0
    5.9405   -5.0172   -4.4549 C   0  0  0  0  0  0  0  0  0  0  0  0
    5.2395   -8.0485   -3.0957 C   0  0  0  0  0  0  0  0  0  0  0  0
    2.9899   -4.6235   -0.3637 C   0  0  0  0  0  0  0  0  0  0  0  0
    3.9581   -3.7439   -0.6632 F   0  0  0  0  0  0  0  0  0  0  0  0
    1.9385   -4.2092    0.4484 C   0  0  0  0  0  0  0  0  0  0  0  0
    0.9260   -5.1106    0.7551 C   0  0  0  0  0  0  0  0  0  0  0  0
   -0.0889   -4.6956    1.5277 F   0  0  0  0  0  0  0  0  0  0  0  0
   -2.4920   -9.8608    2.6422 H   0  0  0  0  0  0  0  0  0  0  0  0
   -1.1795   -9.0170    3.4965 H   0  0  0  0  0  0  0  0  0  0  0  0
   -0.8696   -9.8202    1.9227 H   0  0  0  0  0  0  0  0  0  0  0  0
   -0.8584   -6.3412    2.1674 H   0  0  0  0  0  0  0  0  0  0  0  0
    2.0559   -7.8416   -0.9163 H   0  0  0  0  0  0  0  0  0  0  0  0
    4.5143   -5.5695   -2.2495 H   0  0  0  0  0  0  0  0  0  0  0  0
    4.9965  -10.3336   -0.1028 H   0  0  0  0  0  0  0  0  0  0  0  0
    6.5283  -10.6932   -4.4972 H   0  0  0  0  0  0  0  0  0  0  0  0
    7.6294   -9.7824  -10.4991 H   0  0  0  0  0  0  0  0  0  0  0  0
    6.3880  -10.8472   -9.8223 H   0  0  0  0  0  0  0  0  0  0  0  0
    8.0759  -10.9950   -9.2848 H   0  0  0  0  0  0  0  0  0  0  0  0
    5.3248   -6.2058   -6.0395 H   0  0  0  0  0  0  0  0  0  0  0  0
    3.1548   -5.8776   -3.9667 H   0  0  0  0  0  0  0  0  0  0  0  0
    3.0553   -6.6544   -5.5417 H   0  0  0  0  0  0  0  0  0  0  0  0
    3.3787   -4.9206   -5.4329 H   0  0  0  0  0  0  0  0  0  0  0  0
    5.7345   -4.7500   -3.4197 H   0  0  0  0  0  0  0  0  0  0  0  0
    5.7639   -4.1205   -5.0601 H   0  0  0  0  0  0  0  0  0  0  0  0
    7.0075   -5.2567   -4.5248 H   0  0  0  0  0  0  0  0  0  0  0  0
    1.9084   -3.1958    0.8326 H   0  0  0  0  0  0  0  0  0  0  0  0
  1  2  1  0  0  0  0
  1 33  1  0  0  0  0
  1 34  1  0  0  0  0
  1 35  1  0  0  0  0
  2  3  1  0  0  0  0
  3  4  1  0  0  0  0
  3 36  1  0  0  0  0
  4  5  2  0  0  0  0
  4  6  1  0  0  0  0
  6  7  1  0  0  0  0
  6 31  2  0  0  0  0
  7  8  2  0  0  0  0
  7 37  1  0  0  0  0
  8  9  1  0  0  0  0
  8 28  1  0  0  0  0
  9 10  1  0  0  0  0
  9 38  1  0  0  0  0
 10 11  2  0  0  0  0
 10 27  1  0  0  0  0
 11 12  1  0  0  0  0
 12 13  2  0  0  0  0
 12 39  1  0  0  0  0
 13 14  1  0  0  0  0
 14 15  1  0  0  0  0
 14 27  1  0  0  0  0
 15 16  2  0  0  0  0
 15 40  1  0  0  0  0
 16 17  1  0  0  0  0
 16 23  1  0  0  0  0
 17 18  2  0  0  0  0
 17 22  1  0  0  0  0
 18 19  1  0  0  0  0
 19 20  2  0  0  0  0
 20 21  1  0  0  0  0
 20 22  1  0  0  0  0
 21 41  1  0  0  0  0
 21 42  1  0  0  0  0
 21 43  1  0  0  0  0
 23 24  1  0  0  0  0
 23 27  2  0  0  0  0
 24 25  1  0  0  0  0
 24 26  1  0  0  0  0
 24 44  1  0  0  0  0
 25 45  1  0  0  0  0
 25 46  1  0  0  0  0
 25 47  1  0  0  0  0
 26 48  1  0  0  0  0
 26 49  1  0  0  0  0
 26 50  1  0  0  0  0
 28 29  1  0  0  0  0
 28 30  2  0  0  0  0
 30 31  1  0  0  0  0
 30 51  1  0  0  0  0
 31 32  1  0  0  0  0
M  END
$$$$
