CHEMBL395695
 OpenBabel04072215373D

 40 44  0  0  0  0  0  0  0  0999 V2000
    1.2289    1.7504   -0.0566 C   0  0  0  0  0  0  0  0  0  0  0  0
    0.2813    0.6221   -0.0349 C   0  0  0  0  0  0  0  0  0  0  0  0
   -1.0245    0.4663   -0.4196 C   0  0  0  0  0  0  0  0  0  0  0  0
   -1.3335   -0.8826   -0.1063 C   0  0  0  0  0  0  0  0  0  0  0  0
   -2.6182   -1.5548   -0.3166 C   0  0  0  0  0  0  0  0  0  0  0  0
   -3.5458   -0.9541   -0.8530 O   0  0  0  0  0  0  0  0  0  0  0  0
   -2.6653   -2.8512    0.1774 N   0  0  0  0  0  0  0  0  0  0  0  0
   -3.7706   -3.7266    0.1273 C   0  0  0  0  0  0  0  0  0  0  0  0
   -4.8730   -3.5052   -0.7171 C   0  0  0  0  0  0  0  0  0  0  0  0
   -5.9945   -4.3602   -0.7314 C   0  0  0  0  0  0  0  0  0  0  0  0
   -6.0504   -5.4721    0.1000 C   0  0  0  0  0  0  0  0  0  0  0  0
   -4.9588   -5.6987    0.9061 C   0  0  0  0  0  0  0  0  0  0  0  0
   -3.8056   -4.8593    0.9343 C   0  0  0  0  0  0  0  0  0  0  0  0
   -2.7508   -5.3483    1.9443 C   0  0  0  0  0  0  0  0  0  0  0  0
   -3.4828   -6.5406    2.4603 C   0  0  0  0  0  0  0  0  0  0  0  0
   -4.7319   -6.7273    1.8574 C   0  0  0  0  0  0  0  0  0  0  0  0
   -5.4021   -7.7810    2.2988 N   0  0  0  0  0  0  0  0  0  0  0  0
   -4.5406   -8.2911    3.2148 N   0  0  0  0  0  0  0  0  0  0  0  0
   -3.3648   -7.5776    3.3498 C   0  0  0  0  0  0  0  0  0  0  0  0
   -2.2422   -7.9018    4.2682 C   0  0  0  0  0  0  0  0  0  0  0  0
   -1.0620   -7.1192    4.4384 C   0  0  0  0  0  0  0  0  0  0  0  0
   -0.1943   -7.6734    5.3542 C   0  0  0  0  0  0  0  0  0  0  0  0
   -0.7956   -9.1336    6.0078 S   0  0  0  0  0  0  0  0  0  0  0  0
   -2.2260   -9.0242    5.0704 C   0  0  0  0  0  0  0  0  0  0  0  0
   -0.2715   -1.5024    0.4397 N   0  0  0  0  0  0  0  0  0  0  0  0
    0.7397   -0.5533    0.4735 O   0  0  0  0  0  0  0  0  0  0  0  0
    0.7644    2.6452   -0.4837 H   0  0  0  0  0  0  0  0  0  0  0  0
    2.1081    1.5040   -0.6592 H   0  0  0  0  0  0  0  0  0  0  0  0
    1.5597    1.9926    0.9579 H   0  0  0  0  0  0  0  0  0  0  0  0
   -1.6798    1.2062   -0.8570 H   0  0  0  0  0  0  0  0  0  0  0  0
   -1.8407   -3.1378    0.6957 H   0  0  0  0  0  0  0  0  0  0  0  0
   -4.8941   -2.6672   -1.4087 H   0  0  0  0  0  0  0  0  0  0  0  0
   -6.8254   -4.1391   -1.3982 H   0  0  0  0  0  0  0  0  0  0  0  0
   -6.9122   -6.1295    0.1175 H   0  0  0  0  0  0  0  0  0  0  0  0
   -2.5828   -4.6035    2.7256 H   0  0  0  0  0  0  0  0  0  0  0  0
   -1.8245   -5.6305    1.4358 H   0  0  0  0  0  0  0  0  0  0  0  0
   -4.8203   -9.1258    3.7162 H   0  0  0  0  0  0  0  0  0  0  0  0
   -0.8466   -6.1919    3.9262 H   0  0  0  0  0  0  0  0  0  0  0  0
    0.7658   -7.2905    5.6714 H   0  0  0  0  0  0  0  0  0  0  0  0
   -2.9668   -9.8044    5.1636 H   0  0  0  0  0  0  0  0  0  0  0  0
  1  2  1  0  0  0  0
  1 27  1  0  0  0  0
  1 28  1  0  0  0  0
  1 29  1  0  0  0  0
  2  3  2  0  0  0  0
  2 26  1  0  0  0  0
  3  4  1  0  0  0  0
  3 30  1  0  0  0  0
  4  5  1  0  0  0  0
  4 25  2  0  0  0  0
  5  6  2  0  0  0  0
  5  7  1  0  0  0  0
  7  8  1  0  0  0  0
  7 31  1  0  0  0  0
  8  9  1  0  0  0  0
  8 13  2  0  0  0  0
  9 10  2  0  0  0  0
  9 32  1  0  0  0  0
 10 11  1  0  0  0  0
 10 33  1  0  0  0  0
 11 12  2  0  0  0  0
 11 34  1  0  0  0  0
 12 13  1  0  0  0  0
 12 16  1  0  0  0  0
 13 14  1  0  0  0  0
 14 15  1  0  0  0  0
 14 35  1  0  0  0  0
 14 36  1  0  0  0  0
 15 16  1  0  0  0  0
 15 19  2  0  0  0  0
 16 17  2  0  0  0  0
 17 18  1  0  0  0  0
 18 19  1  0  0  0  0
 18 37  1  0  0  0  0
 19 20  1  0  0  0  0
 20 21  1  0  0  0  0
 20 24  2  0  0  0  0
 21 22  2  0  0  0  0
 21 38  1  0  0  0  0
 22 23  1  0  0  0  0
 22 39  1  0  0  0  0
 23 24  1  0  0  0  0
 24 40  1  0  0  0  0
 25 26  1  0  0  0  0
M  END
$$$$
