CHEMBL1945499
 OpenBabel04072215363D

 63 66  0  0  0  0  0  0  0  0999 V2000
    0.7931   -0.0577    0.0755 C   0  0  0  0  0  0  0  0  0  0  0  0
    2.3066    0.1588    0.0232 C   0  0  0  0  0  0  0  0  0  0  0  0
    3.0877   -0.8044    0.9122 C   0  0  0  0  0  0  0  0  0  0  0  0
    2.8125    0.3303   -1.4071 C   0  0  0  0  0  0  0  0  0  0  0  0
    2.8072    1.6846   -1.8390 C   0  0  0  0  0  0  0  0  0  0  0  0
    3.2812    2.0745   -3.0844 C   0  0  0  0  0  0  0  0  0  0  0  0
    3.7909    1.1202   -3.9519 C   0  0  0  0  0  0  0  0  0  0  0  0
    4.3266    1.5449   -5.2977 C   0  0  0  0  0  0  0  0  0  0  0  0
    3.6306    0.8780   -6.4881 C   0  0  0  0  0  0  0  0  0  0  0  0
    2.1177    1.1488   -6.5318 C   0  0  0  0  0  0  0  0  0  0  0  0
    1.4545    0.5452   -7.7061 N   0  0  0  0  0  0  0  0  0  0  0  0
    1.5566   -0.9155   -7.6859 C   0  0  0  0  0  0  0  0  0  0  0  0
    0.0381    0.9266   -7.7195 C   0  0  0  0  0  0  0  0  0  0  0  0
    3.7844   -0.2287   -3.5493 C   0  0  0  0  0  0  0  0  0  0  0  0
    3.2539   -0.6713   -2.3122 C   0  0  0  0  0  0  0  0  0  0  0  0
    3.2378   -2.0647   -2.0314 N   0  0  0  0  0  0  0  0  0  0  0  0
    2.9806   -3.1358   -2.9132 C   0  0  0  0  0  0  0  0  0  0  0  0
    2.7778   -2.9001   -4.2150 N   0  0  0  0  0  0  0  0  0  0  0  0
    2.0073   -3.7553   -4.8981 C   0  0  0  0  0  0  0  0  0  0  0  0
    1.4802   -4.8778   -4.3197 C   0  0  0  0  0  0  0  0  0  0  0  0
    2.0350   -5.2447   -3.1156 C   0  0  0  0  0  0  0  0  0  0  0  0
    2.7246   -4.3572   -2.3628 N   0  0  0  0  0  0  0  0  0  0  0  0
    1.5843   -6.5330   -2.5324 C   0  0  0  0  0  0  0  0  0  0  0  0
    2.3051   -7.7285   -2.6909 C   0  0  0  0  0  0  0  0  0  0  0  0
    1.7839   -8.9373   -2.2083 C   0  0  0  0  0  0  0  0  0  0  0  0
    0.6010   -8.9426   -1.4670 C   0  0  0  0  0  0  0  0  0  0  0  0
   -0.0264  -10.4155   -0.8464 Cl  0  0  0  0  0  0  0  0  0  0  0  0
   -0.1383   -7.7718   -1.3257 C   0  0  0  0  0  0  0  0  0  0  0  0
    0.2944   -6.6304   -1.9974 C   0  0  0  0  0  0  0  0  0  0  0  0
   -0.7067   -5.6956   -2.3675 N   0  0  0  0  0  0  0  0  0  0  0  0
   -0.8915   -5.2721   -3.6666 C   0  0  0  0  0  0  0  0  0  0  0  0
   -2.3694   -4.5842   -4.0563 S   0  0  0  0  0  0  0  0  0  0  0  0
    0.1907   -5.4974   -4.7588 C   0  0  0  0  0  0  0  0  0  0  0  0
    0.4586   -0.2519    1.1003 H   0  0  0  0  0  0  0  0  0  0  0  0
    0.4702   -0.8871   -0.5601 H   0  0  0  0  0  0  0  0  0  0  0  0
    0.2680    0.8436   -0.2643 H   0  0  0  0  0  0  0  0  0  0  0  0
    2.4706    1.1266    0.5243 H   0  0  0  0  0  0  0  0  0  0  0  0
    2.9102   -1.8532    0.6806 H   0  0  0  0  0  0  0  0  0  0  0  0
    2.7934   -0.6621    1.9590 H   0  0  0  0  0  0  0  0  0  0  0  0
    4.1623   -0.6034    0.8445 H   0  0  0  0  0  0  0  0  0  0  0  0
    2.4301    2.4680   -1.1812 H   0  0  0  0  0  0  0  0  0  0  0  0
    3.2573    3.1264   -3.3588 H   0  0  0  0  0  0  0  0  0  0  0  0
    5.3986    1.3140   -5.3273 H   0  0  0  0  0  0  0  0  0  0  0  0
    4.2492    2.6345   -5.4071 H   0  0  0  0  0  0  0  0  0  0  0  0
    3.8306   -0.1972   -6.4478 H   0  0  0  0  0  0  0  0  0  0  0  0
    4.0906    1.2507   -7.4119 H   0  0  0  0  0  0  0  0  0  0  0  0
    1.9742    2.2374   -6.5684 H   0  0  0  0  0  0  0  0  0  0  0  0
    1.6379    0.7949   -5.6106 H   0  0  0  0  0  0  0  0  0  0  0  0
    2.5893   -1.2457   -7.8342 H   0  0  0  0  0  0  0  0  0  0  0  0
    0.9847   -1.3577   -8.5101 H   0  0  0  0  0  0  0  0  0  0  0  0
    1.1829   -1.3352   -6.7462 H   0  0  0  0  0  0  0  0  0  0  0  0
   -0.0703    2.0146   -7.7843 H   0  0  0  0  0  0  0  0  0  0  0  0
   -0.4933    0.5773   -6.8260 H   0  0  0  0  0  0  0  0  0  0  0  0
   -0.4634    0.5092   -8.6005 H   0  0  0  0  0  0  0  0  0  0  0  0
    4.2096   -0.9608   -4.2330 H   0  0  0  0  0  0  0  0  0  0  0  0
    2.8098   -2.3293   -1.1569 H   0  0  0  0  0  0  0  0  0  0  0  0
    1.7459   -3.4455   -5.8981 H   0  0  0  0  0  0  0  0  0  0  0  0
    3.2263   -7.7457   -3.2720 H   0  0  0  0  0  0  0  0  0  0  0  0
    2.2894   -9.8765   -2.4280 H   0  0  0  0  0  0  0  0  0  0  0  0
   -1.1053   -7.7989   -0.8364 H   0  0  0  0  0  0  0  0  0  0  0  0
   -1.5515   -5.6766   -1.8050 H   0  0  0  0  0  0  0  0  0  0  0  0
   -0.1310   -5.0539   -5.7072 H   0  0  0  0  0  0  0  0  0  0  0  0
    0.3019   -6.5722   -4.9381 H   0  0  0  0  0  0  0  0  0  0  0  0
  1  2  1  0  0  0  0
  1 34  1  0  0  0  0
  1 35  1  0  0  0  0
  1 36  1  0  0  0  0
  2  3  1  0  0  0  0
  2  4  1  0  0  0  0
  2 37  1  0  0  0  0
  3 38  1  0  0  0  0
  3 39  1  0  0  0  0
  3 40  1  0  0  0  0
  4  5  1  0  0  0  0
  4 15  2  0  0  0  0
  5  6  2  0  0  0  0
  5 41  1  0  0  0  0
  6  7  1  0  0  0  0
  6 42  1  0  0  0  0
  7  8  1  0  0  0  0
  7 14  2  0  0  0  0
  8  9  1  0  0  0  0
  8 43  1  0  0  0  0
  8 44  1  0  0  0  0
  9 10  1  0  0  0  0
  9 45  1  0  0  0  0
  9 46  1  0  0  0  0
 10 11  1  0  0  0  0
 10 47  1  0  0  0  0
 10 48  1  0  0  0  0
 11 12  1  0  0  0  0
 11 13  1  0  0  0  0
 12 49  1  0  0  0  0
 12 50  1  0  0  0  0
 12 51  1  0  0  0  0
 13 52  1  0  0  0  0
 13 53  1  0  0  0  0
 13 54  1  0  0  0  0
 14 15  1  0  0  0  0
 14 55  1  0  0  0  0
 15 16  1  0  0  0  0
 16 17  1  0  0  0  0
 16 56  1  0  0  0  0
 17 18  1  0  0  0  0
 17 22  2  0  0  0  0
 18 19  2  0  0  0  0
 19 20  1  0  0  0  0
 19 57  1  0  0  0  0
 20 21  2  0  0  0  0
 20 33  1  0  0  0  0
 21 22  1  0  0  0  0
 21 23  1  0  0  0  0
 23 24  1  0  0  0  0
 23 29  2  0  0  0  0
 24 25  2  0  0  0  0
 24 58  1  0  0  0  0
 25 26  1  0  0  0  0
 25 59  1  0  0  0  0
 26 27  1  0  0  0  0
 26 28  2  0  0  0  0
 28 29  1  0  0  0  0
 28 60  1  0  0  0  0
 29 30  1  0  0  0  0
 30 31  1  0  0  0  0
 30 61  1  0  0  0  0
 31 32  2  0  0  0  0
 31 33  1  0  0  0  0
 33 62  1  0  0  0  0
 33 63  1  0  0  0  0
M  END
$$$$
