CHEMBL4227572
 OpenBabel04072215383D

 51 53  0  0  0  0  0  0  0  0999 V2000
    1.6466    2.4918   -0.0183 C   0  0  0  0  0  0  0  0  0  0  0  0
    2.8803    1.8312   -0.3692 N   0  0  0  0  0  0  0  0  0  0  0  0
    4.0956    2.3438    0.0424 C   0  0  0  0  0  0  0  0  0  0  0  0
    4.2052    3.3784    0.6943 O   0  0  0  0  0  0  0  0  0  0  0  0
    5.2998    1.5600   -0.3048 C   0  0  0  0  0  0  0  0  0  0  0  0
    5.3903    0.7499   -1.4344 C   0  0  0  0  0  0  0  0  0  0  0  0
    6.5771    0.0529   -1.6808 C   0  0  0  0  0  0  0  0  0  0  0  0
    7.6425    0.1860   -0.7905 C   0  0  0  0  0  0  0  0  0  0  0  0
    9.1704   -0.6806   -1.1243 S   0  0  0  0  0  0  0  0  0  0  0  0
    9.8124   -0.9550    0.5158 C   0  0  0  0  0  0  0  0  0  0  0  0
    9.4441   -2.0946    1.2264 C   0  0  0  0  0  0  0  0  0  0  0  0
    9.9342   -2.3144    2.5190 C   0  0  0  0  0  0  0  0  0  0  0  0
   10.8088   -1.4087    3.1279 C   0  0  0  0  0  0  0  0  0  0  0  0
   11.2828   -1.5550    4.4555 N   0  0  0  0  0  0  0  0  0  0  0  0
   11.0443   -2.6366    5.2896 C   0  0  0  0  0  0  0  0  0  0  0  0
   10.4914   -3.6770    4.9552 O   0  0  0  0  0  0  0  0  0  0  0  0
   11.4681   -2.3992    6.5953 N   0  0  0  0  0  0  0  0  0  0  0  0
   11.3173   -3.4001    7.5873 C   0  0  0  0  0  0  0  0  0  0  0  0
   11.6482   -4.7353    7.3234 C   0  0  0  0  0  0  0  0  0  0  0  0
   11.4435   -5.7366    8.2827 C   0  0  0  0  0  0  0  0  0  0  0  0
   11.8355   -7.1692    8.0127 C   0  0  0  0  0  0  0  0  0  0  0  0
   12.4502   -7.3599    6.8136 F   0  0  0  0  0  0  0  0  0  0  0  0
   12.7041   -7.6413    8.9518 F   0  0  0  0  0  0  0  0  0  0  0  0
   10.7717   -8.0180    8.0332 F   0  0  0  0  0  0  0  0  0  0  0  0
   10.8727   -5.3828    9.5143 C   0  0  0  0  0  0  0  0  0  0  0  0
   10.5591   -4.0452    9.8082 C   0  0  0  0  0  0  0  0  0  0  0  0
    9.9473   -3.6699   11.1372 C   0  0  0  0  0  0  0  0  0  0  0  0
    9.8023   -4.7242   11.9870 F   0  0  0  0  0  0  0  0  0  0  0  0
   10.6951   -2.7504   11.8067 F   0  0  0  0  0  0  0  0  0  0  0  0
    8.7084   -3.1218   11.0058 F   0  0  0  0  0  0  0  0  0  0  0  0
   10.8113   -3.0528    8.8419 C   0  0  0  0  0  0  0  0  0  0  0  0
   11.2047   -0.2825    2.3974 C   0  0  0  0  0  0  0  0  0  0  0  0
   10.7128   -0.0599    1.1004 C   0  0  0  0  0  0  0  0  0  0  0  0
    7.5787    0.9865    0.2958 N   0  0  0  0  0  0  0  0  0  0  0  0
    6.4181    1.6563    0.5142 C   0  0  0  0  0  0  0  0  0  0  0  0
    0.8104    1.8783   -0.3623 H   0  0  0  0  0  0  0  0  0  0  0  0
    1.6135    3.4721   -0.5016 H   0  0  0  0  0  0  0  0  0  0  0  0
    1.5936    2.6198    1.0664 H   0  0  0  0  0  0  0  0  0  0  0  0
    2.8283    0.8922   -0.7366 H   0  0  0  0  0  0  0  0  0  0  0  0
    4.5717    0.6755   -2.1429 H   0  0  0  0  0  0  0  0  0  0  0  0
    6.6629   -0.5743   -2.5638 H   0  0  0  0  0  0  0  0  0  0  0  0
    8.7666   -2.8268    0.7948 H   0  0  0  0  0  0  0  0  0  0  0  0
    9.5957   -3.2136    3.0209 H   0  0  0  0  0  0  0  0  0  0  0  0
   11.9287   -0.8550    4.7916 H   0  0  0  0  0  0  0  0  0  0  0  0
   11.3785   -1.4399    6.8979 H   0  0  0  0  0  0  0  0  0  0  0  0
   12.0743   -5.0056    6.3567 H   0  0  0  0  0  0  0  0  0  0  0  0
   10.6783   -6.1621   10.2538 H   0  0  0  0  0  0  0  0  0  0  0  0
   10.5466   -2.0201    9.0616 H   0  0  0  0  0  0  0  0  0  0  0  0
   11.8911    0.4476    2.8191 H   0  0  0  0  0  0  0  0  0  0  0  0
   11.0226    0.8287    0.5553 H   0  0  0  0  0  0  0  0  0  0  0  0
    6.4146    2.2873    1.3994 H   0  0  0  0  0  0  0  0  0  0  0  0
  1  2  1  0  0  0  0
  1 36  1  0  0  0  0
  1 37  1  0  0  0  0
  1 38  1  0  0  0  0
  2  3  1  0  0  0  0
  2 39  1  0  0  0  0
  3  4  2  0  0  0  0
  3  5  1  0  0  0  0
  5  6  1  0  0  0  0
  5 35  2  0  0  0  0
  6  7  2  0  0  0  0
  6 40  1  0  0  0  0
  7  8  1  0  0  0  0
  7 41  1  0  0  0  0
  8  9  1  0  0  0  0
  8 34  2  0  0  0  0
  9 10  1  0  0  0  0
 10 11  1  0  0  0  0
 10 33  2  0  0  0  0
 11 12  2  0  0  0  0
 11 42  1  0  0  0  0
 12 13  1  0  0  0  0
 12 43  1  0  0  0  0
 13 14  1  0  0  0  0
 13 32  2  0  0  0  0
 14 15  1  0  0  0  0
 14 44  1  0  0  0  0
 15 16  2  0  0  0  0
 15 17  1  0  0  0  0
 17 18  1  0  0  0  0
 17 45  1  0  0  0  0
 18 19  1  0  0  0  0
 18 31  2  0  0  0  0
 19 20  2  0  0  0  0
 19 46  1  0  0  0  0
 20 21  1  0  0  0  0
 20 25  1  0  0  0  0
 21 22  1  0  0  0  0
 21 23  1  0  0  0  0
 21 24  1  0  0  0  0
 25 26  2  0  0  0  0
 25 47  1  0  0  0  0
 26 27  1  0  0  0  0
 26 31  1  0  0  0  0
 27 28  1  0  0  0  0
 27 29  1  0  0  0  0
 27 30  1  0  0  0  0
 31 48  1  0  0  0  0
 32 33  1  0  0  0  0
 32 49  1  0  0  0  0
 33 50  1  0  0  0  0
 34 35  1  0  0  0  0
 35 51  1  0  0  0  0
M  END
$$$$
