CHEMBL4575352
 OpenBabel04072215383D

 57 61  0  0  0  0  0  0  0  0999 V2000
    4.9211   -1.3515    5.8762 O   0  0  0  0  0  0  0  0  0  0  0  0
    5.7108   -0.8201    5.0876 C   0  0  0  0  0  0  0  0  0  0  0  0
    6.5000    0.4283    5.4848 C   0  0  0  0  0  0  0  0  0  0  0  0
    6.1024    0.9192    6.7626 O   0  0  0  0  0  0  0  0  0  0  0  0
    5.7783   -1.2884    3.8120 N   0  0  0  0  0  0  0  0  0  0  0  0
    6.6467   -0.8924    2.7977 C   0  0  0  0  0  0  0  0  0  0  0  0
    6.3341   -1.3010    1.5182 C   0  0  0  0  0  0  0  0  0  0  0  0
    7.2508   -1.0520    0.5005 C   0  0  0  0  0  0  0  0  0  0  0  0
    7.0426   -1.4780   -0.7865 O   0  0  0  0  0  0  0  0  0  0  0  0
    6.5845   -2.7630   -0.9732 C   0  0  0  0  0  0  0  0  0  0  0  0
    6.8072   -3.8154   -0.0756 C   0  0  0  0  0  0  0  0  0  0  0  0
    6.3696   -5.1015   -0.3725 C   0  0  0  0  0  0  0  0  0  0  0  0
    5.7950   -5.3680   -1.6089 C   0  0  0  0  0  0  0  0  0  0  0  0
    5.6765   -6.6643   -2.1188 N   0  0  0  0  0  0  0  0  0  0  0  0
    5.8822   -7.9150   -1.5416 C   0  0  0  0  0  0  0  0  0  0  0  0
    4.7099   -8.6267   -1.5663 N   0  0  0  0  0  0  0  0  0  0  0  0
    4.7420   -9.9696   -1.6430 C   0  0  0  0  0  0  0  0  0  0  0  0
    5.8971  -10.6451   -1.8640 C   0  0  0  0  0  0  0  0  0  0  0  0
    7.0562   -9.9083   -1.7513 C   0  0  0  0  0  0  0  0  0  0  0  0
    8.2553  -10.6312   -1.9623 N   0  0  0  0  0  0  0  0  0  0  0  0
    9.1170  -10.4109   -0.9287 C   0  0  0  0  0  0  0  0  0  0  0  0
    9.4910   -9.1814   -0.5268 C   0  0  0  0  0  0  0  0  0  0  0  0
   10.9639   -9.3248   -0.2536 C   0  0  0  0  0  0  0  0  0  0  0  0
   11.7817   -9.2219   -1.3984 C   0  0  0  0  0  0  0  0  0  0  0  0
   12.8418  -10.1203   -1.6008 C   0  0  0  0  0  0  0  0  0  0  0  0
   13.1346  -11.0821   -0.6411 C   0  0  0  0  0  0  0  0  0  0  0  0
   14.0537  -12.0223   -0.9045 F   0  0  0  0  0  0  0  0  0  0  0  0
   12.4349  -11.1201    0.5574 C   0  0  0  0  0  0  0  0  0  0  0  0
   11.3723  -10.2227    0.7718 C   0  0  0  0  0  0  0  0  0  0  0  0
    8.5580   -8.0510   -1.0532 C   0  0  0  0  0  0  0  0  0  0  0  0
    8.9140   -6.8733   -1.1018 O   0  0  0  0  0  0  0  0  0  0  0  0
    7.1246   -8.5374   -1.4269 C   0  0  0  0  0  0  0  0  0  0  0  0
    5.5017   -4.3021   -2.4750 C   0  0  0  0  0  0  0  0  0  0  0  0
    5.9054   -3.0141   -2.1590 C   0  0  0  0  0  0  0  0  0  0  0  0
    5.6705   -2.0254   -3.0345 F   0  0  0  0  0  0  0  0  0  0  0  0
    8.4108   -0.3417    0.7606 C   0  0  0  0  0  0  0  0  0  0  0  0
    8.6184    0.0667    2.0612 C   0  0  0  0  0  0  0  0  0  0  0  0
    7.7630   -0.1962    3.0773 N   0  0  0  0  0  0  0  0  0  0  0  0
    6.3044    1.2206    4.7563 H   0  0  0  0  0  0  0  0  0  0  0  0
    7.5665    0.1994    5.5342 H   0  0  0  0  0  0  0  0  0  0  0  0
    5.2036    0.5678    6.9151 H   0  0  0  0  0  0  0  0  0  0  0  0
    5.1094   -2.0191    3.6110 H   0  0  0  0  0  0  0  0  0  0  0  0
    5.4098   -1.8289    1.3118 H   0  0  0  0  0  0  0  0  0  0  0  0
    7.3550   -3.6738    0.8509 H   0  0  0  0  0  0  0  0  0  0  0  0
    6.5417   -5.8972    0.3461 H   0  0  0  0  0  0  0  0  0  0  0  0
    4.8341   -6.7490   -2.6869 H   0  0  0  0  0  0  0  0  0  0  0  0
    3.7996  -10.4956   -1.5967 H   0  0  0  0  0  0  0  0  0  0  0  0
    5.9440  -11.7138   -2.0220 H   0  0  0  0  0  0  0  0  0  0  0  0
    8.7041  -10.1665   -2.7717 H   0  0  0  0  0  0  0  0  0  0  0  0
    9.6372  -11.3342   -0.7023 H   0  0  0  0  0  0  0  0  0  0  0  0
   11.4787   -8.5858   -2.2280 H   0  0  0  0  0  0  0  0  0  0  0  0
   13.3762  -10.1378   -2.5461 H   0  0  0  0  0  0  0  0  0  0  0  0
   12.6497  -11.9153    1.2682 H   0  0  0  0  0  0  0  0  0  0  0  0
   10.7384  -10.3952    1.6420 H   0  0  0  0  0  0  0  0  0  0  0  0
    5.0122   -4.4739   -3.4292 H   0  0  0  0  0  0  0  0  0  0  0  0
    9.1328   -0.1310   -0.0198 H   0  0  0  0  0  0  0  0  0  0  0  0
    9.5113    0.6208    2.3374 H   0  0  0  0  0  0  0  0  0  0  0  0
  1  2  2  0  0  0  0
  2  3  1  0  0  0  0
  2  5  1  0  0  0  0
  3  4  1  0  0  0  0
  3 39  1  0  0  0  0
  3 40  1  0  0  0  0
  4 41  1  0  0  0  0
  5  6  1  0  0  0  0
  5 42  1  0  0  0  0
  6  7  1  0  0  0  0
  6 38  2  0  0  0  0
  7  8  2  0  0  0  0
  7 43  1  0  0  0  0
  8  9  1  0  0  0  0
  8 36  1  0  0  0  0
  9 10  1  0  0  0  0
 10 11  1  0  0  0  0
 10 34  2  0  0  0  0
 11 12  2  0  0  0  0
 11 44  1  0  0  0  0
 12 13  1  0  0  0  0
 12 45  1  0  0  0  0
 13 14  1  0  0  0  0
 13 33  2  0  0  0  0
 14 15  1  0  0  0  0
 14 46  1  0  0  0  0
 15 16  1  0  0  0  0
 15 32  2  0  0  0  0
 16 17  2  0  0  0  0
 17 18  1  0  0  0  0
 17 47  1  0  0  0  0
 18 19  2  0  0  0  0
 18 48  1  0  0  0  0
 19 20  1  0  0  0  0
 19 32  1  0  0  0  0
 20 21  1  0  0  0  0
 20 49  1  0  0  0  0
 21 22  2  0  0  0  0
 21 50  1  0  0  0  0
 22 23  1  0  0  0  0
 22 30  1  0  0  0  0
 23 24  1  0  0  0  0
 23 29  2  0  0  0  0
 24 25  2  0  0  0  0
 24 51  1  0  0  0  0
 25 26  1  0  0  0  0
 25 52  1  0  0  0  0
 26 27  1  0  0  0  0
 26 28  2  0  0  0  0
 28 29  1  0  0  0  0
 28 53  1  0  0  0  0
 29 54  1  0  0  0  0
 30 31  2  0  0  0  0
 30 32  1  0  0  0  0
 33 34  1  0  0  0  0
 33 55  1  0  0  0  0
 34 35  1  0  0  0  0
 36 37  2  0  0  0  0
 36 56  1  0  0  0  0
 37 38  1  0  0  0  0
 37 57  1  0  0  0  0
M  END
$$$$
