CHEMBL2010872
 OpenBabel04072215363D

 63 69  0  0  0  0  0  0  0  0999 V2000
    3.6252    0.1892   -2.3057 C   0  0  0  0  0  0  0  0  0  0  0  0
    3.1033    1.0728   -1.1721 C   0  0  0  0  0  0  0  0  0  0  0  0
    1.5714    1.0991   -1.2090 C   0  0  0  0  0  0  0  0  0  0  0  0
    3.6230    0.6322    0.2249 C   0  0  0  0  0  0  0  0  0  0  0  0
    5.0699    0.7706    0.4137 N   0  0  0  0  0  0  0  0  0  0  0  0
    5.7351    2.0091    0.3057 C   0  0  0  0  0  0  0  0  0  0  0  0
    5.2540    3.3212    0.1960 C   0  0  0  0  0  0  0  0  0  0  0  0
    6.1718    4.3551   -0.0556 C   0  0  0  0  0  0  0  0  0  0  0  0
    7.5490    4.1352   -0.1410 C   0  0  0  0  0  0  0  0  0  0  0  0
    8.4943    5.1253   -0.4060 N   0  0  0  0  0  0  0  0  0  0  0  0
    8.4191    6.4889   -0.6225 C   0  0  0  0  0  0  0  0  0  0  0  0
    7.2526    7.1469   -0.6164 N   0  0  0  0  0  0  0  0  0  0  0  0
    7.2798    8.4736   -0.8195 C   0  0  0  0  0  0  0  0  0  0  0  0
    8.4395    9.1847   -1.0217 C   0  0  0  0  0  0  0  0  0  0  0  0
    9.5888    8.4394   -1.0154 C   0  0  0  0  0  0  0  0  0  0  0  0
    9.6026    7.1010   -0.8184 N   0  0  0  0  0  0  0  0  0  0  0  0
    8.0084    2.8216    0.0023 C   0  0  0  0  0  0  0  0  0  0  0  0
    7.1120    1.7553    0.1948 C   0  0  0  0  0  0  0  0  0  0  0  0
    7.1630    0.3780    0.2034 C   0  0  0  0  0  0  0  0  0  0  0  0
    8.2693   -0.3402   -0.2762 C   0  0  0  0  0  0  0  0  0  0  0  0
    7.9907   -1.6509   -0.7120 C   0  0  0  0  0  0  0  0  0  0  0  0
    6.7457   -2.2800   -0.5471 C   0  0  0  0  0  0  0  0  0  0  0  0
    5.9466   -1.6863    0.4855 C   0  0  0  0  0  0  0  0  0  0  0  0
    5.9932   -0.2750    0.4814 C   0  0  0  0  0  0  0  0  0  0  0  0
    5.9644   -2.5479    1.8177 C   0  0  0  0  0  0  0  0  0  0  0  0
    7.0041   -3.7457    1.8099 C   0  0  0  0  0  0  0  0  0  0  0  0
    6.7971   -4.4791    0.5325 C   0  0  0  0  0  0  0  0  0  0  0  0
    6.3981   -5.7400    0.3729 N   0  0  0  0  0  0  0  0  0  0  0  0
    5.9457   -5.7435   -0.9068 N   0  0  0  0  0  0  0  0  0  0  0  0
    5.2908   -6.9177   -1.4302 C   0  0  0  0  0  0  0  0  0  0  0  0
    5.9744   -4.5065   -1.5043 C   0  0  0  0  0  0  0  0  0  0  0  0
    6.6800   -3.7162   -0.6397 C   0  0  0  0  0  0  0  0  0  0  0  0
    9.2317   -2.2207   -1.1831 C   0  0  0  0  0  0  0  0  0  0  0  0
    9.5453   -3.3174   -1.6400 O   0  0  0  0  0  0  0  0  0  0  0  0
   10.1716   -1.2173   -0.9730 N   0  0  0  0  0  0  0  0  0  0  0  0
    9.6644    0.0381   -0.4659 C   0  0  0  0  0  0  0  0  0  0  0  0
    3.2875    0.5731   -3.2758 H   0  0  0  0  0  0  0  0  0  0  0  0
    3.2623   -0.8387   -2.2080 H   0  0  0  0  0  0  0  0  0  0  0  0
    4.7184    0.1697   -2.3277 H   0  0  0  0  0  0  0  0  0  0  0  0
    3.4354    2.0948   -1.3847 H   0  0  0  0  0  0  0  0  0  0  0  0
    1.1511    0.0892   -1.1651 H   0  0  0  0  0  0  0  0  0  0  0  0
    1.2189    1.5670   -2.1364 H   0  0  0  0  0  0  0  0  0  0  0  0
    1.1634    1.6790   -0.3749 H   0  0  0  0  0  0  0  0  0  0  0  0
    3.3478   -0.4069    0.4301 H   0  0  0  0  0  0  0  0  0  0  0  0
    3.1629    1.2541    1.0041 H   0  0  0  0  0  0  0  0  0  0  0  0
    4.1940    3.5483    0.2400 H   0  0  0  0  0  0  0  0  0  0  0  0
    5.7673    5.3531   -0.2058 H   0  0  0  0  0  0  0  0  0  0  0  0
    9.4615    4.8500   -0.4587 H   0  0  0  0  0  0  0  0  0  0  0  0
    6.3112    8.9651   -0.8074 H   0  0  0  0  0  0  0  0  0  0  0  0
    8.4452   10.2566   -1.1687 H   0  0  0  0  0  0  0  0  0  0  0  0
   10.5589    8.8923   -1.1652 H   0  0  0  0  0  0  0  0  0  0  0  0
    9.0707    2.6260   -0.0543 H   0  0  0  0  0  0  0  0  0  0  0  0
    4.9613   -2.9628    1.9624 H   0  0  0  0  0  0  0  0  0  0  0  0
    6.2045   -1.8991    2.6679 H   0  0  0  0  0  0  0  0  0  0  0  0
    6.9017   -4.3946    2.6831 H   0  0  0  0  0  0  0  0  0  0  0  0
    8.0306   -3.3455    1.8205 H   0  0  0  0  0  0  0  0  0  0  0  0
    5.5065   -7.7718   -0.7839 H   0  0  0  0  0  0  0  0  0  0  0  0
    5.6701   -7.1049   -2.4372 H   0  0  0  0  0  0  0  0  0  0  0  0
    4.2147   -6.7260   -1.4530 H   0  0  0  0  0  0  0  0  0  0  0  0
    5.4491   -4.3042   -2.4285 H   0  0  0  0  0  0  0  0  0  0  0  0
   11.1452   -1.4084   -1.1487 H   0  0  0  0  0  0  0  0  0  0  0  0
    9.7998    0.8029   -1.2312 H   0  0  0  0  0  0  0  0  0  0  0  0
   10.1625    0.2890    0.4735 H   0  0  0  0  0  0  0  0  0  0  0  0
  1  2  1  0  0  0  0
  1 37  1  0  0  0  0
  1 38  1  0  0  0  0
  1 39  1  0  0  0  0
  2  3  1  0  0  0  0
  2  4  1  0  0  0  0
  2 40  1  0  0  0  0
  3 41  1  0  0  0  0
  3 42  1  0  0  0  0
  3 43  1  0  0  0  0
  4  5  1  0  0  0  0
  4 44  1  0  0  0  0
  4 45  1  0  0  0  0
  5  6  1  0  0  0  0
  5 24  1  0  0  0  0
  6  7  1  0  0  0  0
  6 18  2  0  0  0  0
  7  8  2  0  0  0  0
  7 46  1  0  0  0  0
  8  9  1  0  0  0  0
  8 47  1  0  0  0  0
  9 10  1  0  0  0  0
  9 17  2  0  0  0  0
 10 11  1  0  0  0  0
 10 48  1  0  0  0  0
 11 12  1  0  0  0  0
 11 16  2  0  0  0  0
 12 13  2  0  0  0  0
 13 14  1  0  0  0  0
 13 49  1  0  0  0  0
 14 15  2  0  0  0  0
 14 50  1  0  0  0  0
 15 16  1  0  0  0  0
 15 51  1  0  0  0  0
 17 18  1  0  0  0  0
 17 52  1  0  0  0  0
 18 19  1  0  0  0  0
 19 20  1  0  0  0  0
 19 24  2  0  0  0  0
 20 21  2  0  0  0  0
 20 36  1  0  0  0  0
 21 22  1  0  0  0  0
 21 33  1  0  0  0  0
 22 23  2  0  0  0  0
 22 32  1  0  0  0  0
 23 24  1  0  0  0  0
 23 25  1  0  0  0  0
 25 26  1  0  0  0  0
 25 53  1  0  0  0  0
 25 54  1  0  0  0  0
 26 27  1  0  0  0  0
 26 55  1  0  0  0  0
 26 56  1  0  0  0  0
 27 28  2  0  0  0  0
 27 32  1  0  0  0  0
 28 29  1  0  0  0  0
 29 30  1  0  0  0  0
 29 31  1  0  0  0  0
 30 57  1  0  0  0  0
 30 58  1  0  0  0  0
 30 59  1  0  0  0  0
 31 32  2  0  0  0  0
 31 60  1  0  0  0  0
 33 34  2  0  0  0  0
 33 35  1  0  0  0  0
 35 36  1  0  0  0  0
 35 61  1  0  0  0  0
 36 62  1  0  0  0  0
 36 63  1  0  0  0  0
M  END
$$$$
