CHEMBL151358
 OpenBabel04072215363D

 51 56  0  0  0  0  0  0  0  0999 V2000
    6.9191    0.9800   -1.1549 C   0  0  0  0  0  0  0  0  0  0  0  0
    5.6478    0.2409   -0.7461 C   0  0  0  0  0  0  0  0  0  0  0  0
    5.4229   -0.9581   -1.6640 C   0  0  0  0  0  0  0  0  0  0  0  0
    5.8150   -0.1619    0.6181 O   0  0  0  0  0  0  0  0  0  0  0  0
    4.6533   -0.7595    1.1910 C   0  0  0  0  0  0  0  0  0  0  0  0
    4.8125   -0.8483    2.6905 C   0  0  0  0  0  0  0  0  0  0  0  0
    4.7999   -2.0702    3.3747 C   0  0  0  0  0  0  0  0  0  0  0  0
    4.8275   -2.1338    4.7834 C   0  0  0  0  0  0  0  0  0  0  0  0
    4.8589   -0.9237    5.4988 C   0  0  0  0  0  0  0  0  0  0  0  0
    4.8806   -0.6572    6.8806 N   0  0  0  0  0  0  0  0  0  0  0  0
    5.2227    0.6797    7.1129 C   0  0  0  0  0  0  0  0  0  0  0  0
    5.9818    1.1851    8.1678 C   0  0  0  0  0  0  0  0  0  0  0  0
    7.3476    1.1963    7.8006 C   0  0  0  0  0  0  0  0  0  0  0  0
    7.5490    1.8653    6.5872 C   0  0  0  0  0  0  0  0  0  0  0  0
    6.5217    1.9397    5.5883 C   0  0  0  0  0  0  0  0  0  0  0  0
    5.3389    1.1871    5.8434 C   0  0  0  0  0  0  0  0  0  0  0  0
    5.0019    0.2968    4.8273 C   0  0  0  0  0  0  0  0  0  0  0  0
    4.9646    0.3349    3.4227 C   0  0  0  0  0  0  0  0  0  0  0  0
    6.6156    3.1129    4.7266 C   0  0  0  0  0  0  0  0  0  0  0  0
    7.6902    3.8007    5.4081 N   0  0  0  0  0  0  0  0  0  0  0  0
    8.2632    3.1229    6.4839 C   0  0  0  0  0  0  0  0  0  0  0  0
    9.0682    3.6682    7.2408 O   0  0  0  0  0  0  0  0  0  0  0  0
    7.7396   -0.1315    8.3812 C   0  0  0  0  0  0  0  0  0  0  0  0
    8.2306   -1.3056    7.8107 C   0  0  0  0  0  0  0  0  0  0  0  0
    7.9394   -2.5540    8.4358 C   0  0  0  0  0  0  0  0  0  0  0  0
    7.2233   -2.6385    9.6493 C   0  0  0  0  0  0  0  0  0  0  0  0
    6.7467   -1.4908   10.2508 C   0  0  0  0  0  0  0  0  0  0  0  0
    6.9396   -0.3048    9.5596 C   0  0  0  0  0  0  0  0  0  0  0  0
    5.9346    0.8078    9.6020 C   0  0  0  0  0  0  0  0  0  0  0  0
    6.8710    1.3150   -2.1962 H   0  0  0  0  0  0  0  0  0  0  0  0
    7.7998    0.3393   -1.0328 H   0  0  0  0  0  0  0  0  0  0  0  0
    7.0766    1.8561   -0.5165 H   0  0  0  0  0  0  0  0  0  0  0  0
    4.8028    0.9366   -0.8207 H   0  0  0  0  0  0  0  0  0  0  0  0
    6.1835   -1.7278   -1.4902 H   0  0  0  0  0  0  0  0  0  0  0  0
    5.4510   -0.6624   -2.7177 H   0  0  0  0  0  0  0  0  0  0  0  0
    4.4500   -1.4248   -1.4771 H   0  0  0  0  0  0  0  0  0  0  0  0
    4.4997   -1.7554    0.7661 H   0  0  0  0  0  0  0  0  0  0  0  0
    3.7672   -0.1482    0.9766 H   0  0  0  0  0  0  0  0  0  0  0  0
    4.7718   -3.0013    2.8103 H   0  0  0  0  0  0  0  0  0  0  0  0
    4.8480   -3.0950    5.2878 H   0  0  0  0  0  0  0  0  0  0  0  0
    5.0033   -1.3912    7.5671 H   0  0  0  0  0  0  0  0  0  0  0  0
    5.0594    1.2823    2.8999 H   0  0  0  0  0  0  0  0  0  0  0  0
    5.7025    3.7143    4.7606 H   0  0  0  0  0  0  0  0  0  0  0  0
    6.9187    2.8861    3.7041 H   0  0  0  0  0  0  0  0  0  0  0  0
    7.7788    4.8077    5.3945 H   0  0  0  0  0  0  0  0  0  0  0  0
    8.6803   -1.3147    6.8202 H   0  0  0  0  0  0  0  0  0  0  0  0
    8.2038   -3.4877    7.9402 H   0  0  0  0  0  0  0  0  0  0  0  0
    6.9531   -3.6051   10.0757 H   0  0  0  0  0  0  0  0  0  0  0  0
    6.0828   -1.5293   11.1117 H   0  0  0  0  0  0  0  0  0  0  0  0
    6.3075    1.6412   10.2136 H   0  0  0  0  0  0  0  0  0  0  0  0
    4.9405    0.4872    9.9061 H   0  0  0  0  0  0  0  0  0  0  0  0
  1  2  1  0  0  0  0
  1 30  1  0  0  0  0
  1 31  1  0  0  0  0
  1 32  1  0  0  0  0
  2  3  1  0  0  0  0
  2  4  1  0  0  0  0
  2 33  1  0  0  0  0
  3 34  1  0  0  0  0
  3 35  1  0  0  0  0
  3 36  1  0  0  0  0
  4  5  1  0  0  0  0
  5  6  1  0  0  0  0
  5 37  1  0  0  0  0
  5 38  1  0  0  0  0
  6  7  1  0  0  0  0
  6 18  2  0  0  0  0
  7  8  2  0  0  0  0
  7 39  1  0  0  0  0
  8  9  1  0  0  0  0
  8 40  1  0  0  0  0
  9 10  1  0  0  0  0
  9 17  2  0  0  0  0
 10 11  1  0  0  0  0
 10 41  1  0  0  0  0
 11 12  1  0  0  0  0
 11 16  2  0  0  0  0
 12 13  2  0  0  0  0
 12 29  1  0  0  0  0
 13 14  1  0  0  0  0
 13 23  1  0  0  0  0
 14 15  2  0  0  0  0
 14 21  1  0  0  0  0
 15 16  1  0  0  0  0
 15 19  1  0  0  0  0
 16 17  1  0  0  0  0
 17 18  1  0  0  0  0
 18 42  1  0  0  0  0
 19 20  1  0  0  0  0
 19 43  1  0  0  0  0
 19 44  1  0  0  0  0
 20 21  1  0  0  0  0
 20 45  1  0  0  0  0
 21 22  2  0  0  0  0
 23 24  1  0  0  0  0
 23 28  2  0  0  0  0
 24 25  2  0  0  0  0
 24 46  1  0  0  0  0
 25 26  1  0  0  0  0
 25 47  1  0  0  0  0
 26 27  2  0  0  0  0
 26 48  1  0  0  0  0
 27 28  1  0  0  0  0
 27 49  1  0  0  0  0
 28 29  1  0  0  0  0
 29 50  1  0  0  0  0
 29 51  1  0  0  0  0
M  END
$$$$
