CHEMBL271381
 OpenBabel04072215363D

 46 49  0  0  0  0  0  0  0  0999 V2000
    2.2405   -0.7846    0.3408 C   0  0  0  0  0  0  0  0  0  0  0  0
    2.3401    0.3035   -0.5737 O   0  0  0  0  0  0  0  0  0  0  0  0
    3.1170    1.3656   -0.1443 C   0  0  0  0  0  0  0  0  0  0  0  0
    2.7751    2.6156   -0.6563 C   0  0  0  0  0  0  0  0  0  0  0  0
    3.5119    3.7566   -0.3184 C   0  0  0  0  0  0  0  0  0  0  0  0
    4.6490    3.7081    0.5250 C   0  0  0  0  0  0  0  0  0  0  0  0
    5.3941    4.9401    0.8582 C   0  0  0  0  0  0  0  0  0  0  0  0
    5.8203    5.1952    2.1619 C   0  0  0  0  0  0  0  0  0  0  0  0
    6.6083    6.3049    2.4756 C   0  0  0  0  0  0  0  0  0  0  0  0
    6.9307    7.2564    1.5077 C   0  0  0  0  0  0  0  0  0  0  0  0
    7.7022    8.4092    1.7975 N   0  0  0  0  0  0  0  0  0  0  0  0
    8.4416    8.6012    2.9506 C   0  0  0  0  0  0  0  0  0  0  0  0
    8.6627    7.7328    3.7911 O   0  0  0  0  0  0  0  0  0  0  0  0
    8.8784    9.9134    3.0805 N   0  0  0  0  0  0  0  0  0  0  0  0
    9.6088   10.3094    4.2290 C   0  0  0  0  0  0  0  0  0  0  0  0
   10.6434    9.5171    4.7445 C   0  0  0  0  0  0  0  0  0  0  0  0
   11.2784    9.8651    5.9373 C   0  0  0  0  0  0  0  0  0  0  0  0
   10.8779   11.0068    6.6265 C   0  0  0  0  0  0  0  0  0  0  0  0
    9.8663   11.8094    6.0987 C   0  0  0  0  0  0  0  0  0  0  0  0
    9.2822   13.3250    7.0688 Br  0  0  0  0  0  0  0  0  0  0  0  0
    9.2481   11.4847    4.8888 C   0  0  0  0  0  0  0  0  0  0  0  0
    6.4328    7.0785    0.2183 C   0  0  0  0  0  0  0  0  0  0  0  0
    5.6855    5.9239   -0.1051 C   0  0  0  0  0  0  0  0  0  0  0  0
    5.0255    2.4220    1.0297 C   0  0  0  0  0  0  0  0  0  0  0  0
    6.0411    1.8286    1.8578 C   0  0  0  0  0  0  0  0  0  0  0  0
    7.0671    2.4592    2.4585 N   0  0  0  0  0  0  0  0  0  0  0  0
    5.8636    0.5149    1.9960 N   0  0  0  0  0  0  0  0  0  0  0  0
    4.7638    0.1993    1.2471 O   0  0  0  0  0  0  0  0  0  0  0  0
    4.2455    1.3212    0.6783 C   0  0  0  0  0  0  0  0  0  0  0  0
    1.4836   -1.4731   -0.0477 H   0  0  0  0  0  0  0  0  0  0  0  0
    1.9098   -0.4441    1.3279 H   0  0  0  0  0  0  0  0  0  0  0  0
    3.1763   -1.3465    0.4043 H   0  0  0  0  0  0  0  0  0  0  0  0
    1.9148    2.7058   -1.3125 H   0  0  0  0  0  0  0  0  0  0  0  0
    3.1733    4.7129   -0.7175 H   0  0  0  0  0  0  0  0  0  0  0  0
    5.5671    4.5122    2.9710 H   0  0  0  0  0  0  0  0  0  0  0  0
    6.9445    6.3872    3.5032 H   0  0  0  0  0  0  0  0  0  0  0  0
    7.8746    9.0555    1.0408 H   0  0  0  0  0  0  0  0  0  0  0  0
    8.2437   10.5978    2.6940 H   0  0  0  0  0  0  0  0  0  0  0  0
   10.9509    8.6071    4.2336 H   0  0  0  0  0  0  0  0  0  0  0  0
   12.0629    9.2281    6.3381 H   0  0  0  0  0  0  0  0  0  0  0  0
   11.3481   11.2519    7.5750 H   0  0  0  0  0  0  0  0  0  0  0  0
    8.4405   12.1051    4.5127 H   0  0  0  0  0  0  0  0  0  0  0  0
    6.6164    7.8117   -0.5592 H   0  0  0  0  0  0  0  0  0  0  0  0
    5.3412    5.8105   -1.1310 H   0  0  0  0  0  0  0  0  0  0  0  0
    7.4396    3.3308    2.0998 H   0  0  0  0  0  0  0  0  0  0  0  0
    7.7616    1.8841    2.9239 H   0  0  0  0  0  0  0  0  0  0  0  0
  1  2  1  0  0  0  0
  1 30  1  0  0  0  0
  1 31  1  0  0  0  0
  1 32  1  0  0  0  0
  2  3  1  0  0  0  0
  3  4  1  0  0  0  0
  3 29  2  0  0  0  0
  4  5  2  0  0  0  0
  4 33  1  0  0  0  0
  5  6  1  0  0  0  0
  5 34  1  0  0  0  0
  6  7  1  0  0  0  0
  6 24  2  0  0  0  0
  7  8  1  0  0  0  0
  7 23  2  0  0  0  0
  8  9  2  0  0  0  0
  8 35  1  0  0  0  0
  9 10  1  0  0  0  0
  9 36  1  0  0  0  0
 10 11  1  0  0  0  0
 10 22  2  0  0  0  0
 11 12  1  0  0  0  0
 11 37  1  0  0  0  0
 12 13  2  0  0  0  0
 12 14  1  0  0  0  0
 14 15  1  0  0  0  0
 14 38  1  0  0  0  0
 15 16  1  0  0  0  0
 15 21  2  0  0  0  0
 16 17  2  0  0  0  0
 16 39  1  0  0  0  0
 17 18  1  0  0  0  0
 17 40  1  0  0  0  0
 18 19  2  0  0  0  0
 18 41  1  0  0  0  0
 19 20  1  0  0  0  0
 19 21  1  0  0  0  0
 21 42  1  0  0  0  0
 22 23  1  0  0  0  0
 22 43  1  0  0  0  0
 23 44  1  0  0  0  0
 24 25  1  0  0  0  0
 24 29  1  0  0  0  0
 25 26  1  0  0  0  0
 25 27  2  0  0  0  0
 26 45  1  0  0  0  0
 26 46  1  0  0  0  0
 27 28  1  0  0  0  0
 28 29  1  0  0  0  0
M  END
$$$$
