CHEMBL3981808
 OpenBabel04072215373D

 49 52  0  0  0  0  0  0  0  0999 V2000
    2.2054   -0.0248   -0.9151 N   0  0  0  0  0  0  0  0  0  0  0  0
    1.7556    0.7407    0.1193 C   0  0  0  0  0  0  0  0  0  0  0  0
    0.5955    1.0682    0.3104 O   0  0  0  0  0  0  0  0  0  0  0  0
    2.7723    1.0464    1.0524 N   0  0  0  0  0  0  0  0  0  0  0  0
    4.0770    1.5155    0.8049 C   0  0  0  0  0  0  0  0  0  0  0  0
    4.6232    1.8963   -0.5090 C   0  0  0  0  0  0  0  0  0  0  0  0
    3.8207    2.4741   -1.4932 C   0  0  0  0  0  0  0  0  0  0  0  0
    4.3134    2.6899   -2.7829 C   0  0  0  0  0  0  0  0  0  0  0  0
    5.6399    2.3996   -3.1056 C   0  0  0  0  0  0  0  0  0  0  0  0
    6.1542    2.5573   -4.4120 N   0  0  0  0  0  0  0  0  0  0  0  0
    5.5563    3.3117   -5.3902 C   0  0  0  0  0  0  0  0  0  0  0  0
    4.6263    4.0906   -5.2051 O   0  0  0  0  0  0  0  0  0  0  0  0
    6.0921    3.0726   -6.6544 N   0  0  0  0  0  0  0  0  0  0  0  0
    5.5186    3.7608   -7.7576 C   0  0  0  0  0  0  0  0  0  0  0  0
    5.2807    5.1395   -7.6902 C   0  0  0  0  0  0  0  0  0  0  0  0
    4.4961    5.7797   -8.6577 C   0  0  0  0  0  0  0  0  0  0  0  0
    4.1476    7.2429   -8.5149 C   0  0  0  0  0  0  0  0  0  0  0  0
    4.7196    7.8438   -7.4340 F   0  0  0  0  0  0  0  0  0  0  0  0
    4.5435    7.9737   -9.5940 F   0  0  0  0  0  0  0  0  0  0  0  0
    2.8080    7.4504   -8.3943 F   0  0  0  0  0  0  0  0  0  0  0  0
    3.9915    5.0211   -9.7265 C   0  0  0  0  0  0  0  0  0  0  0  0
    4.2880    3.6575   -9.8339 C   0  0  0  0  0  0  0  0  0  0  0  0
    5.0617    3.0380   -8.8586 C   0  0  0  0  0  0  0  0  0  0  0  0
    5.2800    1.7160   -8.9282 F   0  0  0  0  0  0  0  0  0  0  0  0
    6.4754    1.9037   -2.1074 C   0  0  0  0  0  0  0  0  0  0  0  0
    5.9710    1.6573   -0.8215 C   0  0  0  0  0  0  0  0  0  0  0  0
    4.7164    1.5739    2.0361 C   0  0  0  0  0  0  0  0  0  0  0  0
    3.8358    1.1112    3.0415 C   0  0  0  0  0  0  0  0  0  0  0  0
    3.9656    0.9005    4.4275 C   0  0  0  0  0  0  0  0  0  0  0  0
    2.8871    0.3740    5.1452 C   0  0  0  0  0  0  0  0  0  0  0  0
    1.6863    0.0834    4.5143 C   0  0  0  0  0  0  0  0  0  0  0  0
    1.5294    0.3120    3.1469 C   0  0  0  0  0  0  0  0  0  0  0  0
    2.6227    0.8251    2.4227 C   0  0  0  0  0  0  0  0  0  0  0  0
    1.5195   -0.3693   -1.5719 H   0  0  0  0  0  0  0  0  0  0  0  0
    3.1322   -0.4288   -0.9269 H   0  0  0  0  0  0  0  0  0  0  0  0
    2.7852    2.7468   -1.2999 H   0  0  0  0  0  0  0  0  0  0  0  0
    3.6096    3.0640   -3.5200 H   0  0  0  0  0  0  0  0  0  0  0  0
    7.1133    2.2866   -4.5828 H   0  0  0  0  0  0  0  0  0  0  0  0
    6.3114    2.0990   -6.8258 H   0  0  0  0  0  0  0  0  0  0  0  0
    5.6523    5.7085   -6.8374 H   0  0  0  0  0  0  0  0  0  0  0  0
    3.3451    5.4900  -10.4677 H   0  0  0  0  0  0  0  0  0  0  0  0
    3.8780    3.0671  -10.6475 H   0  0  0  0  0  0  0  0  0  0  0  0
    7.5246    1.6989   -2.3050 H   0  0  0  0  0  0  0  0  0  0  0  0
    6.6453    1.2582   -0.0674 H   0  0  0  0  0  0  0  0  0  0  0  0
    5.7346    1.9085    2.1961 H   0  0  0  0  0  0  0  0  0  0  0  0
    4.9032    1.1186    4.9324 H   0  0  0  0  0  0  0  0  0  0  0  0
    2.9956    0.1841    6.2139 H   0  0  0  0  0  0  0  0  0  0  0  0
    0.8592   -0.3342    5.0830 H   0  0  0  0  0  0  0  0  0  0  0  0
    0.5880    0.0750    2.6570 H   0  0  0  0  0  0  0  0  0  0  0  0
  1  2  1  0  0  0  0
  1 34  1  0  0  0  0
  1 35  1  0  0  0  0
  2  3  2  0  0  0  0
  2  4  1  0  0  0  0
  4  5  1  0  0  0  0
  4 33  1  0  0  0  0
  5  6  1  0  0  0  0
  5 27  2  0  0  0  0
  6  7  1  0  0  0  0
  6 26  2  0  0  0  0
  7  8  2  0  0  0  0
  7 36  1  0  0  0  0
  8  9  1  0  0  0  0
  8 37  1  0  0  0  0
  9 10  1  0  0  0  0
  9 25  2  0  0  0  0
 10 11  1  0  0  0  0
 10 38  1  0  0  0  0
 11 12  2  0  0  0  0
 11 13  1  0  0  0  0
 13 14  1  0  0  0  0
 13 39  1  0  0  0  0
 14 15  1  0  0  0  0
 14 23  2  0  0  0  0
 15 16  2  0  0  0  0
 15 40  1  0  0  0  0
 16 17  1  0  0  0  0
 16 21  1  0  0  0  0
 17 18  1  0  0  0  0
 17 19  1  0  0  0  0
 17 20  1  0  0  0  0
 21 22  2  0  0  0  0
 21 41  1  0  0  0  0
 22 23  1  0  0  0  0
 22 42  1  0  0  0  0
 23 24  1  0  0  0  0
 25 26  1  0  0  0  0
 25 43  1  0  0  0  0
 26 44  1  0  0  0  0
 27 28  1  0  0  0  0
 27 45  1  0  0  0  0
 28 29  1  0  0  0  0
 28 33  2  0  0  0  0
 29 30  2  0  0  0  0
 29 46  1  0  0  0  0
 30 31  1  0  0  0  0
 30 47  1  0  0  0  0
 31 32  2  0  0  0  0
 31 48  1  0  0  0  0
 32 33  1  0  0  0  0
 32 49  1  0  0  0  0
M  END
$$$$
