CHEMBL3898789
 OpenBabel04072215373D

 53 57  0  0  0  0  0  0  0  0999 V2000
    1.0373   -3.6100   -1.7936 C   0  0  0  0  0  0  0  0  0  0  0  0
   -0.3133   -3.0958   -1.4567 C   0  0  0  0  0  0  0  0  0  0  0  0
   -1.3380   -3.6582   -0.7240 C   0  0  0  0  0  0  0  0  0  0  0  0
   -2.4880   -2.8792   -0.5923 N   0  0  0  0  0  0  0  0  0  0  0  0
   -2.3072   -1.7357   -1.2156 C   0  0  0  0  0  0  0  0  0  0  0  0
   -3.2816   -0.6546   -1.3199 C   0  0  0  0  0  0  0  0  0  0  0  0
   -3.0043    0.4055   -1.9011 O   0  0  0  0  0  0  0  0  0  0  0  0
   -4.5234   -0.8762   -0.7212 N   0  0  0  0  0  0  0  0  0  0  0  0
   -5.5930    0.0541   -0.7566 C   0  0  0  0  0  0  0  0  0  0  0  0
   -5.6428    1.0760   -1.7050 C   0  0  0  0  0  0  0  0  0  0  0  0
   -6.5844    2.0946   -1.6385 C   0  0  0  0  0  0  0  0  0  0  0  0
   -7.5399    2.0684   -0.6430 C   0  0  0  0  0  0  0  0  0  0  0  0
   -7.6396    0.9483    0.1826 C   0  0  0  0  0  0  0  0  0  0  0  0
   -8.6861    0.7740    1.0558 O   0  0  0  0  0  0  0  0  0  0  0  0
   -9.9547    1.2119    0.7171 C   0  0  0  0  0  0  0  0  0  0  0  0
  -10.4404    1.4487   -0.5806 C   0  0  0  0  0  0  0  0  0  0  0  0
  -11.7296    1.9851   -0.8097 C   0  0  0  0  0  0  0  0  0  0  0  0
  -12.6298    1.9765    0.2730 C   0  0  0  0  0  0  0  0  0  0  0  0
  -13.9781    2.3077    0.6052 C   0  0  0  0  0  0  0  0  0  0  0  0
  -14.7645    3.4902    0.3730 C   0  0  0  0  0  0  0  0  0  0  0  0
  -16.1015    3.4530    0.5530 C   0  0  0  0  0  0  0  0  0  0  0  0
  -17.0785    4.5426    0.6446 C   0  0  0  0  0  0  0  0  0  0  0  0
  -16.8514    5.8059    0.0989 C   0  0  0  0  0  0  0  0  0  0  0  0
  -17.8930    6.7333    0.0231 C   0  0  0  0  0  0  0  0  0  0  0  0
  -19.1590    6.4188    0.5120 C   0  0  0  0  0  0  0  0  0  0  0  0
  -19.3827    5.1825    1.1170 C   0  0  0  0  0  0  0  0  0  0  0  0
  -18.3423    4.2563    1.1938 C   0  0  0  0  0  0  0  0  0  0  0  0
  -14.4108    1.4418    1.5393 N   0  0  0  0  0  0  0  0  0  0  0  0
  -13.2866    1.1162    2.1593 N   0  0  0  0  0  0  0  0  0  0  0  0
  -12.1624    1.4676    1.4829 C   0  0  0  0  0  0  0  0  0  0  0  0
  -10.8238    1.2740    1.7979 C   0  0  0  0  0  0  0  0  0  0  0  0
   -6.6324   -0.0487    0.1583 C   0  0  0  0  0  0  0  0  0  0  0  0
   -0.7871   -1.5533   -2.0139 S   0  0  0  0  0  0  0  0  0  0  0  0
    1.1994   -4.6059   -1.3739 H   0  0  0  0  0  0  0  0  0  0  0  0
    1.8125   -2.9448   -1.3966 H   0  0  0  0  0  0  0  0  0  0  0  0
    1.1687   -3.6734   -2.8798 H   0  0  0  0  0  0  0  0  0  0  0  0
   -1.3029   -4.6358   -0.2550 H   0  0  0  0  0  0  0  0  0  0  0  0
   -4.5791   -1.6911   -0.1203 H   0  0  0  0  0  0  0  0  0  0  0  0
   -4.9449    1.1179   -2.5393 H   0  0  0  0  0  0  0  0  0  0  0  0
   -6.5723    2.8993   -2.3677 H   0  0  0  0  0  0  0  0  0  0  0  0
   -8.2451    2.8912   -0.5694 H   0  0  0  0  0  0  0  0  0  0  0  0
   -9.8291    1.2007   -1.4466 H   0  0  0  0  0  0  0  0  0  0  0  0
  -12.0568    2.1892   -1.8266 H   0  0  0  0  0  0  0  0  0  0  0  0
  -14.2356    4.4384    0.3227 H   0  0  0  0  0  0  0  0  0  0  0  0
  -16.5523    2.4674    0.6802 H   0  0  0  0  0  0  0  0  0  0  0  0
  -15.8829    6.0651   -0.3144 H   0  0  0  0  0  0  0  0  0  0  0  0
  -17.7203    7.6968   -0.4509 H   0  0  0  0  0  0  0  0  0  0  0  0
  -19.9783    7.1229    0.4041 H   0  0  0  0  0  0  0  0  0  0  0  0
  -20.3681    4.9284    1.4976 H   0  0  0  0  0  0  0  0  0  0  0  0
  -18.5386    3.2900    1.6578 H   0  0  0  0  0  0  0  0  0  0  0  0
  -13.3539    0.5558    3.0089 H   0  0  0  0  0  0  0  0  0  0  0  0
  -10.5041    1.0251    2.8027 H   0  0  0  0  0  0  0  0  0  0  0  0
   -6.6788   -0.8439    0.8988 H   0  0  0  0  0  0  0  0  0  0  0  0
  1  2  1  0  0  0  0
  1 34  1  0  0  0  0
  1 35  1  0  0  0  0
  1 36  1  0  0  0  0
  2  3  2  0  0  0  0
  2 33  1  0  0  0  0
  3  4  1  0  0  0  0
  3 37  1  0  0  0  0
  4  5  2  0  0  0  0
  5  6  1  0  0  0  0
  5 33  1  0  0  0  0
  6  7  2  0  0  0  0
  6  8  1  0  0  0  0
  8  9  1  0  0  0  0
  8 38  1  0  0  0  0
  9 10  1  0  0  0  0
  9 32  2  0  0  0  0
 10 11  2  0  0  0  0
 10 39  1  0  0  0  0
 11 12  1  0  0  0  0
 11 40  1  0  0  0  0
 12 13  2  0  0  0  0
 12 41  1  0  0  0  0
 13 14  1  0  0  0  0
 13 32  1  0  0  0  0
 14 15  1  0  0  0  0
 15 16  1  0  0  0  0
 15 31  2  0  0  0  0
 16 17  2  0  0  0  0
 16 42  1  0  0  0  0
 17 18  1  0  0  0  0
 17 43  1  0  0  0  0
 18 19  1  0  0  0  0
 18 30  2  0  0  0  0
 19 20  1  0  0  0  0
 19 28  2  0  0  0  0
 20 21  2  0  0  0  0
 20 44  1  0  0  0  0
 21 22  1  0  0  0  0
 21 45  1  0  0  0  0
 22 23  1  0  0  0  0
 22 27  2  0  0  0  0
 23 24  2  0  0  0  0
 23 46  1  0  0  0  0
 24 25  1  0  0  0  0
 24 47  1  0  0  0  0
 25 26  2  0  0  0  0
 25 48  1  0  0  0  0
 26 27  1  0  0  0  0
 26 49  1  0  0  0  0
 27 50  1  0  0  0  0
 28 29  1  0  0  0  0
 29 30  1  0  0  0  0
 29 51  1  0  0  0  0
 30 31  1  0  0  0  0
 31 52  1  0  0  0  0
 32 53  1  0  0  0  0
M  END
$$$$
