CHEMBL3916828
 OpenBabel04072215373D

 55 59  0  0  1  0  0  0  0  0999 V2000
    0.9894    5.7271  -12.0123 C   0  0  0  0  0  0  0  0  0  0  0  0
    1.5346    5.2343  -10.7920 O   0  0  0  0  0  0  0  0  0  0  0  0
    2.8910    5.3644  -10.6274 C   0  0  0  0  0  0  0  0  0  0  0  0
    3.7170    6.0519  -11.5110 C   0  0  0  0  0  0  0  0  0  0  0  0
    5.1019    6.1622  -11.2773 C   0  0  0  0  0  0  0  0  0  0  0  0
    5.9555    6.9679  -12.0508 C   0  0  0  0  0  0  0  0  0  0  0  0
    5.4012    7.7439  -13.0910 N   0  0  0  0  0  0  0  0  0  0  0  0
    6.2561    8.8068  -13.6473 C   0  0  1  0  0  0  0  0  0  0  0  0
    5.6183    9.4440  -14.8840 C   0  0  0  0  0  0  0  0  0  0  0  0
    4.7391   10.4902  -14.4487 O   0  0  0  0  0  0  0  0  0  0  0  0
    5.0514   10.7750  -13.0725 C   0  0  0  0  0  0  0  0  0  0  0  0
    6.3196   10.0064  -12.7026 C   0  0  2  0  0  0  0  0  0  0  0  0
    7.4648   10.8368  -12.9596 O   0  0  0  0  0  0  0  0  0  0  0  0
    8.6755   10.2566  -12.4758 C   0  0  0  0  0  0  0  0  0  0  0  0
    7.2664    7.0675  -11.7844 N   0  0  0  0  0  0  0  0  0  0  0  0
    7.7214    6.3435  -10.7524 C   0  0  0  0  0  0  0  0  0  0  0  0
    6.9906    5.5716   -9.9363 N   0  0  0  0  0  0  0  0  0  0  0  0
    5.6782    5.5053  -10.1831 C   0  0  0  0  0  0  0  0  0  0  0  0
    4.8436    4.8198   -9.2996 C   0  0  0  0  0  0  0  0  0  0  0  0
    3.4574    4.7857   -9.4823 C   0  0  0  0  0  0  0  0  0  0  0  0
    2.5803    4.3808   -8.5136 O   0  0  0  0  0  0  0  0  0  0  0  0
    2.8500    3.1825   -7.7720 C   0  0  1  0  0  0  0  0  0  0  0  0
    3.4464    3.5141   -6.4084 C   0  0  0  0  0  0  0  0  0  0  0  0
    2.3734    3.7794   -5.4868 O   0  0  0  0  0  0  0  0  0  0  0  0
    1.1733    3.2169   -6.0334 C   0  0  2  0  0  0  0  0  0  0  0  0
    0.7256    2.0160   -5.2049 C   0  0  1  0  0  0  0  0  0  0  0  0
   -0.3756    2.3198   -4.3635 O   0  0  0  0  0  0  0  0  0  0  0  0
    0.3814    1.0049   -6.2809 C   0  0  0  0  0  0  0  0  0  0  0  0
    1.4065    1.2052   -7.2698 O   0  0  0  0  0  0  0  0  0  0  0  0
    1.4790    2.6388   -7.4105 C   0  0  2  0  0  0  0  0  0  0  0  0
   -0.0664    5.4472  -12.0540 H   0  0  0  0  0  0  0  0  0  0  0  0
    1.4822    5.2816  -12.8846 H   0  0  0  0  0  0  0  0  0  0  0  0
    1.0475    6.8216  -12.0463 H   0  0  0  0  0  0  0  0  0  0  0  0
    3.2997    6.5651  -12.3700 H   0  0  0  0  0  0  0  0  0  0  0  0
    5.0083    7.1301  -13.7999 H   0  0  0  0  0  0  0  0  0  0  0  0
    7.2239    8.3902  -13.9430 H   0  0  0  0  0  0  0  0  0  0  0  0
    5.0518    8.7339  -15.4969 H   0  0  0  0  0  0  0  0  0  0  0  0
    6.3830    9.9078  -15.5164 H   0  0  0  0  0  0  0  0  0  0  0  0
    4.1970   10.4310  -12.4804 H   0  0  0  0  0  0  0  0  0  0  0  0
    5.1543   11.8571  -12.9516 H   0  0  0  0  0  0  0  0  0  0  0  0
    6.3014    9.7598  -11.6344 H   0  0  0  0  0  0  0  0  0  0  0  0
    9.4600   11.0156  -12.5448 H   0  0  0  0  0  0  0  0  0  0  0  0
    8.9681    9.4106  -13.0987 H   0  0  0  0  0  0  0  0  0  0  0  0
    8.5764    9.9508  -11.4331 H   0  0  0  0  0  0  0  0  0  0  0  0
    8.7852    6.3979  -10.5509 H   0  0  0  0  0  0  0  0  0  0  0  0
    5.2990    4.3799   -8.4183 H   0  0  0  0  0  0  0  0  0  0  0  0
    3.4610    2.4772   -8.3452 H   0  0  0  0  0  0  0  0  0  0  0  0
    4.0949    4.3933   -6.4172 H   0  0  0  0  0  0  0  0  0  0  0  0
    4.0114    2.6632   -6.0071 H   0  0  0  0  0  0  0  0  0  0  0  0
    0.4232    4.0130   -6.0725 H   0  0  0  0  0  0  0  0  0  0  0  0
    1.5451    1.6365   -4.5821 H   0  0  0  0  0  0  0  0  0  0  0  0
   -0.1007    3.0784   -3.8154 H   0  0  0  0  0  0  0  0  0  0  0  0
   -0.6042    1.2022   -6.7265 H   0  0  0  0  0  0  0  0  0  0  0  0
    0.3899   -0.0270   -5.9223 H   0  0  0  0  0  0  0  0  0  0  0  0
    0.7071    2.9270   -8.1317 H   0  0  0  0  0  0  0  0  0  0  0  0
  1  2  1  0  0  0  0
  1 31  1  0  0  0  0
  1 32  1  0  0  0  0
  1 33  1  0  0  0  0
  2  3  1  0  0  0  0
  3  4  1  0  0  0  0
  3 20  2  0  0  0  0
  4  5  2  0  0  0  0
  4 34  1  0  0  0  0
  5  6  1  0  0  0  0
  5 18  1  0  0  0  0
  6  7  1  0  0  0  0
  6 15  2  0  0  0  0
  7 35  1  0  0  0  0
  8  9  1  0  0  0  0
  8 12  1  0  0  0  0
  8  7  1  0  0  0  0
  8 36  1  6  0  0  0
  9 10  1  0  0  0  0
  9 37  1  0  0  0  0
  9 38  1  0  0  0  0
 10 11  1  0  0  0  0
 11 12  1  0  0  0  0
 11 39  1  0  0  0  0
 11 40  1  0  0  0  0
 12 13  1  0  0  0  0
 12 41  1  1  0  0  0
 13 14  1  0  0  0  0
 14 42  1  0  0  0  0
 14 43  1  0  0  0  0
 14 44  1  0  0  0  0
 15 16  1  0  0  0  0
 16 17  2  0  0  0  0
 16 45  1  0  0  0  0
 17 18  1  0  0  0  0
 18 19  2  0  0  0  0
 19 20  1  0  0  0  0
 19 46  1  0  0  0  0
 20 21  1  0  0  0  0
 22 23  1  0  0  0  0
 22 30  1  0  0  0  0
 22 21  1  0  0  0  0
 22 47  1  6  0  0  0
 23 24  1  0  0  0  0
 23 48  1  0  0  0  0
 23 49  1  0  0  0  0
 24 25  1  0  0  0  0
 25 26  1  0  0  0  0
 25 30  1  0  0  0  0
 25 50  1  6  0  0  0
 26 27  1  0  0  0  0
 26 28  1  0  0  0  0
 26 51  1  1  0  0  0
 27 52  1  0  0  0  0
 28 29  1  0  0  0  0
 28 53  1  0  0  0  0
 28 54  1  0  0  0  0
 29 30  1  0  0  0  0
 30 55  1  6  0  0  0
M  END
$$$$
