CHEMBL1997623
 OpenBabel04072215363D

 46 49  0  0  0  0  0  0  0  0999 V2000
    2.6254    0.4042    0.0612 N   0  0  0  0  0  0  0  0  0  0  0  0
    1.5231    0.3179    0.8166 C   0  0  0  0  0  0  0  0  0  0  0  0
    1.5447    0.3934    2.1442 N   0  0  0  0  0  0  0  0  0  0  0  0
    0.2576    0.2450    2.4907 N   0  0  0  0  0  0  0  0  0  0  0  0
   -0.5995    0.0749    1.4396 C   0  0  0  0  0  0  0  0  0  0  0  0
   -1.9877   -0.1281    1.3834 C   0  0  0  0  0  0  0  0  0  0  0  0
   -2.5874   -0.2958    0.1214 C   0  0  0  0  0  0  0  0  0  0  0  0
   -4.0429   -0.5460   -0.0174 C   0  0  0  0  0  0  0  0  0  0  0  0
   -4.7592   -0.0020   -1.0897 C   0  0  0  0  0  0  0  0  0  0  0  0
   -6.1199   -0.2606   -1.2719 C   0  0  0  0  0  0  0  0  0  0  0  0
   -6.8277   -1.0659   -0.3821 C   0  0  0  0  0  0  0  0  0  0  0  0
   -8.2072   -1.3463   -0.5294 N   0  0  0  0  0  0  0  0  0  0  0  0
   -8.9845   -1.0062   -1.6231 C   0  0  0  0  0  0  0  0  0  0  0  0
   -8.5621   -0.5253   -2.6700 O   0  0  0  0  0  0  0  0  0  0  0  0
  -10.3354   -1.2255   -1.3892 N   0  0  0  0  0  0  0  0  0  0  0  0
  -11.2936   -0.9049   -2.3802 C   0  0  0  0  0  0  0  0  0  0  0  0
  -12.4379   -0.2012   -2.0039 C   0  0  0  0  0  0  0  0  0  0  0  0
  -13.3498    0.2169   -2.9753 C   0  0  0  0  0  0  0  0  0  0  0  0
  -13.1476   -0.1080   -4.3188 C   0  0  0  0  0  0  0  0  0  0  0  0
  -12.0252   -0.8523   -4.7083 C   0  0  0  0  0  0  0  0  0  0  0  0
  -11.7951   -1.2268   -6.1516 C   0  0  0  0  0  0  0  0  0  0  0  0
  -12.7809   -0.7916   -6.9870 F   0  0  0  0  0  0  0  0  0  0  0  0
  -10.6354   -0.7221   -6.6546 F   0  0  0  0  0  0  0  0  0  0  0  0
  -11.7287   -2.5752   -6.3349 F   0  0  0  0  0  0  0  0  0  0  0  0
  -11.1005   -1.2424   -3.7262 C   0  0  0  0  0  0  0  0  0  0  0  0
   -6.1414   -1.5978    0.7114 C   0  0  0  0  0  0  0  0  0  0  0  0
   -4.7662   -1.3442    0.8860 C   0  0  0  0  0  0  0  0  0  0  0  0
   -1.7685   -0.2173   -1.0252 C   0  0  0  0  0  0  0  0  0  0  0  0
   -0.3855    0.0044   -0.9523 C   0  0  0  0  0  0  0  0  0  0  0  0
    0.2085    0.1354    0.3117 C   0  0  0  0  0  0  0  0  0  0  0  0
    3.4749    0.7139    0.5191 H   0  0  0  0  0  0  0  0  0  0  0  0
    2.5705    0.6255   -0.9240 H   0  0  0  0  0  0  0  0  0  0  0  0
    0.0245    0.2603    3.4795 H   0  0  0  0  0  0  0  0  0  0  0  0
   -2.5759   -0.1506    2.2950 H   0  0  0  0  0  0  0  0  0  0  0  0
   -4.2715    0.6431   -1.8176 H   0  0  0  0  0  0  0  0  0  0  0  0
   -6.5863    0.1987   -2.1366 H   0  0  0  0  0  0  0  0  0  0  0  0
   -8.6270   -1.9647    0.1488 H   0  0  0  0  0  0  0  0  0  0  0  0
  -10.6167   -1.0803   -0.4310 H   0  0  0  0  0  0  0  0  0  0  0  0
  -12.5981    0.0919   -0.9704 H   0  0  0  0  0  0  0  0  0  0  0  0
  -14.2110    0.8148   -2.6879 H   0  0  0  0  0  0  0  0  0  0  0  0
  -13.8674    0.2299   -5.0623 H   0  0  0  0  0  0  0  0  0  0  0  0
  -10.2176   -1.8066   -4.0262 H   0  0  0  0  0  0  0  0  0  0  0  0
   -6.6495   -2.2258    1.4390 H   0  0  0  0  0  0  0  0  0  0  0  0
   -4.2646   -1.8009    1.7363 H   0  0  0  0  0  0  0  0  0  0  0  0
   -2.1986   -0.3485   -2.0167 H   0  0  0  0  0  0  0  0  0  0  0  0
    0.2104    0.0542   -1.8576 H   0  0  0  0  0  0  0  0  0  0  0  0
  1  2  1  0  0  0  0
  1 31  1  0  0  0  0
  1 32  1  0  0  0  0
  2  3  2  0  0  0  0
  2 30  1  0  0  0  0
  3  4  1  0  0  0  0
  4  5  1  0  0  0  0
  4 33  1  0  0  0  0
  5  6  1  0  0  0  0
  5 30  2  0  0  0  0
  6  7  2  0  0  0  0
  6 34  1  0  0  0  0
  7  8  1  0  0  0  0
  7 28  1  0  0  0  0
  8  9  1  0  0  0  0
  8 27  2  0  0  0  0
  9 10  2  0  0  0  0
  9 35  1  0  0  0  0
 10 11  1  0  0  0  0
 10 36  1  0  0  0  0
 11 12  1  0  0  0  0
 11 26  2  0  0  0  0
 12 13  1  0  0  0  0
 12 37  1  0  0  0  0
 13 14  2  0  0  0  0
 13 15  1  0  0  0  0
 15 16  1  0  0  0  0
 15 38  1  0  0  0  0
 16 17  1  0  0  0  0
 16 25  2  0  0  0  0
 17 18  2  0  0  0  0
 17 39  1  0  0  0  0
 18 19  1  0  0  0  0
 18 40  1  0  0  0  0
 19 20  2  0  0  0  0
 19 41  1  0  0  0  0
 20 21  1  0  0  0  0
 20 25  1  0  0  0  0
 21 22  1  0  0  0  0
 21 23  1  0  0  0  0
 21 24  1  0  0  0  0
 25 42  1  0  0  0  0
 26 27  1  0  0  0  0
 26 43  1  0  0  0  0
 27 44  1  0  0  0  0
 28 29  2  0  0  0  0
 28 45  1  0  0  0  0
 29 30  1  0  0  0  0
 29 46  1  0  0  0  0
M  END
$$$$
