CHEMBL3752671
 OpenBabel04072215373D

 58 62  0  0  0  0  0  0  0  0999 V2000
   12.0790    5.4469    0.6236 N   0  0  0  0  0  0  0  0  0  0  0  0
   11.3610    4.5359    0.6123 C   0  0  0  0  0  0  0  0  0  0  0  0
   10.4694    3.4142    0.6029 C   0  0  0  0  0  0  0  0  0  0  0  0
    9.0922    3.6192    0.5212 C   0  0  0  0  0  0  0  0  0  0  0  0
    8.2139    2.5288    0.5338 C   0  0  0  0  0  0  0  0  0  0  0  0
    8.7006    1.2231    0.6342 C   0  0  0  0  0  0  0  0  0  0  0  0
    7.8673    0.0885    0.7016 N   0  0  0  0  0  0  0  0  0  0  0  0
    6.4784    0.0366    0.6851 C   0  0  0  0  0  0  0  0  0  0  0  0
    5.7165    0.9972    0.6184 O   0  0  0  0  0  0  0  0  0  0  0  0
    5.9210   -1.4053    0.8084 C   0  0  0  0  0  0  0  0  0  0  0  0
    6.8519   -2.3656    0.2035 N   0  0  0  0  0  0  0  0  0  0  0  0
    6.9648   -2.2106   -1.2578 C   0  0  0  0  0  0  0  0  0  0  0  0
    6.4388   -3.3716   -2.1271 C   0  0  0  0  0  0  0  0  0  0  0  0
    7.0025   -4.6076   -1.6061 N   0  0  0  0  0  0  0  0  0  0  0  0
    7.8285   -5.4797   -2.2884 C   0  0  0  0  0  0  0  0  0  0  0  0
    7.7058   -6.7952   -2.0082 N   0  0  0  0  0  0  0  0  0  0  0  0
    8.4741   -7.7625   -2.6402 N   0  0  0  0  0  0  0  0  0  0  0  0
    9.3680   -7.4285   -3.5958 C   0  0  0  0  0  0  0  0  0  0  0  0
   10.1775   -8.5715   -4.1090 C   0  0  0  0  0  0  0  0  0  0  0  0
    9.6087   -9.8459   -4.2925 C   0  0  0  0  0  0  0  0  0  0  0  0
   10.3583  -10.9188   -4.7966 C   0  0  0  0  0  0  0  0  0  0  0  0
   11.6932  -10.7405   -5.1477 C   0  0  0  0  0  0  0  0  0  0  0  0
   12.2924   -9.5040   -4.9499 C   0  0  0  0  0  0  0  0  0  0  0  0
   11.5527   -8.4517   -4.4008 C   0  0  0  0  0  0  0  0  0  0  0  0
    9.5230   -6.0772   -3.9781 C   0  0  0  0  0  0  0  0  0  0  0  0
   10.3800   -5.6499   -5.0366 C   0  0  0  0  0  0  0  0  0  0  0  0
   10.6551   -4.3106   -5.2997 C   0  0  0  0  0  0  0  0  0  0  0  0
   10.0521   -3.3463   -4.5320 C   0  0  0  0  0  0  0  0  0  0  0  0
    9.1473   -3.7385   -3.5490 C   0  0  0  0  0  0  0  0  0  0  0  0
    8.7975   -5.0858   -3.2619 C   0  0  0  0  0  0  0  0  0  0  0  0
    6.4589   -4.9257   -0.2835 C   0  0  0  0  0  0  0  0  0  0  0  0
    6.7844   -3.7568    0.7032 C   0  0  0  0  0  0  0  0  0  0  0  0
   10.0833    1.0225    0.6909 C   0  0  0  0  0  0  0  0  0  0  0  0
   10.9692    2.1122    0.6778 C   0  0  0  0  0  0  0  0  0  0  0  0
    8.6829    4.6256    0.4520 H   0  0  0  0  0  0  0  0  0  0  0  0
    7.1537    2.7375    0.4661 H   0  0  0  0  0  0  0  0  0  0  0  0
    8.3094   -0.8275    0.7427 H   0  0  0  0  0  0  0  0  0  0  0  0
    4.9394   -1.4528    0.3230 H   0  0  0  0  0  0  0  0  0  0  0  0
    5.7953   -1.5905    1.8803 H   0  0  0  0  0  0  0  0  0  0  0  0
    8.0379   -2.0813   -1.4150 H   0  0  0  0  0  0  0  0  0  0  0  0
    6.5105   -1.2804   -1.6186 H   0  0  0  0  0  0  0  0  0  0  0  0
    6.6338   -3.2110   -3.1912 H   0  0  0  0  0  0  0  0  0  0  0  0
    5.3434   -3.4054   -2.0469 H   0  0  0  0  0  0  0  0  0  0  0  0
    8.5645  -10.0184   -4.0348 H   0  0  0  0  0  0  0  0  0  0  0  0
    9.8955  -11.8955   -4.9146 H   0  0  0  0  0  0  0  0  0  0  0  0
   12.2699  -11.5663   -5.5563 H   0  0  0  0  0  0  0  0  0  0  0  0
   13.3372   -9.3538   -5.2103 H   0  0  0  0  0  0  0  0  0  0  0  0
   12.0810   -7.5210   -4.2038 H   0  0  0  0  0  0  0  0  0  0  0  0
   10.8647   -6.3738   -5.6871 H   0  0  0  0  0  0  0  0  0  0  0  0
   11.3510   -4.0309   -6.0847 H   0  0  0  0  0  0  0  0  0  0  0  0
   10.2604   -2.2916   -4.6878 H   0  0  0  0  0  0  0  0  0  0  0  0
    8.7343   -2.9274   -2.9796 H   0  0  0  0  0  0  0  0  0  0  0  0
    6.8473   -5.8614    0.1344 H   0  0  0  0  0  0  0  0  0  0  0  0
    5.3683   -5.0364   -0.3591 H   0  0  0  0  0  0  0  0  0  0  0  0
    7.7871   -3.9655    1.0982 H   0  0  0  0  0  0  0  0  0  0  0  0
    6.1135   -3.8365    1.5683 H   0  0  0  0  0  0  0  0  0  0  0  0
   10.5050    0.0219    0.7524 H   0  0  0  0  0  0  0  0  0  0  0  0
   12.0419    1.9391    0.7368 H   0  0  0  0  0  0  0  0  0  0  0  0
  1  2  3  0  0  0  0
  2  3  1  0  0  0  0
  3  4  1  0  0  0  0
  3 34  2  0  0  0  0
  4  5  2  0  0  0  0
  4 35  1  0  0  0  0
  5  6  1  0  0  0  0
  5 36  1  0  0  0  0
  6  7  1  0  0  0  0
  6 33  2  0  0  0  0
  7  8  1  0  0  0  0
  7 37  1  0  0  0  0
  8  9  2  0  0  0  0
  8 10  1  0  0  0  0
 10 11  1  0  0  0  0
 10 38  1  0  0  0  0
 10 39  1  0  0  0  0
 11 12  1  0  0  0  0
 11 32  1  0  0  0  0
 12 13  1  0  0  0  0
 12 40  1  0  0  0  0
 12 41  1  0  0  0  0
 13 14  1  0  0  0  0
 13 42  1  0  0  0  0
 13 43  1  0  0  0  0
 14 15  1  0  0  0  0
 14 31  1  0  0  0  0
 15 16  1  0  0  0  0
 15 30  2  0  0  0  0
 16 17  2  0  0  0  0
 17 18  1  0  0  0  0
 18 19  1  0  0  0  0
 18 25  2  0  0  0  0
 19 20  1  0  0  0  0
 19 24  2  0  0  0  0
 20 21  2  0  0  0  0
 20 44  1  0  0  0  0
 21 22  1  0  0  0  0
 21 45  1  0  0  0  0
 22 23  2  0  0  0  0
 22 46  1  0  0  0  0
 23 24  1  0  0  0  0
 23 47  1  0  0  0  0
 24 48  1  0  0  0  0
 25 26  1  0  0  0  0
 25 30  1  0  0  0  0
 26 27  2  0  0  0  0
 26 49  1  0  0  0  0
 27 28  1  0  0  0  0
 27 50  1  0  0  0  0
 28 29  2  0  0  0  0
 28 51  1  0  0  0  0
 29 30  1  0  0  0  0
 29 52  1  0  0  0  0
 31 32  1  0  0  0  0
 31 53  1  0  0  0  0
 31 54  1  0  0  0  0
 32 55  1  0  0  0  0
 32 56  1  0  0  0  0
 33 34  1  0  0  0  0
 33 57  1  0  0  0  0
 34 58  1  0  0  0  0
M  END
$$$$
