CHEMBL3986607
 OpenBabel04072215373D

 56 60  0  0  0  0  0  0  0  0999 V2000
    1.1566    2.2931    0.7819 C   0  0  0  0  0  0  0  0  0  0  0  0
    2.5566    2.2127    0.4209 N   0  0  0  0  0  0  0  0  0  0  0  0
    3.1567    0.9788    0.2484 C   0  0  0  0  0  0  0  0  0  0  0  0
    2.5033   -0.0573    0.3209 O   0  0  0  0  0  0  0  0  0  0  0  0
    4.6317    0.9965   -0.1068 C   0  0  0  0  0  0  0  0  0  0  0  0
    5.1451   -0.0237   -0.8847 C   0  0  0  0  0  0  0  0  0  0  0  0
    6.4626    0.0401   -1.3422 C   0  0  0  0  0  0  0  0  0  0  0  0
    7.0647   -0.9219   -2.1068 O   0  0  0  0  0  0  0  0  0  0  0  0
    6.2187   -2.0253   -2.4056 C   0  0  0  0  0  0  0  0  0  0  0  0
    7.2540    1.1533   -1.0637 C   0  0  0  0  0  0  0  0  0  0  0  0
    6.7579    2.2585   -0.3919 C   0  0  0  0  0  0  0  0  0  0  0  0
    7.5035    3.4765   -0.3934 N   0  0  0  0  0  0  0  0  0  0  0  0
    6.6907    4.7652   -0.2033 C   0  0  0  0  0  0  0  0  0  0  0  0
    6.3967    5.4632   -1.5118 C   0  0  0  0  0  0  0  0  0  0  0  0
    5.7192    6.8365   -1.5549 C   0  0  0  0  0  0  0  0  0  0  0  0
    5.0078    5.6348   -2.1039 C   0  0  0  0  0  0  0  0  0  0  0  0
    8.8797    3.7093   -0.7914 C   0  0  0  0  0  0  0  0  0  0  0  0
    9.5366    4.6280   -0.0344 C   0  0  0  0  0  0  0  0  0  0  0  0
   10.8105    4.9074   -0.3451 C   0  0  0  0  0  0  0  0  0  0  0  0
   11.4599    4.5182   -1.4398 C   0  0  0  0  0  0  0  0  0  0  0  0
   12.0372    5.5184   -1.9154 N   0  0  0  0  0  0  0  0  0  0  0  0
   13.2831    5.5105   -1.5211 C   0  0  0  0  0  0  0  0  0  0  0  0
   14.2363    4.7778   -2.0746 C   0  0  0  0  0  0  0  0  0  0  0  0
   15.2660    6.2179   -1.8848 C   0  0  0  0  0  0  0  0  0  0  0  0
   15.0359    7.7169   -1.5257 C   0  0  0  0  0  0  0  0  0  0  0  0
   16.1183    8.4491   -1.1954 N   0  0  0  0  0  0  0  0  0  0  0  0
   17.1199    7.5864   -1.3031 N   0  0  0  0  0  0  0  0  0  0  0  0
   16.6711    6.2976   -1.6811 C   0  0  0  0  0  0  0  0  0  0  0  0
   13.1793    3.7242   -2.5333 N   0  0  0  0  0  0  0  0  0  0  0  0
   11.4827    3.4235   -2.1702 C   0  0  0  0  0  0  0  0  0  0  0  0
    9.7740    3.0965   -1.8447 C   0  0  0  0  0  0  0  0  0  0  0  0
    5.5039    2.0468    0.2447 C   0  0  0  0  0  0  0  0  0  0  0  0
    0.8729    3.3404    0.9051 H   0  0  0  0  0  0  0  0  0  0  0  0
    0.9978    1.7544    1.7217 H   0  0  0  0  0  0  0  0  0  0  0  0
    0.5384    1.8300    0.0055 H   0  0  0  0  0  0  0  0  0  0  0  0
    3.0844    3.0608    0.2692 H   0  0  0  0  0  0  0  0  0  0  0  0
    4.5101   -0.8755   -1.0899 H   0  0  0  0  0  0  0  0  0  0  0  0
    6.7832   -2.7277   -3.0160 H   0  0  0  0  0  0  0  0  0  0  0  0
    5.3387   -1.7053   -2.9784 H   0  0  0  0  0  0  0  0  0  0  0  0
    5.9170   -2.5368   -1.4840 H   0  0  0  0  0  0  0  0  0  0  0  0
    8.2876    1.1352   -1.3690 H   0  0  0  0  0  0  0  0  0  0  0  0
    7.2098    5.5177    0.4114 H   0  0  0  0  0  0  0  0  0  0  0  0
    5.7537    4.5720    0.3195 H   0  0  0  0  0  0  0  0  0  0  0  0
    7.2344    5.3191   -2.1802 H   0  0  0  0  0  0  0  0  0  0  0  0
    6.0027    7.5554   -2.3194 H   0  0  0  0  0  0  0  0  0  0  0  0
    5.4308    7.3630   -0.6484 H   0  0  0  0  0  0  0  0  0  0  0  0
    4.9044    5.6641   -3.1886 H   0  0  0  0  0  0  0  0  0  0  0  0
    4.1204    5.2547   -1.6137 H   0  0  0  0  0  0  0  0  0  0  0  0
    9.1314    5.2717    0.7342 H   0  0  0  0  0  0  0  0  0  0  0  0
   11.3119    5.7159    0.1510 H   0  0  0  0  0  0  0  0  0  0  0  0
   13.3979    6.2565   -0.7645 H   0  0  0  0  0  0  0  0  0  0  0  0
   14.1402    8.3297   -1.4585 H   0  0  0  0  0  0  0  0  0  0  0  0
   18.0702    7.9446   -1.1134 H   0  0  0  0  0  0  0  0  0  0  0  0
   17.4875    5.6097   -1.7767 H   0  0  0  0  0  0  0  0  0  0  0  0
    9.1379    2.4617   -2.5165 H   0  0  0  0  0  0  0  0  0  0  0  0
    5.1944    2.6451    1.0925 H   0  0  0  0  0  0  0  0  0  0  0  0
  1  2  1  0  0  0  0
  1 33  1  0  0  0  0
  1 34  1  0  0  0  0
  1 35  1  0  0  0  0
  2  3  1  0  0  0  0
  2 36  1  0  0  0  0
  3  4  2  0  0  0  0
  3  5  1  0  0  0  0
  5  6  1  0  0  0  0
  5 32  2  0  0  0  0
  6  7  2  0  0  0  0
  6 37  1  0  0  0  0
  7  8  1  0  0  0  0
  7 10  1  0  0  0  0
  8  9  1  0  0  0  0
  9 38  1  0  0  0  0
  9 39  1  0  0  0  0
  9 40  1  0  0  0  0
 10 11  2  0  0  0  0
 10 41  1  0  0  0  0
 11 12  1  0  0  0  0
 11 32  1  0  0  0  0
 12 13  1  0  0  0  0
 12 17  1  0  0  0  0
 13 14  1  0  0  0  0
 13 42  1  0  0  0  0
 13 43  1  0  0  0  0
 14 15  1  0  0  0  0
 14 16  1  0  0  0  0
 14 44  1  0  0  0  0
 15 16  1  0  0  0  0
 15 45  1  0  0  0  0
 15 46  1  0  0  0  0
 16 47  1  0  0  0  0
 16 48  1  0  0  0  0
 17 18  1  0  0  0  0
 17 31  2  0  0  0  0
 18 19  2  0  0  0  0
 18 49  1  0  0  0  0
 19 20  1  0  0  0  0
 19 50  1  0  0  0  0
 20 21  1  0  0  0  0
 20 30  2  0  0  0  0
 21 22  2  0  0  0  0
 22 23  1  0  0  0  0
 22 51  1  0  0  0  0
 23 24  1  0  0  0  0
 23 29  2  0  0  0  0
 24 25  1  0  0  0  0
 24 28  2  0  0  0  0
 25 26  2  0  0  0  0
 25 52  1  0  0  0  0
 26 27  1  0  0  0  0
 27 28  1  0  0  0  0
 27 53  1  0  0  0  0
 28 54  1  0  0  0  0
 29 30  1  0  0  0  0
 30 31  1  0  0  0  0
 31 55  1  0  0  0  0
 32 56  1  0  0  0  0
M  END
$$$$
