CHEMBL3895890
 OpenBabel04072215373D

 68 72  0  0  1  0  0  0  0  0999 V2000
    3.5204   -5.5033   -0.0662 C   0  0  0  0  0  0  0  0  0  0  0  0
    4.4986   -4.6083    0.4368 O   0  0  0  0  0  0  0  0  0  0  0  0
    4.2696   -3.2647    0.3845 C   0  0  0  0  0  0  0  0  0  0  0  0
    5.4626   -2.5216    0.3439 C   0  0  0  0  0  0  0  0  0  0  0  0
    5.4585   -1.1053    0.3076 C   0  0  0  0  0  0  0  0  0  0  0  0
    6.5812   -0.2702    0.2055 C   0  0  0  0  0  0  0  0  0  0  0  0
    7.8721   -0.8405    0.0371 N   0  0  0  0  0  0  0  0  0  0  0  0
    9.0600   -0.1184    0.2863 C   0  0  0  0  0  0  0  0  0  0  0  0
    9.2074    0.5903    1.4874 C   0  0  0  0  0  0  0  0  0  0  0  0
   10.3313    1.3800    1.7249 C   0  0  0  0  0  0  0  0  0  0  0  0
   11.3329    1.4661    0.7594 C   0  0  0  0  0  0  0  0  0  0  0  0
   12.6755    2.5002    1.0921 Cl  0  0  0  0  0  0  0  0  0  0  0  0
   11.2149    0.7376   -0.4298 C   0  0  0  0  0  0  0  0  0  0  0  0
   12.4211    0.7970   -1.6677 Cl  0  0  0  0  0  0  0  0  0  0  0  0
   10.0858   -0.0597   -0.6615 C   0  0  0  0  0  0  0  0  0  0  0  0
    6.4834    1.0756    0.2346 N   0  0  0  0  0  0  0  0  0  0  0  0
    5.2637    1.5946    0.3497 C   0  0  0  0  0  0  0  0  0  0  0  0
    4.1313    0.8995    0.4280 N   0  0  0  0  0  0  0  0  0  0  0  0
    4.2478   -0.4270    0.4041 C   0  0  0  0  0  0  0  0  0  0  0  0
    3.0842   -1.1669    0.4753 C   0  0  0  0  0  0  0  0  0  0  0  0
    3.0562   -2.5740    0.4118 C   0  0  0  0  0  0  0  0  0  0  0  0
    1.8511   -3.2485    0.3853 O   0  0  0  0  0  0  0  0  0  0  0  0
    0.8117   -2.4669   -0.2268 C   0  0  0  0  0  0  0  0  0  0  0  0
   -0.4207   -3.2500   -0.6525 C   0  0  3  0  0  0  0  0  0  0  0  0
   -1.1471   -3.8980    0.5347 C   0  0  0  0  0  0  0  0  0  0  0  0
   -2.4528   -4.4662    0.1214 N   0  0  0  0  0  0  0  0  0  0  0  0
   -3.4273   -3.4524   -0.3385 C   0  0  0  0  0  0  0  0  0  0  0  0
   -3.7451   -2.2817    0.6304 C   0  0  0  0  0  0  0  0  0  0  0  0
   -4.4640   -2.7663    1.8999 C   0  0  0  0  0  0  0  0  0  0  0  0
   -4.9681   -1.6137    2.7712 C   0  0  0  0  0  0  0  0  0  0  0  0
   -5.8237   -0.6335    1.9775 C   0  0  0  0  0  0  0  0  0  0  0  0
   -5.0507   -0.0923    0.7828 C   0  0  0  0  0  0  0  0  0  0  0  0
   -4.5810   -1.2257   -0.1221 C   0  0  0  0  0  0  0  0  0  0  0  0
   -2.1611   -5.4361   -0.9710 C   0  0  0  0  0  0  0  0  0  0  0  0
   -1.2911   -4.8717   -2.1211 C   0  0  0  0  0  0  0  0  0  0  0  0
   -0.0935   -4.2405   -1.6404 O   0  0  0  0  0  0  0  0  0  0  0  0
    4.0568   -6.2989   -0.5918 H   0  0  0  0  0  0  0  0  0  0  0  0
    2.8366   -5.0558   -0.7951 H   0  0  0  0  0  0  0  0  0  0  0  0
    2.9727   -5.9593    0.7618 H   0  0  0  0  0  0  0  0  0  0  0  0
    6.4074   -3.0616    0.3382 H   0  0  0  0  0  0  0  0  0  0  0  0
    7.8916   -1.3629   -0.8335 H   0  0  0  0  0  0  0  0  0  0  0  0
    8.4213    0.5466    2.2389 H   0  0  0  0  0  0  0  0  0  0  0  0
   10.4029    1.9338    2.6560 H   0  0  0  0  0  0  0  0  0  0  0  0
    9.9961   -0.6016   -1.5988 H   0  0  0  0  0  0  0  0  0  0  0  0
    5.1849    2.6755    0.3785 H   0  0  0  0  0  0  0  0  0  0  0  0
    2.1744   -0.5834    0.5665 H   0  0  0  0  0  0  0  0  0  0  0  0
    1.2015   -1.9790   -1.1310 H   0  0  0  0  0  0  0  0  0  0  0  0
    0.4694   -1.7100    0.4904 H   0  0  0  0  0  0  0  0  0  0  0  0
   -1.0673   -2.5044   -1.1319 H   0  0  0  0  0  0  0  0  0  0  0  0
   -1.2750   -3.1968    1.3650 H   0  0  0  0  0  0  0  0  0  0  0  0
   -0.5324   -4.7164    0.9350 H   0  0  0  0  0  0  0  0  0  0  0  0
   -4.3694   -3.9740   -0.5509 H   0  0  0  0  0  0  0  0  0  0  0  0
   -3.1162   -3.0165   -1.2939 H   0  0  0  0  0  0  0  0  0  0  0  0
   -2.8167   -1.7802    0.9298 H   0  0  0  0  0  0  0  0  0  0  0  0
   -3.7890   -3.3913    2.4963 H   0  0  0  0  0  0  0  0  0  0  0  0
   -5.3181   -3.3958    1.6226 H   0  0  0  0  0  0  0  0  0  0  0  0
   -4.1137   -1.0810    3.2066 H   0  0  0  0  0  0  0  0  0  0  0  0
   -5.5533   -2.0141    3.6070 H   0  0  0  0  0  0  0  0  0  0  0  0
   -6.1393    0.1951    2.6211 H   0  0  0  0  0  0  0  0  0  0  0  0
   -6.7348   -1.1342    1.6284 H   0  0  0  0  0  0  0  0  0  0  0  0
   -4.1877    0.4847    1.1322 H   0  0  0  0  0  0  0  0  0  0  0  0
   -5.6839    0.5979    0.2114 H   0  0  0  0  0  0  0  0  0  0  0  0
   -3.9840   -0.8004   -0.9391 H   0  0  0  0  0  0  0  0  0  0  0  0
   -5.4545   -1.7013   -0.5822 H   0  0  0  0  0  0  0  0  0  0  0  0
   -3.0909   -5.8520   -1.3753 H   0  0  0  0  0  0  0  0  0  0  0  0
   -1.6192   -6.2794   -0.5230 H   0  0  0  0  0  0  0  0  0  0  0  0
   -1.8487   -4.1500   -2.7289 H   0  0  0  0  0  0  0  0  0  0  0  0
   -0.9861   -5.6838   -2.7886 H   0  0  0  0  0  0  0  0  0  0  0  0
  1  2  1  0  0  0  0
  1 37  1  0  0  0  0
  1 38  1  0  0  0  0
  1 39  1  0  0  0  0
  2  3  1  0  0  0  0
  3  4  1  0  0  0  0
  3 21  2  0  0  0  0
  4  5  2  0  0  0  0
  4 40  1  0  0  0  0
  5  6  1  0  0  0  0
  5 19  1  0  0  0  0
  6  7  1  0  0  0  0
  6 16  2  0  0  0  0
  7  8  1  0  0  0  0
  7 41  1  0  0  0  0
  8  9  1  0  0  0  0
  8 15  2  0  0  0  0
  9 10  2  0  0  0  0
  9 42  1  0  0  0  0
 10 11  1  0  0  0  0
 10 43  1  0  0  0  0
 11 12  1  0  0  0  0
 11 13  2  0  0  0  0
 13 14  1  0  0  0  0
 13 15  1  0  0  0  0
 15 44  1  0  0  0  0
 16 17  1  0  0  0  0
 17 18  2  0  0  0  0
 17 45  1  0  0  0  0
 18 19  1  0  0  0  0
 19 20  2  0  0  0  0
 20 21  1  0  0  0  0
 20 46  1  0  0  0  0
 21 22  1  0  0  0  0
 22 23  1  0  0  0  0
 23 24  1  0  0  0  0
 23 47  1  0  0  0  0
 23 48  1  0  0  0  0
 24 25  1  0  0  0  0
 24 36  1  0  0  0  0
 24 49  1  0  0  0  0
 25 26  1  0  0  0  0
 25 50  1  0  0  0  0
 25 51  1  0  0  0  0
 26 27  1  0  0  0  0
 26 34  1  0  0  0  0
 27 28  1  0  0  0  0
 27 52  1  0  0  0  0
 27 53  1  0  0  0  0
 28 29  1  0  0  0  0
 28 33  1  0  0  0  0
 28 54  1  0  0  0  0
 29 30  1  0  0  0  0
 29 55  1  0  0  0  0
 29 56  1  0  0  0  0
 30 31  1  0  0  0  0
 30 57  1  0  0  0  0
 30 58  1  0  0  0  0
 31 32  1  0  0  0  0
 31 59  1  0  0  0  0
 31 60  1  0  0  0  0
 32 33  1  0  0  0  0
 32 61  1  0  0  0  0
 32 62  1  0  0  0  0
 33 63  1  0  0  0  0
 33 64  1  0  0  0  0
 34 35  1  0  0  0  0
 34 65  1  0  0  0  0
 34 66  1  0  0  0  0
 35 36  1  0  0  0  0
 35 67  1  0  0  0  0
 35 68  1  0  0  0  0
M  END
$$$$
