CHEMBL3397945
 OpenBabel04072215363D

 60 63  0  0  0  0  0  0  0  0999 V2000
    1.0871    0.3348    0.7822 O   0  0  0  0  0  0  0  0  0  0  0  0
    2.1926    0.1459    0.2788 C   0  0  0  0  0  0  0  0  0  0  0  0
    2.7536    0.8339   -0.7830 N   0  0  0  0  0  0  0  0  0  0  0  0
    2.1707    1.9186   -1.4630 C   0  0  0  0  0  0  0  0  0  0  0  0
    1.0772    2.6276   -0.9717 C   0  0  0  0  0  0  0  0  0  0  0  0
    0.5228    3.6639   -1.7177 C   0  0  0  0  0  0  0  0  0  0  0  0
    1.0366    4.0081   -2.9697 C   0  0  0  0  0  0  0  0  0  0  0  0
    0.3660    5.0514   -3.5435 O   0  0  0  0  0  0  0  0  0  0  0  0
    0.1722    4.9977   -4.9514 C   0  0  0  0  0  0  0  0  0  0  0  0
   -1.1541    5.6615   -5.3052 C   0  0  0  0  0  0  0  0  0  0  0  0
   -2.3737    4.8830   -4.7837 C   0  0  0  0  0  0  0  0  0  0  0  0
   -3.6516    5.5297   -5.1425 N   0  0  0  0  0  0  0  0  0  0  0  0
   -4.8170    4.7833   -4.6107 C   0  0  0  0  0  0  0  0  0  0  0  0
   -5.1979    3.5118   -5.4017 C   0  0  0  0  0  0  0  0  0  0  0  0
   -5.2902    3.7392   -6.8151 O   0  0  0  0  0  0  0  0  0  0  0  0
   -4.0967    4.3534   -7.3126 C   0  0  0  0  0  0  0  0  0  0  0  0
   -3.8591    5.6890   -6.5980 C   0  0  0  0  0  0  0  0  0  0  0  0
    2.1672    3.3317   -3.4451 C   0  0  0  0  0  0  0  0  0  0  0  0
    2.9822    3.7163   -4.9213 Cl  0  0  0  0  0  0  0  0  0  0  0  0
    2.7305    2.2942   -2.6885 C   0  0  0  0  0  0  0  0  0  0  0  0
    3.0059   -0.9868    0.7863 C   0  0  0  0  0  0  0  0  0  0  0  0
    2.3494   -2.1375    1.2258 C   0  0  0  0  0  0  0  0  0  0  0  0
    3.0923   -3.2212    1.6799 C   0  0  0  0  0  0  0  0  0  0  0  0
    4.4895   -3.1613    1.6723 C   0  0  0  0  0  0  0  0  0  0  0  0
    5.1785   -2.0255    1.2061 C   0  0  0  0  0  0  0  0  0  0  0  0
    6.6498   -2.0157    1.0293 C   0  0  0  0  0  0  0  0  0  0  0  0
    7.3338   -3.1881    0.6497 C   0  0  0  0  0  0  0  0  0  0  0  0
    8.6956   -3.1718    0.3385 C   0  0  0  0  0  0  0  0  0  0  0  0
    9.4067   -1.9774    0.3774 C   0  0  0  0  0  0  0  0  0  0  0  0
    8.7525   -0.8146    0.7620 C   0  0  0  0  0  0  0  0  0  0  0  0
    9.3952    0.3885    0.7716 O   0  0  0  0  0  0  0  0  0  0  0  0
    7.4040   -0.8306    1.1103 C   0  0  0  0  0  0  0  0  0  0  0  0
    4.4045   -0.9235    0.8040 C   0  0  0  0  0  0  0  0  0  0  0  0
    3.5876    0.4413   -1.2023 H   0  0  0  0  0  0  0  0  0  0  0  0
    0.6411    2.4062   -0.0025 H   0  0  0  0  0  0  0  0  0  0  0  0
   -0.3330    4.2052   -1.3145 H   0  0  0  0  0  0  0  0  0  0  0  0
    0.1730    3.9721   -5.3397 H   0  0  0  0  0  0  0  0  0  0  0  0
    0.9732    5.5748   -5.4263 H   0  0  0  0  0  0  0  0  0  0  0  0
   -1.1783    5.7366   -6.3967 H   0  0  0  0  0  0  0  0  0  0  0  0
   -1.1780    6.6791   -4.8959 H   0  0  0  0  0  0  0  0  0  0  0  0
   -2.3084    4.8389   -3.6892 H   0  0  0  0  0  0  0  0  0  0  0  0
   -2.3292    3.8474   -5.1404 H   0  0  0  0  0  0  0  0  0  0  0  0
   -5.6749    5.4685   -4.6427 H   0  0  0  0  0  0  0  0  0  0  0  0
   -4.6745    4.5351   -3.5521 H   0  0  0  0  0  0  0  0  0  0  0  0
   -6.1828    3.1631   -5.0723 H   0  0  0  0  0  0  0  0  0  0  0  0
   -4.4840    2.7014   -5.2213 H   0  0  0  0  0  0  0  0  0  0  0  0
   -4.2274    4.5238   -8.3853 H   0  0  0  0  0  0  0  0  0  0  0  0
   -3.2530    3.6629   -7.1948 H   0  0  0  0  0  0  0  0  0  0  0  0
   -4.7469    6.3212   -6.7363 H   0  0  0  0  0  0  0  0  0  0  0  0
   -3.0426    6.2424   -7.0684 H   0  0  0  0  0  0  0  0  0  0  0  0
    3.6047    1.7754   -3.0701 H   0  0  0  0  0  0  0  0  0  0  0  0
    1.2631   -2.1924    1.2027 H   0  0  0  0  0  0  0  0  0  0  0  0
    2.5862   -4.1224    2.0193 H   0  0  0  0  0  0  0  0  0  0  0  0
    5.0374   -4.0310    2.0294 H   0  0  0  0  0  0  0  0  0  0  0  0
    6.8006   -4.1301    0.5497 H   0  0  0  0  0  0  0  0  0  0  0  0
    9.1888   -4.0924    0.0360 H   0  0  0  0  0  0  0  0  0  0  0  0
   10.4553   -1.9719    0.1034 H   0  0  0  0  0  0  0  0  0  0  0  0
   10.2676    0.2755    0.3603 H   0  0  0  0  0  0  0  0  0  0  0  0
    6.9442    0.1060    1.4169 H   0  0  0  0  0  0  0  0  0  0  0  0
    4.8971   -0.0106    0.4792 H   0  0  0  0  0  0  0  0  0  0  0  0
  1  2  2  0  0  0  0
  2  3  1  0  0  0  0
  2 21  1  0  0  0  0
  3  4  1  0  0  0  0
  3 34  1  0  0  0  0
  4  5  1  0  0  0  0
  4 20  2  0  0  0  0
  5  6  2  0  0  0  0
  5 35  1  0  0  0  0
  6  7  1  0  0  0  0
  6 36  1  0  0  0  0
  7  8  1  0  0  0  0
  7 18  2  0  0  0  0
  8  9  1  0  0  0  0
  9 10  1  0  0  0  0
  9 37  1  0  0  0  0
  9 38  1  0  0  0  0
 10 11  1  0  0  0  0
 10 39  1  0  0  0  0
 10 40  1  0  0  0  0
 11 12  1  0  0  0  0
 11 41  1  0  0  0  0
 11 42  1  0  0  0  0
 12 13  1  0  0  0  0
 12 17  1  0  0  0  0
 13 14  1  0  0  0  0
 13 43  1  0  0  0  0
 13 44  1  0  0  0  0
 14 15  1  0  0  0  0
 14 45  1  0  0  0  0
 14 46  1  0  0  0  0
 15 16  1  0  0  0  0
 16 17  1  0  0  0  0
 16 47  1  0  0  0  0
 16 48  1  0  0  0  0
 17 49  1  0  0  0  0
 17 50  1  0  0  0  0
 18 19  1  0  0  0  0
 18 20  1  0  0  0  0
 20 51  1  0  0  0  0
 21 22  1  0  0  0  0
 21 33  2  0  0  0  0
 22 23  2  0  0  0  0
 22 52  1  0  0  0  0
 23 24  1  0  0  0  0
 23 53  1  0  0  0  0
 24 25  2  0  0  0  0
 24 54  1  0  0  0  0
 25 26  1  0  0  0  0
 25 33  1  0  0  0  0
 26 27  1  0  0  0  0
 26 32  2  0  0  0  0
 27 28  2  0  0  0  0
 27 55  1  0  0  0  0
 28 29  1  0  0  0  0
 28 56  1  0  0  0  0
 29 30  2  0  0  0  0
 29 57  1  0  0  0  0
 30 31  1  0  0  0  0
 30 32  1  0  0  0  0
 31 58  1  0  0  0  0
 32 59  1  0  0  0  0
 33 60  1  0  0  0  0
M  END
$$$$
