CHEMBL1970203
 OpenBabel04072215363D

 51 54  0  0  0  0  0  0  0  0999 V2000
   -2.3563    0.9157   -0.8194 C   0  0  0  0  0  0  0  0  0  0  0  0
   -1.1448    0.1111   -1.1906 C   0  0  0  0  0  0  0  0  0  0  0  0
   -0.0984    0.7078   -1.9065 C   0  0  0  0  0  0  0  0  0  0  0  0
    1.0378   -0.0278   -2.2467 C   0  0  0  0  0  0  0  0  0  0  0  0
    2.1715    0.5892   -3.0116 C   0  0  0  0  0  0  0  0  0  0  0  0
    1.1241   -1.3683   -1.8495 C   0  0  0  0  0  0  0  0  0  0  0  0
    0.1046   -1.9802   -1.1096 C   0  0  0  0  0  0  0  0  0  0  0  0
    0.1941   -3.3270   -0.6682 N   0  0  0  0  0  0  0  0  0  0  0  0
    1.3943   -3.9926   -0.4749 C   0  0  0  0  0  0  0  0  0  0  0  0
    2.4958   -3.4582   -0.5404 O   0  0  0  0  0  0  0  0  0  0  0  0
    1.2147   -5.3510   -0.2247 N   0  0  0  0  0  0  0  0  0  0  0  0
    2.3540   -6.1552    0.0266 C   0  0  0  0  0  0  0  0  0  0  0  0
    3.3386   -5.7160    0.9084 C   0  0  0  0  0  0  0  0  0  0  0  0
    4.5394   -6.4120    1.0407 C   0  0  0  0  0  0  0  0  0  0  0  0
    4.7911   -7.5646    0.2957 C   0  0  0  0  0  0  0  0  0  0  0  0
    6.0322   -8.2547    0.3307 N   0  0  0  0  0  0  0  0  0  0  0  0
    7.1642   -7.8395    1.0215 C   0  0  0  0  0  0  0  0  0  0  0  0
    7.2454   -6.7992    1.6673 O   0  0  0  0  0  0  0  0  0  0  0  0
    8.3382   -8.7173    0.9588 C   0  0  0  0  0  0  0  0  0  0  0  0
    8.7038   -9.4843   -0.1342 C   0  0  0  0  0  0  0  0  0  0  0  0
   10.2244  -10.2421    0.0714 S   0  0  0  0  0  0  0  0  0  0  0  0
   10.4229   -9.5674    1.6214 C   0  0  0  0  0  0  0  0  0  0  0  0
   11.5430   -9.8036    2.3256 N   0  0  0  0  0  0  0  0  0  0  0  0
   11.5251   -9.2074    3.5198 C   0  0  0  0  0  0  0  0  0  0  0  0
   10.5420   -8.4659    4.0465 N   0  0  0  0  0  0  0  0  0  0  0  0
    9.4310   -8.2607    3.3147 C   0  0  0  0  0  0  0  0  0  0  0  0
    8.4365   -7.5105    3.9320 N   0  0  0  0  0  0  0  0  0  0  0  0
    9.3390   -8.8000    2.0164 C   0  0  0  0  0  0  0  0  0  0  0  0
    3.7658   -8.0498   -0.5301 C   0  0  0  0  0  0  0  0  0  0  0  0
    2.5419   -7.3598   -0.6498 C   0  0  0  0  0  0  0  0  0  0  0  0
   -1.0427   -1.2393   -0.8079 C   0  0  0  0  0  0  0  0  0  0  0  0
   -2.2761    1.9483   -1.1763 H   0  0  0  0  0  0  0  0  0  0  0  0
   -2.4683    0.9490    0.2689 H   0  0  0  0  0  0  0  0  0  0  0  0
   -3.2539    0.4766   -1.2654 H   0  0  0  0  0  0  0  0  0  0  0  0
   -0.1669    1.7539   -2.1989 H   0  0  0  0  0  0  0  0  0  0  0  0
    1.9662    1.6342   -3.2643 H   0  0  0  0  0  0  0  0  0  0  0  0
    2.3363    0.0431   -3.9461 H   0  0  0  0  0  0  0  0  0  0  0  0
    3.0885    0.5613   -2.4137 H   0  0  0  0  0  0  0  0  0  0  0  0
    2.0134   -1.9239   -2.1369 H   0  0  0  0  0  0  0  0  0  0  0  0
   -0.6007   -3.7026   -0.1708 H   0  0  0  0  0  0  0  0  0  0  0  0
    0.4612   -5.7700   -0.7494 H   0  0  0  0  0  0  0  0  0  0  0  0
    3.2068   -4.7996    1.4800 H   0  0  0  0  0  0  0  0  0  0  0  0
    5.2595   -5.9858    1.7287 H   0  0  0  0  0  0  0  0  0  0  0  0
    6.0886   -9.1102   -0.2027 H   0  0  0  0  0  0  0  0  0  0  0  0
    8.1926   -9.6039   -1.0784 H   0  0  0  0  0  0  0  0  0  0  0  0
   12.4078   -9.3351    4.1382 H   0  0  0  0  0  0  0  0  0  0  0  0
    8.8150   -6.9780    4.7078 H   0  0  0  0  0  0  0  0  0  0  0  0
    7.8775   -6.9603    3.2756 H   0  0  0  0  0  0  0  0  0  0  0  0
    3.9121   -8.9449   -1.1293 H   0  0  0  0  0  0  0  0  0  0  0  0
    1.7884   -7.7330   -1.3372 H   0  0  0  0  0  0  0  0  0  0  0  0
   -1.8544   -1.6892   -0.2426 H   0  0  0  0  0  0  0  0  0  0  0  0
  1  2  1  0  0  0  0
  1 32  1  0  0  0  0
  1 33  1  0  0  0  0
  1 34  1  0  0  0  0
  2  3  1  0  0  0  0
  2 31  2  0  0  0  0
  3  4  2  0  0  0  0
  3 35  1  0  0  0  0
  4  5  1  0  0  0  0
  4  6  1  0  0  0  0
  5 36  1  0  0  0  0
  5 37  1  0  0  0  0
  5 38  1  0  0  0  0
  6  7  2  0  0  0  0
  6 39  1  0  0  0  0
  7  8  1  0  0  0  0
  7 31  1  0  0  0  0
  8  9  1  0  0  0  0
  8 40  1  0  0  0  0
  9 10  2  0  0  0  0
  9 11  1  0  0  0  0
 11 12  1  0  0  0  0
 11 41  1  0  0  0  0
 12 13  1  0  0  0  0
 12 30  2  0  0  0  0
 13 14  2  0  0  0  0
 13 42  1  0  0  0  0
 14 15  1  0  0  0  0
 14 43  1  0  0  0  0
 15 16  1  0  0  0  0
 15 29  2  0  0  0  0
 16 17  1  0  0  0  0
 16 44  1  0  0  0  0
 17 18  2  0  0  0  0
 17 19  1  0  0  0  0
 19 20  2  0  0  0  0
 19 28  1  0  0  0  0
 20 21  1  0  0  0  0
 20 45  1  0  0  0  0
 21 22  1  0  0  0  0
 22 23  1  0  0  0  0
 22 28  2  0  0  0  0
 23 24  2  0  0  0  0
 24 25  1  0  0  0  0
 24 46  1  0  0  0  0
 25 26  2  0  0  0  0
 26 27  1  0  0  0  0
 26 28  1  0  0  0  0
 27 47  1  0  0  0  0
 27 48  1  0  0  0  0
 29 30  1  0  0  0  0
 29 49  1  0  0  0  0
 30 50  1  0  0  0  0
 31 51  1  0  0  0  0
M  END
$$$$
