CHEMBL171188
 OpenBabel04072215363D

 45 48  0  0  0  0  0  0  0  0999 V2000
    5.0495   -2.2182   -0.7738 O   0  0  0  0  0  0  0  0  0  0  0  0
    4.4524   -1.2292   -0.3551 C   0  0  0  0  0  0  0  0  0  0  0  0
    5.0735    0.1090   -0.5247 C   0  0  0  0  0  0  0  0  0  0  0  0
    4.4665    1.2188   -0.0712 C   0  0  0  0  0  0  0  0  0  0  0  0
    5.0848    2.5252   -0.2881 C   0  0  0  0  0  0  0  0  0  0  0  0
    5.8322    3.2606    0.7552 C   0  0  0  0  0  0  0  0  0  0  0  0
    6.4937    4.3960    0.4293 C   0  0  0  0  0  0  0  0  0  0  0  0
    6.2795    4.9588   -0.8429 N   0  0  0  0  0  0  0  0  0  0  0  0
    6.4853    6.2550   -1.3375 C   0  0  0  0  0  0  0  0  0  0  0  0
    7.2220    6.5994   -2.5880 C   0  0  0  0  0  0  0  0  0  0  0  0
    6.8603    7.7758   -3.2906 C   0  0  0  0  0  0  0  0  0  0  0  0
    7.2653    8.0200   -4.6071 C   0  0  0  0  0  0  0  0  0  0  0  0
    8.1041    7.1166   -5.2421 C   0  0  0  0  0  0  0  0  0  0  0  0
    8.5445    5.9829   -4.5566 C   0  0  0  0  0  0  0  0  0  0  0  0
    8.1117    5.7193   -3.2432 C   0  0  0  0  0  0  0  0  0  0  0  0
    5.1360    6.6219   -1.2245 C   0  0  0  0  0  0  0  0  0  0  0  0
    4.3654    5.5626   -1.6804 N   0  0  0  0  0  0  0  0  0  0  0  0
    5.1698    4.5155   -1.5655 C   0  0  0  0  0  0  0  0  0  0  0  0
    4.8459    3.1411   -1.4701 C   0  0  0  0  0  0  0  0  0  0  0  0
    3.1681    1.0840    0.5705 C   0  0  0  0  0  0  0  0  0  0  0  0
    2.5937   -0.1110    0.7271 C   0  0  0  0  0  0  0  0  0  0  0  0
    3.2194   -1.2677    0.2893 N   0  0  0  0  0  0  0  0  0  0  0  0
    2.5935   -2.5676    0.5378 C   0  0  0  0  0  0  0  0  0  0  0  0
    1.5799   -2.9994   -0.5220 C   0  0  0  0  0  0  0  0  0  0  0  0
    2.1918   -3.2799   -1.8882 C   0  0  0  0  0  0  0  0  0  0  0  0
    1.1726   -3.7398   -2.7731 O   0  0  0  0  0  0  0  0  0  0  0  0
    6.0267    0.1247   -1.0388 H   0  0  0  0  0  0  0  0  0  0  0  0
    5.8006    2.8834    1.7742 H   0  0  0  0  0  0  0  0  0  0  0  0
    7.0356    4.9942    1.1523 H   0  0  0  0  0  0  0  0  0  0  0  0
    6.1531    8.4745   -2.8479 H   0  0  0  0  0  0  0  0  0  0  0  0
    6.8895    8.8932   -5.1311 H   0  0  0  0  0  0  0  0  0  0  0  0
    8.4014    7.2925   -6.2727 H   0  0  0  0  0  0  0  0  0  0  0  0
    9.1940    5.2758   -5.0711 H   0  0  0  0  0  0  0  0  0  0  0  0
    8.4285    4.7938   -2.7743 H   0  0  0  0  0  0  0  0  0  0  0  0
    4.7220    7.6190   -1.2032 H   0  0  0  0  0  0  0  0  0  0  0  0
    4.3115    2.6757   -2.2933 H   0  0  0  0  0  0  0  0  0  0  0  0
    2.6660    1.9829    0.9169 H   0  0  0  0  0  0  0  0  0  0  0  0
    1.6246   -0.2228    1.2038 H   0  0  0  0  0  0  0  0  0  0  0  0
    2.0918   -2.5210    1.5123 H   0  0  0  0  0  0  0  0  0  0  0  0
    3.3732   -3.3334    0.6323 H   0  0  0  0  0  0  0  0  0  0  0  0
    0.7850   -2.2514   -0.6263 H   0  0  0  0  0  0  0  0  0  0  0  0
    1.0810   -3.9130   -0.1728 H   0  0  0  0  0  0  0  0  0  0  0  0
    2.9719   -4.0458   -1.8325 H   0  0  0  0  0  0  0  0  0  0  0  0
    2.6211   -2.3749   -2.3259 H   0  0  0  0  0  0  0  0  0  0  0  0
    0.8091   -4.5620   -2.4031 H   0  0  0  0  0  0  0  0  0  0  0  0
  1  2  2  0  0  0  0
  2  3  1  0  0  0  0
  2 22  1  0  0  0  0
  3  4  2  0  0  0  0
  3 27  1  0  0  0  0
  4  5  1  0  0  0  0
  4 20  1  0  0  0  0
  5  6  1  0  0  0  0
  5 19  2  0  0  0  0
  6  7  2  0  0  0  0
  6 28  1  0  0  0  0
  7  8  1  0  0  0  0
  7 29  1  0  0  0  0
  8  9  1  0  0  0  0
  8 18  1  0  0  0  0
  9 10  1  0  0  0  0
  9 16  2  0  0  0  0
 10 11  1  0  0  0  0
 10 15  2  0  0  0  0
 11 12  2  0  0  0  0
 11 30  1  0  0  0  0
 12 13  1  0  0  0  0
 12 31  1  0  0  0  0
 13 14  2  0  0  0  0
 13 32  1  0  0  0  0
 14 15  1  0  0  0  0
 14 33  1  0  0  0  0
 15 34  1  0  0  0  0
 16 17  1  0  0  0  0
 16 35  1  0  0  0  0
 17 18  2  0  0  0  0
 18 19  1  0  0  0  0
 19 36  1  0  0  0  0
 20 21  2  0  0  0  0
 20 37  1  0  0  0  0
 21 22  1  0  0  0  0
 21 38  1  0  0  0  0
 22 23  1  0  0  0  0
 23 24  1  0  0  0  0
 23 39  1  0  0  0  0
 23 40  1  0  0  0  0
 24 25  1  0  0  0  0
 24 41  1  0  0  0  0
 24 42  1  0  0  0  0
 25 26  1  0  0  0  0
 25 43  1  0  0  0  0
 25 44  1  0  0  0  0
 26 45  1  0  0  0  0
M  END
$$$$
