CHEMBL2004438
 OpenBabel04072215363D

 47 50  0  0  0  0  0  0  0  0999 V2000
    3.1954    1.2558    2.6242 N   0  0  0  0  0  0  0  0  0  0  0  0
    3.4019    0.6061    1.3648 C   0  0  0  0  0  0  0  0  0  0  0  0
    2.9141    1.1641    0.1545 C   0  0  0  0  0  0  0  0  0  0  0  0
    2.2421    2.4924    0.0463 C   0  0  0  0  0  0  0  0  0  0  0  0
    2.4442    3.3052   -1.0834 C   0  0  0  0  0  0  0  0  0  0  0  0
    1.8049    4.5404   -1.2287 C   0  0  0  0  0  0  0  0  0  0  0  0
    0.9581    5.0241   -0.2337 C   0  0  0  0  0  0  0  0  0  0  0  0
    0.2852    6.2591   -0.3486 N   0  0  0  0  0  0  0  0  0  0  0  0
   -0.0764    6.8201   -1.5587 C   0  0  0  0  0  0  0  0  0  0  0  0
    0.0314    6.2659   -2.6461 O   0  0  0  0  0  0  0  0  0  0  0  0
   -0.5552    8.1101   -1.3961 N   0  0  0  0  0  0  0  0  0  0  0  0
   -1.0660    8.8401   -2.4921 C   0  0  0  0  0  0  0  0  0  0  0  0
   -1.9005    8.2419   -3.4416 C   0  0  0  0  0  0  0  0  0  0  0  0
   -2.3570    8.9694   -4.5379 C   0  0  0  0  0  0  0  0  0  0  0  0
   -1.9557   10.2940   -4.7104 C   0  0  0  0  0  0  0  0  0  0  0  0
   -1.1136   10.9079   -3.7689 C   0  0  0  0  0  0  0  0  0  0  0  0
   -0.6016   12.3113   -3.9807 C   0  0  0  0  0  0  0  0  0  0  0  0
   -1.1080   12.9146   -5.0911 F   0  0  0  0  0  0  0  0  0  0  0  0
   -0.8913   13.1366   -2.9387 F   0  0  0  0  0  0  0  0  0  0  0  0
    0.7526   12.3489   -4.1214 F   0  0  0  0  0  0  0  0  0  0  0  0
   -0.6990   10.1794   -2.6402 C   0  0  0  0  0  0  0  0  0  0  0  0
    0.7774    4.2647    0.9187 C   0  0  0  0  0  0  0  0  0  0  0  0
    1.3768    3.0010    1.0325 C   0  0  0  0  0  0  0  0  0  0  0  0
    3.1197    0.4047   -1.0156 C   0  0  0  0  0  0  0  0  0  0  0  0
    3.7721   -0.8297   -0.9923 C   0  0  0  0  0  0  0  0  0  0  0  0
    4.2040   -1.3876    0.1947 C   0  0  0  0  0  0  0  0  0  0  0  0
    4.8061   -2.5936    0.1673 N   0  0  0  0  0  0  0  0  0  0  0  0
    5.1891   -3.0998    1.3572 C   0  0  0  0  0  0  0  0  0  0  0  0
    4.9903   -2.4224    2.5405 C   0  0  0  0  0  0  0  0  0  0  0  0
    4.4112   -1.2040    2.5832 N   0  0  0  0  0  0  0  0  0  0  0  0
    4.0001   -0.6788    1.4015 C   0  0  0  0  0  0  0  0  0  0  0  0
    3.3833    2.2519    2.5737 H   0  0  0  0  0  0  0  0  0  0  0  0
    3.7565    0.7815    3.3364 H   0  0  0  0  0  0  0  0  0  0  0  0
    3.1059    2.9916   -1.8883 H   0  0  0  0  0  0  0  0  0  0  0  0
    1.9975    5.1088   -2.1352 H   0  0  0  0  0  0  0  0  0  0  0  0
   -0.2658    6.5601    0.4424 H   0  0  0  0  0  0  0  0  0  0  0  0
   -0.0784    8.6338   -0.6769 H   0  0  0  0  0  0  0  0  0  0  0  0
   -2.2054    7.2028   -3.3370 H   0  0  0  0  0  0  0  0  0  0  0  0
   -3.0045    8.4926   -5.2722 H   0  0  0  0  0  0  0  0  0  0  0  0
   -2.2921   10.8391   -5.5921 H   0  0  0  0  0  0  0  0  0  0  0  0
   -0.0326   10.6484   -1.9201 H   0  0  0  0  0  0  0  0  0  0  0  0
    0.1366    4.6122    1.7237 H   0  0  0  0  0  0  0  0  0  0  0  0
    1.1395    2.4079    1.9139 H   0  0  0  0  0  0  0  0  0  0  0  0
    2.7634    0.7615   -1.9809 H   0  0  0  0  0  0  0  0  0  0  0  0
    3.9271   -1.3736   -1.9210 H   0  0  0  0  0  0  0  0  0  0  0  0
    5.6629   -4.0740    1.3312 H   0  0  0  0  0  0  0  0  0  0  0  0
    5.2917   -2.8408    3.4937 H   0  0  0  0  0  0  0  0  0  0  0  0
  1  2  1  0  0  0  0
  1 32  1  0  0  0  0
  1 33  1  0  0  0  0
  2  3  1  0  0  0  0
  2 31  2  0  0  0  0
  3  4  1  0  0  0  0
  3 24  2  0  0  0  0
  4  5  1  0  0  0  0
  4 23  2  0  0  0  0
  5  6  2  0  0  0  0
  5 34  1  0  0  0  0
  6  7  1  0  0  0  0
  6 35  1  0  0  0  0
  7  8  1  0  0  0  0
  7 22  2  0  0  0  0
  8  9  1  0  0  0  0
  8 36  1  0  0  0  0
  9 10  2  0  0  0  0
  9 11  1  0  0  0  0
 11 12  1  0  0  0  0
 11 37  1  0  0  0  0
 12 13  1  0  0  0  0
 12 21  2  0  0  0  0
 13 14  2  0  0  0  0
 13 38  1  0  0  0  0
 14 15  1  0  0  0  0
 14 39  1  0  0  0  0
 15 16  2  0  0  0  0
 15 40  1  0  0  0  0
 16 17  1  0  0  0  0
 16 21  1  0  0  0  0
 17 18  1  0  0  0  0
 17 19  1  0  0  0  0
 17 20  1  0  0  0  0
 21 41  1  0  0  0  0
 22 23  1  0  0  0  0
 22 42  1  0  0  0  0
 23 43  1  0  0  0  0
 24 25  1  0  0  0  0
 24 44  1  0  0  0  0
 25 26  2  0  0  0  0
 25 45  1  0  0  0  0
 26 27  1  0  0  0  0
 26 31  1  0  0  0  0
 27 28  2  0  0  0  0
 28 29  1  0  0  0  0
 28 46  1  0  0  0  0
 29 30  2  0  0  0  0
 29 47  1  0  0  0  0
 30 31  1  0  0  0  0
M  END
$$$$
