CHEMBL225240
 OpenBabel04072215363D

 79 85  0  0  0  0  0  0  0  0999 V2000
    0.8519   -1.0527   -3.2638 C   0  0  0  0  0  0  0  0  0  0  0  0
   -0.6046   -1.1138   -3.2366 N   0  0  0  0  0  0  0  0  0  0  0  0
   -1.0776   -2.2035   -2.3681 C   0  0  0  0  0  0  0  0  0  0  0  0
   -2.6214   -2.2630   -2.3814 C   0  0  0  0  0  0  0  0  0  0  0  0
   -3.2690   -1.0393   -1.8579 N   0  0  0  0  0  0  0  0  0  0  0  0
   -3.0350   -0.7884   -0.4196 C   0  0  0  0  0  0  0  0  0  0  0  0
   -3.5204   -1.8799    0.5248 C   0  0  0  0  0  0  0  0  0  0  0  0
   -2.6506   -2.9511    0.8685 C   0  0  0  0  0  0  0  0  0  0  0  0
   -3.0686   -4.0260    1.6539 C   0  0  0  0  0  0  0  0  0  0  0  0
   -4.3392   -3.9622    2.1588 C   0  0  0  0  0  0  0  0  0  0  0  0
   -5.2151   -2.8702    1.9130 C   0  0  0  0  0  0  0  0  0  0  0  0
   -4.8173   -1.8378    1.0727 C   0  0  0  0  0  0  0  0  0  0  0  0
   -6.5531   -2.9975    2.6693 C   0  0  0  0  0  0  0  0  0  0  0  0
   -6.2859   -4.3198    3.3078 C   0  0  0  0  0  0  0  0  0  0  0  0
   -6.8538   -5.2615    4.1703 C   0  0  0  0  0  0  0  0  0  0  0  0
   -8.1813   -5.1375    4.7659 C   0  0  0  0  0  0  0  0  0  0  0  0
   -9.2485   -4.4942    4.1767 C   0  0  0  0  0  0  0  0  0  0  0  0
  -10.6334   -4.5083    5.1743 S   0  0  0  0  0  0  0  0  0  0  0  0
   -9.8130   -5.3740    6.3976 C   0  0  0  0  0  0  0  0  0  0  0  0
  -10.4341   -5.7288    7.6263 C   0  0  0  0  0  0  0  0  0  0  0  0
  -11.0496   -6.0397    8.7329 C   0  0  0  0  0  0  0  0  0  0  0  0
  -11.7670   -6.4022   10.0230 C   0  0  0  0  0  0  0  0  0  0  0  0
  -12.9930   -5.7223   10.0226 O   0  0  0  0  0  0  0  0  0  0  0  0
  -13.7034   -5.9587   11.1600 C   0  0  0  0  0  0  0  0  0  0  0  0
  -13.1462   -6.2841   12.4079 C   0  0  0  0  0  0  0  0  0  0  0  0
  -13.9864   -6.6012   13.4769 C   0  0  0  0  0  0  0  0  0  0  0  0
  -15.3767   -6.5454   13.3218 C   0  0  0  0  0  0  0  0  0  0  0  0
  -16.3206   -7.0191   14.4102 C   0  0  0  0  0  0  0  0  0  0  0  0
  -16.8323   -6.0903   15.4119 N   0  0  0  0  0  0  0  0  0  0  0  0
  -17.6032   -4.9350   14.9687 C   0  0  0  0  0  0  0  0  0  0  0  0
  -16.7780   -3.6620   14.7307 C   0  0  0  0  0  0  0  0  0  0  0  0
  -15.8205   -3.3665   15.7552 O   0  0  0  0  0  0  0  0  0  0  0  0
  -15.1096   -4.4823   16.3024 C   0  0  0  0  0  0  0  0  0  0  0  0
  -15.9726   -5.7267   16.5315 C   0  0  0  0  0  0  0  0  0  0  0  0
  -15.9039   -6.1504   12.0658 C   0  0  0  0  0  0  0  0  0  0  0  0
  -15.0549   -5.8822   10.9904 C   0  0  0  0  0  0  0  0  0  0  0  0
   -8.5141   -5.6704    6.0448 C   0  0  0  0  0  0  0  0  0  0  0  0
   -6.0209   -6.2963    4.3989 N   0  0  0  0  0  0  0  0  0  0  0  0
   -4.9288   -6.0168    3.6393 N   0  0  0  0  0  0  0  0  0  0  0  0
   -5.0580   -4.8341    3.0109 C   0  0  0  0  0  0  0  0  0  0  0  0
   -2.7532    0.0915   -2.6761 C   0  0  0  0  0  0  0  0  0  0  0  0
   -1.2029    0.1653   -2.8057 C   0  0  0  0  0  0  0  0  0  0  0  0
    1.2696   -2.0131   -3.5885 H   0  0  0  0  0  0  0  0  0  0  0  0
    1.2792   -0.8081   -2.2851 H   0  0  0  0  0  0  0  0  0  0  0  0
    1.1887   -0.3045   -3.9890 H   0  0  0  0  0  0  0  0  0  0  0  0
   -0.7024   -2.0626   -1.3471 H   0  0  0  0  0  0  0  0  0  0  0  0
   -0.6871   -3.1651   -2.7190 H   0  0  0  0  0  0  0  0  0  0  0  0
   -2.9855   -3.1600   -1.8722 H   0  0  0  0  0  0  0  0  0  0  0  0
   -2.9460   -2.3977   -3.4255 H   0  0  0  0  0  0  0  0  0  0  0  0
   -3.5692    0.1327   -0.1494 H   0  0  0  0  0  0  0  0  0  0  0  0
   -1.9814   -0.5844   -0.1949 H   0  0  0  0  0  0  0  0  0  0  0  0
   -1.6240   -2.9531    0.5137 H   0  0  0  0  0  0  0  0  0  0  0  0
   -2.4097   -4.8594    1.8605 H   0  0  0  0  0  0  0  0  0  0  0  0
   -5.4876   -1.0108    0.8543 H   0  0  0  0  0  0  0  0  0  0  0  0
   -7.3969   -3.0292    1.9770 H   0  0  0  0  0  0  0  0  0  0  0  0
   -6.6571   -2.2027    3.4135 H   0  0  0  0  0  0  0  0  0  0  0  0
   -9.2880   -4.0220    3.2062 H   0  0  0  0  0  0  0  0  0  0  0  0
  -11.1041   -6.0225   10.8096 H   0  0  0  0  0  0  0  0  0  0  0  0
  -11.8773   -7.4900   10.1042 H   0  0  0  0  0  0  0  0  0  0  0  0
  -12.0753   -6.3050   12.5722 H   0  0  0  0  0  0  0  0  0  0  0  0
  -13.5368   -6.9067   14.4168 H   0  0  0  0  0  0  0  0  0  0  0  0
  -15.8585   -7.8784   14.9184 H   0  0  0  0  0  0  0  0  0  0  0  0
  -17.1890   -7.4694   13.9093 H   0  0  0  0  0  0  0  0  0  0  0  0
  -18.3130   -4.7090   15.7771 H   0  0  0  0  0  0  0  0  0  0  0  0
  -18.2304   -5.1692   14.1010 H   0  0  0  0  0  0  0  0  0  0  0  0
  -17.4703   -2.8072   14.7282 H   0  0  0  0  0  0  0  0  0  0  0  0
  -16.3070   -3.6644   13.7435 H   0  0  0  0  0  0  0  0  0  0  0  0
  -14.7392   -4.1401   17.2787 H   0  0  0  0  0  0  0  0  0  0  0  0
  -14.2170   -4.7138   15.7131 H   0  0  0  0  0  0  0  0  0  0  0  0
  -16.6419   -5.4996   17.3745 H   0  0  0  0  0  0  0  0  0  0  0  0
  -15.3654   -6.5730   16.8715 H   0  0  0  0  0  0  0  0  0  0  0  0
  -16.9572   -6.0851   11.9008 H   0  0  0  0  0  0  0  0  0  0  0  0
  -15.4832   -5.6427   10.0152 H   0  0  0  0  0  0  0  0  0  0  0  0
   -7.8251   -6.2198    6.6766 H   0  0  0  0  0  0  0  0  0  0  0  0
   -4.1617   -6.6799    3.6162 H   0  0  0  0  0  0  0  0  0  0  0  0
   -3.1400    1.0448   -2.2963 H   0  0  0  0  0  0  0  0  0  0  0  0
   -3.1734   -0.0106   -3.6868 H   0  0  0  0  0  0  0  0  0  0  0  0
   -0.7780    0.4812   -1.8444 H   0  0  0  0  0  0  0  0  0  0  0  0
   -0.9563    0.9431   -3.5384 H   0  0  0  0  0  0  0  0  0  0  0  0
  1  2  1  0  0  0  0
  1 43  1  0  0  0  0
  1 44  1  0  0  0  0
  1 45  1  0  0  0  0
  2  3  1  0  0  0  0
  2 42  1  0  0  0  0
  3  4  1  0  0  0  0
  3 46  1  0  0  0  0
  3 47  1  0  0  0  0
  4  5  1  0  0  0  0
  4 48  1  0  0  0  0
  4 49  1  0  0  0  0
  5  6  1  0  0  0  0
  5 41  1  0  0  0  0
  6  7  1  0  0  0  0
  6 50  1  0  0  0  0
  6 51  1  0  0  0  0
  7  8  1  0  0  0  0
  7 12  2  0  0  0  0
  8  9  2  0  0  0  0
  8 52  1  0  0  0  0
  9 10  1  0  0  0  0
  9 53  1  0  0  0  0
 10 11  2  0  0  0  0
 10 40  1  0  0  0  0
 11 12  1  0  0  0  0
 11 13  1  0  0  0  0
 12 54  1  0  0  0  0
 13 14  1  0  0  0  0
 13 55  1  0  0  0  0
 13 56  1  0  0  0  0
 14 15  1  0  0  0  0
 14 40  2  0  0  0  0
 15 16  1  0  0  0  0
 15 38  2  0  0  0  0
 16 17  2  0  0  0  0
 16 37  1  0  0  0  0
 17 18  1  0  0  0  0
 17 57  1  0  0  0  0
 18 19  1  0  0  0  0
 19 20  1  0  0  0  0
 19 37  2  0  0  0  0
 20 21  3  0  0  0  0
 21 22  1  0  0  0  0
 22 23  1  0  0  0  0
 22 58  1  0  0  0  0
 22 59  1  0  0  0  0
 23 24  1  0  0  0  0
 24 25  1  0  0  0  0
 24 36  2  0  0  0  0
 25 26  2  0  0  0  0
 25 60  1  0  0  0  0
 26 27  1  0  0  0  0
 26 61  1  0  0  0  0
 27 28  1  0  0  0  0
 27 35  2  0  0  0  0
 28 29  1  0  0  0  0
 28 62  1  0  0  0  0
 28 63  1  0  0  0  0
 29 30  1  0  0  0  0
 29 34  1  0  0  0  0
 30 31  1  0  0  0  0
 30 64  1  0  0  0  0
 30 65  1  0  0  0  0
 31 32  1  0  0  0  0
 31 66  1  0  0  0  0
 31 67  1  0  0  0  0
 32 33  1  0  0  0  0
 33 34  1  0  0  0  0
 33 68  1  0  0  0  0
 33 69  1  0  0  0  0
 34 70  1  0  0  0  0
 34 71  1  0  0  0  0
 35 36  1  0  0  0  0
 35 72  1  0  0  0  0
 36 73  1  0  0  0  0
 37 74  1  0  0  0  0
 38 39  1  0  0  0  0
 39 40  1  0  0  0  0
 39 75  1  0  0  0  0
 41 42  1  0  0  0  0
 41 76  1  0  0  0  0
 41 77  1  0  0  0  0
 42 78  1  0  0  0  0
 42 79  1  0  0  0  0
M  END
$$$$
