CHEMBL445570
 OpenBabel04072215383D

 46 49  0  0  0  0  0  0  0  0999 V2000
    1.0851   -0.0593    0.2718 C   0  0  0  0  0  0  0  0  0  0  0  0
    2.5737    0.0358   -0.0291 C   0  0  0  0  0  0  0  0  0  0  0  0
    3.1278    1.3737    0.3880 C   0  0  0  0  0  0  0  0  0  0  0  0
    3.1111    2.4312   -0.5328 C   0  0  0  0  0  0  0  0  0  0  0  0
    3.5699    3.6852   -0.1610 C   0  0  0  0  0  0  0  0  0  0  0  0
    4.0261    3.8970    1.1391 C   0  0  0  0  0  0  0  0  0  0  0  0
    3.9982    2.8781    2.1003 C   0  0  0  0  0  0  0  0  0  0  0  0
    4.3239    3.1043    3.4673 N   0  0  0  0  0  0  0  0  0  0  0  0
    4.3175    4.3579    4.0540 C   0  0  0  0  0  0  0  0  0  0  0  0
    4.0633    5.3924    3.4442 O   0  0  0  0  0  0  0  0  0  0  0  0
    4.6168    4.3384    5.4054 N   0  0  0  0  0  0  0  0  0  0  0  0
    4.5496    5.4950    6.2285 C   0  0  0  0  0  0  0  0  0  0  0  0
    3.8130    6.6272    5.8667 C   0  0  0  0  0  0  0  0  0  0  0  0
    3.9089    7.8142    6.5943 C   0  0  0  0  0  0  0  0  0  0  0  0
    4.6975    7.8824    7.7482 C   0  0  0  0  0  0  0  0  0  0  0  0
    4.8863    9.1940    8.4015 C   0  0  0  0  0  0  0  0  0  0  0  0
    3.8489   10.0459    8.3779 N   0  0  0  0  0  0  0  0  0  0  0  0
    4.2784   11.4776    9.0698 S   0  0  0  0  0  0  0  0  0  0  0  0
    5.8673   11.0219    9.4460 C   0  0  0  0  0  0  0  0  0  0  0  0
    6.7225   11.8542   10.0608 N   0  0  0  0  0  0  0  0  0  0  0  0
    7.9134   11.2891   10.2514 C   0  0  0  0  0  0  0  0  0  0  0  0
    8.2961   10.0588    9.8821 N   0  0  0  0  0  0  0  0  0  0  0  0
    7.4146    9.2622    9.2449 C   0  0  0  0  0  0  0  0  0  0  0  0
    7.9270    8.0298    8.8574 N   0  0  0  0  0  0  0  0  0  0  0  0
    6.1040    9.7227    9.0139 C   0  0  0  0  0  0  0  0  0  0  0  0
    5.2920    6.7041    8.2034 C   0  0  0  0  0  0  0  0  0  0  0  0
    5.2490    5.5253    7.4347 C   0  0  0  0  0  0  0  0  0  0  0  0
    3.5847    1.6006    1.7001 C   0  0  0  0  0  0  0  0  0  0  0  0
    0.6861   -1.0157   -0.0793 H   0  0  0  0  0  0  0  0  0  0  0  0
    0.5260    0.7430   -0.2231 H   0  0  0  0  0  0  0  0  0  0  0  0
    0.8944    0.0164    1.3476 H   0  0  0  0  0  0  0  0  0  0  0  0
    2.7395   -0.1108   -1.1042 H   0  0  0  0  0  0  0  0  0  0  0  0
    3.1173   -0.7700    0.4766 H   0  0  0  0  0  0  0  0  0  0  0  0
    2.7274    2.2855   -1.5401 H   0  0  0  0  0  0  0  0  0  0  0  0
    3.5563    4.5119   -0.8658 H   0  0  0  0  0  0  0  0  0  0  0  0
    4.3844    4.8947    1.3699 H   0  0  0  0  0  0  0  0  0  0  0  0
    4.2743    2.3078    4.0859 H   0  0  0  0  0  0  0  0  0  0  0  0
    5.1820    3.5692    5.7357 H   0  0  0  0  0  0  0  0  0  0  0  0
    3.1663    6.6397    4.9958 H   0  0  0  0  0  0  0  0  0  0  0  0
    3.3706    8.6874    6.2281 H   0  0  0  0  0  0  0  0  0  0  0  0
    8.6616   11.8925   10.7558 H   0  0  0  0  0  0  0  0  0  0  0  0
    8.9336    8.0268    8.9900 H   0  0  0  0  0  0  0  0  0  0  0  0
    7.6271    7.7308    7.9368 H   0  0  0  0  0  0  0  0  0  0  0  0
    5.8290    6.6863    9.1486 H   0  0  0  0  0  0  0  0  0  0  0  0
    5.8013    4.6567    7.7850 H   0  0  0  0  0  0  0  0  0  0  0  0
    3.5660    0.7814    2.4141 H   0  0  0  0  0  0  0  0  0  0  0  0
  1  2  1  0  0  0  0
  1 29  1  0  0  0  0
  1 30  1  0  0  0  0
  1 31  1  0  0  0  0
  2  3  1  0  0  0  0
  2 32  1  0  0  0  0
  2 33  1  0  0  0  0
  3  4  1  0  0  0  0
  3 28  2  0  0  0  0
  4  5  2  0  0  0  0
  4 34  1  0  0  0  0
  5  6  1  0  0  0  0
  5 35  1  0  0  0  0
  6  7  2  0  0  0  0
  6 36  1  0  0  0  0
  7  8  1  0  0  0  0
  7 28  1  0  0  0  0
  8  9  1  0  0  0  0
  8 37  1  0  0  0  0
  9 10  2  0  0  0  0
  9 11  1  0  0  0  0
 11 12  1  0  0  0  0
 11 38  1  0  0  0  0
 12 13  1  0  0  0  0
 12 27  2  0  0  0  0
 13 14  2  0  0  0  0
 13 39  1  0  0  0  0
 14 15  1  0  0  0  0
 14 40  1  0  0  0  0
 15 16  1  0  0  0  0
 15 26  2  0  0  0  0
 16 17  2  0  0  0  0
 16 25  1  0  0  0  0
 17 18  1  0  0  0  0
 18 19  1  0  0  0  0
 19 20  1  0  0  0  0
 19 25  2  0  0  0  0
 20 21  2  0  0  0  0
 21 22  1  0  0  0  0
 21 41  1  0  0  0  0
 22 23  2  0  0  0  0
 23 24  1  0  0  0  0
 23 25  1  0  0  0  0
 24 42  1  0  0  0  0
 24 43  1  0  0  0  0
 26 27  1  0  0  0  0
 26 44  1  0  0  0  0
 27 45  1  0  0  0  0
 28 46  1  0  0  0  0
M  END
$$$$
