CHEMBL1940861
 OpenBabel04072215363D

 33 35  0  0  0  0  0  0  0  0999 V2000
   -1.4732    2.6997    0.0048 C   0  0  0  0  0  0  0  0  0  0  0  0
   -1.7244    1.2129    0.0063 C   0  0  0  0  0  0  0  0  0  0  0  0
   -3.0378    0.7288   -0.0003 C   0  0  0  0  0  0  0  0  0  0  0  0
   -3.2803   -0.6411   -0.0008 C   0  0  0  0  0  0  0  0  0  0  0  0
   -2.2075   -1.5310   -0.0034 C   0  0  0  0  0  0  0  0  0  0  0  0
   -0.8822   -1.0532   -0.0020 C   0  0  0  0  0  0  0  0  0  0  0  0
    0.2214   -1.9293   -0.0166 C   0  0  0  0  0  0  0  0  0  0  0  0
    1.5348   -1.4371   -0.0186 C   0  0  0  0  0  0  0  0  0  0  0  0
    2.6343   -2.4235   -0.0293 C   0  0  0  0  0  0  0  0  0  0  0  0
    3.8150   -2.2405   -0.6400 C   0  0  0  0  0  0  0  0  0  0  0  0
    4.8756   -3.2840   -0.6226 C   0  0  0  0  0  0  0  0  0  0  0  0
    4.6293   -4.4683   -0.4280 O   0  0  0  0  0  0  0  0  0  0  0  0
    6.2095   -2.7655   -0.9250 C   0  0  0  0  0  0  0  0  0  0  0  0
    6.7415   -1.4659   -0.6043 C   0  0  0  0  0  0  0  0  0  0  0  0
    8.0347   -1.2912   -1.0463 C   0  0  0  0  0  0  0  0  0  0  0  0
    8.6323   -2.6833   -1.8331 S   0  0  0  0  0  0  0  0  0  0  0  0
    7.1695   -3.5292   -1.5669 C   0  0  0  0  0  0  0  0  0  0  0  0
    1.6514   -0.0480    0.0424 C   0  0  0  0  0  0  0  0  0  0  0  0
    3.1486    0.7979    0.1987 Cl  0  0  0  0  0  0  0  0  0  0  0  0
    0.6149    0.8193    0.0413 N   0  0  0  0  0  0  0  0  0  0  0  0
   -0.6349    0.3332    0.0121 C   0  0  0  0  0  0  0  0  0  0  0  0
   -2.4109    3.2666   -0.0053 H   0  0  0  0  0  0  0  0  0  0  0  0
   -0.9028    2.9870   -0.8868 H   0  0  0  0  0  0  0  0  0  0  0  0
   -0.9170    2.9930    0.9010 H   0  0  0  0  0  0  0  0  0  0  0  0
   -3.8791    1.4177   -0.0017 H   0  0  0  0  0  0  0  0  0  0  0  0
   -4.3014   -1.0148   -0.0011 H   0  0  0  0  0  0  0  0  0  0  0  0
   -2.4095   -2.5987   -0.0085 H   0  0  0  0  0  0  0  0  0  0  0  0
    0.0456   -3.0029   -0.0354 H   0  0  0  0  0  0  0  0  0  0  0  0
    2.4351   -3.3681    0.4752 H   0  0  0  0  0  0  0  0  0  0  0  0
    4.0522   -1.3383   -1.1913 H   0  0  0  0  0  0  0  0  0  0  0  0
    6.2063   -0.6931   -0.0639 H   0  0  0  0  0  0  0  0  0  0  0  0
    8.6582   -0.4134   -0.9389 H   0  0  0  0  0  0  0  0  0  0  0  0
    7.0709   -4.5491   -1.9161 H   0  0  0  0  0  0  0  0  0  0  0  0
  1  2  1  0  0  0  0
  1 22  1  0  0  0  0
  1 23  1  0  0  0  0
  1 24  1  0  0  0  0
  2  3  1  0  0  0  0
  2 21  2  0  0  0  0
  3  4  2  0  0  0  0
  3 25  1  0  0  0  0
  4  5  1  0  0  0  0
  4 26  1  0  0  0  0
  5  6  2  0  0  0  0
  5 27  1  0  0  0  0
  6  7  1  0  0  0  0
  6 21  1  0  0  0  0
  7  8  2  0  0  0  0
  7 28  1  0  0  0  0
  8  9  1  0  0  0  0
  8 18  1  0  0  0  0
  9 10  2  0  0  0  0
  9 29  1  0  0  0  0
 10 11  1  0  0  0  0
 10 30  1  0  0  0  0
 11 12  2  0  0  0  0
 11 13  1  0  0  0  0
 13 14  1  0  0  0  0
 13 17  2  0  0  0  0
 14 15  2  0  0  0  0
 14 31  1  0  0  0  0
 15 16  1  0  0  0  0
 15 32  1  0  0  0  0
 16 17  1  0  0  0  0
 17 33  1  0  0  0  0
 18 19  1  0  0  0  0
 18 20  2  0  0  0  0
 20 21  1  0  0  0  0
M  END
$$$$
