CHEMBL432548
 OpenBabel04072215383D

 56 60  0  0  0  0  0  0  0  0999 V2000
    0.9747    0.1890    0.3632 O   0  0  0  0  0  0  0  0  0  0  0  0
    2.1830    0.0992    0.1947 C   0  0  0  0  0  0  0  0  0  0  0  0
    2.9994    1.3376    0.1089 C   0  0  0  0  0  0  0  0  0  0  0  0
    4.3311    1.2501   -0.0240 C   0  0  0  0  0  0  0  0  0  0  0  0
    5.1001    2.4717   -0.2443 C   0  0  0  0  0  0  0  0  0  0  0  0
    5.2791    2.9051   -1.5653 C   0  0  0  0  0  0  0  0  0  0  0  0
    6.1434    3.9516   -1.8651 C   0  0  0  0  0  0  0  0  0  0  0  0
    6.8652    4.4904   -0.7935 C   0  0  0  0  0  0  0  0  0  0  0  0
    6.7362    4.0382    0.5181 C   0  0  0  0  0  0  0  0  0  0  0  0
    5.7871    3.0608    0.8235 C   0  0  0  0  0  0  0  0  0  0  0  0
    7.6718    4.6090    1.3390 N   0  0  0  0  0  0  0  0  0  0  0  0
    8.3888    5.3714    0.5454 C   0  0  0  0  0  0  0  0  0  0  0  0
    7.8649    5.4366   -0.7246 N   0  0  0  0  0  0  0  0  0  0  0  0
    8.2492    6.3540   -1.7199 C   0  0  0  0  0  0  0  0  0  0  0  0
    9.6006    6.6679   -1.8784 C   0  0  0  0  0  0  0  0  0  0  0  0
    9.9655    7.7006   -2.7358 C   0  0  0  0  0  0  0  0  0  0  0  0
    8.9841    8.4244   -3.4134 C   0  0  0  0  0  0  0  0  0  0  0  0
    7.6366    8.0820   -3.2814 C   0  0  0  0  0  0  0  0  0  0  0  0
    7.2624    7.0317   -2.4462 C   0  0  0  0  0  0  0  0  0  0  0  0
    4.9877   -0.0375   -0.0428 C   0  0  0  0  0  0  0  0  0  0  0  0
    4.2610   -1.1511   -0.0449 C   0  0  0  0  0  0  0  0  0  0  0  0
    2.8827   -1.0996    0.0262 N   0  0  0  0  0  0  0  0  0  0  0  0
    2.1301   -2.3468    0.0452 C   0  0  0  0  0  0  0  0  0  0  0  0
    1.1338   -2.4845   -1.1260 C   0  0  0  0  0  0  0  0  0  0  0  0
    0.5107   -3.8230   -1.1661 N   0  0  0  0  0  0  0  0  0  0  0  0
   -0.3293   -4.0537    0.0212 C   0  0  0  0  0  0  0  0  0  0  0  0
   -0.8926   -5.4709    0.0161 C   0  0  0  0  0  0  0  0  0  0  0  0
   -1.6933   -5.7374   -1.2497 C   0  0  0  0  0  0  0  0  0  0  0  0
   -0.8665   -5.3951   -2.4843 C   0  0  0  0  0  0  0  0  0  0  0  0
   -0.2846   -3.9822   -2.3947 C   0  0  0  0  0  0  0  0  0  0  0  0
    2.4552    2.2738    0.1201 H   0  0  0  0  0  0  0  0  0  0  0  0
    4.7767    2.3862   -2.3807 H   0  0  0  0  0  0  0  0  0  0  0  0
    6.3161    4.2581   -2.8916 H   0  0  0  0  0  0  0  0  0  0  0  0
    5.6760    2.7093    1.8434 H   0  0  0  0  0  0  0  0  0  0  0  0
    9.2442    5.9573    0.8524 H   0  0  0  0  0  0  0  0  0  0  0  0
   10.3746    6.1037   -1.3630 H   0  0  0  0  0  0  0  0  0  0  0  0
   11.0149    7.9526   -2.8625 H   0  0  0  0  0  0  0  0  0  0  0  0
    9.2687    9.2653   -4.0392 H   0  0  0  0  0  0  0  0  0  0  0  0
    6.8773    8.6588   -3.8022 H   0  0  0  0  0  0  0  0  0  0  0  0
    6.2027    6.8218   -2.3093 H   0  0  0  0  0  0  0  0  0  0  0  0
    6.0721   -0.0769   -0.0768 H   0  0  0  0  0  0  0  0  0  0  0  0
    4.7326   -2.1317   -0.0790 H   0  0  0  0  0  0  0  0  0  0  0  0
    1.6136   -2.3766    1.0100 H   0  0  0  0  0  0  0  0  0  0  0  0
    2.8271   -3.1937    0.0163 H   0  0  0  0  0  0  0  0  0  0  0  0
    1.6926   -2.3194   -2.0575 H   0  0  0  0  0  0  0  0  0  0  0  0
    0.3634   -1.7055   -1.0855 H   0  0  0  0  0  0  0  0  0  0  0  0
   -1.1435   -3.3191    0.0735 H   0  0  0  0  0  0  0  0  0  0  0  0
    0.2568   -3.9564    0.9399 H   0  0  0  0  0  0  0  0  0  0  0  0
   -1.5241   -5.6182    0.8989 H   0  0  0  0  0  0  0  0  0  0  0  0
   -0.0666   -6.1902    0.0890 H   0  0  0  0  0  0  0  0  0  0  0  0
   -2.6050   -5.1279   -1.2387 H   0  0  0  0  0  0  0  0  0  0  0  0
   -2.0040   -6.7869   -1.2809 H   0  0  0  0  0  0  0  0  0  0  0  0
   -1.4892   -5.4854   -3.3814 H   0  0  0  0  0  0  0  0  0  0  0  0
   -0.0490   -6.1201   -2.5879 H   0  0  0  0  0  0  0  0  0  0  0  0
   -1.0959   -3.2433   -2.4348 H   0  0  0  0  0  0  0  0  0  0  0  0
    0.3483   -3.8191   -3.2755 H   0  0  0  0  0  0  0  0  0  0  0  0
  1  2  2  0  0  0  0
  2  3  1  0  0  0  0
  2 22  1  0  0  0  0
  3  4  2  0  0  0  0
  3 31  1  0  0  0  0
  4  5  1  0  0  0  0
  4 20  1  0  0  0  0
  5  6  1  0  0  0  0
  5 10  2  0  0  0  0
  6  7  2  0  0  0  0
  6 32  1  0  0  0  0
  7  8  1  0  0  0  0
  7 33  1  0  0  0  0
  8  9  2  0  0  0  0
  8 13  1  0  0  0  0
  9 10  1  0  0  0  0
  9 11  1  0  0  0  0
 10 34  1  0  0  0  0
 11 12  2  0  0  0  0
 12 13  1  0  0  0  0
 12 35  1  0  0  0  0
 13 14  1  0  0  0  0
 14 15  1  0  0  0  0
 14 19  2  0  0  0  0
 15 16  2  0  0  0  0
 15 36  1  0  0  0  0
 16 17  1  0  0  0  0
 16 37  1  0  0  0  0
 17 18  2  0  0  0  0
 17 38  1  0  0  0  0
 18 19  1  0  0  0  0
 18 39  1  0  0  0  0
 19 40  1  0  0  0  0
 20 21  2  0  0  0  0
 20 41  1  0  0  0  0
 21 22  1  0  0  0  0
 21 42  1  0  0  0  0
 22 23  1  0  0  0  0
 23 24  1  0  0  0  0
 23 43  1  0  0  0  0
 23 44  1  0  0  0  0
 24 25  1  0  0  0  0
 24 45  1  0  0  0  0
 24 46  1  0  0  0  0
 25 26  1  0  0  0  0
 25 30  1  0  0  0  0
 26 27  1  0  0  0  0
 26 47  1  0  0  0  0
 26 48  1  0  0  0  0
 27 28  1  0  0  0  0
 27 49  1  0  0  0  0
 27 50  1  0  0  0  0
 28 29  1  0  0  0  0
 28 51  1  0  0  0  0
 28 52  1  0  0  0  0
 29 30  1  0  0  0  0
 29 53  1  0  0  0  0
 29 54  1  0  0  0  0
 30 55  1  0  0  0  0
 30 56  1  0  0  0  0
M  END
$$$$
