CHEMBL1972576
 OpenBabel04072215363D

 48 51  0  0  0  0  0  0  0  0999 V2000
    2.0393   -0.1973    2.5157 C   0  0  0  0  0  0  0  0  0  0  0  0
    0.6284   -0.0692    2.0240 C   0  0  0  0  0  0  0  0  0  0  0  0
    0.0295    1.1854    1.9461 C   0  0  0  0  0  0  0  0  0  0  0  0
   -1.2858    1.3159    1.4960 C   0  0  0  0  0  0  0  0  0  0  0  0
   -2.0396    0.2038    1.1008 C   0  0  0  0  0  0  0  0  0  0  0  0
   -3.3842    0.2996    0.6440 N   0  0  0  0  0  0  0  0  0  0  0  0
   -4.0693    1.4784    0.4316 C   0  0  0  0  0  0  0  0  0  0  0  0
   -3.5843    2.5981    0.5356 O   0  0  0  0  0  0  0  0  0  0  0  0
   -5.4092    1.2754    0.0943 N   0  0  0  0  0  0  0  0  0  0  0  0
   -6.2032    2.4168   -0.1798 C   0  0  0  0  0  0  0  0  0  0  0  0
   -5.7331    3.3947   -1.0556 C   0  0  0  0  0  0  0  0  0  0  0  0
   -6.4046    4.6078   -1.1947 C   0  0  0  0  0  0  0  0  0  0  0  0
   -7.5629    4.8799   -0.4654 C   0  0  0  0  0  0  0  0  0  0  0  0
   -8.2273    6.1354   -0.5085 N   0  0  0  0  0  0  0  0  0  0  0  0
   -7.7828    7.2575   -1.2003 C   0  0  0  0  0  0  0  0  0  0  0  0
   -6.7340    7.3149   -1.8359 O   0  0  0  0  0  0  0  0  0  0  0  0
   -8.6295    8.4513   -1.1518 C   0  0  0  0  0  0  0  0  0  0  0  0
   -9.4063    8.8379   -0.0739 C   0  0  0  0  0  0  0  0  0  0  0  0
  -10.1201   10.3776   -0.2931 S   0  0  0  0  0  0  0  0  0  0  0  0
   -9.4149   10.5571   -1.8316 C   0  0  0  0  0  0  0  0  0  0  0  0
   -9.6110   11.6823   -2.5396 N   0  0  0  0  0  0  0  0  0  0  0  0
   -8.9963   11.6488   -3.7244 C   0  0  0  0  0  0  0  0  0  0  0  0
   -8.2730   10.6465   -4.2401 N   0  0  0  0  0  0  0  0  0  0  0  0
   -8.1038    9.5316   -3.5069 C   0  0  0  0  0  0  0  0  0  0  0  0
   -7.3717    8.5158   -4.1076 N   0  0  0  0  0  0  0  0  0  0  0  0
   -8.6684    9.4541   -2.2140 C   0  0  0  0  0  0  0  0  0  0  0  0
   -8.0768    3.8627    0.3550 C   0  0  0  0  0  0  0  0  0  0  0  0
   -7.4109    2.6268    0.4828 C   0  0  0  0  0  0  0  0  0  0  0  0
   -1.4359   -1.0555    1.1766 C   0  0  0  0  0  0  0  0  0  0  0  0
   -0.1140   -1.1906    1.6362 C   0  0  0  0  0  0  0  0  0  0  0  0
    2.4585    0.7803    2.7805 H   0  0  0  0  0  0  0  0  0  0  0  0
    2.6755   -0.6303    1.7379 H   0  0  0  0  0  0  0  0  0  0  0  0
    2.0748   -0.8249    3.4113 H   0  0  0  0  0  0  0  0  0  0  0  0
    0.5722    2.0829    2.2349 H   0  0  0  0  0  0  0  0  0  0  0  0
   -1.6817    2.3246    1.4718 H   0  0  0  0  0  0  0  0  0  0  0  0
   -3.8219   -0.5557    0.3289 H   0  0  0  0  0  0  0  0  0  0  0  0
   -5.8510    0.5206    0.5982 H   0  0  0  0  0  0  0  0  0  0  0  0
   -4.8049    3.2507   -1.6055 H   0  0  0  0  0  0  0  0  0  0  0  0
   -5.9510    5.3221   -1.8709 H   0  0  0  0  0  0  0  0  0  0  0  0
   -9.0892    6.2094    0.0127 H   0  0  0  0  0  0  0  0  0  0  0  0
   -9.5540    8.3309    0.8690 H   0  0  0  0  0  0  0  0  0  0  0  0
   -9.0919   12.5340   -4.3460 H   0  0  0  0  0  0  0  0  0  0  0  0
   -6.8140    8.8791   -4.8708 H   0  0  0  0  0  0  0  0  0  0  0  0
   -6.8540    7.9397   -3.4401 H   0  0  0  0  0  0  0  0  0  0  0  0
   -8.9746    4.0262    0.9453 H   0  0  0  0  0  0  0  0  0  0  0  0
   -7.8002    1.8826    1.1718 H   0  0  0  0  0  0  0  0  0  0  0  0
   -1.9756   -1.9515    0.8834 H   0  0  0  0  0  0  0  0  0  0  0  0
    0.3341   -2.1806    1.6892 H   0  0  0  0  0  0  0  0  0  0  0  0
  1  2  1  0  0  0  0
  1 31  1  0  0  0  0
  1 32  1  0  0  0  0
  1 33  1  0  0  0  0
  2  3  1  0  0  0  0
  2 30  2  0  0  0  0
  3  4  2  0  0  0  0
  3 34  1  0  0  0  0
  4  5  1  0  0  0  0
  4 35  1  0  0  0  0
  5  6  1  0  0  0  0
  5 29  2  0  0  0  0
  6  7  1  0  0  0  0
  6 36  1  0  0  0  0
  7  8  2  0  0  0  0
  7  9  1  0  0  0  0
  9 10  1  0  0  0  0
  9 37  1  0  0  0  0
 10 11  1  0  0  0  0
 10 28  2  0  0  0  0
 11 12  2  0  0  0  0
 11 38  1  0  0  0  0
 12 13  1  0  0  0  0
 12 39  1  0  0  0  0
 13 14  1  0  0  0  0
 13 27  2  0  0  0  0
 14 15  1  0  0  0  0
 14 40  1  0  0  0  0
 15 16  2  0  0  0  0
 15 17  1  0  0  0  0
 17 18  2  0  0  0  0
 17 26  1  0  0  0  0
 18 19  1  0  0  0  0
 18 41  1  0  0  0  0
 19 20  1  0  0  0  0
 20 21  1  0  0  0  0
 20 26  2  0  0  0  0
 21 22  2  0  0  0  0
 22 23  1  0  0  0  0
 22 42  1  0  0  0  0
 23 24  2  0  0  0  0
 24 25  1  0  0  0  0
 24 26  1  0  0  0  0
 25 43  1  0  0  0  0
 25 44  1  0  0  0  0
 27 28  1  0  0  0  0
 27 45  1  0  0  0  0
 28 46  1  0  0  0  0
 29 30  1  0  0  0  0
 29 47  1  0  0  0  0
 30 48  1  0  0  0  0
M  END
$$$$
