CHEMBL3953855
 OpenBabel04072215373D

 35 38  0  0  0  0  0  0  0  0999 V2000
    1.1510   -0.0036    0.2464 N   0  0  0  0  0  0  0  0  0  0  0  0
    2.5280    0.0068    0.1743 C   0  0  0  0  0  0  0  0  0  0  0  0
    3.1239    1.2107    0.1696 N   0  0  0  0  0  0  0  0  0  0  0  0
    4.4695    1.2716    0.1159 C   0  0  0  0  0  0  0  0  0  0  0  0
    5.1210    2.5201    0.1552 N   0  0  0  0  0  0  0  0  0  0  0  0
    4.6319    3.6624    0.8263 C   0  0  0  0  0  0  0  0  0  0  0  0
    4.9538    4.9489    0.3711 C   0  0  0  0  0  0  0  0  0  0  0  0
    4.5294    6.0843    1.0725 C   0  0  0  0  0  0  0  0  0  0  0  0
    3.8006    5.9445    2.2514 C   0  0  0  0  0  0  0  0  0  0  0  0
    3.5015    4.6729    2.7181 C   0  0  0  0  0  0  0  0  0  0  0  0
    2.8207    4.5322    3.8630 F   0  0  0  0  0  0  0  0  0  0  0  0
    3.9114    3.5420    2.0231 C   0  0  0  0  0  0  0  0  0  0  0  0
    5.1963    0.1219    0.0348 C   0  0  0  0  0  0  0  0  0  0  0  0
    4.4820   -1.0658    0.0372 C   0  0  0  0  0  0  0  0  0  0  0  0
    3.1537   -1.1680    0.0900 N   0  0  0  0  0  0  0  0  0  0  0  0
    5.4060   -2.1751    0.0348 C   0  0  0  0  0  0  0  0  0  0  0  0
    5.1812   -3.5396    0.0425 C   0  0  0  0  0  0  0  0  0  0  0  0
    6.2906   -4.3899    0.0548 C   0  0  0  0  0  0  0  0  0  0  0  0
    7.5983   -3.8705    0.0645 C   0  0  0  0  0  0  0  0  0  0  0  0
    7.8244   -2.4914    0.0621 C   0  0  0  0  0  0  0  0  0  0  0  0
    6.7211   -1.6566    0.0447 C   0  0  0  0  0  0  0  0  0  0  0  0
    6.6763   -0.1390    0.0506 C   0  0  0  0  0  0  0  0  0  0  0  0
    0.7817    0.8720   -0.0935 H   0  0  0  0  0  0  0  0  0  0  0  0
    0.7845   -0.8580   -0.1483 H   0  0  0  0  0  0  0  0  0  0  0  0
    5.5475    2.7239   -0.7414 H   0  0  0  0  0  0  0  0  0  0  0  0
    5.5295    5.0834   -0.5411 H   0  0  0  0  0  0  0  0  0  0  0  0
    4.7725    7.0769    0.7012 H   0  0  0  0  0  0  0  0  0  0  0  0
    3.4717    6.8120    2.8140 H   0  0  0  0  0  0  0  0  0  0  0  0
    3.6677    2.5668    2.4339 H   0  0  0  0  0  0  0  0  0  0  0  0
    4.1709   -3.9369    0.0443 H   0  0  0  0  0  0  0  0  0  0  0  0
    6.1411   -5.4673    0.0611 H   0  0  0  0  0  0  0  0  0  0  0  0
    8.4438   -4.5551    0.0779 H   0  0  0  0  0  0  0  0  0  0  0  0
    8.8344   -2.0956    0.0783 H   0  0  0  0  0  0  0  0  0  0  0  0
    7.1600    0.2670   -0.8420 H   0  0  0  0  0  0  0  0  0  0  0  0
    7.1316    0.2502    0.9670 H   0  0  0  0  0  0  0  0  0  0  0  0
  1  2  1  0  0  0  0
  1 23  1  0  0  0  0
  1 24  1  0  0  0  0
  2  3  1  0  0  0  0
  2 15  2  0  0  0  0
  3  4  2  0  0  0  0
  4  5  1  0  0  0  0
  4 13  1  0  0  0  0
  5  6  1  0  0  0  0
  5 25  1  0  0  0  0
  6  7  1  0  0  0  0
  6 12  2  0  0  0  0
  7  8  2  0  0  0  0
  7 26  1  0  0  0  0
  8  9  1  0  0  0  0
  8 27  1  0  0  0  0
  9 10  2  0  0  0  0
  9 28  1  0  0  0  0
 10 11  1  0  0  0  0
 10 12  1  0  0  0  0
 12 29  1  0  0  0  0
 13 14  2  0  0  0  0
 13 22  1  0  0  0  0
 14 15  1  0  0  0  0
 14 16  1  0  0  0  0
 16 17  1  0  0  0  0
 16 21  2  0  0  0  0
 17 18  2  0  0  0  0
 17 30  1  0  0  0  0
 18 19  1  0  0  0  0
 18 31  1  0  0  0  0
 19 20  2  0  0  0  0
 19 32  1  0  0  0  0
 20 21  1  0  0  0  0
 20 33  1  0  0  0  0
 21 22  1  0  0  0  0
 22 34  1  0  0  0  0
 22 35  1  0  0  0  0
M  END
$$$$
