CHEMBL3897155
 OpenBabel04072215373D

 50 53  0  0  0  0  0  0  0  0999 V2000
    0.8595    0.3598    1.3360 C   0  0  0  0  0  0  0  0  0  0  0  0
    2.2795    0.3158    1.2641 O   0  0  0  0  0  0  0  0  0  0  0  0
    2.9087    1.3508    0.6234 C   0  0  0  0  0  0  0  0  0  0  0  0
    2.2811    2.4352    0.0169 C   0  0  0  0  0  0  0  0  0  0  0  0
    3.0639    3.3987   -0.6063 C   0  0  0  0  0  0  0  0  0  0  0  0
    2.5001    4.4826   -1.2164 O   0  0  0  0  0  0  0  0  0  0  0  0
    4.4547    3.2968   -0.6260 C   0  0  0  0  0  0  0  0  0  0  0  0
    5.1247    2.2325    0.0053 C   0  0  0  0  0  0  0  0  0  0  0  0
    6.5450    2.1870    0.0429 N   0  0  0  0  0  0  0  0  0  0  0  0
    7.2054    0.8585   -0.0007 C   0  0  0  0  0  0  0  0  0  0  0  0
    8.2958    0.6674    1.0678 C   0  0  0  0  0  0  0  0  0  0  0  0
    7.7771    0.6752    2.4971 C   0  0  0  0  0  0  0  0  0  0  0  0
    8.8703    0.5276    3.4018 O   0  0  0  0  0  0  0  0  0  0  0  0
    7.4024    3.3182   -0.0045 C   0  0  0  0  0  0  0  0  0  0  0  0
    8.6147    3.3180   -0.7038 C   0  0  0  0  0  0  0  0  0  0  0  0
    9.5006    4.3920   -0.6079 C   0  0  0  0  0  0  0  0  0  0  0  0
    9.1858    5.5108    0.1397 C   0  0  0  0  0  0  0  0  0  0  0  0
   10.0785    6.5126    0.2215 N   0  0  0  0  0  0  0  0  0  0  0  0
    9.6980    7.5874    0.9502 C   0  0  0  0  0  0  0  0  0  0  0  0
    8.4647    7.6784    1.5769 C   0  0  0  0  0  0  0  0  0  0  0  0
    8.0641    8.8654    2.3060 C   0  0  0  0  0  0  0  0  0  0  0  0
    8.7239   10.0975    2.5188 C   0  0  0  0  0  0  0  0  0  0  0  0
    8.0009   10.9548    3.2445 N   0  0  0  0  0  0  0  0  0  0  0  0
    6.8704   10.2751    3.4980 N   0  0  0  0  0  0  0  0  0  0  0  0
    6.8584    9.0235    2.9593 C   0  0  0  0  0  0  0  0  0  0  0  0
    7.5731    6.6592    1.5115 N   0  0  0  0  0  0  0  0  0  0  0  0
    7.9368    5.5728    0.7992 C   0  0  0  0  0  0  0  0  0  0  0  0
    7.0806    4.4797    0.7191 C   0  0  0  0  0  0  0  0  0  0  0  0
    4.3127    1.2621    0.6181 C   0  0  0  0  0  0  0  0  0  0  0  0
    0.5221   -0.5522    1.8382 H   0  0  0  0  0  0  0  0  0  0  0  0
    0.4079    0.3731    0.3384 H   0  0  0  0  0  0  0  0  0  0  0  0
    0.5236    1.2139    1.9333 H   0  0  0  0  0  0  0  0  0  0  0  0
    1.2039    2.5413    0.0233 H   0  0  0  0  0  0  0  0  0  0  0  0
    1.5400    4.4676   -1.0719 H   0  0  0  0  0  0  0  0  0  0  0  0
    5.0133    4.0702   -1.1470 H   0  0  0  0  0  0  0  0  0  0  0  0
    7.6507    0.7165   -0.9939 H   0  0  0  0  0  0  0  0  0  0  0  0
    6.4978    0.0281    0.0881 H   0  0  0  0  0  0  0  0  0  0  0  0
    9.0941    1.4123    0.9847 H   0  0  0  0  0  0  0  0  0  0  0  0
    8.8002   -0.2892    0.8808 H   0  0  0  0  0  0  0  0  0  0  0  0
    7.0792   -0.1490    2.6694 H   0  0  0  0  0  0  0  0  0  0  0  0
    7.2751    1.6154    2.7413 H   0  0  0  0  0  0  0  0  0  0  0  0
    9.4172   -0.2182    3.1034 H   0  0  0  0  0  0  0  0  0  0  0  0
    8.9122    2.4732   -1.3181 H   0  0  0  0  0  0  0  0  0  0  0  0
   10.4587    4.3480   -1.1185 H   0  0  0  0  0  0  0  0  0  0  0  0
   10.4366    8.3787    1.0052 H   0  0  0  0  0  0  0  0  0  0  0  0
    9.6993   10.4146    2.1734 H   0  0  0  0  0  0  0  0  0  0  0  0
    6.1451   10.7318    4.0411 H   0  0  0  0  0  0  0  0  0  0  0  0
    6.0096    8.3649    3.0753 H   0  0  0  0  0  0  0  0  0  0  0  0
    6.1488    4.5288    1.2778 H   0  0  0  0  0  0  0  0  0  0  0  0
    4.7532    0.4229    1.1480 H   0  0  0  0  0  0  0  0  0  0  0  0
  1  2  1  0  0  0  0
  1 30  1  0  0  0  0
  1 31  1  0  0  0  0
  1 32  1  0  0  0  0
  2  3  1  0  0  0  0
  3  4  1  0  0  0  0
  3 29  2  0  0  0  0
  4  5  2  0  0  0  0
  4 33  1  0  0  0  0
  5  6  1  0  0  0  0
  5  7  1  0  0  0  0
  6 34  1  0  0  0  0
  7  8  2  0  0  0  0
  7 35  1  0  0  0  0
  8  9  1  0  0  0  0
  8 29  1  0  0  0  0
  9 10  1  0  0  0  0
  9 14  1  0  0  0  0
 10 11  1  0  0  0  0
 10 36  1  0  0  0  0
 10 37  1  0  0  0  0
 11 12  1  0  0  0  0
 11 38  1  0  0  0  0
 11 39  1  0  0  0  0
 12 13  1  0  0  0  0
 12 40  1  0  0  0  0
 12 41  1  0  0  0  0
 13 42  1  0  0  0  0
 14 15  1  0  0  0  0
 14 28  2  0  0  0  0
 15 16  2  0  0  0  0
 15 43  1  0  0  0  0
 16 17  1  0  0  0  0
 16 44  1  0  0  0  0
 17 18  1  0  0  0  0
 17 27  2  0  0  0  0
 18 19  2  0  0  0  0
 19 20  1  0  0  0  0
 19 45  1  0  0  0  0
 20 21  1  0  0  0  0
 20 26  2  0  0  0  0
 21 22  1  0  0  0  0
 21 25  2  0  0  0  0
 22 23  2  0  0  0  0
 22 46  1  0  0  0  0
 23 24  1  0  0  0  0
 24 25  1  0  0  0  0
 24 47  1  0  0  0  0
 25 48  1  0  0  0  0
 26 27  1  0  0  0  0
 27 28  1  0  0  0  0
 28 49  1  0  0  0  0
 29 50  1  0  0  0  0
M  END
$$$$
