CHEMBL2023232
 OpenBabel04072215363D

 56 60  0  0  0  0  0  0  0  0999 V2000
   -2.1471    0.9313    0.9233 C   0  0  0  0  0  0  0  0  0  0  0  0
   -0.7151    0.8109    1.0439 N   0  0  0  0  0  0  0  0  0  0  0  0
   -0.0257    0.1422    2.0131 C   0  0  0  0  0  0  0  0  0  0  0  0
    1.3141    0.2758    1.7044 C   0  0  0  0  0  0  0  0  0  0  0  0
    2.3936   -0.2866    2.4880 C   0  0  0  0  0  0  0  0  0  0  0  0
    2.3080   -0.3879    3.8638 C   0  0  0  0  0  0  0  0  0  0  0  0
    3.2703   -0.8779    4.6581 N   0  0  0  0  0  0  0  0  0  0  0  0
    4.4279   -1.3117    4.1246 C   0  0  0  0  0  0  0  0  0  0  0  0
    5.3352   -1.7370    5.0831 N   0  0  0  0  0  0  0  0  0  0  0  0
    4.6360   -1.2938    2.7100 C   0  0  0  0  0  0  0  0  0  0  0  0
    5.7678   -1.7268    1.8661 C   0  0  0  0  0  0  0  0  0  0  0  0
    7.0404   -2.3505    2.2509 C   0  0  0  0  0  0  0  0  0  0  0  0
    7.0713   -3.2837    3.2802 C   0  0  0  0  0  0  0  0  0  0  0  0
    8.2786   -3.7996    3.7384 C   0  0  0  0  0  0  0  0  0  0  0  0
    9.4793   -3.5192    3.0844 C   0  0  0  0  0  0  0  0  0  0  0  0
   10.7030   -4.1013    3.4875 N   0  0  0  0  0  0  0  0  0  0  0  0
   10.7769   -5.2405    4.2574 C   0  0  0  0  0  0  0  0  0  0  0  0
    9.8149   -5.9418    4.5599 O   0  0  0  0  0  0  0  0  0  0  0  0
   12.0689   -5.5030    4.6973 N   0  0  0  0  0  0  0  0  0  0  0  0
   12.2618   -6.6070    5.5647 C   0  0  0  0  0  0  0  0  0  0  0  0
   11.6871   -7.8479    5.2712 C   0  0  0  0  0  0  0  0  0  0  0  0
   11.7024   -8.8799    6.2151 C   0  0  0  0  0  0  0  0  0  0  0  0
   12.3354   -8.6847    7.4360 C   0  0  0  0  0  0  0  0  0  0  0  0
   12.4093   -9.5783    8.4576 O   0  0  0  0  0  0  0  0  0  0  0  0
   12.3100  -10.9665    8.1822 C   0  0  0  0  0  0  0  0  0  0  0  0
   12.5408  -11.2902    6.8926 F   0  0  0  0  0  0  0  0  0  0  0  0
   13.2354  -11.6065    8.9325 F   0  0  0  0  0  0  0  0  0  0  0  0
   11.0912  -11.4193    8.5420 F   0  0  0  0  0  0  0  0  0  0  0  0
   12.9284   -7.4457    7.7130 C   0  0  0  0  0  0  0  0  0  0  0  0
   12.9228   -6.4138    6.7685 C   0  0  0  0  0  0  0  0  0  0  0  0
    9.4600   -2.6388    2.0038 C   0  0  0  0  0  0  0  0  0  0  0  0
    8.2508   -2.0481    1.6010 C   0  0  0  0  0  0  0  0  0  0  0  0
    5.5118   -1.5243    0.5265 C   0  0  0  0  0  0  0  0  0  0  0  0
    3.9927   -0.8542    0.2336 S   0  0  0  0  0  0  0  0  0  0  0  0
    3.5916   -0.7732    1.9139 C   0  0  0  0  0  0  0  0  0  0  0  0
    1.3080    1.0818    0.5463 C   0  0  0  0  0  0  0  0  0  0  0  0
    0.0810    1.4067    0.1403 N   0  0  0  0  0  0  0  0  0  0  0  0
   -2.6216    0.5094    1.8127 H   0  0  0  0  0  0  0  0  0  0  0  0
   -2.4643    0.3830    0.0328 H   0  0  0  0  0  0  0  0  0  0  0  0
   -2.4006    1.9906    0.8351 H   0  0  0  0  0  0  0  0  0  0  0  0
   -0.5407   -0.3717    2.8124 H   0  0  0  0  0  0  0  0  0  0  0  0
    1.4275   -0.0472    4.4025 H   0  0  0  0  0  0  0  0  0  0  0  0
    4.9977   -1.4859    6.0059 H   0  0  0  0  0  0  0  0  0  0  0  0
    6.2980   -1.4989    4.8903 H   0  0  0  0  0  0  0  0  0  0  0  0
    6.1612   -3.6195    3.7710 H   0  0  0  0  0  0  0  0  0  0  0  0
    8.2341   -4.4303    4.6214 H   0  0  0  0  0  0  0  0  0  0  0  0
   11.5342   -3.8554    2.9714 H   0  0  0  0  0  0  0  0  0  0  0  0
   12.6029   -4.6683    4.9017 H   0  0  0  0  0  0  0  0  0  0  0  0
   11.1721   -8.0120    4.3270 H   0  0  0  0  0  0  0  0  0  0  0  0
   11.1791   -9.7968    5.9639 H   0  0  0  0  0  0  0  0  0  0  0  0
   13.3804   -7.2717    8.6864 H   0  0  0  0  0  0  0  0  0  0  0  0
   13.3532   -5.4545    7.0317 H   0  0  0  0  0  0  0  0  0  0  0  0
   10.3678   -2.4078    1.4539 H   0  0  0  0  0  0  0  0  0  0  0  0
    8.2733   -1.3556    0.7622 H   0  0  0  0  0  0  0  0  0  0  0  0
    6.1452   -1.7601   -0.3181 H   0  0  0  0  0  0  0  0  0  0  0  0
    2.1501    1.4609   -0.0268 H   0  0  0  0  0  0  0  0  0  0  0  0
  1  2  1  0  0  0  0
  1 38  1  0  0  0  0
  1 39  1  0  0  0  0
  1 40  1  0  0  0  0
  2  3  1  0  0  0  0
  2 37  1  0  0  0  0
  3  4  2  0  0  0  0
  3 41  1  0  0  0  0
  4  5  1  0  0  0  0
  4 36  1  0  0  0  0
  5  6  1  0  0  0  0
  5 35  2  0  0  0  0
  6  7  2  0  0  0  0
  6 42  1  0  0  0  0
  7  8  1  0  0  0  0
  8  9  1  0  0  0  0
  8 10  2  0  0  0  0
  9 43  1  0  0  0  0
  9 44  1  0  0  0  0
 10 11  1  0  0  0  0
 10 35  1  0  0  0  0
 11 12  1  0  0  0  0
 11 33  2  0  0  0  0
 12 13  1  0  0  0  0
 12 32  2  0  0  0  0
 13 14  2  0  0  0  0
 13 45  1  0  0  0  0
 14 15  1  0  0  0  0
 14 46  1  0  0  0  0
 15 16  1  0  0  0  0
 15 31  2  0  0  0  0
 16 17  1  0  0  0  0
 16 47  1  0  0  0  0
 17 18  2  0  0  0  0
 17 19  1  0  0  0  0
 19 20  1  0  0  0  0
 19 48  1  0  0  0  0
 20 21  1  0  0  0  0
 20 30  2  0  0  0  0
 21 22  2  0  0  0  0
 21 49  1  0  0  0  0
 22 23  1  0  0  0  0
 22 50  1  0  0  0  0
 23 24  1  0  0  0  0
 23 29  2  0  0  0  0
 24 25  1  0  0  0  0
 25 26  1  0  0  0  0
 25 27  1  0  0  0  0
 25 28  1  0  0  0  0
 29 30  1  0  0  0  0
 29 51  1  0  0  0  0
 30 52  1  0  0  0  0
 31 32  1  0  0  0  0
 31 53  1  0  0  0  0
 32 54  1  0  0  0  0
 33 34  1  0  0  0  0
 33 55  1  0  0  0  0
 34 35  1  0  0  0  0
 36 37  2  0  0  0  0
 36 56  1  0  0  0  0
M  END
$$$$
