CHEMBL3775557
 OpenBabel04072215373D

 37 39  0  0  0  0  0  0  0  0999 V2000
    3.3936   -1.1872    0.2595 C   0  0  0  0  0  0  0  0  0  0  0  0
    2.5099   -0.0713    0.1188 O   0  0  0  0  0  0  0  0  0  0  0  0
    3.0884    1.0841   -0.3369 C   0  0  0  0  0  0  0  0  0  0  0  0
    4.1574    1.0494   -1.2490 C   0  0  0  0  0  0  0  0  0  0  0  0
    4.8453    2.1889   -1.6370 C   0  0  0  0  0  0  0  0  0  0  0  0
    5.9069    2.0620   -2.4386 N   0  0  0  0  0  0  0  0  0  0  0  0
    6.5645    3.1872   -2.7428 C   0  0  0  0  0  0  0  0  0  0  0  0
    6.2700    4.4123   -2.3047 N   0  0  0  0  0  0  0  0  0  0  0  0
    5.1899    4.5299   -1.5119 C   0  0  0  0  0  0  0  0  0  0  0  0
    4.8660    5.8094   -0.9829 N   0  0  0  0  0  0  0  0  0  0  0  0
    5.4339    7.0135   -1.4682 C   0  0  0  0  0  0  0  0  0  0  0  0
    5.4561    7.3269   -2.8339 C   0  0  0  0  0  0  0  0  0  0  0  0
    4.8559    6.5215   -3.7258 F   0  0  0  0  0  0  0  0  0  0  0  0
    6.0712    8.4842   -3.3098 C   0  0  0  0  0  0  0  0  0  0  0  0
    6.6714    9.3706   -2.4161 C   0  0  0  0  0  0  0  0  0  0  0  0
    6.6247    9.0975   -1.0506 C   0  0  0  0  0  0  0  0  0  0  0  0
    7.1923    9.9564   -0.1515 O   0  0  0  0  0  0  0  0  0  0  0  0
    6.0018    7.9367   -0.5834 C   0  0  0  0  0  0  0  0  0  0  0  0
    5.9679    7.6789    0.7356 F   0  0  0  0  0  0  0  0  0  0  0  0
    4.4116    3.4210   -1.1430 C   0  0  0  0  0  0  0  0  0  0  0  0
    3.2620    3.4792   -0.3329 C   0  0  0  0  0  0  0  0  0  0  0  0
    2.5986    2.3231    0.0876 C   0  0  0  0  0  0  0  0  0  0  0  0
    1.5491    2.6189    0.9089 O   0  0  0  0  0  0  0  0  0  0  0  0
    0.8335    1.5745    1.5440 C   0  0  0  0  0  0  0  0  0  0  0  0
    3.1000   -1.7416    1.1555 H   0  0  0  0  0  0  0  0  0  0  0  0
    4.4450   -0.9042    0.3926 H   0  0  0  0  0  0  0  0  0  0  0  0
    3.2865   -1.8470   -0.6069 H   0  0  0  0  0  0  0  0  0  0  0  0
    4.4984    0.1050   -1.6658 H   0  0  0  0  0  0  0  0  0  0  0  0
    7.4306    3.0921   -3.3863 H   0  0  0  0  0  0  0  0  0  0  0  0
    4.9199    5.7685    0.0342 H   0  0  0  0  0  0  0  0  0  0  0  0
    6.0783    8.6747   -4.3776 H   0  0  0  0  0  0  0  0  0  0  0  0
    7.1605   10.2599   -2.8001 H   0  0  0  0  0  0  0  0  0  0  0  0
    7.6159   10.6868   -0.6251 H   0  0  0  0  0  0  0  0  0  0  0  0
    2.8743    4.4435   -0.0067 H   0  0  0  0  0  0  0  0  0  0  0  0
    0.1873    2.0421    2.2951 H   0  0  0  0  0  0  0  0  0  0  0  0
    1.4940    0.8895    2.0815 H   0  0  0  0  0  0  0  0  0  0  0  0
    0.1883    1.0539    0.8305 H   0  0  0  0  0  0  0  0  0  0  0  0
  1  2  1  0  0  0  0
  1 25  1  0  0  0  0
  1 26  1  0  0  0  0
  1 27  1  0  0  0  0
  2  3  1  0  0  0  0
  3  4  1  0  0  0  0
  3 22  2  0  0  0  0
  4  5  2  0  0  0  0
  4 28  1  0  0  0  0
  5  6  1  0  0  0  0
  5 20  1  0  0  0  0
  6  7  2  0  0  0  0
  7  8  1  0  0  0  0
  7 29  1  0  0  0  0
  8  9  2  0  0  0  0
  9 10  1  0  0  0  0
  9 20  1  0  0  0  0
 10 11  1  0  0  0  0
 10 30  1  0  0  0  0
 11 12  1  0  0  0  0
 11 18  2  0  0  0  0
 12 13  1  0  0  0  0
 12 14  2  0  0  0  0
 14 15  1  0  0  0  0
 14 31  1  0  0  0  0
 15 16  2  0  0  0  0
 15 32  1  0  0  0  0
 16 17  1  0  0  0  0
 16 18  1  0  0  0  0
 17 33  1  0  0  0  0
 18 19  1  0  0  0  0
 20 21  2  0  0  0  0
 21 22  1  0  0  0  0
 21 34  1  0  0  0  0
 22 23  1  0  0  0  0
 23 24  1  0  0  0  0
 24 35  1  0  0  0  0
 24 36  1  0  0  0  0
 24 37  1  0  0  0  0
M  END
$$$$
