CHEMBL370023
 OpenBabel04072215373D

 51 54  0  0  0  0  0  0  0  0999 V2000
   -0.9842   -7.0614   -8.0968 C   0  0  0  0  0  0  0  0  0  0  0  0
   -1.5089   -6.0744   -7.2109 O   0  0  0  0  0  0  0  0  0  0  0  0
   -0.4407   -5.5646   -6.4345 N   0  0  0  0  0  0  0  0  0  0  0  0
    0.1515   -4.4272   -6.9374 C   0  0  0  0  0  0  0  0  0  0  0  0
   -0.0398   -3.9768   -8.0636 O   0  0  0  0  0  0  0  0  0  0  0  0
    1.1216   -3.7419   -6.0518 C   0  0  0  0  0  0  0  0  0  0  0  0
    2.1479   -3.0002   -6.6562 C   0  0  0  0  0  0  0  0  0  0  0  0
    3.0740   -2.2820   -5.8899 C   0  0  0  0  0  0  0  0  0  0  0  0
    4.1239   -1.5522   -6.4804 N   0  0  0  0  0  0  0  0  0  0  0  0
    4.7295   -1.8148   -7.6881 C   0  0  0  0  0  0  0  0  0  0  0  0
    4.7982   -3.0575   -8.0850 N   0  0  0  0  0  0  0  0  0  0  0  0
    5.4287   -3.3817   -9.2499 C   0  0  0  0  0  0  0  0  0  0  0  0
    5.9936   -2.5602  -10.0694 N   0  0  0  0  0  0  0  0  0  0  0  0
    5.9152   -1.2761   -9.6927 N   0  0  0  0  0  0  0  0  0  0  0  0
    6.3993   -0.2455  -10.4363 C   0  0  0  0  0  0  0  0  0  0  0  0
    6.1284    0.9242   -9.7729 C   0  0  0  0  0  0  0  0  0  0  0  0
    6.5230    2.2616  -10.3231 C   0  0  0  0  0  0  0  0  0  0  0  0
    6.3841    3.4060   -9.6838 N   0  0  0  0  0  0  0  0  0  0  0  0
    6.8239    4.4078  -10.5161 N   0  0  0  0  0  0  0  0  0  0  0  0
    7.2108    3.8199  -11.6312 C   0  0  0  0  0  0  0  0  0  0  0  0
    7.7299    4.4195  -12.8863 C   0  0  0  0  0  0  0  0  0  0  0  0
    7.7370    5.7798  -12.8533 F   0  0  0  0  0  0  0  0  0  0  0  0
    9.0075    4.0351  -13.1530 F   0  0  0  0  0  0  0  0  0  0  0  0
    6.9858    4.0677  -13.9702 F   0  0  0  0  0  0  0  0  0  0  0  0
    7.0711    2.4515  -11.5754 O   0  0  0  0  0  0  0  0  0  0  0  0
    5.4103    0.5951   -8.5608 C   0  0  0  0  0  0  0  0  0  0  0  0
    4.8389    1.6282   -7.6070 C   0  0  0  0  0  0  0  0  0  0  0  0
    3.3169    1.5682   -7.4846 C   0  0  0  0  0  0  0  0  0  0  0  0
    5.5515    1.6917   -6.2585 C   0  0  0  0  0  0  0  0  0  0  0  0
    5.3245   -0.8093   -8.5447 C   0  0  0  0  0  0  0  0  0  0  0  0
    2.9528   -2.3459   -4.4932 C   0  0  0  0  0  0  0  0  0  0  0  0
    3.8237   -1.6720   -3.7263 F   0  0  0  0  0  0  0  0  0  0  0  0
    1.9532   -3.0928   -3.8749 C   0  0  0  0  0  0  0  0  0  0  0  0
    1.0421   -3.7896   -4.6613 C   0  0  0  0  0  0  0  0  0  0  0  0
    0.0793   -4.4988   -4.0530 F   0  0  0  0  0  0  0  0  0  0  0  0
   -1.8061   -7.4570   -8.6988 H   0  0  0  0  0  0  0  0  0  0  0  0
   -0.5361   -7.8816   -7.5274 H   0  0  0  0  0  0  0  0  0  0  0  0
   -0.2409   -6.6235   -8.7713 H   0  0  0  0  0  0  0  0  0  0  0  0
   -0.5243   -5.7117   -5.4333 H   0  0  0  0  0  0  0  0  0  0  0  0
    2.2051   -2.9730   -7.7438 H   0  0  0  0  0  0  0  0  0  0  0  0
    4.5081   -0.8250   -5.8989 H   0  0  0  0  0  0  0  0  0  0  0  0
    5.4539   -4.4573   -9.4959 H   0  0  0  0  0  0  0  0  0  0  0  0
    6.8879   -0.4430  -11.3806 H   0  0  0  0  0  0  0  0  0  0  0  0
    5.0139    2.6144   -8.0423 H   0  0  0  0  0  0  0  0  0  0  0  0
    2.9539    0.6166   -7.0977 H   0  0  0  0  0  0  0  0  0  0  0  0
    2.8509    1.7225   -8.4653 H   0  0  0  0  0  0  0  0  0  0  0  0
    2.9528    2.3594   -6.8201 H   0  0  0  0  0  0  0  0  0  0  0  0
    5.3690    0.8228   -5.6292 H   0  0  0  0  0  0  0  0  0  0  0  0
    5.2159    2.5704   -5.6957 H   0  0  0  0  0  0  0  0  0  0  0  0
    6.6352    1.7792   -6.3926 H   0  0  0  0  0  0  0  0  0  0  0  0
    1.8841   -3.1284   -2.7926 H   0  0  0  0  0  0  0  0  0  0  0  0
  1  2  1  0  0  0  0
  1 36  1  0  0  0  0
  1 37  1  0  0  0  0
  1 38  1  0  0  0  0
  2  3  1  0  0  0  0
  3  4  1  0  0  0  0
  3 39  1  0  0  0  0
  4  5  2  0  0  0  0
  4  6  1  0  0  0  0
  6  7  1  0  0  0  0
  6 34  2  0  0  0  0
  7  8  2  0  0  0  0
  7 40  1  0  0  0  0
  8  9  1  0  0  0  0
  8 31  1  0  0  0  0
  9 10  1  0  0  0  0
  9 41  1  0  0  0  0
 10 11  2  0  0  0  0
 10 30  1  0  0  0  0
 11 12  1  0  0  0  0
 12 13  2  0  0  0  0
 12 42  1  0  0  0  0
 13 14  1  0  0  0  0
 14 15  1  0  0  0  0
 14 30  1  0  0  0  0
 15 16  2  0  0  0  0
 15 43  1  0  0  0  0
 16 17  1  0  0  0  0
 16 26  1  0  0  0  0
 17 18  2  0  0  0  0
 17 25  1  0  0  0  0
 18 19  1  0  0  0  0
 19 20  2  0  0  0  0
 20 21  1  0  0  0  0
 20 25  1  0  0  0  0
 21 22  1  0  0  0  0
 21 23  1  0  0  0  0
 21 24  1  0  0  0  0
 26 27  1  0  0  0  0
 26 30  2  0  0  0  0
 27 28  1  0  0  0  0
 27 29  1  0  0  0  0
 27 44  1  0  0  0  0
 28 45  1  0  0  0  0
 28 46  1  0  0  0  0
 28 47  1  0  0  0  0
 29 48  1  0  0  0  0
 29 49  1  0  0  0  0
 29 50  1  0  0  0  0
 31 32  1  0  0  0  0
 31 33  2  0  0  0  0
 33 34  1  0  0  0  0
 33 51  1  0  0  0  0
 34 35  1  0  0  0  0
M  END
$$$$
