CHEMBL3932698
 OpenBabel04072215373D

 67 70  0  0  1  0  0  0  0  0999 V2000
    6.0206    9.1736   -1.0747 C   0  0  0  0  0  0  0  0  0  0  0  0
    7.2241    8.7020   -0.2793 C   0  0  0  0  0  0  0  0  0  0  0  0
    7.4937    7.2192   -0.5199 C   0  0  0  0  0  0  0  0  0  0  0  0
    8.7077    6.7615    0.2789 C   0  0  0  0  0  0  0  0  0  0  0  0
    9.0342    5.2955    0.0064 C   0  0  0  0  0  0  0  0  0  0  0  0
   10.2651    4.8414    0.8006 C   0  0  0  0  0  0  0  0  0  0  0  0
   10.1099    4.9088    2.2590 N   0  0  0  0  0  0  0  0  0  0  0  0
   11.3408    4.4870    2.9583 C   0  0  0  0  0  0  0  0  0  0  0  0
   11.5824    2.9705    2.9147 C   0  0  0  0  0  0  0  0  0  0  0  0
   10.4857    2.2369    3.4534 O   0  0  0  0  0  0  0  0  0  0  0  0
    9.2128    2.5968    2.8939 C   0  0  3  0  0  0  0  0  0  0  0  0
    8.8929    1.8908    1.5598 C   0  0  0  0  0  0  0  0  0  0  0  0
    8.8811    0.4664    1.5356 O   0  0  0  0  0  0  0  0  0  0  0  0
    8.3565   -0.2568    2.5591 C   0  0  0  0  0  0  0  0  0  0  0  0
    9.0174   -1.4885    2.7096 C   0  0  0  0  0  0  0  0  0  0  0  0
    8.6602   -2.4085    3.6754 C   0  0  0  0  0  0  0  0  0  0  0  0
    9.3234   -3.5653    3.7617 N   0  0  0  0  0  0  0  0  0  0  0  0
    8.9088   -4.4159    4.7050 C   0  0  0  0  0  0  0  0  0  0  0  0
    7.8831   -4.2272    5.5423 N   0  0  0  0  0  0  0  0  0  0  0  0
    7.2197   -3.0642    5.4398 C   0  0  0  0  0  0  0  0  0  0  0  0
    6.0770   -2.8070    6.2505 N   0  0  0  0  0  0  0  0  0  0  0  0
    5.5575   -3.5993    7.2912 C   0  0  0  0  0  0  0  0  0  0  0  0
    6.3598   -4.4207    8.0847 C   0  0  0  0  0  0  0  0  0  0  0  0
    5.8034   -5.2124    9.0854 C   0  0  0  0  0  0  0  0  0  0  0  0
    4.4322   -5.1511    9.3472 C   0  0  0  0  0  0  0  0  0  0  0  0
    3.8031   -6.2032   10.5616 Cl  0  0  0  0  0  0  0  0  0  0  0  0
    3.6321   -4.2624    8.6330 C   0  0  0  0  0  0  0  0  0  0  0  0
    1.9369   -4.0848    8.9312 Cl  0  0  0  0  0  0  0  0  0  0  0  0
    4.1959   -3.4761    7.6222 C   0  0  0  0  0  0  0  0  0  0  0  0
    7.6021   -2.0805    4.5193 C   0  0  0  0  0  0  0  0  0  0  0  0
    6.9576   -0.8303    4.4037 C   0  0  0  0  0  0  0  0  0  0  0  0
    7.2958    0.0746    3.4031 C   0  0  0  0  0  0  0  0  0  0  0  0
    6.5735    1.2246    3.2075 O   0  0  0  0  0  0  0  0  0  0  0  0
    5.9925    1.7900    4.3893 C   0  0  0  0  0  0  0  0  0  0  0  0
    8.9959    4.1246    2.8164 C   0  0  0  0  0  0  0  0  0  0  0  0
    5.8469   10.2397   -0.9023 H   0  0  0  0  0  0  0  0  0  0  0  0
    5.1201    8.6267   -0.7782 H   0  0  0  0  0  0  0  0  0  0  0  0
    6.1789    9.0211   -2.1469 H   0  0  0  0  0  0  0  0  0  0  0  0
    7.0493    8.8819    0.7878 H   0  0  0  0  0  0  0  0  0  0  0  0
    8.1027    9.2913   -0.5675 H   0  0  0  0  0  0  0  0  0  0  0  0
    7.6643    7.0410   -1.5883 H   0  0  0  0  0  0  0  0  0  0  0  0
    6.6168    6.6288   -0.2277 H   0  0  0  0  0  0  0  0  0  0  0  0
    8.5155    6.9155    1.3471 H   0  0  0  0  0  0  0  0  0  0  0  0
    9.5770    7.3758    0.0148 H   0  0  0  0  0  0  0  0  0  0  0  0
    9.2409    5.1611   -1.0628 H   0  0  0  0  0  0  0  0  0  0  0  0
    8.1649    4.6636    0.2205 H   0  0  0  0  0  0  0  0  0  0  0  0
   11.0979    5.4965    0.5153 H   0  0  0  0  0  0  0  0  0  0  0  0
   10.5553    3.8484    0.4544 H   0  0  0  0  0  0  0  0  0  0  0  0
   11.2408    4.7953    4.0076 H   0  0  0  0  0  0  0  0  0  0  0  0
   12.2102    5.0216    2.5633 H   0  0  0  0  0  0  0  0  0  0  0  0
   12.4539    2.7301    3.5331 H   0  0  0  0  0  0  0  0  0  0  0  0
   11.7936    2.6142    1.9035 H   0  0  0  0  0  0  0  0  0  0  0  0
    8.5257    2.2623    3.6610 H   0  0  0  0  0  0  0  0  0  0  0  0
    9.6821    2.1199    0.8430 H   0  0  0  0  0  0  0  0  0  0  0  0
    7.9582    2.2539    1.1190 H   0  0  0  0  0  0  0  0  0  0  0  0
    9.8404   -1.7285    2.0386 H   0  0  0  0  0  0  0  0  0  0  0  0
    9.4428   -5.3546    4.7894 H   0  0  0  0  0  0  0  0  0  0  0  0
    5.3289   -2.4848    5.6428 H   0  0  0  0  0  0  0  0  0  0  0  0
    7.4327   -4.4718    7.9148 H   0  0  0  0  0  0  0  0  0  0  0  0
    6.4482   -5.8810    9.6457 H   0  0  0  0  0  0  0  0  0  0  0  0
    3.5631   -2.7818    7.0730 H   0  0  0  0  0  0  0  0  0  0  0  0
    6.1736   -0.5881    5.1104 H   0  0  0  0  0  0  0  0  0  0  0  0
    5.6361    2.7954    4.1492 H   0  0  0  0  0  0  0  0  0  0  0  0
    6.7348    1.8865    5.1931 H   0  0  0  0  0  0  0  0  0  0  0  0
    5.1301    1.2096    4.7308 H   0  0  0  0  0  0  0  0  0  0  0  0
    8.8589    4.4799    3.8478 H   0  0  0  0  0  0  0  0  0  0  0  0
    8.0402    4.3573    2.3324 H   0  0  0  0  0  0  0  0  0  0  0  0
  1  2  1  0  0  0  0
  1 36  1  0  0  0  0
  1 37  1  0  0  0  0
  1 38  1  0  0  0  0
  2  3  1  0  0  0  0
  2 39  1  0  0  0  0
  2 40  1  0  0  0  0
  3  4  1  0  0  0  0
  3 41  1  0  0  0  0
  3 42  1  0  0  0  0
  4  5  1  0  0  0  0
  4 43  1  0  0  0  0
  4 44  1  0  0  0  0
  5  6  1  0  0  0  0
  5 45  1  0  0  0  0
  5 46  1  0  0  0  0
  6  7  1  0  0  0  0
  6 47  1  0  0  0  0
  6 48  1  0  0  0  0
  7  8  1  0  0  0  0
  7 35  1  0  0  0  0
  8  9  1  0  0  0  0
  8 49  1  0  0  0  0
  8 50  1  0  0  0  0
  9 10  1  0  0  0  0
  9 51  1  0  0  0  0
  9 52  1  0  0  0  0
 10 11  1  0  0  0  0
 11 12  1  0  0  0  0
 11 35  1  0  0  0  0
 11 53  1  0  0  0  0
 12 13  1  0  0  0  0
 12 54  1  0  0  0  0
 12 55  1  0  0  0  0
 13 14  1  0  0  0  0
 14 15  1  0  0  0  0
 14 32  2  0  0  0  0
 15 16  2  0  0  0  0
 15 56  1  0  0  0  0
 16 17  1  0  0  0  0
 16 30  1  0  0  0  0
 17 18  2  0  0  0  0
 18 19  1  0  0  0  0
 18 57  1  0  0  0  0
 19 20  2  0  0  0  0
 20 21  1  0  0  0  0
 20 30  1  0  0  0  0
 21 22  1  0  0  0  0
 21 58  1  0  0  0  0
 22 23  1  0  0  0  0
 22 29  2  0  0  0  0
 23 24  2  0  0  0  0
 23 59  1  0  0  0  0
 24 25  1  0  0  0  0
 24 60  1  0  0  0  0
 25 26  1  0  0  0  0
 25 27  2  0  0  0  0
 27 28  1  0  0  0  0
 27 29  1  0  0  0  0
 29 61  1  0  0  0  0
 30 31  2  0  0  0  0
 31 32  1  0  0  0  0
 31 62  1  0  0  0  0
 32 33  1  0  0  0  0
 33 34  1  0  0  0  0
 34 63  1  0  0  0  0
 34 64  1  0  0  0  0
 34 65  1  0  0  0  0
 35 66  1  0  0  0  0
 35 67  1  0  0  0  0
M  END
$$$$
