CHEMBL1996979
 OpenBabel04072215363D

 39 42  0  0  0  0  0  0  0  0999 V2000
    1.3134    0.6938   -0.6980 O   0  0  0  0  0  0  0  0  0  0  0  0
    2.3741    0.1908   -0.3414 C   0  0  0  0  0  0  0  0  0  0  0  0
    2.8310   -1.0519   -0.7508 N   0  0  0  0  0  0  0  0  0  0  0  0
    2.1505   -1.9134   -1.6446 C   0  0  0  0  0  0  0  0  0  0  0  0
    1.1059   -1.5064   -2.4782 C   0  0  0  0  0  0  0  0  0  0  0  0
    0.3880   -2.3022   -3.3072 N   0  0  0  0  0  0  0  0  0  0  0  0
    0.7597   -3.5883   -3.2438 C   0  0  0  0  0  0  0  0  0  0  0  0
    0.1332   -4.5859   -3.9282 N   0  0  0  0  0  0  0  0  0  0  0  0
    0.7145   -5.7881   -3.6300 C   0  0  0  0  0  0  0  0  0  0  0  0
    1.7453   -5.5648   -2.7291 C   0  0  0  0  0  0  0  0  0  0  0  0
    2.5230   -6.6556   -2.1481 C   0  0  0  0  0  0  0  0  0  0  0  0
    3.8839   -6.4999   -1.8605 C   0  0  0  0  0  0  0  0  0  0  0  0
    4.6074   -7.5443   -1.2723 C   0  0  0  0  0  0  0  0  0  0  0  0
    3.9797   -8.7544   -0.9768 C   0  0  0  0  0  0  0  0  0  0  0  0
    2.6324   -8.9264   -1.2706 C   0  0  0  0  0  0  0  0  0  0  0  0
    1.9079   -7.8837   -1.8508 C   0  0  0  0  0  0  0  0  0  0  0  0
    1.7852   -4.1494   -2.4871 C   0  0  0  0  0  0  0  0  0  0  0  0
    2.5292   -3.2631   -1.6779 C   0  0  0  0  0  0  0  0  0  0  0  0
    3.2106    0.9351    0.6334 C   0  0  0  0  0  0  0  0  0  0  0  0
    4.1563    0.3068    1.4436 C   0  0  0  0  0  0  0  0  0  0  0  0
    4.3790   -1.0129    1.3427 F   0  0  0  0  0  0  0  0  0  0  0  0
    4.8956    1.0247    2.3857 C   0  0  0  0  0  0  0  0  0  0  0  0
    4.6976    2.3977    2.5274 C   0  0  0  0  0  0  0  0  0  0  0  0
    3.7602    3.0409    1.7241 C   0  0  0  0  0  0  0  0  0  0  0  0
    3.0246    2.3124    0.7877 C   0  0  0  0  0  0  0  0  0  0  0  0
    2.1538    2.9931    0.0296 F   0  0  0  0  0  0  0  0  0  0  0  0
    3.6372   -1.4432   -0.2750 H   0  0  0  0  0  0  0  0  0  0  0  0
    0.7928   -0.4679   -2.5300 H   0  0  0  0  0  0  0  0  0  0  0  0
   -0.6631   -4.4301   -4.5287 H   0  0  0  0  0  0  0  0  0  0  0  0
    0.3312   -6.6975   -4.0731 H   0  0  0  0  0  0  0  0  0  0  0  0
    4.4013   -5.5770   -2.1018 H   0  0  0  0  0  0  0  0  0  0  0  0
    5.6626   -7.4116   -1.0462 H   0  0  0  0  0  0  0  0  0  0  0  0
    4.5439   -9.5615   -0.5169 H   0  0  0  0  0  0  0  0  0  0  0  0
    2.1387   -9.8696   -1.0453 H   0  0  0  0  0  0  0  0  0  0  0  0
    0.8509   -8.0364   -2.0536 H   0  0  0  0  0  0  0  0  0  0  0  0
    3.3287   -3.6393   -1.0502 H   0  0  0  0  0  0  0  0  0  0  0  0
    5.6197    0.5055    3.0080 H   0  0  0  0  0  0  0  0  0  0  0  0
    5.2674    2.9625    3.2620 H   0  0  0  0  0  0  0  0  0  0  0  0
    3.5887    4.1103    1.8153 H   0  0  0  0  0  0  0  0  0  0  0  0
  1  2  2  0  0  0  0
  2  3  1  0  0  0  0
  2 19  1  0  0  0  0
  3  4  1  0  0  0  0
  3 27  1  0  0  0  0
  4  5  1  0  0  0  0
  4 18  2  0  0  0  0
  5  6  2  0  0  0  0
  5 28  1  0  0  0  0
  6  7  1  0  0  0  0
  7  8  1  0  0  0  0
  7 17  2  0  0  0  0
  8  9  1  0  0  0  0
  8 29  1  0  0  0  0
  9 10  2  0  0  0  0
  9 30  1  0  0  0  0
 10 11  1  0  0  0  0
 10 17  1  0  0  0  0
 11 12  1  0  0  0  0
 11 16  2  0  0  0  0
 12 13  2  0  0  0  0
 12 31  1  0  0  0  0
 13 14  1  0  0  0  0
 13 32  1  0  0  0  0
 14 15  2  0  0  0  0
 14 33  1  0  0  0  0
 15 16  1  0  0  0  0
 15 34  1  0  0  0  0
 16 35  1  0  0  0  0
 17 18  1  0  0  0  0
 18 36  1  0  0  0  0
 19 20  1  0  0  0  0
 19 25  2  0  0  0  0
 20 21  1  0  0  0  0
 20 22  2  0  0  0  0
 22 23  1  0  0  0  0
 22 37  1  0  0  0  0
 23 24  2  0  0  0  0
 23 38  1  0  0  0  0
 24 25  1  0  0  0  0
 24 39  1  0  0  0  0
 25 26  1  0  0  0  0
M  END
$$$$
