CHEMBL4468005
 OpenBabel04072215383D

 68 71  0  0  0  0  0  0  0  0999 V2000
    7.5896    2.7780   -1.8366 C   0  0  0  0  0  0  0  0  0  0  0  0
    8.4908    2.0592   -0.8375 C   0  0  0  0  0  0  0  0  0  0  0  0
    7.9660    0.7470   -0.4052 N   0  0  0  0  0  0  0  0  0  0  0  0
    7.7971   -0.1942   -1.5435 C   0  0  0  0  0  0  0  0  0  0  0  0
    9.0491   -0.5807   -2.3406 C   0  0  0  0  0  0  0  0  0  0  0  0
    8.8517    0.1336    0.6176 C   0  0  0  0  0  0  0  0  0  0  0  0
    9.0458    0.9351    1.9186 C   0  0  0  0  0  0  0  0  0  0  0  0
   10.0837    0.7749    2.5373 O   0  0  0  0  0  0  0  0  0  0  0  0
    7.9767    1.7411    2.3237 N   0  0  0  0  0  0  0  0  0  0  0  0
    8.0266    2.6856    3.3870 C   0  0  0  0  0  0  0  0  0  0  0  0
    9.2433    3.0870    3.9494 C   0  0  0  0  0  0  0  0  0  0  0  0
    9.3191    4.0153    4.9978 C   0  0  0  0  0  0  0  0  0  0  0  0
    8.1723    4.5753    5.5337 C   0  0  0  0  0  0  0  0  0  0  0  0
    8.2483    5.3844    6.7011 N   0  0  0  0  0  0  0  0  0  0  0  0
    9.3551    6.1694    7.2551 C   0  0  0  0  0  0  0  0  0  0  0  0
   10.2504    6.7600    6.3993 N   0  0  0  0  0  0  0  0  0  0  0  0
   10.2825    8.1179    6.3708 C   0  0  0  0  0  0  0  0  0  0  0  0
   10.8186    8.8755    5.3375 C   0  0  0  0  0  0  0  0  0  0  0  0
    9.9144    9.4444    4.4477 C   0  0  0  0  0  0  0  0  0  0  0  0
   10.1941   10.0546    3.2649 O   0  0  0  0  0  0  0  0  0  0  0  0
   11.5563   10.0932    2.8598 C   0  0  0  0  0  0  0  0  0  0  0  0
    8.5666    9.3462    4.7712 C   0  0  0  0  0  0  0  0  0  0  0  0
    8.2195    9.0462    6.0919 C   0  0  0  0  0  0  0  0  0  0  0  0
    9.2289    8.6957    6.9992 C   0  0  0  0  0  0  0  0  0  0  0  0
    8.9689    8.2058    8.2751 C   0  0  0  0  0  0  0  0  0  0  0  0
    9.0187    6.8328    8.4596 C   0  0  0  0  0  0  0  0  0  0  0  0
    8.6353    6.1588    9.7318 C   0  0  0  0  0  0  0  0  0  0  0  0
    8.3276    6.8792   10.9085 C   0  0  0  0  0  0  0  0  0  0  0  0
    7.9460    6.2506   12.1130 C   0  0  0  0  0  0  0  0  0  0  0  0
    7.8682    4.8629   12.1781 C   0  0  0  0  0  0  0  0  0  0  0  0
    7.4879    4.1197   13.2581 O   0  0  0  0  0  0  0  0  0  0  0  0
    7.0513    4.8032   14.4273 C   0  0  0  0  0  0  0  0  0  0  0  0
    8.2148    4.1300   11.0499 C   0  0  0  0  0  0  0  0  0  0  0  0
    8.5967    4.7596    9.8521 C   0  0  0  0  0  0  0  0  0  0  0  0
    6.9383    4.1881    4.9796 C   0  0  0  0  0  0  0  0  0  0  0  0
    6.8527    3.2615    3.9233 C   0  0  0  0  0  0  0  0  0  0  0  0
    7.8678    3.8363   -1.8877 H   0  0  0  0  0  0  0  0  0  0  0  0
    6.5372    2.7262   -1.5385 H   0  0  0  0  0  0  0  0  0  0  0  0
    7.6896    2.3622   -2.8444 H   0  0  0  0  0  0  0  0  0  0  0  0
    8.5670    2.7224    0.0281 H   0  0  0  0  0  0  0  0  0  0  0  0
    9.5038    1.9796   -1.2474 H   0  0  0  0  0  0  0  0  0  0  0  0
    7.0560    0.2143   -2.2402 H   0  0  0  0  0  0  0  0  0  0  0  0
    7.3366   -1.1199   -1.1724 H   0  0  0  0  0  0  0  0  0  0  0  0
    9.6961    0.2724   -2.5602 H   0  0  0  0  0  0  0  0  0  0  0  0
    8.7586   -1.0132   -3.3051 H   0  0  0  0  0  0  0  0  0  0  0  0
    9.6425   -1.3330   -1.8105 H   0  0  0  0  0  0  0  0  0  0  0  0
    9.8565   -0.0116    0.1996 H   0  0  0  0  0  0  0  0  0  0  0  0
    8.4611   -0.8468    0.9156 H   0  0  0  0  0  0  0  0  0  0  0  0
    7.1089    1.6163    1.8215 H   0  0  0  0  0  0  0  0  0  0  0  0
   10.1883    2.7364    3.5690 H   0  0  0  0  0  0  0  0  0  0  0  0
   10.2916    4.2792    5.3975 H   0  0  0  0  0  0  0  0  0  0  0  0
    7.4554    6.0373    6.6718 H   0  0  0  0  0  0  0  0  0  0  0  0
   11.8914    8.9549    5.2264 H   0  0  0  0  0  0  0  0  0  0  0  0
   11.6034   10.6385    1.9107 H   0  0  0  0  0  0  0  0  0  0  0  0
   11.9418    9.0842    2.6860 H   0  0  0  0  0  0  0  0  0  0  0  0
   12.1760   10.6364    3.5810 H   0  0  0  0  0  0  0  0  0  0  0  0
    7.8065    9.5042    4.0126 H   0  0  0  0  0  0  0  0  0  0  0  0
    7.1748    8.9004    6.3542 H   0  0  0  0  0  0  0  0  0  0  0  0
    8.7173    8.9053    9.0617 H   0  0  0  0  0  0  0  0  0  0  0  0
    8.3872    7.9643   10.9330 H   0  0  0  0  0  0  0  0  0  0  0  0
    7.7224    6.8748   12.9702 H   0  0  0  0  0  0  0  0  0  0  0  0
    6.7129    4.0489   15.1440 H   0  0  0  0  0  0  0  0  0  0  0  0
    6.2020    5.4622   14.2189 H   0  0  0  0  0  0  0  0  0  0  0  0
    7.8757    5.3543   14.8910 H   0  0  0  0  0  0  0  0  0  0  0  0
    8.1858    3.0431   11.0919 H   0  0  0  0  0  0  0  0  0  0  0  0
    8.8636    4.1200    9.0132 H   0  0  0  0  0  0  0  0  0  0  0  0
    6.0163    4.5815    5.3863 H   0  0  0  0  0  0  0  0  0  0  0  0
    5.8893    2.9925    3.5028 H   0  0  0  0  0  0  0  0  0  0  0  0
  1  2  1  0  0  0  0
  1 37  1  0  0  0  0
  1 38  1  0  0  0  0
  1 39  1  0  0  0  0
  2  3  1  0  0  0  0
  2 40  1  0  0  0  0
  2 41  1  0  0  0  0
  3  4  1  0  0  0  0
  3  6  1  0  0  0  0
  4  5  1  0  0  0  0
  4 42  1  0  0  0  0
  4 43  1  0  0  0  0
  5 44  1  0  0  0  0
  5 45  1  0  0  0  0
  5 46  1  0  0  0  0
  6  7  1  0  0  0  0
  6 47  1  0  0  0  0
  6 48  1  0  0  0  0
  7  8  2  0  0  0  0
  7  9  1  0  0  0  0
  9 10  1  0  0  0  0
  9 49  1  0  0  0  0
 10 11  1  0  0  0  0
 10 36  2  0  0  0  0
 11 12  2  0  0  0  0
 11 50  1  0  0  0  0
 12 13  1  0  0  0  0
 12 51  1  0  0  0  0
 13 14  1  0  0  0  0
 13 35  2  0  0  0  0
 14 15  1  0  0  0  0
 14 52  1  0  0  0  0
 15 16  1  0  0  0  0
 15 26  2  0  0  0  0
 16 17  2  0  0  0  0
 17 18  1  0  0  0  0
 17 24  1  0  0  0  0
 18 19  2  0  0  0  0
 18 53  1  0  0  0  0
 19 20  1  0  0  0  0
 19 22  1  0  0  0  0
 20 21  1  0  0  0  0
 21 54  1  0  0  0  0
 21 55  1  0  0  0  0
 21 56  1  0  0  0  0
 22 23  2  0  0  0  0
 22 57  1  0  0  0  0
 23 24  1  0  0  0  0
 23 58  1  0  0  0  0
 24 25  2  0  0  0  0
 25 26  1  0  0  0  0
 25 59  1  0  0  0  0
 26 27  1  0  0  0  0
 27 28  1  0  0  0  0
 27 34  2  0  0  0  0
 28 29  2  0  0  0  0
 28 60  1  0  0  0  0
 29 30  1  0  0  0  0
 29 61  1  0  0  0  0
 30 31  1  0  0  0  0
 30 33  2  0  0  0  0
 31 32  1  0  0  0  0
 32 62  1  0  0  0  0
 32 63  1  0  0  0  0
 32 64  1  0  0  0  0
 33 34  1  0  0  0  0
 33 65  1  0  0  0  0
 34 66  1  0  0  0  0
 35 36  1  0  0  0  0
 35 67  1  0  0  0  0
 36 68  1  0  0  0  0
M  END
$$$$
