CHEMBL151835
 OpenBabel04072215363D

 48 53  0  0  0  0  0  0  0  0999 V2000
    0.9137   -0.1657    0.0830 O   0  0  0  0  0  0  0  0  0  0  0  0
    2.1240   -0.0495    0.2555 C   0  0  0  0  0  0  0  0  0  0  0  0
    2.9716   -1.1448    0.2738 N   0  0  0  0  0  0  0  0  0  0  0  0
    4.3781   -0.8575    0.4621 C   0  0  0  0  0  0  0  0  0  0  0  0
    4.3186    0.6022    0.4918 C   0  0  0  0  0  0  0  0  0  0  0  0
    2.9996    1.0786    0.4008 C   0  0  0  0  0  0  0  0  0  0  0  0
    2.7208    2.4231    0.2897 C   0  0  0  0  0  0  0  0  0  0  0  0
    3.7569    3.2845   -0.1036 C   0  0  0  0  0  0  0  0  0  0  0  0
    5.0400    2.9094    0.2387 C   0  0  0  0  0  0  0  0  0  0  0  0
    5.3234    1.5960    0.5309 C   0  0  0  0  0  0  0  0  0  0  0  0
    6.6379    1.3237    0.8203 C   0  0  0  0  0  0  0  0  0  0  0  0
    7.4058    0.1865    1.1460 C   0  0  0  0  0  0  0  0  0  0  0  0
    8.7453    0.3355    1.4839 C   0  0  0  0  0  0  0  0  0  0  0  0
    9.7489   -1.2028    1.9364 Br  0  0  0  0  0  0  0  0  0  0  0  0
    9.3312    1.5919    1.5049 C   0  0  0  0  0  0  0  0  0  0  0  0
    8.5962    2.7412    1.1721 C   0  0  0  0  0  0  0  0  0  0  0  0
    7.2362    2.6006    0.8259 C   0  0  0  0  0  0  0  0  0  0  0  0
    6.2403    3.5571    0.4768 N   0  0  0  0  0  0  0  0  0  0  0  0
    6.4543    4.9958    0.5592 C   0  0  0  0  0  0  0  0  0  0  0  0
    5.5047    5.7902    1.4663 C   0  0  0  0  0  0  0  0  0  0  0  0
    5.4789    5.3518    2.9238 C   0  0  0  0  0  0  0  0  0  0  0  0
    6.7520    5.5536    3.5212 O   0  0  0  0  0  0  0  0  0  0  0  0
    3.1838    4.3188   -1.0524 C   0  0  0  0  0  0  0  0  0  0  0  0
    1.6780    4.1057   -0.8722 C   0  0  0  0  0  0  0  0  0  0  0  0
    0.5776    4.7513   -1.4262 C   0  0  0  0  0  0  0  0  0  0  0  0
   -0.7106    4.4351   -0.9604 C   0  0  0  0  0  0  0  0  0  0  0  0
   -0.8793    3.4864    0.0701 C   0  0  0  0  0  0  0  0  0  0  0  0
    0.2212    2.7789    0.5607 C   0  0  0  0  0  0  0  0  0  0  0  0
    1.4722    3.0463    0.0190 C   0  0  0  0  0  0  0  0  0  0  0  0
    2.5987   -2.0560    0.0523 H   0  0  0  0  0  0  0  0  0  0  0  0
    4.9448   -1.2355   -0.3911 H   0  0  0  0  0  0  0  0  0  0  0  0
    4.6991   -1.2924    1.4085 H   0  0  0  0  0  0  0  0  0  0  0  0
    6.9603   -0.8008    1.1488 H   0  0  0  0  0  0  0  0  0  0  0  0
   10.3808    1.6925    1.7856 H   0  0  0  0  0  0  0  0  0  0  0  0
    9.0878    3.7078    1.1962 H   0  0  0  0  0  0  0  0  0  0  0  0
    6.4002    5.3751   -0.4667 H   0  0  0  0  0  0  0  0  0  0  0  0
    7.4797    5.1734    0.9025 H   0  0  0  0  0  0  0  0  0  0  0  0
    4.4863    5.7598    1.0774 H   0  0  0  0  0  0  0  0  0  0  0  0
    5.8224    6.8409    1.4278 H   0  0  0  0  0  0  0  0  0  0  0  0
    5.1780    4.3070    3.0450 H   0  0  0  0  0  0  0  0  0  0  0  0
    4.7569    5.9673    3.4729 H   0  0  0  0  0  0  0  0  0  0  0  0
    7.2698    4.7415    3.3841 H   0  0  0  0  0  0  0  0  0  0  0  0
    3.4679    4.0440   -2.0778 H   0  0  0  0  0  0  0  0  0  0  0  0
    3.4871    5.3385   -0.8221 H   0  0  0  0  0  0  0  0  0  0  0  0
    0.6968    5.4827   -2.2183 H   0  0  0  0  0  0  0  0  0  0  0  0
   -1.5857    4.9147   -1.3769 H   0  0  0  0  0  0  0  0  0  0  0  0
   -1.8630    3.2758    0.4829 H   0  0  0  0  0  0  0  0  0  0  0  0
    0.1028    2.0366    1.3470 H   0  0  0  0  0  0  0  0  0  0  0  0
  1  2  2  0  0  0  0
  2  3  1  0  0  0  0
  2  6  1  0  0  0  0
  3  4  1  0  0  0  0
  3 30  1  0  0  0  0
  4  5  1  0  0  0  0
  4 31  1  0  0  0  0
  4 32  1  0  0  0  0
  5  6  1  0  0  0  0
  5 10  2  0  0  0  0
  6  7  2  0  0  0  0
  7  8  1  0  0  0  0
  7 29  1  0  0  0  0
  8  9  2  0  0  0  0
  8 23  1  0  0  0  0
  9 10  1  0  0  0  0
  9 18  1  0  0  0  0
 10 11  1  0  0  0  0
 11 12  1  0  0  0  0
 11 17  2  0  0  0  0
 12 13  2  0  0  0  0
 12 33  1  0  0  0  0
 13 14  1  0  0  0  0
 13 15  1  0  0  0  0
 15 16  2  0  0  0  0
 15 34  1  0  0  0  0
 16 17  1  0  0  0  0
 16 35  1  0  0  0  0
 17 18  1  0  0  0  0
 18 19  1  0  0  0  0
 19 20  1  0  0  0  0
 19 36  1  0  0  0  0
 19 37  1  0  0  0  0
 20 21  1  0  0  0  0
 20 38  1  0  0  0  0
 20 39  1  0  0  0  0
 21 22  1  0  0  0  0
 21 40  1  0  0  0  0
 21 41  1  0  0  0  0
 22 42  1  0  0  0  0
 23 24  1  0  0  0  0
 23 43  1  0  0  0  0
 23 44  1  0  0  0  0
 24 25  1  0  0  0  0
 24 29  2  0  0  0  0
 25 26  2  0  0  0  0
 25 45  1  0  0  0  0
 26 27  1  0  0  0  0
 26 46  1  0  0  0  0
 27 28  2  0  0  0  0
 27 47  1  0  0  0  0
 28 29  1  0  0  0  0
 28 48  1  0  0  0  0
M  END
$$$$
