CHEMBL2335377
 OpenBabel04072215363D

 43 46  0  0  0  0  0  0  0  0999 V2000
    1.1931    0.1664   -0.1909 N   0  0  0  0  0  0  0  0  0  0  0  0
    2.5715    0.1217   -0.1275 C   0  0  0  0  0  0  0  0  0  0  0  0
    3.1150   -1.1006   -0.0486 N   0  0  0  0  0  0  0  0  0  0  0  0
    4.4648   -1.2462   -0.0709 C   0  0  0  0  0  0  0  0  0  0  0  0
    5.0444   -2.5215   -0.0775 N   0  0  0  0  0  0  0  0  0  0  0  0
    4.5363   -3.7111    0.4625 C   0  0  0  0  0  0  0  0  0  0  0  0
    4.9273   -4.9401   -0.0859 C   0  0  0  0  0  0  0  0  0  0  0  0
    4.3935   -6.1372    0.3955 C   0  0  0  0  0  0  0  0  0  0  0  0
    3.4693   -6.1104    1.4347 C   0  0  0  0  0  0  0  0  0  0  0  0
    2.9731   -7.2715    1.8851 F   0  0  0  0  0  0  0  0  0  0  0  0
    3.0677   -4.9010    1.9896 C   0  0  0  0  0  0  0  0  0  0  0  0
    1.8248   -4.8488    3.4130 Br  0  0  0  0  0  0  0  0  0  0  0  0
    3.5894   -3.7068    1.4962 C   0  0  0  0  0  0  0  0  0  0  0  0
    5.2388   -0.0841   -0.1652 C   0  0  0  0  0  0  0  0  0  0  0  0
    6.6198    0.2248   -0.2616 C   0  0  0  0  0  0  0  0  0  0  0  0
    6.7348    1.5893   -0.4628 C   0  0  0  0  0  0  0  0  0  0  0  0
    7.9229    2.4281   -0.8332 C   0  0  0  0  0  0  0  0  0  0  0  0
    8.8679    1.6521   -1.7638 C   0  0  0  0  0  0  0  0  0  0  0  0
   10.0689    2.4149   -2.2639 C   0  0  0  0  0  0  0  0  0  0  0  0
   10.9734    1.7615   -3.1020 C   0  0  0  0  0  0  0  0  0  0  0  0
   12.0897    2.4530   -3.5598 C   0  0  0  0  0  0  0  0  0  0  0  0
   12.2754    3.7723   -3.1704 C   0  0  0  0  0  0  0  0  0  0  0  0
   11.3316    4.3468   -2.3349 C   0  0  0  0  0  0  0  0  0  0  0  0
   10.2389    3.6995   -1.8742 N   0  0  0  0  0  0  0  0  0  0  0  0
    5.4756    2.1262   -0.3019 N   0  0  0  0  0  0  0  0  0  0  0  0
    4.5562    1.1178   -0.1892 C   0  0  0  0  0  0  0  0  0  0  0  0
    3.2282    1.2868   -0.1517 N   0  0  0  0  0  0  0  0  0  0  0  0
    0.8049   -0.6997    0.1557 H   0  0  0  0  0  0  0  0  0  0  0  0
    0.8429    1.0331    0.1872 H   0  0  0  0  0  0  0  0  0  0  0  0
    6.0208   -2.5446   -0.3351 H   0  0  0  0  0  0  0  0  0  0  0  0
    5.6286   -4.9711   -0.9186 H   0  0  0  0  0  0  0  0  0  0  0  0
    4.6825   -7.0886   -0.0393 H   0  0  0  0  0  0  0  0  0  0  0  0
    3.2760   -2.7630    1.9353 H   0  0  0  0  0  0  0  0  0  0  0  0
    7.4349   -0.4863   -0.2788 H   0  0  0  0  0  0  0  0  0  0  0  0
    8.4466    2.7404    0.0778 H   0  0  0  0  0  0  0  0  0  0  0  0
    7.5764    3.3391   -1.3387 H   0  0  0  0  0  0  0  0  0  0  0  0
    8.3030    1.2995   -2.6378 H   0  0  0  0  0  0  0  0  0  0  0  0
    9.2398    0.7624   -1.2390 H   0  0  0  0  0  0  0  0  0  0  0  0
   10.8121    0.7291   -3.3973 H   0  0  0  0  0  0  0  0  0  0  0  0
   12.8067    1.9643   -4.2143 H   0  0  0  0  0  0  0  0  0  0  0  0
   13.1342    4.3414   -3.5088 H   0  0  0  0  0  0  0  0  0  0  0  0
   11.4311    5.3752   -2.0035 H   0  0  0  0  0  0  0  0  0  0  0  0
    5.2295    3.1047   -0.3521 H   0  0  0  0  0  0  0  0  0  0  0  0
  1  2  1  0  0  0  0
  1 28  1  0  0  0  0
  1 29  1  0  0  0  0
  2  3  1  0  0  0  0
  2 27  2  0  0  0  0
  3  4  2  0  0  0  0
  4  5  1  0  0  0  0
  4 14  1  0  0  0  0
  5  6  1  0  0  0  0
  5 30  1  0  0  0  0
  6  7  1  0  0  0  0
  6 13  2  0  0  0  0
  7  8  2  0  0  0  0
  7 31  1  0  0  0  0
  8  9  1  0  0  0  0
  8 32  1  0  0  0  0
  9 10  1  0  0  0  0
  9 11  2  0  0  0  0
 11 12  1  0  0  0  0
 11 13  1  0  0  0  0
 13 33  1  0  0  0  0
 14 15  1  0  0  0  0
 14 26  2  0  0  0  0
 15 16  2  0  0  0  0
 15 34  1  0  0  0  0
 16 17  1  0  0  0  0
 16 25  1  0  0  0  0
 17 18  1  0  0  0  0
 17 35  1  0  0  0  0
 17 36  1  0  0  0  0
 18 19  1  0  0  0  0
 18 37  1  0  0  0  0
 18 38  1  0  0  0  0
 19 20  1  0  0  0  0
 19 24  2  0  0  0  0
 20 21  2  0  0  0  0
 20 39  1  0  0  0  0
 21 22  1  0  0  0  0
 21 40  1  0  0  0  0
 22 23  2  0  0  0  0
 22 41  1  0  0  0  0
 23 24  1  0  0  0  0
 23 42  1  0  0  0  0
 25 26  1  0  0  0  0
 25 43  1  0  0  0  0
 26 27  1  0  0  0  0
M  END
$$$$
