CHEMBL2069624
 OpenBabel04072215363D

 31 32  0  0  0  0  0  0  0  0999 V2000
    1.0620    0.3687    0.3836 O   0  0  0  0  0  0  0  0  0  0  0  0
    2.2200    0.0910    0.0946 C   0  0  0  0  0  0  0  0  0  0  0  0
    2.8324    0.4431   -1.0995 N   0  0  0  0  0  0  0  0  0  0  0  0
    2.2132    1.1410   -2.1661 C   0  0  0  0  0  0  0  0  0  0  0  0
    1.0034    1.8299   -2.0351 C   0  0  0  0  0  0  0  0  0  0  0  0
    0.4011    2.4380   -3.1357 C   0  0  0  0  0  0  0  0  0  0  0  0
    1.0133    2.3837   -4.3842 C   0  0  0  0  0  0  0  0  0  0  0  0
    2.2450    1.7362   -4.5343 C   0  0  0  0  0  0  0  0  0  0  0  0
    2.9264    1.6815   -5.8799 C   0  0  0  0  0  0  0  0  0  0  0  0
    2.2299    2.3031   -6.8721 F   0  0  0  0  0  0  0  0  0  0  0  0
    4.1550    2.2683   -5.8618 F   0  0  0  0  0  0  0  0  0  0  0  0
    3.1286    0.4052   -6.3086 F   0  0  0  0  0  0  0  0  0  0  0  0
    2.8431    1.1231   -3.4161 C   0  0  0  0  0  0  0  0  0  0  0  0
    3.0653   -0.6464    0.9023 N   0  0  0  0  0  0  0  0  0  0  0  0
    2.7299   -1.2989    2.1182 C   0  0  0  0  0  0  0  0  0  0  0  0
    1.4407   -1.2884    2.6658 C   0  0  0  0  0  0  0  0  0  0  0  0
    1.1567   -1.9630    3.8569 C   0  0  0  0  0  0  0  0  0  0  0  0
    2.1565   -2.6677    4.5187 C   0  0  0  0  0  0  0  0  0  0  0  0
    3.4455   -2.6949    3.9908 C   0  0  0  0  0  0  0  0  0  0  0  0
    3.7295   -2.0150    2.8011 C   0  0  0  0  0  0  0  0  0  0  0  0
    5.3469   -2.0939    2.1852 Cl  0  0  0  0  0  0  0  0  0  0  0  0
    3.7124   -0.0011   -1.3033 H   0  0  0  0  0  0  0  0  0  0  0  0
    0.4934    1.9147   -1.0803 H   0  0  0  0  0  0  0  0  0  0  0  0
   -0.5523    2.9474   -3.0109 H   0  0  0  0  0  0  0  0  0  0  0  0
    0.5216    2.8523   -5.2350 H   0  0  0  0  0  0  0  0  0  0  0  0
    3.7934    0.6080   -3.5454 H   0  0  0  0  0  0  0  0  0  0  0  0
    4.0384   -0.7076    0.6374 H   0  0  0  0  0  0  0  0  0  0  0  0
    0.6175   -0.7620    2.1934 H   0  0  0  0  0  0  0  0  0  0  0  0
    0.1464   -1.9355    4.2590 H   0  0  0  0  0  0  0  0  0  0  0  0
    1.9285   -3.1948    5.4417 H   0  0  0  0  0  0  0  0  0  0  0  0
    4.2224   -3.2523    4.5075 H   0  0  0  0  0  0  0  0  0  0  0  0
  1  2  2  0  0  0  0
  2  3  1  0  0  0  0
  2 14  1  0  0  0  0
  3  4  1  0  0  0  0
  3 22  1  0  0  0  0
  4  5  1  0  0  0  0
  4 13  2  0  0  0  0
  5  6  2  0  0  0  0
  5 23  1  0  0  0  0
  6  7  1  0  0  0  0
  6 24  1  0  0  0  0
  7  8  2  0  0  0  0
  7 25  1  0  0  0  0
  8  9  1  0  0  0  0
  8 13  1  0  0  0  0
  9 10  1  0  0  0  0
  9 11  1  0  0  0  0
  9 12  1  0  0  0  0
 13 26  1  0  0  0  0
 14 15  1  0  0  0  0
 14 27  1  0  0  0  0
 15 16  1  0  0  0  0
 15 20  2  0  0  0  0
 16 17  2  0  0  0  0
 16 28  1  0  0  0  0
 17 18  1  0  0  0  0
 17 29  1  0  0  0  0
 18 19  2  0  0  0  0
 18 30  1  0  0  0  0
 19 20  1  0  0  0  0
 19 31  1  0  0  0  0
 20 21  1  0  0  0  0
M  END
$$$$
