CHEMBL1761941
 OpenBabel04072215363D

 54 57  0  0  0  0  0  0  0  0999 V2000
    9.2883    5.5380   -1.8296 C   0  0  0  0  0  0  0  0  0  0  0  0
    9.3926    6.0134   -0.4861 O   0  0  0  0  0  0  0  0  0  0  0  0
    8.4208    5.5606    0.3760 C   0  0  0  0  0  0  0  0  0  0  0  0
    7.8115    4.3076    0.1788 C   0  0  0  0  0  0  0  0  0  0  0  0
    6.7671    3.8527    0.9652 C   0  0  0  0  0  0  0  0  0  0  0  0
    6.1912    2.6966    0.6236 N   0  0  0  0  0  0  0  0  0  0  0  0
    5.1402    2.3079    1.3484 C   0  0  0  0  0  0  0  0  0  0  0  0
    4.6367    2.9537    2.4004 N   0  0  0  0  0  0  0  0  0  0  0  0
    5.2896    4.0767    2.7743 C   0  0  0  0  0  0  0  0  0  0  0  0
    4.8458    4.7408    3.9260 O   0  0  0  0  0  0  0  0  0  0  0  0
    4.1559    3.9796    4.8515 C   0  0  0  0  0  0  0  0  0  0  0  0
    4.5805    2.7066    5.2173 C   0  0  0  0  0  0  0  0  0  0  0  0
    3.7875    1.9112    6.0417 C   0  0  0  0  0  0  0  0  0  0  0  0
    2.5833    2.3811    6.5706 C   0  0  0  0  0  0  0  0  0  0  0  0
    1.7037    1.5699    7.3365 N   0  0  0  0  0  0  0  0  0  0  0  0
    1.9322    0.2380    7.6640 C   0  0  0  0  0  0  0  0  0  0  0  0
    2.9702   -0.3762    7.4383 O   0  0  0  0  0  0  0  0  0  0  0  0
    0.8211   -0.3676    8.2456 N   0  0  0  0  0  0  0  0  0  0  0  0
    0.9017   -1.7351    8.6251 C   0  0  0  0  0  0  0  0  0  0  0  0
    2.0007   -2.2215    9.3423 C   0  0  0  0  0  0  0  0  0  0  0  0
    2.1393   -3.5874    9.5974 C   0  0  0  0  0  0  0  0  0  0  0  0
    1.1784   -4.4901    9.1358 C   0  0  0  0  0  0  0  0  0  0  0  0
    1.3603   -5.9663    9.3328 C   0  0  0  0  0  0  0  0  0  0  0  0
    0.0563   -3.9969    8.4553 C   0  0  0  0  0  0  0  0  0  0  0  0
   -0.0959   -2.6231    8.2219 C   0  0  0  0  0  0  0  0  0  0  0  0
    2.2257    3.7109    6.3002 C   0  0  0  0  0  0  0  0  0  0  0  0
    3.0074    4.5071    5.4423 C   0  0  0  0  0  0  0  0  0  0  0  0
    6.3657    4.6178    2.0592 C   0  0  0  0  0  0  0  0  0  0  0  0
    7.0302    5.8358    2.3308 C   0  0  0  0  0  0  0  0  0  0  0  0
    8.0356    6.3283    1.4818 C   0  0  0  0  0  0  0  0  0  0  0  0
    8.4793    7.5558    1.8842 O   0  0  0  0  0  0  0  0  0  0  0  0
    9.3315    8.3212    1.0467 C   0  0  0  0  0  0  0  0  0  0  0  0
    9.7890    6.2554   -2.4842 H   0  0  0  0  0  0  0  0  0  0  0  0
    8.2486    5.4593   -2.1701 H   0  0  0  0  0  0  0  0  0  0  0  0
    9.8007    4.5755   -1.9264 H   0  0  0  0  0  0  0  0  0  0  0  0
    8.1314    3.6545   -0.6290 H   0  0  0  0  0  0  0  0  0  0  0  0
    4.6539    1.3824    1.0598 H   0  0  0  0  0  0  0  0  0  0  0  0
    5.4949    2.2808    4.8140 H   0  0  0  0  0  0  0  0  0  0  0  0
    4.1443    0.9023    6.2098 H   0  0  0  0  0  0  0  0  0  0  0  0
    0.8717    2.0096    7.6963 H   0  0  0  0  0  0  0  0  0  0  0  0
   -0.0651   -0.0657    7.8678 H   0  0  0  0  0  0  0  0  0  0  0  0
    2.7802   -1.5436    9.6834 H   0  0  0  0  0  0  0  0  0  0  0  0
    3.0205   -3.9368   10.1304 H   0  0  0  0  0  0  0  0  0  0  0  0
    2.2674   -6.1860    9.9067 H   0  0  0  0  0  0  0  0  0  0  0  0
    1.4510   -6.4676    8.3635 H   0  0  0  0  0  0  0  0  0  0  0  0
    0.5096   -6.3846    9.8787 H   0  0  0  0  0  0  0  0  0  0  0  0
   -0.6916   -4.6878    8.0721 H   0  0  0  0  0  0  0  0  0  0  0  0
   -0.9539   -2.2794    7.6530 H   0  0  0  0  0  0  0  0  0  0  0  0
    1.3176    4.1379    6.7216 H   0  0  0  0  0  0  0  0  0  0  0  0
    2.6964    5.5219    5.2111 H   0  0  0  0  0  0  0  0  0  0  0  0
    6.7374    6.4282    3.1954 H   0  0  0  0  0  0  0  0  0  0  0  0
    9.2035    9.3704    1.3354 H   0  0  0  0  0  0  0  0  0  0  0  0
    9.0731    8.2660   -0.0133 H   0  0  0  0  0  0  0  0  0  0  0  0
   10.3765    8.0532    1.2269 H   0  0  0  0  0  0  0  0  0  0  0  0
  1  2  1  0  0  0  0
  1 33  1  0  0  0  0
  1 34  1  0  0  0  0
  1 35  1  0  0  0  0
  2  3  1  0  0  0  0
  3  4  1  0  0  0  0
  3 30  2  0  0  0  0
  4  5  2  0  0  0  0
  4 36  1  0  0  0  0
  5  6  1  0  0  0  0
  5 28  1  0  0  0  0
  6  7  2  0  0  0  0
  7  8  1  0  0  0  0
  7 37  1  0  0  0  0
  8  9  2  0  0  0  0
  9 10  1  0  0  0  0
  9 28  1  0  0  0  0
 10 11  1  0  0  0  0
 11 12  1  0  0  0  0
 11 27  2  0  0  0  0
 12 13  2  0  0  0  0
 12 38  1  0  0  0  0
 13 14  1  0  0  0  0
 13 39  1  0  0  0  0
 14 15  1  0  0  0  0
 14 26  2  0  0  0  0
 15 16  1  0  0  0  0
 15 40  1  0  0  0  0
 16 17  2  0  0  0  0
 16 18  1  0  0  0  0
 18 19  1  0  0  0  0
 18 41  1  0  0  0  0
 19 20  1  0  0  0  0
 19 25  2  0  0  0  0
 20 21  2  0  0  0  0
 20 42  1  0  0  0  0
 21 22  1  0  0  0  0
 21 43  1  0  0  0  0
 22 23  1  0  0  0  0
 22 24  2  0  0  0  0
 23 44  1  0  0  0  0
 23 45  1  0  0  0  0
 23 46  1  0  0  0  0
 24 25  1  0  0  0  0
 24 47  1  0  0  0  0
 25 48  1  0  0  0  0
 26 27  1  0  0  0  0
 26 49  1  0  0  0  0
 27 50  1  0  0  0  0
 28 29  2  0  0  0  0
 29 30  1  0  0  0  0
 29 51  1  0  0  0  0
 30 31  1  0  0  0  0
 31 32  1  0  0  0  0
 32 52  1  0  0  0  0
 32 53  1  0  0  0  0
 32 54  1  0  0  0  0
M  END
$$$$
