CHEMBL3694657
 OpenBabel04072215373D

 49 52  0  0  0  0  0  0  0  0999 V2000
    3.8313   -6.7927    0.3477 C   0  0  0  0  0  0  0  0  0  0  0  0
    4.3306   -5.3702    0.2170 C   0  0  0  0  0  0  0  0  0  0  0  0
    5.1654   -5.1603   -0.9525 N   0  0  0  0  0  0  0  0  0  0  0  0
    5.6469   -3.8788   -1.1430 C   0  0  0  0  0  0  0  0  0  0  0  0
    5.3550   -2.9647   -0.3852 O   0  0  0  0  0  0  0  0  0  0  0  0
    6.4267   -3.7771   -2.2750 N   0  0  0  0  0  0  0  0  0  0  0  0
    7.0663   -2.5922   -2.7135 C   0  0  0  0  0  0  0  0  0  0  0  0
    7.3110   -1.5053   -1.8733 C   0  0  0  0  0  0  0  0  0  0  0  0
    7.9107   -0.3474   -2.3652 C   0  0  0  0  0  0  0  0  0  0  0  0
    8.3264   -0.2868   -3.6936 C   0  0  0  0  0  0  0  0  0  0  0  0
    8.1510   -1.3826   -4.5495 C   0  0  0  0  0  0  0  0  0  0  0  0
    8.6584   -1.3081   -5.9277 C   0  0  0  0  0  0  0  0  0  0  0  0
    8.7746   -0.2049   -6.7639 C   0  0  0  0  0  0  0  0  0  0  0  0
    9.3160   -0.5237   -7.9789 N   0  0  0  0  0  0  0  0  0  0  0  0
    9.5562   -1.8136   -7.9171 C   0  0  0  0  0  0  0  0  0  0  0  0
   10.1081   -2.7006   -8.8905 C   0  0  0  0  0  0  0  0  0  0  0  0
   10.2726   -4.0054   -8.5992 C   0  0  0  0  0  0  0  0  0  0  0  0
   10.7924   -4.9145   -9.5634 C   0  0  0  0  0  0  0  0  0  0  0  0
   11.2096   -5.7117  -10.3598 C   0  0  0  0  0  0  0  0  0  0  0  0
   11.6667   -6.6616  -11.3067 C   0  0  0  0  0  0  0  0  0  0  0  0
   12.3932   -6.4421  -12.4559 C   0  0  0  0  0  0  0  0  0  0  0  0
   12.6257   -7.6219  -13.1177 N   0  0  0  0  0  0  0  0  0  0  0  0
   12.0551   -8.5497  -12.3834 C   0  0  0  0  0  0  0  0  0  0  0  0
   11.4735   -8.0158  -11.2675 N   0  0  0  0  0  0  0  0  0  0  0  0
   10.7844   -8.7600  -10.2428 C   0  0  0  0  0  0  0  0  0  0  0  0
    9.9258   -4.5236   -7.2839 C   0  0  0  0  0  0  0  0  0  0  0  0
    9.4251   -3.6902   -6.3584 C   0  0  0  0  0  0  0  0  0  0  0  0
    9.2060   -2.3463   -6.6755 N   0  0  0  0  0  0  0  0  0  0  0  0
    7.4788   -2.5146   -4.0510 C   0  0  0  0  0  0  0  0  0  0  0  0
    3.1459   -6.8687    1.1991 H   0  0  0  0  0  0  0  0  0  0  0  0
    4.6625   -7.4835    0.5186 H   0  0  0  0  0  0  0  0  0  0  0  0
    3.2996   -7.1125   -0.5526 H   0  0  0  0  0  0  0  0  0  0  0  0
    4.9076   -5.0910    1.1064 H   0  0  0  0  0  0  0  0  0  0  0  0
    3.4788   -4.6835    0.1455 H   0  0  0  0  0  0  0  0  0  0  0  0
    5.7975   -5.9054   -1.2122 H   0  0  0  0  0  0  0  0  0  0  0  0
    6.3181   -4.5243   -2.9450 H   0  0  0  0  0  0  0  0  0  0  0  0
    7.0418   -1.5250   -0.8209 H   0  0  0  0  0  0  0  0  0  0  0  0
    8.0591    0.5040   -1.7058 H   0  0  0  0  0  0  0  0  0  0  0  0
    8.8016    0.6269   -4.0434 H   0  0  0  0  0  0  0  0  0  0  0  0
    8.4838    0.8161   -6.5472 H   0  0  0  0  0  0  0  0  0  0  0  0
   10.3768   -2.2847   -9.8554 H   0  0  0  0  0  0  0  0  0  0  0  0
   12.7523   -5.5004  -12.8440 H   0  0  0  0  0  0  0  0  0  0  0  0
   12.0374   -9.6072  -12.6102 H   0  0  0  0  0  0  0  0  0  0  0  0
   10.7417   -9.8160  -10.5224 H   0  0  0  0  0  0  0  0  0  0  0  0
    9.7698   -8.3652  -10.1434 H   0  0  0  0  0  0  0  0  0  0  0  0
   11.3347   -8.6489   -9.3054 H   0  0  0  0  0  0  0  0  0  0  0  0
   10.0916   -5.5732   -7.0643 H   0  0  0  0  0  0  0  0  0  0  0  0
    9.1925   -4.0327   -5.3617 H   0  0  0  0  0  0  0  0  0  0  0  0
    7.2403   -3.3369   -4.7173 H   0  0  0  0  0  0  0  0  0  0  0  0
  1  2  1  0  0  0  0
  1 30  1  0  0  0  0
  1 31  1  0  0  0  0
  1 32  1  0  0  0  0
  2  3  1  0  0  0  0
  2 33  1  0  0  0  0
  2 34  1  0  0  0  0
  3  4  1  0  0  0  0
  3 35  1  0  0  0  0
  4  5  2  0  0  0  0
  4  6  1  0  0  0  0
  6  7  1  0  0  0  0
  6 36  1  0  0  0  0
  7  8  1  0  0  0  0
  7 29  2  0  0  0  0
  8  9  2  0  0  0  0
  8 37  1  0  0  0  0
  9 10  1  0  0  0  0
  9 38  1  0  0  0  0
 10 11  2  0  0  0  0
 10 39  1  0  0  0  0
 11 12  1  0  0  0  0
 11 29  1  0  0  0  0
 12 13  2  0  0  0  0
 12 28  1  0  0  0  0
 13 14  1  0  0  0  0
 13 40  1  0  0  0  0
 14 15  2  0  0  0  0
 15 16  1  0  0  0  0
 15 28  1  0  0  0  0
 16 17  2  0  0  0  0
 16 41  1  0  0  0  0
 17 18  1  0  0  0  0
 17 26  1  0  0  0  0
 18 19  3  0  0  0  0
 19 20  1  0  0  0  0
 20 21  2  0  0  0  0
 20 24  1  0  0  0  0
 21 22  1  0  0  0  0
 21 42  1  0  0  0  0
 22 23  2  0  0  0  0
 23 24  1  0  0  0  0
 23 43  1  0  0  0  0
 24 25  1  0  0  0  0
 25 44  1  0  0  0  0
 25 45  1  0  0  0  0
 25 46  1  0  0  0  0
 26 27  2  0  0  0  0
 26 47  1  0  0  0  0
 27 28  1  0  0  0  0
 27 48  1  0  0  0  0
 29 49  1  0  0  0  0
M  END
$$$$
