CHEMBL58483
 OpenBabel04072215383D

 40 43  0  0  0  0  0  0  0  0999 V2000
   -2.9641    1.0481   -0.1493 O   0  0  0  0  0  0  0  0  0  0  0  0
   -1.8043    0.6937   -0.0738 C   0  0  0  0  0  0  0  0  0  0  0  0
   -0.7193    1.5405   -0.0030 N   0  0  0  0  0  0  0  0  0  0  0  0
    0.4771    0.8380    0.0066 C   0  0  0  0  0  0  0  0  0  0  0  0
    1.7245    1.4328    0.0544 C   0  0  0  0  0  0  0  0  0  0  0  0
    2.8313    0.5971    0.0450 C   0  0  0  0  0  0  0  0  0  0  0  0
    2.6599   -0.7939   -0.0192 C   0  0  0  0  0  0  0  0  0  0  0  0
    1.3778   -1.3987   -0.0775 C   0  0  0  0  0  0  0  0  0  0  0  0
    1.3412   -2.9043   -0.1893 C   0  0  0  0  0  0  0  0  0  0  0  0
    1.5121   -3.6285    1.1468 C   0  0  0  0  0  0  0  0  0  0  0  0
    0.3621   -3.4804    1.9690 O   0  0  0  0  0  0  0  0  0  0  0  0
    0.2634   -0.5538   -0.0503 C   0  0  0  0  0  0  0  0  0  0  0  0
   -1.2189   -0.7004   -0.0688 C   0  0  0  0  0  0  0  0  0  0  0  0
   -1.9602   -1.8205   -0.0180 C   0  0  0  0  0  0  0  0  0  0  0  0
   -3.3713   -1.8272    0.1278 C   0  0  0  0  0  0  0  0  0  0  0  0
   -4.1915   -1.6844   -0.9714 N   0  0  0  0  0  0  0  0  0  0  0  0
   -5.5099   -1.8008   -0.5911 C   0  0  0  0  0  0  0  0  0  0  0  0
   -5.5434   -1.9834    0.7751 C   0  0  0  0  0  0  0  0  0  0  0  0
   -4.1957   -1.9893    1.2214 C   0  0  0  0  0  0  0  0  0  0  0  0
   -3.8966   -2.1676    2.6600 C   0  0  0  0  0  0  0  0  0  0  0  0
   -5.1174   -1.7124    3.4703 C   0  0  0  0  0  0  0  0  0  0  0  0
   -6.3759   -2.2606    2.9971 O   0  0  0  0  0  0  0  0  0  0  0  0
   -6.6870   -2.1722    1.6564 C   0  0  0  0  0  0  0  0  0  0  0  0
   -7.8366   -2.3049    1.2557 O   0  0  0  0  0  0  0  0  0  0  0  0
   -0.8180    2.5422    0.0050 H   0  0  0  0  0  0  0  0  0  0  0  0
    1.8405    2.5102    0.0931 H   0  0  0  0  0  0  0  0  0  0  0  0
    3.8331    1.0199    0.0752 H   0  0  0  0  0  0  0  0  0  0  0  0
    3.5556   -1.4156   -0.0398 H   0  0  0  0  0  0  0  0  0  0  0  0
    2.1669   -3.2116   -0.8471 H   0  0  0  0  0  0  0  0  0  0  0  0
    0.4344   -3.2306   -0.7024 H   0  0  0  0  0  0  0  0  0  0  0  0
    2.3942   -3.2840    1.6988 H   0  0  0  0  0  0  0  0  0  0  0  0
    1.6389   -4.7003    0.9615 H   0  0  0  0  0  0  0  0  0  0  0  0
    0.5231   -2.7167    2.5504 H   0  0  0  0  0  0  0  0  0  0  0  0
   -1.4862   -2.7929    0.0398 H   0  0  0  0  0  0  0  0  0  0  0  0
   -3.8796   -1.5111   -1.9174 H   0  0  0  0  0  0  0  0  0  0  0  0
   -6.3098   -1.7356   -1.3176 H   0  0  0  0  0  0  0  0  0  0  0  0
   -3.0145   -1.5924    2.9601 H   0  0  0  0  0  0  0  0  0  0  0  0
   -3.6986   -3.2284    2.8476 H   0  0  0  0  0  0  0  0  0  0  0  0
   -5.2136   -0.6197    3.4691 H   0  0  0  0  0  0  0  0  0  0  0  0
   -4.9996   -2.0277    4.5125 H   0  0  0  0  0  0  0  0  0  0  0  0
  1  2  2  0  0  0  0
  2  3  1  0  0  0  0
  2 13  1  0  0  0  0
  3  4  1  0  0  0  0
  3 25  1  0  0  0  0
  4  5  1  0  0  0  0
  4 12  2  0  0  0  0
  5  6  2  0  0  0  0
  5 26  1  0  0  0  0
  6  7  1  0  0  0  0
  6 27  1  0  0  0  0
  7  8  2  0  0  0  0
  7 28  1  0  0  0  0
  8  9  1  0  0  0  0
  8 12  1  0  0  0  0
  9 10  1  0  0  0  0
  9 29  1  0  0  0  0
  9 30  1  0  0  0  0
 10 11  1  0  0  0  0
 10 31  1  0  0  0  0
 10 32  1  0  0  0  0
 11 33  1  0  0  0  0
 12 13  1  0  0  0  0
 13 14  2  0  0  0  0
 14 15  1  0  0  0  0
 14 34  1  0  0  0  0
 15 16  1  0  0  0  0
 15 19  2  0  0  0  0
 16 17  1  0  0  0  0
 16 35  1  0  0  0  0
 17 18  2  0  0  0  0
 17 36  1  0  0  0  0
 18 19  1  0  0  0  0
 18 23  1  0  0  0  0
 19 20  1  0  0  0  0
 20 21  1  0  0  0  0
 20 37  1  0  0  0  0
 20 38  1  0  0  0  0
 21 22  1  0  0  0  0
 21 39  1  0  0  0  0
 21 40  1  0  0  0  0
 22 23  1  0  0  0  0
 23 24  2  0  0  0  0
M  END
$$$$
