CHEMBL3948698
 OpenBabel04072215373D

 62 65  0  0  0  0  0  0  0  0999 V2000
    2.4196    1.0772   -6.6694 C   0  0  0  0  0  0  0  0  0  0  0  0
    3.4970    0.5107   -6.0647 O   0  0  0  0  0  0  0  0  0  0  0  0
    3.6252    0.0802   -4.7864 C   0  0  0  0  0  0  0  0  0  0  0  0
    2.5458   -0.0346   -3.8828 C   0  0  0  0  0  0  0  0  0  0  0  0
    2.7493   -0.5548   -2.5935 C   0  0  0  0  0  0  0  0  0  0  0  0
    1.6723   -0.7163   -1.7605 O   0  0  0  0  0  0  0  0  0  0  0  0
    1.7167   -1.1496   -0.4409 C   0  0  0  0  0  0  0  0  0  0  0  0
    0.3260   -1.5496    0.0565 C   0  0  0  0  0  0  0  0  0  0  0  0
    0.3909   -1.9782    1.3919 O   0  0  0  0  0  0  0  0  0  0  0  0
    4.0564   -0.9484   -2.2275 C   0  0  0  0  0  0  0  0  0  0  0  0
    5.1587   -0.8528   -3.1327 C   0  0  0  0  0  0  0  0  0  0  0  0
    6.4865   -1.3444   -2.8181 N   0  0  0  0  0  0  0  0  0  0  0  0
    6.7355   -2.1223   -1.5530 C   0  0  0  0  0  0  0  0  0  0  0  0
    7.7898   -1.5208   -0.5920 C   0  0  0  0  0  0  0  0  0  0  0  0
    7.3380   -0.1589   -0.1611 C   0  0  0  0  0  0  0  0  0  0  0  0
    8.6367   -0.3098   -0.9755 C   0  0  0  0  0  0  0  0  0  0  0  0
    7.5672   -1.4115   -3.8076 C   0  0  0  0  0  0  0  0  0  0  0  0
    8.0538   -2.7028   -3.9987 C   0  0  0  0  0  0  0  0  0  0  0  0
    9.2294   -2.9385   -4.5857 C   0  0  0  0  0  0  0  0  0  0  0  0
    9.9681   -1.9208   -5.0814 C   0  0  0  0  0  0  0  0  0  0  0  0
   11.1877   -2.2799   -5.4448 N   0  0  0  0  0  0  0  0  0  0  0  0
   12.0254   -1.4566   -6.0132 C   0  0  0  0  0  0  0  0  0  0  0  0
   11.6349   -0.1638   -6.3784 C   0  0  0  0  0  0  0  0  0  0  0  0
   12.6177    0.4340   -7.4178 C   0  0  0  0  0  0  0  0  0  0  0  0
   13.6967   -0.3299   -7.9350 C   0  0  0  0  0  0  0  0  0  0  0  0
   14.3072    0.3039   -8.9208 N   0  0  0  0  0  0  0  0  0  0  0  0
   13.7060    1.4550   -9.0937 N   0  0  0  0  0  0  0  0  0  0  0  0
   14.1234    2.3054  -10.2015 C   0  0  0  0  0  0  0  0  0  0  0  0
   12.6877    1.6098   -8.1892 C   0  0  0  0  0  0  0  0  0  0  0  0
   10.3795    0.2948   -5.9013 N   0  0  0  0  0  0  0  0  0  0  0  0
    9.5341   -0.5866   -5.1816 C   0  0  0  0  0  0  0  0  0  0  0  0
    8.2658   -0.3037   -4.4927 C   0  0  0  0  0  0  0  0  0  0  0  0
    4.8957   -0.3344   -4.4037 C   0  0  0  0  0  0  0  0  0  0  0  0
   -0.5729    1.8543    1.1312 Cl  0  0  0  0  0  0  0  0  0  0  0  0
    2.6269    1.0959   -7.7601 H   0  0  0  0  0  0  0  0  0  0  0  0
    2.2881    2.1215   -6.3210 H   0  0  0  0  0  0  0  0  0  0  0  0
    1.5095    0.4686   -6.5021 H   0  0  0  0  0  0  0  0  0  0  0  0
    1.5420    0.2725   -4.1666 H   0  0  0  0  0  0  0  0  0  0  0  0
    2.1395   -0.3454    0.2001 H   0  0  0  0  0  0  0  0  0  0  0  0
    2.3393   -2.0644   -0.3530 H   0  0  0  0  0  0  0  0  0  0  0  0
   -0.0957   -2.3617   -0.5772 H   0  0  0  0  0  0  0  0  0  0  0  0
   -0.3703   -0.6912   -0.0046 H   0  0  0  0  0  0  0  0  0  0  0  0
    0.9185   -2.8208    1.3991 H   0  0  0  0  0  0  0  0  0  0  0  0
    4.1690   -1.3486   -1.2451 H   0  0  0  0  0  0  0  0  0  0  0  0
    7.0765   -3.1501   -1.7408 H   0  0  0  0  0  0  0  0  0  0  0  0
    5.8472   -2.3587   -0.9591 H   0  0  0  0  0  0  0  0  0  0  0  0
    8.1423   -2.1275    0.2716 H   0  0  0  0  0  0  0  0  0  0  0  0
    7.6512    0.2597    0.8193 H   0  0  0  0  0  0  0  0  0  0  0  0
    6.5297    0.3122   -0.7574 H   0  0  0  0  0  0  0  0  0  0  0  0
    9.5208   -0.2651   -0.3103 H   0  0  0  0  0  0  0  0  0  0  0  0
    8.9526   -0.6281   -1.9780 H   0  0  0  0  0  0  0  0  0  0  0  0
    7.5581   -3.5790   -3.6233 H   0  0  0  0  0  0  0  0  0  0  0  0
    9.6071   -3.9496   -4.6168 H   0  0  0  0  0  0  0  0  0  0  0  0
   12.9679   -1.8952   -6.1888 H   0  0  0  0  0  0  0  0  0  0  0  0
   14.0359   -1.3221   -7.7083 H   0  0  0  0  0  0  0  0  0  0  0  0
   14.9191    1.7792  -10.7915 H   0  0  0  0  0  0  0  0  0  0  0  0
   14.5440    3.2603   -9.8397 H   0  0  0  0  0  0  0  0  0  0  0  0
   13.2695    2.4586  -10.8900 H   0  0  0  0  0  0  0  0  0  0  0  0
   12.0335    2.4670   -8.1614 H   0  0  0  0  0  0  0  0  0  0  0  0
    7.8912    0.7141   -4.4108 H   0  0  0  0  0  0  0  0  0  0  0  0
    5.6811   -0.2661   -5.1333 H   0  0  0  0  0  0  0  0  0  0  0  0
    0.7747    1.6634    0.9298 H   0  0  0  0  0  0  0  0  0  0  0  0
  1  2  1  0  0  0  0
  1 35  1  0  0  0  0
  1 36  1  0  0  0  0
  1 37  1  0  0  0  0
  2  3  1  0  0  0  0
  3  4  1  0  0  0  0
  3 33  2  0  0  0  0
  4  5  2  0  0  0  0
  4 38  1  0  0  0  0
  5  6  1  0  0  0  0
  5 10  1  0  0  0  0
  6  7  1  0  0  0  0
  7  8  1  0  0  0  0
  7 39  1  0  0  0  0
  7 40  1  0  0  0  0
  8  9  1  0  0  0  0
  8 41  1  0  0  0  0
  8 42  1  0  0  0  0
  9 43  1  0  0  0  0
 10 11  2  0  0  0  0
 10 44  1  0  0  0  0
 11 12  1  0  0  0  0
 11 33  1  0  0  0  0
 12 13  1  0  0  0  0
 12 17  1  0  0  0  0
 13 14  1  0  0  0  0
 13 45  1  0  0  0  0
 13 46  1  0  0  0  0
 14 15  1  0  0  0  0
 14 16  1  0  0  0  0
 14 47  1  0  0  0  0
 15 16  1  0  0  0  0
 15 48  1  0  0  0  0
 15 49  1  0  0  0  0
 16 50  1  0  0  0  0
 16 51  1  0  0  0  0
 17 18  1  0  0  0  0
 17 32  2  0  0  0  0
 18 19  2  0  0  0  0
 18 52  1  0  0  0  0
 19 20  1  0  0  0  0
 19 53  1  0  0  0  0
 20 21  1  0  0  0  0
 20 31  2  0  0  0  0
 21 22  2  0  0  0  0
 22 23  1  0  0  0  0
 22 54  1  0  0  0  0
 23 24  1  0  0  0  0
 23 30  2  0  0  0  0
 24 25  1  0  0  0  0
 24 29  2  0  0  0  0
 25 26  2  0  0  0  0
 25 55  1  0  0  0  0
 26 27  1  0  0  0  0
 27 28  1  0  0  0  0
 27 29  1  0  0  0  0
 28 56  1  0  0  0  0
 28 57  1  0  0  0  0
 28 58  1  0  0  0  0
 29 59  1  0  0  0  0
 30 31  1  0  0  0  0
 31 32  1  0  0  0  0
 32 60  1  0  0  0  0
 33 61  1  0  0  0  0
 34 62  1  0  0  0  0
M  END
$$$$
