CHEMBL3739569
 OpenBabel04072215373D

 62 66  0  0  0  0  0  0  0  0999 V2000
    4.7510    6.0674    3.4844 C   0  0  0  0  0  0  0  0  0  0  0  0
    3.9138    4.4908    3.5955 S   0  0  0  0  0  0  0  0  0  0  0  0
    4.8048    3.5831    4.2842 O   0  0  0  0  0  0  0  0  0  0  0  0
    2.5925    4.7667    4.1365 O   0  0  0  0  0  0  0  0  0  0  0  0
    3.6791    3.9840    1.8954 C   0  0  0  0  0  0  0  0  0  0  0  0
    4.9653    3.9900    1.1094 C   0  0  0  0  0  0  0  0  0  0  0  0
    5.0829    4.8063   -0.0210 C   0  0  0  0  0  0  0  0  0  0  0  0
    6.2618    4.8084   -0.7610 C   0  0  0  0  0  0  0  0  0  0  0  0
    7.3326    3.9967   -0.3810 C   0  0  0  0  0  0  0  0  0  0  0  0
    7.2417    3.1467    0.7235 C   0  0  0  0  0  0  0  0  0  0  0  0
    8.2823    2.3131    1.1533 N   0  0  0  0  0  0  0  0  0  0  0  0
    9.4798    1.9244    0.5559 C   0  0  0  0  0  0  0  0  0  0  0  0
   10.0344    0.8135    1.0658 N   0  0  0  0  0  0  0  0  0  0  0  0
   11.1275    0.3338    0.4473 C   0  0  0  0  0  0  0  0  0  0  0  0
   11.7033    0.9326   -0.6427 C   0  0  0  0  0  0  0  0  0  0  0  0
   11.1215    2.1143   -1.0424 C   0  0  0  0  0  0  0  0  0  0  0  0
   11.5805    2.8854   -2.0933 O   0  0  0  0  0  0  0  0  0  0  0  0
   12.9020    2.7659   -2.4440 C   0  0  0  0  0  0  0  0  0  0  0  0
   13.1937    2.4923   -3.7769 C   0  0  0  0  0  0  0  0  0  0  0  0
   14.5055    2.1640   -4.1294 C   0  0  0  0  0  0  0  0  0  0  0  0
   15.5355    2.2160   -3.1695 C   0  0  0  0  0  0  0  0  0  0  0  0
   16.8858    1.9460   -3.4385 C   0  0  0  0  0  0  0  0  0  0  0  0
   17.5426    0.9539   -2.3956 C   0  0  0  0  0  0  0  0  0  0  0  0
   16.8445    0.2261   -1.6989 O   0  0  0  0  0  0  0  0  0  0  0  0
   18.9409    1.0094   -2.3287 N   0  0  0  0  0  0  0  0  0  0  0  0
   19.8217    0.4246   -1.3764 C   0  0  0  0  0  0  0  0  0  0  0  0
   19.4243   -0.3259   -0.2686 C   0  0  0  0  0  0  0  0  0  0  0  0
   20.3896   -0.8569    0.6028 C   0  0  0  0  0  0  0  0  0  0  0  0
   19.9963   -1.5740    1.6651 F   0  0  0  0  0  0  0  0  0  0  0  0
   21.7455   -0.6578    0.4033 C   0  0  0  0  0  0  0  0  0  0  0  0
   22.1377    0.1074   -0.6864 C   0  0  0  0  0  0  0  0  0  0  0  0
   23.4424    0.3324   -0.8983 F   0  0  0  0  0  0  0  0  0  0  0  0
   21.1969    0.6500   -1.5647 C   0  0  0  0  0  0  0  0  0  0  0  0
   17.5992    3.1271   -3.4609 C   0  0  0  0  0  0  0  0  0  0  0  0
   17.3921    3.9861   -2.3851 C   0  0  0  0  0  0  0  0  0  0  0  0
   16.2867    3.7738   -1.5392 C   0  0  0  0  0  0  0  0  0  0  0  0
   15.2569    2.9474   -2.0106 C   0  0  0  0  0  0  0  0  0  0  0  0
   13.9370    3.0473   -1.5533 C   0  0  0  0  0  0  0  0  0  0  0  0
   10.0059    2.6003   -0.4725 N   0  0  0  0  0  0  0  0  0  0  0  0
    6.0403    3.1558    1.4545 C   0  0  0  0  0  0  0  0  0  0  0  0
    4.8817    6.4465    4.4991 H   0  0  0  0  0  0  0  0  0  0  0  0
    4.1287    6.7484    2.9061 H   0  0  0  0  0  0  0  0  0  0  0  0
    5.7274    5.9291    3.0174 H   0  0  0  0  0  0  0  0  0  0  0  0
    2.9477    4.6802    1.4660 H   0  0  0  0  0  0  0  0  0  0  0  0
    3.2284    2.9832    1.9018 H   0  0  0  0  0  0  0  0  0  0  0  0
    4.2622    5.4423   -0.3471 H   0  0  0  0  0  0  0  0  0  0  0  0
    6.3572    5.4380   -1.6423 H   0  0  0  0  0  0  0  0  0  0  0  0
    8.2363    4.0413   -0.9813 H   0  0  0  0  0  0  0  0  0  0  0  0
    8.0650    1.6580    1.8914 H   0  0  0  0  0  0  0  0  0  0  0  0
   11.5349   -0.5820    0.8659 H   0  0  0  0  0  0  0  0  0  0  0  0
   12.5627    0.4928   -1.1287 H   0  0  0  0  0  0  0  0  0  0  0  0
   12.4106    2.5343   -4.5294 H   0  0  0  0  0  0  0  0  0  0  0  0
   14.7354    1.9462   -5.1701 H   0  0  0  0  0  0  0  0  0  0  0  0
   19.3965    1.5855   -3.0209 H   0  0  0  0  0  0  0  0  0  0  0  0
   18.3816   -0.5129   -0.0406 H   0  0  0  0  0  0  0  0  0  0  0  0
   22.4777   -1.0690    1.0777 H   0  0  0  0  0  0  0  0  0  0  0  0
   21.5689    1.2462   -2.3924 H   0  0  0  0  0  0  0  0  0  0  0  0
   18.3228    3.3203   -4.2460 H   0  0  0  0  0  0  0  0  0  0  0  0
   18.0418    4.8397   -2.2335 H   0  0  0  0  0  0  0  0  0  0  0  0
   16.1346    4.4295   -0.6918 H   0  0  0  0  0  0  0  0  0  0  0  0
   13.7161    3.4568   -0.5725 H   0  0  0  0  0  0  0  0  0  0  0  0
    5.9462    2.4870    2.3094 H   0  0  0  0  0  0  0  0  0  0  0  0
  1  2  1  0  0  0  0
  1 41  1  0  0  0  0
  1 42  1  0  0  0  0
  1 43  1  0  0  0  0
  2  3  2  0  0  0  0
  2  4  2  0  0  0  0
  2  5  1  0  0  0  0
  5  6  1  0  0  0  0
  5 44  1  0  0  0  0
  5 45  1  0  0  0  0
  6  7  1  0  0  0  0
  6 40  2  0  0  0  0
  7  8  2  0  0  0  0
  7 46  1  0  0  0  0
  8  9  1  0  0  0  0
  8 47  1  0  0  0  0
  9 10  2  0  0  0  0
  9 48  1  0  0  0  0
 10 11  1  0  0  0  0
 10 40  1  0  0  0  0
 11 12  1  0  0  0  0
 11 49  1  0  0  0  0
 12 13  1  0  0  0  0
 12 39  2  0  0  0  0
 13 14  2  0  0  0  0
 14 15  1  0  0  0  0
 14 50  1  0  0  0  0
 15 16  2  0  0  0  0
 15 51  1  0  0  0  0
 16 17  1  0  0  0  0
 16 39  1  0  0  0  0
 17 18  1  0  0  0  0
 18 19  1  0  0  0  0
 18 38  2  0  0  0  0
 19 20  2  0  0  0  0
 19 52  1  0  0  0  0
 20 21  1  0  0  0  0
 20 53  1  0  0  0  0
 21 22  1  0  0  0  0
 21 37  2  0  0  0  0
 22 23  1  0  0  0  0
 22 34  2  0  0  0  0
 23 24  2  0  0  0  0
 23 25  1  0  0  0  0
 25 26  1  0  0  0  0
 25 54  1  0  0  0  0
 26 27  1  0  0  0  0
 26 33  2  0  0  0  0
 27 28  2  0  0  0  0
 27 55  1  0  0  0  0
 28 29  1  0  0  0  0
 28 30  1  0  0  0  0
 30 31  2  0  0  0  0
 30 56  1  0  0  0  0
 31 32  1  0  0  0  0
 31 33  1  0  0  0  0
 33 57  1  0  0  0  0
 34 35  1  0  0  0  0
 34 58  1  0  0  0  0
 35 36  2  0  0  0  0
 35 59  1  0  0  0  0
 36 37  1  0  0  0  0
 36 60  1  0  0  0  0
 37 38  1  0  0  0  0
 38 61  1  0  0  0  0
 40 62  1  0  0  0  0
M  END
$$$$
