CHEMBL3918574
 OpenBabel04072215373D

 49 52  0  0  0  0  0  0  0  0999 V2000
    2.0932   -1.1175    0.1686 N   0  0  0  0  0  0  0  0  0  0  0  0
    1.9130   -0.8049   -1.1466 C   0  0  0  0  0  0  0  0  0  0  0  0
    0.9505   -1.1021   -1.8300 O   0  0  0  0  0  0  0  0  0  0  0  0
    2.9433    0.0100   -1.6514 N   0  0  0  0  0  0  0  0  0  0  0  0
    4.3335   -0.2060   -1.5761 C   0  0  0  0  0  0  0  0  0  0  0  0
    5.0207   -1.3876   -1.0156 C   0  0  0  0  0  0  0  0  0  0  0  0
    4.4666   -2.6768   -1.0460 C   0  0  0  0  0  0  0  0  0  0  0  0
    5.1197   -3.7369   -0.4227 C   0  0  0  0  0  0  0  0  0  0  0  0
    6.3587   -3.5390    0.1872 C   0  0  0  0  0  0  0  0  0  0  0  0
    6.9710   -2.2890    0.1707 C   0  0  0  0  0  0  0  0  0  0  0  0
    8.2329   -2.0415    0.7659 N   0  0  0  0  0  0  0  0  0  0  0  0
    9.1605   -3.0172    1.0764 C   0  0  0  0  0  0  0  0  0  0  0  0
    9.0802   -4.2001    0.7433 O   0  0  0  0  0  0  0  0  0  0  0  0
   10.2016   -2.5213    1.8456 N   0  0  0  0  0  0  0  0  0  0  0  0
   11.2509   -3.3763    2.2524 C   0  0  0  0  0  0  0  0  0  0  0  0
   11.5810   -3.4460    3.6056 C   0  0  0  0  0  0  0  0  0  0  0  0
   12.6204   -4.2755    4.0282 C   0  0  0  0  0  0  0  0  0  0  0  0
   13.3737   -4.9869    3.0938 C   0  0  0  0  0  0  0  0  0  0  0  0
   13.0742   -4.9046    1.7260 C   0  0  0  0  0  0  0  0  0  0  0  0
   13.9430   -5.5927    0.7020 C   0  0  0  0  0  0  0  0  0  0  0  0
   15.0299   -6.2123    1.2466 F   0  0  0  0  0  0  0  0  0  0  0  0
   13.2880   -6.5491   -0.0090 F   0  0  0  0  0  0  0  0  0  0  0  0
   14.4465   -4.7189   -0.2157 F   0  0  0  0  0  0  0  0  0  0  0  0
   11.9780   -4.1250    1.3182 C   0  0  0  0  0  0  0  0  0  0  0  0
    6.2939   -1.2205   -0.4260 C   0  0  0  0  0  0  0  0  0  0  0  0
    4.9383    0.9062   -2.1443 C   0  0  0  0  0  0  0  0  0  0  0  0
    3.9487    1.8438   -2.5040 C   0  0  0  0  0  0  0  0  0  0  0  0
    4.0064    3.1485   -3.0270 C   0  0  0  0  0  0  0  0  0  0  0  0
    2.8210    3.8533   -3.2404 C   0  0  0  0  0  0  0  0  0  0  0  0
    1.5919    3.2649   -2.9585 C   0  0  0  0  0  0  0  0  0  0  0  0
    1.5156    1.9626   -2.4526 C   0  0  0  0  0  0  0  0  0  0  0  0
    2.7144    1.2646   -2.2254 C   0  0  0  0  0  0  0  0  0  0  0  0
    1.3637   -1.6462    0.6340 H   0  0  0  0  0  0  0  0  0  0  0  0
    2.7907   -0.6624    0.7411 H   0  0  0  0  0  0  0  0  0  0  0  0
    3.5143   -2.8752   -1.5248 H   0  0  0  0  0  0  0  0  0  0  0  0
    4.6671   -4.7239   -0.4115 H   0  0  0  0  0  0  0  0  0  0  0  0
    6.8169   -4.3942    0.6786 H   0  0  0  0  0  0  0  0  0  0  0  0
    8.5766   -1.0937    0.7479 H   0  0  0  0  0  0  0  0  0  0  0  0
    9.9077   -1.8240    2.5155 H   0  0  0  0  0  0  0  0  0  0  0  0
   11.0032   -2.9039    4.3484 H   0  0  0  0  0  0  0  0  0  0  0  0
   12.8514   -4.3616    5.0871 H   0  0  0  0  0  0  0  0  0  0  0  0
   14.2077   -5.5981    3.4369 H   0  0  0  0  0  0  0  0  0  0  0  0
   11.7201   -4.0743    0.2606 H   0  0  0  0  0  0  0  0  0  0  0  0
    6.7630   -0.2414   -0.4443 H   0  0  0  0  0  0  0  0  0  0  0  0
    6.0047    1.0492   -2.2643 H   0  0  0  0  0  0  0  0  0  0  0  0
    4.9654    3.6142   -3.2363 H   0  0  0  0  0  0  0  0  0  0  0  0
    2.8625    4.8690   -3.6247 H   0  0  0  0  0  0  0  0  0  0  0  0
    0.6768    3.8285   -3.1258 H   0  0  0  0  0  0  0  0  0  0  0  0
    0.5487    1.5195   -2.2225 H   0  0  0  0  0  0  0  0  0  0  0  0
  1  2  1  0  0  0  0
  1 33  1  0  0  0  0
  1 34  1  0  0  0  0
  2  3  2  0  0  0  0
  2  4  1  0  0  0  0
  4  5  1  0  0  0  0
  4 32  1  0  0  0  0
  5  6  1  0  0  0  0
  5 26  2  0  0  0  0
  6  7  1  0  0  0  0
  6 25  2  0  0  0  0
  7  8  2  0  0  0  0
  7 35  1  0  0  0  0
  8  9  1  0  0  0  0
  8 36  1  0  0  0  0
  9 10  2  0  0  0  0
  9 37  1  0  0  0  0
 10 11  1  0  0  0  0
 10 25  1  0  0  0  0
 11 12  1  0  0  0  0
 11 38  1  0  0  0  0
 12 13  2  0  0  0  0
 12 14  1  0  0  0  0
 14 15  1  0  0  0  0
 14 39  1  0  0  0  0
 15 16  1  0  0  0  0
 15 24  2  0  0  0  0
 16 17  2  0  0  0  0
 16 40  1  0  0  0  0
 17 18  1  0  0  0  0
 17 41  1  0  0  0  0
 18 19  2  0  0  0  0
 18 42  1  0  0  0  0
 19 20  1  0  0  0  0
 19 24  1  0  0  0  0
 20 21  1  0  0  0  0
 20 22  1  0  0  0  0
 20 23  1  0  0  0  0
 24 43  1  0  0  0  0
 25 44  1  0  0  0  0
 26 27  1  0  0  0  0
 26 45  1  0  0  0  0
 27 28  1  0  0  0  0
 27 32  2  0  0  0  0
 28 29  2  0  0  0  0
 28 46  1  0  0  0  0
 29 30  1  0  0  0  0
 29 47  1  0  0  0  0
 30 31  2  0  0  0  0
 30 48  1  0  0  0  0
 31 32  1  0  0  0  0
 31 49  1  0  0  0  0
M  END
$$$$
