CHEMBL429643
 OpenBabel04072215383D

 43 45  0  0  0  0  0  0  0  0999 V2000
   -2.1420   -0.1271   -0.0593 C   0  0  0  0  0  0  0  0  0  0  0  0
   -0.6979   -0.2067   -0.0452 N   0  0  0  0  0  0  0  0  0  0  0  0
    0.0034    0.9427    0.0265 N   0  0  0  0  0  0  0  0  0  0  0  0
    1.2674    0.5337    0.0549 C   0  0  0  0  0  0  0  0  0  0  0  0
    1.3808   -0.8749    0.0225 C   0  0  0  0  0  0  0  0  0  0  0  0
    2.5737   -1.5201    0.0318 N   0  0  0  0  0  0  0  0  0  0  0  0
    2.8281   -2.7941   -0.6242 C   0  0  0  0  0  0  0  0  0  0  0  0
    3.3457   -3.8211    0.3575 C   0  0  0  0  0  0  0  0  0  0  0  0
    3.5773   -3.5355    1.7084 C   0  0  0  0  0  0  0  0  0  0  0  0
    4.0420   -4.5423    2.5416 C   0  0  0  0  0  0  0  0  0  0  0  0
    4.2878   -5.8003    2.1269 N   0  0  0  0  0  0  0  0  0  0  0  0
    4.0708   -6.0602    0.8211 C   0  0  0  0  0  0  0  0  0  0  0  0
    3.6100   -5.1206   -0.0893 C   0  0  0  0  0  0  0  0  0  0  0  0
    0.0808   -1.3470   -0.0136 C   0  0  0  0  0  0  0  0  0  0  0  0
   -0.4772   -2.6810   -0.0611 C   0  0  0  0  0  0  0  0  0  0  0  0
   -1.4359   -2.9545   -0.7805 O   0  0  0  0  0  0  0  0  0  0  0  0
    0.0789   -3.5868    0.8248 N   0  0  0  0  0  0  0  0  0  0  0  0
   -0.2659   -4.9526    0.8787 C   0  0  0  0  0  0  0  0  0  0  0  0
   -0.3649   -5.5709    2.1201 C   0  0  0  0  0  0  0  0  0  0  0  0
   -0.7492   -6.9120    2.2005 C   0  0  0  0  0  0  0  0  0  0  0  0
   -0.9557   -7.6726    1.0419 C   0  0  0  0  0  0  0  0  0  0  0  0
   -1.4225   -9.3168    1.2767 Cl  0  0  0  0  0  0  0  0  0  0  0  0
   -0.7871   -7.0919   -0.2187 C   0  0  0  0  0  0  0  0  0  0  0  0
   -0.8914   -7.8386   -1.5242 C   0  0  0  0  0  0  0  0  0  0  0  0
   -1.1619   -9.1678   -1.4470 F   0  0  0  0  0  0  0  0  0  0  0  0
   -1.8514   -7.3184   -2.3404 F   0  0  0  0  0  0  0  0  0  0  0  0
    0.2721   -7.7553   -2.2376 F   0  0  0  0  0  0  0  0  0  0  0  0
   -0.4698   -5.7130   -0.2802 C   0  0  0  0  0  0  0  0  0  0  0  0
   -2.4450    0.9218    0.0173 H   0  0  0  0  0  0  0  0  0  0  0  0
   -2.5304   -0.6795    0.7996 H   0  0  0  0  0  0  0  0  0  0  0  0
   -2.5062   -0.5429   -1.0004 H   0  0  0  0  0  0  0  0  0  0  0  0
    2.0559    1.2749    0.0803 H   0  0  0  0  0  0  0  0  0  0  0  0
    3.4200   -0.9524    0.0560 H   0  0  0  0  0  0  0  0  0  0  0  0
    3.5925   -2.6319   -1.3941 H   0  0  0  0  0  0  0  0  0  0  0  0
    1.9434   -3.1833   -1.1390 H   0  0  0  0  0  0  0  0  0  0  0  0
    3.3995   -2.5488    2.1231 H   0  0  0  0  0  0  0  0  0  0  0  0
    4.2251   -4.3507    3.5950 H   0  0  0  0  0  0  0  0  0  0  0  0
    4.2861   -7.0792    0.5133 H   0  0  0  0  0  0  0  0  0  0  0  0
    3.4601   -5.4040   -1.1255 H   0  0  0  0  0  0  0  0  0  0  0  0
    0.6081   -3.1971    1.5967 H   0  0  0  0  0  0  0  0  0  0  0  0
   -0.2168   -5.0086    3.0388 H   0  0  0  0  0  0  0  0  0  0  0  0
   -0.8927   -7.3635    3.1806 H   0  0  0  0  0  0  0  0  0  0  0  0
   -0.3382   -5.2491   -1.2583 H   0  0  0  0  0  0  0  0  0  0  0  0
  1  2  1  0  0  0  0
  1 29  1  0  0  0  0
  1 30  1  0  0  0  0
  1 31  1  0  0  0  0
  2  3  1  0  0  0  0
  2 14  1  0  0  0  0
  3  4  2  0  0  0  0
  4  5  1  0  0  0  0
  4 32  1  0  0  0  0
  5  6  1  0  0  0  0
  5 14  2  0  0  0  0
  6  7  1  0  0  0  0
  6 33  1  0  0  0  0
  7  8  1  0  0  0  0
  7 34  1  0  0  0  0
  7 35  1  0  0  0  0
  8  9  1  0  0  0  0
  8 13  2  0  0  0  0
  9 10  2  0  0  0  0
  9 36  1  0  0  0  0
 10 11  1  0  0  0  0
 10 37  1  0  0  0  0
 11 12  2  0  0  0  0
 12 13  1  0  0  0  0
 12 38  1  0  0  0  0
 13 39  1  0  0  0  0
 14 15  1  0  0  0  0
 15 16  2  0  0  0  0
 15 17  1  0  0  0  0
 17 18  1  0  0  0  0
 17 40  1  0  0  0  0
 18 19  1  0  0  0  0
 18 28  2  0  0  0  0
 19 20  2  0  0  0  0
 19 41  1  0  0  0  0
 20 21  1  0  0  0  0
 20 42  1  0  0  0  0
 21 22  1  0  0  0  0
 21 23  2  0  0  0  0
 23 24  1  0  0  0  0
 23 28  1  0  0  0  0
 24 25  1  0  0  0  0
 24 26  1  0  0  0  0
 24 27  1  0  0  0  0
 28 43  1  0  0  0  0
M  END
$$$$
