CHEMBL384942
 OpenBabel04072215373D

 72 76  0  0  0  0  0  0  0  0999 V2000
   -1.8266   -2.1051   -1.2679 C   0  0  0  0  0  0  0  0  0  0  0  0
   -1.0049   -1.0152   -0.6188 C   0  0  0  0  0  0  0  0  0  0  0  0
   -1.5782    0.2636   -0.6090 C   0  0  0  0  0  0  0  0  0  0  0  0
   -0.9430    1.3431    0.0107 C   0  0  0  0  0  0  0  0  0  0  0  0
    0.2982    1.1529    0.6093 C   0  0  0  0  0  0  0  0  0  0  0  0
    0.9430    2.3070    1.2906 C   0  0  0  0  0  0  0  0  0  0  0  0
    0.2098    3.1548    1.7873 O   0  0  0  0  0  0  0  0  0  0  0  0
    2.3308    2.3310    1.2451 N   0  0  0  0  0  0  0  0  0  0  0  0
    3.1702    3.3314    1.7991 C   0  0  0  0  0  0  0  0  0  0  0  0
    2.6856    4.2171    2.7709 C   0  0  0  0  0  0  0  0  0  0  0  0
    3.4852    5.2388    3.2742 C   0  0  0  0  0  0  0  0  0  0  0  0
    4.7855    5.3904    2.8153 C   0  0  0  0  0  0  0  0  0  0  0  0
    5.3206    4.5076    1.8589 C   0  0  0  0  0  0  0  0  0  0  0  0
    6.7371    4.7540    1.3807 C   0  0  0  0  0  0  0  0  0  0  0  0
    7.3225    5.8506    1.9427 F   0  0  0  0  0  0  0  0  0  0  0  0
    7.5747    3.7147    1.6523 F   0  0  0  0  0  0  0  0  0  0  0  0
    6.8075    4.9569    0.0349 F   0  0  0  0  0  0  0  0  0  0  0  0
    4.5142    3.4472    1.3587 C   0  0  0  0  0  0  0  0  0  0  0  0
    5.0695    2.4733    0.3445 C   0  0  0  0  0  0  0  0  0  0  0  0
    0.8873   -0.1157    0.5947 C   0  0  0  0  0  0  0  0  0  0  0  0
    0.2687   -1.2294   -0.0214 C   0  0  0  0  0  0  0  0  0  0  0  0
    0.9794   -2.5391    0.0130 C   0  0  0  0  0  0  0  0  0  0  0  0
    1.7800   -2.9261    1.1054 C   0  0  0  0  0  0  0  0  0  0  0  0
    2.4508   -4.1588    1.1288 C   0  0  0  0  0  0  0  0  0  0  0  0
    2.3215   -5.0764    0.1000 C   0  0  0  0  0  0  0  0  0  0  0  0
    2.9202   -6.2693    0.1715 N   0  0  0  0  0  0  0  0  0  0  0  0
    2.8215   -7.0896   -0.8820 C   0  0  0  0  0  0  0  0  0  0  0  0
    3.5316   -8.2764   -0.7982 N   0  0  0  0  0  0  0  0  0  0  0  0
    3.7493   -8.9683   -2.0565 C   0  0  0  0  0  0  0  0  0  0  0  0
    4.2974  -10.3896   -1.7960 C   0  0  0  0  0  0  0  0  0  0  0  0
    3.3632  -11.2773   -1.0621 N   0  0  0  0  0  0  0  0  0  0  0  0
    2.1344  -11.5194   -1.8357 C   0  0  0  0  0  0  0  0  0  0  0  0
    1.1520  -12.3916   -1.0578 C   0  0  0  0  0  0  0  0  0  0  0  0
    1.7858  -13.7140   -0.6533 C   0  0  0  0  0  0  0  0  0  0  0  0
    3.1095  -13.4725    0.0630 C   0  0  0  0  0  0  0  0  0  0  0  0
    4.0281  -12.5565   -0.7495 C   0  0  0  0  0  0  0  0  0  0  0  0
    2.1030   -6.8123   -1.9795 N   0  0  0  0  0  0  0  0  0  0  0  0
    1.4678   -5.6322   -2.0068 C   0  0  0  0  0  0  0  0  0  0  0  0
    1.5567   -4.6975   -0.9950 C   0  0  0  0  0  0  0  0  0  0  0  0
    0.9320   -3.4402   -1.0565 C   0  0  0  0  0  0  0  0  0  0  0  0
   -2.8394   -1.7646   -1.5053 H   0  0  0  0  0  0  0  0  0  0  0  0
   -1.9243   -2.9663   -0.6032 H   0  0  0  0  0  0  0  0  0  0  0  0
   -1.3907   -2.4051   -2.2281 H   0  0  0  0  0  0  0  0  0  0  0  0
   -2.5560    0.4399   -1.0634 H   0  0  0  0  0  0  0  0  0  0  0  0
   -1.4240    2.3171    0.0277 H   0  0  0  0  0  0  0  0  0  0  0  0
    2.7703    1.6676    0.6242 H   0  0  0  0  0  0  0  0  0  0  0  0
    1.6815    4.1309    3.1672 H   0  0  0  0  0  0  0  0  0  0  0  0
    3.0802    5.9214    4.0180 H   0  0  0  0  0  0  0  0  0  0  0  0
    5.3841    6.2120    3.2069 H   0  0  0  0  0  0  0  0  0  0  0  0
    6.1018    2.6835    0.0564 H   0  0  0  0  0  0  0  0  0  0  0  0
    4.4744    2.5049   -0.5735 H   0  0  0  0  0  0  0  0  0  0  0  0
    5.0584    1.4574    0.7545 H   0  0  0  0  0  0  0  0  0  0  0  0
    1.8415   -0.2452    1.1006 H   0  0  0  0  0  0  0  0  0  0  0  0
    1.9016   -2.2782    1.9714 H   0  0  0  0  0  0  0  0  0  0  0  0
    3.0865   -4.4074    1.9769 H   0  0  0  0  0  0  0  0  0  0  0  0
    3.0932   -8.8569   -0.0874 H   0  0  0  0  0  0  0  0  0  0  0  0
    4.4940   -8.4101   -2.6373 H   0  0  0  0  0  0  0  0  0  0  0  0
    2.8465   -9.0266   -2.6727 H   0  0  0  0  0  0  0  0  0  0  0  0
    5.2172  -10.2824   -1.2052 H   0  0  0  0  0  0  0  0  0  0  0  0
    4.5800  -10.8392   -2.7555 H   0  0  0  0  0  0  0  0  0  0  0  0
    2.3692  -11.9877   -2.8007 H   0  0  0  0  0  0  0  0  0  0  0  0
    1.6153  -10.5797   -2.0455 H   0  0  0  0  0  0  0  0  0  0  0  0
    0.2620  -12.5761   -1.6697 H   0  0  0  0  0  0  0  0  0  0  0  0
    0.8186  -11.8529   -0.1617 H   0  0  0  0  0  0  0  0  0  0  0  0
    1.9581  -14.3252   -1.5476 H   0  0  0  0  0  0  0  0  0  0  0  0
    1.1018  -14.2733   -0.0060 H   0  0  0  0  0  0  0  0  0  0  0  0
    3.6075  -14.4313    0.2467 H   0  0  0  0  0  0  0  0  0  0  0  0
    2.9165  -13.0191    1.0435 H   0  0  0  0  0  0  0  0  0  0  0  0
    4.3377  -13.0702   -1.6698 H   0  0  0  0  0  0  0  0  0  0  0  0
    4.9349  -12.3747   -0.1598 H   0  0  0  0  0  0  0  0  0  0  0  0
    0.8625   -5.4574   -2.8924 H   0  0  0  0  0  0  0  0  0  0  0  0
    0.4209   -3.1806   -1.9757 H   0  0  0  0  0  0  0  0  0  0  0  0
  1  2  1  0  0  0  0
  1 41  1  0  0  0  0
  1 42  1  0  0  0  0
  1 43  1  0  0  0  0
  2  3  1  0  0  0  0
  2 21  2  0  0  0  0
  3  4  2  0  0  0  0
  3 44  1  0  0  0  0
  4  5  1  0  0  0  0
  4 45  1  0  0  0  0
  5  6  1  0  0  0  0
  5 20  2  0  0  0  0
  6  7  2  0  0  0  0
  6  8  1  0  0  0  0
  8  9  1  0  0  0  0
  8 46  1  0  0  0  0
  9 10  1  0  0  0  0
  9 18  2  0  0  0  0
 10 11  2  0  0  0  0
 10 47  1  0  0  0  0
 11 12  1  0  0  0  0
 11 48  1  0  0  0  0
 12 13  2  0  0  0  0
 12 49  1  0  0  0  0
 13 14  1  0  0  0  0
 13 18  1  0  0  0  0
 14 15  1  0  0  0  0
 14 16  1  0  0  0  0
 14 17  1  0  0  0  0
 18 19  1  0  0  0  0
 19 50  1  0  0  0  0
 19 51  1  0  0  0  0
 19 52  1  0  0  0  0
 20 21  1  0  0  0  0
 20 53  1  0  0  0  0
 21 22  1  0  0  0  0
 22 23  1  0  0  0  0
 22 40  2  0  0  0  0
 23 24  2  0  0  0  0
 23 54  1  0  0  0  0
 24 25  1  0  0  0  0
 24 55  1  0  0  0  0
 25 26  1  0  0  0  0
 25 39  2  0  0  0  0
 26 27  2  0  0  0  0
 27 28  1  0  0  0  0
 27 37  1  0  0  0  0
 28 29  1  0  0  0  0
 28 56  1  0  0  0  0
 29 30  1  0  0  0  0
 29 57  1  0  0  0  0
 29 58  1  0  0  0  0
 30 31  1  0  0  0  0
 30 59  1  0  0  0  0
 30 60  1  0  0  0  0
 31 32  1  0  0  0  0
 31 36  1  0  0  0  0
 32 33  1  0  0  0  0
 32 61  1  0  0  0  0
 32 62  1  0  0  0  0
 33 34  1  0  0  0  0
 33 63  1  0  0  0  0
 33 64  1  0  0  0  0
 34 35  1  0  0  0  0
 34 65  1  0  0  0  0
 34 66  1  0  0  0  0
 35 36  1  0  0  0  0
 35 67  1  0  0  0  0
 35 68  1  0  0  0  0
 36 69  1  0  0  0  0
 36 70  1  0  0  0  0
 37 38  2  0  0  0  0
 38 39  1  0  0  0  0
 38 71  1  0  0  0  0
 39 40  1  0  0  0  0
 40 72  1  0  0  0  0
M  END
$$$$
