CHEMBL194883
 OpenBabel04072215363D

 43 45  0  0  0  0  0  0  0  0999 V2000
    1.0664   -1.8781    1.4102 C   0  0  0  0  0  0  0  0  0  0  0  0
    2.5621   -1.6395    1.3184 C   0  0  0  0  0  0  0  0  0  0  0  0
    3.1253   -1.6640   -0.3718 S   0  0  0  0  0  0  0  0  0  0  0  0
    2.8199   -2.9581   -0.9427 O   0  0  0  0  0  0  0  0  0  0  0  0
    2.6694   -0.4477   -1.0207 O   0  0  0  0  0  0  0  0  0  0  0  0
    4.8936   -1.5477   -0.2357 C   0  0  0  0  0  0  0  0  0  0  0  0
    5.5340   -0.3107   -0.2969 C   0  0  0  0  0  0  0  0  0  0  0  0
    6.9341   -0.2575   -0.3028 C   0  0  0  0  0  0  0  0  0  0  0  0
    7.6930   -1.4354   -0.2497 C   0  0  0  0  0  0  0  0  0  0  0  0
    9.0657   -1.4703   -0.3288 O   0  0  0  0  0  0  0  0  0  0  0  0
    9.7609   -0.2844    0.0433 C   0  0  0  0  0  0  0  0  0  0  0  0
    7.0399   -2.6851   -0.1460 C   0  0  0  0  0  0  0  0  0  0  0  0
    7.7757   -3.8931   -0.0779 N   0  0  0  0  0  0  0  0  0  0  0  0
    7.3913   -4.9356    0.6836 C   0  0  0  0  0  0  0  0  0  0  0  0
    6.6369   -4.9433    1.7638 N   0  0  0  0  0  0  0  0  0  0  0  0
    6.5884   -6.2593    2.1275 C   0  0  0  0  0  0  0  0  0  0  0  0
    7.3036   -7.0303    1.2382 C   0  0  0  0  0  0  0  0  0  0  0  0
    7.5864   -8.4543    1.1146 C   0  0  0  0  0  0  0  0  0  0  0  0
    7.0509   -9.3582    2.0527 C   0  0  0  0  0  0  0  0  0  0  0  0
    7.3100  -10.7275    1.9588 C   0  0  0  0  0  0  0  0  0  0  0  0
    8.1069  -11.2029    0.9266 C   0  0  0  0  0  0  0  0  0  0  0  0
    8.3558  -12.5160    0.8365 F   0  0  0  0  0  0  0  0  0  0  0  0
    8.6476  -10.3350   -0.0133 C   0  0  0  0  0  0  0  0  0  0  0  0
    8.3863   -8.9627    0.0798 C   0  0  0  0  0  0  0  0  0  0  0  0
    7.8321   -6.1742    0.3004 O   0  0  0  0  0  0  0  0  0  0  0  0
    5.6372   -2.7231   -0.1680 C   0  0  0  0  0  0  0  0  0  0  0  0
    0.7406   -1.8506    2.4543 H   0  0  0  0  0  0  0  0  0  0  0  0
    0.7955   -2.8552    0.9965 H   0  0  0  0  0  0  0  0  0  0  0  0
    0.5071   -1.1167    0.8568 H   0  0  0  0  0  0  0  0  0  0  0  0
    3.1012   -2.4192    1.8624 H   0  0  0  0  0  0  0  0  0  0  0  0
    2.8180   -0.6613    1.7358 H   0  0  0  0  0  0  0  0  0  0  0  0
    4.9597    0.6100   -0.3733 H   0  0  0  0  0  0  0  0  0  0  0  0
    7.4025    0.7186   -0.3817 H   0  0  0  0  0  0  0  0  0  0  0  0
   10.8330   -0.5064    0.0269 H   0  0  0  0  0  0  0  0  0  0  0  0
    9.4991    0.0225    1.0617 H   0  0  0  0  0  0  0  0  0  0  0  0
    9.5889    0.5288   -0.6696 H   0  0  0  0  0  0  0  0  0  0  0  0
    8.2763   -4.0935   -0.9341 H   0  0  0  0  0  0  0  0  0  0  0  0
    6.0455   -6.5806    3.0040 H   0  0  0  0  0  0  0  0  0  0  0  0
    6.4237   -9.0092    2.8702 H   0  0  0  0  0  0  0  0  0  0  0  0
    6.8959  -11.4217    2.6838 H   0  0  0  0  0  0  0  0  0  0  0  0
    9.2663  -10.7285   -0.8127 H   0  0  0  0  0  0  0  0  0  0  0  0
    8.8169   -8.2961   -0.6646 H   0  0  0  0  0  0  0  0  0  0  0  0
    5.1264   -3.6834   -0.1563 H   0  0  0  0  0  0  0  0  0  0  0  0
  1  2  1  0  0  0  0
  1 27  1  0  0  0  0
  1 28  1  0  0  0  0
  1 29  1  0  0  0  0
  2  3  1  0  0  0  0
  2 30  1  0  0  0  0
  2 31  1  0  0  0  0
  3  4  2  0  0  0  0
  3  5  2  0  0  0  0
  3  6  1  0  0  0  0
  6  7  1  0  0  0  0
  6 26  2  0  0  0  0
  7  8  2  0  0  0  0
  7 32  1  0  0  0  0
  8  9  1  0  0  0  0
  8 33  1  0  0  0  0
  9 10  1  0  0  0  0
  9 12  2  0  0  0  0
 10 11  1  0  0  0  0
 11 34  1  0  0  0  0
 11 35  1  0  0  0  0
 11 36  1  0  0  0  0
 12 13  1  0  0  0  0
 12 26  1  0  0  0  0
 13 14  1  0  0  0  0
 13 37  1  0  0  0  0
 14 15  2  0  0  0  0
 14 25  1  0  0  0  0
 15 16  1  0  0  0  0
 16 17  2  0  0  0  0
 16 38  1  0  0  0  0
 17 18  1  0  0  0  0
 17 25  1  0  0  0  0
 18 19  1  0  0  0  0
 18 24  2  0  0  0  0
 19 20  2  0  0  0  0
 19 39  1  0  0  0  0
 20 21  1  0  0  0  0
 20 40  1  0  0  0  0
 21 22  1  0  0  0  0
 21 23  2  0  0  0  0
 23 24  1  0  0  0  0
 23 41  1  0  0  0  0
 24 42  1  0  0  0  0
 26 43  1  0  0  0  0
M  END
$$$$
