CHEMBL1990884
 OpenBabel04072215363D

 48 51  0  0  0  0  0  0  0  0999 V2000
    2.1784    1.4347    2.8705 C   0  0  0  0  0  0  0  0  0  0  0  0
    3.0261    0.3643    2.2459 C   0  0  0  0  0  0  0  0  0  0  0  0
    2.4697   -0.8657    1.8452 C   0  0  0  0  0  0  0  0  0  0  0  0
    3.2371   -1.8876    1.2439 C   0  0  0  0  0  0  0  0  0  0  0  0
    2.6376   -3.1938    0.8371 C   0  0  0  0  0  0  0  0  0  0  0  0
    4.5869   -1.5783    1.0769 C   0  0  0  0  0  0  0  0  0  0  0  0
    5.5706   -2.3526    0.5157 O   0  0  0  0  0  0  0  0  0  0  0  0
    6.6988   -1.5875    0.6282 C   0  0  0  0  0  0  0  0  0  0  0  0
    7.8381   -2.1186    0.1419 N   0  0  0  0  0  0  0  0  0  0  0  0
    9.0974   -1.4844    0.1708 C   0  0  0  0  0  0  0  0  0  0  0  0
    9.4248   -0.4877    1.0926 C   0  0  0  0  0  0  0  0  0  0  0  0
   10.6313    0.2190    1.0142 C   0  0  0  0  0  0  0  0  0  0  0  0
   11.6103   -0.0889    0.0596 C   0  0  0  0  0  0  0  0  0  0  0  0
   12.8947    0.6726   -0.0347 C   0  0  0  0  0  0  0  0  0  0  0  0
   13.4168    0.9365   -1.3243 C   0  0  0  0  0  0  0  0  0  0  0  0
   14.5963    1.6517   -1.5228 C   0  0  0  0  0  0  0  0  0  0  0  0
   15.2736    2.1702   -0.4313 C   0  0  0  0  0  0  0  0  0  0  0  0
   14.7899    1.9556    0.8655 C   0  0  0  0  0  0  0  0  0  0  0  0
   15.5907    2.5865    1.9546 C   0  0  0  0  0  0  0  0  0  0  0  0
   14.9107    3.0587    3.0425 N   0  0  0  0  0  0  0  0  0  0  0  0
   16.8032    2.7263    1.8650 O   0  0  0  0  0  0  0  0  0  0  0  0
   13.6419    1.1454    1.0904 C   0  0  0  0  0  0  0  0  0  0  0  0
   13.1630    0.9546    2.4161 N   0  0  0  0  0  0  0  0  0  0  0  0
   11.2944   -1.1251   -0.8425 C   0  0  0  0  0  0  0  0  0  0  0  0
   10.0612   -1.7869   -0.7942 C   0  0  0  0  0  0  0  0  0  0  0  0
    9.7944   -2.7206   -1.7226 F   0  0  0  0  0  0  0  0  0  0  0  0
    6.5030   -0.4100    1.1852 N   0  0  0  0  0  0  0  0  0  0  0  0
    5.1712   -0.3890    1.4689 C   0  0  0  0  0  0  0  0  0  0  0  0
    4.3951    0.6090    2.0611 C   0  0  0  0  0  0  0  0  0  0  0  0
    1.1340    1.1198    2.9613 H   0  0  0  0  0  0  0  0  0  0  0  0
    2.2062    2.3402    2.2546 H   0  0  0  0  0  0  0  0  0  0  0  0
    2.5488    1.6722    3.8734 H   0  0  0  0  0  0  0  0  0  0  0  0
    1.4045   -1.0368    2.0044 H   0  0  0  0  0  0  0  0  0  0  0  0
    1.5628   -3.2229    1.0417 H   0  0  0  0  0  0  0  0  0  0  0  0
    3.1097   -4.0109    1.3921 H   0  0  0  0  0  0  0  0  0  0  0  0
    2.7839   -3.3600   -0.2344 H   0  0  0  0  0  0  0  0  0  0  0  0
    7.7692   -2.9206   -0.4691 H   0  0  0  0  0  0  0  0  0  0  0  0
    8.7376   -0.2202    1.8919 H   0  0  0  0  0  0  0  0  0  0  0  0
   10.7729    1.0383    1.7164 H   0  0  0  0  0  0  0  0  0  0  0  0
   12.8907    0.5921   -2.2136 H   0  0  0  0  0  0  0  0  0  0  0  0
   14.9717    1.8193   -2.5290 H   0  0  0  0  0  0  0  0  0  0  0  0
   16.1780    2.7551   -0.5887 H   0  0  0  0  0  0  0  0  0  0  0  0
   13.8997    3.1449    3.0199 H   0  0  0  0  0  0  0  0  0  0  0  0
   15.4322    3.6239    3.7001 H   0  0  0  0  0  0  0  0  0  0  0  0
   13.9133    1.0035    3.1062 H   0  0  0  0  0  0  0  0  0  0  0  0
   12.6459    0.0838    2.5172 H   0  0  0  0  0  0  0  0  0  0  0  0
   11.9903   -1.4270   -1.6195 H   0  0  0  0  0  0  0  0  0  0  0  0
    4.8553    1.5446    2.3612 H   0  0  0  0  0  0  0  0  0  0  0  0
  1  2  1  0  0  0  0
  1 30  1  0  0  0  0
  1 31  1  0  0  0  0
  1 32  1  0  0  0  0
  2  3  1  0  0  0  0
  2 29  2  0  0  0  0
  3  4  2  0  0  0  0
  3 33  1  0  0  0  0
  4  5  1  0  0  0  0
  4  6  1  0  0  0  0
  5 34  1  0  0  0  0
  5 35  1  0  0  0  0
  5 36  1  0  0  0  0
  6  7  1  0  0  0  0
  6 28  2  0  0  0  0
  7  8  1  0  0  0  0
  8  9  1  0  0  0  0
  8 27  2  0  0  0  0
  9 10  1  0  0  0  0
  9 37  1  0  0  0  0
 10 11  1  0  0  0  0
 10 25  2  0  0  0  0
 11 12  2  0  0  0  0
 11 38  1  0  0  0  0
 12 13  1  0  0  0  0
 12 39  1  0  0  0  0
 13 14  1  0  0  0  0
 13 24  2  0  0  0  0
 14 15  1  0  0  0  0
 14 22  2  0  0  0  0
 15 16  2  0  0  0  0
 15 40  1  0  0  0  0
 16 17  1  0  0  0  0
 16 41  1  0  0  0  0
 17 18  2  0  0  0  0
 17 42  1  0  0  0  0
 18 19  1  0  0  0  0
 18 22  1  0  0  0  0
 19 20  1  0  0  0  0
 19 21  2  0  0  0  0
 20 43  1  0  0  0  0
 20 44  1  0  0  0  0
 22 23  1  0  0  0  0
 23 45  1  0  0  0  0
 23 46  1  0  0  0  0
 24 25  1  0  0  0  0
 24 47  1  0  0  0  0
 25 26  1  0  0  0  0
 27 28  1  0  0  0  0
 28 29  1  0  0  0  0
 29 48  1  0  0  0  0
M  END
$$$$
