CHEMBL3690427
 OpenBabel04072215373D

 52 55  0  0  0  0  0  0  0  0999 V2000
    1.0712   -0.0649   -0.0555 C   0  0  0  0  0  0  0  0  0  0  0  0
    2.5555   -0.1003   -0.0648 C   0  0  0  0  0  0  0  0  0  0  0  0
    3.3486    0.9520   -0.0718 N   0  0  0  0  0  0  0  0  0  0  0  0
    4.6264    0.4533   -0.0834 C   0  0  0  0  0  0  0  0  0  0  0  0
    4.6195   -0.9198   -0.0836 C   0  0  0  0  0  0  0  0  0  0  0  0
    5.7322   -1.8038   -0.0853 C   0  0  0  0  0  0  0  0  0  0  0  0
    6.6731   -2.5511   -0.0815 C   0  0  0  0  0  0  0  0  0  0  0  0
    7.7943   -3.4301   -0.0625 C   0  0  0  0  0  0  0  0  0  0  0  0
    9.1324   -2.8558   -0.0203 C   0  0  0  0  0  0  0  0  0  0  0  0
   10.2015   -3.6695    0.0294 C   0  0  0  0  0  0  0  0  0  0  0  0
   10.0262   -5.0588   -0.0018 N   0  0  0  0  0  0  0  0  0  0  0  0
   10.9466   -6.1096   -0.0169 C   0  0  0  0  0  0  0  0  0  0  0  0
   12.4160   -6.0198   -0.0630 C   0  0  0  0  0  0  0  0  0  0  0  0
   13.0571   -5.0045   -0.7822 C   0  0  0  0  0  0  0  0  0  0  0  0
   14.4455   -4.9271   -0.8297 C   0  0  0  0  0  0  0  0  0  0  0  0
   15.2192   -5.8947   -0.1971 C   0  0  0  0  0  0  0  0  0  0  0  0
   14.6219   -6.9440    0.5028 C   0  0  0  0  0  0  0  0  0  0  0  0
   15.3828   -7.9734    1.1143 N   0  0  0  0  0  0  0  0  0  0  0  0
   16.7352   -7.9164    1.3706 C   0  0  0  0  0  0  0  0  0  0  0  0
   17.4608   -6.9342    1.2440 O   0  0  0  0  0  0  0  0  0  0  0  0
   17.2636   -9.1224    1.7607 N   0  0  0  0  0  0  0  0  0  0  0  0
   18.6943   -9.1774    2.0988 C   0  0  0  0  0  0  0  0  0  0  0  0
   19.0825   -8.6440    3.4869 C   0  0  0  0  0  0  0  0  0  0  0  0
   17.9998   -8.3483    4.2420 F   0  0  0  0  0  0  0  0  0  0  0  0
   19.7820   -9.5912    4.1627 F   0  0  0  0  0  0  0  0  0  0  0  0
   19.8630   -7.5458    3.4183 F   0  0  0  0  0  0  0  0  0  0  0  0
   13.2180   -7.0004    0.5636 C   0  0  0  0  0  0  0  0  0  0  0  0
   10.1478   -7.2448   -0.0148 C   0  0  0  0  0  0  0  0  0  0  0  0
    8.8132   -6.9495   -0.0184 N   0  0  0  0  0  0  0  0  0  0  0  0
    8.7542   -5.6370   -0.0281 C   0  0  0  0  0  0  0  0  0  0  0  0
    7.6235   -4.7675   -0.0554 C   0  0  0  0  0  0  0  0  0  0  0  0
    3.2916   -1.2655   -0.0687 N   0  0  0  0  0  0  0  0  0  0  0  0
    2.7430   -2.6003   -0.0559 C   0  0  0  0  0  0  0  0  0  0  0  0
    0.7126    0.9692   -0.0547 H   0  0  0  0  0  0  0  0  0  0  0  0
    0.6770   -0.5599    0.8372 H   0  0  0  0  0  0  0  0  0  0  0  0
    0.6667   -0.5618   -0.9425 H   0  0  0  0  0  0  0  0  0  0  0  0
    5.4824    1.1160   -0.0891 H   0  0  0  0  0  0  0  0  0  0  0  0
    9.2445   -1.7758   -0.0181 H   0  0  0  0  0  0  0  0  0  0  0  0
   11.2048   -3.2749    0.0951 H   0  0  0  0  0  0  0  0  0  0  0  0
   12.4955   -4.2674   -1.3475 H   0  0  0  0  0  0  0  0  0  0  0  0
   14.9321   -4.1259   -1.3793 H   0  0  0  0  0  0  0  0  0  0  0  0
   16.2967   -5.8188   -0.3058 H   0  0  0  0  0  0  0  0  0  0  0  0
   14.8783   -8.7721    1.4626 H   0  0  0  0  0  0  0  0  0  0  0  0
   16.6513   -9.7908    2.2034 H   0  0  0  0  0  0  0  0  0  0  0  0
   19.2514   -8.6162    1.3376 H   0  0  0  0  0  0  0  0  0  0  0  0
   18.9956  -10.2247    2.0055 H   0  0  0  0  0  0  0  0  0  0  0  0
   12.7401   -7.8055    1.1162 H   0  0  0  0  0  0  0  0  0  0  0  0
   10.4785   -8.2756   -0.0359 H   0  0  0  0  0  0  0  0  0  0  0  0
    6.6392   -5.2218   -0.0690 H   0  0  0  0  0  0  0  0  0  0  0  0
    3.5431   -3.3431   -0.0566 H   0  0  0  0  0  0  0  0  0  0  0  0
    2.1264   -2.7286   -0.9493 H   0  0  0  0  0  0  0  0  0  0  0  0
    2.1396   -2.7167    0.8479 H   0  0  0  0  0  0  0  0  0  0  0  0
  1  2  1  0  0  0  0
  1 34  1  0  0  0  0
  1 35  1  0  0  0  0
  1 36  1  0  0  0  0
  2  3  2  0  0  0  0
  2 32  1  0  0  0  0
  3  4  1  0  0  0  0
  4  5  2  0  0  0  0
  4 37  1  0  0  0  0
  5  6  1  0  0  0  0
  5 32  1  0  0  0  0
  6  7  3  0  0  0  0
  7  8  1  0  0  0  0
  8  9  1  0  0  0  0
  8 31  2  0  0  0  0
  9 10  2  0  0  0  0
  9 38  1  0  0  0  0
 10 11  1  0  0  0  0
 10 39  1  0  0  0  0
 11 12  1  0  0  0  0
 11 30  1  0  0  0  0
 12 13  1  0  0  0  0
 12 28  2  0  0  0  0
 13 14  1  0  0  0  0
 13 27  2  0  0  0  0
 14 15  2  0  0  0  0
 14 40  1  0  0  0  0
 15 16  1  0  0  0  0
 15 41  1  0  0  0  0
 16 17  2  0  0  0  0
 16 42  1  0  0  0  0
 17 18  1  0  0  0  0
 17 27  1  0  0  0  0
 18 19  1  0  0  0  0
 18 43  1  0  0  0  0
 19 20  2  0  0  0  0
 19 21  1  0  0  0  0
 21 22  1  0  0  0  0
 21 44  1  0  0  0  0
 22 23  1  0  0  0  0
 22 45  1  0  0  0  0
 22 46  1  0  0  0  0
 23 24  1  0  0  0  0
 23 25  1  0  0  0  0
 23 26  1  0  0  0  0
 27 47  1  0  0  0  0
 28 29  1  0  0  0  0
 28 48  1  0  0  0  0
 29 30  2  0  0  0  0
 30 31  1  0  0  0  0
 31 49  1  0  0  0  0
 32 33  1  0  0  0  0
 33 50  1  0  0  0  0
 33 51  1  0  0  0  0
 33 52  1  0  0  0  0
M  END
$$$$
