CHEMBL3401990
 OpenBabel04072215363D

 51 55  0  0  1  0  0  0  0  0999 V2000
    1.0822    0.0049   -0.0741 C   0  0  0  0  0  0  0  0  0  0  0  0
    2.8484   -0.0115    0.0774 S   0  0  0  0  0  0  0  0  0  0  0  0
    3.1657    0.2538    1.4669 O   0  0  0  0  0  0  0  0  0  0  0  0
    3.2548   -1.2638   -0.5274 O   0  0  0  0  0  0  0  0  0  0  0  0
    3.4275    1.3596   -0.9637 C   0  0  1  0  0  0  0  0  0  0  0  0
    2.8440    2.7450   -0.5548 C   0  0  3  0  0  0  0  0  0  0  0  0
    3.3204    3.1873    0.8422 C   0  0  0  0  0  0  0  0  0  0  0  0
    4.8479    3.0916    0.9280 C   0  0  0  0  0  0  0  0  0  0  0  0
    5.4370    2.8199   -0.4680 C   0  0  3  0  0  0  0  0  0  0  0  0
    4.9052    3.9151   -1.4189 C   0  0  0  0  0  0  0  0  0  0  0  0
    3.3817    3.7959   -1.5525 C   0  0  0  0  0  0  0  0  0  0  0  0
    4.9788    1.4090   -0.9504 C   0  0  2  0  0  0  0  0  0  0  0  0
    5.5389    1.2015   -2.3101 N   0  0  0  0  0  0  0  0  0  0  0  0
    6.3546    0.0545   -2.4701 C   0  0  0  0  0  0  0  0  0  0  0  0
    6.1383   -1.0355   -1.7168 N   0  0  0  0  0  0  0  0  0  0  0  0
    6.9313   -2.0978   -1.9443 C   0  0  0  0  0  0  0  0  0  0  0  0
    6.8508   -3.2369   -1.0489 C   0  0  0  0  0  0  0  0  0  0  0  0
    5.7406   -3.5947   -0.3035 C   0  0  0  0  0  0  0  0  0  0  0  0
    6.0355   -4.7436    0.3848 N   0  0  0  0  0  0  0  0  0  0  0  0
    7.3202   -5.1262    0.1159 C   0  0  0  0  0  0  0  0  0  0  0  0
    7.9171   -6.2196    0.6313 N   0  0  0  0  0  0  0  0  0  0  0  0
    9.1921   -6.3698    0.1880 C   0  0  0  0  0  0  0  0  0  0  0  0
    9.8504   -5.5101   -0.6854 C   0  0  0  0  0  0  0  0  0  0  0  0
   11.1142   -5.7660   -1.0554 F   0  0  0  0  0  0  0  0  0  0  0  0
    9.1984   -4.4009   -1.1791 C   0  0  0  0  0  0  0  0  0  0  0  0
    7.8662   -4.2022   -0.7692 C   0  0  0  0  0  0  0  0  0  0  0  0
    7.8989   -2.1672   -2.8835 N   0  0  0  0  0  0  0  0  0  0  0  0
    8.0794   -1.0689   -3.6282 C   0  0  0  0  0  0  0  0  0  0  0  0
    7.3348    0.0683   -3.4585 C   0  0  0  0  0  0  0  0  0  0  0  0
    7.6085    1.1758   -4.1641 F   0  0  0  0  0  0  0  0  0  0  0  0
    0.6967   -0.8314    0.5164 H   0  0  0  0  0  0  0  0  0  0  0  0
    0.8256   -0.1417   -1.1242 H   0  0  0  0  0  0  0  0  0  0  0  0
    0.6803    0.9408    0.3113 H   0  0  0  0  0  0  0  0  0  0  0  0
    3.0575    1.1028   -1.9657 H   0  0  0  0  0  0  0  0  0  0  0  0
    1.7502    2.7425   -0.5915 H   0  0  0  0  0  0  0  0  0  0  0  0
    2.8492    2.6074    1.6398 H   0  0  0  0  0  0  0  0  0  0  0  0
    3.0099    4.2240    1.0285 H   0  0  0  0  0  0  0  0  0  0  0  0
    5.1417    2.3010    1.6273 H   0  0  0  0  0  0  0  0  0  0  0  0
    5.2501    4.0299    1.3283 H   0  0  0  0  0  0  0  0  0  0  0  0
    6.5319    2.8598   -0.4243 H   0  0  0  0  0  0  0  0  0  0  0  0
    5.3678    3.8581   -2.4104 H   0  0  0  0  0  0  0  0  0  0  0  0
    5.1743    4.9029   -1.0265 H   0  0  0  0  0  0  0  0  0  0  0  0
    3.1141    3.5148   -2.5779 H   0  0  0  0  0  0  0  0  0  0  0  0
    2.9247    4.7757   -1.3670 H   0  0  0  0  0  0  0  0  0  0  0  0
    5.3860    0.6811   -0.2401 H   0  0  0  0  0  0  0  0  0  0  0  0
    6.1034    1.9898   -2.6265 H   0  0  0  0  0  0  0  0  0  0  0  0
    4.7645   -3.1398   -0.2185 H   0  0  0  0  0  0  0  0  0  0  0  0
    5.4136   -5.2484    0.9969 H   0  0  0  0  0  0  0  0  0  0  0  0
    9.7071   -7.2477    0.5636 H   0  0  0  0  0  0  0  0  0  0  0  0
    9.6970   -3.7230   -1.8598 H   0  0  0  0  0  0  0  0  0  0  0  0
    8.8754   -1.1238   -4.3613 H   0  0  0  0  0  0  0  0  0  0  0  0
  1  2  1  0  0  0  0
  1 31  1  0  0  0  0
  1 32  1  0  0  0  0
  1 33  1  0  0  0  0
  2  3  2  0  0  0  0
  2  4  2  0  0  0  0
  2  5  1  0  0  0  0
  5  6  1  0  0  0  0
  5 12  1  0  0  0  0
  5 34  1  6  0  0  0
  6  7  1  0  0  0  0
  6 11  1  0  0  0  0
  6 35  1  0  0  0  0
  7  8  1  0  0  0  0
  7 36  1  0  0  0  0
  7 37  1  0  0  0  0
  8  9  1  0  0  0  0
  8 38  1  0  0  0  0
  8 39  1  0  0  0  0
  9 10  1  0  0  0  0
  9 12  1  0  0  0  0
  9 40  1  0  0  0  0
 10 11  1  0  0  0  0
 10 41  1  0  0  0  0
 10 42  1  0  0  0  0
 11 43  1  0  0  0  0
 11 44  1  0  0  0  0
 12 13  1  0  0  0  0
 12 45  1  1  0  0  0
 13 14  1  0  0  0  0
 13 46  1  0  0  0  0
 14 15  1  0  0  0  0
 14 29  2  0  0  0  0
 15 16  2  0  0  0  0
 16 17  1  0  0  0  0
 16 27  1  0  0  0  0
 17 18  2  0  0  0  0
 17 26  1  0  0  0  0
 18 19  1  0  0  0  0
 18 47  1  0  0  0  0
 19 20  1  0  0  0  0
 19 48  1  0  0  0  0
 20 21  1  0  0  0  0
 20 26  2  0  0  0  0
 21 22  2  0  0  0  0
 22 23  1  0  0  0  0
 22 49  1  0  0  0  0
 23 24  1  0  0  0  0
 23 25  2  0  0  0  0
 25 26  1  0  0  0  0
 25 50  1  0  0  0  0
 27 28  2  0  0  0  0
 28 29  1  0  0  0  0
 28 51  1  0  0  0  0
 29 30  1  0  0  0  0
M  END
$$$$
