CHEMBL3671488
 OpenBabel04072215373D

 53 55  0  0  0  0  0  0  0  0999 V2000
    3.2172   -0.6736   -4.0159 C   0  0  0  0  0  0  0  0  0  0  0  0
    3.2653    0.3389   -3.1372 C   0  0  0  0  0  0  0  0  0  0  0  0
    3.5449    0.0386   -1.7099 C   0  0  0  0  0  0  0  0  0  0  0  0
    3.1275   -0.9775   -1.1600 O   0  0  0  0  0  0  0  0  0  0  0  0
    4.3632    0.9152   -1.0301 N   0  0  0  0  0  0  0  0  0  0  0  0
    5.1360    1.8880   -1.6939 C   0  0  0  0  0  0  0  0  0  0  0  0
    6.1974    1.4472   -2.4801 C   0  0  0  0  0  0  0  0  0  0  0  0
    6.7889    2.3137   -3.4215 C   0  0  0  0  0  0  0  0  0  0  0  0
    7.8016    1.9326   -4.3167 C   0  0  0  0  0  0  0  0  0  0  0  0
    8.2199    0.5835   -4.3551 N   0  0  0  0  0  0  0  0  0  0  0  0
    9.5012    0.0804   -4.6632 C   0  0  0  0  0  0  0  0  0  0  0  0
   10.6641    0.8155   -4.4059 C   0  0  0  0  0  0  0  0  0  0  0  0
   11.9234    0.2140   -4.4911 C   0  0  0  0  0  0  0  0  0  0  0  0
   12.0285   -1.1302   -4.8447 C   0  0  0  0  0  0  0  0  0  0  0  0
   13.7206   -1.9716   -4.8246 Br  0  0  0  0  0  0  0  0  0  0  0  0
   10.8932   -1.8667   -5.1647 C   0  0  0  0  0  0  0  0  0  0  0  0
    9.6456   -1.2573   -5.0641 C   0  0  0  0  0  0  0  0  0  0  0  0
    8.5477   -1.9842   -5.3296 F   0  0  0  0  0  0  0  0  0  0  0  0
    8.3506    2.8003   -5.1830 N   0  0  0  0  0  0  0  0  0  0  0  0
    7.8527    4.0405   -5.1820 C   0  0  0  0  0  0  0  0  0  0  0  0
    6.8776    4.5034   -4.3903 N   0  0  0  0  0  0  0  0  0  0  0  0
    6.3581    3.6429   -3.5097 C   0  0  0  0  0  0  0  0  0  0  0  0
    5.3501    4.0831   -2.6582 C   0  0  0  0  0  0  0  0  0  0  0  0
    4.7405    3.2327   -1.7271 C   0  0  0  0  0  0  0  0  0  0  0  0
    3.7788    3.8267   -0.9445 O   0  0  0  0  0  0  0  0  0  0  0  0
    3.6274    3.2564    0.3567 C   0  0  0  0  0  0  0  0  0  0  0  0
    3.2070    4.3024    1.3859 C   0  0  0  0  0  0  0  0  0  0  0  0
    3.1572    3.6275    2.7559 C   0  0  0  0  0  0  0  0  0  0  0  0
    2.8043    4.5252    3.8298 N   0  0  0  0  0  0  0  0  0  0  0  0
    3.7638    5.2488    4.5347 C   0  0  0  0  0  0  0  0  0  0  0  0
    4.9552    5.2209    4.2219 O   0  0  0  0  0  0  0  0  0  0  0  0
    3.2095    6.0545    5.7315 C   0  0  0  0  0  0  0  0  0  0  0  0
    1.8513    5.9325    5.8341 F   0  0  0  0  0  0  0  0  0  0  0  0
    3.7163    5.6338    6.9226 F   0  0  0  0  0  0  0  0  0  0  0  0
    3.4679    7.3856    5.6374 F   0  0  0  0  0  0  0  0  0  0  0  0
    3.0997   -0.4836   -5.0750 H   0  0  0  0  0  0  0  0  0  0  0  0
    3.3233   -1.7070   -3.6948 H   0  0  0  0  0  0  0  0  0  0  0  0
    3.1909    1.3680   -3.4604 H   0  0  0  0  0  0  0  0  0  0  0  0
    4.8104    0.4162   -0.2698 H   0  0  0  0  0  0  0  0  0  0  0  0
    6.5250    0.4110   -2.4065 H   0  0  0  0  0  0  0  0  0  0  0  0
    7.4745   -0.0211   -4.6902 H   0  0  0  0  0  0  0  0  0  0  0  0
   10.5991    1.8540   -4.0901 H   0  0  0  0  0  0  0  0  0  0  0  0
   12.8072    0.7968   -4.2444 H   0  0  0  0  0  0  0  0  0  0  0  0
   10.9566   -2.9102   -5.4544 H   0  0  0  0  0  0  0  0  0  0  0  0
    8.2737    4.7377   -5.8974 H   0  0  0  0  0  0  0  0  0  0  0  0
    5.0164    5.1149   -2.7263 H   0  0  0  0  0  0  0  0  0  0  0  0
    4.5703    2.8187    0.7065 H   0  0  0  0  0  0  0  0  0  0  0  0
    2.8511    2.4840    0.3082 H   0  0  0  0  0  0  0  0  0  0  0  0
    2.2318    4.7294    1.1222 H   0  0  0  0  0  0  0  0  0  0  0  0
    3.9148    5.1408    1.3832 H   0  0  0  0  0  0  0  0  0  0  0  0
    4.1293    3.1755    2.9868 H   0  0  0  0  0  0  0  0  0  0  0  0
    2.4119    2.8244    2.7545 H   0  0  0  0  0  0  0  0  0  0  0  0
    1.8473    4.5355    4.1725 H   0  0  0  0  0  0  0  0  0  0  0  0
  1  2  2  0  0  0  0
  1 36  1  0  0  0  0
  1 37  1  0  0  0  0
  2  3  1  0  0  0  0
  2 38  1  0  0  0  0
  3  4  2  0  0  0  0
  3  5  1  0  0  0  0
  5  6  1  0  0  0  0
  5 39  1  0  0  0  0
  6  7  1  0  0  0  0
  6 24  2  0  0  0  0
  7  8  2  0  0  0  0
  7 40  1  0  0  0  0
  8  9  1  0  0  0  0
  8 22  1  0  0  0  0
  9 10  1  0  0  0  0
  9 19  2  0  0  0  0
 10 11  1  0  0  0  0
 10 41  1  0  0  0  0
 11 12  1  0  0  0  0
 11 17  2  0  0  0  0
 12 13  2  0  0  0  0
 12 42  1  0  0  0  0
 13 14  1  0  0  0  0
 13 43  1  0  0  0  0
 14 15  1  0  0  0  0
 14 16  2  0  0  0  0
 16 17  1  0  0  0  0
 16 44  1  0  0  0  0
 17 18  1  0  0  0  0
 19 20  1  0  0  0  0
 20 21  2  0  0  0  0
 20 45  1  0  0  0  0
 21 22  1  0  0  0  0
 22 23  2  0  0  0  0
 23 24  1  0  0  0  0
 23 46  1  0  0  0  0
 24 25  1  0  0  0  0
 25 26  1  0  0  0  0
 26 27  1  0  0  0  0
 26 47  1  0  0  0  0
 26 48  1  0  0  0  0
 27 28  1  0  0  0  0
 27 49  1  0  0  0  0
 27 50  1  0  0  0  0
 28 29  1  0  0  0  0
 28 51  1  0  0  0  0
 28 52  1  0  0  0  0
 29 30  1  0  0  0  0
 29 53  1  0  0  0  0
 30 31  2  0  0  0  0
 30 32  1  0  0  0  0
 32 33  1  0  0  0  0
 32 34  1  0  0  0  0
 32 35  1  0  0  0  0
M  END
$$$$
