CHEMBL2032013
 OpenBabel04072215363D

 70 75  0  0  0  0  0  0  0  0999 V2000
    1.9012    5.2061   -6.4603 C   0  0  0  0  0  0  0  0  0  0  0  0
    2.7518    4.2302   -5.8604 O   0  0  0  0  0  0  0  0  0  0  0  0
    3.6091    4.7328   -4.9195 C   0  0  0  0  0  0  0  0  0  0  0  0
    3.3688    5.8818   -4.1854 C   0  0  0  0  0  0  0  0  0  0  0  0
    4.3191    6.3365   -3.2809 C   0  0  0  0  0  0  0  0  0  0  0  0
    5.4812    5.5845   -2.9974 C   0  0  0  0  0  0  0  0  0  0  0  0
    6.4114    5.9160   -1.9831 C   0  0  0  0  0  0  0  0  0  0  0  0
    6.3035    6.9961   -1.1214 O   0  0  0  0  0  0  0  0  0  0  0  0
    5.1228    7.2447   -0.4535 C   0  0  0  0  0  0  0  0  0  0  0  0
    4.8859    8.5537   -0.0342 C   0  0  0  0  0  0  0  0  0  0  0  0
    3.6598    8.8930    0.5682 C   0  0  0  0  0  0  0  0  0  0  0  0
    2.6881    7.9108    0.7368 C   0  0  0  0  0  0  0  0  0  0  0  0
    1.4370    8.2591    1.2967 N   0  0  0  0  0  0  0  0  0  0  0  0
    0.3963    7.3630    1.4485 C   0  0  0  0  0  0  0  0  0  0  0  0
    0.4297    6.1713    1.1530 O   0  0  0  0  0  0  0  0  0  0  0  0
   -0.8576    7.8902    2.0444 C   0  0  0  0  0  0  0  0  0  0  0  0
   -2.1228    7.4272    1.8791 C   0  0  0  0  0  0  0  0  0  0  0  0
   -2.6363    6.4706    0.8012 C   0  0  0  0  0  0  0  0  0  0  0  0
   -2.5620    5.0103    1.2560 C   0  0  0  0  0  0  0  0  0  0  0  0
   -2.9184    4.0609    0.1239 C   0  0  0  0  0  0  0  0  0  0  0  0
   -2.0992    4.3034   -1.0130 O   0  0  0  0  0  0  0  0  0  0  0  0
   -2.3428    5.5812   -1.5860 C   0  0  0  0  0  0  0  0  0  0  0  0
   -2.0569    6.7148   -0.6097 C   0  0  0  0  0  0  0  0  0  0  0  0
   -2.9833    7.9420    2.8682 N   0  0  0  0  0  0  0  0  0  0  0  0
   -4.4330    8.1013    2.7846 C   0  0  0  0  0  0  0  0  0  0  0  0
   -2.2663    8.9578    3.5292 N   0  0  0  0  0  0  0  0  0  0  0  0
   -2.7266    9.6000    4.6945 C   0  0  0  0  0  0  0  0  0  0  0  0
   -2.6254   10.9865    4.7970 C   0  0  0  0  0  0  0  0  0  0  0  0
   -3.1465   11.6532    5.9073 C   0  0  0  0  0  0  0  0  0  0  0  0
   -3.7254   10.9317    6.9506 C   0  0  0  0  0  0  0  0  0  0  0  0
   -3.8069    9.5398    6.8709 C   0  0  0  0  0  0  0  0  0  0  0  0
   -3.3273    8.8755    5.7370 C   0  0  0  0  0  0  0  0  0  0  0  0
   -0.9496    8.9655    3.0646 C   0  0  0  0  0  0  0  0  0  0  0  0
   -0.0099    9.6786    3.3826 O   0  0  0  0  0  0  0  0  0  0  0  0
    2.9293    6.6409    0.3657 N   0  0  0  0  0  0  0  0  0  0  0  0
    4.1275    6.3216   -0.1834 C   0  0  0  0  0  0  0  0  0  0  0  0
    7.5800    5.1710   -1.8500 C   0  0  0  0  0  0  0  0  0  0  0  0
    7.7539    4.0802   -2.6796 C   0  0  0  0  0  0  0  0  0  0  0  0
    6.8507    3.6876   -3.6028 N   0  0  0  0  0  0  0  0  0  0  0  0
    5.7307    4.4176   -3.7593 C   0  0  0  0  0  0  0  0  0  0  0  0
    4.7895    4.0153   -4.6990 C   0  0  0  0  0  0  0  0  0  0  0  0
    1.3602    4.7303   -7.2822 H   0  0  0  0  0  0  0  0  0  0  0  0
    2.4911    6.0316   -6.8756 H   0  0  0  0  0  0  0  0  0  0  0  0
    1.1546    5.5791   -5.7510 H   0  0  0  0  0  0  0  0  0  0  0  0
    2.4469    6.4458   -4.2719 H   0  0  0  0  0  0  0  0  0  0  0  0
    4.1113    7.2690   -2.7744 H   0  0  0  0  0  0  0  0  0  0  0  0
    5.6417    9.3183   -0.1934 H   0  0  0  0  0  0  0  0  0  0  0  0
    3.4837    9.9186    0.8741 H   0  0  0  0  0  0  0  0  0  0  0  0
    1.3190    9.2039    1.6431 H   0  0  0  0  0  0  0  0  0  0  0  0
   -3.7027    6.6730    0.6508 H   0  0  0  0  0  0  0  0  0  0  0  0
   -3.2466    4.8442    2.0975 H   0  0  0  0  0  0  0  0  0  0  0  0
   -1.5558    4.7733    1.6141 H   0  0  0  0  0  0  0  0  0  0  0  0
   -3.9736    4.1534   -0.1602 H   0  0  0  0  0  0  0  0  0  0  0  0
   -2.7549    3.0267    0.4427 H   0  0  0  0  0  0  0  0  0  0  0  0
   -3.3739    5.6223   -1.9527 H   0  0  0  0  0  0  0  0  0  0  0  0
   -1.6864    5.6824   -2.4579 H   0  0  0  0  0  0  0  0  0  0  0  0
   -2.4654    7.6492   -1.0174 H   0  0  0  0  0  0  0  0  0  0  0  0
   -0.9774    6.8576   -0.5925 H   0  0  0  0  0  0  0  0  0  0  0  0
   -4.8921    7.5129    1.9885 H   0  0  0  0  0  0  0  0  0  0  0  0
   -4.7116    9.1479    2.6206 H   0  0  0  0  0  0  0  0  0  0  0  0
   -4.8989    7.7578    3.7142 H   0  0  0  0  0  0  0  0  0  0  0  0
   -2.1897   11.5631    3.9814 H   0  0  0  0  0  0  0  0  0  0  0  0
   -3.1018   12.7389    5.9562 H   0  0  0  0  0  0  0  0  0  0  0  0
   -4.1176   11.4523    7.8196 H   0  0  0  0  0  0  0  0  0  0  0  0
   -4.2413    8.9757    7.6903 H   0  0  0  0  0  0  0  0  0  0  0  0
   -3.3808    7.7915    5.6946 H   0  0  0  0  0  0  0  0  0  0  0  0
    4.2214    5.2725   -0.4464 H   0  0  0  0  0  0  0  0  0  0  0  0
    8.3375    5.4300   -1.1195 H   0  0  0  0  0  0  0  0  0  0  0  0
    8.6490    3.4666   -2.6230 H   0  0  0  0  0  0  0  0  0  0  0  0
    4.9801    3.1166   -5.2785 H   0  0  0  0  0  0  0  0  0  0  0  0
  1  2  1  0  0  0  0
  1 42  1  0  0  0  0
  1 43  1  0  0  0  0
  1 44  1  0  0  0  0
  2  3  1  0  0  0  0
  3  4  1  0  0  0  0
  3 41  2  0  0  0  0
  4  5  2  0  0  0  0
  4 45  1  0  0  0  0
  5  6  1  0  0  0  0
  5 46  1  0  0  0  0
  6  7  1  0  0  0  0
  6 40  2  0  0  0  0
  7  8  1  0  0  0  0
  7 37  2  0  0  0  0
  8  9  1  0  0  0  0
  9 10  1  0  0  0  0
  9 36  2  0  0  0  0
 10 11  2  0  0  0  0
 10 47  1  0  0  0  0
 11 12  1  0  0  0  0
 11 48  1  0  0  0  0
 12 13  1  0  0  0  0
 12 35  2  0  0  0  0
 13 14  1  0  0  0  0
 13 49  1  0  0  0  0
 14 15  2  0  0  0  0
 14 16  1  0  0  0  0
 16 17  2  0  0  0  0
 16 33  1  0  0  0  0
 17 18  1  0  0  0  0
 17 24  1  0  0  0  0
 18 19  1  0  0  0  0
 18 23  1  0  0  0  0
 18 50  1  0  0  0  0
 19 20  1  0  0  0  0
 19 51  1  0  0  0  0
 19 52  1  0  0  0  0
 20 21  1  0  0  0  0
 20 53  1  0  0  0  0
 20 54  1  0  0  0  0
 21 22  1  0  0  0  0
 22 23  1  0  0  0  0
 22 55  1  0  0  0  0
 22 56  1  0  0  0  0
 23 57  1  0  0  0  0
 23 58  1  0  0  0  0
 24 25  1  0  0  0  0
 24 26  1  0  0  0  0
 25 59  1  0  0  0  0
 25 60  1  0  0  0  0
 25 61  1  0  0  0  0
 26 27  1  0  0  0  0
 26 33  1  0  0  0  0
 27 28  1  0  0  0  0
 27 32  2  0  0  0  0
 28 29  2  0  0  0  0
 28 62  1  0  0  0  0
 29 30  1  0  0  0  0
 29 63  1  0  0  0  0
 30 31  2  0  0  0  0
 30 64  1  0  0  0  0
 31 32  1  0  0  0  0
 31 65  1  0  0  0  0
 32 66  1  0  0  0  0
 33 34  2  0  0  0  0
 35 36  1  0  0  0  0
 36 67  1  0  0  0  0
 37 38  1  0  0  0  0
 37 68  1  0  0  0  0
 38 39  2  0  0  0  0
 38 69  1  0  0  0  0
 39 40  1  0  0  0  0
 40 41  1  0  0  0  0
 41 70  1  0  0  0  0
M  END
$$$$
