CHEMBL383334
 OpenBabel04072215373D

 46 49  0  0  0  0  0  0  0  0999 V2000
   -4.3023   -5.3726   -2.4046 F   0  0  0  0  0  0  0  0  0  0  0  0
   -3.0010   -5.7433   -2.2390 C   0  0  0  0  0  0  0  0  0  0  0  0
   -2.9347   -7.0484   -2.6239 F   0  0  0  0  0  0  0  0  0  0  0  0
   -2.2922   -5.0437   -3.1682 F   0  0  0  0  0  0  0  0  0  0  0  0
   -2.4837   -5.5316   -0.8369 C   0  0  0  0  0  0  0  0  0  0  0  0
   -3.2853   -4.9410    0.1449 C   0  0  0  0  0  0  0  0  0  0  0  0
   -2.8016   -4.7848    1.4409 C   0  0  0  0  0  0  0  0  0  0  0  0
   -1.5115   -5.2132    1.7690 C   0  0  0  0  0  0  0  0  0  0  0  0
   -0.6675   -5.7799    0.8078 C   0  0  0  0  0  0  0  0  0  0  0  0
    0.6281   -6.2604    1.0805 N   0  0  0  0  0  0  0  0  0  0  0  0
    1.2798   -6.3835    2.2540 C   0  0  0  0  0  0  0  0  0  0  0  0
    2.5798   -6.4547    2.4490 N   0  0  0  0  0  0  0  0  0  0  0  0
    2.7734   -6.6396    3.8028 N   0  0  0  0  0  0  0  0  0  0  0  0
    1.5777   -6.7120    4.3511 C   0  0  0  0  0  0  0  0  0  0  0  0
    1.1630   -6.9678    5.7311 C   0  0  0  0  0  0  0  0  0  0  0  0
   -0.2134   -7.0775    6.0234 C   0  0  0  0  0  0  0  0  0  0  0  0
   -0.6609   -7.3470    7.3134 C   0  0  0  0  0  0  0  0  0  0  0  0
    0.2833   -7.4920    8.3021 C   0  0  0  0  0  0  0  0  0  0  0  0
    1.6065   -7.3823    8.0774 N   0  0  0  0  0  0  0  0  0  0  0  0
    2.0536   -7.1419    6.8075 C   0  0  0  0  0  0  0  0  0  0  0  0
    3.5670   -7.0173    6.6983 C   0  0  0  0  0  0  0  0  0  0  0  0
    4.3005   -7.8663    7.7558 C   0  0  0  0  0  0  0  0  0  0  0  0
    5.8106   -7.8159    7.7122 C   0  0  0  0  0  0  0  0  0  0  0  0
    6.5323   -7.3882    8.8322 C   0  0  0  0  0  0  0  0  0  0  0  0
    7.9176   -7.4626    8.8080 C   0  0  0  0  0  0  0  0  0  0  0  0
    8.6267   -7.9207    7.7563 N   0  0  0  0  0  0  0  0  0  0  0  0
    7.9146   -8.3221    6.6816 C   0  0  0  0  0  0  0  0  0  0  0  0
    6.5306   -8.2892    6.6113 C   0  0  0  0  0  0  0  0  0  0  0  0
    0.5798   -6.5482    3.4184 O   0  0  0  0  0  0  0  0  0  0  0  0
   -1.1804   -5.9421   -0.4943 C   0  0  0  0  0  0  0  0  0  0  0  0
   -4.2942   -4.6061   -0.0920 H   0  0  0  0  0  0  0  0  0  0  0  0
   -3.4285   -4.3290    2.2036 H   0  0  0  0  0  0  0  0  0  0  0  0
   -1.1760   -5.0610    2.7903 H   0  0  0  0  0  0  0  0  0  0  0  0
    1.2296   -6.2860    0.2652 H   0  0  0  0  0  0  0  0  0  0  0  0
   -0.9602   -6.9619    5.2396 H   0  0  0  0  0  0  0  0  0  0  0  0
   -1.7178   -7.4417    7.5352 H   0  0  0  0  0  0  0  0  0  0  0  0
    0.0011   -7.7092    9.3281 H   0  0  0  0  0  0  0  0  0  0  0  0
    3.8337   -5.9594    6.8144 H   0  0  0  0  0  0  0  0  0  0  0  0
    3.9123   -7.3440    5.7163 H   0  0  0  0  0  0  0  0  0  0  0  0
    4.0018   -8.9184    7.6515 H   0  0  0  0  0  0  0  0  0  0  0  0
    3.9770   -7.5621    8.7595 H   0  0  0  0  0  0  0  0  0  0  0  0
    6.0309   -7.0250    9.7231 H   0  0  0  0  0  0  0  0  0  0  0  0
    8.5080   -7.1574    9.6669 H   0  0  0  0  0  0  0  0  0  0  0  0
    8.5064   -8.6991    5.8521 H   0  0  0  0  0  0  0  0  0  0  0  0
    6.0265   -8.6505    5.7194 H   0  0  0  0  0  0  0  0  0  0  0  0
   -0.5613   -6.4038   -1.2629 H   0  0  0  0  0  0  0  0  0  0  0  0
  1  2  1  0  0  0  0
  2  3  1  0  0  0  0
  2  4  1  0  0  0  0
  2  5  1  0  0  0  0
  5  6  1  0  0  0  0
  5 30  2  0  0  0  0
  6  7  2  0  0  0  0
  6 31  1  0  0  0  0
  7  8  1  0  0  0  0
  7 32  1  0  0  0  0
  8  9  2  0  0  0  0
  8 33  1  0  0  0  0
  9 10  1  0  0  0  0
  9 30  1  0  0  0  0
 10 11  1  0  0  0  0
 10 34  1  0  0  0  0
 11 12  2  0  0  0  0
 11 29  1  0  0  0  0
 12 13  1  0  0  0  0
 13 14  2  0  0  0  0
 14 15  1  0  0  0  0
 14 29  1  0  0  0  0
 15 16  1  0  0  0  0
 15 20  2  0  0  0  0
 16 17  2  0  0  0  0
 16 35  1  0  0  0  0
 17 18  1  0  0  0  0
 17 36  1  0  0  0  0
 18 19  2  0  0  0  0
 18 37  1  0  0  0  0
 19 20  1  0  0  0  0
 20 21  1  0  0  0  0
 21 22  1  0  0  0  0
 21 38  1  0  0  0  0
 21 39  1  0  0  0  0
 22 23  1  0  0  0  0
 22 40  1  0  0  0  0
 22 41  1  0  0  0  0
 23 24  1  0  0  0  0
 23 28  2  0  0  0  0
 24 25  2  0  0  0  0
 24 42  1  0  0  0  0
 25 26  1  0  0  0  0
 25 43  1  0  0  0  0
 26 27  2  0  0  0  0
 27 28  1  0  0  0  0
 27 44  1  0  0  0  0
 28 45  1  0  0  0  0
 30 46  1  0  0  0  0
M  END
$$$$
