CHEMBL2409786
 OpenBabel04072215363D

 56 60  0  0  0  0  0  0  0  0999 V2000
    2.5185    0.2273    0.0245 C   0  0  0  0  0  0  0  0  0  0  0  0
    1.0166    0.1164    0.0499 C   0  0  0  0  0  0  0  0  0  0  0  0
    0.2934    1.3199    0.1719 C   0  0  0  0  0  0  0  0  0  0  0  0
   -1.0985    1.3291    0.1807 C   0  0  0  0  0  0  0  0  0  0  0  0
   -1.7948    0.1414   -0.0090 C   0  0  0  0  0  0  0  0  0  0  0  0
   -3.1708    0.0687   -0.1105 O   0  0  0  0  0  0  0  0  0  0  0  0
   -3.8964    1.0961   -0.7062 C   0  0  0  0  0  0  0  0  0  0  0  0
   -3.3224    1.8525   -1.8200 C   0  0  0  0  0  0  0  0  0  0  0  0
   -3.9435    2.9312   -2.3280 C   0  0  0  0  0  0  0  0  0  0  0  0
   -5.2246    3.2903   -1.8394 C   0  0  0  0  0  0  0  0  0  0  0  0
   -6.0121    4.2902   -2.1302 N   0  0  0  0  0  0  0  0  0  0  0  0
   -7.1150    4.0677   -1.3659 C   0  0  0  0  0  0  0  0  0  0  0  0
   -8.1965    4.9110   -1.3766 N   0  0  0  0  0  0  0  0  0  0  0  0
   -8.1647    6.1567   -1.9608 C   0  0  0  0  0  0  0  0  0  0  0  0
   -7.2007    6.6900   -2.4935 O   0  0  0  0  0  0  0  0  0  0  0  0
   -9.4156    6.9692   -1.8984 C   0  0  0  0  0  0  0  0  0  0  0  0
  -10.0633    7.2737   -0.5683 C   0  0  0  0  0  0  0  0  0  0  0  0
  -10.8039    6.4691   -1.5992 C   0  0  0  0  0  0  0  0  0  0  0  0
   -7.0742    2.9554   -0.6247 N   0  0  0  0  0  0  0  0  0  0  0  0
   -5.8229    2.4741   -0.8810 N   0  0  0  0  0  0  0  0  0  0  0  0
   -5.1513    1.3876   -0.3120 C   0  0  0  0  0  0  0  0  0  0  0  0
   -1.0918   -1.0675   -0.0714 C   0  0  0  0  0  0  0  0  0  0  0  0
    0.3136   -1.1097   -0.0257 C   0  0  0  0  0  0  0  0  0  0  0  0
    1.0333   -2.3411   -0.0804 N   0  0  0  0  0  0  0  0  0  0  0  0
    0.4945   -3.6241   -0.0164 C   0  0  0  0  0  0  0  0  0  0  0  0
   -0.6861   -3.8823    0.1899 O   0  0  0  0  0  0  0  0  0  0  0  0
    1.4471   -4.7235   -0.2041 C   0  0  0  0  0  0  0  0  0  0  0  0
    2.7356   -4.6953   -0.7099 C   0  0  0  0  0  0  0  0  0  0  0  0
    3.1557   -5.9957   -0.7729 N   0  0  0  0  0  0  0  0  0  0  0  0
    4.3786   -6.4987   -1.3517 C   0  0  0  0  0  0  0  0  0  0  0  0
    2.2693   -6.8690   -0.2847 N   0  0  0  0  0  0  0  0  0  0  0  0
    1.2095   -6.1133    0.0399 C   0  0  0  0  0  0  0  0  0  0  0  0
   -0.0144   -6.7726    0.5691 C   0  0  0  0  0  0  0  0  0  0  0  0
    2.8390    1.2774    0.0052 H   0  0  0  0  0  0  0  0  0  0  0  0
    2.9251   -0.2396   -0.8774 H   0  0  0  0  0  0  0  0  0  0  0  0
    2.9556   -0.2291    0.9166 H   0  0  0  0  0  0  0  0  0  0  0  0
    0.8135    2.2731    0.2531 H   0  0  0  0  0  0  0  0  0  0  0  0
   -1.6191    2.2749    0.2989 H   0  0  0  0  0  0  0  0  0  0  0  0
   -2.3691    1.5417   -2.2363 H   0  0  0  0  0  0  0  0  0  0  0  0
   -3.5044    3.5245   -3.1219 H   0  0  0  0  0  0  0  0  0  0  0  0
   -8.9937    4.5908   -0.8545 H   0  0  0  0  0  0  0  0  0  0  0  0
   -9.3791    7.7959   -2.6072 H   0  0  0  0  0  0  0  0  0  0  0  0
  -10.3654    8.3020   -0.3954 H   0  0  0  0  0  0  0  0  0  0  0  0
   -9.7072    6.7674    0.3208 H   0  0  0  0  0  0  0  0  0  0  0  0
  -11.6262    6.9492   -2.1149 H   0  0  0  0  0  0  0  0  0  0  0  0
  -10.9728    5.4151   -1.4087 H   0  0  0  0  0  0  0  0  0  0  0  0
   -5.6749    0.8482    0.4651 H   0  0  0  0  0  0  0  0  0  0  0  0
   -1.6851   -1.9693   -0.1791 H   0  0  0  0  0  0  0  0  0  0  0  0
    2.0392   -2.2793   -0.0914 H   0  0  0  0  0  0  0  0  0  0  0  0
    3.3593   -3.8945   -1.0779 H   0  0  0  0  0  0  0  0  0  0  0  0
    4.9731   -5.6649   -1.7300 H   0  0  0  0  0  0  0  0  0  0  0  0
    4.1157   -7.1711   -2.1736 H   0  0  0  0  0  0  0  0  0  0  0  0
    4.9326   -7.0395   -0.5804 H   0  0  0  0  0  0  0  0  0  0  0  0
    0.0973   -7.8624    0.5961 H   0  0  0  0  0  0  0  0  0  0  0  0
   -0.8780   -6.5481   -0.0644 H   0  0  0  0  0  0  0  0  0  0  0  0
   -0.2254   -6.4343    1.5882 H   0  0  0  0  0  0  0  0  0  0  0  0
  1  2  1  0  0  0  0
  1 34  1  0  0  0  0
  1 35  1  0  0  0  0
  1 36  1  0  0  0  0
  2  3  1  0  0  0  0
  2 23  2  0  0  0  0
  3  4  2  0  0  0  0
  3 37  1  0  0  0  0
  4  5  1  0  0  0  0
  4 38  1  0  0  0  0
  5  6  1  0  0  0  0
  5 22  2  0  0  0  0
  6  7  1  0  0  0  0
  7  8  1  0  0  0  0
  7 21  2  0  0  0  0
  8  9  2  0  0  0  0
  8 39  1  0  0  0  0
  9 10  1  0  0  0  0
  9 40  1  0  0  0  0
 10 11  2  0  0  0  0
 10 20  1  0  0  0  0
 11 12  1  0  0  0  0
 12 13  1  0  0  0  0
 12 19  2  0  0  0  0
 13 14  1  0  0  0  0
 13 41  1  0  0  0  0
 14 15  2  0  0  0  0
 14 16  1  0  0  0  0
 16 17  1  0  0  0  0
 16 18  1  0  0  0  0
 16 42  1  0  0  0  0
 17 18  1  0  0  0  0
 17 43  1  0  0  0  0
 17 44  1  0  0  0  0
 18 45  1  0  0  0  0
 18 46  1  0  0  0  0
 19 20  1  0  0  0  0
 20 21  1  0  0  0  0
 21 47  1  0  0  0  0
 22 23  1  0  0  0  0
 22 48  1  0  0  0  0
 23 24  1  0  0  0  0
 24 25  1  0  0  0  0
 24 49  1  0  0  0  0
 25 26  2  0  0  0  0
 25 27  1  0  0  0  0
 27 28  2  0  0  0  0
 27 32  1  0  0  0  0
 28 29  1  0  0  0  0
 28 50  1  0  0  0  0
 29 30  1  0  0  0  0
 29 31  1  0  0  0  0
 30 51  1  0  0  0  0
 30 52  1  0  0  0  0
 30 53  1  0  0  0  0
 31 32  2  0  0  0  0
 32 33  1  0  0  0  0
 33 54  1  0  0  0  0
 33 55  1  0  0  0  0
 33 56  1  0  0  0  0
M  END
$$$$
