CHEMBL3651854
 OpenBabel04072215373D

 83 87  0  0  0  0  0  0  0  0999 V2000
    2.3150   -0.3593    0.3235 C   0  0  0  0  0  0  0  0  0  0  0  0
    0.8108   -0.1979    0.2752 C   0  0  0  0  0  0  0  0  0  0  0  0
    0.2388    1.0816    0.3620 C   0  0  0  0  0  0  0  0  0  0  0  0
   -1.1565    1.2941    0.2682 C   0  0  0  0  0  0  0  0  0  0  0  0
   -1.6898    2.5931    0.3112 N   0  0  0  0  0  0  0  0  0  0  0  0
   -1.1051    3.7765   -0.1353 C   0  0  0  0  0  0  0  0  0  0  0  0
   -0.2725    3.7213   -1.2318 N   0  0  0  0  0  0  0  0  0  0  0  0
    0.3265    4.8323   -1.7644 C   0  0  0  0  0  0  0  0  0  0  0  0
    1.1742    4.7052   -2.8732 N   0  0  0  0  0  0  0  0  0  0  0  0
    1.1061    3.7280   -3.8939 C   0  0  0  0  0  0  0  0  0  0  0  0
   -0.1222    3.1242   -4.2205 C   0  0  0  0  0  0  0  0  0  0  0  0
   -0.2290    2.1749   -5.2413 C   0  0  0  0  0  0  0  0  0  0  0  0
    0.8985    1.7946   -5.9573 C   0  0  0  0  0  0  0  0  0  0  0  0
    2.1323    2.3649   -5.6527 C   0  0  0  0  0  0  0  0  0  0  0  0
    2.2366    3.3188   -4.6248 C   0  0  0  0  0  0  0  0  0  0  0  0
    3.8315    4.0542   -4.3364 S   0  0  0  0  0  0  0  0  0  0  0  0
    4.7652    3.4734   -5.2858 O   0  0  0  0  0  0  0  0  0  0  0  0
    3.6001    5.4917   -4.3277 O   0  0  0  0  0  0  0  0  0  0  0  0
    4.3532    3.5792   -2.6911 C   0  0  0  0  0  0  0  0  0  0  0  0
    4.3501    2.0727   -2.4763 C   0  0  0  0  0  0  0  0  0  0  0  0
    5.7482    4.1449   -2.4117 C   0  0  0  0  0  0  0  0  0  0  0  0
    0.0070    5.9878   -1.0383 C   0  0  0  0  0  0  0  0  0  0  0  0
    0.4001    7.2996   -1.1996 C   0  0  0  0  0  0  0  0  0  0  0  0
    1.2840    8.0519   -2.1162 C   0  0  0  0  0  0  0  0  0  0  0  0
   -0.2543    7.9772   -0.1943 N   0  0  0  0  0  0  0  0  0  0  0  0
   -1.0267    7.2120    0.5877 N   0  0  0  0  0  0  0  0  0  0  0  0
   -0.8747    5.9891    0.0812 C   0  0  0  0  0  0  0  0  0  0  0  0
   -1.4660    4.8741    0.5474 N   0  0  0  0  0  0  0  0  0  0  0  0
   -1.9975    0.1815    0.2098 C   0  0  0  0  0  0  0  0  0  0  0  0
   -3.3609    0.1516    0.0497 O   0  0  0  0  0  0  0  0  0  0  0  0
   -4.0247    1.1380   -0.7607 C   0  0  0  0  0  0  0  0  0  0  0  0
   -3.5034    1.2430   -2.1980 C   0  0  0  0  0  0  0  0  0  0  0  0
   -5.5081    0.7453   -0.8270 C   0  0  0  0  0  0  0  0  0  0  0  0
   -1.4387   -1.1005    0.2315 C   0  0  0  0  0  0  0  0  0  0  0  0
   -0.0531   -1.2985    0.1200 C   0  0  0  0  0  0  0  0  0  0  0  0
    0.4892   -2.5723   -0.5293 C   0  0  0  0  0  0  0  0  0  0  0  0
    0.7934   -2.2283   -2.0033 C   0  0  0  0  0  0  0  0  0  0  0  0
   -0.4871   -2.0067   -2.7990 C   0  0  0  0  0  0  0  0  0  0  0  0
   -1.4396   -3.1155   -2.7439 N   0  0  0  0  0  0  0  0  0  0  0  0
   -2.7573   -2.6168   -3.1613 C   0  0  0  0  0  0  0  0  0  0  0  0
   -1.5532   -3.8517   -1.4813 C   0  0  0  0  0  0  0  0  0  0  0  0
   -0.3838   -3.8261   -0.4884 C   0  0  0  0  0  0  0  0  0  0  0  0
    2.8226    0.5528    0.0011 H   0  0  0  0  0  0  0  0  0  0  0  0
    2.6844   -1.1481   -0.3390 H   0  0  0  0  0  0  0  0  0  0  0  0
    2.6363   -0.6102    1.3393 H   0  0  0  0  0  0  0  0  0  0  0  0
    0.9081    1.9375    0.4357 H   0  0  0  0  0  0  0  0  0  0  0  0
   -2.2105    2.7845    1.1619 H   0  0  0  0  0  0  0  0  0  0  0  0
    1.6225    5.5604   -3.1839 H   0  0  0  0  0  0  0  0  0  0  0  0
   -1.0325    3.4114   -3.6974 H   0  0  0  0  0  0  0  0  0  0  0  0
   -1.1996    1.7454   -5.4785 H   0  0  0  0  0  0  0  0  0  0  0  0
    0.8149    1.0637   -6.7581 H   0  0  0  0  0  0  0  0  0  0  0  0
    3.0036    2.0685   -6.2342 H   0  0  0  0  0  0  0  0  0  0  0  0
    3.6467    4.0485   -1.9989 H   0  0  0  0  0  0  0  0  0  0  0  0
    5.1370    1.5841   -3.0605 H   0  0  0  0  0  0  0  0  0  0  0  0
    3.3954    1.6194   -2.7547 H   0  0  0  0  0  0  0  0  0  0  0  0
    4.5292    1.8473   -1.4196 H   0  0  0  0  0  0  0  0  0  0  0  0
    6.5059    3.6670   -3.0439 H   0  0  0  0  0  0  0  0  0  0  0  0
    6.0303    3.9819   -1.3668 H   0  0  0  0  0  0  0  0  0  0  0  0
    5.7910    5.2215   -2.6093 H   0  0  0  0  0  0  0  0  0  0  0  0
    1.5742    7.4832   -2.9975 H   0  0  0  0  0  0  0  0  0  0  0  0
    2.1937    8.3594   -1.5902 H   0  0  0  0  0  0  0  0  0  0  0  0
    0.7770    8.9556   -2.4720 H   0  0  0  0  0  0  0  0  0  0  0  0
   -0.2162    8.9714    0.0079 H   0  0  0  0  0  0  0  0  0  0  0  0
   -3.9814    2.1049   -0.2554 H   0  0  0  0  0  0  0  0  0  0  0  0
   -3.8062    0.3779   -2.7975 H   0  0  0  0  0  0  0  0  0  0  0  0
   -2.4147    1.2999   -2.2565 H   0  0  0  0  0  0  0  0  0  0  0  0
   -3.9184    2.1333   -2.6836 H   0  0  0  0  0  0  0  0  0  0  0  0
   -5.6482   -0.1921   -1.3799 H   0  0  0  0  0  0  0  0  0  0  0  0
   -6.0967    1.5232   -1.3252 H   0  0  0  0  0  0  0  0  0  0  0  0
   -5.9189    0.5820    0.1743 H   0  0  0  0  0  0  0  0  0  0  0  0
   -2.1304   -1.9322    0.1958 H   0  0  0  0  0  0  0  0  0  0  0  0
    1.4177   -2.8403   -0.0095 H   0  0  0  0  0  0  0  0  0  0  0  0
    1.4027   -3.0136   -2.4612 H   0  0  0  0  0  0  0  0  0  0  0  0
    1.3802   -1.3044   -2.0914 H   0  0  0  0  0  0  0  0  0  0  0  0
   -0.2096   -1.8439   -3.8480 H   0  0  0  0  0  0  0  0  0  0  0  0
   -0.9449   -1.0615   -2.4771 H   0  0  0  0  0  0  0  0  0  0  0  0
   -2.7306   -2.3001   -4.2088 H   0  0  0  0  0  0  0  0  0  0  0  0
   -3.0745   -1.7610   -2.5528 H   0  0  0  0  0  0  0  0  0  0  0  0
   -3.5312   -3.3856   -3.0699 H   0  0  0  0  0  0  0  0  0  0  0  0
   -1.7119   -4.9039   -1.7519 H   0  0  0  0  0  0  0  0  0  0  0  0
   -2.4690   -3.5821   -0.9421 H   0  0  0  0  0  0  0  0  0  0  0  0
    0.2615   -4.6884   -0.7039 H   0  0  0  0  0  0  0  0  0  0  0  0
   -0.7644   -3.9848    0.5296 H   0  0  0  0  0  0  0  0  0  0  0  0
  1  2  1  0  0  0  0
  1 43  1  0  0  0  0
  1 44  1  0  0  0  0
  1 45  1  0  0  0  0
  2  3  1  0  0  0  0
  2 35  2  0  0  0  0
  3  4  2  0  0  0  0
  3 46  1  0  0  0  0
  4  5  1  0  0  0  0
  4 29  1  0  0  0  0
  5  6  1  0  0  0  0
  5 47  1  0  0  0  0
  6  7  1  0  0  0  0
  6 28  2  0  0  0  0
  7  8  2  0  0  0  0
  8  9  1  0  0  0  0
  8 22  1  0  0  0  0
  9 10  1  0  0  0  0
  9 48  1  0  0  0  0
 10 11  1  0  0  0  0
 10 15  2  0  0  0  0
 11 12  2  0  0  0  0
 11 49  1  0  0  0  0
 12 13  1  0  0  0  0
 12 50  1  0  0  0  0
 13 14  2  0  0  0  0
 13 51  1  0  0  0  0
 14 15  1  0  0  0  0
 14 52  1  0  0  0  0
 15 16  1  0  0  0  0
 16 17  2  0  0  0  0
 16 18  2  0  0  0  0
 16 19  1  0  0  0  0
 19 20  1  0  0  0  0
 19 21  1  0  0  0  0
 19 53  1  0  0  0  0
 20 54  1  0  0  0  0
 20 55  1  0  0  0  0
 20 56  1  0  0  0  0
 21 57  1  0  0  0  0
 21 58  1  0  0  0  0
 21 59  1  0  0  0  0
 22 23  2  0  0  0  0
 22 27  1  0  0  0  0
 23 24  1  0  0  0  0
 23 25  1  0  0  0  0
 24 60  1  0  0  0  0
 24 61  1  0  0  0  0
 24 62  1  0  0  0  0
 25 26  1  0  0  0  0
 25 63  1  0  0  0  0
 26 27  2  0  0  0  0
 27 28  1  0  0  0  0
 29 30  1  0  0  0  0
 29 34  2  0  0  0  0
 30 31  1  0  0  0  0
 31 32  1  0  0  0  0
 31 33  1  0  0  0  0
 31 64  1  0  0  0  0
 32 65  1  0  0  0  0
 32 66  1  0  0  0  0
 32 67  1  0  0  0  0
 33 68  1  0  0  0  0
 33 69  1  0  0  0  0
 33 70  1  0  0  0  0
 34 35  1  0  0  0  0
 34 71  1  0  0  0  0
 35 36  1  0  0  0  0
 36 37  1  0  0  0  0
 36 42  1  0  0  0  0
 36 72  1  0  0  0  0
 37 38  1  0  0  0  0
 37 73  1  0  0  0  0
 37 74  1  0  0  0  0
 38 39  1  0  0  0  0
 38 75  1  0  0  0  0
 38 76  1  0  0  0  0
 39 40  1  0  0  0  0
 39 41  1  0  0  0  0
 40 77  1  0  0  0  0
 40 78  1  0  0  0  0
 40 79  1  0  0  0  0
 41 42  1  0  0  0  0
 41 80  1  0  0  0  0
 41 81  1  0  0  0  0
 42 82  1  0  0  0  0
 42 83  1  0  0  0  0
M  END
$$$$
