CHEMBL402548
 OpenBabel04072215373D

 65 69  0  0  1  0  0  0  0  0999 V2000
    2.3088   -1.2682   -0.8338 C   0  0  0  0  0  0  0  0  0  0  0  0
    2.0422   -0.0933   -0.0812 O   0  0  0  0  0  0  0  0  0  0  0  0
    2.6680    1.0809   -0.5975 C   0  0  1  0  0  0  0  0  0  0  0  0
    1.9961    1.6875   -1.8728 C   0  0  0  0  0  0  0  0  0  0  0  0
    2.6827    1.9097   -2.8788 O   0  0  0  0  0  0  0  0  0  0  0  0
    0.6593    2.0241   -1.8704 N   0  0  0  0  0  0  0  0  0  0  0  0
   -0.3156    1.7585   -0.7749 C   0  0  0  0  0  0  0  0  0  0  0  0
   -1.4106    2.6609   -1.1863 C   0  0  0  0  0  0  0  0  0  0  0  0
   -2.5285    3.0561   -0.5900 N   0  0  0  0  0  0  0  0  0  0  0  0
   -3.0115    3.9688   -1.4737 N   0  0  0  0  0  0  0  0  0  0  0  0
   -2.2116    4.1536   -2.5903 C   0  0  0  0  0  0  0  0  0  0  0  0
   -2.4892    5.0745   -3.5836 N   0  0  0  0  0  0  0  0  0  0  0  0
   -3.5965    5.9092   -3.5091 C   0  0  0  0  0  0  0  0  0  0  0  0
   -4.4017    5.9206   -2.5724 O   0  0  0  0  0  0  0  0  0  0  0  0
   -3.7772    6.8665   -4.6365 C   0  0  0  0  0  0  0  0  0  0  0  0
   -3.3140    6.5781   -5.9181 C   0  0  0  0  0  0  0  0  0  0  0  0
   -3.4673    7.5193   -6.9374 C   0  0  0  0  0  0  0  0  0  0  0  0
   -4.0907    8.7595   -6.7238 C   0  0  0  0  0  0  0  0  0  0  0  0
   -4.2194    9.6333   -7.7848 N   0  0  0  0  0  0  0  0  0  0  0  0
   -5.2780   10.6507   -7.8455 C   0  0  0  0  0  0  0  0  0  0  0  0
   -5.6141   10.9239   -9.3347 C   0  0  0  0  0  0  0  0  0  0  0  0
   -4.4286   11.3357  -10.1262 N   0  0  0  0  0  0  0  0  0  0  0  0
   -4.7860   11.5193  -11.5305 C   0  0  0  0  0  0  0  0  0  0  0  0
   -3.3694   10.3079   -9.9947 C   0  0  0  0  0  0  0  0  0  0  0  0
   -3.0019   10.0243   -8.5218 C   0  0  0  0  0  0  0  0  0  0  0  0
   -4.6002    9.0099   -5.4461 C   0  0  0  0  0  0  0  0  0  0  0  0
   -4.4464    8.0751   -4.4088 C   0  0  0  0  0  0  0  0  0  0  0  0
   -1.1732    3.2790   -2.4155 C   0  0  0  0  0  0  0  0  0  0  0  0
    0.0975    2.8250   -2.9954 C   0  0  0  0  0  0  0  0  0  0  0  0
    2.8586    2.0640    0.5651 C   0  0  0  0  0  0  0  0  0  0  0  0
    3.2048    1.5754    1.8398 C   0  0  0  0  0  0  0  0  0  0  0  0
    3.4154    2.4378    2.9182 C   0  0  0  0  0  0  0  0  0  0  0  0
    3.2929    3.8119    2.7386 C   0  0  0  0  0  0  0  0  0  0  0  0
    2.9710    4.3187    1.4821 C   0  0  0  0  0  0  0  0  0  0  0  0
    2.7649    3.4559    0.4008 C   0  0  0  0  0  0  0  0  0  0  0  0
    2.4065   -2.1075   -0.1369 H   0  0  0  0  0  0  0  0  0  0  0  0
    3.2277   -1.2105   -1.4263 H   0  0  0  0  0  0  0  0  0  0  0  0
    1.4547   -1.4627   -1.4852 H   0  0  0  0  0  0  0  0  0  0  0  0
    3.6965    0.8300   -0.9000 H   0  0  0  0  0  0  0  0  0  0  0  0
    0.1066    2.0157    0.1953 H   0  0  0  0  0  0  0  0  0  0  0  0
   -0.6107    0.7065   -0.8181 H   0  0  0  0  0  0  0  0  0  0  0  0
   -3.8690    4.4763   -1.2656 H   0  0  0  0  0  0  0  0  0  0  0  0
   -1.8179    5.1798   -4.3339 H   0  0  0  0  0  0  0  0  0  0  0  0
   -2.8663    5.6213   -6.1662 H   0  0  0  0  0  0  0  0  0  0  0  0
   -3.1296    7.2571   -7.9381 H   0  0  0  0  0  0  0  0  0  0  0  0
   -4.9502   11.5757   -7.3539 H   0  0  0  0  0  0  0  0  0  0  0  0
   -6.1921   10.3049   -7.3493 H   0  0  0  0  0  0  0  0  0  0  0  0
   -6.3802   11.7062   -9.3822 H   0  0  0  0  0  0  0  0  0  0  0  0
   -6.0494   10.0099   -9.7635 H   0  0  0  0  0  0  0  0  0  0  0  0
   -5.5457   12.3014  -11.6321 H   0  0  0  0  0  0  0  0  0  0  0  0
   -5.1721   10.6004  -11.9865 H   0  0  0  0  0  0  0  0  0  0  0  0
   -3.9137   11.8485  -12.1058 H   0  0  0  0  0  0  0  0  0  0  0  0
   -2.4660   10.6389  -10.5200 H   0  0  0  0  0  0  0  0  0  0  0  0
   -3.6950    9.3665  -10.4590 H   0  0  0  0  0  0  0  0  0  0  0  0
   -2.5662   10.9220   -8.0626 H   0  0  0  0  0  0  0  0  0  0  0  0
   -2.2270    9.2502   -8.5009 H   0  0  0  0  0  0  0  0  0  0  0  0
   -5.1053    9.9462   -5.2259 H   0  0  0  0  0  0  0  0  0  0  0  0
   -4.8453    8.3034   -3.4220 H   0  0  0  0  0  0  0  0  0  0  0  0
    0.7758    3.6451   -3.2467 H   0  0  0  0  0  0  0  0  0  0  0  0
   -0.0468    2.1688   -3.8596 H   0  0  0  0  0  0  0  0  0  0  0  0
    3.3123    0.5042    2.0046 H   0  0  0  0  0  0  0  0  0  0  0  0
    3.6721    2.0372    3.8949 H   0  0  0  0  0  0  0  0  0  0  0  0
    3.4528    4.4870    3.5750 H   0  0  0  0  0  0  0  0  0  0  0  0
    2.8807    5.3931    1.3407 H   0  0  0  0  0  0  0  0  0  0  0  0
    2.5285    3.8964   -0.5649 H   0  0  0  0  0  0  0  0  0  0  0  0
  1  2  1  0  0  0  0
  1 36  1  0  0  0  0
  1 37  1  0  0  0  0
  1 38  1  0  0  0  0
  2  3  1  0  0  0  0
  3  4  1  0  0  0  0
  3 30  1  0  0  0  0
  3 39  1  6  0  0  0
  4  5  2  0  0  0  0
  4  6  1  0  0  0  0
  6  7  1  0  0  0  0
  6 29  1  0  0  0  0
  7  8  1  0  0  0  0
  7 40  1  0  0  0  0
  7 41  1  0  0  0  0
  8  9  2  0  0  0  0
  8 28  1  0  0  0  0
  9 10  1  0  0  0  0
 10 11  1  0  0  0  0
 10 42  1  0  0  0  0
 11 12  1  0  0  0  0
 11 28  2  0  0  0  0
 12 13  1  0  0  0  0
 12 43  1  0  0  0  0
 13 14  2  0  0  0  0
 13 15  1  0  0  0  0
 15 16  1  0  0  0  0
 15 27  2  0  0  0  0
 16 17  2  0  0  0  0
 16 44  1  0  0  0  0
 17 18  1  0  0  0  0
 17 45  1  0  0  0  0
 18 19  1  0  0  0  0
 18 26  2  0  0  0  0
 19 20  1  0  0  0  0
 19 25  1  0  0  0  0
 20 21  1  0  0  0  0
 20 46  1  0  0  0  0
 20 47  1  0  0  0  0
 21 22  1  0  0  0  0
 21 48  1  0  0  0  0
 21 49  1  0  0  0  0
 22 23  1  0  0  0  0
 22 24  1  0  0  0  0
 23 50  1  0  0  0  0
 23 51  1  0  0  0  0
 23 52  1  0  0  0  0
 24 25  1  0  0  0  0
 24 53  1  0  0  0  0
 24 54  1  0  0  0  0
 25 55  1  0  0  0  0
 25 56  1  0  0  0  0
 26 27  1  0  0  0  0
 26 57  1  0  0  0  0
 27 58  1  0  0  0  0
 28 29  1  0  0  0  0
 29 59  1  0  0  0  0
 29 60  1  0  0  0  0
 30 31  1  0  0  0  0
 30 35  2  0  0  0  0
 31 32  2  0  0  0  0
 31 61  1  0  0  0  0
 32 33  1  0  0  0  0
 32 62  1  0  0  0  0
 33 34  2  0  0  0  0
 33 63  1  0  0  0  0
 34 35  1  0  0  0  0
 34 64  1  0  0  0  0
 35 65  1  0  0  0  0
M  END
$$$$
