CHEMBL3898941
 OpenBabel04072215373D

 55 58  0  0  0  0  0  0  0  0999 V2000
    3.7848   -5.4794   -1.3127 C   0  0  0  0  0  0  0  0  0  0  0  0
    2.7615   -4.7999   -0.4132 C   0  0  0  0  0  0  0  0  0  0  0  0
    1.6686   -4.4977   -1.1718 F   0  0  0  0  0  0  0  0  0  0  0  0
    2.3174   -5.7414    0.4751 F   0  0  0  0  0  0  0  0  0  0  0  0
    3.3472   -3.5974    0.2807 C   0  0  0  0  0  0  0  0  0  0  0  0
    3.9383   -3.7256    1.5480 C   0  0  0  0  0  0  0  0  0  0  0  0
    4.5547   -2.6407    2.1922 C   0  0  0  0  0  0  0  0  0  0  0  0
    5.2045   -2.7631    3.4476 N   0  0  0  0  0  0  0  0  0  0  0  0
    5.6451   -3.9658    3.9712 C   0  0  0  0  0  0  0  0  0  0  0  0
    5.6113   -5.0210    3.3426 O   0  0  0  0  0  0  0  0  0  0  0  0
    6.1155   -3.8572    5.2691 N   0  0  0  0  0  0  0  0  0  0  0  0
    6.5743   -4.9592    6.0379 C   0  0  0  0  0  0  0  0  0  0  0  0
    6.9424   -6.1837    5.4627 C   0  0  0  0  0  0  0  0  0  0  0  0
    7.2413   -7.2978    6.2506 C   0  0  0  0  0  0  0  0  0  0  0  0
    7.2168   -7.1976    7.6366 C   0  0  0  0  0  0  0  0  0  0  0  0
    7.4187   -8.3783    8.3142 O   0  0  0  0  0  0  0  0  0  0  0  0
    8.1317   -8.3836    9.4891 C   0  0  0  0  0  0  0  0  0  0  0  0
    9.1707   -7.5035    9.7636 C   0  0  0  0  0  0  0  0  0  0  0  0
    9.7790   -7.6040   10.9918 C   0  0  0  0  0  0  0  0  0  0  0  0
    9.4553   -8.5372   11.9037 N   0  0  0  0  0  0  0  0  0  0  0  0
    8.4909   -9.4273   11.6145 C   0  0  0  0  0  0  0  0  0  0  0  0
    8.1684  -10.4249   12.5498 N   0  0  0  0  0  0  0  0  0  0  0  0
    8.7809  -10.5339   13.7817 C   0  0  0  0  0  0  0  0  0  0  0  0
    9.6489   -9.8170   14.2535 O   0  0  0  0  0  0  0  0  0  0  0  0
    8.2937  -11.6807   14.6148 C   0  0  0  0  0  0  0  0  0  0  0  0
    8.2277  -11.5205   16.1195 C   0  0  0  0  0  0  0  0  0  0  0  0
    9.2791  -12.4023   15.5115 C   0  0  0  0  0  0  0  0  0  0  0  0
    7.8055   -9.3855   10.4082 C   0  0  0  0  0  0  0  0  0  0  0  0
    6.9017   -5.9649    8.2145 C   0  0  0  0  0  0  0  0  0  0  0  0
    6.8404   -5.8239    9.5470 F   0  0  0  0  0  0  0  0  0  0  0  0
    6.6106   -4.8435    7.4273 C   0  0  0  0  0  0  0  0  0  0  0  0
    4.5249   -1.3902    1.5706 C   0  0  0  0  0  0  0  0  0  0  0  0
    3.9254   -1.2451    0.3141 C   0  0  0  0  0  0  0  0  0  0  0  0
    3.3524   -2.3452   -0.3212 C   0  0  0  0  0  0  0  0  0  0  0  0
    2.8129   -2.1789   -1.5358 F   0  0  0  0  0  0  0  0  0  0  0  0
    3.3310   -6.3444   -1.8083 H   0  0  0  0  0  0  0  0  0  0  0  0
    4.6431   -5.8443   -0.7379 H   0  0  0  0  0  0  0  0  0  0  0  0
    4.1467   -4.8032   -2.0938 H   0  0  0  0  0  0  0  0  0  0  0  0
    3.8957   -4.7064    2.0174 H   0  0  0  0  0  0  0  0  0  0  0  0
    5.5829   -1.9216    3.8566 H   0  0  0  0  0  0  0  0  0  0  0  0
    5.8490   -3.0245    5.7781 H   0  0  0  0  0  0  0  0  0  0  0  0
    6.9873   -6.3229    4.3876 H   0  0  0  0  0  0  0  0  0  0  0  0
    7.4673   -8.2449    5.7681 H   0  0  0  0  0  0  0  0  0  0  0  0
    9.4929   -6.7435    9.0648 H   0  0  0  0  0  0  0  0  0  0  0  0
   10.5634   -6.9189   11.2960 H   0  0  0  0  0  0  0  0  0  0  0  0
    7.4543  -11.0889   12.2978 H   0  0  0  0  0  0  0  0  0  0  0  0
    7.5188  -12.2959   14.1688 H   0  0  0  0  0  0  0  0  0  0  0  0
    7.4165  -11.9935   16.6570 H   0  0  0  0  0  0  0  0  0  0  0  0
    8.5500  -10.5746   16.5472 H   0  0  0  0  0  0  0  0  0  0  0  0
    9.1792  -13.4726   15.6358 H   0  0  0  0  0  0  0  0  0  0  0  0
   10.3057  -12.0480   15.5312 H   0  0  0  0  0  0  0  0  0  0  0  0
    7.0264  -10.1022   10.1701 H   0  0  0  0  0  0  0  0  0  0  0  0
    6.3677   -3.9135    7.9311 H   0  0  0  0  0  0  0  0  0  0  0  0
    4.9861   -0.5220    2.0329 H   0  0  0  0  0  0  0  0  0  0  0  0
    3.9117   -0.2804   -0.1846 H   0  0  0  0  0  0  0  0  0  0  0  0
  1  2  1  0  0  0  0
  1 36  1  0  0  0  0
  1 37  1  0  0  0  0
  1 38  1  0  0  0  0
  2  3  1  0  0  0  0
  2  4  1  0  0  0  0
  2  5  1  0  0  0  0
  5  6  1  0  0  0  0
  5 34  2  0  0  0  0
  6  7  2  0  0  0  0
  6 39  1  0  0  0  0
  7  8  1  0  0  0  0
  7 32  1  0  0  0  0
  8  9  1  0  0  0  0
  8 40  1  0  0  0  0
  9 10  2  0  0  0  0
  9 11  1  0  0  0  0
 11 12  1  0  0  0  0
 11 41  1  0  0  0  0
 12 13  1  0  0  0  0
 12 31  2  0  0  0  0
 13 14  2  0  0  0  0
 13 42  1  0  0  0  0
 14 15  1  0  0  0  0
 14 43  1  0  0  0  0
 15 16  1  0  0  0  0
 15 29  2  0  0  0  0
 16 17  1  0  0  0  0
 17 18  1  0  0  0  0
 17 28  2  0  0  0  0
 18 19  2  0  0  0  0
 18 44  1  0  0  0  0
 19 20  1  0  0  0  0
 19 45  1  0  0  0  0
 20 21  2  0  0  0  0
 21 22  1  0  0  0  0
 21 28  1  0  0  0  0
 22 23  1  0  0  0  0
 22 46  1  0  0  0  0
 23 24  2  0  0  0  0
 23 25  1  0  0  0  0
 25 26  1  0  0  0  0
 25 27  1  0  0  0  0
 25 47  1  0  0  0  0
 26 27  1  0  0  0  0
 26 48  1  0  0  0  0
 26 49  1  0  0  0  0
 27 50  1  0  0  0  0
 27 51  1  0  0  0  0
 28 52  1  0  0  0  0
 29 30  1  0  0  0  0
 29 31  1  0  0  0  0
 31 53  1  0  0  0  0
 32 33  2  0  0  0  0
 32 54  1  0  0  0  0
 33 34  1  0  0  0  0
 33 55  1  0  0  0  0
 34 35  1  0  0  0  0
M  END
$$$$
