CHEMBL3593288
 OpenBabel04072215363D

 66 70  0  0  0  0  0  0  0  0999 V2000
    8.0653   -4.0250   -5.5871 C   0  0  0  0  0  0  0  0  0  0  0  0
    6.8229   -4.6089   -6.2357 C   0  0  0  0  0  0  0  0  0  0  0  0
    5.7504   -4.8185   -5.2401 C   0  0  0  0  0  0  0  0  0  0  0  0
    4.7579   -4.0220   -4.7231 C   0  0  0  0  0  0  0  0  0  0  0  0
    4.0673   -4.8636   -3.8205 C   0  0  0  0  0  0  0  0  0  0  0  0
    2.9666   -4.4701   -3.1030 N   0  0  0  0  0  0  0  0  0  0  0  0
    2.1861   -5.2081   -2.2606 C   0  0  0  0  0  0  0  0  0  0  0  0
    1.1964   -4.6472   -1.7838 O   0  0  0  0  0  0  0  0  0  0  0  0
    2.5756   -6.4971   -2.0206 N   0  0  0  0  0  0  0  0  0  0  0  0
    1.8787   -7.4735   -1.2886 C   0  0  0  0  0  0  0  0  0  0  0  0
    0.5425   -7.3296   -0.9311 C   0  0  0  0  0  0  0  0  0  0  0  0
   -0.1067   -8.3378   -0.2214 C   0  0  0  0  0  0  0  0  0  0  0  0
    0.5580   -9.5193    0.1409 C   0  0  0  0  0  0  0  0  0  0  0  0
   -0.2103  -10.5792    0.7937 C   0  0  0  0  0  0  0  0  0  0  0  0
   -1.5407  -10.8731    0.5912 C   0  0  0  0  0  0  0  0  0  0  0  0
   -2.0414  -11.8963    1.3376 N   0  0  0  0  0  0  0  0  0  0  0  0
   -1.1431  -12.3896    2.1599 C   0  0  0  0  0  0  0  0  0  0  0  0
   -1.3855  -13.3555    3.0836 N   0  0  0  0  0  0  0  0  0  0  0  0
   -2.6631  -13.7430    3.5346 C   0  0  0  0  0  0  0  0  0  0  0  0
   -3.8050  -13.5070    2.7959 C   0  0  0  0  0  0  0  0  0  0  0  0
   -5.0490  -13.7826    3.3191 C   0  0  0  0  0  0  0  0  0  0  0  0
   -6.1819  -13.3886    2.6083 N   0  0  0  0  0  0  0  0  0  0  0  0
   -6.2353  -13.6886    1.1644 C   0  0  0  0  0  0  0  0  0  0  0  0
   -7.2764  -12.7753    0.4852 C   0  0  0  0  0  0  0  0  0  0  0  0
   -8.6180  -12.9193    1.0889 N   0  0  0  0  0  0  0  0  0  0  0  0
   -9.5639  -12.0169    0.4393 C   0  0  0  0  0  0  0  0  0  0  0  0
   -8.5265  -12.6384    2.5431 C   0  0  0  0  0  0  0  0  0  0  0  0
   -7.4837  -13.5288    3.2721 C   0  0  0  0  0  0  0  0  0  0  0  0
   -5.1453  -14.3148    4.5424 N   0  0  0  0  0  0  0  0  0  0  0  0
   -3.9954  -14.5815    5.1956 C   0  0  0  0  0  0  0  0  0  0  0  0
   -4.1166  -15.1870    6.5597 C   0  0  0  0  0  0  0  0  0  0  0  0
   -2.7494  -14.3247    4.7390 N   0  0  0  0  0  0  0  0  0  0  0  0
    0.4176  -11.6587    1.9775 S   0  0  0  0  0  0  0  0  0  0  0  0
    1.9008   -9.6621   -0.2191 C   0  0  0  0  0  0  0  0  0  0  0  0
    2.5525   -8.6496   -0.9398 C   0  0  0  0  0  0  0  0  0  0  0  0
    4.6287   -6.0758   -3.7736 N   0  0  0  0  0  0  0  0  0  0  0  0
    5.6800   -6.0490   -4.6689 O   0  0  0  0  0  0  0  0  0  0  0  0
    8.8553   -3.8905   -6.3323 H   0  0  0  0  0  0  0  0  0  0  0  0
    8.4470   -4.6834   -4.7988 H   0  0  0  0  0  0  0  0  0  0  0  0
    7.8539   -3.0497   -5.1348 H   0  0  0  0  0  0  0  0  0  0  0  0
    7.0723   -5.5598   -6.7203 H   0  0  0  0  0  0  0  0  0  0  0  0
    6.4670   -3.9340   -7.0225 H   0  0  0  0  0  0  0  0  0  0  0  0
    4.5550   -2.9931   -4.9715 H   0  0  0  0  0  0  0  0  0  0  0  0
    2.6257   -3.5280   -3.2361 H   0  0  0  0  0  0  0  0  0  0  0  0
    3.5001   -6.7431   -2.3610 H   0  0  0  0  0  0  0  0  0  0  0  0
   -0.0379   -6.4579   -1.2153 H   0  0  0  0  0  0  0  0  0  0  0  0
   -1.1530   -8.1806    0.0323 H   0  0  0  0  0  0  0  0  0  0  0  0
   -2.2008  -10.3616   -0.0989 H   0  0  0  0  0  0  0  0  0  0  0  0
   -0.6774  -13.5861    3.7669 H   0  0  0  0  0  0  0  0  0  0  0  0
   -3.7495  -13.0418    1.8293 H   0  0  0  0  0  0  0  0  0  0  0  0
   -6.4986  -14.7432    1.0149 H   0  0  0  0  0  0  0  0  0  0  0  0
   -5.2855  -13.5204    0.6487 H   0  0  0  0  0  0  0  0  0  0  0  0
   -7.3174  -13.0317   -0.5800 H   0  0  0  0  0  0  0  0  0  0  0  0
   -6.9339  -11.7329    0.5579 H   0  0  0  0  0  0  0  0  0  0  0  0
   -9.6416  -12.2529   -0.6282 H   0  0  0  0  0  0  0  0  0  0  0  0
   -9.2738  -10.9646    0.5372 H   0  0  0  0  0  0  0  0  0  0  0  0
  -10.5652  -12.1424    0.8638 H   0  0  0  0  0  0  0  0  0  0  0  0
   -9.5051  -12.7993    3.0091 H   0  0  0  0  0  0  0  0  0  0  0  0
   -8.2553  -11.5849    2.7022 H   0  0  0  0  0  0  0  0  0  0  0  0
   -7.8068  -14.5772    3.2535 H   0  0  0  0  0  0  0  0  0  0  0  0
   -7.4366  -13.2011    4.3175 H   0  0  0  0  0  0  0  0  0  0  0  0
   -5.1675  -15.2976    6.8463 H   0  0  0  0  0  0  0  0  0  0  0  0
   -3.6255  -14.5470    7.2986 H   0  0  0  0  0  0  0  0  0  0  0  0
   -3.6484  -16.1752    6.5741 H   0  0  0  0  0  0  0  0  0  0  0  0
    2.4511  -10.5674    0.0254 H   0  0  0  0  0  0  0  0  0  0  0  0
    3.5938   -8.7936   -1.2173 H   0  0  0  0  0  0  0  0  0  0  0  0
  1  2  1  0  0  0  0
  1 38  1  0  0  0  0
  1 39  1  0  0  0  0
  1 40  1  0  0  0  0
  2  3  1  0  0  0  0
  2 41  1  0  0  0  0
  2 42  1  0  0  0  0
  3  4  2  0  0  0  0
  3 37  1  0  0  0  0
  4  5  1  0  0  0  0
  4 43  1  0  0  0  0
  5  6  1  0  0  0  0
  5 36  2  0  0  0  0
  6  7  1  0  0  0  0
  6 44  1  0  0  0  0
  7  8  2  0  0  0  0
  7  9  1  0  0  0  0
  9 10  1  0  0  0  0
  9 45  1  0  0  0  0
 10 11  1  0  0  0  0
 10 35  2  0  0  0  0
 11 12  2  0  0  0  0
 11 46  1  0  0  0  0
 12 13  1  0  0  0  0
 12 47  1  0  0  0  0
 13 14  1  0  0  0  0
 13 34  2  0  0  0  0
 14 15  2  0  0  0  0
 14 33  1  0  0  0  0
 15 16  1  0  0  0  0
 15 48  1  0  0  0  0
 16 17  2  0  0  0  0
 17 18  1  0  0  0  0
 17 33  1  0  0  0  0
 18 19  1  0  0  0  0
 18 49  1  0  0  0  0
 19 20  1  0  0  0  0
 19 32  2  0  0  0  0
 20 21  2  0  0  0  0
 20 50  1  0  0  0  0
 21 22  1  0  0  0  0
 21 29  1  0  0  0  0
 22 23  1  0  0  0  0
 22 28  1  0  0  0  0
 23 24  1  0  0  0  0
 23 51  1  0  0  0  0
 23 52  1  0  0  0  0
 24 25  1  0  0  0  0
 24 53  1  0  0  0  0
 24 54  1  0  0  0  0
 25 26  1  0  0  0  0
 25 27  1  0  0  0  0
 26 55  1  0  0  0  0
 26 56  1  0  0  0  0
 26 57  1  0  0  0  0
 27 28  1  0  0  0  0
 27 58  1  0  0  0  0
 27 59  1  0  0  0  0
 28 60  1  0  0  0  0
 28 61  1  0  0  0  0
 29 30  2  0  0  0  0
 30 31  1  0  0  0  0
 30 32  1  0  0  0  0
 31 62  1  0  0  0  0
 31 63  1  0  0  0  0
 31 64  1  0  0  0  0
 34 35  1  0  0  0  0
 34 65  1  0  0  0  0
 35 66  1  0  0  0  0
 36 37  1  0  0  0  0
M  END
$$$$
