CHEMBL263374
 OpenBabel04072215363D

 47 50  0  0  0  0  0  0  0  0999 V2000
    3.4239    2.4366   -3.5128 N   0  0  0  0  0  0  0  0  0  0  0  0
    3.7339    1.4788   -2.5321 C   0  0  0  0  0  0  0  0  0  0  0  0
    4.4740    0.4359   -2.9357 N   0  0  0  0  0  0  0  0  0  0  0  0
    4.8174   -0.4315   -1.9756 C   0  0  0  0  0  0  0  0  0  0  0  0
    4.5105   -0.3483   -0.6720 N   0  0  0  0  0  0  0  0  0  0  0  0
    3.7782    0.7169   -0.2968 C   0  0  0  0  0  0  0  0  0  0  0  0
    3.3447    1.6885   -1.2045 C   0  0  0  0  0  0  0  0  0  0  0  0
    2.4883    2.7750   -0.8955 N   0  0  0  0  0  0  0  0  0  0  0  0
    2.7063    3.4896    0.1668 C   0  0  0  0  0  0  0  0  0  0  0  0
    1.8045    4.6467    0.4375 C   0  0  0  0  0  0  0  0  0  0  0  0
    1.2427    5.2767   -0.6799 C   0  0  0  0  0  0  0  0  0  0  0  0
    0.4120    6.3676   -0.5066 C   0  0  0  0  0  0  0  0  0  0  0  0
    0.1398    6.8260    0.7808 C   0  0  0  0  0  0  0  0  0  0  0  0
    0.6665    6.2087    1.9226 C   0  0  0  0  0  0  0  0  0  0  0  0
    0.3831    6.6631    3.2453 N   0  0  0  0  0  0  0  0  0  0  0  0
   -0.4701    7.7093    3.5590 C   0  0  0  0  0  0  0  0  0  0  0  0
   -1.1129    8.3628    2.7373 O   0  0  0  0  0  0  0  0  0  0  0  0
   -0.5112    8.0029    4.9204 N   0  0  0  0  0  0  0  0  0  0  0  0
   -1.3267    9.0948    5.3292 C   0  0  0  0  0  0  0  0  0  0  0  0
   -2.6826    9.1414    4.9818 C   0  0  0  0  0  0  0  0  0  0  0  0
   -3.4502   10.2744    5.2635 C   0  0  0  0  0  0  0  0  0  0  0  0
   -2.8604   11.3708    5.8868 C   0  0  0  0  0  0  0  0  0  0  0  0
   -1.5153   11.3195    6.2566 C   0  0  0  0  0  0  0  0  0  0  0  0
   -0.7515   10.1737    6.0011 C   0  0  0  0  0  0  0  0  0  0  0  0
    1.5125    5.1029    1.7384 C   0  0  0  0  0  0  0  0  0  0  0  0
    3.8677    3.2319    1.0976 C   0  0  0  0  0  0  0  0  0  0  0  0
    3.6498    1.9349    1.8562 C   0  0  0  0  0  0  0  0  0  0  0  0
    3.4533    0.7308    1.0568 N   0  0  0  0  0  0  0  0  0  0  0  0
    3.6088    2.0455   -4.4290 H   0  0  0  0  0  0  0  0  0  0  0  0
    2.4777    2.7782   -3.3713 H   0  0  0  0  0  0  0  0  0  0  0  0
    5.4078   -1.2884   -2.2826 H   0  0  0  0  0  0  0  0  0  0  0  0
    1.4566    4.9272   -1.6876 H   0  0  0  0  0  0  0  0  0  0  0  0
   -0.0298    6.8686   -1.3645 H   0  0  0  0  0  0  0  0  0  0  0  0
   -0.5177    7.6878    0.8352 H   0  0  0  0  0  0  0  0  0  0  0  0
    0.7508    6.1225    4.0132 H   0  0  0  0  0  0  0  0  0  0  0  0
    0.3821    7.9241    5.3845 H   0  0  0  0  0  0  0  0  0  0  0  0
   -3.1474    8.3077    4.4590 H   0  0  0  0  0  0  0  0  0  0  0  0
   -4.4955   10.3090    4.9677 H   0  0  0  0  0  0  0  0  0  0  0  0
   -3.4452   12.2689    6.0701 H   0  0  0  0  0  0  0  0  0  0  0  0
   -1.0534   12.1891    6.7177 H   0  0  0  0  0  0  0  0  0  0  0  0
    0.3034   10.1794    6.2522 H   0  0  0  0  0  0  0  0  0  0  0  0
    1.9264    4.5902    2.5989 H   0  0  0  0  0  0  0  0  0  0  0  0
    3.9942    4.0587    1.8027 H   0  0  0  0  0  0  0  0  0  0  0  0
    4.7929    3.2034    0.5088 H   0  0  0  0  0  0  0  0  0  0  0  0
    2.7766    2.0370    2.5111 H   0  0  0  0  0  0  0  0  0  0  0  0
    4.5133    1.7736    2.5119 H   0  0  0  0  0  0  0  0  0  0  0  0
    3.8975   -0.0920    1.4597 H   0  0  0  0  0  0  0  0  0  0  0  0
  1  2  1  0  0  0  0
  1 29  1  0  0  0  0
  1 30  1  0  0  0  0
  2  3  1  0  0  0  0
  2  7  2  0  0  0  0
  3  4  2  0  0  0  0
  4  5  1  0  0  0  0
  4 31  1  0  0  0  0
  5  6  2  0  0  0  0
  6  7  1  0  0  0  0
  6 28  1  0  0  0  0
  7  8  1  0  0  0  0
  8  9  2  0  0  0  0
  9 10  1  0  0  0  0
  9 26  1  0  0  0  0
 10 11  1  0  0  0  0
 10 25  2  0  0  0  0
 11 12  2  0  0  0  0
 11 32  1  0  0  0  0
 12 13  1  0  0  0  0
 12 33  1  0  0  0  0
 13 14  2  0  0  0  0
 13 34  1  0  0  0  0
 14 15  1  0  0  0  0
 14 25  1  0  0  0  0
 15 16  1  0  0  0  0
 15 35  1  0  0  0  0
 16 17  2  0  0  0  0
 16 18  1  0  0  0  0
 18 19  1  0  0  0  0
 18 36  1  0  0  0  0
 19 20  1  0  0  0  0
 19 24  2  0  0  0  0
 20 21  2  0  0  0  0
 20 37  1  0  0  0  0
 21 22  1  0  0  0  0
 21 38  1  0  0  0  0
 22 23  2  0  0  0  0
 22 39  1  0  0  0  0
 23 24  1  0  0  0  0
 23 40  1  0  0  0  0
 24 41  1  0  0  0  0
 25 42  1  0  0  0  0
 26 27  1  0  0  0  0
 26 43  1  0  0  0  0
 26 44  1  0  0  0  0
 27 28  1  0  0  0  0
 27 45  1  0  0  0  0
 27 46  1  0  0  0  0
 28 47  1  0  0  0  0
M  END
$$$$
