CHEMBL4585345
 OpenBabel04072215383D

 66 70  0  0  0  0  0  0  0  0999 V2000
    7.7094   -0.5455   -0.1185 C   0  0  0  0  0  0  0  0  0  0  0  0
    6.9627    0.0767   -1.1611 O   0  0  0  0  0  0  0  0  0  0  0  0
    6.2479    1.1901   -0.8267 C   0  0  0  0  0  0  0  0  0  0  0  0
    6.1351    2.1472   -1.8244 C   0  0  0  0  0  0  0  0  0  0  0  0
    5.4983    3.3653   -1.5694 C   0  0  0  0  0  0  0  0  0  0  0  0
    5.0504    3.7259   -0.2820 C   0  0  0  0  0  0  0  0  0  0  0  0
    4.5647    5.1585   -0.0303 C   0  0  0  0  0  0  0  0  0  0  0  0
    3.8144    5.4590    1.0899 C   0  0  0  0  0  0  0  0  0  0  0  0
    2.4632    5.1704    0.9333 C   0  0  0  0  0  0  0  0  0  0  0  0
    1.7232    4.7857    2.0384 C   0  0  0  0  0  0  0  0  0  0  0  0
    1.0176    3.6011    1.9110 C   0  0  0  0  0  0  0  0  0  0  0  0
    0.7224    3.0266    3.1104 O   0  0  0  0  0  0  0  0  0  0  0  0
   -0.0658    1.8502    3.1061 C   0  0  0  0  0  0  0  0  0  0  0  0
    0.8027    3.0728    0.6372 C   0  0  0  0  0  0  0  0  0  0  0  0
    1.1952    3.8048   -0.5023 C   0  0  0  0  0  0  0  0  0  0  0  0
    2.0595    4.8807   -0.3767 C   0  0  0  0  0  0  0  0  0  0  0  0
    2.7231    5.4492   -1.4105 N   0  0  0  0  0  0  0  0  0  0  0  0
    3.9853    5.7970   -1.1131 C   0  0  0  0  0  0  0  0  0  0  0  0
    4.7116    6.8844   -1.6706 N   0  0  0  0  0  0  0  0  0  0  0  0
    4.3222    7.7515   -2.7083 C   0  0  0  0  0  0  0  0  0  0  0  0
    4.6412    9.1160   -2.6370 C   0  0  0  0  0  0  0  0  0  0  0  0
    4.2543   10.0012   -3.6339 C   0  0  0  0  0  0  0  0  0  0  0  0
    3.5664    9.5691   -4.7550 C   0  0  0  0  0  0  0  0  0  0  0  0
    3.0698   10.4486   -5.7654 N   0  0  0  0  0  0  0  0  0  0  0  0
    3.0765   11.8429   -5.7121 C   0  0  0  0  0  0  0  0  0  0  0  0
    3.5515   12.5206   -4.8241 O   0  0  0  0  0  0  0  0  0  0  0  0
    2.3566   12.5032   -6.9148 C   0  0  0  0  0  0  0  0  0  0  0  0
    3.2575   13.3969   -7.6601 N   0  0  0  0  0  0  0  0  0  0  0  0
    2.5478   14.1555   -8.6974 C   0  0  0  0  0  0  0  0  0  0  0  0
    2.6027   13.2680   -9.9250 C   0  0  0  0  0  0  0  0  0  0  0  0
    3.9907   12.6639   -9.8393 C   0  0  0  0  0  0  0  0  0  0  0  0
    4.3330   12.6703   -8.3525 C   0  0  0  0  0  0  0  0  0  0  0  0
    3.3325    8.1960   -4.8899 C   0  0  0  0  0  0  0  0  0  0  0  0
    3.7056    7.2971   -3.8736 C   0  0  0  0  0  0  0  0  0  0  0  0
    5.0301    2.6778    0.6653 C   0  0  0  0  0  0  0  0  0  0  0  0
    5.5970    1.4125    0.3831 C   0  0  0  0  0  0  0  0  0  0  0  0
    8.7620   -0.5899   -0.4218 H   0  0  0  0  0  0  0  0  0  0  0  0
    7.3490   -1.5716   -0.0060 H   0  0  0  0  0  0  0  0  0  0  0  0
    7.6699   -0.0346    0.8481 H   0  0  0  0  0  0  0  0  0  0  0  0
    6.5752    1.9715   -2.8023 H   0  0  0  0  0  0  0  0  0  0  0  0
    5.3675    4.0427   -2.4118 H   0  0  0  0  0  0  0  0  0  0  0  0
    4.2667    5.4976    2.0727 H   0  0  0  0  0  0  0  0  0  0  0  0
    1.8829    5.2236    3.0162 H   0  0  0  0  0  0  0  0  0  0  0  0
    0.5644    0.9619    2.9928 H   0  0  0  0  0  0  0  0  0  0  0  0
   -0.8491    1.8785    2.3453 H   0  0  0  0  0  0  0  0  0  0  0  0
   -0.5568    1.7966    4.0818 H   0  0  0  0  0  0  0  0  0  0  0  0
    0.3833    2.0845    0.4909 H   0  0  0  0  0  0  0  0  0  0  0  0
    1.0026    3.4114   -1.4977 H   0  0  0  0  0  0  0  0  0  0  0  0
    5.0646    7.4246   -0.8857 H   0  0  0  0  0  0  0  0  0  0  0  0
    5.1817    9.5095   -1.7703 H   0  0  0  0  0  0  0  0  0  0  0  0
    4.5224   11.0546   -3.4912 H   0  0  0  0  0  0  0  0  0  0  0  0
    2.5847   10.0027   -6.5360 H   0  0  0  0  0  0  0  0  0  0  0  0
    1.5456   13.0959   -6.4602 H   0  0  0  0  0  0  0  0  0  0  0  0
    1.8809   11.7543   -7.5550 H   0  0  0  0  0  0  0  0  0  0  0  0
    3.0963   15.0871   -8.8916 H   0  0  0  0  0  0  0  0  0  0  0  0
    1.5257   14.4377   -8.4236 H   0  0  0  0  0  0  0  0  0  0  0  0
    2.4488   13.8215  -10.8564 H   0  0  0  0  0  0  0  0  0  0  0  0
    1.8425   12.4799   -9.8673 H   0  0  0  0  0  0  0  0  0  0  0  0
    4.7056   13.2883  -10.3884 H   0  0  0  0  0  0  0  0  0  0  0  0
    4.0189   11.6573  -10.2664 H   0  0  0  0  0  0  0  0  0  0  0  0
    5.2801   13.2012   -8.1947 H   0  0  0  0  0  0  0  0  0  0  0  0
    4.4817   11.6501   -7.9844 H   0  0  0  0  0  0  0  0  0  0  0  0
    2.8482    7.7853   -5.7751 H   0  0  0  0  0  0  0  0  0  0  0  0
    3.5153    6.2343   -3.9968 H   0  0  0  0  0  0  0  0  0  0  0  0
    4.5643    2.8103    1.6400 H   0  0  0  0  0  0  0  0  0  0  0  0
    5.5313    0.6193    1.1238 H   0  0  0  0  0  0  0  0  0  0  0  0
  1  2  1  0  0  0  0
  1 37  1  0  0  0  0
  1 38  1  0  0  0  0
  1 39  1  0  0  0  0
  2  3  1  0  0  0  0
  3  4  1  0  0  0  0
  3 36  2  0  0  0  0
  4  5  2  0  0  0  0
  4 40  1  0  0  0  0
  5  6  1  0  0  0  0
  5 41  1  0  0  0  0
  6  7  1  0  0  0  0
  6 35  2  0  0  0  0
  7  8  1  0  0  0  0
  7 18  2  0  0  0  0
  8  9  2  0  0  0  0
  8 42  1  0  0  0  0
  9 10  1  0  0  0  0
  9 16  1  0  0  0  0
 10 11  2  0  0  0  0
 10 43  1  0  0  0  0
 11 12  1  0  0  0  0
 11 14  1  0  0  0  0
 12 13  1  0  0  0  0
 13 44  1  0  0  0  0
 13 45  1  0  0  0  0
 13 46  1  0  0  0  0
 14 15  2  0  0  0  0
 14 47  1  0  0  0  0
 15 16  1  0  0  0  0
 15 48  1  0  0  0  0
 16 17  2  0  0  0  0
 17 18  1  0  0  0  0
 18 19  1  0  0  0  0
 19 20  1  0  0  0  0
 19 49  1  0  0  0  0
 20 21  1  0  0  0  0
 20 34  2  0  0  0  0
 21 22  2  0  0  0  0
 21 50  1  0  0  0  0
 22 23  1  0  0  0  0
 22 51  1  0  0  0  0
 23 24  1  0  0  0  0
 23 33  2  0  0  0  0
 24 25  1  0  0  0  0
 24 52  1  0  0  0  0
 25 26  2  0  0  0  0
 25 27  1  0  0  0  0
 27 28  1  0  0  0  0
 27 53  1  0  0  0  0
 27 54  1  0  0  0  0
 28 29  1  0  0  0  0
 28 32  1  0  0  0  0
 29 30  1  0  0  0  0
 29 55  1  0  0  0  0
 29 56  1  0  0  0  0
 30 31  1  0  0  0  0
 30 57  1  0  0  0  0
 30 58  1  0  0  0  0
 31 32  1  0  0  0  0
 31 59  1  0  0  0  0
 31 60  1  0  0  0  0
 32 61  1  0  0  0  0
 32 62  1  0  0  0  0
 33 34  1  0  0  0  0
 33 63  1  0  0  0  0
 34 64  1  0  0  0  0
 35 36  1  0  0  0  0
 35 65  1  0  0  0  0
 36 66  1  0  0  0  0
M  END
$$$$
