CHEMBL4794496
 OpenBabel04072215383D

 62 67  0  0  0  0  0  0  0  0999 V2000
   10.5893   -2.1535   -1.2984 C   0  0  0  0  0  0  0  0  0  0  0  0
    9.6923   -3.1568   -1.7844 O   0  0  0  0  0  0  0  0  0  0  0  0
    8.8681   -2.7698   -2.8100 C   0  0  0  0  0  0  0  0  0  0  0  0
    9.2839   -1.8140   -3.7537 C   0  0  0  0  0  0  0  0  0  0  0  0
    8.4431   -1.3134   -4.7377 C   0  0  0  0  0  0  0  0  0  0  0  0
    8.9026   -0.3409   -5.5336 N   0  0  0  0  0  0  0  0  0  0  0  0
    8.0521    0.1549   -6.4426 C   0  0  0  0  0  0  0  0  0  0  0  0
    6.7952   -0.2392   -6.6422 N   0  0  0  0  0  0  0  0  0  0  0  0
    6.3523   -1.1917   -5.7970 C   0  0  0  0  0  0  0  0  0  0  0  0
    5.0181   -1.5695   -5.9006 O   0  0  0  0  0  0  0  0  0  0  0  0
    4.0864   -0.5773   -6.1363 C   0  0  0  0  0  0  0  0  0  0  0  0
    2.9581   -0.9421   -6.8759 C   0  0  0  0  0  0  0  0  0  0  0  0
    1.9052   -0.0297   -7.0697 C   0  0  0  0  0  0  0  0  0  0  0  0
    1.9558    1.2597   -6.5179 C   0  0  0  0  0  0  0  0  0  0  0  0
    0.8376    2.1178   -6.6101 N   0  0  0  0  0  0  0  0  0  0  0  0
    0.3585    3.0228   -5.6285 C   0  0  0  0  0  0  0  0  0  0  0  0
    1.0824    3.1865   -4.4937 N   0  0  0  0  0  0  0  0  0  0  0  0
    0.6947    4.0946   -3.5760 C   0  0  0  0  0  0  0  0  0  0  0  0
   -0.4227    4.8838   -3.7099 C   0  0  0  0  0  0  0  0  0  0  0  0
   -1.2018    4.7168   -4.8508 C   0  0  0  0  0  0  0  0  0  0  0  0
   -2.3285    5.5264   -5.0549 N   0  0  0  0  0  0  0  0  0  0  0  0
   -3.1040    5.3833   -6.1709 C   0  0  0  0  0  0  0  0  0  0  0  0
   -2.8585    4.5184   -7.1696 C   0  0  0  0  0  0  0  0  0  0  0  0
   -3.7632    4.4278   -8.3174 C   0  0  0  0  0  0  0  0  0  0  0  0
   -3.5782    5.2491   -9.4386 C   0  0  0  0  0  0  0  0  0  0  0  0
   -4.4349    5.1383  -10.5360 C   0  0  0  0  0  0  0  0  0  0  0  0
   -5.4732    4.2139  -10.5057 C   0  0  0  0  0  0  0  0  0  0  0  0
   -6.2868    4.1005  -11.5634 F   0  0  0  0  0  0  0  0  0  0  0  0
   -5.6782    3.4034   -9.3954 C   0  0  0  0  0  0  0  0  0  0  0  0
   -4.8237    3.5110   -8.2975 C   0  0  0  0  0  0  0  0  0  0  0  0
   -1.6727    3.6119   -7.0234 C   0  0  0  0  0  0  0  0  0  0  0  0
   -1.4478    2.7221   -7.8394 O   0  0  0  0  0  0  0  0  0  0  0  0
   -0.8006    3.7873   -5.8312 C   0  0  0  0  0  0  0  0  0  0  0  0
    3.1176    1.6260   -5.8309 C   0  0  0  0  0  0  0  0  0  0  0  0
    4.1483    0.7144   -5.6123 C   0  0  0  0  0  0  0  0  0  0  0  0
    5.1729    1.1074   -4.8394 F   0  0  0  0  0  0  0  0  0  0  0  0
    7.1482   -1.8202   -4.8287 C   0  0  0  0  0  0  0  0  0  0  0  0
    6.7521   -2.8675   -3.9593 C   0  0  0  0  0  0  0  0  0  0  0  0
    7.5987   -3.3431   -2.9455 C   0  0  0  0  0  0  0  0  0  0  0  0
    7.0130   -4.3323   -2.2047 O   0  0  0  0  0  0  0  0  0  0  0  0
    7.6177   -4.7489   -0.9902 C   0  0  0  0  0  0  0  0  0  0  0  0
   10.7058   -2.2926   -0.2193 H   0  0  0  0  0  0  0  0  0  0  0  0
   10.2236   -1.1300   -1.4477 H   0  0  0  0  0  0  0  0  0  0  0  0
   11.5693   -2.2791   -1.7696 H   0  0  0  0  0  0  0  0  0  0  0  0
   10.2953   -1.4146   -3.7244 H   0  0  0  0  0  0  0  0  0  0  0  0
    8.4175    0.9660   -7.0626 H   0  0  0  0  0  0  0  0  0  0  0  0
    2.8821   -1.9452   -7.2868 H   0  0  0  0  0  0  0  0  0  0  0  0
    1.0301   -0.3532   -7.6282 H   0  0  0  0  0  0  0  0  0  0  0  0
    0.0791    1.7769   -7.2008 H   0  0  0  0  0  0  0  0  0  0  0  0
    1.3436    4.1710   -2.7072 H   0  0  0  0  0  0  0  0  0  0  0  0
   -0.6750    5.6059   -2.9451 H   0  0  0  0  0  0  0  0  0  0  0  0
   -2.6883    6.0766   -4.2812 H   0  0  0  0  0  0  0  0  0  0  0  0
   -3.9651    6.0459   -6.1899 H   0  0  0  0  0  0  0  0  0  0  0  0
   -2.7605    5.9657   -9.4716 H   0  0  0  0  0  0  0  0  0  0  0  0
   -4.2934    5.7573  -11.4164 H   0  0  0  0  0  0  0  0  0  0  0  0
   -6.4930    2.6865   -9.3956 H   0  0  0  0  0  0  0  0  0  0  0  0
   -4.9794    2.8666   -7.4351 H   0  0  0  0  0  0  0  0  0  0  0  0
    3.2293    2.6248   -5.4220 H   0  0  0  0  0  0  0  0  0  0  0  0
    5.7602   -3.3047   -4.0587 H   0  0  0  0  0  0  0  0  0  0  0  0
    6.8773   -5.3509   -0.4516 H   0  0  0  0  0  0  0  0  0  0  0  0
    7.8670   -3.9036   -0.3425 H   0  0  0  0  0  0  0  0  0  0  0  0
    8.4839   -5.3898   -1.1815 H   0  0  0  0  0  0  0  0  0  0  0  0
  1  2  1  0  0  0  0
  1 42  1  0  0  0  0
  1 43  1  0  0  0  0
  1 44  1  0  0  0  0
  2  3  1  0  0  0  0
  3  4  1  0  0  0  0
  3 39  2  0  0  0  0
  4  5  2  0  0  0  0
  4 45  1  0  0  0  0
  5  6  1  0  0  0  0
  5 37  1  0  0  0  0
  6  7  2  0  0  0  0
  7  8  1  0  0  0  0
  7 46  1  0  0  0  0
  8  9  2  0  0  0  0
  9 10  1  0  0  0  0
  9 37  1  0  0  0  0
 10 11  1  0  0  0  0
 11 12  1  0  0  0  0
 11 35  2  0  0  0  0
 12 13  2  0  0  0  0
 12 47  1  0  0  0  0
 13 14  1  0  0  0  0
 13 48  1  0  0  0  0
 14 15  1  0  0  0  0
 14 34  2  0  0  0  0
 15 16  1  0  0  0  0
 15 49  1  0  0  0  0
 16 17  1  0  0  0  0
 16 33  2  0  0  0  0
 17 18  2  0  0  0  0
 18 19  1  0  0  0  0
 18 50  1  0  0  0  0
 19 20  2  0  0  0  0
 19 51  1  0  0  0  0
 20 21  1  0  0  0  0
 20 33  1  0  0  0  0
 21 22  1  0  0  0  0
 21 52  1  0  0  0  0
 22 23  2  0  0  0  0
 22 53  1  0  0  0  0
 23 24  1  0  0  0  0
 23 31  1  0  0  0  0
 24 25  1  0  0  0  0
 24 30  2  0  0  0  0
 25 26  2  0  0  0  0
 25 54  1  0  0  0  0
 26 27  1  0  0  0  0
 26 55  1  0  0  0  0
 27 28  1  0  0  0  0
 27 29  2  0  0  0  0
 29 30  1  0  0  0  0
 29 56  1  0  0  0  0
 30 57  1  0  0  0  0
 31 32  2  0  0  0  0
 31 33  1  0  0  0  0
 34 35  1  0  0  0  0
 34 58  1  0  0  0  0
 35 36  1  0  0  0  0
 37 38  2  0  0  0  0
 38 39  1  0  0  0  0
 38 59  1  0  0  0  0
 39 40  1  0  0  0  0
 40 41  1  0  0  0  0
 41 60  1  0  0  0  0
 41 61  1  0  0  0  0
 41 62  1  0  0  0  0
M  END
$$$$
