CHEMBL2002165
 OpenBabel04072215363D

 59 63  0  0  1  0  0  0  0  0999 V2000
    5.2590   -3.2178    2.1368 C   0  0  0  0  0  0  0  0  0  0  0  0
    4.3724   -3.7084    0.9989 C   0  0  3  0  0  0  0  0  0  0  0  0
    3.1366   -2.9953    1.0274 O   0  0  0  0  0  0  0  0  0  0  0  0
    5.0400   -3.6430   -0.3797 C   0  0  0  0  0  0  0  0  0  0  0  0
    5.4622   -2.3053   -0.7517 N   0  0  0  0  0  0  0  0  0  0  0  0
    6.6903   -1.7486   -0.5495 C   0  0  0  0  0  0  0  0  0  0  0  0
    6.6409   -0.4716   -1.0741 C   0  0  0  0  0  0  0  0  0  0  0  0
    7.7667    0.4451   -1.0614 C   0  0  0  0  0  0  0  0  0  0  0  0
    9.0694   -0.0284   -1.0528 C   0  0  0  0  0  0  0  0  0  0  0  0
   10.1683    0.7346   -0.9813 N   0  0  0  0  0  0  0  0  0  0  0  0
   10.0495    2.0747   -0.9450 C   0  0  0  0  0  0  0  0  0  0  0  0
   11.2690    2.7172   -0.8195 N   0  0  0  0  0  0  0  0  0  0  0  0
    8.7684    2.7008   -1.0223 C   0  0  0  0  0  0  0  0  0  0  0  0
    8.3652    4.1188   -1.0897 C   0  0  0  0  0  0  0  0  0  0  0  0
    9.2060    5.3190   -1.1545 C   0  0  0  0  0  0  0  0  0  0  0  0
   10.3947    5.2901   -1.8762 C   0  0  0  0  0  0  0  0  0  0  0  0
   11.2901    6.3512   -1.8172 C   0  0  0  0  0  0  0  0  0  0  0  0
   10.9579    7.5383   -1.1657 C   0  0  0  0  0  0  0  0  0  0  0  0
   11.8302    8.6482   -1.1525 N   0  0  0  0  0  0  0  0  0  0  0  0
   12.8552    8.8228   -2.0661 C   0  0  0  0  0  0  0  0  0  0  0  0
   13.0444    8.1132   -3.0489 O   0  0  0  0  0  0  0  0  0  0  0  0
   13.6706    9.8919   -1.7382 N   0  0  0  0  0  0  0  0  0  0  0  0
   14.7117   10.2967   -2.6071 C   0  0  0  0  0  0  0  0  0  0  0  0
   14.5451   10.2873   -3.9988 C   0  0  0  0  0  0  0  0  0  0  0  0
   15.5984   10.6261   -4.8493 C   0  0  0  0  0  0  0  0  0  0  0  0
   16.8284   10.9799   -4.3058 C   0  0  0  0  0  0  0  0  0  0  0  0
   16.9836   11.0072   -2.9235 C   0  0  0  0  0  0  0  0  0  0  0  0
   18.1777   11.3237   -2.4045 F   0  0  0  0  0  0  0  0  0  0  0  0
   15.9339   10.6866   -2.0650 C   0  0  0  0  0  0  0  0  0  0  0  0
    9.7293    7.6189   -0.5072 C   0  0  0  0  0  0  0  0  0  0  0  0
    8.8666    6.5110   -0.4919 C   0  0  0  0  0  0  0  0  0  0  0  0
    6.9933    4.2564   -1.1298 C   0  0  0  0  0  0  0  0  0  0  0  0
    6.1773    2.7836   -1.0306 S   0  0  0  0  0  0  0  0  0  0  0  0
    7.6349    1.8537   -1.0504 C   0  0  0  0  0  0  0  0  0  0  0  0
    5.3238   -0.3740   -1.5788 C   0  0  0  0  0  0  0  0  0  0  0  0
    4.5910   -1.4698   -1.3400 N   0  0  0  0  0  0  0  0  0  0  0  0
    4.7477   -3.3545    3.0995 H   0  0  0  0  0  0  0  0  0  0  0  0
    5.4664   -2.1467    2.0548 H   0  0  0  0  0  0  0  0  0  0  0  0
    6.2011   -3.7589    2.1689 H   0  0  0  0  0  0  0  0  0  0  0  0
    4.1232   -4.7579    1.1953 H   0  0  0  0  0  0  0  0  0  0  0  0
    3.2568   -2.1602    0.5291 H   0  0  0  0  0  0  0  0  0  0  0  0
    4.3437   -3.9772   -1.1573 H   0  0  0  0  0  0  0  0  0  0  0  0
    5.9262   -4.2866   -0.4174 H   0  0  0  0  0  0  0  0  0  0  0  0
    7.4734   -2.2967   -0.0436 H   0  0  0  0  0  0  0  0  0  0  0  0
    9.2881   -1.0920   -1.0877 H   0  0  0  0  0  0  0  0  0  0  0  0
   11.9953    2.0419   -0.6055 H   0  0  0  0  0  0  0  0  0  0  0  0
   11.2587    3.5508   -0.2476 H   0  0  0  0  0  0  0  0  0  0  0  0
   10.6766    4.4247   -2.4717 H   0  0  0  0  0  0  0  0  0  0  0  0
   12.2547    6.2035   -2.2941 H   0  0  0  0  0  0  0  0  0  0  0  0
   11.5313    9.4747   -0.6560 H   0  0  0  0  0  0  0  0  0  0  0  0
   13.8194   10.0213   -0.7472 H   0  0  0  0  0  0  0  0  0  0  0  0
   13.5933   10.0014   -4.4450 H   0  0  0  0  0  0  0  0  0  0  0  0
   15.4563   10.5937   -5.9272 H   0  0  0  0  0  0  0  0  0  0  0  0
   17.6665   11.2261   -4.9495 H   0  0  0  0  0  0  0  0  0  0  0  0
   16.1118   10.6887   -0.9958 H   0  0  0  0  0  0  0  0  0  0  0  0
    9.4211    8.5329   -0.0090 H   0  0  0  0  0  0  0  0  0  0  0  0
    7.9252    6.5999    0.0460 H   0  0  0  0  0  0  0  0  0  0  0  0
    6.4170    5.1704   -1.2067 H   0  0  0  0  0  0  0  0  0  0  0  0
    4.8522    0.4408   -2.1116 H   0  0  0  0  0  0  0  0  0  0  0  0
  1  2  1  0  0  0  0
  1 37  1  0  0  0  0
  1 38  1  0  0  0  0
  1 39  1  0  0  0  0
  2  3  1  0  0  0  0
  2  4  1  0  0  0  0
  2 40  1  0  0  0  0
  3 41  1  0  0  0  0
  4  5  1  0  0  0  0
  4 42  1  0  0  0  0
  4 43  1  0  0  0  0
  5  6  1  0  0  0  0
  5 36  1  0  0  0  0
  6  7  2  0  0  0  0
  6 44  1  0  0  0  0
  7  8  1  0  0  0  0
  7 35  1  0  0  0  0
  8  9  1  0  0  0  0
  8 34  2  0  0  0  0
  9 10  2  0  0  0  0
  9 45  1  0  0  0  0
 10 11  1  0  0  0  0
 11 12  1  0  0  0  0
 11 13  2  0  0  0  0
 12 46  1  0  0  0  0
 12 47  1  0  0  0  0
 13 14  1  0  0  0  0
 13 34  1  0  0  0  0
 14 15  1  0  0  0  0
 14 32  2  0  0  0  0
 15 16  1  0  0  0  0
 15 31  2  0  0  0  0
 16 17  2  0  0  0  0
 16 48  1  0  0  0  0
 17 18  1  0  0  0  0
 17 49  1  0  0  0  0
 18 19  1  0  0  0  0
 18 30  2  0  0  0  0
 19 20  1  0  0  0  0
 19 50  1  0  0  0  0
 20 21  2  0  0  0  0
 20 22  1  0  0  0  0
 22 23  1  0  0  0  0
 22 51  1  0  0  0  0
 23 24  1  0  0  0  0
 23 29  2  0  0  0  0
 24 25  2  0  0  0  0
 24 52  1  0  0  0  0
 25 26  1  0  0  0  0
 25 53  1  0  0  0  0
 26 27  2  0  0  0  0
 26 54  1  0  0  0  0
 27 28  1  0  0  0  0
 27 29  1  0  0  0  0
 29 55  1  0  0  0  0
 30 31  1  0  0  0  0
 30 56  1  0  0  0  0
 31 57  1  0  0  0  0
 32 33  1  0  0  0  0
 32 58  1  0  0  0  0
 33 34  1  0  0  0  0
 35 36  2  0  0  0  0
 35 59  1  0  0  0  0
M  END
$$$$
