CHEMBL1940842
 OpenBabel04072215363D

 36 38  0  0  0  0  0  0  0  0999 V2000
    4.5853    0.2600   -0.0134 C   0  0  0  0  0  0  0  0  0  0  0  0
    3.1154   -0.0352    0.0003 C   0  0  0  0  0  0  0  0  0  0  0  0
    2.6438   -1.3481   -0.0010 C   0  0  0  0  0  0  0  0  0  0  0  0
    1.2688   -1.6044    0.0069 C   0  0  0  0  0  0  0  0  0  0  0  0
    0.3344   -0.5779    0.0087 C   0  0  0  0  0  0  0  0  0  0  0  0
   -0.9718   -0.8709    0.0090 N   0  0  0  0  0  0  0  0  0  0  0  0
   -1.8543    0.1586   -0.0110 C   0  0  0  0  0  0  0  0  0  0  0  0
   -3.4851   -0.4044   -0.0066 Cl  0  0  0  0  0  0  0  0  0  0  0  0
   -1.5151    1.5183   -0.0531 C   0  0  0  0  0  0  0  0  0  0  0  0
   -2.5192    2.6032   -0.0700 C   0  0  0  0  0  0  0  0  0  0  0  0
   -2.3506    3.8157   -0.6526 C   0  0  0  0  0  0  0  0  0  0  0  0
   -3.4169    4.8761   -0.6290 C   0  0  0  0  0  0  0  0  0  0  0  0
   -4.4720    4.6393   -0.0549 O   0  0  0  0  0  0  0  0  0  0  0  0
   -3.1442    6.1367   -1.3352 C   0  0  0  0  0  0  0  0  0  0  0  0
   -4.0458    7.0042   -1.9315 C   0  0  0  0  0  0  0  0  0  0  0  0
   -3.4101    8.1358   -2.5324 C   0  0  0  0  0  0  0  0  0  0  0  0
   -2.0487    8.1379   -2.3307 C   0  0  0  0  0  0  0  0  0  0  0  0
   -1.0625    9.1653   -2.7603 C   0  0  0  0  0  0  0  0  0  0  0  0
   -1.5429    6.7613   -1.4649 S   0  0  0  0  0  0  0  0  0  0  0  0
   -0.1406    1.7882   -0.0174 C   0  0  0  0  0  0  0  0  0  0  0  0
    0.8054    0.7493    0.0049 C   0  0  0  0  0  0  0  0  0  0  0  0
    2.1871    1.0111    0.0081 C   0  0  0  0  0  0  0  0  0  0  0  0
    5.1778   -0.6607   -0.0306 H   0  0  0  0  0  0  0  0  0  0  0  0
    4.8663    0.8244    0.8815 H   0  0  0  0  0  0  0  0  0  0  0  0
    4.8450    0.8419   -0.9035 H   0  0  0  0  0  0  0  0  0  0  0  0
    3.3373   -2.1860   -0.0106 H   0  0  0  0  0  0  0  0  0  0  0  0
    0.9179   -2.6340    0.0048 H   0  0  0  0  0  0  0  0  0  0  0  0
   -3.4693    2.3778    0.4070 H   0  0  0  0  0  0  0  0  0  0  0  0
   -1.4568    4.0710   -1.2019 H   0  0  0  0  0  0  0  0  0  0  0  0
   -5.1182    6.8487   -1.9693 H   0  0  0  0  0  0  0  0  0  0  0  0
   -3.9312    8.9231   -3.0657 H   0  0  0  0  0  0  0  0  0  0  0  0
   -1.5667    9.9697   -3.3062 H   0  0  0  0  0  0  0  0  0  0  0  0
   -0.3068    8.7339   -3.4241 H   0  0  0  0  0  0  0  0  0  0  0  0
   -0.5627    9.6140   -1.8956 H   0  0  0  0  0  0  0  0  0  0  0  0
    0.2209    2.8146   -0.0122 H   0  0  0  0  0  0  0  0  0  0  0  0
    2.5451    2.0394    0.0079 H   0  0  0  0  0  0  0  0  0  0  0  0
  1  2  1  0  0  0  0
  1 23  1  0  0  0  0
  1 24  1  0  0  0  0
  1 25  1  0  0  0  0
  2  3  1  0  0  0  0
  2 22  2  0  0  0  0
  3  4  2  0  0  0  0
  3 26  1  0  0  0  0
  4  5  1  0  0  0  0
  4 27  1  0  0  0  0
  5  6  1  0  0  0  0
  5 21  2  0  0  0  0
  6  7  2  0  0  0  0
  7  8  1  0  0  0  0
  7  9  1  0  0  0  0
  9 10  1  0  0  0  0
  9 20  2  0  0  0  0
 10 11  2  0  0  0  0
 10 28  1  0  0  0  0
 11 12  1  0  0  0  0
 11 29  1  0  0  0  0
 12 13  2  0  0  0  0
 12 14  1  0  0  0  0
 14 15  2  0  0  0  0
 14 19  1  0  0  0  0
 15 16  1  0  0  0  0
 15 30  1  0  0  0  0
 16 17  2  0  0  0  0
 16 31  1  0  0  0  0
 17 18  1  0  0  0  0
 17 19  1  0  0  0  0
 18 32  1  0  0  0  0
 18 33  1  0  0  0  0
 18 34  1  0  0  0  0
 20 21  1  0  0  0  0
 20 35  1  0  0  0  0
 21 22  1  0  0  0  0
 22 36  1  0  0  0  0
M  END
$$$$
