CHEMBL3660303
 OpenBabel04072215373D

 49 52  0  0  0  0  0  0  0  0999 V2000
    2.7878    0.8243   -2.4855 C   0  0  0  0  0  0  0  0  0  0  0  0
    1.3901    0.5367   -2.0224 C   0  0  0  0  0  0  0  0  0  0  0  0
    0.8823   -0.7640   -2.1063 C   0  0  0  0  0  0  0  0  0  0  0  0
   -0.3977   -1.0400   -1.6433 C   0  0  0  0  0  0  0  0  0  0  0  0
   -1.1854   -0.0211   -1.1143 C   0  0  0  0  0  0  0  0  0  0  0  0
   -2.3431   -0.4024   -0.5628 F   0  0  0  0  0  0  0  0  0  0  0  0
   -0.7366    1.3079   -1.0799 C   0  0  0  0  0  0  0  0  0  0  0  0
   -1.5158    2.4143   -0.6493 N   0  0  0  0  0  0  0  0  0  0  0  0
   -2.8984    2.4300   -0.5802 C   0  0  0  0  0  0  0  0  0  0  0  0
   -3.6387    1.5095   -0.9048 O   0  0  0  0  0  0  0  0  0  0  0  0
   -3.3971    3.6669   -0.1577 N   0  0  0  0  0  0  0  0  0  0  0  0
   -4.7959    3.7892    0.0472 C   0  0  0  0  0  0  0  0  0  0  0  0
   -5.4758    2.8525    0.8335 C   0  0  0  0  0  0  0  0  0  0  0  0
   -6.8662    2.8878    0.9347 C   0  0  0  0  0  0  0  0  0  0  0  0
   -7.5869    3.8972    0.2950 C   0  0  0  0  0  0  0  0  0  0  0  0
   -8.9615    4.0012    0.3282 O   0  0  0  0  0  0  0  0  0  0  0  0
   -9.6430    3.6185    1.4641 C   0  0  0  0  0  0  0  0  0  0  0  0
   -9.1616    3.8064    2.7560 C   0  0  0  0  0  0  0  0  0  0  0  0
   -9.9319    3.3500    3.8089 C   0  0  0  0  0  0  0  0  0  0  0  0
  -11.1469    2.7810    3.6613 N   0  0  0  0  0  0  0  0  0  0  0  0
  -11.6231    2.6646    2.3963 C   0  0  0  0  0  0  0  0  0  0  0  0
  -12.9594    2.0799    2.3153 C   0  0  0  0  0  0  0  0  0  0  0  0
  -13.8008    1.8124    1.2466 C   0  0  0  0  0  0  0  0  0  0  0  0
  -14.9972    1.2456    1.7564 C   0  0  0  0  0  0  0  0  0  0  0  0
  -14.8664    1.1744    3.1229 C   0  0  0  0  0  0  0  0  0  0  0  0
  -13.6332    1.6750    3.4496 N   0  0  0  0  0  0  0  0  0  0  0  0
  -10.9090    3.0689    1.2769 C   0  0  0  0  0  0  0  0  0  0  0  0
   -6.9086    4.8348   -0.4907 C   0  0  0  0  0  0  0  0  0  0  0  0
   -5.5115    4.7994   -0.5961 C   0  0  0  0  0  0  0  0  0  0  0  0
    0.5760    1.5672   -1.5077 C   0  0  0  0  0  0  0  0  0  0  0  0
    3.2829   -0.0857   -2.8430 H   0  0  0  0  0  0  0  0  0  0  0  0
    3.3845    1.2225   -1.6592 H   0  0  0  0  0  0  0  0  0  0  0  0
    2.7761    1.5435   -3.3098 H   0  0  0  0  0  0  0  0  0  0  0  0
    1.4842   -1.5737   -2.5116 H   0  0  0  0  0  0  0  0  0  0  0  0
   -0.7944   -2.0506   -1.6696 H   0  0  0  0  0  0  0  0  0  0  0  0
   -1.0423    3.2967   -0.5178 H   0  0  0  0  0  0  0  0  0  0  0  0
   -2.9435    4.4599   -0.5870 H   0  0  0  0  0  0  0  0  0  0  0  0
   -4.9297    2.0636    1.3466 H   0  0  0  0  0  0  0  0  0  0  0  0
   -7.3651    2.1080    1.5030 H   0  0  0  0  0  0  0  0  0  0  0  0
   -8.2040    4.2748    2.9492 H   0  0  0  0  0  0  0  0  0  0  0  0
   -9.5765    3.4313    4.8323 H   0  0  0  0  0  0  0  0  0  0  0  0
  -13.5834    2.0053    0.2055 H   0  0  0  0  0  0  0  0  0  0  0  0
  -15.8600    0.9266    1.1845 H   0  0  0  0  0  0  0  0  0  0  0  0
  -15.5364    0.8113    3.8887 H   0  0  0  0  0  0  0  0  0  0  0  0
  -13.2416    1.7555    4.3807 H   0  0  0  0  0  0  0  0  0  0  0  0
  -11.3155    2.9593    0.2786 H   0  0  0  0  0  0  0  0  0  0  0  0
   -7.4723    5.5803   -1.0461 H   0  0  0  0  0  0  0  0  0  0  0  0
   -5.0124    5.5134   -1.2437 H   0  0  0  0  0  0  0  0  0  0  0  0
    0.9759    2.5778   -1.4708 H   0  0  0  0  0  0  0  0  0  0  0  0
  1  2  1  0  0  0  0
  1 31  1  0  0  0  0
  1 32  1  0  0  0  0
  1 33  1  0  0  0  0
  2  3  1  0  0  0  0
  2 30  2  0  0  0  0
  3  4  2  0  0  0  0
  3 34  1  0  0  0  0
  4  5  1  0  0  0  0
  4 35  1  0  0  0  0
  5  6  1  0  0  0  0
  5  7  2  0  0  0  0
  7  8  1  0  0  0  0
  7 30  1  0  0  0  0
  8  9  1  0  0  0  0
  8 36  1  0  0  0  0
  9 10  2  0  0  0  0
  9 11  1  0  0  0  0
 11 12  1  0  0  0  0
 11 37  1  0  0  0  0
 12 13  1  0  0  0  0
 12 29  2  0  0  0  0
 13 14  2  0  0  0  0
 13 38  1  0  0  0  0
 14 15  1  0  0  0  0
 14 39  1  0  0  0  0
 15 16  1  0  0  0  0
 15 28  2  0  0  0  0
 16 17  1  0  0  0  0
 17 18  1  0  0  0  0
 17 27  2  0  0  0  0
 18 19  2  0  0  0  0
 18 40  1  0  0  0  0
 19 20  1  0  0  0  0
 19 41  1  0  0  0  0
 20 21  2  0  0  0  0
 21 22  1  0  0  0  0
 21 27  1  0  0  0  0
 22 23  2  0  0  0  0
 22 26  1  0  0  0  0
 23 24  1  0  0  0  0
 23 42  1  0  0  0  0
 24 25  2  0  0  0  0
 24 43  1  0  0  0  0
 25 26  1  0  0  0  0
 25 44  1  0  0  0  0
 26 45  1  0  0  0  0
 27 46  1  0  0  0  0
 28 29  1  0  0  0  0
 28 47  1  0  0  0  0
 29 48  1  0  0  0  0
 30 49  1  0  0  0  0
M  END
$$$$
