CHEMBL3671550
 OpenBabel04072215373D

 53 55  0  0  1  0  0  0  0  0999 V2000
    3.6992    3.1535    2.8764 C   0  0  0  0  0  0  0  0  0  0  0  0
    3.6165    1.8167    2.8426 C   0  0  0  0  0  0  0  0  0  0  0  0
    3.6326    1.1241    1.5241 C   0  0  0  0  0  0  0  0  0  0  0  0
    3.1284    1.6128    0.5253 O   0  0  0  0  0  0  0  0  0  0  0  0
    4.3036   -0.0791    1.4614 N   0  0  0  0  0  0  0  0  0  0  0  0
    5.1577   -0.5486    2.4715 C   0  0  0  0  0  0  0  0  0  0  0  0
    6.3231    0.1674    2.7166 C   0  0  0  0  0  0  0  0  0  0  0  0
    7.0438   -0.0402    3.9047 C   0  0  0  0  0  0  0  0  0  0  0  0
    8.1214    0.7539    4.3104 C   0  0  0  0  0  0  0  0  0  0  0  0
    8.4682    1.9054    3.5536 N   0  0  0  0  0  0  0  0  0  0  0  0
    9.2495    2.9744    4.0515 C   0  0  0  0  0  0  0  0  0  0  0  0
    9.0004    3.5009    5.3266 C   0  0  0  0  0  0  0  0  0  0  0  0
    9.8477    4.4575    5.8847 C   0  0  0  0  0  0  0  0  0  0  0  0
   10.9488    4.9067    5.1609 C   0  0  0  0  0  0  0  0  0  0  0  0
   12.1667    6.1022    5.9730 Br  0  0  0  0  0  0  0  0  0  0  0  0
   11.1753    4.4541    3.8631 C   0  0  0  0  0  0  0  0  0  0  0  0
   10.3178    3.4988    3.3204 C   0  0  0  0  0  0  0  0  0  0  0  0
   10.5550    3.0477    2.0761 F   0  0  0  0  0  0  0  0  0  0  0  0
    8.7757    0.5174    5.4633 N   0  0  0  0  0  0  0  0  0  0  0  0
    8.3288   -0.4831    6.2247 C   0  0  0  0  0  0  0  0  0  0  0  0
    7.2738   -1.2621    5.9613 N   0  0  0  0  0  0  0  0  0  0  0  0
    6.6341   -1.0349    4.8107 C   0  0  0  0  0  0  0  0  0  0  0  0
    5.5164   -1.7994    4.4976 C   0  0  0  0  0  0  0  0  0  0  0  0
    4.7921   -1.5996    3.3171 C   0  0  0  0  0  0  0  0  0  0  0  0
    3.7733   -2.4939    3.1016 O   0  0  0  0  0  0  0  0  0  0  0  0
    3.5698   -2.9125    1.7334 C   0  0  3  0  0  0  0  0  0  0  0  0
    4.8175   -3.5541    1.1169 C   0  0  0  0  0  0  0  0  0  0  0  0
    2.3950   -3.9055    1.6960 C   0  0  0  0  0  0  0  0  0  0  0  0
    1.1684   -3.2640    2.1331 N   0  0  0  0  0  0  0  0  0  0  0  0
   -0.0617   -3.5797    1.5998 C   0  0  0  0  0  0  0  0  0  0  0  0
   -1.2057   -2.8132    2.2012 C   0  0  0  0  0  0  0  0  0  0  0  0
   -0.2256   -4.4104    0.7101 O   0  0  0  0  0  0  0  0  0  0  0  0
    3.7790    3.6798    3.8211 H   0  0  0  0  0  0  0  0  0  0  0  0
    3.7215    3.7431    1.9647 H   0  0  0  0  0  0  0  0  0  0  0  0
    3.6177    1.2311    3.7507 H   0  0  0  0  0  0  0  0  0  0  0  0
    4.5813   -0.2530    0.5033 H   0  0  0  0  0  0  0  0  0  0  0  0
    6.6265    0.9402    2.0157 H   0  0  0  0  0  0  0  0  0  0  0  0
    8.6988    1.6743    2.5912 H   0  0  0  0  0  0  0  0  0  0  0  0
    8.1522    3.1402    5.9054 H   0  0  0  0  0  0  0  0  0  0  0  0
    9.6528    4.8142    6.8927 H   0  0  0  0  0  0  0  0  0  0  0  0
   12.0225    4.8078    3.2835 H   0  0  0  0  0  0  0  0  0  0  0  0
    8.8660   -0.6721    7.1475 H   0  0  0  0  0  0  0  0  0  0  0  0
    5.1995   -2.5701    5.1976 H   0  0  0  0  0  0  0  0  0  0  0  0
    3.2468   -2.0629    1.1292 H   0  0  0  0  0  0  0  0  0  0  0  0
    4.9880   -4.5588    1.5174 H   0  0  0  0  0  0  0  0  0  0  0  0
    5.7309   -2.9835    1.3145 H   0  0  0  0  0  0  0  0  0  0  0  0
    4.7071   -3.6274    0.0311 H   0  0  0  0  0  0  0  0  0  0  0  0
    2.5688   -4.7583    2.3618 H   0  0  0  0  0  0  0  0  0  0  0  0
    2.2604   -4.2819    0.6786 H   0  0  0  0  0  0  0  0  0  0  0  0
    1.2119   -2.7048    2.9754 H   0  0  0  0  0  0  0  0  0  0  0  0
   -0.8582   -2.0081    2.8547 H   0  0  0  0  0  0  0  0  0  0  0  0
   -1.8295   -3.4980    2.7835 H   0  0  0  0  0  0  0  0  0  0  0  0
   -1.8015   -2.3671    1.3970 H   0  0  0  0  0  0  0  0  0  0  0  0
  1  2  2  0  0  0  0
  1 33  1  0  0  0  0
  1 34  1  0  0  0  0
  2  3  1  0  0  0  0
  2 35  1  0  0  0  0
  3  4  2  0  0  0  0
  3  5  1  0  0  0  0
  5  6  1  0  0  0  0
  5 36  1  0  0  0  0
  6  7  1  0  0  0  0
  6 24  2  0  0  0  0
  7  8  2  0  0  0  0
  7 37  1  0  0  0  0
  8  9  1  0  0  0  0
  8 22  1  0  0  0  0
  9 10  1  0  0  0  0
  9 19  2  0  0  0  0
 10 11  1  0  0  0  0
 10 38  1  0  0  0  0
 11 12  1  0  0  0  0
 11 17  2  0  0  0  0
 12 13  2  0  0  0  0
 12 39  1  0  0  0  0
 13 14  1  0  0  0  0
 13 40  1  0  0  0  0
 14 15  1  0  0  0  0
 14 16  2  0  0  0  0
 16 17  1  0  0  0  0
 16 41  1  0  0  0  0
 17 18  1  0  0  0  0
 19 20  1  0  0  0  0
 20 21  2  0  0  0  0
 20 42  1  0  0  0  0
 21 22  1  0  0  0  0
 22 23  2  0  0  0  0
 23 24  1  0  0  0  0
 23 43  1  0  0  0  0
 24 25  1  0  0  0  0
 25 26  1  0  0  0  0
 26 27  1  0  0  0  0
 26 28  1  0  0  0  0
 26 44  1  0  0  0  0
 27 45  1  0  0  0  0
 27 46  1  0  0  0  0
 27 47  1  0  0  0  0
 28 29  1  0  0  0  0
 28 48  1  0  0  0  0
 28 49  1  0  0  0  0
 29 30  1  0  0  0  0
 29 50  1  0  0  0  0
 30 31  1  0  0  0  0
 30 32  2  0  0  0  0
 31 51  1  0  0  0  0
 31 52  1  0  0  0  0
 31 53  1  0  0  0  0
M  END
$$$$
