CHEMBL3593290
 OpenBabel04072215363D

 69 73  0  0  0  0  0  0  0  0999 V2000
    2.2318    7.0962    5.9079 C   0  0  0  0  0  0  0  0  0  0  0  0
    1.5255    5.7594    5.7598 C   0  0  0  0  0  0  0  0  0  0  0  0
    2.4929    4.6523    5.5985 C   0  0  0  0  0  0  0  0  0  0  0  0
    3.1348    4.0732    4.5315 C   0  0  0  0  0  0  0  0  0  0  0  0
    3.9259    3.0559    5.1077 C   0  0  0  0  0  0  0  0  0  0  0  0
    4.7532    2.2071    4.4007 N   0  0  0  0  0  0  0  0  0  0  0  0
    5.5391    1.1987    4.8935 C   0  0  0  0  0  0  0  0  0  0  0  0
    6.2487    0.5860    4.0987 O   0  0  0  0  0  0  0  0  0  0  0  0
    5.4326    0.9558    6.2350 N   0  0  0  0  0  0  0  0  0  0  0  0
    6.1342    0.0298    7.0116 C   0  0  0  0  0  0  0  0  0  0  0  0
    7.2650   -0.6422    6.5620 C   0  0  0  0  0  0  0  0  0  0  0  0
    7.9003   -1.5651    7.3899 C   0  0  0  0  0  0  0  0  0  0  0  0
    7.4165   -1.8328    8.6808 C   0  0  0  0  0  0  0  0  0  0  0  0
    8.1213   -2.7906    9.5256 C   0  0  0  0  0  0  0  0  0  0  0  0
    9.4695   -3.0744    9.5493 C   0  0  0  0  0  0  0  0  0  0  0  0
    9.8557   -4.0391   10.4378 N   0  0  0  0  0  0  0  0  0  0  0  0
    8.8239   -4.5401   11.0804 C   0  0  0  0  0  0  0  0  0  0  0  0
    8.8661   -5.5604   11.9694 N   0  0  0  0  0  0  0  0  0  0  0  0
    9.8966   -6.5095   12.0424 C   0  0  0  0  0  0  0  0  0  0  0  0
   11.1826   -6.2365   11.6279 C   0  0  0  0  0  0  0  0  0  0  0  0
   12.1071   -7.2530   11.5790 C   0  0  0  0  0  0  0  0  0  0  0  0
   13.3812   -7.0184   11.1194 N   0  0  0  0  0  0  0  0  0  0  0  0
   14.1069   -8.0670   10.4055 C   0  0  0  0  0  0  0  0  0  0  0  0
   15.5563   -8.1517   10.9273 C   0  0  0  0  0  0  0  0  0  0  0  0
   16.2986   -6.8641   10.9419 N   0  0  0  0  0  0  0  0  0  0  0  0
   16.5701   -6.3219    9.6019 C   0  0  0  0  0  0  0  0  0  0  0  0
   17.4430   -7.2259    8.7417 C   0  0  0  0  0  0  0  0  0  0  0  0
   15.4942   -5.8949   11.7291 C   0  0  0  0  0  0  0  0  0  0  0  0
   14.0339   -5.7137   11.2492 C   0  0  0  0  0  0  0  0  0  0  0  0
   11.7698   -8.4822   11.9855 N   0  0  0  0  0  0  0  0  0  0  0  0
   10.5290   -8.6620   12.4727 C   0  0  0  0  0  0  0  0  0  0  0  0
   10.1925  -10.0114   13.0149 C   0  0  0  0  0  0  0  0  0  0  0  0
    9.5662   -7.7187   12.5147 N   0  0  0  0  0  0  0  0  0  0  0  0
    7.3231   -3.7971   10.6683 S   0  0  0  0  0  0  0  0  0  0  0  0
    6.2938   -1.1330    9.1331 C   0  0  0  0  0  0  0  0  0  0  0  0
    5.6631   -0.2030    8.3079 C   0  0  0  0  0  0  0  0  0  0  0  0
    3.7619    3.0234    6.4349 N   0  0  0  0  0  0  0  0  0  0  0  0
    2.8750    4.0285    6.7413 O   0  0  0  0  0  0  0  0  0  0  0  0
    1.5028    7.8912    6.0921 H   0  0  0  0  0  0  0  0  0  0  0  0
    2.7899    7.3493    4.9999 H   0  0  0  0  0  0  0  0  0  0  0  0
    2.9407    7.0819    6.7431 H   0  0  0  0  0  0  0  0  0  0  0  0
    0.8522    5.7887    4.8962 H   0  0  0  0  0  0  0  0  0  0  0  0
    0.9037    5.5762    6.6437 H   0  0  0  0  0  0  0  0  0  0  0  0
    3.0429    4.3466    3.4915 H   0  0  0  0  0  0  0  0  0  0  0  0
    4.8255    2.3311    3.4014 H   0  0  0  0  0  0  0  0  0  0  0  0
    4.6950    1.4712    6.7056 H   0  0  0  0  0  0  0  0  0  0  0  0
    7.6863   -0.4555    5.5794 H   0  0  0  0  0  0  0  0  0  0  0  0
    8.7793   -2.0763    7.0026 H   0  0  0  0  0  0  0  0  0  0  0  0
   10.2237   -2.5993    8.9335 H   0  0  0  0  0  0  0  0  0  0  0  0
    7.9972   -5.9671   12.2880 H   0  0  0  0  0  0  0  0  0  0  0  0
   11.4637   -5.2537   11.2859 H   0  0  0  0  0  0  0  0  0  0  0  0
   14.1070   -7.8341    9.3330 H   0  0  0  0  0  0  0  0  0  0  0  0
   13.6382   -9.0530   10.5028 H   0  0  0  0  0  0  0  0  0  0  0  0
   16.1096   -8.9141   10.3700 H   0  0  0  0  0  0  0  0  0  0  0  0
   15.5213   -8.5260   11.9599 H   0  0  0  0  0  0  0  0  0  0  0  0
   17.1070   -5.3718    9.7193 H   0  0  0  0  0  0  0  0  0  0  0  0
   15.6521   -6.0948    9.0488 H   0  0  0  0  0  0  0  0  0  0  0  0
   18.3724   -7.4867    9.2568 H   0  0  0  0  0  0  0  0  0  0  0  0
   17.7041   -6.7093    7.8121 H   0  0  0  0  0  0  0  0  0  0  0  0
   16.9228   -8.1476    8.4643 H   0  0  0  0  0  0  0  0  0  0  0  0
   15.9945   -4.9200   11.7593 H   0  0  0  0  0  0  0  0  0  0  0  0
   15.4693   -6.2451   12.7703 H   0  0  0  0  0  0  0  0  0  0  0  0
   13.9984   -5.1855   10.2900 H   0  0  0  0  0  0  0  0  0  0  0  0
   13.5345   -5.0759   11.9883 H   0  0  0  0  0  0  0  0  0  0  0  0
   11.0421  -10.6948   12.9172 H   0  0  0  0  0  0  0  0  0  0  0  0
    9.3438  -10.4311   12.4693 H   0  0  0  0  0  0  0  0  0  0  0  0
    9.9337   -9.9327   14.0751 H   0  0  0  0  0  0  0  0  0  0  0  0
    5.9007   -1.2911   10.1355 H   0  0  0  0  0  0  0  0  0  0  0  0
    4.7914    0.3249    8.6872 H   0  0  0  0  0  0  0  0  0  0  0  0
  1  2  1  0  0  0  0
  1 39  1  0  0  0  0
  1 40  1  0  0  0  0
  1 41  1  0  0  0  0
  2  3  1  0  0  0  0
  2 42  1  0  0  0  0
  2 43  1  0  0  0  0
  3  4  2  0  0  0  0
  3 38  1  0  0  0  0
  4  5  1  0  0  0  0
  4 44  1  0  0  0  0
  5  6  1  0  0  0  0
  5 37  2  0  0  0  0
  6  7  1  0  0  0  0
  6 45  1  0  0  0  0
  7  8  2  0  0  0  0
  7  9  1  0  0  0  0
  9 10  1  0  0  0  0
  9 46  1  0  0  0  0
 10 11  1  0  0  0  0
 10 36  2  0  0  0  0
 11 12  2  0  0  0  0
 11 47  1  0  0  0  0
 12 13  1  0  0  0  0
 12 48  1  0  0  0  0
 13 14  1  0  0  0  0
 13 35  2  0  0  0  0
 14 15  2  0  0  0  0
 14 34  1  0  0  0  0
 15 16  1  0  0  0  0
 15 49  1  0  0  0  0
 16 17  2  0  0  0  0
 17 18  1  0  0  0  0
 17 34  1  0  0  0  0
 18 19  1  0  0  0  0
 18 50  1  0  0  0  0
 19 20  1  0  0  0  0
 19 33  2  0  0  0  0
 20 21  2  0  0  0  0
 20 51  1  0  0  0  0
 21 22  1  0  0  0  0
 21 30  1  0  0  0  0
 22 23  1  0  0  0  0
 22 29  1  0  0  0  0
 23 24  1  0  0  0  0
 23 52  1  0  0  0  0
 23 53  1  0  0  0  0
 24 25  1  0  0  0  0
 24 54  1  0  0  0  0
 24 55  1  0  0  0  0
 25 26  1  0  0  0  0
 25 28  1  0  0  0  0
 26 27  1  0  0  0  0
 26 56  1  0  0  0  0
 26 57  1  0  0  0  0
 27 58  1  0  0  0  0
 27 59  1  0  0  0  0
 27 60  1  0  0  0  0
 28 29  1  0  0  0  0
 28 61  1  0  0  0  0
 28 62  1  0  0  0  0
 29 63  1  0  0  0  0
 29 64  1  0  0  0  0
 30 31  2  0  0  0  0
 31 32  1  0  0  0  0
 31 33  1  0  0  0  0
 32 65  1  0  0  0  0
 32 66  1  0  0  0  0
 32 67  1  0  0  0  0
 35 36  1  0  0  0  0
 35 68  1  0  0  0  0
 36 69  1  0  0  0  0
 37 38  1  0  0  0  0
M  END
$$$$
