CHEMBL189584
 OpenBabel04072215363D

 79 81  0  0  0  0  0  0  0  0999 V2000
    3.5515    3.6031    0.9719 C   0  0  0  0  0  0  0  0  0  0  0  0
    5.0284    3.2952    0.7509 C   0  0  0  0  0  0  0  0  0  0  0  0
    5.7137    4.1038   -0.2710 N   0  0  0  0  0  0  0  0  0  0  0  0
    5.6130    5.5595   -0.0309 C   0  0  0  0  0  0  0  0  0  0  0  0
    6.2943    6.0946    1.2284 C   0  0  0  0  0  0  0  0  0  0  0  0
    7.1249    3.6835   -0.4197 C   0  0  0  0  0  0  0  0  0  0  0  0
    7.3342    2.2181   -0.8518 C   0  0  0  0  0  0  0  0  0  0  0  0
    6.7400    1.8459   -2.2160 C   0  0  0  0  0  0  0  0  0  0  0  0
    7.3372    2.6289   -3.3940 C   0  0  0  0  0  0  0  0  0  0  0  0
    8.7728    2.3720   -3.5125 N   0  0  0  0  0  0  0  0  0  0  0  0
    9.4481    3.0707   -4.4947 C   0  0  0  0  0  0  0  0  0  0  0  0
    9.0026    4.2784   -4.8599 N   0  0  0  0  0  0  0  0  0  0  0  0
    9.7041    4.9264   -5.7796 C   0  0  0  0  0  0  0  0  0  0  0  0
   10.8694    4.4232   -6.3393 C   0  0  0  0  0  0  0  0  0  0  0  0
   11.6012    5.1510   -7.2748 C   0  0  0  0  0  0  0  0  0  0  0  0
   12.8120    4.6700   -7.8091 C   0  0  0  0  0  0  0  0  0  0  0  0
   13.5285    5.5194   -8.7909 C   0  0  0  0  0  0  0  0  0  0  0  0
   13.4625    6.9303   -8.7209 C   0  0  0  0  0  0  0  0  0  0  0  0
   14.1714    7.7573   -9.5934 C   0  0  0  0  0  0  0  0  0  0  0  0
   14.1628    9.1260   -9.5763 O   0  0  0  0  0  0  0  0  0  0  0  0
   13.3926    9.7589   -8.5589 C   0  0  0  0  0  0  0  0  0  0  0  0
   14.9840    7.1799  -10.5686 C   0  0  0  0  0  0  0  0  0  0  0  0
   15.0533    5.7941  -10.6826 C   0  0  0  0  0  0  0  0  0  0  0  0
   15.8187    5.1151  -11.5916 O   0  0  0  0  0  0  0  0  0  0  0  0
   17.0418    5.7499  -11.9447 C   0  0  0  0  0  0  0  0  0  0  0  0
   14.2955    4.9829   -9.8372 C   0  0  0  0  0  0  0  0  0  0  0  0
   13.1964    3.3822   -7.3511 C   0  0  0  0  0  0  0  0  0  0  0  0
   14.3490    2.7378   -7.8990 N   0  0  0  0  0  0  0  0  0  0  0  0
   15.5924    2.8885   -7.2737 C   0  0  0  0  0  0  0  0  0  0  0  0
   15.7821    3.5736   -6.2856 O   0  0  0  0  0  0  0  0  0  0  0  0
   16.5904    2.1460   -7.8949 N   0  0  0  0  0  0  0  0  0  0  0  0
   18.0120    2.0543   -7.3912 C   0  0  0  0  0  0  0  0  0  0  0  0
   18.0349    1.3804   -6.0090 C   0  0  0  0  0  0  0  0  0  0  0  0
   18.9042    1.1990   -8.3294 C   0  0  0  0  0  0  0  0  0  0  0  0
   18.6838    3.4348   -7.2777 C   0  0  0  0  0  0  0  0  0  0  0  0
   12.4158    2.6471   -6.4958 N   0  0  0  0  0  0  0  0  0  0  0  0
   11.2898    3.1670   -5.9411 C   0  0  0  0  0  0  0  0  0  0  0  0
   10.5536    2.4951   -5.0281 N   0  0  0  0  0  0  0  0  0  0  0  0
    3.0934    2.7774    1.5282 H   0  0  0  0  0  0  0  0  0  0  0  0
    3.0119    3.7000    0.0238 H   0  0  0  0  0  0  0  0  0  0  0  0
    3.4086    4.5143    1.5592 H   0  0  0  0  0  0  0  0  0  0  0  0
    5.0507    2.2461    0.4394 H   0  0  0  0  0  0  0  0  0  0  0  0
    5.5526    3.3492    1.7121 H   0  0  0  0  0  0  0  0  0  0  0  0
    4.5561    5.8503   -0.0081 H   0  0  0  0  0  0  0  0  0  0  0  0
    6.0213    6.0951   -0.8984 H   0  0  0  0  0  0  0  0  0  0  0  0
    6.1183    5.4605    2.1012 H   0  0  0  0  0  0  0  0  0  0  0  0
    5.9043    7.0895    1.4698 H   0  0  0  0  0  0  0  0  0  0  0  0
    7.3757    6.1888    1.0845 H   0  0  0  0  0  0  0  0  0  0  0  0
    7.6569    3.8255    0.5302 H   0  0  0  0  0  0  0  0  0  0  0  0
    7.6252    4.3305   -1.1497 H   0  0  0  0  0  0  0  0  0  0  0  0
    6.9254    1.5375   -0.0942 H   0  0  0  0  0  0  0  0  0  0  0  0
    8.4099    2.0086   -0.8569 H   0  0  0  0  0  0  0  0  0  0  0  0
    5.6530    1.9921   -2.1959 H   0  0  0  0  0  0  0  0  0  0  0  0
    6.8999    0.7727   -2.3799 H   0  0  0  0  0  0  0  0  0  0  0  0
    7.1202    3.6966   -3.2563 H   0  0  0  0  0  0  0  0  0  0  0  0
    6.8257    2.3118   -4.3128 H   0  0  0  0  0  0  0  0  0  0  0  0
    9.0501    1.4017   -3.5741 H   0  0  0  0  0  0  0  0  0  0  0  0
    9.3045    5.8947   -6.0550 H   0  0  0  0  0  0  0  0  0  0  0  0
   11.1963    6.1071   -7.5945 H   0  0  0  0  0  0  0  0  0  0  0  0
   12.8490    7.3885   -7.9521 H   0  0  0  0  0  0  0  0  0  0  0  0
   13.4876   10.8409   -8.6901 H   0  0  0  0  0  0  0  0  0  0  0  0
   13.7713    9.5097   -7.5614 H   0  0  0  0  0  0  0  0  0  0  0  0
   12.3302    9.5076   -8.6505 H   0  0  0  0  0  0  0  0  0  0  0  0
   15.5465    7.8296  -11.2283 H   0  0  0  0  0  0  0  0  0  0  0  0
   17.7575    4.9635  -12.2028 H   0  0  0  0  0  0  0  0  0  0  0  0
   17.4763    6.3276  -11.1210 H   0  0  0  0  0  0  0  0  0  0  0  0
   16.8904    6.3809  -12.8250 H   0  0  0  0  0  0  0  0  0  0  0  0
   14.3421    3.9122  -10.0052 H   0  0  0  0  0  0  0  0  0  0  0  0
   14.1751    1.7560   -8.0617 H   0  0  0  0  0  0  0  0  0  0  0  0
   16.4678    1.9600   -8.8861 H   0  0  0  0  0  0  0  0  0  0  0  0
   17.6225    0.3662   -6.0571 H   0  0  0  0  0  0  0  0  0  0  0  0
   17.4473    1.9424   -5.2772 H   0  0  0  0  0  0  0  0  0  0  0  0
   19.0572    1.3093   -5.6185 H   0  0  0  0  0  0  0  0  0  0  0  0
   18.5574    0.1612   -8.3999 H   0  0  0  0  0  0  0  0  0  0  0  0
   19.9389    1.1641   -7.9604 H   0  0  0  0  0  0  0  0  0  0  0  0
   18.9434    1.6093   -9.3467 H   0  0  0  0  0  0  0  0  0  0  0  0
   18.1965    4.0651   -6.5288 H   0  0  0  0  0  0  0  0  0  0  0  0
   18.6719    3.9695   -8.2332 H   0  0  0  0  0  0  0  0  0  0  0  0
   19.7321    3.3344   -6.9664 H   0  0  0  0  0  0  0  0  0  0  0  0
  1  2  1  0  0  0  0
  1 39  1  0  0  0  0
  1 40  1  0  0  0  0
  1 41  1  0  0  0  0
  2  3  1  0  0  0  0
  2 42  1  0  0  0  0
  2 43  1  0  0  0  0
  3  4  1  0  0  0  0
  3  6  1  0  0  0  0
  4  5  1  0  0  0  0
  4 44  1  0  0  0  0
  4 45  1  0  0  0  0
  5 46  1  0  0  0  0
  5 47  1  0  0  0  0
  5 48  1  0  0  0  0
  6  7  1  0  0  0  0
  6 49  1  0  0  0  0
  6 50  1  0  0  0  0
  7  8  1  0  0  0  0
  7 51  1  0  0  0  0
  7 52  1  0  0  0  0
  8  9  1  0  0  0  0
  8 53  1  0  0  0  0
  8 54  1  0  0  0  0
  9 10  1  0  0  0  0
  9 55  1  0  0  0  0
  9 56  1  0  0  0  0
 10 11  1  0  0  0  0
 10 57  1  0  0  0  0
 11 12  1  0  0  0  0
 11 38  2  0  0  0  0
 12 13  2  0  0  0  0
 13 14  1  0  0  0  0
 13 58  1  0  0  0  0
 14 15  1  0  0  0  0
 14 37  2  0  0  0  0
 15 16  2  0  0  0  0
 15 59  1  0  0  0  0
 16 17  1  0  0  0  0
 16 27  1  0  0  0  0
 17 18  1  0  0  0  0
 17 26  2  0  0  0  0
 18 19  2  0  0  0  0
 18 60  1  0  0  0  0
 19 20  1  0  0  0  0
 19 22  1  0  0  0  0
 20 21  1  0  0  0  0
 21 61  1  0  0  0  0
 21 62  1  0  0  0  0
 21 63  1  0  0  0  0
 22 23  2  0  0  0  0
 22 64  1  0  0  0  0
 23 24  1  0  0  0  0
 23 26  1  0  0  0  0
 24 25  1  0  0  0  0
 25 65  1  0  0  0  0
 25 66  1  0  0  0  0
 25 67  1  0  0  0  0
 26 68  1  0  0  0  0
 27 28  1  0  0  0  0
 27 36  2  0  0  0  0
 28 29  1  0  0  0  0
 28 69  1  0  0  0  0
 29 30  2  0  0  0  0
 29 31  1  0  0  0  0
 31 32  1  0  0  0  0
 31 70  1  0  0  0  0
 32 33  1  0  0  0  0
 32 34  1  0  0  0  0
 32 35  1  0  0  0  0
 33 71  1  0  0  0  0
 33 72  1  0  0  0  0
 33 73  1  0  0  0  0
 34 74  1  0  0  0  0
 34 75  1  0  0  0  0
 34 76  1  0  0  0  0
 35 77  1  0  0  0  0
 35 78  1  0  0  0  0
 35 79  1  0  0  0  0
 36 37  1  0  0  0  0
 37 38  1  0  0  0  0
M  END
$$$$
