CHEMBL3942328
 OpenBabel04072215373D

 64 67  0  0  0  0  0  0  0  0999 V2000
    1.9962   -3.3071    0.2457 C   0  0  0  0  0  0  0  0  0  0  0  0
    3.3256   -3.0022    0.6952 N   0  0  0  0  0  0  0  0  0  0  0  0
    4.3511   -3.9141    0.6359 C   0  0  0  0  0  0  0  0  0  0  0  0
    4.2265   -5.0149    0.1091 O   0  0  0  0  0  0  0  0  0  0  0  0
    5.6908   -3.4509    1.1798 C   0  0  0  0  0  0  0  0  0  0  0  0
    5.5748   -2.6095    2.3604 N   0  0  0  0  0  0  0  0  0  0  0  0
    6.0394   -2.8888    3.6102 C   0  0  0  0  0  0  0  0  0  0  0  0
    5.7846   -1.7718    4.3835 C   0  0  0  0  0  0  0  0  0  0  0  0
    6.1969   -1.6263    5.7633 C   0  0  0  0  0  0  0  0  0  0  0  0
    5.5907   -0.7404    6.6384 C   0  0  0  0  0  0  0  0  0  0  0  0
    6.0287   -0.5483    7.9049 N   0  0  0  0  0  0  0  0  0  0  0  0
    7.1236   -1.2483    8.2693 C   0  0  0  0  0  0  0  0  0  0  0  0
    7.6754   -1.0704    9.5258 C   0  0  0  0  0  0  0  0  0  0  0  0
    8.8523   -1.7315    9.8972 C   0  0  0  0  0  0  0  0  0  0  0  0
    9.5027   -2.6257    9.0301 C   0  0  0  0  0  0  0  0  0  0  0  0
   10.7182   -3.2231    9.4400 N   0  0  0  0  0  0  0  0  0  0  0  0
   11.6877   -3.7566    8.4368 C   0  0  0  0  0  0  0  0  0  0  0  0
   11.9558   -2.9567    7.1530 C   0  0  0  0  0  0  0  0  0  0  0  0
   12.3336   -1.4922    7.3352 C   0  0  0  0  0  0  0  0  0  0  0  0
   12.5476   -0.8987    6.0128 N   0  0  0  0  0  0  0  0  0  0  0  0
   10.8699   -3.8734   10.7196 C   0  0  0  0  0  0  0  0  0  0  0  0
    9.7591   -4.4117   11.4057 C   0  0  0  0  0  0  0  0  0  0  0  0
    9.8988   -5.0200   12.6589 C   0  0  0  0  0  0  0  0  0  0  0  0
    8.8922   -5.5567   13.4150 O   0  0  0  0  0  0  0  0  0  0  0  0
    7.5728   -5.4817   12.8891 C   0  0  0  0  0  0  0  0  0  0  0  0
   11.1652   -5.1246   13.2401 C   0  0  0  0  0  0  0  0  0  0  0  0
   12.2832   -4.6296   12.5783 C   0  0  0  0  0  0  0  0  0  0  0  0
   13.5785   -4.7089   13.0170 O   0  0  0  0  0  0  0  0  0  0  0  0
   13.8009   -5.3577   14.2636 C   0  0  0  0  0  0  0  0  0  0  0  0
   12.1241   -3.9897   11.3434 C   0  0  0  0  0  0  0  0  0  0  0  0
    8.8823   -2.8529    7.7982 C   0  0  0  0  0  0  0  0  0  0  0  0
    7.7410   -2.1646    7.3886 C   0  0  0  0  0  0  0  0  0  0  0  0
    7.2628   -2.3713    6.1478 N   0  0  0  0  0  0  0  0  0  0  0  0
    5.1464   -0.8779    3.4981 C   0  0  0  0  0  0  0  0  0  0  0  0
    5.0049   -1.3835    2.2667 N   0  0  0  0  0  0  0  0  0  0  0  0
    1.3353   -2.4852    0.5296 H   0  0  0  0  0  0  0  0  0  0  0  0
    1.6591   -4.2369    0.7118 H   0  0  0  0  0  0  0  0  0  0  0  0
    2.0043   -3.4254   -0.8409 H   0  0  0  0  0  0  0  0  0  0  0  0
    3.5108   -2.1007    1.1432 H   0  0  0  0  0  0  0  0  0  0  0  0
    6.2290   -2.8851    0.4161 H   0  0  0  0  0  0  0  0  0  0  0  0
    6.2796   -4.3305    1.4587 H   0  0  0  0  0  0  0  0  0  0  0  0
    6.5219   -3.8260    3.8516 H   0  0  0  0  0  0  0  0  0  0  0  0
    4.7261   -0.1472    6.3556 H   0  0  0  0  0  0  0  0  0  0  0  0
    7.2018   -0.3830   10.2216 H   0  0  0  0  0  0  0  0  0  0  0  0
    9.2726   -1.5265   10.8803 H   0  0  0  0  0  0  0  0  0  0  0  0
   11.3823   -4.7727    8.1579 H   0  0  0  0  0  0  0  0  0  0  0  0
   12.6799   -3.8595    8.8907 H   0  0  0  0  0  0  0  0  0  0  0  0
   11.1231   -3.0387    6.4508 H   0  0  0  0  0  0  0  0  0  0  0  0
   12.7888   -3.4622    6.6416 H   0  0  0  0  0  0  0  0  0  0  0  0
   13.2503   -1.3999    7.9265 H   0  0  0  0  0  0  0  0  0  0  0  0
   11.5419   -0.9348    7.8426 H   0  0  0  0  0  0  0  0  0  0  0  0
   13.2767   -1.4041    5.5117 H   0  0  0  0  0  0  0  0  0  0  0  0
   12.8719    0.0618    6.1106 H   0  0  0  0  0  0  0  0  0  0  0  0
    8.7831   -4.3625   10.9358 H   0  0  0  0  0  0  0  0  0  0  0  0
    6.8989   -5.9441   13.6174 H   0  0  0  0  0  0  0  0  0  0  0  0
    7.4900   -6.0435   11.9546 H   0  0  0  0  0  0  0  0  0  0  0  0
    7.2587   -4.4408   12.7591 H   0  0  0  0  0  0  0  0  0  0  0  0
   11.2399   -5.6023   14.2104 H   0  0  0  0  0  0  0  0  0  0  0  0
   14.8818   -5.4710   14.3925 H   0  0  0  0  0  0  0  0  0  0  0  0
   13.3645   -6.3619   14.2887 H   0  0  0  0  0  0  0  0  0  0  0  0
   13.4246   -4.7417   15.0864 H   0  0  0  0  0  0  0  0  0  0  0  0
   13.0123   -3.5600   10.8888 H   0  0  0  0  0  0  0  0  0  0  0  0
    9.2772   -3.5873    7.1045 H   0  0  0  0  0  0  0  0  0  0  0  0
    4.7973    0.1300    3.6828 H   0  0  0  0  0  0  0  0  0  0  0  0
  1  2  1  0  0  0  0
  1 36  1  0  0  0  0
  1 37  1  0  0  0  0
  1 38  1  0  0  0  0
  2  3  1  0  0  0  0
  2 39  1  0  0  0  0
  3  4  2  0  0  0  0
  3  5  1  0  0  0  0
  5  6  1  0  0  0  0
  5 40  1  0  0  0  0
  5 41  1  0  0  0  0
  6  7  1  0  0  0  0
  6 35  1  0  0  0  0
  7  8  2  0  0  0  0
  7 42  1  0  0  0  0
  8  9  1  0  0  0  0
  8 34  1  0  0  0  0
  9 10  1  0  0  0  0
  9 33  2  0  0  0  0
 10 11  2  0  0  0  0
 10 43  1  0  0  0  0
 11 12  1  0  0  0  0
 12 13  1  0  0  0  0
 12 32  2  0  0  0  0
 13 14  2  0  0  0  0
 13 44  1  0  0  0  0
 14 15  1  0  0  0  0
 14 45  1  0  0  0  0
 15 16  1  0  0  0  0
 15 31  2  0  0  0  0
 16 17  1  0  0  0  0
 16 21  1  0  0  0  0
 17 18  1  0  0  0  0
 17 46  1  0  0  0  0
 17 47  1  0  0  0  0
 18 19  1  0  0  0  0
 18 48  1  0  0  0  0
 18 49  1  0  0  0  0
 19 20  1  0  0  0  0
 19 50  1  0  0  0  0
 19 51  1  0  0  0  0
 20 52  1  0  0  0  0
 20 53  1  0  0  0  0
 21 22  1  0  0  0  0
 21 30  2  0  0  0  0
 22 23  2  0  0  0  0
 22 54  1  0  0  0  0
 23 24  1  0  0  0  0
 23 26  1  0  0  0  0
 24 25  1  0  0  0  0
 25 55  1  0  0  0  0
 25 56  1  0  0  0  0
 25 57  1  0  0  0  0
 26 27  2  0  0  0  0
 26 58  1  0  0  0  0
 27 28  1  0  0  0  0
 27 30  1  0  0  0  0
 28 29  1  0  0  0  0
 29 59  1  0  0  0  0
 29 60  1  0  0  0  0
 29 61  1  0  0  0  0
 30 62  1  0  0  0  0
 31 32  1  0  0  0  0
 31 63  1  0  0  0  0
 32 33  1  0  0  0  0
 34 35  2  0  0  0  0
 34 64  1  0  0  0  0
M  END
$$$$
