CHEMBL1985367
 OpenBabel04072215363D

 37 39  0  0  0  0  0  0  0  0999 V2000
   -2.3257    0.8200   -2.2040 C   0  0  0  0  0  0  0  0  0  0  0  0
   -0.9750    0.5222   -1.6286 C   0  0  0  0  0  0  0  0  0  0  0  0
   -0.4382   -0.7617   -1.6890 C   0  0  0  0  0  0  0  0  0  0  0  0
    0.8341   -0.9633   -1.1912 C   0  0  0  0  0  0  0  0  0  0  0  0
    1.5961    0.0178   -0.6671 N   0  0  0  0  0  0  0  0  0  0  0  0
    1.0780    1.2630   -0.5957 C   0  0  0  0  0  0  0  0  0  0  0  0
    1.8660    2.3189   -0.1003 N   0  0  0  0  0  0  0  0  0  0  0  0
    3.2721    2.3378   -0.0916 C   0  0  0  0  0  0  0  0  0  0  0  0
    3.9743    1.8055   -1.1587 C   0  0  0  0  0  0  0  0  0  0  0  0
    5.3449    1.8510   -1.1041 C   0  0  0  0  0  0  0  0  0  0  0  0
    6.1805    1.2503   -2.1896 C   0  0  0  0  0  0  0  0  0  0  0  0
    5.9917    2.4143   -0.0726 N   0  0  0  0  0  0  0  0  0  0  0  0
    5.2407    2.9386    0.9182 C   0  0  0  0  0  0  0  0  0  0  0  0
    5.9730    3.5402    2.0534 C   0  0  0  0  0  0  0  0  0  0  0  0
    7.3804    3.4663    2.1258 C   0  0  0  0  0  0  0  0  0  0  0  0
    8.0969    4.0265    3.1869 C   0  0  0  0  0  0  0  0  0  0  0  0
    7.4173    4.6799    4.2086 C   0  0  0  0  0  0  0  0  0  0  0  0
    6.0279    4.7695    4.1683 C   0  0  0  0  0  0  0  0  0  0  0  0
    5.3151    4.2047    3.1031 C   0  0  0  0  0  0  0  0  0  0  0  0
    3.8907    2.9363    0.9419 N   0  0  0  0  0  0  0  0  0  0  0  0
   -0.2103    1.5416   -1.0474 C   0  0  0  0  0  0  0  0  0  0  0  0
   -2.7930   -0.0824   -2.6135 H   0  0  0  0  0  0  0  0  0  0  0  0
   -2.2347    1.5459   -3.0195 H   0  0  0  0  0  0  0  0  0  0  0  0
   -2.9875    1.2229   -1.4327 H   0  0  0  0  0  0  0  0  0  0  0  0
   -0.9875   -1.5906   -2.1220 H   0  0  0  0  0  0  0  0  0  0  0  0
    1.2971   -1.9456   -1.2091 H   0  0  0  0  0  0  0  0  0  0  0  0
    1.5084    2.7009    0.7656 H   0  0  0  0  0  0  0  0  0  0  0  0
    3.4604    1.3544   -1.9982 H   0  0  0  0  0  0  0  0  0  0  0  0
    5.5632    0.8177   -2.9835 H   0  0  0  0  0  0  0  0  0  0  0  0
    6.8064    0.4550   -1.7741 H   0  0  0  0  0  0  0  0  0  0  0  0
    6.8225    2.0161   -2.6346 H   0  0  0  0  0  0  0  0  0  0  0  0
    7.9383    2.9565    1.3390 H   0  0  0  0  0  0  0  0  0  0  0  0
    9.1808    3.9476    3.2093 H   0  0  0  0  0  0  0  0  0  0  0  0
    7.9702    5.1176    5.0355 H   0  0  0  0  0  0  0  0  0  0  0  0
    5.4930    5.2786    4.9661 H   0  0  0  0  0  0  0  0  0  0  0  0
    4.2298    4.2893    3.0959 H   0  0  0  0  0  0  0  0  0  0  0  0
   -0.5907    2.5578   -1.0060 H   0  0  0  0  0  0  0  0  0  0  0  0
  1  2  1  0  0  0  0
  1 22  1  0  0  0  0
  1 23  1  0  0  0  0
  1 24  1  0  0  0  0
  2  3  1  0  0  0  0
  2 21  2  0  0  0  0
  3  4  2  0  0  0  0
  3 25  1  0  0  0  0
  4  5  1  0  0  0  0
  4 26  1  0  0  0  0
  5  6  2  0  0  0  0
  6  7  1  0  0  0  0
  6 21  1  0  0  0  0
  7  8  1  0  0  0  0
  7 27  1  0  0  0  0
  8  9  1  0  0  0  0
  8 20  2  0  0  0  0
  9 10  2  0  0  0  0
  9 28  1  0  0  0  0
 10 11  1  0  0  0  0
 10 12  1  0  0  0  0
 11 29  1  0  0  0  0
 11 30  1  0  0  0  0
 11 31  1  0  0  0  0
 12 13  2  0  0  0  0
 13 14  1  0  0  0  0
 13 20  1  0  0  0  0
 14 15  1  0  0  0  0
 14 19  2  0  0  0  0
 15 16  2  0  0  0  0
 15 32  1  0  0  0  0
 16 17  1  0  0  0  0
 16 33  1  0  0  0  0
 17 18  2  0  0  0  0
 17 34  1  0  0  0  0
 18 19  1  0  0  0  0
 18 35  1  0  0  0  0
 19 36  1  0  0  0  0
 21 37  1  0  0  0  0
M  END
$$$$
