CHEMBL4068509
 OpenBabel04072215383D

 68 71  0  0  0  0  0  0  0  0999 V2000
    1.7886    0.3649    0.9355 C   0  0  0  0  0  0  0  0  0  0  0  0
    3.0138    0.7920    1.2718 C   0  0  0  0  0  0  0  0  0  0  0  0
    3.7035    1.7946    0.4253 C   0  0  0  0  0  0  0  0  0  0  0  0
    3.1014    2.7967    0.0541 O   0  0  0  0  0  0  0  0  0  0  0  0
    5.0255    1.5369    0.1306 N   0  0  0  0  0  0  0  0  0  0  0  0
    5.7523    0.2922    0.4083 C   0  0  0  0  0  0  0  0  0  0  0  0
    7.0760    0.6007    1.1298 C   0  0  0  0  0  0  0  0  0  0  0  0
    7.9459    1.5627    0.4134 N   0  0  0  0  0  0  0  0  0  0  0  0
    8.5070    1.0330   -0.8423 C   0  0  0  0  0  0  0  0  0  0  0  0
    9.3773   -0.2095   -0.6467 C   0  0  0  0  0  0  0  0  0  0  0  0
    9.9435   -0.6850   -1.9860 C   0  0  0  0  0  0  0  0  0  0  0  0
   10.7356   -1.8954   -1.8291 N   0  0  0  0  0  0  0  0  0  0  0  0
   10.0959   -3.1232   -1.8986 C   0  0  0  0  0  0  0  0  0  0  0  0
    8.8872   -3.2516   -2.1005 O   0  0  0  0  0  0  0  0  0  0  0  0
   10.9387   -4.3478   -1.7069 C   0  0  0  0  0  0  0  0  0  0  0  0
   10.3313   -5.6872   -1.8532 C   0  0  0  0  0  0  0  0  0  0  0  0
    9.7807   -6.3611   -0.7321 C   0  0  0  0  0  0  0  0  0  0  0  0
    9.7824   -5.5117    0.7883 Cl  0  0  0  0  0  0  0  0  0  0  0  0
    9.2566   -7.6558   -0.8864 C   0  0  0  0  0  0  0  0  0  0  0  0
    8.7269   -8.5231    0.0308 O   0  0  0  0  0  0  0  0  0  0  0  0
    8.6243   -8.1846    1.4025 C   0  0  0  0  0  0  0  0  0  0  0  0
    9.2462   -8.2370   -2.1710 C   0  0  0  0  0  0  0  0  0  0  0  0
    9.7437   -7.5703   -3.2922 C   0  0  0  0  0  0  0  0  0  0  0  0
    9.7382   -8.0777   -4.5647 O   0  0  0  0  0  0  0  0  0  0  0  0
    9.1327   -9.3434   -4.7832 C   0  0  0  0  0  0  0  0  0  0  0  0
   10.3000   -6.2962   -3.1245 C   0  0  0  0  0  0  0  0  0  0  0  0
   10.9682   -5.4742   -4.5107 Cl  0  0  0  0  0  0  0  0  0  0  0  0
   12.2386   -4.2407   -1.3934 C   0  0  0  0  0  0  0  0  0  0  0  0
   12.8270   -2.9248   -1.2325 C   0  0  0  0  0  0  0  0  0  0  0  0
   14.1265   -2.7333   -0.8276 C   0  0  0  0  0  0  0  0  0  0  0  0
   14.6735   -1.5219   -0.6310 N   0  0  0  0  0  0  0  0  0  0  0  0
   13.8992   -0.4541   -0.8628 C   0  0  0  0  0  0  0  0  0  0  0  0
   14.3748    0.8007   -0.6096 N   0  0  0  0  0  0  0  0  0  0  0  0
   15.7331    1.0415   -0.2010 C   0  0  0  0  0  0  0  0  0  0  0  0
   12.6328   -0.5373   -1.2950 N   0  0  0  0  0  0  0  0  0  0  0  0
   12.1036   -1.7692   -1.4535 C   0  0  0  0  0  0  0  0  0  0  0  0
    7.1589    2.7968    0.1441 C   0  0  0  0  0  0  0  0  0  0  0  0
    5.8111    2.5530   -0.5715 C   0  0  0  0  0  0  0  0  0  0  0  0
    1.2622   -0.3500    1.5540 H   0  0  0  0  0  0  0  0  0  0  0  0
    1.2946    0.7266    0.0372 H   0  0  0  0  0  0  0  0  0  0  0  0
    3.5100    0.4535    2.1694 H   0  0  0  0  0  0  0  0  0  0  0  0
    5.9373   -0.2021   -0.5542 H   0  0  0  0  0  0  0  0  0  0  0  0
    5.1630   -0.4068    1.0049 H   0  0  0  0  0  0  0  0  0  0  0  0
    7.6080   -0.3269    1.3602 H   0  0  0  0  0  0  0  0  0  0  0  0
    6.8390    1.0356    2.1108 H   0  0  0  0  0  0  0  0  0  0  0  0
    9.1361    1.8084   -1.2955 H   0  0  0  0  0  0  0  0  0  0  0  0
    7.7227    0.8041   -1.5735 H   0  0  0  0  0  0  0  0  0  0  0  0
    8.7966   -1.0298   -0.2139 H   0  0  0  0  0  0  0  0  0  0  0  0
   10.1905    0.0112    0.0545 H   0  0  0  0  0  0  0  0  0  0  0  0
   10.5332    0.0959   -2.4801 H   0  0  0  0  0  0  0  0  0  0  0  0
    9.1060   -0.9034   -2.6652 H   0  0  0  0  0  0  0  0  0  0  0  0
    8.2383   -9.0617    1.9317 H   0  0  0  0  0  0  0  0  0  0  0  0
    7.9013   -7.3774    1.5519 H   0  0  0  0  0  0  0  0  0  0  0  0
    9.6024   -7.9644    1.8388 H   0  0  0  0  0  0  0  0  0  0  0  0
    8.8281   -9.2368   -2.2603 H   0  0  0  0  0  0  0  0  0  0  0  0
    9.1666   -9.5461   -5.8584 H   0  0  0  0  0  0  0  0  0  0  0  0
    8.0809   -9.3428   -4.4792 H   0  0  0  0  0  0  0  0  0  0  0  0
    9.6938  -10.1342   -4.2761 H   0  0  0  0  0  0  0  0  0  0  0  0
   12.8700   -5.1119   -1.2464 H   0  0  0  0  0  0  0  0  0  0  0  0
   14.7915   -3.5673   -0.6235 H   0  0  0  0  0  0  0  0  0  0  0  0
   13.8135    1.5465   -0.9928 H   0  0  0  0  0  0  0  0  0  0  0  0
   16.2731    0.1400    0.1051 H   0  0  0  0  0  0  0  0  0  0  0  0
   15.7300    1.7188    0.6587 H   0  0  0  0  0  0  0  0  0  0  0  0
   16.2979    1.5199   -1.0062 H   0  0  0  0  0  0  0  0  0  0  0  0
    7.7610    3.5154   -0.4227 H   0  0  0  0  0  0  0  0  0  0  0  0
    6.9542    3.2749    1.1104 H   0  0  0  0  0  0  0  0  0  0  0  0
    5.9694    2.1992   -1.5975 H   0  0  0  0  0  0  0  0  0  0  0  0
    5.2631    3.4989   -0.6403 H   0  0  0  0  0  0  0  0  0  0  0  0
  1  2  2  0  0  0  0
  1 39  1  0  0  0  0
  1 40  1  0  0  0  0
  2  3  1  0  0  0  0
  2 41  1  0  0  0  0
  3  4  2  0  0  0  0
  3  5  1  0  0  0  0
  5  6  1  0  0  0  0
  5 38  1  0  0  0  0
  6  7  1  0  0  0  0
  6 42  1  0  0  0  0
  6 43  1  0  0  0  0
  7  8  1  0  0  0  0
  7 44  1  0  0  0  0
  7 45  1  0  0  0  0
  8  9  1  0  0  0  0
  8 37  1  0  0  0  0
  9 10  1  0  0  0  0
  9 46  1  0  0  0  0
  9 47  1  0  0  0  0
 10 11  1  0  0  0  0
 10 48  1  0  0  0  0
 10 49  1  0  0  0  0
 11 12  1  0  0  0  0
 11 50  1  0  0  0  0
 11 51  1  0  0  0  0
 12 13  1  0  0  0  0
 12 36  1  0  0  0  0
 13 14  2  0  0  0  0
 13 15  1  0  0  0  0
 15 16  1  0  0  0  0
 15 28  2  0  0  0  0
 16 17  1  0  0  0  0
 16 26  2  0  0  0  0
 17 18  1  0  0  0  0
 17 19  2  0  0  0  0
 19 20  1  0  0  0  0
 19 22  1  0  0  0  0
 20 21  1  0  0  0  0
 21 52  1  0  0  0  0
 21 53  1  0  0  0  0
 21 54  1  0  0  0  0
 22 23  2  0  0  0  0
 22 55  1  0  0  0  0
 23 24  1  0  0  0  0
 23 26  1  0  0  0  0
 24 25  1  0  0  0  0
 25 56  1  0  0  0  0
 25 57  1  0  0  0  0
 25 58  1  0  0  0  0
 26 27  1  0  0  0  0
 28 29  1  0  0  0  0
 28 59  1  0  0  0  0
 29 30  1  0  0  0  0
 29 36  2  0  0  0  0
 30 31  2  0  0  0  0
 30 60  1  0  0  0  0
 31 32  1  0  0  0  0
 32 33  1  0  0  0  0
 32 35  2  0  0  0  0
 33 34  1  0  0  0  0
 33 61  1  0  0  0  0
 34 62  1  0  0  0  0
 34 63  1  0  0  0  0
 34 64  1  0  0  0  0
 35 36  1  0  0  0  0
 37 38  1  0  0  0  0
 37 65  1  0  0  0  0
 37 66  1  0  0  0  0
 38 67  1  0  0  0  0
 38 68  1  0  0  0  0
M  END
$$$$
