CHEMBL3969112
 OpenBabel04072215373D

 83 87  0  0  0  0  0  0  0  0999 V2000
    1.1488    0.3640    0.4261 C   0  0  0  0  0  0  0  0  0  0  0  0
    2.1857   -0.0914   -0.4487 O   0  0  0  0  0  0  0  0  0  0  0  0
    2.8640    0.8763   -1.1524 C   0  0  0  0  0  0  0  0  0  0  0  0
    2.4838    2.2049   -1.2308 C   0  0  0  0  0  0  0  0  0  0  0  0
    3.2381    3.1023   -1.9891 C   0  0  0  0  0  0  0  0  0  0  0  0
    2.9507    4.4308   -2.1482 O   0  0  0  0  0  0  0  0  0  0  0  0
    1.9168    4.9426   -1.3187 C   0  0  0  0  0  0  0  0  0  0  0  0
    4.3917    2.6775   -2.6613 C   0  0  0  0  0  0  0  0  0  0  0  0
    4.8614    1.3702   -2.5652 C   0  0  0  0  0  0  0  0  0  0  0  0
    6.0741    1.0020   -3.2090 N   0  0  0  0  0  0  0  0  0  0  0  0
    6.6481   -0.3410   -2.8044 C   0  0  0  0  0  0  0  0  0  0  0  0
    7.7428   -0.0734   -1.7707 C   0  0  0  0  0  0  0  0  0  0  0  0
    8.4595   -1.1941   -1.1277 N   0  0  0  0  0  0  0  0  0  0  0  0
    9.1802   -2.0084   -2.1166 C   0  0  0  0  0  0  0  0  0  0  0  0
   10.3276   -2.8444   -1.5420 C   0  0  0  0  0  0  0  0  0  0  0  0
   11.2800   -2.0494   -0.6302 C   0  0  0  0  0  0  0  0  0  0  0  0
   12.3188   -1.1201   -1.3530 C   0  0  0  0  0  0  0  0  0  0  0  0
   11.8203   -0.0491   -2.3315 C   0  0  0  0  0  0  0  0  0  0  0  0
   13.2299   -0.4220   -0.3313 C   0  0  0  0  0  0  0  0  0  0  0  0
   13.1846   -1.9824   -2.1147 O   0  0  0  0  0  0  0  0  0  0  0  0
   10.4133   -1.4127    0.4598 C   0  0  0  0  0  0  0  0  0  0  0  0
    9.3110   -0.5501   -0.1116 C   0  0  0  0  0  0  0  0  0  0  0  0
    7.0081    1.7157   -4.0721 C   0  0  0  0  0  0  0  0  0  0  0  0
    7.3392    0.9912   -5.2032 C   0  0  0  0  0  0  0  0  0  0  0  0
    8.5899    1.1544   -5.7106 C   0  0  0  0  0  0  0  0  0  0  0  0
    9.4754    2.1062   -5.3289 C   0  0  0  0  0  0  0  0  0  0  0  0
   10.7002    1.8074   -5.7439 N   0  0  0  0  0  0  0  0  0  0  0  0
   11.5725    2.8036   -5.8390 C   0  0  0  0  0  0  0  0  0  0  0  0
   11.1987    4.1122   -5.6642 C   0  0  0  0  0  0  0  0  0  0  0  0
   12.0183    5.0131   -6.5551 C   0  0  0  0  0  0  0  0  0  0  0  0
   12.8229    6.1628   -6.3631 C   0  0  0  0  0  0  0  0  0  0  0  0
   13.6176    6.4586   -7.4107 N   0  0  0  0  0  0  0  0  0  0  0  0
   13.3777    5.4854   -8.3181 N   0  0  0  0  0  0  0  0  0  0  0  0
   14.0283    5.5404   -9.6424 C   0  0  0  0  0  0  0  0  0  0  0  0
   14.5663    4.2220  -10.2371 C   0  0  0  0  0  0  0  0  0  0  0  0
   13.1179    6.2053  -10.6804 C   0  0  0  0  0  0  0  0  0  0  0  0
   12.4477    4.5960   -7.8348 C   0  0  0  0  0  0  0  0  0  0  0  0
   10.0051    4.3704   -4.9551 N   0  0  0  0  0  0  0  0  0  0  0  0
    9.0688    3.2548   -4.6686 C   0  0  0  0  0  0  0  0  0  0  0  0
    7.7932    2.9221   -3.8683 C   0  0  0  0  0  0  0  0  0  0  0  0
    4.0232    0.4653   -1.8397 C   0  0  0  0  0  0  0  0  0  0  0  0
    0.7838   -0.4856    1.0129 H   0  0  0  0  0  0  0  0  0  0  0  0
    0.2987    0.7586   -0.1423 H   0  0  0  0  0  0  0  0  0  0  0  0
    1.5236    1.1120    1.1348 H   0  0  0  0  0  0  0  0  0  0  0  0
    1.5904    2.5392   -0.7209 H   0  0  0  0  0  0  0  0  0  0  0  0
    1.8730    6.0233   -1.4676 H   0  0  0  0  0  0  0  0  0  0  0  0
    2.1285    4.7576   -0.2585 H   0  0  0  0  0  0  0  0  0  0  0  0
    0.9470    4.5211   -1.6054 H   0  0  0  0  0  0  0  0  0  0  0  0
    4.9325    3.3988   -3.2638 H   0  0  0  0  0  0  0  0  0  0  0  0
    7.0407   -0.8982   -3.6642 H   0  0  0  0  0  0  0  0  0  0  0  0
    5.9254   -1.0440   -2.3860 H   0  0  0  0  0  0  0  0  0  0  0  0
    7.2727    0.5222   -0.9777 H   0  0  0  0  0  0  0  0  0  0  0  0
    8.4932    0.5698   -2.2463 H   0  0  0  0  0  0  0  0  0  0  0  0
    9.5553   -1.3968   -2.9388 H   0  0  0  0  0  0  0  0  0  0  0  0
    8.4690   -2.7031   -2.5837 H   0  0  0  0  0  0  0  0  0  0  0  0
   10.8767   -3.3422   -2.3484 H   0  0  0  0  0  0  0  0  0  0  0  0
    9.8867   -3.6568   -0.9449 H   0  0  0  0  0  0  0  0  0  0  0  0
   11.8904   -2.8099   -0.1190 H   0  0  0  0  0  0  0  0  0  0  0  0
   11.2066    0.7189   -1.8602 H   0  0  0  0  0  0  0  0  0  0  0  0
   11.2908   -0.4744   -3.1847 H   0  0  0  0  0  0  0  0  0  0  0  0
   12.6744    0.4717   -2.7846 H   0  0  0  0  0  0  0  0  0  0  0  0
   12.6813    0.2928    0.2895 H   0  0  0  0  0  0  0  0  0  0  0  0
   14.0307    0.1298   -0.8384 H   0  0  0  0  0  0  0  0  0  0  0  0
   13.7250   -1.1521    0.3174 H   0  0  0  0  0  0  0  0  0  0  0  0
   12.6841   -2.3116   -2.8802 H   0  0  0  0  0  0  0  0  0  0  0  0
   11.0103   -0.8237    1.1621 H   0  0  0  0  0  0  0  0  0  0  0  0
    9.9512   -2.2073    1.0611 H   0  0  0  0  0  0  0  0  0  0  0  0
    9.7621    0.3675   -0.4994 H   0  0  0  0  0  0  0  0  0  0  0  0
    8.6643   -0.2265    0.7139 H   0  0  0  0  0  0  0  0  0  0  0  0
    6.7274    0.1769   -5.5450 H   0  0  0  0  0  0  0  0  0  0  0  0
    8.9375    0.4288   -6.4688 H   0  0  0  0  0  0  0  0  0  0  0  0
   12.5300    2.5115   -6.2472 H   0  0  0  0  0  0  0  0  0  0  0  0
   12.9239    6.7850   -5.4827 H   0  0  0  0  0  0  0  0  0  0  0  0
   14.9082    6.1871   -9.5150 H   0  0  0  0  0  0  0  0  0  0  0  0
   13.7929    3.4548  -10.3367 H   0  0  0  0  0  0  0  0  0  0  0  0
   15.3920    3.8131   -9.6466 H   0  0  0  0  0  0  0  0  0  0  0  0
   14.9684    4.3975  -11.2483 H   0  0  0  0  0  0  0  0  0  0  0  0
   12.1925    5.6373  -10.8203 H   0  0  0  0  0  0  0  0  0  0  0  0
   13.6152    6.2747  -11.6571 H   0  0  0  0  0  0  0  0  0  0  0  0
   12.8565    7.2222  -10.3746 H   0  0  0  0  0  0  0  0  0  0  0  0
   12.2009    3.7167   -8.4149 H   0  0  0  0  0  0  0  0  0  0  0  0
    7.5003    3.6101   -3.0691 H   0  0  0  0  0  0  0  0  0  0  0  0
    4.2086   -0.6050   -1.7969 H   0  0  0  0  0  0  0  0  0  0  0  0
  1  2  1  0  0  0  0
  1 42  1  0  0  0  0
  1 43  1  0  0  0  0
  1 44  1  0  0  0  0
  2  3  1  0  0  0  0
  3  4  1  0  0  0  0
  3 41  2  0  0  0  0
  4  5  2  0  0  0  0
  4 45  1  0  0  0  0
  5  6  1  0  0  0  0
  5  8  1  0  0  0  0
  6  7  1  0  0  0  0
  7 46  1  0  0  0  0
  7 47  1  0  0  0  0
  7 48  1  0  0  0  0
  8  9  2  0  0  0  0
  8 49  1  0  0  0  0
  9 10  1  0  0  0  0
  9 41  1  0  0  0  0
 10 11  1  0  0  0  0
 10 23  1  0  0  0  0
 11 12  1  0  0  0  0
 11 50  1  0  0  0  0
 11 51  1  0  0  0  0
 12 13  1  0  0  0  0
 12 52  1  0  0  0  0
 12 53  1  0  0  0  0
 13 14  1  0  0  0  0
 13 22  1  0  0  0  0
 14 15  1  0  0  0  0
 14 54  1  0  0  0  0
 14 55  1  0  0  0  0
 15 16  1  0  0  0  0
 15 56  1  0  0  0  0
 15 57  1  0  0  0  0
 16 17  1  0  0  0  0
 16 21  1  0  0  0  0
 16 58  1  0  0  0  0
 17 18  1  0  0  0  0
 17 19  1  0  0  0  0
 17 20  1  0  0  0  0
 18 59  1  0  0  0  0
 18 60  1  0  0  0  0
 18 61  1  0  0  0  0
 19 62  1  0  0  0  0
 19 63  1  0  0  0  0
 19 64  1  0  0  0  0
 20 65  1  0  0  0  0
 21 22  1  0  0  0  0
 21 66  1  0  0  0  0
 21 67  1  0  0  0  0
 22 68  1  0  0  0  0
 22 69  1  0  0  0  0
 23 24  1  0  0  0  0
 23 40  2  0  0  0  0
 24 25  2  0  0  0  0
 24 70  1  0  0  0  0
 25 26  1  0  0  0  0
 25 71  1  0  0  0  0
 26 27  1  0  0  0  0
 26 39  2  0  0  0  0
 27 28  2  0  0  0  0
 28 29  1  0  0  0  0
 28 72  1  0  0  0  0
 29 30  1  0  0  0  0
 29 38  2  0  0  0  0
 30 31  1  0  0  0  0
 30 37  2  0  0  0  0
 31 32  2  0  0  0  0
 31 73  1  0  0  0  0
 32 33  1  0  0  0  0
 33 34  1  0  0  0  0
 33 37  1  0  0  0  0
 34 35  1  0  0  0  0
 34 36  1  0  0  0  0
 34 74  1  0  0  0  0
 35 75  1  0  0  0  0
 35 76  1  0  0  0  0
 35 77  1  0  0  0  0
 36 78  1  0  0  0  0
 36 79  1  0  0  0  0
 36 80  1  0  0  0  0
 37 81  1  0  0  0  0
 38 39  1  0  0  0  0
 39 40  1  0  0  0  0
 40 82  1  0  0  0  0
 41 83  1  0  0  0  0
M  END
$$$$
