CHEMBL1095463
 OpenBabel04072215363D

 50 53  0  0  0  0  0  0  0  0999 V2000
    0.3646   -1.1477    0.4958 C   0  0  0  0  0  0  0  0  0  0  0  0
   -0.0409    0.1418    1.2070 C   0  0  0  0  0  0  0  0  0  0  0  0
   -1.4268   -0.0003    1.8460 C   0  0  0  0  0  0  0  0  0  0  0  0
    1.0091    0.5366    2.2266 C   0  0  0  0  0  0  0  0  0  0  0  0
    1.7023    1.7411    2.0837 C   0  0  0  0  0  0  0  0  0  0  0  0
    2.6224    2.1373    3.0527 C   0  0  0  0  0  0  0  0  0  0  0  0
    2.8545    1.3592    4.1929 C   0  0  0  0  0  0  0  0  0  0  0  0
    3.7500    1.7809    5.1980 N   0  0  0  0  0  0  0  0  0  0  0  0
    3.9444    3.1362    5.5270 C   0  0  0  0  0  0  0  0  0  0  0  0
    2.9269    4.0088    5.3768 N   0  0  0  0  0  0  0  0  0  0  0  0
    3.1260    5.3214    5.5806 C   0  0  0  0  0  0  0  0  0  0  0  0
    2.0362    6.1319    5.3188 N   0  0  0  0  0  0  0  0  0  0  0  0
    4.2543    5.8897    6.0062 N   0  0  0  0  0  0  0  0  0  0  0  0
    5.2339    4.9993    6.2078 C   0  0  0  0  0  0  0  0  0  0  0  0
    6.5002    5.2866    6.6609 N   0  0  0  0  0  0  0  0  0  0  0  0
    7.1986    4.1083    6.8747 C   0  0  0  0  0  0  0  0  0  0  0  0
    8.5491    4.0420    7.5084 C   0  0  0  0  0  0  0  0  0  0  0  0
    8.5397    3.8372    9.0151 C   0  0  0  0  0  0  0  0  0  0  0  0
    8.4973    2.5229    9.5350 C   0  0  0  0  0  0  0  0  0  0  0  0
    8.5606    2.2883   10.9129 C   0  0  0  0  0  0  0  0  0  0  0  0
    8.6732    3.3546   11.7927 C   0  0  0  0  0  0  0  0  0  0  0  0
    8.7789    3.0655   13.4877 Cl  0  0  0  0  0  0  0  0  0  0  0  0
    8.7209    4.6593   11.3102 C   0  0  0  0  0  0  0  0  0  0  0  0
    8.6386    4.8974    9.9318 C   0  0  0  0  0  0  0  0  0  0  0  0
    8.7101    6.5444    9.4092 Cl  0  0  0  0  0  0  0  0  0  0  0  0
    6.4319    3.0928    6.3292 C   0  0  0  0  0  0  0  0  0  0  0  0
    5.1636    3.6307    5.9956 C   0  0  0  0  0  0  0  0  0  0  0  0
    2.2184    0.1234    4.3027 C   0  0  0  0  0  0  0  0  0  0  0  0
    1.2959   -0.2786    3.3334 C   0  0  0  0  0  0  0  0  0  0  0  0
   -0.3891   -1.4404   -0.2418 H   0  0  0  0  0  0  0  0  0  0  0  0
    0.4807   -1.9786    1.2002 H   0  0  0  0  0  0  0  0  0  0  0  0
    1.3200   -1.0199   -0.0249 H   0  0  0  0  0  0  0  0  0  0  0  0
   -0.1155    0.9353    0.4502 H   0  0  0  0  0  0  0  0  0  0  0  0
   -1.4614   -0.8183    2.5738 H   0  0  0  0  0  0  0  0  0  0  0  0
   -2.1819   -0.2091    1.0802 H   0  0  0  0  0  0  0  0  0  0  0  0
   -1.7205    0.9194    2.3640 H   0  0  0  0  0  0  0  0  0  0  0  0
    1.5214    2.4031    1.2415 H   0  0  0  0  0  0  0  0  0  0  0  0
    3.1230    3.0953    2.9292 H   0  0  0  0  0  0  0  0  0  0  0  0
    4.6323    1.2815    5.1387 H   0  0  0  0  0  0  0  0  0  0  0  0
    1.1894    5.5775    5.3876 H   0  0  0  0  0  0  0  0  0  0  0  0
    2.1007    6.9825    5.8660 H   0  0  0  0  0  0  0  0  0  0  0  0
    6.8201    6.2248    6.8441 H   0  0  0  0  0  0  0  0  0  0  0  0
    9.1490    4.9147    7.2339 H   0  0  0  0  0  0  0  0  0  0  0  0
    9.0831    3.1887    7.0684 H   0  0  0  0  0  0  0  0  0  0  0  0
    8.4432    1.6683    8.8639 H   0  0  0  0  0  0  0  0  0  0  0  0
    8.5344    1.2652   11.2909 H   0  0  0  0  0  0  0  0  0  0  0  0
    8.8336    5.4889   12.0035 H   0  0  0  0  0  0  0  0  0  0  0  0
    6.7342    2.0573    6.2555 H   0  0  0  0  0  0  0  0  0  0  0  0
    2.3798   -0.5033    5.1750 H   0  0  0  0  0  0  0  0  0  0  0  0
    0.7768   -1.2241    3.4655 H   0  0  0  0  0  0  0  0  0  0  0  0
  1  2  1  0  0  0  0
  1 30  1  0  0  0  0
  1 31  1  0  0  0  0
  1 32  1  0  0  0  0
  2  3  1  0  0  0  0
  2  4  1  0  0  0  0
  2 33  1  0  0  0  0
  3 34  1  0  0  0  0
  3 35  1  0  0  0  0
  3 36  1  0  0  0  0
  4  5  1  0  0  0  0
  4 29  2  0  0  0  0
  5  6  2  0  0  0  0
  5 37  1  0  0  0  0
  6  7  1  0  0  0  0
  6 38  1  0  0  0  0
  7  8  1  0  0  0  0
  7 28  2  0  0  0  0
  8  9  1  0  0  0  0
  8 39  1  0  0  0  0
  9 10  1  0  0  0  0
  9 27  2  0  0  0  0
 10 11  2  0  0  0  0
 11 12  1  0  0  0  0
 11 13  1  0  0  0  0
 12 40  1  0  0  0  0
 12 41  1  0  0  0  0
 13 14  2  0  0  0  0
 14 15  1  0  0  0  0
 14 27  1  0  0  0  0
 15 16  1  0  0  0  0
 15 42  1  0  0  0  0
 16 17  1  0  0  0  0
 16 26  2  0  0  0  0
 17 18  1  0  0  0  0
 17 43  1  0  0  0  0
 17 44  1  0  0  0  0
 18 19  1  0  0  0  0
 18 24  2  0  0  0  0
 19 20  2  0  0  0  0
 19 45  1  0  0  0  0
 20 21  1  0  0  0  0
 20 46  1  0  0  0  0
 21 22  1  0  0  0  0
 21 23  2  0  0  0  0
 23 24  1  0  0  0  0
 23 47  1  0  0  0  0
 24 25  1  0  0  0  0
 26 27  1  0  0  0  0
 26 48  1  0  0  0  0
 28 29  1  0  0  0  0
 28 49  1  0  0  0  0
 29 50  1  0  0  0  0
M  END
$$$$
