CHEMBL3339360
 OpenBabel04072215363D

 77 81  0  0  0  0  0  0  0  0999 V2000
    2.7175    0.3285    1.2424 C   0  0  0  0  0  0  0  0  0  0  0  0
    2.4098    0.3409   -0.1538 O   0  0  0  0  0  0  0  0  0  0  0  0
    3.1233   -0.4589   -1.0027 C   0  0  0  0  0  0  0  0  0  0  0  0
    4.3696   -0.9649   -0.6645 C   0  0  0  0  0  0  0  0  0  0  0  0
    4.9983   -1.9763   -1.4117 C   0  0  0  0  0  0  0  0  0  0  0  0
    6.1546   -2.6520   -0.9656 C   0  0  0  0  0  0  0  0  0  0  0  0
    6.7870   -2.4092    0.2429 O   0  0  0  0  0  0  0  0  0  0  0  0
    6.0911   -2.4621    1.4389 C   0  0  0  0  0  0  0  0  0  0  0  0
    4.8158   -3.0079    1.6075 C   0  0  0  0  0  0  0  0  0  0  0  0
    4.1814   -2.9780    2.8563 C   0  0  0  0  0  0  0  0  0  0  0  0
    4.8386   -2.4818    3.9891 C   0  0  0  0  0  0  0  0  0  0  0  0
    4.2217   -2.6776    5.3646 C   0  0  0  0  0  0  0  0  0  0  0  0
    2.8657   -2.0274    5.5696 C   0  0  0  0  0  0  0  0  0  0  0  0
    2.5574   -0.9983    4.9742 O   0  0  0  0  0  0  0  0  0  0  0  0
    2.0458   -2.6791    6.5034 N   0  0  0  0  0  0  0  0  0  0  0  0
    0.8547   -2.0868    6.7798 N   0  0  0  0  0  0  0  0  0  0  0  0
    0.0441   -2.6272    7.6458 C   0  0  0  0  0  0  0  0  0  0  0  0
   -1.2408   -1.9497    7.9503 C   0  0  0  0  0  0  0  0  0  0  0  0
   -1.5619   -0.7452    7.3026 C   0  0  0  0  0  0  0  0  0  0  0  0
   -2.7571   -0.0848    7.5787 C   0  0  0  0  0  0  0  0  0  0  0  0
   -3.6652   -0.6117    8.5054 C   0  0  0  0  0  0  0  0  0  0  0  0
   -4.9670    0.0982    8.8070 C   0  0  0  0  0  0  0  0  0  0  0  0
   -5.1331    1.2580    8.1120 F   0  0  0  0  0  0  0  0  0  0  0  0
   -6.0557   -0.6686    8.5199 F   0  0  0  0  0  0  0  0  0  0  0  0
   -5.0825    0.4313   10.1225 F   0  0  0  0  0  0  0  0  0  0  0  0
   -3.3432   -1.8223    9.1488 C   0  0  0  0  0  0  0  0  0  0  0  0
   -2.1386   -2.4916    8.8710 C   0  0  0  0  0  0  0  0  0  0  0  0
    6.1108   -1.9157    3.8212 C   0  0  0  0  0  0  0  0  0  0  0  0
    6.7203   -1.9070    2.5587 C   0  0  0  0  0  0  0  0  0  0  0  0
    7.9413   -1.3620    2.4420 F   0  0  0  0  0  0  0  0  0  0  0  0
    6.7787   -3.5703   -1.8026 C   0  0  0  0  0  0  0  0  0  0  0  0
    6.1946   -3.8255   -3.0277 C   0  0  0  0  0  0  0  0  0  0  0  0
    5.0407   -3.2597   -3.4477 N   0  0  0  0  0  0  0  0  0  0  0  0
    4.4463   -2.3513   -2.6501 C   0  0  0  0  0  0  0  0  0  0  0  0
    3.2675   -1.7332   -3.0591 C   0  0  0  0  0  0  0  0  0  0  0  0
    2.6088   -0.7773   -2.2659 C   0  0  0  0  0  0  0  0  0  0  0  0
    1.4989   -0.2141   -2.8579 O   0  0  0  0  0  0  0  0  0  0  0  0
    1.2102    1.1205   -2.4247 C   0  0  0  0  0  0  0  0  0  0  0  0
    0.5585    1.9442   -3.5276 C   0  0  0  0  0  0  0  0  0  0  0  0
   -0.7817    1.3645   -3.9825 C   0  0  0  0  0  0  0  0  0  0  0  0
   -1.4662    2.2418   -4.9516 N   0  0  0  0  0  0  0  0  0  0  0  0
   -2.7852    1.6944   -5.3136 C   0  0  0  0  0  0  0  0  0  0  0  0
   -2.5145    0.7784   -6.4904 C   0  0  0  0  0  0  0  0  0  0  0  0
   -1.4611    1.5385   -7.2685 C   0  0  0  0  0  0  0  0  0  0  0  0
   -0.7328    2.3747   -6.2244 C   0  0  0  0  0  0  0  0  0  0  0  0
    3.1380    1.2995    1.5192 H   0  0  0  0  0  0  0  0  0  0  0  0
    3.3970   -0.4595    1.5684 H   0  0  0  0  0  0  0  0  0  0  0  0
    1.7873    0.1778    1.7971 H   0  0  0  0  0  0  0  0  0  0  0  0
    4.8720   -0.5882    0.2171 H   0  0  0  0  0  0  0  0  0  0  0  0
    4.2660   -3.4318    0.7728 H   0  0  0  0  0  0  0  0  0  0  0  0
    3.1626   -3.3542    2.9320 H   0  0  0  0  0  0  0  0  0  0  0  0
    4.8904   -2.2849    6.1400 H   0  0  0  0  0  0  0  0  0  0  0  0
    4.1362   -3.7577    5.5260 H   0  0  0  0  0  0  0  0  0  0  0  0
    2.3271   -3.5239    6.9858 H   0  0  0  0  0  0  0  0  0  0  0  0
    0.2653   -3.5689    8.1631 H   0  0  0  0  0  0  0  0  0  0  0  0
   -0.8687   -0.3114    6.5831 H   0  0  0  0  0  0  0  0  0  0  0  0
   -2.9730    0.8537    7.0622 H   0  0  0  0  0  0  0  0  0  0  0  0
   -4.0422   -2.2494    9.8691 H   0  0  0  0  0  0  0  0  0  0  0  0
   -1.9223   -3.4228    9.3891 H   0  0  0  0  0  0  0  0  0  0  0  0
    6.6536   -1.4888    4.6609 H   0  0  0  0  0  0  0  0  0  0  0  0
    7.6975   -4.0667   -1.5132 H   0  0  0  0  0  0  0  0  0  0  0  0
    6.6535   -4.5117   -3.7357 H   0  0  0  0  0  0  0  0  0  0  0  0
    2.8551   -1.9926   -4.0324 H   0  0  0  0  0  0  0  0  0  0  0  0
    2.1312    1.6555   -2.1637 H   0  0  0  0  0  0  0  0  0  0  0  0
    0.5388    1.0713   -1.5615 H   0  0  0  0  0  0  0  0  0  0  0  0
    1.2628    2.0014   -4.3632 H   0  0  0  0  0  0  0  0  0  0  0  0
    0.4111    2.9652   -3.1538 H   0  0  0  0  0  0  0  0  0  0  0  0
   -1.4206    1.2735   -3.0938 H   0  0  0  0  0  0  0  0  0  0  0  0
   -0.6407    0.3550   -4.3848 H   0  0  0  0  0  0  0  0  0  0  0  0
   -3.4348    2.5206   -5.6289 H   0  0  0  0  0  0  0  0  0  0  0  0
   -3.2930    1.1833   -4.4885 H   0  0  0  0  0  0  0  0  0  0  0  0
   -3.4084    0.5816   -7.0880 H   0  0  0  0  0  0  0  0  0  0  0  0
   -2.1129   -0.1838   -6.1508 H   0  0  0  0  0  0  0  0  0  0  0  0
   -1.9349    2.1946   -8.0074 H   0  0  0  0  0  0  0  0  0  0  0  0
   -0.7830    0.8610   -7.7965 H   0  0  0  0  0  0  0  0  0  0  0  0
   -0.7270    3.4293   -6.5237 H   0  0  0  0  0  0  0  0  0  0  0  0
    0.3137    2.0633   -6.1734 H   0  0  0  0  0  0  0  0  0  0  0  0
  1  2  1  0  0  0  0
  1 46  1  0  0  0  0
  1 47  1  0  0  0  0
  1 48  1  0  0  0  0
  2  3  1  0  0  0  0
  3  4  1  0  0  0  0
  3 36  2  0  0  0  0
  4  5  2  0  0  0  0
  4 49  1  0  0  0  0
  5  6  1  0  0  0  0
  5 34  1  0  0  0  0
  6  7  1  0  0  0  0
  6 31  2  0  0  0  0
  7  8  1  0  0  0  0
  8  9  1  0  0  0  0
  8 29  2  0  0  0  0
  9 10  2  0  0  0  0
  9 50  1  0  0  0  0
 10 11  1  0  0  0  0
 10 51  1  0  0  0  0
 11 12  1  0  0  0  0
 11 28  2  0  0  0  0
 12 13  1  0  0  0  0
 12 52  1  0  0  0  0
 12 53  1  0  0  0  0
 13 14  2  0  0  0  0
 13 15  1  0  0  0  0
 15 16  1  0  0  0  0
 15 54  1  0  0  0  0
 16 17  2  0  0  0  0
 17 18  1  0  0  0  0
 17 55  1  0  0  0  0
 18 19  1  0  0  0  0
 18 27  2  0  0  0  0
 19 20  2  0  0  0  0
 19 56  1  0  0  0  0
 20 21  1  0  0  0  0
 20 57  1  0  0  0  0
 21 22  1  0  0  0  0
 21 26  2  0  0  0  0
 22 23  1  0  0  0  0
 22 24  1  0  0  0  0
 22 25  1  0  0  0  0
 26 27  1  0  0  0  0
 26 58  1  0  0  0  0
 27 59  1  0  0  0  0
 28 29  1  0  0  0  0
 28 60  1  0  0  0  0
 29 30  1  0  0  0  0
 31 32  1  0  0  0  0
 31 61  1  0  0  0  0
 32 33  2  0  0  0  0
 32 62  1  0  0  0  0
 33 34  1  0  0  0  0
 34 35  2  0  0  0  0
 35 36  1  0  0  0  0
 35 63  1  0  0  0  0
 36 37  1  0  0  0  0
 37 38  1  0  0  0  0
 38 39  1  0  0  0  0
 38 64  1  0  0  0  0
 38 65  1  0  0  0  0
 39 40  1  0  0  0  0
 39 66  1  0  0  0  0
 39 67  1  0  0  0  0
 40 41  1  0  0  0  0
 40 68  1  0  0  0  0
 40 69  1  0  0  0  0
 41 42  1  0  0  0  0
 41 45  1  0  0  0  0
 42 43  1  0  0  0  0
 42 70  1  0  0  0  0
 42 71  1  0  0  0  0
 43 44  1  0  0  0  0
 43 72  1  0  0  0  0
 43 73  1  0  0  0  0
 44 45  1  0  0  0  0
 44 74  1  0  0  0  0
 44 75  1  0  0  0  0
 45 76  1  0  0  0  0
 45 77  1  0  0  0  0
M  END
$$$$
