CHEMBL4072514
 OpenBabel04072215383D

 52 56  0  0  0  0  0  0  0  0999 V2000
    1.7099    1.6704   -2.1665 N   0  0  0  0  0  0  0  0  0  0  0  0
    0.9433    0.6339   -1.7948 C   0  0  0  0  0  0  0  0  0  0  0  0
    1.1906   -0.5746   -2.2908 N   0  0  0  0  0  0  0  0  0  0  0  0
    0.2421   -1.3397   -1.7513 N   0  0  0  0  0  0  0  0  0  0  0  0
   -0.6025   -0.6800   -0.9016 C   0  0  0  0  0  0  0  0  0  0  0  0
   -1.6929   -1.1666   -0.1769 C   0  0  0  0  0  0  0  0  0  0  0  0
   -2.3748   -0.2626    0.6257 C   0  0  0  0  0  0  0  0  0  0  0  0
   -1.9791    1.0727    0.6817 C   0  0  0  0  0  0  0  0  0  0  0  0
   -0.8911    1.5888   -0.0740 C   0  0  0  0  0  0  0  0  0  0  0  0
   -0.5905    3.0411   -0.0443 C   0  0  0  0  0  0  0  0  0  0  0  0
    0.7150    3.5499   -0.0513 C   0  0  0  0  0  0  0  0  0  0  0  0
    0.9683    4.9200   -0.2104 C   0  0  0  0  0  0  0  0  0  0  0  0
   -0.0866    5.8300   -0.2039 C   0  0  0  0  0  0  0  0  0  0  0  0
    0.1353    7.2110   -0.3102 N   0  0  0  0  0  0  0  0  0  0  0  0
    0.8943    7.7712   -1.3163 C   0  0  0  0  0  0  0  0  0  0  0  0
    1.4017    7.1836   -2.2624 O   0  0  0  0  0  0  0  0  0  0  0  0
    1.1156    9.2421   -1.1742 C   0  0  0  0  0  0  0  0  0  0  0  0
    2.3075    9.6072   -0.3473 C   0  0  0  0  0  0  0  0  0  0  0  0
    2.1254   10.0607    0.7745 O   0  0  0  0  0  0  0  0  0  0  0  0
    3.5042    9.3335   -0.9659 N   0  0  0  0  0  0  0  0  0  0  0  0
    4.8028    9.5817   -0.4677 C   0  0  0  0  0  0  0  0  0  0  0  0
    5.0310   10.1777    0.7765 C   0  0  0  0  0  0  0  0  0  0  0  0
    6.3328   10.4317    1.2136 C   0  0  0  0  0  0  0  0  0  0  0  0
    7.4160   10.0897    0.4116 C   0  0  0  0  0  0  0  0  0  0  0  0
    9.0123   10.4315    0.9499 Cl  0  0  0  0  0  0  0  0  0  0  0  0
    7.2145    9.4869   -0.8263 C   0  0  0  0  0  0  0  0  0  0  0  0
    5.9128    9.2361   -1.2627 C   0  0  0  0  0  0  0  0  0  0  0  0
    5.7037    8.4935   -2.8116 Cl  0  0  0  0  0  0  0  0  0  0  0  0
   -0.0667   10.2118   -1.1602 C   0  0  0  0  0  0  0  0  0  0  0  0
    0.8028   10.1386   -2.3744 C   0  0  0  0  0  0  0  0  0  0  0  0
   -1.3852    5.3697   -0.0359 C   0  0  0  0  0  0  0  0  0  0  0  0
   -1.6332    3.9911   -0.0113 C   0  0  0  0  0  0  0  0  0  0  0  0
   -0.1731    0.6534   -0.8871 C   0  0  0  0  0  0  0  0  0  0  0  0
    2.3546    1.4779   -2.9250 H   0  0  0  0  0  0  0  0  0  0  0  0
    1.2997    2.5945   -2.2329 H   0  0  0  0  0  0  0  0  0  0  0  0
    0.2164   -2.3193   -2.0071 H   0  0  0  0  0  0  0  0  0  0  0  0
   -1.9971   -2.2071   -0.2319 H   0  0  0  0  0  0  0  0  0  0  0  0
   -3.2280   -0.5985    1.2107 H   0  0  0  0  0  0  0  0  0  0  0  0
   -2.5452    1.7355    1.3350 H   0  0  0  0  0  0  0  0  0  0  0  0
    1.5662    2.8760    0.0351 H   0  0  0  0  0  0  0  0  0  0  0  0
    1.9978    5.2604   -0.2911 H   0  0  0  0  0  0  0  0  0  0  0  0
   -0.4597    7.8287    0.2269 H   0  0  0  0  0  0  0  0  0  0  0  0
    3.4622    8.8846   -1.8805 H   0  0  0  0  0  0  0  0  0  0  0  0
    4.2180   10.4608    1.4368 H   0  0  0  0  0  0  0  0  0  0  0  0
    6.4857   10.9016    2.1827 H   0  0  0  0  0  0  0  0  0  0  0  0
    8.0633    9.2211   -1.4488 H   0  0  0  0  0  0  0  0  0  0  0  0
    0.0133   11.1021   -0.5408 H   0  0  0  0  0  0  0  0  0  0  0  0
   -1.0752    9.8279   -1.2400 H   0  0  0  0  0  0  0  0  0  0  0  0
    1.4657   10.9743   -2.5787 H   0  0  0  0  0  0  0  0  0  0  0  0
    0.3825    9.6900   -3.2680 H   0  0  0  0  0  0  0  0  0  0  0  0
   -2.2229    6.0600   -0.0145 H   0  0  0  0  0  0  0  0  0  0  0  0
   -2.6717    3.6662    0.0118 H   0  0  0  0  0  0  0  0  0  0  0  0
  1  2  1  0  0  0  0
  1 34  1  0  0  0  0
  1 35  1  0  0  0  0
  2  3  2  0  0  0  0
  2 33  1  0  0  0  0
  3  4  1  0  0  0  0
  4  5  1  0  0  0  0
  4 36  1  0  0  0  0
  5  6  1  0  0  0  0
  5 33  2  0  0  0  0
  6  7  2  0  0  0  0
  6 37  1  0  0  0  0
  7  8  1  0  0  0  0
  7 38  1  0  0  0  0
  8  9  2  0  0  0  0
  8 39  1  0  0  0  0
  9 10  1  0  0  0  0
  9 33  1  0  0  0  0
 10 11  1  0  0  0  0
 10 32  2  0  0  0  0
 11 12  2  0  0  0  0
 11 40  1  0  0  0  0
 12 13  1  0  0  0  0
 12 41  1  0  0  0  0
 13 14  1  0  0  0  0
 13 31  2  0  0  0  0
 14 15  1  0  0  0  0
 14 42  1  0  0  0  0
 15 16  2  0  0  0  0
 15 17  1  0  0  0  0
 17 18  1  0  0  0  0
 17 29  1  0  0  0  0
 17 30  1  0  0  0  0
 18 19  2  0  0  0  0
 18 20  1  0  0  0  0
 20 21  1  0  0  0  0
 20 43  1  0  0  0  0
 21 22  1  0  0  0  0
 21 27  2  0  0  0  0
 22 23  2  0  0  0  0
 22 44  1  0  0  0  0
 23 24  1  0  0  0  0
 23 45  1  0  0  0  0
 24 25  1  0  0  0  0
 24 26  2  0  0  0  0
 26 27  1  0  0  0  0
 26 46  1  0  0  0  0
 27 28  1  0  0  0  0
 29 30  1  0  0  0  0
 29 47  1  0  0  0  0
 29 48  1  0  0  0  0
 30 49  1  0  0  0  0
 30 50  1  0  0  0  0
 31 32  1  0  0  0  0
 31 51  1  0  0  0  0
 32 52  1  0  0  0  0
M  END
$$$$
