CHEMBL464409
 OpenBabel04072215383D

 59 64  0  0  0  0  0  0  0  0999 V2000
    0.3401    3.0879   -2.4542 C   0  0  0  0  0  0  0  0  0  0  0  0
    0.0671    1.7472   -2.8990 N   0  0  0  0  0  0  0  0  0  0  0  0
    0.9439    0.8943   -3.5014 C   0  0  0  0  0  0  0  0  0  0  0  0
    0.4212   -0.3010   -3.6608 N   0  0  0  0  0  0  0  0  0  0  0  0
   -0.8566   -0.1989   -3.1685 C   0  0  0  0  0  0  0  0  0  0  0  0
   -1.8187   -1.3295   -3.1069 C   0  0  0  0  0  0  0  0  0  0  0  0
   -1.5072   -2.6325   -3.4239 C   0  0  0  0  0  0  0  0  0  0  0  0
   -2.6171   -3.5082   -3.2392 C   0  0  0  0  0  0  0  0  0  0  0  0
   -2.6019   -4.8548   -3.4425 N   0  0  0  0  0  0  0  0  0  0  0  0
   -3.7664   -5.4911   -3.2217 C   0  0  0  0  0  0  0  0  0  0  0  0
   -4.9473   -4.8827   -2.8438 C   0  0  0  0  0  0  0  0  0  0  0  0
   -4.9749   -3.4959   -2.6885 C   0  0  0  0  0  0  0  0  0  0  0  0
   -6.1156   -2.7798   -2.3794 O   0  0  0  0  0  0  0  0  0  0  0  0
   -7.2896   -3.1163   -3.0122 C   0  0  0  0  0  0  0  0  0  0  0  0
   -7.3186   -3.7529   -4.2544 C   0  0  0  0  0  0  0  0  0  0  0  0
   -8.5145   -4.2255   -4.7606 C   0  0  0  0  0  0  0  0  0  0  0  0
   -9.7143   -4.0100   -4.0799 C   0  0  0  0  0  0  0  0  0  0  0  0
  -10.9167   -4.5368   -4.5663 N   0  0  0  0  0  0  0  0  0  0  0  0
  -11.0203   -5.5946   -5.4433 C   0  0  0  0  0  0  0  0  0  0  0  0
  -10.0726   -6.2801   -5.8289 O   0  0  0  0  0  0  0  0  0  0  0  0
  -12.3094   -5.8827   -5.8967 N   0  0  0  0  0  0  0  0  0  0  0  0
  -12.4373   -7.0249   -6.7760 C   0  0  0  0  0  0  0  0  0  0  0  0
  -13.7873   -6.8663   -7.4175 C   0  0  0  0  0  0  0  0  0  0  0  0
  -14.5210   -6.0336   -6.4871 N   0  0  0  0  0  0  0  0  0  0  0  0
  -15.9319   -5.9798   -6.5354 C   0  0  0  0  0  0  0  0  0  0  0  0
  -16.6945   -5.6846   -5.3990 C   0  0  0  0  0  0  0  0  0  0  0  0
  -18.0904   -5.7065   -5.4412 C   0  0  0  0  0  0  0  0  0  0  0  0
  -18.7358   -6.0445   -6.6231 C   0  0  0  0  0  0  0  0  0  0  0  0
  -18.0005   -6.3409   -7.7657 C   0  0  0  0  0  0  0  0  0  0  0  0
  -16.6041   -6.3049   -7.7201 C   0  0  0  0  0  0  0  0  0  0  0  0
  -13.6149   -5.3300   -5.6399 C   0  0  0  0  0  0  0  0  0  0  0  0
  -13.9308   -4.0564   -4.6015 S   0  0  0  0  0  0  0  0  0  0  0  0
   -9.7085   -3.2429   -2.9123 C   0  0  0  0  0  0  0  0  0  0  0  0
   -8.4946   -2.8101   -2.3836 C   0  0  0  0  0  0  0  0  0  0  0  0
   -8.4937   -2.1178   -1.2378 F   0  0  0  0  0  0  0  0  0  0  0  0
   -3.7616   -2.8176   -2.8419 C   0  0  0  0  0  0  0  0  0  0  0  0
   -3.4372   -1.1526   -2.6161 S   0  0  0  0  0  0  0  0  0  0  0  0
   -1.1084    1.0797   -2.7220 C   0  0  0  0  0  0  0  0  0  0  0  0
    1.3195    3.4019   -2.8204 H   0  0  0  0  0  0  0  0  0  0  0  0
    0.3329    3.0868   -1.3603 H   0  0  0  0  0  0  0  0  0  0  0  0
   -0.4370    3.7529   -2.8381 H   0  0  0  0  0  0  0  0  0  0  0  0
    1.9489    1.1831   -3.7833 H   0  0  0  0  0  0  0  0  0  0  0  0
   -0.5287   -2.9560   -3.7561 H   0  0  0  0  0  0  0  0  0  0  0  0
   -3.7365   -6.5671   -3.3785 H   0  0  0  0  0  0  0  0  0  0  0  0
   -5.8425   -5.4835   -2.7219 H   0  0  0  0  0  0  0  0  0  0  0  0
   -6.4170   -3.9450   -4.8310 H   0  0  0  0  0  0  0  0  0  0  0  0
   -8.4713   -4.7749   -5.6957 H   0  0  0  0  0  0  0  0  0  0  0  0
  -11.7811   -4.2146   -4.1412 H   0  0  0  0  0  0  0  0  0  0  0  0
  -12.3962   -7.9258   -6.1511 H   0  0  0  0  0  0  0  0  0  0  0  0
  -11.6308   -7.0807   -7.5145 H   0  0  0  0  0  0  0  0  0  0  0  0
  -14.2685   -7.8388   -7.5677 H   0  0  0  0  0  0  0  0  0  0  0  0
  -13.7007   -6.3384   -8.3750 H   0  0  0  0  0  0  0  0  0  0  0  0
  -16.2365   -5.4823   -4.4394 H   0  0  0  0  0  0  0  0  0  0  0  0
  -18.6556   -5.4834   -4.5441 H   0  0  0  0  0  0  0  0  0  0  0  0
  -19.8260   -6.0820   -6.6525 H   0  0  0  0  0  0  0  0  0  0  0  0
  -18.5038   -6.6010   -8.6892 H   0  0  0  0  0  0  0  0  0  0  0  0
  -16.0617   -6.5196   -8.6390 H   0  0  0  0  0  0  0  0  0  0  0  0
  -10.6264   -3.0163   -2.3716 H   0  0  0  0  0  0  0  0  0  0  0  0
   -1.9783    1.5351   -2.2690 H   0  0  0  0  0  0  0  0  0  0  0  0
  1  2  1  0  0  0  0
  1 39  1  0  0  0  0
  1 40  1  0  0  0  0
  1 41  1  0  0  0  0
  2  3  1  0  0  0  0
  2 38  1  0  0  0  0
  3  4  2  0  0  0  0
  3 42  1  0  0  0  0
  4  5  1  0  0  0  0
  5  6  1  0  0  0  0
  5 38  2  0  0  0  0
  6  7  2  0  0  0  0
  6 37  1  0  0  0  0
  7  8  1  0  0  0  0
  7 43  1  0  0  0  0
  8  9  1  0  0  0  0
  8 36  2  0  0  0  0
  9 10  2  0  0  0  0
 10 11  1  0  0  0  0
 10 44  1  0  0  0  0
 11 12  2  0  0  0  0
 11 45  1  0  0  0  0
 12 13  1  0  0  0  0
 12 36  1  0  0  0  0
 13 14  1  0  0  0  0
 14 15  1  0  0  0  0
 14 34  2  0  0  0  0
 15 16  2  0  0  0  0
 15 46  1  0  0  0  0
 16 17  1  0  0  0  0
 16 47  1  0  0  0  0
 17 18  1  0  0  0  0
 17 33  2  0  0  0  0
 18 19  1  0  0  0  0
 18 48  1  0  0  0  0
 19 20  2  0  0  0  0
 19 21  1  0  0  0  0
 21 22  1  0  0  0  0
 21 31  1  0  0  0  0
 22 23  1  0  0  0  0
 22 49  1  0  0  0  0
 22 50  1  0  0  0  0
 23 24  1  0  0  0  0
 23 51  1  0  0  0  0
 23 52  1  0  0  0  0
 24 25  1  0  0  0  0
 24 31  1  0  0  0  0
 25 26  1  0  0  0  0
 25 30  2  0  0  0  0
 26 27  2  0  0  0  0
 26 53  1  0  0  0  0
 27 28  1  0  0  0  0
 27 54  1  0  0  0  0
 28 29  2  0  0  0  0
 28 55  1  0  0  0  0
 29 30  1  0  0  0  0
 29 56  1  0  0  0  0
 30 57  1  0  0  0  0
 31 32  2  0  0  0  0
 33 34  1  0  0  0  0
 33 58  1  0  0  0  0
 34 35  1  0  0  0  0
 36 37  1  0  0  0  0
 38 59  1  0  0  0  0
M  END
$$$$
