CHEMBL3924066
 OpenBabel04072215373D

 63 65  0  0  0  0  0  0  0  0999 V2000
    2.8668    0.0944    0.9887 O   0  0  0  0  0  0  0  0  0  0  0  0
    2.3505    0.0335   -0.1232 C   0  0  0  0  0  0  0  0  0  0  0  0
    1.2020    0.7744   -0.4581 N   0  0  0  0  0  0  0  0  0  0  0  0
    0.1381    1.0907    0.6114 S   0  0  0  0  0  0  0  0  0  0  0  0
   -0.3781    0.1153    1.5527 O   0  0  0  0  0  0  0  0  0  0  0  0
    0.7193    2.4949    1.5645 C   0  0  0  0  0  0  0  0  0  0  0  0
   -0.2572    2.8731    2.6754 C   0  0  0  0  0  0  0  0  0  0  0  0
    0.2537    4.0283    3.5208 C   0  0  0  0  0  0  0  0  0  0  0  0
    1.4795    3.6864    4.1467 O   0  0  0  0  0  0  0  0  0  0  0  0
   -1.2786    1.7450   -0.2688 C   0  0  0  0  0  0  0  0  0  0  0  0
   -1.8491    0.7803   -1.3036 C   0  0  0  0  0  0  0  0  0  0  0  0
   -2.3263   -0.5455   -0.7215 C   0  0  0  0  0  0  0  0  0  0  0  0
   -2.8888   -1.3397   -1.7598 O   0  0  0  0  0  0  0  0  0  0  0  0
    3.0560   -0.7750   -1.1536 C   0  0  0  0  0  0  0  0  0  0  0  0
    4.1907   -1.4966   -0.7999 C   0  0  0  0  0  0  0  0  0  0  0  0
    4.9209   -2.2336   -1.6738 N   0  0  0  0  0  0  0  0  0  0  0  0
    4.4871   -2.2537   -2.9559 C   0  0  0  0  0  0  0  0  0  0  0  0
    3.3525   -1.5870   -3.4029 C   0  0  0  0  0  0  0  0  0  0  0  0
    2.9609   -1.6774   -4.7736 C   0  0  0  0  0  0  0  0  0  0  0  0
    2.6731   -1.7572   -5.9367 C   0  0  0  0  0  0  0  0  0  0  0  0
    2.3620   -1.8050   -7.3334 C   0  0  0  0  0  0  0  0  0  0  0  0
    1.9298   -0.6398   -7.9677 C   0  0  0  0  0  0  0  0  0  0  0  0
    1.6501   -0.6615   -9.3276 C   0  0  0  0  0  0  0  0  0  0  0  0
    1.8011   -1.8443  -10.0518 C   0  0  0  0  0  0  0  0  0  0  0  0
    2.2330   -3.0265   -9.4373 C   0  0  0  0  0  0  0  0  0  0  0  0
    2.3997   -4.2510  -10.1411 N   0  0  0  0  0  0  0  0  0  0  0  0
    2.2060   -4.4320  -11.5021 C   0  0  0  0  0  0  0  0  0  0  0  0
    1.9072   -3.5579  -12.3099 O   0  0  0  0  0  0  0  0  0  0  0  0
    2.3820   -5.8029  -12.0641 C   0  0  0  0  0  0  0  0  0  0  0  0
    2.2036   -6.9789  -11.3224 C   0  0  0  0  0  0  0  0  0  0  0  0
    2.2817   -8.2218  -11.9648 C   0  0  0  0  0  0  0  0  0  0  0  0
    2.5316   -8.2894  -13.3353 C   0  0  0  0  0  0  0  0  0  0  0  0
    2.5727   -9.4926  -13.9256 F   0  0  0  0  0  0  0  0  0  0  0  0
    2.7170   -7.1288  -14.0774 C   0  0  0  0  0  0  0  0  0  0  0  0
    3.0080   -7.1977  -15.7721 Cl  0  0  0  0  0  0  0  0  0  0  0  0
    2.6456   -5.8906  -13.4447 C   0  0  0  0  0  0  0  0  0  0  0  0
    2.5110   -2.9957   -8.0626 C   0  0  0  0  0  0  0  0  0  0  0  0
    2.6252   -0.8308   -2.4845 C   0  0  0  0  0  0  0  0  0  0  0  0
    0.8823    3.3264    0.8716 H   0  0  0  0  0  0  0  0  0  0  0  0
    1.6850    2.2064    1.9909 H   0  0  0  0  0  0  0  0  0  0  0  0
   -0.4158    2.0038    3.3247 H   0  0  0  0  0  0  0  0  0  0  0  0
   -1.2299    3.1434    2.2532 H   0  0  0  0  0  0  0  0  0  0  0  0
   -0.4738    4.2834    4.2980 H   0  0  0  0  0  0  0  0  0  0  0  0
    0.4192    4.9182    2.9060 H   0  0  0  0  0  0  0  0  0  0  0  0
    1.3316    2.8860    4.6817 H   0  0  0  0  0  0  0  0  0  0  0  0
   -0.9572    2.6686   -0.7622 H   0  0  0  0  0  0  0  0  0  0  0  0
   -2.0431    1.9963    0.4718 H   0  0  0  0  0  0  0  0  0  0  0  0
   -1.1134    0.5818   -2.0921 H   0  0  0  0  0  0  0  0  0  0  0  0
   -2.6921    1.2679   -1.8101 H   0  0  0  0  0  0  0  0  0  0  0  0
   -3.0837   -0.3937    0.0546 H   0  0  0  0  0  0  0  0  0  0  0  0
   -1.5022   -1.1223   -0.2972 H   0  0  0  0  0  0  0  0  0  0  0  0
   -3.6974   -0.8980   -2.0664 H   0  0  0  0  0  0  0  0  0  0  0  0
    4.5646   -1.5077    0.2217 H   0  0  0  0  0  0  0  0  0  0  0  0
    5.1000   -2.8398   -3.6361 H   0  0  0  0  0  0  0  0  0  0  0  0
    1.8131    0.2880   -7.4130 H   0  0  0  0  0  0  0  0  0  0  0  0
    1.3174    0.2400   -9.8365 H   0  0  0  0  0  0  0  0  0  0  0  0
    1.5697   -1.7965  -11.1104 H   0  0  0  0  0  0  0  0  0  0  0  0
    2.7368   -5.0332   -9.5924 H   0  0  0  0  0  0  0  0  0  0  0  0
    1.9559   -6.9557  -10.2655 H   0  0  0  0  0  0  0  0  0  0  0  0
    2.1238   -9.1446  -11.4131 H   0  0  0  0  0  0  0  0  0  0  0  0
    2.7695   -4.9812  -14.0316 H   0  0  0  0  0  0  0  0  0  0  0  0
    2.8480   -3.8903   -7.5466 H   0  0  0  0  0  0  0  0  0  0  0  0
    1.7378   -0.2870   -2.7995 H   0  0  0  0  0  0  0  0  0  0  0  0
  1  2  2  0  0  0  0
  2  3  1  0  0  0  0
  2 14  1  0  0  0  0
  3  4  2  0  0  0  0
  4  5  2  0  0  0  0
  4  6  1  0  0  0  0
  4 10  1  0  0  0  0
  6  7  1  0  0  0  0
  6 39  1  0  0  0  0
  6 40  1  0  0  0  0
  7  8  1  0  0  0  0
  7 41  1  0  0  0  0
  7 42  1  0  0  0  0
  8  9  1  0  0  0  0
  8 43  1  0  0  0  0
  8 44  1  0  0  0  0
  9 45  1  0  0  0  0
 10 11  1  0  0  0  0
 10 46  1  0  0  0  0
 10 47  1  0  0  0  0
 11 12  1  0  0  0  0
 11 48  1  0  0  0  0
 11 49  1  0  0  0  0
 12 13  1  0  0  0  0
 12 50  1  0  0  0  0
 12 51  1  0  0  0  0
 13 52  1  0  0  0  0
 14 15  1  0  0  0  0
 14 38  2  0  0  0  0
 15 16  2  0  0  0  0
 15 53  1  0  0  0  0
 16 17  1  0  0  0  0
 17 18  2  0  0  0  0
 17 54  1  0  0  0  0
 18 19  1  0  0  0  0
 18 38  1  0  0  0  0
 19 20  3  0  0  0  0
 20 21  1  0  0  0  0
 21 22  1  0  0  0  0
 21 37  2  0  0  0  0
 22 23  2  0  0  0  0
 22 55  1  0  0  0  0
 23 24  1  0  0  0  0
 23 56  1  0  0  0  0
 24 25  2  0  0  0  0
 24 57  1  0  0  0  0
 25 26  1  0  0  0  0
 25 37  1  0  0  0  0
 26 27  1  0  0  0  0
 26 58  1  0  0  0  0
 27 28  2  0  0  0  0
 27 29  1  0  0  0  0
 29 30  1  0  0  0  0
 29 36  2  0  0  0  0
 30 31  2  0  0  0  0
 30 59  1  0  0  0  0
 31 32  1  0  0  0  0
 31 60  1  0  0  0  0
 32 33  1  0  0  0  0
 32 34  2  0  0  0  0
 34 35  1  0  0  0  0
 34 36  1  0  0  0  0
 36 61  1  0  0  0  0
 37 62  1  0  0  0  0
 38 63  1  0  0  0  0
M  END
$$$$
