CHEMBL4472616
 OpenBabel04072215383D

 67 72  0  0  0  0  0  0  0  0999 V2000
    0.4414   -1.2635   -1.2167 O   0  0  0  0  0  0  0  0  0  0  0  0
    1.6495   -1.0931   -1.2350 C   0  0  0  0  0  0  0  0  0  0  0  0
    2.2693    0.0660   -1.7082 N   0  0  0  0  0  0  0  0  0  0  0  0
    1.6180    1.1634   -2.3490 C   0  0  0  0  0  0  0  0  0  0  0  0
    0.2330    1.3651   -2.3534 C   0  0  0  0  0  0  0  0  0  0  0  0
   -0.3603    2.3523   -3.1730 C   0  0  0  0  0  0  0  0  0  0  0  0
    0.4194    3.1768   -3.9920 C   0  0  0  0  0  0  0  0  0  0  0  0
   -0.0895    4.0045   -4.9973 O   0  0  0  0  0  0  0  0  0  0  0  0
   -1.1458    4.8717   -4.7071 C   0  0  0  0  0  0  0  0  0  0  0  0
   -1.3983    5.0542   -3.3852 N   0  0  0  0  0  0  0  0  0  0  0  0
   -2.3696    5.8795   -3.0539 C   0  0  0  0  0  0  0  0  0  0  0  0
   -3.0871    6.5820   -3.9185 N   0  0  0  0  0  0  0  0  0  0  0  0
   -2.8157    6.4296   -5.2104 C   0  0  0  0  0  0  0  0  0  0  0  0
   -3.6622    7.1693   -6.0116 C   0  0  0  0  0  0  0  0  0  0  0  0
   -3.5412    7.1716   -7.3852 C   0  0  0  0  0  0  0  0  0  0  0  0
   -4.5280    7.6332   -8.2151 O   0  0  0  0  0  0  0  0  0  0  0  0
   -5.8101    7.0621   -7.8921 C   0  0  0  0  0  0  0  0  0  0  0  0
   -6.3542    6.2098   -9.0421 C   0  0  0  0  0  0  0  0  0  0  0  0
   -7.8040    5.8340   -8.7563 C   0  0  0  0  0  0  0  0  0  0  0  0
   -8.5921    7.0002   -8.5193 O   0  0  0  0  0  0  0  0  0  0  0  0
   -8.1517    7.7306   -7.3759 C   0  0  0  0  0  0  0  0  0  0  0  0
   -6.7352    8.2246   -7.5755 C   0  0  0  0  0  0  0  0  0  0  0  0
   -2.4624    6.5474   -7.9625 C   0  0  0  0  0  0  0  0  0  0  0  0
   -1.7099    5.6268   -7.2199 C   0  0  0  0  0  0  0  0  0  0  0  0
   -1.8202    5.5918   -5.7575 C   0  0  0  0  0  0  0  0  0  0  0  0
   -0.9681    4.6928   -7.9138 O   0  0  0  0  0  0  0  0  0  0  0  0
   -1.2193    4.6286   -9.3534 C   0  0  0  0  0  0  0  0  0  0  0  0
   -2.3198    5.5248   -9.9182 C   0  0  0  0  0  0  0  0  0  0  0  0
   -2.2460    6.7841   -9.2923 O   0  0  0  0  0  0  0  0  0  0  0  0
    1.8102    3.0520   -3.8988 C   0  0  0  0  0  0  0  0  0  0  0  0
    2.4026    2.0640   -3.0806 C   0  0  0  0  0  0  0  0  0  0  0  0
    2.5792   -2.0560   -0.8426 N   0  0  0  0  0  0  0  0  0  0  0  0
    2.3027   -3.4075   -0.4864 C   0  0  0  0  0  0  0  0  0  0  0  0
    1.0326   -3.9926   -0.5631 C   0  0  0  0  0  0  0  0  0  0  0  0
    0.8176   -5.3386   -0.2097 C   0  0  0  0  0  0  0  0  0  0  0  0
   -0.5595   -5.9536   -0.3108 C   0  0  0  0  0  0  0  0  0  0  0  0
   -1.5251   -5.0924   -0.7305 F   0  0  0  0  0  0  0  0  0  0  0  0
   -0.5999   -7.0180   -1.1585 F   0  0  0  0  0  0  0  0  0  0  0  0
   -0.9845   -6.4285    0.8921 F   0  0  0  0  0  0  0  0  0  0  0  0
    1.9021   -6.1181    0.2200 C   0  0  0  0  0  0  0  0  0  0  0  0
    3.1753   -5.5534    0.2962 C   0  0  0  0  0  0  0  0  0  0  0  0
    3.3643   -4.2147   -0.0548 C   0  0  0  0  0  0  0  0  0  0  0  0
    4.6024   -3.7004    0.0147 F   0  0  0  0  0  0  0  0  0  0  0  0
    3.2726    0.0307   -1.8113 H   0  0  0  0  0  0  0  0  0  0  0  0
   -0.4243    0.7507   -1.7458 H   0  0  0  0  0  0  0  0  0  0  0  0
   -1.4436    2.4343   -3.1694 H   0  0  0  0  0  0  0  0  0  0  0  0
   -2.5851    6.0315   -2.0046 H   0  0  0  0  0  0  0  0  0  0  0  0
   -4.4750    7.7195   -5.5458 H   0  0  0  0  0  0  0  0  0  0  0  0
   -5.7680    6.3919   -7.0211 H   0  0  0  0  0  0  0  0  0  0  0  0
   -5.7519    5.3012   -9.1645 H   0  0  0  0  0  0  0  0  0  0  0  0
   -6.2825    6.7620   -9.9860 H   0  0  0  0  0  0  0  0  0  0  0  0
   -7.8801    5.1656   -7.8892 H   0  0  0  0  0  0  0  0  0  0  0  0
   -8.2361    5.3059   -9.6122 H   0  0  0  0  0  0  0  0  0  0  0  0
   -8.2298    7.0981   -6.4835 H   0  0  0  0  0  0  0  0  0  0  0  0
   -8.8207    8.5846   -7.2387 H   0  0  0  0  0  0  0  0  0  0  0  0
   -6.3792    8.7541   -6.6848 H   0  0  0  0  0  0  0  0  0  0  0  0
   -6.6956    8.9448   -8.4021 H   0  0  0  0  0  0  0  0  0  0  0  0
   -0.2778    4.8799   -9.8528 H   0  0  0  0  0  0  0  0  0  0  0  0
   -1.4672    3.5941   -9.6166 H   0  0  0  0  0  0  0  0  0  0  0  0
   -3.3278    5.1137   -9.7708 H   0  0  0  0  0  0  0  0  0  0  0  0
   -2.2077    5.6764  -10.9992 H   0  0  0  0  0  0  0  0  0  0  0  0
    2.4489    3.7022   -4.4899 H   0  0  0  0  0  0  0  0  0  0  0  0
    3.4872    1.9809   -3.0732 H   0  0  0  0  0  0  0  0  0  0  0  0
    3.5449   -1.7733   -0.7374 H   0  0  0  0  0  0  0  0  0  0  0  0
    0.1721   -3.4213   -0.9032 H   0  0  0  0  0  0  0  0  0  0  0  0
    1.7544   -7.1625    0.4958 H   0  0  0  0  0  0  0  0  0  0  0  0
    4.0207   -6.1527    0.6237 H   0  0  0  0  0  0  0  0  0  0  0  0
  1  2  2  0  0  0  0
  2  3  1  0  0  0  0
  2 32  1  0  0  0  0
  3  4  1  0  0  0  0
  3 44  1  0  0  0  0
  4  5  1  0  0  0  0
  4 31  2  0  0  0  0
  5  6  2  0  0  0  0
  5 45  1  0  0  0  0
  6  7  1  0  0  0  0
  6 46  1  0  0  0  0
  7  8  1  0  0  0  0
  7 30  2  0  0  0  0
  8  9  1  0  0  0  0
  9 10  1  0  0  0  0
  9 25  2  0  0  0  0
 10 11  2  0  0  0  0
 11 12  1  0  0  0  0
 11 47  1  0  0  0  0
 12 13  2  0  0  0  0
 13 14  1  0  0  0  0
 13 25  1  0  0  0  0
 14 15  2  0  0  0  0
 14 48  1  0  0  0  0
 15 16  1  0  0  0  0
 15 23  1  0  0  0  0
 16 17  1  0  0  0  0
 17 18  1  0  0  0  0
 17 22  1  0  0  0  0
 17 49  1  0  0  0  0
 18 19  1  0  0  0  0
 18 50  1  0  0  0  0
 18 51  1  0  0  0  0
 19 20  1  0  0  0  0
 19 52  1  0  0  0  0
 19 53  1  0  0  0  0
 20 21  1  0  0  0  0
 21 22  1  0  0  0  0
 21 54  1  0  0  0  0
 21 55  1  0  0  0  0
 22 56  1  0  0  0  0
 22 57  1  0  0  0  0
 23 24  2  0  0  0  0
 23 29  1  0  0  0  0
 24 25  1  0  0  0  0
 24 26  1  0  0  0  0
 26 27  1  0  0  0  0
 27 28  1  0  0  0  0
 27 58  1  0  0  0  0
 27 59  1  0  0  0  0
 28 29  1  0  0  0  0
 28 60  1  0  0  0  0
 28 61  1  0  0  0  0
 30 31  1  0  0  0  0
 30 62  1  0  0  0  0
 31 63  1  0  0  0  0
 32 33  1  0  0  0  0
 32 64  1  0  0  0  0
 33 34  1  0  0  0  0
 33 42  2  0  0  0  0
 34 35  2  0  0  0  0
 34 65  1  0  0  0  0
 35 36  1  0  0  0  0
 35 40  1  0  0  0  0
 36 37  1  0  0  0  0
 36 38  1  0  0  0  0
 36 39  1  0  0  0  0
 40 41  2  0  0  0  0
 40 66  1  0  0  0  0
 41 42  1  0  0  0  0
 41 67  1  0  0  0  0
 42 43  1  0  0  0  0
M  END
$$$$
