CHEMBL1975921
 OpenBabel04072215363D

 15 16  0  0  0  0  0  0  0  0999 V2000
    4.7247   -0.6780    0.0089 O   0  0  0  0  0  0  0  0  0  0  0  0
    3.5468   -0.3699   -0.0045 C   0  0  0  0  0  0  0  0  0  0  0  0
    2.4583   -1.2549   -0.0406 N   0  0  0  0  0  0  0  0  0  0  0  0
    1.2901   -0.5026   -0.0389 C   0  0  0  0  0  0  0  0  0  0  0  0
   -0.0249   -0.8945   -0.0561 C   0  0  0  0  0  0  0  0  0  0  0  0
   -0.9620    0.1392   -0.0425 C   0  0  0  0  0  0  0  0  0  0  0  0
   -2.8076   -0.2586   -0.0494 Br  0  0  0  0  0  0  0  0  0  0  0  0
   -0.5283    1.4760   -0.0176 C   0  0  0  0  0  0  0  0  0  0  0  0
    0.7754    1.8663    0.0014 N   0  0  0  0  0  0  0  0  0  0  0  0
    1.6352    0.8464   -0.0081 C   0  0  0  0  0  0  0  0  0  0  0  0
    3.0178    0.9225    0.0145 N   0  0  0  0  0  0  0  0  0  0  0  0
    2.5514   -2.2579   -0.0600 H   0  0  0  0  0  0  0  0  0  0  0  0
   -0.3133   -1.9372   -0.0751 H   0  0  0  0  0  0  0  0  0  0  0  0
   -1.2435    2.2957   -0.0112 H   0  0  0  0  0  0  0  0  0  0  0  0
    3.5496    1.7742    0.0457 H   0  0  0  0  0  0  0  0  0  0  0  0
  1  2  2  0  0  0  0
  2  3  1  0  0  0  0
  2 11  1  0  0  0  0
  3  4  1  0  0  0  0
  3 12  1  0  0  0  0
  4  5  1  0  0  0  0
  4 10  2  0  0  0  0
  5  6  2  0  0  0  0
  5 13  1  0  0  0  0
  6  7  1  0  0  0  0
  6  8  1  0  0  0  0
  8  9  2  0  0  0  0
  8 14  1  0  0  0  0
  9 10  1  0  0  0  0
 10 11  1  0  0  0  0
 11 15  1  0  0  0  0
M  END
$$$$
