CHEMBL3947281
 OpenBabel04072215373D

 39 42  0  0  0  0  0  0  0  0999 V2000
    0.9256   -0.0398   -0.1680 N   0  0  0  0  0  0  0  0  0  0  0  0
    2.2883   -0.0201   -0.1105 C   0  0  0  0  0  0  0  0  0  0  0  0
    3.1244    1.0790   -0.0493 C   0  0  0  0  0  0  0  0  0  0  0  0
    2.6926    2.4654   -0.0097 C   0  0  0  0  0  0  0  0  0  0  0  0
    1.5999    2.7948    0.4486 O   0  0  0  0  0  0  0  0  0  0  0  0
    3.5988    3.5233   -0.5183 C   0  0  0  0  0  0  0  0  0  0  0  0
    4.4514    3.3056   -1.6036 C   0  0  0  0  0  0  0  0  0  0  0  0
    5.2837    4.3359   -2.0514 C   0  0  0  0  0  0  0  0  0  0  0  0
    5.2759    5.5886   -1.4566 C   0  0  0  0  0  0  0  0  0  0  0  0
    6.0958    6.5428   -1.9245 N   0  0  0  0  0  0  0  0  0  0  0  0
    6.0607    7.7550   -1.3309 C   0  0  0  0  0  0  0  0  0  0  0  0
    5.2320    8.0713   -0.2709 C   0  0  0  0  0  0  0  0  0  0  0  0
    4.3848    7.0826    0.2125 C   0  0  0  0  0  0  0  0  0  0  0  0
    4.3951    5.8132   -0.3771 C   0  0  0  0  0  0  0  0  0  0  0  0
    3.5570    4.7841    0.0820 C   0  0  0  0  0  0  0  0  0  0  0  0
    4.4223    0.5338    0.0312 C   0  0  0  0  0  0  0  0  0  0  0  0
    4.4210   -0.7995    0.0223 N   0  0  0  0  0  0  0  0  0  0  0  0
    3.1140   -1.1508   -0.0207 N   0  0  0  0  0  0  0  0  0  0  0  0
    2.7206   -2.5189   -0.0073 C   0  0  0  0  0  0  0  0  0  0  0  0
    1.5631   -2.8932   -0.7151 C   0  0  0  0  0  0  0  0  0  0  0  0
    1.1056   -4.2034   -0.6666 C   0  0  0  0  0  0  0  0  0  0  0  0
   -0.0319   -4.5781   -1.3180 O   0  0  0  0  0  0  0  0  0  0  0  0
    1.7940   -5.1659    0.0514 C   0  0  0  0  0  0  0  0  0  0  0  0
    2.9633   -4.8148    0.7281 C   0  0  0  0  0  0  0  0  0  0  0  0
    3.4388   -3.4967    0.7040 C   0  0  0  0  0  0  0  0  0  0  0  0
    4.8248   -3.1913    1.6962 Cl  0  0  0  0  0  0  0  0  0  0  0  0
    0.4453    0.8475    0.0203 H   0  0  0  0  0  0  0  0  0  0  0  0
    0.4113   -0.8167    0.2399 H   0  0  0  0  0  0  0  0  0  0  0  0
    4.4764    2.3526   -2.1272 H   0  0  0  0  0  0  0  0  0  0  0  0
    5.9501    4.1574   -2.8923 H   0  0  0  0  0  0  0  0  0  0  0  0
    6.7416    8.4919   -1.7472 H   0  0  0  0  0  0  0  0  0  0  0  0
    5.2446    9.0621    0.1679 H   0  0  0  0  0  0  0  0  0  0  0  0
    3.7223    7.3046    1.0453 H   0  0  0  0  0  0  0  0  0  0  0  0
    2.8722    4.9643    0.9097 H   0  0  0  0  0  0  0  0  0  0  0  0
    5.3703    1.0435    0.1116 H   0  0  0  0  0  0  0  0  0  0  0  0
    1.0303   -2.1747   -1.3314 H   0  0  0  0  0  0  0  0  0  0  0  0
   -0.3796   -3.8179   -1.8160 H   0  0  0  0  0  0  0  0  0  0  0  0
    1.4268   -6.1869    0.0881 H   0  0  0  0  0  0  0  0  0  0  0  0
    3.4919   -5.5743    1.2987 H   0  0  0  0  0  0  0  0  0  0  0  0
  1  2  1  0  0  0  0
  1 27  1  0  0  0  0
  1 28  1  0  0  0  0
  2  3  2  0  0  0  0
  2 18  1  0  0  0  0
  3  4  1  0  0  0  0
  3 16  1  0  0  0  0
  4  5  2  0  0  0  0
  4  6  1  0  0  0  0
  6  7  1  0  0  0  0
  6 15  2  0  0  0  0
  7  8  2  0  0  0  0
  7 29  1  0  0  0  0
  8  9  1  0  0  0  0
  8 30  1  0  0  0  0
  9 10  1  0  0  0  0
  9 14  2  0  0  0  0
 10 11  2  0  0  0  0
 11 12  1  0  0  0  0
 11 31  1  0  0  0  0
 12 13  2  0  0  0  0
 12 32  1  0  0  0  0
 13 14  1  0  0  0  0
 13 33  1  0  0  0  0
 14 15  1  0  0  0  0
 15 34  1  0  0  0  0
 16 17  2  0  0  0  0
 16 35  1  0  0  0  0
 17 18  1  0  0  0  0
 18 19  1  0  0  0  0
 19 20  1  0  0  0  0
 19 25  2  0  0  0  0
 20 21  2  0  0  0  0
 20 36  1  0  0  0  0
 21 22  1  0  0  0  0
 21 23  1  0  0  0  0
 22 37  1  0  0  0  0
 23 24  2  0  0  0  0
 23 38  1  0  0  0  0
 24 25  1  0  0  0  0
 24 39  1  0  0  0  0
 25 26  1  0  0  0  0
M  END
$$$$
