CHEMBL3905114
 OpenBabel04072215373D

 67 72  0  0  1  0  0  0  0  0999 V2000
    2.4123   -5.3601    2.6197 C   0  0  0  0  0  0  0  0  0  0  0  0
    3.6588   -4.7828    2.2917 O   0  0  0  0  0  0  0  0  0  0  0  0
    3.7645   -3.8970    1.2623 C   0  0  0  0  0  0  0  0  0  0  0  0
    5.0473   -3.9365    0.6974 C   0  0  0  0  0  0  0  0  0  0  0  0
    5.4418   -3.0281   -0.3139 C   0  0  0  0  0  0  0  0  0  0  0  0
    6.6736   -3.0104   -0.9820 C   0  0  0  0  0  0  0  0  0  0  0  0
    7.6305   -4.0397   -0.7325 N   0  0  0  0  0  0  0  0  0  0  0  0
    9.0046   -3.9002   -1.0473 C   0  0  0  0  0  0  0  0  0  0  0  0
    9.6849   -2.7436   -0.6775 C   0  0  0  0  0  0  0  0  0  0  0  0
   10.9964   -2.5147   -1.0705 C   0  0  0  0  0  0  0  0  0  0  0  0
   11.6530   -3.4628   -1.8603 C   0  0  0  0  0  0  0  0  0  0  0  0
   13.2564   -3.0944   -2.3833 Cl  0  0  0  0  0  0  0  0  0  0  0  0
   10.9953   -4.6501   -2.2002 C   0  0  0  0  0  0  0  0  0  0  0  0
   11.7551   -5.8761   -3.1600 Cl  0  0  0  0  0  0  0  0  0  0  0  0
    9.6720   -4.8745   -1.7970 C   0  0  0  0  0  0  0  0  0  0  0  0
    6.9875   -2.0541   -1.8762 N   0  0  0  0  0  0  0  0  0  0  0  0
    6.0728   -1.1184   -2.1166 C   0  0  0  0  0  0  0  0  0  0  0  0
    4.8651   -1.0544   -1.5560 N   0  0  0  0  0  0  0  0  0  0  0  0
    4.5709   -2.0086   -0.6741 C   0  0  0  0  0  0  0  0  0  0  0  0
    3.3202   -1.9680   -0.0965 C   0  0  0  0  0  0  0  0  0  0  0  0
    2.8468   -2.9505    0.7924 C   0  0  0  0  0  0  0  0  0  0  0  0
    1.5294   -2.9510    1.1909 O   0  0  0  0  0  0  0  0  0  0  0  0
    0.6116   -2.2533    0.3129 C   0  0  0  0  0  0  0  0  0  0  0  0
   -0.6387   -3.0701   -0.0031 C   0  0  3  0  0  0  0  0  0  0  0  0
   -0.1978   -4.4222   -0.5698 C   0  0  0  0  0  0  0  0  0  0  0  0
   -1.3236   -5.1999   -1.0688 N   0  0  0  0  0  0  0  0  0  0  0  0
   -1.6671   -6.5104   -0.7422 C   0  0  0  0  0  0  0  0  0  0  0  0
   -2.6433   -7.0565   -1.2683 O   0  0  0  0  0  0  0  0  0  0  0  0
   -0.8727   -7.3076    0.2518 C   0  0  0  0  0  0  0  0  0  0  0  0
    0.5260   -7.3073    0.1591 C   0  0  0  0  0  0  0  0  0  0  0  0
    1.3066   -7.9738    1.0974 C   0  0  0  0  0  0  0  0  0  0  0  0
    0.7035   -8.6848    2.1255 C   0  0  0  0  0  0  0  0  0  0  0  0
   -0.6879   -8.8085    2.1823 C   0  0  0  0  0  0  0  0  0  0  0  0
   -1.2528   -9.6364    3.1657 C   0  0  0  0  0  0  0  0  0  0  0  0
   -2.6266   -9.8452    3.2217 C   0  0  0  0  0  0  0  0  0  0  0  0
   -3.4529   -9.2019    2.3129 C   0  0  0  0  0  0  0  0  0  0  0  0
   -2.9063   -8.3417    1.3544 C   0  0  0  0  0  0  0  0  0  0  0  0
   -1.5089   -8.1265    1.2405 C   0  0  0  0  0  0  0  0  0  0  0  0
   -2.1595   -4.4413   -2.0131 C   0  0  0  0  0  0  0  0  0  0  0  0
   -2.5685   -3.1002   -1.3917 C   0  0  0  0  0  0  0  0  0  0  0  0
   -1.4193   -2.3423   -0.9745 O   0  0  0  0  0  0  0  0  0  0  0  0
    2.6170   -6.4125    2.8404 H   0  0  0  0  0  0  0  0  0  0  0  0
    1.6907   -5.3178    1.8093 H   0  0  0  0  0  0  0  0  0  0  0  0
    2.0036   -4.9186    3.5308 H   0  0  0  0  0  0  0  0  0  0  0  0
    5.7587   -4.6752    1.0679 H   0  0  0  0  0  0  0  0  0  0  0  0
    7.2361   -4.9340   -1.0026 H   0  0  0  0  0  0  0  0  0  0  0  0
    9.1723   -1.9779   -0.0844 H   0  0  0  0  0  0  0  0  0  0  0  0
   11.4874   -1.5861   -0.7961 H   0  0  0  0  0  0  0  0  0  0  0  0
    9.1668   -5.7834   -2.0941 H   0  0  0  0  0  0  0  0  0  0  0  0
    6.3255   -0.3402   -2.8280 H   0  0  0  0  0  0  0  0  0  0  0  0
    2.7105   -1.1172   -0.3789 H   0  0  0  0  0  0  0  0  0  0  0  0
    1.0317   -2.0332   -0.6751 H   0  0  0  0  0  0  0  0  0  0  0  0
    0.3487   -1.2934    0.7713 H   0  0  0  0  0  0  0  0  0  0  0  0
   -1.2400   -3.2173    0.9038 H   0  0  0  0  0  0  0  0  0  0  0  0
    0.3358   -4.9440    0.2104 H   0  0  0  0  0  0  0  0  0  0  0  0
    0.4793   -4.2799   -1.4248 H   0  0  0  0  0  0  0  0  0  0  0  0
    1.0326   -6.7619   -0.6326 H   0  0  0  0  0  0  0  0  0  0  0  0
    2.3909   -7.9074    1.0459 H   0  0  0  0  0  0  0  0  0  0  0  0
    1.3346   -9.1699    2.8679 H   0  0  0  0  0  0  0  0  0  0  0  0
   -0.6190  -10.1560    3.8827 H   0  0  0  0  0  0  0  0  0  0  0  0
   -3.0468  -10.5174    3.9646 H   0  0  0  0  0  0  0  0  0  0  0  0
   -4.5261   -9.3731    2.3344 H   0  0  0  0  0  0  0  0  0  0  0  0
   -3.6001   -7.8691    0.6630 H   0  0  0  0  0  0  0  0  0  0  0  0
   -3.0497   -5.0025   -2.3114 H   0  0  0  0  0  0  0  0  0  0  0  0
   -1.5518   -4.2678   -2.9098 H   0  0  0  0  0  0  0  0  0  0  0  0
   -3.2187   -3.2495   -0.5225 H   0  0  0  0  0  0  0  0  0  0  0  0
   -3.1147   -2.4970   -2.1241 H   0  0  0  0  0  0  0  0  0  0  0  0
  1  2  1  0  0  0  0
  1 42  1  0  0  0  0
  1 43  1  0  0  0  0
  1 44  1  0  0  0  0
  2  3  1  0  0  0  0
  3  4  1  0  0  0  0
  3 21  2  0  0  0  0
  4  5  2  0  0  0  0
  4 45  1  0  0  0  0
  5  6  1  0  0  0  0
  5 19  1  0  0  0  0
  6  7  1  0  0  0  0
  6 16  2  0  0  0  0
  7  8  1  0  0  0  0
  7 46  1  0  0  0  0
  8  9  1  0  0  0  0
  8 15  2  0  0  0  0
  9 10  2  0  0  0  0
  9 47  1  0  0  0  0
 10 11  1  0  0  0  0
 10 48  1  0  0  0  0
 11 12  1  0  0  0  0
 11 13  2  0  0  0  0
 13 14  1  0  0  0  0
 13 15  1  0  0  0  0
 15 49  1  0  0  0  0
 16 17  1  0  0  0  0
 17 18  2  0  0  0  0
 17 50  1  0  0  0  0
 18 19  1  0  0  0  0
 19 20  2  0  0  0  0
 20 21  1  0  0  0  0
 20 51  1  0  0  0  0
 21 22  1  0  0  0  0
 22 23  1  0  0  0  0
 23 24  1  0  0  0  0
 23 52  1  0  0  0  0
 23 53  1  0  0  0  0
 24 25  1  0  0  0  0
 24 41  1  0  0  0  0
 24 54  1  0  0  0  0
 25 26  1  0  0  0  0
 25 55  1  0  0  0  0
 25 56  1  0  0  0  0
 26 27  1  0  0  0  0
 26 39  1  0  0  0  0
 27 28  2  0  0  0  0
 27 29  1  0  0  0  0
 29 30  1  0  0  0  0
 29 38  2  0  0  0  0
 30 31  2  0  0  0  0
 30 57  1  0  0  0  0
 31 32  1  0  0  0  0
 31 58  1  0  0  0  0
 32 33  2  0  0  0  0
 32 59  1  0  0  0  0
 33 34  1  0  0  0  0
 33 38  1  0  0  0  0
 34 35  2  0  0  0  0
 34 60  1  0  0  0  0
 35 36  1  0  0  0  0
 35 61  1  0  0  0  0
 36 37  2  0  0  0  0
 36 62  1  0  0  0  0
 37 38  1  0  0  0  0
 37 63  1  0  0  0  0
 39 40  1  0  0  0  0
 39 64  1  0  0  0  0
 39 65  1  0  0  0  0
 40 41  1  0  0  0  0
 40 66  1  0  0  0  0
 40 67  1  0  0  0  0
M  END
$$$$
