CHEMBL3890852
 OpenBabel04072215373D

 63 66  0  0  1  0  0  0  0  0999 V2000
    2.5999   -4.8104    2.3315 C   0  0  0  0  0  0  0  0  0  0  0  0
    3.8694   -4.2316    2.0381 O   0  0  0  0  0  0  0  0  0  0  0  0
    3.9282   -2.8604    2.0072 C   0  0  0  0  0  0  0  0  0  0  0  0
    2.8334   -2.0180    2.2009 C   0  0  0  0  0  0  0  0  0  0  0  0
    3.0065   -0.6497    2.0914 C   0  0  0  0  0  0  0  0  0  0  0  0
    2.0404    0.3011    2.2933 O   0  0  0  0  0  0  0  0  0  0  0  0
    0.7876   -0.1328    2.8144 C   0  0  0  0  0  0  0  0  0  0  0  0
    4.2791   -0.1431    1.7913 C   0  0  0  0  0  0  0  0  0  0  0  0
    5.4526   -0.9289    1.8258 C   0  0  0  0  0  0  0  0  0  0  0  0
    6.8042   -0.3193    1.9330 N   0  0  0  0  0  0  0  0  0  0  0  0
    6.9682    1.0972    2.1937 C   0  0  0  0  0  0  0  0  0  0  0  0
    6.0266    1.7039    3.0206 C   0  0  0  0  0  0  0  0  0  0  0  0
    5.6446    3.0053    2.7835 C   0  0  0  0  0  0  0  0  0  0  0  0
    6.3815    3.8206    1.9817 C   0  0  0  0  0  0  0  0  0  0  0  0
    5.7931    4.9825    1.7285 N   0  0  0  0  0  0  0  0  0  0  0  0
    6.5911    5.9383    1.2668 C   0  0  0  0  0  0  0  0  0  0  0  0
    7.9525    5.7481    1.1410 C   0  0  0  0  0  0  0  0  0  0  0  0
    8.7380    6.9786    1.1843 C   0  0  0  0  0  0  0  0  0  0  0  0
    9.3460    7.6273    2.2965 C   0  0  0  0  0  0  0  0  0  0  0  0
    9.7174    8.8876    2.0280 N   0  0  0  0  0  0  0  0  0  0  0  0
    9.3275    9.0604    0.7541 N   0  0  0  0  0  0  0  0  0  0  0  0
    9.7519   10.2166    0.0013 C   0  0  0  0  0  0  0  0  0  0  0  0
    8.6007    8.0097    0.2690 C   0  0  0  0  0  0  0  0  0  0  0  0
    8.5155    4.4881    1.2161 N   0  0  0  0  0  0  0  0  0  0  0  0
    7.6763    3.4346    1.5726 C   0  0  0  0  0  0  0  0  0  0  0  0
    7.8873    1.9882    1.5808 C   0  0  0  0  0  0  0  0  0  0  0  0
    7.7280   -1.2307    2.7302 C   0  0  3  0  0  0  0  0  0  0  0  0
    8.7699   -1.8802    1.8117 C   0  0  0  0  0  0  0  0  0  0  0  0
    8.4174   -0.6238    3.9857 C   0  0  0  0  0  0  0  0  0  0  0  0
    7.4588   -0.1338    4.9782 N   0  0  0  0  0  0  0  0  0  0  0  0
    8.0967    0.5800    6.0944 C   0  0  0  0  0  0  0  0  0  0  0  0
    7.1360    1.2688    7.0894 C   0  0  0  0  0  0  0  0  0  0  0  0
    5.8498    1.1202    6.7480 F   0  0  0  0  0  0  0  0  0  0  0  0
    7.3049    0.7408    8.3307 F   0  0  0  0  0  0  0  0  0  0  0  0
    7.3980    2.5931    7.1875 F   0  0  0  0  0  0  0  0  0  0  0  0
    5.2179   -2.3180    1.8095 C   0  0  0  0  0  0  0  0  0  0  0  0
    2.7228   -5.8966    2.3704 H   0  0  0  0  0  0  0  0  0  0  0  0
    1.8700   -4.5860    1.5454 H   0  0  0  0  0  0  0  0  0  0  0  0
    2.2309   -4.4879    3.3122 H   0  0  0  0  0  0  0  0  0  0  0  0
    1.8517   -2.4193    2.4107 H   0  0  0  0  0  0  0  0  0  0  0  0
    0.2244    0.7534    3.1258 H   0  0  0  0  0  0  0  0  0  0  0  0
    0.8983   -0.7709    3.6990 H   0  0  0  0  0  0  0  0  0  0  0  0
    0.2134   -0.6401    2.0337 H   0  0  0  0  0  0  0  0  0  0  0  0
    4.3212    0.9249    1.6154 H   0  0  0  0  0  0  0  0  0  0  0  0
    5.4162    1.1063    3.6897 H   0  0  0  0  0  0  0  0  0  0  0  0
    4.7236    3.3698    3.2249 H   0  0  0  0  0  0  0  0  0  0  0  0
    6.1125    6.8975    1.1056 H   0  0  0  0  0  0  0  0  0  0  0  0
    9.4888    7.2579    3.3056 H   0  0  0  0  0  0  0  0  0  0  0  0
   10.3931   10.8504    0.6187 H   0  0  0  0  0  0  0  0  0  0  0  0
    8.8738   10.7737   -0.3343 H   0  0  0  0  0  0  0  0  0  0  0  0
   10.3190    9.8483   -0.8580 H   0  0  0  0  0  0  0  0  0  0  0  0
    8.0703    8.0810   -0.6701 H   0  0  0  0  0  0  0  0  0  0  0  0
    8.7764    1.6029    1.0673 H   0  0  0  0  0  0  0  0  0  0  0  0
    7.1589   -2.0637    3.1629 H   0  0  0  0  0  0  0  0  0  0  0  0
    9.4392   -1.1397    1.3697 H   0  0  0  0  0  0  0  0  0  0  0  0
    8.2926   -2.4392    1.0007 H   0  0  0  0  0  0  0  0  0  0  0  0
    9.3808   -2.5958    2.3772 H   0  0  0  0  0  0  0  0  0  0  0  0
    9.1081    0.1691    3.6807 H   0  0  0  0  0  0  0  0  0  0  0  0
    9.0206   -1.4094    4.4602 H   0  0  0  0  0  0  0  0  0  0  0  0
    6.8252   -0.8651    5.3008 H   0  0  0  0  0  0  0  0  0  0  0  0
    8.7560    1.3534    5.6842 H   0  0  0  0  0  0  0  0  0  0  0  0
    8.7307   -0.1229    6.6458 H   0  0  0  0  0  0  0  0  0  0  0  0
    6.0305   -3.0226    1.6617 H   0  0  0  0  0  0  0  0  0  0  0  0
  1  2  1  0  0  0  0
  1 37  1  0  0  0  0
  1 38  1  0  0  0  0
  1 39  1  0  0  0  0
  2  3  1  0  0  0  0
  3  4  1  0  0  0  0
  3 36  2  0  0  0  0
  4  5  2  0  0  0  0
  4 40  1  0  0  0  0
  5  6  1  0  0  0  0
  5  8  1  0  0  0  0
  6  7  1  0  0  0  0
  7 41  1  0  0  0  0
  7 42  1  0  0  0  0
  7 43  1  0  0  0  0
  8  9  2  0  0  0  0
  8 44  1  0  0  0  0
  9 10  1  0  0  0  0
  9 36  1  0  0  0  0
 10 11  1  0  0  0  0
 10 27  1  0  0  0  0
 11 12  1  0  0  0  0
 11 26  2  0  0  0  0
 12 13  2  0  0  0  0
 12 45  1  0  0  0  0
 13 14  1  0  0  0  0
 13 46  1  0  0  0  0
 14 15  1  0  0  0  0
 14 25  2  0  0  0  0
 15 16  2  0  0  0  0
 16 17  1  0  0  0  0
 16 47  1  0  0  0  0
 17 18  1  0  0  0  0
 17 24  2  0  0  0  0
 18 19  1  0  0  0  0
 18 23  2  0  0  0  0
 19 20  2  0  0  0  0
 19 48  1  0  0  0  0
 20 21  1  0  0  0  0
 21 22  1  0  0  0  0
 21 23  1  0  0  0  0
 22 49  1  0  0  0  0
 22 50  1  0  0  0  0
 22 51  1  0  0  0  0
 23 52  1  0  0  0  0
 24 25  1  0  0  0  0
 25 26  1  0  0  0  0
 26 53  1  0  0  0  0
 27 28  1  0  0  0  0
 27 29  1  0  0  0  0
 27 54  1  0  0  0  0
 28 55  1  0  0  0  0
 28 56  1  0  0  0  0
 28 57  1  0  0  0  0
 29 30  1  0  0  0  0
 29 58  1  0  0  0  0
 29 59  1  0  0  0  0
 30 31  1  0  0  0  0
 30 60  1  0  0  0  0
 31 32  1  0  0  0  0
 31 61  1  0  0  0  0
 31 62  1  0  0  0  0
 32 33  1  0  0  0  0
 32 34  1  0  0  0  0
 32 35  1  0  0  0  0
 36 63  1  0  0  0  0
M  END
$$$$
