CHEMBL1241774
 OpenBabel04072215363D

 38 41  0  0  0  0  0  0  0  0999 V2000
    3.1521    0.3952    1.2905 C   0  0  0  0  0  0  0  0  0  0  0  0
    2.5092   -0.0752   -0.0160 C   0  0  0  0  0  0  0  0  0  0  0  0
    0.9921   -0.0423    0.1443 C   0  0  0  0  0  0  0  0  0  0  0  0
    2.9844    0.7406   -1.1464 N   0  0  0  0  0  0  0  0  0  0  0  0
    2.7533    2.0897   -1.1347 N   0  0  0  0  0  0  0  0  0  0  0  0
    3.0512    2.5043   -2.3894 C   0  0  0  0  0  0  0  0  0  0  0  0
    2.9826    3.9319   -2.8012 C   0  0  0  0  0  0  0  0  0  0  0  0
    3.2442    4.8015   -1.7680 C   0  0  0  0  0  0  0  0  0  0  0  0
    3.3141    6.1026   -2.0754 C   0  0  0  0  0  0  0  0  0  0  0  0
    3.1464    6.5071   -3.3410 C   0  0  0  0  0  0  0  0  0  0  0  0
    3.2607    7.7460   -3.3206 N   0  0  0  0  0  0  0  0  0  0  0  0
    3.3827    8.9868   -3.2433 C   0  0  0  0  0  0  0  0  0  0  0  0
    3.1112    8.9981   -4.5356 C   0  0  0  0  0  0  0  0  0  0  0  0
    2.8532    7.6288   -5.3698 N   0  0  0  0  0  0  0  0  0  0  0  0
    2.8724    6.1260   -4.5829 C   0  0  0  0  0  0  0  0  0  0  0  0
    2.8114    4.5203   -4.1795 C   0  0  0  0  0  0  0  0  0  0  0  0
    3.6211    1.4438   -3.1369 C   0  0  0  0  0  0  0  0  0  0  0  0
    4.1782    1.3054   -4.4091 C   0  0  0  0  0  0  0  0  0  0  0  0
    4.3111    2.3738   -5.2642 N   0  0  0  0  0  0  0  0  0  0  0  0
    4.5686    0.0782   -4.8116 N   0  0  0  0  0  0  0  0  0  0  0  0
    4.4234   -0.9534   -3.9529 C   0  0  0  0  0  0  0  0  0  0  0  0
    3.9327   -0.9234   -2.7006 N   0  0  0  0  0  0  0  0  0  0  0  0
    3.5482    0.3176   -2.3356 C   0  0  0  0  0  0  0  0  0  0  0  0
    2.8156   -0.2062    2.1437 H   0  0  0  0  0  0  0  0  0  0  0  0
    2.8889    1.4400    1.4857 H   0  0  0  0  0  0  0  0  0  0  0  0
    4.2431    0.3226    1.2419 H   0  0  0  0  0  0  0  0  0  0  0  0
    2.8144   -1.1168   -0.1990 H   0  0  0  0  0  0  0  0  0  0  0  0
    0.6595    0.9830    0.3378 H   0  0  0  0  0  0  0  0  0  0  0  0
    0.6517   -0.6494    0.9877 H   0  0  0  0  0  0  0  0  0  0  0  0
    0.5075   -0.4087   -0.7660 H   0  0  0  0  0  0  0  0  0  0  0  0
    3.4138    4.5754   -0.7269 H   0  0  0  0  0  0  0  0  0  0  0  0
    3.4699    6.9033   -1.3686 H   0  0  0  0  0  0  0  0  0  0  0  0
    3.6757    9.5269   -2.3836 H   0  0  0  0  0  0  0  0  0  0  0  0
    3.0913   10.0430   -4.8541 H   0  0  0  0  0  0  0  0  0  0  0  0
    2.6705    3.7221   -4.9341 H   0  0  0  0  0  0  0  0  0  0  0  0
    4.0883    3.3089   -4.9697 H   0  0  0  0  0  0  0  0  0  0  0  0
    4.7044    2.2444   -6.1797 H   0  0  0  0  0  0  0  0  0  0  0  0
    4.7438   -1.9285   -4.3170 H   0  0  0  0  0  0  0  0  0  0  0  0
  1  2  1  0  0  0  0
  1 24  1  0  0  0  0
  1 25  1  0  0  0  0
  1 26  1  0  0  0  0
  2  3  1  0  0  0  0
  2  4  1  0  0  0  0
  2 27  1  0  0  0  0
  3 28  1  0  0  0  0
  3 29  1  0  0  0  0
  3 30  1  0  0  0  0
  4  5  1  0  0  0  0
  4 23  1  0  0  0  0
  5  6  2  0  0  0  0
  6  7  1  0  0  0  0
  6 17  1  0  0  0  0
  7  8  1  0  0  0  0
  7 16  2  0  0  0  0
  8  9  2  0  0  0  0
  8 31  1  0  0  0  0
  9 10  1  0  0  0  0
  9 32  1  0  0  0  0
 10 11  1  0  0  0  0
 10 15  2  0  0  0  0
 11 12  2  0  0  0  0
 12 13  1  0  0  0  0
 12 33  1  0  0  0  0
 13 14  2  0  0  0  0
 13 34  1  0  0  0  0
 14 15  1  0  0  0  0
 15 16  1  0  0  0  0
 16 35  1  0  0  0  0
 17 18  1  0  0  0  0
 17 23  2  0  0  0  0
 18 19  1  0  0  0  0
 18 20  2  0  0  0  0
 19 36  1  0  0  0  0
 19 37  1  0  0  0  0
 20 21  1  0  0  0  0
 21 22  2  0  0  0  0
 21 38  1  0  0  0  0
 22 23  1  0  0  0  0
M  END
$$$$
