CHEMBL3758875
 OpenBabel04072215373D

 72 76  0  0  0  0  0  0  0  0999 V2000
    2.7270    1.2970   -0.4140 C   0  0  0  0  0  0  0  0  0  0  0  0
    2.5062   -0.1034   -0.3148 O   0  0  0  0  0  0  0  0  0  0  0  0
    3.2583   -0.8498    0.5448 C   0  0  0  0  0  0  0  0  0  0  0  0
    4.4546   -0.3799    1.0733 C   0  0  0  0  0  0  0  0  0  0  0  0
    5.1852   -1.1203    2.0186 C   0  0  0  0  0  0  0  0  0  0  0  0
    6.3438   -0.6427    2.6329 C   0  0  0  0  0  0  0  0  0  0  0  0
    6.7535    0.6978    2.3707 N   0  0  0  0  0  0  0  0  0  0  0  0
    8.0549    1.1793    2.5898 C   0  0  0  0  0  0  0  0  0  0  0  0
    9.1461    0.4184    2.1774 C   0  0  0  0  0  0  0  0  0  0  0  0
   10.4431    0.8020    2.4957 C   0  0  0  0  0  0  0  0  0  0  0  0
   10.6887    1.9575    3.2309 C   0  0  0  0  0  0  0  0  0  0  0  0
   11.9870    2.3219    3.6691 N   0  0  0  0  0  0  0  0  0  0  0  0
   13.1314    1.5595    3.4880 C   0  0  0  0  0  0  0  0  0  0  0  0
   13.2121    0.5143    2.8500 O   0  0  0  0  0  0  0  0  0  0  0  0
   14.3943    2.0448    4.1066 C   0  0  0  0  0  0  0  0  0  0  0  0
   14.4524    2.8222    5.2666 C   0  0  0  0  0  0  0  0  0  0  0  0
   15.6986    3.1597    5.8141 C   0  0  0  0  0  0  0  0  0  0  0  0
   16.8885    2.7213    5.2148 C   0  0  0  0  0  0  0  0  0  0  0  0
   18.2317    3.0540    5.7929 C   0  0  0  0  0  0  0  0  0  0  0  0
   16.8233    1.9370    4.0610 C   0  0  0  0  0  0  0  0  0  0  0  0
   15.5885    1.6024    3.5147 C   0  0  0  0  0  0  0  0  0  0  0  0
    9.6062    2.7801    3.5643 C   0  0  0  0  0  0  0  0  0  0  0  0
    8.2944    2.3933    3.2388 C   0  0  0  0  0  0  0  0  0  0  0  0
    7.0661   -1.4070    3.4696 N   0  0  0  0  0  0  0  0  0  0  0  0
    6.6050   -2.6367    3.7137 C   0  0  0  0  0  0  0  0  0  0  0  0
    5.4770   -3.1687    3.2259 N   0  0  0  0  0  0  0  0  0  0  0  0
    4.7728   -2.4087    2.3783 C   0  0  0  0  0  0  0  0  0  0  0  0
    3.6007   -2.8933    1.8095 C   0  0  0  0  0  0  0  0  0  0  0  0
    2.8341   -2.1386    0.8995 C   0  0  0  0  0  0  0  0  0  0  0  0
    1.7164   -2.8080    0.4583 O   0  0  0  0  0  0  0  0  0  0  0  0
    0.9243   -2.1701   -0.5423 C   0  0  0  0  0  0  0  0  0  0  0  0
   -0.1868   -3.0980   -1.0111 C   0  0  0  0  0  0  0  0  0  0  0  0
   -1.1237   -3.4960    0.1324 C   0  0  0  0  0  0  0  0  0  0  0  0
   -2.3099   -4.2324   -0.3389 N   0  0  0  0  0  0  0  0  0  0  0  0
   -3.2096   -4.5643    0.7912 C   0  0  0  0  0  0  0  0  0  0  0  0
   -2.7186   -5.7269    1.6767 C   0  0  0  0  0  0  0  0  0  0  0  0
   -2.4051   -6.8962    0.9090 O   0  0  0  0  0  0  0  0  0  0  0  0
   -1.4514   -6.5916   -0.1159 C   0  0  0  0  0  0  0  0  0  0  0  0
   -1.9891   -5.4933   -1.0435 C   0  0  0  0  0  0  0  0  0  0  0  0
    3.3086    1.5051   -1.3165 H   0  0  0  0  0  0  0  0  0  0  0  0
    3.2039    1.7462    0.4617 H   0  0  0  0  0  0  0  0  0  0  0  0
    1.7492    1.7769   -0.5138 H   0  0  0  0  0  0  0  0  0  0  0  0
    4.8689    0.5644    0.7346 H   0  0  0  0  0  0  0  0  0  0  0  0
    6.0268    1.3460    2.6499 H   0  0  0  0  0  0  0  0  0  0  0  0
    8.9929   -0.5102    1.6333 H   0  0  0  0  0  0  0  0  0  0  0  0
   11.2285    0.1326    2.1635 H   0  0  0  0  0  0  0  0  0  0  0  0
   12.0607    3.1880    4.1804 H   0  0  0  0  0  0  0  0  0  0  0  0
   13.5527    3.1358    5.7861 H   0  0  0  0  0  0  0  0  0  0  0  0
   15.7359    3.7521    6.7266 H   0  0  0  0  0  0  0  0  0  0  0  0
   18.1438    3.6872    6.6804 H   0  0  0  0  0  0  0  0  0  0  0  0
   18.8340    3.5902    5.0520 H   0  0  0  0  0  0  0  0  0  0  0  0
   18.7544    2.1354    6.0802 H   0  0  0  0  0  0  0  0  0  0  0  0
   17.7299    1.5671    3.5875 H   0  0  0  0  0  0  0  0  0  0  0  0
   15.5566    0.9704    2.6280 H   0  0  0  0  0  0  0  0  0  0  0  0
    9.7533    3.7063    4.1090 H   0  0  0  0  0  0  0  0  0  0  0  0
    7.4662    3.0274    3.5446 H   0  0  0  0  0  0  0  0  0  0  0  0
    7.2025   -3.2591    4.3708 H   0  0  0  0  0  0  0  0  0  0  0  0
    3.2711   -3.8951    2.0800 H   0  0  0  0  0  0  0  0  0  0  0  0
    1.5415   -1.9431   -1.4195 H   0  0  0  0  0  0  0  0  0  0  0  0
    0.4677   -1.2622   -0.1327 H   0  0  0  0  0  0  0  0  0  0  0  0
    0.2799   -3.9886   -1.4446 H   0  0  0  0  0  0  0  0  0  0  0  0
   -0.7536   -2.5919   -1.8022 H   0  0  0  0  0  0  0  0  0  0  0  0
   -1.4678   -2.5743    0.6204 H   0  0  0  0  0  0  0  0  0  0  0  0
   -0.5654   -4.0607    0.8870 H   0  0  0  0  0  0  0  0  0  0  0  0
   -4.1791   -4.8452    0.3601 H   0  0  0  0  0  0  0  0  0  0  0  0
   -3.3992   -3.6776    1.4080 H   0  0  0  0  0  0  0  0  0  0  0  0
   -3.5094   -6.0051    2.3809 H   0  0  0  0  0  0  0  0  0  0  0  0
   -1.8405   -5.4419    2.2666 H   0  0  0  0  0  0  0  0  0  0  0  0
   -1.2799   -7.5069   -0.6911 H   0  0  0  0  0  0  0  0  0  0  0  0
   -0.4966   -6.3112    0.3439 H   0  0  0  0  0  0  0  0  0  0  0  0
   -2.9188   -5.8526   -1.5040 H   0  0  0  0  0  0  0  0  0  0  0  0
   -1.3026   -5.3267   -1.8788 H   0  0  0  0  0  0  0  0  0  0  0  0
  1  2  1  0  0  0  0
  1 40  1  0  0  0  0
  1 41  1  0  0  0  0
  1 42  1  0  0  0  0
  2  3  1  0  0  0  0
  3  4  1  0  0  0  0
  3 29  2  0  0  0  0
  4  5  2  0  0  0  0
  4 43  1  0  0  0  0
  5  6  1  0  0  0  0
  5 27  1  0  0  0  0
  6  7  1  0  0  0  0
  6 24  2  0  0  0  0
  7  8  1  0  0  0  0
  7 44  1  0  0  0  0
  8  9  1  0  0  0  0
  8 23  2  0  0  0  0
  9 10  2  0  0  0  0
  9 45  1  0  0  0  0
 10 11  1  0  0  0  0
 10 46  1  0  0  0  0
 11 12  1  0  0  0  0
 11 22  2  0  0  0  0
 12 13  1  0  0  0  0
 12 47  1  0  0  0  0
 13 14  2  0  0  0  0
 13 15  1  0  0  0  0
 15 16  1  0  0  0  0
 15 21  2  0  0  0  0
 16 17  2  0  0  0  0
 16 48  1  0  0  0  0
 17 18  1  0  0  0  0
 17 49  1  0  0  0  0
 18 19  1  0  0  0  0
 18 20  2  0  0  0  0
 19 50  1  0  0  0  0
 19 51  1  0  0  0  0
 19 52  1  0  0  0  0
 20 21  1  0  0  0  0
 20 53  1  0  0  0  0
 21 54  1  0  0  0  0
 22 23  1  0  0  0  0
 22 55  1  0  0  0  0
 23 56  1  0  0  0  0
 24 25  1  0  0  0  0
 25 26  2  0  0  0  0
 25 57  1  0  0  0  0
 26 27  1  0  0  0  0
 27 28  2  0  0  0  0
 28 29  1  0  0  0  0
 28 58  1  0  0  0  0
 29 30  1  0  0  0  0
 30 31  1  0  0  0  0
 31 32  1  0  0  0  0
 31 59  1  0  0  0  0
 31 60  1  0  0  0  0
 32 33  1  0  0  0  0
 32 61  1  0  0  0  0
 32 62  1  0  0  0  0
 33 34  1  0  0  0  0
 33 63  1  0  0  0  0
 33 64  1  0  0  0  0
 34 35  1  0  0  0  0
 34 39  1  0  0  0  0
 35 36  1  0  0  0  0
 35 65  1  0  0  0  0
 35 66  1  0  0  0  0
 36 37  1  0  0  0  0
 36 67  1  0  0  0  0
 36 68  1  0  0  0  0
 37 38  1  0  0  0  0
 38 39  1  0  0  0  0
 38 69  1  0  0  0  0
 38 70  1  0  0  0  0
 39 71  1  0  0  0  0
 39 72  1  0  0  0  0
M  END
$$$$
