CHEMBL3702621
 OpenBabel04072215373D

 47 49  0  0  0  0  0  0  0  0999 V2000
    2.0952   -0.1792    1.1058 C   0  0  0  0  0  0  0  0  0  0  0  0
    2.5175    0.2019   -0.3076 C   0  0  0  0  0  0  0  0  0  0  0  0
    2.9281   -0.9520   -1.1173 N   0  0  0  0  0  0  0  0  0  0  0  0
    1.9837   -1.4837   -2.1046 C   0  0  0  0  0  0  0  0  0  0  0  0
    0.5237   -1.6030   -1.7054 C   0  0  0  0  0  0  0  0  0  0  0  0
    4.2862   -1.3245   -1.0231 C   0  0  0  0  0  0  0  0  0  0  0  0
    5.0263   -0.8396   -0.1633 O   0  0  0  0  0  0  0  0  0  0  0  0
    4.9003   -2.3438   -1.9341 C   0  0  0  0  0  0  0  0  0  0  0  0
    4.5663   -2.4927   -3.2805 C   0  0  0  0  0  0  0  0  0  0  0  0
    5.1068   -3.5365   -4.0268 C   0  0  0  0  0  0  0  0  0  0  0  0
    6.0731   -4.3686   -3.4625 C   0  0  0  0  0  0  0  0  0  0  0  0
    6.5436   -4.1629   -2.1584 C   0  0  0  0  0  0  0  0  0  0  0  0
    7.5968   -4.9106   -1.6664 N   0  0  0  0  0  0  0  0  0  0  0  0
    8.5615   -4.3542   -0.7146 C   0  0  0  0  0  0  0  0  0  0  0  0
    8.3047   -4.9134    0.6736 C   0  0  0  0  0  0  0  0  0  0  0  0
    8.1605   -6.4154    0.6408 C   0  0  0  0  0  0  0  0  0  0  0  0
    8.3493   -7.0631    1.8118 N   0  0  0  0  0  0  0  0  0  0  0  0
    8.1924   -8.3902    1.8024 C   0  0  0  0  0  0  0  0  0  0  0  0
    8.3829   -9.0610    2.9913 N   0  0  0  0  0  0  0  0  0  0  0  0
    7.8241   -9.1078    0.7380 N   0  0  0  0  0  0  0  0  0  0  0  0
    7.6424   -8.4267   -0.4094 C   0  0  0  0  0  0  0  0  0  0  0  0
    7.7982   -7.0680   -0.5275 C   0  0  0  0  0  0  0  0  0  0  0  0
    7.6301   -6.3624   -1.8428 C   0  0  0  0  0  0  0  0  0  0  0  0
    5.9222   -3.1536   -1.4053 C   0  0  0  0  0  0  0  0  0  0  0  0
    1.8197    0.7175    1.6701 H   0  0  0  0  0  0  0  0  0  0  0  0
    2.9059   -0.6790    1.6455 H   0  0  0  0  0  0  0  0  0  0  0  0
    1.2333   -0.8528    1.0987 H   0  0  0  0  0  0  0  0  0  0  0  0
    3.3563    0.9056   -0.2403 H   0  0  0  0  0  0  0  0  0  0  0  0
    1.7128    0.7392   -0.8181 H   0  0  0  0  0  0  0  0  0  0  0  0
    2.2920   -2.4904   -2.3889 H   0  0  0  0  0  0  0  0  0  0  0  0
    2.0567   -0.8296   -2.9815 H   0  0  0  0  0  0  0  0  0  0  0  0
    0.4045   -2.2557   -0.8365 H   0  0  0  0  0  0  0  0  0  0  0  0
   -0.0335   -2.0477   -2.5388 H   0  0  0  0  0  0  0  0  0  0  0  0
    0.0674   -0.6344   -1.4888 H   0  0  0  0  0  0  0  0  0  0  0  0
    3.8846   -1.8112   -3.7745 H   0  0  0  0  0  0  0  0  0  0  0  0
    4.7949   -3.6885   -5.0568 H   0  0  0  0  0  0  0  0  0  0  0  0
    6.5102   -5.1442   -4.0865 H   0  0  0  0  0  0  0  0  0  0  0  0
    8.5539   -3.2577   -0.7013 H   0  0  0  0  0  0  0  0  0  0  0  0
    9.5695   -4.6385   -1.0447 H   0  0  0  0  0  0  0  0  0  0  0  0
    7.3823   -4.4945    1.0938 H   0  0  0  0  0  0  0  0  0  0  0  0
    9.1295   -4.6348    1.3429 H   0  0  0  0  0  0  0  0  0  0  0  0
    8.2277   -8.4264    3.7611 H   0  0  0  0  0  0  0  0  0  0  0  0
    7.8443   -9.9174    2.9796 H   0  0  0  0  0  0  0  0  0  0  0  0
    7.3573   -9.0405   -1.2605 H   0  0  0  0  0  0  0  0  0  0  0  0
    6.7170   -6.7350   -2.3232 H   0  0  0  0  0  0  0  0  0  0  0  0
    8.4781   -6.6183   -2.4903 H   0  0  0  0  0  0  0  0  0  0  0  0
    6.2195   -2.9906   -0.3719 H   0  0  0  0  0  0  0  0  0  0  0  0
  1  2  1  0  0  0  0
  1 25  1  0  0  0  0
  1 26  1  0  0  0  0
  1 27  1  0  0  0  0
  2  3  1  0  0  0  0
  2 28  1  0  0  0  0
  2 29  1  0  0  0  0
  3  4  1  0  0  0  0
  3  6  1  0  0  0  0
  4  5  1  0  0  0  0
  4 30  1  0  0  0  0
  4 31  1  0  0  0  0
  5 32  1  0  0  0  0
  5 33  1  0  0  0  0
  5 34  1  0  0  0  0
  6  7  2  0  0  0  0
  6  8  1  0  0  0  0
  8  9  1  0  0  0  0
  8 24  2  0  0  0  0
  9 10  2  0  0  0  0
  9 35  1  0  0  0  0
 10 11  1  0  0  0  0
 10 36  1  0  0  0  0
 11 12  2  0  0  0  0
 11 37  1  0  0  0  0
 12 13  1  0  0  0  0
 12 24  1  0  0  0  0
 13 14  1  0  0  0  0
 13 23  1  0  0  0  0
 14 15  1  0  0  0  0
 14 38  1  0  0  0  0
 14 39  1  0  0  0  0
 15 16  1  0  0  0  0
 15 40  1  0  0  0  0
 15 41  1  0  0  0  0
 16 17  1  0  0  0  0
 16 22  2  0  0  0  0
 17 18  2  0  0  0  0
 18 19  1  0  0  0  0
 18 20  1  0  0  0  0
 19 42  1  0  0  0  0
 19 43  1  0  0  0  0
 20 21  2  0  0  0  0
 21 22  1  0  0  0  0
 21 44  1  0  0  0  0
 22 23  1  0  0  0  0
 23 45  1  0  0  0  0
 23 46  1  0  0  0  0
 24 47  1  0  0  0  0
M  END
$$$$
