CHEMBL4248249
 OpenBabel04072215383D

 65 69  0  0  0  0  0  0  0  0999 V2000
    2.1738   -0.6839   -0.9768 C   0  0  0  0  0  0  0  0  0  0  0  0
    2.7413   -0.3585    0.2889 O   0  0  0  0  0  0  0  0  0  0  0  0
    3.3287    0.8717    0.3991 C   0  0  0  0  0  0  0  0  0  0  0  0
    3.4160    1.8249   -0.6106 C   0  0  0  0  0  0  0  0  0  0  0  0
    4.0412    3.0499   -0.3646 C   0  0  0  0  0  0  0  0  0  0  0  0
    4.6049    3.3631    0.8868 C   0  0  0  0  0  0  0  0  0  0  0  0
    5.2840    4.6517    1.1046 C   0  0  0  0  0  0  0  0  0  0  0  0
    5.3477    5.4964    0.0777 N   0  0  0  0  0  0  0  0  0  0  0  0
    6.0586    6.6210    0.2709 C   0  0  0  0  0  0  0  0  0  0  0  0
    5.9161    7.6347   -1.1242 Cl  0  0  0  0  0  0  0  0  0  0  0  0
    6.7605    6.9643    1.4236 C   0  0  0  0  0  0  0  0  0  0  0  0
    7.6226    8.1753    1.5441 C   0  0  0  0  0  0  0  0  0  0  0  0
    7.6470    8.9628    2.7107 C   0  0  0  0  0  0  0  0  0  0  0  0
    8.4995   10.0656    2.8408 C   0  0  0  0  0  0  0  0  0  0  0  0
    9.3126   10.4495    1.7820 C   0  0  0  0  0  0  0  0  0  0  0  0
    9.2927    9.7148    0.6038 C   0  0  0  0  0  0  0  0  0  0  0  0
    8.4830    8.5780    0.5010 C   0  0  0  0  0  0  0  0  0  0  0  0
    6.5596    6.0338    2.4558 C   0  0  0  0  0  0  0  0  0  0  0  0
    7.1373    6.2445    3.7361 N   0  0  0  0  0  0  0  0  0  0  0  0
    6.7441    5.6447    4.9515 C   0  0  0  0  0  0  0  0  0  0  0  0
    7.7025    5.3242    5.9139 C   0  0  0  0  0  0  0  0  0  0  0  0
    7.3441    4.6597    7.0963 C   0  0  0  0  0  0  0  0  0  0  0  0
    6.0156    4.3213    7.3615 C   0  0  0  0  0  0  0  0  0  0  0  0
    5.6079    3.5691    8.4875 N   0  0  0  0  0  0  0  0  0  0  0  0
    6.4212    3.1187    9.5223 C   0  0  0  0  0  0  0  0  0  0  0  0
    7.6165    3.3640    9.6636 O   0  0  0  0  0  0  0  0  0  0  0  0
    5.7005    2.2216   10.5419 C   0  0  0  0  0  0  0  0  0  0  0  0
    4.8447    2.9971   11.4666 N   0  0  0  0  0  0  0  0  0  0  0  0
    5.6094    3.9678   12.2737 C   0  0  0  0  0  0  0  0  0  0  0  0
    5.9181    3.2885   13.5926 C   0  0  0  0  0  0  0  0  0  0  0  0
    4.7035    2.4207   13.8269 C   0  0  0  0  0  0  0  0  0  0  0  0
    4.1859    2.0899   12.4320 C   0  0  0  0  0  0  0  0  0  0  0  0
    5.0405    4.7274    6.4465 C   0  0  0  0  0  0  0  0  0  0  0  0
    5.4023    5.3904    5.2619 C   0  0  0  0  0  0  0  0  0  0  0  0
    5.8387    4.8988    2.2930 N   0  0  0  0  0  0  0  0  0  0  0  0
    4.5032    2.3876    1.8936 C   0  0  0  0  0  0  0  0  0  0  0  0
    3.8792    1.1571    1.6500 C   0  0  0  0  0  0  0  0  0  0  0  0
    1.7147   -1.6735   -0.8927 H   0  0  0  0  0  0  0  0  0  0  0  0
    2.9479   -0.7377   -1.7485 H   0  0  0  0  0  0  0  0  0  0  0  0
    1.3898    0.0272   -1.2540 H   0  0  0  0  0  0  0  0  0  0  0  0
    3.0113    1.6534   -1.6016 H   0  0  0  0  0  0  0  0  0  0  0  0
    4.0949    3.7694   -1.1805 H   0  0  0  0  0  0  0  0  0  0  0  0
    7.0012    8.7283    3.5558 H   0  0  0  0  0  0  0  0  0  0  0  0
    8.5182   10.6269    3.7717 H   0  0  0  0  0  0  0  0  0  0  0  0
    9.9584   11.3187    1.8732 H   0  0  0  0  0  0  0  0  0  0  0  0
    9.9101   10.0181   -0.2386 H   0  0  0  0  0  0  0  0  0  0  0  0
    8.5414    8.0145   -0.4286 H   0  0  0  0  0  0  0  0  0  0  0  0
    8.1437    6.3477    3.6464 H   0  0  0  0  0  0  0  0  0  0  0  0
    8.7527    5.5512    5.7506 H   0  0  0  0  0  0  0  0  0  0  0  0
    8.1464    4.4026    7.7793 H   0  0  0  0  0  0  0  0  0  0  0  0
    4.6249    3.3321    8.5545 H   0  0  0  0  0  0  0  0  0  0  0  0
    6.4633    1.6433   11.0809 H   0  0  0  0  0  0  0  0  0  0  0  0
    5.0872    1.5047    9.9799 H   0  0  0  0  0  0  0  0  0  0  0  0
    4.9627    4.8349   12.4546 H   0  0  0  0  0  0  0  0  0  0  0  0
    6.5171    4.3519   11.7999 H   0  0  0  0  0  0  0  0  0  0  0  0
    6.0683    4.0080   14.4041 H   0  0  0  0  0  0  0  0  0  0  0  0
    6.8194    2.6703   13.5118 H   0  0  0  0  0  0  0  0  0  0  0  0
    3.9451    2.9791   14.3882 H   0  0  0  0  0  0  0  0  0  0  0  0
    4.9559    1.5239   14.4022 H   0  0  0  0  0  0  0  0  0  0  0  0
    3.1018    2.2403   12.3919 H   0  0  0  0  0  0  0  0  0  0  0  0
    4.3658    1.0308   12.2091 H   0  0  0  0  0  0  0  0  0  0  0  0
    3.9863    4.5333    6.6258 H   0  0  0  0  0  0  0  0  0  0  0  0
    4.6192    5.6998    4.5728 H   0  0  0  0  0  0  0  0  0  0  0  0
    4.9293    2.5736    2.8794 H   0  0  0  0  0  0  0  0  0  0  0  0
    3.8155    0.4165    2.4463 H   0  0  0  0  0  0  0  0  0  0  0  0
  1  2  1  0  0  0  0
  1 38  1  0  0  0  0
  1 39  1  0  0  0  0
  1 40  1  0  0  0  0
  2  3  1  0  0  0  0
  3  4  1  0  0  0  0
  3 37  2  0  0  0  0
  4  5  2  0  0  0  0
  4 41  1  0  0  0  0
  5  6  1  0  0  0  0
  5 42  1  0  0  0  0
  6  7  1  0  0  0  0
  6 36  2  0  0  0  0
  7  8  1  0  0  0  0
  7 35  2  0  0  0  0
  8  9  2  0  0  0  0
  9 10  1  0  0  0  0
  9 11  1  0  0  0  0
 11 12  1  0  0  0  0
 11 18  2  0  0  0  0
 12 13  1  0  0  0  0
 12 17  2  0  0  0  0
 13 14  2  0  0  0  0
 13 43  1  0  0  0  0
 14 15  1  0  0  0  0
 14 44  1  0  0  0  0
 15 16  2  0  0  0  0
 15 45  1  0  0  0  0
 16 17  1  0  0  0  0
 16 46  1  0  0  0  0
 17 47  1  0  0  0  0
 18 19  1  0  0  0  0
 18 35  1  0  0  0  0
 19 20  1  0  0  0  0
 19 48  1  0  0  0  0
 20 21  1  0  0  0  0
 20 34  2  0  0  0  0
 21 22  2  0  0  0  0
 21 49  1  0  0  0  0
 22 23  1  0  0  0  0
 22 50  1  0  0  0  0
 23 24  1  0  0  0  0
 23 33  2  0  0  0  0
 24 25  1  0  0  0  0
 24 51  1  0  0  0  0
 25 26  2  0  0  0  0
 25 27  1  0  0  0  0
 27 28  1  0  0  0  0
 27 52  1  0  0  0  0
 27 53  1  0  0  0  0
 28 29  1  0  0  0  0
 28 32  1  0  0  0  0
 29 30  1  0  0  0  0
 29 54  1  0  0  0  0
 29 55  1  0  0  0  0
 30 31  1  0  0  0  0
 30 56  1  0  0  0  0
 30 57  1  0  0  0  0
 31 32  1  0  0  0  0
 31 58  1  0  0  0  0
 31 59  1  0  0  0  0
 32 60  1  0  0  0  0
 32 61  1  0  0  0  0
 33 34  1  0  0  0  0
 33 62  1  0  0  0  0
 34 63  1  0  0  0  0
 36 37  1  0  0  0  0
 36 64  1  0  0  0  0
 37 65  1  0  0  0  0
M  END
$$$$
