CHEMBL3676385
 OpenBabel04072215373D

 58 60  0  0  0  0  0  0  0  0999 V2000
    2.0318   -2.0489   -0.6975 C   0  0  0  0  0  0  0  0  0  0  0  0
    2.7408   -0.9304   -0.5021 C   0  0  0  0  0  0  0  0  0  0  0  0
    3.3626   -0.2199   -1.6493 C   0  0  0  0  0  0  0  0  0  0  0  0
    3.0096   -0.4147   -2.8049 O   0  0  0  0  0  0  0  0  0  0  0  0
    4.3872    0.6220   -1.2427 N   0  0  0  0  0  0  0  0  0  0  0  0
    5.1023    1.3147   -2.2420 C   0  0  0  0  0  0  0  0  0  0  0  0
    6.1780    0.6611   -2.8426 C   0  0  0  0  0  0  0  0  0  0  0  0
    6.8044    1.2073   -3.9870 C   0  0  0  0  0  0  0  0  0  0  0  0
    7.8526    0.5911   -4.6944 C   0  0  0  0  0  0  0  0  0  0  0  0
    8.2754   -0.7047   -4.3123 N   0  0  0  0  0  0  0  0  0  0  0  0
    9.5662   -1.2675   -4.3994 C   0  0  0  0  0  0  0  0  0  0  0  0
   10.7186   -0.4769   -4.3456 C   0  0  0  0  0  0  0  0  0  0  0  0
   11.9763   -1.0586   -4.1662 C   0  0  0  0  0  0  0  0  0  0  0  0
   12.1011   -2.4460   -4.0488 C   0  0  0  0  0  0  0  0  0  0  0  0
   13.8251   -3.1314   -3.6408 Br  0  0  0  0  0  0  0  0  0  0  0  0
   10.9729   -3.2605   -4.1761 C   0  0  0  0  0  0  0  0  0  0  0  0
   11.0602   -4.9849   -4.0864 Cl  0  0  0  0  0  0  0  0  0  0  0  0
    9.7202   -2.6623   -4.3438 C   0  0  0  0  0  0  0  0  0  0  0  0
    8.6152   -3.4264   -4.4200 F   0  0  0  0  0  0  0  0  0  0  0  0
    8.4428    1.1672   -5.7550 N   0  0  0  0  0  0  0  0  0  0  0  0
    7.9464    2.3475   -6.1382 C   0  0  0  0  0  0  0  0  0  0  0  0
    6.9448    3.0153   -5.5543 N   0  0  0  0  0  0  0  0  0  0  0  0
    6.3818    2.4489   -4.4813 C   0  0  0  0  0  0  0  0  0  0  0  0
    5.3472    3.1133   -3.8268 C   0  0  0  0  0  0  0  0  0  0  0  0
    4.7126    2.5819   -2.7015 C   0  0  0  0  0  0  0  0  0  0  0  0
    3.7557    3.4028   -2.1416 O   0  0  0  0  0  0  0  0  0  0  0  0
    3.6118    3.2938   -0.7217 C   0  0  0  0  0  0  0  0  0  0  0  0
    3.1516    4.6146   -0.0990 C   0  0  0  0  0  0  0  0  0  0  0  0
    3.1325    4.5217    1.3563 N   0  0  0  0  0  0  0  0  0  0  0  0
    4.2961    4.6684    2.0680 C   0  0  0  0  0  0  0  0  0  0  0  0
    5.3834    4.8972    1.5565 O   0  0  0  0  0  0  0  0  0  0  0  0
    4.0994    4.4966    3.4112 N   0  0  0  0  0  0  0  0  0  0  0  0
    5.1911    4.6309    4.3568 C   0  0  0  0  0  0  0  0  0  0  0  0
    5.2888    6.0488    4.9133 C   0  0  0  0  0  0  0  0  0  0  0  0
    4.0855    6.4170    5.7697 C   0  0  0  0  0  0  0  0  0  0  0  0
    1.5344   -2.5458    0.1282 H   0  0  0  0  0  0  0  0  0  0  0  0
    1.9232   -2.4880   -1.6865 H   0  0  0  0  0  0  0  0  0  0  0  0
    2.8310   -0.4860    0.4809 H   0  0  0  0  0  0  0  0  0  0  0  0
    4.9406    0.2323   -0.4895 H   0  0  0  0  0  0  0  0  0  0  0  0
    6.5035   -0.3010   -2.4542 H   0  0  0  0  0  0  0  0  0  0  0  0
    7.5323   -1.3840   -4.4620 H   0  0  0  0  0  0  0  0  0  0  0  0
   10.6442    0.6075   -4.3911 H   0  0  0  0  0  0  0  0  0  0  0  0
   12.8465   -0.4114   -4.0798 H   0  0  0  0  0  0  0  0  0  0  0  0
    8.3951    2.8039   -7.0150 H   0  0  0  0  0  0  0  0  0  0  0  0
    5.0340    4.0894   -4.2004 H   0  0  0  0  0  0  0  0  0  0  0  0
    4.5575    3.0065   -0.2468 H   0  0  0  0  0  0  0  0  0  0  0  0
    2.8495    2.5368   -0.5052 H   0  0  0  0  0  0  0  0  0  0  0  0
    2.1417    4.8698   -0.4366 H   0  0  0  0  0  0  0  0  0  0  0  0
    3.8114    5.4353   -0.4025 H   0  0  0  0  0  0  0  0  0  0  0  0
    2.2743    4.7439    1.8389 H   0  0  0  0  0  0  0  0  0  0  0  0
    3.2728    3.9979    3.7022 H   0  0  0  0  0  0  0  0  0  0  0  0
    6.1323    4.3677    3.8611 H   0  0  0  0  0  0  0  0  0  0  0  0
    5.0263    3.9068    5.1617 H   0  0  0  0  0  0  0  0  0  0  0  0
    5.3841    6.7714    4.0943 H   0  0  0  0  0  0  0  0  0  0  0  0
    6.1948    6.1305    5.5249 H   0  0  0  0  0  0  0  0  0  0  0  0
    3.1594    6.3939    5.1867 H   0  0  0  0  0  0  0  0  0  0  0  0
    4.2034    7.4273    6.1734 H   0  0  0  0  0  0  0  0  0  0  0  0
    3.9791    5.7251    6.6113 H   0  0  0  0  0  0  0  0  0  0  0  0
  1  2  2  0  0  0  0
  1 36  1  0  0  0  0
  1 37  1  0  0  0  0
  2  3  1  0  0  0  0
  2 38  1  0  0  0  0
  3  4  2  0  0  0  0
  3  5  1  0  0  0  0
  5  6  1  0  0  0  0
  5 39  1  0  0  0  0
  6  7  1  0  0  0  0
  6 25  2  0  0  0  0
  7  8  2  0  0  0  0
  7 40  1  0  0  0  0
  8  9  1  0  0  0  0
  8 23  1  0  0  0  0
  9 10  1  0  0  0  0
  9 20  2  0  0  0  0
 10 11  1  0  0  0  0
 10 41  1  0  0  0  0
 11 12  1  0  0  0  0
 11 18  2  0  0  0  0
 12 13  2  0  0  0  0
 12 42  1  0  0  0  0
 13 14  1  0  0  0  0
 13 43  1  0  0  0  0
 14 15  1  0  0  0  0
 14 16  2  0  0  0  0
 16 17  1  0  0  0  0
 16 18  1  0  0  0  0
 18 19  1  0  0  0  0
 20 21  1  0  0  0  0
 21 22  2  0  0  0  0
 21 44  1  0  0  0  0
 22 23  1  0  0  0  0
 23 24  2  0  0  0  0
 24 25  1  0  0  0  0
 24 45  1  0  0  0  0
 25 26  1  0  0  0  0
 26 27  1  0  0  0  0
 27 28  1  0  0  0  0
 27 46  1  0  0  0  0
 27 47  1  0  0  0  0
 28 29  1  0  0  0  0
 28 48  1  0  0  0  0
 28 49  1  0  0  0  0
 29 30  1  0  0  0  0
 29 50  1  0  0  0  0
 30 31  2  0  0  0  0
 30 32  1  0  0  0  0
 32 33  1  0  0  0  0
 32 51  1  0  0  0  0
 33 34  1  0  0  0  0
 33 52  1  0  0  0  0
 33 53  1  0  0  0  0
 34 35  1  0  0  0  0
 34 54  1  0  0  0  0
 34 55  1  0  0  0  0
 35 56  1  0  0  0  0
 35 57  1  0  0  0  0
 35 58  1  0  0  0  0
M  END
$$$$
