CHEMBL3927585
 OpenBabel04072215373D

 59 63  0  0  0  0  0  0  0  0999 V2000
    0.8862   -1.9481    0.7276 C   0  0  0  0  0  0  0  0  0  0  0  0
    2.0847   -1.1728    0.6643 O   0  0  0  0  0  0  0  0  0  0  0  0
    3.2245   -1.9068    0.4475 C   0  0  0  0  0  0  0  0  0  0  0  0
    3.2749   -3.0408   -0.3496 C   0  0  0  0  0  0  0  0  0  0  0  0
    4.4750   -3.7392   -0.4664 C   0  0  0  0  0  0  0  0  0  0  0  0
    4.6284   -4.8652   -1.2342 O   0  0  0  0  0  0  0  0  0  0  0  0
    3.8483   -4.8758   -2.4276 C   0  0  0  0  0  0  0  0  0  0  0  0
    5.6134   -3.3283    0.2470 C   0  0  0  0  0  0  0  0  0  0  0  0
    5.6319   -2.1456    0.9915 C   0  0  0  0  0  0  0  0  0  0  0  0
    6.8101   -1.7113    1.6587 N   0  0  0  0  0  0  0  0  0  0  0  0
    6.8257   -0.3289    2.2332 C   0  0  0  0  0  0  0  0  0  0  0  0
    7.0759    0.7974    1.2680 C   0  0  0  0  0  0  0  0  0  0  0  0
    6.2791    1.1229    0.2612 N   0  0  0  0  0  0  0  0  0  0  0  0
    6.8148    2.2390   -0.3099 C   0  0  0  0  0  0  0  0  0  0  0  0
    7.9368    2.6385    0.3696 C   0  0  0  0  0  0  0  0  0  0  0  0
    8.1277    1.6896    1.3395 N   0  0  0  0  0  0  0  0  0  0  0  0
    9.2415    1.7006    2.2584 C   0  0  0  0  0  0  0  0  0  0  0  0
    8.0094   -2.4088    1.9679 C   0  0  0  0  0  0  0  0  0  0  0  0
    8.3502   -2.4806    3.3197 C   0  0  0  0  0  0  0  0  0  0  0  0
    9.6798   -2.4210    3.6779 C   0  0  0  0  0  0  0  0  0  0  0  0
   10.6740   -2.5067    2.7307 C   0  0  0  0  0  0  0  0  0  0  0  0
   11.8921   -2.2011    3.1705 N   0  0  0  0  0  0  0  0  0  0  0  0
   12.8956   -2.5114    2.3505 C   0  0  0  0  0  0  0  0  0  0  0  0
   12.6798   -3.2014    1.1712 C   0  0  0  0  0  0  0  0  0  0  0  0
   13.8103   -3.9478    0.6592 C   0  0  0  0  0  0  0  0  0  0  0  0
   14.1450   -5.3129    0.8484 C   0  0  0  0  0  0  0  0  0  0  0  0
   15.3785   -5.6029    0.4178 N   0  0  0  0  0  0  0  0  0  0  0  0
   15.8240   -4.4268   -0.0561 N   0  0  0  0  0  0  0  0  0  0  0  0
   16.9828   -4.3724   -0.9133 C   0  0  0  0  0  0  0  0  0  0  0  0
   14.9940   -3.3809    0.2311 C   0  0  0  0  0  0  0  0  0  0  0  0
   11.4297   -3.3571    0.6437 N   0  0  0  0  0  0  0  0  0  0  0  0
   10.3786   -2.9286    1.4235 C   0  0  0  0  0  0  0  0  0  0  0  0
    9.0086   -2.7799    1.0351 C   0  0  0  0  0  0  0  0  0  0  0  0
    4.4022   -1.4412    1.0561 C   0  0  0  0  0  0  0  0  0  0  0  0
    0.0838   -1.3097    1.1107 H   0  0  0  0  0  0  0  0  0  0  0  0
    0.9970   -2.7937    1.4162 H   0  0  0  0  0  0  0  0  0  0  0  0
    0.5807   -2.2937   -0.2655 H   0  0  0  0  0  0  0  0  0  0  0  0
    2.3916   -3.3720   -0.8790 H   0  0  0  0  0  0  0  0  0  0  0  0
    4.2709   -5.6291   -3.0951 H   0  0  0  0  0  0  0  0  0  0  0  0
    3.8837   -3.9086   -2.9479 H   0  0  0  0  0  0  0  0  0  0  0  0
    2.8141   -5.1594   -2.2080 H   0  0  0  0  0  0  0  0  0  0  0  0
    6.5045   -3.9433    0.1707 H   0  0  0  0  0  0  0  0  0  0  0  0
    7.5695   -0.2368    3.0346 H   0  0  0  0  0  0  0  0  0  0  0  0
    5.8997   -0.1252    2.7835 H   0  0  0  0  0  0  0  0  0  0  0  0
    6.3498    2.7019   -1.1697 H   0  0  0  0  0  0  0  0  0  0  0  0
    8.5954    3.4842    0.2386 H   0  0  0  0  0  0  0  0  0  0  0  0
   10.0819    2.2230    1.7912 H   0  0  0  0  0  0  0  0  0  0  0  0
    9.5489    0.6796    2.4884 H   0  0  0  0  0  0  0  0  0  0  0  0
    8.9351    2.2308    3.1637 H   0  0  0  0  0  0  0  0  0  0  0  0
    7.5812   -2.3737    4.0820 H   0  0  0  0  0  0  0  0  0  0  0  0
    9.9387   -2.2542    4.7137 H   0  0  0  0  0  0  0  0  0  0  0  0
   13.8889   -2.2714    2.7074 H   0  0  0  0  0  0  0  0  0  0  0  0
   13.5610   -6.0977    1.3141 H   0  0  0  0  0  0  0  0  0  0  0  0
   17.3372   -5.3852   -1.1195 H   0  0  0  0  0  0  0  0  0  0  0  0
   17.7626   -3.7804   -0.4303 H   0  0  0  0  0  0  0  0  0  0  0  0
   16.6670   -3.9000   -1.8479 H   0  0  0  0  0  0  0  0  0  0  0  0
   15.2952   -2.3565    0.0648 H   0  0  0  0  0  0  0  0  0  0  0  0
    8.7492   -2.8768   -0.0202 H   0  0  0  0  0  0  0  0  0  0  0  0
    4.3039   -0.5074    1.6036 H   0  0  0  0  0  0  0  0  0  0  0  0
  1  2  1  0  0  0  0
  1 35  1  0  0  0  0
  1 36  1  0  0  0  0
  1 37  1  0  0  0  0
  2  3  1  0  0  0  0
  3  4  1  0  0  0  0
  3 34  2  0  0  0  0
  4  5  2  0  0  0  0
  4 38  1  0  0  0  0
  5  6  1  0  0  0  0
  5  8  1  0  0  0  0
  6  7  1  0  0  0  0
  7 39  1  0  0  0  0
  7 40  1  0  0  0  0
  7 41  1  0  0  0  0
  8  9  2  0  0  0  0
  8 42  1  0  0  0  0
  9 10  1  0  0  0  0
  9 34  1  0  0  0  0
 10 11  1  0  0  0  0
 10 18  1  0  0  0  0
 11 12  1  0  0  0  0
 11 43  1  0  0  0  0
 11 44  1  0  0  0  0
 12 13  2  0  0  0  0
 12 16  1  0  0  0  0
 13 14  1  0  0  0  0
 14 15  2  0  0  0  0
 14 45  1  0  0  0  0
 15 16  1  0  0  0  0
 15 46  1  0  0  0  0
 16 17  1  0  0  0  0
 17 47  1  0  0  0  0
 17 48  1  0  0  0  0
 17 49  1  0  0  0  0
 18 19  1  0  0  0  0
 18 33  2  0  0  0  0
 19 20  2  0  0  0  0
 19 50  1  0  0  0  0
 20 21  1  0  0  0  0
 20 51  1  0  0  0  0
 21 22  1  0  0  0  0
 21 32  2  0  0  0  0
 22 23  2  0  0  0  0
 23 24  1  0  0  0  0
 23 52  1  0  0  0  0
 24 25  1  0  0  0  0
 24 31  2  0  0  0  0
 25 26  1  0  0  0  0
 25 30  2  0  0  0  0
 26 27  2  0  0  0  0
 26 53  1  0  0  0  0
 27 28  1  0  0  0  0
 28 29  1  0  0  0  0
 28 30  1  0  0  0  0
 29 54  1  0  0  0  0
 29 55  1  0  0  0  0
 29 56  1  0  0  0  0
 30 57  1  0  0  0  0
 31 32  1  0  0  0  0
 32 33  1  0  0  0  0
 33 58  1  0  0  0  0
 34 59  1  0  0  0  0
M  END
$$$$
