CHEMBL79475
 OpenBabel04072215383D

 56 60  0  0  0  0  0  0  0  0999 V2000
    0.9149    0.1043    0.5835 O   0  0  0  0  0  0  0  0  0  0  0  0
    2.1010    0.0787    0.2736 C   0  0  0  0  0  0  0  0  0  0  0  0
    2.8347    1.3617    0.1367 C   0  0  0  0  0  0  0  0  0  0  0  0
    4.1470    1.3655   -0.1506 C   0  0  0  0  0  0  0  0  0  0  0  0
    4.8576    0.1191   -0.3013 C   0  0  0  0  0  0  0  0  0  0  0  0
    6.2859    0.0555   -0.5778 C   0  0  0  0  0  0  0  0  0  0  0  0
    7.1910    0.0544    0.4878 C   0  0  0  0  0  0  0  0  0  0  0  0
    8.5617    0.0863    0.2554 C   0  0  0  0  0  0  0  0  0  0  0  0
    8.9602    0.2053   -1.0818 C   0  0  0  0  0  0  0  0  0  0  0  0
    8.0742    0.2430   -2.1500 C   0  0  0  0  0  0  0  0  0  0  0  0
    6.7081    0.0905   -1.9138 C   0  0  0  0  0  0  0  0  0  0  0  0
    8.7102    0.5305   -3.3262 N   0  0  0  0  0  0  0  0  0  0  0  0
    9.9509    0.7724   -2.9697 C   0  0  0  0  0  0  0  0  0  0  0  0
   10.1821    0.4382   -1.6546 N   0  0  0  0  0  0  0  0  0  0  0  0
   11.4426    0.3720   -1.0401 C   0  0  0  0  0  0  0  0  0  0  0  0
   12.3767    1.3574   -1.3482 C   0  0  0  0  0  0  0  0  0  0  0  0
   13.7051    1.1549   -1.0124 C   0  0  0  0  0  0  0  0  0  0  0  0
   14.0848   -0.0177   -0.3587 C   0  0  0  0  0  0  0  0  0  0  0  0
   13.1277   -0.9574    0.0347 C   0  0  0  0  0  0  0  0  0  0  0  0
   11.7874   -0.7573   -0.2853 C   0  0  0  0  0  0  0  0  0  0  0  0
    4.1948   -1.0444   -0.2101 C   0  0  0  0  0  0  0  0  0  0  0  0
    2.8288   -1.0805    0.0169 N   0  0  0  0  0  0  0  0  0  0  0  0
    2.1691   -2.3930    0.0481 C   0  0  0  0  0  0  0  0  0  0  0  0
    1.0597   -2.5543   -1.0128 C   0  0  0  0  0  0  0  0  0  0  0  0
    0.4795   -3.9136   -1.0479 N   0  0  0  0  0  0  0  0  0  0  0  0
   -0.2397   -4.2114    0.2019 C   0  0  0  0  0  0  0  0  0  0  0  0
   -0.7426   -5.6517    0.2071 C   0  0  0  0  0  0  0  0  0  0  0  0
   -1.6421   -5.9262   -0.9892 C   0  0  0  0  0  0  0  0  0  0  0  0
   -0.9427   -5.5219   -2.2820 C   0  0  0  0  0  0  0  0  0  0  0  0
   -0.4192   -4.0824   -2.2059 C   0  0  0  0  0  0  0  0  0  0  0  0
    2.2750    2.2826    0.2702 H   0  0  0  0  0  0  0  0  0  0  0  0
    4.6946    2.2907   -0.2722 H   0  0  0  0  0  0  0  0  0  0  0  0
    6.8321    0.0659    1.5165 H   0  0  0  0  0  0  0  0  0  0  0  0
    9.2704    0.1435    1.0725 H   0  0  0  0  0  0  0  0  0  0  0  0
    6.0073    0.1062   -2.7401 H   0  0  0  0  0  0  0  0  0  0  0  0
   10.7305    1.1346   -3.6269 H   0  0  0  0  0  0  0  0  0  0  0  0
   12.0789    2.2738   -1.8522 H   0  0  0  0  0  0  0  0  0  0  0  0
   14.4483    1.8893   -1.3048 H   0  0  0  0  0  0  0  0  0  0  0  0
   15.1397   -0.2109   -0.1757 H   0  0  0  0  0  0  0  0  0  0  0  0
   13.4386   -1.8708    0.5366 H   0  0  0  0  0  0  0  0  0  0  0  0
   11.0631   -1.5331   -0.0429 H   0  0  0  0  0  0  0  0  0  0  0  0
    4.7147   -1.9992   -0.3100 H   0  0  0  0  0  0  0  0  0  0  0  0
    1.7887   -2.5224    1.0726 H   0  0  0  0  0  0  0  0  0  0  0  0
    2.9255   -3.1776   -0.1184 H   0  0  0  0  0  0  0  0  0  0  0  0
    1.5137   -2.3367   -1.9909 H   0  0  0  0  0  0  0  0  0  0  0  0
    0.2718   -1.8079   -0.8633 H   0  0  0  0  0  0  0  0  0  0  0  0
   -1.0759   -3.5151    0.3506 H   0  0  0  0  0  0  0  0  0  0  0  0
    0.4254   -4.1100    1.0640 H   0  0  0  0  0  0  0  0  0  0  0  0
   -1.2855   -5.8490    1.1381 H   0  0  0  0  0  0  0  0  0  0  0  0
    0.1163   -6.3349    0.1861 H   0  0  0  0  0  0  0  0  0  0  0  0
   -2.5741   -5.3576   -0.8833 H   0  0  0  0  0  0  0  0  0  0  0  0
   -1.9118   -6.9875   -1.0187 H   0  0  0  0  0  0  0  0  0  0  0  0
   -1.6375   -5.6265   -3.1237 H   0  0  0  0  0  0  0  0  0  0  0  0
   -0.1058   -6.2050   -2.4740 H   0  0  0  0  0  0  0  0  0  0  0  0
   -1.2676   -3.3862   -2.1561 H   0  0  0  0  0  0  0  0  0  0  0  0
    0.1199   -3.8705   -3.1372 H   0  0  0  0  0  0  0  0  0  0  0  0
  1  2  2  0  0  0  0
  2  3  1  0  0  0  0
  2 22  1  0  0  0  0
  3  4  2  0  0  0  0
  3 31  1  0  0  0  0
  4  5  1  0  0  0  0
  4 32  1  0  0  0  0
  5  6  1  0  0  0  0
  5 21  2  0  0  0  0
  6  7  1  0  0  0  0
  6 11  2  0  0  0  0
  7  8  2  0  0  0  0
  7 33  1  0  0  0  0
  8  9  1  0  0  0  0
  8 34  1  0  0  0  0
  9 10  2  0  0  0  0
  9 14  1  0  0  0  0
 10 11  1  0  0  0  0
 10 12  1  0  0  0  0
 11 35  1  0  0  0  0
 12 13  2  0  0  0  0
 13 14  1  0  0  0  0
 13 36  1  0  0  0  0
 14 15  1  0  0  0  0
 15 16  1  0  0  0  0
 15 20  2  0  0  0  0
 16 17  2  0  0  0  0
 16 37  1  0  0  0  0
 17 18  1  0  0  0  0
 17 38  1  0  0  0  0
 18 19  2  0  0  0  0
 18 39  1  0  0  0  0
 19 20  1  0  0  0  0
 19 40  1  0  0  0  0
 20 41  1  0  0  0  0
 21 22  1  0  0  0  0
 21 42  1  0  0  0  0
 22 23  1  0  0  0  0
 23 24  1  0  0  0  0
 23 43  1  0  0  0  0
 23 44  1  0  0  0  0
 24 25  1  0  0  0  0
 24 45  1  0  0  0  0
 24 46  1  0  0  0  0
 25 26  1  0  0  0  0
 25 30  1  0  0  0  0
 26 27  1  0  0  0  0
 26 47  1  0  0  0  0
 26 48  1  0  0  0  0
 27 28  1  0  0  0  0
 27 49  1  0  0  0  0
 27 50  1  0  0  0  0
 28 29  1  0  0  0  0
 28 51  1  0  0  0  0
 28 52  1  0  0  0  0
 29 30  1  0  0  0  0
 29 53  1  0  0  0  0
 29 54  1  0  0  0  0
 30 55  1  0  0  0  0
 30 56  1  0  0  0  0
M  END
$$$$
