CHEMBL2071213
 OpenBabel04072215363D

 44 46  0  0  1  0  0  0  0  0999 V2000
    5.9821   -8.9943   -5.2670 C   0  0  0  0  0  0  0  0  0  0  0  0
    5.3367   -8.1613   -4.2831 N   0  0  0  0  0  0  0  0  0  0  0  0
    4.2606   -7.3458   -4.4698 C   0  0  0  0  0  0  0  0  0  0  0  0
    4.0369   -6.7429   -3.2579 C   0  0  0  0  0  0  0  0  0  0  0  0
    3.0913   -5.8228   -2.9855 N   0  0  0  0  0  0  0  0  0  0  0  0
    2.8354   -5.1865   -1.7662 C   0  0  0  0  0  0  0  0  0  0  0  0
    2.1940   -4.0120   -1.8127 N   0  0  0  0  0  0  0  0  0  0  0  0
    2.0615   -3.3626   -0.6359 C   0  0  0  0  0  0  0  0  0  0  0  0
    2.5149   -3.8522    0.5713 C   0  0  0  0  0  0  0  0  0  0  0  0
    2.2915   -2.9454    2.0136 Cl  0  0  0  0  0  0  0  0  0  0  0  0
    3.1314   -5.0929    0.5377 C   0  0  0  0  0  0  0  0  0  0  0  0
    3.6343   -5.7065    1.6713 N   0  0  0  0  0  0  0  0  0  0  0  0
    3.8066   -7.1589    1.7668 C   0  0  2  0  0  0  0  0  0  0  0  0
    2.4583   -7.8443    2.0529 C   0  0  0  0  0  0  0  0  0  0  0  0
    2.5885   -9.3425    2.3189 C   0  0  0  0  0  0  0  0  0  0  0  0
    3.6205   -9.6311    3.3972 C   0  0  0  0  0  0  0  0  0  0  0  0
    4.9809   -9.0597    3.0080 C   0  0  0  0  0  0  0  0  0  0  0  0
    4.9348   -7.5415    2.7576 C   0  0  2  0  0  0  0  0  0  0  0  0
    4.9179   -6.7939    4.0878 C   0  0  0  0  0  0  0  0  0  0  0  0
    6.0269   -6.9776    4.8659 N   0  0  0  0  0  0  0  0  0  0  0  0
    4.0230   -6.0419    4.4541 O   0  0  0  0  0  0  0  0  0  0  0  0
    3.2698   -5.7476   -0.6258 N   0  0  0  0  0  0  0  0  0  0  0  0
    5.0503   -7.2614   -2.4073 C   0  0  0  0  0  0  0  0  0  0  0  0
    5.8450   -8.1283   -3.0386 N   0  0  0  0  0  0  0  0  0  0  0  0
    5.4537   -8.9087   -6.2182 H   0  0  0  0  0  0  0  0  0  0  0  0
    5.9493  -10.0238   -4.9049 H   0  0  0  0  0  0  0  0  0  0  0  0
    7.0165   -8.6583   -5.3759 H   0  0  0  0  0  0  0  0  0  0  0  0
    3.7557   -7.2565   -5.4189 H   0  0  0  0  0  0  0  0  0  0  0  0
    2.5906   -5.3391   -3.7191 H   0  0  0  0  0  0  0  0  0  0  0  0
    1.5711   -2.3958   -0.7030 H   0  0  0  0  0  0  0  0  0  0  0  0
    3.7080   -5.1547    2.5247 H   0  0  0  0  0  0  0  0  0  0  0  0
    4.1513   -7.5409    0.7969 H   0  0  0  0  0  0  0  0  0  0  0  0
    1.7909   -7.7092    1.1913 H   0  0  0  0  0  0  0  0  0  0  0  0
    1.9589   -7.3680    2.9045 H   0  0  0  0  0  0  0  0  0  0  0  0
    2.8737   -9.8608    1.3944 H   0  0  0  0  0  0  0  0  0  0  0  0
    1.6161   -9.7502    2.6193 H   0  0  0  0  0  0  0  0  0  0  0  0
    3.7065  -10.7142    3.5429 H   0  0  0  0  0  0  0  0  0  0  0  0
    3.2887   -9.2079    4.3532 H   0  0  0  0  0  0  0  0  0  0  0  0
    5.3267   -9.5572    2.0937 H   0  0  0  0  0  0  0  0  0  0  0  0
    5.7044   -9.3172    3.7898 H   0  0  0  0  0  0  0  0  0  0  0  0
    5.8840   -7.2473    2.2859 H   0  0  0  0  0  0  0  0  0  0  0  0
    6.8590   -7.4429    4.5312 H   0  0  0  0  0  0  0  0  0  0  0  0
    6.0944   -6.4453    5.7246 H   0  0  0  0  0  0  0  0  0  0  0  0
    5.2518   -7.0281   -1.3716 H   0  0  0  0  0  0  0  0  0  0  0  0
  1  2  1  0  0  0  0
  1 25  1  0  0  0  0
  1 26  1  0  0  0  0
  1 27  1  0  0  0  0
  2  3  1  0  0  0  0
  2 24  1  0  0  0  0
  3  4  2  0  0  0  0
  3 28  1  0  0  0  0
  4  5  1  0  0  0  0
  4 23  1  0  0  0  0
  5  6  1  0  0  0  0
  5 29  1  0  0  0  0
  6  7  1  0  0  0  0
  6 22  2  0  0  0  0
  7  8  2  0  0  0  0
  8  9  1  0  0  0  0
  8 30  1  0  0  0  0
  9 10  1  0  0  0  0
  9 11  2  0  0  0  0
 11 12  1  0  0  0  0
 11 22  1  0  0  0  0
 12 13  1  0  0  0  0
 12 31  1  0  0  0  0
 13 14  1  0  0  0  0
 13 18  1  0  0  0  0
 13 32  1  6  0  0  0
 14 15  1  0  0  0  0
 14 33  1  0  0  0  0
 14 34  1  0  0  0  0
 15 16  1  0  0  0  0
 15 35  1  0  0  0  0
 15 36  1  0  0  0  0
 16 17  1  0  0  0  0
 16 37  1  0  0  0  0
 16 38  1  0  0  0  0
 17 18  1  0  0  0  0
 17 39  1  0  0  0  0
 17 40  1  0  0  0  0
 18 19  1  0  0  0  0
 18 41  1  6  0  0  0
 19 20  1  0  0  0  0
 19 21  2  0  0  0  0
 20 42  1  0  0  0  0
 20 43  1  0  0  0  0
 23 24  2  0  0  0  0
 23 44  1  0  0  0  0
M  END
$$$$
