CHEMBL3759279
 OpenBabel04072215373D

 56 58  0  0  0  0  0  0  0  0999 V2000
    3.4996   -0.5554   -1.1353 C   0  0  0  0  0  0  0  0  0  0  0  0
    2.6081   -0.1005   -0.1166 O   0  0  0  0  0  0  0  0  0  0  0  0
    3.1005    0.8784    0.7057 C   0  0  0  0  0  0  0  0  0  0  0  0
    4.0244    1.8177    0.2368 C   0  0  0  0  0  0  0  0  0  0  0  0
    4.6063    2.7515    1.0645 C   0  0  0  0  0  0  0  0  0  0  0  0
    5.5740    3.5148    0.5476 N   0  0  0  0  0  0  0  0  0  0  0  0
    6.1891    4.3395    1.3898 C   0  0  0  0  0  0  0  0  0  0  0  0
    5.9234    4.4684    2.6875 N   0  0  0  0  0  0  0  0  0  0  0  0
    4.9378    3.6983    3.2017 C   0  0  0  0  0  0  0  0  0  0  0  0
    4.7386    3.7090    4.6060 N   0  0  0  0  0  0  0  0  0  0  0  0
    5.6986    4.1949    5.5263 C   0  0  0  0  0  0  0  0  0  0  0  0
    7.0535    3.8587    5.3562 C   0  0  0  0  0  0  0  0  0  0  0  0
    8.0443    4.4235    6.1494 C   0  0  0  0  0  0  0  0  0  0  0  0
    7.6985    5.3259    7.1513 C   0  0  0  0  0  0  0  0  0  0  0  0
    6.3540    5.6164    7.3890 C   0  0  0  0  0  0  0  0  0  0  0  0
    5.3577    5.0414    6.5922 C   0  0  0  0  0  0  0  0  0  0  0  0
    3.7063    5.4176    6.9309 Cl  0  0  0  0  0  0  0  0  0  0  0  0
    4.2012    2.8171    2.4043 C   0  0  0  0  0  0  0  0  0  0  0  0
    3.1707    1.9590    2.8616 C   0  0  0  0  0  0  0  0  0  0  0  0
    2.6514    0.9634    2.0349 C   0  0  0  0  0  0  0  0  0  0  0  0
    1.7410    0.1393    2.6572 O   0  0  0  0  0  0  0  0  0  0  0  0
    1.8927   -1.2377    2.3224 C   0  0  0  0  0  0  0  0  0  0  0  0
    1.0895   -2.1344    3.2664 C   0  0  0  0  0  0  0  0  0  0  0  0
    1.2533   -3.5791    2.7913 C   0  0  0  0  0  0  0  0  0  0  0  0
    0.4484   -4.5856    3.6024 C   0  0  0  0  0  0  0  0  0  0  0  0
    0.6627   -5.9959    3.0452 C   0  0  0  0  0  0  0  0  0  0  0  0
   -0.1347   -7.0256    3.8357 C   0  0  0  0  0  0  0  0  0  0  0  0
    0.0340   -8.4258    3.2866 C   0  0  0  0  0  0  0  0  0  0  0  0
    0.7411   -8.7250    2.3293 O   0  0  0  0  0  0  0  0  0  0  0  0
   -0.7138   -9.3614    3.9642 N   0  0  0  0  0  0  0  0  0  0  0  0
   -0.5370  -10.7012    3.5504 O   0  0  0  0  0  0  0  0  0  0  0  0
    3.2506   -1.5976   -1.3652 H   0  0  0  0  0  0  0  0  0  0  0  0
    4.5509   -0.5374   -0.8207 H   0  0  0  0  0  0  0  0  0  0  0  0
    3.3577    0.0384   -2.0433 H   0  0  0  0  0  0  0  0  0  0  0  0
    4.3441    1.8100   -0.8031 H   0  0  0  0  0  0  0  0  0  0  0  0
    6.9958    4.9459    0.9878 H   0  0  0  0  0  0  0  0  0  0  0  0
    3.7879    3.9726    4.8460 H   0  0  0  0  0  0  0  0  0  0  0  0
    7.3398    3.1604    4.5708 H   0  0  0  0  0  0  0  0  0  0  0  0
    9.0884    4.1748    5.9672 H   0  0  0  0  0  0  0  0  0  0  0  0
    8.4760    5.8012    7.7422 H   0  0  0  0  0  0  0  0  0  0  0  0
    6.0905    6.3058    8.1877 H   0  0  0  0  0  0  0  0  0  0  0  0
    2.8171    2.0263    3.8859 H   0  0  0  0  0  0  0  0  0  0  0  0
    2.9514   -1.5258    2.3701 H   0  0  0  0  0  0  0  0  0  0  0  0
    1.4972   -1.4132    1.3198 H   0  0  0  0  0  0  0  0  0  0  0  0
    0.0345   -1.8368    3.2520 H   0  0  0  0  0  0  0  0  0  0  0  0
    1.4323   -2.0156    4.3008 H   0  0  0  0  0  0  0  0  0  0  0  0
    2.3157   -3.8510    2.8279 H   0  0  0  0  0  0  0  0  0  0  0  0
    0.9454   -3.6468    1.7396 H   0  0  0  0  0  0  0  0  0  0  0  0
   -0.6169   -4.3298    3.5599 H   0  0  0  0  0  0  0  0  0  0  0  0
    0.7553   -4.5489    4.6536 H   0  0  0  0  0  0  0  0  0  0  0  0
    1.7300   -6.2499    3.0739 H   0  0  0  0  0  0  0  0  0  0  0  0
    0.3635   -6.0269    1.9896 H   0  0  0  0  0  0  0  0  0  0  0  0
   -1.2006   -6.7735    3.8013 H   0  0  0  0  0  0  0  0  0  0  0  0
    0.1885   -7.0226    4.8827 H   0  0  0  0  0  0  0  0  0  0  0  0
   -1.0553   -9.2179    4.9083 H   0  0  0  0  0  0  0  0  0  0  0  0
    0.0644  -10.6042    2.7787 H   0  0  0  0  0  0  0  0  0  0  0  0
  1  2  1  0  0  0  0
  1 32  1  0  0  0  0
  1 33  1  0  0  0  0
  1 34  1  0  0  0  0
  2  3  1  0  0  0  0
  3  4  1  0  0  0  0
  3 20  2  0  0  0  0
  4  5  2  0  0  0  0
  4 35  1  0  0  0  0
  5  6  1  0  0  0  0
  5 18  1  0  0  0  0
  6  7  2  0  0  0  0
  7  8  1  0  0  0  0
  7 36  1  0  0  0  0
  8  9  2  0  0  0  0
  9 10  1  0  0  0  0
  9 18  1  0  0  0  0
 10 11  1  0  0  0  0
 10 37  1  0  0  0  0
 11 12  1  0  0  0  0
 11 16  2  0  0  0  0
 12 13  2  0  0  0  0
 12 38  1  0  0  0  0
 13 14  1  0  0  0  0
 13 39  1  0  0  0  0
 14 15  2  0  0  0  0
 14 40  1  0  0  0  0
 15 16  1  0  0  0  0
 15 41  1  0  0  0  0
 16 17  1  0  0  0  0
 18 19  2  0  0  0  0
 19 20  1  0  0  0  0
 19 42  1  0  0  0  0
 20 21  1  0  0  0  0
 21 22  1  0  0  0  0
 22 23  1  0  0  0  0
 22 43  1  0  0  0  0
 22 44  1  0  0  0  0
 23 24  1  0  0  0  0
 23 45  1  0  0  0  0
 23 46  1  0  0  0  0
 24 25  1  0  0  0  0
 24 47  1  0  0  0  0
 24 48  1  0  0  0  0
 25 26  1  0  0  0  0
 25 49  1  0  0  0  0
 25 50  1  0  0  0  0
 26 27  1  0  0  0  0
 26 51  1  0  0  0  0
 26 52  1  0  0  0  0
 27 28  1  0  0  0  0
 27 53  1  0  0  0  0
 27 54  1  0  0  0  0
 28 29  2  0  0  0  0
 28 30  1  0  0  0  0
 30 31  1  0  0  0  0
 30 55  1  0  0  0  0
 31 56  1  0  0  0  0
M  END
$$$$
