CHEMBL3913168
 OpenBabel04072215373D

 51 54  0  0  0  0  0  0  0  0999 V2000
    1.2095   -0.7557    0.2892 O   0  0  0  0  0  0  0  0  0  0  0  0
    2.3235   -0.2865    0.0876 C   0  0  0  0  0  0  0  0  0  0  0  0
    2.9433    0.6346    0.9175 N   0  0  0  0  0  0  0  0  0  0  0  0
    2.3928    1.2126    2.0864 C   0  0  0  0  0  0  0  0  0  0  0  0
    1.2356    0.7607    2.7190 C   0  0  0  0  0  0  0  0  0  0  0  0
    0.7307    1.4519    3.8190 C   0  0  0  0  0  0  0  0  0  0  0  0
   -0.3828    1.0063    4.4173 F   0  0  0  0  0  0  0  0  0  0  0  0
    1.3510    2.5972    4.3041 C   0  0  0  0  0  0  0  0  0  0  0  0
    2.5114    3.0511    3.6847 C   0  0  0  0  0  0  0  0  0  0  0  0
    3.1143    4.1748    4.2132 O   0  0  0  0  0  0  0  0  0  0  0  0
    3.6450    5.1105    3.3250 C   0  0  0  0  0  0  0  0  0  0  0  0
    4.5985    5.9746    3.8265 C   0  0  0  0  0  0  0  0  0  0  0  0
    5.1035    6.8938    2.9309 C   0  0  0  0  0  0  0  0  0  0  0  0
    6.0454    7.8387    3.3793 N   0  0  0  0  0  0  0  0  0  0  0  0
    6.5441    8.8558    2.5860 C   0  0  0  0  0  0  0  0  0  0  0  0
    6.2897    9.0614    1.4078 O   0  0  0  0  0  0  0  0  0  0  0  0
    7.4737    9.8254    3.2398 C   0  0  0  0  0  0  0  0  0  0  0  0
    8.0772    9.7309    4.6150 C   0  0  0  0  0  0  0  0  0  0  0  0
    6.9605   10.7018    4.3600 C   0  0  0  0  0  0  0  0  0  0  0  0
    4.7057    6.9203    1.6526 N   0  0  0  0  0  0  0  0  0  0  0  0
    3.7641    6.0572    1.2743 C   0  0  0  0  0  0  0  0  0  0  0  0
    3.1946    5.1455    2.0592 N   0  0  0  0  0  0  0  0  0  0  0  0
    3.0532    2.3304    2.6112 C   0  0  0  0  0  0  0  0  0  0  0  0
    3.1200   -0.5880   -1.0104 N   0  0  0  0  0  0  0  0  0  0  0  0
    2.7632   -1.3899   -2.1178 C   0  0  0  0  0  0  0  0  0  0  0  0
    1.4898   -1.9353   -2.3003 C   0  0  0  0  0  0  0  0  0  0  0  0
    1.2064   -2.7307   -3.4114 C   0  0  0  0  0  0  0  0  0  0  0  0
    2.1932   -2.9808   -4.3550 C   0  0  0  0  0  0  0  0  0  0  0  0
    1.8883   -3.7514   -5.4064 F   0  0  0  0  0  0  0  0  0  0  0  0
    3.4682   -2.4435   -4.2148 C   0  0  0  0  0  0  0  0  0  0  0  0
    4.5290   -2.6983   -5.2449 C   0  0  0  0  0  0  0  0  0  0  0  0
    4.1796   -3.5558   -6.2404 F   0  0  0  0  0  0  0  0  0  0  0  0
    4.9233   -1.5501   -5.8644 F   0  0  0  0  0  0  0  0  0  0  0  0
    5.6598   -3.2188   -4.6897 F   0  0  0  0  0  0  0  0  0  0  0  0
    3.7447   -1.6403   -3.0869 C   0  0  0  0  0  0  0  0  0  0  0  0
    3.7658    1.0872    0.5489 H   0  0  0  0  0  0  0  0  0  0  0  0
    0.6950   -0.1192    2.3890 H   0  0  0  0  0  0  0  0  0  0  0  0
    0.9168    3.1221    5.1483 H   0  0  0  0  0  0  0  0  0  0  0  0
    4.9098    5.9206    4.8596 H   0  0  0  0  0  0  0  0  0  0  0  0
    6.3203    7.8068    4.3474 H   0  0  0  0  0  0  0  0  0  0  0  0
    8.0990   10.3250    2.5002 H   0  0  0  0  0  0  0  0  0  0  0  0
    9.0748   10.1407    4.7440 H   0  0  0  0  0  0  0  0  0  0  0  0
    7.8845    8.8768    5.2502 H   0  0  0  0  0  0  0  0  0  0  0  0
    7.1917   11.7605    4.3025 H   0  0  0  0  0  0  0  0  0  0  0  0
    5.9864   10.4898    4.7852 H   0  0  0  0  0  0  0  0  0  0  0  0
    3.4438    6.1020    0.2396 H   0  0  0  0  0  0  0  0  0  0  0  0
    3.9741    2.6775    2.1504 H   0  0  0  0  0  0  0  0  0  0  0  0
    4.0769   -0.2691   -0.9735 H   0  0  0  0  0  0  0  0  0  0  0  0
    0.6814   -1.7602   -1.5978 H   0  0  0  0  0  0  0  0  0  0  0  0
    0.2154   -3.1561   -3.5393 H   0  0  0  0  0  0  0  0  0  0  0  0
    4.7416   -1.2132   -2.9852 H   0  0  0  0  0  0  0  0  0  0  0  0
  1  2  2  0  0  0  0
  2  3  1  0  0  0  0
  2 24  1  0  0  0  0
  3  4  1  0  0  0  0
  3 36  1  0  0  0  0
  4  5  1  0  0  0  0
  4 23  2  0  0  0  0
  5  6  2  0  0  0  0
  5 37  1  0  0  0  0
  6  7  1  0  0  0  0
  6  8  1  0  0  0  0
  8  9  2  0  0  0  0
  8 38  1  0  0  0  0
  9 10  1  0  0  0  0
  9 23  1  0  0  0  0
 10 11  1  0  0  0  0
 11 12  1  0  0  0  0
 11 22  2  0  0  0  0
 12 13  2  0  0  0  0
 12 39  1  0  0  0  0
 13 14  1  0  0  0  0
 13 20  1  0  0  0  0
 14 15  1  0  0  0  0
 14 40  1  0  0  0  0
 15 16  2  0  0  0  0
 15 17  1  0  0  0  0
 17 18  1  0  0  0  0
 17 19  1  0  0  0  0
 17 41  1  0  0  0  0
 18 19  1  0  0  0  0
 18 42  1  0  0  0  0
 18 43  1  0  0  0  0
 19 44  1  0  0  0  0
 19 45  1  0  0  0  0
 20 21  2  0  0  0  0
 21 22  1  0  0  0  0
 21 46  1  0  0  0  0
 23 47  1  0  0  0  0
 24 25  1  0  0  0  0
 24 48  1  0  0  0  0
 25 26  1  0  0  0  0
 25 35  2  0  0  0  0
 26 27  2  0  0  0  0
 26 49  1  0  0  0  0
 27 28  1  0  0  0  0
 27 50  1  0  0  0  0
 28 29  1  0  0  0  0
 28 30  2  0  0  0  0
 30 31  1  0  0  0  0
 30 35  1  0  0  0  0
 31 32  1  0  0  0  0
 31 33  1  0  0  0  0
 31 34  1  0  0  0  0
 35 51  1  0  0  0  0
M  END
$$$$
