CHEMBL240456
 OpenBabel04072215363D

 44 46  0  0  0  0  0  0  0  0999 V2000
   -2.0982   -0.0411   -0.0344 C   0  0  0  0  0  0  0  0  0  0  0  0
   -0.6534   -0.1450    0.0068 N   0  0  0  0  0  0  0  0  0  0  0  0
    0.0699    0.9874    0.0702 N   0  0  0  0  0  0  0  0  0  0  0  0
    1.3273    0.5514    0.0736 C   0  0  0  0  0  0  0  0  0  0  0  0
    1.4212   -0.8590    0.0251 C   0  0  0  0  0  0  0  0  0  0  0  0
    2.5995   -1.5319   -0.0349 N   0  0  0  0  0  0  0  0  0  0  0  0
    2.7683   -2.8230   -0.6800 C   0  0  0  0  0  0  0  0  0  0  0  0
    3.8796   -2.8681   -1.6963 C   0  0  0  0  0  0  0  0  0  0  0  0
    4.5962   -4.0632   -1.8458 C   0  0  0  0  0  0  0  0  0  0  0  0
    5.5264   -4.1657   -2.8671 C   0  0  0  0  0  0  0  0  0  0  0  0
    5.7917   -3.1708   -3.7358 N   0  0  0  0  0  0  0  0  0  0  0  0
    5.0865   -2.0284   -3.5851 C   0  0  0  0  0  0  0  0  0  0  0  0
    4.1300   -1.8315   -2.5990 C   0  0  0  0  0  0  0  0  0  0  0  0
    0.1049   -1.3059    0.0363 C   0  0  0  0  0  0  0  0  0  0  0  0
   -0.5347   -2.6078    0.0222 C   0  0  0  0  0  0  0  0  0  0  0  0
   -1.6010   -2.7611   -0.5653 O   0  0  0  0  0  0  0  0  0  0  0  0
    0.1271   -3.6267    0.6933 N   0  0  0  0  0  0  0  0  0  0  0  0
   -0.3256   -4.9712    0.7956 C   0  0  0  0  0  0  0  0  0  0  0  0
   -1.6616   -5.3292    0.6051 C   0  0  0  0  0  0  0  0  0  0  0  0
   -2.0796   -6.6511    0.7501 C   0  0  0  0  0  0  0  0  0  0  0  0
   -1.1608   -7.6498    1.0555 C   0  0  0  0  0  0  0  0  0  0  0  0
    0.1907   -7.3334    1.1701 C   0  0  0  0  0  0  0  0  0  0  0  0
    1.1970   -8.2352    1.3602 O   0  0  0  0  0  0  0  0  0  0  0  0
    1.0147   -9.5933    0.9622 C   0  0  0  0  0  0  0  0  0  0  0  0
   -0.0081   -9.7885    0.1022 F   0  0  0  0  0  0  0  0  0  0  0  0
    2.1428  -10.0117    0.3470 F   0  0  0  0  0  0  0  0  0  0  0  0
    0.8206  -10.3642    2.0544 F   0  0  0  0  0  0  0  0  0  0  0  0
    0.5925   -5.9821    1.1010 C   0  0  0  0  0  0  0  0  0  0  0  0
   -2.3907    1.0087    0.0498 H   0  0  0  0  0  0  0  0  0  0  0  0
   -2.5146   -0.6033    0.8057 H   0  0  0  0  0  0  0  0  0  0  0  0
   -2.4504   -0.4356   -0.9906 H   0  0  0  0  0  0  0  0  0  0  0  0
    2.1232    1.2831    0.0846 H   0  0  0  0  0  0  0  0  0  0  0  0
    3.4701   -1.0015    0.0205 H   0  0  0  0  0  0  0  0  0  0  0  0
    1.8627   -3.1551   -1.1948 H   0  0  0  0  0  0  0  0  0  0  0  0
    2.9971   -3.5396    0.1169 H   0  0  0  0  0  0  0  0  0  0  0  0
    4.4146   -4.9164   -1.2016 H   0  0  0  0  0  0  0  0  0  0  0  0
    6.0832   -5.0848   -3.0249 H   0  0  0  0  0  0  0  0  0  0  0  0
    5.3062   -1.2555   -4.3159 H   0  0  0  0  0  0  0  0  0  0  0  0
    3.5774   -0.8981   -2.5638 H   0  0  0  0  0  0  0  0  0  0  0  0
    1.0324   -3.4086    1.0860 H   0  0  0  0  0  0  0  0  0  0  0  0
   -2.4235   -4.5912    0.3764 H   0  0  0  0  0  0  0  0  0  0  0  0
   -3.1306   -6.8953    0.6176 H   0  0  0  0  0  0  0  0  0  0  0  0
   -1.5392   -8.6596    1.1809 H   0  0  0  0  0  0  0  0  0  0  0  0
    1.6470   -5.7520    1.2394 H   0  0  0  0  0  0  0  0  0  0  0  0
  1  2  1  0  0  0  0
  1 29  1  0  0  0  0
  1 30  1  0  0  0  0
  1 31  1  0  0  0  0
  2  3  1  0  0  0  0
  2 14  1  0  0  0  0
  3  4  2  0  0  0  0
  4  5  1  0  0  0  0
  4 32  1  0  0  0  0
  5  6  1  0  0  0  0
  5 14  2  0  0  0  0
  6  7  1  0  0  0  0
  6 33  1  0  0  0  0
  7  8  1  0  0  0  0
  7 34  1  0  0  0  0
  7 35  1  0  0  0  0
  8  9  1  0  0  0  0
  8 13  2  0  0  0  0
  9 10  2  0  0  0  0
  9 36  1  0  0  0  0
 10 11  1  0  0  0  0
 10 37  1  0  0  0  0
 11 12  2  0  0  0  0
 12 13  1  0  0  0  0
 12 38  1  0  0  0  0
 13 39  1  0  0  0  0
 14 15  1  0  0  0  0
 15 16  2  0  0  0  0
 15 17  1  0  0  0  0
 17 18  1  0  0  0  0
 17 40  1  0  0  0  0
 18 19  1  0  0  0  0
 18 28  2  0  0  0  0
 19 20  2  0  0  0  0
 19 41  1  0  0  0  0
 20 21  1  0  0  0  0
 20 42  1  0  0  0  0
 21 22  2  0  0  0  0
 21 43  1  0  0  0  0
 22 23  1  0  0  0  0
 22 28  1  0  0  0  0
 23 24  1  0  0  0  0
 24 25  1  0  0  0  0
 24 26  1  0  0  0  0
 24 27  1  0  0  0  0
 28 44  1  0  0  0  0
M  END
$$$$
