CHEMBL3900059
 OpenBabel04072215373D

 59 63  0  0  1  0  0  0  0  0999 V2000
   -4.2922    4.5097   -0.1943 C   0  0  0  0  0  0  0  0  0  0  0  0
   -3.3962    3.4204    0.0758 O   0  0  0  0  0  0  0  0  0  0  0  0
   -3.5712    2.3421   -0.7577 C   0  0  0  0  0  0  0  0  0  0  0  0
   -4.8031    2.0830   -1.3602 C   0  0  0  0  0  0  0  0  0  0  0  0
   -4.9359    1.1056   -2.3632 C   0  0  0  0  0  0  0  0  0  0  0  0
   -6.1132    0.8915   -3.0897 C   0  0  0  0  0  0  0  0  0  0  0  0
   -7.1795    1.8012   -2.9227 N   0  0  0  0  0  0  0  0  0  0  0  0
   -8.5624    1.5526   -2.9762 C   0  0  0  0  0  0  0  0  0  0  0  0
   -9.0913    0.2992   -2.6595 C   0  0  0  0  0  0  0  0  0  0  0  0
  -10.4668    0.1281   -2.5030 C   0  0  0  0  0  0  0  0  0  0  0  0
  -11.3387    1.2095   -2.6786 C   0  0  0  0  0  0  0  0  0  0  0  0
  -13.0133    0.9428   -2.3558 Cl  0  0  0  0  0  0  0  0  0  0  0  0
  -10.8344    2.4536   -3.0551 C   0  0  0  0  0  0  0  0  0  0  0  0
  -11.8600    3.8247   -3.3228 Cl  0  0  0  0  0  0  0  0  0  0  0  0
   -9.4551    2.6181   -3.1884 C   0  0  0  0  0  0  0  0  0  0  0  0
   -8.9381    3.8229   -3.4991 F   0  0  0  0  0  0  0  0  0  0  0  0
   -6.2296   -0.0968   -3.9901 N   0  0  0  0  0  0  0  0  0  0  0  0
   -5.1321   -0.8315   -4.2019 C   0  0  0  0  0  0  0  0  0  0  0  0
   -3.9438   -0.6768   -3.6050 N   0  0  0  0  0  0  0  0  0  0  0  0
   -3.8567    0.2878   -2.6847 C   0  0  0  0  0  0  0  0  0  0  0  0
   -2.6596    0.4910   -2.0146 C   0  0  0  0  0  0  0  0  0  0  0  0
   -2.4997    1.4821   -1.0286 C   0  0  0  0  0  0  0  0  0  0  0  0
   -1.3192    1.6407   -0.3325 O   0  0  0  0  0  0  0  0  0  0  0  0
   -0.5354    0.4307   -0.2217 C   0  0  0  0  0  0  0  0  0  0  0  0
    0.4134    0.5032    0.9895 C   0  0  2  0  0  0  0  0  0  0  0  0
    1.2370   -0.8060    1.1177 C   0  0  0  0  0  0  0  0  0  0  0  0
    0.4282   -1.9383    1.6167 N   0  0  3  0  0  0  0  0  0  0  0  0
    1.2653   -3.1393    1.7937 C   0  0  0  0  0  0  0  0  0  0  0  0
    0.4361   -4.3391    2.2630 C   0  0  0  0  0  0  0  0  0  0  0  0
   -0.3542   -4.0215    3.5278 C   0  0  0  0  0  0  0  0  0  0  0  0
   -1.1421   -2.7272    3.3562 C   0  0  0  0  0  0  0  0  0  0  0  0
   -0.2174   -1.5844    2.9147 C   0  0  2  0  0  0  0  0  0  0  0  0
   -0.9934   -0.2491    2.8457 C   0  0  0  0  0  0  0  0  0  0  0  0
   -2.0505   -0.0421    3.4297 O   0  0  0  0  0  0  0  0  0  0  0  0
   -0.3501    0.7819    2.2005 N   0  0  0  0  0  0  0  0  0  0  0  0
   -3.8851    5.4259    0.2398 H   0  0  0  0  0  0  0  0  0  0  0  0
   -5.2695    4.3252    0.2675 H   0  0  0  0  0  0  0  0  0  0  0  0
   -4.4108    4.6859   -1.2728 H   0  0  0  0  0  0  0  0  0  0  0  0
   -5.6885    2.6332   -1.0532 H   0  0  0  0  0  0  0  0  0  0  0  0
   -6.9229    2.7291   -3.2495 H   0  0  0  0  0  0  0  0  0  0  0  0
   -8.4306   -0.5467   -2.4815 H   0  0  0  0  0  0  0  0  0  0  0  0
  -10.8482   -0.8493   -2.2095 H   0  0  0  0  0  0  0  0  0  0  0  0
   -5.2078   -1.6234   -4.9385 H   0  0  0  0  0  0  0  0  0  0  0  0
   -1.8310   -0.1509   -2.2983 H   0  0  0  0  0  0  0  0  0  0  0  0
    0.0602    0.3206   -1.1360 H   0  0  0  0  0  0  0  0  0  0  0  0
   -1.1926   -0.4393   -0.0985 H   0  0  0  0  0  0  0  0  0  0  0  0
    1.0936    1.3530    0.8605 H   0  0  0  0  0  0  0  0  0  0  0  0
    2.0899   -0.6304    1.7855 H   0  0  0  0  0  0  0  0  0  0  0  0
    1.6462   -1.0655    0.1322 H   0  0  0  0  0  0  0  0  0  0  0  0
    2.0685   -2.9495    2.5187 H   0  0  0  0  0  0  0  0  0  0  0  0
    1.7437   -3.4051    0.8437 H   0  0  0  0  0  0  0  0  0  0  0  0
    1.0958   -5.1947    2.4501 H   0  0  0  0  0  0  0  0  0  0  0  0
   -0.2571   -4.6390    1.4674 H   0  0  0  0  0  0  0  0  0  0  0  0
    0.3354   -3.9168    4.3748 H   0  0  0  0  0  0  0  0  0  0  0  0
   -1.0320   -4.8483    3.7677 H   0  0  0  0  0  0  0  0  0  0  0  0
   -1.6414   -2.4794    4.3002 H   0  0  0  0  0  0  0  0  0  0  0  0
   -1.9378   -2.8760    2.6135 H   0  0  0  0  0  0  0  0  0  0  0  0
    0.5548   -1.4333    3.6834 H   0  0  0  0  0  0  0  0  0  0  0  0
   -0.9202    1.6215    2.1736 H   0  0  0  0  0  0  0  0  0  0  0  0
  1  2  1  0  0  0  0
  1 36  1  0  0  0  0
  1 37  1  0  0  0  0
  1 38  1  0  0  0  0
  2  3  1  0  0  0  0
  3  4  1  0  0  0  0
  3 22  2  0  0  0  0
  4  5  2  0  0  0  0
  4 39  1  0  0  0  0
  5  6  1  0  0  0  0
  5 20  1  0  0  0  0
  6  7  1  0  0  0  0
  6 17  2  0  0  0  0
  7  8  1  0  0  0  0
  7 40  1  0  0  0  0
  8  9  1  0  0  0  0
  8 15  2  0  0  0  0
  9 10  2  0  0  0  0
  9 41  1  0  0  0  0
 10 11  1  0  0  0  0
 10 42  1  0  0  0  0
 11 12  1  0  0  0  0
 11 13  2  0  0  0  0
 13 14  1  0  0  0  0
 13 15  1  0  0  0  0
 15 16  1  0  0  0  0
 17 18  1  0  0  0  0
 18 19  2  0  0  0  0
 18 43  1  0  0  0  0
 19 20  1  0  0  0  0
 20 21  2  0  0  0  0
 21 22  1  0  0  0  0
 21 44  1  0  0  0  0
 22 23  1  0  0  0  0
 23 24  1  0  0  0  0
 24 45  1  0  0  0  0
 24 46  1  0  0  0  0
 25 26  1  0  0  0  0
 25 35  1  0  0  0  0
 25 24  1  0  0  0  0
 25 47  1  6  0  0  0
 26 27  1  0  0  0  0
 26 48  1  0  0  0  0
 26 49  1  0  0  0  0
 27 28  1  0  0  0  0
 27 32  1  0  0  0  0
 28 29  1  0  0  0  0
 28 50  1  0  0  0  0
 28 51  1  0  0  0  0
 29 30  1  0  0  0  0
 29 52  1  0  0  0  0
 29 53  1  0  0  0  0
 30 31  1  0  0  0  0
 30 54  1  0  0  0  0
 30 55  1  0  0  0  0
 31 32  1  0  0  0  0
 31 56  1  0  0  0  0
 31 57  1  0  0  0  0
 32 33  1  0  0  0  0
 32 58  1  1  0  0  0
 33 34  2  0  0  0  0
 33 35  1  0  0  0  0
 35 59  1  0  0  0  0
M  END
$$$$
