CHEMBL3628807
 OpenBabel04072215373D

 43 46  0  0  0  0  0  0  0  0999 V2000
    1.0693   -0.3509    0.5322 O   0  0  0  0  0  0  0  0  0  0  0  0
    2.1435    0.0814    0.1334 C   0  0  0  0  0  0  0  0  0  0  0  0
    2.6361    1.3397    0.4495 N   0  0  0  0  0  0  0  0  0  0  0  0
    1.9671    2.3113    1.2398 C   0  0  0  0  0  0  0  0  0  0  0  0
    0.8693    2.0274    2.0632 C   0  0  0  0  0  0  0  0  0  0  0  0
    0.1958    3.0332    2.7789 C   0  0  0  0  0  0  0  0  0  0  0  0
    0.6147    4.3460    2.6975 C   0  0  0  0  0  0  0  0  0  0  0  0
    0.1051    5.4663    3.2991 O   0  0  0  0  0  0  0  0  0  0  0  0
   -1.0013    5.5463    4.1454 C   0  0  0  0  0  0  0  0  0  0  0  0
   -1.6944    4.4651    4.5314 N   0  0  0  0  0  0  0  0  0  0  0  0
   -2.7441    4.7187    5.3304 C   0  0  0  0  0  0  0  0  0  0  0  0
   -3.1462    5.9221    5.7714 N   0  0  0  0  0  0  0  0  0  0  0  0
   -2.4477    6.9843    5.3552 C   0  0  0  0  0  0  0  0  0  0  0  0
   -2.8582    8.2645    5.7193 C   0  0  0  0  0  0  0  0  0  0  0  0
   -2.2041    9.4117    5.2559 C   0  0  0  0  0  0  0  0  0  0  0  0
   -1.0792    9.2866    4.4532 C   0  0  0  0  0  0  0  0  0  0  0  0
   -0.6296    8.0169    4.1056 C   0  0  0  0  0  0  0  0  0  0  0  0
   -1.3287    6.8585    4.5269 C   0  0  0  0  0  0  0  0  0  0  0  0
    1.7327    4.6337    1.8890 C   0  0  0  0  0  0  0  0  0  0  0  0
    2.4116    3.6306    1.1793 C   0  0  0  0  0  0  0  0  0  0  0  0
    2.9931   -0.6189   -0.7093 N   0  0  0  0  0  0  0  0  0  0  0  0
    2.7412   -1.8831   -1.3032 C   0  0  0  0  0  0  0  0  0  0  0  0
    1.5481   -2.5984   -1.1444 C   0  0  0  0  0  0  0  0  0  0  0  0
    1.3609   -3.8409   -1.7610 C   0  0  0  0  0  0  0  0  0  0  0  0
    2.3650   -4.3843   -2.5537 C   0  0  0  0  0  0  0  0  0  0  0  0
    3.5498   -3.6752   -2.7280 C   0  0  0  0  0  0  0  0  0  0  0  0
    4.9097   -4.3965   -3.8282 Br  0  0  0  0  0  0  0  0  0  0  0  0
    3.7440   -2.4356   -2.1089 C   0  0  0  0  0  0  0  0  0  0  0  0
    3.4385    1.6619   -0.0707 H   0  0  0  0  0  0  0  0  0  0  0  0
    0.5057    1.0115    2.1807 H   0  0  0  0  0  0  0  0  0  0  0  0
   -0.6574    2.7328    3.3803 H   0  0  0  0  0  0  0  0  0  0  0  0
   -3.3443    3.8713    5.6460 H   0  0  0  0  0  0  0  0  0  0  0  0
   -3.7307    8.3770    6.3600 H   0  0  0  0  0  0  0  0  0  0  0  0
   -2.5826   10.3974    5.5155 H   0  0  0  0  0  0  0  0  0  0  0  0
   -0.5616   10.1685    4.0854 H   0  0  0  0  0  0  0  0  0  0  0  0
    0.2548    7.9255    3.4788 H   0  0  0  0  0  0  0  0  0  0  0  0
    2.0736    5.6621    1.8014 H   0  0  0  0  0  0  0  0  0  0  0  0
    3.2627    3.9145    0.5680 H   0  0  0  0  0  0  0  0  0  0  0  0
    3.9041   -0.2184   -0.8792 H   0  0  0  0  0  0  0  0  0  0  0  0
    0.7260   -2.2228   -0.5436 H   0  0  0  0  0  0  0  0  0  0  0  0
    0.4243   -4.3755   -1.6175 H   0  0  0  0  0  0  0  0  0  0  0  0
    2.2114   -5.3499   -3.0284 H   0  0  0  0  0  0  0  0  0  0  0  0
    4.6788   -1.9059   -2.2667 H   0  0  0  0  0  0  0  0  0  0  0  0
  1  2  2  0  0  0  0
  2  3  1  0  0  0  0
  2 21  1  0  0  0  0
  3  4  1  0  0  0  0
  3 29  1  0  0  0  0
  4  5  1  0  0  0  0
  4 20  2  0  0  0  0
  5  6  2  0  0  0  0
  5 30  1  0  0  0  0
  6  7  1  0  0  0  0
  6 31  1  0  0  0  0
  7  8  1  0  0  0  0
  7 19  2  0  0  0  0
  8  9  1  0  0  0  0
  9 10  1  0  0  0  0
  9 18  2  0  0  0  0
 10 11  2  0  0  0  0
 11 12  1  0  0  0  0
 11 32  1  0  0  0  0
 12 13  2  0  0  0  0
 13 14  1  0  0  0  0
 13 18  1  0  0  0  0
 14 15  2  0  0  0  0
 14 33  1  0  0  0  0
 15 16  1  0  0  0  0
 15 34  1  0  0  0  0
 16 17  2  0  0  0  0
 16 35  1  0  0  0  0
 17 18  1  0  0  0  0
 17 36  1  0  0  0  0
 19 20  1  0  0  0  0
 19 37  1  0  0  0  0
 20 38  1  0  0  0  0
 21 22  1  0  0  0  0
 21 39  1  0  0  0  0
 22 23  1  0  0  0  0
 22 28  2  0  0  0  0
 23 24  2  0  0  0  0
 23 40  1  0  0  0  0
 24 25  1  0  0  0  0
 24 41  1  0  0  0  0
 25 26  2  0  0  0  0
 25 42  1  0  0  0  0
 26 27  1  0  0  0  0
 26 28  1  0  0  0  0
 28 43  1  0  0  0  0
M  END
$$$$
