CHEMBL3702659
 OpenBabel04072215373D

 59 62  0  0  0  0  0  0  0  0999 V2000
    2.4881    0.0206   -0.0552 C   0  0  0  0  0  0  0  0  0  0  0  0
    0.9817   -0.0371    0.0081 C   0  0  0  0  0  0  0  0  0  0  0  0
    0.2724    1.1848    0.0327 C   0  0  0  0  0  0  0  0  0  0  0  0
   -1.1247    1.2168    0.0229 C   0  0  0  0  0  0  0  0  0  0  0  0
   -1.8271    0.0167    0.0099 C   0  0  0  0  0  0  0  0  0  0  0  0
   -3.3101   -0.0552    0.0797 C   0  0  0  0  0  0  0  0  0  0  0  0
   -3.7770   -0.9970    0.7133 O   0  0  0  0  0  0  0  0  0  0  0  0
   -4.0344    0.8992   -0.6252 N   0  0  0  0  0  0  0  0  0  0  0  0
   -5.4566    0.9417   -0.7004 C   0  0  0  0  0  0  0  0  0  0  0  0
   -6.2741    0.2392    0.1887 C   0  0  0  0  0  0  0  0  0  0  0  0
   -7.6606    0.2521    0.0543 C   0  0  0  0  0  0  0  0  0  0  0  0
   -8.2558    0.9767   -0.9723 C   0  0  0  0  0  0  0  0  0  0  0  0
   -7.4702    1.7120   -1.8716 C   0  0  0  0  0  0  0  0  0  0  0  0
   -8.1227    2.4471   -3.0339 C   0  0  0  0  0  0  0  0  0  0  0  0
   -8.8281    1.4652   -3.9791 C   0  0  0  0  0  0  0  0  0  0  0  0
   -9.1085    3.5220   -2.5631 C   0  0  0  0  0  0  0  0  0  0  0  0
   -6.0661    1.7091   -1.7077 C   0  0  0  0  0  0  0  0  0  0  0  0
   -1.1248   -1.2026    0.0094 C   0  0  0  0  0  0  0  0  0  0  0  0
    0.2785   -1.2645   -0.0081 C   0  0  0  0  0  0  0  0  0  0  0  0
    0.9552   -2.4868   -0.1056 N   0  0  0  0  0  0  0  0  0  0  0  0
    0.2840   -3.5987   -0.8056 C   0  0  0  0  0  0  0  0  0  0  0  0
    1.3582   -4.5167   -1.3878 C   0  0  0  0  0  0  0  0  0  0  0  0
    2.4531   -4.8148   -0.3963 C   0  0  0  0  0  0  0  0  0  0  0  0
    3.3183   -5.7970   -0.7368 N   0  0  0  0  0  0  0  0  0  0  0  0
    4.3486   -6.0279    0.1016 C   0  0  0  0  0  0  0  0  0  0  0  0
    5.3696   -7.0602   -0.3109 C   0  0  0  0  0  0  0  0  0  0  0  0
    5.5333   -8.4210    0.8845 S   0  0  0  0  0  0  0  0  0  0  0  0
    4.5577   -5.3531    1.2523 N   0  0  0  0  0  0  0  0  0  0  0  0
    3.6678   -4.3877    1.5541 C   0  0  0  0  0  0  0  0  0  0  0  0
    2.5977   -4.0511    0.7527 C   0  0  0  0  0  0  0  0  0  0  0  0
    1.6344   -2.9557    1.1163 C   0  0  0  0  0  0  0  0  0  0  0  0
    2.8449    1.0512   -0.1575 H   0  0  0  0  0  0  0  0  0  0  0  0
    2.8582   -0.5400   -0.9195 H   0  0  0  0  0  0  0  0  0  0  0  0
    2.9383   -0.3718    0.8601 H   0  0  0  0  0  0  0  0  0  0  0  0
    0.8190    2.1267    0.0511 H   0  0  0  0  0  0  0  0  0  0  0  0
   -1.6371    2.1730    0.0644 H   0  0  0  0  0  0  0  0  0  0  0  0
   -3.5298    1.4995   -1.2595 H   0  0  0  0  0  0  0  0  0  0  0  0
   -5.8627   -0.3390    1.0092 H   0  0  0  0  0  0  0  0  0  0  0  0
   -8.2725   -0.3231    0.7441 H   0  0  0  0  0  0  0  0  0  0  0  0
   -9.3369    0.9468   -1.0711 H   0  0  0  0  0  0  0  0  0  0  0  0
   -7.3407    2.9545   -3.6129 H   0  0  0  0  0  0  0  0  0  0  0  0
   -9.6423    0.9264   -3.4806 H   0  0  0  0  0  0  0  0  0  0  0  0
   -8.1249    0.7190   -4.3650 H   0  0  0  0  0  0  0  0  0  0  0  0
   -9.2622    1.9935   -4.8349 H   0  0  0  0  0  0  0  0  0  0  0  0
   -9.9509    3.0947   -2.0075 H   0  0  0  0  0  0  0  0  0  0  0  0
   -9.5241    4.0632   -3.4209 H   0  0  0  0  0  0  0  0  0  0  0  0
   -8.6147    4.2519   -1.9134 H   0  0  0  0  0  0  0  0  0  0  0  0
   -5.4532    2.2754   -2.4042 H   0  0  0  0  0  0  0  0  0  0  0  0
   -1.7068   -2.1220    0.0282 H   0  0  0  0  0  0  0  0  0  0  0  0
   -0.3503   -3.2468   -1.6279 H   0  0  0  0  0  0  0  0  0  0  0  0
   -0.3539   -4.1573   -0.1059 H   0  0  0  0  0  0  0  0  0  0  0  0
    1.8186   -4.0267   -2.2545 H   0  0  0  0  0  0  0  0  0  0  0  0
    0.9009   -5.4504   -1.7341 H   0  0  0  0  0  0  0  0  0  0  0  0
    6.3422   -6.5681   -0.4159 H   0  0  0  0  0  0  0  0  0  0  0  0
    5.1078   -7.4868   -1.2848 H   0  0  0  0  0  0  0  0  0  0  0  0
    5.6954   -7.6252    1.9534 H   0  0  0  0  0  0  0  0  0  0  0  0
    3.8630   -3.8670    2.4875 H   0  0  0  0  0  0  0  0  0  0  0  0
    2.1782   -2.1520    1.6184 H   0  0  0  0  0  0  0  0  0  0  0  0
    0.8987   -3.3476    1.8309 H   0  0  0  0  0  0  0  0  0  0  0  0
  1  2  1  0  0  0  0
  1 32  1  0  0  0  0
  1 33  1  0  0  0  0
  1 34  1  0  0  0  0
  2  3  1  0  0  0  0
  2 19  2  0  0  0  0
  3  4  2  0  0  0  0
  3 35  1  0  0  0  0
  4  5  1  0  0  0  0
  4 36  1  0  0  0  0
  5  6  1  0  0  0  0
  5 18  2  0  0  0  0
  6  7  2  0  0  0  0
  6  8  1  0  0  0  0
  8  9  1  0  0  0  0
  8 37  1  0  0  0  0
  9 10  1  0  0  0  0
  9 17  2  0  0  0  0
 10 11  2  0  0  0  0
 10 38  1  0  0  0  0
 11 12  1  0  0  0  0
 11 39  1  0  0  0  0
 12 13  2  0  0  0  0
 12 40  1  0  0  0  0
 13 14  1  0  0  0  0
 13 17  1  0  0  0  0
 14 15  1  0  0  0  0
 14 16  1  0  0  0  0
 14 41  1  0  0  0  0
 15 42  1  0  0  0  0
 15 43  1  0  0  0  0
 15 44  1  0  0  0  0
 16 45  1  0  0  0  0
 16 46  1  0  0  0  0
 16 47  1  0  0  0  0
 17 48  1  0  0  0  0
 18 19  1  0  0  0  0
 18 49  1  0  0  0  0
 19 20  1  0  0  0  0
 20 21  1  0  0  0  0
 20 31  1  0  0  0  0
 21 22  1  0  0  0  0
 21 50  1  0  0  0  0
 21 51  1  0  0  0  0
 22 23  1  0  0  0  0
 22 52  1  0  0  0  0
 22 53  1  0  0  0  0
 23 24  1  0  0  0  0
 23 30  2  0  0  0  0
 24 25  2  0  0  0  0
 25 26  1  0  0  0  0
 25 28  1  0  0  0  0
 26 27  1  0  0  0  0
 26 54  1  0  0  0  0
 26 55  1  0  0  0  0
 27 56  1  0  0  0  0
 28 29  2  0  0  0  0
 29 30  1  0  0  0  0
 29 57  1  0  0  0  0
 30 31  1  0  0  0  0
 31 58  1  0  0  0  0
 31 59  1  0  0  0  0
M  END
$$$$
