CHEMBL3353340
 OpenBabel04072215363D

 47 52  0  0  1  0  0  0  0  0999 V2000
   -3.7129   -0.0242   -0.9521 O   0  0  0  0  0  0  0  0  0  0  0  0
   -3.7392    0.0564    0.2665 C   0  0  0  0  0  0  0  0  0  0  0  0
   -4.7704    0.5287    1.0530 N   0  0  0  0  0  0  0  0  0  0  0  0
   -4.4168    0.5473    2.4012 C   0  0  0  0  0  0  0  0  0  0  0  0
   -5.1919    1.0187    3.4430 C   0  0  0  0  0  0  0  0  0  0  0  0
   -4.6128    1.0275    4.7096 C   0  0  0  0  0  0  0  0  0  0  0  0
   -3.2824    0.6077    4.8867 C   0  0  0  0  0  0  0  0  0  0  0  0
   -2.5200    0.1304    3.8080 C   0  0  0  0  0  0  0  0  0  0  0  0
   -3.1058    0.0576    2.5539 C   0  0  0  0  0  0  0  0  0  0  0  0
   -2.6211   -0.3725    1.1971 C   0  0  2  0  0  0  0  0  0  0  0  0
   -1.1755   -0.3165    0.7999 C   0  0  0  0  0  0  0  0  0  0  0  0
   -1.8913   -1.6533    0.8315 C   0  0  1  0  0  0  0  0  0  0  0  0
   -1.4195   -2.7341    1.7806 C   0  0  0  0  0  0  0  0  0  0  0  0
   -0.1307   -3.2845    1.6348 C   0  0  0  0  0  0  0  0  0  0  0  0
    0.3467   -4.3392    2.4360 C   0  0  0  0  0  0  0  0  0  0  0  0
   -0.4957   -4.8784    3.4246 C   0  0  0  0  0  0  0  0  0  0  0  0
   -0.4132   -5.8972    4.4308 C   0  0  0  0  0  0  0  0  0  0  0  0
    0.7458   -6.7003    4.7191 C   0  0  0  0  0  0  0  0  0  0  0  0
    0.8064   -7.6238    5.7004 C   0  0  0  0  0  0  0  0  0  0  0  0
    1.9742   -8.4498    6.0564 C   0  0  0  0  0  0  0  0  0  0  0  0
    3.2883   -8.0229    5.8695 C   0  0  0  0  0  0  0  0  0  0  0  0
    4.3240   -8.8498    6.2844 C   0  0  0  0  0  0  0  0  0  0  0  0
    4.1417  -10.0495    6.8732 N   0  0  0  0  0  0  0  0  0  0  0  0
    2.8633  -10.4387    7.0621 C   0  0  0  0  0  0  0  0  0  0  0  0
    1.7640   -9.6829    6.6793 C   0  0  0  0  0  0  0  0  0  0  0  0
   -1.5709   -6.0009    5.1025 N   0  0  0  0  0  0  0  0  0  0  0  0
   -2.3648   -5.0765    4.5420 N   0  0  0  0  0  0  0  0  0  0  0  0
   -1.7776   -4.3536    3.5424 C   0  0  0  0  0  0  0  0  0  0  0  0
   -2.2670   -3.3071    2.7438 C   0  0  0  0  0  0  0  0  0  0  0  0
   -5.6318    0.8835    0.6666 H   0  0  0  0  0  0  0  0  0  0  0  0
   -6.2021    1.3783    3.2872 H   0  0  0  0  0  0  0  0  0  0  0  0
   -5.1873    1.3807    5.5630 H   0  0  0  0  0  0  0  0  0  0  0  0
   -2.8371    0.6622    5.8784 H   0  0  0  0  0  0  0  0  0  0  0  0
   -1.4852   -0.1606    3.9591 H   0  0  0  0  0  0  0  0  0  0  0  0
   -0.4314   -0.1122    1.5606 H   0  0  0  0  0  0  0  0  0  0  0  0
   -0.9316    0.1020   -0.1707 H   0  0  0  0  0  0  0  0  0  0  0  0
   -2.1546   -2.0536   -0.1505 H   0  0  0  0  0  0  0  0  0  0  0  0
    0.5225   -2.8962    0.8534 H   0  0  0  0  0  0  0  0  0  0  0  0
    1.3470   -4.7304    2.2772 H   0  0  0  0  0  0  0  0  0  0  0  0
    1.6169   -6.5326    4.0942 H   0  0  0  0  0  0  0  0  0  0  0  0
   -0.0819   -7.7984    6.3074 H   0  0  0  0  0  0  0  0  0  0  0  0
    3.5244   -7.0623    5.4261 H   0  0  0  0  0  0  0  0  0  0  0  0
    5.3606   -8.5530    6.1543 H   0  0  0  0  0  0  0  0  0  0  0  0
    2.7408  -11.4017    7.5484 H   0  0  0  0  0  0  0  0  0  0  0  0
    0.7642  -10.0599    6.8709 H   0  0  0  0  0  0  0  0  0  0  0  0
   -3.3088   -4.9799    4.8966 H   0  0  0  0  0  0  0  0  0  0  0  0
   -3.2879   -2.9539    2.8584 H   0  0  0  0  0  0  0  0  0  0  0  0
  1  2  2  0  0  0  0
  2  3  1  0  0  0  0
  2 10  1  0  0  0  0
  3  4  1  0  0  0  0
  3 30  1  0  0  0  0
  4  5  1  0  0  0  0
  4  9  2  0  0  0  0
  5  6  2  0  0  0  0
  5 31  1  0  0  0  0
  6  7  1  0  0  0  0
  6 32  1  0  0  0  0
  7  8  2  0  0  0  0
  7 33  1  0  0  0  0
  8  9  1  0  0  0  0
  8 34  1  0  0  0  0
 10  9  1  1  0  0  0
 10 11  1  0  0  0  0
 10 12  1  0  0  0  0
 11 12  1  0  0  0  0
 11 35  1  0  0  0  0
 11 36  1  0  0  0  0
 12 13  1  0  0  0  0
 12 37  1  6  0  0  0
 13 14  1  0  0  0  0
 13 29  2  0  0  0  0
 14 15  2  0  0  0  0
 14 38  1  0  0  0  0
 15 16  1  0  0  0  0
 15 39  1  0  0  0  0
 16 17  1  0  0  0  0
 16 28  2  0  0  0  0
 17 18  1  0  0  0  0
 17 26  2  0  0  0  0
 18 19  2  0  0  0  0
 18 40  1  0  0  0  0
 19 20  1  0  0  0  0
 19 41  1  0  0  0  0
 20 21  1  0  0  0  0
 20 25  2  0  0  0  0
 21 22  2  0  0  0  0
 21 42  1  0  0  0  0
 22 23  1  0  0  0  0
 22 43  1  0  0  0  0
 23 24  2  0  0  0  0
 24 25  1  0  0  0  0
 24 44  1  0  0  0  0
 25 45  1  0  0  0  0
 26 27  1  0  0  0  0
 27 28  1  0  0  0  0
 27 46  1  0  0  0  0
 28 29  1  0  0  0  0
 29 47  1  0  0  0  0
M  END
$$$$
