CHEMBL3287220
 OpenBabel04072215363D

 48 50  0  0  0  0  0  0  0  0999 V2000
    3.3042    2.0375   -0.8017 C   0  0  0  0  0  0  0  0  0  0  0  0
    4.3722    1.1894   -0.5823 O   0  0  0  0  0  0  0  0  0  0  0  0
    4.6324    0.0701   -1.3056 C   0  0  0  0  0  0  0  0  0  0  0  0
    3.8671   -0.2832   -2.4306 C   0  0  0  0  0  0  0  0  0  0  0  0
    4.1354   -1.4573   -3.1227 C   0  0  0  0  0  0  0  0  0  0  0  0
    5.1671   -2.3202   -2.7054 C   0  0  0  0  0  0  0  0  0  0  0  0
    5.3840   -3.5643   -3.3635 N   0  0  0  0  0  0  0  0  0  0  0  0
    4.9664   -3.7947   -4.7028 C   0  0  0  0  0  0  0  0  0  0  0  0
    4.9727   -2.7747   -5.6135 N   0  0  0  0  0  0  0  0  0  0  0  0
    4.5779   -2.9553   -6.9111 C   0  0  0  0  0  0  0  0  0  0  0  0
    4.6308   -1.8071   -7.8634 C   0  0  0  0  0  0  0  0  0  0  0  0
    4.1365   -4.1814   -7.3288 N   0  0  0  0  0  0  0  0  0  0  0  0
    4.1182   -5.1970   -6.4286 C   0  0  0  0  0  0  0  0  0  0  0  0
    3.6828   -6.4950   -6.5702 C   0  0  0  0  0  0  0  0  0  0  0  0
    3.1034   -7.1436   -7.7915 C   0  0  0  0  0  0  0  0  0  0  0  0
    1.5987   -7.0234   -7.8165 C   0  0  0  0  0  0  0  0  0  0  0  0
    0.9878   -5.7577   -7.8891 C   0  0  0  0  0  0  0  0  0  0  0  0
   -0.4050   -5.6444   -7.9293 C   0  0  0  0  0  0  0  0  0  0  0  0
   -1.2016   -6.7912   -7.8971 C   0  0  0  0  0  0  0  0  0  0  0  0
   -0.6062   -8.0534   -7.8250 C   0  0  0  0  0  0  0  0  0  0  0  0
    0.7879   -8.1718   -7.7862 C   0  0  0  0  0  0  0  0  0  0  0  0
    3.8626   -7.0826   -5.3192 C   0  0  0  0  0  0  0  0  0  0  0  0
    4.3870   -6.1841   -4.4503 N   0  0  0  0  0  0  0  0  0  0  0  0
    4.5287   -5.0392   -5.1411 C   0  0  0  0  0  0  0  0  0  0  0  0
    5.9337   -1.9680   -1.5851 C   0  0  0  0  0  0  0  0  0  0  0  0
    5.6770   -0.7731   -0.9003 C   0  0  0  0  0  0  0  0  0  0  0  0
   -0.8422   -1.0275    1.4840 Cl  0  0  0  0  0  0  0  0  0  0  0  0
    3.3024    2.8347   -0.0325 H   0  0  0  0  0  0  0  0  0  0  0  0
    2.3492    1.4719   -0.7229 H   0  0  0  0  0  0  0  0  0  0  0  0
    3.3815    2.5050   -1.8067 H   0  0  0  0  0  0  0  0  0  0  0  0
    3.0462    0.3316   -2.7727 H   0  0  0  0  0  0  0  0  0  0  0  0
    3.4952   -1.7034   -3.9578 H   0  0  0  0  0  0  0  0  0  0  0  0
    5.7899   -4.3443   -2.8217 H   0  0  0  0  0  0  0  0  0  0  0  0
    5.0249   -0.8997   -7.3560 H   0  0  0  0  0  0  0  0  0  0  0  0
    3.6130   -1.5884   -8.2471 H   0  0  0  0  0  0  0  0  0  0  0  0
    5.3010   -2.0573   -8.7117 H   0  0  0  0  0  0  0  0  0  0  0  0
    3.4260   -8.2072   -7.8036 H   0  0  0  0  0  0  0  0  0  0  0  0
    3.5191   -6.6666   -8.7043 H   0  0  0  0  0  0  0  0  0  0  0  0
    1.5876   -4.8586   -7.9216 H   0  0  0  0  0  0  0  0  0  0  0  0
   -0.8663   -4.6667   -7.9888 H   0  0  0  0  0  0  0  0  0  0  0  0
   -2.2797   -6.7016   -7.9299 H   0  0  0  0  0  0  0  0  0  0  0  0
   -1.2260   -8.9405   -7.8018 H   0  0  0  0  0  0  0  0  0  0  0  0
    1.2318   -9.1578   -7.7333 H   0  0  0  0  0  0  0  0  0  0  0  0
    3.6157   -8.1029   -5.0574 H   0  0  0  0  0  0  0  0  0  0  0  0
    4.6095   -6.3508   -3.4443 H   0  0  0  0  0  0  0  0  0  0  0  0
    6.7308   -2.6174   -1.2446 H   0  0  0  0  0  0  0  0  0  0  0  0
    6.2781   -0.5129   -0.0381 H   0  0  0  0  0  0  0  0  0  0  0  0
    0.5033   -0.9844    1.7668 H   0  0  0  0  0  0  0  0  0  0  0  0
  1  2  1  0  0  0  0
  1 28  1  0  0  0  0
  1 29  1  0  0  0  0
  1 30  1  0  0  0  0
  2  3  1  0  0  0  0
  3  4  1  0  0  0  0
  3 26  2  0  0  0  0
  4  5  2  0  0  0  0
  4 31  1  0  0  0  0
  5  6  1  0  0  0  0
  5 32  1  0  0  0  0
  6  7  1  0  0  0  0
  6 25  2  0  0  0  0
  7  8  1  0  0  0  0
  7 33  1  0  0  0  0
  8  9  1  0  0  0  0
  8 24  2  0  0  0  0
  9 10  2  0  0  0  0
 10 11  1  0  0  0  0
 10 12  1  0  0  0  0
 11 34  1  0  0  0  0
 11 35  1  0  0  0  0
 11 36  1  0  0  0  0
 12 13  2  0  0  0  0
 13 14  1  0  0  0  0
 13 24  1  0  0  0  0
 14 15  1  0  0  0  0
 14 22  2  0  0  0  0
 15 16  1  0  0  0  0
 15 37  1  0  0  0  0
 15 38  1  0  0  0  0
 16 17  1  0  0  0  0
 16 21  2  0  0  0  0
 17 18  2  0  0  0  0
 17 39  1  0  0  0  0
 18 19  1  0  0  0  0
 18 40  1  0  0  0  0
 19 20  2  0  0  0  0
 19 41  1  0  0  0  0
 20 21  1  0  0  0  0
 20 42  1  0  0  0  0
 21 43  1  0  0  0  0
 22 23  1  0  0  0  0
 22 44  1  0  0  0  0
 23 24  1  0  0  0  0
 23 45  1  0  0  0  0
 25 26  1  0  0  0  0
 25 46  1  0  0  0  0
 26 47  1  0  0  0  0
 27 48  1  0  0  0  0
M  END
$$$$
