CHEMBL1964441
 OpenBabel04072215363D

 55 58  0  0  0  0  0  0  0  0999 V2000
    1.3244   -1.9700   -1.5343 C   0  0  0  0  0  0  0  0  0  0  0  0
    2.5297   -2.2986   -0.7867 N   0  0  0  0  0  0  0  0  0  0  0  0
    2.7024   -1.3799    0.3300 C   0  0  0  0  0  0  0  0  0  0  0  0
    3.9642   -1.7374    1.0984 C   0  0  0  0  0  0  0  0  0  0  0  0
    5.0465   -2.0441    1.7576 C   0  0  0  0  0  0  0  0  0  0  0  0
    6.2206   -2.3977    2.4964 C   0  0  0  0  0  0  0  0  0  0  0  0
    6.2105   -3.2671    3.5640 C   0  0  0  0  0  0  0  0  0  0  0  0
    7.2982   -3.6228    4.2760 N   0  0  0  0  0  0  0  0  0  0  0  0
    8.5005   -3.1239    3.9416 C   0  0  0  0  0  0  0  0  0  0  0  0
    9.5400   -3.5669    4.7360 N   0  0  0  0  0  0  0  0  0  0  0  0
    8.6344   -2.2156    2.8501 C   0  0  0  0  0  0  0  0  0  0  0  0
    9.7938   -1.5302    2.2824 C   0  0  0  0  0  0  0  0  0  0  0  0
   11.1903   -1.5943    2.7038 C   0  0  0  0  0  0  0  0  0  0  0  0
   11.6852   -2.7542    3.2760 C   0  0  0  0  0  0  0  0  0  0  0  0
   12.9840   -2.8379    3.7532 C   0  0  0  0  0  0  0  0  0  0  0  0
   13.8868   -1.8016    3.5729 C   0  0  0  0  0  0  0  0  0  0  0  0
   15.2427   -1.8842    4.0063 N   0  0  0  0  0  0  0  0  0  0  0  0
   15.7680   -3.0122    4.6444 C   0  0  0  0  0  0  0  0  0  0  0  0
   15.1490   -4.0058    4.8979 O   0  0  0  0  0  0  0  0  0  0  0  0
   17.1136   -2.8912    4.9986 N   0  0  0  0  0  0  0  0  0  0  0  0
   17.7053   -4.0087    5.6711 C   0  0  0  0  0  0  0  0  0  0  0  0
   18.2416   -3.8340    6.9535 C   0  0  0  0  0  0  0  0  0  0  0  0
   18.9371   -4.8647    7.5806 C   0  0  0  0  0  0  0  0  0  0  0  0
   19.1170   -6.0813    6.9280 C   0  0  0  0  0  0  0  0  0  0  0  0
   18.5663   -6.2901    5.6578 C   0  0  0  0  0  0  0  0  0  0  0  0
   18.8005   -7.5956    4.9556 C   0  0  0  0  0  0  0  0  0  0  0  0
   17.8402   -5.2511    5.0383 C   0  0  0  0  0  0  0  0  0  0  0  0
   13.4254   -0.6450    2.9266 C   0  0  0  0  0  0  0  0  0  0  0  0
   12.0828   -0.5427    2.5126 C   0  0  0  0  0  0  0  0  0  0  0  0
    9.4505   -0.7154    1.2236 C   0  0  0  0  0  0  0  0  0  0  0  0
    7.7966   -0.7365    0.8807 S   0  0  0  0  0  0  0  0  0  0  0  0
    7.4672   -1.8616    2.1481 C   0  0  0  0  0  0  0  0  0  0  0  0
    1.2092   -2.6659   -2.3705 H   0  0  0  0  0  0  0  0  0  0  0  0
    1.3687   -0.9551   -1.9433 H   0  0  0  0  0  0  0  0  0  0  0  0
    0.4331   -2.0615   -0.9046 H   0  0  0  0  0  0  0  0  0  0  0  0
    3.3415   -2.2259   -1.3988 H   0  0  0  0  0  0  0  0  0  0  0  0
    1.8528   -1.4424    1.0196 H   0  0  0  0  0  0  0  0  0  0  0  0
    2.7910   -0.3447   -0.0196 H   0  0  0  0  0  0  0  0  0  0  0  0
    5.2920   -3.7313    3.9111 H   0  0  0  0  0  0  0  0  0  0  0  0
    9.2999   -4.0829    5.5613 H   0  0  0  0  0  0  0  0  0  0  0  0
   10.3349   -2.9754    4.8407 H   0  0  0  0  0  0  0  0  0  0  0  0
   11.0896   -3.6370    3.3789 H   0  0  0  0  0  0  0  0  0  0  0  0
   13.2219   -3.7828    4.2251 H   0  0  0  0  0  0  0  0  0  0  0  0
   15.8455   -1.0963    3.8288 H   0  0  0  0  0  0  0  0  0  0  0  0
   17.4253   -1.9840    5.2827 H   0  0  0  0  0  0  0  0  0  0  0  0
   18.1221   -2.8932    7.4812 H   0  0  0  0  0  0  0  0  0  0  0  0
   19.3768   -4.7069    8.5640 H   0  0  0  0  0  0  0  0  0  0  0  0
   19.7046   -6.8607    7.4103 H   0  0  0  0  0  0  0  0  0  0  0  0
   19.3891   -8.2782    5.5802 H   0  0  0  0  0  0  0  0  0  0  0  0
   19.3611   -7.4361    4.0290 H   0  0  0  0  0  0  0  0  0  0  0  0
   17.8499   -8.0869    4.7335 H   0  0  0  0  0  0  0  0  0  0  0  0
   17.4456   -5.3990    4.0346 H   0  0  0  0  0  0  0  0  0  0  0  0
   14.0857    0.1923    2.7285 H   0  0  0  0  0  0  0  0  0  0  0  0
   11.7506    0.3655    2.0209 H   0  0  0  0  0  0  0  0  0  0  0  0
   10.1041   -0.0925    0.6307 H   0  0  0  0  0  0  0  0  0  0  0  0
  1  2  1  0  0  0  0
  1 33  1  0  0  0  0
  1 34  1  0  0  0  0
  1 35  1  0  0  0  0
  2  3  1  0  0  0  0
  2 36  1  0  0  0  0
  3  4  1  0  0  0  0
  3 37  1  0  0  0  0
  3 38  1  0  0  0  0
  4  5  3  0  0  0  0
  5  6  1  0  0  0  0
  6  7  1  0  0  0  0
  6 32  2  0  0  0  0
  7  8  2  0  0  0  0
  7 39  1  0  0  0  0
  8  9  1  0  0  0  0
  9 10  1  0  0  0  0
  9 11  2  0  0  0  0
 10 40  1  0  0  0  0
 10 41  1  0  0  0  0
 11 12  1  0  0  0  0
 11 32  1  0  0  0  0
 12 13  1  0  0  0  0
 12 30  2  0  0  0  0
 13 14  1  0  0  0  0
 13 29  2  0  0  0  0
 14 15  2  0  0  0  0
 14 42  1  0  0  0  0
 15 16  1  0  0  0  0
 15 43  1  0  0  0  0
 16 17  1  0  0  0  0
 16 28  2  0  0  0  0
 17 18  1  0  0  0  0
 17 44  1  0  0  0  0
 18 19  2  0  0  0  0
 18 20  1  0  0  0  0
 20 21  1  0  0  0  0
 20 45  1  0  0  0  0
 21 22  1  0  0  0  0
 21 27  2  0  0  0  0
 22 23  2  0  0  0  0
 22 46  1  0  0  0  0
 23 24  1  0  0  0  0
 23 47  1  0  0  0  0
 24 25  2  0  0  0  0
 24 48  1  0  0  0  0
 25 26  1  0  0  0  0
 25 27  1  0  0  0  0
 26 49  1  0  0  0  0
 26 50  1  0  0  0  0
 26 51  1  0  0  0  0
 27 52  1  0  0  0  0
 28 29  1  0  0  0  0
 28 53  1  0  0  0  0
 29 54  1  0  0  0  0
 30 31  1  0  0  0  0
 30 55  1  0  0  0  0
 31 32  1  0  0  0  0
M  END
$$$$
