CHEMBL3644027
 OpenBabel04072215373D

 45 46  0  0  1  0  0  0  0  0999 V2000
    2.5864    0.1590   -6.1564 C   0  0  0  0  0  0  0  0  0  0  0  0
    3.0180    0.4576   -4.8374 O   0  0  0  0  0  0  0  0  0  0  0  0
    3.8146   -0.5929   -4.2852 C   0  0  0  0  0  0  0  0  0  0  0  0
    4.2754   -0.2059   -2.8721 C   0  0  1  0  0  0  0  0  0  0  0  0
    3.0484    0.0219   -1.9766 C   0  0  0  0  0  0  0  0  0  0  0  0
    5.0452   -1.2651   -2.2743 O   0  0  0  0  0  0  0  0  0  0  0  0
    6.3997   -1.2502   -2.5372 C   0  0  0  0  0  0  0  0  0  0  0  0
    6.8348   -0.6247   -3.6558 N   0  0  0  0  0  0  0  0  0  0  0  0
    8.1609   -0.5864   -3.8625 C   0  0  0  0  0  0  0  0  0  0  0  0
    8.6378   -0.0224   -5.0450 N   0  0  0  0  0  0  0  0  0  0  0  0
    9.9482    0.3879   -5.3349 C   0  0  0  0  0  0  0  0  0  0  0  0
   10.5178    0.1639   -6.5963 C   0  0  0  0  0  0  0  0  0  0  0  0
   11.8690    0.4654   -6.8395 C   0  0  0  0  0  0  0  0  0  0  0  0
   12.6545    1.0097   -5.8190 C   0  0  0  0  0  0  0  0  0  0  0  0
   14.3935    1.2823   -6.0700 S   0  0  0  0  0  0  0  0  0  0  0  0
   14.4829    2.9421   -6.6871 C   0  0  0  0  0  0  0  0  0  0  0  0
   15.0359    1.2593   -4.7675 O   0  0  0  0  0  0  0  0  0  0  0  0
   14.8310    0.3894   -7.1289 O   0  0  0  0  0  0  0  0  0  0  0  0
   12.1071    1.2426   -4.5606 C   0  0  0  0  0  0  0  0  0  0  0  0
   10.7681    0.9256   -4.3291 C   0  0  0  0  0  0  0  0  0  0  0  0
    9.0407   -1.1317   -3.0114 N   0  0  0  0  0  0  0  0  0  0  0  0
    8.5649   -1.8028   -1.9557 C   0  0  0  0  0  0  0  0  0  0  0  0
    7.2280   -1.9232   -1.6725 C   0  0  0  0  0  0  0  0  0  0  0  0
    6.8152   -2.7640   -0.5241 C   0  0  0  0  0  0  0  0  0  0  0  0
    5.4798   -2.8532   -0.2929 F   0  0  0  0  0  0  0  0  0  0  0  0
    7.2436   -4.0535   -0.6766 F   0  0  0  0  0  0  0  0  0  0  0  0
    7.3686   -2.3447    0.6484 F   0  0  0  0  0  0  0  0  0  0  0  0
    1.8714    0.9270   -6.4633 H   0  0  0  0  0  0  0  0  0  0  0  0
    2.0901   -0.8153   -6.1937 H   0  0  0  0  0  0  0  0  0  0  0  0
    3.4377    0.1780   -6.8426 H   0  0  0  0  0  0  0  0  0  0  0  0
    4.6713   -0.7815   -4.9394 H   0  0  0  0  0  0  0  0  0  0  0  0
    3.2284   -1.5195   -4.2414 H   0  0  0  0  0  0  0  0  0  0  0  0
    4.8337    0.7402   -2.8883 H   0  0  0  0  0  0  0  0  0  0  0  0
    2.4978   -0.9127   -1.8202 H   0  0  0  0  0  0  0  0  0  0  0  0
    2.3607    0.7600   -2.4034 H   0  0  0  0  0  0  0  0  0  0  0  0
    3.3524    0.3791   -0.9871 H   0  0  0  0  0  0  0  0  0  0  0  0
    7.9466   -0.0106   -5.7774 H   0  0  0  0  0  0  0  0  0  0  0  0
    9.9348   -0.3027   -7.3869 H   0  0  0  0  0  0  0  0  0  0  0  0
   12.3030    0.2373   -7.8113 H   0  0  0  0  0  0  0  0  0  0  0  0
   14.0603    3.6270   -5.9494 H   0  0  0  0  0  0  0  0  0  0  0  0
   13.9410    3.0016   -7.6323 H   0  0  0  0  0  0  0  0  0  0  0  0
   15.5373    3.1817   -6.8497 H   0  0  0  0  0  0  0  0  0  0  0  0
   12.7087    1.6302   -3.7430 H   0  0  0  0  0  0  0  0  0  0  0  0
   10.3634    1.0927   -3.3336 H   0  0  0  0  0  0  0  0  0  0  0  0
    9.3264   -2.2677   -1.3289 H   0  0  0  0  0  0  0  0  0  0  0  0
  1  2  1  0  0  0  0
  1 28  1  0  0  0  0
  1 29  1  0  0  0  0
  1 30  1  0  0  0  0
  2  3  1  0  0  0  0
  3  4  1  0  0  0  0
  3 31  1  0  0  0  0
  3 32  1  0  0  0  0
  4  5  1  0  0  0  0
  4  6  1  0  0  0  0
  4 33  1  6  0  0  0
  5 34  1  0  0  0  0
  5 35  1  0  0  0  0
  5 36  1  0  0  0  0
  6  7  1  0  0  0  0
  7  8  1  0  0  0  0
  7 23  2  0  0  0  0
  8  9  2  0  0  0  0
  9 10  1  0  0  0  0
  9 21  1  0  0  0  0
 10 11  1  0  0  0  0
 10 37  1  0  0  0  0
 11 12  1  0  0  0  0
 11 20  2  0  0  0  0
 12 13  2  0  0  0  0
 12 38  1  0  0  0  0
 13 14  1  0  0  0  0
 13 39  1  0  0  0  0
 14 15  1  0  0  0  0
 14 19  2  0  0  0  0
 15 16  1  0  0  0  0
 15 17  2  0  0  0  0
 15 18  2  0  0  0  0
 16 40  1  0  0  0  0
 16 41  1  0  0  0  0
 16 42  1  0  0  0  0
 19 20  1  0  0  0  0
 19 43  1  0  0  0  0
 20 44  1  0  0  0  0
 21 22  2  0  0  0  0
 22 23  1  0  0  0  0
 22 45  1  0  0  0  0
 23 24  1  0  0  0  0
 24 25  1  0  0  0  0
 24 26  1  0  0  0  0
 24 27  1  0  0  0  0
M  END
$$$$
