CHEMBL1981410
 OpenBabel04072215363D

 53 56  0  0  0  0  0  0  0  0999 V2000
    5.6770    3.9015   -3.6703 C   0  0  0  0  0  0  0  0  0  0  0  0
    4.4296    3.2601   -3.2967 N   0  0  0  0  0  0  0  0  0  0  0  0
    4.3432    1.9144   -3.7503 C   0  0  0  0  0  0  0  0  0  0  0  0
    5.4757    1.2021   -3.9079 N   0  0  0  0  0  0  0  0  0  0  0  0
    5.3249   -0.0607   -4.3208 C   0  0  0  0  0  0  0  0  0  0  0  0
    4.1706   -0.6760   -4.5987 N   0  0  0  0  0  0  0  0  0  0  0  0
    3.0492    0.0460   -4.4178 C   0  0  0  0  0  0  0  0  0  0  0  0
    3.0623    1.3695   -3.9527 C   0  0  0  0  0  0  0  0  0  0  0  0
    1.9179    2.1997   -3.7678 N   0  0  0  0  0  0  0  0  0  0  0  0
    0.8566    1.7019   -3.2025 C   0  0  0  0  0  0  0  0  0  0  0  0
   -0.3327    2.5826   -2.9936 C   0  0  0  0  0  0  0  0  0  0  0  0
   -1.6189    2.0475   -3.0403 C   0  0  0  0  0  0  0  0  0  0  0  0
   -2.7297    2.8564   -2.7944 C   0  0  0  0  0  0  0  0  0  0  0  0
   -2.5849    4.2149   -2.5018 C   0  0  0  0  0  0  0  0  0  0  0  0
   -3.6856    5.0640   -2.2411 N   0  0  0  0  0  0  0  0  0  0  0  0
   -5.0002    4.6561   -2.0685 C   0  0  0  0  0  0  0  0  0  0  0  0
   -5.3780    3.4919   -2.0020 O   0  0  0  0  0  0  0  0  0  0  0  0
   -5.8721    5.7370   -2.0331 N   0  0  0  0  0  0  0  0  0  0  0  0
   -7.2645    5.5356   -1.8869 C   0  0  0  0  0  0  0  0  0  0  0  0
   -8.1338    6.2247   -2.7333 C   0  0  0  0  0  0  0  0  0  0  0  0
   -9.5082    5.9917   -2.6628 C   0  0  0  0  0  0  0  0  0  0  0  0
  -10.0243    5.1140   -1.7078 C   0  0  0  0  0  0  0  0  0  0  0  0
   -9.1709    4.4479   -0.8169 C   0  0  0  0  0  0  0  0  0  0  0  0
   -9.7137    3.5328    0.2503 C   0  0  0  0  0  0  0  0  0  0  0  0
  -11.0764    3.4750    0.2704 F   0  0  0  0  0  0  0  0  0  0  0  0
   -9.2909    2.2461    0.1182 F   0  0  0  0  0  0  0  0  0  0  0  0
   -9.3461    3.9225    1.5036 F   0  0  0  0  0  0  0  0  0  0  0  0
   -7.7842    4.6556   -0.9294 C   0  0  0  0  0  0  0  0  0  0  0  0
   -1.2953    4.7600   -2.4935 C   0  0  0  0  0  0  0  0  0  0  0  0
   -0.1742    3.9487   -2.7413 C   0  0  0  0  0  0  0  0  0  0  0  0
    0.7746    0.2673   -2.7195 C   0  0  0  0  0  0  0  0  0  0  0  0
    0.7369   -0.6750   -3.9092 C   0  0  0  0  0  0  0  0  0  0  0  0
    1.8965   -0.6384   -4.7888 N   0  0  0  0  0  0  0  0  0  0  0  0
    5.6338    4.9585   -3.3899 H   0  0  0  0  0  0  0  0  0  0  0  0
    5.8438    3.8550   -4.7530 H   0  0  0  0  0  0  0  0  0  0  0  0
    6.5327    3.4590   -3.1488 H   0  0  0  0  0  0  0  0  0  0  0  0
    3.6080    3.7338   -3.6760 H   0  0  0  0  0  0  0  0  0  0  0  0
    6.2336   -0.6435   -4.4387 H   0  0  0  0  0  0  0  0  0  0  0  0
   -1.7972    1.0042   -3.2707 H   0  0  0  0  0  0  0  0  0  0  0  0
   -3.7018    2.3786   -2.8435 H   0  0  0  0  0  0  0  0  0  0  0  0
   -3.4806    6.0272   -2.0178 H   0  0  0  0  0  0  0  0  0  0  0  0
   -5.5930    6.5118   -2.6172 H   0  0  0  0  0  0  0  0  0  0  0  0
   -7.7526    6.8958   -3.4976 H   0  0  0  0  0  0  0  0  0  0  0  0
  -10.1786    6.4844   -3.3626 H   0  0  0  0  0  0  0  0  0  0  0  0
  -11.1002    4.9507   -1.6610 H   0  0  0  0  0  0  0  0  0  0  0  0
   -7.1133    4.1267   -0.2529 H   0  0  0  0  0  0  0  0  0  0  0  0
   -1.1359    5.8150   -2.2879 H   0  0  0  0  0  0  0  0  0  0  0  0
    0.8215    4.3857   -2.7190 H   0  0  0  0  0  0  0  0  0  0  0  0
   -0.1136    0.1081   -2.0998 H   0  0  0  0  0  0  0  0  0  0  0  0
    1.6270    0.0580   -2.0631 H   0  0  0  0  0  0  0  0  0  0  0  0
   -0.1475   -0.4718   -4.5239 H   0  0  0  0  0  0  0  0  0  0  0  0
    0.6240   -1.6999   -3.5353 H   0  0  0  0  0  0  0  0  0  0  0  0
    2.2059   -1.5651   -5.0770 H   0  0  0  0  0  0  0  0  0  0  0  0
  1  2  1  0  0  0  0
  1 34  1  0  0  0  0
  1 35  1  0  0  0  0
  1 36  1  0  0  0  0
  2  3  1  0  0  0  0
  2 37  1  0  0  0  0
  3  4  1  0  0  0  0
  3  8  2  0  0  0  0
  4  5  2  0  0  0  0
  5  6  1  0  0  0  0
  5 38  1  0  0  0  0
  6  7  2  0  0  0  0
  7  8  1  0  0  0  0
  7 33  1  0  0  0  0
  8  9  1  0  0  0  0
  9 10  2  0  0  0  0
 10 11  1  0  0  0  0
 10 31  1  0  0  0  0
 11 12  1  0  0  0  0
 11 30  2  0  0  0  0
 12 13  2  0  0  0  0
 12 39  1  0  0  0  0
 13 14  1  0  0  0  0
 13 40  1  0  0  0  0
 14 15  1  0  0  0  0
 14 29  2  0  0  0  0
 15 16  1  0  0  0  0
 15 41  1  0  0  0  0
 16 17  2  0  0  0  0
 16 18  1  0  0  0  0
 18 19  1  0  0  0  0
 18 42  1  0  0  0  0
 19 20  1  0  0  0  0
 19 28  2  0  0  0  0
 20 21  2  0  0  0  0
 20 43  1  0  0  0  0
 21 22  1  0  0  0  0
 21 44  1  0  0  0  0
 22 23  2  0  0  0  0
 22 45  1  0  0  0  0
 23 24  1  0  0  0  0
 23 28  1  0  0  0  0
 24 25  1  0  0  0  0
 24 26  1  0  0  0  0
 24 27  1  0  0  0  0
 28 46  1  0  0  0  0
 29 30  1  0  0  0  0
 29 47  1  0  0  0  0
 30 48  1  0  0  0  0
 31 32  1  0  0  0  0
 31 49  1  0  0  0  0
 31 50  1  0  0  0  0
 32 33  1  0  0  0  0
 32 51  1  0  0  0  0
 32 52  1  0  0  0  0
 33 53  1  0  0  0  0
M  END
$$$$
