CHEMBL3815128
 OpenBabel04072215373D

 69 72  0  0  0  0  0  0  0  0999 V2000
   18.1675   -1.8410   -8.9214 C   0  0  0  0  0  0  0  0  0  0  0  0
   18.5485   -0.4278   -8.9697 N   0  0  0  0  0  0  0  0  0  0  0  0
   19.9652   -0.3166   -9.3364 C   0  0  0  0  0  0  0  0  0  0  0  0
   17.7201    0.3427   -9.9144 C   0  0  0  0  0  0  0  0  0  0  0  0
   16.2200    0.3798   -9.5879 C   0  0  0  0  0  0  0  0  0  0  0  0
   15.9124    0.9545   -8.2112 C   0  0  0  0  0  0  0  0  0  0  0  0
   14.4952    0.8805   -7.9747 O   0  0  0  0  0  0  0  0  0  0  0  0
   14.2507    1.4336   -6.7113 N   0  0  0  0  0  0  0  0  0  0  0  0
   12.9857    1.4103   -6.4186 C   0  0  0  0  0  0  0  0  0  0  0  0
   12.5140    2.0127   -5.1567 C   0  0  0  0  0  0  0  0  0  0  0  0
   13.2595    3.0008   -4.5143 C   0  0  0  0  0  0  0  0  0  0  0  0
   14.3751    3.6036   -5.0938 N   0  0  0  0  0  0  0  0  0  0  0  0
   12.9090    3.5332   -3.3313 N   0  0  0  0  0  0  0  0  0  0  0  0
   11.7622    3.1056   -2.8025 C   0  0  0  0  0  0  0  0  0  0  0  0
   10.9495    2.1978   -3.3436 N   0  0  0  0  0  0  0  0  0  0  0  0
   11.3657    1.6158   -4.4958 C   0  0  0  0  0  0  0  0  0  0  0  0
   10.6241    0.5185   -4.9465 O   0  0  0  0  0  0  0  0  0  0  0  0
    9.9763   -0.2078   -3.9563 C   0  0  0  0  0  0  0  0  0  0  0  0
   10.6227   -0.5468   -2.7666 C   0  0  0  0  0  0  0  0  0  0  0  0
    9.9203   -1.1483   -1.7201 C   0  0  0  0  0  0  0  0  0  0  0  0
    8.5788   -1.4999   -1.8565 C   0  0  0  0  0  0  0  0  0  0  0  0
    7.8347   -2.0603   -0.7909 N   0  0  0  0  0  0  0  0  0  0  0  0
    8.3366   -2.4318    0.4495 C   0  0  0  0  0  0  0  0  0  0  0  0
    9.5081   -2.4861    0.7969 O   0  0  0  0  0  0  0  0  0  0  0  0
    7.2946   -2.8083    1.4600 C   0  0  0  0  0  0  0  0  0  0  0  0
    6.7411   -4.1881    1.3151 C   0  0  0  0  0  0  0  0  0  0  0  0
    5.9003   -4.3568    0.4367 O   0  0  0  0  0  0  0  0  0  0  0  0
    7.2264   -5.1273    2.2093 N   0  0  0  0  0  0  0  0  0  0  0  0
    6.7817   -6.4648    2.3093 C   0  0  0  0  0  0  0  0  0  0  0  0
    6.0316   -7.0888    1.3073 C   0  0  0  0  0  0  0  0  0  0  0  0
    5.4954   -8.3635    1.5028 C   0  0  0  0  0  0  0  0  0  0  0  0
    5.7261   -9.0243    2.6984 C   0  0  0  0  0  0  0  0  0  0  0  0
    5.1690  -10.2241    2.9064 F   0  0  0  0  0  0  0  0  0  0  0  0
    6.5235   -8.4534    3.6830 C   0  0  0  0  0  0  0  0  0  0  0  0
    7.0686   -7.1778    3.4823 C   0  0  0  0  0  0  0  0  0  0  0  0
    6.3216   -1.7044    1.8884 C   0  0  0  0  0  0  0  0  0  0  0  0
    7.3699   -2.1657    2.8482 C   0  0  0  0  0  0  0  0  0  0  0  0
    7.9481   -1.2457   -3.0843 C   0  0  0  0  0  0  0  0  0  0  0  0
    8.6499   -0.6056   -4.1223 C   0  0  0  0  0  0  0  0  0  0  0  0
    8.0100   -0.3570   -5.2756 F   0  0  0  0  0  0  0  0  0  0  0  0
   18.8075   -2.3857   -8.2176 H   0  0  0  0  0  0  0  0  0  0  0  0
   18.2445   -2.3239   -9.9018 H   0  0  0  0  0  0  0  0  0  0  0  0
   17.1460   -1.9644   -8.5490 H   0  0  0  0  0  0  0  0  0  0  0  0
   20.5921   -0.8942   -8.6471 H   0  0  0  0  0  0  0  0  0  0  0  0
   20.3018    0.7235   -9.2659 H   0  0  0  0  0  0  0  0  0  0  0  0
   20.1584   -0.6755  -10.3544 H   0  0  0  0  0  0  0  0  0  0  0  0
   17.8442   -0.0492  -10.9329 H   0  0  0  0  0  0  0  0  0  0  0  0
   18.0812    1.3798   -9.9337 H   0  0  0  0  0  0  0  0  0  0  0  0
   15.7744   -0.6169   -9.6815 H   0  0  0  0  0  0  0  0  0  0  0  0
   15.7102    0.9889  -10.3456 H   0  0  0  0  0  0  0  0  0  0  0  0
   16.2342    2.0025   -8.1607 H   0  0  0  0  0  0  0  0  0  0  0  0
   16.4247    0.3896   -7.4248 H   0  0  0  0  0  0  0  0  0  0  0  0
   12.2409    0.9539   -7.0936 H   0  0  0  0  0  0  0  0  0  0  0  0
   14.9665    2.9217   -5.5724 H   0  0  0  0  0  0  0  0  0  0  0  0
   14.8552    4.1746   -4.4078 H   0  0  0  0  0  0  0  0  0  0  0  0
   11.4741    3.5181   -1.8422 H   0  0  0  0  0  0  0  0  0  0  0  0
   11.6622   -0.2809   -2.5983 H   0  0  0  0  0  0  0  0  0  0  0  0
   10.4597   -1.2890   -0.7899 H   0  0  0  0  0  0  0  0  0  0  0  0
    6.8437   -2.2233   -0.9470 H   0  0  0  0  0  0  0  0  0  0  0  0
    7.8743   -4.8045    2.9172 H   0  0  0  0  0  0  0  0  0  0  0  0
    5.8459   -6.6060    0.3531 H   0  0  0  0  0  0  0  0  0  0  0  0
    4.8911   -8.8268    0.7306 H   0  0  0  0  0  0  0  0  0  0  0  0
    6.6971   -8.9969    4.6066 H   0  0  0  0  0  0  0  0  0  0  0  0
    7.6737   -6.7438    4.2742 H   0  0  0  0  0  0  0  0  0  0  0  0
    5.2912   -1.9811    2.0840 H   0  0  0  0  0  0  0  0  0  0  0  0
    6.4348   -0.7152    1.4575 H   0  0  0  0  0  0  0  0  0  0  0  0
    7.0319   -2.7172    3.7183 H   0  0  0  0  0  0  0  0  0  0  0  0
    8.1991   -1.4953    3.0570 H   0  0  0  0  0  0  0  0  0  0  0  0
    6.9100   -1.5159   -3.2528 H   0  0  0  0  0  0  0  0  0  0  0  0
  1  2  1  0  0  0  0
  1 41  1  0  0  0  0
  1 42  1  0  0  0  0
  1 43  1  0  0  0  0
  2  3  1  0  0  0  0
  2  4  1  0  0  0  0
  3 44  1  0  0  0  0
  3 45  1  0  0  0  0
  3 46  1  0  0  0  0
  4  5  1  0  0  0  0
  4 47  1  0  0  0  0
  4 48  1  0  0  0  0
  5  6  1  0  0  0  0
  5 49  1  0  0  0  0
  5 50  1  0  0  0  0
  6  7  1  0  0  0  0
  6 51  1  0  0  0  0
  6 52  1  0  0  0  0
  7  8  1  0  0  0  0
  8  9  2  0  0  0  0
  9 10  1  0  0  0  0
  9 53  1  0  0  0  0
 10 11  1  0  0  0  0
 10 16  2  0  0  0  0
 11 12  1  0  0  0  0
 11 13  2  0  0  0  0
 12 54  1  0  0  0  0
 12 55  1  0  0  0  0
 13 14  1  0  0  0  0
 14 15  2  0  0  0  0
 14 56  1  0  0  0  0
 15 16  1  0  0  0  0
 16 17  1  0  0  0  0
 17 18  1  0  0  0  0
 18 19  1  0  0  0  0
 18 39  2  0  0  0  0
 19 20  2  0  0  0  0
 19 57  1  0  0  0  0
 20 21  1  0  0  0  0
 20 58  1  0  0  0  0
 21 22  1  0  0  0  0
 21 38  2  0  0  0  0
 22 23  1  0  0  0  0
 22 59  1  0  0  0  0
 23 24  2  0  0  0  0
 23 25  1  0  0  0  0
 25 26  1  0  0  0  0
 25 36  1  0  0  0  0
 25 37  1  0  0  0  0
 26 27  2  0  0  0  0
 26 28  1  0  0  0  0
 28 29  1  0  0  0  0
 28 60  1  0  0  0  0
 29 30  1  0  0  0  0
 29 35  2  0  0  0  0
 30 31  2  0  0  0  0
 30 61  1  0  0  0  0
 31 32  1  0  0  0  0
 31 62  1  0  0  0  0
 32 33  1  0  0  0  0
 32 34  2  0  0  0  0
 34 35  1  0  0  0  0
 34 63  1  0  0  0  0
 35 64  1  0  0  0  0
 36 37  1  0  0  0  0
 36 65  1  0  0  0  0
 36 66  1  0  0  0  0
 37 67  1  0  0  0  0
 37 68  1  0  0  0  0
 38 39  1  0  0  0  0
 38 69  1  0  0  0  0
 39 40  1  0  0  0  0
M  END
$$$$
