CHEMBL3690477
 OpenBabel04072215373D

 39 41  0  0  0  0  0  0  0  0999 V2000
    4.0919   -2.9541    4.1536 N   0  0  0  0  0  0  0  0  0  0  0  0
    4.6812   -2.2486    3.1308 C   0  0  0  0  0  0  0  0  0  0  0  0
    5.7940   -1.3744    3.4857 C   0  0  0  0  0  0  0  0  0  0  0  0
    6.4533   -0.7004    2.5288 C   0  0  0  0  0  0  0  0  0  0  0  0
    6.0438   -0.7998    1.1952 N   0  0  0  0  0  0  0  0  0  0  0  0
    6.5246   -0.1954    0.0315 C   0  0  0  0  0  0  0  0  0  0  0  0
    7.6107    0.7923   -0.0780 C   0  0  0  0  0  0  0  0  0  0  0  0
    7.7869    1.7701    0.9072 C   0  0  0  0  0  0  0  0  0  0  0  0
    8.8136    2.7029    0.8134 C   0  0  0  0  0  0  0  0  0  0  0  0
    9.6427    2.7105   -0.2999 C   0  0  0  0  0  0  0  0  0  0  0  0
    9.4671    1.7964   -1.3398 C   0  0  0  0  0  0  0  0  0  0  0  0
   10.2355    1.8345   -2.5330 N   0  0  0  0  0  0  0  0  0  0  0  0
   11.2140    2.7643   -2.8262 C   0  0  0  0  0  0  0  0  0  0  0  0
   11.6446    3.6394   -2.0906 O   0  0  0  0  0  0  0  0  0  0  0  0
   11.6668    2.6754   -4.1233 N   0  0  0  0  0  0  0  0  0  0  0  0
   12.7104    3.6289   -4.5375 C   0  0  0  0  0  0  0  0  0  0  0  0
   14.1395    3.3125   -4.0683 C   0  0  0  0  0  0  0  0  0  0  0  0
   14.2259    2.0993   -3.4749 F   0  0  0  0  0  0  0  0  0  0  0  0
   14.9771    3.2835   -5.1366 F   0  0  0  0  0  0  0  0  0  0  0  0
   14.6197    4.2372   -3.2113 F   0  0  0  0  0  0  0  0  0  0  0  0
    8.4555    0.8232   -1.2098 C   0  0  0  0  0  0  0  0  0  0  0  0
    5.7199   -0.7215   -0.9686 C   0  0  0  0  0  0  0  0  0  0  0  0
    4.7765   -1.5844   -0.4824 N   0  0  0  0  0  0  0  0  0  0  0  0
    4.9779   -1.6160    0.8157 C   0  0  0  0  0  0  0  0  0  0  0  0
    4.3033   -2.3471    1.8377 C   0  0  0  0  0  0  0  0  0  0  0  0
    4.1327   -2.4981    5.0605 H   0  0  0  0  0  0  0  0  0  0  0  0
    3.1661   -3.3123    3.9352 H   0  0  0  0  0  0  0  0  0  0  0  0
    6.0955   -1.2965    4.5250 H   0  0  0  0  0  0  0  0  0  0  0  0
    7.3057   -0.0815    2.7655 H   0  0  0  0  0  0  0  0  0  0  0  0
    7.1178    1.8447    1.7591 H   0  0  0  0  0  0  0  0  0  0  0  0
    8.9566    3.4421    1.5963 H   0  0  0  0  0  0  0  0  0  0  0  0
   10.4095    3.4802   -0.3269 H   0  0  0  0  0  0  0  0  0  0  0  0
    9.9892    1.1822   -3.2567 H   0  0  0  0  0  0  0  0  0  0  0  0
   11.6796    1.7620   -4.5479 H   0  0  0  0  0  0  0  0  0  0  0  0
   12.4342    4.6255   -4.1718 H   0  0  0  0  0  0  0  0  0  0  0  0
   12.6772    3.6720   -5.6301 H   0  0  0  0  0  0  0  0  0  0  0  0
    8.3155    0.0887   -1.9986 H   0  0  0  0  0  0  0  0  0  0  0  0
    5.7623   -0.4984   -2.0271 H   0  0  0  0  0  0  0  0  0  0  0  0
    3.4931   -2.9986    1.5327 H   0  0  0  0  0  0  0  0  0  0  0  0
  1  2  1  0  0  0  0
  1 26  1  0  0  0  0
  1 27  1  0  0  0  0
  2  3  1  0  0  0  0
  2 25  2  0  0  0  0
  3  4  2  0  0  0  0
  3 28  1  0  0  0  0
  4  5  1  0  0  0  0
  4 29  1  0  0  0  0
  5  6  1  0  0  0  0
  5 24  1  0  0  0  0
  6  7  1  0  0  0  0
  6 22  2  0  0  0  0
  7  8  1  0  0  0  0
  7 21  2  0  0  0  0
  8  9  2  0  0  0  0
  8 30  1  0  0  0  0
  9 10  1  0  0  0  0
  9 31  1  0  0  0  0
 10 11  2  0  0  0  0
 10 32  1  0  0  0  0
 11 12  1  0  0  0  0
 11 21  1  0  0  0  0
 12 13  1  0  0  0  0
 12 33  1  0  0  0  0
 13 14  2  0  0  0  0
 13 15  1  0  0  0  0
 15 16  1  0  0  0  0
 15 34  1  0  0  0  0
 16 17  1  0  0  0  0
 16 35  1  0  0  0  0
 16 36  1  0  0  0  0
 17 18  1  0  0  0  0
 17 19  1  0  0  0  0
 17 20  1  0  0  0  0
 21 37  1  0  0  0  0
 22 23  1  0  0  0  0
 22 38  1  0  0  0  0
 23 24  2  0  0  0  0
 24 25  1  0  0  0  0
 25 39  1  0  0  0  0
M  END
$$$$
