CHEMBL3920114
 OpenBabel04072215373D

 64 68  0  0  1  0  0  0  0  0999 V2000
    3.5754    4.3900    2.5172 C   0  0  0  0  0  0  0  0  0  0  0  0
    4.3600    3.5635    1.6695 O   0  0  0  0  0  0  0  0  0  0  0  0
    3.7754    2.9461    0.5995 C   0  0  0  0  0  0  0  0  0  0  0  0
    4.6153    2.8665   -0.5205 C   0  0  0  0  0  0  0  0  0  0  0  0
    4.2508    2.1157   -1.6676 C   0  0  0  0  0  0  0  0  0  0  0  0
    5.0284    1.9329   -2.8215 C   0  0  0  0  0  0  0  0  0  0  0  0
    6.3178    2.5280   -2.9062 N   0  0  0  0  0  0  0  0  0  0  0  0
    7.0080    2.7035   -4.1246 C   0  0  0  0  0  0  0  0  0  0  0  0
    6.3513    3.2517   -5.2361 C   0  0  0  0  0  0  0  0  0  0  0  0
    6.9968    3.3693   -6.4663 C   0  0  0  0  0  0  0  0  0  0  0  0
    8.3171    2.9434   -6.5940 C   0  0  0  0  0  0  0  0  0  0  0  0
    9.0428    3.0755   -8.1594 Cl  0  0  0  0  0  0  0  0  0  0  0  0
    8.9941    2.4209   -5.4927 C   0  0  0  0  0  0  0  0  0  0  0  0
   10.6279    1.8679   -5.5879 Cl  0  0  0  0  0  0  0  0  0  0  0  0
    8.3409    2.3103   -4.2544 C   0  0  0  0  0  0  0  0  0  0  0  0
    4.5989    1.1978   -3.8679 N   0  0  0  0  0  0  0  0  0  0  0  0
    3.3963    0.6344   -3.7656 C   0  0  0  0  0  0  0  0  0  0  0  0
    2.5754    0.7464   -2.7237 N   0  0  0  0  0  0  0  0  0  0  0  0
    3.0107    1.4808   -1.7001 C   0  0  0  0  0  0  0  0  0  0  0  0
    2.1800    1.5928   -0.6066 C   0  0  0  0  0  0  0  0  0  0  0  0
    2.5517    2.2697    0.5650 C   0  0  0  0  0  0  0  0  0  0  0  0
    1.7532    2.2383    1.6771 O   0  0  0  0  0  0  0  0  0  0  0  0
    0.8295    1.1421    1.7422 C   0  0  0  0  0  0  0  0  0  0  0  0
    0.3419    0.9587    3.1703 C   0  0  3  0  0  0  0  0  0  0  0  0
    1.5432    0.7862    4.1040 C   0  0  0  0  0  0  0  0  0  0  0  0
    1.0579    0.6050    5.4648 N   0  0  0  0  0  0  0  0  0  0  0  0
    1.2786    1.4633    6.5271 C   0  0  0  0  0  0  0  0  0  0  0  0
    0.7560    1.2666    7.6259 O   0  0  0  0  0  0  0  0  0  0  0  0
    2.1301    2.7103    6.2743 C   0  0  0  0  0  0  0  0  0  0  0  0
    2.7901    3.2551    7.5380 C   0  0  0  0  0  0  0  0  0  0  0  0
    2.9844    4.7456    7.2882 C   0  0  0  0  0  0  0  0  0  0  0  0
    2.0605    5.1263    6.1366 C   0  0  0  0  0  0  0  0  0  0  0  0
    1.2669    3.8742    5.7895 C   0  0  0  0  0  0  0  0  0  0  0  0
    0.1392   -0.5313    5.5941 C   0  0  0  0  0  0  0  0  0  0  0  0
   -0.9972   -0.4256    4.5630 C   0  0  0  0  0  0  0  0  0  0  0  0
   -0.5001   -0.2110    3.2287 O   0  0  0  0  0  0  0  0  0  0  0  0
    4.0494    4.3725    3.5046 H   0  0  0  0  0  0  0  0  0  0  0  0
    2.5401    4.0835    2.6494 H   0  0  0  0  0  0  0  0  0  0  0  0
    3.6015    5.4229    2.1564 H   0  0  0  0  0  0  0  0  0  0  0  0
    5.5708    3.3877   -0.4916 H   0  0  0  0  0  0  0  0  0  0  0  0
    6.8989    2.1727   -2.1557 H   0  0  0  0  0  0  0  0  0  0  0  0
    5.3150    3.5748   -5.1495 H   0  0  0  0  0  0  0  0  0  0  0  0
    6.4528    3.7806   -7.3114 H   0  0  0  0  0  0  0  0  0  0  0  0
    8.8712    1.8780   -3.4092 H   0  0  0  0  0  0  0  0  0  0  0  0
    3.0559    0.0319   -4.5998 H   0  0  0  0  0  0  0  0  0  0  0  0
    1.2221    1.0882   -0.6857 H   0  0  0  0  0  0  0  0  0  0  0  0
    1.3021    0.2039    1.4195 H   0  0  0  0  0  0  0  0  0  0  0  0
   -0.0336    1.3437    1.0966 H   0  0  0  0  0  0  0  0  0  0  0  0
   -0.2454    1.8367    3.4700 H   0  0  0  0  0  0  0  0  0  0  0  0
    2.2233    1.6293    4.0133 H   0  0  0  0  0  0  0  0  0  0  0  0
    2.1043   -0.1201    3.8476 H   0  0  0  0  0  0  0  0  0  0  0  0
    2.9401    2.5056    5.5697 H   0  0  0  0  0  0  0  0  0  0  0  0
    3.7493    2.7564    7.7180 H   0  0  0  0  0  0  0  0  0  0  0  0
    2.1763    3.1018    8.4309 H   0  0  0  0  0  0  0  0  0  0  0  0
    4.0250    4.9619    7.0207 H   0  0  0  0  0  0  0  0  0  0  0  0
    2.7562    5.3200    8.1918 H   0  0  0  0  0  0  0  0  0  0  0  0
    2.6552    5.4537    5.2766 H   0  0  0  0  0  0  0  0  0  0  0  0
    1.4004    5.9578    6.4051 H   0  0  0  0  0  0  0  0  0  0  0  0
    1.0559    3.8206    4.7163 H   0  0  0  0  0  0  0  0  0  0  0  0
    0.2993    3.8916    6.3059 H   0  0  0  0  0  0  0  0  0  0  0  0
   -0.2732   -0.6123    6.6035 H   0  0  0  0  0  0  0  0  0  0  0  0
    0.7317   -1.4322    5.3947 H   0  0  0  0  0  0  0  0  0  0  0  0
   -1.6806    0.3937    4.8117 H   0  0  0  0  0  0  0  0  0  0  0  0
   -1.5764   -1.3547    4.5496 H   0  0  0  0  0  0  0  0  0  0  0  0
  1  2  1  0  0  0  0
  1 37  1  0  0  0  0
  1 38  1  0  0  0  0
  1 39  1  0  0  0  0
  2  3  1  0  0  0  0
  3  4  1  0  0  0  0
  3 21  2  0  0  0  0
  4  5  2  0  0  0  0
  4 40  1  0  0  0  0
  5  6  1  0  0  0  0
  5 19  1  0  0  0  0
  6  7  1  0  0  0  0
  6 16  2  0  0  0  0
  7  8  1  0  0  0  0
  7 41  1  0  0  0  0
  8  9  1  0  0  0  0
  8 15  2  0  0  0  0
  9 10  2  0  0  0  0
  9 42  1  0  0  0  0
 10 11  1  0  0  0  0
 10 43  1  0  0  0  0
 11 12  1  0  0  0  0
 11 13  2  0  0  0  0
 13 14  1  0  0  0  0
 13 15  1  0  0  0  0
 15 44  1  0  0  0  0
 16 17  1  0  0  0  0
 17 18  2  0  0  0  0
 17 45  1  0  0  0  0
 18 19  1  0  0  0  0
 19 20  2  0  0  0  0
 20 21  1  0  0  0  0
 20 46  1  0  0  0  0
 21 22  1  0  0  0  0
 22 23  1  0  0  0  0
 23 24  1  0  0  0  0
 23 47  1  0  0  0  0
 23 48  1  0  0  0  0
 24 25  1  0  0  0  0
 24 36  1  0  0  0  0
 24 49  1  0  0  0  0
 25 26  1  0  0  0  0
 25 50  1  0  0  0  0
 25 51  1  0  0  0  0
 26 27  1  0  0  0  0
 26 34  1  0  0  0  0
 27 28  2  0  0  0  0
 27 29  1  0  0  0  0
 29 30  1  0  0  0  0
 29 33  1  0  0  0  0
 29 52  1  0  0  0  0
 30 31  1  0  0  0  0
 30 53  1  0  0  0  0
 30 54  1  0  0  0  0
 31 32  1  0  0  0  0
 31 55  1  0  0  0  0
 31 56  1  0  0  0  0
 32 33  1  0  0  0  0
 32 57  1  0  0  0  0
 32 58  1  0  0  0  0
 33 59  1  0  0  0  0
 33 60  1  0  0  0  0
 34 35  1  0  0  0  0
 34 61  1  0  0  0  0
 34 62  1  0  0  0  0
 35 36  1  0  0  0  0
 35 63  1  0  0  0  0
 35 64  1  0  0  0  0
M  END
$$$$
