CHEMBL29197
 OpenBabel04072215363D

 36 38  0  0  0  0  0  0  0  0999 V2000
    3.4273   -0.9576    0.8765 C   0  0  0  0  0  0  0  0  0  0  0  0
    2.5912    0.0049    0.2275 O   0  0  0  0  0  0  0  0  0  0  0  0
    3.2315    0.8533   -0.6368 C   0  0  0  0  0  0  0  0  0  0  0  0
    4.3578    0.4324   -1.3685 C   0  0  0  0  0  0  0  0  0  0  0  0
    5.1112    1.3011   -2.1465 C   0  0  0  0  0  0  0  0  0  0  0  0
    6.2200    0.8460   -2.7359 N   0  0  0  0  0  0  0  0  0  0  0  0
    6.9395    1.7368   -3.4259 C   0  0  0  0  0  0  0  0  0  0  0  0
    6.6539    3.0314   -3.5721 N   0  0  0  0  0  0  0  0  0  0  0  0
    5.5359    3.4794   -2.9729 C   0  0  0  0  0  0  0  0  0  0  0  0
    5.2297    4.8694   -3.0322 N   0  0  0  0  0  0  0  0  0  0  0  0
    5.8759    5.7902   -3.8834 C   0  0  0  0  0  0  0  0  0  0  0  0
    6.0480    5.5029   -5.2445 C   0  0  0  0  0  0  0  0  0  0  0  0
    6.7325    6.3815   -6.0840 C   0  0  0  0  0  0  0  0  0  0  0  0
    7.2464    7.5685   -5.5652 C   0  0  0  0  0  0  0  0  0  0  0  0
    7.0547    7.8754   -4.2244 C   0  0  0  0  0  0  0  0  0  0  0  0
    7.7601    9.4859   -3.5223 Br  0  0  0  0  0  0  0  0  0  0  0  0
    6.3609    7.0047   -3.3829 C   0  0  0  0  0  0  0  0  0  0  0  0
    4.6916    2.6268   -2.2482 C   0  0  0  0  0  0  0  0  0  0  0  0
    3.4872    3.0250   -1.6280 C   0  0  0  0  0  0  0  0  0  0  0  0
    2.7580    2.1563   -0.8130 C   0  0  0  0  0  0  0  0  0  0  0  0
    1.6641    2.7759   -0.2824 O   0  0  0  0  0  0  0  0  0  0  0  0
    0.8896    2.1186    0.7042 C   0  0  0  0  0  0  0  0  0  0  0  0
    3.0536   -1.1017    1.8942 H   0  0  0  0  0  0  0  0  0  0  0  0
    4.4741   -0.6412    0.9656 H   0  0  0  0  0  0  0  0  0  0  0  0
    3.3646   -1.9127    0.3457 H   0  0  0  0  0  0  0  0  0  0  0  0
    4.6924   -0.6009   -1.3239 H   0  0  0  0  0  0  0  0  0  0  0  0
    7.8487    1.3810   -3.8978 H   0  0  0  0  0  0  0  0  0  0  0  0
    5.1341    5.2233   -2.0853 H   0  0  0  0  0  0  0  0  0  0  0  0
    5.6555    4.5740   -5.6522 H   0  0  0  0  0  0  0  0  0  0  0  0
    6.8682    6.1304   -7.1294 H   0  0  0  0  0  0  0  0  0  0  0  0
    7.7962    8.2397   -6.2198 H   0  0  0  0  0  0  0  0  0  0  0  0
    6.2330    7.2534   -2.3320 H   0  0  0  0  0  0  0  0  0  0  0  0
    3.1116    4.0377   -1.7667 H   0  0  0  0  0  0  0  0  0  0  0  0
    0.2008    2.8654    1.1155 H   0  0  0  0  0  0  0  0  0  0  0  0
    1.5023    1.7616    1.5354 H   0  0  0  0  0  0  0  0  0  0  0  0
    0.2859    1.3217    0.2611 H   0  0  0  0  0  0  0  0  0  0  0  0
  1  2  1  0  0  0  0
  1 23  1  0  0  0  0
  1 24  1  0  0  0  0
  1 25  1  0  0  0  0
  2  3  1  0  0  0  0
  3  4  1  0  0  0  0
  3 20  2  0  0  0  0
  4  5  2  0  0  0  0
  4 26  1  0  0  0  0
  5  6  1  0  0  0  0
  5 18  1  0  0  0  0
  6  7  2  0  0  0  0
  7  8  1  0  0  0  0
  7 27  1  0  0  0  0
  8  9  2  0  0  0  0
  9 10  1  0  0  0  0
  9 18  1  0  0  0  0
 10 11  1  0  0  0  0
 10 28  1  0  0  0  0
 11 12  1  0  0  0  0
 11 17  2  0  0  0  0
 12 13  2  0  0  0  0
 12 29  1  0  0  0  0
 13 14  1  0  0  0  0
 13 30  1  0  0  0  0
 14 15  2  0  0  0  0
 14 31  1  0  0  0  0
 15 16  1  0  0  0  0
 15 17  1  0  0  0  0
 17 32  1  0  0  0  0
 18 19  2  0  0  0  0
 19 20  1  0  0  0  0
 19 33  1  0  0  0  0
 20 21  1  0  0  0  0
 21 22  1  0  0  0  0
 22 34  1  0  0  0  0
 22 35  1  0  0  0  0
 22 36  1  0  0  0  0
M  END
$$$$
