CHEMBL219996
 OpenBabel04072215363D

 55 58  0  0  0  0  0  0  0  0999 V2000
    6.3620   -1.2156   -4.4698 C   0  0  0  0  0  0  0  0  0  0  0  0
    5.5468   -1.5917   -3.3564 O   0  0  0  0  0  0  0  0  0  0  0  0
    4.5424   -0.7059   -3.0337 C   0  0  0  0  0  0  0  0  0  0  0  0
    4.1376    0.3362   -3.8876 C   0  0  0  0  0  0  0  0  0  0  0  0
    3.1031    1.2014   -3.5316 C   0  0  0  0  0  0  0  0  0  0  0  0
    2.4437    1.0386   -2.3159 C   0  0  0  0  0  0  0  0  0  0  0  0
    1.3053    1.9376   -1.9061 C   0  0  0  0  0  0  0  0  0  0  0  0
    1.0382    2.9147   -2.8180 F   0  0  0  0  0  0  0  0  0  0  0  0
    0.1350    1.2619   -1.7377 F   0  0  0  0  0  0  0  0  0  0  0  0
    1.5423    2.5845   -0.7325 F   0  0  0  0  0  0  0  0  0  0  0  0
    2.8489    0.0029   -1.4636 C   0  0  0  0  0  0  0  0  0  0  0  0
    3.8795   -0.8887   -1.8020 C   0  0  0  0  0  0  0  0  0  0  0  0
    4.2676   -1.9486   -0.9280 N   0  0  0  0  0  0  0  0  0  0  0  0
    3.5277   -2.3859    0.1627 C   0  0  0  0  0  0  0  0  0  0  0  0
    2.4186   -1.9451    0.4895 O   0  0  0  0  0  0  0  0  0  0  0  0
    4.0451   -3.5235    0.9666 C   0  0  0  0  0  0  0  0  0  0  0  0
    5.3906   -3.7733    1.2066 C   0  0  0  0  0  0  0  0  0  0  0  0
    5.7499   -4.8901    1.9776 C   0  0  0  0  0  0  0  0  0  0  0  0
    4.7773   -5.7404    2.5528 C   0  0  0  0  0  0  0  0  0  0  0  0
    5.2257   -6.9820    3.2714 C   0  0  0  0  0  0  0  0  0  0  0  0
    3.4240   -5.3826    2.4599 C   0  0  0  0  0  0  0  0  0  0  0  0
    2.3847   -6.0998    3.1362 N   0  0  0  0  0  0  0  0  0  0  0  0
    1.1657   -5.4372    3.5033 C   0  0  0  0  0  0  0  0  0  0  0  0
    1.2835   -4.1398    3.9077 N   0  0  0  0  0  0  0  0  0  0  0  0
    0.1800   -3.3859    4.0494 C   0  0  0  0  0  0  0  0  0  0  0  0
   -1.0891   -3.8770    3.8703 C   0  0  0  0  0  0  0  0  0  0  0  0
   -1.2214   -5.2287    3.5696 C   0  0  0  0  0  0  0  0  0  0  0  0
   -0.0949   -6.0685    3.3926 C   0  0  0  0  0  0  0  0  0  0  0  0
   -0.2913   -7.4900    3.0166 C   0  0  0  0  0  0  0  0  0  0  0  0
   -1.4432   -8.1997    3.3324 C   0  0  0  0  0  0  0  0  0  0  0  0
   -1.5424   -9.4850    2.8498 C   0  0  0  0  0  0  0  0  0  0  0  0
   -0.5787  -10.0776    2.1306 N   0  0  0  0  0  0  0  0  0  0  0  0
    0.5088   -9.3310    1.9017 C   0  0  0  0  0  0  0  0  0  0  0  0
    0.7052   -8.0643    2.3015 N   0  0  0  0  0  0  0  0  0  0  0  0
    3.0877   -4.3313    1.5905 C   0  0  0  0  0  0  0  0  0  0  0  0
    7.1698   -1.9448   -4.5733 H   0  0  0  0  0  0  0  0  0  0  0  0
    6.8180   -0.2330   -4.3012 H   0  0  0  0  0  0  0  0  0  0  0  0
    5.7943   -1.2259   -5.4083 H   0  0  0  0  0  0  0  0  0  0  0  0
    4.5985    0.5020   -4.8563 H   0  0  0  0  0  0  0  0  0  0  0  0
    2.8153    2.0001   -4.2135 H   0  0  0  0  0  0  0  0  0  0  0  0
    2.3303   -0.0707   -0.5119 H   0  0  0  0  0  0  0  0  0  0  0  0
    5.0706   -2.4881   -1.2280 H   0  0  0  0  0  0  0  0  0  0  0  0
    6.1631   -3.1109    0.8297 H   0  0  0  0  0  0  0  0  0  0  0  0
    6.8069   -5.0924    2.1441 H   0  0  0  0  0  0  0  0  0  0  0  0
    6.2845   -7.1879    3.0718 H   0  0  0  0  0  0  0  0  0  0  0  0
    4.6682   -7.8513    2.9056 H   0  0  0  0  0  0  0  0  0  0  0  0
    5.0948   -6.8876    4.3523 H   0  0  0  0  0  0  0  0  0  0  0  0
    2.1185   -6.9053    2.5609 H   0  0  0  0  0  0  0  0  0  0  0  0
    0.3589   -2.3409    4.2847 H   0  0  0  0  0  0  0  0  0  0  0  0
   -1.9532   -3.2269    3.9484 H   0  0  0  0  0  0  0  0  0  0  0  0
   -2.2303   -5.6047    3.4189 H   0  0  0  0  0  0  0  0  0  0  0  0
   -2.2469   -7.7851    3.9255 H   0  0  0  0  0  0  0  0  0  0  0  0
   -2.4281  -10.0875    3.0332 H   0  0  0  0  0  0  0  0  0  0  0  0
    1.3109   -9.7968    1.3375 H   0  0  0  0  0  0  0  0  0  0  0  0
    2.0351   -4.0984    1.4265 H   0  0  0  0  0  0  0  0  0  0  0  0
  1  2  1  0  0  0  0
  1 36  1  0  0  0  0
  1 37  1  0  0  0  0
  1 38  1  0  0  0  0
  2  3  1  0  0  0  0
  3  4  1  0  0  0  0
  3 12  2  0  0  0  0
  4  5  2  0  0  0  0
  4 39  1  0  0  0  0
  5  6  1  0  0  0  0
  5 40  1  0  0  0  0
  6  7  1  0  0  0  0
  6 11  2  0  0  0  0
  7  8  1  0  0  0  0
  7  9  1  0  0  0  0
  7 10  1  0  0  0  0
 11 12  1  0  0  0  0
 11 41  1  0  0  0  0
 12 13  1  0  0  0  0
 13 14  1  0  0  0  0
 13 42  1  0  0  0  0
 14 15  2  0  0  0  0
 14 16  1  0  0  0  0
 16 17  1  0  0  0  0
 16 35  2  0  0  0  0
 17 18  2  0  0  0  0
 17 43  1  0  0  0  0
 18 19  1  0  0  0  0
 18 44  1  0  0  0  0
 19 20  1  0  0  0  0
 19 21  2  0  0  0  0
 20 45  1  0  0  0  0
 20 46  1  0  0  0  0
 20 47  1  0  0  0  0
 21 22  1  0  0  0  0
 21 35  1  0  0  0  0
 22 23  1  0  0  0  0
 22 48  1  0  0  0  0
 23 24  1  0  0  0  0
 23 28  2  0  0  0  0
 24 25  2  0  0  0  0
 25 26  1  0  0  0  0
 25 49  1  0  0  0  0
 26 27  2  0  0  0  0
 26 50  1  0  0  0  0
 27 28  1  0  0  0  0
 27 51  1  0  0  0  0
 28 29  1  0  0  0  0
 29 30  1  0  0  0  0
 29 34  2  0  0  0  0
 30 31  2  0  0  0  0
 30 52  1  0  0  0  0
 31 32  1  0  0  0  0
 31 53  1  0  0  0  0
 32 33  2  0  0  0  0
 33 34  1  0  0  0  0
 33 54  1  0  0  0  0
 35 55  1  0  0  0  0
M  END
$$$$
