CHEMBL3985264
 OpenBabel04072215373D

 54 56  0  0  0  0  0  0  0  0999 V2000
    3.3570    5.4497    1.8570 C   0  0  0  0  0  0  0  0  0  0  0  0
    1.9947    5.9817    1.5107 C   0  0  0  0  0  0  0  0  0  0  0  0
    1.7455    7.3523    1.6238 C   0  0  0  0  0  0  0  0  0  0  0  0
    0.5022    7.8607    1.2736 C   0  0  0  0  0  0  0  0  0  0  0  0
   -0.5050    7.0089    0.8265 C   0  0  0  0  0  0  0  0  0  0  0  0
   -1.6172    7.6083    0.3878 F   0  0  0  0  0  0  0  0  0  0  0  0
   -0.3184    5.6204    0.7572 C   0  0  0  0  0  0  0  0  0  0  0  0
   -1.3270    4.6830    0.3888 N   0  0  0  0  0  0  0  0  0  0  0  0
   -2.6949    4.9269    0.3629 C   0  0  0  0  0  0  0  0  0  0  0  0
   -3.2436    5.9814    0.6546 O   0  0  0  0  0  0  0  0  0  0  0  0
   -3.4249    3.7824    0.0452 N   0  0  0  0  0  0  0  0  0  0  0  0
   -4.8445    3.8400   -0.0136 C   0  0  0  0  0  0  0  0  0  0  0  0
   -5.5776    2.8862    0.6971 C   0  0  0  0  0  0  0  0  0  0  0  0
   -6.9724    2.9454    0.7122 C   0  0  0  0  0  0  0  0  0  0  0  0
   -7.6404    3.9350   -0.0117 C   0  0  0  0  0  0  0  0  0  0  0  0
   -6.9192    4.8875   -0.7393 C   0  0  0  0  0  0  0  0  0  0  0  0
   -7.6411    5.8926   -1.4808 C   0  0  0  0  0  0  0  0  0  0  0  0
   -8.3259    6.6596   -2.1039 C   0  0  0  0  0  0  0  0  0  0  0  0
   -9.2152    7.4673   -2.8805 C   0  0  0  0  0  0  0  0  0  0  0  0
  -10.4737    7.8172   -2.4051 C   0  0  0  0  0  0  0  0  0  0  0  0
  -11.3939    8.4994   -3.1320 N   0  0  0  0  0  0  0  0  0  0  0  0
  -11.0468    8.8201   -4.4069 C   0  0  0  0  0  0  0  0  0  0  0  0
   -9.8199    8.5050   -4.9755 C   0  0  0  0  0  0  0  0  0  0  0  0
   -9.5389    8.8065   -6.4062 C   0  0  0  0  0  0  0  0  0  0  0  0
   -8.5306    8.3045   -6.8945 O   0  0  0  0  0  0  0  0  0  0  0  0
  -10.3554    9.6962   -7.1231 N   0  0  0  0  0  0  0  0  0  0  0  0
  -10.5804    9.5288   -8.6386 S   0  0  0  0  0  0  0  0  0  0  0  0
   -9.2214   10.2680   -9.5203 C   0  0  0  0  0  0  0  0  0  0  0  0
  -11.9162   10.6275   -9.0530 C   0  0  0  0  0  0  0  0  0  0  0  0
  -10.8829    8.2673   -9.2863 O   0  0  0  0  0  0  0  0  0  0  0  0
   -8.8789    7.8380   -4.1812 C   0  0  0  0  0  0  0  0  0  0  0  0
   -5.5202    4.8354   -0.7406 C   0  0  0  0  0  0  0  0  0  0  0  0
    0.9604    5.1218    1.0783 C   0  0  0  0  0  0  0  0  0  0  0  0
    4.0359    6.2591    2.1521 H   0  0  0  0  0  0  0  0  0  0  0  0
    3.8022    4.9494    0.9917 H   0  0  0  0  0  0  0  0  0  0  0  0
    3.2940    4.7501    2.6956 H   0  0  0  0  0  0  0  0  0  0  0  0
    2.5191    8.0367    1.9651 H   0  0  0  0  0  0  0  0  0  0  0  0
    0.3016    8.9262    1.3254 H   0  0  0  0  0  0  0  0  0  0  0  0
   -1.0304    3.7310    0.2359 H   0  0  0  0  0  0  0  0  0  0  0  0
   -3.0412    2.9320    0.4298 H   0  0  0  0  0  0  0  0  0  0  0  0
   -5.0778    2.1323    1.2987 H   0  0  0  0  0  0  0  0  0  0  0  0
   -7.5412    2.2324    1.3037 H   0  0  0  0  0  0  0  0  0  0  0  0
   -8.7275    3.9643    0.0025 H   0  0  0  0  0  0  0  0  0  0  0  0
  -10.8024    7.5354   -1.4072 H   0  0  0  0  0  0  0  0  0  0  0  0
  -11.8241    9.3309   -4.9703 H   0  0  0  0  0  0  0  0  0  0  0  0
   -8.9419   11.2074   -9.0400 H   0  0  0  0  0  0  0  0  0  0  0  0
   -9.5408   10.4578  -10.5488 H   0  0  0  0  0  0  0  0  0  0  0  0
   -8.3809    9.5720   -9.5282 H   0  0  0  0  0  0  0  0  0  0  0  0
  -11.7335   11.6034   -8.5991 H   0  0  0  0  0  0  0  0  0  0  0  0
  -12.8428   10.1947   -8.6697 H   0  0  0  0  0  0  0  0  0  0  0  0
  -11.9741   10.7173  -10.1394 H   0  0  0  0  0  0  0  0  0  0  0  0
   -7.9005    7.5861   -4.5837 H   0  0  0  0  0  0  0  0  0  0  0  0
   -4.9542    5.5724   -1.3072 H   0  0  0  0  0  0  0  0  0  0  0  0
    1.1665    4.0554    1.0143 H   0  0  0  0  0  0  0  0  0  0  0  0
  1  2  1  0  0  0  0
  1 34  1  0  0  0  0
  1 35  1  0  0  0  0
  1 36  1  0  0  0  0
  2  3  1  0  0  0  0
  2 33  2  0  0  0  0
  3  4  2  0  0  0  0
  3 37  1  0  0  0  0
  4  5  1  0  0  0  0
  4 38  1  0  0  0  0
  5  6  1  0  0  0  0
  5  7  2  0  0  0  0
  7  8  1  0  0  0  0
  7 33  1  0  0  0  0
  8  9  1  0  0  0  0
  8 39  1  0  0  0  0
  9 10  2  0  0  0  0
  9 11  1  0  0  0  0
 11 12  1  0  0  0  0
 11 40  1  0  0  0  0
 12 13  1  0  0  0  0
 12 32  2  0  0  0  0
 13 14  2  0  0  0  0
 13 41  1  0  0  0  0
 14 15  1  0  0  0  0
 14 42  1  0  0  0  0
 15 16  2  0  0  0  0
 15 43  1  0  0  0  0
 16 17  1  0  0  0  0
 16 32  1  0  0  0  0
 17 18  3  0  0  0  0
 18 19  1  0  0  0  0
 19 20  1  0  0  0  0
 19 31  2  0  0  0  0
 20 21  2  0  0  0  0
 20 44  1  0  0  0  0
 21 22  1  0  0  0  0
 22 23  2  0  0  0  0
 22 45  1  0  0  0  0
 23 24  1  0  0  0  0
 23 31  1  0  0  0  0
 24 25  2  0  0  0  0
 24 26  1  0  0  0  0
 26 27  2  0  0  0  0
 27 28  1  0  0  0  0
 27 29  1  0  0  0  0
 27 30  2  0  0  0  0
 28 46  1  0  0  0  0
 28 47  1  0  0  0  0
 28 48  1  0  0  0  0
 29 49  1  0  0  0  0
 29 50  1  0  0  0  0
 29 51  1  0  0  0  0
 31 52  1  0  0  0  0
 32 53  1  0  0  0  0
 33 54  1  0  0  0  0
M  END
$$$$
