CHEMBL3919150
 OpenBabel04072215373D

 55 59  0  0  0  0  0  0  0  0999 V2000
    5.6898   -2.3397    1.7922 O   0  0  0  0  0  0  0  0  0  0  0  0
    5.2737   -1.7236    0.8160 C   0  0  0  0  0  0  0  0  0  0  0  0
    4.0648   -1.9217    0.1735 N   0  0  0  0  0  0  0  0  0  0  0  0
    3.0619   -2.8332    0.5843 C   0  0  0  0  0  0  0  0  0  0  0  0
    3.0597   -3.4456    1.8406 C   0  0  0  0  0  0  0  0  0  0  0  0
    2.0686   -4.3637    2.2014 C   0  0  0  0  0  0  0  0  0  0  0  0
    2.1259   -4.9793    3.4665 N   0  0  0  0  0  0  0  0  0  0  0  0
    1.6503   -6.2530    3.8262 C   0  0  0  0  0  0  0  0  0  0  0  0
    1.6878   -7.3258    2.9261 C   0  0  0  0  0  0  0  0  0  0  0  0
    1.0961   -8.5571    3.2272 C   0  0  0  0  0  0  0  0  0  0  0  0
    0.4482   -8.7100    4.4659 C   0  0  0  0  0  0  0  0  0  0  0  0
   -0.3130   -9.7285    5.1140 C   0  0  0  0  0  0  0  0  0  0  0  0
   -0.6328  -11.0024    4.5351 C   0  0  0  0  0  0  0  0  0  0  0  0
   -1.3561  -11.9528    5.1522 C   0  0  0  0  0  0  0  0  0  0  0  0
   -1.6731  -13.2809    4.6079 C   0  0  0  0  0  0  0  0  0  0  0  0
   -0.8344  -13.9515    3.7078 C   0  0  0  0  0  0  0  0  0  0  0  0
   -1.1414  -15.2451    3.2764 C   0  0  0  0  0  0  0  0  0  0  0  0
   -2.2847  -15.8865    3.7474 C   0  0  0  0  0  0  0  0  0  0  0  0
   -3.1239  -15.2344    4.6472 C   0  0  0  0  0  0  0  0  0  0  0  0
   -2.8179  -13.9406    5.0764 C   0  0  0  0  0  0  0  0  0  0  0  0
   -0.7031   -9.3396    6.3374 N   0  0  0  0  0  0  0  0  0  0  0  0
   -0.2070   -8.1017    6.4627 N   0  0  0  0  0  0  0  0  0  0  0  0
    0.4798   -7.6546    5.3698 C   0  0  0  0  0  0  0  0  0  0  0  0
    1.0901   -6.4261    5.0981 C   0  0  0  0  0  0  0  0  0  0  0  0
    1.0442   -4.6407    1.2844 C   0  0  0  0  0  0  0  0  0  0  0  0
    1.0221   -4.0307    0.0306 C   0  0  0  0  0  0  0  0  0  0  0  0
    2.0265   -3.1310   -0.3073 C   0  0  0  0  0  0  0  0  0  0  0  0
    2.0036   -2.5575   -1.5211 F   0  0  0  0  0  0  0  0  0  0  0  0
    6.1695   -0.7101    0.2217 C   0  0  0  0  0  0  0  0  0  0  0  0
    7.5415   -0.9882    0.2111 C   0  0  0  0  0  0  0  0  0  0  0  0
    8.4419   -0.0436   -0.2737 C   0  0  0  0  0  0  0  0  0  0  0  0
    7.9731    1.1843   -0.7387 C   0  0  0  0  0  0  0  0  0  0  0  0
    6.6060    1.4697   -0.7179 C   0  0  0  0  0  0  0  0  0  0  0  0
    5.6960    0.5224   -0.2388 C   0  0  0  0  0  0  0  0  0  0  0  0
    3.9229   -1.4918   -0.7354 H   0  0  0  0  0  0  0  0  0  0  0  0
    3.8324   -3.2247    2.5684 H   0  0  0  0  0  0  0  0  0  0  0  0
    2.8457   -4.6264    4.0897 H   0  0  0  0  0  0  0  0  0  0  0  0
    2.1795   -7.2063    1.9627 H   0  0  0  0  0  0  0  0  0  0  0  0
    1.1198   -9.3598    2.4976 H   0  0  0  0  0  0  0  0  0  0  0  0
   -0.2604  -11.1842    3.5322 H   0  0  0  0  0  0  0  0  0  0  0  0
   -1.7504  -11.7485    6.1467 H   0  0  0  0  0  0  0  0  0  0  0  0
    0.0804  -13.4894    3.3471 H   0  0  0  0  0  0  0  0  0  0  0  0
   -0.4783  -15.7559    2.5831 H   0  0  0  0  0  0  0  0  0  0  0  0
   -2.5163  -16.8966    3.4206 H   0  0  0  0  0  0  0  0  0  0  0  0
   -4.0125  -15.7340    5.0238 H   0  0  0  0  0  0  0  0  0  0  0  0
   -3.4819  -13.4518    5.7865 H   0  0  0  0  0  0  0  0  0  0  0  0
   -0.3896   -7.5975    7.3229 H   0  0  0  0  0  0  0  0  0  0  0  0
    1.0617   -5.6104    5.8131 H   0  0  0  0  0  0  0  0  0  0  0  0
    0.2441   -5.3273    1.5518 H   0  0  0  0  0  0  0  0  0  0  0  0
    0.2309   -4.2582   -0.6760 H   0  0  0  0  0  0  0  0  0  0  0  0
    7.9077   -1.9390    0.5958 H   0  0  0  0  0  0  0  0  0  0  0  0
    9.5062   -0.2625   -0.2720 H   0  0  0  0  0  0  0  0  0  0  0  0
    8.6790    1.9277   -1.0991 H   0  0  0  0  0  0  0  0  0  0  0  0
    6.2529    2.4409   -1.0549 H   0  0  0  0  0  0  0  0  0  0  0  0
    4.6406    0.7739   -0.1868 H   0  0  0  0  0  0  0  0  0  0  0  0
  1  2  2  0  0  0  0
  2  3  1  0  0  0  0
  2 29  1  0  0  0  0
  3  4  1  0  0  0  0
  3 35  1  0  0  0  0
  4  5  1  0  0  0  0
  4 27  2  0  0  0  0
  5  6  2  0  0  0  0
  5 36  1  0  0  0  0
  6  7  1  0  0  0  0
  6 25  1  0  0  0  0
  7  8  1  0  0  0  0
  7 37  1  0  0  0  0
  8  9  1  0  0  0  0
  8 24  2  0  0  0  0
  9 10  2  0  0  0  0
  9 38  1  0  0  0  0
 10 11  1  0  0  0  0
 10 39  1  0  0  0  0
 11 12  1  0  0  0  0
 11 23  2  0  0  0  0
 12 13  1  0  0  0  0
 12 21  2  0  0  0  0
 13 14  2  0  0  0  0
 13 40  1  0  0  0  0
 14 15  1  0  0  0  0
 14 41  1  0  0  0  0
 15 16  1  0  0  0  0
 15 20  2  0  0  0  0
 16 17  2  0  0  0  0
 16 42  1  0  0  0  0
 17 18  1  0  0  0  0
 17 43  1  0  0  0  0
 18 19  2  0  0  0  0
 18 44  1  0  0  0  0
 19 20  1  0  0  0  0
 19 45  1  0  0  0  0
 20 46  1  0  0  0  0
 21 22  1  0  0  0  0
 22 23  1  0  0  0  0
 22 47  1  0  0  0  0
 23 24  1  0  0  0  0
 24 48  1  0  0  0  0
 25 26  2  0  0  0  0
 25 49  1  0  0  0  0
 26 27  1  0  0  0  0
 26 50  1  0  0  0  0
 27 28  1  0  0  0  0
 29 30  1  0  0  0  0
 29 34  2  0  0  0  0
 30 31  2  0  0  0  0
 30 51  1  0  0  0  0
 31 32  1  0  0  0  0
 31 52  1  0  0  0  0
 32 33  2  0  0  0  0
 32 53  1  0  0  0  0
 33 34  1  0  0  0  0
 33 54  1  0  0  0  0
 34 55  1  0  0  0  0
M  END
$$$$
