CHEMBL428433
 OpenBabel04072215383D

 66 71  0  0  0  0  0  0  0  0999 V2000
    1.0188   -1.4745   -0.0708 C   0  0  0  0  0  0  0  0  0  0  0  0
    2.5228   -1.6028   -0.2178 C   0  0  0  0  0  0  0  0  0  0  0  0
    2.8710   -1.0205   -1.4510 O   0  0  0  0  0  0  0  0  0  0  0  0
    4.2452   -1.1975   -1.6070 N   0  0  0  0  0  0  0  0  0  0  0  0
    4.6799   -0.6313   -2.6934 C   0  0  0  0  0  0  0  0  0  0  0  0
    3.7920   -0.0012   -3.7470 C   0  0  0  0  0  0  0  0  0  0  0  0
    6.1624   -0.6573   -2.9653 C   0  0  0  0  0  0  0  0  0  0  0  0
    7.0208   -1.2162   -2.0276 C   0  0  0  0  0  0  0  0  0  0  0  0
    8.4056   -1.1677   -2.1618 C   0  0  0  0  0  0  0  0  0  0  0  0
    8.9514   -0.6475   -3.3396 C   0  0  0  0  0  0  0  0  0  0  0  0
    8.1190   -0.2221   -4.3972 C   0  0  0  0  0  0  0  0  0  0  0  0
    6.7233   -0.1479   -4.1718 C   0  0  0  0  0  0  0  0  0  0  0  0
    9.0400   -0.0352   -5.4215 C   0  0  0  0  0  0  0  0  0  0  0  0
    8.8660    0.3282   -6.7672 C   0  0  0  0  0  0  0  0  0  0  0  0
   10.1574    0.3823   -7.6211 C   0  0  0  0  0  0  0  0  0  0  0  0
   11.5071    0.1190   -6.9668 C   0  0  0  0  0  0  0  0  0  0  0  0
   11.1970    0.8638   -5.7889 C   0  0  0  0  0  0  0  0  0  0  0  0
   10.2837    0.2011   -4.9556 C   0  0  0  0  0  0  0  0  0  0  0  0
   10.2724   -0.5120   -3.7612 N   0  0  0  0  0  0  0  0  0  0  0  0
   11.4449   -1.1747   -3.2148 C   0  0  0  0  0  0  0  0  0  0  0  0
   11.4104   -2.4710   -2.4146 C   0  0  0  0  0  0  0  0  0  0  0  0
   10.7373   -3.5962   -3.1860 C   0  0  0  0  0  0  0  0  0  0  0  0
   12.8667   -2.8631   -2.0951 C   0  0  0  0  0  0  0  0  0  0  0  0
   12.1486    1.9948   -5.4847 C   0  0  0  0  0  0  0  0  0  0  0  0
   13.0432    1.2324   -4.6104 C   0  0  0  0  0  0  0  0  0  0  0  0
   13.7465    0.4625   -5.5659 C   0  0  0  0  0  0  0  0  0  0  0  0
   14.9353    0.1147   -5.1665 N   0  0  0  0  0  0  0  0  0  0  0  0
   15.5063   -0.1325   -6.3225 N   0  0  0  0  0  0  0  0  0  0  0  0
   16.9268    0.1356   -6.1828 C   0  0  0  0  0  0  0  0  0  0  0  0
   14.4979   -0.6435   -7.2147 C   0  0  0  0  0  0  0  0  0  0  0  0
   13.2195   -0.0019   -6.8799 C   0  0  0  0  0  0  0  0  0  0  0  0
    9.7140    1.2848   -8.7063 C   0  0  0  0  0  0  0  0  0  0  0  0
   10.2550    1.8766   -9.6099 O   0  0  0  0  0  0  0  0  0  0  0  0
    8.2502    1.4423   -8.5909 N   0  0  0  0  0  0  0  0  0  0  0  0
    7.7192    1.0523   -7.2896 C   0  0  0  0  0  0  0  0  0  0  0  0
    0.6678   -1.9118    0.8696 H   0  0  0  0  0  0  0  0  0  0  0  0
    0.5153   -1.9784   -0.9029 H   0  0  0  0  0  0  0  0  0  0  0  0
    0.7183   -0.4236   -0.1081 H   0  0  0  0  0  0  0  0  0  0  0  0
    2.8107   -2.6595   -0.1867 H   0  0  0  0  0  0  0  0  0  0  0  0
    3.0219   -1.0709    0.6131 H   0  0  0  0  0  0  0  0  0  0  0  0
    2.7277   -0.0843   -3.5139 H   0  0  0  0  0  0  0  0  0  0  0  0
    3.9500   -0.5083   -4.7107 H   0  0  0  0  0  0  0  0  0  0  0  0
    4.0475    1.0546   -3.8583 H   0  0  0  0  0  0  0  0  0  0  0  0
    6.6107   -1.6514   -1.1166 H   0  0  0  0  0  0  0  0  0  0  0  0
    9.0191   -1.5686   -1.3660 H   0  0  0  0  0  0  0  0  0  0  0  0
    6.0997    0.3244   -4.9234 H   0  0  0  0  0  0  0  0  0  0  0  0
   11.9281   -0.4252   -2.5785 H   0  0  0  0  0  0  0  0  0  0  0  0
   12.0589   -1.4170   -4.0922 H   0  0  0  0  0  0  0  0  0  0  0  0
   10.9127   -2.2959   -1.4592 H   0  0  0  0  0  0  0  0  0  0  0  0
   11.3739   -3.9504   -4.0036 H   0  0  0  0  0  0  0  0  0  0  0  0
    9.7879   -3.2854   -3.6272 H   0  0  0  0  0  0  0  0  0  0  0  0
   10.5375   -4.4387   -2.5186 H   0  0  0  0  0  0  0  0  0  0  0  0
   13.4064   -3.1673   -3.0002 H   0  0  0  0  0  0  0  0  0  0  0  0
   12.8952   -3.6967   -1.3873 H   0  0  0  0  0  0  0  0  0  0  0  0
   13.4201   -2.0254   -1.6540 H   0  0  0  0  0  0  0  0  0  0  0  0
   11.7487    2.9038   -5.0676 H   0  0  0  0  0  0  0  0  0  0  0  0
   12.6433    2.3177   -6.4344 H   0  0  0  0  0  0  0  0  0  0  0  0
   12.5618    0.4862   -4.0340 H   0  0  0  0  0  0  0  0  0  0  0  0
   13.6415    1.7745   -3.8904 H   0  0  0  0  0  0  0  0  0  0  0  0
   17.0528    1.2321   -6.0145 H   0  0  0  0  0  0  0  0  0  0  0  0
   17.5644   -0.1807   -7.0010 H   0  0  0  0  0  0  0  0  0  0  0  0
   17.2613   -0.3017   -5.2267 H   0  0  0  0  0  0  0  0  0  0  0  0
   14.8121   -1.4884   -7.8253 H   0  0  0  0  0  0  0  0  0  0  0  0
    7.7865    2.1867   -9.0706 H   0  0  0  0  0  0  0  0  0  0  0  0
    6.7703    0.4817   -7.3455 H   0  0  0  0  0  0  0  0  0  0  0  0
    7.5178    1.9518   -6.6617 H   0  0  0  0  0  0  0  0  0  0  0  0
  1  2  1  0  0  0  0
  1 36  1  0  0  0  0
  1 37  1  0  0  0  0
  1 38  1  0  0  0  0
  2  3  1  0  0  0  0
  2 39  1  0  0  0  0
  2 40  1  0  0  0  0
  3  4  1  0  0  0  0
  4  5  2  0  0  0  0
  5  6  1  0  0  0  0
  5  7  1  0  0  0  0
  6 41  1  0  0  0  0
  6 42  1  0  0  0  0
  6 43  1  0  0  0  0
  7  8  1  0  0  0  0
  7 12  2  0  0  0  0
  8  9  2  0  0  0  0
  8 44  1  0  0  0  0
  9 10  1  0  0  0  0
  9 45  1  0  0  0  0
 10 11  2  0  0  0  0
 10 19  1  0  0  0  0
 11 12  1  0  0  0  0
 11 13  1  0  0  0  0
 12 46  1  0  0  0  0
 13 14  1  0  0  0  0
 13 18  2  0  0  0  0
 14 15  2  0  0  0  0
 14 35  1  0  0  0  0
 15 16  1  0  0  0  0
 15 32  1  0  0  0  0
 16 17  2  0  0  0  0
 16 31  1  0  0  0  0
 17 18  1  0  0  0  0
 17 24  1  0  0  0  0
 18 19  1  0  0  0  0
 19 20  1  0  0  0  0
 20 21  1  0  0  0  0
 20 47  1  0  0  0  0
 20 48  1  0  0  0  0
 21 22  1  0  0  0  0
 21 23  1  0  0  0  0
 21 49  1  0  0  0  0
 22 50  1  0  0  0  0
 22 51  1  0  0  0  0
 22 52  1  0  0  0  0
 23 53  1  0  0  0  0
 23 54  1  0  0  0  0
 23 55  1  0  0  0  0
 24 25  1  0  0  0  0
 24 56  1  0  0  0  0
 24 57  1  0  0  0  0
 25 26  1  0  0  0  0
 25 58  1  0  0  0  0
 25 59  1  0  0  0  0
 26 27  2  0  0  0  0
 26 31  1  0  0  0  0
 27 28  1  0  0  0  0
 28 29  1  0  0  0  0
 28 30  1  0  0  0  0
 29 60  1  0  0  0  0
 29 61  1  0  0  0  0
 29 62  1  0  0  0  0
 30 31  2  0  0  0  0
 30 63  1  0  0  0  0
 32 33  2  0  0  0  0
 32 34  1  0  0  0  0
 34 35  1  0  0  0  0
 34 64  1  0  0  0  0
 35 65  1  0  0  0  0
 35 66  1  0  0  0  0
M  END
$$$$
