CHEMBL3952048
 OpenBabel04072215373D

 46 49  0  0  0  0  0  0  0  0999 V2000
    3.7490    0.3318   -1.1924 C   0  0  0  0  0  0  0  0  0  0  0  0
    2.8073   -0.2957   -0.3180 O   0  0  0  0  0  0  0  0  0  0  0  0
    3.3389   -0.8195    0.8288 C   0  0  0  0  0  0  0  0  0  0  0  0
    4.4523   -0.2322    1.4427 C   0  0  0  0  0  0  0  0  0  0  0  0
    5.1271   -0.8526    2.5152 C   0  0  0  0  0  0  0  0  0  0  0  0
    6.2867   -0.3291    3.1188 C   0  0  0  0  0  0  0  0  0  0  0  0
    6.7024    0.9725    2.7400 N   0  0  0  0  0  0  0  0  0  0  0  0
    7.9823    1.5543    2.6789 C   0  0  0  0  0  0  0  0  0  0  0  0
    8.0811    2.9214    2.3927 C   0  0  0  0  0  0  0  0  0  0  0  0
    9.3172    3.5202    2.1340 C   0  0  0  0  0  0  0  0  0  0  0  0
   10.4825    2.7513    2.1459 C   0  0  0  0  0  0  0  0  0  0  0  0
   11.9669    3.5360    1.7517 Cl  0  0  0  0  0  0  0  0  0  0  0  0
   10.4018    1.3880    2.4357 C   0  0  0  0  0  0  0  0  0  0  0  0
   11.7976    0.3664    2.4574 Cl  0  0  0  0  0  0  0  0  0  0  0  0
    9.1582    0.7942    2.6930 C   0  0  0  0  0  0  0  0  0  0  0  0
    6.9839   -1.0159    4.0351 N   0  0  0  0  0  0  0  0  0  0  0  0
    6.4814   -2.2057    4.3898 C   0  0  0  0  0  0  0  0  0  0  0  0
    5.3461   -2.7582    3.9333 N   0  0  0  0  0  0  0  0  0  0  0  0
    4.6726   -2.0809    2.9895 C   0  0  0  0  0  0  0  0  0  0  0  0
    3.4997   -2.6000    2.4429 C   0  0  0  0  0  0  0  0  0  0  0  0
    2.7988   -1.9732    1.3914 C   0  0  0  0  0  0  0  0  0  0  0  0
    1.6842   -2.6603    0.9918 O   0  0  0  0  0  0  0  0  0  0  0  0
    0.6058   -2.0003    0.3220 C   0  0  0  0  0  0  0  0  0  0  0  0
   -0.1740   -1.0415    1.2240 C   0  0  0  0  0  0  0  0  0  0  0  0
   -1.6517   -1.1854    0.8639 C   0  0  0  0  0  0  0  0  0  0  0  0
   -1.7698   -2.3713   -0.0814 C   0  0  0  0  0  0  0  0  0  0  0  0
   -0.4233   -3.0721   -0.0488 C   0  0  0  0  0  0  0  0  0  0  0  0
    3.3466    0.3017   -2.2084 H   0  0  0  0  0  0  0  0  0  0  0  0
    4.7188   -0.1821   -1.2092 H   0  0  0  0  0  0  0  0  0  0  0  0
    3.8761    1.3811   -0.9072 H   0  0  0  0  0  0  0  0  0  0  0  0
    4.8534    0.6962    1.0473 H   0  0  0  0  0  0  0  0  0  0  0  0
    5.9607    1.6406    2.9244 H   0  0  0  0  0  0  0  0  0  0  0  0
    7.1828    3.5416    2.3435 H   0  0  0  0  0  0  0  0  0  0  0  0
    9.3615    4.5835    1.9036 H   0  0  0  0  0  0  0  0  0  0  0  0
    9.1153   -0.2739    2.8826 H   0  0  0  0  0  0  0  0  0  0  0  0
    7.0482   -2.7769    5.1161 H   0  0  0  0  0  0  0  0  0  0  0  0
    3.1165   -3.5388    2.8414 H   0  0  0  0  0  0  0  0  0  0  0  0
    0.9244   -1.5206   -0.6070 H   0  0  0  0  0  0  0  0  0  0  0  0
    0.1557   -0.0073    1.0700 H   0  0  0  0  0  0  0  0  0  0  0  0
   -0.0203   -1.2665    2.2855 H   0  0  0  0  0  0  0  0  0  0  0  0
   -2.0383   -0.2781    0.3862 H   0  0  0  0  0  0  0  0  0  0  0  0
   -2.2497   -1.3470    1.7681 H   0  0  0  0  0  0  0  0  0  0  0  0
   -2.0033   -2.0251   -1.0941 H   0  0  0  0  0  0  0  0  0  0  0  0
   -2.5765   -3.0489    0.2221 H   0  0  0  0  0  0  0  0  0  0  0  0
   -0.1897   -3.5183   -1.0227 H   0  0  0  0  0  0  0  0  0  0  0  0
   -0.4290   -3.8900    0.6798 H   0  0  0  0  0  0  0  0  0  0  0  0
  1  2  1  0  0  0  0
  1 28  1  0  0  0  0
  1 29  1  0  0  0  0
  1 30  1  0  0  0  0
  2  3  1  0  0  0  0
  3  4  1  0  0  0  0
  3 21  2  0  0  0  0
  4  5  2  0  0  0  0
  4 31  1  0  0  0  0
  5  6  1  0  0  0  0
  5 19  1  0  0  0  0
  6  7  1  0  0  0  0
  6 16  2  0  0  0  0
  7  8  1  0  0  0  0
  7 32  1  0  0  0  0
  8  9  1  0  0  0  0
  8 15  2  0  0  0  0
  9 10  2  0  0  0  0
  9 33  1  0  0  0  0
 10 11  1  0  0  0  0
 10 34  1  0  0  0  0
 11 12  1  0  0  0  0
 11 13  2  0  0  0  0
 13 14  1  0  0  0  0
 13 15  1  0  0  0  0
 15 35  1  0  0  0  0
 16 17  1  0  0  0  0
 17 18  2  0  0  0  0
 17 36  1  0  0  0  0
 18 19  1  0  0  0  0
 19 20  2  0  0  0  0
 20 21  1  0  0  0  0
 20 37  1  0  0  0  0
 21 22  1  0  0  0  0
 22 23  1  0  0  0  0
 23 24  1  0  0  0  0
 23 27  1  0  0  0  0
 23 38  1  0  0  0  0
 24 25  1  0  0  0  0
 24 39  1  0  0  0  0
 24 40  1  0  0  0  0
 25 26  1  0  0  0  0
 25 41  1  0  0  0  0
 25 42  1  0  0  0  0
 26 27  1  0  0  0  0
 26 43  1  0  0  0  0
 26 44  1  0  0  0  0
 27 45  1  0  0  0  0
 27 46  1  0  0  0  0
M  END
$$$$
