CHEMBL1986996
 OpenBabel04072215363D

 35 36  0  0  0  0  0  0  0  0999 V2000
    1.0637    0.2427   -0.2276 C   0  0  0  0  0  0  0  0  0  0  0  0
    2.5602   -0.0203   -0.3535 C   0  0  0  0  0  0  0  0  0  0  0  0
    2.8630   -1.3169   -0.9486 N   0  0  0  0  0  0  0  0  0  0  0  0
    2.5572   -2.5694   -0.3992 C   0  0  0  0  0  0  0  0  0  0  0  0
    2.0739   -2.9660    0.8068 C   0  0  0  0  0  0  0  0  0  0  0  0
    1.8069   -4.3523    1.0290 C   0  0  0  0  0  0  0  0  0  0  0  0
    1.5003   -5.4437    1.2794 N   0  0  0  0  0  0  0  0  0  0  0  0
    1.7853   -2.1356    2.0041 C   0  0  0  0  0  0  0  0  0  0  0  0
    2.3392   -1.0822    2.2654 O   0  0  0  0  0  0  0  0  0  0  0  0
    0.8533   -2.6361    2.8531 O   0  0  0  0  0  0  0  0  0  0  0  0
    2.8783   -3.8200   -1.6001 S   0  0  0  0  0  0  0  0  0  0  0  0
    3.5651   -2.7103   -2.7200 C   0  0  0  0  0  0  0  0  0  0  0  0
    4.0778   -3.1300   -3.8888 C   0  0  0  0  0  0  0  0  0  0  0  0
    4.0538   -4.4531   -4.2715 N   0  0  0  0  0  0  0  0  0  0  0  0
    4.4779   -5.1250   -5.4221 C   0  0  0  0  0  0  0  0  0  0  0  0
    5.1994   -4.5365   -6.4582 C   0  0  0  0  0  0  0  0  0  0  0  0
    5.5803   -5.2928   -7.5736 C   0  0  0  0  0  0  0  0  0  0  0  0
    5.2365   -6.6425   -7.6663 C   0  0  0  0  0  0  0  0  0  0  0  0
    4.5147   -7.2433   -6.6456 C   0  0  0  0  0  0  0  0  0  0  0  0
    4.1398   -6.4874   -5.5358 C   0  0  0  0  0  0  0  0  0  0  0  0
    3.4670   -1.3181   -2.2240 C   0  0  0  0  0  0  0  0  0  0  0  0
    3.8407   -0.3485   -2.8649 O   0  0  0  0  0  0  0  0  0  0  0  0
    0.8821    1.1039    0.4227 H   0  0  0  0  0  0  0  0  0  0  0  0
    0.5123   -0.6087    0.1789 H   0  0  0  0  0  0  0  0  0  0  0  0
    0.6307    0.4611   -1.2093 H   0  0  0  0  0  0  0  0  0  0  0  0
    3.1010    0.0766    0.5875 H   0  0  0  0  0  0  0  0  0  0  0  0
    2.9723    0.7825   -0.9778 H   0  0  0  0  0  0  0  0  0  0  0  0
    0.4663   -3.5236    2.7043 H   0  0  0  0  0  0  0  0  0  0  0  0
    4.5181   -2.4312   -4.5951 H   0  0  0  0  0  0  0  0  0  0  0  0
    3.5817   -5.0551   -3.6005 H   0  0  0  0  0  0  0  0  0  0  0  0
    5.4867   -3.4915   -6.4137 H   0  0  0  0  0  0  0  0  0  0  0  0
    6.1496   -4.8279   -8.3730 H   0  0  0  0  0  0  0  0  0  0  0  0
    5.5325   -7.2254   -8.5351 H   0  0  0  0  0  0  0  0  0  0  0  0
    4.2358   -8.2915   -6.7057 H   0  0  0  0  0  0  0  0  0  0  0  0
    3.5716   -6.9760   -4.7466 H   0  0  0  0  0  0  0  0  0  0  0  0
  1  2  1  0  0  0  0
  1 23  1  0  0  0  0
  1 24  1  0  0  0  0
  1 25  1  0  0  0  0
  2  3  1  0  0  0  0
  2 26  1  0  0  0  0
  2 27  1  0  0  0  0
  3  4  1  0  0  0  0
  3 21  1  0  0  0  0
  4  5  2  3  0  0  0
  4 11  1  0  0  0  0
  5  6  1  0  0  0  0
  5  8  1  0  0  0  0
  6  7  3  0  0  0  0
  8  9  2  0  0  0  0
  8 10  1  0  0  0  0
 10 28  1  0  0  0  0
 11 12  1  0  0  0  0
 12 13  2  3  0  0  0
 12 21  1  0  0  0  0
 13 14  1  0  0  0  0
 13 29  1  0  0  0  0
 14 15  1  0  0  0  0
 14 30  1  0  0  0  0
 15 16  1  0  0  0  0
 15 20  2  0  0  0  0
 16 17  2  0  0  0  0
 16 31  1  0  0  0  0
 17 18  1  0  0  0  0
 17 32  1  0  0  0  0
 18 19  2  0  0  0  0
 18 33  1  0  0  0  0
 19 20  1  0  0  0  0
 19 34  1  0  0  0  0
 20 35  1  0  0  0  0
 21 22  2  0  0  0  0
M  END
$$$$
