CHEMBL3690440
 OpenBabel04072215373D

 43 45  0  0  0  0  0  0  0  0999 V2000
    1.2819   -0.1332    1.7853 C   0  0  0  0  0  0  0  0  0  0  0  0
    2.7136   -0.0708    1.3336 C   0  0  0  0  0  0  0  0  0  0  0  0
    3.3112   -1.1464    0.7721 C   0  0  0  0  0  0  0  0  0  0  0  0
    4.6646   -1.0863    0.3375 C   0  0  0  0  0  0  0  0  0  0  0  0
    5.4208   -1.9976   -0.2325 N   0  0  0  0  0  0  0  0  0  0  0  0
    6.6239   -1.3803   -0.4410 C   0  0  0  0  0  0  0  0  0  0  0  0
    6.6265   -0.0679    0.0063 C   0  0  0  0  0  0  0  0  0  0  0  0
    7.6864    0.9427   -0.0690 C   0  0  0  0  0  0  0  0  0  0  0  0
    7.9288    1.8294    0.9882 C   0  0  0  0  0  0  0  0  0  0  0  0
    8.8800    2.8375    0.8636 C   0  0  0  0  0  0  0  0  0  0  0  0
    9.6456    2.9321   -0.2948 C   0  0  0  0  0  0  0  0  0  0  0  0
    9.4818    2.0169   -1.3362 C   0  0  0  0  0  0  0  0  0  0  0  0
   10.2566    2.0606   -2.5183 N   0  0  0  0  0  0  0  0  0  0  0  0
   11.4312    2.7626   -2.6700 C   0  0  0  0  0  0  0  0  0  0  0  0
   12.0489    3.3577   -1.7948 O   0  0  0  0  0  0  0  0  0  0  0  0
   11.8648    2.7953   -3.9761 N   0  0  0  0  0  0  0  0  0  0  0  0
   13.1181    3.5031   -4.2651 C   0  0  0  0  0  0  0  0  0  0  0  0
   14.4125    2.7392   -3.9489 C   0  0  0  0  0  0  0  0  0  0  0  0
   14.1745    1.4580   -3.5862 F   0  0  0  0  0  0  0  0  0  0  0  0
   15.1980    2.6918   -5.0550 F   0  0  0  0  0  0  0  0  0  0  0  0
   15.1334    3.3282   -2.9723 F   0  0  0  0  0  0  0  0  0  0  0  0
    8.4859    1.0355   -1.2234 C   0  0  0  0  0  0  0  0  0  0  0  0
    5.3397    0.1187    0.5034 N   0  0  0  0  0  0  0  0  0  0  0  0
    4.7288    1.2443    1.0602 C   0  0  0  0  0  0  0  0  0  0  0  0
    3.4554    1.1910    1.4964 C   0  0  0  0  0  0  0  0  0  0  0  0
    2.8022    2.3838    2.1317 C   0  0  0  0  0  0  0  0  0  0  0  0
    0.8335   -1.1128    1.5873 H   0  0  0  0  0  0  0  0  0  0  0  0
    0.6764    0.6124    1.2591 H   0  0  0  0  0  0  0  0  0  0  0  0
    1.2079    0.0477    2.8626 H   0  0  0  0  0  0  0  0  0  0  0  0
    2.7846   -2.0837    0.6284 H   0  0  0  0  0  0  0  0  0  0  0  0
    7.4411   -1.9141   -0.9100 H   0  0  0  0  0  0  0  0  0  0  0  0
    7.3793    1.7562    1.9227 H   0  0  0  0  0  0  0  0  0  0  0  0
    9.0296    3.5546    1.6670 H   0  0  0  0  0  0  0  0  0  0  0  0
   10.3588    3.7482   -0.3590 H   0  0  0  0  0  0  0  0  0  0  0  0
    9.9808    1.4495   -3.2694 H   0  0  0  0  0  0  0  0  0  0  0  0
   11.6081    2.0183   -4.5655 H   0  0  0  0  0  0  0  0  0  0  0  0
   13.1187    4.4466   -3.7062 H   0  0  0  0  0  0  0  0  0  0  0  0
   13.0873    3.7616   -5.3273 H   0  0  0  0  0  0  0  0  0  0  0  0
    8.3312    0.3295   -2.0349 H   0  0  0  0  0  0  0  0  0  0  0  0
    5.3128    2.1509    1.1268 H   0  0  0  0  0  0  0  0  0  0  0  0
    3.4891    3.2357    2.1948 H   0  0  0  0  0  0  0  0  0  0  0  0
    2.4825    2.1531    3.1533 H   0  0  0  0  0  0  0  0  0  0  0  0
    1.9335    2.7088    1.5511 H   0  0  0  0  0  0  0  0  0  0  0  0
  1  2  1  0  0  0  0
  1 27  1  0  0  0  0
  1 28  1  0  0  0  0
  1 29  1  0  0  0  0
  2  3  2  0  0  0  0
  2 25  1  0  0  0  0
  3  4  1  0  0  0  0
  3 30  1  0  0  0  0
  4  5  2  0  0  0  0
  4 23  1  0  0  0  0
  5  6  1  0  0  0  0
  6  7  2  0  0  0  0
  6 31  1  0  0  0  0
  7  8  1  0  0  0  0
  7 23  1  0  0  0  0
  8  9  1  0  0  0  0
  8 22  2  0  0  0  0
  9 10  2  0  0  0  0
  9 32  1  0  0  0  0
 10 11  1  0  0  0  0
 10 33  1  0  0  0  0
 11 12  2  0  0  0  0
 11 34  1  0  0  0  0
 12 13  1  0  0  0  0
 12 22  1  0  0  0  0
 13 14  1  0  0  0  0
 13 35  1  0  0  0  0
 14 15  2  0  0  0  0
 14 16  1  0  0  0  0
 16 17  1  0  0  0  0
 16 36  1  0  0  0  0
 17 18  1  0  0  0  0
 17 37  1  0  0  0  0
 17 38  1  0  0  0  0
 18 19  1  0  0  0  0
 18 20  1  0  0  0  0
 18 21  1  0  0  0  0
 22 39  1  0  0  0  0
 23 24  1  0  0  0  0
 24 25  2  0  0  0  0
 24 40  1  0  0  0  0
 25 26  1  0  0  0  0
 26 41  1  0  0  0  0
 26 42  1  0  0  0  0
 26 43  1  0  0  0  0
M  END
$$$$
