CHEMBL185197
 OpenBabel04072215363D

 46 49  0  0  0  0  0  0  0  0999 V2000
    3.0387   -5.6938   -0.5817 C   0  0  0  0  0  0  0  0  0  0  0  0
    1.6020   -6.0883   -0.7621 C   0  0  0  0  0  0  0  0  0  0  0  0
    1.2876   -7.3655   -1.2326 C   0  0  0  0  0  0  0  0  0  0  0  0
   -0.0386   -7.7364   -1.4050 C   0  0  0  0  0  0  0  0  0  0  0  0
   -1.0623   -6.8363   -1.1097 C   0  0  0  0  0  0  0  0  0  0  0  0
   -0.7795   -5.5561   -0.6240 C   0  0  0  0  0  0  0  0  0  0  0  0
   -1.7874   -4.6143   -0.3027 N   0  0  0  0  0  0  0  0  0  0  0  0
   -3.1486   -4.8613   -0.2998 C   0  0  0  0  0  0  0  0  0  0  0  0
   -3.6823   -5.9462   -0.4983 O   0  0  0  0  0  0  0  0  0  0  0  0
   -3.8812   -3.7000   -0.0923 N   0  0  0  0  0  0  0  0  0  0  0  0
   -5.2928   -3.7635   -0.0696 C   0  0  0  0  0  0  0  0  0  0  0  0
   -6.0110   -2.9151   -0.8992 C   0  0  0  0  0  0  0  0  0  0  0  0
   -7.4071   -3.0028   -0.9413 C   0  0  0  0  0  0  0  0  0  0  0  0
   -8.1383   -3.8350   -0.0753 C   0  0  0  0  0  0  0  0  0  0  0  0
   -9.6234   -3.7628   -0.0045 C   0  0  0  0  0  0  0  0  0  0  0  0
  -10.4153   -4.8993    0.2964 C   0  0  0  0  0  0  0  0  0  0  0  0
  -11.8180   -4.8412    0.4431 C   0  0  0  0  0  0  0  0  0  0  0  0
  -12.4905   -3.6350    0.2877 C   0  0  0  0  0  0  0  0  0  0  0  0
  -11.7292   -2.5299   -0.0150 C   0  0  0  0  0  0  0  0  0  0  0  0
  -10.3341   -2.5676   -0.1689 C   0  0  0  0  0  0  0  0  0  0  0  0
   -9.8577   -1.1807   -0.4828 C   0  0  0  0  0  0  0  0  0  0  0  0
  -11.0547   -0.3890   -0.4225 N   0  0  0  0  0  0  0  0  0  0  0  0
  -12.1783   -1.1417   -0.2044 C   0  0  0  0  0  0  0  0  0  0  0  0
  -13.3282   -0.7478   -0.1836 O   0  0  0  0  0  0  0  0  0  0  0  0
   -7.3755   -4.6888    0.7425 C   0  0  0  0  0  0  0  0  0  0  0  0
   -7.9732   -5.5422    1.5892 F   0  0  0  0  0  0  0  0  0  0  0  0
   -5.9776   -4.6755    0.7327 C   0  0  0  0  0  0  0  0  0  0  0  0
    0.5632   -5.1868   -0.4589 C   0  0  0  0  0  0  0  0  0  0  0  0
    3.7131   -6.5049   -0.8794 H   0  0  0  0  0  0  0  0  0  0  0  0
    3.2390   -5.4634    0.4687 H   0  0  0  0  0  0  0  0  0  0  0  0
    3.2747   -4.8231   -1.2008 H   0  0  0  0  0  0  0  0  0  0  0  0
    2.0698   -8.0830   -1.4697 H   0  0  0  0  0  0  0  0  0  0  0  0
   -0.2910   -8.7287   -1.7712 H   0  0  0  0  0  0  0  0  0  0  0  0
   -2.0758   -7.1825   -1.2727 H   0  0  0  0  0  0  0  0  0  0  0  0
   -1.4853   -3.7328    0.0873 H   0  0  0  0  0  0  0  0  0  0  0  0
   -3.4775   -2.8879   -0.5375 H   0  0  0  0  0  0  0  0  0  0  0  0
   -5.5046   -2.2287   -1.5728 H   0  0  0  0  0  0  0  0  0  0  0  0
   -7.9072   -2.4053   -1.6965 H   0  0  0  0  0  0  0  0  0  0  0  0
   -9.9471   -5.8740    0.4369 H   0  0  0  0  0  0  0  0  0  0  0  0
  -12.3750   -5.7396    0.6915 H   0  0  0  0  0  0  0  0  0  0  0  0
  -13.5688   -3.5562    0.4054 H   0  0  0  0  0  0  0  0  0  0  0  0
   -9.4823   -1.0954   -1.5047 H   0  0  0  0  0  0  0  0  0  0  0  0
   -9.1377   -0.8019    0.2464 H   0  0  0  0  0  0  0  0  0  0  0  0
  -11.1228    0.5887   -0.6696 H   0  0  0  0  0  0  0  0  0  0  0  0
   -5.4445   -5.3723    1.3734 H   0  0  0  0  0  0  0  0  0  0  0  0
    0.8192   -4.1964   -0.0913 H   0  0  0  0  0  0  0  0  0  0  0  0
  1  2  1  0  0  0  0
  1 29  1  0  0  0  0
  1 30  1  0  0  0  0
  1 31  1  0  0  0  0
  2  3  1  0  0  0  0
  2 28  2  0  0  0  0
  3  4  2  0  0  0  0
  3 32  1  0  0  0  0
  4  5  1  0  0  0  0
  4 33  1  0  0  0  0
  5  6  2  0  0  0  0
  5 34  1  0  0  0  0
  6  7  1  0  0  0  0
  6 28  1  0  0  0  0
  7  8  1  0  0  0  0
  7 35  1  0  0  0  0
  8  9  2  0  0  0  0
  8 10  1  0  0  0  0
 10 11  1  0  0  0  0
 10 36  1  0  0  0  0
 11 12  1  0  0  0  0
 11 27  2  0  0  0  0
 12 13  2  0  0  0  0
 12 37  1  0  0  0  0
 13 14  1  0  0  0  0
 13 38  1  0  0  0  0
 14 15  1  0  0  0  0
 14 25  2  0  0  0  0
 15 16  1  0  0  0  0
 15 20  2  0  0  0  0
 16 17  2  0  0  0  0
 16 39  1  0  0  0  0
 17 18  1  0  0  0  0
 17 40  1  0  0  0  0
 18 19  2  0  0  0  0
 18 41  1  0  0  0  0
 19 20  1  0  0  0  0
 19 23  1  0  0  0  0
 20 21  1  0  0  0  0
 21 22  1  0  0  0  0
 21 42  1  0  0  0  0
 21 43  1  0  0  0  0
 22 23  1  0  0  0  0
 22 44  1  0  0  0  0
 23 24  2  0  0  0  0
 25 26  1  0  0  0  0
 25 27  1  0  0  0  0
 27 45  1  0  0  0  0
 28 46  1  0  0  0  0
M  END
$$$$
