CHEMBL3975954
 OpenBabel04072215373D

 56 60  0  0  0  0  0  0  0  0999 V2000
    2.5809    1.5679    0.6870 C   0  0  0  0  0  0  0  0  0  0  0  0
    2.3387    0.1861    0.4679 O   0  0  0  0  0  0  0  0  0  0  0  0
    2.9548   -0.7069    1.3158 C   0  0  0  0  0  0  0  0  0  0  0  0
    2.7378   -2.0227    1.1247 C   0  0  0  0  0  0  0  0  0  0  0  0
    3.6586   -2.9311    1.6176 C   0  0  0  0  0  0  0  0  0  0  0  0
    3.4480   -4.2742    1.5984 O   0  0  0  0  0  0  0  0  0  0  0  0
    2.2009   -4.6519    1.0280 C   0  0  0  0  0  0  0  0  0  0  0  0
    4.8808   -2.5053    2.1463 C   0  0  0  0  0  0  0  0  0  0  0  0
    5.2071   -1.1722    2.2158 C   0  0  0  0  0  0  0  0  0  0  0  0
    6.5502   -0.7235    2.4620 N   0  0  0  0  0  0  0  0  0  0  0  0
    7.0254    0.6124    1.8840 C   0  0  0  0  0  0  0  0  0  0  0  0
    6.8498    1.8834    2.6994 C   0  0  0  0  0  0  0  0  0  0  0  0
    6.2973    2.0562    3.9589 C   0  0  0  0  0  0  0  0  0  0  0  0
    6.9064    3.2113    4.4999 C   0  0  0  0  0  0  0  0  0  0  0  0
    7.3253    3.8997    3.4069 C   0  0  0  0  0  0  0  0  0  0  0  0
    7.3929    3.0857    2.3109 O   0  0  0  0  0  0  0  0  0  0  0  0
    7.6495   -1.6017    2.8330 C   0  0  0  0  0  0  0  0  0  0  0  0
    8.6314   -1.0576    3.6185 C   0  0  0  0  0  0  0  0  0  0  0  0
    9.6704   -1.8712    3.9417 C   0  0  0  0  0  0  0  0  0  0  0  0
    9.8866   -3.1390    3.4605 C   0  0  0  0  0  0  0  0  0  0  0  0
   11.1314   -3.0637    3.3052 N   0  0  0  0  0  0  0  0  0  0  0  0
   11.8033   -3.5693    4.2842 C   0  0  0  0  0  0  0  0  0  0  0  0
   12.0878   -4.8206    4.1200 C   0  0  0  0  0  0  0  0  0  0  0  0
   13.8219   -4.3653    4.6512 C   0  0  0  0  0  0  0  0  0  0  0  0
   14.9144   -3.2641    4.6944 C   0  0  0  0  0  0  0  0  0  0  0  0
   16.1162   -3.4836    5.3356 N   0  0  0  0  0  0  0  0  0  0  0  0
   16.0452   -4.7203    5.8447 N   0  0  0  0  0  0  0  0  0  0  0  0
   17.1412   -5.2522    6.7481 C   0  0  0  0  0  0  0  0  0  0  0  0
   14.7541   -5.2872    5.4193 C   0  0  0  0  0  0  0  0  0  0  0  0
   10.7285   -5.0910    3.1383 N   0  0  0  0  0  0  0  0  0  0  0  0
    9.3412   -4.0554    2.7309 C   0  0  0  0  0  0  0  0  0  0  0  0
    7.9561   -3.0017    2.3350 C   0  0  0  0  0  0  0  0  0  0  0  0
    4.0571   -0.3725    2.1276 C   0  0  0  0  0  0  0  0  0  0  0  0
    2.0918    2.1811   -0.0882 H   0  0  0  0  0  0  0  0  0  0  0  0
    3.6539    1.7340    0.6164 H   0  0  0  0  0  0  0  0  0  0  0  0
    2.1770    1.8875    1.6470 H   0  0  0  0  0  0  0  0  0  0  0  0
    1.8025   -2.3006    0.6829 H   0  0  0  0  0  0  0  0  0  0  0  0
    2.1403   -5.7350    1.0746 H   0  0  0  0  0  0  0  0  0  0  0  0
    2.1337   -4.3484   -0.0257 H   0  0  0  0  0  0  0  0  0  0  0  0
    1.3609   -4.2343    1.5984 H   0  0  0  0  0  0  0  0  0  0  0  0
    5.5709   -3.2148    2.5759 H   0  0  0  0  0  0  0  0  0  0  0  0
    6.5023    0.8691    0.9472 H   0  0  0  0  0  0  0  0  0  0  0  0
    8.0702    0.4240    1.6199 H   0  0  0  0  0  0  0  0  0  0  0  0
    5.9195    1.2237    4.5416 H   0  0  0  0  0  0  0  0  0  0  0  0
    7.0130    3.5204    5.5328 H   0  0  0  0  0  0  0  0  0  0  0  0
    7.5982    4.9329    3.3318 H   0  0  0  0  0  0  0  0  0  0  0  0
    8.7264   -0.0163    3.9363 H   0  0  0  0  0  0  0  0  0  0  0  0
   10.5432   -1.4669    4.4599 H   0  0  0  0  0  0  0  0  0  0  0  0
   12.3130   -2.7602    4.7514 H   0  0  0  0  0  0  0  0  0  0  0  0
   14.9362   -2.2696    4.2687 H   0  0  0  0  0  0  0  0  0  0  0  0
   18.0225   -4.5749    6.8544 H   0  0  0  0  0  0  0  0  0  0  0  0
   17.5461   -6.2169    6.3999 H   0  0  0  0  0  0  0  0  0  0  0  0
   16.7540   -5.3933    7.7690 H   0  0  0  0  0  0  0  0  0  0  0  0
   14.6898   -6.3094    5.7618 H   0  0  0  0  0  0  0  0  0  0  0  0
    7.1348   -3.2336    1.5997 H   0  0  0  0  0  0  0  0  0  0  0  0
    4.1244    0.6330    2.5070 H   0  0  0  0  0  0  0  0  0  0  0  0
  1  2  1  0  0  0  0
  1 34  1  0  0  0  0
  1 35  1  0  0  0  0
  1 36  1  0  0  0  0
  2  3  1  0  0  0  0
  3  4  1  0  0  0  0
  3 33  2  0  0  0  0
  4  5  2  0  0  0  0
  4 37  1  0  0  0  0
  5  6  1  0  0  0  0
  5  8  1  0  0  0  0
  6  7  1  0  0  0  0
  7 38  1  0  0  0  0
  7 39  1  0  0  0  0
  7 40  1  0  0  0  0
  8  9  2  0  0  0  0
  8 41  1  0  0  0  0
  9 10  1  0  0  0  0
  9 33  1  0  0  0  0
 10 11  1  0  0  0  0
 10 17  1  0  0  0  0
 11 12  1  0  0  0  0
 11 42  1  0  0  0  0
 11 43  1  0  0  0  0
 12 13  2  0  0  0  0
 12 16  1  0  0  0  0
 13 14  1  0  0  0  0
 13 44  1  0  0  0  0
 14 15  2  0  0  0  0
 14 45  1  0  0  0  0
 15 16  1  0  0  0  0
 15 46  1  0  0  0  0
 17 18  1  0  0  0  0
 17 32  2  0  0  0  0
 18 19  2  0  0  0  0
 18 47  1  0  0  0  0
 19 20  1  0  0  0  0
 19 48  1  0  0  0  0
 20 21  1  0  0  0  0
 20 31  2  0  0  0  0
 21 22  2  0  0  0  0
 22 23  1  0  0  0  0
 22 49  1  0  0  0  0
 23 24  1  0  0  0  0
 23 30  2  0  0  0  0
 24 25  1  0  0  0  0
 24 29  2  0  0  0  0
 25 26  2  0  0  0  0
 25 50  1  0  0  0  0
 26 27  1  0  0  0  0
 27 28  1  0  0  0  0
 27 29  1  0  0  0  0
 28 51  1  0  0  0  0
 28 52  1  0  0  0  0
 28 53  1  0  0  0  0
 29 54  1  0  0  0  0
 30 31  1  0  0  0  0
 31 32  1  0  0  0  0
 32 55  1  0  0  0  0
 33 56  1  0  0  0  0
M  END
$$$$
