CHEMBL4516736
 OpenBabel04072215383D

 61 66  0  0  1  0  0  0  0  0999 V2000
   -2.4514    2.3629   -1.4522 N   0  0  0  0  0  0  0  0  0  0  0  0
   -1.3639    2.0327   -1.2022 C   0  0  0  0  0  0  0  0  0  0  0  0
   -0.0210    1.6216   -0.8916 C   0  0  0  0  0  0  0  0  0  0  0  0
    1.0355    1.9308   -1.7530 C   0  0  0  0  0  0  0  0  0  0  0  0
    2.3397    1.5065   -1.4587 C   0  0  0  0  0  0  0  0  0  0  0  0
    2.6051    0.7704   -0.2981 C   0  0  0  0  0  0  0  0  0  0  0  0
    3.9549    0.2875   -0.0121 C   0  0  0  0  0  0  0  0  0  0  0  0
    4.4315    0.1205    1.2716 C   0  0  0  0  0  0  0  0  0  0  0  0
    5.9612   -0.6270    1.2384 S   0  0  0  0  0  0  0  0  0  0  0  0
    5.9464   -0.5997   -0.4987 C   0  0  0  0  0  0  0  0  0  0  0  0
    7.0123   -1.0942   -1.1957 N   0  0  0  0  0  0  0  0  0  0  0  0
    7.8585   -2.0713   -0.7308 N   0  0  0  0  0  0  0  0  0  0  0  0
    8.6565   -2.3902   -1.7006 C   0  0  0  0  0  0  0  0  0  0  0  0
    9.6923   -3.4418   -1.5883 C   0  0  0  0  0  0  0  0  0  0  0  0
    9.8280   -4.1548   -0.3980 C   0  0  0  0  0  0  0  0  0  0  0  0
   10.7669   -5.1895   -0.3049 C   0  0  0  0  0  0  0  0  0  0  0  0
   11.5990   -5.5399   -1.3792 C   0  0  0  0  0  0  0  0  0  0  0  0
   12.4931   -6.5811   -1.2911 N   0  0  0  0  0  0  0  0  0  0  0  0
   12.2437   -7.7760   -0.4715 C   0  0  0  0  0  0  0  0  0  0  0  0
   13.4135   -7.9851    0.4979 C   0  0  0  0  0  0  0  0  0  0  0  0
   14.6654   -8.0689   -0.2057 O   0  0  0  0  0  0  0  0  0  0  0  0
   14.9047   -6.8602   -0.9481 C   0  0  0  0  0  0  0  0  0  0  0  0
   13.7926   -6.5870   -1.9781 C   0  0  0  0  0  0  0  0  0  0  0  0
   11.4654   -4.7833   -2.5510 C   0  0  0  0  0  0  0  0  0  0  0  0
   10.5220   -3.7537   -2.6639 C   0  0  0  0  0  0  0  0  0  0  0  0
    8.4608   -1.6138   -2.9707 C   0  0  0  0  0  0  0  0  0  0  0  0
    7.2495   -0.7525   -2.5956 C   0  0  3  0  0  0  0  0  0  0  0  0
    7.5490    0.7298   -2.7771 C   0  0  0  0  0  0  0  0  0  0  0  0
    6.7948    1.4979   -3.6782 C   0  0  0  0  0  0  0  0  0  0  0  0
    7.0324    2.8694   -3.8135 C   0  0  0  0  0  0  0  0  0  0  0  0
    8.0300    3.4795   -3.0569 C   0  0  0  0  0  0  0  0  0  0  0  0
    8.3043    5.1714   -3.2063 Cl  0  0  0  0  0  0  0  0  0  0  0  0
    8.8028    2.7309   -2.1747 C   0  0  0  0  0  0  0  0  0  0  0  0
    8.5642    1.3628   -2.0363 C   0  0  0  0  0  0  0  0  0  0  0  0
    4.8538   -0.0600   -1.0162 N   0  0  0  0  0  0  0  0  0  0  0  0
    1.5357    0.4712    0.5647 C   0  0  0  0  0  0  0  0  0  0  0  0
    0.2332    0.8905    0.2723 C   0  0  0  0  0  0  0  0  0  0  0  0
    0.8516    2.4972   -2.6635 H   0  0  0  0  0  0  0  0  0  0  0  0
    3.1495    1.7533   -2.1431 H   0  0  0  0  0  0  0  0  0  0  0  0
    3.9577    0.3566    2.2122 H   0  0  0  0  0  0  0  0  0  0  0  0
    9.2064   -3.9252    0.4654 H   0  0  0  0  0  0  0  0  0  0  0  0
   10.8503   -5.7071    0.6472 H   0  0  0  0  0  0  0  0  0  0  0  0
   12.1738   -8.6377   -1.1469 H   0  0  0  0  0  0  0  0  0  0  0  0
   11.2999   -7.7376    0.0810 H   0  0  0  0  0  0  0  0  0  0  0  0
   13.2770   -8.9224    1.0457 H   0  0  0  0  0  0  0  0  0  0  0  0
   13.4689   -7.1712    1.2307 H   0  0  0  0  0  0  0  0  0  0  0  0
   15.8663   -6.9702   -1.4589 H   0  0  0  0  0  0  0  0  0  0  0  0
   14.9944   -6.0251   -0.2426 H   0  0  0  0  0  0  0  0  0  0  0  0
   13.7858   -7.3813   -2.7340 H   0  0  0  0  0  0  0  0  0  0  0  0
   14.0138   -5.6403   -2.4823 H   0  0  0  0  0  0  0  0  0  0  0  0
   12.0669   -5.0173   -3.4255 H   0  0  0  0  0  0  0  0  0  0  0  0
   10.4485   -3.2295   -3.6110 H   0  0  0  0  0  0  0  0  0  0  0  0
    8.2347   -2.2858   -3.8031 H   0  0  0  0  0  0  0  0  0  0  0  0
    9.3683   -1.0440   -3.1965 H   0  0  0  0  0  0  0  0  0  0  0  0
    6.3935   -1.0526   -3.2134 H   0  0  0  0  0  0  0  0  0  0  0  0
    6.0017    1.0395   -4.2654 H   0  0  0  0  0  0  0  0  0  0  0  0
    6.4297    3.4555   -4.5022 H   0  0  0  0  0  0  0  0  0  0  0  0
    9.5818    3.2034   -1.5831 H   0  0  0  0  0  0  0  0  0  0  0  0
    9.1623    0.7909   -1.3279 H   0  0  0  0  0  0  0  0  0  0  0  0
    1.6969   -0.1168    1.4660 H   0  0  0  0  0  0  0  0  0  0  0  0
   -0.5749    0.6296    0.9547 H   0  0  0  0  0  0  0  0  0  0  0  0
  1  2  3  0  0  0  0
  2  3  1  0  0  0  0
  3  4  1  0  0  0  0
  3 37  2  0  0  0  0
  4  5  2  0  0  0  0
  4 38  1  0  0  0  0
  5  6  1  0  0  0  0
  5 39  1  0  0  0  0
  6  7  1  0  0  0  0
  6 36  2  0  0  0  0
  7  8  2  0  0  0  0
  7 35  1  0  0  0  0
  8  9  1  0  0  0  0
  8 40  1  0  0  0  0
  9 10  1  0  0  0  0
 10 11  1  0  0  0  0
 10 35  2  0  0  0  0
 11 12  1  0  0  0  0
 11 27  1  0  0  0  0
 12 13  2  0  0  0  0
 13 14  1  0  0  0  0
 13 26  1  0  0  0  0
 14 15  1  0  0  0  0
 14 25  2  0  0  0  0
 15 16  2  0  0  0  0
 15 41  1  0  0  0  0
 16 17  1  0  0  0  0
 16 42  1  0  0  0  0
 17 18  1  0  0  0  0
 17 24  2  0  0  0  0
 18 19  1  0  0  0  0
 18 23  1  0  0  0  0
 19 20  1  0  0  0  0
 19 43  1  0  0  0  0
 19 44  1  0  0  0  0
 20 21  1  0  0  0  0
 20 45  1  0  0  0  0
 20 46  1  0  0  0  0
 21 22  1  0  0  0  0
 22 23  1  0  0  0  0
 22 47  1  0  0  0  0
 22 48  1  0  0  0  0
 23 49  1  0  0  0  0
 23 50  1  0  0  0  0
 24 25  1  0  0  0  0
 24 51  1  0  0  0  0
 25 52  1  0  0  0  0
 26 27  1  0  0  0  0
 26 53  1  0  0  0  0
 26 54  1  0  0  0  0
 27 28  1  0  0  0  0
 27 55  1  0  0  0  0
 28 29  1  0  0  0  0
 28 34  2  0  0  0  0
 29 30  2  0  0  0  0
 29 56  1  0  0  0  0
 30 31  1  0  0  0  0
 30 57  1  0  0  0  0
 31 32  1  0  0  0  0
 31 33  2  0  0  0  0
 33 34  1  0  0  0  0
 33 58  1  0  0  0  0
 34 59  1  0  0  0  0
 36 37  1  0  0  0  0
 36 60  1  0  0  0  0
 37 61  1  0  0  0  0
M  END
$$$$
