CHEMBL1098157
 OpenBabel04072215363D

 52 56  0  0  0  0  0  0  0  0999 V2000
    0.3236    3.1414   -2.3497 C   0  0  0  0  0  0  0  0  0  0  0  0
    0.0704    1.7945   -2.7906 N   0  0  0  0  0  0  0  0  0  0  0  0
    0.9577    0.9508   -3.3903 C   0  0  0  0  0  0  0  0  0  0  0  0
    0.4341   -0.2423   -3.5736 N   0  0  0  0  0  0  0  0  0  0  0  0
   -0.8544   -0.1485   -3.1027 C   0  0  0  0  0  0  0  0  0  0  0  0
   -1.8193   -1.2793   -3.0844 C   0  0  0  0  0  0  0  0  0  0  0  0
   -1.4914   -2.5749   -3.4127 C   0  0  0  0  0  0  0  0  0  0  0  0
   -2.5916   -3.4671   -3.2514 C   0  0  0  0  0  0  0  0  0  0  0  0
   -2.5521   -4.8116   -3.4638 N   0  0  0  0  0  0  0  0  0  0  0  0
   -3.6984   -5.4756   -3.2275 C   0  0  0  0  0  0  0  0  0  0  0  0
   -4.8870   -4.8977   -2.8251 C   0  0  0  0  0  0  0  0  0  0  0  0
   -4.9463   -3.5104   -2.6860 C   0  0  0  0  0  0  0  0  0  0  0  0
   -6.1048   -2.8296   -2.3660 O   0  0  0  0  0  0  0  0  0  0  0  0
   -7.2630   -3.1635   -3.0296 C   0  0  0  0  0  0  0  0  0  0  0  0
   -7.2901   -3.7527   -4.2917 C   0  0  0  0  0  0  0  0  0  0  0  0
   -8.4912   -4.2234   -4.8145 C   0  0  0  0  0  0  0  0  0  0  0  0
   -9.6915   -4.0435   -4.1224 C   0  0  0  0  0  0  0  0  0  0  0  0
  -10.9106   -4.5762   -4.5862 N   0  0  0  0  0  0  0  0  0  0  0  0
  -11.0101   -5.6237   -5.4915 C   0  0  0  0  0  0  0  0  0  0  0  0
  -10.0811   -6.3240   -5.8731 O   0  0  0  0  0  0  0  0  0  0  0  0
  -12.3522   -5.8637   -5.9819 C   0  0  0  0  0  0  0  0  0  0  0  0
  -13.5863   -5.7967   -5.3042 C   0  0  0  0  0  0  0  0  0  0  0  0
  -14.6209   -6.0764   -6.0957 N   0  0  0  0  0  0  0  0  0  0  0  0
  -14.0545   -6.3474   -7.2867 N   0  0  0  0  0  0  0  0  0  0  0  0
  -14.9045   -6.6571   -8.4159 C   0  0  0  0  0  0  0  0  0  0  0  0
  -12.6893   -6.2546   -7.2717 C   0  0  0  0  0  0  0  0  0  0  0  0
  -11.8906   -6.5246   -8.4858 C   0  0  0  0  0  0  0  0  0  0  0  0
  -10.5689   -6.2765   -8.3613 F   0  0  0  0  0  0  0  0  0  0  0  0
  -12.0245   -7.8138   -8.8871 F   0  0  0  0  0  0  0  0  0  0  0  0
  -12.3196   -5.7561   -9.5223 F   0  0  0  0  0  0  0  0  0  0  0  0
   -9.6892   -3.3001   -2.9400 C   0  0  0  0  0  0  0  0  0  0  0  0
   -8.4734   -2.8815   -2.3963 C   0  0  0  0  0  0  0  0  0  0  0  0
   -8.4852   -2.2242   -1.2261 F   0  0  0  0  0  0  0  0  0  0  0  0
   -3.7503   -2.8000   -2.8511 C   0  0  0  0  0  0  0  0  0  0  0  0
   -3.4553   -1.1244   -2.6375 S   0  0  0  0  0  0  0  0  0  0  0  0
   -1.1047    1.1202   -2.6296 C   0  0  0  0  0  0  0  0  0  0  0  0
    1.3011    3.4695   -2.7094 H   0  0  0  0  0  0  0  0  0  0  0  0
    0.3045    3.1483   -1.2563 H   0  0  0  0  0  0  0  0  0  0  0  0
   -0.4600    3.7920   -2.7461 H   0  0  0  0  0  0  0  0  0  0  0  0
    1.9647    1.2430   -3.6586 H   0  0  0  0  0  0  0  0  0  0  0  0
   -0.5020   -2.8833   -3.7253 H   0  0  0  0  0  0  0  0  0  0  0  0
   -3.6425   -6.5497   -3.3919 H   0  0  0  0  0  0  0  0  0  0  0  0
   -5.7607   -5.5204   -2.6644 H   0  0  0  0  0  0  0  0  0  0  0  0
   -6.3853   -3.9006   -4.8750 H   0  0  0  0  0  0  0  0  0  0  0  0
   -8.4581   -4.7205   -5.7797 H   0  0  0  0  0  0  0  0  0  0  0  0
  -11.7603   -4.2146   -4.1791 H   0  0  0  0  0  0  0  0  0  0  0  0
  -13.7798   -5.5685   -4.2634 H   0  0  0  0  0  0  0  0  0  0  0  0
  -15.9509   -6.6278   -8.1019 H   0  0  0  0  0  0  0  0  0  0  0  0
  -14.6507   -7.6556   -8.7783 H   0  0  0  0  0  0  0  0  0  0  0  0
  -14.7348   -5.9047   -9.1897 H   0  0  0  0  0  0  0  0  0  0  0  0
  -10.6017   -3.0823   -2.3946 H   0  0  0  0  0  0  0  0  0  0  0  0
   -1.9775    1.5711   -2.1786 H   0  0  0  0  0  0  0  0  0  0  0  0
  1  2  1  0  0  0  0
  1 37  1  0  0  0  0
  1 38  1  0  0  0  0
  1 39  1  0  0  0  0
  2  3  1  0  0  0  0
  2 36  1  0  0  0  0
  3  4  2  0  0  0  0
  3 40  1  0  0  0  0
  4  5  1  0  0  0  0
  5  6  1  0  0  0  0
  5 36  2  0  0  0  0
  6  7  2  0  0  0  0
  6 35  1  0  0  0  0
  7  8  1  0  0  0  0
  7 41  1  0  0  0  0
  8  9  1  0  0  0  0
  8 34  2  0  0  0  0
  9 10  2  0  0  0  0
 10 11  1  0  0  0  0
 10 42  1  0  0  0  0
 11 12  2  0  0  0  0
 11 43  1  0  0  0  0
 12 13  1  0  0  0  0
 12 34  1  0  0  0  0
 13 14  1  0  0  0  0
 14 15  1  0  0  0  0
 14 32  2  0  0  0  0
 15 16  2  0  0  0  0
 15 44  1  0  0  0  0
 16 17  1  0  0  0  0
 16 45  1  0  0  0  0
 17 18  1  0  0  0  0
 17 31  2  0  0  0  0
 18 19  1  0  0  0  0
 18 46  1  0  0  0  0
 19 20  2  0  0  0  0
 19 21  1  0  0  0  0
 21 22  1  0  0  0  0
 21 26  2  0  0  0  0
 22 23  2  0  0  0  0
 22 47  1  0  0  0  0
 23 24  1  0  0  0  0
 24 25  1  0  0  0  0
 24 26  1  0  0  0  0
 25 48  1  0  0  0  0
 25 49  1  0  0  0  0
 25 50  1  0  0  0  0
 26 27  1  0  0  0  0
 27 28  1  0  0  0  0
 27 29  1  0  0  0  0
 27 30  1  0  0  0  0
 31 32  1  0  0  0  0
 31 51  1  0  0  0  0
 32 33  1  0  0  0  0
 34 35  1  0  0  0  0
 36 52  1  0  0  0  0
M  END
$$$$
