CHEMBL512605
 OpenBabel04072215383D

 45 49  0  0  0  0  0  0  0  0999 V2000
    1.6707   -0.8716   -0.1255 O   0  0  0  0  0  0  0  0  0  0  0  0
    2.2726    0.1946   -0.0351 C   0  0  0  0  0  0  0  0  0  0  0  0
    2.8256    0.8750   -1.2432 C   0  0  0  0  0  0  0  0  0  0  0  0
    2.3751    2.2032   -1.3933 C   0  0  0  0  0  0  0  0  0  0  0  0
    3.0938    3.1126   -2.1544 C   0  0  0  0  0  0  0  0  0  0  0  0
    4.2365    2.6898   -2.8110 C   0  0  0  0  0  0  0  0  0  0  0  0
    4.6061    1.3405   -2.7716 C   0  0  0  0  0  0  0  0  0  0  0  0
    3.8817    0.3758   -2.0365 C   0  0  0  0  0  0  0  0  0  0  0  0
    4.3939   -0.9360   -2.0769 N   0  0  0  0  0  0  0  0  0  0  0  0
    3.4613   -2.0674   -2.0282 C   0  0  0  0  0  0  0  0  0  0  0  0
    4.0232   -3.2455   -2.8131 C   0  0  0  0  0  0  0  0  0  0  0  0
    3.2820   -3.8292   -3.8782 C   0  0  0  0  0  0  0  0  0  0  0  0
    3.7831   -4.9340   -4.5883 C   0  0  0  0  0  0  0  0  0  0  0  0
    5.0055   -5.4265   -4.2195 C   0  0  0  0  0  0  0  0  0  0  0  0
    5.7316   -4.8718   -3.1869 C   0  0  0  0  0  0  0  0  0  0  0  0
    5.2636   -3.7938   -2.4677 C   0  0  0  0  0  0  0  0  0  0  0  0
    6.9181   -5.5082   -2.9858 O   0  0  0  0  0  0  0  0  0  0  0  0
    6.8767   -6.4965   -4.0390 C   0  0  0  0  0  0  0  0  0  0  0  0
    5.6474   -6.4805   -4.7956 O   0  0  0  0  0  0  0  0  0  0  0  0
    2.4854    0.8990    1.2538 C   0  0  0  0  0  0  0  0  0  0  0  0
    3.2535    2.0072    1.3472 N   0  0  0  0  0  0  0  0  0  0  0  0
    3.3862    2.2125    2.6599 N   0  0  0  0  0  0  0  0  0  0  0  0
    2.8214    1.2357    3.4239 C   0  0  0  0  0  0  0  0  0  0  0  0
    2.9503    0.9235    4.7757 C   0  0  0  0  0  0  0  0  0  0  0  0
    2.1331   -0.1000    5.2593 C   0  0  0  0  0  0  0  0  0  0  0  0
    1.1778   -0.7088    4.4426 C   0  0  0  0  0  0  0  0  0  0  0  0
    1.1149   -0.4215    3.0736 C   0  0  0  0  0  0  0  0  0  0  0  0
    2.0212    0.5132    2.5456 C   0  0  0  0  0  0  0  0  0  0  0  0
    1.5359    2.5655   -0.8011 H   0  0  0  0  0  0  0  0  0  0  0  0
    2.8028    4.1592   -2.1584 H   0  0  0  0  0  0  0  0  0  0  0  0
    4.8523    3.4095   -3.3439 H   0  0  0  0  0  0  0  0  0  0  0  0
    5.5059    1.0498   -3.3130 H   0  0  0  0  0  0  0  0  0  0  0  0
    5.0153   -1.0440   -2.8802 H   0  0  0  0  0  0  0  0  0  0  0  0
    2.4848   -1.7925   -2.4424 H   0  0  0  0  0  0  0  0  0  0  0  0
    3.3372   -2.4006   -0.9932 H   0  0  0  0  0  0  0  0  0  0  0  0
    2.3067   -3.4258   -4.1476 H   0  0  0  0  0  0  0  0  0  0  0  0
    3.2091   -5.3831   -5.3952 H   0  0  0  0  0  0  0  0  0  0  0  0
    5.8544   -3.3788   -1.6475 H   0  0  0  0  0  0  0  0  0  0  0  0
    7.0084   -7.4883   -3.5903 H   0  0  0  0  0  0  0  0  0  0  0  0
    7.7114   -6.3079   -4.7225 H   0  0  0  0  0  0  0  0  0  0  0  0
    3.9060    3.0256    2.9707 H   0  0  0  0  0  0  0  0  0  0  0  0
    3.6840    1.4128    5.4071 H   0  0  0  0  0  0  0  0  0  0  0  0
    2.2406   -0.4227    6.2920 H   0  0  0  0  0  0  0  0  0  0  0  0
    0.5045   -1.4514    4.8632 H   0  0  0  0  0  0  0  0  0  0  0  0
    0.4042   -0.9339    2.4307 H   0  0  0  0  0  0  0  0  0  0  0  0
  1  2  2  0  0  0  0
  2  3  1  0  0  0  0
  2 20  1  0  0  0  0
  3  4  1  0  0  0  0
  3  8  2  0  0  0  0
  4  5  2  0  0  0  0
  4 29  1  0  0  0  0
  5  6  1  0  0  0  0
  5 30  1  0  0  0  0
  6  7  2  0  0  0  0
  6 31  1  0  0  0  0
  7  8  1  0  0  0  0
  7 32  1  0  0  0  0
  8  9  1  0  0  0  0
  9 10  1  0  0  0  0
  9 33  1  0  0  0  0
 10 11  1  0  0  0  0
 10 34  1  0  0  0  0
 10 35  1  0  0  0  0
 11 12  1  0  0  0  0
 11 16  2  0  0  0  0
 12 13  2  0  0  0  0
 12 36  1  0  0  0  0
 13 14  1  0  0  0  0
 13 37  1  0  0  0  0
 14 15  2  0  0  0  0
 14 19  1  0  0  0  0
 15 16  1  0  0  0  0
 15 17  1  0  0  0  0
 16 38  1  0  0  0  0
 17 18  1  0  0  0  0
 18 19  1  0  0  0  0
 18 39  1  0  0  0  0
 18 40  1  0  0  0  0
 20 21  2  0  0  0  0
 20 28  1  0  0  0  0
 21 22  1  0  0  0  0
 22 23  1  0  0  0  0
 22 41  1  0  0  0  0
 23 24  1  0  0  0  0
 23 28  2  0  0  0  0
 24 25  2  0  0  0  0
 24 42  1  0  0  0  0
 25 26  1  0  0  0  0
 25 43  1  0  0  0  0
 26 27  2  0  0  0  0
 26 44  1  0  0  0  0
 27 28  1  0  0  0  0
 27 45  1  0  0  0  0
M  END
$$$$
