CHEMBL3903768
 OpenBabel04072215373D

 73 76  0  0  0  0  0  0  0  0999 V2000
    3.8358    0.6038    1.5373 C   0  0  0  0  0  0  0  0  0  0  0  0
    3.0308    1.3391    0.6901 O   0  0  0  0  0  0  0  0  0  0  0  0
    3.3394    1.6960   -0.5858 C   0  0  0  0  0  0  0  0  0  0  0  0
    2.3979    2.4233   -1.3191 C   0  0  0  0  0  0  0  0  0  0  0  0
    2.6599    2.8104   -2.6391 C   0  0  0  0  0  0  0  0  0  0  0  0
    1.6991    3.4978   -3.3114 O   0  0  0  0  0  0  0  0  0  0  0  0
    1.7640    3.8372   -4.6487 C   0  0  0  0  0  0  0  0  0  0  0  0
    0.5481    4.6656   -5.0513 C   0  0  0  0  0  0  0  0  0  0  0  0
   -0.6421    3.9624   -4.8198 O   0  0  0  0  0  0  0  0  0  0  0  0
    3.8982    2.4672   -3.2293 C   0  0  0  0  0  0  0  0  0  0  0  0
    4.8560    1.7340   -2.5158 C   0  0  0  0  0  0  0  0  0  0  0  0
    6.0763    1.3283   -3.1519 N   0  0  0  0  0  0  0  0  0  0  0  0
    6.6346   -0.0589   -2.9806 C   0  0  0  0  0  0  0  0  0  0  0  0
    5.7836   -1.2717   -2.4978 C   0  0  0  0  0  0  0  0  0  0  0  0
    4.7486   -1.9215   -3.4704 C   0  0  0  0  0  0  0  0  0  0  0  0
    5.3037   -2.5094   -4.7326 N   0  0  0  0  0  0  0  0  0  0  0  0
    4.2123   -3.1400   -5.5134 C   0  0  0  0  0  0  0  0  0  0  0  0
    4.1613   -4.5937   -5.0607 C   0  0  0  0  0  0  0  0  0  0  0  0
    5.6291   -4.9135   -5.0836 C   0  0  0  0  0  0  0  0  0  0  0  0
    6.2456   -3.6416   -4.4915 C   0  0  0  0  0  0  0  0  0  0  0  0
    6.9402    2.2062   -3.9449 C   0  0  0  0  0  0  0  0  0  0  0  0
    7.3466    1.6320   -5.1422 C   0  0  0  0  0  0  0  0  0  0  0  0
    8.3937    2.0996   -5.8363 C   0  0  0  0  0  0  0  0  0  0  0  0
    9.0655    3.2108   -5.4331 C   0  0  0  0  0  0  0  0  0  0  0  0
   10.1997    3.4245   -6.0866 N   0  0  0  0  0  0  0  0  0  0  0  0
   10.9378    4.4823   -5.8718 C   0  0  0  0  0  0  0  0  0  0  0  0
   10.5120    5.5096   -5.0250 C   0  0  0  0  0  0  0  0  0  0  0  0
   11.3367    6.8131   -5.2930 C   0  0  0  0  0  0  0  0  0  0  0  0
   12.2769    6.8943   -6.3535 C   0  0  0  0  0  0  0  0  0  0  0  0
   12.7604    8.1179   -6.4818 N   0  0  0  0  0  0  0  0  0  0  0  0
   12.1975    8.8749   -5.5744 N   0  0  0  0  0  0  0  0  0  0  0  0
   12.5030   10.3018   -5.5607 C   0  0  0  0  0  0  0  0  0  0  0  0
   11.3353    8.1371   -4.8028 C   0  0  0  0  0  0  0  0  0  0  0  0
    9.3782    5.2467   -4.2143 N   0  0  0  0  0  0  0  0  0  0  0  0
    8.6497    4.0381   -4.3770 C   0  0  0  0  0  0  0  0  0  0  0  0
    7.5297    3.5117   -3.5721 C   0  0  0  0  0  0  0  0  0  0  0  0
    4.5644    1.3549   -1.1916 C   0  0  0  0  0  0  0  0  0  0  0  0
    2.1174   -2.4992    1.0125 Cl  0  0  0  0  0  0  0  0  0  0  0  0
    3.3180    0.4679    2.5092 H   0  0  0  0  0  0  0  0  0  0  0  0
    4.7940    1.1351    1.7156 H   0  0  0  0  0  0  0  0  0  0  0  0
    4.0403   -0.3963    1.1011 H   0  0  0  0  0  0  0  0  0  0  0  0
    1.4502    2.6841   -0.8590 H   0  0  0  0  0  0  0  0  0  0  0  0
    1.8018    2.9116   -5.2654 H   0  0  0  0  0  0  0  0  0  0  0  0
    2.6735    4.4456   -4.8368 H   0  0  0  0  0  0  0  0  0  0  0  0
    0.6229    4.9515   -6.1248 H   0  0  0  0  0  0  0  0  0  0  0  0
    0.5313    5.6032   -4.4561 H   0  0  0  0  0  0  0  0  0  0  0  0
   -0.6488    3.1983   -5.4535 H   0  0  0  0  0  0  0  0  0  0  0  0
    4.1109    2.7304   -4.2547 H   0  0  0  0  0  0  0  0  0  0  0  0
    7.5164    0.0392   -2.3157 H   0  0  0  0  0  0  0  0  0  0  0  0
    7.0390   -0.4730   -3.9187 H   0  0  0  0  0  0  0  0  0  0  0  0
    5.2870   -1.0789   -1.5393 H   0  0  0  0  0  0  0  0  0  0  0  0
    6.5268   -2.0564   -2.2541 H   0  0  0  0  0  0  0  0  0  0  0  0
    3.9726   -1.1662   -3.7143 H   0  0  0  0  0  0  0  0  0  0  0  0
    4.2489   -2.7303   -2.8894 H   0  0  0  0  0  0  0  0  0  0  0  0
    4.4971   -3.1208   -6.5926 H   0  0  0  0  0  0  0  0  0  0  0  0
    3.2291   -2.6282   -5.4279 H   0  0  0  0  0  0  0  0  0  0  0  0
    3.5481   -5.2645   -5.7024 H   0  0  0  0  0  0  0  0  0  0  0  0
    3.7787   -4.6475   -4.0189 H   0  0  0  0  0  0  0  0  0  0  0  0
    5.9279   -5.0025   -6.1524 H   0  0  0  0  0  0  0  0  0  0  0  0
    5.9196   -5.8524   -4.5604 H   0  0  0  0  0  0  0  0  0  0  0  0
    7.2353   -3.4539   -4.9640 H   0  0  0  0  0  0  0  0  0  0  0  0
    6.3966   -3.8290   -3.4129 H   0  0  0  0  0  0  0  0  0  0  0  0
    6.8983    0.7376   -5.5287 H   0  0  0  0  0  0  0  0  0  0  0  0
    8.7358    1.5495   -6.7025 H   0  0  0  0  0  0  0  0  0  0  0  0
   11.8240    4.4770   -6.4551 H   0  0  0  0  0  0  0  0  0  0  0  0
   12.6069    6.1573   -7.0631 H   0  0  0  0  0  0  0  0  0  0  0  0
   13.1933   10.5409   -6.4116 H   0  0  0  0  0  0  0  0  0  0  0  0
   13.0120   10.5916   -4.6250 H   0  0  0  0  0  0  0  0  0  0  0  0
   11.5775   10.8871   -5.7298 H   0  0  0  0  0  0  0  0  0  0  0  0
   10.7396    8.5537   -4.0037 H   0  0  0  0  0  0  0  0  0  0  0  0
    7.2172    4.0295   -2.6605 H   0  0  0  0  0  0  0  0  0  0  0  0
    5.3013    0.8090   -0.6255 H   0  0  0  0  0  0  0  0  0  0  0  0
    2.3130   -2.0993   -0.2897 H   0  0  0  0  0  0  0  0  0  0  0  0
  1  2  1  0  0  0  0
  1 39  1  0  0  0  0
  1 40  1  0  0  0  0
  1 41  1  0  0  0  0
  2  3  1  0  0  0  0
  3  4  1  0  0  0  0
  3 37  2  0  0  0  0
  4  5  2  0  0  0  0
  4 42  1  0  0  0  0
  5  6  1  0  0  0  0
  5 10  1  0  0  0  0
  6  7  1  0  0  0  0
  7  8  1  0  0  0  0
  7 43  1  0  0  0  0
  7 44  1  0  0  0  0
  8  9  1  0  0  0  0
  8 45  1  0  0  0  0
  8 46  1  0  0  0  0
  9 47  1  0  0  0  0
 10 11  2  0  0  0  0
 10 48  1  0  0  0  0
 11 12  1  0  0  0  0
 11 37  1  0  0  0  0
 12 13  1  0  0  0  0
 12 21  1  0  0  0  0
 13 14  1  0  0  0  0
 13 49  1  0  0  0  0
 13 50  1  0  0  0  0
 14 15  1  0  0  0  0
 14 51  1  0  0  0  0
 14 52  1  0  0  0  0
 15 16  1  0  0  0  0
 15 53  1  0  0  0  0
 15 54  1  0  0  0  0
 16 17  1  0  0  0  0
 16 20  1  0  0  0  0
 17 18  1  0  0  0  0
 17 55  1  0  0  0  0
 17 56  1  0  0  0  0
 18 19  1  0  0  0  0
 18 57  1  0  0  0  0
 18 58  1  0  0  0  0
 19 20  1  0  0  0  0
 19 59  1  0  0  0  0
 19 60  1  0  0  0  0
 20 61  1  0  0  0  0
 20 62  1  0  0  0  0
 21 22  1  0  0  0  0
 21 36  2  0  0  0  0
 22 23  2  0  0  0  0
 22 63  1  0  0  0  0
 23 24  1  0  0  0  0
 23 64  1  0  0  0  0
 24 25  1  0  0  0  0
 24 35  2  0  0  0  0
 25 26  2  0  0  0  0
 26 27  1  0  0  0  0
 26 65  1  0  0  0  0
 27 28  1  0  0  0  0
 27 34  2  0  0  0  0
 28 29  1  0  0  0  0
 28 33  2  0  0  0  0
 29 30  2  0  0  0  0
 29 66  1  0  0  0  0
 30 31  1  0  0  0  0
 31 32  1  0  0  0  0
 31 33  1  0  0  0  0
 32 67  1  0  0  0  0
 32 68  1  0  0  0  0
 32 69  1  0  0  0  0
 33 70  1  0  0  0  0
 34 35  1  0  0  0  0
 35 36  1  0  0  0  0
 36 71  1  0  0  0  0
 37 72  1  0  0  0  0
 38 73  1  0  0  0  0
M  END
$$$$
