CHEMBL358843
 OpenBabel04072215363D

 62 67  0  0  0  0  0  0  0  0999 V2000
    5.1052   -0.4675   -2.9983 C   0  0  0  0  0  0  0  0  0  0  0  0
    4.7856   -0.3993   -1.5072 C   0  0  0  0  0  0  0  0  0  0  0  0
    5.1753   -1.7009   -0.8199 C   0  0  0  0  0  0  0  0  0  0  0  0
    5.6919    1.0168   -0.7848 S   0  3  3  0  0  0  0  0  0  0  0  0
    5.2278    2.2966   -1.5786 O   0  5  0  0  0  0  0  0  0  0  0  0
    4.8390    1.0087    0.8379 C   0  0  0  0  0  0  0  0  0  0  0  0
    5.3221    2.1409    1.6946 C   0  0  0  0  0  0  0  0  0  0  0  0
    6.1528    1.9142    2.7950 C   0  0  0  0  0  0  0  0  0  0  0  0
    6.7257    2.9717    3.5042 C   0  0  0  0  0  0  0  0  0  0  0  0
    6.4816    4.2754    3.0519 C   0  0  0  0  0  0  0  0  0  0  0  0
    5.6043    4.5004    1.9806 C   0  0  0  0  0  0  0  0  0  0  0  0
    4.9814    3.4362    1.3325 C   0  0  0  0  0  0  0  0  0  0  0  0
    5.5552    5.8779    1.8975 C   0  0  0  0  0  0  0  0  0  0  0  0
    4.3412    6.5721    1.6231 C   0  0  0  0  0  0  0  0  0  0  0  0
    4.1042    7.7670    2.4271 C   0  0  0  0  0  0  0  0  0  0  0  0
    5.0584    8.1540    3.3592 C   0  0  0  0  0  0  0  0  0  0  0  0
    6.3047    7.8470    2.8293 C   0  0  0  0  0  0  0  0  0  0  0  0
    6.4970    6.5153    2.6517 C   0  0  0  0  0  0  0  0  0  0  0  0
    6.8699    5.5233    3.5739 N   0  0  0  0  0  0  0  0  0  0  0  0
    6.9816    5.7971    5.0074 C   0  0  0  0  0  0  0  0  0  0  0  0
    7.8865    4.9692    5.9058 C   0  0  0  0  0  0  0  0  0  0  0  0
    9.3321    5.0315    5.4557 C   0  0  0  0  0  0  0  0  0  0  0  0
   10.1269    4.2236    6.3111 O   0  0  0  0  0  0  0  0  0  0  0  0
    7.1913    9.0190    2.9337 C   0  0  0  0  0  0  0  0  0  0  0  0
    6.7832    9.4093    4.3254 C   0  0  0  0  0  0  0  0  0  0  0  0
    7.7746    9.5121    5.3054 C   0  0  0  0  0  0  0  0  0  0  0  0
    7.4609    9.0848    6.5811 C   0  0  0  0  0  0  0  0  0  0  0  0
    6.1510    8.6619    6.8648 C   0  0  0  0  0  0  0  0  0  0  0  0
    5.1284    8.6252    5.8673 C   0  0  0  0  0  0  0  0  0  0  0  0
    5.4316    8.9732    4.5324 C   0  0  0  0  0  0  0  0  0  0  0  0
    3.1367    8.5324    1.6671 C   0  0  0  0  0  0  0  0  0  0  0  0
    2.7303    9.6826    1.7785 O   0  0  0  0  0  0  0  0  0  0  0  0
    2.8516    7.7596    0.5244 N   0  0  0  0  0  0  0  0  0  0  0  0
    3.5096    6.4691    0.4321 C   0  0  0  0  0  0  0  0  0  0  0  0
    4.5749   -1.3002   -3.4706 H   0  0  0  0  0  0  0  0  0  0  0  0
    6.1790   -0.6034   -3.1711 H   0  0  0  0  0  0  0  0  0  0  0  0
    4.8024    0.4514   -3.5126 H   0  0  0  0  0  0  0  0  0  0  0  0
    3.7143   -0.2085   -1.3798 H   0  0  0  0  0  0  0  0  0  0  0  0
    6.2607   -1.8494   -0.8234 H   0  0  0  0  0  0  0  0  0  0  0  0
    4.7098   -2.5560   -1.3206 H   0  0  0  0  0  0  0  0  0  0  0  0
    4.8416   -1.7260    0.2212 H   0  0  0  0  0  0  0  0  0  0  0  0
    5.0530    0.0622    1.3379 H   0  0  0  0  0  0  0  0  0  0  0  0
    3.7593    1.0878    0.6791 H   0  0  0  0  0  0  0  0  0  0  0  0
    6.3878    0.9010    3.1115 H   0  0  0  0  0  0  0  0  0  0  0  0
    7.3603    2.7576    4.3538 H   0  0  0  0  0  0  0  0  0  0  0  0
    4.3471    3.6345    0.4684 H   0  0  0  0  0  0  0  0  0  0  0  0
    5.9575    5.7647    5.4078 H   0  0  0  0  0  0  0  0  0  0  0  0
    7.3414    6.8178    5.0859 H   0  0  0  0  0  0  0  0  0  0  0  0
    7.5415    3.9384    6.0077 H   0  0  0  0  0  0  0  0  0  0  0  0
    7.8200    5.3676    6.9287 H   0  0  0  0  0  0  0  0  0  0  0  0
    9.7091    6.0590    5.4937 H   0  0  0  0  0  0  0  0  0  0  0  0
    9.4437    4.6591    4.4349 H   0  0  0  0  0  0  0  0  0  0  0  0
   10.1065    4.6210    7.1985 H   0  0  0  0  0  0  0  0  0  0  0  0
    6.8383    9.8093    2.2507 H   0  0  0  0  0  0  0  0  0  0  0  0
    8.2422    8.8109    2.7536 H   0  0  0  0  0  0  0  0  0  0  0  0
    8.8113    9.6661    5.0097 H   0  0  0  0  0  0  0  0  0  0  0  0
    8.2631    8.9597    7.3077 H   0  0  0  0  0  0  0  0  0  0  0  0
    5.9640    8.2372    7.8522 H   0  0  0  0  0  0  0  0  0  0  0  0
    4.2055    8.1083    6.1232 H   0  0  0  0  0  0  0  0  0  0  0  0
    2.5295    8.2406   -0.3042 H   0  0  0  0  0  0  0  0  0  0  0  0
    4.1226    6.4147   -0.4737 H   0  0  0  0  0  0  0  0  0  0  0  0
    2.7639    5.6721    0.4646 H   0  0  0  0  0  0  0  0  0  0  0  0
  1  2  1  0  0  0  0
  1 35  1  0  0  0  0
  1 36  1  0  0  0  0
  1 37  1  0  0  0  0
  2  3  1  0  0  0  0
  2  4  1  0  0  0  0
  2 38  1  0  0  0  0
  3 39  1  0  0  0  0
  3 40  1  0  0  0  0
  3 41  1  0  0  0  0
  4  5  1  0  0  0  0
  4  6  1  0  0  0  0
  6  7  1  0  0  0  0
  6 42  1  0  0  0  0
  6 43  1  0  0  0  0
  7  8  1  0  0  0  0
  7 12  2  0  0  0  0
  8  9  2  0  0  0  0
  8 44  1  0  0  0  0
  9 10  1  0  0  0  0
  9 45  1  0  0  0  0
 10 11  2  0  0  0  0
 10 19  1  0  0  0  0
 11 12  1  0  0  0  0
 11 13  1  0  0  0  0
 12 46  1  0  0  0  0
 13 14  1  0  0  0  0
 13 18  2  0  0  0  0
 14 15  2  0  0  0  0
 14 34  1  0  0  0  0
 15 16  1  0  0  0  0
 15 31  1  0  0  0  0
 16 17  2  0  0  0  0
 16 30  1  0  0  0  0
 17 18  1  0  0  0  0
 17 24  1  0  0  0  0
 18 19  1  0  0  0  0
 19 20  1  0  0  0  0
 20 21  1  0  0  0  0
 20 47  1  0  0  0  0
 20 48  1  0  0  0  0
 21 22  1  0  0  0  0
 21 49  1  0  0  0  0
 21 50  1  0  0  0  0
 22 23  1  0  0  0  0
 22 51  1  0  0  0  0
 22 52  1  0  0  0  0
 23 53  1  0  0  0  0
 24 25  1  0  0  0  0
 24 54  1  0  0  0  0
 24 55  1  0  0  0  0
 25 26  1  0  0  0  0
 25 30  2  0  0  0  0
 26 27  2  0  0  0  0
 26 56  1  0  0  0  0
 27 28  1  0  0  0  0
 27 57  1  0  0  0  0
 28 29  2  0  0  0  0
 28 58  1  0  0  0  0
 29 30  1  0  0  0  0
 29 59  1  0  0  0  0
 31 32  2  0  0  0  0
 31 33  1  0  0  0  0
 33 34  1  0  0  0  0
 33 60  1  0  0  0  0
 34 61  1  0  0  0  0
 34 62  1  0  0  0  0
M  CHG  2   4   1   5  -1
M  END
$$$$
