CHEMBL3919076
 OpenBabel04072215373D

 50 53  0  0  0  0  0  0  0  0999 V2000
    2.4051   -0.5939    0.2782 C   0  0  0  0  0  0  0  0  0  0  0  0
    1.0169   -0.2556   -0.1327 C   0  0  0  0  0  0  0  0  0  0  0  0
    0.5556    1.0292   -0.5426 C   0  0  0  0  0  0  0  0  0  0  0  0
   -0.7766    0.8932   -0.8370 C   0  0  0  0  0  0  0  0  0  0  0  0
   -1.1828   -0.3834   -0.6426 O   0  0  0  0  0  0  0  0  0  0  0  0
   -0.0910   -1.0941   -0.2029 C   0  0  0  0  0  0  0  0  0  0  0  0
   -0.2532   -2.5110    0.0880 C   0  0  0  0  0  0  0  0  0  0  0  0
    0.6697   -3.1890    0.5187 O   0  0  0  0  0  0  0  0  0  0  0  0
   -1.5278   -2.9891   -0.2075 N   0  0  0  0  0  0  0  0  0  0  0  0
   -1.9851   -4.3118   -0.0424 C   0  0  0  0  0  0  0  0  0  0  0  0
   -1.3060   -5.2504    0.7395 C   0  0  0  0  0  0  0  0  0  0  0  0
   -1.7327   -6.5755    0.8045 C   0  0  0  0  0  0  0  0  0  0  0  0
   -2.8634   -6.9718    0.1034 C   0  0  0  0  0  0  0  0  0  0  0  0
   -3.6306   -6.0186   -0.5709 C   0  0  0  0  0  0  0  0  0  0  0  0
   -4.8311   -6.3025   -1.1851 O   0  0  0  0  0  0  0  0  0  0  0  0
   -5.6619   -7.2626   -0.6415 C   0  0  0  0  0  0  0  0  0  0  0  0
   -5.7370   -7.5550    0.7210 C   0  0  0  0  0  0  0  0  0  0  0  0
   -6.5468   -8.5893    1.1442 C   0  0  0  0  0  0  0  0  0  0  0  0
   -7.3508   -9.3175    0.3507 N   0  0  0  0  0  0  0  0  0  0  0  0
   -7.3521   -8.9714   -0.9643 C   0  0  0  0  0  0  0  0  0  0  0  0
   -8.1624   -9.5767   -1.9677 C   0  0  0  0  0  0  0  0  0  0  0  0
   -7.9686   -9.0252   -3.2190 C   0  0  0  0  0  0  0  0  0  0  0  0
   -8.6359   -9.3964   -4.4587 C   0  0  0  0  0  0  0  0  0  0  0  0
   -9.4855  -10.2798   -4.5258 O   0  0  0  0  0  0  0  0  0  0  0  0
   -8.2501   -8.6776   -5.5702 N   0  0  0  0  0  0  0  0  0  0  0  0
   -8.7813   -8.9272   -6.8965 C   0  0  0  0  0  0  0  0  0  0  0  0
  -10.0227   -8.0834   -7.1730 C   0  0  0  0  0  0  0  0  0  0  0  0
   -9.6986   -6.6950   -7.0989 O   0  0  0  0  0  0  0  0  0  0  0  0
   -6.7848   -7.7898   -3.1717 S   0  0  0  0  0  0  0  0  0  0  0  0
   -6.5364   -7.9675   -1.4840 C   0  0  0  0  0  0  0  0  0  0  0  0
   -3.1716   -4.6989   -0.6774 C   0  0  0  0  0  0  0  0  0  0  0  0
    3.0625    0.2742    0.1733 H   0  0  0  0  0  0  0  0  0  0  0  0
    2.8146   -1.3941   -0.3461 H   0  0  0  0  0  0  0  0  0  0  0  0
    2.4411   -0.9106    1.3259 H   0  0  0  0  0  0  0  0  0  0  0  0
    1.1358    1.9388   -0.6142 H   0  0  0  0  0  0  0  0  0  0  0  0
   -1.5366    1.5769   -1.1833 H   0  0  0  0  0  0  0  0  0  0  0  0
   -2.1407   -2.3271   -0.6777 H   0  0  0  0  0  0  0  0  0  0  0  0
   -0.4321   -4.9781    1.3234 H   0  0  0  0  0  0  0  0  0  0  0  0
   -1.1825   -7.2927    1.4072 H   0  0  0  0  0  0  0  0  0  0  0  0
   -3.1547   -8.0181    0.1325 H   0  0  0  0  0  0  0  0  0  0  0  0
   -5.1448   -7.0156    1.4523 H   0  0  0  0  0  0  0  0  0  0  0  0
   -6.5563   -8.8754    2.1935 H   0  0  0  0  0  0  0  0  0  0  0  0
   -8.8616  -10.3809   -1.7720 H   0  0  0  0  0  0  0  0  0  0  0  0
   -7.5641   -7.9422   -5.4516 H   0  0  0  0  0  0  0  0  0  0  0  0
   -9.0147   -9.9909   -7.0015 H   0  0  0  0  0  0  0  0  0  0  0  0
   -7.9822   -8.6680   -7.5987 H   0  0  0  0  0  0  0  0  0  0  0  0
  -10.8218   -8.2909   -6.4542 H   0  0  0  0  0  0  0  0  0  0  0  0
  -10.3980   -8.2863   -8.1802 H   0  0  0  0  0  0  0  0  0  0  0  0
   -9.4295   -6.5263   -6.1793 H   0  0  0  0  0  0  0  0  0  0  0  0
   -3.7433   -3.9926   -1.2748 H   0  0  0  0  0  0  0  0  0  0  0  0
  1  2  1  0  0  0  0
  1 32  1  0  0  0  0
  1 33  1  0  0  0  0
  1 34  1  0  0  0  0
  2  3  1  0  0  0  0
  2  6  2  0  0  0  0
  3  4  2  0  0  0  0
  3 35  1  0  0  0  0
  4  5  1  0  0  0  0
  4 36  1  0  0  0  0
  5  6  1  0  0  0  0
  6  7  1  0  0  0  0
  7  8  2  0  0  0  0
  7  9  1  0  0  0  0
  9 10  1  0  0  0  0
  9 37  1  0  0  0  0
 10 11  1  0  0  0  0
 10 31  2  0  0  0  0
 11 12  2  0  0  0  0
 11 38  1  0  0  0  0
 12 13  1  0  0  0  0
 12 39  1  0  0  0  0
 13 14  2  0  0  0  0
 13 40  1  0  0  0  0
 14 15  1  0  0  0  0
 14 31  1  0  0  0  0
 15 16  1  0  0  0  0
 16 17  1  0  0  0  0
 16 30  2  0  0  0  0
 17 18  2  0  0  0  0
 17 41  1  0  0  0  0
 18 19  1  0  0  0  0
 18 42  1  0  0  0  0
 19 20  2  0  0  0  0
 20 21  1  0  0  0  0
 20 30  1  0  0  0  0
 21 22  2  0  0  0  0
 21 43  1  0  0  0  0
 22 23  1  0  0  0  0
 22 29  1  0  0  0  0
 23 24  2  0  0  0  0
 23 25  1  0  0  0  0
 25 26  1  0  0  0  0
 25 44  1  0  0  0  0
 26 27  1  0  0  0  0
 26 45  1  0  0  0  0
 26 46  1  0  0  0  0
 27 28  1  0  0  0  0
 27 47  1  0  0  0  0
 27 48  1  0  0  0  0
 28 49  1  0  0  0  0
 29 30  1  0  0  0  0
 31 50  1  0  0  0  0
M  END
$$$$
