CHEMBL3754709
 OpenBabel04072215373D

 41 43  0  0  0  0  0  0  0  0999 V2000
    0.9110   -0.0964   -0.1917 C   0  0  0  0  0  0  0  0  0  0  0  0
    2.2965    0.2050   -0.3343 O   0  0  0  0  0  0  0  0  0  0  0  0
    2.9738    0.5965    0.7944 C   0  0  0  0  0  0  0  0  0  0  0  0
    2.4947    0.3002    2.0707 C   0  0  0  0  0  0  0  0  0  0  0  0
    3.2234    0.6277    3.1974 C   0  0  0  0  0  0  0  0  0  0  0  0
    2.7744    0.3592    4.4972 N   0  0  0  0  0  0  0  0  0  0  0  0
    1.6592   -0.3360    4.9155 C   0  0  0  0  0  0  0  0  0  0  0  0
    0.7950   -0.8200    4.1901 O   0  0  0  0  0  0  0  0  0  0  0  0
    1.5665   -0.5507    6.2683 N   0  0  0  0  0  0  0  0  0  0  0  0
    2.4574   -0.0733    7.1869 C   0  0  0  0  0  0  0  0  0  0  0  0
    3.4223    0.7885    6.9614 N   0  0  0  0  0  0  0  0  0  0  0  0
    4.1599    0.9512    8.1124 C   0  0  0  0  0  0  0  0  0  0  0  0
    3.7527    0.1853    9.1833 C   0  0  0  0  0  0  0  0  0  0  0  0
    2.3414   -0.7035    8.7594 S   0  0  0  0  0  0  0  0  0  0  0  0
    4.4852    1.2235    3.0538 C   0  0  0  0  0  0  0  0  0  0  0  0
    5.0403    1.5134    1.7860 C   0  0  0  0  0  0  0  0  0  0  0  0
    6.4441    2.0275    1.7009 C   0  0  0  0  0  0  0  0  0  0  0  0
    7.0249    2.8363    2.6939 C   0  0  0  0  0  0  0  0  0  0  0  0
    8.3668    3.2267    2.6177 C   0  0  0  0  0  0  0  0  0  0  0  0
    9.1113    2.8178    1.5282 C   0  0  0  0  0  0  0  0  0  0  0  0
    8.6141    2.0526    0.5419 N   0  0  0  0  0  0  0  0  0  0  0  0
    7.3118    1.6750    0.6589 C   0  0  0  0  0  0  0  0  0  0  0  0
    4.2262    1.2396    0.6487 C   0  0  0  0  0  0  0  0  0  0  0  0
    4.7612    1.6086   -0.5653 O   0  0  0  0  0  0  0  0  0  0  0  0
    3.8648    1.9624   -1.6102 C   0  0  0  0  0  0  0  0  0  0  0  0
    0.5185   -0.3348   -1.1842 H   0  0  0  0  0  0  0  0  0  0  0  0
    0.3640    0.7722    0.1905 H   0  0  0  0  0  0  0  0  0  0  0  0
    0.7466   -0.9793    0.4345 H   0  0  0  0  0  0  0  0  0  0  0  0
    1.5486   -0.2067    2.1924 H   0  0  0  0  0  0  0  0  0  0  0  0
    3.3633    0.7038    5.2509 H   0  0  0  0  0  0  0  0  0  0  0  0
    0.8300   -1.1646    6.5733 H   0  0  0  0  0  0  0  0  0  0  0  0
    4.9992    1.6358    8.1074 H   0  0  0  0  0  0  0  0  0  0  0  0
    4.1979    0.1178   10.1653 H   0  0  0  0  0  0  0  0  0  0  0  0
    5.0686    1.4153    3.9522 H   0  0  0  0  0  0  0  0  0  0  0  0
    6.4473    3.1739    3.5505 H   0  0  0  0  0  0  0  0  0  0  0  0
    8.8201    3.8326    3.3944 H   0  0  0  0  0  0  0  0  0  0  0  0
   10.1554    3.0964    1.4185 H   0  0  0  0  0  0  0  0  0  0  0  0
    6.9885    1.0264   -0.1504 H   0  0  0  0  0  0  0  0  0  0  0  0
    4.4210    2.5699   -2.3306 H   0  0  0  0  0  0  0  0  0  0  0  0
    3.0235    2.5647   -1.2509 H   0  0  0  0  0  0  0  0  0  0  0  0
    3.5274    1.0703   -2.1456 H   0  0  0  0  0  0  0  0  0  0  0  0
  1  2  1  0  0  0  0
  1 26  1  0  0  0  0
  1 27  1  0  0  0  0
  1 28  1  0  0  0  0
  2  3  1  0  0  0  0
  3  4  1  0  0  0  0
  3 23  2  0  0  0  0
  4  5  2  0  0  0  0
  4 29  1  0  0  0  0
  5  6  1  0  0  0  0
  5 15  1  0  0  0  0
  6  7  1  0  0  0  0
  6 30  1  0  0  0  0
  7  8  2  0  0  0  0
  7  9  1  0  0  0  0
  9 10  1  0  0  0  0
  9 31  1  0  0  0  0
 10 11  2  0  0  0  0
 10 14  1  0  0  0  0
 11 12  1  0  0  0  0
 12 13  2  0  0  0  0
 12 32  1  0  0  0  0
 13 14  1  0  0  0  0
 13 33  1  0  0  0  0
 15 16  2  0  0  0  0
 15 34  1  0  0  0  0
 16 17  1  0  0  0  0
 16 23  1  0  0  0  0
 17 18  1  0  0  0  0
 17 22  2  0  0  0  0
 18 19  2  0  0  0  0
 18 35  1  0  0  0  0
 19 20  1  0  0  0  0
 19 36  1  0  0  0  0
 20 21  2  0  0  0  0
 20 37  1  0  0  0  0
 21 22  1  0  0  0  0
 22 38  1  0  0  0  0
 23 24  1  0  0  0  0
 24 25  1  0  0  0  0
 25 39  1  0  0  0  0
 25 40  1  0  0  0  0
 25 41  1  0  0  0  0
M  END
$$$$
