CHEMBL3752404
 OpenBabel04072215373D

 39 41  0  0  0  0  0  0  0  0999 V2000
    2.5115   -0.5019    1.2243 O   0  0  0  0  0  0  0  0  0  0  0  0
    2.1297   -0.4718    0.0594 C   0  0  0  0  0  0  0  0  0  0  0  0
    0.7932   -0.4563   -0.3084 N   0  0  0  0  0  0  0  0  0  0  0  0
   -0.2949   -0.5157    0.5989 C   0  0  0  0  0  0  0  0  0  0  0  0
   -0.1728   -0.2698    1.9660 C   0  0  0  0  0  0  0  0  0  0  0  0
   -1.2794   -0.4481    2.7787 C   0  0  0  0  0  0  0  0  0  0  0  0
   -2.4887   -0.8283    2.3226 N   0  0  0  0  0  0  0  0  0  0  0  0
   -2.5956   -1.0233    0.9924 C   0  0  0  0  0  0  0  0  0  0  0  0
   -1.5462   -0.8694    0.0980 C   0  0  0  0  0  0  0  0  0  0  0  0
    2.9733   -0.4888   -1.0419 N   0  0  0  0  0  0  0  0  0  0  0  0
    4.3782   -0.6660   -1.0112 C   0  0  0  0  0  0  0  0  0  0  0  0
    5.1093   -0.8444    0.1695 C   0  0  0  0  0  0  0  0  0  0  0  0
    6.4965   -1.0755    0.1849 C   0  0  0  0  0  0  0  0  0  0  0  0
    7.2080   -1.3260    1.4579 C   0  0  0  0  0  0  0  0  0  0  0  0
    6.5997   -2.0024    2.5287 C   0  0  0  0  0  0  0  0  0  0  0  0
    7.2935   -2.2394    3.7138 C   0  0  0  0  0  0  0  0  0  0  0  0
    8.5995   -1.7988    3.8064 C   0  0  0  0  0  0  0  0  0  0  0  0
    9.2360   -1.1445    2.8131 N   0  0  0  0  0  0  0  0  0  0  0  0
    8.5266   -0.9211    1.6780 C   0  0  0  0  0  0  0  0  0  0  0  0
    7.1538   -1.0947   -1.0523 C   0  0  0  0  0  0  0  0  0  0  0  0
    6.4535   -0.9202   -2.2586 C   0  0  0  0  0  0  0  0  0  0  0  0
    7.1740   -1.0117   -3.5809 C   0  0  0  0  0  0  0  0  0  0  0  0
    8.5106   -1.2422   -3.4609 F   0  0  0  0  0  0  0  0  0  0  0  0
    6.6899   -2.0190   -4.3592 F   0  0  0  0  0  0  0  0  0  0  0  0
    7.0539    0.1239   -4.3214 F   0  0  0  0  0  0  0  0  0  0  0  0
    5.0644   -0.7018   -2.2260 C   0  0  0  0  0  0  0  0  0  0  0  0
    0.5824   -0.6426   -1.2771 H   0  0  0  0  0  0  0  0  0  0  0  0
    0.7514    0.0539    2.4287 H   0  0  0  0  0  0  0  0  0  0  0  0
   -1.2088   -0.2899    3.8512 H   0  0  0  0  0  0  0  0  0  0  0  0
   -3.5803   -1.3303    0.6529 H   0  0  0  0  0  0  0  0  0  0  0  0
   -1.7134   -1.0582   -0.9555 H   0  0  0  0  0  0  0  0  0  0  0  0
    2.5520   -0.3481   -1.9470 H   0  0  0  0  0  0  0  0  0  0  0  0
    4.6071   -0.8094    1.1300 H   0  0  0  0  0  0  0  0  0  0  0  0
    5.5760   -2.3640    2.4526 H   0  0  0  0  0  0  0  0  0  0  0  0
    6.8216   -2.7589    4.5402 H   0  0  0  0  0  0  0  0  0  0  0  0
    9.1856   -1.9666    4.7035 H   0  0  0  0  0  0  0  0  0  0  0  0
    9.0825   -0.3729    0.9219 H   0  0  0  0  0  0  0  0  0  0  0  0
    8.2270   -1.2815   -1.0925 H   0  0  0  0  0  0  0  0  0  0  0  0
    4.5302   -0.5764   -3.1660 H   0  0  0  0  0  0  0  0  0  0  0  0
  1  2  2  0  0  0  0
  2  3  1  0  0  0  0
  2 10  1  0  0  0  0
  3  4  1  0  0  0  0
  3 27  1  0  0  0  0
  4  5  1  0  0  0  0
  4  9  2  0  0  0  0
  5  6  2  0  0  0  0
  5 28  1  0  0  0  0
  6  7  1  0  0  0  0
  6 29  1  0  0  0  0
  7  8  2  0  0  0  0
  8  9  1  0  0  0  0
  8 30  1  0  0  0  0
  9 31  1  0  0  0  0
 10 11  1  0  0  0  0
 10 32  1  0  0  0  0
 11 12  1  0  0  0  0
 11 26  2  0  0  0  0
 12 13  2  0  0  0  0
 12 33  1  0  0  0  0
 13 14  1  0  0  0  0
 13 20  1  0  0  0  0
 14 15  1  0  0  0  0
 14 19  2  0  0  0  0
 15 16  2  0  0  0  0
 15 34  1  0  0  0  0
 16 17  1  0  0  0  0
 16 35  1  0  0  0  0
 17 18  2  0  0  0  0
 17 36  1  0  0  0  0
 18 19  1  0  0  0  0
 19 37  1  0  0  0  0
 20 21  2  0  0  0  0
 20 38  1  0  0  0  0
 21 22  1  0  0  0  0
 21 26  1  0  0  0  0
 22 23  1  0  0  0  0
 22 24  1  0  0  0  0
 22 25  1  0  0  0  0
 26 39  1  0  0  0  0
M  END
$$$$
