CHEMBL394436
 OpenBabel04072215373D

 40 42  0  0  0  0  0  0  0  0999 V2000
   -2.1146   -0.0269   -0.0478 C   0  0  0  0  0  0  0  0  0  0  0  0
   -0.6708   -0.1441   -0.0206 N   0  0  0  0  0  0  0  0  0  0  0  0
    0.0660    0.9822   -0.0153 N   0  0  0  0  0  0  0  0  0  0  0  0
    1.3152    0.5339    0.0726 C   0  0  0  0  0  0  0  0  0  0  0  0
    1.3848   -0.8777    0.1169 C   0  0  0  0  0  0  0  0  0  0  0  0
    2.5481   -1.5757    0.1998 N   0  0  0  0  0  0  0  0  0  0  0  0
    2.8172   -2.7552   -0.6196 C   0  0  0  0  0  0  0  0  0  0  0  0
    3.3240   -3.8919    0.2379 C   0  0  0  0  0  0  0  0  0  0  0  0
    3.0130   -5.2112   -0.1097 C   0  0  0  0  0  0  0  0  0  0  0  0
    3.4703   -6.2430    0.6955 C   0  0  0  0  0  0  0  0  0  0  0  0
    4.2250   -6.0553    1.7975 N   0  0  0  0  0  0  0  0  0  0  0  0
    4.5439   -4.7818    2.1045 C   0  0  0  0  0  0  0  0  0  0  0  0
    4.1286   -3.6842    1.3653 C   0  0  0  0  0  0  0  0  0  0  0  0
    0.0709   -1.3091    0.0679 C   0  0  0  0  0  0  0  0  0  0  0  0
   -0.5607   -2.6106    0.0653 C   0  0  0  0  0  0  0  0  0  0  0  0
   -1.6270   -2.7755   -0.5235 O   0  0  0  0  0  0  0  0  0  0  0  0
    0.0690   -3.5985    0.8000 N   0  0  0  0  0  0  0  0  0  0  0  0
   -0.3666   -4.9430    0.9084 C   0  0  0  0  0  0  0  0  0  0  0  0
   -1.2812   -5.5154    0.0135 C   0  0  0  0  0  0  0  0  0  0  0  0
   -1.7436   -6.8214    0.1868 C   0  0  0  0  0  0  0  0  0  0  0  0
   -1.2808   -7.5822    1.2527 C   0  0  0  0  0  0  0  0  0  0  0  0
   -0.3302   -7.0414    2.1172 C   0  0  0  0  0  0  0  0  0  0  0  0
    0.2572   -7.9977    3.4229 Cl  0  0  0  0  0  0  0  0  0  0  0  0
    0.1379   -5.7332    1.9452 C   0  0  0  0  0  0  0  0  0  0  0  0
   -2.3949    1.0277    0.0296 H   0  0  0  0  0  0  0  0  0  0  0  0
   -2.5257   -0.5735    0.8037 H   0  0  0  0  0  0  0  0  0  0  0  0
   -2.4793   -0.4314   -0.9944 H   0  0  0  0  0  0  0  0  0  0  0  0
    2.1232    1.2534    0.0808 H   0  0  0  0  0  0  0  0  0  0  0  0
    3.3946   -1.0085    0.2560 H   0  0  0  0  0  0  0  0  0  0  0  0
    3.5863   -2.5099   -1.3627 H   0  0  0  0  0  0  0  0  0  0  0  0
    1.9288   -3.0679   -1.1808 H   0  0  0  0  0  0  0  0  0  0  0  0
    2.3969   -5.4385   -0.9742 H   0  0  0  0  0  0  0  0  0  0  0  0
    3.2210   -7.2773    0.4740 H   0  0  0  0  0  0  0  0  0  0  0  0
    5.1591   -4.6594    2.9911 H   0  0  0  0  0  0  0  0  0  0  0  0
    4.4215   -2.6897    1.6826 H   0  0  0  0  0  0  0  0  0  0  0  0
    0.8416   -3.2997    1.3919 H   0  0  0  0  0  0  0  0  0  0  0  0
   -1.6530   -4.9694   -0.8487 H   0  0  0  0  0  0  0  0  0  0  0  0
   -2.4714   -7.2309   -0.5092 H   0  0  0  0  0  0  0  0  0  0  0  0
   -1.6601   -8.5889    1.4010 H   0  0  0  0  0  0  0  0  0  0  0  0
    0.8794   -5.3413    2.6362 H   0  0  0  0  0  0  0  0  0  0  0  0
  1  2  1  0  0  0  0
  1 25  1  0  0  0  0
  1 26  1  0  0  0  0
  1 27  1  0  0  0  0
  2  3  1  0  0  0  0
  2 14  1  0  0  0  0
  3  4  2  0  0  0  0
  4  5  1  0  0  0  0
  4 28  1  0  0  0  0
  5  6  1  0  0  0  0
  5 14  2  0  0  0  0
  6  7  1  0  0  0  0
  6 29  1  0  0  0  0
  7  8  1  0  0  0  0
  7 30  1  0  0  0  0
  7 31  1  0  0  0  0
  8  9  1  0  0  0  0
  8 13  2  0  0  0  0
  9 10  2  0  0  0  0
  9 32  1  0  0  0  0
 10 11  1  0  0  0  0
 10 33  1  0  0  0  0
 11 12  2  0  0  0  0
 12 13  1  0  0  0  0
 12 34  1  0  0  0  0
 13 35  1  0  0  0  0
 14 15  1  0  0  0  0
 15 16  2  0  0  0  0
 15 17  1  0  0  0  0
 17 18  1  0  0  0  0
 17 36  1  0  0  0  0
 18 19  1  0  0  0  0
 18 24  2  0  0  0  0
 19 20  2  0  0  0  0
 19 37  1  0  0  0  0
 20 21  1  0  0  0  0
 20 38  1  0  0  0  0
 21 22  2  0  0  0  0
 21 39  1  0  0  0  0
 22 23  1  0  0  0  0
 22 24  1  0  0  0  0
 24 40  1  0  0  0  0
M  END
$$$$
