CHEMBL4528844
 OpenBabel04072215383D

 47 50  0  0  0  0  0  0  0  0999 V2000
    2.8503    0.0449    1.2173 C   0  0  0  0  0  0  0  0  0  0  0  0
    2.4385    0.1040   -0.1465 O   0  0  0  0  0  0  0  0  0  0  0  0
    3.0354   -0.8867   -0.8969 C   0  0  0  0  0  0  0  0  0  0  0  0
    3.0887   -0.6942   -2.2644 C   0  0  0  0  0  0  0  0  0  0  0  0
    3.7211   -1.6637   -3.0444 C   0  0  0  0  0  0  0  0  0  0  0  0
    4.2756   -2.8090   -2.4518 C   0  0  0  0  0  0  0  0  0  0  0  0
    4.9609   -3.8591   -3.2328 C   0  0  0  0  0  0  0  0  0  0  0  0
    5.7025   -3.5599   -4.3875 C   0  0  0  0  0  0  0  0  0  0  0  0
    6.3368   -4.5579   -5.1324 C   0  0  0  0  0  0  0  0  0  0  0  0
    6.2584   -5.8992   -4.7331 C   0  0  0  0  0  0  0  0  0  0  0  0
    6.9025   -6.9956   -5.5415 C   0  0  0  0  0  0  0  0  0  0  0  0
    8.2737   -7.2450   -5.1423 N   0  0  0  0  0  0  0  0  0  0  0  0
    9.3976   -6.6690   -5.6576 C   0  0  0  0  0  0  0  0  0  0  0  0
   10.4251   -7.4181   -5.1308 C   0  0  0  0  0  0  0  0  0  0  0  0
   11.8335   -7.2588   -5.4322 C   0  0  0  0  0  0  0  0  0  0  0  0
   12.3592   -6.0034   -5.7651 C   0  0  0  0  0  0  0  0  0  0  0  0
   13.7101   -5.8598   -6.0914 C   0  0  0  0  0  0  0  0  0  0  0  0
   14.5650   -6.9703   -6.0931 C   0  0  0  0  0  0  0  0  0  0  0  0
   16.0242   -6.8236   -6.4488 C   0  0  0  0  0  0  0  0  0  0  0  0
   16.3831   -5.5434   -6.7503 F   0  0  0  0  0  0  0  0  0  0  0  0
   16.8508   -7.2132   -5.4398 F   0  0  0  0  0  0  0  0  0  0  0  0
   16.3751   -7.5708   -7.5321 F   0  0  0  0  0  0  0  0  0  0  0  0
   14.0395   -8.2270   -5.7532 C   0  0  0  0  0  0  0  0  0  0  0  0
   12.6871   -8.3680   -5.4206 C   0  0  0  0  0  0  0  0  0  0  0  0
    9.9037   -8.3928   -4.3220 N   0  0  0  0  0  0  0  0  0  0  0  0
    8.5803   -8.2735   -4.3296 N   0  0  0  0  0  0  0  0  0  0  0  0
    5.5522   -6.2113   -3.5702 C   0  0  0  0  0  0  0  0  0  0  0  0
    4.9046   -5.2098   -2.8404 C   0  0  0  0  0  0  0  0  0  0  0  0
    4.1355   -2.8950   -1.0638 C   0  0  0  0  0  0  0  0  0  0  0  0
    3.5308   -1.9744   -0.2778 N   0  0  0  0  0  0  0  0  0  0  0  0
    2.4505    0.9248    1.7286 H   0  0  0  0  0  0  0  0  0  0  0  0
    3.9434    0.0816    1.2989 H   0  0  0  0  0  0  0  0  0  0  0  0
    2.4514   -0.8450    1.7166 H   0  0  0  0  0  0  0  0  0  0  0  0
    2.6663    0.1979   -2.7125 H   0  0  0  0  0  0  0  0  0  0  0  0
    3.7676   -1.5121   -4.1197 H   0  0  0  0  0  0  0  0  0  0  0  0
    5.8036   -2.5270   -4.7248 H   0  0  0  0  0  0  0  0  0  0  0  0
    6.8871   -4.2776   -6.0287 H   0  0  0  0  0  0  0  0  0  0  0  0
    6.9067   -6.7368   -6.6057 H   0  0  0  0  0  0  0  0  0  0  0  0
    6.3424   -7.9333   -5.4440 H   0  0  0  0  0  0  0  0  0  0  0  0
    9.3637   -5.8491   -6.3583 H   0  0  0  0  0  0  0  0  0  0  0  0
   11.7264   -5.1190   -5.7644 H   0  0  0  0  0  0  0  0  0  0  0  0
   14.0910   -4.8712   -6.3455 H   0  0  0  0  0  0  0  0  0  0  0  0
   14.6836   -9.1058   -5.7481 H   0  0  0  0  0  0  0  0  0  0  0  0
   12.3012   -9.3546   -5.1667 H   0  0  0  0  0  0  0  0  0  0  0  0
    5.4881   -7.2412   -3.2212 H   0  0  0  0  0  0  0  0  0  0  0  0
    4.3402   -5.5126   -1.9619 H   0  0  0  0  0  0  0  0  0  0  0  0
    4.5368   -3.7371   -0.5055 H   0  0  0  0  0  0  0  0  0  0  0  0
  1  2  1  0  0  0  0
  1 31  1  0  0  0  0
  1 32  1  0  0  0  0
  1 33  1  0  0  0  0
  2  3  1  0  0  0  0
  3  4  1  0  0  0  0
  3 30  2  0  0  0  0
  4  5  2  0  0  0  0
  4 34  1  0  0  0  0
  5  6  1  0  0  0  0
  5 35  1  0  0  0  0
  6  7  1  0  0  0  0
  6 29  2  0  0  0  0
  7  8  1  0  0  0  0
  7 28  2  0  0  0  0
  8  9  2  0  0  0  0
  8 36  1  0  0  0  0
  9 10  1  0  0  0  0
  9 37  1  0  0  0  0
 10 11  1  0  0  0  0
 10 27  2  0  0  0  0
 11 12  1  0  0  0  0
 11 38  1  0  0  0  0
 11 39  1  0  0  0  0
 12 13  1  0  0  0  0
 12 26  1  0  0  0  0
 13 14  2  0  0  0  0
 13 40  1  0  0  0  0
 14 15  1  0  0  0  0
 14 25  1  0  0  0  0
 15 16  1  0  0  0  0
 15 24  2  0  0  0  0
 16 17  2  0  0  0  0
 16 41  1  0  0  0  0
 17 18  1  0  0  0  0
 17 42  1  0  0  0  0
 18 19  1  0  0  0  0
 18 23  2  0  0  0  0
 19 20  1  0  0  0  0
 19 21  1  0  0  0  0
 19 22  1  0  0  0  0
 23 24  1  0  0  0  0
 23 43  1  0  0  0  0
 24 44  1  0  0  0  0
 25 26  2  0  0  0  0
 27 28  1  0  0  0  0
 27 45  1  0  0  0  0
 28 46  1  0  0  0  0
 29 30  1  0  0  0  0
 29 47  1  0  0  0  0
M  END
$$$$
