CHEMBL410295
 OpenBabel04072215383D

 70 76  0  0  0  0  0  0  0  0999 V2000
   -2.3376    1.0939   -1.0031 C   0  0  0  0  0  0  0  0  0  0  0  0
   -1.1785    0.3895   -0.3538 C   0  0  0  0  0  0  0  0  0  0  0  0
   -1.2170   -1.0078   -0.2323 C   0  0  0  0  0  0  0  0  0  0  0  0
   -0.1566   -1.7011    0.3458 C   0  0  0  0  0  0  0  0  0  0  0  0
    0.9591   -1.0093    0.8100 C   0  0  0  0  0  0  0  0  0  0  0  0
    1.0295    0.3884    0.7097 C   0  0  0  0  0  0  0  0  0  0  0  0
    2.2510    1.0924    1.2320 C   0  0  0  0  0  0  0  0  0  0  0  0
   -0.0515    1.0907    0.1302 C   0  0  0  0  0  0  0  0  0  0  0  0
    0.0105    2.5004    0.0061 N   0  0  0  0  0  0  0  0  0  0  0  0
    0.6085    3.1115   -1.0908 C   0  0  0  0  0  0  0  0  0  0  0  0
    1.1077    2.5294   -2.0500 O   0  0  0  0  0  0  0  0  0  0  0  0
    0.6321    4.5845   -1.0958 C   0  0  0  0  0  0  0  0  0  0  0  0
    1.2326    5.3064   -2.1017 C   0  0  0  0  0  0  0  0  0  0  0  0
    1.2606    6.6601   -2.1403 N   0  0  0  0  0  0  0  0  0  0  0  0
    0.6242    7.3101   -1.1571 C   0  0  0  0  0  0  0  0  0  0  0  0
    0.6005    8.6990   -1.2148 N   0  0  0  0  0  0  0  0  0  0  0  0
   -0.3171    9.5632   -0.6107 C   0  0  0  0  0  0  0  0  0  0  0  0
    0.0848   10.8246   -0.1779 C   0  0  0  0  0  0  0  0  0  0  0  0
   -0.7750   11.6117    0.5998 C   0  0  0  0  0  0  0  0  0  0  0  0
   -2.0655   11.1812    0.9468 C   0  0  0  0  0  0  0  0  0  0  0  0
   -2.8865   11.9961    1.7086 N   0  0  0  0  0  0  0  0  0  0  0  0
   -4.3450   11.8018    1.6959 C   0  0  0  0  0  0  0  0  0  0  0  0
   -5.0205   13.1358    2.0791 C   0  0  0  0  0  0  0  0  0  0  0  0
   -4.5837   13.6282    3.4069 N   0  0  0  0  0  0  0  0  0  0  0  0
   -5.2100   14.9146    3.6975 C   0  0  0  0  0  0  0  0  0  0  0  0
   -3.1050   13.7519    3.4205 C   0  0  0  0  0  0  0  0  0  0  0  0
   -2.3909   12.4353    3.0291 C   0  0  0  0  0  0  0  0  0  0  0  0
   -2.4815    9.9496    0.4415 C   0  0  0  0  0  0  0  0  0  0  0  0
   -1.6210    9.1540   -0.3153 C   0  0  0  0  0  0  0  0  0  0  0  0
    0.0335    6.6819   -0.1234 N   0  0  0  0  0  0  0  0  0  0  0  0
    0.0539    5.3334   -0.1018 C   0  0  0  0  0  0  0  0  0  0  0  0
   -0.5374    4.6362    0.9699 N   0  0  0  0  0  0  0  0  0  0  0  0
   -1.1685    5.1139    2.1021 C   0  0  0  0  0  0  0  0  0  0  0  0
   -1.4462    6.3958    2.6009 C   0  0  0  0  0  0  0  0  0  0  0  0
   -2.1328    6.4816    3.8192 C   0  0  0  0  0  0  0  0  0  0  0  0
   -2.5202    5.3359    4.5140 C   0  0  0  0  0  0  0  0  0  0  0  0
   -2.2291    4.0646    4.0086 C   0  0  0  0  0  0  0  0  0  0  0  0
   -1.5443    3.9595    2.7862 C   0  0  0  0  0  0  0  0  0  0  0  0
   -1.1584    2.8295    2.1142 N   0  0  0  0  0  0  0  0  0  0  0  0
   -0.5596    3.2567    1.0237 C   0  0  0  0  0  0  0  0  0  0  0  0
   -3.1012    0.3826   -1.3367 H   0  0  0  0  0  0  0  0  0  0  0  0
   -2.0017    1.6474   -1.8856 H   0  0  0  0  0  0  0  0  0  0  0  0
   -2.8162    1.7799   -0.2981 H   0  0  0  0  0  0  0  0  0  0  0  0
   -2.0770   -1.5682   -0.5918 H   0  0  0  0  0  0  0  0  0  0  0  0
   -0.1988   -2.7837    0.4331 H   0  0  0  0  0  0  0  0  0  0  0  0
    1.7775   -1.5710    1.2551 H   0  0  0  0  0  0  0  0  0  0  0  0
    2.9725    0.3822    1.6510 H   0  0  0  0  0  0  0  0  0  0  0  0
    1.9798    1.7896    2.0307 H   0  0  0  0  0  0  0  0  0  0  0  0
    2.7568    1.6333    0.4264 H   0  0  0  0  0  0  0  0  0  0  0  0
    1.7220    4.8150   -2.9405 H   0  0  0  0  0  0  0  0  0  0  0  0
    1.2137    9.0758   -1.9199 H   0  0  0  0  0  0  0  0  0  0  0  0
    1.0812   11.1965   -0.3993 H   0  0  0  0  0  0  0  0  0  0  0  0
   -0.4297   12.5897    0.9250 H   0  0  0  0  0  0  0  0  0  0  0  0
   -4.6360   11.0098    2.3992 H   0  0  0  0  0  0  0  0  0  0  0  0
   -4.7004   11.5213    0.6975 H   0  0  0  0  0  0  0  0  0  0  0  0
   -6.1065   12.9903    2.0736 H   0  0  0  0  0  0  0  0  0  0  0  0
   -4.7816   13.8785    1.3047 H   0  0  0  0  0  0  0  0  0  0  0  0
   -6.3007   14.8123    3.7062 H   0  0  0  0  0  0  0  0  0  0  0  0
   -4.9423   15.6834    2.9637 H   0  0  0  0  0  0  0  0  0  0  0  0
   -4.9165   15.2667    4.6918 H   0  0  0  0  0  0  0  0  0  0  0  0
   -2.7700   14.0465    4.4218 H   0  0  0  0  0  0  0  0  0  0  0  0
   -2.7859   14.5367    2.7207 H   0  0  0  0  0  0  0  0  0  0  0  0
   -2.5982   11.6609    3.7809 H   0  0  0  0  0  0  0  0  0  0  0  0
   -1.3093   12.6093    3.0373 H   0  0  0  0  0  0  0  0  0  0  0  0
   -3.4717    9.5587    0.6526 H   0  0  0  0  0  0  0  0  0  0  0  0
   -1.9894    8.1947   -0.6691 H   0  0  0  0  0  0  0  0  0  0  0  0
   -1.1454    7.2976    2.0759 H   0  0  0  0  0  0  0  0  0  0  0  0
   -2.3658    7.4624    4.2302 H   0  0  0  0  0  0  0  0  0  0  0  0
   -3.0539    5.4292    5.4577 H   0  0  0  0  0  0  0  0  0  0  0  0
   -2.5267    3.1692    4.5448 H   0  0  0  0  0  0  0  0  0  0  0  0
  1  2  1  0  0  0  0
  1 41  1  0  0  0  0
  1 42  1  0  0  0  0
  1 43  1  0  0  0  0
  2  3  1  0  0  0  0
  2  8  2  0  0  0  0
  3  4  2  0  0  0  0
  3 44  1  0  0  0  0
  4  5  1  0  0  0  0
  4 45  1  0  0  0  0
  5  6  2  0  0  0  0
  5 46  1  0  0  0  0
  6  7  1  0  0  0  0
  6  8  1  0  0  0  0
  7 47  1  0  0  0  0
  7 48  1  0  0  0  0
  7 49  1  0  0  0  0
  8  9  1  0  0  0  0
  9 10  1  0  0  0  0
  9 40  1  0  0  0  0
 10 11  2  0  0  0  0
 10 12  1  0  0  0  0
 12 13  1  0  0  0  0
 12 31  2  0  0  0  0
 13 14  2  0  0  0  0
 13 50  1  0  0  0  0
 14 15  1  0  0  0  0
 15 16  1  0  0  0  0
 15 30  2  0  0  0  0
 16 17  1  0  0  0  0
 16 51  1  0  0  0  0
 17 18  1  0  0  0  0
 17 29  2  0  0  0  0
 18 19  2  0  0  0  0
 18 52  1  0  0  0  0
 19 20  1  0  0  0  0
 19 53  1  0  0  0  0
 20 21  1  0  0  0  0
 20 28  2  0  0  0  0
 21 22  1  0  0  0  0
 21 27  1  0  0  0  0
 22 23  1  0  0  0  0
 22 54  1  0  0  0  0
 22 55  1  0  0  0  0
 23 24  1  0  0  0  0
 23 56  1  0  0  0  0
 23 57  1  0  0  0  0
 24 25  1  0  0  0  0
 24 26  1  0  0  0  0
 25 58  1  0  0  0  0
 25 59  1  0  0  0  0
 25 60  1  0  0  0  0
 26 27  1  0  0  0  0
 26 61  1  0  0  0  0
 26 62  1  0  0  0  0
 27 63  1  0  0  0  0
 27 64  1  0  0  0  0
 28 29  1  0  0  0  0
 28 65  1  0  0  0  0
 29 66  1  0  0  0  0
 30 31  1  0  0  0  0
 31 32  1  0  0  0  0
 32 33  1  0  0  0  0
 32 40  1  0  0  0  0
 33 34  1  0  0  0  0
 33 38  2  0  0  0  0
 34 35  2  0  0  0  0
 34 67  1  0  0  0  0
 35 36  1  0  0  0  0
 35 68  1  0  0  0  0
 36 37  2  0  0  0  0
 36 69  1  0  0  0  0
 37 38  1  0  0  0  0
 37 70  1  0  0  0  0
 38 39  1  0  0  0  0
 39 40  2  0  0  0  0
M  END
$$$$
