CHEMBL1683646
 OpenBabel04072215363D

 50 52  0  0  1  0  0  0  0  0999 V2000
    4.4915   -4.3945   -1.7819 C   0  0  0  0  0  0  0  0  0  0  0  0
    3.6342   -4.7171   -0.5799 C   0  0  0  0  0  0  0  0  0  0  0  0
    2.2871   -4.8066   -0.7002 C   0  0  0  0  0  0  0  0  0  0  0  0
    1.5318   -3.5036   -0.4251 C   0  0  1  0  0  0  0  0  0  0  0  0
    0.0109   -3.5238   -0.4632 C   0  0  0  0  0  0  0  0  0  0  0  0
   -0.7324   -3.8866   -1.5887 C   0  0  0  0  0  0  0  0  0  0  0  0
   -0.1488   -4.3870   -2.7216 O   0  0  0  0  0  0  0  0  0  0  0  0
   -2.0888   -3.5625   -1.6996 C   0  0  0  0  0  0  0  0  0  0  0  0
   -2.7422   -2.8670   -0.6732 C   0  0  0  0  0  0  0  0  0  0  0  0
   -3.9401   -1.9904   -0.9054 C   0  0  0  0  0  0  0  0  0  0  0  0
   -5.1118   -2.5495   -1.6883 C   0  0  0  0  0  0  0  0  0  0  0  0
   -6.0678   -1.3913   -1.9850 C   0  0  0  0  0  0  0  0  0  0  0  0
   -7.3016   -1.8647   -2.7189 C   0  0  0  0  0  0  0  0  0  0  0  0
   -8.4637   -0.3420   -3.0711 Br  0  0  0  0  0  0  0  0  0  0  0  0
   -2.0714   -2.6532    0.5199 C   0  0  0  0  0  0  0  0  0  0  0  0
   -0.7012   -2.8648    0.5638 C   0  0  0  0  0  0  0  0  0  0  0  0
   -0.1122   -2.1323    1.5662 O   0  0  0  0  0  0  0  0  0  0  0  0
    1.1776   -1.6094    1.1827 C   0  0  0  0  0  0  0  0  0  0  0  0
    1.6285   -0.7894    2.3927 C   0  0  0  0  0  0  0  0  0  0  0  0
    1.0442   -0.6092    0.0032 C   0  0  0  0  0  0  0  0  0  0  0  0
    2.0232   -2.8679    0.9098 C   0  0  2  0  0  0  0  0  0  0  0  0
    3.5478   -2.7203    0.9190 C   0  0  0  0  0  0  0  0  0  0  0  0
    4.1737   -4.1109    0.7064 C   0  0  0  0  0  0  0  0  0  0  0  0
    3.9042   -4.3522   -2.7044 H   0  0  0  0  0  0  0  0  0  0  0  0
    4.9884   -3.4241   -1.6662 H   0  0  0  0  0  0  0  0  0  0  0  0
    5.2665   -5.1579   -1.9020 H   0  0  0  0  0  0  0  0  0  0  0  0
    1.8193   -5.5690   -0.0641 H   0  0  0  0  0  0  0  0  0  0  0  0
    1.8274   -2.8329   -1.2457 H   0  0  0  0  0  0  0  0  0  0  0  0
    0.5683   -3.7738   -2.9539 H   0  0  0  0  0  0  0  0  0  0  0  0
   -2.5831   -3.7289   -2.6516 H   0  0  0  0  0  0  0  0  0  0  0  0
   -3.5498   -1.1001   -1.4200 H   0  0  0  0  0  0  0  0  0  0  0  0
   -4.3213   -1.6291    0.0598 H   0  0  0  0  0  0  0  0  0  0  0  0
   -4.7836   -3.0066   -2.6271 H   0  0  0  0  0  0  0  0  0  0  0  0
   -5.6135   -3.3256   -1.0987 H   0  0  0  0  0  0  0  0  0  0  0  0
   -6.3511   -0.8965   -1.0460 H   0  0  0  0  0  0  0  0  0  0  0  0
   -5.5428   -0.6341   -2.5840 H   0  0  0  0  0  0  0  0  0  0  0  0
   -7.0550   -2.3031   -3.6888 H   0  0  0  0  0  0  0  0  0  0  0  0
   -7.8829   -2.5737   -2.1248 H   0  0  0  0  0  0  0  0  0  0  0  0
   -2.5349   -2.0972    1.3314 H   0  0  0  0  0  0  0  0  0  0  0  0
    0.8354   -0.0831    2.6766 H   0  0  0  0  0  0  0  0  0  0  0  0
    2.5313   -0.2100    2.1803 H   0  0  0  0  0  0  0  0  0  0  0  0
    1.8009   -1.4220    3.2677 H   0  0  0  0  0  0  0  0  0  0  0  0
    0.3442    0.1938    0.2623 H   0  0  0  0  0  0  0  0  0  0  0  0
    2.0111   -0.1705   -0.2583 H   0  0  0  0  0  0  0  0  0  0  0  0
    0.6277   -1.0432   -0.9113 H   0  0  0  0  0  0  0  0  0  0  0  0
    1.7897   -3.5830    1.7184 H   0  0  0  0  0  0  0  0  0  0  0  0
    3.8702   -2.0297    0.1306 H   0  0  0  0  0  0  0  0  0  0  0  0
    3.8957   -2.3146    1.8745 H   0  0  0  0  0  0  0  0  0  0  0  0
    3.9199   -4.7722    1.5459 H   0  0  0  0  0  0  0  0  0  0  0  0
    5.2664   -4.0403    0.6876 H   0  0  0  0  0  0  0  0  0  0  0  0
  1  2  1  0  0  0  0
  1 24  1  0  0  0  0
  1 25  1  0  0  0  0
  1 26  1  0  0  0  0
  2  3  2  3  0  0  0
  2 23  1  0  0  0  0
  3  4  1  0  0  0  0
  3 27  1  0  0  0  0
  4  5  1  0  0  0  0
  4 21  1  0  0  0  0
  4 28  1  6  0  0  0
  5  6  1  0  0  0  0
  5 16  2  0  0  0  0
  6  8  2  0  0  0  0
  6  7  1  0  0  0  0
  7 29  1  0  0  0  0
  8  9  1  0  0  0  0
  8 30  1  0  0  0  0
  9 15  2  0  0  0  0
  9 10  1  0  0  0  0
 10 11  1  0  0  0  0
 10 31  1  0  0  0  0
 10 32  1  0  0  0  0
 11 12  1  0  0  0  0
 11 33  1  0  0  0  0
 11 34  1  0  0  0  0
 12 13  1  0  0  0  0
 12 35  1  0  0  0  0
 12 36  1  0  0  0  0
 13 14  1  0  0  0  0
 13 37  1  0  0  0  0
 13 38  1  0  0  0  0
 15 16  1  0  0  0  0
 15 39  1  0  0  0  0
 16 17  1  0  0  0  0
 17 18  1  0  0  0  0
 18 21  1  0  0  0  0
 18 19  1  0  0  0  0
 18 20  1  0  0  0  0
 19 40  1  0  0  0  0
 19 41  1  0  0  0  0
 19 42  1  0  0  0  0
 20 43  1  0  0  0  0
 20 44  1  0  0  0  0
 20 45  1  0  0  0  0
 21 22  1  0  0  0  0
 21 46  1  1  0  0  0
 22 23  1  0  0  0  0
 22 47  1  0  0  0  0
 22 48  1  0  0  0  0
 23 49  1  0  0  0  0
 23 50  1  0  0  0  0
M  END
$$$$
