CHEMBL3922453
 OpenBabel04072215373D

 74 77  0  0  1  0  0  0  0  0999 V2000
    0.4210    1.6377    2.8531 C   0  0  0  0  0  0  0  0  0  0  0  0
    0.2247    2.8317    3.6855 N   0  0  0  0  0  0  0  0  0  0  0  0
    1.4038    3.0926    4.5248 C   0  0  3  0  0  0  0  0  0  0  0  0
    1.1443    4.2596    5.4664 C   0  0  0  0  0  0  0  0  0  0  0  0
    1.1962    5.4221    4.4932 C   0  0  0  0  0  0  0  0  0  0  0  0
    2.3334    5.1345    3.5938 N   0  0  0  0  0  0  0  0  0  0  0  0
    3.5485    5.8047    4.0655 C   0  0  0  0  0  0  0  0  0  0  0  0
    4.7769    5.5306    3.1206 C   0  0  0  0  0  0  0  0  0  0  0  0
    4.8710    6.4270    1.8366 C   0  0  0  0  0  0  0  0  0  0  0  0
    4.8015    7.9523    1.7851 N   0  0  0  0  0  0  0  0  0  0  0  0
    4.0411    8.4126    0.6294 C   0  0  0  0  0  0  0  0  0  0  0  0
    3.1824    9.5314    0.6620 C   0  0  0  0  0  0  0  0  0  0  0  0
    2.3545    9.8320   -0.4616 C   0  0  0  0  0  0  0  0  0  0  0  0
    1.4795   10.8668   -0.4893 O   0  0  0  0  0  0  0  0  0  0  0  0
    1.2120   11.7291    0.5439 C   0  0  0  0  0  0  0  0  0  0  0  0
    2.4105    9.0385   -1.6126 C   0  0  0  0  0  0  0  0  0  0  0  0
    3.2692    7.9420   -1.6796 C   0  0  0  0  0  0  0  0  0  0  0  0
    3.3870    7.1600   -2.7892 O   0  0  0  0  0  0  0  0  0  0  0  0
    2.7467    7.3597   -3.9953 C   0  0  0  0  0  0  0  0  0  0  0  0
    4.0538    7.6374   -0.5713 C   0  0  0  0  0  0  0  0  0  0  0  0
    5.5119    8.8135    2.7812 C   0  0  0  0  0  0  0  0  0  0  0  0
    5.6583    8.2090    4.0006 C   0  0  0  0  0  0  0  0  0  0  0  0
    6.2381    8.6614    5.0729 C   0  0  0  0  0  0  0  0  0  0  0  0
    6.7687    9.8514    5.0678 C   0  0  0  0  0  0  0  0  0  0  0  0
    7.2312   10.1738    6.2521 N   0  0  0  0  0  0  0  0  0  0  0  0
    7.8531   11.2851    6.4637 C   0  0  0  0  0  0  0  0  0  0  0  0
    8.1360   12.1528    5.4126 C   0  0  0  0  0  0  0  0  0  0  0  0
    9.1831   13.1715    5.8546 C   0  0  0  0  0  0  0  0  0  0  0  0
    9.8613   13.0854    7.1054 C   0  0  0  0  0  0  0  0  0  0  0  0
   10.7941   14.0121    7.1815 N   0  0  0  0  0  0  0  0  0  0  0  0
   10.7786   14.7027    6.0779 N   0  0  0  0  0  0  0  0  0  0  0  0
   11.7589   15.7499    5.8689 C   0  0  0  0  0  0  0  0  0  0  0  0
    9.7960   14.2587    5.2368 C   0  0  0  0  0  0  0  0  0  0  0  0
    7.5647   11.8840    4.1401 N   0  0  0  0  0  0  0  0  0  0  0  0
    6.8190   10.6959    3.9447 C   0  0  0  0  0  0  0  0  0  0  0  0
    6.1215   10.1747    2.7215 C   0  0  0  0  0  0  0  0  0  0  0  0
    2.5395    3.6688    3.6901 C   0  0  0  0  0  0  0  0  0  0  0  0
    0.5085   -2.5917    0.5295 Cl  0  0  0  0  0  0  0  0  0  0  0  0
   -0.4804    1.4760    2.2312 H   0  0  0  0  0  0  0  0  0  0  0  0
    0.5959    0.7395    3.4848 H   0  0  0  0  0  0  0  0  0  0  0  0
    1.2725    1.7542    2.1547 H   0  0  0  0  0  0  0  0  0  0  0  0
   -0.5812    2.6258    4.3206 H   0  0  0  0  0  0  0  0  0  0  0  0
    1.6914    2.1649    5.0690 H   0  0  0  0  0  0  0  0  0  0  0  0
    1.9975    4.3611    6.1768 H   0  0  0  0  0  0  0  0  0  0  0  0
    0.2065    4.1908    6.0565 H   0  0  0  0  0  0  0  0  0  0  0  0
    1.2325    6.4170    4.9968 H   0  0  0  0  0  0  0  0  0  0  0  0
    0.2717    5.4156    3.8752 H   0  0  0  0  0  0  0  0  0  0  0  0
    3.8094    5.4323    5.0895 H   0  0  0  0  0  0  0  0  0  0  0  0
    3.3319    6.8877    4.2043 H   0  0  0  0  0  0  0  0  0  0  0  0
    4.8234    4.4637    2.8350 H   0  0  0  0  0  0  0  0  0  0  0  0
    5.7403    5.5619    3.6820 H   0  0  0  0  0  0  0  0  0  0  0  0
    4.0130    6.0036    1.2714 H   0  0  0  0  0  0  0  0  0  0  0  0
    5.8081    6.1164    1.3324 H   0  0  0  0  0  0  0  0  0  0  0  0
    3.1181   10.1222    1.5629 H   0  0  0  0  0  0  0  0  0  0  0  0
    0.4787   12.4849    0.1932 H   0  0  0  0  0  0  0  0  0  0  0  0
    2.1434   12.2472    0.8490 H   0  0  0  0  0  0  0  0  0  0  0  0
    0.7732   11.1708    1.3974 H   0  0  0  0  0  0  0  0  0  0  0  0
    1.7744    9.2858   -2.4544 H   0  0  0  0  0  0  0  0  0  0  0  0
    3.1465    6.6415   -4.7438 H   0  0  0  0  0  0  0  0  0  0  0  0
    2.9511    8.3856   -4.3668 H   0  0  0  0  0  0  0  0  0  0  0  0
    1.6525    7.1984   -3.8933 H   0  0  0  0  0  0  0  0  0  0  0  0
    4.6864    6.7643   -0.6669 H   0  0  0  0  0  0  0  0  0  0  0  0
    5.2987    7.3506    4.2609 H   0  0  0  0  0  0  0  0  0  0  0  0
    6.2711    8.0426    5.9671 H   0  0  0  0  0  0  0  0  0  0  0  0
    8.1542   11.3681    7.4771 H   0  0  0  0  0  0  0  0  0  0  0  0
    9.7684   12.3772    7.9106 H   0  0  0  0  0  0  0  0  0  0  0  0
   12.4636   15.7577    6.7419 H   0  0  0  0  0  0  0  0  0  0  0  0
   11.2681   16.7324    5.8031 H   0  0  0  0  0  0  0  0  0  0  0  0
   12.3457   15.5026    4.9695 H   0  0  0  0  0  0  0  0  0  0  0  0
    9.5937   14.6660    4.2605 H   0  0  0  0  0  0  0  0  0  0  0  0
    6.0879   10.7571    1.8020 H   0  0  0  0  0  0  0  0  0  0  0  0
    3.4602    3.4164    4.2686 H   0  0  0  0  0  0  0  0  0  0  0  0
    2.6955    3.2343    2.6868 H   0  0  0  0  0  0  0  0  0  0  0  0
    1.6782   -2.0857    0.0117 H   0  0  0  0  0  0  0  0  0  0  0  0
  1  2  1  0  0  0  0
  1 39  1  0  0  0  0
  1 40  1  0  0  0  0
  1 41  1  0  0  0  0
  2  3  1  0  0  0  0
  2 42  1  0  0  0  0
  3  4  1  0  0  0  0
  3 37  1  0  0  0  0
  3 43  1  0  0  0  0
  4  5  1  0  0  0  0
  4 44  1  0  0  0  0
  4 45  1  0  0  0  0
  5  6  1  0  0  0  0
  5 46  1  0  0  0  0
  5 47  1  0  0  0  0
  6  7  1  0  0  0  0
  6 37  1  0  0  0  0
  7  8  1  0  0  0  0
  7 48  1  0  0  0  0
  7 49  1  0  0  0  0
  8  9  1  0  0  0  0
  8 50  1  0  0  0  0
  8 51  1  0  0  0  0
  9 10  1  0  0  0  0
  9 52  1  0  0  0  0
  9 53  1  0  0  0  0
 10 11  1  0  0  0  0
 10 21  1  0  0  0  0
 11 12  1  0  0  0  0
 11 20  2  0  0  0  0
 12 13  2  0  0  0  0
 12 54  1  0  0  0  0
 13 14  1  0  0  0  0
 13 16  1  0  0  0  0
 14 15  1  0  0  0  0
 15 55  1  0  0  0  0
 15 56  1  0  0  0  0
 15 57  1  0  0  0  0
 16 17  2  0  0  0  0
 16 58  1  0  0  0  0
 17 18  1  0  0  0  0
 17 20  1  0  0  0  0
 18 19  1  0  0  0  0
 19 59  1  0  0  0  0
 19 60  1  0  0  0  0
 19 61  1  0  0  0  0
 20 62  1  0  0  0  0
 21 22  1  0  0  0  0
 21 36  2  0  0  0  0
 22 23  2  0  0  0  0
 22 63  1  0  0  0  0
 23 24  1  0  0  0  0
 23 64  1  0  0  0  0
 24 25  1  0  0  0  0
 24 35  2  0  0  0  0
 25 26  2  0  0  0  0
 26 27  1  0  0  0  0
 26 65  1  0  0  0  0
 27 28  1  0  0  0  0
 27 34  2  0  0  0  0
 28 29  1  0  0  0  0
 28 33  2  0  0  0  0
 29 30  2  0  0  0  0
 29 66  1  0  0  0  0
 30 31  1  0  0  0  0
 31 32  1  0  0  0  0
 31 33  1  0  0  0  0
 32 67  1  0  0  0  0
 32 68  1  0  0  0  0
 32 69  1  0  0  0  0
 33 70  1  0  0  0  0
 34 35  1  0  0  0  0
 35 36  1  0  0  0  0
 36 71  1  0  0  0  0
 37 72  1  0  0  0  0
 37 73  1  0  0  0  0
 38 74  1  0  0  0  0
M  END
$$$$
