CHEMBL425209
 OpenBabel04072215383D

 61 64  0  0  0  0  0  0  0  0999 V2000
    1.4920    0.1443   -2.9287 C   0  0  0  0  0  0  0  0  0  0  0  0
    2.0623   -0.5999   -4.0002 O   0  0  0  0  0  0  0  0  0  0  0  0
    3.4126   -0.3525   -4.1700 C   0  0  0  0  0  0  0  0  0  0  0  0
    4.0508   -1.1162   -5.1311 C   0  0  0  0  0  0  0  0  0  0  0  0
    5.4159   -0.9300   -5.3051 C   0  0  0  0  0  0  0  0  0  0  0  0
    6.0865    0.0144   -4.5308 C   0  0  0  0  0  0  0  0  0  0  0  0
    7.8104    0.0686   -4.6734 Cl  0  0  0  0  0  0  0  0  0  0  0  0
    5.3515    0.7916   -3.6186 C   0  0  0  0  0  0  0  0  0  0  0  0
    5.9219    1.7781   -2.8076 N   0  0  0  0  0  0  0  0  0  0  0  0
    6.7494    2.8472   -3.2334 C   0  0  0  0  0  0  0  0  0  0  0  0
    6.8337    3.0694   -4.5647 N   0  0  0  0  0  0  0  0  0  0  0  0
    7.6083    4.0728   -4.9565 C   0  0  0  0  0  0  0  0  0  0  0  0
    8.2587    4.9186   -4.1609 N   0  0  0  0  0  0  0  0  0  0  0  0
    8.1696    4.7018   -2.8433 C   0  0  0  0  0  0  0  0  0  0  0  0
    8.8433    5.5807   -2.0211 C   0  0  0  0  0  0  0  0  0  0  0  0
    8.8901    5.4230   -0.6390 C   0  0  0  0  0  0  0  0  0  0  0  0
    9.6427    6.3509    0.0391 O   0  0  0  0  0  0  0  0  0  0  0  0
   10.1168    5.8972    1.3112 C   0  0  0  0  0  0  0  0  0  0  0  0
   11.3414    6.7042    1.7835 C   0  0  0  0  0  0  0  0  0  0  0  0
   11.8513    6.2529    3.0940 N   0  0  0  0  0  0  0  0  0  0  0  0
   13.0250    7.0395    3.5368 C   0  0  0  0  0  0  0  0  0  0  0  0
   14.3431    6.6603    2.8356 C   0  0  0  0  0  0  0  0  0  0  0  0
   14.6233    5.2609    2.9605 O   0  0  0  0  0  0  0  0  0  0  0  0
   13.5420    4.4755    2.4481 C   0  0  0  0  0  0  0  0  0  0  0  0
   12.2231    4.8222    3.1557 C   0  0  0  0  0  0  0  0  0  0  0  0
    8.1890    4.3650   -0.0592 C   0  0  0  0  0  0  0  0  0  0  0  0
    7.4505    3.4878   -0.8585 C   0  0  0  0  0  0  0  0  0  0  0  0
    6.7359    2.4323   -0.3426 O   0  0  0  0  0  0  0  0  0  0  0  0
    6.2878    2.4602    1.0170 C   0  0  0  0  0  0  0  0  0  0  0  0
    5.2529    3.5654    1.2221 C   0  0  0  0  0  0  0  0  0  0  0  0
    5.6349    1.1066    1.3009 C   0  0  0  0  0  0  0  0  0  0  0  0
    7.4275    3.6455   -2.2833 C   0  0  0  0  0  0  0  0  0  0  0  0
    4.0257    0.5858   -3.4169 N   0  0  0  0  0  0  0  0  0  0  0  0
    0.4242   -0.0910   -2.8888 H   0  0  0  0  0  0  0  0  0  0  0  0
    1.5879    1.2225   -3.0954 H   0  0  0  0  0  0  0  0  0  0  0  0
    1.9348   -0.1471   -1.9697 H   0  0  0  0  0  0  0  0  0  0  0  0
    3.5042   -1.8520   -5.7093 H   0  0  0  0  0  0  0  0  0  0  0  0
    5.9564   -1.5390   -6.0270 H   0  0  0  0  0  0  0  0  0  0  0  0
    5.1933    2.1466   -2.2018 H   0  0  0  0  0  0  0  0  0  0  0  0
    7.7179    4.2202   -6.0252 H   0  0  0  0  0  0  0  0  0  0  0  0
    9.3942    6.4086   -2.4736 H   0  0  0  0  0  0  0  0  0  0  0  0
   10.4201    4.8526    1.2087 H   0  0  0  0  0  0  0  0  0  0  0  0
    9.3124    5.9903    2.0497 H   0  0  0  0  0  0  0  0  0  0  0  0
   11.0330    7.7579    1.8659 H   0  0  0  0  0  0  0  0  0  0  0  0
   12.1134    6.6847    1.0039 H   0  0  0  0  0  0  0  0  0  0  0  0
   13.1478    6.8483    4.6121 H   0  0  0  0  0  0  0  0  0  0  0  0
   12.8363    8.1154    3.4403 H   0  0  0  0  0  0  0  0  0  0  0  0
   15.1733    7.1975    3.3043 H   0  0  0  0  0  0  0  0  0  0  0  0
   14.3311    6.9315    1.7749 H   0  0  0  0  0  0  0  0  0  0  0  0
   13.7858    3.4241    2.6346 H   0  0  0  0  0  0  0  0  0  0  0  0
   13.4735    4.6110    1.3623 H   0  0  0  0  0  0  0  0  0  0  0  0
   12.3281    4.5677    4.2178 H   0  0  0  0  0  0  0  0  0  0  0  0
   11.4231    4.1698    2.7966 H   0  0  0  0  0  0  0  0  0  0  0  0
    8.2231    4.2245    1.0135 H   0  0  0  0  0  0  0  0  0  0  0  0
    7.1353    2.5658    1.7050 H   0  0  0  0  0  0  0  0  0  0  0  0
    4.4115    3.4348    0.5325 H   0  0  0  0  0  0  0  0  0  0  0  0
    5.6701    4.5555    1.0156 H   0  0  0  0  0  0  0  0  0  0  0  0
    4.8737    3.5671    2.2479 H   0  0  0  0  0  0  0  0  0  0  0  0
    4.7744    0.9417    0.6426 H   0  0  0  0  0  0  0  0  0  0  0  0
    5.2944    1.0408    2.3398 H   0  0  0  0  0  0  0  0  0  0  0  0
    6.3367    0.2876    1.1117 H   0  0  0  0  0  0  0  0  0  0  0  0
  1  2  1  0  0  0  0
  1 34  1  0  0  0  0
  1 35  1  0  0  0  0
  1 36  1  0  0  0  0
  2  3  1  0  0  0  0
  3  4  1  0  0  0  0
  3 33  2  0  0  0  0
  4  5  2  0  0  0  0
  4 37  1  0  0  0  0
  5  6  1  0  0  0  0
  5 38  1  0  0  0  0
  6  7  1  0  0  0  0
  6  8  2  0  0  0  0
  8  9  1  0  0  0  0
  8 33  1  0  0  0  0
  9 10  1  0  0  0  0
  9 39  1  0  0  0  0
 10 11  1  0  0  0  0
 10 32  2  0  0  0  0
 11 12  2  0  0  0  0
 12 13  1  0  0  0  0
 12 40  1  0  0  0  0
 13 14  2  0  0  0  0
 14 15  1  0  0  0  0
 14 32  1  0  0  0  0
 15 16  2  0  0  0  0
 15 41  1  0  0  0  0
 16 17  1  0  0  0  0
 16 26  1  0  0  0  0
 17 18  1  0  0  0  0
 18 19  1  0  0  0  0
 18 42  1  0  0  0  0
 18 43  1  0  0  0  0
 19 20  1  0  0  0  0
 19 44  1  0  0  0  0
 19 45  1  0  0  0  0
 20 21  1  0  0  0  0
 20 25  1  0  0  0  0
 21 22  1  0  0  0  0
 21 46  1  0  0  0  0
 21 47  1  0  0  0  0
 22 23  1  0  0  0  0
 22 48  1  0  0  0  0
 22 49  1  0  0  0  0
 23 24  1  0  0  0  0
 24 25  1  0  0  0  0
 24 50  1  0  0  0  0
 24 51  1  0  0  0  0
 25 52  1  0  0  0  0
 25 53  1  0  0  0  0
 26 27  2  0  0  0  0
 26 54  1  0  0  0  0
 27 28  1  0  0  0  0
 27 32  1  0  0  0  0
 28 29  1  0  0  0  0
 29 30  1  0  0  0  0
 29 31  1  0  0  0  0
 29 55  1  0  0  0  0
 30 56  1  0  0  0  0
 30 57  1  0  0  0  0
 30 58  1  0  0  0  0
 31 59  1  0  0  0  0
 31 60  1  0  0  0  0
 31 61  1  0  0  0  0
M  END
$$$$
