CHEMBL4634073
 OpenBabel04072215383D

 71 75  0  0  0  0  0  0  0  0999 V2000
    5.7956   -1.6532    2.4164 C   0  0  0  0  0  0  0  0  0  0  0  0
    5.7067   -0.3277    1.8497 O   0  0  0  0  0  0  0  0  0  0  0  0
    5.7566   -0.3203    0.4875 C   0  0  0  0  0  0  0  0  0  0  0  0
    5.8357   -1.3400   -0.1898 O   0  0  0  0  0  0  0  0  0  0  0  0
    5.7636    0.9761   -0.0084 N   0  0  0  0  0  0  0  0  0  0  0  0
    5.9187    1.3654   -1.3621 C   0  0  0  0  0  0  0  0  0  0  0  0
    5.8616    0.4919   -2.4407 C   0  0  0  0  0  0  0  0  0  0  0  0
    6.2156    0.8909   -3.7718 C   0  0  0  0  0  0  0  0  0  0  0  0
    6.6027    2.1926   -4.1337 C   0  0  0  0  0  0  0  0  0  0  0  0
    7.2685    2.5803   -5.5354 C   0  0  0  0  0  0  0  0  0  0  0  0
    7.9275    3.9585   -5.8238 C   0  0  0  0  0  0  0  0  0  0  0  0
    8.1431    4.7022   -4.7167 O   0  0  0  0  0  0  0  0  0  0  0  0
    9.0937    4.1641   -3.7687 C   0  0  0  0  0  0  0  0  0  0  0  0
    9.2715    5.1574   -2.6291 C   0  0  0  0  0  0  0  0  0  0  0  0
   10.7022    5.3131   -2.1655 C   0  0  0  0  0  0  0  0  0  0  0  0
   11.3670    4.0125   -2.1975 N   0  0  0  0  0  0  0  0  0  0  0  0
   12.6505    4.0306   -1.5064 C   0  0  0  0  0  0  0  0  0  0  0  0
   11.5615    3.5297   -3.5657 C   0  0  0  0  0  0  0  0  0  0  0  0
   10.2737    3.3885   -4.3431 C   0  0  0  0  0  0  0  0  0  0  0  0
    8.4435    4.4521   -6.9103 N   0  0  0  0  0  0  0  0  0  0  0  0
    8.5764    3.6126   -7.9739 C   0  0  0  0  0  0  0  0  0  0  0  0
    9.2251    3.6935   -9.2154 C   0  0  0  0  0  0  0  0  0  0  0  0
   10.0723    4.7824   -9.7337 C   0  0  0  0  0  0  0  0  0  0  0  0
   10.8860    5.5050   -8.8612 C   0  0  0  0  0  0  0  0  0  0  0  0
   11.7482    6.5106   -9.3244 C   0  0  0  0  0  0  0  0  0  0  0  0
   11.8354    6.8305  -10.6840 C   0  0  0  0  0  0  0  0  0  0  0  0
   12.6027    7.8610  -11.1612 O   0  0  0  0  0  0  0  0  0  0  0  0
   13.2347    8.7154  -10.2139 C   0  0  0  0  0  0  0  0  0  0  0  0
   11.0860    6.0661  -11.5941 C   0  0  0  0  0  0  0  0  0  0  0  0
   11.0767    6.2029  -12.9650 O   0  0  0  0  0  0  0  0  0  0  0  0
   12.2482    6.7323  -13.5864 C   0  0  0  0  0  0  0  0  0  0  0  0
   10.2037    5.0632  -11.1108 C   0  0  0  0  0  0  0  0  0  0  0  0
    9.0172    2.4188   -9.7865 C   0  0  0  0  0  0  0  0  0  0  0  0
    8.3593    1.5794   -8.9852 N   0  0  0  0  0  0  0  0  0  0  0  0
    8.1400    2.2968   -7.8339 N   0  0  0  0  0  0  0  0  0  0  0  0
    7.5695    1.7649   -6.6050 C   0  0  0  0  0  0  0  0  0  0  0  0
    7.4553    0.3787   -6.6804 N   0  0  0  0  0  0  0  0  0  0  0  0
    6.3919    3.0933   -3.0502 C   0  0  0  0  0  0  0  0  0  0  0  0
    6.1498    2.6913   -1.6901 C   0  0  0  0  0  0  0  0  0  0  0  0
    5.5728   -1.6058    3.4869 H   0  0  0  0  0  0  0  0  0  0  0  0
    6.8178   -2.0270    2.2973 H   0  0  0  0  0  0  0  0  0  0  0  0
    5.0821   -2.3488    1.9569 H   0  0  0  0  0  0  0  0  0  0  0  0
    5.7767    1.6871    0.7204 H   0  0  0  0  0  0  0  0  0  0  0  0
    5.5529   -0.5409   -2.2954 H   0  0  0  0  0  0  0  0  0  0  0  0
    6.1627    0.0874   -4.4861 H   0  0  0  0  0  0  0  0  0  0  0  0
    8.5947    3.3565   -3.2523 H   0  0  0  0  0  0  0  0  0  0  0  0
    8.6970    4.7586   -1.7766 H   0  0  0  0  0  0  0  0  0  0  0  0
    8.8023    6.1271   -2.8359 H   0  0  0  0  0  0  0  0  0  0  0  0
   10.6534    5.6820   -1.1321 H   0  0  0  0  0  0  0  0  0  0  0  0
   11.2191    6.0765   -2.7575 H   0  0  0  0  0  0  0  0  0  0  0  0
   12.6108    4.6229   -0.5875 H   0  0  0  0  0  0  0  0  0  0  0  0
   13.4602    4.4212   -2.1330 H   0  0  0  0  0  0  0  0  0  0  0  0
   12.9007    3.0052   -1.2154 H   0  0  0  0  0  0  0  0  0  0  0  0
   12.0271    2.5361   -3.5305 H   0  0  0  0  0  0  0  0  0  0  0  0
   12.2406    4.1781   -4.1328 H   0  0  0  0  0  0  0  0  0  0  0  0
    9.9873    2.3240   -4.2900 H   0  0  0  0  0  0  0  0  0  0  0  0
   10.4491    3.5637   -5.4082 H   0  0  0  0  0  0  0  0  0  0  0  0
   10.8754    5.2850   -7.7968 H   0  0  0  0  0  0  0  0  0  0  0  0
   12.3430    7.0283   -8.5796 H   0  0  0  0  0  0  0  0  0  0  0  0
   13.6848    9.5527  -10.7568 H   0  0  0  0  0  0  0  0  0  0  0  0
   14.0394    8.1842   -9.6953 H   0  0  0  0  0  0  0  0  0  0  0  0
   12.5144    9.1360   -9.5037 H   0  0  0  0  0  0  0  0  0  0  0  0
   12.2113    6.4724  -14.6504 H   0  0  0  0  0  0  0  0  0  0  0  0
   13.1662    6.2937  -13.1793 H   0  0  0  0  0  0  0  0  0  0  0  0
   12.2677    7.8259  -13.5336 H   0  0  0  0  0  0  0  0  0  0  0  0
    9.6291    4.5033  -11.8473 H   0  0  0  0  0  0  0  0  0  0  0  0
    9.3677    2.0518  -10.7446 H   0  0  0  0  0  0  0  0  0  0  0  0
    7.5748    0.0358   -7.6419 H   0  0  0  0  0  0  0  0  0  0  0  0
    6.7381   -0.0923   -6.1642 H   0  0  0  0  0  0  0  0  0  0  0  0
    6.5314    4.1656   -3.1791 H   0  0  0  0  0  0  0  0  0  0  0  0
    6.2048    3.4463   -0.9049 H   0  0  0  0  0  0  0  0  0  0  0  0
  1  2  1  0  0  0  0
  1 40  1  0  0  0  0
  1 41  1  0  0  0  0
  1 42  1  0  0  0  0
  2  3  1  0  0  0  0
  3  4  2  0  0  0  0
  3  5  1  0  0  0  0
  5  6  1  0  0  0  0
  5 43  1  0  0  0  0
  6  7  1  0  0  0  0
  6 39  2  0  0  0  0
  7  8  2  0  0  0  0
  7 44  1  0  0  0  0
  8  9  1  0  0  0  0
  8 45  1  0  0  0  0
  9 10  1  0  0  0  0
  9 38  2  0  0  0  0
 10 11  1  0  0  0  0
 10 36  2  0  0  0  0
 11 12  1  0  0  0  0
 11 20  2  0  0  0  0
 12 13  1  0  0  0  0
 13 14  1  0  0  0  0
 13 19  1  0  0  0  0
 13 46  1  0  0  0  0
 14 15  1  0  0  0  0
 14 47  1  0  0  0  0
 14 48  1  0  0  0  0
 15 16  1  0  0  0  0
 15 49  1  0  0  0  0
 15 50  1  0  0  0  0
 16 17  1  0  0  0  0
 16 18  1  0  0  0  0
 17 51  1  0  0  0  0
 17 52  1  0  0  0  0
 17 53  1  0  0  0  0
 18 19  1  0  0  0  0
 18 54  1  0  0  0  0
 18 55  1  0  0  0  0
 19 56  1  0  0  0  0
 19 57  1  0  0  0  0
 20 21  1  0  0  0  0
 21 22  2  0  0  0  0
 21 35  1  0  0  0  0
 22 23  1  0  0  0  0
 22 33  1  0  0  0  0
 23 24  1  0  0  0  0
 23 32  2  0  0  0  0
 24 25  2  0  0  0  0
 24 58  1  0  0  0  0
 25 26  1  0  0  0  0
 25 59  1  0  0  0  0
 26 27  1  0  0  0  0
 26 29  2  0  0  0  0
 27 28  1  0  0  0  0
 28 60  1  0  0  0  0
 28 61  1  0  0  0  0
 28 62  1  0  0  0  0
 29 30  1  0  0  0  0
 29 32  1  0  0  0  0
 30 31  1  0  0  0  0
 31 63  1  0  0  0  0
 31 64  1  0  0  0  0
 31 65  1  0  0  0  0
 32 66  1  0  0  0  0
 33 34  2  0  0  0  0
 33 67  1  0  0  0  0
 34 35  1  0  0  0  0
 35 36  1  0  0  0  0
 36 37  1  0  0  0  0
 37 68  1  0  0  0  0
 37 69  1  0  0  0  0
 38 39  1  0  0  0  0
 38 70  1  0  0  0  0
 39 71  1  0  0  0  0
M  END
$$$$
