CHEMBL591896
 OpenBabel04072215383D

 28 31  0  0  0  0  0  0  0  0999 V2000
    1.2110   -0.4756    0.5850 O   0  0  0  0  0  0  0  0  0  0  0  0
    2.3581   -0.1249    0.2935 C   0  0  0  0  0  0  0  0  0  0  0  0
    3.0814   -0.6866   -0.9231 C   0  0  0  0  0  0  0  0  0  0  0  0
    4.3160   -1.3842   -0.4949 C   0  0  0  0  0  0  0  0  0  0  0  0
    4.5355   -2.8010   -0.9206 C   0  0  0  0  0  0  0  0  0  0  0  0
    5.6082   -3.5070   -0.7211 N   0  0  0  0  0  0  0  0  0  0  0  0
    6.5078   -2.9537    0.1381 C   0  0  0  0  0  0  0  0  0  0  0  0
    7.7093   -3.3979    0.6316 C   0  0  0  0  0  0  0  0  0  0  0  0
    7.7902   -2.7323    1.8629 C   0  0  0  0  0  0  0  0  0  0  0  0
    7.0008   -1.6564    1.9240 N   0  0  0  0  0  0  0  0  0  0  0  0
    6.2908   -1.7125    0.7561 N   0  0  0  0  0  0  0  0  0  0  0  0
    5.2921   -0.8590    0.2792 C   0  0  0  0  0  0  0  0  0  0  0  0
    5.3407    0.6012    0.4215 C   0  0  0  0  0  0  0  0  0  0  0  0
    6.5087    1.1486   -0.0070 N   0  0  0  0  0  0  0  0  0  0  0  0
    6.6032    2.4952   -0.0396 C   0  0  0  0  0  0  0  0  0  0  0  0
    5.5888    3.3398    0.3729 C   0  0  0  0  0  0  0  0  0  0  0  0
    4.4029    2.7752    0.8276 C   0  0  0  0  0  0  0  0  0  0  0  0
    4.2531    1.3857    0.7857 C   0  0  0  0  0  0  0  0  0  0  0  0
    2.9553    0.8814    1.0121 N   0  0  0  0  0  0  0  0  0  0  0  0
    3.3005    0.1160   -1.6337 H   0  0  0  0  0  0  0  0  0  0  0  0
    2.3905   -1.3719   -1.4308 H   0  0  0  0  0  0  0  0  0  0  0  0
    3.7203   -3.2618   -1.5070 H   0  0  0  0  0  0  0  0  0  0  0  0
    8.2833   -4.2418    0.2831 H   0  0  0  0  0  0  0  0  0  0  0  0
    8.3854   -3.0024    2.7234 H   0  0  0  0  0  0  0  0  0  0  0  0
    7.5391    2.8888   -0.4296 H   0  0  0  0  0  0  0  0  0  0  0  0
    5.7055    4.4145    0.3029 H   0  0  0  0  0  0  0  0  0  0  0  0
    3.5768    3.4238    1.1061 H   0  0  0  0  0  0  0  0  0  0  0  0
    2.3152    1.3995    1.6045 H   0  0  0  0  0  0  0  0  0  0  0  0
  1  2  2  0  0  0  0
  2  3  1  0  0  0  0
  2 19  1  0  0  0  0
  3  4  1  0  0  0  0
  3 20  1  0  0  0  0
  3 21  1  0  0  0  0
  4  5  1  0  0  0  0
  4 12  2  0  0  0  0
  5  6  2  0  0  0  0
  5 22  1  0  0  0  0
  6  7  1  0  0  0  0
  7  8  2  0  0  0  0
  7 11  1  0  0  0  0
  8  9  1  0  0  0  0
  8 23  1  0  0  0  0
  9 10  2  0  0  0  0
  9 24  1  0  0  0  0
 10 11  1  0  0  0  0
 11 12  1  0  0  0  0
 12 13  1  0  0  0  0
 13 14  1  0  0  0  0
 13 18  2  0  0  0  0
 14 15  2  0  0  0  0
 15 16  1  0  0  0  0
 15 25  1  0  0  0  0
 16 17  2  0  0  0  0
 16 26  1  0  0  0  0
 17 18  1  0  0  0  0
 17 27  1  0  0  0  0
 18 19  1  0  0  0  0
 19 28  1  0  0  0  0
M  END
$$$$
