CHEMBL3109344
 OpenBabel04072215363D

 57 61  0  0  1  0  0  0  0  0999 V2000
   14.3625   17.3010   -2.7650 C   0  0  0  0  0  0  0  0  0  0  0  0
   13.6296   16.0852   -2.7755 O   0  0  0  0  0  0  0  0  0  0  0  0
   12.3412   16.2463   -2.1817 C   0  0  0  0  0  0  0  0  0  0  0  0
   11.6182   14.9098   -2.2306 C   0  0  0  0  0  0  0  0  0  0  0  0
   10.3185   15.0402   -1.6611 O   0  0  0  0  0  0  0  0  0  0  0  0
    9.5505   13.8934   -1.5475 C   0  0  0  0  0  0  0  0  0  0  0  0
   10.0033   12.6300   -2.1205 C   0  0  0  0  0  0  0  0  0  0  0  0
    9.2368   11.5338   -1.9970 C   0  0  0  0  0  0  0  0  0  0  0  0
    8.0178   11.6103   -1.3242 N   0  0  0  0  0  0  0  0  0  0  0  0
    7.0476   10.6539   -1.0968 C   0  0  0  0  0  0  0  0  0  0  0  0
    7.0670    9.2682   -1.5530 C   0  0  0  0  0  0  0  0  0  0  0  0
    5.8811    8.6120   -1.8402 C   0  0  0  0  0  0  0  0  0  0  0  0
    5.9376    7.2817   -2.2194 C   0  0  0  0  0  0  0  0  0  0  0  0
    7.1691    6.6288   -2.2805 C   0  0  0  0  0  0  0  0  0  0  0  0
    7.2102    5.2696   -2.6178 C   0  0  0  0  0  0  0  0  0  0  0  0
    8.4131    4.5814   -2.5995 C   0  0  0  0  0  0  0  0  0  0  0  0
    9.5859    5.2633   -2.3010 C   0  0  0  0  0  0  0  0  0  0  0  0
    9.5694    6.6501   -2.0723 C   0  0  0  0  0  0  0  0  0  0  0  0
   10.7307    7.3881   -1.9249 O   0  0  0  0  0  0  0  0  0  0  0  0
   11.9196    6.8860   -2.5636 C   0  0  1  0  0  0  0  0  0  0  0  0
   11.7709    6.8104   -4.0931 C   0  0  0  0  0  0  0  0  0  0  0  0
   13.0838    6.3670   -4.7266 C   0  0  0  0  0  0  0  0  0  0  0  0
   14.2171    7.3110   -4.3379 C   0  0  0  0  0  0  0  0  0  0  0  0
   14.3532    7.4150   -2.8838 N   0  0  0  0  0  0  0  0  0  0  0  0
   13.0957    7.8372   -2.2459 C   0  0  0  0  0  0  0  0  0  0  0  0
    8.3482    7.3547   -1.9884 C   0  0  0  0  0  0  0  0  0  0  0  0
    8.2769    8.6693   -1.6453 N   0  0  0  0  0  0  0  0  0  0  0  0
    6.0691   11.3301   -0.3822 C   0  0  0  0  0  0  0  0  0  0  0  0
    6.3804   12.6473   -0.1913 N   0  0  0  0  0  0  0  0  0  0  0  0
    7.5528   12.8030   -0.7661 C   0  0  0  0  0  0  0  0  0  0  0  0
    8.3683   13.9619   -0.9032 C   0  0  0  0  0  0  0  0  0  0  0  0
   15.3376   17.1188   -3.2242 H   0  0  0  0  0  0  0  0  0  0  0  0
   14.5166   17.6436   -1.7375 H   0  0  0  0  0  0  0  0  0  0  0  0
   13.8384   18.0659   -3.3455 H   0  0  0  0  0  0  0  0  0  0  0  0
   11.7656   17.0037   -2.7265 H   0  0  0  0  0  0  0  0  0  0  0  0
   12.4431   16.5785   -1.1419 H   0  0  0  0  0  0  0  0  0  0  0  0
   12.2100   14.1703   -1.6757 H   0  0  0  0  0  0  0  0  0  0  0  0
   11.5418   14.5908   -3.2776 H   0  0  0  0  0  0  0  0  0  0  0  0
   10.9426   12.5442   -2.6489 H   0  0  0  0  0  0  0  0  0  0  0  0
    9.5356   10.5780   -2.4048 H   0  0  0  0  0  0  0  0  0  0  0  0
    4.9232    9.1145   -1.7696 H   0  0  0  0  0  0  0  0  0  0  0  0
    5.0122    6.7566   -2.4413 H   0  0  0  0  0  0  0  0  0  0  0  0
    6.2984    4.7326   -2.8697 H   0  0  0  0  0  0  0  0  0  0  0  0
    8.4390    3.5179   -2.8221 H   0  0  0  0  0  0  0  0  0  0  0  0
   10.5068    4.6907   -2.2724 H   0  0  0  0  0  0  0  0  0  0  0  0
   12.1844    5.9081   -2.1418 H   0  0  0  0  0  0  0  0  0  0  0  0
   11.4738    7.7932   -4.4822 H   0  0  0  0  0  0  0  0  0  0  0  0
   10.9770    6.1208   -4.3935 H   0  0  0  0  0  0  0  0  0  0  0  0
   12.9783    6.3367   -5.8166 H   0  0  0  0  0  0  0  0  0  0  0  0
   13.3209    5.3453   -4.4001 H   0  0  0  0  0  0  0  0  0  0  0  0
   14.0434    8.3036   -4.7715 H   0  0  0  0  0  0  0  0  0  0  0  0
   15.1560    6.9363   -4.7591 H   0  0  0  0  0  0  0  0  0  0  0  0
   15.0847    8.0913   -2.6631 H   0  0  0  0  0  0  0  0  0  0  0  0
   12.8452    8.8625   -2.5485 H   0  0  0  0  0  0  0  0  0  0  0  0
   13.2453    7.8751   -1.1604 H   0  0  0  0  0  0  0  0  0  0  0  0
    5.1406   10.9273    0.0011 H   0  0  0  0  0  0  0  0  0  0  0  0
    8.0107   14.8931   -0.4786 H   0  0  0  0  0  0  0  0  0  0  0  0
  1  2  1  0  0  0  0
  1 32  1  0  0  0  0
  1 33  1  0  0  0  0
  1 34  1  0  0  0  0
  2  3  1  0  0  0  0
  3  4  1  0  0  0  0
  3 35  1  0  0  0  0
  3 36  1  0  0  0  0
  4  5  1  0  0  0  0
  4 37  1  0  0  0  0
  4 38  1  0  0  0  0
  5  6  1  0  0  0  0
  6  7  1  0  0  0  0
  6 31  2  0  0  0  0
  7  8  2  0  0  0  0
  7 39  1  0  0  0  0
  8  9  1  0  0  0  0
  8 40  1  0  0  0  0
  9 10  1  0  0  0  0
  9 30  1  0  0  0  0
 10 11  1  0  0  0  0
 10 28  2  0  0  0  0
 11 12  1  0  0  0  0
 11 27  2  0  0  0  0
 12 13  2  0  0  0  0
 12 41  1  0  0  0  0
 13 14  1  0  0  0  0
 13 42  1  0  0  0  0
 14 15  1  0  0  0  0
 14 26  2  0  0  0  0
 15 16  2  0  0  0  0
 15 43  1  0  0  0  0
 16 17  1  0  0  0  0
 16 44  1  0  0  0  0
 17 18  2  0  0  0  0
 17 45  1  0  0  0  0
 18 19  1  0  0  0  0
 18 26  1  0  0  0  0
 20 21  1  0  0  0  0
 20 25  1  0  0  0  0
 20 19  1  0  0  0  0
 20 46  1  1  0  0  0
 21 22  1  0  0  0  0
 21 47  1  0  0  0  0
 21 48  1  0  0  0  0
 22 23  1  0  0  0  0
 22 49  1  0  0  0  0
 22 50  1  0  0  0  0
 23 24  1  0  0  0  0
 23 51  1  0  0  0  0
 23 52  1  0  0  0  0
 24 25  1  0  0  0  0
 24 53  1  0  0  0  0
 25 54  1  0  0  0  0
 25 55  1  0  0  0  0
 26 27  1  0  0  0  0
 28 29  1  0  0  0  0
 28 56  1  0  0  0  0
 29 30  2  0  0  0  0
 30 31  1  0  0  0  0
 31 57  1  0  0  0  0
M  END
$$$$
