CHEMBL3983918
 OpenBabel04072215373D

 67 69  0  0  0  0  0  0  0  0999 V2000
    1.5273    5.1915   -3.0561 C   0  0  0  0  0  0  0  0  0  0  0  0
    1.9021    4.5377   -1.8524 O   0  0  0  0  0  0  0  0  0  0  0  0
    2.5463    3.3477   -2.0673 C   0  0  0  0  0  0  0  0  0  0  0  0
    1.8406    2.2327   -1.6332 C   0  0  0  0  0  0  0  0  0  0  0  0
    2.4455    1.0073   -1.6983 C   0  0  0  0  0  0  0  0  0  0  0  0
    1.8537   -0.1858   -1.3942 O   0  0  0  0  0  0  0  0  0  0  0  0
    0.4254   -0.2173   -1.4262 C   0  0  0  0  0  0  0  0  0  0  0  0
    3.8199    0.9635   -1.9892 C   0  0  0  0  0  0  0  0  0  0  0  0
    4.5944    2.0569   -2.4456 C   0  0  0  0  0  0  0  0  0  0  0  0
    5.9777    1.9088   -2.7856 N   0  0  0  0  0  0  0  0  0  0  0  0
    6.5724    0.4712   -2.6873 C   0  0  0  0  0  0  0  0  0  0  0  0
    5.9295   -0.7993   -3.3663 C   0  0  0  0  0  0  0  0  0  0  0  0
    5.5669   -0.8162   -4.8495 C   0  0  0  0  0  0  0  0  0  0  0  0
    4.9152   -2.0781   -5.2323 N   0  0  0  0  0  0  0  0  0  0  0  0
    5.6275   -3.2255   -5.5765 C   0  0  0  0  0  0  0  0  0  0  0  0
    6.8612   -3.2266   -5.5828 O   0  0  0  0  0  0  0  0  0  0  0  0
    4.7785   -4.4735   -5.9500 C   0  0  0  0  0  0  0  0  0  0  0  0
    3.4404   -4.2568   -5.7820 F   0  0  0  0  0  0  0  0  0  0  0  0
    4.9416   -4.8478   -7.2498 F   0  0  0  0  0  0  0  0  0  0  0  0
    5.0856   -5.5624   -5.1915 F   0  0  0  0  0  0  0  0  0  0  0  0
    6.8874    2.7902   -3.5168 C   0  0  0  0  0  0  0  0  0  0  0  0
    7.2941    2.2267   -4.7130 C   0  0  0  0  0  0  0  0  0  0  0  0
    8.6046    2.3932   -5.0969 C   0  0  0  0  0  0  0  0  0  0  0  0
    9.4389    3.3011   -4.5300 C   0  0  0  0  0  0  0  0  0  0  0  0
   10.6879    2.9557   -4.8215 N   0  0  0  0  0  0  0  0  0  0  0  0
   11.5933    3.9186   -4.8308 C   0  0  0  0  0  0  0  0  0  0  0  0
   11.2536    5.2423   -4.7065 C   0  0  0  0  0  0  0  0  0  0  0  0
   12.1797    6.0534   -5.5875 C   0  0  0  0  0  0  0  0  0  0  0  0
   12.8634    5.4942   -6.7482 C   0  0  0  0  0  0  0  0  0  0  0  0
   13.8498    6.2375   -7.2378 N   0  0  0  0  0  0  0  0  0  0  0  0
   13.8213    7.3169   -6.4537 N   0  0  0  0  0  0  0  0  0  0  0  0
   12.8428    7.2663   -5.4686 C   0  0  0  0  0  0  0  0  0  0  0  0
   10.0103    5.5272   -4.0930 N   0  0  0  0  0  0  0  0  0  0  0  0
    9.0159    4.4267   -3.8726 C   0  0  0  0  0  0  0  0  0  0  0  0
    7.6661    3.9752   -3.1648 C   0  0  0  0  0  0  0  0  0  0  0  0
    3.8881    3.2625   -2.5202 C   0  0  0  0  0  0  0  0  0  0  0  0
    2.0823   -1.3347    1.1634 O   0  0  0  0  0  0  0  0  0  0  0  0
    3.2235   -0.9076    1.0273 C   0  0  0  0  0  0  0  0  0  0  0  0
    4.1681   -1.6218    0.3299 O   0  0  0  0  0  0  0  0  0  0  0  0
    3.7646    0.4151    1.5944 C   0  0  0  0  0  0  0  0  0  0  0  0
    5.1288    0.3533    1.6822 F   0  0  0  0  0  0  0  0  0  0  0  0
    3.5011    1.5052    0.8317 F   0  0  0  0  0  0  0  0  0  0  0  0
    3.3026    0.6958    2.8393 F   0  0  0  0  0  0  0  0  0  0  0  0
    0.9644    4.5390   -3.7343 H   0  0  0  0  0  0  0  0  0  0  0  0
    2.4115    5.6013   -3.5471 H   0  0  0  0  0  0  0  0  0  0  0  0
    0.8709    6.0225   -2.7769 H   0  0  0  0  0  0  0  0  0  0  0  0
    0.8596    2.3652   -1.1930 H   0  0  0  0  0  0  0  0  0  0  0  0
    0.0895   -1.1837   -1.0367 H   0  0  0  0  0  0  0  0  0  0  0  0
    0.0701   -0.1226   -2.4578 H   0  0  0  0  0  0  0  0  0  0  0  0
   -0.0279    0.5471   -0.7884 H   0  0  0  0  0  0  0  0  0  0  0  0
    4.2740    0.0153   -1.7752 H   0  0  0  0  0  0  0  0  0  0  0  0
    6.6476    0.2442   -1.6142 H   0  0  0  0  0  0  0  0  0  0  0  0
    7.6229    0.4745   -3.0091 H   0  0  0  0  0  0  0  0  0  0  0  0
    5.0614   -1.1839   -2.8286 H   0  0  0  0  0  0  0  0  0  0  0  0
    6.6482   -1.6172   -3.2039 H   0  0  0  0  0  0  0  0  0  0  0  0
    6.4677   -0.7134   -5.4607 H   0  0  0  0  0  0  0  0  0  0  0  0
    4.8624   -0.0174   -5.0949 H   0  0  0  0  0  0  0  0  0  0  0  0
    3.9013   -2.1490   -5.1643 H   0  0  0  0  0  0  0  0  0  0  0  0
    6.7442    1.4489   -5.1842 H   0  0  0  0  0  0  0  0  0  0  0  0
    9.0165    1.7138   -5.8413 H   0  0  0  0  0  0  0  0  0  0  0  0
   12.5473    3.5681   -5.1967 H   0  0  0  0  0  0  0  0  0  0  0  0
   12.7228    4.5194   -7.2043 H   0  0  0  0  0  0  0  0  0  0  0  0
   14.5359    8.0218   -6.6329 H   0  0  0  0  0  0  0  0  0  0  0  0
   12.8014    8.0909   -4.7763 H   0  0  0  0  0  0  0  0  0  0  0  0
    7.3315    4.5876   -2.3026 H   0  0  0  0  0  0  0  0  0  0  0  0
    4.3839    4.1654   -2.8557 H   0  0  0  0  0  0  0  0  0  0  0  0
    5.0482   -1.1881    0.3553 H   0  0  0  0  0  0  0  0  0  0  0  0
  1  2  1  0  0  0  0
  1 44  1  0  0  0  0
  1 45  1  0  0  0  0
  1 46  1  0  0  0  0
  2  3  1  0  0  0  0
  3  4  1  0  0  0  0
  3 36  2  0  0  0  0
  4  5  2  0  0  0  0
  4 47  1  0  0  0  0
  5  6  1  0  0  0  0
  5  8  1  0  0  0  0
  6  7  1  0  0  0  0
  7 48  1  0  0  0  0
  7 49  1  0  0  0  0
  7 50  1  0  0  0  0
  8  9  2  0  0  0  0
  8 51  1  0  0  0  0
  9 10  1  0  0  0  0
  9 36  1  0  0  0  0
 10 11  1  0  0  0  0
 10 21  1  0  0  0  0
 11 12  1  0  0  0  0
 11 52  1  0  0  0  0
 11 53  1  0  0  0  0
 12 13  1  0  0  0  0
 12 54  1  0  0  0  0
 12 55  1  0  0  0  0
 13 14  1  0  0  0  0
 13 56  1  0  0  0  0
 13 57  1  0  0  0  0
 14 15  1  0  0  0  0
 14 58  1  0  0  0  0
 15 16  2  0  0  0  0
 15 17  1  0  0  0  0
 17 18  1  0  0  0  0
 17 19  1  0  0  0  0
 17 20  1  0  0  0  0
 21 22  1  0  0  0  0
 21 35  2  0  0  0  0
 22 23  2  0  0  0  0
 22 59  1  0  0  0  0
 23 24  1  0  0  0  0
 23 60  1  0  0  0  0
 24 25  1  0  0  0  0
 24 34  2  0  0  0  0
 25 26  2  0  0  0  0
 26 27  1  0  0  0  0
 26 61  1  0  0  0  0
 27 28  1  0  0  0  0
 27 33  2  0  0  0  0
 28 29  1  0  0  0  0
 28 32  2  0  0  0  0
 29 30  2  0  0  0  0
 29 62  1  0  0  0  0
 30 31  1  0  0  0  0
 31 32  1  0  0  0  0
 31 63  1  0  0  0  0
 32 64  1  0  0  0  0
 33 34  1  0  0  0  0
 34 35  1  0  0  0  0
 35 65  1  0  0  0  0
 36 66  1  0  0  0  0
 37 38  2  0  0  0  0
 38 39  1  0  0  0  0
 38 40  1  0  0  0  0
 39 67  1  0  0  0  0
 40 41  1  0  0  0  0
 40 42  1  0  0  0  0
 40 43  1  0  0  0  0
M  END
$$$$
