CHEMBL3903973
 OpenBabel04072215373D

 53 56  0  0  0  0  0  0  0  0999 V2000
    1.3535   -4.5197    1.1385 C   0  0  0  0  0  0  0  0  0  0  0  0
    1.9218   -3.7695    2.2116 O   0  0  0  0  0  0  0  0  0  0  0  0
    2.7739   -2.7547    1.8470 C   0  0  0  0  0  0  0  0  0  0  0  0
    2.6950   -2.1026    0.6223 C   0  0  0  0  0  0  0  0  0  0  0  0
    3.6120   -1.1041    0.3001 C   0  0  0  0  0  0  0  0  0  0  0  0
    3.4046   -0.5753   -0.9474 O   0  0  0  0  0  0  0  0  0  0  0  0
    4.2617    0.4829   -1.3569 C   0  0  0  0  0  0  0  0  0  0  0  0
    4.6181   -0.7593    1.2174 C   0  0  0  0  0  0  0  0  0  0  0  0
    5.5654    0.1185    0.8424 F   0  0  0  0  0  0  0  0  0  0  0  0
    4.7108   -1.3476    2.4987 C   0  0  0  0  0  0  0  0  0  0  0  0
    5.7210   -0.9780    3.4418 N   0  0  0  0  0  0  0  0  0  0  0  0
    6.2125    0.4310    3.4606 C   0  0  0  0  0  0  0  0  0  0  0  0
    7.7304    0.5694    3.2290 C   0  0  0  0  0  0  0  0  0  0  0  0
    8.1101    1.9415    3.3565 O   0  0  0  0  0  0  0  0  0  0  0  0
    6.3939   -1.8403    4.3492 C   0  0  0  0  0  0  0  0  0  0  0  0
    6.8679   -1.3783    5.5834 C   0  0  0  0  0  0  0  0  0  0  0  0
    7.7330   -2.1461    6.3579 C   0  0  0  0  0  0  0  0  0  0  0  0
    8.0960   -3.4142    5.9572 C   0  0  0  0  0  0  0  0  0  0  0  0
    8.9662   -4.0887    6.7274 N   0  0  0  0  0  0  0  0  0  0  0  0
    9.2735   -5.3356    6.2981 C   0  0  0  0  0  0  0  0  0  0  0  0
    8.7320   -5.9035    5.1553 C   0  0  0  0  0  0  0  0  0  0  0  0
    9.0464   -7.2682    4.7828 C   0  0  0  0  0  0  0  0  0  0  0  0
    9.8292   -8.2421    5.4432 C   0  0  0  0  0  0  0  0  0  0  0  0
    9.8679   -9.4045    4.7976 N   0  0  0  0  0  0  0  0  0  0  0  0
    9.0973   -9.1903    3.7142 N   0  0  0  0  0  0  0  0  0  0  0  0
    8.8703  -10.2566    2.7738 C   0  0  0  0  0  0  0  0  0  0  0  0
    8.5872   -7.9253    3.6570 C   0  0  0  0  0  0  0  0  0  0  0  0
    7.8740   -5.2094    4.3665 N   0  0  0  0  0  0  0  0  0  0  0  0
    7.5572   -3.9573    4.7662 C   0  0  0  0  0  0  0  0  0  0  0  0
    6.7184   -3.1601    3.9872 C   0  0  0  0  0  0  0  0  0  0  0  0
    3.7481   -2.3509    2.7806 C   0  0  0  0  0  0  0  0  0  0  0  0
    3.7471   -2.9441    3.9856 F   0  0  0  0  0  0  0  0  0  0  0  0
    0.8495   -5.3938    1.5597 H   0  0  0  0  0  0  0  0  0  0  0  0
    2.1288   -4.8793    0.4530 H   0  0  0  0  0  0  0  0  0  0  0  0
    0.5981   -3.9362    0.6008 H   0  0  0  0  0  0  0  0  0  0  0  0
    1.9279   -2.3445   -0.1061 H   0  0  0  0  0  0  0  0  0  0  0  0
    3.9012    0.8456   -2.3225 H   0  0  0  0  0  0  0  0  0  0  0  0
    5.2822    0.1150   -1.4958 H   0  0  0  0  0  0  0  0  0  0  0  0
    4.2222    1.3197   -0.6527 H   0  0  0  0  0  0  0  0  0  0  0  0
    5.9506    0.9003    4.4167 H   0  0  0  0  0  0  0  0  0  0  0  0
    5.6952    1.0770    2.7465 H   0  0  0  0  0  0  0  0  0  0  0  0
    8.0190    0.2082    2.2298 H   0  0  0  0  0  0  0  0  0  0  0  0
    8.3337    0.0128    3.9523 H   0  0  0  0  0  0  0  0  0  0  0  0
    8.6874    2.1581    2.6042 H   0  0  0  0  0  0  0  0  0  0  0  0
    6.6214   -0.3858    5.9524 H   0  0  0  0  0  0  0  0  0  0  0  0
    8.1456   -1.7358    7.2765 H   0  0  0  0  0  0  0  0  0  0  0  0
    9.9806   -5.8605    6.9321 H   0  0  0  0  0  0  0  0  0  0  0  0
   10.3759   -8.1615    6.3794 H   0  0  0  0  0  0  0  0  0  0  0  0
    9.4649  -11.1283    3.0594 H   0  0  0  0  0  0  0  0  0  0  0  0
    9.1683   -9.9131    1.7798 H   0  0  0  0  0  0  0  0  0  0  0  0
    7.8072  -10.5094    2.7911 H   0  0  0  0  0  0  0  0  0  0  0  0
    7.9443   -7.6023    2.8484 H   0  0  0  0  0  0  0  0  0  0  0  0
    6.3647   -3.5721    3.0475 H   0  0  0  0  0  0  0  0  0  0  0  0
  1  2  1  0  0  0  0
  1 33  1  0  0  0  0
  1 34  1  0  0  0  0
  1 35  1  0  0  0  0
  2  3  1  0  0  0  0
  3  4  1  0  0  0  0
  3 31  2  0  0  0  0
  4  5  2  0  0  0  0
  4 36  1  0  0  0  0
  5  6  1  0  0  0  0
  5  8  1  0  0  0  0
  6  7  1  0  0  0  0
  7 37  1  0  0  0  0
  7 38  1  0  0  0  0
  7 39  1  0  0  0  0
  8  9  1  0  0  0  0
  8 10  2  0  0  0  0
 10 11  1  0  0  0  0
 10 31  1  0  0  0  0
 11 12  1  0  0  0  0
 11 15  1  0  0  0  0
 12 13  1  0  0  0  0
 12 40  1  0  0  0  0
 12 41  1  0  0  0  0
 13 14  1  0  0  0  0
 13 42  1  0  0  0  0
 13 43  1  0  0  0  0
 14 44  1  0  0  0  0
 15 16  1  0  0  0  0
 15 30  2  0  0  0  0
 16 17  2  0  0  0  0
 16 45  1  0  0  0  0
 17 18  1  0  0  0  0
 17 46  1  0  0  0  0
 18 19  1  0  0  0  0
 18 29  2  0  0  0  0
 19 20  2  0  0  0  0
 20 21  1  0  0  0  0
 20 47  1  0  0  0  0
 21 22  1  0  0  0  0
 21 28  2  0  0  0  0
 22 23  1  0  0  0  0
 22 27  2  0  0  0  0
 23 24  2  0  0  0  0
 23 48  1  0  0  0  0
 24 25  1  0  0  0  0
 25 26  1  0  0  0  0
 25 27  1  0  0  0  0
 26 49  1  0  0  0  0
 26 50  1  0  0  0  0
 26 51  1  0  0  0  0
 27 52  1  0  0  0  0
 28 29  1  0  0  0  0
 29 30  1  0  0  0  0
 30 53  1  0  0  0  0
 31 32  1  0  0  0  0
M  END
$$$$
