CHEMBL1681941
 OpenBabel04072215363D

 45 47  0  0  0  0  0  0  0  0999 V2000
    9.0364    6.2413   -5.2587 C   0  0  0  0  0  0  0  0  0  0  0  0
    8.5328    4.9186   -5.0807 O   0  0  0  0  0  0  0  0  0  0  0  0
    7.4929    4.9821   -4.1471 N   0  0  0  0  0  0  0  0  0  0  0  0
    6.9716    3.8071   -3.9701 C   0  0  0  0  0  0  0  0  0  0  0  0
    5.8396    3.6279   -3.0476 C   0  0  0  0  0  0  0  0  0  0  0  0
    4.9666    4.6711   -2.7520 C   0  0  0  0  0  0  0  0  0  0  0  0
    5.0221    5.9082   -3.3923 N   0  0  0  0  0  0  0  0  0  0  0  0
    3.9263    4.5354   -1.9129 N   0  0  0  0  0  0  0  0  0  0  0  0
    3.7764    3.3410   -1.3354 C   0  0  0  0  0  0  0  0  0  0  0  0
    4.5727    2.2852   -1.5152 N   0  0  0  0  0  0  0  0  0  0  0  0
    5.5845    2.4324   -2.4027 C   0  0  0  0  0  0  0  0  0  0  0  0
    6.4134    1.3273   -2.6296 O   0  0  0  0  0  0  0  0  0  0  0  0
    5.8715    0.0864   -2.3430 C   0  0  0  0  0  0  0  0  0  0  0  0
    4.6041   -0.2668   -2.7907 C   0  0  0  0  0  0  0  0  0  0  0  0
    4.0274   -1.4724   -2.4007 C   0  0  0  0  0  0  0  0  0  0  0  0
    4.7096   -2.3750   -1.5748 C   0  0  0  0  0  0  0  0  0  0  0  0
    4.0781   -3.5543   -1.0780 N   0  0  0  0  0  0  0  0  0  0  0  0
    2.7105   -3.7689   -1.0786 C   0  0  0  0  0  0  0  0  0  0  0  0
    1.8756   -2.9923   -1.5325 O   0  0  0  0  0  0  0  0  0  0  0  0
    2.3341   -4.9467   -0.4469 N   0  0  0  0  0  0  0  0  0  0  0  0
    0.9537   -5.2797   -0.3611 C   0  0  0  0  0  0  0  0  0  0  0  0
    0.4292   -5.7071    0.8543 C   0  0  0  0  0  0  0  0  0  0  0  0
   -0.9465   -5.9145    0.9675 C   0  0  0  0  0  0  0  0  0  0  0  0
   -1.7425   -5.7431   -0.1551 C   0  0  0  0  0  0  0  0  0  0  0  0
   -1.2635   -5.3814   -1.3616 N   0  0  0  0  0  0  0  0  0  0  0  0
    0.0691   -5.1392   -1.4330 C   0  0  0  0  0  0  0  0  0  0  0  0
    6.0361   -2.0629   -1.2295 C   0  0  0  0  0  0  0  0  0  0  0  0
    6.9788   -3.1613   -0.2754 Cl  0  0  0  0  0  0  0  0  0  0  0  0
    6.6185   -0.8373   -1.6053 C   0  0  0  0  0  0  0  0  0  0  0  0
    9.9028    6.2022   -5.9234 H   0  0  0  0  0  0  0  0  0  0  0  0
    9.3487    6.6605   -4.2964 H   0  0  0  0  0  0  0  0  0  0  0  0
    8.2711    6.8811   -5.7108 H   0  0  0  0  0  0  0  0  0  0  0  0
    7.3638    2.9179   -4.4945 H   0  0  0  0  0  0  0  0  0  0  0  0
    5.9829    6.2369   -3.4921 H   0  0  0  0  0  0  0  0  0  0  0  0
    4.3969    6.5609   -2.9327 H   0  0  0  0  0  0  0  0  0  0  0  0
    2.9271    3.2141   -0.6733 H   0  0  0  0  0  0  0  0  0  0  0  0
    4.0091    0.4117   -3.3967 H   0  0  0  0  0  0  0  0  0  0  0  0
    3.0203   -1.6581   -2.7495 H   0  0  0  0  0  0  0  0  0  0  0  0
    4.6670   -4.1938   -0.5577 H   0  0  0  0  0  0  0  0  0  0  0  0
    2.9139   -5.2294    0.3267 H   0  0  0  0  0  0  0  0  0  0  0  0
    1.0559   -5.8061    1.7337 H   0  0  0  0  0  0  0  0  0  0  0  0
   -1.3936   -6.1815    1.9183 H   0  0  0  0  0  0  0  0  0  0  0  0
   -2.8181   -5.8867   -0.1096 H   0  0  0  0  0  0  0  0  0  0  0  0
    0.4120   -4.8231   -2.4155 H   0  0  0  0  0  0  0  0  0  0  0  0
    7.6296   -0.5927   -1.2945 H   0  0  0  0  0  0  0  0  0  0  0  0
  1  2  1  0  0  0  0
  1 30  1  0  0  0  0
  1 31  1  0  0  0  0
  1 32  1  0  0  0  0
  2  3  1  0  0  0  0
  3  4  2  0  0  0  0
  4  5  1  0  0  0  0
  4 33  1  0  0  0  0
  5  6  1  0  0  0  0
  5 11  2  0  0  0  0
  6  7  1  0  0  0  0
  6  8  2  0  0  0  0
  7 34  1  0  0  0  0
  7 35  1  0  0  0  0
  8  9  1  0  0  0  0
  9 10  2  0  0  0  0
  9 36  1  0  0  0  0
 10 11  1  0  0  0  0
 11 12  1  0  0  0  0
 12 13  1  0  0  0  0
 13 14  1  0  0  0  0
 13 29  2  0  0  0  0
 14 15  2  0  0  0  0
 14 37  1  0  0  0  0
 15 16  1  0  0  0  0
 15 38  1  0  0  0  0
 16 17  1  0  0  0  0
 16 27  2  0  0  0  0
 17 18  1  0  0  0  0
 17 39  1  0  0  0  0
 18 19  2  0  0  0  0
 18 20  1  0  0  0  0
 20 21  1  0  0  0  0
 20 40  1  0  0  0  0
 21 22  1  0  0  0  0
 21 26  2  0  0  0  0
 22 23  2  0  0  0  0
 22 41  1  0  0  0  0
 23 24  1  0  0  0  0
 23 42  1  0  0  0  0
 24 25  2  0  0  0  0
 24 43  1  0  0  0  0
 25 26  1  0  0  0  0
 26 44  1  0  0  0  0
 27 28  1  0  0  0  0
 27 29  1  0  0  0  0
 29 45  1  0  0  0  0
M  END
$$$$
