CHEMBL212054
 OpenBabel04072215363D

 58 63  0  0  0  0  0  0  0  0999 V2000
    6.1926   -2.1415   -7.1404 F   0  0  0  0  0  0  0  0  0  0  0  0
    6.3760   -1.2662   -6.1411 C   0  0  0  0  0  0  0  0  0  0  0  0
    7.6207   -1.3139   -5.4500 C   0  0  0  0  0  0  0  0  0  0  0  0
    7.9505   -0.4552   -4.3876 C   0  0  0  0  0  0  0  0  0  0  0  0
    6.9038    0.4228   -4.1080 C   0  0  0  0  0  0  0  0  0  0  0  0
    6.8861    1.3983   -3.1493 C   0  0  0  0  0  0  0  0  0  0  0  0
    7.8058    1.8279   -2.1662 C   0  0  0  0  0  0  0  0  0  0  0  0
    7.8285    3.0488   -1.6891 N   0  0  0  0  0  0  0  0  0  0  0  0
    8.9263    3.0802   -0.8711 C   0  0  0  0  0  0  0  0  0  0  0  0
    9.4598    4.1482   -0.1534 C   0  0  0  0  0  0  0  0  0  0  0  0
   10.6168    3.9666    0.6228 C   0  0  0  0  0  0  0  0  0  0  0  0
   11.0875    5.0549    1.3528 N   0  0  0  0  0  0  0  0  0  0  0  0
   11.8901    4.8174    2.5450 C   0  0  0  0  0  0  0  0  0  0  0  0
   11.7384    6.0161    3.4690 C   0  0  0  0  0  0  0  0  0  0  0  0
   12.0707    7.3702    2.8041 C   0  0  0  0  0  0  0  0  0  0  0  0
   13.4996    7.7793    2.7476 N   0  0  0  0  0  0  0  0  0  0  0  0
   14.0857    7.8754    4.0934 C   0  0  0  0  0  0  0  0  0  0  0  0
   15.5189    8.4034    4.0785 C   0  0  0  0  0  0  0  0  0  0  0  0
   16.3957    7.5491    3.1760 C   0  0  0  0  0  0  0  0  0  0  0  0
   15.7991    7.5257    1.7801 C   0  0  0  0  0  0  0  0  0  0  0  0
   14.3494    7.0435    1.8114 C   0  0  0  0  0  0  0  0  0  0  0  0
   11.3210    7.4893    1.4616 C   0  0  0  0  0  0  0  0  0  0  0  0
   11.4178    6.2539    0.5720 C   0  0  0  0  0  0  0  0  0  0  0  0
   11.2071    2.6910    0.6655 C   0  0  0  0  0  0  0  0  0  0  0  0
   10.6880    1.5950   -0.0385 C   0  0  0  0  0  0  0  0  0  0  0  0
    9.5465    1.8431   -0.7986 C   0  0  0  0  0  0  0  0  0  0  0  0
    8.7775    1.0490   -1.5989 N   0  0  0  0  0  0  0  0  0  0  0  0
    5.6933    2.0448   -3.3295 N   0  0  0  0  0  0  0  0  0  0  0  0
    4.9029    1.5043   -4.2791 N   0  0  0  0  0  0  0  0  0  0  0  0
    5.6368    0.5083   -4.8026 C   0  0  0  0  0  0  0  0  0  0  0  0
    5.3369   -0.3638   -5.8570 C   0  0  0  0  0  0  0  0  0  0  0  0
    8.3530   -2.0516   -5.7755 H   0  0  0  0  0  0  0  0  0  0  0  0
    8.9148   -0.4880   -3.9030 H   0  0  0  0  0  0  0  0  0  0  0  0
    8.9519    5.1035   -0.1865 H   0  0  0  0  0  0  0  0  0  0  0  0
   12.9313    4.6102    2.2881 H   0  0  0  0  0  0  0  0  0  0  0  0
   11.5226    3.9391    3.0909 H   0  0  0  0  0  0  0  0  0  0  0  0
   12.3029    5.8508    4.3901 H   0  0  0  0  0  0  0  0  0  0  0  0
   10.6851    6.0566    3.7845 H   0  0  0  0  0  0  0  0  0  0  0  0
   11.5993    8.1325    3.4424 H   0  0  0  0  0  0  0  0  0  0  0  0
   14.0933    6.8992    4.5901 H   0  0  0  0  0  0  0  0  0  0  0  0
   13.4822    8.5528    4.7102 H   0  0  0  0  0  0  0  0  0  0  0  0
   15.9216    8.3980    5.0972 H   0  0  0  0  0  0  0  0  0  0  0  0
   15.5285    9.4434    3.7303 H   0  0  0  0  0  0  0  0  0  0  0  0
   16.4536    6.5269    3.5714 H   0  0  0  0  0  0  0  0  0  0  0  0
   17.4151    7.9455    3.1452 H   0  0  0  0  0  0  0  0  0  0  0  0
   16.3867    6.8612    1.1358 H   0  0  0  0  0  0  0  0  0  0  0  0
   15.8458    8.5275    1.3363 H   0  0  0  0  0  0  0  0  0  0  0  0
   14.3665    5.9790    2.0484 H   0  0  0  0  0  0  0  0  0  0  0  0
   13.9795    7.1697    0.7926 H   0  0  0  0  0  0  0  0  0  0  0  0
   11.6377    8.3833    0.9116 H   0  0  0  0  0  0  0  0  0  0  0  0
   10.2558    7.6439    1.6901 H   0  0  0  0  0  0  0  0  0  0  0  0
   12.4041    6.1349    0.1172 H   0  0  0  0  0  0  0  0  0  0  0  0
   10.7316    6.4095   -0.2689 H   0  0  0  0  0  0  0  0  0  0  0  0
   12.1102    2.5254    1.2487 H   0  0  0  0  0  0  0  0  0  0  0  0
   11.1582    0.6193    0.0072 H   0  0  0  0  0  0  0  0  0  0  0  0
    8.9135    0.0630   -1.7617 H   0  0  0  0  0  0  0  0  0  0  0  0
    5.3650    2.8578   -2.8168 H   0  0  0  0  0  0  0  0  0  0  0  0
    4.4088   -0.3401   -6.4062 H   0  0  0  0  0  0  0  0  0  0  0  0
  1  2  1  0  0  0  0
  2  3  1  0  0  0  0
  2 31  2  0  0  0  0
  3  4  2  0  0  0  0
  3 32  1  0  0  0  0
  4  5  1  0  0  0  0
  4 33  1  0  0  0  0
  5  6  2  0  0  0  0
  5 30  1  0  0  0  0
  6  7  1  0  0  0  0
  6 28  1  0  0  0  0
  7  8  2  0  0  0  0
  7 27  1  0  0  0  0
  8  9  1  0  0  0  0
  9 10  1  0  0  0  0
  9 26  2  0  0  0  0
 10 11  2  0  0  0  0
 10 34  1  0  0  0  0
 11 12  1  0  0  0  0
 11 24  1  0  0  0  0
 12 13  1  0  0  0  0
 12 23  1  0  0  0  0
 13 14  1  0  0  0  0
 13 35  1  0  0  0  0
 13 36  1  0  0  0  0
 14 15  1  0  0  0  0
 14 37  1  0  0  0  0
 14 38  1  0  0  0  0
 15 16  1  0  0  0  0
 15 22  1  0  0  0  0
 15 39  1  0  0  0  0
 16 17  1  0  0  0  0
 16 21  1  0  0  0  0
 17 18  1  0  0  0  0
 17 40  1  0  0  0  0
 17 41  1  0  0  0  0
 18 19  1  0  0  0  0
 18 42  1  0  0  0  0
 18 43  1  0  0  0  0
 19 20  1  0  0  0  0
 19 44  1  0  0  0  0
 19 45  1  0  0  0  0
 20 21  1  0  0  0  0
 20 46  1  0  0  0  0
 20 47  1  0  0  0  0
 21 48  1  0  0  0  0
 21 49  1  0  0  0  0
 22 23  1  0  0  0  0
 22 50  1  0  0  0  0
 22 51  1  0  0  0  0
 23 52  1  0  0  0  0
 23 53  1  0  0  0  0
 24 25  2  0  0  0  0
 24 54  1  0  0  0  0
 25 26  1  0  0  0  0
 25 55  1  0  0  0  0
 26 27  1  0  0  0  0
 27 56  1  0  0  0  0
 28 29  1  0  0  0  0
 28 57  1  0  0  0  0
 29 30  2  0  0  0  0
 30 31  1  0  0  0  0
 31 58  1  0  0  0  0
M  END
$$$$
