CHEMBL1276891
 OpenBabel04072215363D

 56 60  0  0  0  0  0  0  0  0999 V2000
    0.9113   -0.0462   -0.0974 C   0  0  0  0  0  0  0  0  0  0  0  0
    2.4022    0.0031   -0.0996 C   0  0  0  0  0  0  0  0  0  0  0  0
    3.2189    1.1322   -0.1002 C   0  0  0  0  0  0  0  0  0  0  0  0
    2.8767    2.5060   -0.0948 C   0  0  0  0  0  0  0  0  0  0  0  0
    3.6623    3.5918   -0.0945 C   0  0  0  0  0  0  0  0  0  0  0  0
    5.1606    3.7646   -0.1069 C   0  0  0  0  0  0  0  0  0  0  0  0
    6.0167    2.9013   -0.1190 O   0  0  0  0  0  0  0  0  0  0  0  0
    5.3668    5.1407   -0.1019 N   0  0  0  0  0  0  0  0  0  0  0  0
    4.1607    5.8335   -0.0870 C   0  0  0  0  0  0  0  0  0  0  0  0
    3.9821    7.2064   -0.0800 C   0  0  0  0  0  0  0  0  0  0  0  0
    2.6668    7.6809   -0.0634 C   0  0  0  0  0  0  0  0  0  0  0  0
    1.5869    6.7855   -0.0548 C   0  0  0  0  0  0  0  0  0  0  0  0
    0.3369    7.2653   -0.0393 F   0  0  0  0  0  0  0  0  0  0  0  0
    1.7804    5.4099   -0.0629 C   0  0  0  0  0  0  0  0  0  0  0  0
    3.0853    4.9456   -0.0805 C   0  0  0  0  0  0  0  0  0  0  0  0
    4.5232    0.6977   -0.0957 N   0  0  0  0  0  0  0  0  0  0  0  0
    4.5494   -0.6656   -0.0784 C   0  0  0  0  0  0  0  0  0  0  0  0
    3.2600   -1.1401   -0.0855 C   0  0  0  0  0  0  0  0  0  0  0  0
    2.9422   -2.5577   -0.0680 C   0  0  0  0  0  0  0  0  0  0  0  0
    1.7845   -2.9639   -0.1322 O   0  0  0  0  0  0  0  0  0  0  0  0
    4.0413   -3.4194    0.0294 N   0  0  0  0  0  0  0  0  0  0  0  0
    3.7740   -4.8604   -0.0244 C   0  0  0  0  0  0  0  0  0  0  0  0
    3.6697   -5.3595   -1.4770 C   0  0  0  0  0  0  0  0  0  0  0  0
    3.3950   -6.7730   -1.7190 N   0  0  0  0  0  0  0  0  0  0  0  0
    4.3447   -7.7200   -1.1204 C   0  0  0  0  0  0  0  0  0  0  0  0
    4.0853   -9.1166   -1.7146 C   0  0  0  0  0  0  0  0  0  0  0  0
    2.7366   -9.5491   -1.4707 O   0  0  0  0  0  0  0  0  0  0  0  0
    1.7979   -8.5944   -1.9951 C   0  0  0  0  0  0  0  0  0  0  0  0
    2.0259   -7.1982   -1.3891 C   0  0  0  0  0  0  0  0  0  0  0  0
    5.4519   -2.9888   -0.0322 C   0  0  0  0  0  0  0  0  0  0  0  0
    5.7759   -1.4819   -0.0491 C   0  0  0  0  0  0  0  0  0  0  0  0
    0.4601    0.9498   -0.0962 H   0  0  0  0  0  0  0  0  0  0  0  0
    0.5502   -0.5696    0.7938 H   0  0  0  0  0  0  0  0  0  0  0  0
    0.5457   -0.5707   -0.9860 H   0  0  0  0  0  0  0  0  0  0  0  0
    1.8050    2.6806   -0.0862 H   0  0  0  0  0  0  0  0  0  0  0  0
    6.2855    5.5534   -0.1117 H   0  0  0  0  0  0  0  0  0  0  0  0
    4.8195    7.8934   -0.0867 H   0  0  0  0  0  0  0  0  0  0  0  0
    2.4621    8.7474   -0.0574 H   0  0  0  0  0  0  0  0  0  0  0  0
    0.9242    4.7473   -0.0558 H   0  0  0  0  0  0  0  0  0  0  0  0
    5.3438    1.2987   -0.0959 H   0  0  0  0  0  0  0  0  0  0  0  0
    2.8371   -5.0645    0.5060 H   0  0  0  0  0  0  0  0  0  0  0  0
    4.5749   -5.3740    0.5175 H   0  0  0  0  0  0  0  0  0  0  0  0
    4.6089   -5.1215   -1.9923 H   0  0  0  0  0  0  0  0  0  0  0  0
    2.9137   -4.7671   -2.0091 H   0  0  0  0  0  0  0  0  0  0  0  0
    4.2180   -7.7592   -0.0303 H   0  0  0  0  0  0  0  0  0  0  0  0
    5.3778   -7.4255   -1.3329 H   0  0  0  0  0  0  0  0  0  0  0  0
    4.7560   -9.8504   -1.2571 H   0  0  0  0  0  0  0  0  0  0  0  0
    4.2752   -9.1220   -2.7954 H   0  0  0  0  0  0  0  0  0  0  0  0
    0.7913   -8.9510   -1.7566 H   0  0  0  0  0  0  0  0  0  0  0  0
    1.8883   -8.5643   -3.0888 H   0  0  0  0  0  0  0  0  0  0  0  0
    1.8839   -7.2404   -0.3011 H   0  0  0  0  0  0  0  0  0  0  0  0
    1.2868   -6.5043   -1.8032 H   0  0  0  0  0  0  0  0  0  0  0  0
    5.8951   -3.4480   -0.9239 H   0  0  0  0  0  0  0  0  0  0  0  0
    5.9542   -3.4418    0.8311 H   0  0  0  0  0  0  0  0  0  0  0  0
    6.3986   -1.2529   -0.9228 H   0  0  0  0  0  0  0  0  0  0  0  0
    6.3724   -1.2257    0.8343 H   0  0  0  0  0  0  0  0  0  0  0  0
  1  2  1  0  0  0  0
  1 32  1  0  0  0  0
  1 33  1  0  0  0  0
  1 34  1  0  0  0  0
  2  3  2  0  0  0  0
  2 18  1  0  0  0  0
  3  4  1  0  0  0  0
  3 16  1  0  0  0  0
  4  5  2  0  0  0  0
  4 35  1  0  0  0  0
  5  6  1  0  0  0  0
  5 15  1  0  0  0  0
  6  7  2  0  0  0  0
  6  8  1  0  0  0  0
  8  9  1  0  0  0  0
  8 36  1  0  0  0  0
  9 10  1  0  0  0  0
  9 15  2  0  0  0  0
 10 11  2  0  0  0  0
 10 37  1  0  0  0  0
 11 12  1  0  0  0  0
 11 38  1  0  0  0  0
 12 13  1  0  0  0  0
 12 14  2  0  0  0  0
 14 15  1  0  0  0  0
 14 39  1  0  0  0  0
 16 17  1  0  0  0  0
 16 40  1  0  0  0  0
 17 18  2  0  0  0  0
 17 31  1  0  0  0  0
 18 19  1  0  0  0  0
 19 20  2  0  0  0  0
 19 21  1  0  0  0  0
 21 22  1  0  0  0  0
 21 30  1  0  0  0  0
 22 23  1  0  0  0  0
 22 41  1  0  0  0  0
 22 42  1  0  0  0  0
 23 24  1  0  0  0  0
 23 43  1  0  0  0  0
 23 44  1  0  0  0  0
 24 25  1  0  0  0  0
 24 29  1  0  0  0  0
 25 26  1  0  0  0  0
 25 45  1  0  0  0  0
 25 46  1  0  0  0  0
 26 27  1  0  0  0  0
 26 47  1  0  0  0  0
 26 48  1  0  0  0  0
 27 28  1  0  0  0  0
 28 29  1  0  0  0  0
 28 49  1  0  0  0  0
 28 50  1  0  0  0  0
 29 51  1  0  0  0  0
 29 52  1  0  0  0  0
 30 31  1  0  0  0  0
 30 53  1  0  0  0  0
 30 54  1  0  0  0  0
 31 55  1  0  0  0  0
 31 56  1  0  0  0  0
M  END
$$$$
