CHEMBL3124950
 OpenBabel04072215363D

 63 67  0  0  0  0  0  0  0  0999 V2000
   -1.3042    1.5133    0.2070 C   0  0  0  0  0  0  0  0  0  0  0  0
   -1.1652    0.0788   -0.3539 C   0  0  0  0  0  0  0  0  0  0  0  0
   -2.3687   -0.7306    0.1785 C   0  0  0  0  0  0  0  0  0  0  0  0
    0.0897   -0.5022    0.1944 C   0  0  0  0  0  0  0  0  0  0  0  0
    1.0528   -0.9696    0.6459 N   0  0  0  0  0  0  0  0  0  0  0  0
   -1.1693    0.0143   -1.8981 C   0  0  0  0  0  0  0  0  0  0  0  0
   -1.0256   -1.2158   -2.5697 C   0  0  0  0  0  0  0  0  0  0  0  0
   -1.0641   -1.2947   -3.9688 C   0  0  0  0  0  0  0  0  0  0  0  0
   -1.2665   -0.1491   -4.7383 C   0  0  0  0  0  0  0  0  0  0  0  0
   -1.4142    1.0790   -4.0981 C   0  0  0  0  0  0  0  0  0  0  0  0
   -1.6271    2.3509   -4.8340 C   0  0  0  0  0  0  0  0  0  0  0  0
   -1.1069    3.3552   -4.3584 O   0  0  0  0  0  0  0  0  0  0  0  0
   -2.4771    2.2988   -5.9341 N   0  0  0  0  0  0  0  0  0  0  0  0
   -2.9092    3.4346   -6.6673 C   0  0  0  0  0  0  0  0  0  0  0  0
   -2.2547    4.6670   -6.5722 C   0  0  0  0  0  0  0  0  0  0  0  0
   -2.7819    5.8069   -7.1682 C   0  0  0  0  0  0  0  0  0  0  0  0
   -3.9590    5.7203   -7.8975 C   0  0  0  0  0  0  0  0  0  0  0  0
   -4.5408    4.4707   -8.1496 C   0  0  0  0  0  0  0  0  0  0  0  0
   -5.6092    4.3041   -9.0284 O   0  0  0  0  0  0  0  0  0  0  0  0
   -5.7055    5.1719  -10.1189 C   0  0  0  0  0  0  0  0  0  0  0  0
   -4.5297    5.5908  -10.7524 C   0  0  0  0  0  0  0  0  0  0  0  0
   -4.5479    6.6356  -11.6609 C   0  0  0  0  0  0  0  0  0  0  0  0
   -5.7728    7.1697  -12.0773 C   0  0  0  0  0  0  0  0  0  0  0  0
   -5.8699    8.1949  -12.9920 N   0  0  0  0  0  0  0  0  0  0  0  0
   -7.1245    8.4313  -13.2614 C   0  0  0  0  0  0  0  0  0  0  0  0
   -7.4370    9.3758  -14.2042 N   0  0  0  0  0  0  0  0  0  0  0  0
   -8.6853    9.7725  -14.6045 C   0  0  0  0  0  0  0  0  0  0  0  0
   -9.7566    9.4042  -14.1514 O   0  0  0  0  0  0  0  0  0  0  0  0
   -8.6565   10.7535  -15.7406 C   0  0  0  0  0  0  0  0  0  0  0  0
   -9.8307   11.6735  -15.9901 C   0  0  0  0  0  0  0  0  0  0  0  0
   -9.5758   10.5242  -16.9203 C   0  0  0  0  0  0  0  0  0  0  0  0
   -8.2517    7.4819  -12.4201 S   0  0  0  0  0  0  0  0  0  0  0  0
   -6.9732    6.6438  -11.5761 C   0  0  0  0  0  0  0  0  0  0  0  0
   -6.9731    5.6246  -10.5694 C   0  0  0  0  0  0  0  0  0  0  0  0
   -8.2751    5.0877  -10.0544 C   0  0  0  0  0  0  0  0  0  0  0  0
   -9.3631    5.4381  -10.4782 O   0  0  0  0  0  0  0  0  0  0  0  0
   -8.1934    4.1463   -9.0886 O   0  0  0  0  0  0  0  0  0  0  0  0
   -4.0370    3.3307   -7.5015 C   0  0  0  0  0  0  0  0  0  0  0  0
   -1.3381    1.1574   -2.6954 C   0  0  0  0  0  0  0  0  0  0  0  0
   -1.3529    1.5091    1.3032 H   0  0  0  0  0  0  0  0  0  0  0  0
   -2.2184    2.0035   -0.1490 H   0  0  0  0  0  0  0  0  0  0  0  0
   -0.4493    2.1421   -0.0706 H   0  0  0  0  0  0  0  0  0  0  0  0
   -2.4492   -0.6482    1.2698 H   0  0  0  0  0  0  0  0  0  0  0  0
   -2.2837   -1.7993   -0.0505 H   0  0  0  0  0  0  0  0  0  0  0  0
   -3.3118   -0.3724   -0.2518 H   0  0  0  0  0  0  0  0  0  0  0  0
   -0.8707   -2.1380   -2.0089 H   0  0  0  0  0  0  0  0  0  0  0  0
   -0.9283   -2.2587   -4.4553 H   0  0  0  0  0  0  0  0  0  0  0  0
   -1.2688   -0.2239   -5.8216 H   0  0  0  0  0  0  0  0  0  0  0  0
   -2.9766    1.4337   -6.0956 H   0  0  0  0  0  0  0  0  0  0  0  0
   -1.3244    4.7803   -6.0236 H   0  0  0  0  0  0  0  0  0  0  0  0
   -2.2686    6.7589   -7.0601 H   0  0  0  0  0  0  0  0  0  0  0  0
   -4.3655    6.6360   -8.3178 H   0  0  0  0  0  0  0  0  0  0  0  0
   -3.5627    5.1700  -10.4835 H   0  0  0  0  0  0  0  0  0  0  0  0
   -3.6221    7.0486  -12.0484 H   0  0  0  0  0  0  0  0  0  0  0  0
   -6.6234    9.7904  -14.6345 H   0  0  0  0  0  0  0  0  0  0  0  0
   -7.6821   11.1756  -15.9728 H   0  0  0  0  0  0  0  0  0  0  0  0
   -9.6397   12.6721  -16.3657 H   0  0  0  0  0  0  0  0  0  0  0  0
  -10.6853   11.6088  -15.3244 H   0  0  0  0  0  0  0  0  0  0  0  0
   -9.2086   10.7485  -17.9147 H   0  0  0  0  0  0  0  0  0  0  0  0
  -10.2637    9.6854  -16.8796 H   0  0  0  0  0  0  0  0  0  0  0  0
   -7.2935    3.9278   -8.7841 H   0  0  0  0  0  0  0  0  0  0  0  0
   -4.5346    2.3752   -7.6408 H   0  0  0  0  0  0  0  0  0  0  0  0
   -1.4238    2.1458   -2.2467 H   0  0  0  0  0  0  0  0  0  0  0  0
  1  2  1  0  0  0  0
  1 40  1  0  0  0  0
  1 41  1  0  0  0  0
  1 42  1  0  0  0  0
  2  3  1  0  0  0  0
  2  4  1  0  0  0  0
  2  6  1  0  0  0  0
  3 43  1  0  0  0  0
  3 44  1  0  0  0  0
  3 45  1  0  0  0  0
  4  5  3  0  0  0  0
  6  7  1  0  0  0  0
  6 39  2  0  0  0  0
  7  8  2  0  0  0  0
  7 46  1  0  0  0  0
  8  9  1  0  0  0  0
  8 47  1  0  0  0  0
  9 10  2  0  0  0  0
  9 48  1  0  0  0  0
 10 11  1  0  0  0  0
 10 39  1  0  0  0  0
 11 12  2  0  0  0  0
 11 13  1  0  0  0  0
 13 14  1  0  0  0  0
 13 49  1  0  0  0  0
 14 15  1  0  0  0  0
 14 38  2  0  0  0  0
 15 16  2  0  0  0  0
 15 50  1  0  0  0  0
 16 17  1  0  0  0  0
 16 51  1  0  0  0  0
 17 18  2  0  0  0  0
 17 52  1  0  0  0  0
 18 19  1  0  0  0  0
 18 38  1  0  0  0  0
 19 20  1  0  0  0  0
 20 21  1  0  0  0  0
 20 34  2  0  0  0  0
 21 22  2  0  0  0  0
 21 53  1  0  0  0  0
 22 23  1  0  0  0  0
 22 54  1  0  0  0  0
 23 24  1  0  0  0  0
 23 33  2  0  0  0  0
 24 25  2  0  0  0  0
 25 26  1  0  0  0  0
 25 32  1  0  0  0  0
 26 27  1  0  0  0  0
 26 55  1  0  0  0  0
 27 28  2  0  0  0  0
 27 29  1  0  0  0  0
 29 30  1  0  0  0  0
 29 31  1  0  0  0  0
 29 56  1  0  0  0  0
 30 31  1  0  0  0  0
 30 57  1  0  0  0  0
 30 58  1  0  0  0  0
 31 59  1  0  0  0  0
 31 60  1  0  0  0  0
 32 33  1  0  0  0  0
 33 34  1  0  0  0  0
 34 35  1  0  0  0  0
 35 36  2  0  0  0  0
 35 37  1  0  0  0  0
 37 61  1  0  0  0  0
 38 62  1  0  0  0  0
 39 63  1  0  0  0  0
M  END
$$$$
