CHEMBL1992937
 OpenBabel04072215363D

 31 33  0  0  0  0  0  0  0  0999 V2000
   -4.5321   -4.9509    1.6802 C   0  0  0  0  0  0  0  0  0  0  0  0
   -4.2165   -3.5598    1.2381 C   0  0  0  0  0  0  0  0  0  0  0  0
   -4.7792   -2.4527    1.8622 C   0  0  0  0  0  0  0  0  0  0  0  0
   -4.4554   -1.1742    1.4151 C   0  0  0  0  0  0  0  0  0  0  0  0
   -3.5748   -1.0168    0.3518 C   0  0  0  0  0  0  0  0  0  0  0  0
   -3.2229    0.2175   -0.1956 N   0  0  0  0  0  0  0  0  0  0  0  0
   -3.9019    1.3721   -0.0784 C   0  0  0  0  0  0  0  0  0  0  0  0
   -4.7733    1.7692    0.8216 N   0  0  0  0  0  0  0  0  0  0  0  0
   -5.1559    3.0302    0.4541 C   0  0  0  0  0  0  0  0  0  0  0  0
   -6.0482    3.9128    1.0803 C   0  0  0  0  0  0  0  0  0  0  0  0
   -6.2693    5.1713    0.5036 C   0  0  0  0  0  0  0  0  0  0  0  0
   -5.6130    5.5276   -0.6881 C   0  0  0  0  0  0  0  0  0  0  0  0
   -5.8595    6.8554   -1.2746 N   0  3  0  0  0  0  0  0  0  0  0  0
   -6.6438    7.6091   -0.6881 O   0  0  0  0  0  0  0  0  0  0  0  0
   -5.2613    7.1358   -2.3270 O   0  5  0  0  0  0  0  0  0  0  0  0
   -4.7207    4.6527   -1.3346 C   0  0  0  0  0  0  0  0  0  0  0  0
   -4.5196    3.4164   -0.7186 C   0  0  0  0  0  0  0  0  0  0  0  0
   -3.7296    2.3410   -1.0362 N   0  0  0  0  0  0  0  0  0  0  0  0
   -3.0088   -2.0829   -0.2577 N   0  0  0  0  0  0  0  0  0  0  0  0
   -3.3457   -3.3172    0.1849 C   0  0  0  0  0  0  0  0  0  0  0  0
   -5.2018   -4.9497    2.5473 H   0  0  0  0  0  0  0  0  0  0  0  0
   -3.6140   -5.4720    1.9706 H   0  0  0  0  0  0  0  0  0  0  0  0
   -5.0248   -5.5039    0.8752 H   0  0  0  0  0  0  0  0  0  0  0  0
   -5.4710   -2.5660    2.6920 H   0  0  0  0  0  0  0  0  0  0  0  0
   -4.8992   -0.3175    1.9110 H   0  0  0  0  0  0  0  0  0  0  0  0
   -2.5738    0.0397   -0.9510 H   0  0  0  0  0  0  0  0  0  0  0  0
   -6.5464    3.6198    1.9988 H   0  0  0  0  0  0  0  0  0  0  0  0
   -6.9517    5.8576    0.9984 H   0  0  0  0  0  0  0  0  0  0  0  0
   -4.2050    4.9166   -2.2535 H   0  0  0  0  0  0  0  0  0  0  0  0
   -3.1382    2.2545   -1.8470 H   0  0  0  0  0  0  0  0  0  0  0  0
   -2.8798   -4.1348   -0.3582 H   0  0  0  0  0  0  0  0  0  0  0  0
  1  2  1  0  0  0  0
  1 21  1  0  0  0  0
  1 22  1  0  0  0  0
  1 23  1  0  0  0  0
  2  3  1  0  0  0  0
  2 20  2  0  0  0  0
  3  4  2  0  0  0  0
  3 24  1  0  0  0  0
  4  5  1  0  0  0  0
  4 25  1  0  0  0  0
  5  6  1  0  0  0  0
  5 19  2  0  0  0  0
  6  7  1  0  0  0  0
  6 26  1  0  0  0  0
  7  8  2  0  0  0  0
  7 18  1  0  0  0  0
  8  9  1  0  0  0  0
  9 10  1  0  0  0  0
  9 17  2  0  0  0  0
 10 11  2  0  0  0  0
 10 27  1  0  0  0  0
 11 12  1  0  0  0  0
 11 28  1  0  0  0  0
 12 13  1  0  0  0  0
 12 16  2  0  0  0  0
 13 14  2  0  0  0  0
 13 15  1  0  0  0  0
 16 17  1  0  0  0  0
 16 29  1  0  0  0  0
 17 18  1  0  0  0  0
 18 30  1  0  0  0  0
 19 20  1  0  0  0  0
 20 31  1  0  0  0  0
M  CHG  2  13   1  15  -1
M  END
$$$$
