CHEMBL2023483
 OpenBabel04072215363D

 56 59  0  0  0  0  0  0  0  0999 V2000
    3.1716   -1.6260   -0.7386 C   0  0  0  0  0  0  0  0  0  0  0  0
    4.3596   -0.9242   -0.3853 O   0  0  0  0  0  0  0  0  0  0  0  0
    4.4931   -0.6000    0.9362 C   0  0  0  0  0  0  0  0  0  0  0  0
    3.5476   -0.8445    1.9187 C   0  0  0  0  0  0  0  0  0  0  0  0
    3.8027   -0.4548    3.2315 C   0  0  0  0  0  0  0  0  0  0  0  0
    5.0511    0.0845    3.6265 C   0  0  0  0  0  0  0  0  0  0  0  0
    5.4595    0.3434    4.9664 C   0  0  0  0  0  0  0  0  0  0  0  0
    4.7753    0.0565    6.1382 O   0  0  0  0  0  0  0  0  0  0  0  0
    3.9431   -1.0330    6.2419 C   0  0  0  0  0  0  0  0  0  0  0  0
    4.1703   -2.2673    5.6433 C   0  0  0  0  0  0  0  0  0  0  0  0
    3.1322   -3.2063    5.5918 C   0  0  0  0  0  0  0  0  0  0  0  0
    1.8834   -2.9517    6.1951 C   0  0  0  0  0  0  0  0  0  0  0  0
    0.7210   -3.8901    5.9604 C   0  0  0  0  0  0  0  0  0  0  0  0
    0.6473   -4.5482    4.6005 C   0  0  0  0  0  0  0  0  0  0  0  0
    0.9613   -5.7249    4.4577 O   0  0  0  0  0  0  0  0  0  0  0  0
    0.2071   -3.7000    3.6052 N   0  0  0  0  0  0  0  0  0  0  0  0
   -0.0441   -4.1203    2.3209 C   0  0  0  0  0  0  0  0  0  0  0  0
    0.3086   -3.3244    1.3074 N   0  0  0  0  0  0  0  0  0  0  0  0
   -0.0050   -4.0383    0.2159 N   0  0  0  0  0  0  0  0  0  0  0  0
   -0.6850   -5.1894    0.4870 C   0  0  0  0  0  0  0  0  0  0  0  0
   -1.2299   -6.0580   -0.5820 C   0  0  0  0  0  0  0  0  0  0  0  0
   -0.7369   -5.2812    1.8677 C   0  0  0  0  0  0  0  0  0  0  0  0
   -1.4532   -6.3100    2.6662 C   0  0  0  0  0  0  0  0  0  0  0  0
    1.7611   -1.8057    6.9995 C   0  0  0  0  0  0  0  0  0  0  0  0
    0.6621   -1.4413    7.7325 O   0  0  0  0  0  0  0  0  0  0  0  0
    0.0000   -2.4615    8.4771 C   0  0  0  0  0  0  0  0  0  0  0  0
    2.7796   -0.8418    6.9887 C   0  0  0  0  0  0  0  0  0  0  0  0
    6.6662    1.0042    5.1977 C   0  0  0  0  0  0  0  0  0  0  0  0
    7.4585    1.3205    4.1190 C   0  0  0  0  0  0  0  0  0  0  0  0
    7.1507    1.0031    2.8453 N   0  0  0  0  0  0  0  0  0  0  0  0
    5.9743    0.3926    2.6089 C   0  0  0  0  0  0  0  0  0  0  0  0
    5.6794    0.0454    1.2917 C   0  0  0  0  0  0  0  0  0  0  0  0
    3.1721   -1.7737   -1.8213 H   0  0  0  0  0  0  0  0  0  0  0  0
    2.2760   -1.0456   -0.4881 H   0  0  0  0  0  0  0  0  0  0  0  0
    3.1452   -2.6146   -0.2644 H   0  0  0  0  0  0  0  0  0  0  0  0
    2.6051   -1.3399    1.7137 H   0  0  0  0  0  0  0  0  0  0  0  0
    3.0043   -0.6064    3.9507 H   0  0  0  0  0  0  0  0  0  0  0  0
    5.1003   -2.4702    5.1183 H   0  0  0  0  0  0  0  0  0  0  0  0
    3.2972   -4.1168    5.0153 H   0  0  0  0  0  0  0  0  0  0  0  0
   -0.2245   -3.3462    6.0525 H   0  0  0  0  0  0  0  0  0  0  0  0
    0.7317   -4.6794    6.7197 H   0  0  0  0  0  0  0  0  0  0  0  0
    0.4654   -2.7254    3.6681 H   0  0  0  0  0  0  0  0  0  0  0  0
    0.2468   -3.6640   -0.6926 H   0  0  0  0  0  0  0  0  0  0  0  0
   -0.9586   -5.6918   -1.5774 H   0  0  0  0  0  0  0  0  0  0  0  0
   -2.3226   -6.0917   -0.5211 H   0  0  0  0  0  0  0  0  0  0  0  0
   -0.8477   -7.0785   -0.4804 H   0  0  0  0  0  0  0  0  0  0  0  0
   -1.9779   -7.0226    2.0209 H   0  0  0  0  0  0  0  0  0  0  0  0
   -2.2053   -5.8347    3.3054 H   0  0  0  0  0  0  0  0  0  0  0  0
   -0.7746   -6.8889    3.2945 H   0  0  0  0  0  0  0  0  0  0  0  0
   -0.3156   -2.0400    9.4360 H   0  0  0  0  0  0  0  0  0  0  0  0
    0.6279   -3.3340    8.6857 H   0  0  0  0  0  0  0  0  0  0  0  0
   -0.9121   -2.7576    7.9497 H   0  0  0  0  0  0  0  0  0  0  0  0
    2.6413    0.0884    7.5364 H   0  0  0  0  0  0  0  0  0  0  0  0
    6.9796    1.2627    6.2027 H   0  0  0  0  0  0  0  0  0  0  0  0
    8.4029    1.8462    4.2464 H   0  0  0  0  0  0  0  0  0  0  0  0
    6.4112    0.2797    0.5208 H   0  0  0  0  0  0  0  0  0  0  0  0
  1  2  1  0  0  0  0
  1 33  1  0  0  0  0
  1 34  1  0  0  0  0
  1 35  1  0  0  0  0
  2  3  1  0  0  0  0
  3  4  1  0  0  0  0
  3 32  2  0  0  0  0
  4  5  2  0  0  0  0
  4 36  1  0  0  0  0
  5  6  1  0  0  0  0
  5 37  1  0  0  0  0
  6  7  1  0  0  0  0
  6 31  2  0  0  0  0
  7  8  1  0  0  0  0
  7 28  2  0  0  0  0
  8  9  1  0  0  0  0
  9 10  1  0  0  0  0
  9 27  2  0  0  0  0
 10 11  2  0  0  0  0
 10 38  1  0  0  0  0
 11 12  1  0  0  0  0
 11 39  1  0  0  0  0
 12 13  1  0  0  0  0
 12 24  2  0  0  0  0
 13 14  1  0  0  0  0
 13 40  1  0  0  0  0
 13 41  1  0  0  0  0
 14 15  2  0  0  0  0
 14 16  1  0  0  0  0
 16 17  1  0  0  0  0
 16 42  1  0  0  0  0
 17 18  2  0  0  0  0
 17 22  1  0  0  0  0
 18 19  1  0  0  0  0
 19 20  1  0  0  0  0
 19 43  1  0  0  0  0
 20 21  1  0  0  0  0
 20 22  2  0  0  0  0
 21 44  1  0  0  0  0
 21 45  1  0  0  0  0
 21 46  1  0  0  0  0
 22 23  1  0  0  0  0
 23 47  1  0  0  0  0
 23 48  1  0  0  0  0
 23 49  1  0  0  0  0
 24 25  1  0  0  0  0
 24 27  1  0  0  0  0
 25 26  1  0  0  0  0
 26 50  1  0  0  0  0
 26 51  1  0  0  0  0
 26 52  1  0  0  0  0
 27 53  1  0  0  0  0
 28 29  1  0  0  0  0
 28 54  1  0  0  0  0
 29 30  2  0  0  0  0
 29 55  1  0  0  0  0
 30 31  1  0  0  0  0
 31 32  1  0  0  0  0
 32 56  1  0  0  0  0
M  END
$$$$
