CHEMBL3972427
 OpenBabel04072215373D

 49 52  0  0  0  0  0  0  0  0999 V2000
    8.0641    1.0044   -1.0865 O   0  0  0  0  0  0  0  0  0  0  0  0
    7.3017    0.6614   -0.1858 C   0  0  0  0  0  0  0  0  0  0  0  0
    7.6594    0.7250    1.1333 N   0  0  0  0  0  0  0  0  0  0  0  0
    8.9836    1.2158    1.5320 C   0  0  0  0  0  0  0  0  0  0  0  0
    9.1458    2.7370    1.6146 C   0  0  0  0  0  0  0  0  0  0  0  0
    8.0115    3.3992    1.3012 F   0  0  0  0  0  0  0  0  0  0  0  0
    9.4762    3.0978    2.8805 F   0  0  0  0  0  0  0  0  0  0  0  0
   10.1298    3.1830    0.8040 F   0  0  0  0  0  0  0  0  0  0  0  0
    5.9889    0.0371   -0.5010 C   0  0  0  0  0  0  0  0  0  0  0  0
    5.9960   -0.8184   -1.6258 C   0  0  0  0  0  0  0  0  0  0  0  0
    4.8853   -1.5944   -1.9489 C   0  0  0  0  0  0  0  0  0  0  0  0
    3.7550   -1.5351   -1.1437 C   0  0  0  0  0  0  0  0  0  0  0  0
    3.7232   -0.6601   -0.0515 C   0  0  0  0  0  0  0  0  0  0  0  0
    4.8111    0.1615    0.2667 C   0  0  0  0  0  0  0  0  0  0  0  0
    4.6075    1.2708    1.6653 S   0  0  0  0  0  0  0  0  0  0  0  0
    3.3252    2.3908    1.0878 C   0  0  0  0  0  0  0  0  0  0  0  0
    1.9638    2.0550    1.1514 C   0  0  0  0  0  0  0  0  0  0  0  0
    0.9742    2.8825    0.5791 C   0  0  0  0  0  0  0  0  0  0  0  0
    1.3632    4.1422    0.0898 C   0  0  0  0  0  0  0  0  0  0  0  0
    0.8499    5.2014   -0.7438 C   0  0  0  0  0  0  0  0  0  0  0  0
    0.4466    5.1079   -2.1353 C   0  0  0  0  0  0  0  0  0  0  0  0
    0.8303    4.0959   -2.9369 C   0  0  0  0  0  0  0  0  0  0  0  0
    1.2507    4.2944   -4.3439 C   0  0  0  0  0  0  0  0  0  0  0  0
    1.6877    3.1989   -5.0831 C   0  0  0  0  0  0  0  0  0  0  0  0
    2.3046    3.4131   -6.3162 C   0  0  0  0  0  0  0  0  0  0  0  0
    2.4836    4.7132   -6.7745 C   0  0  0  0  0  0  0  0  0  0  0  0
    2.0204    5.7457   -5.9770 C   0  0  0  0  0  0  0  0  0  0  0  0
    1.4058    5.5650   -4.7833 N   0  0  0  0  0  0  0  0  0  0  0  0
    1.4845    6.3365   -0.4040 N   0  0  0  0  0  0  0  0  0  0  0  0
    2.6776    5.8716   -0.0380 N   0  0  0  0  0  0  0  0  0  0  0  0
    2.6821    4.5342    0.2572 C   0  0  0  0  0  0  0  0  0  0  0  0
    3.7057    3.6619    0.6436 C   0  0  0  0  0  0  0  0  0  0  0  0
    6.9540    0.5840    1.8542 H   0  0  0  0  0  0  0  0  0  0  0  0
    9.7256    0.8097    0.8324 H   0  0  0  0  0  0  0  0  0  0  0  0
    9.1944    0.7666    2.5117 H   0  0  0  0  0  0  0  0  0  0  0  0
    6.8952   -0.9036   -2.2414 H   0  0  0  0  0  0  0  0  0  0  0  0
    4.9139   -2.2609   -2.8050 H   0  0  0  0  0  0  0  0  0  0  0  0
    2.8962   -2.1663   -1.3621 H   0  0  0  0  0  0  0  0  0  0  0  0
    2.8206   -0.6519    0.5577 H   0  0  0  0  0  0  0  0  0  0  0  0
    1.6542    1.1279    1.6311 H   0  0  0  0  0  0  0  0  0  0  0  0
   -0.0680    2.5757    0.5815 H   0  0  0  0  0  0  0  0  0  0  0  0
    0.2264    6.0726   -2.5911 H   0  0  0  0  0  0  0  0  0  0  0  0
    1.1292    3.1436   -2.5110 H   0  0  0  0  0  0  0  0  0  0  0  0
    1.5971    2.1895   -4.6965 H   0  0  0  0  0  0  0  0  0  0  0  0
    2.6704    2.5724   -6.8993 H   0  0  0  0  0  0  0  0  0  0  0  0
    2.9805    4.9134   -7.7153 H   0  0  0  0  0  0  0  0  0  0  0  0
    2.1540    6.7821   -6.2791 H   0  0  0  0  0  0  0  0  0  0  0  0
    3.4601    6.5230    0.0031 H   0  0  0  0  0  0  0  0  0  0  0  0
    4.7440    3.9733    0.6130 H   0  0  0  0  0  0  0  0  0  0  0  0
  1  2  2  0  0  0  0
  2  3  1  0  0  0  0
  2  9  1  0  0  0  0
  3  4  1  0  0  0  0
  3 33  1  0  0  0  0
  4  5  1  0  0  0  0
  4 34  1  0  0  0  0
  4 35  1  0  0  0  0
  5  6  1  0  0  0  0
  5  7  1  0  0  0  0
  5  8  1  0  0  0  0
  9 10  1  0  0  0  0
  9 14  2  0  0  0  0
 10 11  2  0  0  0  0
 10 36  1  0  0  0  0
 11 12  1  0  0  0  0
 11 37  1  0  0  0  0
 12 13  2  0  0  0  0
 12 38  1  0  0  0  0
 13 14  1  0  0  0  0
 13 39  1  0  0  0  0
 14 15  1  0  0  0  0
 15 16  1  0  0  0  0
 16 17  1  0  0  0  0
 16 32  2  0  0  0  0
 17 18  2  0  0  0  0
 17 40  1  0  0  0  0
 18 19  1  0  0  0  0
 18 41  1  0  0  0  0
 19 20  1  0  0  0  0
 19 31  2  0  0  0  0
 20 21  1  0  0  0  0
 20 29  2  0  0  0  0
 21 22  2  0  0  0  0
 21 42  1  0  0  0  0
 22 23  1  0  0  0  0
 22 43  1  0  0  0  0
 23 24  1  0  0  0  0
 23 28  2  0  0  0  0
 24 25  2  0  0  0  0
 24 44  1  0  0  0  0
 25 26  1  0  0  0  0
 25 45  1  0  0  0  0
 26 27  2  0  0  0  0
 26 46  1  0  0  0  0
 27 28  1  0  0  0  0
 27 47  1  0  0  0  0
 29 30  1  0  0  0  0
 30 31  1  0  0  0  0
 30 48  1  0  0  0  0
 31 32  1  0  0  0  0
 32 49  1  0  0  0  0
M  END
$$$$
