CHEMBL74391
 OpenBabel04072215383D

 39 42  0  0  0  0  0  0  0  0999 V2000
   -1.2323    0.3656   -3.3311 Cl  0  0  0  0  0  0  0  0  0  0  0  0
    0.2719    0.2620   -2.5099 C   0  0  0  0  0  0  0  0  0  0  0  0
    1.2417    1.2504   -2.7014 C   0  0  0  0  0  0  0  0  0  0  0  0
    2.4690    1.1728   -2.0244 C   0  0  0  0  0  0  0  0  0  0  0  0
    2.7260    0.1245   -1.1300 C   0  0  0  0  0  0  0  0  0  0  0  0
    4.2509   -0.0612   -0.2053 S   0  0  0  0  0  0  0  0  0  0  0  0
    4.7867    1.6203    0.0779 C   0  0  0  0  0  0  0  0  0  0  0  0
    5.6410    2.0904   -0.8593 N   0  0  0  0  0  0  0  0  0  0  0  0
    6.0971    3.3671   -0.7931 N   0  0  0  0  0  0  0  0  0  0  0  0
    5.6353    4.2171    0.1561 C   0  0  0  0  0  0  0  0  0  0  0  0
    6.3344    5.5659    0.1547 C   0  0  0  0  0  0  0  0  0  0  0  0
    7.5442    5.6207    1.0703 C   0  0  0  0  0  0  0  0  0  0  0  0
    8.6609    4.8020    0.8521 C   0  0  0  0  0  0  0  0  0  0  0  0
    9.6449    4.7403    1.8290 C   0  0  0  0  0  0  0  0  0  0  0  0
    9.6222    5.4689    2.9650 N   0  0  0  0  0  0  0  0  0  0  0  0
    8.5822    6.3144    3.1168 C   0  0  0  0  0  0  0  0  0  0  0  0
    7.5458    6.4401    2.2026 C   0  0  0  0  0  0  0  0  0  0  0  0
    4.6811    3.8034    1.1295 C   0  0  0  0  0  0  0  0  0  0  0  0
    4.0553    4.6536    2.0583 C   0  0  0  0  0  0  0  0  0  0  0  0
    3.2354    4.1580    3.0880 C   0  0  0  0  0  0  0  0  0  0  0  0
    3.0360    2.7925    3.2036 C   0  0  0  0  0  0  0  0  0  0  0  0
    3.5536    1.9373    2.2289 C   0  0  0  0  0  0  0  0  0  0  0  0
    4.3322    2.4274    1.1443 C   0  0  0  0  0  0  0  0  0  0  0  0
    1.7503   -0.8725   -0.9737 C   0  0  0  0  0  0  0  0  0  0  0  0
    0.5309   -0.8052   -1.6590 C   0  0  0  0  0  0  0  0  0  0  0  0
    1.0501    2.0802   -3.3769 H   0  0  0  0  0  0  0  0  0  0  0  0
    3.2138    1.9401   -2.2212 H   0  0  0  0  0  0  0  0  0  0  0  0
    5.6257    6.3632    0.4031 H   0  0  0  0  0  0  0  0  0  0  0  0
    6.6703    5.7908   -0.8665 H   0  0  0  0  0  0  0  0  0  0  0  0
    8.7504    4.1850   -0.0374 H   0  0  0  0  0  0  0  0  0  0  0  0
   10.4863    4.0589    1.7344 H   0  0  0  0  0  0  0  0  0  0  0  0
    8.5864    6.8889    4.0389 H   0  0  0  0  0  0  0  0  0  0  0  0
    6.7443    7.1440    2.3960 H   0  0  0  0  0  0  0  0  0  0  0  0
    4.1502    5.7345    1.9786 H   0  0  0  0  0  0  0  0  0  0  0  0
    2.7674    4.8364    3.7895 H   0  0  0  0  0  0  0  0  0  0  0  0
    2.4551    2.3886    4.0320 H   0  0  0  0  0  0  0  0  0  0  0  0
    3.3572    0.8712    2.3408 H   0  0  0  0  0  0  0  0  0  0  0  0
    1.9298   -1.7195   -0.3142 H   0  0  0  0  0  0  0  0  0  0  0  0
   -0.2102   -1.5877   -1.5195 H   0  0  0  0  0  0  0  0  0  0  0  0
  1  2  1  0  0  0  0
  2  3  1  0  0  0  0
  2 25  2  0  0  0  0
  3  4  2  0  0  0  0
  3 26  1  0  0  0  0
  4  5  1  0  0  0  0
  4 27  1  0  0  0  0
  5  6  1  0  0  0  0
  5 24  2  0  0  0  0
  6  7  1  0  0  0  0
  7  8  1  0  0  0  0
  7 23  2  0  0  0  0
  8  9  2  0  0  0  0
  9 10  1  0  0  0  0
 10 11  1  0  0  0  0
 10 18  2  0  0  0  0
 11 12  1  0  0  0  0
 11 28  1  0  0  0  0
 11 29  1  0  0  0  0
 12 13  1  0  0  0  0
 12 17  2  0  0  0  0
 13 14  2  0  0  0  0
 13 30  1  0  0  0  0
 14 15  1  0  0  0  0
 14 31  1  0  0  0  0
 15 16  2  0  0  0  0
 16 17  1  0  0  0  0
 16 32  1  0  0  0  0
 17 33  1  0  0  0  0
 18 19  1  0  0  0  0
 18 23  1  0  0  0  0
 19 20  2  0  0  0  0
 19 34  1  0  0  0  0
 20 21  1  0  0  0  0
 20 35  1  0  0  0  0
 21 22  2  0  0  0  0
 21 36  1  0  0  0  0
 22 23  1  0  0  0  0
 22 37  1  0  0  0  0
 24 25  1  0  0  0  0
 24 38  1  0  0  0  0
 25 39  1  0  0  0  0
M  END
$$$$
