CHEMBL4177247
 OpenBabel04072215383D

 48 52  0  0  0  0  0  0  0  0999 V2000
    4.8557    2.8971    4.1168 C   0  0  0  0  0  0  0  0  0  0  0  0
    5.3044    2.1219    2.9824 N   0  0  0  0  0  0  0  0  0  0  0  0
    5.3572    2.6806    1.7521 N   0  0  0  0  0  0  0  0  0  0  0  0
    5.8429    1.6949    0.9881 C   0  0  0  0  0  0  0  0  0  0  0  0
    6.0847    0.5125    1.7177 C   0  0  0  0  0  0  0  0  0  0  0  0
    6.5714   -0.7690    1.4929 C   0  0  0  0  0  0  0  0  0  0  0  0
    7.0149   -1.1495    0.2320 O   0  0  0  0  0  0  0  0  0  0  0  0
    8.0934   -2.0049    0.1660 C   0  0  0  0  0  0  0  0  0  0  0  0
    8.1632   -2.8497   -0.9487 C   0  0  0  0  0  0  0  0  0  0  0  0
    9.2005   -3.7825   -1.0914 C   0  0  0  0  0  0  0  0  0  0  0  0
   10.1579   -3.8262   -0.0699 C   0  0  0  0  0  0  0  0  0  0  0  0
   10.1343   -2.9591    1.0091 C   0  0  0  0  0  0  0  0  0  0  0  0
    9.1134   -2.0144    1.1243 C   0  0  0  0  0  0  0  0  0  0  0  0
   11.1829   -3.1898    1.8461 N   0  0  0  0  0  0  0  0  0  0  0  0
   11.8703   -4.1878    1.3343 C   0  0  0  0  0  0  0  0  0  0  0  0
   12.9932   -4.7523    1.8524 N   0  0  0  0  0  0  0  0  0  0  0  0
   13.5681   -4.4091    3.1018 C   0  0  0  0  0  0  0  0  0  0  0  0
   14.2351   -5.3892    3.8429 C   0  0  0  0  0  0  0  0  0  0  0  0
   14.6606   -5.1326    5.1522 C   0  0  0  0  0  0  0  0  0  0  0  0
   14.4416   -3.8856    5.7498 C   0  0  0  0  0  0  0  0  0  0  0  0
   14.9434   -3.7208    7.3920 Cl  0  0  0  0  0  0  0  0  0  0  0  0
   13.8284   -2.8647    5.0258 C   0  0  0  0  0  0  0  0  0  0  0  0
   13.5806   -1.4712    5.5441 C   0  0  0  0  0  0  0  0  0  0  0  0
   13.9412   -1.2344    6.8336 F   0  0  0  0  0  0  0  0  0  0  0  0
   14.2491   -0.5329    4.8107 F   0  0  0  0  0  0  0  0  0  0  0  0
   12.2648   -1.1169    5.4727 F   0  0  0  0  0  0  0  0  0  0  0  0
   13.4025   -3.1511    3.7060 C   0  0  0  0  0  0  0  0  0  0  0  0
   11.2541   -4.6298    0.1758 N   0  0  0  0  0  0  0  0  0  0  0  0
   11.5888   -5.7616   -0.6522 C   0  0  0  0  0  0  0  0  0  0  0  0
    6.6136   -1.6506    2.5278 N   0  0  0  0  0  0  0  0  0  0  0  0
    6.2506   -1.2126    3.7465 C   0  0  0  0  0  0  0  0  0  0  0  0
    5.7910    0.0065    4.0822 N   0  0  0  0  0  0  0  0  0  0  0  0
    5.7245    0.8203    3.0156 C   0  0  0  0  0  0  0  0  0  0  0  0
    4.5958    3.9065    3.7870 H   0  0  0  0  0  0  0  0  0  0  0  0
    5.6665    2.9435    4.8474 H   0  0  0  0  0  0  0  0  0  0  0  0
    3.9778    2.4092    4.5458 H   0  0  0  0  0  0  0  0  0  0  0  0
    6.0014    1.8765   -0.0670 H   0  0  0  0  0  0  0  0  0  0  0  0
    7.3912   -2.7979   -1.7135 H   0  0  0  0  0  0  0  0  0  0  0  0
    9.2402   -4.4484   -1.9472 H   0  0  0  0  0  0  0  0  0  0  0  0
    9.1195   -1.3479    1.9772 H   0  0  0  0  0  0  0  0  0  0  0  0
   13.4048   -5.5730    1.4298 H   0  0  0  0  0  0  0  0  0  0  0  0
   14.3972   -6.3819    3.4316 H   0  0  0  0  0  0  0  0  0  0  0  0
   15.1443   -5.9267    5.7178 H   0  0  0  0  0  0  0  0  0  0  0  0
   12.9191   -2.3502    3.1449 H   0  0  0  0  0  0  0  0  0  0  0  0
   12.2532   -6.4469   -0.1271 H   0  0  0  0  0  0  0  0  0  0  0  0
   12.0568   -5.3888   -1.5665 H   0  0  0  0  0  0  0  0  0  0  0  0
   10.6643   -6.2945   -0.9002 H   0  0  0  0  0  0  0  0  0  0  0  0
    6.3487   -1.9287    4.5551 H   0  0  0  0  0  0  0  0  0  0  0  0
  1  2  1  0  0  0  0
  1 34  1  0  0  0  0
  1 35  1  0  0  0  0
  1 36  1  0  0  0  0
  2  3  1  0  0  0  0
  2 33  1  0  0  0  0
  3  4  2  0  0  0  0
  4  5  1  0  0  0  0
  4 37  1  0  0  0  0
  5  6  1  0  0  0  0
  5 33  2  0  0  0  0
  6  7  1  0  0  0  0
  6 30  2  0  0  0  0
  7  8  1  0  0  0  0
  8  9  1  0  0  0  0
  8 13  2  0  0  0  0
  9 10  2  0  0  0  0
  9 38  1  0  0  0  0
 10 11  1  0  0  0  0
 10 39  1  0  0  0  0
 11 12  2  0  0  0  0
 11 28  1  0  0  0  0
 12 13  1  0  0  0  0
 12 14  1  0  0  0  0
 13 40  1  0  0  0  0
 14 15  2  0  0  0  0
 15 16  1  0  0  0  0
 15 28  1  0  0  0  0
 16 17  1  0  0  0  0
 16 41  1  0  0  0  0
 17 18  1  0  0  0  0
 17 27  2  0  0  0  0
 18 19  2  0  0  0  0
 18 42  1  0  0  0  0
 19 20  1  0  0  0  0
 19 43  1  0  0  0  0
 20 21  1  0  0  0  0
 20 22  2  0  0  0  0
 22 23  1  0  0  0  0
 22 27  1  0  0  0  0
 23 24  1  0  0  0  0
 23 25  1  0  0  0  0
 23 26  1  0  0  0  0
 27 44  1  0  0  0  0
 28 29  1  0  0  0  0
 29 45  1  0  0  0  0
 29 46  1  0  0  0  0
 29 47  1  0  0  0  0
 30 31  1  0  0  0  0
 31 32  2  0  0  0  0
 31 48  1  0  0  0  0
 32 33  1  0  0  0  0
M  END
$$$$
