CHEMBL3409414
 OpenBabel04072215363D

 42 44  0  0  0  0  0  0  0  0999 V2000
    2.5385    0.7254    4.5804 N   0  0  0  0  0  0  0  0  0  0  0  0
    1.7326    1.3925    3.6823 C   0  0  0  0  0  0  0  0  0  0  0  0
    0.5567    1.8533    4.1160 N   0  0  0  0  0  0  0  0  0  0  0  0
   -0.2003    2.5149    3.2191 C   0  0  0  0  0  0  0  0  0  0  0  0
    0.1810    2.7331    1.9204 C   0  0  0  0  0  0  0  0  0  0  0  0
    1.4140    2.2289    1.5917 C   0  0  0  0  0  0  0  0  0  0  0  0
    1.8673    2.4831    0.3010 O   0  0  0  0  0  0  0  0  0  0  0  0
    3.2308    2.5243    0.1145 C   0  0  0  0  0  0  0  0  0  0  0  0
    3.7289    1.9404   -1.0470 C   0  0  0  0  0  0  0  0  0  0  0  0
    5.1063    1.9254   -1.2830 C   0  0  0  0  0  0  0  0  0  0  0  0
    5.9989    2.5070   -0.3740 C   0  0  0  0  0  0  0  0  0  0  0  0
    7.4044    2.4533   -0.5150 N   0  0  0  0  0  0  0  0  0  0  0  0
    8.1030    1.9515   -1.5974 C   0  0  0  0  0  0  0  0  0  0  0  0
    7.6078    1.6211   -2.6687 O   0  0  0  0  0  0  0  0  0  0  0  0
    9.4561    1.8137   -1.3120 N   0  0  0  0  0  0  0  0  0  0  0  0
   10.3564    1.3095   -2.2765 C   0  0  0  0  0  0  0  0  0  0  0  0
   11.3000    0.3653   -1.8869 C   0  0  0  0  0  0  0  0  0  0  0  0
   12.1481   -0.1975   -2.8428 C   0  0  0  0  0  0  0  0  0  0  0  0
   12.0929    0.2076   -4.1846 C   0  0  0  0  0  0  0  0  0  0  0  0
   13.2079   -0.5527   -5.2586 Cl  0  0  0  0  0  0  0  0  0  0  0  0
   11.1734    1.1785   -4.5907 C   0  0  0  0  0  0  0  0  0  0  0  0
   11.0238    1.6898   -5.9998 C   0  0  0  0  0  0  0  0  0  0  0  0
   11.8705    1.1686   -6.9261 F   0  0  0  0  0  0  0  0  0  0  0  0
    9.7712    1.4717   -6.4945 F   0  0  0  0  0  0  0  0  0  0  0  0
   11.2087    3.0412   -6.0676 F   0  0  0  0  0  0  0  0  0  0  0  0
   10.3076    1.7196   -3.6141 C   0  0  0  0  0  0  0  0  0  0  0  0
    5.4842    3.1411    0.7604 C   0  0  0  0  0  0  0  0  0  0  0  0
    4.1072    3.1665    0.9909 C   0  0  0  0  0  0  0  0  0  0  0  0
    2.1852    1.5208    2.4394 N   0  0  0  0  0  0  0  0  0  0  0  0
    1.9767    0.3371    5.3236 H   0  0  0  0  0  0  0  0  0  0  0  0
    3.1504    0.0969    4.0784 H   0  0  0  0  0  0  0  0  0  0  0  0
   -1.1471    2.8875    3.5983 H   0  0  0  0  0  0  0  0  0  0  0  0
   -0.4290    3.2807    1.2175 H   0  0  0  0  0  0  0  0  0  0  0  0
    3.0577    1.4726   -1.7577 H   0  0  0  0  0  0  0  0  0  0  0  0
    5.4483    1.4280   -2.1842 H   0  0  0  0  0  0  0  0  0  0  0  0
    7.9536    2.9105    0.1974 H   0  0  0  0  0  0  0  0  0  0  0  0
    9.6548    1.5866   -0.3474 H   0  0  0  0  0  0  0  0  0  0  0  0
   11.3482    0.0083   -0.8620 H   0  0  0  0  0  0  0  0  0  0  0  0
   12.8474   -0.9734   -2.5363 H   0  0  0  0  0  0  0  0  0  0  0  0
    9.5825    2.4769   -3.9183 H   0  0  0  0  0  0  0  0  0  0  0  0
    6.1405    3.6071    1.4901 H   0  0  0  0  0  0  0  0  0  0  0  0
    3.7325    3.6618    1.8828 H   0  0  0  0  0  0  0  0  0  0  0  0
  1  2  1  0  0  0  0
  1 30  1  0  0  0  0
  1 31  1  0  0  0  0
  2  3  1  0  0  0  0
  2 29  2  0  0  0  0
  3  4  2  0  0  0  0
  4  5  1  0  0  0  0
  4 32  1  0  0  0  0
  5  6  2  0  0  0  0
  5 33  1  0  0  0  0
  6  7  1  0  0  0  0
  6 29  1  0  0  0  0
  7  8  1  0  0  0  0
  8  9  1  0  0  0  0
  8 28  2  0  0  0  0
  9 10  2  0  0  0  0
  9 34  1  0  0  0  0
 10 11  1  0  0  0  0
 10 35  1  0  0  0  0
 11 12  1  0  0  0  0
 11 27  2  0  0  0  0
 12 13  1  0  0  0  0
 12 36  1  0  0  0  0
 13 14  2  0  0  0  0
 13 15  1  0  0  0  0
 15 16  1  0  0  0  0
 15 37  1  0  0  0  0
 16 17  1  0  0  0  0
 16 26  2  0  0  0  0
 17 18  2  0  0  0  0
 17 38  1  0  0  0  0
 18 19  1  0  0  0  0
 18 39  1  0  0  0  0
 19 20  1  0  0  0  0
 19 21  2  0  0  0  0
 21 22  1  0  0  0  0
 21 26  1  0  0  0  0
 22 23  1  0  0  0  0
 22 24  1  0  0  0  0
 22 25  1  0  0  0  0
 26 40  1  0  0  0  0
 27 28  1  0  0  0  0
 27 41  1  0  0  0  0
 28 42  1  0  0  0  0
M  END
$$$$
