CHEMBL1997822
 OpenBabel04072215363D

 49 53  0  0  0  0  0  0  0  0999 V2000
   -1.5359    3.6182    1.7550 C   0  0  0  0  0  0  0  0  0  0  0  0
   -0.5902    2.5834    1.2809 C   0  0  0  0  0  0  0  0  0  0  0  0
    0.7784    2.4818    1.4143 C   0  0  0  0  0  0  0  0  0  0  0  0
    1.1822    1.2618    0.8102 C   0  0  0  0  0  0  0  0  0  0  0  0
    2.4247    0.6225    0.6441 C   0  0  0  0  0  0  0  0  0  0  0  0
    2.4840   -0.6712    0.0861 C   0  0  0  0  0  0  0  0  0  0  0  0
    3.7811   -1.3495   -0.0506 C   0  0  0  0  0  0  0  0  0  0  0  0
    4.7206   -1.1575    0.9422 C   0  0  0  0  0  0  0  0  0  0  0  0
    6.2061   -1.8604    0.5879 S   0  0  0  0  0  0  0  0  0  0  0  0
    5.5803   -2.7134   -0.7886 C   0  0  0  0  0  0  0  0  0  0  0  0
    6.2591   -3.6917   -1.5655 C   0  0  0  0  0  0  0  0  0  0  0  0
    7.6093   -4.2191   -1.2602 C   0  0  0  0  0  0  0  0  0  0  0  0
    8.5219   -4.5307   -2.2871 C   0  0  0  0  0  0  0  0  0  0  0  0
    9.8090   -5.0103   -2.0110 C   0  0  0  0  0  0  0  0  0  0  0  0
   10.2323   -5.1637   -0.6944 C   0  0  0  0  0  0  0  0  0  0  0  0
    9.3458   -4.8694    0.3373 C   0  0  0  0  0  0  0  0  0  0  0  0
    9.8445   -5.0687    2.0305 S   0  0  0  0  0  0  0  0  0  0  0  0
   10.5472   -3.4959    2.4531 C   0  0  0  0  0  0  0  0  0  0  0  0
    8.6464   -5.2585    2.8236 O   0  0  0  0  0  0  0  0  0  0  0  0
   10.9136   -6.0564    2.0486 O   0  0  0  0  0  0  0  0  0  0  0  0
    8.0388   -4.4506    0.0579 C   0  0  0  0  0  0  0  0  0  0  0  0
    5.5371   -4.1135   -2.6754 C   0  0  0  0  0  0  0  0  0  0  0  0
    4.3236   -3.6704   -3.0450 N   0  0  0  0  0  0  0  0  0  0  0  0
    3.6820   -2.7633   -2.2878 C   0  0  0  0  0  0  0  0  0  0  0  0
    2.4481   -2.3916   -2.8019 N   0  0  0  0  0  0  0  0  0  0  0  0
    4.2749   -2.2658   -1.0917 C   0  0  0  0  0  0  0  0  0  0  0  0
    1.2929   -1.2928   -0.2974 C   0  0  0  0  0  0  0  0  0  0  0  0
    0.0609   -0.6308   -0.2513 C   0  0  0  0  0  0  0  0  0  0  0  0
    0.0364    0.6348    0.3346 C   0  0  0  0  0  0  0  0  0  0  0  0
   -1.0188    1.4792    0.5855 N   0  0  0  0  0  0  0  0  0  0  0  0
   -1.0175    4.3808    2.3440 H   0  0  0  0  0  0  0  0  0  0  0  0
   -2.3080    3.1679    2.3869 H   0  0  0  0  0  0  0  0  0  0  0  0
   -2.0207    4.1093    0.9061 H   0  0  0  0  0  0  0  0  0  0  0  0
    1.4201    3.1919    1.9198 H   0  0  0  0  0  0  0  0  0  0  0  0
    3.3191    1.1372    0.9812 H   0  0  0  0  0  0  0  0  0  0  0  0
    4.6233   -0.5828    1.8538 H   0  0  0  0  0  0  0  0  0  0  0  0
    8.2447   -4.4053   -3.3332 H   0  0  0  0  0  0  0  0  0  0  0  0
   10.4788   -5.2618   -2.8305 H   0  0  0  0  0  0  0  0  0  0  0  0
   11.2351   -5.5270   -0.4853 H   0  0  0  0  0  0  0  0  0  0  0  0
    9.7799   -2.7232    2.3809 H   0  0  0  0  0  0  0  0  0  0  0  0
   11.3809   -3.2793    1.7794 H   0  0  0  0  0  0  0  0  0  0  0  0
   10.9146   -3.5557    3.4805 H   0  0  0  0  0  0  0  0  0  0  0  0
    7.3536   -4.3130    0.8912 H   0  0  0  0  0  0  0  0  0  0  0  0
    5.9385   -4.8659   -3.3513 H   0  0  0  0  0  0  0  0  0  0  0  0
    2.3548   -2.7337   -3.7515 H   0  0  0  0  0  0  0  0  0  0  0  0
    2.2062   -1.4204   -2.6566 H   0  0  0  0  0  0  0  0  0  0  0  0
    1.2980   -2.3201   -0.6561 H   0  0  0  0  0  0  0  0  0  0  0  0
   -0.8390   -1.1092   -0.6236 H   0  0  0  0  0  0  0  0  0  0  0  0
   -1.9797    1.2818    0.3395 H   0  0  0  0  0  0  0  0  0  0  0  0
  1  2  1  0  0  0  0
  1 31  1  0  0  0  0
  1 32  1  0  0  0  0
  1 33  1  0  0  0  0
  2  3  2  0  0  0  0
  2 30  1  0  0  0  0
  3  4  1  0  0  0  0
  3 34  1  0  0  0  0
  4  5  1  0  0  0  0
  4 29  2  0  0  0  0
  5  6  2  0  0  0  0
  5 35  1  0  0  0  0
  6  7  1  0  0  0  0
  6 27  1  0  0  0  0
  7  8  2  0  0  0  0
  7 26  1  0  0  0  0
  8  9  1  0  0  0  0
  8 36  1  0  0  0  0
  9 10  1  0  0  0  0
 10 11  1  0  0  0  0
 10 26  2  0  0  0  0
 11 12  1  0  0  0  0
 11 22  2  0  0  0  0
 12 13  1  0  0  0  0
 12 21  2  0  0  0  0
 13 14  2  0  0  0  0
 13 37  1  0  0  0  0
 14 15  1  0  0  0  0
 14 38  1  0  0  0  0
 15 16  2  0  0  0  0
 15 39  1  0  0  0  0
 16 17  1  0  0  0  0
 16 21  1  0  0  0  0
 17 18  1  0  0  0  0
 17 19  2  0  0  0  0
 17 20  2  0  0  0  0
 18 40  1  0  0  0  0
 18 41  1  0  0  0  0
 18 42  1  0  0  0  0
 21 43  1  0  0  0  0
 22 23  1  0  0  0  0
 22 44  1  0  0  0  0
 23 24  2  0  0  0  0
 24 25  1  0  0  0  0
 24 26  1  0  0  0  0
 25 45  1  0  0  0  0
 25 46  1  0  0  0  0
 27 28  2  0  0  0  0
 27 47  1  0  0  0  0
 28 29  1  0  0  0  0
 28 48  1  0  0  0  0
 29 30  1  0  0  0  0
 30 49  1  0  0  0  0
M  END
$$$$
