CHEMBL1082503
 OpenBabel04072215353D

 55 61  0  0  1  0  0  0  0  0999 V2000
    1.6902   -0.6144    1.0138 C   0  0  0  0  0  0  0  0  0  0  0  0
    2.7206   -1.5287    0.5742 N   0  0  0  0  0  0  0  0  0  0  0  0
    3.6899   -2.2373    1.2790 C   0  0  0  0  0  0  0  0  0  0  0  0
    4.4739   -2.9201    0.3377 C   0  0  0  0  0  0  0  0  0  0  0  0
    4.1243   -2.1146   -0.8272 C   0  0  0  0  0  0  0  0  0  0  0  0
    2.9705   -1.4770   -0.7373 N   0  0  0  0  0  0  0  0  0  0  0  0
    5.1025   -1.6958   -1.8705 C   0  0  0  0  0  0  0  0  0  0  0  0
    6.1692   -2.7408   -1.9054 C   0  0  0  0  0  0  0  0  0  0  0  0
    6.6839   -2.7856   -0.4807 C   0  0  0  0  0  0  0  0  0  0  0  0
    5.8806   -3.4272    0.4579 C   0  0  0  0  0  0  0  0  0  0  0  0
    6.5151   -4.6592    0.7887 C   0  0  0  0  0  0  0  0  0  0  0  0
    7.9814   -4.8194    0.6833 C   0  0  0  0  0  0  0  0  0  0  0  0
    8.7110   -3.6469    0.4072 C   0  0  0  0  0  0  0  0  0  0  0  0
    7.9977   -2.6339   -0.1391 C   0  0  0  0  0  0  0  0  0  0  0  0
    8.8682   -1.6406   -0.3909 N   0  0  0  0  0  0  0  0  0  0  0  0
   10.1191   -2.0239    0.0115 C   0  0  0  0  0  0  0  0  0  0  0  0
   11.2499   -1.2353    0.0538 C   0  0  0  0  0  0  0  0  0  0  0  0
   12.4538   -1.8985    0.1674 C   0  0  0  0  0  0  0  0  0  0  0  0
   12.5277   -3.2991    0.1667 C   0  0  0  0  0  0  0  0  0  0  0  0
   13.8605   -3.9972   -0.1016 C   0  0  3  0  0  0  0  0  0  0  0  0
   15.0894   -3.0993   -0.3588 C   0  0  0  0  0  0  0  0  0  0  0  0
   15.0550   -2.4129   -1.7292 C   0  0  0  0  0  0  0  0  0  0  0  0
   14.7739   -3.4192   -2.8318 C   0  0  0  0  0  0  0  0  0  0  0  0
   13.6007   -4.3252   -2.4802 C   0  0  0  0  0  0  0  0  0  0  0  0
   13.7404   -4.9309   -1.1918 O   0  0  0  0  0  0  0  0  0  0  0  0
   11.3372   -4.0622    0.3470 C   0  0  0  0  0  0  0  0  0  0  0  0
   10.0904   -3.4022    0.2925 C   0  0  0  0  0  0  0  0  0  0  0  0
    8.3880   -6.2239    0.6981 C   0  0  0  0  0  0  0  0  0  0  0  0
    7.0768   -6.8448    0.8120 N   0  0  0  0  0  0  0  0  0  0  0  0
    5.9650   -5.9882    0.8903 C   0  0  0  0  0  0  0  0  0  0  0  0
    4.8201   -6.4185    0.9279 O   0  0  0  0  0  0  0  0  0  0  0  0
    2.1155    0.3945    1.0619 H   0  0  0  0  0  0  0  0  0  0  0  0
    1.2747   -0.9262    1.9686 H   0  0  0  0  0  0  0  0  0  0  0  0
    0.8989   -0.6116    0.2504 H   0  0  0  0  0  0  0  0  0  0  0  0
    3.7927   -2.0836    2.3460 H   0  0  0  0  0  0  0  0  0  0  0  0
    5.5629   -0.7467   -1.5497 H   0  0  0  0  0  0  0  0  0  0  0  0
    4.6412   -1.5361   -2.8444 H   0  0  0  0  0  0  0  0  0  0  0  0
    6.9588   -2.5708   -2.6312 H   0  0  0  0  0  0  0  0  0  0  0  0
    5.7239   -3.7282   -2.1450 H   0  0  0  0  0  0  0  0  0  0  0  0
    8.6274   -0.7313   -0.7658 H   0  0  0  0  0  0  0  0  0  0  0  0
   11.2067   -0.1593   -0.0916 H   0  0  0  0  0  0  0  0  0  0  0  0
   13.3424   -1.2775    0.1597 H   0  0  0  0  0  0  0  0  0  0  0  0
   14.0764   -4.5944    0.7930 H   0  0  0  0  0  0  0  0  0  0  0  0
   15.9842   -3.7339   -0.3404 H   0  0  0  0  0  0  0  0  0  0  0  0
   15.2200   -2.3581    0.4367 H   0  0  0  0  0  0  0  0  0  0  0  0
   16.0083   -1.9052   -1.9156 H   0  0  0  0  0  0  0  0  0  0  0  0
   14.2896   -1.6307   -1.7658 H   0  0  0  0  0  0  0  0  0  0  0  0
   15.6724   -4.0294   -2.9788 H   0  0  0  0  0  0  0  0  0  0  0  0
   14.5783   -2.8973   -3.7762 H   0  0  0  0  0  0  0  0  0  0  0  0
   13.5471   -5.1345   -3.2172 H   0  0  0  0  0  0  0  0  0  0  0  0
   12.6504   -3.7830   -2.5381 H   0  0  0  0  0  0  0  0  0  0  0  0
   11.3935   -5.1437    0.4222 H   0  0  0  0  0  0  0  0  0  0  0  0
    9.0147   -6.5144    1.5429 H   0  0  0  0  0  0  0  0  0  0  0  0
    8.8376   -6.5106   -0.2568 H   0  0  0  0  0  0  0  0  0  0  0  0
    6.9187   -7.8246    0.6148 H   0  0  0  0  0  0  0  0  0  0  0  0
  1  2  1  0  0  0  0
  1 32  1  0  0  0  0
  1 33  1  0  0  0  0
  1 34  1  0  0  0  0
  2  3  1  0  0  0  0
  2  6  1  0  0  0  0
  3  4  2  0  0  0  0
  3 35  1  0  0  0  0
  4  5  1  0  0  0  0
  4 10  1  0  0  0  0
  5  6  2  0  0  0  0
  5  7  1  0  0  0  0
  7  8  1  0  0  0  0
  7 36  1  0  0  0  0
  7 37  1  0  0  0  0
  8  9  1  0  0  0  0
  8 38  1  0  0  0  0
  8 39  1  0  0  0  0
  9 10  1  0  0  0  0
  9 14  2  0  0  0  0
 10 11  2  0  0  0  0
 11 12  1  0  0  0  0
 11 30  1  0  0  0  0
 12 13  2  0  0  0  0
 12 28  1  0  0  0  0
 13 14  1  0  0  0  0
 13 27  1  0  0  0  0
 14 15  1  0  0  0  0
 15 16  1  0  0  0  0
 15 40  1  0  0  0  0
 16 17  1  0  0  0  0
 16 27  2  0  0  0  0
 17 18  2  0  0  0  0
 17 41  1  0  0  0  0
 18 19  1  0  0  0  0
 18 42  1  0  0  0  0
 19 20  1  0  0  0  0
 19 26  2  0  0  0  0
 20 21  1  0  0  0  0
 20 25  1  0  0  0  0
 20 43  1  0  0  0  0
 21 22  1  0  0  0  0
 21 44  1  0  0  0  0
 21 45  1  0  0  0  0
 22 23  1  0  0  0  0
 22 46  1  0  0  0  0
 22 47  1  0  0  0  0
 23 24  1  0  0  0  0
 23 48  1  0  0  0  0
 23 49  1  0  0  0  0
 24 25  1  0  0  0  0
 24 50  1  0  0  0  0
 24 51  1  0  0  0  0
 26 27  1  0  0  0  0
 26 52  1  0  0  0  0
 28 29  1  0  0  0  0
 28 53  1  0  0  0  0
 28 54  1  0  0  0  0
 29 30  1  0  0  0  0
 29 55  1  0  0  0  0
 30 31  2  0  0  0  0
M  END
$$$$
