CHEMBL3930485
 OpenBabel04072215373D

 63 67  0  0  0  0  0  0  0  0999 V2000
    1.8828    1.0648   -0.9843 C   0  0  0  0  0  0  0  0  0  0  0  0
    2.4811   -0.3231   -0.7240 C   0  0  0  0  0  0  0  0  0  0  0  0
    3.6925   -0.2934    0.0894 N   0  0  0  0  0  0  0  0  0  0  0  0
    3.8947    0.7936    0.8708 N   0  0  0  0  0  0  0  0  0  0  0  0
    5.1878    0.7520    1.1731 C   0  0  0  0  0  0  0  0  0  0  0  0
    5.8461    1.8754    1.8761 C   0  0  0  0  0  0  0  0  0  0  0  0
    5.7687   -0.4486    0.7325 C   0  0  0  0  0  0  0  0  0  0  0  0
    4.7543   -1.1838    0.1302 C   0  0  0  0  0  0  0  0  0  0  0  0
    4.8188   -2.5505   -0.3905 C   0  0  0  0  0  0  0  0  0  0  0  0
    4.0323   -2.9877   -1.2204 O   0  0  0  0  0  0  0  0  0  0  0  0
    5.8609   -3.2690    0.1827 N   0  0  0  0  0  0  0  0  0  0  0  0
    6.3791   -4.5616   -0.0843 C   0  0  0  0  0  0  0  0  0  0  0  0
    5.8671   -5.4192   -1.0725 C   0  0  0  0  0  0  0  0  0  0  0  0
    6.4486   -6.6842   -1.2832 C   0  0  0  0  0  0  0  0  0  0  0  0
    5.9551   -7.6808   -2.2674 C   0  0  0  0  0  0  0  0  0  0  0  0
    6.0223   -8.8731   -1.9645 O   0  0  0  0  0  0  0  0  0  0  0  0
    5.4138   -7.3307   -3.6019 C   0  0  0  0  0  0  0  0  0  0  0  0
    5.7697   -6.1648   -4.2788 C   0  0  0  0  0  0  0  0  0  0  0  0
    5.2197   -5.8770   -5.5389 C   0  0  0  0  0  0  0  0  0  0  0  0
    4.2823   -6.7604   -6.1195 C   0  0  0  0  0  0  0  0  0  0  0  0
    3.4307   -6.8030   -7.2722 C   0  0  0  0  0  0  0  0  0  0  0  0
    3.1822   -5.7858   -8.2512 C   0  0  0  0  0  0  0  0  0  0  0  0
    3.6315   -4.5236   -8.2549 C   0  0  0  0  0  0  0  0  0  0  0  0
    3.3123   -3.5117   -9.2690 C   0  0  0  0  0  0  0  0  0  0  0  0
    2.0845   -3.4532   -9.9190 C   0  0  0  0  0  0  0  0  0  0  0  0
    1.8724   -2.4349  -10.8471 C   0  0  0  0  0  0  0  0  0  0  0  0
    2.8808   -1.5107  -11.0879 C   0  0  0  0  0  0  0  0  0  0  0  0
    4.0623   -1.6354  -10.3767 C   0  0  0  0  0  0  0  0  0  0  0  0
    4.2964   -2.6093   -9.4712 N   0  0  0  0  0  0  0  0  0  0  0  0
    2.7731   -7.9712   -7.3476 N   0  0  0  0  0  0  0  0  0  0  0  0
    3.1561   -8.6400   -6.2538 N   0  0  0  0  0  0  0  0  0  0  0  0
    4.0166   -7.9503   -5.4499 C   0  0  0  0  0  0  0  0  0  0  0  0
    4.5670   -8.2734   -4.2076 C   0  0  0  0  0  0  0  0  0  0  0  0
    7.5217   -7.1053   -0.4918 C   0  0  0  0  0  0  0  0  0  0  0  0
    8.0430   -6.2676    0.4811 C   0  0  0  0  0  0  0  0  0  0  0  0
    7.4940   -4.9933    0.6896 C   0  0  0  0  0  0  0  0  0  0  0  0
    8.1666   -4.1301    1.7281 C   0  0  0  0  0  0  0  0  0  0  0  0
    1.1108    1.0185   -1.7581 H   0  0  0  0  0  0  0  0  0  0  0  0
    2.6460    1.7812   -1.3132 H   0  0  0  0  0  0  0  0  0  0  0  0
    1.4189    1.4723   -0.0776 H   0  0  0  0  0  0  0  0  0  0  0  0
    2.7487   -0.7751   -1.6820 H   0  0  0  0  0  0  0  0  0  0  0  0
    1.7566   -0.9586   -0.2068 H   0  0  0  0  0  0  0  0  0  0  0  0
    5.2102    2.7661    1.8943 H   0  0  0  0  0  0  0  0  0  0  0  0
    6.7795    2.1404    1.3678 H   0  0  0  0  0  0  0  0  0  0  0  0
    6.0817    1.5960    2.9072 H   0  0  0  0  0  0  0  0  0  0  0  0
    6.8037   -0.7372    0.8459 H   0  0  0  0  0  0  0  0  0  0  0  0
    6.3026   -2.8019    0.9581 H   0  0  0  0  0  0  0  0  0  0  0  0
    5.0039   -5.1217   -1.6611 H   0  0  0  0  0  0  0  0  0  0  0  0
    6.4847   -5.4622   -3.8583 H   0  0  0  0  0  0  0  0  0  0  0  0
    5.5312   -4.9690   -6.0437 H   0  0  0  0  0  0  0  0  0  0  0  0
    2.5232   -6.1051   -9.0557 H   0  0  0  0  0  0  0  0  0  0  0  0
    4.2968   -4.1452   -7.4923 H   0  0  0  0  0  0  0  0  0  0  0  0
    1.2947   -4.1618   -9.7097 H   0  0  0  0  0  0  0  0  0  0  0  0
    0.9254   -2.3636  -11.3736 H   0  0  0  0  0  0  0  0  0  0  0  0
    2.7501   -0.7105  -11.8051 H   0  0  0  0  0  0  0  0  0  0  0  0
    4.8785   -0.9341  -10.5197 H   0  0  0  0  0  0  0  0  0  0  0  0
    2.7721   -9.5651   -6.0965 H   0  0  0  0  0  0  0  0  0  0  0  0
    4.3329   -9.2138   -3.7161 H   0  0  0  0  0  0  0  0  0  0  0  0
    7.9546   -8.0954   -0.6310 H   0  0  0  0  0  0  0  0  0  0  0  0
    8.8830   -6.6210    1.0766 H   0  0  0  0  0  0  0  0  0  0  0  0
    8.9565   -4.6774    2.2560 H   0  0  0  0  0  0  0  0  0  0  0  0
    7.4507   -3.7973    2.4850 H   0  0  0  0  0  0  0  0  0  0  0  0
    8.6357   -3.2658    1.2473 H   0  0  0  0  0  0  0  0  0  0  0  0
  1  2  1  0  0  0  0
  1 38  1  0  0  0  0
  1 39  1  0  0  0  0
  1 40  1  0  0  0  0
  2  3  1  0  0  0  0
  2 41  1  0  0  0  0
  2 42  1  0  0  0  0
  3  4  1  0  0  0  0
  3  8  1  0  0  0  0
  4  5  2  0  0  0  0
  5  6  1  0  0  0  0
  5  7  1  0  0  0  0
  6 43  1  0  0  0  0
  6 44  1  0  0  0  0
  6 45  1  0  0  0  0
  7  8  2  0  0  0  0
  7 46  1  0  0  0  0
  8  9  1  0  0  0  0
  9 10  2  0  0  0  0
  9 11  1  0  0  0  0
 11 12  1  0  0  0  0
 11 47  1  0  0  0  0
 12 13  1  0  0  0  0
 12 36  2  0  0  0  0
 13 14  2  0  0  0  0
 13 48  1  0  0  0  0
 14 15  1  0  0  0  0
 14 34  1  0  0  0  0
 15 16  2  0  0  0  0
 15 17  1  0  0  0  0
 17 18  1  0  0  0  0
 17 33  2  0  0  0  0
 18 19  2  0  0  0  0
 18 49  1  0  0  0  0
 19 20  1  0  0  0  0
 19 50  1  0  0  0  0
 20 21  1  0  0  0  0
 20 32  2  0  0  0  0
 21 22  1  0  0  0  0
 21 30  2  0  0  0  0
 22 23  2  0  0  0  0
 22 51  1  0  0  0  0
 23 24  1  0  0  0  0
 23 52  1  0  0  0  0
 24 25  1  0  0  0  0
 24 29  2  0  0  0  0
 25 26  2  0  0  0  0
 25 53  1  0  0  0  0
 26 27  1  0  0  0  0
 26 54  1  0  0  0  0
 27 28  2  0  0  0  0
 27 55  1  0  0  0  0
 28 29  1  0  0  0  0
 28 56  1  0  0  0  0
 30 31  1  0  0  0  0
 31 32  1  0  0  0  0
 31 57  1  0  0  0  0
 32 33  1  0  0  0  0
 33 58  1  0  0  0  0
 34 35  2  0  0  0  0
 34 59  1  0  0  0  0
 35 36  1  0  0  0  0
 35 60  1  0  0  0  0
 36 37  1  0  0  0  0
 37 61  1  0  0  0  0
 37 62  1  0  0  0  0
 37 63  1  0  0  0  0
M  END
$$$$
