CHEMBL323838
 OpenBabel04072215363D

 49 53  0  0  1  0  0  0  0  0999 V2000
    1.2486    2.1851    0.9918 N   0  0  0  0  0  0  0  0  0  0  0  0
    2.5773    1.5945    0.8551 C   0  0  3  0  0  0  0  0  0  0  0  0
    3.0531    0.9211    2.1412 C   0  0  0  0  0  0  0  0  0  0  0  0
    4.5660    1.1541    2.2047 C   0  0  0  0  0  0  0  0  0  0  0  0
    4.9468    1.8586    0.9462 N   0  0  0  0  0  0  0  0  0  0  0  0
    5.5853    0.8734   -0.3013 S   0  0  0  0  0  0  0  0  0  0  0  0
    4.7286   -0.2910   -0.4156 O   0  0  0  0  0  0  0  0  0  0  0  0
    5.8372    1.7190   -1.4491 O   0  0  0  0  0  0  0  0  0  0  0  0
    7.1609    0.3380    0.3163 C   0  0  0  0  0  0  0  0  0  0  0  0
    7.3990   -1.0240    0.5274 C   0  0  0  0  0  0  0  0  0  0  0  0
    8.6731   -1.4800    0.8769 C   0  0  0  0  0  0  0  0  0  0  0  0
    9.6930   -0.5263    0.9757 C   0  0  0  0  0  0  0  0  0  0  0  0
   11.0351   -0.6829    1.2381 N   0  0  0  0  0  0  0  0  0  0  0  0
   11.7046    0.5197    1.1491 C   0  0  0  0  0  0  0  0  0  0  0  0
   13.1663    0.6365    1.2372 C   0  0  0  0  0  0  0  0  0  0  0  0
   13.7769    1.8847    1.1204 C   0  0  0  0  0  0  0  0  0  0  0  0
   15.1723    2.0001    1.0845 C   0  0  0  0  0  0  0  0  0  0  0  0
   15.7886    3.2490    0.9109 C   0  0  0  0  0  0  0  0  0  0  0  0
   17.1741    3.3407    0.8235 C   0  0  0  0  0  0  0  0  0  0  0  0
   17.9438    2.1876    0.9250 C   0  0  0  0  0  0  0  0  0  0  0  0
   17.3249    0.9479    1.1216 C   0  0  0  0  0  0  0  0  0  0  0  0
   15.9434    0.8251    1.2013 C   0  0  0  0  0  0  0  0  0  0  0  0
   15.3831   -0.3874    1.3635 N   0  0  0  0  0  0  0  0  0  0  0  0
   14.0364   -0.4441    1.3706 C   0  0  0  0  0  0  0  0  0  0  0  0
   13.5845   -1.7224    1.5018 O   0  0  0  0  0  0  0  0  0  0  0  0
   10.7340    1.4779    0.9009 C   0  0  0  0  0  0  0  0  0  0  0  0
    9.4761    0.8353    0.7717 C   0  0  0  0  0  0  0  0  0  0  0  0
    8.1840    1.2856    0.4462 C   0  0  0  0  0  0  0  0  0  0  0  0
    3.7041    2.5850    0.5404 C   0  0  0  0  0  0  0  0  0  0  0  0
    0.5723    1.4438    1.1792 H   0  0  0  0  0  0  0  0  0  0  0  0
    0.9676    2.5929    0.0991 H   0  0  0  0  0  0  0  0  0  0  0  0
    2.5237    0.8450    0.0571 H   0  0  0  0  0  0  0  0  0  0  0  0
    2.8214   -0.1501    2.1233 H   0  0  0  0  0  0  0  0  0  0  0  0
    2.5746    1.3359    3.0364 H   0  0  0  0  0  0  0  0  0  0  0  0
    5.1227    0.2284    2.3681 H   0  0  0  0  0  0  0  0  0  0  0  0
    4.8026    1.8211    3.0437 H   0  0  0  0  0  0  0  0  0  0  0  0
    6.6031   -1.7526    0.3837 H   0  0  0  0  0  0  0  0  0  0  0  0
    8.8720   -2.5381    1.0154 H   0  0  0  0  0  0  0  0  0  0  0  0
   11.4975   -1.5694    1.4003 H   0  0  0  0  0  0  0  0  0  0  0  0
   13.1727    2.7819    1.0221 H   0  0  0  0  0  0  0  0  0  0  0  0
   15.1906    4.1536    0.8241 H   0  0  0  0  0  0  0  0  0  0  0  0
   17.6473    4.3068    0.6680 H   0  0  0  0  0  0  0  0  0  0  0  0
   19.0263    2.2474    0.8459 H   0  0  0  0  0  0  0  0  0  0  0  0
   17.9382    0.0531    1.1975 H   0  0  0  0  0  0  0  0  0  0  0  0
   14.4439   -2.1832    1.5482 H   0  0  0  0  0  0  0  0  0  0  0  0
   10.9081    2.5357    0.7573 H   0  0  0  0  0  0  0  0  0  0  0  0
    7.9985    2.3371    0.2453 H   0  0  0  0  0  0  0  0  0  0  0  0
    3.7106    2.8949   -0.5080 H   0  0  0  0  0  0  0  0  0  0  0  0
    3.6248    3.4944    1.1502 H   0  0  0  0  0  0  0  0  0  0  0  0
  1  2  1  0  0  0  0
  1 30  1  0  0  0  0
  1 31  1  0  0  0  0
  2  3  1  0  0  0  0
  2 29  1  0  0  0  0
  2 32  1  0  0  0  0
  3  4  1  0  0  0  0
  3 33  1  0  0  0  0
  3 34  1  0  0  0  0
  4  5  1  0  0  0  0
  4 35  1  0  0  0  0
  4 36  1  0  0  0  0
  5  6  1  0  0  0  0
  5 29  1  0  0  0  0
  6  7  2  0  0  0  0
  6  8  2  0  0  0  0
  6  9  1  0  0  0  0
  9 10  1  0  0  0  0
  9 28  2  0  0  0  0
 10 11  2  0  0  0  0
 10 37  1  0  0  0  0
 11 12  1  0  0  0  0
 11 38  1  0  0  0  0
 12 13  1  0  0  0  0
 12 27  2  0  0  0  0
 13 14  1  0  0  0  0
 13 39  1  0  0  0  0
 14 15  1  0  0  0  0
 14 26  2  0  0  0  0
 15 16  1  0  0  0  0
 15 24  2  0  0  0  0
 16 17  2  0  0  0  0
 16 40  1  0  0  0  0
 17 18  1  0  0  0  0
 17 22  1  0  0  0  0
 18 19  2  0  0  0  0
 18 41  1  0  0  0  0
 19 20  1  0  0  0  0
 19 42  1  0  0  0  0
 20 21  2  0  0  0  0
 20 43  1  0  0  0  0
 21 22  1  0  0  0  0
 21 44  1  0  0  0  0
 22 23  2  0  0  0  0
 23 24  1  0  0  0  0
 24 25  1  0  0  0  0
 25 45  1  0  0  0  0
 26 27  1  0  0  0  0
 26 46  1  0  0  0  0
 27 28  1  0  0  0  0
 28 47  1  0  0  0  0
 29 48  1  0  0  0  0
 29 49  1  0  0  0  0
M  END
$$$$
