CHEMBL400512
 OpenBabel04072215373D

 45 47  0  0  0  0  0  0  0  0999 V2000
    1.7991   -0.2147   -1.3126 O   0  0  0  0  0  0  0  0  0  0  0  0
    2.2205   -0.1458   -0.1623 C   0  0  0  0  0  0  0  0  0  0  0  0
    1.9391    0.8559    0.7498 N   0  0  0  0  0  0  0  0  0  0  0  0
    1.0919    1.9694    0.5375 C   0  0  0  0  0  0  0  0  0  0  0  0
    0.3262    2.1516   -0.6189 C   0  0  0  0  0  0  0  0  0  0  0  0
   -0.5450    3.2447   -0.7566 C   0  0  0  0  0  0  0  0  0  0  0  0
   -1.4307    3.3836   -1.9733 C   0  0  0  0  0  0  0  0  0  0  0  0
   -1.2900    2.3801   -2.8814 F   0  0  0  0  0  0  0  0  0  0  0  0
   -2.7523    3.4007   -1.6405 F   0  0  0  0  0  0  0  0  0  0  0  0
   -1.2039    4.5410   -2.6529 F   0  0  0  0  0  0  0  0  0  0  0  0
   -0.6146    4.1905    0.2756 C   0  0  0  0  0  0  0  0  0  0  0  0
    0.1509    4.0371    1.4409 C   0  0  0  0  0  0  0  0  0  0  0  0
    0.0546    5.0349    2.5703 C   0  0  0  0  0  0  0  0  0  0  0  0
   -0.8411    6.0336    2.3395 F   0  0  0  0  0  0  0  0  0  0  0  0
   -0.3275    4.4520    3.7398 F   0  0  0  0  0  0  0  0  0  0  0  0
    1.2428    5.6467    2.8265 F   0  0  0  0  0  0  0  0  0  0  0  0
    0.9987    2.9196    1.5607 C   0  0  0  0  0  0  0  0  0  0  0  0
    3.1024   -1.2465    0.3003 C   0  0  0  0  0  0  0  0  0  0  0  0
    2.7984   -2.5273   -0.1963 C   0  0  0  0  0  0  0  0  0  0  0  0
    3.5931   -3.6102    0.1482 C   0  0  0  0  0  0  0  0  0  0  0  0
    4.6674   -3.3722    0.9701 C   0  0  0  0  0  0  0  0  0  0  0  0
    4.9931   -2.1457    1.4489 N   0  0  0  0  0  0  0  0  0  0  0  0
    4.2363   -1.0738    1.1087 C   0  0  0  0  0  0  0  0  0  0  0  0
    4.5642    0.1694    1.6804 N   0  0  0  0  0  0  0  0  0  0  0  0
    5.9367    0.3106    2.1820 C   0  0  0  0  0  0  0  0  0  0  0  0
    6.9192    0.9392    1.2047 C   0  0  0  0  0  0  0  0  0  0  0  0
    6.5983    1.3790   -0.0848 C   0  0  0  0  0  0  0  0  0  0  0  0
    7.5847    1.9832   -0.8554 C   0  0  0  0  0  0  0  0  0  0  0  0
    8.8571    2.1727   -0.4459 N   0  0  0  0  0  0  0  0  0  0  0  0
    9.1600    1.7307    0.7898 C   0  0  0  0  0  0  0  0  0  0  0  0
    8.2431    1.1215    1.6350 C   0  0  0  0  0  0  0  0  0  0  0  0
    2.3363    0.7491    1.6800 H   0  0  0  0  0  0  0  0  0  0  0  0
    0.3581    1.4324   -1.4336 H   0  0  0  0  0  0  0  0  0  0  0  0
   -1.2882    5.0434    0.1736 H   0  0  0  0  0  0  0  0  0  0  0  0
    1.5863    2.8035    2.4707 H   0  0  0  0  0  0  0  0  0  0  0  0
    1.9419   -2.6731   -0.8534 H   0  0  0  0  0  0  0  0  0  0  0  0
    3.3726   -4.6082   -0.2215 H   0  0  0  0  0  0  0  0  0  0  0  0
    5.3233   -4.1799    1.2834 H   0  0  0  0  0  0  0  0  0  0  0  0
    4.3059    0.9517    1.0912 H   0  0  0  0  0  0  0  0  0  0  0  0
    6.3580   -0.6257    2.5683 H   0  0  0  0  0  0  0  0  0  0  0  0
    5.8790    0.9873    3.0445 H   0  0  0  0  0  0  0  0  0  0  0  0
    5.6080    1.2675   -0.5109 H   0  0  0  0  0  0  0  0  0  0  0  0
    7.3642    2.3454   -1.8551 H   0  0  0  0  0  0  0  0  0  0  0  0
   10.1919    1.8869    1.0944 H   0  0  0  0  0  0  0  0  0  0  0  0
    8.5679    0.7941    2.6187 H   0  0  0  0  0  0  0  0  0  0  0  0
  1  2  2  0  0  0  0
  2  3  1  0  0  0  0
  2 18  1  0  0  0  0
  3  4  1  0  0  0  0
  3 32  1  0  0  0  0
  4  5  1  0  0  0  0
  4 17  2  0  0  0  0
  5  6  2  0  0  0  0
  5 33  1  0  0  0  0
  6  7  1  0  0  0  0
  6 11  1  0  0  0  0
  7  8  1  0  0  0  0
  7  9  1  0  0  0  0
  7 10  1  0  0  0  0
 11 12  2  0  0  0  0
 11 34  1  0  0  0  0
 12 13  1  0  0  0  0
 12 17  1  0  0  0  0
 13 14  1  0  0  0  0
 13 15  1  0  0  0  0
 13 16  1  0  0  0  0
 17 35  1  0  0  0  0
 18 19  1  0  0  0  0
 18 23  2  0  0  0  0
 19 20  2  0  0  0  0
 19 36  1  0  0  0  0
 20 21  1  0  0  0  0
 20 37  1  0  0  0  0
 21 22  2  0  0  0  0
 21 38  1  0  0  0  0
 22 23  1  0  0  0  0
 23 24  1  0  0  0  0
 24 25  1  0  0  0  0
 24 39  1  0  0  0  0
 25 26  1  0  0  0  0
 25 40  1  0  0  0  0
 25 41  1  0  0  0  0
 26 27  1  0  0  0  0
 26 31  2  0  0  0  0
 27 28  2  0  0  0  0
 27 42  1  0  0  0  0
 28 29  1  0  0  0  0
 28 43  1  0  0  0  0
 29 30  2  0  0  0  0
 30 31  1  0  0  0  0
 30 44  1  0  0  0  0
 31 45  1  0  0  0  0
M  END
$$$$
