CHEMBL1940274
 OpenBabel04072215363D

 58 61  0  0  0  0  0  0  0  0999 V2000
    9.7837    0.9020   -4.7914 C   0  0  0  0  0  0  0  0  0  0  0  0
    9.9618    2.2839   -4.4610 O   0  0  0  0  0  0  0  0  0  0  0  0
    8.9480    2.8547   -3.7361 C   0  0  0  0  0  0  0  0  0  0  0  0
    8.1913    2.0905   -2.8320 C   0  0  0  0  0  0  0  0  0  0  0  0
    7.0739    2.5896   -2.1897 C   0  0  0  0  0  0  0  0  0  0  0  0
    6.3452    1.7464   -1.4492 N   0  0  0  0  0  0  0  0  0  0  0  0
    5.2210    2.2298   -0.9134 C   0  0  0  0  0  0  0  0  0  0  0  0
    4.7890    3.4827   -1.0125 N   0  0  0  0  0  0  0  0  0  0  0  0
    5.5818    4.3326   -1.7040 C   0  0  0  0  0  0  0  0  0  0  0  0
    5.2029    5.6779   -1.7828 O   0  0  0  0  0  0  0  0  0  0  0  0
    4.3088    6.1358   -0.8368 C   0  0  0  0  0  0  0  0  0  0  0  0
    4.4563    5.8478    0.5239 C   0  0  0  0  0  0  0  0  0  0  0  0
    3.4596    6.2066    1.4286 C   0  0  0  0  0  0  0  0  0  0  0  0
    2.3307    6.9118    0.9961 C   0  0  0  0  0  0  0  0  0  0  0  0
    1.1837    7.1188    1.9561 C   0  0  0  0  0  0  0  0  0  0  0  0
    0.7194    8.5435    2.1519 C   0  0  0  0  0  0  0  0  0  0  0  0
   -0.4730    8.8233    2.0353 O   0  0  0  0  0  0  0  0  0  0  0  0
    1.7131    9.4284    2.5288 N   0  0  0  0  0  0  0  0  0  0  0  0
    1.4514   10.7542    2.8229 C   0  0  0  0  0  0  0  0  0  0  0  0
    0.2256   11.4188    3.0485 C   0  0  0  0  0  0  0  0  0  0  0  0
    0.3854   12.7263    3.2592 N   0  0  0  0  0  0  0  0  0  0  0  0
    1.7124   12.9083    3.1262 N   0  0  0  0  0  0  0  0  0  0  0  0
    2.2494   14.2655    3.0973 C   0  0  0  0  0  0  0  0  0  0  0  0
    1.6927   15.0446    1.9028 C   0  0  0  0  0  0  0  0  0  0  0  0
    1.9833   15.0013    4.4092 C   0  0  0  0  0  0  0  0  0  0  0  0
    2.4043   11.7399    2.9452 C   0  0  0  0  0  0  0  0  0  0  0  0
    2.2403    7.2907   -0.3491 C   0  0  0  0  0  0  0  0  0  0  0  0
    3.2326    6.9120   -1.2656 C   0  0  0  0  0  0  0  0  0  0  0  0
    6.7502    3.9340   -2.3679 C   0  0  0  0  0  0  0  0  0  0  0  0
    7.5683    4.7509   -3.1785 C   0  0  0  0  0  0  0  0  0  0  0  0
    8.6559    4.2164   -3.8823 C   0  0  0  0  0  0  0  0  0  0  0  0
    9.2705    5.1566   -4.6614 O   0  0  0  0  0  0  0  0  0  0  0  0
   10.2937    4.7650   -5.5626 C   0  0  0  0  0  0  0  0  0  0  0  0
   10.2227    0.7275   -5.7771 H   0  0  0  0  0  0  0  0  0  0  0  0
    8.7314    0.5993   -4.8555 H   0  0  0  0  0  0  0  0  0  0  0  0
   10.3136    0.2805   -4.0620 H   0  0  0  0  0  0  0  0  0  0  0  0
    8.4484    1.0530   -2.6351 H   0  0  0  0  0  0  0  0  0  0  0  0
    4.6091    1.5387   -0.3448 H   0  0  0  0  0  0  0  0  0  0  0  0
    5.3061    5.2700    0.8752 H   0  0  0  0  0  0  0  0  0  0  0  0
    3.5496    5.8748    2.4598 H   0  0  0  0  0  0  0  0  0  0  0  0
    1.4288    6.7211    2.9485 H   0  0  0  0  0  0  0  0  0  0  0  0
    0.3322    6.5309    1.5893 H   0  0  0  0  0  0  0  0  0  0  0  0
    2.6824    9.1431    2.4685 H   0  0  0  0  0  0  0  0  0  0  0  0
   -0.7752   11.0078    3.0702 H   0  0  0  0  0  0  0  0  0  0  0  0
    3.3347   14.1694    2.9692 H   0  0  0  0  0  0  0  0  0  0  0  0
    0.5999   15.1212    1.9420 H   0  0  0  0  0  0  0  0  0  0  0  0
    1.9529   14.5489    0.9608 H   0  0  0  0  0  0  0  0  0  0  0  0
    2.0987   16.0608    1.8738 H   0  0  0  0  0  0  0  0  0  0  0  0
    0.9101   15.1091    4.6022 H   0  0  0  0  0  0  0  0  0  0  0  0
    2.4225   16.0041    4.3867 H   0  0  0  0  0  0  0  0  0  0  0  0
    2.4200   14.4588    5.2546 H   0  0  0  0  0  0  0  0  0  0  0  0
    3.4811   11.7285    2.8566 H   0  0  0  0  0  0  0  0  0  0  0  0
    1.3778    7.8517   -0.7116 H   0  0  0  0  0  0  0  0  0  0  0  0
    3.1316    7.1774   -2.3149 H   0  0  0  0  0  0  0  0  0  0  0  0
    7.3320    5.8064   -3.2978 H   0  0  0  0  0  0  0  0  0  0  0  0
   10.4836    5.6173   -6.2242 H   0  0  0  0  0  0  0  0  0  0  0  0
    9.9868    3.9347   -6.2047 H   0  0  0  0  0  0  0  0  0  0  0  0
   11.2233    4.5501   -5.0271 H   0  0  0  0  0  0  0  0  0  0  0  0
  1  2  1  0  0  0  0
  1 34  1  0  0  0  0
  1 35  1  0  0  0  0
  1 36  1  0  0  0  0
  2  3  1  0  0  0  0
  3  4  1  0  0  0  0
  3 31  2  0  0  0  0
  4  5  2  0  0  0  0
  4 37  1  0  0  0  0
  5  6  1  0  0  0  0
  5 29  1  0  0  0  0
  6  7  2  0  0  0  0
  7  8  1  0  0  0  0
  7 38  1  0  0  0  0
  8  9  2  0  0  0  0
  9 10  1  0  0  0  0
  9 29  1  0  0  0  0
 10 11  1  0  0  0  0
 11 12  1  0  0  0  0
 11 28  2  0  0  0  0
 12 13  2  0  0  0  0
 12 39  1  0  0  0  0
 13 14  1  0  0  0  0
 13 40  1  0  0  0  0
 14 15  1  0  0  0  0
 14 27  2  0  0  0  0
 15 16  1  0  0  0  0
 15 41  1  0  0  0  0
 15 42  1  0  0  0  0
 16 17  2  0  0  0  0
 16 18  1  0  0  0  0
 18 19  1  0  0  0  0
 18 43  1  0  0  0  0
 19 20  1  0  0  0  0
 19 26  2  0  0  0  0
 20 21  2  0  0  0  0
 20 44  1  0  0  0  0
 21 22  1  0  0  0  0
 22 23  1  0  0  0  0
 22 26  1  0  0  0  0
 23 24  1  0  0  0  0
 23 25  1  0  0  0  0
 23 45  1  0  0  0  0
 24 46  1  0  0  0  0
 24 47  1  0  0  0  0
 24 48  1  0  0  0  0
 25 49  1  0  0  0  0
 25 50  1  0  0  0  0
 25 51  1  0  0  0  0
 26 52  1  0  0  0  0
 27 28  1  0  0  0  0
 27 53  1  0  0  0  0
 28 54  1  0  0  0  0
 29 30  2  0  0  0  0
 30 31  1  0  0  0  0
 30 55  1  0  0  0  0
 31 32  1  0  0  0  0
 32 33  1  0  0  0  0
 33 56  1  0  0  0  0
 33 57  1  0  0  0  0
 33 58  1  0  0  0  0
M  END
$$$$
