CHEMBL190495
 OpenBabel04072215363D

 48 49  0  0  0  0  0  0  0  0999 V2000
    0.8936    0.1082    0.0555 C   0  0  0  0  0  0  0  0  0  0  0  0
    2.4122    0.0945    0.0560 C   0  0  0  0  0  0  0  0  0  0  0  0
    2.9479   -1.3345    0.0212 C   0  0  0  0  0  0  0  0  0  0  0  0
    4.4745   -1.3536    0.0210 C   0  0  0  0  0  0  0  0  0  0  0  0
    4.9925   -2.7891   -0.0159 C   0  0  0  0  0  0  0  0  0  0  0  0
    6.5171   -2.8249   -0.0158 C   0  0  0  0  0  0  0  0  0  0  0  0
    7.0255   -4.2650   -0.0532 C   0  0  0  0  0  0  0  0  0  0  0  0
    8.5493   -4.2942   -0.0530 C   0  0  0  0  0  0  0  0  0  0  0  0
    9.0918   -5.7221   -0.0888 C   0  0  0  0  0  0  0  0  0  0  0  0
   10.6186   -5.6944   -0.0824 C   0  0  0  0  0  0  0  0  0  0  0  0
   11.2218   -7.0927   -0.1158 C   0  0  0  0  0  0  0  0  0  0  0  0
   12.6743   -7.0369   -0.1185 N   0  0  0  0  0  0  0  0  0  0  0  0
   13.4730   -6.9482   -1.2262 C   0  0  0  0  0  0  0  0  0  0  0  0
   14.7482   -6.8864   -0.7254 C   0  0  0  0  0  0  0  0  0  0  0  0
   15.9452   -6.7734   -1.4218 C   0  0  0  0  0  0  0  0  0  0  0  0
   16.0999   -6.6582   -2.7882 N   0  0  0  0  0  0  0  0  0  0  0  0
   17.0341   -6.7599   -0.6137 N   0  0  0  0  0  0  0  0  0  0  0  0
   16.8541   -6.8315    0.7492 C   0  0  0  0  0  0  0  0  0  0  0  0
   15.7167   -6.9290    1.4894 N   0  0  0  0  0  0  0  0  0  0  0  0
   14.6280   -6.9580    0.6852 C   0  0  0  0  0  0  0  0  0  0  0  0
   13.3481   -7.0479    1.0535 N   0  0  0  0  0  0  0  0  0  0  0  0
    0.5232    1.1373    0.0807 H   0  0  0  0  0  0  0  0  0  0  0  0
    0.4981   -0.4188    0.9298 H   0  0  0  0  0  0  0  0  0  0  0  0
    0.4990   -0.3751   -0.8440 H   0  0  0  0  0  0  0  0  0  0  0  0
    2.7799    0.6087    0.9518 H   0  0  0  0  0  0  0  0  0  0  0  0
    2.7806    0.6523   -0.8130 H   0  0  0  0  0  0  0  0  0  0  0  0
    2.5743   -1.8457   -0.8746 H   0  0  0  0  0  0  0  0  0  0  0  0
    2.5735   -1.8894    0.8895 H   0  0  0  0  0  0  0  0  0  0  0  0
    4.8518   -0.8468    0.9174 H   0  0  0  0  0  0  0  0  0  0  0  0
    4.8528   -0.8011   -0.8474 H   0  0  0  0  0  0  0  0  0  0  0  0
    4.6134   -3.2947   -0.9122 H   0  0  0  0  0  0  0  0  0  0  0  0
    4.6122   -3.3406    0.8525 H   0  0  0  0  0  0  0  0  0  0  0  0
    6.8987   -2.3203    0.8803 H   0  0  0  0  0  0  0  0  0  0  0  0
    6.8997   -2.2744   -0.8840 H   0  0  0  0  0  0  0  0  0  0  0  0
    6.6448   -4.7684   -0.9499 H   0  0  0  0  0  0  0  0  0  0  0  0
    6.6436   -4.8146    0.8156 H   0  0  0  0  0  0  0  0  0  0  0  0
    8.9239   -3.7833    0.8427 H   0  0  0  0  0  0  0  0  0  0  0  0
    8.9251   -3.7384   -0.9211 H   0  0  0  0  0  0  0  0  0  0  0  0
    8.7290   -6.2360   -0.9874 H   0  0  0  0  0  0  0  0  0  0  0  0
    8.7230   -6.2832    0.7783 H   0  0  0  0  0  0  0  0  0  0  0  0
   10.9701   -5.1627    0.8109 H   0  0  0  0  0  0  0  0  0  0  0  0
   10.9738   -5.1191   -0.9473 H   0  0  0  0  0  0  0  0  0  0  0  0
   10.9156   -7.6327   -1.0191 H   0  0  0  0  0  0  0  0  0  0  0  0
   10.9128   -7.6848    0.7529 H   0  0  0  0  0  0  0  0  0  0  0  0
   13.0694   -6.9260   -2.2292 H   0  0  0  0  0  0  0  0  0  0  0  0
   15.3309   -6.9296   -3.3805 H   0  0  0  0  0  0  0  0  0  0  0  0
   17.0439   -6.8145   -3.1139 H   0  0  0  0  0  0  0  0  0  0  0  0
   17.7755   -6.8070    1.3279 H   0  0  0  0  0  0  0  0  0  0  0  0
  1  2  1  0  0  0  0
  1 22  1  0  0  0  0
  1 23  1  0  0  0  0
  1 24  1  0  0  0  0
  2  3  1  0  0  0  0
  2 25  1  0  0  0  0
  2 26  1  0  0  0  0
  3  4  1  0  0  0  0
  3 27  1  0  0  0  0
  3 28  1  0  0  0  0
  4  5  1  0  0  0  0
  4 29  1  0  0  0  0
  4 30  1  0  0  0  0
  5  6  1  0  0  0  0
  5 31  1  0  0  0  0
  5 32  1  0  0  0  0
  6  7  1  0  0  0  0
  6 33  1  0  0  0  0
  6 34  1  0  0  0  0
  7  8  1  0  0  0  0
  7 35  1  0  0  0  0
  7 36  1  0  0  0  0
  8  9  1  0  0  0  0
  8 37  1  0  0  0  0
  8 38  1  0  0  0  0
  9 10  1  0  0  0  0
  9 39  1  0  0  0  0
  9 40  1  0  0  0  0
 10 11  1  0  0  0  0
 10 41  1  0  0  0  0
 10 42  1  0  0  0  0
 11 12  1  0  0  0  0
 11 43  1  0  0  0  0
 11 44  1  0  0  0  0
 12 13  1  0  0  0  0
 12 21  1  0  0  0  0
 13 14  2  0  0  0  0
 13 45  1  0  0  0  0
 14 15  1  0  0  0  0
 14 20  1  0  0  0  0
 15 16  1  0  0  0  0
 15 17  2  0  0  0  0
 16 46  1  0  0  0  0
 16 47  1  0  0  0  0
 17 18  1  0  0  0  0
 18 19  2  0  0  0  0
 18 48  1  0  0  0  0
 19 20  1  0  0  0  0
 20 21  2  0  0  0  0
M  END
$$$$
