CHEMBL213100
 OpenBabel04072215363D

 78 82  0  0  0  0  0  0  0  0999 V2000
    1.3501   -0.1352    0.1469 C   0  0  0  0  0  0  0  0  0  0  0  0
    2.7697   -0.1769    0.0253 O   0  0  0  0  0  0  0  0  0  0  0  0
    3.2856   -0.2443   -1.2383 C   0  0  0  0  0  0  0  0  0  0  0  0
    2.5477   -0.2822   -2.4209 C   0  0  0  0  0  0  0  0  0  0  0  0
    3.1992   -0.3645   -3.6552 C   0  0  0  0  0  0  0  0  0  0  0  0
    4.6002   -0.4198   -3.7343 C   0  0  0  0  0  0  0  0  0  0  0  0
    5.2537   -0.5677   -4.9891 N   0  0  0  0  0  0  0  0  0  0  0  0
    6.0872   -1.6495   -5.2879 C   0  0  0  0  0  0  0  0  0  0  0  0
    6.9656   -1.6144   -6.1503 O   0  0  0  0  0  0  0  0  0  0  0  0
    5.7801   -2.7938   -4.5463 O   0  0  0  0  0  0  0  0  0  0  0  0
    6.0337   -4.1350   -4.9663 C   0  0  0  0  0  0  0  0  0  0  0  0
    5.6861   -4.6278   -6.2407 C   0  0  0  0  0  0  0  0  0  0  0  0
    5.2789   -3.8261   -7.4430 C   0  0  0  0  0  0  0  0  0  0  0  0
    5.6794   -6.0247   -6.4324 C   0  0  0  0  0  0  0  0  0  0  0  0
    6.0295   -6.9045   -5.4131 C   0  0  0  0  0  0  0  0  0  0  0  0
    6.4302   -6.4038   -4.1806 C   0  0  0  0  0  0  0  0  0  0  0  0
    6.4347   -5.0201   -3.9384 C   0  0  0  0  0  0  0  0  0  0  0  0
    6.9031   -4.5241   -2.5995 C   0  0  0  0  0  0  0  0  0  0  0  0
    4.7402    0.1949   -6.0601 C   0  0  0  0  0  0  0  0  0  0  0  0
    4.9846    1.5538   -6.0742 C   0  0  0  0  0  0  0  0  0  0  0  0
    4.5330    2.2331   -7.1652 C   0  0  0  0  0  0  0  0  0  0  0  0
    3.8577    1.6332   -8.1548 N   0  0  0  0  0  0  0  0  0  0  0  0
    3.6201    0.3223   -8.0509 C   0  0  0  0  0  0  0  0  0  0  0  0
    2.8421   -0.2970   -9.0277 N   0  0  0  0  0  0  0  0  0  0  0  0
    2.8035    0.0212  -10.3895 C   0  0  0  0  0  0  0  0  0  0  0  0
    3.8765    0.6580  -11.0186 C   0  0  0  0  0  0  0  0  0  0  0  0
    3.7841    1.0881  -12.3374 C   0  0  0  0  0  0  0  0  0  0  0  0
    2.6108    0.9215  -13.0826 C   0  0  0  0  0  0  0  0  0  0  0  0
    2.5754    1.3746  -14.3865 N   0  0  0  0  0  0  0  0  0  0  0  0
    1.6347    0.8311  -15.3706 C   0  0  0  0  0  0  0  0  0  0  0  0
    2.2562    0.9818  -16.7812 C   0  0  0  0  0  0  0  0  0  0  0  0
    2.6214    2.3824  -17.1071 N   0  0  0  0  0  0  0  0  0  0  0  0
    3.2692    2.4497  -18.4142 C   0  0  0  0  0  0  0  0  0  0  0  0
    3.5273    2.9098  -16.0586 C   0  0  0  0  0  0  0  0  0  0  0  0
    2.9296    2.7853  -14.6397 C   0  0  0  0  0  0  0  0  0  0  0  0
    1.5503    0.2493  -12.4608 C   0  0  0  0  0  0  0  0  0  0  0  0
    1.6436   -0.1957  -11.1328 C   0  0  0  0  0  0  0  0  0  0  0  0
    4.0287   -0.4302   -7.0220 N   0  0  0  0  0  0  0  0  0  0  0  0
    5.3425   -0.3173   -2.5444 C   0  0  0  0  0  0  0  0  0  0  0  0
    6.7138   -0.2347   -2.4931 O   0  0  0  0  0  0  0  0  0  0  0  0
    7.2500    0.8302   -3.2849 C   0  0  0  0  0  0  0  0  0  0  0  0
    4.6829   -0.2623   -1.3090 C   0  0  0  0  0  0  0  0  0  0  0  0
    1.1032   -0.1088    1.2130 H   0  0  0  0  0  0  0  0  0  0  0  0
    0.8881   -1.0328   -0.2771 H   0  0  0  0  0  0  0  0  0  0  0  0
    0.9435    0.7726   -0.3116 H   0  0  0  0  0  0  0  0  0  0  0  0
    1.4614   -0.2684   -2.4173 H   0  0  0  0  0  0  0  0  0  0  0  0
    2.5881   -0.4374   -4.5539 H   0  0  0  0  0  0  0  0  0  0  0  0
    5.4071   -2.7555   -7.3508 H   0  0  0  0  0  0  0  0  0  0  0  0
    4.2266   -4.0070   -7.6803 H   0  0  0  0  0  0  0  0  0  0  0  0
    5.8912   -4.1305   -8.3014 H   0  0  0  0  0  0  0  0  0  0  0  0
    5.3770   -6.4358   -7.3947 H   0  0  0  0  0  0  0  0  0  0  0  0
    5.9938   -7.9769   -5.5852 H   0  0  0  0  0  0  0  0  0  0  0  0
    6.7203   -7.1035   -3.4000 H   0  0  0  0  0  0  0  0  0  0  0  0
    7.0509   -5.3548   -1.8988 H   0  0  0  0  0  0  0  0  0  0  0  0
    6.1733   -3.8458   -2.1505 H   0  0  0  0  0  0  0  0  0  0  0  0
    7.8655   -4.0137   -2.7097 H   0  0  0  0  0  0  0  0  0  0  0  0
    5.5404    2.0656   -5.3046 H   0  0  0  0  0  0  0  0  0  0  0  0
    4.7029    3.2959   -7.2989 H   0  0  0  0  0  0  0  0  0  0  0  0
    2.4556   -1.1805   -8.7404 H   0  0  0  0  0  0  0  0  0  0  0  0
    4.8129    0.8192  -10.4911 H   0  0  0  0  0  0  0  0  0  0  0  0
    4.6581    1.5448  -12.7918 H   0  0  0  0  0  0  0  0  0  0  0  0
    0.6745    1.3595  -15.3161 H   0  0  0  0  0  0  0  0  0  0  0  0
    1.4500   -0.2352  -15.1956 H   0  0  0  0  0  0  0  0  0  0  0  0
    1.5378    0.6065  -17.5185 H   0  0  0  0  0  0  0  0  0  0  0  0
    3.1485    0.3419  -16.8340 H   0  0  0  0  0  0  0  0  0  0  0  0
    2.5929    2.0845  -19.1943 H   0  0  0  0  0  0  0  0  0  0  0  0
    4.1922    1.8597  -18.4529 H   0  0  0  0  0  0  0  0  0  0  0  0
    3.5133    3.4875  -18.6658 H   0  0  0  0  0  0  0  0  0  0  0  0
    3.7403    3.9675  -16.2536 H   0  0  0  0  0  0  0  0  0  0  0  0
    4.4854    2.3717  -16.0796 H   0  0  0  0  0  0  0  0  0  0  0  0
    2.0321    3.4119  -14.5526 H   0  0  0  0  0  0  0  0  0  0  0  0
    3.6605    3.1778  -13.9244 H   0  0  0  0  0  0  0  0  0  0  0  0
    0.6116    0.0967  -12.9852 H   0  0  0  0  0  0  0  0  0  0  0  0
    0.7819   -0.6724  -10.6740 H   0  0  0  0  0  0  0  0  0  0  0  0
    8.1316    1.2349   -2.7802 H   0  0  0  0  0  0  0  0  0  0  0  0
    6.5450    1.6578   -3.4162 H   0  0  0  0  0  0  0  0  0  0  0  0
    7.5792    0.4473   -4.2545 H   0  0  0  0  0  0  0  0  0  0  0  0
    5.2652   -0.2058   -0.3920 H   0  0  0  0  0  0  0  0  0  0  0  0
  1  2  1  0  0  0  0
  1 43  1  0  0  0  0
  1 44  1  0  0  0  0
  1 45  1  0  0  0  0
  2  3  1  0  0  0  0
  3  4  1  0  0  0  0
  3 42  2  0  0  0  0
  4  5  2  0  0  0  0
  4 46  1  0  0  0  0
  5  6  1  0  0  0  0
  5 47  1  0  0  0  0
  6  7  1  0  0  0  0
  6 39  2  0  0  0  0
  7  8  1  0  0  0  0
  7 19  1  0  0  0  0
  8  9  2  0  0  0  0
  8 10  1  0  0  0  0
 10 11  1  0  0  0  0
 11 12  1  0  0  0  0
 11 17  2  0  0  0  0
 12 13  1  0  0  0  0
 12 14  2  0  0  0  0
 13 48  1  0  0  0  0
 13 49  1  0  0  0  0
 13 50  1  0  0  0  0
 14 15  1  0  0  0  0
 14 51  1  0  0  0  0
 15 16  2  0  0  0  0
 15 52  1  0  0  0  0
 16 17  1  0  0  0  0
 16 53  1  0  0  0  0
 17 18  1  0  0  0  0
 18 54  1  0  0  0  0
 18 55  1  0  0  0  0
 18 56  1  0  0  0  0
 19 20  1  0  0  0  0
 19 38  2  0  0  0  0
 20 21  2  0  0  0  0
 20 57  1  0  0  0  0
 21 22  1  0  0  0  0
 21 58  1  0  0  0  0
 22 23  2  0  0  0  0
 23 24  1  0  0  0  0
 23 38  1  0  0  0  0
 24 25  1  0  0  0  0
 24 59  1  0  0  0  0
 25 26  1  0  0  0  0
 25 37  2  0  0  0  0
 26 27  2  0  0  0  0
 26 60  1  0  0  0  0
 27 28  1  0  0  0  0
 27 61  1  0  0  0  0
 28 29  1  0  0  0  0
 28 36  2  0  0  0  0
 29 30  1  0  0  0  0
 29 35  1  0  0  0  0
 30 31  1  0  0  0  0
 30 62  1  0  0  0  0
 30 63  1  0  0  0  0
 31 32  1  0  0  0  0
 31 64  1  0  0  0  0
 31 65  1  0  0  0  0
 32 33  1  0  0  0  0
 32 34  1  0  0  0  0
 33 66  1  0  0  0  0
 33 67  1  0  0  0  0
 33 68  1  0  0  0  0
 34 35  1  0  0  0  0
 34 69  1  0  0  0  0
 34 70  1  0  0  0  0
 35 71  1  0  0  0  0
 35 72  1  0  0  0  0
 36 37  1  0  0  0  0
 36 73  1  0  0  0  0
 37 74  1  0  0  0  0
 39 40  1  0  0  0  0
 39 42  1  0  0  0  0
 40 41  1  0  0  0  0
 41 75  1  0  0  0  0
 41 76  1  0  0  0  0
 41 77  1  0  0  0  0
 42 78  1  0  0  0  0
M  END
$$$$
