CHEMBL230002
 OpenBabel04072215363D

 59 63  0  0  1  0  0  0  0  0999 V2000
    4.3979    2.0527   -0.8298 C   0  0  0  0  0  0  0  0  0  0  0  0
    3.7473    2.1979    0.4656 N   0  0  0  0  0  0  0  0  0  0  0  0
    4.0801    1.1057    1.3749 C   0  0  0  0  0  0  0  0  0  0  0  0
    3.0739    1.2869    2.4981 C   0  0  0  0  0  0  0  0  0  0  0  0
    1.8672    1.9701    1.8578 C   0  0  0  0  0  0  0  0  0  0  0  0
    2.2688    2.2191    0.4035 C   0  0  1  0  0  0  0  0  0  0  0  0
    1.7568    3.5579   -0.1291 C   0  0  0  0  0  0  0  0  0  0  0  0
    0.3273    3.7094   -0.0929 O   0  0  0  0  0  0  0  0  0  0  0  0
   -0.1145    4.9359   -0.5594 C   0  0  0  0  0  0  0  0  0  0  0  0
    0.7633    5.9225   -1.0292 C   0  0  0  0  0  0  0  0  0  0  0  0
    0.3567    7.1896   -1.4571 C   0  0  0  0  0  0  0  0  0  0  0  0
    1.2847    8.1626   -1.8899 N   0  0  0  0  0  0  0  0  0  0  0  0
    2.6291    8.0052   -1.9196 C   0  0  0  0  0  0  0  0  0  0  0  0
    3.3691    6.9227   -2.0818 N   0  0  0  0  0  0  0  0  0  0  0  0
    4.6590    7.3613   -1.9578 C   0  0  0  0  0  0  0  0  0  0  0  0
    5.8832    6.6767   -2.0128 C   0  0  0  0  0  0  0  0  0  0  0  0
    7.0658    7.4229   -1.8629 C   0  0  0  0  0  0  0  0  0  0  0  0
    8.2442    6.7023   -1.9416 O   0  0  0  0  0  0  0  0  0  0  0  0
    9.3619    7.1441   -1.2673 C   0  0  0  0  0  0  0  0  0  0  0  0
    9.3069    7.7213    0.0046 C   0  0  0  0  0  0  0  0  0  0  0  0
   10.4813    8.1906    0.5637 C   0  0  0  0  0  0  0  0  0  0  0  0
   11.6899    8.0689   -0.0204 N   0  0  0  0  0  0  0  0  0  0  0  0
   11.7208    7.4304   -1.2262 C   0  0  0  0  0  0  0  0  0  0  0  0
   13.0771    7.2655   -1.8430 C   0  0  0  0  0  0  0  0  0  0  0  0
   14.1045    7.8421   -1.1467 N   0  0  0  0  0  0  0  0  0  0  0  0
   13.2602    6.6690   -2.8962 O   0  0  0  0  0  0  0  0  0  0  0  0
   10.5947    6.9515   -1.8809 C   0  0  0  0  0  0  0  0  0  0  0  0
    7.0129    8.8161   -1.7057 C   0  0  0  0  0  0  0  0  0  0  0  0
    5.7949    9.5018   -1.5963 C   0  0  0  0  0  0  0  0  0  0  0  0
    4.6546    8.7273   -1.7428 C   0  0  0  0  0  0  0  0  0  0  0  0
    3.3568    9.1496   -1.7212 O   0  0  0  0  0  0  0  0  0  0  0  0
   -1.0168    7.4361   -1.4996 C   0  0  0  0  0  0  0  0  0  0  0  0
   -1.9282    6.4682   -1.0463 C   0  0  0  0  0  0  0  0  0  0  0  0
   -1.4784    5.2304   -0.5612 C   0  0  0  0  0  0  0  0  0  0  0  0
   -2.6480    4.1097    0.0339 Cl  0  0  0  0  0  0  0  0  0  0  0  0
    5.4868    2.0304   -0.7051 H   0  0  0  0  0  0  0  0  0  0  0  0
    4.1855    2.9096   -1.4778 H   0  0  0  0  0  0  0  0  0  0  0  0
    4.0922    1.1401   -1.3519 H   0  0  0  0  0  0  0  0  0  0  0  0
    5.1092    1.1772    1.7415 H   0  0  0  0  0  0  0  0  0  0  0  0
    3.9431    0.1273    0.8983 H   0  0  0  0  0  0  0  0  0  0  0  0
    3.4880    1.9324    3.2822 H   0  0  0  0  0  0  0  0  0  0  0  0
    2.8058    0.3308    2.9572 H   0  0  0  0  0  0  0  0  0  0  0  0
    1.6472    2.9014    2.3940 H   0  0  0  0  0  0  0  0  0  0  0  0
    0.9778    1.3347    1.9154 H   0  0  0  0  0  0  0  0  0  0  0  0
    1.8825    1.3957   -0.2122 H   0  0  0  0  0  0  0  0  0  0  0  0
    2.2152    4.3493    0.4804 H   0  0  0  0  0  0  0  0  0  0  0  0
    2.0852    3.6420   -1.1725 H   0  0  0  0  0  0  0  0  0  0  0  0
    1.8229    5.7203   -1.0390 H   0  0  0  0  0  0  0  0  0  0  0  0
    0.9571    9.1124   -1.7693 H   0  0  0  0  0  0  0  0  0  0  0  0
    5.9069    5.6040   -2.1696 H   0  0  0  0  0  0  0  0  0  0  0  0
    8.3725    7.8287    0.5423 H   0  0  0  0  0  0  0  0  0  0  0  0
   10.4765    8.6978    1.5244 H   0  0  0  0  0  0  0  0  0  0  0  0
   13.9067    8.3206   -0.2744 H   0  0  0  0  0  0  0  0  0  0  0  0
   15.0517    7.7656   -1.4873 H   0  0  0  0  0  0  0  0  0  0  0  0
   10.6776    6.4554   -2.8432 H   0  0  0  0  0  0  0  0  0  0  0  0
    7.9290    9.4005   -1.6587 H   0  0  0  0  0  0  0  0  0  0  0  0
    5.7435   10.5697   -1.4296 H   0  0  0  0  0  0  0  0  0  0  0  0
   -1.3977    8.3818   -1.8776 H   0  0  0  0  0  0  0  0  0  0  0  0
   -2.9931    6.6901   -1.0688 H   0  0  0  0  0  0  0  0  0  0  0  0
  1  2  1  0  0  0  0
  1 36  1  0  0  0  0
  1 37  1  0  0  0  0
  1 38  1  0  0  0  0
  2  3  1  0  0  0  0
  2  6  1  0  0  0  0
  3  4  1  0  0  0  0
  3 39  1  0  0  0  0
  3 40  1  0  0  0  0
  4  5  1  0  0  0  0
  4 41  1  0  0  0  0
  4 42  1  0  0  0  0
  5  6  1  0  0  0  0
  5 43  1  0  0  0  0
  5 44  1  0  0  0  0
  6  7  1  0  0  0  0
  6 45  1  6  0  0  0
  7  8  1  0  0  0  0
  7 46  1  0  0  0  0
  7 47  1  0  0  0  0
  8  9  1  0  0  0  0
  9 10  1  0  0  0  0
  9 34  2  0  0  0  0
 10 11  2  0  0  0  0
 10 48  1  0  0  0  0
 11 12  1  0  0  0  0
 11 32  1  0  0  0  0
 12 13  1  0  0  0  0
 12 49  1  0  0  0  0
 13 14  2  0  0  0  0
 13 31  1  0  0  0  0
 14 15  1  0  0  0  0
 15 16  1  0  0  0  0
 15 30  2  0  0  0  0
 16 17  2  0  0  0  0
 16 50  1  0  0  0  0
 17 18  1  0  0  0  0
 17 28  1  0  0  0  0
 18 19  1  0  0  0  0
 19 20  1  0  0  0  0
 19 27  2  0  0  0  0
 20 21  2  0  0  0  0
 20 51  1  0  0  0  0
 21 22  1  0  0  0  0
 21 52  1  0  0  0  0
 22 23  2  0  0  0  0
 23 24  1  0  0  0  0
 23 27  1  0  0  0  0
 24 25  1  0  0  0  0
 24 26  2  0  0  0  0
 25 53  1  0  0  0  0
 25 54  1  0  0  0  0
 27 55  1  0  0  0  0
 28 29  2  0  0  0  0
 28 56  1  0  0  0  0
 29 30  1  0  0  0  0
 29 57  1  0  0  0  0
 30 31  1  0  0  0  0
 32 33  2  0  0  0  0
 32 58  1  0  0  0  0
 33 34  1  0  0  0  0
 33 59  1  0  0  0  0
 34 35  1  0  0  0  0
M  END
$$$$
