CHEMBL3586070
 OpenBabel04072215363D

 47 49  0  0  0  0  0  0  0  0999 V2000
    1.1730    2.3620   -0.5085 C   0  0  0  0  0  0  0  0  0  0  0  0
    2.5948    2.1643   -0.5505 N   0  0  0  0  0  0  0  0  0  0  0  0
    3.1481    0.9375   -0.8426 C   0  0  0  0  0  0  0  0  0  0  0  0
    2.4889   -0.0630   -1.1053 O   0  0  0  0  0  0  0  0  0  0  0  0
    4.6458    0.9051   -0.8190 C   0  0  0  0  0  0  0  0  0  0  0  0
    5.3021   -0.2706   -1.1392 C   0  0  0  0  0  0  0  0  0  0  0  0
    6.6954   -0.2685   -1.1234 C   0  0  0  0  0  0  0  0  0  0  0  0
    7.4192    0.8986   -0.8190 C   0  0  0  0  0  0  0  0  0  0  0  0
    8.8988    0.9322   -0.9024 C   0  0  0  0  0  0  0  0  0  0  0  0
    9.5566    0.1563   -1.8629 C   0  0  0  0  0  0  0  0  0  0  0  0
   10.9484    0.1444   -1.9767 C   0  0  0  0  0  0  0  0  0  0  0  0
   11.7470    0.9331   -1.1537 C   0  0  0  0  0  0  0  0  0  0  0  0
   13.1612    0.9460   -1.2405 N   0  0  0  0  0  0  0  0  0  0  0  0
   13.9141    0.3023   -2.2072 C   0  0  0  0  0  0  0  0  0  0  0  0
   13.4624   -0.2752   -3.1877 O   0  0  0  0  0  0  0  0  0  0  0  0
   15.2712    0.3275   -1.9201 N   0  0  0  0  0  0  0  0  0  0  0  0
   16.2024   -0.3082   -2.7750 C   0  0  0  0  0  0  0  0  0  0  0  0
   17.2018   -1.0929   -2.2114 C   0  0  0  0  0  0  0  0  0  0  0  0
   18.0877   -1.7863   -3.0390 C   0  0  0  0  0  0  0  0  0  0  0  0
   18.0142   -1.6694   -4.4346 C   0  0  0  0  0  0  0  0  0  0  0  0
   19.1876   -2.5545   -5.3370 Cl  0  0  0  0  0  0  0  0  0  0  0  0
   17.0340   -0.8669   -5.0249 C   0  0  0  0  0  0  0  0  0  0  0  0
   16.8566   -0.6753   -6.5092 C   0  0  0  0  0  0  0  0  0  0  0  0
   17.7534   -1.3062   -7.3119 F   0  0  0  0  0  0  0  0  0  0  0  0
   15.6317   -1.0943   -6.9378 F   0  0  0  0  0  0  0  0  0  0  0  0
   16.9309    0.6427   -6.8587 F   0  0  0  0  0  0  0  0  0  0  0  0
   16.1298   -0.1918   -4.1707 C   0  0  0  0  0  0  0  0  0  0  0  0
   11.1122    1.7217   -0.1881 C   0  0  0  0  0  0  0  0  0  0  0  0
    9.7067    1.7155   -0.0619 C   0  0  0  0  0  0  0  0  0  0  0  0
    6.6469    2.0185   -0.4974 C   0  0  0  0  0  0  0  0  0  0  0  0
    5.2869    2.0596   -0.4838 N   0  0  0  0  0  0  0  0  0  0  0  0
    0.9675    3.4035   -0.2538 H   0  0  0  0  0  0  0  0  0  0  0  0
    0.7405    1.6983    0.2454 H   0  0  0  0  0  0  0  0  0  0  0  0
    0.7455    2.1217   -1.4858 H   0  0  0  0  0  0  0  0  0  0  0  0
    3.2416    2.9235   -0.3530 H   0  0  0  0  0  0  0  0  0  0  0  0
    4.7491   -1.1662   -1.4039 H   0  0  0  0  0  0  0  0  0  0  0  0
    7.2080   -1.1964   -1.3687 H   0  0  0  0  0  0  0  0  0  0  0  0
    8.9998   -0.4581   -2.5679 H   0  0  0  0  0  0  0  0  0  0  0  0
   11.3615   -0.5056   -2.7389 H   0  0  0  0  0  0  0  0  0  0  0  0
   13.6526    1.5881   -0.6347 H   0  0  0  0  0  0  0  0  0  0  0  0
   15.4859    0.3183   -0.9337 H   0  0  0  0  0  0  0  0  0  0  0  0
   17.2662   -1.2313   -1.1362 H   0  0  0  0  0  0  0  0  0  0  0  0
   18.8337   -2.4364   -2.5853 H   0  0  0  0  0  0  0  0  0  0  0  0
   15.3541    0.4320   -4.6194 H   0  0  0  0  0  0  0  0  0  0  0  0
   11.6911    2.3502    0.4838 H   0  0  0  0  0  0  0  0  0  0  0  0
    9.2611    2.3308    0.7186 H   0  0  0  0  0  0  0  0  0  0  0  0
    7.1140    2.9709   -0.2565 H   0  0  0  0  0  0  0  0  0  0  0  0
  1  2  1  0  0  0  0
  1 32  1  0  0  0  0
  1 33  1  0  0  0  0
  1 34  1  0  0  0  0
  2  3  1  0  0  0  0
  2 35  1  0  0  0  0
  3  4  2  0  0  0  0
  3  5  1  0  0  0  0
  5  6  1  0  0  0  0
  5 31  2  0  0  0  0
  6  7  2  0  0  0  0
  6 36  1  0  0  0  0
  7  8  1  0  0  0  0
  7 37  1  0  0  0  0
  8  9  1  0  0  0  0
  8 30  2  0  0  0  0
  9 10  1  0  0  0  0
  9 29  2  0  0  0  0
 10 11  2  0  0  0  0
 10 38  1  0  0  0  0
 11 12  1  0  0  0  0
 11 39  1  0  0  0  0
 12 13  1  0  0  0  0
 12 28  2  0  0  0  0
 13 14  1  0  0  0  0
 13 40  1  0  0  0  0
 14 15  2  0  0  0  0
 14 16  1  0  0  0  0
 16 17  1  0  0  0  0
 16 41  1  0  0  0  0
 17 18  1  0  0  0  0
 17 27  2  0  0  0  0
 18 19  2  0  0  0  0
 18 42  1  0  0  0  0
 19 20  1  0  0  0  0
 19 43  1  0  0  0  0
 20 21  1  0  0  0  0
 20 22  2  0  0  0  0
 22 23  1  0  0  0  0
 22 27  1  0  0  0  0
 23 24  1  0  0  0  0
 23 25  1  0  0  0  0
 23 26  1  0  0  0  0
 27 44  1  0  0  0  0
 28 29  1  0  0  0  0
 28 45  1  0  0  0  0
 29 46  1  0  0  0  0
 30 31  1  0  0  0  0
 30 47  1  0  0  0  0
M  END
$$$$
