CHEMBL4536372
 OpenBabel04072215383D

 43 45  0  0  0  0  0  0  0  0999 V2000
    2.6757    0.3183   -1.2929 O   0  0  0  0  0  0  0  0  0  0  0  0
    2.3043    0.4724   -0.1367 C   0  0  0  0  0  0  0  0  0  0  0  0
    0.9643    0.4734    0.2266 N   0  0  0  0  0  0  0  0  0  0  0  0
   -0.1117    0.3337   -0.6942 C   0  0  0  0  0  0  0  0  0  0  0  0
    0.0527   -0.1485   -2.0017 C   0  0  0  0  0  0  0  0  0  0  0  0
   -1.0031   -0.1545   -2.9185 C   0  0  0  0  0  0  0  0  0  0  0  0
   -2.2558    0.2997   -2.5180 C   0  0  0  0  0  0  0  0  0  0  0  0
   -3.3518    0.3450   -3.4914 N   0  3  0  0  0  0  0  0  0  0  0  0
   -3.1086   -0.0026   -4.6566 O   0  0  0  0  0  0  0  0  0  0  0  0
   -4.4584    0.7338   -3.0916 O   0  5  0  0  0  0  0  0  0  0  0  0
   -2.4615    0.7237   -1.1965 C   0  0  0  0  0  0  0  0  0  0  0  0
   -1.3912    0.7313   -0.2887 C   0  0  0  0  0  0  0  0  0  0  0  0
    3.1624    0.6987    0.9341 N   0  0  0  0  0  0  0  0  0  0  0  0
    4.5781    0.8390    0.8328 C   0  0  0  0  0  0  0  0  0  0  0  0
    5.2513    0.7727   -0.3933 C   0  0  0  0  0  0  0  0  0  0  0  0
    6.6311    0.8960   -0.4702 C   0  0  0  0  0  0  0  0  0  0  0  0
    7.3633    1.1339    0.6802 C   0  0  0  0  0  0  0  0  0  0  0  0
    6.7308    1.2762    1.9172 C   0  0  0  0  0  0  0  0  0  0  0  0
    7.4582    1.6424    3.0756 N   0  0  0  0  0  0  0  0  0  0  0  0
    8.7422    2.1811    3.0750 C   0  0  0  0  0  0  0  0  0  0  0  0
    9.4431    2.4000    2.0916 O   0  0  0  0  0  0  0  0  0  0  0  0
    9.2797    2.5716    4.4117 C   0  0  0  0  0  0  0  0  0  0  0  0
   10.5463    3.1520    4.4757 C   0  0  0  0  0  0  0  0  0  0  0  0
   11.0339    3.5470    5.7137 C   0  0  0  0  0  0  0  0  0  0  0  0
   10.2466    3.3460    6.8404 C   0  0  0  0  0  0  0  0  0  0  0  0
    8.9986    2.7538    6.6835 C   0  0  0  0  0  0  0  0  0  0  0  0
    8.4837    2.3604    5.4947 N   0  0  0  0  0  0  0  0  0  0  0  0
    5.3364    1.0813    1.9965 C   0  0  0  0  0  0  0  0  0  0  0  0
    0.7358    0.8157    1.1465 H   0  0  0  0  0  0  0  0  0  0  0  0
    1.0068   -0.5264   -2.3592 H   0  0  0  0  0  0  0  0  0  0  0  0
   -0.8119   -0.5011   -3.9325 H   0  0  0  0  0  0  0  0  0  0  0  0
   -3.4413    1.0666   -0.8672 H   0  0  0  0  0  0  0  0  0  0  0  0
   -1.5708    1.0894    0.7213 H   0  0  0  0  0  0  0  0  0  0  0  0
    2.7652    0.7369    1.8590 H   0  0  0  0  0  0  0  0  0  0  0  0
    4.7455    0.6227   -1.3386 H   0  0  0  0  0  0  0  0  0  0  0  0
    7.1321    0.8206   -1.4311 H   0  0  0  0  0  0  0  0  0  0  0  0
    8.4396    1.2048    0.5679 H   0  0  0  0  0  0  0  0  0  0  0  0
    6.9905    1.6429    3.9773 H   0  0  0  0  0  0  0  0  0  0  0  0
   11.1369    3.3013    3.5761 H   0  0  0  0  0  0  0  0  0  0  0  0
   12.0146    4.0088    5.7924 H   0  0  0  0  0  0  0  0  0  0  0  0
   10.5994    3.6472    7.8212 H   0  0  0  0  0  0  0  0  0  0  0  0
    8.3615    2.5798    7.5466 H   0  0  0  0  0  0  0  0  0  0  0  0
    4.8405    1.1606    2.9593 H   0  0  0  0  0  0  0  0  0  0  0  0
  1  2  2  0  0  0  0
  2  3  1  0  0  0  0
  2 13  1  0  0  0  0
  3  4  1  0  0  0  0
  3 29  1  0  0  0  0
  4  5  1  0  0  0  0
  4 12  2  0  0  0  0
  5  6  2  0  0  0  0
  5 30  1  0  0  0  0
  6  7  1  0  0  0  0
  6 31  1  0  0  0  0
  7  8  1  0  0  0  0
  7 11  2  0  0  0  0
  8  9  2  0  0  0  0
  8 10  1  0  0  0  0
 11 12  1  0  0  0  0
 11 32  1  0  0  0  0
 12 33  1  0  0  0  0
 13 14  1  0  0  0  0
 13 34  1  0  0  0  0
 14 15  1  0  0  0  0
 14 28  2  0  0  0  0
 15 16  2  0  0  0  0
 15 35  1  0  0  0  0
 16 17  1  0  0  0  0
 16 36  1  0  0  0  0
 17 18  2  0  0  0  0
 17 37  1  0  0  0  0
 18 19  1  0  0  0  0
 18 28  1  0  0  0  0
 19 20  1  0  0  0  0
 19 38  1  0  0  0  0
 20 21  2  0  0  0  0
 20 22  1  0  0  0  0
 22 23  1  0  0  0  0
 22 27  2  0  0  0  0
 23 24  2  0  0  0  0
 23 39  1  0  0  0  0
 24 25  1  0  0  0  0
 24 40  1  0  0  0  0
 25 26  2  0  0  0  0
 25 41  1  0  0  0  0
 26 27  1  0  0  0  0
 26 42  1  0  0  0  0
 28 43  1  0  0  0  0
M  CHG  2   8   1  10  -1
M  END
$$$$
