CHEMBL218431
 OpenBabel04072215363D

 73 77  0  0  0  0  0  0  0  0999 V2000
    5.5793    0.8934  -11.1245 C   0  0  0  0  0  0  0  0  0  0  0  0
    4.3176    1.5809  -11.0140 N   0  0  0  0  0  0  0  0  0  0  0  0
    3.7050    1.5654   -9.7722 C   0  0  0  0  0  0  0  0  0  0  0  0
    2.8736    2.5852   -9.5400 N   0  0  0  0  0  0  0  0  0  0  0  0
    2.2282    2.5856   -8.3628 C   0  0  0  0  0  0  0  0  0  0  0  0
    2.3992    1.6209   -7.4007 C   0  0  0  0  0  0  0  0  0  0  0  0
    3.3060    0.6228   -7.6902 C   0  0  0  0  0  0  0  0  0  0  0  0
    3.6042   -0.5045   -6.7781 C   0  0  0  0  0  0  0  0  0  0  0  0
    3.9259   -1.7677   -7.3264 C   0  0  0  0  0  0  0  0  0  0  0  0
    4.2162   -2.8723   -6.5196 C   0  0  0  0  0  0  0  0  0  0  0  0
    4.6069   -4.1975   -7.0921 C   0  0  0  0  0  0  0  0  0  0  0  0
    4.1555   -2.6840   -5.1514 C   0  0  0  0  0  0  0  0  0  0  0  0
    3.8438   -1.5095   -4.5692 N   0  0  0  0  0  0  0  0  0  0  0  0
    3.6156   -0.4362   -5.3752 C   0  0  0  0  0  0  0  0  0  0  0  0
    3.3961    0.7989   -4.7494 O   0  0  0  0  0  0  0  0  0  0  0  0
    3.8806    0.9813   -3.4587 C   0  0  0  0  0  0  0  0  0  0  0  0
    5.1681    0.5512   -3.1111 C   0  0  0  0  0  0  0  0  0  0  0  0
    5.6358    0.7022   -1.8123 C   0  0  0  0  0  0  0  0  0  0  0  0
    4.8341    1.3202   -0.8575 C   0  0  0  0  0  0  0  0  0  0  0  0
    3.5588    1.8153   -1.1886 C   0  0  0  0  0  0  0  0  0  0  0  0
    2.7421    2.3745   -0.0526 C   0  0  0  0  0  0  0  0  0  0  0  0
    1.5441    2.1285    0.0183 O   0  0  0  0  0  0  0  0  0  0  0  0
    3.4522    3.1724    0.8457 N   0  0  0  0  0  0  0  0  0  0  0  0
    2.8168    3.7292    1.9865 C   0  0  0  0  0  0  0  0  0  0  0  0
    2.5462    5.1051    1.9452 C   0  0  0  0  0  0  0  0  0  0  0  0
    1.8493    5.7375    2.9860 C   0  0  0  0  0  0  0  0  0  0  0  0
    1.4892    7.1999    2.9270 C   0  0  0  0  0  0  0  0  0  0  0  0
    1.9120    7.8217    1.7913 F   0  0  0  0  0  0  0  0  0  0  0  0
    0.1447    7.4105    2.9904 F   0  0  0  0  0  0  0  0  0  0  0  0
    2.0241    7.9094    3.9602 F   0  0  0  0  0  0  0  0  0  0  0  0
    1.4642    4.9750    4.0905 C   0  0  0  0  0  0  0  0  0  0  0  0
    1.7777    3.6102    4.1517 C   0  0  0  0  0  0  0  0  0  0  0  0
    2.4677    2.9472    3.1180 C   0  0  0  0  0  0  0  0  0  0  0  0
    2.8464    1.6232    3.2957 N   0  0  0  0  0  0  0  0  0  0  0  0
    1.9797    0.6503    3.9633 C   0  0  0  0  0  0  0  0  0  0  0  0
    2.6867    0.0833    5.1957 C   0  0  0  0  0  0  0  0  0  0  0  0
    4.0600   -0.4784    4.8318 C   0  0  0  0  0  0  0  0  0  0  0  0
    4.9006    0.5786    4.1234 C   0  0  0  0  0  0  0  0  0  0  0  0
    4.1719    1.1529    2.9088 C   0  0  0  0  0  0  0  0  0  0  0  0
    3.0764    1.6716   -2.5154 C   0  0  0  0  0  0  0  0  0  0  0  0
    1.7547    2.2269   -2.9737 C   0  0  0  0  0  0  0  0  0  0  0  0
    3.9490    0.5884   -8.8869 N   0  0  0  0  0  0  0  0  0  0  0  0
    6.1269    1.2807  -11.9909 H   0  0  0  0  0  0  0  0  0  0  0  0
    5.4205   -0.1773  -11.2907 H   0  0  0  0  0  0  0  0  0  0  0  0
    6.2180    1.0333  -10.2459 H   0  0  0  0  0  0  0  0  0  0  0  0
    4.2875    2.5380  -11.3444 H   0  0  0  0  0  0  0  0  0  0  0  0
    1.5367    3.4099   -8.2151 H   0  0  0  0  0  0  0  0  0  0  0  0
    1.8277    1.6540   -6.4840 H   0  0  0  0  0  0  0  0  0  0  0  0
    3.9534   -1.8863   -8.4106 H   0  0  0  0  0  0  0  0  0  0  0  0
    4.4757   -4.2216   -8.1786 H   0  0  0  0  0  0  0  0  0  0  0  0
    3.9885   -4.9942   -6.6656 H   0  0  0  0  0  0  0  0  0  0  0  0
    5.6591   -4.4074   -6.8726 H   0  0  0  0  0  0  0  0  0  0  0  0
    4.3775   -3.4912   -4.4581 H   0  0  0  0  0  0  0  0  0  0  0  0
    5.8011    0.0549   -3.8425 H   0  0  0  0  0  0  0  0  0  0  0  0
    6.6103    0.3066   -1.5396 H   0  0  0  0  0  0  0  0  0  0  0  0
    5.2056    1.3773    0.1612 H   0  0  0  0  0  0  0  0  0  0  0  0
    4.2021    3.7113    0.4362 H   0  0  0  0  0  0  0  0  0  0  0  0
    2.8298    5.6840    1.0656 H   0  0  0  0  0  0  0  0  0  0  0  0
    0.9297    5.4369    4.9247 H   0  0  0  0  0  0  0  0  0  0  0  0
    1.5066    3.0743    5.0589 H   0  0  0  0  0  0  0  0  0  0  0  0
    1.7618   -0.1638    3.2609 H   0  0  0  0  0  0  0  0  0  0  0  0
    1.0072    1.0652    4.2520 H   0  0  0  0  0  0  0  0  0  0  0  0
    2.0752   -0.7048    5.6484 H   0  0  0  0  0  0  0  0  0  0  0  0
    2.8085    0.8714    5.9493 H   0  0  0  0  0  0  0  0  0  0  0  0
    3.9409   -1.3501    4.1770 H   0  0  0  0  0  0  0  0  0  0  0  0
    4.5790   -0.8196    5.7342 H   0  0  0  0  0  0  0  0  0  0  0  0
    5.8571    0.1481    3.8075 H   0  0  0  0  0  0  0  0  0  0  0  0
    5.1285    1.3900    4.8264 H   0  0  0  0  0  0  0  0  0  0  0  0
    4.0680    0.3833    2.1356 H   0  0  0  0  0  0  0  0  0  0  0  0
    4.8084    1.9484    2.5101 H   0  0  0  0  0  0  0  0  0  0  0  0
    1.2476    2.8340   -2.2215 H   0  0  0  0  0  0  0  0  0  0  0  0
    1.0818    1.4158   -3.2704 H   0  0  0  0  0  0  0  0  0  0  0  0
    1.9142    2.8881   -3.8339 H   0  0  0  0  0  0  0  0  0  0  0  0
  1  2  1  0  0  0  0
  1 43  1  0  0  0  0
  1 44  1  0  0  0  0
  1 45  1  0  0  0  0
  2  3  1  0  0  0  0
  2 46  1  0  0  0  0
  3  4  1  0  0  0  0
  3 42  2  0  0  0  0
  4  5  2  0  0  0  0
  5  6  1  0  0  0  0
  5 47  1  0  0  0  0
  6  7  2  0  0  0  0
  6 48  1  0  0  0  0
  7  8  1  0  0  0  0
  7 42  1  0  0  0  0
  8  9  1  0  0  0  0
  8 14  2  0  0  0  0
  9 10  2  0  0  0  0
  9 49  1  0  0  0  0
 10 11  1  0  0  0  0
 10 12  1  0  0  0  0
 11 50  1  0  0  0  0
 11 51  1  0  0  0  0
 11 52  1  0  0  0  0
 12 13  2  0  0  0  0
 12 53  1  0  0  0  0
 13 14  1  0  0  0  0
 14 15  1  0  0  0  0
 15 16  1  0  0  0  0
 16 17  1  0  0  0  0
 16 40  2  0  0  0  0
 17 18  2  0  0  0  0
 17 54  1  0  0  0  0
 18 19  1  0  0  0  0
 18 55  1  0  0  0  0
 19 20  2  0  0  0  0
 19 56  1  0  0  0  0
 20 21  1  0  0  0  0
 20 40  1  0  0  0  0
 21 22  2  0  0  0  0
 21 23  1  0  0  0  0
 23 24  1  0  0  0  0
 23 57  1  0  0  0  0
 24 25  1  0  0  0  0
 24 33  2  0  0  0  0
 25 26  2  0  0  0  0
 25 58  1  0  0  0  0
 26 27  1  0  0  0  0
 26 31  1  0  0  0  0
 27 28  1  0  0  0  0
 27 29  1  0  0  0  0
 27 30  1  0  0  0  0
 31 32  2  0  0  0  0
 31 59  1  0  0  0  0
 32 33  1  0  0  0  0
 32 60  1  0  0  0  0
 33 34  1  0  0  0  0
 34 35  1  0  0  0  0
 34 39  1  0  0  0  0
 35 36  1  0  0  0  0
 35 61  1  0  0  0  0
 35 62  1  0  0  0  0
 36 37  1  0  0  0  0
 36 63  1  0  0  0  0
 36 64  1  0  0  0  0
 37 38  1  0  0  0  0
 37 65  1  0  0  0  0
 37 66  1  0  0  0  0
 38 39  1  0  0  0  0
 38 67  1  0  0  0  0
 38 68  1  0  0  0  0
 39 69  1  0  0  0  0
 39 70  1  0  0  0  0
 40 41  1  0  0  0  0
 41 71  1  0  0  0  0
 41 72  1  0  0  0  0
 41 73  1  0  0  0  0
M  END
$$$$
