CHEMBL1076473
 OpenBabel04072215353D

 75 80  0  0  1  0  0  0  0  0999 V2000
   -0.0775   -1.9562    3.0204 C   0  0  0  0  0  0  0  0  0  0  0  0
    0.6927   -0.7962    2.4235 C   0  0  0  0  0  0  0  0  0  0  0  0
    0.6072    0.4655    3.0798 C   0  0  0  0  0  0  0  0  0  0  0  0
    1.1949    1.6670    2.6248 C   0  0  0  0  0  0  0  0  0  0  0  0
    1.8325    1.6595    1.4025 C   0  0  0  0  0  0  0  0  0  0  0  0
    2.0890    2.9516    0.6939 N   0  0  0  0  0  0  0  0  0  0  0  0
    3.1318    4.0561    0.8863 C   0  0  0  0  0  0  0  0  0  0  0  0
    3.5491    4.2733    2.0455 O   0  0  0  0  0  0  0  0  0  0  0  0
    3.9263    4.9860   -0.3902 C   0  0  0  0  0  0  0  0  0  0  0  0
    3.9303    4.8801   -1.8407 C   0  0  0  0  0  0  0  0  0  0  0  0
    4.7994    5.5066   -2.7670 C   0  0  0  0  0  0  0  0  0  0  0  0
    5.7245    6.3889   -2.3176 C   0  0  0  0  0  0  0  0  0  0  0  0
    5.8105    6.5874   -0.9364 C   0  0  0  0  0  0  0  0  0  0  0  0
    6.8989    7.5339   -0.4778 C   0  0  0  0  0  0  0  0  0  0  0  0
    7.5144    8.1784   -1.5156 F   0  0  0  0  0  0  0  0  0  0  0  0
    6.4312    8.5126    0.3360 F   0  0  0  0  0  0  0  0  0  0  0  0
    7.8903    6.8956    0.1971 F   0  0  0  0  0  0  0  0  0  0  0  0
    4.9440    5.8801    0.0044 C   0  0  0  0  0  0  0  0  0  0  0  0
    1.8579    0.3227    0.7007 C   0  0  0  0  0  0  0  0  0  0  0  0
    1.4315   -0.9307    1.2272 C   0  0  0  0  0  0  0  0  0  0  0  0
    1.2797   -2.1434    0.4760 N   0  0  0  0  0  0  0  0  0  0  0  0
    1.9802   -3.1183   -0.2150 C   0  0  0  0  0  0  0  0  0  0  0  0
    1.2649   -3.8799   -1.0468 N   0  0  0  0  0  0  0  0  0  0  0  0
    1.3807   -5.1519   -0.5251 C   0  0  0  0  0  0  0  0  0  0  0  0
    0.5829   -6.2944   -0.6952 C   0  0  0  0  0  0  0  0  0  0  0  0
    0.8330   -7.4094    0.1246 C   0  0  0  0  0  0  0  0  0  0  0  0
    1.9044   -7.4255    1.0199 C   0  0  0  0  0  0  0  0  0  0  0  0
    2.7670   -6.3387    1.1196 C   0  0  0  0  0  0  0  0  0  0  0  0
    2.4423   -5.2092    0.3648 C   0  0  0  0  0  0  0  0  0  0  0  0
    3.0378   -3.9664    0.2424 N   0  0  0  0  0  0  0  0  0  0  0  0
    4.4605   -3.7894    0.3163 C   0  0  0  0  0  0  0  0  0  0  0  0
    4.9529   -2.5384    0.1393 C   0  0  0  0  0  0  0  0  0  0  0  0
    6.3224   -2.3053    0.1476 C   0  0  0  0  0  0  0  0  0  0  0  0
    6.9272   -1.0704    0.0281 N   0  0  0  0  0  0  0  0  0  0  0  0
    6.4613    0.0939   -0.7194 C   0  0  1  0  0  0  0  0  0  0  0  0
    5.1093   -0.1794   -1.3024 C   0  0  0  0  0  0  0  0  0  0  0  0
    4.4561    0.9178   -2.0178 C   0  0  0  0  0  0  0  0  0  0  0  0
    4.1814    1.9409   -0.9561 C   0  0  2  0  0  0  0  0  0  0  0  0
    2.9130    2.4280   -1.5285 N   0  0  0  0  0  0  0  0  0  0  0  0
    5.5556    2.4810   -0.3787 C   0  0  0  0  0  0  0  0  0  0  0  0
    6.4076    1.3139    0.2122 C   0  0  0  0  0  0  0  0  0  0  0  0
    7.1635   -3.3230    0.3341 N   0  0  0  0  0  0  0  0  0  0  0  0
    6.6132   -4.5361    0.4896 C   0  0  0  0  0  0  0  0  0  0  0  0
    5.2987   -4.8296    0.4936 N   0  0  0  0  0  0  0  0  0  0  0  0
   -0.6196   -1.6448    3.9227 H   0  0  0  0  0  0  0  0  0  0  0  0
    0.6016   -2.7632    3.3115 H   0  0  0  0  0  0  0  0  0  0  0  0
   -0.8305   -2.3435    2.3240 H   0  0  0  0  0  0  0  0  0  0  0  0
   -0.0628    0.5488    3.9499 H   0  0  0  0  0  0  0  0  0  0  0  0
    1.0253    2.6106    3.1526 H   0  0  0  0  0  0  0  0  0  0  0  0
    1.8873    2.6487   -0.2602 H   0  0  0  0  0  0  0  0  0  0  0  0
    3.3462    4.2349   -2.4772 H   0  0  0  0  0  0  0  0  0  0  0  0
    4.7518    5.2464   -3.8314 H   0  0  0  0  0  0  0  0  0  0  0  0
    6.3767    6.8894   -3.0330 H   0  0  0  0  0  0  0  0  0  0  0  0
    5.1453    6.0213    1.0668 H   0  0  0  0  0  0  0  0  0  0  0  0
    2.1792    0.2852   -0.3420 H   0  0  0  0  0  0  0  0  0  0  0  0
    0.3153   -2.1646    0.1346 H   0  0  0  0  0  0  0  0  0  0  0  0
   -0.2571   -6.2898   -1.3812 H   0  0  0  0  0  0  0  0  0  0  0  0
    0.1711   -8.2709    0.0794 H   0  0  0  0  0  0  0  0  0  0  0  0
    2.0761   -8.2897    1.6569 H   0  0  0  0  0  0  0  0  0  0  0  0
    3.6191   -6.3432    1.7913 H   0  0  0  0  0  0  0  0  0  0  0  0
    4.1801   -1.8196    0.0183 H   0  0  0  0  0  0  0  0  0  0  0  0
    7.9364   -1.1633    0.0879 H   0  0  0  0  0  0  0  0  0  0  0  0
    7.1458    0.3233   -1.5433 H   0  0  0  0  0  0  0  0  0  0  0  0
    4.4602   -0.2718   -0.4334 H   0  0  0  0  0  0  0  0  0  0  0  0
    5.0637   -1.0647   -1.9306 H   0  0  0  0  0  0  0  0  0  0  0  0
    3.5191    0.4805   -2.4002 H   0  0  0  0  0  0  0  0  0  0  0  0
    5.0111    1.3354   -2.8552 H   0  0  0  0  0  0  0  0  0  0  0  0
    3.8540    1.4846   -0.0273 H   0  0  0  0  0  0  0  0  0  0  0  0
    2.7957    2.2907   -2.5296 H   0  0  0  0  0  0  0  0  0  0  0  0
    2.6205    3.3764   -1.3218 H   0  0  0  0  0  0  0  0  0  0  0  0
    5.4354    3.1482    0.4827 H   0  0  0  0  0  0  0  0  0  0  0  0
    6.1457    3.0140   -1.1267 H   0  0  0  0  0  0  0  0  0  0  0  0
    5.9784    1.0187    1.1852 H   0  0  0  0  0  0  0  0  0  0  0  0
    7.4250    1.6556    0.4517 H   0  0  0  0  0  0  0  0  0  0  0  0
    7.3047   -5.3602    0.6264 H   0  0  0  0  0  0  0  0  0  0  0  0
  1  2  1  0  0  0  0
  1 45  1  0  0  0  0
  1 46  1  0  0  0  0
  1 47  1  0  0  0  0
  2  3  1  0  0  0  0
  2 20  2  0  0  0  0
  3  4  2  0  0  0  0
  3 48  1  0  0  0  0
  4  5  1  0  0  0  0
  4 49  1  0  0  0  0
  5  6  1  0  0  0  0
  5 19  2  0  0  0  0
  6  7  1  0  0  0  0
  6 50  1  0  0  0  0
  7  8  2  0  0  0  0
  7  9  1  0  0  0  0
  9 10  1  0  0  0  0
  9 18  2  0  0  0  0
 10 11  2  0  0  0  0
 10 51  1  0  0  0  0
 11 12  1  0  0  0  0
 11 52  1  0  0  0  0
 12 13  2  0  0  0  0
 12 53  1  0  0  0  0
 13 14  1  0  0  0  0
 13 18  1  0  0  0  0
 14 15  1  0  0  0  0
 14 16  1  0  0  0  0
 14 17  1  0  0  0  0
 18 54  1  0  0  0  0
 19 20  1  0  0  0  0
 19 55  1  0  0  0  0
 20 21  1  0  0  0  0
 21 22  1  0  0  0  0
 21 56  1  0  0  0  0
 22 23  2  0  0  0  0
 22 30  1  0  0  0  0
 23 24  1  0  0  0  0
 24 25  1  0  0  0  0
 24 29  2  0  0  0  0
 25 26  2  0  0  0  0
 25 57  1  0  0  0  0
 26 27  1  0  0  0  0
 26 58  1  0  0  0  0
 27 28  2  0  0  0  0
 27 59  1  0  0  0  0
 28 29  1  0  0  0  0
 28 60  1  0  0  0  0
 29 30  1  0  0  0  0
 30 31  1  0  0  0  0
 31 32  1  0  0  0  0
 31 44  2  0  0  0  0
 32 33  2  0  0  0  0
 32 61  1  0  0  0  0
 33 34  1  0  0  0  0
 33 42  1  0  0  0  0
 34 35  1  0  0  0  0
 34 62  1  0  0  0  0
 35 36  1  0  0  0  0
 35 41  1  0  0  0  0
 35 63  1  6  0  0  0
 36 37  1  0  0  0  0
 36 64  1  0  0  0  0
 36 65  1  0  0  0  0
 37 38  1  0  0  0  0
 37 66  1  0  0  0  0
 37 67  1  0  0  0  0
 38 40  1  0  0  0  0
 38 39  1  0  0  0  0
 38 68  1  1  0  0  0
 39 69  1  0  0  0  0
 39 70  1  0  0  0  0
 40 41  1  0  0  0  0
 40 71  1  0  0  0  0
 40 72  1  0  0  0  0
 41 73  1  0  0  0  0
 41 74  1  0  0  0  0
 42 43  2  0  0  0  0
 43 44  1  0  0  0  0
 43 75  1  0  0  0  0
M  END
$$$$
