CHEMBL3298000
 OpenBabel04072215363D

 40 41  0  0  0  0  0  0  0  0999 V2000
    0.7944   -0.6601    0.1858 C   0  0  0  0  0  0  0  0  0  0  0  0
    1.9493   -0.0055    0.5745 O   0  0  0  0  0  0  0  0  0  0  0  0
    2.9062   -0.5315    1.3798 C   0  0  0  0  0  0  0  0  0  0  0  0
    3.1094   -1.9163    1.4935 C   0  0  0  0  0  0  0  0  0  0  0  0
    4.0434   -2.4139    2.3954 C   0  0  0  0  0  0  0  0  0  0  0  0
    4.7796   -1.5504    3.2344 C   0  0  0  0  0  0  0  0  0  0  0  0
    5.6192   -2.1017    4.2643 N   0  0  0  0  0  0  0  0  0  0  0  0
    6.8557   -1.4498    4.6694 C   0  0  0  0  0  0  0  0  0  0  0  0
    5.2308   -3.3027    4.9558 C   0  0  0  0  0  0  0  0  0  0  0  0
    6.1797   -4.1343    5.4846 N   0  0  0  0  0  0  0  0  0  0  0  0
    5.8495   -5.3004    6.1310 C   0  0  0  0  0  0  0  0  0  0  0  0
    6.9238   -6.1913    6.6596 C   0  0  0  0  0  0  0  0  0  0  0  0
    4.5405   -5.6635    6.2803 N   0  0  0  0  0  0  0  0  0  0  0  0
    3.5812   -4.8439    5.7959 C   0  0  0  0  0  0  0  0  0  0  0  0
    2.2828   -5.0283    5.8681 O   0  0  0  0  0  0  0  0  0  0  0  0
    1.7144   -3.9835    5.2896 C   0  0  0  0  0  0  0  0  0  0  0  0
    0.2470   -3.7875    5.1187 C   0  0  0  0  0  0  0  0  0  0  0  0
    2.6700   -3.0904    4.8473 C   0  0  0  0  0  0  0  0  0  0  0  0
    3.8839   -3.6757    5.1546 C   0  0  0  0  0  0  0  0  0  0  0  0
    4.6268   -0.1609    3.0629 C   0  0  0  0  0  0  0  0  0  0  0  0
    3.6979    0.3371    2.1416 C   0  0  0  0  0  0  0  0  0  0  0  0
    2.5355    1.5969   -2.1539 Cl  0  0  0  0  0  0  0  0  0  0  0  0
    0.2150   -0.0054   -0.4959 H   0  0  0  0  0  0  0  0  0  0  0  0
    0.1675   -0.8694    1.0806 H   0  0  0  0  0  0  0  0  0  0  0  0
    1.0160   -1.6055   -0.3492 H   0  0  0  0  0  0  0  0  0  0  0  0
    2.5388   -2.6247    0.9099 H   0  0  0  0  0  0  0  0  0  0  0  0
    4.1588   -3.4880    2.4727 H   0  0  0  0  0  0  0  0  0  0  0  0
    7.0775   -0.5470    4.0664 H   0  0  0  0  0  0  0  0  0  0  0  0
    7.7123   -2.1458    4.5443 H   0  0  0  0  0  0  0  0  0  0  0  0
    6.7857   -1.1548    5.7388 H   0  0  0  0  0  0  0  0  0  0  0  0
    7.9277   -5.7683    6.4449 H   0  0  0  0  0  0  0  0  0  0  0  0
    6.8451   -7.1894    6.1791 H   0  0  0  0  0  0  0  0  0  0  0  0
    6.8063   -6.3049    7.7573 H   0  0  0  0  0  0  0  0  0  0  0  0
   -0.3131   -4.6360    5.5620 H   0  0  0  0  0  0  0  0  0  0  0  0
    0.0115   -3.7245    4.0340 H   0  0  0  0  0  0  0  0  0  0  0  0
   -0.0639   -2.8396    5.6068 H   0  0  0  0  0  0  0  0  0  0  0  0
    2.4654   -2.1484    4.3598 H   0  0  0  0  0  0  0  0  0  0  0  0
    5.1715    0.5430    3.6770 H   0  0  0  0  0  0  0  0  0  0  0  0
    3.5582    1.4076    2.0538 H   0  0  0  0  0  0  0  0  0  0  0  0
    2.1437    0.2789   -2.1157 H   0  0  0  0  0  0  0  0  0  0  0  0
  1  2  1  0  0  0  0
  1 23  1  0  0  0  0
  1 24  1  0  0  0  0
  1 25  1  0  0  0  0
  2  3  1  0  0  0  0
  3  4  1  0  0  0  0
  3 21  2  0  0  0  0
  4  5  2  0  0  0  0
  4 26  1  0  0  0  0
  5  6  1  0  0  0  0
  5 27  1  0  0  0  0
  6  7  1  0  0  0  0
  6 20  2  0  0  0  0
  7  8  1  0  0  0  0
  7  9  1  0  0  0  0
  8 28  1  0  0  0  0
  8 29  1  0  0  0  0
  8 30  1  0  0  0  0
  9 10  1  0  0  0  0
  9 19  2  0  0  0  0
 10 11  2  0  0  0  0
 11 12  1  0  0  0  0
 11 13  1  0  0  0  0
 12 31  1  0  0  0  0
 12 32  1  0  0  0  0
 12 33  1  0  0  0  0
 13 14  2  0  0  0  0
 14 15  1  0  0  0  0
 14 19  1  0  0  0  0
 15 16  1  0  0  0  0
 16 17  1  0  0  0  0
 16 18  2  0  0  0  0
 17 34  1  0  0  0  0
 17 35  1  0  0  0  0
 17 36  1  0  0  0  0
 18 19  1  0  0  0  0
 18 37  1  0  0  0  0
 20 21  1  0  0  0  0
 20 38  1  0  0  0  0
 21 39  1  0  0  0  0
 22 40  1  0  0  0  0
M  END
$$$$
