CHEMBL4159393
 OpenBabel04072215383D

 49 53  0  0  0  0  0  0  0  0999 V2000
    0.8106    0.9327    5.9973 C   0  0  0  0  0  0  0  0  0  0  0  0
    2.1459    0.5677    5.6623 O   0  0  0  0  0  0  0  0  0  0  0  0
    2.8361    1.4633    4.8912 C   0  0  0  0  0  0  0  0  0  0  0  0
    2.2908    2.6082    4.3088 C   0  0  0  0  0  0  0  0  0  0  0  0
    3.0969    3.4735    3.5762 C   0  0  0  0  0  0  0  0  0  0  0  0
    4.4568    3.2015    3.4220 C   0  0  0  0  0  0  0  0  0  0  0  0
    5.2479    3.9990    2.5950 N   0  0  0  0  0  0  0  0  0  0  0  0
    5.4144    5.3375    2.6668 C   0  0  0  0  0  0  0  0  0  0  0  0
    5.8555    6.0388    1.6482 N   0  0  0  0  0  0  0  0  0  0  0  0
    7.0061    6.5794    2.1489 C   0  0  0  0  0  0  0  0  0  0  0  0
    8.1100    7.0500    1.4429 C   0  0  0  0  0  0  0  0  0  0  0  0
    9.2969    7.2194    2.1682 C   0  0  0  0  0  0  0  0  0  0  0  0
   10.5059    7.4533    1.5477 O   0  0  0  0  0  0  0  0  0  0  0  0
   10.7418    6.8090    0.3368 C   0  0  0  0  0  0  0  0  0  0  0  0
   10.1980    5.5942    0.0690 N   0  0  0  0  0  0  0  0  0  0  0  0
   10.4154    5.0570   -1.1468 C   0  0  0  0  0  0  0  0  0  0  0  0
   11.1544    5.5612   -2.1531 N   0  0  0  0  0  0  0  0  0  0  0  0
   11.7058    6.7400   -1.8124 C   0  0  0  0  0  0  0  0  0  0  0  0
   11.5542    7.4071   -0.6135 C   0  0  0  0  0  0  0  0  0  0  0  0
   12.3101    8.5846   -0.7553 C   0  0  0  0  0  0  0  0  0  0  0  0
   12.9086    8.6714   -1.9493 N   0  0  0  0  0  0  0  0  0  0  0  0
   12.5190    7.5349   -2.5739 N   0  0  0  0  0  0  0  0  0  0  0  0
   12.9522    7.2573   -3.9194 C   0  0  0  0  0  0  0  0  0  0  0  0
    9.3102    7.1629    3.5687 C   0  0  0  0  0  0  0  0  0  0  0  0
    8.1563    6.8484    4.3022 C   0  0  0  0  0  0  0  0  0  0  0  0
    7.0422    6.4964    3.5412 C   0  0  0  0  0  0  0  0  0  0  0  0
    5.8034    5.9699    3.8259 N   0  0  0  0  0  0  0  0  0  0  0  0
    5.0369    6.1660    5.0201 C   0  0  0  0  0  0  0  0  0  0  0  0
    4.9834    2.0154    3.9395 C   0  0  0  0  0  0  0  0  0  0  0  0
    4.1809    1.1565    4.6881 C   0  0  0  0  0  0  0  0  0  0  0  0
    0.4404    0.2174    6.7352 H   0  0  0  0  0  0  0  0  0  0  0  0
    0.1660    0.8766    5.1138 H   0  0  0  0  0  0  0  0  0  0  0  0
    0.7687    1.9285    6.4527 H   0  0  0  0  0  0  0  0  0  0  0  0
    1.2370    2.8574    4.3918 H   0  0  0  0  0  0  0  0  0  0  0  0
    2.6619    4.3475    3.0993 H   0  0  0  0  0  0  0  0  0  0  0  0
    5.2897    3.6389    1.6453 H   0  0  0  0  0  0  0  0  0  0  0  0
    8.0645    7.1015    0.3695 H   0  0  0  0  0  0  0  0  0  0  0  0
    9.9260    4.1067   -1.3447 H   0  0  0  0  0  0  0  0  0  0  0  0
   12.4472    9.3836   -0.0360 H   0  0  0  0  0  0  0  0  0  0  0  0
   13.5939    8.0697   -4.2701 H   0  0  0  0  0  0  0  0  0  0  0  0
   12.0691    7.1790   -4.5582 H   0  0  0  0  0  0  0  0  0  0  0  0
   13.5094    6.3179   -3.9150 H   0  0  0  0  0  0  0  0  0  0  0  0
   10.2453    7.3224    4.1019 H   0  0  0  0  0  0  0  0  0  0  0  0
    8.1754    6.7517    5.3822 H   0  0  0  0  0  0  0  0  0  0  0  0
    5.4318    7.0256    5.5717 H   0  0  0  0  0  0  0  0  0  0  0  0
    5.0837    5.2695    5.6473 H   0  0  0  0  0  0  0  0  0  0  0  0
    4.0022    6.3891    4.7445 H   0  0  0  0  0  0  0  0  0  0  0  0
    6.0299    1.7638    3.7727 H   0  0  0  0  0  0  0  0  0  0  0  0
    4.6050    0.2490    5.1127 H   0  0  0  0  0  0  0  0  0  0  0  0
  1  2  1  0  0  0  0
  1 31  1  0  0  0  0
  1 32  1  0  0  0  0
  1 33  1  0  0  0  0
  2  3  1  0  0  0  0
  3  4  1  0  0  0  0
  3 30  2  0  0  0  0
  4  5  2  0  0  0  0
  4 34  1  0  0  0  0
  5  6  1  0  0  0  0
  5 35  1  0  0  0  0
  6  7  1  0  0  0  0
  6 29  2  0  0  0  0
  7  8  1  0  0  0  0
  7 36  1  0  0  0  0
  8  9  2  0  0  0  0
  8 27  1  0  0  0  0
  9 10  1  0  0  0  0
 10 11  1  0  0  0  0
 10 26  2  0  0  0  0
 11 12  2  0  0  0  0
 11 37  1  0  0  0  0
 12 13  1  0  0  0  0
 12 24  1  0  0  0  0
 13 14  1  0  0  0  0
 14 15  1  0  0  0  0
 14 19  2  0  0  0  0
 15 16  2  0  0  0  0
 16 17  1  0  0  0  0
 16 38  1  0  0  0  0
 17 18  2  0  0  0  0
 18 19  1  0  0  0  0
 18 22  1  0  0  0  0
 19 20  1  0  0  0  0
 20 21  2  0  0  0  0
 20 39  1  0  0  0  0
 21 22  1  0  0  0  0
 22 23  1  0  0  0  0
 23 40  1  0  0  0  0
 23 41  1  0  0  0  0
 23 42  1  0  0  0  0
 24 25  2  0  0  0  0
 24 43  1  0  0  0  0
 25 26  1  0  0  0  0
 25 44  1  0  0  0  0
 26 27  1  0  0  0  0
 27 28  1  0  0  0  0
 28 45  1  0  0  0  0
 28 46  1  0  0  0  0
 28 47  1  0  0  0  0
 29 30  1  0  0  0  0
 29 48  1  0  0  0  0
 30 49  1  0  0  0  0
M  END
$$$$
