CHEMBL1173149
 OpenBabel04072215363D

 46 49  0  0  0  0  0  0  0  0999 V2000
   12.5226    3.5400   -6.0527 C   0  0  0  0  0  0  0  0  0  0  0  0
   11.4292    2.6912   -5.7061 O   0  0  0  0  0  0  0  0  0  0  0  0
   10.2744    3.3269   -5.3390 C   0  0  0  0  0  0  0  0  0  0  0  0
   10.0954    4.7040   -5.3329 C   0  0  0  0  0  0  0  0  0  0  0  0
    8.8799    5.2572   -4.9303 C   0  0  0  0  0  0  0  0  0  0  0  0
    7.8103    4.4530   -4.5274 C   0  0  0  0  0  0  0  0  0  0  0  0
    6.5791    4.9918   -4.0814 N   0  0  0  0  0  0  0  0  0  0  0  0
    6.2474    6.3364   -4.0772 C   0  0  0  0  0  0  0  0  0  0  0  0
    6.9228    7.2402   -4.5646 O   0  0  0  0  0  0  0  0  0  0  0  0
    5.0627    6.5816   -3.3987 N   0  0  0  0  0  0  0  0  0  0  0  0
    4.6006    7.9131   -3.2496 C   0  0  0  0  0  0  0  0  0  0  0  0
    4.2110    8.3393   -1.9668 C   0  0  0  0  0  0  0  0  0  0  0  0
    3.8121    9.6626   -1.7425 C   0  0  0  0  0  0  0  0  0  0  0  0
    3.7593   10.5272   -2.8224 C   0  0  0  0  0  0  0  0  0  0  0  0
    4.1372   10.0912   -4.0950 C   0  0  0  0  0  0  0  0  0  0  0  0
    4.5646    8.8003   -4.3331 C   0  0  0  0  0  0  0  0  0  0  0  0
    4.0209   11.1245   -5.0186 N   0  0  0  0  0  0  0  0  0  0  0  0
    3.5623   12.2885   -4.4232 C   0  0  0  0  0  0  0  0  0  0  0  0
    3.3745   13.3540   -4.9728 O   0  0  0  0  0  0  0  0  0  0  0  0
    3.3486   11.9383   -2.9659 C   0  0  0  0  0  0  0  0  0  0  0  0
    2.8608   12.6535   -1.9370 C   0  0  0  0  0  0  0  0  0  0  0  0
    2.3757   13.9859   -1.9168 C   0  0  0  0  0  0  0  0  0  0  0  0
    1.8090   14.7145   -0.8832 C   0  0  0  0  0  0  0  0  0  0  0  0
    1.4888   16.0024   -1.3708 C   0  0  0  0  0  0  0  0  0  0  0  0
    1.8618   16.0358   -2.6926 C   0  0  0  0  0  0  0  0  0  0  0  0
    2.3924   14.8122   -3.0155 N   0  0  0  0  0  0  0  0  0  0  0  0
    7.9862    3.0657   -4.5420 C   0  0  0  0  0  0  0  0  0  0  0  0
    9.2123    2.5076   -4.9464 C   0  0  0  0  0  0  0  0  0  0  0  0
   13.3695    2.9102   -6.3381 H   0  0  0  0  0  0  0  0  0  0  0  0
   12.8332    4.1497   -5.1961 H   0  0  0  0  0  0  0  0  0  0  0  0
   12.2773    4.1718   -6.9142 H   0  0  0  0  0  0  0  0  0  0  0  0
   10.8733    5.3956   -5.6330 H   0  0  0  0  0  0  0  0  0  0  0  0
    8.8208    6.3368   -4.9472 H   0  0  0  0  0  0  0  0  0  0  0  0
    5.8518    4.3366   -3.8367 H   0  0  0  0  0  0  0  0  0  0  0  0
    4.8970    5.9608   -2.6198 H   0  0  0  0  0  0  0  0  0  0  0  0
    4.2764    7.6634   -1.1185 H   0  0  0  0  0  0  0  0  0  0  0  0
    3.5660    9.9891   -0.7381 H   0  0  0  0  0  0  0  0  0  0  0  0
    4.8621    8.4933   -5.3307 H   0  0  0  0  0  0  0  0  0  0  0  0
    4.2629   11.0621   -5.9970 H   0  0  0  0  0  0  0  0  0  0  0  0
    2.8006   12.1594   -0.9691 H   0  0  0  0  0  0  0  0  0  0  0  0
    1.6426   14.3525    0.1236 H   0  0  0  0  0  0  0  0  0  0  0  0
    1.0378   16.8154   -0.8184 H   0  0  0  0  0  0  0  0  0  0  0  0
    1.7991   16.8166   -3.4371 H   0  0  0  0  0  0  0  0  0  0  0  0
    2.7410   14.5628   -3.9374 H   0  0  0  0  0  0  0  0  0  0  0  0
    7.1865    2.3935   -4.2386 H   0  0  0  0  0  0  0  0  0  0  0  0
    9.3404    1.4284   -4.9505 H   0  0  0  0  0  0  0  0  0  0  0  0
  1  2  1  0  0  0  0
  1 29  1  0  0  0  0
  1 30  1  0  0  0  0
  1 31  1  0  0  0  0
  2  3  1  0  0  0  0
  3  4  1  0  0  0  0
  3 28  2  0  0  0  0
  4  5  2  0  0  0  0
  4 32  1  0  0  0  0
  5  6  1  0  0  0  0
  5 33  1  0  0  0  0
  6  7  1  0  0  0  0
  6 27  2  0  0  0  0
  7  8  1  0  0  0  0
  7 34  1  0  0  0  0
  8  9  2  0  0  0  0
  8 10  1  0  0  0  0
 10 11  1  0  0  0  0
 10 35  1  0  0  0  0
 11 12  1  0  0  0  0
 11 16  2  0  0  0  0
 12 13  2  0  0  0  0
 12 36  1  0  0  0  0
 13 14  1  0  0  0  0
 13 37  1  0  0  0  0
 14 15  2  0  0  0  0
 14 20  1  0  0  0  0
 15 16  1  0  0  0  0
 15 17  1  0  0  0  0
 16 38  1  0  0  0  0
 17 18  1  0  0  0  0
 17 39  1  0  0  0  0
 18 19  2  0  0  0  0
 18 20  1  0  0  0  0
 20 21  2  0  0  0  0
 21 22  1  0  0  0  0
 21 40  1  0  0  0  0
 22 23  2  0  0  0  0
 22 26  1  0  0  0  0
 23 24  1  0  0  0  0
 23 41  1  0  0  0  0
 24 25  2  0  0  0  0
 24 42  1  0  0  0  0
 25 26  1  0  0  0  0
 25 43  1  0  0  0  0
 26 44  1  0  0  0  0
 27 28  1  0  0  0  0
 27 45  1  0  0  0  0
 28 46  1  0  0  0  0
M  END
$$$$
