CHEMBL4175949
 OpenBabel04072215383D

 43 46  0  0  0  0  0  0  0  0999 V2000
   -1.4124    2.0527   -3.1073 N   0  0  0  0  0  0  0  0  0  0  0  0
   -1.6389    0.9379   -2.3944 C   0  0  0  0  0  0  0  0  0  0  0  0
   -2.1478   -0.1399   -2.9844 N   0  0  0  0  0  0  0  0  0  0  0  0
   -2.2700   -1.0194   -1.9853 N   0  0  0  0  0  0  0  0  0  0  0  0
   -1.8581   -0.5543   -0.7669 C   0  0  0  0  0  0  0  0  0  0  0  0
   -1.8670   -1.1826    0.4843 C   0  0  0  0  0  0  0  0  0  0  0  0
   -1.3740   -0.4599    1.5633 C   0  0  0  0  0  0  0  0  0  0  0  0
   -0.8935    0.8339    1.3842 C   0  0  0  0  0  0  0  0  0  0  0  0
   -0.8976    1.4850    0.1219 C   0  0  0  0  0  0  0  0  0  0  0  0
   -0.4593    2.8884    0.0199 C   0  0  0  0  0  0  0  0  0  0  0  0
    0.3544    3.3771   -1.0090 C   0  0  0  0  0  0  0  0  0  0  0  0
    0.6460    4.7476   -1.1221 C   0  0  0  0  0  0  0  0  0  0  0  0
    0.1839    5.6643   -0.1705 C   0  0  0  0  0  0  0  0  0  0  0  0
    0.4361    7.0358   -0.4116 N   0  0  0  0  0  0  0  0  0  0  0  0
    0.0013    8.1958    0.2329 C   0  0  0  0  0  0  0  0  0  0  0  0
   -0.9455    8.3310    1.6142 S   0  0  0  0  0  0  0  0  0  0  0  0
    0.4012    9.3124   -0.5266 N   0  0  0  0  0  0  0  0  0  0  0  0
    0.4841   10.6306   -0.0078 C   0  0  0  0  0  0  0  0  0  0  0  0
    1.1136   10.8544    1.2230 C   0  0  0  0  0  0  0  0  0  0  0  0
    1.0866   12.1192    1.8071 C   0  0  0  0  0  0  0  0  0  0  0  0
    0.4722   13.1743    1.1369 C   0  0  0  0  0  0  0  0  0  0  0  0
    0.3876   14.7164    1.8923 Cl  0  0  0  0  0  0  0  0  0  0  0  0
   -0.0845   12.9861   -0.1264 C   0  0  0  0  0  0  0  0  0  0  0  0
   -0.0641   11.7155   -0.7040 C   0  0  0  0  0  0  0  0  0  0  0  0
   -0.7920   11.4985   -2.2543 Cl  0  0  0  0  0  0  0  0  0  0  0  0
   -0.5126    5.1608    0.9197 C   0  0  0  0  0  0  0  0  0  0  0  0
   -0.8525    3.8088    0.9992 C   0  0  0  0  0  0  0  0  0  0  0  0
   -1.4044    0.7486   -0.9895 C   0  0  0  0  0  0  0  0  0  0  0  0
   -1.8008    2.0431   -4.0437 H   0  0  0  0  0  0  0  0  0  0  0  0
   -1.5075    2.9525   -2.6522 H   0  0  0  0  0  0  0  0  0  0  0  0
   -2.6540   -1.9296   -2.1963 H   0  0  0  0  0  0  0  0  0  0  0  0
   -2.2431   -2.1919    0.6153 H   0  0  0  0  0  0  0  0  0  0  0  0
   -1.3660   -0.9041    2.5561 H   0  0  0  0  0  0  0  0  0  0  0  0
   -0.5119    1.3580    2.2603 H   0  0  0  0  0  0  0  0  0  0  0  0
    0.7431    2.6976   -1.7662 H   0  0  0  0  0  0  0  0  0  0  0  0
    1.2152    5.0784   -1.9877 H   0  0  0  0  0  0  0  0  0  0  0  0
    1.0441    7.2204   -1.2004 H   0  0  0  0  0  0  0  0  0  0  0  0
    0.0518    9.2686   -1.4836 H   0  0  0  0  0  0  0  0  0  0  0  0
    1.5922   10.0380    1.7594 H   0  0  0  0  0  0  0  0  0  0  0  0
    1.5253   12.2616    2.7907 H   0  0  0  0  0  0  0  0  0  0  0  0
   -0.5510   13.8182   -0.6445 H   0  0  0  0  0  0  0  0  0  0  0  0
   -0.8320    5.7695    1.7516 H   0  0  0  0  0  0  0  0  0  0  0  0
   -1.4551    3.4944    1.8500 H   0  0  0  0  0  0  0  0  0  0  0  0
  1  2  1  0  0  0  0
  1 29  1  0  0  0  0
  1 30  1  0  0  0  0
  2  3  2  0  0  0  0
  2 28  1  0  0  0  0
  3  4  1  0  0  0  0
  4  5  1  0  0  0  0
  4 31  1  0  0  0  0
  5  6  1  0  0  0  0
  5 28  2  0  0  0  0
  6  7  2  0  0  0  0
  6 32  1  0  0  0  0
  7  8  1  0  0  0  0
  7 33  1  0  0  0  0
  8  9  2  0  0  0  0
  8 34  1  0  0  0  0
  9 10  1  0  0  0  0
  9 28  1  0  0  0  0
 10 11  1  0  0  0  0
 10 27  2  0  0  0  0
 11 12  2  0  0  0  0
 11 35  1  0  0  0  0
 12 13  1  0  0  0  0
 12 36  1  0  0  0  0
 13 14  1  0  0  0  0
 13 26  2  0  0  0  0
 14 15  1  0  0  0  0
 14 37  1  0  0  0  0
 15 16  2  0  0  0  0
 15 17  1  0  0  0  0
 17 18  1  0  0  0  0
 17 38  1  0  0  0  0
 18 19  1  0  0  0  0
 18 24  2  0  0  0  0
 19 20  2  0  0  0  0
 19 39  1  0  0  0  0
 20 21  1  0  0  0  0
 20 40  1  0  0  0  0
 21 22  1  0  0  0  0
 21 23  2  0  0  0  0
 23 24  1  0  0  0  0
 23 41  1  0  0  0  0
 24 25  1  0  0  0  0
 26 27  1  0  0  0  0
 26 42  1  0  0  0  0
 27 43  1  0  0  0  0
M  END
$$$$
