CHEMBL201264
 OpenBabel04072215363D

 42 45  0  0  0  0  0  0  0  0999 V2000
    1.4681   -0.4474   -0.2797 C   0  0  0  0  0  0  0  0  0  0  0  0
    2.7500    0.0366    0.1079 O   0  0  0  0  0  0  0  0  0  0  0  0
    3.3033    0.9987   -0.6891 C   0  0  0  0  0  0  0  0  0  0  0  0
    2.5252    1.9310   -1.3926 C   0  0  0  0  0  0  0  0  0  0  0  0
    3.1130    2.9315   -2.1733 C   0  0  0  0  0  0  0  0  0  0  0  0
    4.5001    3.0285   -2.2710 C   0  0  0  0  0  0  0  0  0  0  0  0
    5.1222    4.0080   -3.1589 C   0  0  0  0  0  0  0  0  0  0  0  0
    5.3713    5.3251   -2.9765 C   0  0  0  0  0  0  0  0  0  0  0  0
    5.0266    6.1514   -1.8694 C   0  0  0  0  0  0  0  0  0  0  0  0
    5.1984    5.8246   -0.5368 C   0  0  0  0  0  0  0  0  0  0  0  0
    4.6636    6.8547    0.1934 N   0  0  0  0  0  0  0  0  0  0  0  0
    3.8121    7.5707   -0.6149 C   0  0  0  0  0  0  0  0  0  0  0  0
    2.7116    8.3794   -0.3132 C   0  0  0  0  0  0  0  0  0  0  0  0
    2.1243    9.0740   -1.3745 C   0  0  0  0  0  0  0  0  0  0  0  0
    2.6973    9.0566   -2.6439 C   0  0  0  0  0  0  0  0  0  0  0  0
    3.7723    8.2068   -2.9307 C   0  0  0  0  0  0  0  0  0  0  0  0
    4.2579    7.3576   -1.9169 C   0  0  0  0  0  0  0  0  0  0  0  0
    5.9510    5.8439   -4.2323 C   0  0  0  0  0  0  0  0  0  0  0  0
    6.3503    6.9658   -4.4583 O   0  0  0  0  0  0  0  0  0  0  0  0
    5.9618    4.8327   -5.1066 N   0  0  0  0  0  0  0  0  0  0  0  0
    5.4382    3.7080   -4.5779 C   0  0  0  0  0  0  0  0  0  0  0  0
    5.2190    2.6607   -5.1496 O   0  0  0  0  0  0  0  0  0  0  0  0
    5.2875    2.1246   -1.5411 C   0  0  0  0  0  0  0  0  0  0  0  0
    4.7073    1.1094   -0.7546 C   0  0  0  0  0  0  0  0  0  0  0  0
    5.6586    0.3266   -0.1462 O   0  0  0  0  0  0  0  0  0  0  0  0
    5.2444   -0.8176    0.5827 C   0  0  0  0  0  0  0  0  0  0  0  0
    1.2430   -1.3218    0.3388 H   0  0  0  0  0  0  0  0  0  0  0  0
    1.4600   -0.7670   -1.3275 H   0  0  0  0  0  0  0  0  0  0  0  0
    0.6892    0.2960   -0.0857 H   0  0  0  0  0  0  0  0  0  0  0  0
    1.4429    1.9069   -1.3457 H   0  0  0  0  0  0  0  0  0  0  0  0
    2.4724    3.6237   -2.7164 H   0  0  0  0  0  0  0  0  0  0  0  0
    5.6504    4.9766   -0.0404 H   0  0  0  0  0  0  0  0  0  0  0  0
    4.7867    7.0052    1.1859 H   0  0  0  0  0  0  0  0  0  0  0  0
    2.2894    8.4179    0.6847 H   0  0  0  0  0  0  0  0  0  0  0  0
    1.2182    9.6512   -1.2027 H   0  0  0  0  0  0  0  0  0  0  0  0
    2.2788    9.6731   -3.4361 H   0  0  0  0  0  0  0  0  0  0  0  0
    4.1836    8.1820   -3.9346 H   0  0  0  0  0  0  0  0  0  0  0  0
    6.2279    4.9092   -6.0825 H   0  0  0  0  0  0  0  0  0  0  0  0
    6.3716    2.1827   -1.5985 H   0  0  0  0  0  0  0  0  0  0  0  0
    6.1457   -1.3717    0.8693 H   0  0  0  0  0  0  0  0  0  0  0  0
    4.6382   -1.4967   -0.0263 H   0  0  0  0  0  0  0  0  0  0  0  0
    4.7350   -0.5309    1.5091 H   0  0  0  0  0  0  0  0  0  0  0  0
  1  2  1  0  0  0  0
  1 27  1  0  0  0  0
  1 28  1  0  0  0  0
  1 29  1  0  0  0  0
  2  3  1  0  0  0  0
  3  4  1  0  0  0  0
  3 24  2  0  0  0  0
  4  5  2  0  0  0  0
  4 30  1  0  0  0  0
  5  6  1  0  0  0  0
  5 31  1  0  0  0  0
  6  7  1  0  0  0  0
  6 23  2  0  0  0  0
  7  8  2  0  0  0  0
  7 21  1  0  0  0  0
  8  9  1  0  0  0  0
  8 18  1  0  0  0  0
  9 10  2  0  0  0  0
  9 17  1  0  0  0  0
 10 11  1  0  0  0  0
 10 32  1  0  0  0  0
 11 12  1  0  0  0  0
 11 33  1  0  0  0  0
 12 13  1  0  0  0  0
 12 17  2  0  0  0  0
 13 14  2  0  0  0  0
 13 34  1  0  0  0  0
 14 15  1  0  0  0  0
 14 35  1  0  0  0  0
 15 16  2  0  0  0  0
 15 36  1  0  0  0  0
 16 17  1  0  0  0  0
 16 37  1  0  0  0  0
 18 19  2  0  0  0  0
 18 20  1  0  0  0  0
 20 21  1  0  0  0  0
 20 38  1  0  0  0  0
 21 22  2  0  0  0  0
 23 24  1  0  0  0  0
 23 39  1  0  0  0  0
 24 25  1  0  0  0  0
 25 26  1  0  0  0  0
 26 40  1  0  0  0  0
 26 41  1  0  0  0  0
 26 42  1  0  0  0  0
M  END
$$$$
