CHEMBL151863
 OpenBabel04072215363D

 67 72  0  0  1  0  0  0  0  0999 V2000
    3.3009    2.4513    3.8012 C   0  0  0  0  0  0  0  0  0  0  0  0
    3.9879    1.7970    2.6239 C   0  0  0  0  0  0  0  0  0  0  0  0
    4.6082    0.4543    2.9972 C   0  0  0  0  0  0  0  0  0  0  0  0
    5.2870   -0.1233    1.7619 C   0  0  0  0  0  0  0  0  0  0  0  0
    5.9300   -1.3273    2.1312 O   0  0  0  0  0  0  0  0  0  0  0  0
    6.5199   -1.9976    1.0171 C   0  0  3  0  0  0  0  0  0  0  0  0
    7.7353   -1.2440    0.4710 C   0  0  0  0  0  0  0  0  0  0  0  0
    6.9468   -3.3456    1.5130 C   0  0  0  0  0  0  0  0  0  0  0  0
    6.6488   -4.5019    0.7781 C   0  0  0  0  0  0  0  0  0  0  0  0
    7.1519   -5.7486    1.1391 C   0  0  0  0  0  0  0  0  0  0  0  0
    7.9671   -5.8217    2.2842 C   0  0  0  0  0  0  0  0  0  0  0  0
    8.2254   -4.6722    3.0873 C   0  0  0  0  0  0  0  0  0  0  0  0
    7.7052   -3.4436    2.6939 C   0  0  0  0  0  0  0  0  0  0  0  0
    8.9479   -5.1753    4.1170 C   0  0  0  0  0  0  0  0  0  0  0  0
    9.0462   -4.6812    5.4428 C   0  0  0  0  0  0  0  0  0  0  0  0
    9.2773   -5.6767    6.4613 C   0  0  0  0  0  0  0  0  0  0  0  0
    9.5207   -6.9960    6.0530 C   0  0  0  0  0  0  0  0  0  0  0  0
   10.2043   -6.9805    4.8429 C   0  0  0  0  0  0  0  0  0  0  0  0
    9.4670   -6.4152    3.8564 C   0  0  0  0  0  0  0  0  0  0  0  0
    8.5171   -6.9239    2.9493 N   0  0  0  0  0  0  0  0  0  0  0  0
    7.8231   -8.2142    3.1481 C   0  0  0  0  0  0  0  0  0  0  0  0
    6.6358   -8.5757    2.2404 C   0  0  0  0  0  0  0  0  0  0  0  0
    5.9325   -9.8819    2.5995 C   0  0  0  0  0  0  0  0  0  0  0  0
    4.9288  -10.1598    1.6227 O   0  0  0  0  0  0  0  0  0  0  0  0
   11.3430   -7.8988    4.9128 C   0  0  0  0  0  0  0  0  0  0  0  0
   10.5870   -9.0204    5.5597 C   0  0  0  0  0  0  0  0  0  0  0  0
   10.5733  -10.2533    4.9102 C   0  0  0  0  0  0  0  0  0  0  0  0
    9.3940  -10.9659    4.9363 C   0  0  0  0  0  0  0  0  0  0  0  0
    8.3103  -10.4854    5.6923 C   0  0  0  0  0  0  0  0  0  0  0  0
    8.3669   -9.2551    6.4191 C   0  0  0  0  0  0  0  0  0  0  0  0
    9.5133   -8.4475    6.3436 C   0  0  0  0  0  0  0  0  0  0  0  0
    9.7824   -4.9493    7.5956 C   0  0  0  0  0  0  0  0  0  0  0  0
   10.2830   -5.3069    8.6594 O   0  0  0  0  0  0  0  0  0  0  0  0
    9.7606   -3.5836    7.1944 N   0  0  0  0  0  0  0  0  0  0  0  0
    9.2913   -3.3116    5.8546 C   0  0  0  0  0  0  0  0  0  0  0  0
    2.8755    3.4083    3.4876 H   0  0  0  0  0  0  0  0  0  0  0  0
    4.0101    2.6391    4.6123 H   0  0  0  0  0  0  0  0  0  0  0  0
    2.4923    1.8214    4.1813 H   0  0  0  0  0  0  0  0  0  0  0  0
    4.7720    2.4620    2.2448 H   0  0  0  0  0  0  0  0  0  0  0  0
    3.2682    1.6490    1.8121 H   0  0  0  0  0  0  0  0  0  0  0  0
    3.8502   -0.2427    3.3627 H   0  0  0  0  0  0  0  0  0  0  0  0
    5.3362    0.5701    3.8001 H   0  0  0  0  0  0  0  0  0  0  0  0
    6.0331    0.5908    1.3982 H   0  0  0  0  0  0  0  0  0  0  0  0
    4.5487   -0.3095    0.9761 H   0  0  0  0  0  0  0  0  0  0  0  0
    5.7660   -2.1236    0.2287 H   0  0  0  0  0  0  0  0  0  0  0  0
    8.4086   -0.9361    1.2797 H   0  0  0  0  0  0  0  0  0  0  0  0
    7.4256   -0.3319   -0.0438 H   0  0  0  0  0  0  0  0  0  0  0  0
    8.3042   -1.8482   -0.2430 H   0  0  0  0  0  0  0  0  0  0  0  0
    6.0104   -4.4438   -0.0985 H   0  0  0  0  0  0  0  0  0  0  0  0
    6.9071   -6.6146    0.5500 H   0  0  0  0  0  0  0  0  0  0  0  0
    7.9146   -2.5517    3.2761 H   0  0  0  0  0  0  0  0  0  0  0  0
    7.4337   -8.1697    4.1677 H   0  0  0  0  0  0  0  0  0  0  0  0
    8.5892   -8.9879    3.0719 H   0  0  0  0  0  0  0  0  0  0  0  0
    6.9759   -8.6496    1.2024 H   0  0  0  0  0  0  0  0  0  0  0  0
    5.8732   -7.7884    2.2789 H   0  0  0  0  0  0  0  0  0  0  0  0
    5.4439   -9.8334    3.5781 H   0  0  0  0  0  0  0  0  0  0  0  0
    6.6283  -10.7249    2.5984 H   0  0  0  0  0  0  0  0  0  0  0  0
    4.2467   -9.4676    1.6835 H   0  0  0  0  0  0  0  0  0  0  0  0
   12.0792   -7.5236    5.6445 H   0  0  0  0  0  0  0  0  0  0  0  0
   11.8311   -8.0853    3.9616 H   0  0  0  0  0  0  0  0  0  0  0  0
   11.3631  -10.4992    4.2031 H   0  0  0  0  0  0  0  0  0  0  0  0
    9.2840  -11.8203    4.2693 H   0  0  0  0  0  0  0  0  0  0  0  0
    7.3667  -11.0245    5.6064 H   0  0  0  0  0  0  0  0  0  0  0  0
    7.4281   -8.8654    6.8091 H   0  0  0  0  0  0  0  0  0  0  0  0
   10.4259   -2.9644    7.6590 H   0  0  0  0  0  0  0  0  0  0  0  0
   10.0906   -2.8617    5.2553 H   0  0  0  0  0  0  0  0  0  0  0  0
    8.4128   -2.6688    5.9012 H   0  0  0  0  0  0  0  0  0  0  0  0
  1  2  1  0  0  0  0
  1 36  1  0  0  0  0
  1 37  1  0  0  0  0
  1 38  1  0  0  0  0
  2  3  1  0  0  0  0
  2 39  1  0  0  0  0
  2 40  1  0  0  0  0
  3  4  1  0  0  0  0
  3 41  1  0  0  0  0
  3 42  1  0  0  0  0
  4  5  1  0  0  0  0
  4 43  1  0  0  0  0
  4 44  1  0  0  0  0
  5  6  1  0  0  0  0
  6  7  1  0  0  0  0
  6  8  1  0  0  0  0
  6 45  1  0  0  0  0
  7 46  1  0  0  0  0
  7 47  1  0  0  0  0
  7 48  1  0  0  0  0
  8  9  1  0  0  0  0
  8 13  2  0  0  0  0
  9 10  2  0  0  0  0
  9 49  1  0  0  0  0
 10 11  1  0  0  0  0
 10 50  1  0  0  0  0
 11 12  2  0  0  0  0
 11 20  1  0  0  0  0
 12 13  1  0  0  0  0
 12 14  1  0  0  0  0
 13 51  1  0  0  0  0
 14 15  1  0  0  0  0
 14 19  2  0  0  0  0
 15 16  2  0  0  0  0
 15 35  1  0  0  0  0
 16 17  1  0  0  0  0
 16 32  1  0  0  0  0
 17 18  2  0  0  0  0
 17 31  1  0  0  0  0
 18 19  1  0  0  0  0
 18 25  1  0  0  0  0
 19 20  1  0  0  0  0
 20 21  1  0  0  0  0
 21 22  1  0  0  0  0
 21 52  1  0  0  0  0
 21 53  1  0  0  0  0
 22 23  1  0  0  0  0
 22 54  1  0  0  0  0
 22 55  1  0  0  0  0
 23 24  1  0  0  0  0
 23 56  1  0  0  0  0
 23 57  1  0  0  0  0
 24 58  1  0  0  0  0
 25 26  1  0  0  0  0
 25 59  1  0  0  0  0
 25 60  1  0  0  0  0
 26 27  1  0  0  0  0
 26 31  2  0  0  0  0
 27 28  2  0  0  0  0
 27 61  1  0  0  0  0
 28 29  1  0  0  0  0
 28 62  1  0  0  0  0
 29 30  2  0  0  0  0
 29 63  1  0  0  0  0
 30 31  1  0  0  0  0
 30 64  1  0  0  0  0
 32 33  2  0  0  0  0
 32 34  1  0  0  0  0
 34 35  1  0  0  0  0
 34 65  1  0  0  0  0
 35 66  1  0  0  0  0
 35 67  1  0  0  0  0
M  END
$$$$
