CHEMBL4088067
 OpenBabel04072215383D

 64 68  0  0  1  0  0  0  0  0999 V2000
    3.1509    0.7074    0.8456 C   0  0  0  0  0  0  0  0  0  0  0  0
    2.2715    0.5773   -0.2738 O   0  0  0  0  0  0  0  0  0  0  0  0
    2.7823   -0.1337   -1.3260 C   0  0  0  0  0  0  0  0  0  0  0  0
    3.6342   -1.2405   -1.1184 C   0  0  0  0  0  0  0  0  0  0  0  0
    4.2706   -1.9171   -2.1530 C   0  0  0  0  0  0  0  0  0  0  0  0
    5.1185   -2.9135   -1.8561 N   0  0  0  0  0  0  0  0  0  0  0  0
    5.7217   -3.5354   -2.8780 C   0  0  0  0  0  0  0  0  0  0  0  0
    5.5589   -3.2704   -4.1776 N   0  0  0  0  0  0  0  0  0  0  0  0
    4.7540   -2.2128   -4.4542 C   0  0  0  0  0  0  0  0  0  0  0  0
    4.7465   -1.7316   -5.7953 N   0  0  0  0  0  0  0  0  0  0  0  0
    4.5877   -0.4216   -6.0496 N   0  0  0  0  0  0  0  0  0  0  0  0
    4.6005   -0.3575   -7.3731 C   0  0  0  0  0  0  0  0  0  0  0  0
    4.4012    0.7611   -8.0928 N   0  0  0  0  0  0  0  0  0  0  0  0
    4.6137    2.0883   -7.6688 C   0  0  0  0  0  0  0  0  0  0  0  0
    5.5681    2.4112   -6.6996 C   0  0  0  0  0  0  0  0  0  0  0  0
    5.7387    3.7250   -6.2396 C   0  0  0  0  0  0  0  0  0  0  0  0
    4.9278    4.7725   -6.6822 C   0  0  0  0  0  0  0  0  0  0  0  0
    5.0566    6.0754   -6.2290 N   0  0  0  0  0  0  0  0  0  0  0  0
    6.0589    6.5311   -5.2695 C   0  0  0  0  0  0  0  0  0  0  0  0
    5.2665    7.3164   -4.2325 C   0  0  0  0  0  0  0  0  0  0  0  0
    4.1514    7.9832   -5.0446 C   0  0  2  0  0  0  0  0  0  0  0  0
    2.9763    8.3703   -4.2308 N   0  0  0  0  0  0  0  0  0  0  0  0
    1.9146    8.9469   -5.0604 C   0  0  0  0  0  0  0  0  0  0  0  0
    3.3131    9.2986   -3.1517 C   0  0  0  0  0  0  0  0  0  0  0  0
    3.8482    6.9092   -6.1255 C   0  0  0  0  0  0  0  0  0  0  0  0
    3.9612    4.4303   -7.6471 C   0  0  0  0  0  0  0  0  0  0  0  0
    3.8034    3.1199   -8.1340 C   0  0  0  0  0  0  0  0  0  0  0  0
    4.7993   -1.5547   -7.9946 N   0  0  0  0  0  0  0  0  0  0  0  0
    4.9655   -2.3984   -6.9979 C   0  0  0  0  0  0  0  0  0  0  0  0
    5.2198   -3.7131   -7.1067 N   0  0  0  0  0  0  0  0  0  0  0  0
    4.0214   -1.5112   -3.4694 C   0  0  0  0  0  0  0  0  0  0  0  0
    3.0520   -0.4873   -3.6709 C   0  0  0  0  0  0  0  0  0  0  0  0
    2.4449    0.2138   -2.6297 C   0  0  0  0  0  0  0  0  0  0  0  0
    1.6086    1.1768   -3.1060 O   0  0  0  0  0  0  0  0  0  0  0  0
    0.9462    2.0606   -2.2230 C   0  0  0  0  0  0  0  0  0  0  0  0
    3.0465    1.7201    1.2451 H   0  0  0  0  0  0  0  0  0  0  0  0
    4.2099    0.5737    0.5926 H   0  0  0  0  0  0  0  0  0  0  0  0
    2.8576   -0.0060    1.6219 H   0  0  0  0  0  0  0  0  0  0  0  0
    3.8335   -1.5912   -0.1097 H   0  0  0  0  0  0  0  0  0  0  0  0
    6.4323   -4.3120   -2.6154 H   0  0  0  0  0  0  0  0  0  0  0  0
    4.1610    0.6579   -9.0678 H   0  0  0  0  0  0  0  0  0  0  0  0
    6.2149    1.6395   -6.2891 H   0  0  0  0  0  0  0  0  0  0  0  0
    6.5140    3.8767   -5.4981 H   0  0  0  0  0  0  0  0  0  0  0  0
    6.7657    7.1884   -5.7897 H   0  0  0  0  0  0  0  0  0  0  0  0
    6.6389    5.7509   -4.7726 H   0  0  0  0  0  0  0  0  0  0  0  0
    5.9030    8.0421   -3.7152 H   0  0  0  0  0  0  0  0  0  0  0  0
    4.8540    6.6275   -3.4850 H   0  0  0  0  0  0  0  0  0  0  0  0
    4.5685    8.8705   -5.5422 H   0  0  0  0  0  0  0  0  0  0  0  0
    1.0479    9.2162   -4.4458 H   0  0  0  0  0  0  0  0  0  0  0  0
    1.5479    8.2255   -5.7980 H   0  0  0  0  0  0  0  0  0  0  0  0
    2.2528    9.8436   -5.5910 H   0  0  0  0  0  0  0  0  0  0  0  0
    2.4330    9.4793   -2.5231 H   0  0  0  0  0  0  0  0  0  0  0  0
    3.6682   10.2618   -3.5331 H   0  0  0  0  0  0  0  0  0  0  0  0
    4.0746    8.8857   -2.4828 H   0  0  0  0  0  0  0  0  0  0  0  0
    3.6323    7.3944   -7.0849 H   0  0  0  0  0  0  0  0  0  0  0  0
    2.9827    6.3041   -5.8287 H   0  0  0  0  0  0  0  0  0  0  0  0
    3.2999    5.1940   -8.0473 H   0  0  0  0  0  0  0  0  0  0  0  0
    3.0151    2.9192   -8.8536 H   0  0  0  0  0  0  0  0  0  0  0  0
    5.2686   -4.1455   -8.0214 H   0  0  0  0  0  0  0  0  0  0  0  0
    5.2786   -4.3251   -6.2972 H   0  0  0  0  0  0  0  0  0  0  0  0
    2.7523   -0.1974   -4.6776 H   0  0  0  0  0  0  0  0  0  0  0  0
    0.4254    2.8030   -2.8426 H   0  0  0  0  0  0  0  0  0  0  0  0
    1.6470    2.6087   -1.5908 H   0  0  0  0  0  0  0  0  0  0  0  0
    0.1888    1.5334   -1.6398 H   0  0  0  0  0  0  0  0  0  0  0  0
  1  2  1  0  0  0  0
  1 36  1  0  0  0  0
  1 37  1  0  0  0  0
  1 38  1  0  0  0  0
  2  3  1  0  0  0  0
  3  4  1  0  0  0  0
  3 33  2  0  0  0  0
  4  5  2  0  0  0  0
  4 39  1  0  0  0  0
  5  6  1  0  0  0  0
  5 31  1  0  0  0  0
  6  7  2  0  0  0  0
  7  8  1  0  0  0  0
  7 40  1  0  0  0  0
  8  9  2  0  0  0  0
  9 10  1  0  0  0  0
  9 31  1  0  0  0  0
 10 11  1  0  0  0  0
 10 29  1  0  0  0  0
 11 12  2  0  0  0  0
 12 13  1  0  0  0  0
 12 28  1  0  0  0  0
 13 14  1  0  0  0  0
 13 41  1  0  0  0  0
 14 15  1  0  0  0  0
 14 27  2  0  0  0  0
 15 16  2  0  0  0  0
 15 42  1  0  0  0  0
 16 17  1  0  0  0  0
 16 43  1  0  0  0  0
 17 18  1  0  0  0  0
 17 26  2  0  0  0  0
 18 19  1  0  0  0  0
 18 25  1  0  0  0  0
 19 20  1  0  0  0  0
 19 44  1  0  0  0  0
 19 45  1  0  0  0  0
 20 21  1  0  0  0  0
 20 46  1  0  0  0  0
 20 47  1  0  0  0  0
 21 25  1  0  0  0  0
 21 22  1  0  0  0  0
 21 48  1  6  0  0  0
 22 23  1  0  0  0  0
 22 24  1  0  0  0  0
 23 49  1  0  0  0  0
 23 50  1  0  0  0  0
 23 51  1  0  0  0  0
 24 52  1  0  0  0  0
 24 53  1  0  0  0  0
 24 54  1  0  0  0  0
 25 55  1  0  0  0  0
 25 56  1  0  0  0  0
 26 27  1  0  0  0  0
 26 57  1  0  0  0  0
 27 58  1  0  0  0  0
 28 29  2  0  0  0  0
 29 30  1  0  0  0  0
 30 59  1  0  0  0  0
 30 60  1  0  0  0  0
 31 32  2  0  0  0  0
 32 33  1  0  0  0  0
 32 61  1  0  0  0  0
 33 34  1  0  0  0  0
 34 35  1  0  0  0  0
 35 62  1  0  0  0  0
 35 63  1  0  0  0  0
 35 64  1  0  0  0  0
M  END
$$$$
