CHEMBL498265
 OpenBabel04072215383D

 67 70  0  0  0  0  0  0  0  0999 V2000
    1.6321    3.8878   -0.1531 C   0  0  0  0  0  0  0  0  0  0  0  0
    2.9159    3.2776   -0.0018 O   0  0  0  0  0  0  0  0  0  0  0  0
    3.8020    4.0313    0.6954 C   0  0  0  0  0  0  0  0  0  0  0  0
    3.5782    5.1255    1.1865 O   0  0  0  0  0  0  0  0  0  0  0  0
    5.1349    3.3685    0.7569 C   0  0  0  0  0  0  0  0  0  0  0  0
    5.3847    2.1023    0.1827 C   0  0  0  0  0  0  0  0  0  0  0  0
    6.6729    1.5367    0.1976 C   0  0  0  0  0  0  0  0  0  0  0  0
    7.7071    2.2492    0.7789 C   0  0  0  0  0  0  0  0  0  0  0  0
    7.4383    3.4977    1.3568 C   0  0  0  0  0  0  0  0  0  0  0  0
    6.1765    4.0684    1.3780 C   0  0  0  0  0  0  0  0  0  0  0  0
    8.5970    4.0693    1.8655 N   0  0  0  0  0  0  0  0  0  0  0  0
    9.6969    3.2585    1.6427 C   0  0  0  0  0  0  0  0  0  0  0  0
   10.8644    3.5407    1.8344 O   0  0  0  0  0  0  0  0  0  0  0  0
    9.1465    2.0044    1.0025 C   0  0  0  0  0  0  0  0  0  0  0  0
    9.9399    0.9331    0.7703 C   0  0  0  0  0  0  0  0  0  0  0  0
   11.2705    0.7728    1.1799 N   0  0  0  0  0  0  0  0  0  0  0  0
   11.6243    0.2846    2.4813 C   0  0  0  0  0  0  0  0  0  0  0  0
   10.7211   -0.3050    3.3764 C   0  0  0  0  0  0  0  0  0  0  0  0
   11.1126   -0.6932    4.6758 C   0  0  0  0  0  0  0  0  0  0  0  0
   12.4274   -0.5196    5.1157 C   0  0  0  0  0  0  0  0  0  0  0  0
   12.7878   -0.6744    6.4862 N   0  0  0  0  0  0  0  0  0  0  0  0
   13.3058    0.4838    7.2553 C   0  0  0  0  0  0  0  0  0  0  0  0
   13.4334    1.8604    6.5714 C   0  0  0  0  0  0  0  0  0  0  0  0
   13.8986    2.9849    7.4195 N   0  0  0  0  0  0  0  0  0  0  0  0
   15.2133    2.7326    8.0163 C   0  0  0  0  0  0  0  0  0  0  0  0
   13.9720    4.1890    6.5791 C   0  0  0  0  0  0  0  0  0  0  0  0
   12.5634   -1.8136    7.2677 C   0  0  0  0  0  0  0  0  0  0  0  0
   12.1198   -3.1074    6.6366 C   0  0  0  0  0  0  0  0  0  0  0  0
   12.8143   -1.8235    8.4795 O   0  0  0  0  0  0  0  0  0  0  0  0
   13.3557   -0.0458    4.1757 C   0  0  0  0  0  0  0  0  0  0  0  0
   12.9632    0.3457    2.8823 C   0  0  0  0  0  0  0  0  0  0  0  0
    9.4935   -0.1518   -0.1326 C   0  0  0  0  0  0  0  0  0  0  0  0
    9.7127   -0.0188   -1.5137 C   0  0  0  0  0  0  0  0  0  0  0  0
    9.3769   -1.0479   -2.3900 C   0  0  0  0  0  0  0  0  0  0  0  0
    8.8209   -2.2291   -1.8952 C   0  0  0  0  0  0  0  0  0  0  0  0
    8.5907   -2.3655   -0.5246 C   0  0  0  0  0  0  0  0  0  0  0  0
    8.9208   -1.3291    0.3490 C   0  0  0  0  0  0  0  0  0  0  0  0
    0.9638    3.1618   -0.6244 H   0  0  0  0  0  0  0  0  0  0  0  0
    1.7062    4.7651   -0.8042 H   0  0  0  0  0  0  0  0  0  0  0  0
    1.2115    4.1628    0.8194 H   0  0  0  0  0  0  0  0  0  0  0  0
    4.5785    1.5450   -0.2919 H   0  0  0  0  0  0  0  0  0  0  0  0
    6.8285    0.5643   -0.2564 H   0  0  0  0  0  0  0  0  0  0  0  0
    6.0039    5.0355    1.8407 H   0  0  0  0  0  0  0  0  0  0  0  0
    8.6700    4.9913    2.2734 H   0  0  0  0  0  0  0  0  0  0  0  0
   11.7625    1.6706    1.0903 H   0  0  0  0  0  0  0  0  0  0  0  0
    9.6780   -0.4234    3.1082 H   0  0  0  0  0  0  0  0  0  0  0  0
   10.3465   -1.0670    5.3501 H   0  0  0  0  0  0  0  0  0  0  0  0
   14.2765    0.1706    7.6583 H   0  0  0  0  0  0  0  0  0  0  0  0
   12.6352    0.6088    8.1175 H   0  0  0  0  0  0  0  0  0  0  0  0
   12.4424    2.1258    6.1813 H   0  0  0  0  0  0  0  0  0  0  0  0
   14.1198    1.7840    5.7257 H   0  0  0  0  0  0  0  0  0  0  0  0
   15.1629    1.9329    8.7620 H   0  0  0  0  0  0  0  0  0  0  0  0
   15.5700    3.6201    8.5533 H   0  0  0  0  0  0  0  0  0  0  0  0
   15.9661    2.4671    7.2652 H   0  0  0  0  0  0  0  0  0  0  0  0
   12.9858    4.4283    6.1664 H   0  0  0  0  0  0  0  0  0  0  0  0
   14.6714    4.0597    5.7436 H   0  0  0  0  0  0  0  0  0  0  0  0
   14.2925    5.0584    7.1624 H   0  0  0  0  0  0  0  0  0  0  0  0
   11.4704   -2.9937    5.7744 H   0  0  0  0  0  0  0  0  0  0  0  0
   11.5554   -3.6700    7.3909 H   0  0  0  0  0  0  0  0  0  0  0  0
   13.0015   -3.6914    6.3614 H   0  0  0  0  0  0  0  0  0  0  0  0
   14.4060    0.0438    4.4440 H   0  0  0  0  0  0  0  0  0  0  0  0
   13.7185    0.7226    2.1937 H   0  0  0  0  0  0  0  0  0  0  0  0
   10.1719    0.8876   -1.9130 H   0  0  0  0  0  0  0  0  0  0  0  0
    9.5668   -0.9442   -3.4546 H   0  0  0  0  0  0  0  0  0  0  0  0
    8.5847   -3.0436   -2.5680 H   0  0  0  0  0  0  0  0  0  0  0  0
    8.1662   -3.2862   -0.1363 H   0  0  0  0  0  0  0  0  0  0  0  0
    8.7406   -1.4621    1.4117 H   0  0  0  0  0  0  0  0  0  0  0  0
  1  2  1  0  0  0  0
  1 38  1  0  0  0  0
  1 39  1  0  0  0  0
  1 40  1  0  0  0  0
  2  3  1  0  0  0  0
  3  4  2  0  0  0  0
  3  5  1  0  0  0  0
  5  6  1  0  0  0  0
  5 10  2  0  0  0  0
  6  7  2  0  0  0  0
  6 41  1  0  0  0  0
  7  8  1  0  0  0  0
  7 42  1  0  0  0  0
  8  9  2  0  0  0  0
  8 14  1  0  0  0  0
  9 10  1  0  0  0  0
  9 11  1  0  0  0  0
 10 43  1  0  0  0  0
 11 12  1  0  0  0  0
 11 44  1  0  0  0  0
 12 13  2  0  0  0  0
 12 14  1  0  0  0  0
 14 15  2  0  0  0  0
 15 16  1  0  0  0  0
 15 32  1  0  0  0  0
 16 17  1  0  0  0  0
 16 45  1  0  0  0  0
 17 18  1  0  0  0  0
 17 31  2  0  0  0  0
 18 19  2  0  0  0  0
 18 46  1  0  0  0  0
 19 20  1  0  0  0  0
 19 47  1  0  0  0  0
 20 21  1  0  0  0  0
 20 30  2  0  0  0  0
 21 22  1  0  0  0  0
 21 27  1  0  0  0  0
 22 23  1  0  0  0  0
 22 48  1  0  0  0  0
 22 49  1  0  0  0  0
 23 24  1  0  0  0  0
 23 50  1  0  0  0  0
 23 51  1  0  0  0  0
 24 25  1  0  0  0  0
 24 26  1  0  0  0  0
 25 52  1  0  0  0  0
 25 53  1  0  0  0  0
 25 54  1  0  0  0  0
 26 55  1  0  0  0  0
 26 56  1  0  0  0  0
 26 57  1  0  0  0  0
 27 28  1  0  0  0  0
 27 29  2  0  0  0  0
 28 58  1  0  0  0  0
 28 59  1  0  0  0  0
 28 60  1  0  0  0  0
 30 31  1  0  0  0  0
 30 61  1  0  0  0  0
 31 62  1  0  0  0  0
 32 33  1  0  0  0  0
 32 37  2  0  0  0  0
 33 34  2  0  0  0  0
 33 63  1  0  0  0  0
 34 35  1  0  0  0  0
 34 64  1  0  0  0  0
 35 36  2  0  0  0  0
 35 65  1  0  0  0  0
 36 37  1  0  0  0  0
 36 66  1  0  0  0  0
 37 67  1  0  0  0  0
M  END
$$$$
