CHEMBL475509
 OpenBabel04072215383D

 40 42  0  0  0  0  0  0  0  0999 V2000
    1.1641   -0.5303   -0.6434 O   0  0  0  0  0  0  0  0  0  0  0  0
    2.1266   -0.0961   -0.0128 C   0  0  0  0  0  0  0  0  0  0  0  0
    2.6046    1.2058   -0.1029 N   0  0  0  0  0  0  0  0  0  0  0  0
    2.0183    2.2193   -0.8928 C   0  0  0  0  0  0  0  0  0  0  0  0
    0.7119    2.1231   -1.3797 C   0  0  0  0  0  0  0  0  0  0  0  0
    0.1981    3.0769   -2.2533 C   0  0  0  0  0  0  0  0  0  0  0  0
    0.9715    4.1714   -2.6228 C   0  0  0  0  0  0  0  0  0  0  0  0
    2.2316    4.3526   -2.0561 C   0  0  0  0  0  0  0  0  0  0  0  0
    3.0519    5.4193   -2.2763 O   0  0  0  0  0  0  0  0  0  0  0  0
    2.4891    6.6640   -2.6756 C   0  0  0  0  0  0  0  0  0  0  0  0
    1.1623    6.7709   -2.4507 F   0  0  0  0  0  0  0  0  0  0  0  0
    3.0976    7.6481   -1.9755 F   0  0  0  0  0  0  0  0  0  0  0  0
    2.7294    6.8712   -3.9882 F   0  0  0  0  0  0  0  0  0  0  0  0
    2.7631    3.3615   -1.2089 C   0  0  0  0  0  0  0  0  0  0  0  0
    2.8847   -1.0020    0.8687 C   0  0  0  0  0  0  0  0  0  0  0  0
    3.9356   -0.5670    1.5779 N   0  0  0  0  0  0  0  0  0  0  0  0
    4.5384   -1.8392    2.4650 S   0  0  0  0  0  0  0  0  0  0  0  0
    3.4436   -3.0182    1.8880 C   0  0  0  0  0  0  0  0  0  0  0  0
    2.5790   -2.4162    1.0015 C   0  0  0  0  0  0  0  0  0  0  0  0
    1.5494   -3.0439    0.3496 N   0  0  0  0  0  0  0  0  0  0  0  0
    1.6558   -4.3936   -0.1839 C   0  0  0  0  0  0  0  0  0  0  0  0
    0.9179   -4.5543   -1.5000 C   0  0  0  0  0  0  0  0  0  0  0  0
    0.9744   -3.5964   -2.5218 C   0  0  0  0  0  0  0  0  0  0  0  0
    0.3179   -3.8486   -3.7190 C   0  0  0  0  0  0  0  0  0  0  0  0
   -0.3661   -4.9830   -3.9771 N   0  0  0  0  0  0  0  0  0  0  0  0
   -0.3960   -5.9041   -2.9937 C   0  0  0  0  0  0  0  0  0  0  0  0
    0.2206   -5.7404   -1.7609 C   0  0  0  0  0  0  0  0  0  0  0  0
    3.5033    1.3733    0.3400 H   0  0  0  0  0  0  0  0  0  0  0  0
    0.0531    1.3093   -1.0959 H   0  0  0  0  0  0  0  0  0  0  0  0
   -0.8088    2.9546   -2.6446 H   0  0  0  0  0  0  0  0  0  0  0  0
    0.5493    4.8630   -3.3453 H   0  0  0  0  0  0  0  0  0  0  0  0
    3.7709    3.4855   -0.8246 H   0  0  0  0  0  0  0  0  0  0  0  0
    3.4685   -4.0405    2.2357 H   0  0  0  0  0  0  0  0  0  0  0  0
    0.9264   -2.4410   -0.2010 H   0  0  0  0  0  0  0  0  0  0  0  0
    1.2314   -5.0745    0.5594 H   0  0  0  0  0  0  0  0  0  0  0  0
    2.6992   -4.6782   -0.3524 H   0  0  0  0  0  0  0  0  0  0  0  0
    1.5161   -2.6633   -2.4014 H   0  0  0  0  0  0  0  0  0  0  0  0
    0.3292   -3.1223   -4.5272 H   0  0  0  0  0  0  0  0  0  0  0  0
   -0.9424   -6.8135   -3.2291 H   0  0  0  0  0  0  0  0  0  0  0  0
    0.1588   -6.5337   -1.0233 H   0  0  0  0  0  0  0  0  0  0  0  0
  1  2  2  0  0  0  0
  2  3  1  0  0  0  0
  2 15  1  0  0  0  0
  3  4  1  0  0  0  0
  3 28  1  0  0  0  0
  4  5  1  0  0  0  0
  4 14  2  0  0  0  0
  5  6  2  0  0  0  0
  5 29  1  0  0  0  0
  6  7  1  0  0  0  0
  6 30  1  0  0  0  0
  7  8  2  0  0  0  0
  7 31  1  0  0  0  0
  8  9  1  0  0  0  0
  8 14  1  0  0  0  0
  9 10  1  0  0  0  0
 10 11  1  0  0  0  0
 10 12  1  0  0  0  0
 10 13  1  0  0  0  0
 14 32  1  0  0  0  0
 15 16  2  0  0  0  0
 15 19  1  0  0  0  0
 16 17  1  0  0  0  0
 17 18  1  0  0  0  0
 18 19  2  0  0  0  0
 18 33  1  0  0  0  0
 19 20  1  0  0  0  0
 20 21  1  0  0  0  0
 20 34  1  0  0  0  0
 21 22  1  0  0  0  0
 21 35  1  0  0  0  0
 21 36  1  0  0  0  0
 22 23  1  0  0  0  0
 22 27  2  0  0  0  0
 23 24  2  0  0  0  0
 23 37  1  0  0  0  0
 24 25  1  0  0  0  0
 24 38  1  0  0  0  0
 25 26  2  0  0  0  0
 26 27  1  0  0  0  0
 26 39  1  0  0  0  0
 27 40  1  0  0  0  0
M  END
$$$$
