CHEMBL3740073
 OpenBabel04072215373D

 62 66  0  0  0  0  0  0  0  0999 V2000
    7.5368   -3.3901   -1.4729 C   0  0  0  0  0  0  0  0  0  0  0  0
    5.7618   -3.5877   -1.4806 S   0  0  0  0  0  0  0  0  0  0  0  0
    5.4277   -4.5853   -2.4681 O   0  0  0  0  0  0  0  0  0  0  0  0
    5.3560   -3.7697   -0.0991 O   0  0  0  0  0  0  0  0  0  0  0  0
    5.1268   -1.9988   -2.0095 C   0  0  0  0  0  0  0  0  0  0  0  0
    5.6121   -1.6278   -3.3792 C   0  0  0  0  0  0  0  0  0  0  0  0
    4.9115   -2.0320   -4.5253 C   0  0  0  0  0  0  0  0  0  0  0  0
    5.3372   -1.6305   -5.7919 C   0  0  0  0  0  0  0  0  0  0  0  0
    6.4779   -0.8377   -5.9290 C   0  0  0  0  0  0  0  0  0  0  0  0
    7.2287   -0.4670   -4.8092 C   0  0  0  0  0  0  0  0  0  0  0  0
    8.3465    0.3686   -4.9842 N   0  0  0  0  0  0  0  0  0  0  0  0
    9.4685    0.4385   -4.1468 C   0  0  0  0  0  0  0  0  0  0  0  0
    9.9874    1.6610   -3.9630 N   0  0  0  0  0  0  0  0  0  0  0  0
   11.0660    1.7513   -3.1679 C   0  0  0  0  0  0  0  0  0  0  0  0
   11.6569    0.6703   -2.5644 C   0  0  0  0  0  0  0  0  0  0  0  0
   11.0891   -0.5518   -2.8529 C   0  0  0  0  0  0  0  0  0  0  0  0
   11.5741   -1.7534   -2.3677 O   0  0  0  0  0  0  0  0  0  0  0  0
   12.9091   -1.8416   -2.0553 C   0  0  0  0  0  0  0  0  0  0  0  0
   13.2447   -2.3946   -0.8256 C   0  0  0  0  0  0  0  0  0  0  0  0
   14.5670   -2.3161   -0.3779 C   0  0  0  0  0  0  0  0  0  0  0  0
   15.5699   -1.7682   -1.2104 C   0  0  0  0  0  0  0  0  0  0  0  0
   16.9319   -1.7047   -0.8704 C   0  0  0  0  0  0  0  0  0  0  0  0
   17.6228   -0.3257   -1.2533 C   0  0  0  0  0  0  0  0  0  0  0  0
   16.9444    0.6818   -1.4164 O   0  0  0  0  0  0  0  0  0  0  0  0
   19.0157   -0.3848   -1.3863 N   0  0  0  0  0  0  0  0  0  0  0  0
   19.9235    0.5994   -1.8583 C   0  0  0  0  0  0  0  0  0  0  0  0
   19.5698    1.8734   -2.2973 C   0  0  0  0  0  0  0  0  0  0  0  0
   20.5454    2.7907   -2.7370 C   0  0  0  0  0  0  0  0  0  0  0  0
   21.9012    2.4532   -2.7348 C   0  0  0  0  0  0  0  0  0  0  0  0
   22.2672    1.1795   -2.3066 C   0  0  0  0  0  0  0  0  0  0  0  0
   23.9190    0.7234   -2.2991 Cl  0  0  0  0  0  0  0  0  0  0  0  0
   21.3057    0.2563   -1.8707 C   0  0  0  0  0  0  0  0  0  0  0  0
   17.5954   -2.7339   -1.5002 C   0  0  0  0  0  0  0  0  0  0  0  0
   17.3607   -2.8541   -2.8750 C   0  0  0  0  0  0  0  0  0  0  0  0
   16.2709   -2.1751   -3.4356 C   0  0  0  0  0  0  0  0  0  0  0  0
   15.2579   -1.7233   -2.5690 C   0  0  0  0  0  0  0  0  0  0  0  0
   13.9223   -1.5445   -2.9676 C   0  0  0  0  0  0  0  0  0  0  0  0
    9.9773   -0.6778   -3.6001 N   0  0  0  0  0  0  0  0  0  0  0  0
    6.7663   -0.8391   -3.5393 C   0  0  0  0  0  0  0  0  0  0  0  0
    7.9725   -4.3204   -1.0994 H   0  0  0  0  0  0  0  0  0  0  0  0
    7.7939   -2.5697   -0.7951 H   0  0  0  0  0  0  0  0  0  0  0  0
    7.8930   -3.1981   -2.4769 H   0  0  0  0  0  0  0  0  0  0  0  0
    5.4251   -1.2497   -1.2634 H   0  0  0  0  0  0  0  0  0  0  0  0
    4.0333   -2.0642   -1.9868 H   0  0  0  0  0  0  0  0  0  0  0  0
    4.0234   -2.6550   -4.4388 H   0  0  0  0  0  0  0  0  0  0  0  0
    4.7815   -1.9381   -6.6741 H   0  0  0  0  0  0  0  0  0  0  0  0
    6.7983   -0.5338   -6.9220 H   0  0  0  0  0  0  0  0  0  0  0  0
    8.0751    1.3344   -5.1558 H   0  0  0  0  0  0  0  0  0  0  0  0
   11.4609    2.7557   -3.0304 H   0  0  0  0  0  0  0  0  0  0  0  0
   12.5192    0.7930   -1.9245 H   0  0  0  0  0  0  0  0  0  0  0  0
   12.4932   -2.8880   -0.2206 H   0  0  0  0  0  0  0  0  0  0  0  0
   14.8334   -2.7520    0.5824 H   0  0  0  0  0  0  0  0  0  0  0  0
   19.4457   -1.2700   -1.1664 H   0  0  0  0  0  0  0  0  0  0  0  0
   18.5255    2.1906   -2.3361 H   0  0  0  0  0  0  0  0  0  0  0  0
   20.2466    3.7833   -3.0803 H   0  0  0  0  0  0  0  0  0  0  0  0
   22.6497    3.1674   -3.0661 H   0  0  0  0  0  0  0  0  0  0  0  0
   21.6182   -0.7271   -1.5575 H   0  0  0  0  0  0  0  0  0  0  0  0
   18.2825   -3.3683   -0.9458 H   0  0  0  0  0  0  0  0  0  0  0  0
   17.9898   -3.5100   -3.4675 H   0  0  0  0  0  0  0  0  0  0  0  0
   16.0925   -2.2554   -4.4985 H   0  0  0  0  0  0  0  0  0  0  0  0
   13.6764   -1.3281   -4.0085 H   0  0  0  0  0  0  0  0  0  0  0  0
    7.3126   -0.5075   -2.6600 H   0  0  0  0  0  0  0  0  0  0  0  0
  1  2  1  0  0  0  0
  1 40  1  0  0  0  0
  1 41  1  0  0  0  0
  1 42  1  0  0  0  0
  2  3  2  0  0  0  0
  2  4  2  0  0  0  0
  2  5  1  0  0  0  0
  5  6  1  0  0  0  0
  5 43  1  0  0  0  0
  5 44  1  0  0  0  0
  6  7  1  0  0  0  0
  6 39  2  0  0  0  0
  7  8  2  0  0  0  0
  7 45  1  0  0  0  0
  8  9  1  0  0  0  0
  8 46  1  0  0  0  0
  9 10  2  0  0  0  0
  9 47  1  0  0  0  0
 10 11  1  0  0  0  0
 10 39  1  0  0  0  0
 11 12  1  0  0  0  0
 11 48  1  0  0  0  0
 12 13  1  0  0  0  0
 12 38  2  0  0  0  0
 13 14  2  0  0  0  0
 14 15  1  0  0  0  0
 14 49  1  0  0  0  0
 15 16  2  0  0  0  0
 15 50  1  0  0  0  0
 16 17  1  0  0  0  0
 16 38  1  0  0  0  0
 17 18  1  0  0  0  0
 18 19  1  0  0  0  0
 18 37  2  0  0  0  0
 19 20  2  0  0  0  0
 19 51  1  0  0  0  0
 20 21  1  0  0  0  0
 20 52  1  0  0  0  0
 21 22  1  0  0  0  0
 21 36  2  0  0  0  0
 22 23  1  0  0  0  0
 22 33  2  0  0  0  0
 23 24  2  0  0  0  0
 23 25  1  0  0  0  0
 25 26  1  0  0  0  0
 25 53  1  0  0  0  0
 26 27  1  0  0  0  0
 26 32  2  0  0  0  0
 27 28  2  0  0  0  0
 27 54  1  0  0  0  0
 28 29  1  0  0  0  0
 28 55  1  0  0  0  0
 29 30  2  0  0  0  0
 29 56  1  0  0  0  0
 30 31  1  0  0  0  0
 30 32  1  0  0  0  0
 32 57  1  0  0  0  0
 33 34  1  0  0  0  0
 33 58  1  0  0  0  0
 34 35  2  0  0  0  0
 34 59  1  0  0  0  0
 35 36  1  0  0  0  0
 35 60  1  0  0  0  0
 36 37  1  0  0  0  0
 37 61  1  0  0  0  0
 39 62  1  0  0  0  0
M  END
$$$$
