CHEMBL3924912
 OpenBabel04072215373D

 56 59  0  0  0  0  0  0  0  0999 V2000
    2.7656    0.8786   -2.5469 C   0  0  0  0  0  0  0  0  0  0  0  0
    1.3711    0.5788   -2.0772 C   0  0  0  0  0  0  0  0  0  0  0  0
    0.8747   -0.7252   -2.1685 C   0  0  0  0  0  0  0  0  0  0  0  0
   -0.3984   -1.0162   -1.6971 C   0  0  0  0  0  0  0  0  0  0  0  0
   -1.1894   -0.0100   -1.1530 C   0  0  0  0  0  0  0  0  0  0  0  0
   -2.3380   -0.4071   -0.5921 F   0  0  0  0  0  0  0  0  0  0  0  0
   -0.7584    1.3263   -1.1144 C   0  0  0  0  0  0  0  0  0  0  0  0
   -1.5505    2.4253   -0.6744 N   0  0  0  0  0  0  0  0  0  0  0  0
   -2.9312    2.4254   -0.5817 C   0  0  0  0  0  0  0  0  0  0  0  0
   -3.6653    1.4871   -0.8626 O   0  0  0  0  0  0  0  0  0  0  0  0
   -3.4453    3.6565   -0.1853 N   0  0  0  0  0  0  0  0  0  0  0  0
   -4.8424    3.7851    0.0331 C   0  0  0  0  0  0  0  0  0  0  0  0
   -5.5340    2.8530    0.8157 C   0  0  0  0  0  0  0  0  0  0  0  0
   -6.9204    2.9422    0.9727 C   0  0  0  0  0  0  0  0  0  0  0  0
   -7.6242    3.9962    0.3866 C   0  0  0  0  0  0  0  0  0  0  0  0
   -8.9843    4.1983    0.4990 O   0  0  0  0  0  0  0  0  0  0  0  0
   -9.6500    3.7130    1.6071 C   0  0  0  0  0  0  0  0  0  0  0  0
   -9.1509    3.8312    2.9031 C   0  0  0  0  0  0  0  0  0  0  0  0
   -9.8526    3.2527    3.9407 C   0  0  0  0  0  0  0  0  0  0  0  0
  -11.0231    2.5983    3.8224 N   0  0  0  0  0  0  0  0  0  0  0  0
  -11.5431    2.5416    2.5639 C   0  0  0  0  0  0  0  0  0  0  0  0
  -12.7483    1.8625    2.2001 C   0  0  0  0  0  0  0  0  0  0  0  0
  -13.0231    1.9429    0.8448 C   0  0  0  0  0  0  0  0  0  0  0  0
  -14.1010    1.3175    0.0629 C   0  0  0  0  0  0  0  0  0  0  0  0
  -14.2044    1.4961   -1.1442 O   0  0  0  0  0  0  0  0  0  0  0  0
  -15.0766    0.5904    0.7666 N   0  0  0  0  0  0  0  0  0  0  0  0
  -15.7170   -0.6477    0.1120 S   0  0  0  0  0  0  0  0  0  0  0  0
  -16.8877   -0.1230   -1.1263 C   0  0  0  0  0  0  0  0  0  0  0  0
  -16.7925   -1.3654    1.3332 C   0  0  0  0  0  0  0  0  0  0  0  0
  -14.9589   -1.7464   -0.4550 O   0  0  0  0  0  0  0  0  0  0  0  0
  -11.8654    2.9204    0.0436 S   0  0  0  0  0  0  0  0  0  0  0  0
  -10.9102    3.1093    1.4573 C   0  0  0  0  0  0  0  0  0  0  0  0
   -6.9376    4.9106   -0.4183 C   0  0  0  0  0  0  0  0  0  0  0  0
   -5.5473    4.8239   -0.5738 C   0  0  0  0  0  0  0  0  0  0  0  0
    0.5518    1.5984   -1.5492 C   0  0  0  0  0  0  0  0  0  0  0  0
    3.2647   -0.0253   -2.9146 H   0  0  0  0  0  0  0  0  0  0  0  0
    3.3659    1.2740   -1.7217 H   0  0  0  0  0  0  0  0  0  0  0  0
    2.7444    1.6035   -3.3660 H   0  0  0  0  0  0  0  0  0  0  0  0
    1.4790   -1.5265   -2.5878 H   0  0  0  0  0  0  0  0  0  0  0  0
   -0.7869   -2.0296   -1.7282 H   0  0  0  0  0  0  0  0  0  0  0  0
   -1.0863    3.3083   -0.5548 H   0  0  0  0  0  0  0  0  0  0  0  0
   -2.9904    4.4514   -0.6093 H   0  0  0  0  0  0  0  0  0  0  0  0
   -5.0021    2.0354    1.2992 H   0  0  0  0  0  0  0  0  0  0  0  0
   -7.4241    2.1706    1.5474 H   0  0  0  0  0  0  0  0  0  0  0  0
   -8.2090    4.3327    3.0998 H   0  0  0  0  0  0  0  0  0  0  0  0
   -9.4543    3.2898    4.9537 H   0  0  0  0  0  0  0  0  0  0  0  0
  -13.3527    1.3056    2.9046 H   0  0  0  0  0  0  0  0  0  0  0  0
  -17.4882    0.6996   -0.7344 H   0  0  0  0  0  0  0  0  0  0  0  0
  -17.5311   -0.9710   -1.3744 H   0  0  0  0  0  0  0  0  0  0  0  0
  -16.3467    0.1859   -2.0224 H   0  0  0  0  0  0  0  0  0  0  0  0
  -17.4180   -0.5832    1.7665 H   0  0  0  0  0  0  0  0  0  0  0  0
  -16.1732   -1.8321    2.1017 H   0  0  0  0  0  0  0  0  0  0  0  0
  -17.4131   -2.1242    0.8511 H   0  0  0  0  0  0  0  0  0  0  0  0
   -7.4923    5.6846   -0.9429 H   0  0  0  0  0  0  0  0  0  0  0  0
   -5.0467    5.5327   -1.2260 H   0  0  0  0  0  0  0  0  0  0  0  0
    0.9443    2.6118   -1.5064 H   0  0  0  0  0  0  0  0  0  0  0  0
  1  2  1  0  0  0  0
  1 36  1  0  0  0  0
  1 37  1  0  0  0  0
  1 38  1  0  0  0  0
  2  3  1  0  0  0  0
  2 35  2  0  0  0  0
  3  4  2  0  0  0  0
  3 39  1  0  0  0  0
  4  5  1  0  0  0  0
  4 40  1  0  0  0  0
  5  6  1  0  0  0  0
  5  7  2  0  0  0  0
  7  8  1  0  0  0  0
  7 35  1  0  0  0  0
  8  9  1  0  0  0  0
  8 41  1  0  0  0  0
  9 10  2  0  0  0  0
  9 11  1  0  0  0  0
 11 12  1  0  0  0  0
 11 42  1  0  0  0  0
 12 13  1  0  0  0  0
 12 34  2  0  0  0  0
 13 14  2  0  0  0  0
 13 43  1  0  0  0  0
 14 15  1  0  0  0  0
 14 44  1  0  0  0  0
 15 16  1  0  0  0  0
 15 33  2  0  0  0  0
 16 17  1  0  0  0  0
 17 18  1  0  0  0  0
 17 32  2  0  0  0  0
 18 19  2  0  0  0  0
 18 45  1  0  0  0  0
 19 20  1  0  0  0  0
 19 46  1  0  0  0  0
 20 21  2  0  0  0  0
 21 22  1  0  0  0  0
 21 32  1  0  0  0  0
 22 23  2  0  0  0  0
 22 47  1  0  0  0  0
 23 24  1  0  0  0  0
 23 31  1  0  0  0  0
 24 25  2  0  0  0  0
 24 26  1  0  0  0  0
 26 27  2  0  0  0  0
 27 28  1  0  0  0  0
 27 29  1  0  0  0  0
 27 30  2  0  0  0  0
 28 48  1  0  0  0  0
 28 49  1  0  0  0  0
 28 50  1  0  0  0  0
 29 51  1  0  0  0  0
 29 52  1  0  0  0  0
 29 53  1  0  0  0  0
 31 32  1  0  0  0  0
 33 34  1  0  0  0  0
 33 54  1  0  0  0  0
 34 55  1  0  0  0  0
 35 56  1  0  0  0  0
M  END
$$$$
