CHEMBL3644019
 OpenBabel04072215373D

 52 54  0  0  1  0  0  0  0  0999 V2000
    4.4628   -0.1510    1.0006 C   0  0  0  0  0  0  0  0  0  0  0  0
    4.0128   -0.8591   -0.2811 C   0  0  1  0  0  0  0  0  0  0  0  0
    2.6635   -1.3494   -0.1369 O   0  0  0  0  0  0  0  0  0  0  0  0
    2.4191   -2.4265    0.6901 C   0  0  0  0  0  0  0  0  0  0  0  0
    3.4425   -3.1998    1.1381 N   0  0  0  0  0  0  0  0  0  0  0  0
    3.1126   -4.2210    1.9561 C   0  0  0  0  0  0  0  0  0  0  0  0
    4.0789   -5.1758    2.3071 N   0  0  0  0  0  0  0  0  0  0  0  0
    3.8287   -6.5393    2.5977 C   0  0  0  0  0  0  0  0  0  0  0  0
    2.7306   -7.2301    2.0556 C   0  0  0  0  0  0  0  0  0  0  0  0
    2.4205   -8.5404    2.4402 C   0  0  0  0  0  0  0  0  0  0  0  0
    3.2235   -9.1958    3.3731 C   0  0  0  0  0  0  0  0  0  0  0  0
    2.6314  -10.7012    4.1174 S   0  0  0  0  0  0  0  0  0  0  0  0
    3.1508  -10.7397    5.4757 O   0  0  0  0  0  0  0  0  0  0  0  0
    1.2031  -10.7641    3.8850 O   0  0  0  0  0  0  0  0  0  0  0  0
    3.3024  -12.1703    3.3033 C   0  0  0  0  0  0  0  0  0  0  0  0
    4.8017  -12.2265    3.2313 C   0  0  0  0  0  0  0  0  0  0  0  0
    3.9883  -12.0267    1.9803 C   0  0  0  0  0  0  0  0  0  0  0  0
    4.3480   -8.5450    3.8942 C   0  0  0  0  0  0  0  0  0  0  0  0
    4.6583   -7.2341    3.4887 C   0  0  0  0  0  0  0  0  0  0  0  0
    1.8700   -4.4002    2.4288 N   0  0  0  0  0  0  0  0  0  0  0  0
    0.8899   -3.6368    1.9408 C   0  0  0  0  0  0  0  0  0  0  0  0
    1.0997   -2.6578    1.0024 C   0  0  0  0  0  0  0  0  0  0  0  0
   -0.0732   -2.0005    0.3882 C   0  0  0  0  0  0  0  0  0  0  0  0
    0.1924   -1.0846   -0.5820 F   0  0  0  0  0  0  0  0  0  0  0  0
   -0.9009   -2.9130   -0.2031 F   0  0  0  0  0  0  0  0  0  0  0  0
   -0.8506   -1.3538    1.3043 F   0  0  0  0  0  0  0  0  0  0  0  0
    4.0130    0.1117   -1.5167 C   0  0  0  0  0  0  0  0  0  0  0  0
    3.0741    1.3203   -1.3563 C   0  0  0  0  0  0  0  0  0  0  0  0
    5.4171    0.6162   -1.8697 C   0  0  0  0  0  0  0  0  0  0  0  0
    3.5514   -0.6239   -2.6645 O   0  0  0  0  0  0  0  0  0  0  0  0
    4.5393   -0.8555    1.8342 H   0  0  0  0  0  0  0  0  0  0  0  0
    3.7390    0.6092    1.3100 H   0  0  0  0  0  0  0  0  0  0  0  0
    5.4419    0.3207    0.8826 H   0  0  0  0  0  0  0  0  0  0  0  0
    4.6748   -1.7029   -0.5137 H   0  0  0  0  0  0  0  0  0  0  0  0
    4.9558   -4.9896    1.8433 H   0  0  0  0  0  0  0  0  0  0  0  0
    2.0626   -6.7336    1.3552 H   0  0  0  0  0  0  0  0  0  0  0  0
    1.5144   -9.0034    2.0558 H   0  0  0  0  0  0  0  0  0  0  0  0
    2.7705  -13.0905    3.5164 H   0  0  0  0  0  0  0  0  0  0  0  0
    5.2669  -13.1941    3.3986 H   0  0  0  0  0  0  0  0  0  0  0  0
    5.3926  -11.3963    3.5997 H   0  0  0  0  0  0  0  0  0  0  0  0
    3.9200  -12.8657    1.2928 H   0  0  0  0  0  0  0  0  0  0  0  0
    4.0334  -11.0683    1.4831 H   0  0  0  0  0  0  0  0  0  0  0  0
    4.9501   -9.0189    4.6675 H   0  0  0  0  0  0  0  0  0  0  0  0
    5.5046   -6.7280    3.9490 H   0  0  0  0  0  0  0  0  0  0  0  0
   -0.1033   -3.8748    2.3137 H   0  0  0  0  0  0  0  0  0  0  0  0
    3.3683    1.9635   -0.5224 H   0  0  0  0  0  0  0  0  0  0  0  0
    2.0362    1.0061   -1.2112 H   0  0  0  0  0  0  0  0  0  0  0  0
    3.0813    1.9345   -2.2659 H   0  0  0  0  0  0  0  0  0  0  0  0
    5.8066    1.3171   -1.1256 H   0  0  0  0  0  0  0  0  0  0  0  0
    5.4134    1.1265   -2.8411 H   0  0  0  0  0  0  0  0  0  0  0  0
    6.1191   -0.2197   -1.9656 H   0  0  0  0  0  0  0  0  0  0  0  0
    2.6577   -0.9464   -2.4453 H   0  0  0  0  0  0  0  0  0  0  0  0
  1  2  1  0  0  0  0
  1 31  1  0  0  0  0
  1 32  1  0  0  0  0
  1 33  1  0  0  0  0
  2  3  1  0  0  0  0
  2 27  1  0  0  0  0
  2 34  1  6  0  0  0
  3  4  1  0  0  0  0
  4  5  1  0  0  0  0
  4 22  2  0  0  0  0
  5  6  2  0  0  0  0
  6  7  1  0  0  0  0
  6 20  1  0  0  0  0
  7  8  1  0  0  0  0
  7 35  1  0  0  0  0
  8  9  1  0  0  0  0
  8 19  2  0  0  0  0
  9 10  2  0  0  0  0
  9 36  1  0  0  0  0
 10 11  1  0  0  0  0
 10 37  1  0  0  0  0
 11 12  1  0  0  0  0
 11 18  2  0  0  0  0
 12 13  2  0  0  0  0
 12 14  2  0  0  0  0
 12 15  1  0  0  0  0
 15 16  1  0  0  0  0
 15 17  1  0  0  0  0
 15 38  1  0  0  0  0
 16 17  1  0  0  0  0
 16 39  1  0  0  0  0
 16 40  1  0  0  0  0
 17 41  1  0  0  0  0
 17 42  1  0  0  0  0
 18 19  1  0  0  0  0
 18 43  1  0  0  0  0
 19 44  1  0  0  0  0
 20 21  2  0  0  0  0
 21 22  1  0  0  0  0
 21 45  1  0  0  0  0
 22 23  1  0  0  0  0
 23 24  1  0  0  0  0
 23 25  1  0  0  0  0
 23 26  1  0  0  0  0
 27 28  1  0  0  0  0
 27 29  1  0  0  0  0
 27 30  1  0  0  0  0
 28 46  1  0  0  0  0
 28 47  1  0  0  0  0
 28 48  1  0  0  0  0
 29 49  1  0  0  0  0
 29 50  1  0  0  0  0
 29 51  1  0  0  0  0
 30 52  1  0  0  0  0
M  END
$$$$
