CHEMBL426443
 OpenBabel04072215383D

 36 37  0  0  0  0  0  0  0  0999 V2000
    0.9207    0.0505    0.0592 C   0  0  0  0  0  0  0  0  0  0  0  0
    2.4402    0.0599    0.0401 C   0  0  0  0  0  0  0  0  0  0  0  0
    2.9743    1.1718   -0.8619 C   0  0  0  0  0  0  0  0  0  0  0  0
    4.5016    1.1815   -0.8814 C   0  0  0  0  0  0  0  0  0  0  0  0
    5.0438    2.2903   -1.7847 C   0  0  0  0  0  0  0  0  0  0  0  0
    6.5718    2.2822   -1.7920 C   0  0  0  0  0  0  0  0  0  0  0  0
    7.1385    3.3762   -2.6921 C   0  0  0  0  0  0  0  0  0  0  0  0
    8.5924    3.3815   -2.6753 N   0  0  0  0  0  0  0  0  0  0  0  0
    9.3738    4.0690   -1.7861 C   0  0  0  0  0  0  0  0  0  0  0  0
   10.6561    3.7440   -2.1382 C   0  0  0  0  0  0  0  0  0  0  0  0
   11.8428    4.1644   -1.5468 C   0  0  0  0  0  0  0  0  0  0  0  0
   11.9651    5.0017   -0.4703 N   0  0  0  0  0  0  0  0  0  0  0  0
   12.9468    3.6533   -2.1461 N   0  0  0  0  0  0  0  0  0  0  0  0
   12.7925    2.8143   -3.2243 C   0  0  0  0  0  0  0  0  0  0  0  0
   11.6665    2.3630   -3.8466 N   0  0  0  0  0  0  0  0  0  0  0  0
   10.5628    2.8706   -3.2506 C   0  0  0  0  0  0  0  0  0  0  0  0
    9.2842    2.6504   -3.5782 N   0  0  0  0  0  0  0  0  0  0  0  0
    0.5533   -0.7509    0.7075 H   0  0  0  0  0  0  0  0  0  0  0  0
    0.5185   -0.1125   -0.9458 H   0  0  0  0  0  0  0  0  0  0  0  0
    0.5291    1.0006    0.4362 H   0  0  0  0  0  0  0  0  0  0  0  0
    2.8033   -0.9131   -0.3114 H   0  0  0  0  0  0  0  0  0  0  0  0
    2.8138    0.1954    1.0618 H   0  0  0  0  0  0  0  0  0  0  0  0
    2.6044    2.1418   -0.5080 H   0  0  0  0  0  0  0  0  0  0  0  0
    2.5941    1.0326   -1.8812 H   0  0  0  0  0  0  0  0  0  0  0  0
    4.8701    0.2099   -1.2326 H   0  0  0  0  0  0  0  0  0  0  0  0
    4.8804    1.3208    0.1386 H   0  0  0  0  0  0  0  0  0  0  0  0
    4.6799    3.2636   -1.4329 H   0  0  0  0  0  0  0  0  0  0  0  0
    4.6675    2.1533   -2.8056 H   0  0  0  0  0  0  0  0  0  0  0  0
    6.9348    1.3026   -2.1268 H   0  0  0  0  0  0  0  0  0  0  0  0
    6.9409    2.4188   -0.7673 H   0  0  0  0  0  0  0  0  0  0  0  0
    6.8098    4.3658   -2.3550 H   0  0  0  0  0  0  0  0  0  0  0  0
    6.8163    3.2510   -3.7321 H   0  0  0  0  0  0  0  0  0  0  0  0
    8.9540    4.6914   -1.0108 H   0  0  0  0  0  0  0  0  0  0  0  0
   11.1569    5.3755   -0.0017 H   0  0  0  0  0  0  0  0  0  0  0  0
   12.8977    5.2027   -0.1415 H   0  0  0  0  0  0  0  0  0  0  0  0
   13.7263    2.4503   -3.6501 H   0  0  0  0  0  0  0  0  0  0  0  0
  1  2  1  0  0  0  0
  1 18  1  0  0  0  0
  1 19  1  0  0  0  0
  1 20  1  0  0  0  0
  2  3  1  0  0  0  0
  2 21  1  0  0  0  0
  2 22  1  0  0  0  0
  3  4  1  0  0  0  0
  3 23  1  0  0  0  0
  3 24  1  0  0  0  0
  4  5  1  0  0  0  0
  4 25  1  0  0  0  0
  4 26  1  0  0  0  0
  5  6  1  0  0  0  0
  5 27  1  0  0  0  0
  5 28  1  0  0  0  0
  6  7  1  0  0  0  0
  6 29  1  0  0  0  0
  6 30  1  0  0  0  0
  7  8  1  0  0  0  0
  7 31  1  0  0  0  0
  7 32  1  0  0  0  0
  8  9  1  0  0  0  0
  8 17  1  0  0  0  0
  9 10  2  0  0  0  0
  9 33  1  0  0  0  0
 10 11  1  0  0  0  0
 10 16  1  0  0  0  0
 11 12  1  0  0  0  0
 11 13  2  0  0  0  0
 12 34  1  0  0  0  0
 12 35  1  0  0  0  0
 13 14  1  0  0  0  0
 14 15  2  0  0  0  0
 14 36  1  0  0  0  0
 15 16  1  0  0  0  0
 16 17  2  0  0  0  0
M  END
$$$$
