CHEMBL98996
 OpenBabel04072215383D

 33 35  0  0  0  0  0  0  0  0999 V2000
    7.8590   -5.9130   -4.0588 C   0  0  0  0  0  0  0  0  0  0  0  0
    7.2755   -4.8292   -3.3448 O   0  0  0  0  0  0  0  0  0  0  0  0
    7.5598   -4.7659   -2.0081 C   0  0  0  0  0  0  0  0  0  0  0  0
    8.6441   -5.3662   -1.3849 C   0  0  0  0  0  0  0  0  0  0  0  0
    8.7995   -5.1607   -0.0276 C   0  0  0  0  0  0  0  0  0  0  0  0
    7.9727   -4.3978    0.7149 N   0  0  0  0  0  0  0  0  0  0  0  0
    6.9311   -3.7972    0.1016 C   0  0  0  0  0  0  0  0  0  0  0  0
    6.0826   -2.9396    0.8253 N   0  0  0  0  0  0  0  0  0  0  0  0
    6.4806   -2.2344    1.9099 C   0  0  0  0  0  0  0  0  0  0  0  0
    5.6806   -1.9604    2.9186 N   0  0  0  0  0  0  0  0  0  0  0  0
    6.3308   -1.1501    3.8355 C   0  0  0  0  0  0  0  0  0  0  0  0
    7.6109   -0.7485    3.5017 C   0  0  0  0  0  0  0  0  0  0  0  0
    8.5572    0.1287    4.2027 C   0  0  0  0  0  0  0  0  0  0  0  0
    8.5707    0.1858    5.6037 C   0  0  0  0  0  0  0  0  0  0  0  0
    9.4696    1.0196    6.2761 C   0  0  0  0  0  0  0  0  0  0  0  0
   10.3660    1.8090    5.5602 C   0  0  0  0  0  0  0  0  0  0  0  0
   10.3651    1.7692    4.1692 C   0  0  0  0  0  0  0  0  0  0  0  0
    9.4652    0.9390    3.4981 C   0  0  0  0  0  0  0  0  0  0  0  0
    8.0332   -1.4854    2.0139 S   0  0  0  0  0  0  0  0  0  0  0  0
    6.6888   -3.9790   -1.2552 C   0  0  0  0  0  0  0  0  0  0  0  0
    7.4934   -5.8684   -5.0890 H   0  0  0  0  0  0  0  0  0  0  0  0
    7.5460   -6.8705   -3.6297 H   0  0  0  0  0  0  0  0  0  0  0  0
    8.9501   -5.8335   -4.0940 H   0  0  0  0  0  0  0  0  0  0  0  0
    9.3764   -5.9619   -1.9122 H   0  0  0  0  0  0  0  0  0  0  0  0
    9.6283   -5.6034    0.5173 H   0  0  0  0  0  0  0  0  0  0  0  0
    5.1325   -3.2839    0.8551 H   0  0  0  0  0  0  0  0  0  0  0  0
    5.7995   -0.8536    4.7315 H   0  0  0  0  0  0  0  0  0  0  0  0
    7.8933   -0.4301    6.1905 H   0  0  0  0  0  0  0  0  0  0  0  0
    9.4703    1.0473    7.3666 H   0  0  0  0  0  0  0  0  0  0  0  0
   11.0658    2.4550    6.0839 H   0  0  0  0  0  0  0  0  0  0  0  0
   11.0605    2.3823    3.6043 H   0  0  0  0  0  0  0  0  0  0  0  0
    9.4833    0.9426    2.4103 H   0  0  0  0  0  0  0  0  0  0  0  0
    5.8595   -3.4759   -1.7387 H   0  0  0  0  0  0  0  0  0  0  0  0
  1  2  1  0  0  0  0
  1 21  1  0  0  0  0
  1 22  1  0  0  0  0
  1 23  1  0  0  0  0
  2  3  1  0  0  0  0
  3  4  1  0  0  0  0
  3 20  2  0  0  0  0
  4  5  2  0  0  0  0
  4 24  1  0  0  0  0
  5  6  1  0  0  0  0
  5 25  1  0  0  0  0
  6  7  2  0  0  0  0
  7  8  1  0  0  0  0
  7 20  1  0  0  0  0
  8  9  1  0  0  0  0
  8 26  1  0  0  0  0
  9 10  2  0  0  0  0
  9 19  1  0  0  0  0
 10 11  1  0  0  0  0
 11 12  2  0  0  0  0
 11 27  1  0  0  0  0
 12 13  1  0  0  0  0
 12 19  1  0  0  0  0
 13 14  1  0  0  0  0
 13 18  2  0  0  0  0
 14 15  2  0  0  0  0
 14 28  1  0  0  0  0
 15 16  1  0  0  0  0
 15 29  1  0  0  0  0
 16 17  2  0  0  0  0
 16 30  1  0  0  0  0
 17 18  1  0  0  0  0
 17 31  1  0  0  0  0
 18 32  1  0  0  0  0
 20 33  1  0  0  0  0
M  END
$$$$
