CHEMBL3288523
 OpenBabel04072215363D

 44 48  0  0  0  0  0  0  0  0999 V2000
   -3.4873    3.0059    1.5564 N   0  0  0  0  0  0  0  0  0  0  0  0
   -3.2342    1.6948    1.4165 C   0  0  0  0  0  0  0  0  0  0  0  0
   -4.1151    0.8062    1.8648 N   0  0  0  0  0  0  0  0  0  0  0  0
   -3.5835   -0.3679    1.5235 N   0  0  0  0  0  0  0  0  0  0  0  0
   -2.3873   -0.2789    0.8670 C   0  0  0  0  0  0  0  0  0  0  0  0
   -1.5795   -1.2928    0.3482 C   0  0  0  0  0  0  0  0  0  0  0  0
   -0.3922   -0.9103   -0.2587 C   0  0  0  0  0  0  0  0  0  0  0  0
   -0.0301    0.4331   -0.3178 C   0  0  0  0  0  0  0  0  0  0  0  0
   -0.8411    1.4779    0.2034 C   0  0  0  0  0  0  0  0  0  0  0  0
   -0.3774    2.8835    0.1204 C   0  0  0  0  0  0  0  0  0  0  0  0
    0.4005    3.3382   -0.9536 C   0  0  0  0  0  0  0  0  0  0  0  0
    0.8624    4.6578   -1.0244 C   0  0  0  0  0  0  0  0  0  0  0  0
    0.4715    5.6398   -0.0823 C   0  0  0  0  0  0  0  0  0  0  0  0
    0.8025    7.0249   -0.1292 C   0  0  0  0  0  0  0  0  0  0  0  0
    1.6412    7.6596   -1.1890 C   0  0  0  0  0  0  0  0  0  0  0  0
    2.4457    8.5345   -0.8785 O   0  0  0  0  0  0  0  0  0  0  0  0
    1.4210    7.2621   -2.4947 N   0  0  0  0  0  0  0  0  0  0  0  0
    2.1959    7.7720   -3.5825 C   0  0  0  0  0  0  0  0  0  0  0  0
    2.0876    7.1651   -4.9541 C   0  0  0  0  0  0  0  0  0  0  0  0
    3.3400    6.9764   -4.1511 C   0  0  0  0  0  0  0  0  0  0  0  0
    0.3575    7.8991    0.8804 C   0  0  0  0  0  0  0  0  0  0  0  0
   -0.4140    7.4301    1.9337 C   0  0  0  0  0  0  0  0  0  0  0  0
   -0.7288    6.0798    1.9989 C   0  0  0  0  0  0  0  0  0  0  0  0
   -0.2942    5.1811    1.0134 C   0  0  0  0  0  0  0  0  0  0  0  0
   -0.6335    3.8204    1.1286 C   0  0  0  0  0  0  0  0  0  0  0  0
   -2.0827    1.0873    0.8030 C   0  0  0  0  0  0  0  0  0  0  0  0
   -4.4191    3.2287    1.8899 H   0  0  0  0  0  0  0  0  0  0  0  0
   -3.1555    3.6534    0.8515 H   0  0  0  0  0  0  0  0  0  0  0  0
   -4.0912   -1.2106    1.7639 H   0  0  0  0  0  0  0  0  0  0  0  0
   -1.8600   -2.3388    0.4166 H   0  0  0  0  0  0  0  0  0  0  0  0
    0.2696   -1.6652   -0.6769 H   0  0  0  0  0  0  0  0  0  0  0  0
    0.9320    0.6662   -0.7717 H   0  0  0  0  0  0  0  0  0  0  0  0
    0.6809    2.6651   -1.7614 H   0  0  0  0  0  0  0  0  0  0  0  0
    1.5388    4.8975   -1.8416 H   0  0  0  0  0  0  0  0  0  0  0  0
    0.6280    6.6684   -2.7029 H   0  0  0  0  0  0  0  0  0  0  0  0
    2.3359    8.8507   -3.5350 H   0  0  0  0  0  0  0  0  0  0  0  0
    2.1263    7.8372   -5.8040 H   0  0  0  0  0  0  0  0  0  0  0  0
    1.4493    6.3025   -5.0994 H   0  0  0  0  0  0  0  0  0  0  0  0
    4.2284    7.5206   -4.4530 H   0  0  0  0  0  0  0  0  0  0  0  0
    3.5446    5.9941   -3.7425 H   0  0  0  0  0  0  0  0  0  0  0  0
    0.6183    8.9571    0.8409 H   0  0  0  0  0  0  0  0  0  0  0  0
   -0.7648    8.1112    2.7049 H   0  0  0  0  0  0  0  0  0  0  0  0
   -1.3345    5.7238    2.8351 H   0  0  0  0  0  0  0  0  0  0  0  0
   -1.1259    3.4889    2.0416 H   0  0  0  0  0  0  0  0  0  0  0  0
  1  2  1  0  0  0  0
  1 27  1  0  0  0  0
  1 28  1  0  0  0  0
  2  3  2  0  0  0  0
  2 26  1  0  0  0  0
  3  4  1  0  0  0  0
  4  5  1  0  0  0  0
  4 29  1  0  0  0  0
  5  6  1  0  0  0  0
  5 26  2  0  0  0  0
  6  7  2  0  0  0  0
  6 30  1  0  0  0  0
  7  8  1  0  0  0  0
  7 31  1  0  0  0  0
  8  9  2  0  0  0  0
  8 32  1  0  0  0  0
  9 10  1  0  0  0  0
  9 26  1  0  0  0  0
 10 11  1  0  0  0  0
 10 25  2  0  0  0  0
 11 12  2  0  0  0  0
 11 33  1  0  0  0  0
 12 13  1  0  0  0  0
 12 34  1  0  0  0  0
 13 14  1  0  0  0  0
 13 24  2  0  0  0  0
 14 15  1  0  0  0  0
 14 21  2  0  0  0  0
 15 16  2  0  0  0  0
 15 17  1  0  0  0  0
 17 18  1  0  0  0  0
 17 35  1  0  0  0  0
 18 19  1  0  0  0  0
 18 20  1  0  0  0  0
 18 36  1  0  0  0  0
 19 20  1  0  0  0  0
 19 37  1  0  0  0  0
 19 38  1  0  0  0  0
 20 39  1  0  0  0  0
 20 40  1  0  0  0  0
 21 22  1  0  0  0  0
 21 41  1  0  0  0  0
 22 23  2  0  0  0  0
 22 42  1  0  0  0  0
 23 24  1  0  0  0  0
 23 43  1  0  0  0  0
 24 25  1  0  0  0  0
 25 44  1  0  0  0  0
M  END
$$$$
