CHEMBL1271669
 OpenBabel04072215363D

 34 36  0  0  0  0  0  0  0  0999 V2000
    4.5072    0.0663    0.1751 C   0  0  0  0  0  0  0  0  0  0  0  0
    3.0265    0.2113   -0.0622 C   0  0  0  0  0  0  0  0  0  0  0  0
    2.3203   -0.9114   -0.5281 C   0  0  0  0  0  0  0  0  0  0  0  0
    0.9506   -0.8480   -0.7573 C   0  0  0  0  0  0  0  0  0  0  0  0
    0.2708    0.3442   -0.5315 C   0  0  0  0  0  0  0  0  0  0  0  0
    0.9460    1.4898   -0.0677 C   0  0  0  0  0  0  0  0  0  0  0  0
    0.0747    2.6763    0.1739 C   0  0  0  0  0  0  0  0  0  0  0  0
   -1.0687    2.4649    0.5674 O   0  0  0  0  0  0  0  0  0  0  0  0
    0.5864    3.9204   -0.1498 N   0  0  0  0  0  0  0  0  0  0  0  0
   -0.1003    5.1476   -0.0043 C   0  0  0  0  0  0  0  0  0  0  0  0
   -1.2894    5.3003    0.6991 C   0  0  0  0  0  0  0  0  0  0  0  0
   -1.9919    6.4579    0.7816 N   0  0  0  0  0  0  0  0  0  0  0  0
   -1.5169    7.5249    0.1289 C   0  0  0  0  0  0  0  0  0  0  0  0
   -2.2618    8.6961    0.1378 C   0  0  0  0  0  0  0  0  0  0  0  0
   -1.8377    9.8351   -0.5472 C   0  0  0  0  0  0  0  0  0  0  0  0
   -0.6321    9.8164   -1.2393 C   0  0  0  0  0  0  0  0  0  0  0  0
    0.1415    8.6529   -1.2515 C   0  0  0  0  0  0  0  0  0  0  0  0
   -0.2959    7.4969   -0.5790 C   0  0  0  0  0  0  0  0  0  0  0  0
    0.4218    6.2867   -0.6143 C   0  0  0  0  0  0  0  0  0  0  0  0
    2.3294    1.4191    0.1812 C   0  0  0  0  0  0  0  0  0  0  0  0
    3.2924    2.8946    0.9221 Br  0  0  0  0  0  0  0  0  0  0  0  0
    4.8593   -0.9379   -0.0851 H   0  0  0  0  0  0  0  0  0  0  0  0
    4.7454    0.2289    1.2308 H   0  0  0  0  0  0  0  0  0  0  0  0
    5.0633    0.7739   -0.4481 H   0  0  0  0  0  0  0  0  0  0  0  0
    2.8356   -1.8546   -0.7033 H   0  0  0  0  0  0  0  0  0  0  0  0
    0.4100   -1.7268   -1.1015 H   0  0  0  0  0  0  0  0  0  0  0  0
   -0.8047    0.3766   -0.7070 H   0  0  0  0  0  0  0  0  0  0  0  0
    1.5009    3.9551   -0.5841 H   0  0  0  0  0  0  0  0  0  0  0  0
   -1.7444    4.4878    1.2551 H   0  0  0  0  0  0  0  0  0  0  0  0
   -3.2055    8.7110    0.6787 H   0  0  0  0  0  0  0  0  0  0  0  0
   -2.4562   10.7285   -0.5403 H   0  0  0  0  0  0  0  0  0  0  0  0
   -0.3014   10.7008   -1.7775 H   0  0  0  0  0  0  0  0  0  0  0  0
    1.0791    8.6518   -1.8016 H   0  0  0  0  0  0  0  0  0  0  0  0
    1.3591    6.2404   -1.1601 H   0  0  0  0  0  0  0  0  0  0  0  0
  1  2  1  0  0  0  0
  1 22  1  0  0  0  0
  1 23  1  0  0  0  0
  1 24  1  0  0  0  0
  2  3  1  0  0  0  0
  2 20  2  0  0  0  0
  3  4  2  0  0  0  0
  3 25  1  0  0  0  0
  4  5  1  0  0  0  0
  4 26  1  0  0  0  0
  5  6  2  0  0  0  0
  5 27  1  0  0  0  0
  6  7  1  0  0  0  0
  6 20  1  0  0  0  0
  7  8  2  0  0  0  0
  7  9  1  0  0  0  0
  9 10  1  0  0  0  0
  9 28  1  0  0  0  0
 10 11  1  0  0  0  0
 10 19  2  0  0  0  0
 11 12  2  0  0  0  0
 11 29  1  0  0  0  0
 12 13  1  0  0  0  0
 13 14  1  0  0  0  0
 13 18  2  0  0  0  0
 14 15  2  0  0  0  0
 14 30  1  0  0  0  0
 15 16  1  0  0  0  0
 15 31  1  0  0  0  0
 16 17  2  0  0  0  0
 16 32  1  0  0  0  0
 17 18  1  0  0  0  0
 17 33  1  0  0  0  0
 18 19  1  0  0  0  0
 19 34  1  0  0  0  0
 20 21  1  0  0  0  0
M  END
$$$$
