CHEMBL3896104
 OpenBabel04072215373D

 63 66  0  0  0  0  0  0  0  0999 V2000
    0.2864    2.9199   -2.2623 C   0  0  0  0  0  0  0  0  0  0  0  0
    1.5350    2.8614   -2.9589 O   0  0  0  0  0  0  0  0  0  0  0  0
    2.6102    2.3489   -2.2697 C   0  0  0  0  0  0  0  0  0  0  0  0
    2.5544    1.9230   -0.9451 C   0  0  0  0  0  0  0  0  0  0  0  0
    3.6765    1.3622   -0.3461 C   0  0  0  0  0  0  0  0  0  0  0  0
    3.7344    0.8712    0.9320 O   0  0  0  0  0  0  0  0  0  0  0  0
    2.5678    1.0231    1.7346 C   0  0  0  0  0  0  0  0  0  0  0  0
    4.8658    1.2388   -1.0791 C   0  0  0  0  0  0  0  0  0  0  0  0
    4.9748    1.6557   -2.4164 C   0  0  0  0  0  0  0  0  0  0  0  0
    6.1052    1.3501   -3.2217 N   0  0  0  0  0  0  0  0  0  0  0  0
    6.8172    0.0486   -2.9045 C   0  0  0  0  0  0  0  0  0  0  0  0
    6.0080   -1.2619   -2.8970 C   0  0  0  0  0  0  0  0  0  0  0  0
    5.5126   -1.8264   -4.2301 C   0  0  0  0  0  0  0  0  0  0  0  0
    6.6147   -2.0464   -5.1923 N   0  0  0  0  0  0  0  0  0  0  0  0
    6.1993   -2.7946   -6.6707 S   0  0  0  0  0  0  0  0  0  0  0  0
    5.2126   -1.5543   -7.4694 C   0  0  0  0  0  0  0  0  0  0  0  0
    7.4516   -2.9525   -7.3737 O   0  0  0  0  0  0  0  0  0  0  0  0
    5.3815   -3.9333   -6.3402 O   0  0  0  0  0  0  0  0  0  0  0  0
    7.1053    2.2476   -3.7910 C   0  0  0  0  0  0  0  0  0  0  0  0
    7.6406    1.7876   -4.9923 C   0  0  0  0  0  0  0  0  0  0  0  0
    8.9569    2.0675   -5.3030 C   0  0  0  0  0  0  0  0  0  0  0  0
    9.6926    2.9666   -4.5789 C   0  0  0  0  0  0  0  0  0  0  0  0
   10.9935    2.9616   -4.8901 N   0  0  0  0  0  0  0  0  0  0  0  0
   11.7263    3.9668   -4.4100 C   0  0  0  0  0  0  0  0  0  0  0  0
   11.1627    5.0107   -3.7093 C   0  0  0  0  0  0  0  0  0  0  0  0
   11.9595    6.2424   -3.6977 C   0  0  0  0  0  0  0  0  0  0  0  0
   11.8503    7.3938   -4.5274 C   0  0  0  0  0  0  0  0  0  0  0  0
   12.9145    8.2043   -4.4511 N   0  0  0  0  0  0  0  0  0  0  0  0
   13.7269    7.5737   -3.5872 N   0  0  0  0  0  0  0  0  0  0  0  0
   14.8933    8.2412   -3.0542 C   0  0  0  0  0  0  0  0  0  0  0  0
   13.2680    6.3312   -3.2378 C   0  0  0  0  0  0  0  0  0  0  0  0
    9.8592    4.9307   -3.2443 N   0  0  0  0  0  0  0  0  0  0  0  0
    9.0917    3.8177   -3.6260 C   0  0  0  0  0  0  0  0  0  0  0  0
    7.7736    3.3513   -3.1787 C   0  0  0  0  0  0  0  0  0  0  0  0
    3.8212    2.2328   -2.9900 C   0  0  0  0  0  0  0  0  0  0  0  0
   -0.4761    3.3066   -2.9461 H   0  0  0  0  0  0  0  0  0  0  0  0
    0.3411    3.6063   -1.4093 H   0  0  0  0  0  0  0  0  0  0  0  0
   -0.0426    1.9244   -1.9395 H   0  0  0  0  0  0  0  0  0  0  0  0
    1.6295    2.0009   -0.3842 H   0  0  0  0  0  0  0  0  0  0  0  0
    2.7955    0.6414    2.7341 H   0  0  0  0  0  0  0  0  0  0  0  0
    1.7344    0.4345    1.3351 H   0  0  0  0  0  0  0  0  0  0  0  0
    2.2916    2.0781    1.8370 H   0  0  0  0  0  0  0  0  0  0  0  0
    5.7089    0.7727   -0.5779 H   0  0  0  0  0  0  0  0  0  0  0  0
    7.3118    0.1588   -1.9315 H   0  0  0  0  0  0  0  0  0  0  0  0
    7.6439   -0.1395   -3.6002 H   0  0  0  0  0  0  0  0  0  0  0  0
    5.1545   -1.2011   -2.2166 H   0  0  0  0  0  0  0  0  0  0  0  0
    6.6752   -2.0239   -2.4671 H   0  0  0  0  0  0  0  0  0  0  0  0
    4.7567   -1.1702   -4.6647 H   0  0  0  0  0  0  0  0  0  0  0  0
    5.0483   -2.7989   -4.0183 H   0  0  0  0  0  0  0  0  0  0  0  0
    7.4196   -2.5543   -4.8138 H   0  0  0  0  0  0  0  0  0  0  0  0
    5.7796   -0.6256   -7.5107 H   0  0  0  0  0  0  0  0  0  0  0  0
    4.2762   -1.4279   -6.9230 H   0  0  0  0  0  0  0  0  0  0  0  0
    5.0003   -1.9074   -8.4795 H   0  0  0  0  0  0  0  0  0  0  0  0
    7.1145    1.0364   -5.5734 H   0  0  0  0  0  0  0  0  0  0  0  0
    9.4295    1.5249   -6.1166 H   0  0  0  0  0  0  0  0  0  0  0  0
   12.7720    3.9502   -4.6971 H   0  0  0  0  0  0  0  0  0  0  0  0
   11.0638    7.6544   -5.2248 H   0  0  0  0  0  0  0  0  0  0  0  0
   14.9932    9.2366   -3.4969 H   0  0  0  0  0  0  0  0  0  0  0  0
   15.7856    7.6457   -3.2628 H   0  0  0  0  0  0  0  0  0  0  0  0
   14.7450    8.3367   -1.9750 H   0  0  0  0  0  0  0  0  0  0  0  0
   13.9008    5.6415   -2.6972 H   0  0  0  0  0  0  0  0  0  0  0  0
    7.3357    3.8288   -2.2994 H   0  0  0  0  0  0  0  0  0  0  0  0
    3.8336    2.5336   -4.0357 H   0  0  0  0  0  0  0  0  0  0  0  0
  1  2  1  0  0  0  0
  1 36  1  0  0  0  0
  1 37  1  0  0  0  0
  1 38  1  0  0  0  0
  2  3  1  0  0  0  0
  3  4  1  0  0  0  0
  3 35  2  0  0  0  0
  4  5  2  0  0  0  0
  4 39  1  0  0  0  0
  5  6  1  0  0  0  0
  5  8  1  0  0  0  0
  6  7  1  0  0  0  0
  7 40  1  0  0  0  0
  7 41  1  0  0  0  0
  7 42  1  0  0  0  0
  8  9  2  0  0  0  0
  8 43  1  0  0  0  0
  9 10  1  0  0  0  0
  9 35  1  0  0  0  0
 10 11  1  0  0  0  0
 10 19  1  0  0  0  0
 11 12  1  0  0  0  0
 11 44  1  0  0  0  0
 11 45  1  0  0  0  0
 12 13  1  0  0  0  0
 12 46  1  0  0  0  0
 12 47  1  0  0  0  0
 13 14  1  0  0  0  0
 13 48  1  0  0  0  0
 13 49  1  0  0  0  0
 14 15  1  0  0  0  0
 14 50  1  0  0  0  0
 15 16  1  0  0  0  0
 15 17  2  0  0  0  0
 15 18  2  0  0  0  0
 16 51  1  0  0  0  0
 16 52  1  0  0  0  0
 16 53  1  0  0  0  0
 19 20  1  0  0  0  0
 19 34  2  0  0  0  0
 20 21  2  0  0  0  0
 20 54  1  0  0  0  0
 21 22  1  0  0  0  0
 21 55  1  0  0  0  0
 22 23  1  0  0  0  0
 22 33  2  0  0  0  0
 23 24  2  0  0  0  0
 24 25  1  0  0  0  0
 24 56  1  0  0  0  0
 25 26  1  0  0  0  0
 25 32  2  0  0  0  0
 26 27  1  0  0  0  0
 26 31  2  0  0  0  0
 27 28  2  0  0  0  0
 27 57  1  0  0  0  0
 28 29  1  0  0  0  0
 29 30  1  0  0  0  0
 29 31  1  0  0  0  0
 30 58  1  0  0  0  0
 30 59  1  0  0  0  0
 30 60  1  0  0  0  0
 31 61  1  0  0  0  0
 32 33  1  0  0  0  0
 33 34  1  0  0  0  0
 34 62  1  0  0  0  0
 35 63  1  0  0  0  0
M  END
$$$$
