CHEMBL3935264
 OpenBabel04072215373D

 63 65  0  0  1  0  0  0  0  0999 V2000
    4.5325    3.5353    1.8245 C   0  0  0  0  0  0  0  0  0  0  0  0
    4.1481    2.5179    2.7117 N   0  0  0  0  0  0  0  0  0  0  0  0
    4.8100    1.3129    2.2508 C   0  0  0  0  0  0  0  0  0  0  0  0
    4.4334    0.2866    3.1310 C   0  0  3  0  0  0  0  0  0  0  0  0
    3.0715    0.3450    2.9151 O   0  0  0  0  0  0  0  0  0  0  0  0
    5.0723   -1.0260    2.7309 C   0  0  0  0  0  0  0  0  0  0  0  0
    6.5646   -0.9730    2.7363 N   0  0  0  0  0  0  0  0  0  0  0  0
    7.2771   -0.5900    1.5531 C   0  0  0  0  0  0  0  0  0  0  0  0
    8.4772    0.0375    1.6575 C   0  0  0  0  0  0  0  0  0  0  0  0
    9.2561    0.5460    0.6899 C   0  0  0  0  0  0  0  0  0  0  0  0
   10.3789    1.2665    0.9793 O   0  0  0  0  0  0  0  0  0  0  0  0
   11.2179    1.8136    0.0117 C   0  0  0  0  0  0  0  0  0  0  0  0
    8.9142    0.1842   -0.5618 C   0  0  0  0  0  0  0  0  0  0  0  0
    7.8108   -0.6628   -0.7825 C   0  0  0  0  0  0  0  0  0  0  0  0
    7.6719   -1.2584   -1.9817 O   0  0  0  0  0  0  0  0  0  0  0  0
    6.6051   -2.1019   -2.2535 C   0  0  0  0  0  0  0  0  0  0  0  0
    6.9026   -0.9280    0.2694 C   0  0  0  0  0  0  0  0  0  0  0  0
    7.3101   -1.4302    3.8942 C   0  0  0  0  0  0  0  0  0  0  0  0
    6.5780   -1.2404    5.0531 C   0  0  0  0  0  0  0  0  0  0  0  0
    6.9773   -1.6829    6.1233 C   0  0  0  0  0  0  0  0  0  0  0  0
    8.0724   -2.2583    6.1614 C   0  0  0  0  0  0  0  0  0  0  0  0
    8.2164   -2.4886    7.2172 N   0  0  0  0  0  0  0  0  0  0  0  0
    8.3138   -2.7101    8.3309 C   0  0  0  0  0  0  0  0  0  0  0  0
    9.3197   -3.4224    8.5681 C   0  0  0  0  0  0  0  0  0  0  0  0
    8.9346   -3.4779   10.6288 C   0  0  0  0  0  0  0  0  0  0  0  0
    7.8269   -3.4394   11.6867 C   0  0  0  0  0  0  0  0  0  0  0  0
    8.2607   -3.8872   12.9668 N   0  0  0  0  0  0  0  0  0  0  0  0
    9.5386   -4.2533   12.9071 N   0  0  0  0  0  0  0  0  0  0  0  0
   10.3017   -4.8374   14.1090 C   0  0  0  0  0  0  0  0  0  0  0  0
    9.9806   -4.0495   11.5666 C   0  0  0  0  0  0  0  0  0  0  0  0
    9.9966   -3.5146    6.8492 N   0  0  0  0  0  0  0  0  0  0  0  0
    9.1154   -2.7094    5.5337 C   0  0  0  0  0  0  0  0  0  0  0  0
    8.6999   -2.1350    4.0216 C   0  0  0  0  0  0  0  0  0  0  0  0
   -0.0638   -1.0431   -1.2479 Cl  0  0  0  0  0  0  0  0  0  0  0  0
    3.8280    4.4523    2.3582 H   0  0  0  0  0  0  0  0  0  0  0  0
    4.3664    3.7957    0.8101 H   0  0  0  0  0  0  0  0  0  0  0  0
    5.7921    3.2737    1.7376 H   0  0  0  0  0  0  0  0  0  0  0  0
    3.1222    2.6623    2.9300 H   0  0  0  0  0  0  0  0  0  0  0  0
    5.9091    1.4071    2.2468 H   0  0  0  0  0  0  0  0  0  0  0  0
    4.3947    1.1055    1.2500 H   0  0  0  0  0  0  0  0  0  0  0  0
    4.7017    0.5279    4.1977 H   0  0  0  0  0  0  0  0  0  0  0  0
    2.7579   -0.1121    2.0973 H   0  0  0  0  0  0  0  0  0  0  0  0
    4.6459   -1.2716    1.7260 H   0  0  0  0  0  0  0  0  0  0  0  0
    4.7158   -1.7913    3.4454 H   0  0  0  0  0  0  0  0  0  0  0  0
    8.9063    0.0654    2.5277 H   0  0  0  0  0  0  0  0  0  0  0  0
   12.0514    2.3696    0.4588 H   0  0  0  0  0  0  0  0  0  0  0  0
   10.6582    2.5076   -0.6519 H   0  0  0  0  0  0  0  0  0  0  0  0
   11.6627    1.0139   -0.5998 H   0  0  0  0  0  0  0  0  0  0  0  0
    9.5447    0.4849   -1.3531 H   0  0  0  0  0  0  0  0  0  0  0  0
    6.6264   -2.4394   -3.2932 H   0  0  0  0  0  0  0  0  0  0  0  0
    5.6156   -1.6133   -2.0623 H   0  0  0  0  0  0  0  0  0  0  0  0
    6.6833   -2.9827   -1.5899 H   0  0  0  0  0  0  0  0  0  0  0  0
    5.9775   -1.4312    0.1056 H   0  0  0  0  0  0  0  0  0  0  0  0
    5.6697   -0.7678    5.2487 H   0  0  0  0  0  0  0  0  0  0  0  0
    6.4331   -1.6779    7.0882 H   0  0  0  0  0  0  0  0  0  0  0  0
    7.5781   -2.3129    8.9201 H   0  0  0  0  0  0  0  0  0  0  0  0
    6.7910   -3.3042   11.6708 H   0  0  0  0  0  0  0  0  0  0  0  0
    9.7269   -4.8194   15.0844 H   0  0  0  0  0  0  0  0  0  0  0  0
   11.2594   -4.2961   14.3276 H   0  0  0  0  0  0  0  0  0  0  0  0
   10.5764   -5.9139   13.9598 H   0  0  0  0  0  0  0  0  0  0  0  0
   10.9582   -4.3509   11.3608 H   0  0  0  0  0  0  0  0  0  0  0  0
    9.0824   -2.0717    2.9686 H   0  0  0  0  0  0  0  0  0  0  0  0
    1.4403   -0.9252   -1.2262 H   0  0  0  0  0  0  0  0  0  0  0  0
  1  2  1  0  0  0  0
  1 35  1  0  0  0  0
  1 36  1  0  0  0  0
  1 37  1  0  0  0  0
  2  3  1  0  0  0  0
  2 38  1  0  0  0  0
  3  4  1  0  0  0  0
  3 39  1  0  0  0  0
  3 40  1  0  0  0  0
  4  5  1  0  0  0  0
  4  6  1  0  0  0  0
  4 41  1  0  0  0  0
  5 42  1  0  0  0  0
  6  7  1  0  0  0  0
  6 43  1  0  0  0  0
  6 44  1  0  0  0  0
  7  8  1  0  0  0  0
  7 18  1  0  0  0  0
  8  9  1  0  0  0  0
  8 17  2  0  0  0  0
  9 10  2  0  0  0  0
  9 45  1  0  0  0  0
 10 11  1  0  0  0  0
 10 13  1  0  0  0  0
 11 12  1  0  0  0  0
 12 46  1  0  0  0  0
 12 47  1  0  0  0  0
 12 48  1  0  0  0  0
 13 14  2  0  0  0  0
 13 49  1  0  0  0  0
 14 15  1  0  0  0  0
 14 17  1  0  0  0  0
 15 16  1  0  0  0  0
 16 50  1  0  0  0  0
 16 51  1  0  0  0  0
 16 52  1  0  0  0  0
 17 53  1  0  0  0  0
 18 19  1  0  0  0  0
 18 33  2  0  0  0  0
 19 20  2  0  0  0  0
 19 54  1  0  0  0  0
 20 21  1  0  0  0  0
 20 55  1  0  0  0  0
 21 22  1  0  0  0  0
 21 32  2  0  0  0  0
 22 23  2  0  0  0  0
 23 24  1  0  0  0  0
 23 56  1  0  0  0  0
 24 25  1  0  0  0  0
 24 31  2  0  0  0  0
 25 26  1  0  0  0  0
 25 30  2  0  0  0  0
 26 27  2  0  0  0  0
 26 57  1  0  0  0  0
 27 28  1  0  0  0  0
 28 29  1  0  0  0  0
 28 30  1  0  0  0  0
 29 58  1  0  0  0  0
 29 59  1  0  0  0  0
 29 60  1  0  0  0  0
 30 61  1  0  0  0  0
 31 32  1  0  0  0  0
 32 33  1  0  0  0  0
 33 62  1  0  0  0  0
 34 63  1  0  0  0  0
M  END
$$$$
