CHEMBL400400
 OpenBabel04072215373D

 33 35  0  0  0  0  0  0  0  0999 V2000
    2.5226    0.6437   -0.4794 C   0  0  0  0  0  0  0  0  0  0  0  0
    1.1199    0.2600   -0.1928 C   0  0  0  0  0  0  0  0  0  0  0  0
    0.0111    1.0198    0.1008 C   0  0  0  0  0  0  0  0  0  0  0  0
   -1.0876    0.1356    0.2794 C   0  0  0  0  0  0  0  0  0  0  0  0
   -2.4818    0.5413    0.6138 C   0  0  0  0  0  0  0  0  0  0  0  0
   -0.6128   -1.1583    0.0812 C   0  0  0  0  0  0  0  0  0  0  0  0
   -1.3013   -2.4015    0.1256 C   0  0  0  0  0  0  0  0  0  0  0  0
   -0.8314   -3.6530    0.0319 C   0  0  0  0  0  0  0  0  0  0  0  0
    0.5365   -4.1581   -0.2481 C   0  0  0  0  0  0  0  0  0  0  0  0
    1.5720   -3.5361   -0.3721 O   0  0  0  0  0  0  0  0  0  0  0  0
    0.3553   -5.5218   -0.3730 N   0  0  0  0  0  0  0  0  0  0  0  0
   -0.9264   -5.9649   -0.1648 N   0  0  0  0  0  0  0  0  0  0  0  0
   -1.6545   -4.9046    0.1067 C   0  0  0  0  0  0  0  0  0  0  0  0
   -3.0504   -5.0339    0.4215 C   0  0  0  0  0  0  0  0  0  0  0  0
   -3.8504   -4.0409    1.5712 S   0  0  0  0  0  0  0  0  0  0  0  0
   -5.3333   -4.7505    1.3223 N   0  0  0  0  0  0  0  0  0  0  0  0
   -5.2714   -5.7804    0.5003 N   0  0  0  0  0  0  0  0  0  0  0  0
   -3.9818   -5.9870    0.0182 C   0  0  0  0  0  0  0  0  0  0  0  0
   -3.7629   -7.1646   -0.8594 C   0  0  0  0  0  0  0  0  0  0  0  0
    0.7299   -1.0555   -0.1884 N   0  0  0  0  0  0  0  0  0  0  0  0
    2.6592    1.7265   -0.3988 H   0  0  0  0  0  0  0  0  0  0  0  0
    2.8012    0.3398   -1.4937 H   0  0  0  0  0  0  0  0  0  0  0  0
    3.2053    0.1606    0.2268 H   0  0  0  0  0  0  0  0  0  0  0  0
   -0.0103    2.1001    0.1779 H   0  0  0  0  0  0  0  0  0  0  0  0
   -2.5577    1.6246    0.7557 H   0  0  0  0  0  0  0  0  0  0  0  0
   -2.8109    0.0573    1.5395 H   0  0  0  0  0  0  0  0  0  0  0  0
   -3.1666    0.2560   -0.1900 H   0  0  0  0  0  0  0  0  0  0  0  0
   -2.3694   -2.2680    0.2422 H   0  0  0  0  0  0  0  0  0  0  0  0
    1.1063   -6.1725   -0.5807 H   0  0  0  0  0  0  0  0  0  0  0  0
   -4.6881   -7.7391   -0.9717 H   0  0  0  0  0  0  0  0  0  0  0  0
   -3.0122   -7.8330   -0.4259 H   0  0  0  0  0  0  0  0  0  0  0  0
   -3.4327   -6.8548   -1.8549 H   0  0  0  0  0  0  0  0  0  0  0  0
    1.3601   -1.8331   -0.3621 H   0  0  0  0  0  0  0  0  0  0  0  0
  1  2  1  0  0  0  0
  1 21  1  0  0  0  0
  1 22  1  0  0  0  0
  1 23  1  0  0  0  0
  2  3  2  0  0  0  0
  2 20  1  0  0  0  0
  3  4  1  0  0  0  0
  3 24  1  0  0  0  0
  4  5  1  0  0  0  0
  4  6  2  0  0  0  0
  5 25  1  0  0  0  0
  5 26  1  0  0  0  0
  5 27  1  0  0  0  0
  6  7  1  0  0  0  0
  6 20  1  0  0  0  0
  7  8  2  0  0  0  0
  7 28  1  0  0  0  0
  8  9  1  0  0  0  0
  8 13  1  0  0  0  0
  9 10  2  0  0  0  0
  9 11  1  0  0  0  0
 11 12  1  0  0  0  0
 11 29  1  0  0  0  0
 12 13  2  0  0  0  0
 13 14  1  0  0  0  0
 14 15  1  0  0  0  0
 14 18  2  0  0  0  0
 15 16  1  0  0  0  0
 16 17  2  0  0  0  0
 17 18  1  0  0  0  0
 18 19  1  0  0  0  0
 19 30  1  0  0  0  0
 19 31  1  0  0  0  0
 19 32  1  0  0  0  0
 20 33  1  0  0  0  0
M  END
$$$$
