CHEMBL2409780
 OpenBabel04072215363D

 57 61  0  0  0  0  0  0  0  0999 V2000
   -2.1066    0.8157    0.1718 C   0  0  0  0  0  0  0  0  0  0  0  0
   -1.8538   -0.5986   -0.1929 C   0  0  0  0  0  0  0  0  0  0  0  0
   -0.6739   -1.3673   -0.0576 C   0  0  0  0  0  0  0  0  0  0  0  0
   -1.0020   -2.6544   -0.4683 C   0  0  0  0  0  0  0  0  0  0  0  0
   -0.2383   -3.8908   -0.4870 C   0  0  0  0  0  0  0  0  0  0  0  0
   -0.7413   -4.9337   -0.9003 O   0  0  0  0  0  0  0  0  0  0  0  0
    1.0499   -3.8426    0.0283 N   0  0  0  0  0  0  0  0  0  0  0  0
    1.9842   -4.9215    0.0125 C   0  0  0  0  0  0  0  0  0  0  0  0
    1.8201   -6.0228   -0.8463 C   0  0  0  0  0  0  0  0  0  0  0  0
    2.7235   -7.0890   -0.8612 C   0  0  0  0  0  0  0  0  0  0  0  0
    2.4225   -8.1365   -1.7051 O   0  0  0  0  0  0  0  0  0  0  0  0
    2.7302   -9.4493   -1.3653 C   0  0  0  0  0  0  0  0  0  0  0  0
    2.7800   -9.8683    0.0368 C   0  0  0  0  0  0  0  0  0  0  0  0
    3.1786  -11.1045    0.3873 C   0  0  0  0  0  0  0  0  0  0  0  0
    3.4761  -12.0566   -0.6210 C   0  0  0  0  0  0  0  0  0  0  0  0
    3.8794  -13.3000   -0.5325 N   0  0  0  0  0  0  0  0  0  0  0  0
    3.9418  -13.7635   -1.8106 C   0  0  0  0  0  0  0  0  0  0  0  0
    4.3000  -15.0538   -2.1243 N   0  0  0  0  0  0  0  0  0  0  0  0
    4.6744  -15.9876   -1.1776 C   0  0  0  0  0  0  0  0  0  0  0  0
    4.8031  -15.8311    0.0248 O   0  0  0  0  0  0  0  0  0  0  0  0
    4.9156  -17.3484   -1.7600 C   0  0  0  0  0  0  0  0  0  0  0  0
    4.0236  -18.4913   -1.3267 C   0  0  0  0  0  0  0  0  0  0  0  0
    5.4606  -18.4682   -0.8981 C   0  0  0  0  0  0  0  0  0  0  0  0
    3.5809  -12.7812   -2.7078 C   0  0  0  0  0  0  0  0  0  0  0  0
    3.3017  -11.6709   -1.9432 N   0  0  0  0  0  0  0  0  0  0  0  0
    2.9349  -10.3783   -2.3195 C   0  0  0  0  0  0  0  0  0  0  0  0
    3.8737   -7.0175   -0.0852 C   0  0  0  0  0  0  0  0  0  0  0  0
    4.0536   -5.9417    0.7832 C   0  0  0  0  0  0  0  0  0  0  0  0
    3.1108   -4.8962    0.8602 C   0  0  0  0  0  0  0  0  0  0  0  0
    3.3541   -3.8101    1.8721 C   0  0  0  0  0  0  0  0  0  0  0  0
   -2.3112   -2.5452   -0.9003 N   0  0  0  0  0  0  0  0  0  0  0  0
   -3.1848   -3.5372   -1.4867 C   0  0  0  0  0  0  0  0  0  0  0  0
   -2.8439   -1.3216   -0.7111 N   0  0  0  0  0  0  0  0  0  0  0  0
   -1.2058    1.2966    0.5627 H   0  0  0  0  0  0  0  0  0  0  0  0
   -2.8836    0.8722    0.9426 H   0  0  0  0  0  0  0  0  0  0  0  0
   -2.4507    1.3848   -0.6985 H   0  0  0  0  0  0  0  0  0  0  0  0
    0.2751   -1.0160    0.3227 H   0  0  0  0  0  0  0  0  0  0  0  0
    1.3116   -3.0146    0.5442 H   0  0  0  0  0  0  0  0  0  0  0  0
    0.9886   -6.0860   -1.5409 H   0  0  0  0  0  0  0  0  0  0  0  0
    2.4881   -9.1693    0.8132 H   0  0  0  0  0  0  0  0  0  0  0  0
    3.2492  -11.4132    1.4241 H   0  0  0  0  0  0  0  0  0  0  0  0
    4.2578  -15.3194   -3.0953 H   0  0  0  0  0  0  0  0  0  0  0  0
    5.2535  -17.3544   -2.7919 H   0  0  0  0  0  0  0  0  0  0  0  0
    3.7248  -19.2194   -2.0698 H   0  0  0  0  0  0  0  0  0  0  0  0
    3.2747  -18.2975   -0.5644 H   0  0  0  0  0  0  0  0  0  0  0  0
    6.1380  -19.1824   -1.3497 H   0  0  0  0  0  0  0  0  0  0  0  0
    5.6742  -18.2600    0.1458 H   0  0  0  0  0  0  0  0  0  0  0  0
    3.5029  -12.7628   -3.7859 H   0  0  0  0  0  0  0  0  0  0  0  0
    2.8608  -10.1633   -3.3768 H   0  0  0  0  0  0  0  0  0  0  0  0
    4.6234   -7.8024   -0.1229 H   0  0  0  0  0  0  0  0  0  0  0  0
    4.9359   -5.9369    1.4216 H   0  0  0  0  0  0  0  0  0  0  0  0
    4.1569   -4.0871    2.5662 H   0  0  0  0  0  0  0  0  0  0  0  0
    2.4596   -3.6439    2.4810 H   0  0  0  0  0  0  0  0  0  0  0  0
    3.6445   -2.8805    1.3752 H   0  0  0  0  0  0  0  0  0  0  0  0
   -2.6557   -4.4356   -1.7894 H   0  0  0  0  0  0  0  0  0  0  0  0
   -3.6407   -3.1029   -2.3810 H   0  0  0  0  0  0  0  0  0  0  0  0
   -3.9549   -3.7855   -0.7523 H   0  0  0  0  0  0  0  0  0  0  0  0
  1  2  1  0  0  0  0
  1 34  1  0  0  0  0
  1 35  1  0  0  0  0
  1 36  1  0  0  0  0
  2  3  1  0  0  0  0
  2 33  2  0  0  0  0
  3  4  2  0  0  0  0
  3 37  1  0  0  0  0
  4  5  1  0  0  0  0
  4 31  1  0  0  0  0
  5  6  2  0  0  0  0
  5  7  1  0  0  0  0
  7  8  1  0  0  0  0
  7 38  1  0  0  0  0
  8  9  1  0  0  0  0
  8 29  2  0  0  0  0
  9 10  2  0  0  0  0
  9 39  1  0  0  0  0
 10 11  1  0  0  0  0
 10 27  1  0  0  0  0
 11 12  1  0  0  0  0
 12 13  1  0  0  0  0
 12 26  2  0  0  0  0
 13 14  2  0  0  0  0
 13 40  1  0  0  0  0
 14 15  1  0  0  0  0
 14 41  1  0  0  0  0
 15 16  2  0  0  0  0
 15 25  1  0  0  0  0
 16 17  1  0  0  0  0
 17 18  1  0  0  0  0
 17 24  2  0  0  0  0
 18 19  1  0  0  0  0
 18 42  1  0  0  0  0
 19 20  2  0  0  0  0
 19 21  1  0  0  0  0
 21 22  1  0  0  0  0
 21 23  1  0  0  0  0
 21 43  1  0  0  0  0
 22 23  1  0  0  0  0
 22 44  1  0  0  0  0
 22 45  1  0  0  0  0
 23 46  1  0  0  0  0
 23 47  1  0  0  0  0
 24 25  1  0  0  0  0
 24 48  1  0  0  0  0
 25 26  1  0  0  0  0
 26 49  1  0  0  0  0
 27 28  2  0  0  0  0
 27 50  1  0  0  0  0
 28 29  1  0  0  0  0
 28 51  1  0  0  0  0
 29 30  1  0  0  0  0
 30 52  1  0  0  0  0
 30 53  1  0  0  0  0
 30 54  1  0  0  0  0
 31 32  1  0  0  0  0
 31 33  1  0  0  0  0
 32 55  1  0  0  0  0
 32 56  1  0  0  0  0
 32 57  1  0  0  0  0
M  END
$$$$
