CHEMBL197186
 OpenBabel04072215363D

 69 73  0  0  0  0  0  0  0  0999 V2000
    7.7461    0.3162    4.9246 C   0  0  0  0  0  0  0  0  0  0  0  0
    7.2514    1.5314    4.3662 O   0  0  0  0  0  0  0  0  0  0  0  0
    5.8853    1.5248    4.1862 C   0  0  0  0  0  0  0  0  0  0  0  0
    5.3241    2.6635    3.6338 C   0  0  0  0  0  0  0  0  0  0  0  0
    3.9588    2.6816    3.3091 C   0  0  0  0  0  0  0  0  0  0  0  0
    3.3690    3.8397    2.7660 N   0  0  0  0  0  0  0  0  0  0  0  0
    3.6918    5.1802    3.0592 C   0  0  0  0  0  0  0  0  0  0  0  0
    4.3161    5.4133    4.2399 N   0  0  0  0  0  0  0  0  0  0  0  0
    4.8325    6.6237    4.4303 C   0  0  0  0  0  0  0  0  0  0  0  0
    4.8324    7.6055    3.5392 N   0  0  0  0  0  0  0  0  0  0  0  0
    4.2006    7.3698    2.3831 C   0  0  0  0  0  0  0  0  0  0  0  0
    4.2699    8.3868    1.4596 C   0  0  0  0  0  0  0  0  0  0  0  0
    3.6649    8.2840    0.2073 C   0  0  0  0  0  0  0  0  0  0  0  0
    3.7289    9.2290   -0.7763 O   0  0  0  0  0  0  0  0  0  0  0  0
    4.5491   10.3709   -0.5051 C   0  0  0  0  0  0  0  0  0  0  0  0
    4.4710   11.3342   -1.6820 C   0  0  0  0  0  0  0  0  0  0  0  0
    5.0148   10.7156   -2.9742 C   0  0  0  0  0  0  0  0  0  0  0  0
    5.0193   11.6649   -4.1004 N   0  0  0  0  0  0  0  0  0  0  0  0
    3.6764   12.1345   -4.5080 C   0  0  0  0  0  0  0  0  0  0  0  0
    2.8342   11.1010   -5.2784 C   0  0  0  0  0  0  0  0  0  0  0  0
    3.5417   10.5539   -6.3978 O   0  0  0  0  0  0  0  0  0  0  0  0
    4.8021   10.0067   -5.9928 C   0  0  0  0  0  0  0  0  0  0  0  0
    5.6653   11.0715   -5.2952 C   0  0  0  0  0  0  0  0  0  0  0  0
    2.9252    7.1499   -0.0925 C   0  0  0  0  0  0  0  0  0  0  0  0
    2.8136    6.1045    0.8317 C   0  0  0  0  0  0  0  0  0  0  0  0
    2.0425    4.9888    0.6017 O   0  0  0  0  0  0  0  0  0  0  0  0
    0.9234    5.0969   -0.3079 C   0  0  0  0  0  0  0  0  0  0  0  0
   -0.2015    5.9533    0.2902 C   0  0  0  0  0  0  0  0  0  0  0  0
   -1.5172    5.7732   -0.4502 C   0  0  0  0  0  0  0  0  0  0  0  0
   -1.8553    4.3942   -0.5496 O   0  0  0  0  0  0  0  0  0  0  0  0
   -0.8998    3.6738   -1.3222 C   0  0  0  0  0  0  0  0  0  0  0  0
    0.4510    3.6741   -0.6256 C   0  0  0  0  0  0  0  0  0  0  0  0
    3.5319    6.1796    2.0726 C   0  0  0  0  0  0  0  0  0  0  0  0
    3.2103    1.5359    3.5981 C   0  0  0  0  0  0  0  0  0  0  0  0
    1.5328    1.4218    3.2313 Cl  0  0  0  0  0  0  0  0  0  0  0  0
    3.8564    0.4562    4.1977 C   0  0  0  0  0  0  0  0  0  0  0  0
    5.1740    0.4197    4.4911 N   0  0  0  0  0  0  0  0  0  0  0  0
    8.8342    0.3161    4.8201 H   0  0  0  0  0  0  0  0  0  0  0  0
    7.3743   -0.5702    4.3967 H   0  0  0  0  0  0  0  0  0  0  0  0
    7.5027    0.2679    5.9898 H   0  0  0  0  0  0  0  0  0  0  0  0
    5.9582    3.5189    3.4255 H   0  0  0  0  0  0  0  0  0  0  0  0
    2.5236    3.7236    2.2167 H   0  0  0  0  0  0  0  0  0  0  0  0
    5.3153    6.8168    5.3818 H   0  0  0  0  0  0  0  0  0  0  0  0
    4.8378    9.2643    1.7416 H   0  0  0  0  0  0  0  0  0  0  0  0
    5.5893   10.0637   -0.3414 H   0  0  0  0  0  0  0  0  0  0  0  0
    4.1700   10.8948    0.3805 H   0  0  0  0  0  0  0  0  0  0  0  0
    5.0306   12.2443   -1.4373 H   0  0  0  0  0  0  0  0  0  0  0  0
    3.4181   11.6072   -1.8106 H   0  0  0  0  0  0  0  0  0  0  0  0
    4.4598    9.8022   -3.2140 H   0  0  0  0  0  0  0  0  0  0  0  0
    6.0527   10.4118   -2.7795 H   0  0  0  0  0  0  0  0  0  0  0  0
    3.8304   13.0014   -5.1616 H   0  0  0  0  0  0  0  0  0  0  0  0
    3.1038   12.5195   -3.6590 H   0  0  0  0  0  0  0  0  0  0  0  0
    1.9400   11.5938   -5.6754 H   0  0  0  0  0  0  0  0  0  0  0  0
    2.4993   10.2849   -4.6286 H   0  0  0  0  0  0  0  0  0  0  0  0
    5.3114    9.6521   -6.8940 H   0  0  0  0  0  0  0  0  0  0  0  0
    4.6290    9.1335   -5.3532 H   0  0  0  0  0  0  0  0  0  0  0  0
    5.8478   11.8878   -6.0068 H   0  0  0  0  0  0  0  0  0  0  0  0
    6.6491   10.6616   -5.0407 H   0  0  0  0  0  0  0  0  0  0  0  0
    2.4560    7.1108   -1.0697 H   0  0  0  0  0  0  0  0  0  0  0  0
    1.2441    5.5183   -1.2677 H   0  0  0  0  0  0  0  0  0  0  0  0
    0.0752    7.0139    0.2719 H   0  0  0  0  0  0  0  0  0  0  0  0
   -0.3345    5.6912    1.3468 H   0  0  0  0  0  0  0  0  0  0  0  0
   -1.4765    6.2121   -1.4547 H   0  0  0  0  0  0  0  0  0  0  0  0
   -2.3234    6.2779    0.0922 H   0  0  0  0  0  0  0  0  0  0  0  0
   -0.8375    4.1114   -2.3256 H   0  0  0  0  0  0  0  0  0  0  0  0
   -1.2646    2.6476   -1.4354 H   0  0  0  0  0  0  0  0  0  0  0  0
    1.1944    3.1744   -1.2588 H   0  0  0  0  0  0  0  0  0  0  0  0
    0.3928    3.0887    0.3002 H   0  0  0  0  0  0  0  0  0  0  0  0
    3.3120   -0.4470    4.4610 H   0  0  0  0  0  0  0  0  0  0  0  0
  1  2  1  0  0  0  0
  1 38  1  0  0  0  0
  1 39  1  0  0  0  0
  1 40  1  0  0  0  0
  2  3  1  0  0  0  0
  3  4  1  0  0  0  0
  3 37  2  0  0  0  0
  4  5  2  0  0  0  0
  4 41  1  0  0  0  0
  5  6  1  0  0  0  0
  5 34  1  0  0  0  0
  6  7  1  0  0  0  0
  6 42  1  0  0  0  0
  7  8  1  0  0  0  0
  7 33  2  0  0  0  0
  8  9  2  0  0  0  0
  9 10  1  0  0  0  0
  9 43  1  0  0  0  0
 10 11  2  0  0  0  0
 11 12  1  0  0  0  0
 11 33  1  0  0  0  0
 12 13  2  0  0  0  0
 12 44  1  0  0  0  0
 13 14  1  0  0  0  0
 13 24  1  0  0  0  0
 14 15  1  0  0  0  0
 15 16  1  0  0  0  0
 15 45  1  0  0  0  0
 15 46  1  0  0  0  0
 16 17  1  0  0  0  0
 16 47  1  0  0  0  0
 16 48  1  0  0  0  0
 17 18  1  0  0  0  0
 17 49  1  0  0  0  0
 17 50  1  0  0  0  0
 18 19  1  0  0  0  0
 18 23  1  0  0  0  0
 19 20  1  0  0  0  0
 19 51  1  0  0  0  0
 19 52  1  0  0  0  0
 20 21  1  0  0  0  0
 20 53  1  0  0  0  0
 20 54  1  0  0  0  0
 21 22  1  0  0  0  0
 22 23  1  0  0  0  0
 22 55  1  0  0  0  0
 22 56  1  0  0  0  0
 23 57  1  0  0  0  0
 23 58  1  0  0  0  0
 24 25  2  0  0  0  0
 24 59  1  0  0  0  0
 25 26  1  0  0  0  0
 25 33  1  0  0  0  0
 26 27  1  0  0  0  0
 27 28  1  0  0  0  0
 27 32  1  0  0  0  0
 27 60  1  0  0  0  0
 28 29  1  0  0  0  0
 28 61  1  0  0  0  0
 28 62  1  0  0  0  0
 29 30  1  0  0  0  0
 29 63  1  0  0  0  0
 29 64  1  0  0  0  0
 30 31  1  0  0  0  0
 31 32  1  0  0  0  0
 31 65  1  0  0  0  0
 31 66  1  0  0  0  0
 32 67  1  0  0  0  0
 32 68  1  0  0  0  0
 34 35  1  0  0  0  0
 34 36  2  0  0  0  0
 36 37  1  0  0  0  0
 36 69  1  0  0  0  0
M  END
$$$$
