CHEMBL2386797
 OpenBabel04072215363D

 72 76  0  0  0  0  0  0  0  0999 V2000
    2.7540    1.9417   -1.4083 O   0  0  0  0  0  0  0  0  0  0  0  0
    1.7779    1.8765   -2.1466 C   0  0  0  0  0  0  0  0  0  0  0  0
    1.3921    0.6909   -2.7365 N   0  0  0  0  0  0  0  0  0  0  0  0
    2.2119   -0.4921   -2.5726 C   0  0  0  0  0  0  0  0  0  0  0  0
    3.2392   -0.6019   -3.6709 C   0  0  0  0  0  0  0  0  0  0  0  0
    4.4775    0.0340   -3.5337 C   0  0  0  0  0  0  0  0  0  0  0  0
    5.4276   -0.0472   -4.5484 C   0  0  0  0  0  0  0  0  0  0  0  0
    5.1669   -0.7584   -5.7313 C   0  0  0  0  0  0  0  0  0  0  0  0
    6.1814   -0.8449   -6.7852 C   0  0  0  0  0  0  0  0  0  0  0  0
    7.4897   -0.2977   -6.7422 C   0  0  0  0  0  0  0  0  0  0  0  0
    8.0947   -0.6228   -7.9290 C   0  0  0  0  0  0  0  0  0  0  0  0
    9.3880   -0.3232   -8.3476 N   0  0  0  0  0  0  0  0  0  0  0  0
   10.3095    0.4203   -7.5240 C   0  0  0  0  0  0  0  0  0  0  0  0
    9.9993    0.8220   -6.4137 O   0  0  0  0  0  0  0  0  0  0  0  0
   11.6706    0.6569   -8.0436 C   0  0  0  0  0  0  0  0  0  0  0  0
   11.9482    0.7435   -9.4097 C   0  0  0  0  0  0  0  0  0  0  0  0
   13.2592    0.9974   -9.8298 C   0  0  0  0  0  0  0  0  0  0  0  0
   14.2833    1.1863   -8.8933 C   0  0  0  0  0  0  0  0  0  0  0  0
   15.5873    1.4751   -9.1998 O   0  0  0  0  0  0  0  0  0  0  0  0
   15.7671    2.1605  -10.4445 C   0  0  0  0  0  0  0  0  0  0  0  0
   17.0521    3.0033  -10.4040 C   0  0  0  0  0  0  0  0  0  0  0  0
   17.3236    3.7409  -11.6545 N   0  0  0  0  0  0  0  0  0  0  0  0
   18.5620    4.5501  -11.5378 C   0  0  0  0  0  0  0  0  0  0  0  0
   18.3936    5.8221  -10.6843 C   0  0  0  0  0  0  0  0  0  0  0  0
   17.3362    6.6498  -11.1854 O   0  0  0  0  0  0  0  0  0  0  0  0
   16.1033    5.9237  -11.2307 C   0  0  0  0  0  0  0  0  0  0  0  0
   16.2413    4.6547  -12.0870 C   0  0  0  0  0  0  0  0  0  0  0  0
   13.9997    1.0912   -7.5329 C   0  0  0  0  0  0  0  0  0  0  0  0
   12.6974    0.8395   -7.1065 C   0  0  0  0  0  0  0  0  0  0  0  0
    7.1437   -1.3244   -8.6205 N   0  0  0  0  0  0  0  0  0  0  0  0
    5.9863   -1.4789   -7.9539 N   0  0  0  0  0  0  0  0  0  0  0  0
    3.9206   -1.3794   -5.8728 C   0  0  0  0  0  0  0  0  0  0  0  0
    2.9628   -1.2972   -4.8545 C   0  0  0  0  0  0  0  0  0  0  0  0
    0.9362    2.9135   -2.4850 N   0  0  0  0  0  0  0  0  0  0  0  0
    1.0590    4.2655   -2.1017 C   0  0  0  0  0  0  0  0  0  0  0  0
    2.1223    4.7595   -1.3385 C   0  0  0  0  0  0  0  0  0  0  0  0
    2.1734    6.1031   -0.9668 C   0  0  0  0  0  0  0  0  0  0  0  0
    1.1695    6.9786   -1.3672 C   0  0  0  0  0  0  0  0  0  0  0  0
    0.1156    6.5076   -2.1481 C   0  0  0  0  0  0  0  0  0  0  0  0
    0.0599    5.1579   -2.5124 C   0  0  0  0  0  0  0  0  0  0  0  0
    0.8794    0.7600   -3.6006 H   0  0  0  0  0  0  0  0  0  0  0  0
    1.5493   -1.3641   -2.5894 H   0  0  0  0  0  0  0  0  0  0  0  0
    2.7066   -0.4863   -1.5940 H   0  0  0  0  0  0  0  0  0  0  0  0
    4.7073    0.6033   -2.6321 H   0  0  0  0  0  0  0  0  0  0  0  0
    6.3729    0.4651   -4.3854 H   0  0  0  0  0  0  0  0  0  0  0  0
    7.9130    0.2555   -5.9196 H   0  0  0  0  0  0  0  0  0  0  0  0
    9.6970   -0.6886   -9.2372 H   0  0  0  0  0  0  0  0  0  0  0  0
   11.1710    0.6622  -10.1632 H   0  0  0  0  0  0  0  0  0  0  0  0
   13.4575    1.0587  -10.8968 H   0  0  0  0  0  0  0  0  0  0  0  0
   14.9210    2.8345  -10.6057 H   0  0  0  0  0  0  0  0  0  0  0  0
   15.8224    1.4230  -11.2533 H   0  0  0  0  0  0  0  0  0  0  0  0
   17.8906    2.3204  -10.2089 H   0  0  0  0  0  0  0  0  0  0  0  0
   17.0068    3.6661   -9.5317 H   0  0  0  0  0  0  0  0  0  0  0  0
   18.8466    4.8538  -12.5540 H   0  0  0  0  0  0  0  0  0  0  0  0
   19.3892    3.9405  -11.1573 H   0  0  0  0  0  0  0  0  0  0  0  0
   19.3148    6.4120  -10.7135 H   0  0  0  0  0  0  0  0  0  0  0  0
   18.1911    5.5843   -9.6342 H   0  0  0  0  0  0  0  0  0  0  0  0
   15.3500    6.5835  -11.6730 H   0  0  0  0  0  0  0  0  0  0  0  0
   15.7806    5.6930  -10.2088 H   0  0  0  0  0  0  0  0  0  0  0  0
   16.4764    4.9622  -13.1144 H   0  0  0  0  0  0  0  0  0  0  0  0
   15.2792    4.1398  -12.1629 H   0  0  0  0  0  0  0  0  0  0  0  0
   14.7897    1.2419   -6.7999 H   0  0  0  0  0  0  0  0  0  0  0  0
   12.4897    0.7970   -6.0376 H   0  0  0  0  0  0  0  0  0  0  0  0
    7.2059   -1.7289   -9.5472 H   0  0  0  0  0  0  0  0  0  0  0  0
    3.6837   -1.9350   -6.7783 H   0  0  0  0  0  0  0  0  0  0  0  0
    2.0015   -1.7878   -4.9929 H   0  0  0  0  0  0  0  0  0  0  0  0
    0.0914    2.6576   -2.9751 H   0  0  0  0  0  0  0  0  0  0  0  0
    2.9314    4.1182   -1.0049 H   0  0  0  0  0  0  0  0  0  0  0  0
    3.0009    6.4594   -0.3595 H   0  0  0  0  0  0  0  0  0  0  0  0
    1.2098    8.0221   -1.0699 H   0  0  0  0  0  0  0  0  0  0  0  0
   -0.6637    7.1926   -2.4706 H   0  0  0  0  0  0  0  0  0  0  0  0
   -0.7730    4.8207   -3.1228 H   0  0  0  0  0  0  0  0  0  0  0  0
  1  2  2  0  0  0  0
  2  3  1  0  0  0  0
  2 34  1  0  0  0  0
  3  4  1  0  0  0  0
  3 41  1  0  0  0  0
  4  5  1  0  0  0  0
  4 42  1  0  0  0  0
  4 43  1  0  0  0  0
  5  6  1  0  0  0  0
  5 33  2  0  0  0  0
  6  7  2  0  0  0  0
  6 44  1  0  0  0  0
  7  8  1  0  0  0  0
  7 45  1  0  0  0  0
  8  9  1  0  0  0  0
  8 32  2  0  0  0  0
  9 10  1  0  0  0  0
  9 31  2  0  0  0  0
 10 11  2  0  0  0  0
 10 46  1  0  0  0  0
 11 12  1  0  0  0  0
 11 30  1  0  0  0  0
 12 13  1  0  0  0  0
 12 47  1  0  0  0  0
 13 14  2  0  0  0  0
 13 15  1  0  0  0  0
 15 16  1  0  0  0  0
 15 29  2  0  0  0  0
 16 17  2  0  0  0  0
 16 48  1  0  0  0  0
 17 18  1  0  0  0  0
 17 49  1  0  0  0  0
 18 19  1  0  0  0  0
 18 28  2  0  0  0  0
 19 20  1  0  0  0  0
 20 21  1  0  0  0  0
 20 50  1  0  0  0  0
 20 51  1  0  0  0  0
 21 22  1  0  0  0  0
 21 52  1  0  0  0  0
 21 53  1  0  0  0  0
 22 23  1  0  0  0  0
 22 27  1  0  0  0  0
 23 24  1  0  0  0  0
 23 54  1  0  0  0  0
 23 55  1  0  0  0  0
 24 25  1  0  0  0  0
 24 56  1  0  0  0  0
 24 57  1  0  0  0  0
 25 26  1  0  0  0  0
 26 27  1  0  0  0  0
 26 58  1  0  0  0  0
 26 59  1  0  0  0  0
 27 60  1  0  0  0  0
 27 61  1  0  0  0  0
 28 29  1  0  0  0  0
 28 62  1  0  0  0  0
 29 63  1  0  0  0  0
 30 31  1  0  0  0  0
 30 64  1  0  0  0  0
 32 33  1  0  0  0  0
 32 65  1  0  0  0  0
 33 66  1  0  0  0  0
 34 35  1  0  0  0  0
 34 67  1  0  0  0  0
 35 36  1  0  0  0  0
 35 40  2  0  0  0  0
 36 37  2  0  0  0  0
 36 68  1  0  0  0  0
 37 38  1  0  0  0  0
 37 69  1  0  0  0  0
 38 39  2  0  0  0  0
 38 70  1  0  0  0  0
 39 40  1  0  0  0  0
 39 71  1  0  0  0  0
 40 72  1  0  0  0  0
M  END
$$$$
