CHEMBL4445335
 OpenBabel04072215383D

 75 80  0  0  0  0  0  0  0  0999 V2000
   -0.9133   -5.3829   -0.4876 C   0  0  0  0  0  0  0  0  0  0  0  0
   -1.6453   -4.0816   -0.3603 C   0  0  0  0  0  0  0  0  0  0  0  0
   -2.8562   -3.8854   -1.0240 C   0  0  0  0  0  0  0  0  0  0  0  0
   -3.5541   -2.6838   -0.8951 C   0  0  0  0  0  0  0  0  0  0  0  0
   -3.0557   -1.6516   -0.0963 C   0  0  0  0  0  0  0  0  0  0  0  0
   -3.7327   -0.4269    0.0738 N   0  0  0  0  0  0  0  0  0  0  0  0
   -5.0014   -0.1069   -0.3799 C   0  0  0  0  0  0  0  0  0  0  0  0
   -5.7742   -0.8131   -1.0148 O   0  0  0  0  0  0  0  0  0  0  0  0
   -5.4300    1.2766   -0.0022 C   0  0  0  0  0  0  0  0  0  0  0  0
   -5.5146    1.5237    1.4701 C   0  0  0  0  0  0  0  0  0  0  0  0
   -4.5068    1.9778    2.0018 O   0  0  0  0  0  0  0  0  0  0  0  0
   -6.6738    1.1080    2.1031 N   0  0  0  0  0  0  0  0  0  0  0  0
   -6.8696    1.1964    3.5035 C   0  0  0  0  0  0  0  0  0  0  0  0
   -6.0914    2.0410    4.2949 C   0  0  0  0  0  0  0  0  0  0  0  0
   -6.2260    2.0532    5.6820 C   0  0  0  0  0  0  0  0  0  0  0  0
   -7.1700    1.2551    6.3286 C   0  0  0  0  0  0  0  0  0  0  0  0
   -7.2648    1.2266    7.7385 N   0  0  0  0  0  0  0  0  0  0  0  0
   -6.9312    2.2900    8.5973 C   0  0  0  0  0  0  0  0  0  0  0  0
   -6.4804    2.0003    9.8235 N   0  0  0  0  0  0  0  0  0  0  0  0
   -6.1882    3.0595   10.6234 C   0  0  0  0  0  0  0  0  0  0  0  0
   -6.3092    4.3798   10.2513 C   0  0  0  0  0  0  0  0  0  0  0  0
   -6.0229    5.3639   11.1101 F   0  0  0  0  0  0  0  0  0  0  0  0
   -6.7644    4.6064    8.9773 C   0  0  0  0  0  0  0  0  0  0  0  0
   -6.9656    5.9272    8.3168 C   0  0  0  0  0  0  0  0  0  0  0  0
   -7.9493    5.9618    7.3083 C   0  0  0  0  0  0  0  0  0  0  0  0
   -8.0622    7.0242    6.4335 C   0  0  0  0  0  0  0  0  0  0  0  0
   -8.9711    6.9721    5.4482 F   0  0  0  0  0  0  0  0  0  0  0  0
   -7.2484    8.1419    6.5999 C   0  0  0  0  0  0  0  0  0  0  0  0
   -7.1953    9.2517    5.8198 N   0  0  0  0  0  0  0  0  0  0  0  0
   -6.4859   10.1255    6.4873 C   0  0  0  0  0  0  0  0  0  0  0  0
   -6.4410   11.5460    6.0660 C   0  0  0  0  0  0  0  0  0  0  0  0
   -5.9412    9.5614    7.6348 N   0  0  0  0  0  0  0  0  0  0  0  0
   -5.2274   10.2976    8.6851 C   0  0  0  0  0  0  0  0  0  0  0  0
   -4.1354   11.2479    8.1605 C   0  0  0  0  0  0  0  0  0  0  0  0
   -6.2058   11.0788    9.5753 C   0  0  0  0  0  0  0  0  0  0  0  0
   -6.3890    8.2317    7.7014 C   0  0  0  0  0  0  0  0  0  0  0  0
   -6.2011    7.1112    8.5623 C   0  0  0  0  0  0  0  0  0  0  0  0
   -7.0799    3.5537    8.1707 N   0  0  0  0  0  0  0  0  0  0  0  0
   -7.9671    0.4178    5.5360 C   0  0  0  0  0  0  0  0  0  0  0  0
   -7.8384    0.4041    4.1322 C   0  0  0  0  0  0  0  0  0  0  0  0
   -6.2742    2.0803   -0.9813 C   0  0  0  0  0  0  0  0  0  0  0  0
   -4.8306    2.4327   -0.8220 C   0  0  0  0  0  0  0  0  0  0  0  0
   -1.8348   -1.8404    0.5622 C   0  0  0  0  0  0  0  0  0  0  0  0
   -1.1340   -3.0469    0.4319 C   0  0  0  0  0  0  0  0  0  0  0  0
   -1.4471   -6.0739   -1.1514 H   0  0  0  0  0  0  0  0  0  0  0  0
   -0.8251   -5.8648    0.4911 H   0  0  0  0  0  0  0  0  0  0  0  0
    0.0833   -5.2193   -0.9070 H   0  0  0  0  0  0  0  0  0  0  0  0
   -3.2799   -4.6714   -1.6495 H   0  0  0  0  0  0  0  0  0  0  0  0
   -4.4867   -2.5862   -1.4395 H   0  0  0  0  0  0  0  0  0  0  0  0
   -3.2731    0.2665    0.6620 H   0  0  0  0  0  0  0  0  0  0  0  0
   -7.3397    0.5633    1.5662 H   0  0  0  0  0  0  0  0  0  0  0  0
   -5.3661    2.7256    3.8743 H   0  0  0  0  0  0  0  0  0  0  0  0
   -5.5609    2.6999    6.2479 H   0  0  0  0  0  0  0  0  0  0  0  0
   -6.8629    0.3846    8.1382 H   0  0  0  0  0  0  0  0  0  0  0  0
   -5.8341    2.7958   11.6180 H   0  0  0  0  0  0  0  0  0  0  0  0
   -8.6181    5.1175    7.1474 H   0  0  0  0  0  0  0  0  0  0  0  0
   -7.2421   11.7161    5.3360 H   0  0  0  0  0  0  0  0  0  0  0  0
   -5.4950   11.7968    5.5818 H   0  0  0  0  0  0  0  0  0  0  0  0
   -6.6345   12.2252    6.8957 H   0  0  0  0  0  0  0  0  0  0  0  0
   -4.7302    9.5374    9.2990 H   0  0  0  0  0  0  0  0  0  0  0  0
   -4.5396   12.2346    7.9020 H   0  0  0  0  0  0  0  0  0  0  0  0
   -3.6319   10.8519    7.2733 H   0  0  0  0  0  0  0  0  0  0  0  0
   -3.3780   11.4269    8.9318 H   0  0  0  0  0  0  0  0  0  0  0  0
   -6.5914   11.9730    9.0723 H   0  0  0  0  0  0  0  0  0  0  0  0
   -5.7104   11.4203   10.4904 H   0  0  0  0  0  0  0  0  0  0  0  0
   -7.0706   10.4704    9.8578 H   0  0  0  0  0  0  0  0  0  0  0  0
   -5.4659    7.1450    9.3609 H   0  0  0  0  0  0  0  0  0  0  0  0
   -8.7125   -0.2215    6.0065 H   0  0  0  0  0  0  0  0  0  0  0  0
   -8.4845   -0.2512    3.5537 H   0  0  0  0  0  0  0  0  0  0  0  0
   -7.0084    2.7784   -0.5984 H   0  0  0  0  0  0  0  0  0  0  0  0
   -6.5605    1.6145   -1.9211 H   0  0  0  0  0  0  0  0  0  0  0  0
   -4.5862    3.3560   -0.3018 H   0  0  0  0  0  0  0  0  0  0  0  0
   -4.1338    2.1851   -1.6147 H   0  0  0  0  0  0  0  0  0  0  0  0
   -1.4145   -1.0572    1.1901 H   0  0  0  0  0  0  0  0  0  0  0  0
   -0.1916   -3.1761    0.9584 H   0  0  0  0  0  0  0  0  0  0  0  0
  1  2  1  0  0  0  0
  1 45  1  0  0  0  0
  1 46  1  0  0  0  0
  1 47  1  0  0  0  0
  2  3  1  0  0  0  0
  2 44  2  0  0  0  0
  3  4  2  0  0  0  0
  3 48  1  0  0  0  0
  4  5  1  0  0  0  0
  4 49  1  0  0  0  0
  5  6  1  0  0  0  0
  5 43  2  0  0  0  0
  6  7  1  0  0  0  0
  6 50  1  0  0  0  0
  7  8  2  0  0  0  0
  7  9  1  0  0  0  0
  9 10  1  0  0  0  0
  9 41  1  0  0  0  0
  9 42  1  0  0  0  0
 10 11  2  0  0  0  0
 10 12  1  0  0  0  0
 12 13  1  0  0  0  0
 12 51  1  0  0  0  0
 13 14  1  0  0  0  0
 13 40  2  0  0  0  0
 14 15  2  0  0  0  0
 14 52  1  0  0  0  0
 15 16  1  0  0  0  0
 15 53  1  0  0  0  0
 16 17  1  0  0  0  0
 16 39  2  0  0  0  0
 17 18  1  0  0  0  0
 17 54  1  0  0  0  0
 18 19  1  0  0  0  0
 18 38  2  0  0  0  0
 19 20  2  0  0  0  0
 20 21  1  0  0  0  0
 20 55  1  0  0  0  0
 21 22  1  0  0  0  0
 21 23  2  0  0  0  0
 23 24  1  0  0  0  0
 23 38  1  0  0  0  0
 24 25  1  0  0  0  0
 24 37  2  0  0  0  0
 25 26  2  0  0  0  0
 25 56  1  0  0  0  0
 26 27  1  0  0  0  0
 26 28  1  0  0  0  0
 28 29  1  0  0  0  0
 28 36  2  0  0  0  0
 29 30  2  0  0  0  0
 30 31  1  0  0  0  0
 30 32  1  0  0  0  0
 31 57  1  0  0  0  0
 31 58  1  0  0  0  0
 31 59  1  0  0  0  0
 32 33  1  0  0  0  0
 32 36  1  0  0  0  0
 33 34  1  0  0  0  0
 33 35  1  0  0  0  0
 33 60  1  0  0  0  0
 34 61  1  0  0  0  0
 34 62  1  0  0  0  0
 34 63  1  0  0  0  0
 35 64  1  0  0  0  0
 35 65  1  0  0  0  0
 35 66  1  0  0  0  0
 36 37  1  0  0  0  0
 37 67  1  0  0  0  0
 39 40  1  0  0  0  0
 39 68  1  0  0  0  0
 40 69  1  0  0  0  0
 41 42  1  0  0  0  0
 41 70  1  0  0  0  0
 41 71  1  0  0  0  0
 42 72  1  0  0  0  0
 42 73  1  0  0  0  0
 43 44  1  0  0  0  0
 43 74  1  0  0  0  0
 44 75  1  0  0  0  0
M  END
$$$$
