CHEMBL3968567
 OpenBabel04072215373D

 52 55  0  0  0  0  0  0  0  0999 V2000
    1.0730   -0.1713   -0.5193 O   0  0  0  0  0  0  0  0  0  0  0  0
    2.1814    0.0837   -0.0595 C   0  0  0  0  0  0  0  0  0  0  0  0
    2.7500   -0.5928    1.0084 N   0  0  0  0  0  0  0  0  0  0  0  0
    2.1354   -1.6586    1.7150 C   0  0  0  0  0  0  0  0  0  0  0  0
    0.9977   -2.3206    1.2477 C   0  0  0  0  0  0  0  0  0  0  0  0
    0.3786   -3.3164    2.0021 C   0  0  0  0  0  0  0  0  0  0  0  0
    0.9454   -3.7462    3.1991 C   0  0  0  0  0  0  0  0  0  0  0  0
    0.4253   -4.7788    3.9550 O   0  0  0  0  0  0  0  0  0  0  0  0
   -0.1366   -5.8645    3.3056 C   0  0  0  0  0  0  0  0  0  0  0  0
    0.2959   -6.3200    2.0628 C   0  0  0  0  0  0  0  0  0  0  0  0
   -0.3898   -7.3638    1.4867 C   0  0  0  0  0  0  0  0  0  0  0  0
   -1.4007   -8.0056    2.0946 N   0  0  0  0  0  0  0  0  0  0  0  0
   -1.7699   -7.6246    3.3287 C   0  0  0  0  0  0  0  0  0  0  0  0
   -2.7893   -8.3354    3.9916 N   0  0  0  0  0  0  0  0  0  0  0  0
   -3.4365   -9.4269    3.4490 C   0  0  0  0  0  0  0  0  0  0  0  0
   -3.2531   -9.9307    2.3504 O   0  0  0  0  0  0  0  0  0  0  0  0
   -4.4737  -10.0848    4.3016 C   0  0  0  0  0  0  0  0  0  0  0  0
   -5.0097   -9.6054    5.6228 C   0  0  0  0  0  0  0  0  0  0  0  0
   -4.0536  -10.7632    5.5849 C   0  0  0  0  0  0  0  0  0  0  0  0
   -1.1628   -6.5458    3.9694 C   0  0  0  0  0  0  0  0  0  0  0  0
    2.0780   -3.0904    3.6862 C   0  0  0  0  0  0  0  0  0  0  0  0
    2.6736   -2.0540    2.9460 C   0  0  0  0  0  0  0  0  0  0  0  0
    2.9885    1.1047   -0.5325 N   0  0  0  0  0  0  0  0  0  0  0  0
    2.6423    2.0347   -1.5443 C   0  0  0  0  0  0  0  0  0  0  0  0
    1.4134    2.0374   -2.2147 C   0  0  0  0  0  0  0  0  0  0  0  0
    1.1321    2.9878   -3.1972 C   0  0  0  0  0  0  0  0  0  0  0  0
    2.0694    3.9593   -3.5060 C   0  0  0  0  0  0  0  0  0  0  0  0
    1.7657    4.8598   -4.4477 F   0  0  0  0  0  0  0  0  0  0  0  0
    3.2933    4.0033   -2.8470 C   0  0  0  0  0  0  0  0  0  0  0  0
    4.2822    5.0902   -3.1366 C   0  0  0  0  0  0  0  0  0  0  0  0
    3.8993    5.9943   -4.0765 F   0  0  0  0  0  0  0  0  0  0  0  0
    4.5692    5.8194   -2.0196 F   0  0  0  0  0  0  0  0  0  0  0  0
    5.4786    4.5945   -3.5625 F   0  0  0  0  0  0  0  0  0  0  0  0
    3.5803    3.0220   -1.8743 C   0  0  0  0  0  0  0  0  0  0  0  0
    3.5808   -0.1980    1.4237 H   0  0  0  0  0  0  0  0  0  0  0  0
    0.5528   -2.0983    0.2837 H   0  0  0  0  0  0  0  0  0  0  0  0
   -0.5317   -3.7631    1.6115 H   0  0  0  0  0  0  0  0  0  0  0  0
    1.1178   -5.8633    1.5253 H   0  0  0  0  0  0  0  0  0  0  0  0
   -0.1458   -7.7241    0.4922 H   0  0  0  0  0  0  0  0  0  0  0  0
   -3.0276   -8.0412    4.9230 H   0  0  0  0  0  0  0  0  0  0  0  0
   -5.1890  -10.6338    3.6902 H   0  0  0  0  0  0  0  0  0  0  0  0
   -6.0522   -9.8254    5.8377 H   0  0  0  0  0  0  0  0  0  0  0  0
   -4.6753   -8.6722    6.0518 H   0  0  0  0  0  0  0  0  0  0  0  0
   -4.4351  -11.7638    5.7592 H   0  0  0  0  0  0  0  0  0  0  0  0
   -3.0437  -10.6099    5.9469 H   0  0  0  0  0  0  0  0  0  0  0  0
   -1.4696   -6.2276    4.9573 H   0  0  0  0  0  0  0  0  0  0  0  0
    2.5029   -3.3830    4.6430 H   0  0  0  0  0  0  0  0  0  0  0  0
    3.5488   -1.5581    3.3571 H   0  0  0  0  0  0  0  0  0  0  0  0
    3.9160    1.1751   -0.1437 H   0  0  0  0  0  0  0  0  0  0  0  0
    0.6338    1.3133   -2.0052 H   0  0  0  0  0  0  0  0  0  0  0  0
    0.1750    2.9722   -3.7135 H   0  0  0  0  0  0  0  0  0  0  0  0
    4.5436    3.0556   -1.3675 H   0  0  0  0  0  0  0  0  0  0  0  0
  1  2  2  0  0  0  0
  2  3  1  0  0  0  0
  2 23  1  0  0  0  0
  3  4  1  0  0  0  0
  3 35  1  0  0  0  0
  4  5  1  0  0  0  0
  4 22  2  0  0  0  0
  5  6  2  0  0  0  0
  5 36  1  0  0  0  0
  6  7  1  0  0  0  0
  6 37  1  0  0  0  0
  7  8  1  0  0  0  0
  7 21  2  0  0  0  0
  8  9  1  0  0  0  0
  9 10  1  0  0  0  0
  9 20  2  0  0  0  0
 10 11  2  0  0  0  0
 10 38  1  0  0  0  0
 11 12  1  0  0  0  0
 11 39  1  0  0  0  0
 12 13  2  0  0  0  0
 13 14  1  0  0  0  0
 13 20  1  0  0  0  0
 14 15  1  0  0  0  0
 14 40  1  0  0  0  0
 15 16  2  0  0  0  0
 15 17  1  0  0  0  0
 17 18  1  0  0  0  0
 17 19  1  0  0  0  0
 17 41  1  0  0  0  0
 18 19  1  0  0  0  0
 18 42  1  0  0  0  0
 18 43  1  0  0  0  0
 19 44  1  0  0  0  0
 19 45  1  0  0  0  0
 20 46  1  0  0  0  0
 21 22  1  0  0  0  0
 21 47  1  0  0  0  0
 22 48  1  0  0  0  0
 23 24  1  0  0  0  0
 23 49  1  0  0  0  0
 24 25  1  0  0  0  0
 24 34  2  0  0  0  0
 25 26  2  0  0  0  0
 25 50  1  0  0  0  0
 26 27  1  0  0  0  0
 26 51  1  0  0  0  0
 27 28  1  0  0  0  0
 27 29  2  0  0  0  0
 29 30  1  0  0  0  0
 29 34  1  0  0  0  0
 30 31  1  0  0  0  0
 30 32  1  0  0  0  0
 30 33  1  0  0  0  0
 34 52  1  0  0  0  0
M  END
$$$$
