CHEMBL404495
 OpenBabel04072215373D

 59 63  0  0  0  0  0  0  0  0999 V2000
    8.8624   -4.1790    0.0851 C   0  0  0  0  0  0  0  0  0  0  0  0
    7.3563   -4.1917    0.1236 C   0  0  0  0  0  0  0  0  0  0  0  0
    6.7829   -3.5217   -1.0315 N   0  0  0  0  0  0  0  0  0  0  0  0
    7.4549   -2.8649   -2.0273 C   0  0  0  0  0  0  0  0  0  0  0  0
    6.5009   -2.4347   -2.9118 C   0  0  0  0  0  0  0  0  0  0  0  0
    5.2644   -2.7801   -2.4763 N   0  0  0  0  0  0  0  0  0  0  0  0
    5.4623   -3.4331   -1.3489 C   0  0  0  0  0  0  0  0  0  0  0  0
    4.3744   -3.8736   -0.5599 C   0  0  0  0  0  0  0  0  0  0  0  0
    3.1977   -3.1611   -0.5267 C   0  0  0  0  0  0  0  0  0  0  0  0
    2.3654   -3.7158    0.4279 C   0  0  0  0  0  0  0  0  0  0  0  0
    1.5821   -2.8622    1.0695 N   0  0  0  0  0  0  0  0  0  0  0  0
    0.3854   -3.2262    1.3880 C   0  0  0  0  0  0  0  0  0  0  0  0
    0.6429   -4.3493    2.1208 C   0  0  0  0  0  0  0  0  0  0  0  0
    1.9447   -5.1096    2.1961 C   0  0  0  0  0  0  0  0  0  0  0  0
    2.5371   -5.8130    3.2334 O   0  0  0  0  0  0  0  0  0  0  0  0
    2.0401   -6.2862    4.4428 C   0  0  0  0  0  0  0  0  0  0  0  0
    0.7044   -6.5550    4.7123 C   0  0  0  0  0  0  0  0  0  0  0  0
    0.2869   -7.7778    5.3340 C   0  0  0  0  0  0  0  0  0  0  0  0
    1.2092   -8.6290    5.9481 C   0  0  0  0  0  0  0  0  0  0  0  0
    0.8409   -9.8889    6.6092 N   0  0  0  0  0  0  0  0  0  0  0  0
    1.7171  -11.0206    6.6819 C   0  0  0  0  0  0  0  0  0  0  0  0
    2.9889  -11.4154    5.6297 S   0  0  0  0  0  0  0  0  0  0  0  0
    1.5130  -11.8873    7.7876 N   0  0  0  0  0  0  0  0  0  0  0  0
    0.5409  -11.7461    8.7464 C   0  0  0  0  0  0  0  0  0  0  0  0
   -0.4091  -10.9887    8.5397 O   0  0  0  0  0  0  0  0  0  0  0  0
    0.5107  -12.5730   10.0110 C   0  0  0  0  0  0  0  0  0  0  0  0
    1.2392  -11.9829   11.1895 C   0  0  0  0  0  0  0  0  0  0  0  0
    0.9426  -10.6954   11.6487 C   0  0  0  0  0  0  0  0  0  0  0  0
    1.6488  -10.1414   12.7211 C   0  0  0  0  0  0  0  0  0  0  0  0
    2.7476  -10.8093   13.2548 C   0  0  0  0  0  0  0  0  0  0  0  0
    3.0844  -12.0629   12.7623 C   0  0  0  0  0  0  0  0  0  0  0  0
    2.2609  -12.6917   11.8282 C   0  0  0  0  0  0  0  0  0  0  0  0
    2.5295   -8.1246    5.9815 C   0  0  0  0  0  0  0  0  0  0  0  0
    2.9396   -6.9775    5.2635 C   0  0  0  0  0  0  0  0  0  0  0  0
    4.2490   -6.6702    5.3554 F   0  0  0  0  0  0  0  0  0  0  0  0
    2.7811   -4.8470    1.0933 C   0  0  0  0  0  0  0  0  0  0  0  0
    4.3442   -5.2366    0.4975 S   0  0  0  0  0  0  0  0  0  0  0  0
    9.2919   -4.7082    0.9346 H   0  0  0  0  0  0  0  0  0  0  0  0
    9.2224   -3.1437    0.0908 H   0  0  0  0  0  0  0  0  0  0  0  0
    9.2079   -4.6557   -0.8410 H   0  0  0  0  0  0  0  0  0  0  0  0
    6.9765   -3.7176    1.0388 H   0  0  0  0  0  0  0  0  0  0  0  0
    7.0218   -5.2362    0.1096 H   0  0  0  0  0  0  0  0  0  0  0  0
    8.5237   -2.7710   -2.0356 H   0  0  0  0  0  0  0  0  0  0  0  0
    6.6374   -1.9002   -3.8387 H   0  0  0  0  0  0  0  0  0  0  0  0
    3.0455   -2.1648   -0.9892 H   0  0  0  0  0  0  0  0  0  0  0  0
    0.2038   -2.3163    0.7823 H   0  0  0  0  0  0  0  0  0  0  0  0
   -0.1948   -4.4734    2.8076 H   0  0  0  0  0  0  0  0  0  0  0  0
   -0.0015   -5.7311    4.6619 H   0  0  0  0  0  0  0  0  0  0  0  0
   -0.7651   -8.0222    5.2827 H   0  0  0  0  0  0  0  0  0  0  0  0
   -0.1213  -10.0504    6.9449 H   0  0  0  0  0  0  0  0  0  0  0  0
    2.1858  -12.6448    7.8649 H   0  0  0  0  0  0  0  0  0  0  0  0
    0.7994  -13.5922    9.7812 H   0  0  0  0  0  0  0  0  0  0  0  0
   -0.5707  -12.6503   10.2585 H   0  0  0  0  0  0  0  0  0  0  0  0
    0.1516  -10.1025   11.1841 H   0  0  0  0  0  0  0  0  0  0  0  0
    1.3576   -9.1760   13.1291 H   0  0  0  0  0  0  0  0  0  0  0  0
    3.3366  -10.3634   14.0522 H   0  0  0  0  0  0  0  0  0  0  0  0
    3.9813  -12.5669   13.1120 H   0  0  0  0  0  0  0  0  0  0  0  0
    2.4523  -13.7414   11.6236 H   0  0  0  0  0  0  0  0  0  0  0  0
    3.2951   -8.5867    6.5908 H   0  0  0  0  0  0  0  0  0  0  0  0
  1  2  1  0  0  0  0
  1 38  1  0  0  0  0
  1 39  1  0  0  0  0
  1 40  1  0  0  0  0
  2  3  1  0  0  0  0
  2 41  1  0  0  0  0
  2 42  1  0  0  0  0
  3  4  1  0  0  0  0
  3  7  1  0  0  0  0
  4  5  2  0  0  0  0
  4 43  1  0  0  0  0
  5  6  1  0  0  0  0
  5 44  1  0  0  0  0
  6  7  2  0  0  0  0
  7  8  1  0  0  0  0
  8  9  2  0  0  0  0
  8 37  1  0  0  0  0
  9 10  1  0  0  0  0
  9 45  1  0  0  0  0
 10 11  1  0  0  0  0
 10 36  2  0  0  0  0
 11 12  2  0  0  0  0
 12 13  1  0  0  0  0
 12 46  1  0  0  0  0
 13 14  2  0  0  0  0
 13 47  1  0  0  0  0
 14 15  1  0  0  0  0
 14 36  1  0  0  0  0
 15 16  1  0  0  0  0
 16 17  1  0  0  0  0
 16 34  2  0  0  0  0
 17 18  2  0  0  0  0
 17 48  1  0  0  0  0
 18 19  1  0  0  0  0
 18 49  1  0  0  0  0
 19 20  1  0  0  0  0
 19 33  2  0  0  0  0
 20 21  1  0  0  0  0
 20 50  1  0  0  0  0
 21 22  2  0  0  0  0
 21 23  1  0  0  0  0
 23 24  1  0  0  0  0
 23 51  1  0  0  0  0
 24 25  2  0  0  0  0
 24 26  1  0  0  0  0
 26 27  1  0  0  0  0
 26 52  1  0  0  0  0
 26 53  1  0  0  0  0
 27 28  1  0  0  0  0
 27 32  2  0  0  0  0
 28 29  2  0  0  0  0
 28 54  1  0  0  0  0
 29 30  1  0  0  0  0
 29 55  1  0  0  0  0
 30 31  2  0  0  0  0
 30 56  1  0  0  0  0
 31 32  1  0  0  0  0
 31 57  1  0  0  0  0
 32 58  1  0  0  0  0
 33 34  1  0  0  0  0
 33 59  1  0  0  0  0
 34 35  1  0  0  0  0
 36 37  1  0  0  0  0
M  END
$$$$
