CHEMBL3644025
 OpenBabel04072215373D

 50 51  0  0  1  0  0  0  0  0999 V2000
   12.0088  -11.4609    8.9743 C   0  0  0  0  0  0  0  0  0  0  0  0
   10.8028  -11.4949    8.7893 C   0  0  0  0  0  0  0  0  0  0  0  0
    9.3377  -11.5193    8.5347 C   0  0  0  0  0  0  0  0  0  0  0  0
    9.0049  -11.1485    6.7983 S   0  0  0  0  0  0  0  0  0  0  0  0
    9.6578  -12.1640    5.9885 O   0  0  0  0  0  0  0  0  0  0  0  0
    7.5909  -10.8761    6.6031 O   0  0  0  0  0  0  0  0  0  0  0  0
    9.8455   -9.6074    6.4880 C   0  0  0  0  0  0  0  0  0  0  0  0
   10.8790   -9.5826    5.5545 C   0  0  0  0  0  0  0  0  0  0  0  0
   11.4443   -8.3634    5.1859 C   0  0  0  0  0  0  0  0  0  0  0  0
   10.9768   -7.1523    5.7180 C   0  0  0  0  0  0  0  0  0  0  0  0
   11.5132   -5.9060    5.3241 N   0  0  0  0  0  0  0  0  0  0  0  0
   11.9902   -5.6285    4.0369 C   0  0  0  0  0  0  0  0  0  0  0  0
   12.9635   -4.7356    3.9074 N   0  0  0  0  0  0  0  0  0  0  0  0
   13.5545   -4.6718    2.6984 C   0  0  0  0  0  0  0  0  0  0  0  0
   13.2062   -5.4375    1.5947 C   0  0  0  0  0  0  0  0  0  0  0  0
   14.0691   -5.3146    0.3852 C   0  0  0  0  0  0  0  0  0  0  0  0
   15.1306   -4.4607    0.5830 F   0  0  0  0  0  0  0  0  0  0  0  0
   14.6452   -6.4851   -0.0024 F   0  0  0  0  0  0  0  0  0  0  0  0
   13.4335   -4.8180   -0.7080 F   0  0  0  0  0  0  0  0  0  0  0  0
   12.1128   -6.2550    1.8029 C   0  0  0  0  0  0  0  0  0  0  0  0
   11.5416   -7.0586    0.8316 O   0  0  0  0  0  0  0  0  0  0  0  0
   10.3636   -7.8414    1.2696 C   0  0  2  0  0  0  0  0  0  0  0  0
   10.6976   -9.3421    1.2239 C   0  0  0  0  0  0  0  0  0  0  0  0
    9.1229   -7.4652    0.4088 C   0  0  0  0  0  0  0  0  0  0  0  0
    9.2876   -7.7714   -1.0799 C   0  0  0  0  0  0  0  0  0  0  0  0
    7.8660   -8.1441    0.9681 C   0  0  0  0  0  0  0  0  0  0  0  0
    8.9057   -6.0494    0.5264 O   0  0  0  0  0  0  0  0  0  0  0  0
   11.5408   -6.3429    3.0090 N   0  0  0  0  0  0  0  0  0  0  0  0
    9.9706   -7.1999    6.6926 C   0  0  0  0  0  0  0  0  0  0  0  0
    9.3879   -8.4208    7.0665 C   0  0  0  0  0  0  0  0  0  0  0  0
   13.0897  -11.4347    9.1331 H   0  0  0  0  0  0  0  0  0  0  0  0
    8.7718  -10.7832    9.1320 H   0  0  0  0  0  0  0  0  0  0  0  0
    8.8796  -12.5102    8.7299 H   0  0  0  0  0  0  0  0  0  0  0  0
   11.2204  -10.4915    5.0654 H   0  0  0  0  0  0  0  0  0  0  0  0
   12.2166   -8.3725    4.4204 H   0  0  0  0  0  0  0  0  0  0  0  0
   12.2348   -5.5705    5.9522 H   0  0  0  0  0  0  0  0  0  0  0  0
   14.3930   -3.9756    2.6732 H   0  0  0  0  0  0  0  0  0  0  0  0
   10.0517   -7.5981    2.2944 H   0  0  0  0  0  0  0  0  0  0  0  0
   10.7965   -9.7090    0.1976 H   0  0  0  0  0  0  0  0  0  0  0  0
    9.9258   -9.9431    1.7225 H   0  0  0  0  0  0  0  0  0  0  0  0
   11.6532   -9.5574    1.7114 H   0  0  0  0  0  0  0  0  0  0  0  0
    9.3872   -8.8425   -1.2767 H   0  0  0  0  0  0  0  0  0  0  0  0
   10.1611   -7.2561   -1.4944 H   0  0  0  0  0  0  0  0  0  0  0  0
    8.4202   -7.4100   -1.6446 H   0  0  0  0  0  0  0  0  0  0  0  0
    7.9291   -9.2352    0.9205 H   0  0  0  0  0  0  0  0  0  0  0  0
    6.9692   -7.8263    0.4266 H   0  0  0  0  0  0  0  0  0  0  0  0
    7.7111   -7.8550    2.0150 H   0  0  0  0  0  0  0  0  0  0  0  0
    9.7304   -5.6159    0.2439 H   0  0  0  0  0  0  0  0  0  0  0  0
    9.5724   -6.2740    7.1035 H   0  0  0  0  0  0  0  0  0  0  0  0
    8.5500   -8.4226    7.7591 H   0  0  0  0  0  0  0  0  0  0  0  0
  1  2  3  0  0  0  0
  1 31  1  0  0  0  0
  2  3  1  0  0  0  0
  3  4  1  0  0  0  0
  3 32  1  0  0  0  0
  3 33  1  0  0  0  0
  4  5  2  0  0  0  0
  4  6  2  0  0  0  0
  4  7  1  0  0  0  0
  7  8  1  0  0  0  0
  7 30  2  0  0  0  0
  8  9  2  0  0  0  0
  8 34  1  0  0  0  0
  9 10  1  0  0  0  0
  9 35  1  0  0  0  0
 10 11  1  0  0  0  0
 10 29  2  0  0  0  0
 11 12  1  0  0  0  0
 11 36  1  0  0  0  0
 12 13  1  0  0  0  0
 12 28  2  0  0  0  0
 13 14  2  0  0  0  0
 14 15  1  0  0  0  0
 14 37  1  0  0  0  0
 15 16  1  0  0  0  0
 15 20  2  0  0  0  0
 16 17  1  0  0  0  0
 16 18  1  0  0  0  0
 16 19  1  0  0  0  0
 20 21  1  0  0  0  0
 20 28  1  0  0  0  0
 22 24  1  0  0  0  0
 22 23  1  0  0  0  0
 22 21  1  0  0  0  0
 22 38  1  1  0  0  0
 23 39  1  0  0  0  0
 23 40  1  0  0  0  0
 23 41  1  0  0  0  0
 24 25  1  0  0  0  0
 24 26  1  0  0  0  0
 24 27  1  0  0  0  0
 25 42  1  0  0  0  0
 25 43  1  0  0  0  0
 25 44  1  0  0  0  0
 26 45  1  0  0  0  0
 26 46  1  0  0  0  0
 26 47  1  0  0  0  0
 27 48  1  0  0  0  0
 29 30  1  0  0  0  0
 29 49  1  0  0  0  0
 30 50  1  0  0  0  0
M  END
$$$$
