CHEMBL2032025
 OpenBabel04072215363D

 64 68  0  0  0  0  0  0  0  0999 V2000
    3.9195    0.2872    0.6900 C   0  0  0  0  0  0  0  0  0  0  0  0
    5.2044    0.2192    0.0721 O   0  0  0  0  0  0  0  0  0  0  0  0
    5.3293   -0.7627   -0.8733 C   0  0  0  0  0  0  0  0  0  0  0  0
    4.2707   -1.2798   -1.6036 C   0  0  0  0  0  0  0  0  0  0  0  0
    4.4998   -2.3023   -2.5150 C   0  0  0  0  0  0  0  0  0  0  0  0
    5.8030   -2.7568   -2.8036 C   0  0  0  0  0  0  0  0  0  0  0  0
    6.1192   -3.6829   -3.8276 C   0  0  0  0  0  0  0  0  0  0  0  0
    5.2054   -4.2486   -4.7018 O   0  0  0  0  0  0  0  0  0  0  0  0
    4.3250   -3.4476   -5.4024 C   0  0  0  0  0  0  0  0  0  0  0  0
    4.4907   -2.0826   -5.6111 C   0  0  0  0  0  0  0  0  0  0  0  0
    3.4635   -1.3243   -6.1777 C   0  0  0  0  0  0  0  0  0  0  0  0
    2.2855   -1.9127   -6.6514 C   0  0  0  0  0  0  0  0  0  0  0  0
    1.2428   -1.1650   -7.2695 N   0  0  0  0  0  0  0  0  0  0  0  0
    1.2109    0.2162   -7.4087 C   0  0  0  0  0  0  0  0  0  0  0  0
    1.9911    0.9956   -6.8714 O   0  0  0  0  0  0  0  0  0  0  0  0
    0.1559    0.7562   -8.2990 C   0  0  0  0  0  0  0  0  0  0  0  0
    0.0971    1.9721   -8.8916 C   0  0  0  0  0  0  0  0  0  0  0  0
    1.0532    3.1103   -8.6928 C   0  0  0  0  0  0  0  0  0  0  0  0
   -1.0170    2.1033   -9.7432 N   0  0  0  0  0  0  0  0  0  0  0  0
   -1.6935    3.3899  -10.0269 C   0  0  0  0  0  0  0  0  0  0  0  0
   -1.1215    4.0656  -11.2834 C   0  0  0  0  0  0  0  0  0  0  0  0
   -1.1652    3.2213  -12.4307 O   0  0  0  0  0  0  0  0  0  0  0  0
   -1.8297    0.9838   -9.4538 N   0  0  0  0  0  0  0  0  0  0  0  0
   -3.0327    0.7020  -10.1184 C   0  0  0  0  0  0  0  0  0  0  0  0
   -4.1761    0.4501   -9.3522 C   0  0  0  0  0  0  0  0  0  0  0  0
   -5.4120    0.2621   -9.9735 C   0  0  0  0  0  0  0  0  0  0  0  0
   -5.5027    0.2815  -11.3643 C   0  0  0  0  0  0  0  0  0  0  0  0
   -4.3626    0.5098  -12.1336 C   0  0  0  0  0  0  0  0  0  0  0  0
   -3.1327    0.7380  -11.5119 C   0  0  0  0  0  0  0  0  0  0  0  0
   -1.1118    0.0821   -8.6677 C   0  0  0  0  0  0  0  0  0  0  0  0
   -1.3938   -1.0552   -8.3188 O   0  0  0  0  0  0  0  0  0  0  0  0
    2.1573   -3.3001   -6.5368 C   0  0  0  0  0  0  0  0  0  0  0  0
    3.1682   -4.0513   -5.9040 C   0  0  0  0  0  0  0  0  0  0  0  0
    2.9875   -5.3742   -5.7687 F   0  0  0  0  0  0  0  0  0  0  0  0
    7.4299   -4.1240   -3.9768 C   0  0  0  0  0  0  0  0  0  0  0  0
    8.3946   -3.5856   -3.1501 C   0  0  0  0  0  0  0  0  0  0  0  0
    8.1471   -2.6441   -2.2160 N   0  0  0  0  0  0  0  0  0  0  0  0
    6.8785   -2.2314   -2.0501 C   0  0  0  0  0  0  0  0  0  0  0  0
    6.6196   -1.2451   -1.1038 C   0  0  0  0  0  0  0  0  0  0  0  0
    3.9813    0.9722    1.5360 H   0  0  0  0  0  0  0  0  0  0  0  0
    3.6173   -0.6966    1.0701 H   0  0  0  0  0  0  0  0  0  0  0  0
    3.1685    0.6824   -0.0037 H   0  0  0  0  0  0  0  0  0  0  0  0
    3.2594   -0.9019   -1.5057 H   0  0  0  0  0  0  0  0  0  0  0  0
    3.6373   -2.7128   -3.0306 H   0  0  0  0  0  0  0  0  0  0  0  0
    5.3789   -1.5601   -5.2610 H   0  0  0  0  0  0  0  0  0  0  0  0
    3.6346   -0.2540   -6.2239 H   0  0  0  0  0  0  0  0  0  0  0  0
    0.4515   -1.6921   -7.6454 H   0  0  0  0  0  0  0  0  0  0  0  0
    1.9924    2.8256   -8.2199 H   0  0  0  0  0  0  0  0  0  0  0  0
    0.5917    3.8783   -8.0634 H   0  0  0  0  0  0  0  0  0  0  0  0
    1.3241    3.5693   -9.6458 H   0  0  0  0  0  0  0  0  0  0  0  0
   -1.6047    4.0694   -9.1709 H   0  0  0  0  0  0  0  0  0  0  0  0
   -2.7674    3.2453  -10.1856 H   0  0  0  0  0  0  0  0  0  0  0  0
   -0.0846    4.3785  -11.1427 H   0  0  0  0  0  0  0  0  0  0  0  0
   -1.7074    4.9610  -11.5143 H   0  0  0  0  0  0  0  0  0  0  0  0
   -0.5568    2.4832  -12.2434 H   0  0  0  0  0  0  0  0  0  0  0  0
   -4.1205    0.4569   -8.2665 H   0  0  0  0  0  0  0  0  0  0  0  0
   -6.3040    0.1085   -9.3718 H   0  0  0  0  0  0  0  0  0  0  0  0
   -6.4624    0.1195  -11.8490 H   0  0  0  0  0  0  0  0  0  0  0  0
   -4.4305    0.5144  -13.2188 H   0  0  0  0  0  0  0  0  0  0  0  0
   -2.2553    0.9110  -12.1255 H   0  0  0  0  0  0  0  0  0  0  0  0
    1.2825   -3.8261   -6.9023 H   0  0  0  0  0  0  0  0  0  0  0  0
    7.6992   -4.8591   -4.7261 H   0  0  0  0  0  0  0  0  0  0  0  0
    9.4326   -3.8982   -3.2237 H   0  0  0  0  0  0  0  0  0  0  0  0
    7.4479   -0.8394   -0.5275 H   0  0  0  0  0  0  0  0  0  0  0  0
  1  2  1  0  0  0  0
  1 40  1  0  0  0  0
  1 41  1  0  0  0  0
  1 42  1  0  0  0  0
  2  3  1  0  0  0  0
  3  4  1  0  0  0  0
  3 39  2  0  0  0  0
  4  5  2  0  0  0  0
  4 43  1  0  0  0  0
  5  6  1  0  0  0  0
  5 44  1  0  0  0  0
  6  7  1  0  0  0  0
  6 38  2  0  0  0  0
  7  8  1  0  0  0  0
  7 35  2  0  0  0  0
  8  9  1  0  0  0  0
  9 10  1  0  0  0  0
  9 33  2  0  0  0  0
 10 11  2  0  0  0  0
 10 45  1  0  0  0  0
 11 12  1  0  0  0  0
 11 46  1  0  0  0  0
 12 13  1  0  0  0  0
 12 32  2  0  0  0  0
 13 14  1  0  0  0  0
 13 47  1  0  0  0  0
 14 15  2  0  0  0  0
 14 16  1  0  0  0  0
 16 17  2  0  0  0  0
 16 30  1  0  0  0  0
 17 18  1  0  0  0  0
 17 19  1  0  0  0  0
 18 48  1  0  0  0  0
 18 49  1  0  0  0  0
 18 50  1  0  0  0  0
 19 20  1  0  0  0  0
 19 23  1  0  0  0  0
 20 21  1  0  0  0  0
 20 51  1  0  0  0  0
 20 52  1  0  0  0  0
 21 22  1  0  0  0  0
 21 53  1  0  0  0  0
 21 54  1  0  0  0  0
 22 55  1  0  0  0  0
 23 24  1  0  0  0  0
 23 30  1  0  0  0  0
 24 25  1  0  0  0  0
 24 29  2  0  0  0  0
 25 26  2  0  0  0  0
 25 56  1  0  0  0  0
 26 27  1  0  0  0  0
 26 57  1  0  0  0  0
 27 28  2  0  0  0  0
 27 58  1  0  0  0  0
 28 29  1  0  0  0  0
 28 59  1  0  0  0  0
 29 60  1  0  0  0  0
 30 31  2  0  0  0  0
 32 33  1  0  0  0  0
 32 61  1  0  0  0  0
 33 34  1  0  0  0  0
 35 36  1  0  0  0  0
 35 62  1  0  0  0  0
 36 37  2  0  0  0  0
 36 63  1  0  0  0  0
 37 38  1  0  0  0  0
 38 39  1  0  0  0  0
 39 64  1  0  0  0  0
M  END
$$$$
