CHEMBL389102
 OpenBabel04072215373D

 44 47  0  0  0  0  0  0  0  0999 V2000
   -3.2044    0.2035    0.1332 N   0  0  0  0  0  0  0  0  0  0  0  0
   -2.0448    0.1076    0.1228 C   0  0  0  0  0  0  0  0  0  0  0  0
   -0.6300    0.0400    0.1352 C   0  0  0  0  0  0  0  0  0  0  0  0
    0.0936    1.2071    0.2102 C   0  0  0  0  0  0  0  0  0  0  0  0
    1.4324    1.2543    0.1831 N   0  0  0  0  0  0  0  0  0  0  0  0
    2.0916    0.0954    0.0637 C   0  0  0  0  0  0  0  0  0  0  0  0
    3.4868    0.1081   -0.0424 N   0  0  0  0  0  0  0  0  0  0  0  0
    4.3564    1.0999    0.3994 C   0  0  0  0  0  0  0  0  0  0  0  0
    4.0460    1.8926    1.5182 C   0  0  0  0  0  0  0  0  0  0  0  0
    4.8421    2.9838    1.8899 C   0  0  0  0  0  0  0  0  0  0  0  0
    5.9559    3.3123    1.1225 C   0  0  0  0  0  0  0  0  0  0  0  0
    6.7696    4.5379    1.4630 C   0  0  0  0  0  0  0  0  0  0  0  0
    7.8799    4.2668    2.4744 C   0  0  0  0  0  0  0  0  0  0  0  0
    8.8566    3.3739    1.9503 O   0  0  0  0  0  0  0  0  0  0  0  0
    6.2945    2.5107    0.0204 C   0  0  0  0  0  0  0  0  0  0  0  0
    5.5021    1.4124   -0.3321 C   0  0  0  0  0  0  0  0  0  0  0  0
    1.4834   -1.0873   -0.0371 N   0  0  0  0  0  0  0  0  0  0  0  0
    0.1186   -1.1226    0.0308 C   0  0  0  0  0  0  0  0  0  0  0  0
   -0.4638   -2.4781   -0.1071 C   0  0  0  0  0  0  0  0  0  0  0  0
    0.1054   -3.3802   -1.0266 C   0  0  0  0  0  0  0  0  0  0  0  0
   -0.4896   -4.6027   -1.3471 C   0  0  0  0  0  0  0  0  0  0  0  0
   -1.6295   -4.9498   -0.6263 C   0  0  0  0  0  0  0  0  0  0  0  0
   -2.5152   -5.9901   -0.7775 N   0  0  0  0  0  0  0  0  0  0  0  0
   -3.1511   -6.2030    0.4140 C   0  0  0  0  0  0  0  0  0  0  0  0
   -3.0723   -5.0117    1.1070 C   0  0  0  0  0  0  0  0  0  0  0  0
   -2.1162   -4.1970    0.4352 C   0  0  0  0  0  0  0  0  0  0  0  0
   -1.5701   -2.9154    0.6570 C   0  0  0  0  0  0  0  0  0  0  0  0
   -0.3921    2.1804    0.2719 H   0  0  0  0  0  0  0  0  0  0  0  0
    3.8638   -0.7581   -0.3902 H   0  0  0  0  0  0  0  0  0  0  0  0
    3.1625    1.6712    2.1123 H   0  0  0  0  0  0  0  0  0  0  0  0
    4.5534    3.5711    2.7527 H   0  0  0  0  0  0  0  0  0  0  0  0
    6.0974    5.3079    1.8624 H   0  0  0  0  0  0  0  0  0  0  0  0
    7.1948    4.9493    0.5382 H   0  0  0  0  0  0  0  0  0  0  0  0
    7.4908    3.8519    3.4103 H   0  0  0  0  0  0  0  0  0  0  0  0
    8.3909    5.2059    2.7093 H   0  0  0  0  0  0  0  0  0  0  0  0
    8.4207    2.5071    1.8599 H   0  0  0  0  0  0  0  0  0  0  0  0
    7.1591    2.7580   -0.5917 H   0  0  0  0  0  0  0  0  0  0  0  0
    5.7575    0.8396   -1.2199 H   0  0  0  0  0  0  0  0  0  0  0  0
    1.0305   -3.1121   -1.5385 H   0  0  0  0  0  0  0  0  0  0  0  0
   -0.0574   -5.2579   -2.0968 H   0  0  0  0  0  0  0  0  0  0  0  0
   -2.6662   -6.5081   -1.6323 H   0  0  0  0  0  0  0  0  0  0  0  0
   -3.6704   -7.1295    0.6171 H   0  0  0  0  0  0  0  0  0  0  0  0
   -3.5874   -4.7852    2.0291 H   0  0  0  0  0  0  0  0  0  0  0  0
   -2.0092   -2.3024    1.4344 H   0  0  0  0  0  0  0  0  0  0  0  0
  1  2  3  0  0  0  0
  2  3  1  0  0  0  0
  3  4  1  0  0  0  0
  3 18  2  0  0  0  0
  4  5  2  0  0  0  0
  4 28  1  0  0  0  0
  5  6  1  0  0  0  0
  6  7  1  0  0  0  0
  6 17  2  0  0  0  0
  7  8  1  0  0  0  0
  7 29  1  0  0  0  0
  8  9  1  0  0  0  0
  8 16  2  0  0  0  0
  9 10  2  0  0  0  0
  9 30  1  0  0  0  0
 10 11  1  0  0  0  0
 10 31  1  0  0  0  0
 11 12  1  0  0  0  0
 11 15  2  0  0  0  0
 12 13  1  0  0  0  0
 12 32  1  0  0  0  0
 12 33  1  0  0  0  0
 13 14  1  0  0  0  0
 13 34  1  0  0  0  0
 13 35  1  0  0  0  0
 14 36  1  0  0  0  0
 15 16  1  0  0  0  0
 15 37  1  0  0  0  0
 16 38  1  0  0  0  0
 17 18  1  0  0  0  0
 18 19  1  0  0  0  0
 19 20  1  0  0  0  0
 19 27  2  0  0  0  0
 20 21  2  0  0  0  0
 20 39  1  0  0  0  0
 21 22  1  0  0  0  0
 21 40  1  0  0  0  0
 22 23  1  0  0  0  0
 22 26  2  0  0  0  0
 23 24  1  0  0  0  0
 23 41  1  0  0  0  0
 24 25  2  0  0  0  0
 24 42  1  0  0  0  0
 25 26  1  0  0  0  0
 25 43  1  0  0  0  0
 26 27  1  0  0  0  0
 27 44  1  0  0  0  0
M  END
$$$$
