CHEMBL477197
 OpenBabel04072215383D

 36 39  0  0  1  0  0  0  0  0999 V2000
    0.9834   -0.0136    0.0563 O   0  0  0  0  0  0  0  0  0  0  0  0
    2.3466   -0.0135    0.0160 C   0  0  0  0  0  0  0  0  0  0  0  0
    3.0638    0.8695    0.8161 C   0  0  0  0  0  0  0  0  0  0  0  0
    4.4386    0.7606    0.7676 C   0  0  0  0  0  0  0  0  0  0  0  0
    5.0810    0.1013   -0.2834 C   0  0  0  0  0  0  0  0  0  0  0  0
    4.3909   -0.8831   -0.9646 C   0  0  0  0  0  0  0  0  0  0  0  0
    3.0199   -0.9784   -0.7419 C   0  0  0  0  0  0  0  0  0  0  0  0
    2.3572   -2.0869   -1.1857 O   0  0  0  0  0  0  0  0  0  0  0  0
    6.5545    0.3957   -0.1600 C   0  0  2  0  0  0  0  0  0  0  0  0
    7.4620   -0.4193   -0.9875 C   0  0  0  0  0  0  0  0  0  0  0  0
    7.8070    0.0706   -2.2733 C   0  0  0  0  0  0  0  0  0  0  0  0
    8.6403   -0.6539   -3.1051 C   0  0  0  0  0  0  0  0  0  0  0  0
    9.1143   -1.8796   -2.6557 C   0  0  0  0  0  0  0  0  0  0  0  0
    9.9205   -2.6457   -3.4618 O   0  0  0  0  0  0  0  0  0  0  0  0
    8.7880   -2.3656   -1.3772 C   0  0  0  0  0  0  0  0  0  0  0  0
    9.3029   -3.5876   -1.0153 O   0  0  0  0  0  0  0  0  0  0  0  0
    7.9690   -1.6264   -0.5178 C   0  0  0  0  0  0  0  0  0  0  0  0
    7.7190   -2.0580    0.7650 O   0  0  0  0  0  0  0  0  0  0  0  0
    6.7016   -1.3663    1.5541 C   0  0  0  0  0  0  0  0  0  0  0  0
    6.6940    0.1791    1.3480 C   0  0  1  0  0  0  0  0  0  0  0  0
    7.8794    0.7626    1.8918 O   0  0  0  0  0  0  0  0  0  0  0  0
    5.4540    1.0136    1.8576 C   0  0  0  0  0  0  0  0  0  0  0  0
    0.7001    0.9119    0.1422 H   0  0  0  0  0  0  0  0  0  0  0  0
    2.5724    1.5239    1.5249 H   0  0  0  0  0  0  0  0  0  0  0  0
    4.9104   -1.6333   -1.5524 H   0  0  0  0  0  0  0  0  0  0  0  0
    2.7680   -2.8360   -0.7143 H   0  0  0  0  0  0  0  0  0  0  0  0
    6.7403    1.4504   -0.3823 H   0  0  0  0  0  0  0  0  0  0  0  0
    7.4237    1.0361   -2.6061 H   0  0  0  0  0  0  0  0  0  0  0  0
    8.9017   -0.2510   -4.0773 H   0  0  0  0  0  0  0  0  0  0  0  0
   10.0559   -2.1629   -4.2980 H   0  0  0  0  0  0  0  0  0  0  0  0
    9.8002   -3.8869   -1.8074 H   0  0  0  0  0  0  0  0  0  0  0  0
    6.9318   -1.6014    2.5992 H   0  0  0  0  0  0  0  0  0  0  0  0
    5.7399   -1.8496    1.3406 H   0  0  0  0  0  0  0  0  0  0  0  0
    8.4646    0.0323    2.1714 H   0  0  0  0  0  0  0  0  0  0  0  0
    5.6970    2.0796    1.9130 H   0  0  0  0  0  0  0  0  0  0  0  0
    5.1090    0.6593    2.8323 H   0  0  0  0  0  0  0  0  0  0  0  0
  1  2  1  0  0  0  0
  1 23  1  0  0  0  0
  2  3  1  0  0  0  0
  2  7  2  0  0  0  0
  3  4  2  0  0  0  0
  3 24  1  0  0  0  0
  4  5  1  0  0  0  0
  4 22  1  0  0  0  0
  5  6  2  0  0  0  0
  5  9  1  0  0  0  0
  6  7  1  0  0  0  0
  6 25  1  0  0  0  0
  7  8  1  0  0  0  0
  8 26  1  0  0  0  0
  9 10  1  0  0  0  0
  9 20  1  0  0  0  0
  9 27  1  6  0  0  0
 10 11  1  0  0  0  0
 10 17  2  0  0  0  0
 11 12  2  0  0  0  0
 11 28  1  0  0  0  0
 12 13  1  0  0  0  0
 12 29  1  0  0  0  0
 13 15  2  0  0  0  0
 13 14  1  0  0  0  0
 14 30  1  0  0  0  0
 15 17  1  0  0  0  0
 15 16  1  0  0  0  0
 16 31  1  0  0  0  0
 17 18  1  0  0  0  0
 18 19  1  0  0  0  0
 19 20  1  0  0  0  0
 19 32  1  0  0  0  0
 19 33  1  0  0  0  0
 20 22  1  0  0  0  0
 20 21  1  1  0  0  0
 21 34  1  0  0  0  0
 22 35  1  0  0  0  0
 22 36  1  0  0  0  0
M  END
$$$$
