CHEMBL233668
 OpenBabel04072215363D

 37 39  0  0  0  0  0  0  0  0999 V2000
    6.9251    2.8027   -1.5732 C   0  0  0  0  0  0  0  0  0  0  0  0
    7.2901    1.4814   -1.1992 O   0  0  0  0  0  0  0  0  0  0  0  0
    6.2853    0.6653   -0.7563 C   0  0  0  0  0  0  0  0  0  0  0  0
    4.9460    1.0178   -0.6048 C   0  0  0  0  0  0  0  0  0  0  0  0
    4.0284    0.0806   -0.1246 C   0  0  0  0  0  0  0  0  0  0  0  0
    4.4475   -1.2088    0.2106 C   0  0  0  0  0  0  0  0  0  0  0  0
    5.7821   -1.5876    0.0446 C   0  0  0  0  0  0  0  0  0  0  0  0
    6.1654   -2.9047    0.3312 N   0  0  0  0  0  0  0  0  0  0  0  0
    7.1457   -3.6737   -0.2851 C   0  0  0  0  0  0  0  0  0  0  0  0
    7.4979   -3.4108   -1.5500 N   0  0  0  0  0  0  0  0  0  0  0  0
    8.3875   -4.2332   -2.1306 C   0  0  0  0  0  0  0  0  0  0  0  0
    8.9620   -5.3081   -1.4944 C   0  0  0  0  0  0  0  0  0  0  0  0
    9.8981   -6.1015   -2.2115 C   0  0  0  0  0  0  0  0  0  0  0  0
   10.6301   -6.7516   -2.8348 N   0  0  0  0  0  0  0  0  0  0  0  0
    8.5576   -5.5223   -0.1850 C   0  0  0  0  0  0  0  0  0  0  0  0
    9.0378   -6.6179    0.6962 C   0  0  0  0  0  0  0  0  0  0  0  0
    9.2310   -6.3884    2.0744 C   0  0  0  0  0  0  0  0  0  0  0  0
    9.6520   -7.4059    2.9381 C   0  0  0  0  0  0  0  0  0  0  0  0
    9.9005   -8.6805    2.4410 C   0  0  0  0  0  0  0  0  0  0  0  0
    9.7188   -8.9382    1.0877 C   0  0  0  0  0  0  0  0  0  0  0  0
    9.2803   -7.9230    0.2299 C   0  0  0  0  0  0  0  0  0  0  0  0
    7.6467   -4.7026    0.4139 N   0  0  0  0  0  0  0  0  0  0  0  0
    6.6891   -0.6350   -0.4390 C   0  0  0  0  0  0  0  0  0  0  0  0
    7.8264    3.3099   -1.9305 H   0  0  0  0  0  0  0  0  0  0  0  0
    6.5446    3.3637   -0.7133 H   0  0  0  0  0  0  0  0  0  0  0  0
    6.2005    2.7945   -2.3939 H   0  0  0  0  0  0  0  0  0  0  0  0
    4.5831    2.0086   -0.8550 H   0  0  0  0  0  0  0  0  0  0  0  0
    2.9806    0.3518   -0.0236 H   0  0  0  0  0  0  0  0  0  0  0  0
    3.7145   -1.9319    0.5592 H   0  0  0  0  0  0  0  0  0  0  0  0
    5.9549   -3.2427    1.2581 H   0  0  0  0  0  0  0  0  0  0  0  0
    8.6220   -3.9831   -3.1618 H   0  0  0  0  0  0  0  0  0  0  0  0
    9.0436   -5.3995    2.4914 H   0  0  0  0  0  0  0  0  0  0  0  0
    9.7810   -7.1995    3.9983 H   0  0  0  0  0  0  0  0  0  0  0  0
   10.2262   -9.4741    3.1086 H   0  0  0  0  0  0  0  0  0  0  0  0
    9.9072   -9.9337    0.6926 H   0  0  0  0  0  0  0  0  0  0  0  0
    9.1148   -8.1926   -0.8100 H   0  0  0  0  0  0  0  0  0  0  0  0
    7.7373   -0.8965   -0.5639 H   0  0  0  0  0  0  0  0  0  0  0  0
  1  2  1  0  0  0  0
  1 24  1  0  0  0  0
  1 25  1  0  0  0  0
  1 26  1  0  0  0  0
  2  3  1  0  0  0  0
  3  4  1  0  0  0  0
  3 23  2  0  0  0  0
  4  5  2  0  0  0  0
  4 27  1  0  0  0  0
  5  6  1  0  0  0  0
  5 28  1  0  0  0  0
  6  7  2  0  0  0  0
  6 29  1  0  0  0  0
  7  8  1  0  0  0  0
  7 23  1  0  0  0  0
  8  9  1  0  0  0  0
  8 30  1  0  0  0  0
  9 10  1  0  0  0  0
  9 22  2  0  0  0  0
 10 11  2  0  0  0  0
 11 12  1  0  0  0  0
 11 31  1  0  0  0  0
 12 13  1  0  0  0  0
 12 15  2  0  0  0  0
 13 14  3  0  0  0  0
 15 16  1  0  0  0  0
 15 22  1  0  0  0  0
 16 17  1  0  0  0  0
 16 21  2  0  0  0  0
 17 18  2  0  0  0  0
 17 32  1  0  0  0  0
 18 19  1  0  0  0  0
 18 33  1  0  0  0  0
 19 20  2  0  0  0  0
 19 34  1  0  0  0  0
 20 21  1  0  0  0  0
 20 35  1  0  0  0  0
 21 36  1  0  0  0  0
 23 37  1  0  0  0  0
M  END
$$$$
