CHEMBL3982619
 OpenBabel04072215373D

 37 40  0  0  0  0  0  0  0  0999 V2000
   -2.6451    0.2341    0.0435 O   0  0  0  0  0  0  0  0  0  0  0  0
   -1.4240    0.1124   -0.0345 C   0  0  0  0  0  0  0  0  0  0  0  0
   -0.7766   -1.2452   -0.0982 C   0  0  0  0  0  0  0  0  0  0  0  0
    0.9975   -0.9761   -0.1355 S   0  0  0  0  0  0  0  0  0  0  0  0
    0.8346    0.7646   -0.0610 C   0  0  0  0  0  0  0  0  0  0  0  0
    1.9335    1.4495    0.0537 N   0  0  0  0  0  0  0  0  0  0  0  0
    1.8491    2.7851    0.2411 N   0  0  0  0  0  0  0  0  0  0  0  0
    2.8474    3.6772   -0.1895 C   0  0  0  0  0  0  0  0  0  0  0  0
    2.9414    4.8111    0.5533 N   0  0  0  0  0  0  0  0  0  0  0  0
    3.8353    5.7869    0.2415 N   0  0  0  0  0  0  0  0  0  0  0  0
    4.6386    5.6143   -0.8209 C   0  0  0  0  0  0  0  0  0  0  0  0
    4.5878    4.4947   -1.6440 C   0  0  0  0  0  0  0  0  0  0  0  0
    5.4442    4.3712   -2.7526 C   0  0  0  0  0  0  0  0  0  0  0  0
    5.3628    3.2648   -3.5971 C   0  0  0  0  0  0  0  0  0  0  0  0
    4.4140    2.2844   -3.3533 C   0  0  0  0  0  0  0  0  0  0  0  0
    3.5652    2.3995   -2.2516 C   0  0  0  0  0  0  0  0  0  0  0  0
    3.6436    3.4917   -1.3463 C   0  0  0  0  0  0  0  0  0  0  0  0
   -0.4959    1.1388   -0.1068 N   0  0  0  0  0  0  0  0  0  0  0  0
   -0.9283    2.4861   -0.1660 C   0  0  0  0  0  0  0  0  0  0  0  0
   -1.7064    3.0161    0.8685 C   0  0  0  0  0  0  0  0  0  0  0  0
   -1.9202    4.3926    0.9446 C   0  0  0  0  0  0  0  0  0  0  0  0
   -1.3881    5.2403   -0.0278 C   0  0  0  0  0  0  0  0  0  0  0  0
   -0.6868    4.7107   -1.1071 C   0  0  0  0  0  0  0  0  0  0  0  0
   -0.4721    3.3341   -1.1887 C   0  0  0  0  0  0  0  0  0  0  0  0
   -1.0882   -1.7545   -1.0137 H   0  0  0  0  0  0  0  0  0  0  0  0
   -1.0573   -1.8322    0.7791 H   0  0  0  0  0  0  0  0  0  0  0  0
    1.4534    3.1390    1.1146 H   0  0  0  0  0  0  0  0  0  0  0  0
    5.3308    6.4297   -0.9995 H   0  0  0  0  0  0  0  0  0  0  0  0
    6.1842    5.1392   -2.9675 H   0  0  0  0  0  0  0  0  0  0  0  0
    6.0348    3.1751   -4.4467 H   0  0  0  0  0  0  0  0  0  0  0  0
    4.3296    1.4239   -4.0146 H   0  0  0  0  0  0  0  0  0  0  0  0
    2.8289    1.6151   -2.1067 H   0  0  0  0  0  0  0  0  0  0  0  0
   -2.0930    2.3762    1.6584 H   0  0  0  0  0  0  0  0  0  0  0  0
   -2.4725    4.8100    1.7822 H   0  0  0  0  0  0  0  0  0  0  0  0
   -1.5093    6.3173    0.0630 H   0  0  0  0  0  0  0  0  0  0  0  0
   -0.2610    5.3704   -1.8597 H   0  0  0  0  0  0  0  0  0  0  0  0
    0.1190    2.9403   -2.0109 H   0  0  0  0  0  0  0  0  0  0  0  0
  1  2  2  0  0  0  0
  2  3  1  0  0  0  0
  2 18  1  0  0  0  0
  3  4  1  0  0  0  0
  3 25  1  0  0  0  0
  3 26  1  0  0  0  0
  4  5  1  0  0  0  0
  5  6  2  0  0  0  0
  5 18  1  0  0  0  0
  6  7  1  0  0  0  0
  7  8  1  0  0  0  0
  7 27  1  0  0  0  0
  8  9  1  0  0  0  0
  8 17  2  0  0  0  0
  9 10  2  0  0  0  0
 10 11  1  0  0  0  0
 11 12  2  0  0  0  0
 11 28  1  0  0  0  0
 12 13  1  0  0  0  0
 12 17  1  0  0  0  0
 13 14  2  0  0  0  0
 13 29  1  0  0  0  0
 14 15  1  0  0  0  0
 14 30  1  0  0  0  0
 15 16  2  0  0  0  0
 15 31  1  0  0  0  0
 16 17  1  0  0  0  0
 16 32  1  0  0  0  0
 18 19  1  0  0  0  0
 19 20  1  0  0  0  0
 19 24  2  0  0  0  0
 20 21  2  0  0  0  0
 20 33  1  0  0  0  0
 21 22  1  0  0  0  0
 21 34  1  0  0  0  0
 22 23  2  0  0  0  0
 22 35  1  0  0  0  0
 23 24  1  0  0  0  0
 23 36  1  0  0  0  0
 24 37  1  0  0  0  0
M  END
$$$$
