CHEMBL452283
 OpenBabel04072215383D

 45 48  0  0  0  0  0  0  0  0999 V2000
    2.8630    0.7718   -2.1252 C   0  0  0  0  0  0  0  0  0  0  0  0
    1.4387    0.5070   -1.7258 C   0  0  0  0  0  0  0  0  0  0  0  0
    0.9289   -0.7907   -1.8177 C   0  0  0  0  0  0  0  0  0  0  0  0
   -0.3755   -1.0508   -1.4198 C   0  0  0  0  0  0  0  0  0  0  0  0
   -1.1838   -0.0197   -0.9440 C   0  0  0  0  0  0  0  0  0  0  0  0
   -2.3738   -0.3950   -0.4612 F   0  0  0  0  0  0  0  0  0  0  0  0
   -0.7328    1.3079   -0.8895 C   0  0  0  0  0  0  0  0  0  0  0  0
   -1.5226    2.4250   -0.4855 N   0  0  0  0  0  0  0  0  0  0  0  0
   -2.9080    2.4486   -0.4160 C   0  0  0  0  0  0  0  0  0  0  0  0
   -3.6527    1.5215   -0.7169 O   0  0  0  0  0  0  0  0  0  0  0  0
   -3.4078    3.6958   -0.0376 N   0  0  0  0  0  0  0  0  0  0  0  0
   -4.8169    3.8518    0.0926 C   0  0  0  0  0  0  0  0  0  0  0  0
   -5.5681    2.9762    0.8863 C   0  0  0  0  0  0  0  0  0  0  0  0
   -6.9661    3.0511    0.9064 C   0  0  0  0  0  0  0  0  0  0  0  0
   -7.6326    3.9919    0.1158 C   0  0  0  0  0  0  0  0  0  0  0  0
   -9.1019    3.9987    0.0474 C   0  0  0  0  0  0  0  0  0  0  0  0
   -9.8084    3.1677   -0.9860 C   0  0  0  0  0  0  0  0  0  0  0  0
  -11.0922    3.0783   -1.1765 N   0  0  0  0  0  0  0  0  0  0  0  0
  -11.8647    3.8256   -0.3378 C   0  0  0  0  0  0  0  0  0  0  0  0
  -13.2295    3.9857   -0.2527 C   0  0  0  0  0  0  0  0  0  0  0  0
  -13.4271    4.8943    0.7951 C   0  0  0  0  0  0  0  0  0  0  0  0
  -12.2863    5.3050    1.3511 N   0  0  0  0  0  0  0  0  0  0  0  0
  -11.3130    4.6241    0.6694 N   0  0  0  0  0  0  0  0  0  0  0  0
   -9.9070    4.7035    0.8750 C   0  0  0  0  0  0  0  0  0  0  0  0
   -9.4691    5.5259    1.9137 N   0  0  0  0  0  0  0  0  0  0  0  0
   -6.8765    4.8996   -0.6403 C   0  0  0  0  0  0  0  0  0  0  0  0
   -5.4736    4.8473   -0.6326 C   0  0  0  0  0  0  0  0  0  0  0  0
    0.6049    1.5498   -1.2617 C   0  0  0  0  0  0  0  0  0  0  0  0
    3.3656   -0.1515   -2.4387 H   0  0  0  0  0  0  0  0  0  0  0  0
    3.4253    1.1798   -1.2801 H   0  0  0  0  0  0  0  0  0  0  0  0
    2.9014    1.4707   -2.9657 H   0  0  0  0  0  0  0  0  0  0  0  0
    1.5448   -1.6112   -2.1790 H   0  0  0  0  0  0  0  0  0  0  0  0
   -0.7774   -2.0590   -1.4551 H   0  0  0  0  0  0  0  0  0  0  0  0
   -1.0439    3.2979   -0.3426 H   0  0  0  0  0  0  0  0  0  0  0  0
   -2.9209    4.4714   -0.4615 H   0  0  0  0  0  0  0  0  0  0  0  0
   -5.0719    2.2073    1.4751 H   0  0  0  0  0  0  0  0  0  0  0  0
   -7.5243    2.3459    1.5192 H   0  0  0  0  0  0  0  0  0  0  0  0
   -9.1486    2.5758   -1.6413 H   0  0  0  0  0  0  0  0  0  0  0  0
  -13.9697    3.5045   -0.8752 H   0  0  0  0  0  0  0  0  0  0  0  0
  -14.3630    5.2832    1.1760 H   0  0  0  0  0  0  0  0  0  0  0  0
  -10.1891    6.2000    2.1854 H   0  0  0  0  0  0  0  0  0  0  0  0
   -8.5494    5.9316    1.7690 H   0  0  0  0  0  0  0  0  0  0  0  0
   -7.3736    5.6325   -1.2727 H   0  0  0  0  0  0  0  0  0  0  0  0
   -4.9182    5.5320   -1.2666 H   0  0  0  0  0  0  0  0  0  0  0  0
    1.0139    2.5570   -1.2162 H   0  0  0  0  0  0  0  0  0  0  0  0
  1  2  1  0  0  0  0
  1 29  1  0  0  0  0
  1 30  1  0  0  0  0
  1 31  1  0  0  0  0
  2  3  1  0  0  0  0
  2 28  2  0  0  0  0
  3  4  2  0  0  0  0
  3 32  1  0  0  0  0
  4  5  1  0  0  0  0
  4 33  1  0  0  0  0
  5  6  1  0  0  0  0
  5  7  2  0  0  0  0
  7  8  1  0  0  0  0
  7 28  1  0  0  0  0
  8  9  1  0  0  0  0
  8 34  1  0  0  0  0
  9 10  2  0  0  0  0
  9 11  1  0  0  0  0
 11 12  1  0  0  0  0
 11 35  1  0  0  0  0
 12 13  1  0  0  0  0
 12 27  2  0  0  0  0
 13 14  2  0  0  0  0
 13 36  1  0  0  0  0
 14 15  1  0  0  0  0
 14 37  1  0  0  0  0
 15 16  1  0  0  0  0
 15 26  2  0  0  0  0
 16 17  1  0  0  0  0
 16 24  2  0  0  0  0
 17 18  2  0  0  0  0
 17 38  1  0  0  0  0
 18 19  1  0  0  0  0
 19 20  2  0  0  0  0
 19 23  1  0  0  0  0
 20 21  1  0  0  0  0
 20 39  1  0  0  0  0
 21 22  2  0  0  0  0
 21 40  1  0  0  0  0
 22 23  1  0  0  0  0
 23 24  1  0  0  0  0
 24 25  1  0  0  0  0
 25 41  1  0  0  0  0
 25 42  1  0  0  0  0
 26 27  1  0  0  0  0
 26 43  1  0  0  0  0
 27 44  1  0  0  0  0
 28 45  1  0  0  0  0
M  END
$$$$
