CHEMBL3902161
 OpenBabel04072215373D

 63 66  0  0  1  0  0  0  0  0999 V2000
   -0.4007   -4.7971    3.3497 C   0  0  0  0  0  0  0  0  0  0  0  0
   -0.0440   -4.7291    1.8572 C   0  0  1  0  0  0  0  0  0  0  0  0
    1.4183   -4.6445    1.6783 N   0  0  0  0  0  0  0  0  0  0  0  0
    1.9837   -3.4592    2.1820 C   0  0  0  0  0  0  0  0  0  0  0  0
    1.2492   -2.3197    2.2531 N   0  0  0  0  0  0  0  0  0  0  0  0
    1.8069   -1.2153    2.7893 C   0  0  0  0  0  0  0  0  0  0  0  0
    3.0559   -1.0578    3.2550 N   0  0  0  0  0  0  0  0  0  0  0  0
    3.7555   -2.1962    3.1490 C   0  0  0  0  0  0  0  0  0  0  0  0
    5.0569   -2.3436    3.5437 N   0  0  0  0  0  0  0  0  0  0  0  0
    5.4795   -3.6427    3.3305 C   0  0  0  0  0  0  0  0  0  0  0  0
    6.8250   -4.1173    3.6552 C   0  0  0  0  0  0  0  0  0  0  0  0
    7.0182   -5.4549    4.0203 C   0  0  0  0  0  0  0  0  0  0  0  0
    8.3006   -5.9588    4.2607 C   0  0  0  0  0  0  0  0  0  0  0  0
    9.4139   -5.1306    4.1375 C   0  0  0  0  0  0  0  0  0  0  0  0
   10.7100   -5.5185    4.3484 O   0  0  0  0  0  0  0  0  0  0  0  0
   10.9880   -6.8932    4.0728 C   0  0  0  0  0  0  0  0  0  0  0  0
   12.4685   -7.1549    4.3336 C   0  0  0  0  0  0  0  0  0  0  0  0
   12.8287   -8.6129    4.0445 C   0  0  0  0  0  0  0  0  0  0  0  0
   14.3079   -8.8837    4.3215 C   0  0  0  0  0  0  0  0  0  0  0  0
   14.6837  -10.3357    4.0405 C   0  0  0  0  0  0  0  0  0  0  0  0
   16.1501  -10.5903    4.3200 C   0  0  0  0  0  0  0  0  0  0  0  0
   16.9425   -9.7403    4.7156 O   0  0  0  0  0  0  0  0  0  0  0  0
   16.5412  -11.8864    4.0918 N   0  0  0  0  0  0  0  0  0  0  0  0
   17.9024  -12.1804    4.3187 O   0  0  0  0  0  0  0  0  0  0  0  0
    9.2293   -3.7865    3.8129 C   0  0  0  0  0  0  0  0  0  0  0  0
    7.9452   -3.2814    3.5719 C   0  0  0  0  0  0  0  0  0  0  0  0
    4.3957   -4.3148    2.7829 C   0  0  0  0  0  0  0  0  0  0  0  0
    3.3114   -3.4049    2.6457 C   0  0  0  0  0  0  0  0  0  0  0  0
   -0.6163   -5.9652    1.1634 C   0  0  0  0  0  0  0  0  0  0  0  0
   -1.9327   -5.9269    0.6655 C   0  0  0  0  0  0  0  0  0  0  0  0
   -2.5206   -7.0576    0.0925 C   0  0  0  0  0  0  0  0  0  0  0  0
   -1.7994   -8.2434   -0.0057 C   0  0  0  0  0  0  0  0  0  0  0  0
   -0.4939   -8.3022    0.4805 C   0  0  0  0  0  0  0  0  0  0  0  0
    0.0892   -7.1748    1.0725 C   0  0  0  0  0  0  0  0  0  0  0  0
   -0.1307   -3.8742    3.8718 H   0  0  0  0  0  0  0  0  0  0  0  0
    0.1294   -5.6179    3.8461 H   0  0  0  0  0  0  0  0  0  0  0  0
   -1.4756   -4.9478    3.4973 H   0  0  0  0  0  0  0  0  0  0  0  0
   -0.5198   -3.8542    1.3956 H   0  0  0  0  0  0  0  0  0  0  0  0
    1.6202   -4.6466    0.6766 H   0  0  0  0  0  0  0  0  0  0  0  0
    1.1598   -0.3464    2.8599 H   0  0  0  0  0  0  0  0  0  0  0  0
    5.6010   -1.6012    3.9549 H   0  0  0  0  0  0  0  0  0  0  0  0
    6.1684   -6.1254    4.1270 H   0  0  0  0  0  0  0  0  0  0  0  0
    8.3869   -6.9992    4.5520 H   0  0  0  0  0  0  0  0  0  0  0  0
   10.7504   -7.1125    3.0244 H   0  0  0  0  0  0  0  0  0  0  0  0
   10.4072   -7.5473    4.7315 H   0  0  0  0  0  0  0  0  0  0  0  0
   12.6992   -6.9070    5.3777 H   0  0  0  0  0  0  0  0  0  0  0  0
   13.0776   -6.4789    3.7213 H   0  0  0  0  0  0  0  0  0  0  0  0
   12.6008   -8.8463    2.9974 H   0  0  0  0  0  0  0  0  0  0  0  0
   12.2114   -9.2743    4.6647 H   0  0  0  0  0  0  0  0  0  0  0  0
   14.5324   -8.6413    5.3680 H   0  0  0  0  0  0  0  0  0  0  0  0
   14.9216   -8.2175    3.7039 H   0  0  0  0  0  0  0  0  0  0  0  0
   14.4854  -10.5805    2.9908 H   0  0  0  0  0  0  0  0  0  0  0  0
   14.0903  -11.0091    4.6701 H   0  0  0  0  0  0  0  0  0  0  0  0
   15.9530  -12.6285    3.7328 H   0  0  0  0  0  0  0  0  0  0  0  0
   18.2569  -11.3102    4.6111 H   0  0  0  0  0  0  0  0  0  0  0  0
   10.0921   -3.1314    3.7200 H   0  0  0  0  0  0  0  0  0  0  0  0
    7.8466   -2.2371    3.2879 H   0  0  0  0  0  0  0  0  0  0  0  0
    4.3806   -5.3596    2.5004 H   0  0  0  0  0  0  0  0  0  0  0  0
   -2.5206   -5.0140    0.7413 H   0  0  0  0  0  0  0  0  0  0  0  0
   -3.5451   -7.0141   -0.2695 H   0  0  0  0  0  0  0  0  0  0  0  0
   -2.2557   -9.1236   -0.4517 H   0  0  0  0  0  0  0  0  0  0  0  0
    0.0675   -9.2308    0.4104 H   0  0  0  0  0  0  0  0  0  0  0  0
    1.0968   -7.2539    1.4772 H   0  0  0  0  0  0  0  0  0  0  0  0
  1  2  1  0  0  0  0
  1 35  1  0  0  0  0
  1 36  1  0  0  0  0
  1 37  1  0  0  0  0
  2  3  1  0  0  0  0
  2 29  1  0  0  0  0
  2 38  1  6  0  0  0
  3  4  1  0  0  0  0
  3 39  1  0  0  0  0
  4  5  1  0  0  0  0
  4 28  2  0  0  0  0
  5  6  2  0  0  0  0
  6  7  1  0  0  0  0
  6 40  1  0  0  0  0
  7  8  2  0  0  0  0
  8  9  1  0  0  0  0
  8 28  1  0  0  0  0
  9 10  1  0  0  0  0
  9 41  1  0  0  0  0
 10 11  1  0  0  0  0
 10 27  2  0  0  0  0
 11 12  1  0  0  0  0
 11 26  2  0  0  0  0
 12 13  2  0  0  0  0
 12 42  1  0  0  0  0
 13 14  1  0  0  0  0
 13 43  1  0  0  0  0
 14 15  1  0  0  0  0
 14 25  2  0  0  0  0
 15 16  1  0  0  0  0
 16 17  1  0  0  0  0
 16 44  1  0  0  0  0
 16 45  1  0  0  0  0
 17 18  1  0  0  0  0
 17 46  1  0  0  0  0
 17 47  1  0  0  0  0
 18 19  1  0  0  0  0
 18 48  1  0  0  0  0
 18 49  1  0  0  0  0
 19 20  1  0  0  0  0
 19 50  1  0  0  0  0
 19 51  1  0  0  0  0
 20 21  1  0  0  0  0
 20 52  1  0  0  0  0
 20 53  1  0  0  0  0
 21 22  2  0  0  0  0
 21 23  1  0  0  0  0
 23 24  1  0  0  0  0
 23 54  1  0  0  0  0
 24 55  1  0  0  0  0
 25 26  1  0  0  0  0
 25 56  1  0  0  0  0
 26 57  1  0  0  0  0
 27 28  1  0  0  0  0
 27 58  1  0  0  0  0
 29 30  1  0  0  0  0
 29 34  2  0  0  0  0
 30 31  2  0  0  0  0
 30 59  1  0  0  0  0
 31 32  1  0  0  0  0
 31 60  1  0  0  0  0
 32 33  2  0  0  0  0
 32 61  1  0  0  0  0
 33 34  1  0  0  0  0
 33 62  1  0  0  0  0
 34 63  1  0  0  0  0
M  END
$$$$
