CHEMBL4208852
 OpenBabel04072215383D

 60 64  0  0  0  0  0  0  0  0999 V2000
    1.1563    0.2686   -0.4029 C   0  0  0  0  0  0  0  0  0  0  0  0
    2.5300   -0.0335   -0.0442 N   0  0  0  0  0  0  0  0  0  0  0  0
    3.0941   -1.0602   -0.7916 C   0  0  0  0  0  0  0  0  0  0  0  0
    2.6668   -1.2431   -2.0545 N   0  0  0  0  0  0  0  0  0  0  0  0
    3.2036   -2.2265   -2.7994 C   0  0  0  0  0  0  0  0  0  0  0  0
    4.2053   -3.0205   -2.2620 C   0  0  0  0  0  0  0  0  0  0  0  0
    5.0472   -4.0865   -2.6822 C   0  0  0  0  0  0  0  0  0  0  0  0
    5.1075   -4.6801   -4.0114 C   0  0  0  0  0  0  0  0  0  0  0  0
    4.8527   -3.9080   -5.1410 C   0  0  0  0  0  0  0  0  0  0  0  0
    4.8148   -4.5125   -6.3862 C   0  0  0  0  0  0  0  0  0  0  0  0
    5.0719   -5.8764   -6.5128 C   0  0  0  0  0  0  0  0  0  0  0  0
    5.0526   -6.4044   -7.7915 N   0  0  0  0  0  0  0  0  0  0  0  0
    5.8232   -7.6159   -8.0674 C   0  0  0  0  0  0  0  0  0  0  0  0
    6.1001   -7.6398   -9.5959 C   0  0  0  0  0  0  0  0  0  0  0  0
    4.8634   -7.5751  -10.4205 N   0  0  0  0  0  0  0  0  0  0  0  0
    5.1999   -7.4663  -11.8382 C   0  0  0  0  0  0  0  0  0  0  0  0
    4.0345   -6.4175  -10.0066 C   0  0  0  0  0  0  0  0  0  0  0  0
    3.7587   -6.3916   -8.4876 C   0  0  0  0  0  0  0  0  0  0  0  0
    5.3961   -6.6261   -5.4437 N   0  0  0  0  0  0  0  0  0  0  0  0
    5.4004   -6.0205   -4.2210 C   0  0  0  0  0  0  0  0  0  0  0  0
    5.8268   -4.5077   -1.6752 N   0  0  0  0  0  0  0  0  0  0  0  0
    5.5178   -3.6796   -0.6456 N   0  0  0  0  0  0  0  0  0  0  0  0
    6.2636   -3.7852    0.5929 C   0  0  0  0  0  0  0  0  0  0  0  0
    5.6346   -4.7239    1.6265 C   0  0  0  0  0  0  0  0  0  0  0  0
    6.5101   -4.8443    2.8769 C   0  0  0  0  0  0  0  0  0  0  0  0
    6.1832   -6.2012    3.4931 C   0  0  0  0  0  0  0  0  0  0  0  0
    5.3965   -6.9798    2.4447 C   0  0  0  0  0  0  0  0  0  0  0  0
    5.4969   -6.1723    1.1585 C   0  0  0  0  0  0  0  0  0  0  0  0
    4.5492   -2.7621   -0.9510 C   0  0  0  0  0  0  0  0  0  0  0  0
    4.0290   -1.8012   -0.1642 N   0  0  0  0  0  0  0  0  0  0  0  0
    0.7695    1.0377    0.2729 H   0  0  0  0  0  0  0  0  0  0  0  0
    0.5146   -0.6136   -0.3083 H   0  0  0  0  0  0  0  0  0  0  0  0
    1.0799    0.6657   -1.4196 H   0  0  0  0  0  0  0  0  0  0  0  0
    2.6954   -0.2519    0.9252 H   0  0  0  0  0  0  0  0  0  0  0  0
    2.8106   -2.3324   -3.8024 H   0  0  0  0  0  0  0  0  0  0  0  0
    4.6965   -2.8344   -5.0850 H   0  0  0  0  0  0  0  0  0  0  0  0
    4.6254   -3.9109   -7.2705 H   0  0  0  0  0  0  0  0  0  0  0  0
    5.2710   -8.5138   -7.7639 H   0  0  0  0  0  0  0  0  0  0  0  0
    6.7849   -7.6077   -7.5402 H   0  0  0  0  0  0  0  0  0  0  0  0
    6.6574   -8.5514   -9.8392 H   0  0  0  0  0  0  0  0  0  0  0  0
    6.7472   -6.7833   -9.8369 H   0  0  0  0  0  0  0  0  0  0  0  0
    5.7849   -8.3330  -12.1622 H   0  0  0  0  0  0  0  0  0  0  0  0
    5.7742   -6.5590  -12.0609 H   0  0  0  0  0  0  0  0  0  0  0  0
    4.2885   -7.4512  -12.4466 H   0  0  0  0  0  0  0  0  0  0  0  0
    3.0745   -6.4429  -10.5353 H   0  0  0  0  0  0  0  0  0  0  0  0
    4.5362   -5.4778  -10.2786 H   0  0  0  0  0  0  0  0  0  0  0  0
    3.1607   -7.2646   -8.1944 H   0  0  0  0  0  0  0  0  0  0  0  0
    3.1644   -5.4998   -8.2564 H   0  0  0  0  0  0  0  0  0  0  0  0
    5.6413   -6.6786   -3.3889 H   0  0  0  0  0  0  0  0  0  0  0  0
    6.3652   -2.7748    1.0058 H   0  0  0  0  0  0  0  0  0  0  0  0
    7.2747   -4.1208    0.3280 H   0  0  0  0  0  0  0  0  0  0  0  0
    4.6436   -4.3483    1.9147 H   0  0  0  0  0  0  0  0  0  0  0  0
    6.3227   -4.0267    3.5810 H   0  0  0  0  0  0  0  0  0  0  0  0
    7.5755   -4.8123    2.6177 H   0  0  0  0  0  0  0  0  0  0  0  0
    5.5925   -6.0879    4.4084 H   0  0  0  0  0  0  0  0  0  0  0  0
    7.1046   -6.7277    3.7668 H   0  0  0  0  0  0  0  0  0  0  0  0
    4.3500   -7.0681    2.7583 H   0  0  0  0  0  0  0  0  0  0  0  0
    5.7859   -7.9948    2.3141 H   0  0  0  0  0  0  0  0  0  0  0  0
    4.6125   -6.3182    0.5294 H   0  0  0  0  0  0  0  0  0  0  0  0
    6.3761   -6.4898    0.5861 H   0  0  0  0  0  0  0  0  0  0  0  0
  1  2  1  0  0  0  0
  1 31  1  0  0  0  0
  1 32  1  0  0  0  0
  1 33  1  0  0  0  0
  2  3  1  0  0  0  0
  2 34  1  0  0  0  0
  3  4  1  0  0  0  0
  3 30  2  0  0  0  0
  4  5  2  0  0  0  0
  5  6  1  0  0  0  0
  5 35  1  0  0  0  0
  6  7  1  0  0  0  0
  6 29  2  0  0  0  0
  7  8  1  0  0  0  0
  7 21  2  0  0  0  0
  8  9  1  0  0  0  0
  8 20  2  0  0  0  0
  9 10  2  0  0  0  0
  9 36  1  0  0  0  0
 10 11  1  0  0  0  0
 10 37  1  0  0  0  0
 11 12  1  0  0  0  0
 11 19  2  0  0  0  0
 12 13  1  0  0  0  0
 12 18  1  0  0  0  0
 13 14  1  0  0  0  0
 13 38  1  0  0  0  0
 13 39  1  0  0  0  0
 14 15  1  0  0  0  0
 14 40  1  0  0  0  0
 14 41  1  0  0  0  0
 15 16  1  0  0  0  0
 15 17  1  0  0  0  0
 16 42  1  0  0  0  0
 16 43  1  0  0  0  0
 16 44  1  0  0  0  0
 17 18  1  0  0  0  0
 17 45  1  0  0  0  0
 17 46  1  0  0  0  0
 18 47  1  0  0  0  0
 18 48  1  0  0  0  0
 19 20  1  0  0  0  0
 20 49  1  0  0  0  0
 21 22  1  0  0  0  0
 22 23  1  0  0  0  0
 22 29  1  0  0  0  0
 23 24  1  0  0  0  0
 23 50  1  0  0  0  0
 23 51  1  0  0  0  0
 24 25  1  0  0  0  0
 24 28  1  0  0  0  0
 24 52  1  0  0  0  0
 25 26  1  0  0  0  0
 25 53  1  0  0  0  0
 25 54  1  0  0  0  0
 26 27  1  0  0  0  0
 26 55  1  0  0  0  0
 26 56  1  0  0  0  0
 27 28  1  0  0  0  0
 27 57  1  0  0  0  0
 27 58  1  0  0  0  0
 28 59  1  0  0  0  0
 28 60  1  0  0  0  0
 29 30  1  0  0  0  0
M  END
$$$$
