CHEMBL3098317
 OpenBabel04072215363D

 41 43  0  0  0  0  0  0  0  0999 V2000
    1.1133   -0.3508   -0.4135 C   0  0  0  0  0  0  0  0  0  0  0  0
    2.4760   -0.0763   -0.1009 O   0  0  0  0  0  0  0  0  0  0  0  0
    2.9225   -0.5855    1.0926 C   0  0  0  0  0  0  0  0  0  0  0  0
    3.8448    0.2365    1.7553 C   0  0  0  0  0  0  0  0  0  0  0  0
    4.3804   -0.1012    2.9886 C   0  0  0  0  0  0  0  0  0  0  0  0
    5.2180    0.7473    3.5905 N   0  0  0  0  0  0  0  0  0  0  0  0
    5.6607    0.3835    4.7949 C   0  0  0  0  0  0  0  0  0  0  0  0
    6.7160    1.4691    5.5813 Cl  0  0  0  0  0  0  0  0  0  0  0  0
    5.3494   -0.7240    5.4666 N   0  0  0  0  0  0  0  0  0  0  0  0
    4.5081   -1.5681    4.8438 C   0  0  0  0  0  0  0  0  0  0  0  0
    4.1068   -2.7489    5.5299 N   0  0  0  0  0  0  0  0  0  0  0  0
    4.0613   -2.8783    6.9313 C   0  0  0  0  0  0  0  0  0  0  0  0
    3.6756   -1.7906    7.7356 C   0  0  0  0  0  0  0  0  0  0  0  0
    3.6456   -1.8985    9.1201 C   0  0  0  0  0  0  0  0  0  0  0  0
    3.9699   -3.1181    9.7066 C   0  0  0  0  0  0  0  0  0  0  0  0
    3.9133   -3.2560   11.4611 S   0  0  0  0  0  0  0  0  0  0  0  0
    2.3022   -3.6832   11.6319 N   0  0  0  0  0  0  0  0  0  0  0  0
    4.6952   -4.3969   11.8753 O   0  0  0  0  0  0  0  0  0  0  0  0
    4.0632   -1.9473   12.0529 O   0  0  0  0  0  0  0  0  0  0  0  0
    4.2879   -4.2333    8.9286 C   0  0  0  0  0  0  0  0  0  0  0  0
    4.3144   -4.1123    7.5386 C   0  0  0  0  0  0  0  0  0  0  0  0
    3.9959   -1.3163    3.5670 C   0  0  0  0  0  0  0  0  0  0  0  0
    3.1012   -2.1754    2.8839 C   0  0  0  0  0  0  0  0  0  0  0  0
    2.5607   -1.8153    1.6506 C   0  0  0  0  0  0  0  0  0  0  0  0
    1.7597   -2.6576    0.9320 O   0  0  0  0  0  0  0  0  0  0  0  0
    0.8564   -3.4594    1.6848 C   0  0  0  0  0  0  0  0  0  0  0  0
    0.7882    0.3762   -1.1642 H   0  0  0  0  0  0  0  0  0  0  0  0
    0.4602   -0.2399    0.4599 H   0  0  0  0  0  0  0  0  0  0  0  0
    1.0082   -1.3408   -0.8661 H   0  0  0  0  0  0  0  0  0  0  0  0
    4.1305    1.1850    1.3029 H   0  0  0  0  0  0  0  0  0  0  0  0
    4.5052   -3.5584    5.0635 H   0  0  0  0  0  0  0  0  0  0  0  0
    3.4055   -0.8388    7.2844 H   0  0  0  0  0  0  0  0  0  0  0  0
    3.3637   -1.0390    9.7225 H   0  0  0  0  0  0  0  0  0  0  0  0
    2.2000   -4.6162   12.0244 H   0  0  0  0  0  0  0  0  0  0  0  0
    1.7595   -2.9404   12.0672 H   0  0  0  0  0  0  0  0  0  0  0  0
    4.5055   -5.1917    9.3945 H   0  0  0  0  0  0  0  0  0  0  0  0
    4.5564   -4.9864    6.9398 H   0  0  0  0  0  0  0  0  0  0  0  0
    2.8336   -3.1255    3.3353 H   0  0  0  0  0  0  0  0  0  0  0  0
    0.0873   -3.8215    0.9959 H   0  0  0  0  0  0  0  0  0  0  0  0
    0.3580   -2.8801    2.4695 H   0  0  0  0  0  0  0  0  0  0  0  0
    1.3681   -4.3313    2.1027 H   0  0  0  0  0  0  0  0  0  0  0  0
  1  2  1  0  0  0  0
  1 27  1  0  0  0  0
  1 28  1  0  0  0  0
  1 29  1  0  0  0  0
  2  3  1  0  0  0  0
  3  4  1  0  0  0  0
  3 24  2  0  0  0  0
  4  5  2  0  0  0  0
  4 30  1  0  0  0  0
  5  6  1  0  0  0  0
  5 22  1  0  0  0  0
  6  7  2  0  0  0  0
  7  8  1  0  0  0  0
  7  9  1  0  0  0  0
  9 10  2  0  0  0  0
 10 11  1  0  0  0  0
 10 22  1  0  0  0  0
 11 12  1  0  0  0  0
 11 31  1  0  0  0  0
 12 13  1  0  0  0  0
 12 21  2  0  0  0  0
 13 14  2  0  0  0  0
 13 32  1  0  0  0  0
 14 15  1  0  0  0  0
 14 33  1  0  0  0  0
 15 16  1  0  0  0  0
 15 20  2  0  0  0  0
 16 17  1  0  0  0  0
 16 18  2  0  0  0  0
 16 19  2  0  0  0  0
 17 34  1  0  0  0  0
 17 35  1  0  0  0  0
 20 21  1  0  0  0  0
 20 36  1  0  0  0  0
 21 37  1  0  0  0  0
 22 23  2  0  0  0  0
 23 24  1  0  0  0  0
 23 38  1  0  0  0  0
 24 25  1  0  0  0  0
 25 26  1  0  0  0  0
 26 39  1  0  0  0  0
 26 40  1  0  0  0  0
 26 41  1  0  0  0  0
M  END
$$$$
