CHEMBL3908149
 OpenBabel04072215373D

 57 60  0  0  1  0  0  0  0  0999 V2000
    1.1329   -0.0243    0.2251 C   0  0  0  0  0  0  0  0  0  0  0  0
    2.2301    0.7079   -0.3245 O   0  0  0  0  0  0  0  0  0  0  0  0
    2.9630    1.4622    0.5453 C   0  0  0  0  0  0  0  0  0  0  0  0
    2.5983    1.7745    1.8482 C   0  0  0  0  0  0  0  0  0  0  0  0
    3.4389    2.5730    2.6277 C   0  0  0  0  0  0  0  0  0  0  0  0
    3.1734    2.9692    3.9132 O   0  0  0  0  0  0  0  0  0  0  0  0
    2.0574    2.3577    4.5461 C   0  0  0  0  0  0  0  0  0  0  0  0
    4.6666    3.0261    2.1215 C   0  0  0  0  0  0  0  0  0  0  0  0
    5.1173    2.6510    0.8515 C   0  0  0  0  0  0  0  0  0  0  0  0
    6.4192    2.9980    0.3931 N   0  0  0  0  0  0  0  0  0  0  0  0
    6.8916    2.2722   -0.8518 C   0  0  0  0  0  0  0  0  0  0  0  0
    7.3133    0.8254   -0.5391 C   0  0  3  0  0  0  0  0  0  0  0  0
    6.2203    0.0660   -0.2302 F   0  0  0  0  0  0  0  0  0  0  0  0
    8.0334    0.1143   -1.6923 C   0  0  0  0  0  0  0  0  0  0  0  0
    7.2214   -0.0369   -2.9048 N   0  0  0  0  0  0  0  0  0  0  0  0
    7.5325    3.6273    1.0487 C   0  0  0  0  0  0  0  0  0  0  0  0
    8.2618    4.5151    0.2683 C   0  0  0  0  0  0  0  0  0  0  0  0
    9.5842    4.7747    0.5459 C   0  0  0  0  0  0  0  0  0  0  0  0
   10.1711    4.3195    1.6993 C   0  0  0  0  0  0  0  0  0  0  0  0
   11.4920    4.4841    1.7462 N   0  0  0  0  0  0  0  0  0  0  0  0
   12.0830    4.2565    2.9263 C   0  0  0  0  0  0  0  0  0  0  0  0
   11.3507    3.9491    4.0546 C   0  0  0  0  0  0  0  0  0  0  0  0
   12.0340    4.1894    5.3279 C   0  0  0  0  0  0  0  0  0  0  0  0
   11.9587    5.3202    6.1771 C   0  0  0  0  0  0  0  0  0  0  0  0
   12.9201    5.3306    7.1115 N   0  0  0  0  0  0  0  0  0  0  0  0
   13.6093    4.2059    6.8602 N   0  0  0  0  0  0  0  0  0  0  0  0
   14.5630    3.7018    7.8193 C   0  0  0  0  0  0  0  0  0  0  0  0
   13.2168    3.5845    5.7069 C   0  0  0  0  0  0  0  0  0  0  0  0
   10.0162    3.6263    3.9800 N   0  0  0  0  0  0  0  0  0  0  0  0
    9.3924    3.7427    2.7385 C   0  0  0  0  0  0  0  0  0  0  0  0
    8.0690    3.3383    2.3402 C   0  0  0  0  0  0  0  0  0  0  0  0
    4.1851    1.9368    0.0576 C   0  0  0  0  0  0  0  0  0  0  0  0
    0.7471   -0.7012   -0.5442 H   0  0  0  0  0  0  0  0  0  0  0  0
    0.3217    0.6539    0.5086 H   0  0  0  0  0  0  0  0  0  0  0  0
    1.4469   -0.6401    1.0754 H   0  0  0  0  0  0  0  0  0  0  0  0
    1.6628    1.4124    2.2463 H   0  0  0  0  0  0  0  0  0  0  0  0
    2.0317    2.7029    5.5839 H   0  0  0  0  0  0  0  0  0  0  0  0
    2.1554    1.2662    4.5603 H   0  0  0  0  0  0  0  0  0  0  0  0
    1.1204    2.6634    4.0689 H   0  0  0  0  0  0  0  0  0  0  0  0
    5.2708    3.6700    2.7449 H   0  0  0  0  0  0  0  0  0  0  0  0
    7.7548    2.7748   -1.3071 H   0  0  0  0  0  0  0  0  0  0  0  0
    6.1386    2.3274   -1.6451 H   0  0  0  0  0  0  0  0  0  0  0  0
    7.9682    0.8149    0.3381 H   0  0  0  0  0  0  0  0  0  0  0  0
    8.2935   -0.8930   -1.3465 H   0  0  0  0  0  0  0  0  0  0  0  0
    8.9650    0.6312   -1.9444 H   0  0  0  0  0  0  0  0  0  0  0  0
    6.3353   -0.4803   -2.6449 H   0  0  0  0  0  0  0  0  0  0  0  0
    7.6804   -0.7026   -3.5286 H   0  0  0  0  0  0  0  0  0  0  0  0
    7.8393    4.9127   -0.6563 H   0  0  0  0  0  0  0  0  0  0  0  0
   10.1920    5.3293   -0.1609 H   0  0  0  0  0  0  0  0  0  0  0  0
   13.1493    4.4161    2.9496 H   0  0  0  0  0  0  0  0  0  0  0  0
   11.2858    6.1660    6.1236 H   0  0  0  0  0  0  0  0  0  0  0  0
   14.6149    4.3708    8.6809 H   0  0  0  0  0  0  0  0  0  0  0  0
   15.5433    3.6123    7.3458 H   0  0  0  0  0  0  0  0  0  0  0  0
   14.2044    2.7195    8.1403 H   0  0  0  0  0  0  0  0  0  0  0  0
   13.7945    2.7687    5.2845 H   0  0  0  0  0  0  0  0  0  0  0  0
    7.4928    2.7280    3.0430 H   0  0  0  0  0  0  0  0  0  0  0  0
    4.3929    1.6843   -0.9803 H   0  0  0  0  0  0  0  0  0  0  0  0
  1  2  1  0  0  0  0
  1 33  1  0  0  0  0
  1 34  1  0  0  0  0
  1 35  1  0  0  0  0
  2  3  1  0  0  0  0
  3  4  1  0  0  0  0
  3 32  2  0  0  0  0
  4  5  2  0  0  0  0
  4 36  1  0  0  0  0
  5  6  1  0  0  0  0
  5  8  1  0  0  0  0
  6  7  1  0  0  0  0
  7 37  1  0  0  0  0
  7 38  1  0  0  0  0
  7 39  1  0  0  0  0
  8  9  2  0  0  0  0
  8 40  1  0  0  0  0
  9 10  1  0  0  0  0
  9 32  1  0  0  0  0
 10 11  1  0  0  0  0
 10 16  1  0  0  0  0
 11 12  1  0  0  0  0
 11 41  1  0  0  0  0
 11 42  1  0  0  0  0
 12 13  1  0  0  0  0
 12 14  1  0  0  0  0
 12 43  1  0  0  0  0
 14 15  1  0  0  0  0
 14 44  1  0  0  0  0
 14 45  1  0  0  0  0
 15 46  1  0  0  0  0
 15 47  1  0  0  0  0
 16 17  1  0  0  0  0
 16 31  2  0  0  0  0
 17 18  2  0  0  0  0
 17 48  1  0  0  0  0
 18 19  1  0  0  0  0
 18 49  1  0  0  0  0
 19 20  1  0  0  0  0
 19 30  2  0  0  0  0
 20 21  2  0  0  0  0
 21 22  1  0  0  0  0
 21 50  1  0  0  0  0
 22 23  1  0  0  0  0
 22 29  2  0  0  0  0
 23 24  1  0  0  0  0
 23 28  2  0  0  0  0
 24 25  2  0  0  0  0
 24 51  1  0  0  0  0
 25 26  1  0  0  0  0
 26 27  1  0  0  0  0
 26 28  1  0  0  0  0
 27 52  1  0  0  0  0
 27 53  1  0  0  0  0
 27 54  1  0  0  0  0
 28 55  1  0  0  0  0
 29 30  1  0  0  0  0
 30 31  1  0  0  0  0
 31 56  1  0  0  0  0
 32 57  1  0  0  0  0
M  END
$$$$
