CHEMBL1929555
 OpenBabel04072215363D

 47 51  0  0  0  0  0  0  0  0999 V2000
    1.4624    0.3589   -0.1954 N   0  0  0  0  0  0  0  0  0  0  0  0
    2.8344    0.2616   -0.1120 C   0  0  0  0  0  0  0  0  0  0  0  0
    3.3241   -0.9877   -0.0230 N   0  0  0  0  0  0  0  0  0  0  0  0
    4.6586   -1.1926    0.0245 C   0  0  0  0  0  0  0  0  0  0  0  0
    5.2107   -2.4828    0.1091 N   0  0  0  0  0  0  0  0  0  0  0  0
    4.6806   -3.6585    0.6572 C   0  0  0  0  0  0  0  0  0  0  0  0
    3.4032   -3.7441    1.2101 C   0  0  0  0  0  0  0  0  0  0  0  0
    2.9227   -4.9448    1.7413 C   0  0  0  0  0  0  0  0  0  0  0  0
    3.7228   -6.0805    1.7118 C   0  0  0  0  0  0  0  0  0  0  0  0
    3.1478   -7.5488    2.3953 Cl  0  0  0  0  0  0  0  0  0  0  0  0
    4.9904   -6.0285    1.1397 C   0  0  0  0  0  0  0  0  0  0  0  0
    5.4624   -4.8255    0.6033 C   0  0  0  0  0  0  0  0  0  0  0  0
    5.4855   -0.0644    0.0091 C   0  0  0  0  0  0  0  0  0  0  0  0
    6.8883    0.1837    0.0037 C   0  0  0  0  0  0  0  0  0  0  0  0
    7.0729    1.5483   -0.0963 C   0  0  0  0  0  0  0  0  0  0  0  0
    8.3321    2.2936   -0.3534 C   0  0  0  0  0  0  0  0  0  0  0  0
    9.0005    2.9539    0.8306 C   0  0  0  0  0  0  0  0  0  0  0  0
    8.7028    4.3057    1.0720 C   0  0  0  0  0  0  0  0  0  0  0  0
    9.5273    5.0784    1.8797 C   0  0  0  0  0  0  0  0  0  0  0  0
   10.7182    4.5383    2.3500 C   0  0  0  0  0  0  0  0  0  0  0  0
   10.9846    3.1740    2.2034 C   0  0  0  0  0  0  0  0  0  0  0  0
   12.1540    2.6370    2.7512 C   0  0  0  0  0  0  0  0  0  0  0  0
   12.1937    1.2957    3.1007 C   0  0  0  0  0  0  0  0  0  0  0  0
   11.1885    0.4487    2.6549 C   0  0  0  0  0  0  0  0  0  0  0  0
   10.2013    0.9413    1.7875 C   0  0  0  0  0  0  0  0  0  0  0  0
   10.0451    2.3306    1.5769 C   0  0  0  0  0  0  0  0  0  0  0  0
    5.8308    2.1372   -0.0768 N   0  0  0  0  0  0  0  0  0  0  0  0
    4.8590    1.1706   -0.0569 C   0  0  0  0  0  0  0  0  0  0  0  0
    3.5445    1.3989   -0.0965 N   0  0  0  0  0  0  0  0  0  0  0  0
    1.0428   -0.4822    0.1774 H   0  0  0  0  0  0  0  0  0  0  0  0
    1.1594    1.2414    0.1934 H   0  0  0  0  0  0  0  0  0  0  0  0
    6.2163   -2.4788    0.0366 H   0  0  0  0  0  0  0  0  0  0  0  0
    2.7569   -2.8749    1.2618 H   0  0  0  0  0  0  0  0  0  0  0  0
    1.9295   -4.9745    2.1812 H   0  0  0  0  0  0  0  0  0  0  0  0
    5.6166   -6.9155    1.1067 H   0  0  0  0  0  0  0  0  0  0  0  0
    6.4540   -4.8064    0.1619 H   0  0  0  0  0  0  0  0  0  0  0  0
    7.6629   -0.5562    0.0054 H   0  0  0  0  0  0  0  0  0  0  0  0
    8.1338    3.0630   -1.1154 H   0  0  0  0  0  0  0  0  0  0  0  0
    9.0548    1.6280   -0.8429 H   0  0  0  0  0  0  0  0  0  0  0  0
    7.8438    4.7739    0.5986 H   0  0  0  0  0  0  0  0  0  0  0  0
    9.2690    6.1085    2.1047 H   0  0  0  0  0  0  0  0  0  0  0  0
   11.3887    5.1649    2.9347 H   0  0  0  0  0  0  0  0  0  0  0  0
   13.0122    3.2725    2.9544 H   0  0  0  0  0  0  0  0  0  0  0  0
   12.9933    0.9281    3.7381 H   0  0  0  0  0  0  0  0  0  0  0  0
   11.1851   -0.5929    2.9666 H   0  0  0  0  0  0  0  0  0  0  0  0
    9.4882    0.2334    1.3781 H   0  0  0  0  0  0  0  0  0  0  0  0
    5.6261    3.1238   -0.1602 H   0  0  0  0  0  0  0  0  0  0  0  0
  1  2  1  0  0  0  0
  1 30  1  0  0  0  0
  1 31  1  0  0  0  0
  2  3  1  0  0  0  0
  2 29  2  0  0  0  0
  3  4  2  0  0  0  0
  4  5  1  0  0  0  0
  4 13  1  0  0  0  0
  5  6  1  0  0  0  0
  5 32  1  0  0  0  0
  6  7  1  0  0  0  0
  6 12  2  0  0  0  0
  7  8  2  0  0  0  0
  7 33  1  0  0  0  0
  8  9  1  0  0  0  0
  8 34  1  0  0  0  0
  9 10  1  0  0  0  0
  9 11  2  0  0  0  0
 11 12  1  0  0  0  0
 11 35  1  0  0  0  0
 12 36  1  0  0  0  0
 13 14  1  0  0  0  0
 13 28  2  0  0  0  0
 14 15  2  0  0  0  0
 14 37  1  0  0  0  0
 15 16  1  0  0  0  0
 15 27  1  0  0  0  0
 16 17  1  0  0  0  0
 16 38  1  0  0  0  0
 16 39  1  0  0  0  0
 17 18  1  0  0  0  0
 17 26  2  0  0  0  0
 18 19  2  0  0  0  0
 18 40  1  0  0  0  0
 19 20  1  0  0  0  0
 19 41  1  0  0  0  0
 20 21  2  0  0  0  0
 20 42  1  0  0  0  0
 21 22  1  0  0  0  0
 21 26  1  0  0  0  0
 22 23  2  0  0  0  0
 22 43  1  0  0  0  0
 23 24  1  0  0  0  0
 23 44  1  0  0  0  0
 24 25  2  0  0  0  0
 24 45  1  0  0  0  0
 25 26  1  0  0  0  0
 25 46  1  0  0  0  0
 27 28  1  0  0  0  0
 27 47  1  0  0  0  0
 28 29  1  0  0  0  0
M  END
$$$$
