CHEMBL467549
 OpenBabel04072215383D

 41 44  0  0  0  0  0  0  0  0999 V2000
    3.1434   -1.0566   -0.0059 O   0  0  0  0  0  0  0  0  0  0  0  0
    2.5016   -0.0065   -0.0540 C   0  0  0  0  0  0  0  0  0  0  0  0
    3.0407    1.1349   -0.8574 C   0  0  0  0  0  0  0  0  0  0  0  0
    2.6339    2.4460   -0.5416 C   0  0  0  0  0  0  0  0  0  0  0  0
    3.2108    3.5412   -1.1811 C   0  0  0  0  0  0  0  0  0  0  0  0
    4.2255    3.3408   -2.1084 C   0  0  0  0  0  0  0  0  0  0  0  0
    4.6140    2.0455   -2.4472 C   0  0  0  0  0  0  0  0  0  0  0  0
    4.0035    0.9139   -1.8804 C   0  0  0  0  0  0  0  0  0  0  0  0
    4.4011   -0.3617   -2.2896 N   0  0  0  0  0  0  0  0  0  0  0  0
    4.7709   -0.6522   -3.6723 C   0  0  0  0  0  0  0  0  0  0  0  0
    6.1599   -1.2459   -3.7772 C   0  0  0  0  0  0  0  0  0  0  0  0
    6.5176   -1.9766   -4.9119 C   0  0  0  0  0  0  0  0  0  0  0  0
    7.8106   -2.4720   -5.0160 C   0  0  0  0  0  0  0  0  0  0  0  0
    8.7615   -2.2898   -4.0719 N   0  0  0  0  0  0  0  0  0  0  0  0
    8.3996   -1.5847   -2.9779 C   0  0  0  0  0  0  0  0  0  0  0  0
    7.1307   -1.0484   -2.7888 C   0  0  0  0  0  0  0  0  0  0  0  0
    1.1967    0.1002    0.6157 C   0  0  0  0  0  0  0  0  0  0  0  0
    1.0398   -0.2901    1.8961 N   0  0  0  0  0  0  0  0  0  0  0  0
   -0.2877   -0.4254    2.0354 N   0  0  0  0  0  0  0  0  0  0  0  0
   -0.9913   -0.1832    0.8884 C   0  0  0  0  0  0  0  0  0  0  0  0
   -2.3226   -0.4280    0.5421 C   0  0  0  0  0  0  0  0  0  0  0  0
   -2.7309   -0.0160   -0.7301 C   0  0  0  0  0  0  0  0  0  0  0  0
   -1.8633    0.6711   -1.5788 C   0  0  0  0  0  0  0  0  0  0  0  0
   -0.5215    0.8612   -1.2301 C   0  0  0  0  0  0  0  0  0  0  0  0
   -0.0668    0.3668    0.0059 C   0  0  0  0  0  0  0  0  0  0  0  0
    1.8842    2.6371    0.2239 H   0  0  0  0  0  0  0  0  0  0  0  0
    2.8932    4.5490   -0.9311 H   0  0  0  0  0  0  0  0  0  0  0  0
    4.7295    4.1898   -2.5610 H   0  0  0  0  0  0  0  0  0  0  0  0
    5.4438    1.9293   -3.1412 H   0  0  0  0  0  0  0  0  0  0  0  0
    3.9191   -1.1284   -1.8087 H   0  0  0  0  0  0  0  0  0  0  0  0
    4.7277    0.2266   -4.3254 H   0  0  0  0  0  0  0  0  0  0  0  0
    4.0442   -1.3674   -4.0787 H   0  0  0  0  0  0  0  0  0  0  0  0
    5.8149   -2.1648   -5.7161 H   0  0  0  0  0  0  0  0  0  0  0  0
    8.1308   -3.0416   -5.8827 H   0  0  0  0  0  0  0  0  0  0  0  0
    9.1797   -1.4758   -2.2320 H   0  0  0  0  0  0  0  0  0  0  0  0
    6.9213   -0.4827   -1.8873 H   0  0  0  0  0  0  0  0  0  0  0  0
   -0.6494   -0.7383    2.9299 H   0  0  0  0  0  0  0  0  0  0  0  0
   -2.9981   -0.9624    1.2027 H   0  0  0  0  0  0  0  0  0  0  0  0
   -3.7423   -0.2375   -1.0648 H   0  0  0  0  0  0  0  0  0  0  0  0
   -2.2198    1.0254   -2.5432 H   0  0  0  0  0  0  0  0  0  0  0  0
    0.1522    1.3559   -1.9232 H   0  0  0  0  0  0  0  0  0  0  0  0
  1  2  2  0  0  0  0
  2  3  1  0  0  0  0
  2 17  1  0  0  0  0
  3  4  1  0  0  0  0
  3  8  2  0  0  0  0
  4  5  2  0  0  0  0
  4 26  1  0  0  0  0
  5  6  1  0  0  0  0
  5 27  1  0  0  0  0
  6  7  2  0  0  0  0
  6 28  1  0  0  0  0
  7  8  1  0  0  0  0
  7 29  1  0  0  0  0
  8  9  1  0  0  0  0
  9 10  1  0  0  0  0
  9 30  1  0  0  0  0
 10 11  1  0  0  0  0
 10 31  1  0  0  0  0
 10 32  1  0  0  0  0
 11 12  1  0  0  0  0
 11 16  2  0  0  0  0
 12 13  2  0  0  0  0
 12 33  1  0  0  0  0
 13 14  1  0  0  0  0
 13 34  1  0  0  0  0
 14 15  2  0  0  0  0
 15 16  1  0  0  0  0
 15 35  1  0  0  0  0
 16 36  1  0  0  0  0
 17 18  2  0  0  0  0
 17 25  1  0  0  0  0
 18 19  1  0  0  0  0
 19 20  1  0  0  0  0
 19 37  1  0  0  0  0
 20 21  1  0  0  0  0
 20 25  2  0  0  0  0
 21 22  2  0  0  0  0
 21 38  1  0  0  0  0
 22 23  1  0  0  0  0
 22 39  1  0  0  0  0
 23 24  2  0  0  0  0
 23 40  1  0  0  0  0
 24 25  1  0  0  0  0
 24 41  1  0  0  0  0
M  END
$$$$
