CHEMBL1172887
 OpenBabel04072215363D

 53 57  0  0  0  0  0  0  0  0999 V2000
    2.7577    0.2134   -1.1690 O   0  0  0  0  0  0  0  0  0  0  0  0
    2.2933    0.0929   -0.0426 C   0  0  0  0  0  0  0  0  0  0  0  0
    0.9384    0.0007    0.2263 N   0  0  0  0  0  0  0  0  0  0  0  0
   -0.0796    0.1163   -0.7503 C   0  0  0  0  0  0  0  0  0  0  0  0
    0.1708    0.0645   -2.1245 C   0  0  0  0  0  0  0  0  0  0  0  0
   -0.8393    0.3132   -3.0507 C   0  0  0  0  0  0  0  0  0  0  0  0
   -2.1457    0.5163   -2.6191 C   0  0  0  0  0  0  0  0  0  0  0  0
   -3.2082    0.7467   -3.4623 O   0  0  0  0  0  0  0  0  0  0  0  0
   -3.2211    0.1762   -4.7169 C   0  0  0  0  0  0  0  0  0  0  0  0
   -2.6927   -1.0844   -5.0139 C   0  0  0  0  0  0  0  0  0  0  0  0
   -2.7299   -1.5708   -6.3209 C   0  0  0  0  0  0  0  0  0  0  0  0
   -3.3516   -0.8279   -7.3223 C   0  0  0  0  0  0  0  0  0  0  0  0
   -3.9348    0.4020   -7.0181 C   0  0  0  0  0  0  0  0  0  0  0  0
   -3.8660    0.9056   -5.7175 C   0  0  0  0  0  0  0  0  0  0  0  0
   -2.4155    0.5478   -1.2495 C   0  0  0  0  0  0  0  0  0  0  0  0
   -1.3891    0.3437   -0.3175 C   0  0  0  0  0  0  0  0  0  0  0  0
    3.0608    0.0729    1.1091 N   0  0  0  0  0  0  0  0  0  0  0  0
    4.4628    0.2628    1.1578 C   0  0  0  0  0  0  0  0  0  0  0  0
    5.2342    0.5768    0.0153 C   0  0  0  0  0  0  0  0  0  0  0  0
    6.6205    0.7164    0.0717 C   0  0  0  0  0  0  0  0  0  0  0  0
    7.2314    0.5473    1.2902 C   0  0  0  0  0  0  0  0  0  0  0  0
    6.4744    0.2895    2.4334 C   0  0  0  0  0  0  0  0  0  0  0  0
    5.1001    0.1371    2.3994 C   0  0  0  0  0  0  0  0  0  0  0  0
    7.3039    0.2178    3.5472 N   0  0  0  0  0  0  0  0  0  0  0  0
    8.6351    0.4063    3.2008 C   0  0  0  0  0  0  0  0  0  0  0  0
    9.5812    0.4225    3.9655 O   0  0  0  0  0  0  0  0  0  0  0  0
    8.6417    0.5853    1.7025 C   0  0  0  0  0  0  0  0  0  0  0  0
    9.6384    0.7007    0.8098 C   0  0  0  0  0  0  0  0  0  0  0  0
   11.0376    0.6841    1.0274 C   0  0  0  0  0  0  0  0  0  0  0  0
   12.0829    0.7220    0.1192 C   0  0  0  0  0  0  0  0  0  0  0  0
   13.2965    0.6876    0.8440 C   0  0  0  0  0  0  0  0  0  0  0  0
   12.9679    0.6234    2.1764 C   0  0  0  0  0  0  0  0  0  0  0  0
   11.6003    0.6176    2.2772 N   0  0  0  0  0  0  0  0  0  0  0  0
    0.6495    0.0621    1.1896 H   0  0  0  0  0  0  0  0  0  0  0  0
    1.1518   -0.1592   -2.5297 H   0  0  0  0  0  0  0  0  0  0  0  0
   -0.5759    0.3307   -4.1045 H   0  0  0  0  0  0  0  0  0  0  0  0
   -2.2299   -1.6932   -4.2423 H   0  0  0  0  0  0  0  0  0  0  0  0
   -2.2757   -2.5304   -6.5533 H   0  0  0  0  0  0  0  0  0  0  0  0
   -3.3893   -1.2127   -8.3381 H   0  0  0  0  0  0  0  0  0  0  0  0
   -4.4402    0.9702   -7.7945 H   0  0  0  0  0  0  0  0  0  0  0  0
   -4.3131    1.8686   -5.4858 H   0  0  0  0  0  0  0  0  0  0  0  0
   -3.4272    0.7449   -0.9051 H   0  0  0  0  0  0  0  0  0  0  0  0
   -1.6284    0.3943    0.7407 H   0  0  0  0  0  0  0  0  0  0  0  0
    2.6009   -0.1807    1.9696 H   0  0  0  0  0  0  0  0  0  0  0  0
    4.7889    0.7194   -0.9637 H   0  0  0  0  0  0  0  0  0  0  0  0
    7.1698    0.9432   -0.8357 H   0  0  0  0  0  0  0  0  0  0  0  0
    4.5473   -0.0797    3.3052 H   0  0  0  0  0  0  0  0  0  0  0  0
    7.0073    0.0669    4.4991 H   0  0  0  0  0  0  0  0  0  0  0  0
    9.3659    0.7895   -0.2404 H   0  0  0  0  0  0  0  0  0  0  0  0
   11.9812    0.7686   -0.9577 H   0  0  0  0  0  0  0  0  0  0  0  0
   14.2993    0.7049    0.4381 H   0  0  0  0  0  0  0  0  0  0  0  0
   13.5793    0.5793    3.0665 H   0  0  0  0  0  0  0  0  0  0  0  0
   11.0891    0.5669    3.1542 H   0  0  0  0  0  0  0  0  0  0  0  0
  1  2  2  0  0  0  0
  2  3  1  0  0  0  0
  2 17  1  0  0  0  0
  3  4  1  0  0  0  0
  3 34  1  0  0  0  0
  4  5  1  0  0  0  0
  4 16  2  0  0  0  0
  5  6  2  0  0  0  0
  5 35  1  0  0  0  0
  6  7  1  0  0  0  0
  6 36  1  0  0  0  0
  7  8  1  0  0  0  0
  7 15  2  0  0  0  0
  8  9  1  0  0  0  0
  9 10  1  0  0  0  0
  9 14  2  0  0  0  0
 10 11  2  0  0  0  0
 10 37  1  0  0  0  0
 11 12  1  0  0  0  0
 11 38  1  0  0  0  0
 12 13  2  0  0  0  0
 12 39  1  0  0  0  0
 13 14  1  0  0  0  0
 13 40  1  0  0  0  0
 14 41  1  0  0  0  0
 15 16  1  0  0  0  0
 15 42  1  0  0  0  0
 16 43  1  0  0  0  0
 17 18  1  0  0  0  0
 17 44  1  0  0  0  0
 18 19  1  0  0  0  0
 18 23  2  0  0  0  0
 19 20  2  0  0  0  0
 19 45  1  0  0  0  0
 20 21  1  0  0  0  0
 20 46  1  0  0  0  0
 21 22  2  0  0  0  0
 21 27  1  0  0  0  0
 22 23  1  0  0  0  0
 22 24  1  0  0  0  0
 23 47  1  0  0  0  0
 24 25  1  0  0  0  0
 24 48  1  0  0  0  0
 25 26  2  0  0  0  0
 25 27  1  0  0  0  0
 27 28  2  0  0  0  0
 28 29  1  0  0  0  0
 28 49  1  0  0  0  0
 29 30  2  0  0  0  0
 29 33  1  0  0  0  0
 30 31  1  0  0  0  0
 30 50  1  0  0  0  0
 31 32  2  0  0  0  0
 31 51  1  0  0  0  0
 32 33  1  0  0  0  0
 32 52  1  0  0  0  0
 33 53  1  0  0  0  0
M  END
$$$$
