CHEMBL382855
 OpenBabel04072215373D

 41 44  0  0  0  0  0  0  0  0999 V2000
    2.7157   -0.9936    0.3710 O   0  0  0  0  0  0  0  0  0  0  0  0
    2.1267   -0.0279   -0.0954 C   0  0  0  0  0  0  0  0  0  0  0  0
    0.7645    0.2177   -0.0173 N   0  0  0  0  0  0  0  0  0  0  0  0
   -0.2187   -0.5857    0.5992 C   0  0  0  0  0  0  0  0  0  0  0  0
    0.0420   -1.8262    1.1859 C   0  0  0  0  0  0  0  0  0  0  0  0
   -0.9942   -2.5775    1.7535 C   0  0  0  0  0  0  0  0  0  0  0  0
   -2.2956   -2.0856    1.7447 C   0  0  0  0  0  0  0  0  0  0  0  0
   -3.5680   -3.0134    2.4357 Cl  0  0  0  0  0  0  0  0  0  0  0  0
   -2.5708   -0.8458    1.1754 C   0  0  0  0  0  0  0  0  0  0  0  0
   -1.5344   -0.0996    0.6035 C   0  0  0  0  0  0  0  0  0  0  0  0
    2.9149    1.0238   -0.8121 C   0  0  0  0  0  0  0  0  0  0  0  0
    2.5919    2.3736   -0.5651 C   0  0  0  0  0  0  0  0  0  0  0  0
    3.2910    3.4037   -1.1924 C   0  0  0  0  0  0  0  0  0  0  0  0
    4.3397    3.1018   -2.0512 C   0  0  0  0  0  0  0  0  0  0  0  0
    4.6894    1.7707   -2.2814 C   0  0  0  0  0  0  0  0  0  0  0  0
    3.9897    0.7074   -1.6706 C   0  0  0  0  0  0  0  0  0  0  0  0
    4.4306   -0.7057   -2.0004 C   0  0  0  0  0  0  0  0  0  0  0  0
    3.7262   -1.2471   -3.1811 N   0  0  0  0  0  0  0  0  0  0  0  0
    2.6151   -2.0872   -3.0335 C   0  0  0  0  0  0  0  0  0  0  0  0
    1.9945   -2.7351   -4.0319 C   0  0  0  0  0  0  0  0  0  0  0  0
    2.5641   -2.5395   -5.3714 C   0  0  0  0  0  0  0  0  0  0  0  0
    2.2350   -3.0366   -6.5216 N   0  0  0  0  0  0  0  0  0  0  0  0
    3.1692   -2.4712   -7.3836 C   0  0  0  0  0  0  0  0  0  0  0  0
    4.0481   -1.6563   -6.8688 N   0  0  0  0  0  0  0  0  0  0  0  0
    3.7169   -1.6533   -5.5469 C   0  0  0  0  0  0  0  0  0  0  0  0
    4.2366   -1.0599   -4.4731 C   0  0  0  0  0  0  0  0  0  0  0  0
    0.4204    1.0542   -0.4715 H   0  0  0  0  0  0  0  0  0  0  0  0
    1.0416   -2.2480    1.2116 H   0  0  0  0  0  0  0  0  0  0  0  0
   -0.7721   -3.5450    2.1955 H   0  0  0  0  0  0  0  0  0  0  0  0
   -3.5849   -0.4558    1.1714 H   0  0  0  0  0  0  0  0  0  0  0  0
   -1.7743    0.8668    0.1672 H   0  0  0  0  0  0  0  0  0  0  0  0
    1.8099    2.6416    0.1420 H   0  0  0  0  0  0  0  0  0  0  0  0
    3.0256    4.4406   -1.0008 H   0  0  0  0  0  0  0  0  0  0  0  0
    4.8946    3.9007   -2.5376 H   0  0  0  0  0  0  0  0  0  0  0  0
    5.5243    1.5628   -2.9490 H   0  0  0  0  0  0  0  0  0  0  0  0
    4.3450   -1.3843   -1.1482 H   0  0  0  0  0  0  0  0  0  0  0  0
    5.5118   -0.6978   -2.2013 H   0  0  0  0  0  0  0  0  0  0  0  0
    2.2748   -2.2083   -2.0079 H   0  0  0  0  0  0  0  0  0  0  0  0
    1.1455   -3.3878   -3.9032 H   0  0  0  0  0  0  0  0  0  0  0  0
    3.1539   -2.7208   -8.4578 H   0  0  0  0  0  0  0  0  0  0  0  0
    5.1042   -0.4156   -4.5553 H   0  0  0  0  0  0  0  0  0  0  0  0
  1  2  2  0  0  0  0
  2  3  1  0  0  0  0
  2 11  1  0  0  0  0
  3  4  1  0  0  0  0
  3 27  1  0  0  0  0
  4  5  1  0  0  0  0
  4 10  2  0  0  0  0
  5  6  2  0  0  0  0
  5 28  1  0  0  0  0
  6  7  1  0  0  0  0
  6 29  1  0  0  0  0
  7  8  1  0  0  0  0
  7  9  2  0  0  0  0
  9 10  1  0  0  0  0
  9 30  1  0  0  0  0
 10 31  1  0  0  0  0
 11 12  1  0  0  0  0
 11 16  2  0  0  0  0
 12 13  2  0  0  0  0
 12 32  1  0  0  0  0
 13 14  1  0  0  0  0
 13 33  1  0  0  0  0
 14 15  2  0  0  0  0
 14 34  1  0  0  0  0
 15 16  1  0  0  0  0
 15 35  1  0  0  0  0
 16 17  1  0  0  0  0
 17 18  1  0  0  0  0
 17 36  1  0  0  0  0
 17 37  1  0  0  0  0
 18 19  1  0  0  0  0
 18 26  1  0  0  0  0
 19 20  2  0  0  0  0
 19 38  1  0  0  0  0
 20 21  1  0  0  0  0
 20 39  1  0  0  0  0
 21 22  2  0  0  0  0
 21 25  1  0  0  0  0
 22 23  1  0  0  0  0
 23 24  2  0  0  0  0
 23 40  1  0  0  0  0
 24 25  1  0  0  0  0
 25 26  2  0  0  0  0
 26 41  1  0  0  0  0
M  END
$$$$
