CHEMBL3985362
 OpenBabel04072215373D

 45 48  0  0  0  0  0  0  0  0999 V2000
    1.2116    0.8143    0.1698 O   0  0  0  0  0  0  0  0  0  0  0  0
    2.3335    0.3641   -0.0198 C   0  0  0  0  0  0  0  0  0  0  0  0
    2.8629    0.0975   -1.2805 N   0  0  0  0  0  0  0  0  0  0  0  0
    2.1552    0.2550   -2.5084 C   0  0  0  0  0  0  0  0  0  0  0  0
    0.9953    1.0262   -2.6367 C   0  0  0  0  0  0  0  0  0  0  0  0
    0.2501    1.0340   -3.8271 C   0  0  0  0  0  0  0  0  0  0  0  0
    0.6632    0.2869   -4.9284 C   0  0  0  0  0  0  0  0  0  0  0  0
   -0.1712    0.2130   -6.1003 C   0  0  0  0  0  0  0  0  0  0  0  0
   -0.9221    0.1007   -7.0383 C   0  0  0  0  0  0  0  0  0  0  0  0
   -1.8457   -0.1365   -8.1323 C   0  0  0  0  0  0  0  0  0  0  0  0
   -2.1652   -1.5182   -8.5705 C   0  0  0  0  0  0  0  0  0  0  0  0
   -3.0252   -1.6533   -9.5916 C   0  0  0  0  0  0  0  0  0  0  0  0
   -3.5772   -0.4969  -10.1828 C   0  0  0  0  0  0  0  0  0  0  0  0
   -4.4243   -0.3586  -11.1839 N   0  0  0  0  0  0  0  0  0  0  0  0
   -4.6056    0.9948  -11.3166 C   0  0  0  0  0  0  0  0  0  0  0  0
   -3.8624    1.6831  -10.3836 C   0  0  0  0  0  0  0  0  0  0  0  0
   -3.1955    0.7299   -9.6593 N   0  0  0  0  0  0  0  0  0  0  0  0
   -2.3222    0.9623   -8.6249 N   0  0  0  0  0  0  0  0  0  0  0  0
    1.8657   -0.4214   -4.8400 C   0  0  0  0  0  0  0  0  0  0  0  0
    2.6124   -0.4277   -3.6430 C   0  0  0  0  0  0  0  0  0  0  0  0
    3.2220    0.0577    1.0097 N   0  0  0  0  0  0  0  0  0  0  0  0
    2.8960    0.1407    2.3922 C   0  0  0  0  0  0  0  0  0  0  0  0
    1.5822    0.1010    2.8609 C   0  0  0  0  0  0  0  0  0  0  0  0
    1.2967    0.2667    4.2176 C   0  0  0  0  0  0  0  0  0  0  0  0
    2.3199    0.4854    5.1399 C   0  0  0  0  0  0  0  0  0  0  0  0
    1.8296    0.7383    6.7744 Cl  0  0  0  0  0  0  0  0  0  0  0  0
    3.6519    0.5008    4.7137 C   0  0  0  0  0  0  0  0  0  0  0  0
    4.8182    0.7809    5.6289 C   0  0  0  0  0  0  0  0  0  0  0  0
    4.5244    1.0791    6.9208 F   0  0  0  0  0  0  0  0  0  0  0  0
    5.6859   -0.2699    5.6858 F   0  0  0  0  0  0  0  0  0  0  0  0
    5.5605    1.8358    5.1801 F   0  0  0  0  0  0  0  0  0  0  0  0
    3.9253    0.2861    3.3329 C   0  0  0  0  0  0  0  0  0  0  0  0
    3.6859   -0.4843   -1.3083 H   0  0  0  0  0  0  0  0  0  0  0  0
    0.6237    1.6324   -1.8153 H   0  0  0  0  0  0  0  0  0  0  0  0
   -0.6702    1.6126   -3.8647 H   0  0  0  0  0  0  0  0  0  0  0  0
   -1.7094   -2.3567   -8.0667 H   0  0  0  0  0  0  0  0  0  0  0  0
   -3.3136   -2.6237   -9.9758 H   0  0  0  0  0  0  0  0  0  0  0  0
   -5.2605    1.3997  -12.0760 H   0  0  0  0  0  0  0  0  0  0  0  0
   -3.7473    2.7357  -10.1756 H   0  0  0  0  0  0  0  0  0  0  0  0
    2.2212   -1.0000   -5.6896 H   0  0  0  0  0  0  0  0  0  0  0  0
    3.5283   -1.0126   -3.6085 H   0  0  0  0  0  0  0  0  0  0  0  0
    4.2015    0.0475    0.7694 H   0  0  0  0  0  0  0  0  0  0  0  0
    0.7412   -0.0544    2.1901 H   0  0  0  0  0  0  0  0  0  0  0  0
    0.2573    0.2460    4.5409 H   0  0  0  0  0  0  0  0  0  0  0  0
    4.9644    0.2883    3.0036 H   0  0  0  0  0  0  0  0  0  0  0  0
  1  2  2  0  0  0  0
  2  3  1  0  0  0  0
  2 21  1  0  0  0  0
  3  4  1  0  0  0  0
  3 33  1  0  0  0  0
  4  5  1  0  0  0  0
  4 20  2  0  0  0  0
  5  6  2  0  0  0  0
  5 34  1  0  0  0  0
  6  7  1  0  0  0  0
  6 35  1  0  0  0  0
  7  8  1  0  0  0  0
  7 19  2  0  0  0  0
  8  9  3  0  0  0  0
  9 10  1  0  0  0  0
 10 11  1  0  0  0  0
 10 18  2  0  0  0  0
 11 12  2  0  0  0  0
 11 36  1  0  0  0  0
 12 13  1  0  0  0  0
 12 37  1  0  0  0  0
 13 14  2  0  0  0  0
 13 17  1  0  0  0  0
 14 15  1  0  0  0  0
 15 16  2  0  0  0  0
 15 38  1  0  0  0  0
 16 17  1  0  0  0  0
 16 39  1  0  0  0  0
 17 18  1  0  0  0  0
 19 20  1  0  0  0  0
 19 40  1  0  0  0  0
 20 41  1  0  0  0  0
 21 22  1  0  0  0  0
 21 42  1  0  0  0  0
 22 23  1  0  0  0  0
 22 32  2  0  0  0  0
 23 24  2  0  0  0  0
 23 43  1  0  0  0  0
 24 25  1  0  0  0  0
 24 44  1  0  0  0  0
 25 26  1  0  0  0  0
 25 27  2  0  0  0  0
 27 28  1  0  0  0  0
 27 32  1  0  0  0  0
 28 29  1  0  0  0  0
 28 30  1  0  0  0  0
 28 31  1  0  0  0  0
 32 45  1  0  0  0  0
M  END
$$$$
