CHEMBL219332
 OpenBabel04072215363D

 70 76  0  0  0  0  0  0  0  0999 V2000
    3.4423   -1.6402   -0.4093 C   0  0  0  0  0  0  0  0  0  0  0  0
    3.1220   -0.3289    0.2923 C   0  0  0  0  0  0  0  0  0  0  0  0
    3.6727   -0.2280    1.7259 C   0  0  0  0  0  0  0  0  0  0  0  0
    5.1232   -0.0918    1.8380 N   0  0  0  0  0  0  0  0  0  0  0  0
    5.8059    1.1420    1.7113 C   0  0  0  0  0  0  0  0  0  0  0  0
    5.3425    2.4548    1.5289 C   0  0  0  0  0  0  0  0  0  0  0  0
    6.2876    3.4947    1.3824 C   0  0  0  0  0  0  0  0  0  0  0  0
    7.6662    3.2640    1.4272 C   0  0  0  0  0  0  0  0  0  0  0  0
    8.6619    4.2788    1.3117 N   0  0  0  0  0  0  0  0  0  0  0  0
    8.4435    5.6215    1.0549 C   0  0  0  0  0  0  0  0  0  0  0  0
    7.3343    6.1073    0.8612 O   0  0  0  0  0  0  0  0  0  0  0  0
    9.6272    6.3736    1.0543 N   0  0  0  0  0  0  0  0  0  0  0  0
    9.6539    7.7871    0.9417 C   0  0  0  0  0  0  0  0  0  0  0  0
    8.5503    8.5675    1.2837 C   0  0  0  0  0  0  0  0  0  0  0  0
    8.5136    9.9351    1.0072 C   0  0  0  0  0  0  0  0  0  0  0  0
    9.6019   10.5750    0.4126 C   0  0  0  0  0  0  0  0  0  0  0  0
    9.3229   12.2605   -0.1120 S   0  0  0  0  0  0  0  0  0  0  0  0
   10.9313   13.0501    0.1076 C   0  0  0  0  0  0  0  0  0  0  0  0
   10.7556    9.8258    0.1659 C   0  0  0  0  0  0  0  0  0  0  0  0
   10.7885    8.4380    0.4369 C   0  0  0  0  0  0  0  0  0  0  0  0
    8.1076    1.9532    1.5930 C   0  0  0  0  0  0  0  0  0  0  0  0
    7.1845    0.8874    1.7087 C   0  0  0  0  0  0  0  0  0  0  0  0
    7.2177   -0.4940    1.7186 C   0  0  0  0  0  0  0  0  0  0  0  0
    8.3223   -1.2258    1.2580 C   0  0  0  0  0  0  0  0  0  0  0  0
    8.0299   -2.5225    0.7890 C   0  0  0  0  0  0  0  0  0  0  0  0
    6.7749   -3.1446    0.9234 C   0  0  0  0  0  0  0  0  0  0  0  0
    5.9795   -2.5549    1.9666 C   0  0  0  0  0  0  0  0  0  0  0  0
    6.0365   -1.1388    1.9571 C   0  0  0  0  0  0  0  0  0  0  0  0
    6.0485   -3.4181    3.2991 C   0  0  0  0  0  0  0  0  0  0  0  0
    7.1103   -4.5987    3.2700 C   0  0  0  0  0  0  0  0  0  0  0  0
    6.8789   -5.3418    2.0020 C   0  0  0  0  0  0  0  0  0  0  0  0
    6.4908   -6.6086    1.8611 N   0  0  0  0  0  0  0  0  0  0  0  0
    5.9809   -6.6196    0.6032 N   0  0  0  0  0  0  0  0  0  0  0  0
    5.3040   -7.7985    0.1195 C   0  0  0  0  0  0  0  0  0  0  0  0
    5.9680   -5.3826    0.0040 C   0  0  0  0  0  0  0  0  0  0  0  0
    6.7096   -4.5813    0.8339 C   0  0  0  0  0  0  0  0  0  0  0  0
    9.2769   -3.1020    0.3405 C   0  0  0  0  0  0  0  0  0  0  0  0
    9.5831   -4.1923   -0.1268 O   0  0  0  0  0  0  0  0  0  0  0  0
   10.2247   -2.1181    0.5959 N   0  0  0  0  0  0  0  0  0  0  0  0
    9.7240   -0.8646    1.1081 C   0  0  0  0  0  0  0  0  0  0  0  0
    3.0008   -1.6505   -1.4127 H   0  0  0  0  0  0  0  0  0  0  0  0
    3.0342   -2.4925    0.1432 H   0  0  0  0  0  0  0  0  0  0  0  0
    4.5186   -1.7775   -0.5282 H   0  0  0  0  0  0  0  0  0  0  0  0
    2.0286   -0.2338    0.3335 H   0  0  0  0  0  0  0  0  0  0  0  0
    3.4836    0.5038   -0.3217 H   0  0  0  0  0  0  0  0  0  0  0  0
    3.3605   -1.0858    2.3301 H   0  0  0  0  0  0  0  0  0  0  0  0
    3.2352    0.6622    2.1970 H   0  0  0  0  0  0  0  0  0  0  0  0
    4.2831    2.6882    1.4672 H   0  0  0  0  0  0  0  0  0  0  0  0
    5.8870    4.4923    1.2314 H   0  0  0  0  0  0  0  0  0  0  0  0
    9.6238    3.9976    1.4371 H   0  0  0  0  0  0  0  0  0  0  0  0
   10.4769    5.8798    0.8136 H   0  0  0  0  0  0  0  0  0  0  0  0
    7.6686    8.1321    1.7499 H   0  0  0  0  0  0  0  0  0  0  0  0
    7.6009   10.4812    1.2289 H   0  0  0  0  0  0  0  0  0  0  0  0
   10.8342   14.1004   -0.1858 H   0  0  0  0  0  0  0  0  0  0  0  0
   11.6909   12.5928   -0.5288 H   0  0  0  0  0  0  0  0  0  0  0  0
   11.2404   13.0141    1.1546 H   0  0  0  0  0  0  0  0  0  0  0  0
   11.6281   10.2834   -0.2901 H   0  0  0  0  0  0  0  0  0  0  0  0
   11.6868    7.8830    0.1917 H   0  0  0  0  0  0  0  0  0  0  0  0
    9.1684    1.7410    1.6178 H   0  0  0  0  0  0  0  0  0  0  0  0
    5.0569   -3.8557    3.4607 H   0  0  0  0  0  0  0  0  0  0  0  0
    6.2883   -2.7647    4.1454 H   0  0  0  0  0  0  0  0  0  0  0  0
    7.0423   -5.2460    4.1477 H   0  0  0  0  0  0  0  0  0  0  0  0
    8.1295   -4.1810    3.2525 H   0  0  0  0  0  0  0  0  0  0  0  0
    5.5251   -8.6417    0.7787 H   0  0  0  0  0  0  0  0  0  0  0  0
    5.6562   -8.0119   -0.8922 H   0  0  0  0  0  0  0  0  0  0  0  0
    4.2295   -7.5966    0.1180 H   0  0  0  0  0  0  0  0  0  0  0  0
    5.3977   -5.1870   -0.8934 H   0  0  0  0  0  0  0  0  0  0  0  0
   11.1992   -2.3183    0.4280 H   0  0  0  0  0  0  0  0  0  0  0  0
    9.8863   -0.0872    0.3613 H   0  0  0  0  0  0  0  0  0  0  0  0
   10.1976   -0.6344    2.0656 H   0  0  0  0  0  0  0  0  0  0  0  0
  1  2  1  0  0  0  0
  1 41  1  0  0  0  0
  1 42  1  0  0  0  0
  1 43  1  0  0  0  0
  2  3  1  0  0  0  0
  2 44  1  0  0  0  0
  2 45  1  0  0  0  0
  3  4  1  0  0  0  0
  3 46  1  0  0  0  0
  3 47  1  0  0  0  0
  4  5  1  0  0  0  0
  4 28  1  0  0  0  0
  5  6  1  0  0  0  0
  5 22  2  0  0  0  0
  6  7  2  0  0  0  0
  6 48  1  0  0  0  0
  7  8  1  0  0  0  0
  7 49  1  0  0  0  0
  8  9  1  0  0  0  0
  8 21  2  0  0  0  0
  9 10  1  0  0  0  0
  9 50  1  0  0  0  0
 10 11  2  0  0  0  0
 10 12  1  0  0  0  0
 12 13  1  0  0  0  0
 12 51  1  0  0  0  0
 13 14  1  0  0  0  0
 13 20  2  0  0  0  0
 14 15  2  0  0  0  0
 14 52  1  0  0  0  0
 15 16  1  0  0  0  0
 15 53  1  0  0  0  0
 16 17  1  0  0  0  0
 16 19  2  0  0  0  0
 17 18  1  0  0  0  0
 18 54  1  0  0  0  0
 18 55  1  0  0  0  0
 18 56  1  0  0  0  0
 19 20  1  0  0  0  0
 19 57  1  0  0  0  0
 20 58  1  0  0  0  0
 21 22  1  0  0  0  0
 21 59  1  0  0  0  0
 22 23  1  0  0  0  0
 23 24  1  0  0  0  0
 23 28  2  0  0  0  0
 24 25  2  0  0  0  0
 24 40  1  0  0  0  0
 25 26  1  0  0  0  0
 25 37  1  0  0  0  0
 26 27  2  0  0  0  0
 26 36  1  0  0  0  0
 27 28  1  0  0  0  0
 27 29  1  0  0  0  0
 29 30  1  0  0  0  0
 29 60  1  0  0  0  0
 29 61  1  0  0  0  0
 30 31  1  0  0  0  0
 30 62  1  0  0  0  0
 30 63  1  0  0  0  0
 31 32  2  0  0  0  0
 31 36  1  0  0  0  0
 32 33  1  0  0  0  0
 33 34  1  0  0  0  0
 33 35  1  0  0  0  0
 34 64  1  0  0  0  0
 34 65  1  0  0  0  0
 34 66  1  0  0  0  0
 35 36  2  0  0  0  0
 35 67  1  0  0  0  0
 37 38  2  0  0  0  0
 37 39  1  0  0  0  0
 39 40  1  0  0  0  0
 39 68  1  0  0  0  0
 40 69  1  0  0  0  0
 40 70  1  0  0  0  0
M  END
$$$$
