CHEMBL2220486
 OpenBabel04072215363D

 58 62  0  0  0  0  0  0  0  0999 V2000
    7.2195   -7.0196   -6.5240 C   0  0  0  0  0  0  0  0  0  0  0  0
    7.9728   -5.9658   -5.8904 N   0  0  0  0  0  0  0  0  0  0  0  0
    8.0460   -4.7108   -6.4686 C   0  0  0  0  0  0  0  0  0  0  0  0
    7.5288   -4.4560   -7.5494 O   0  0  0  0  0  0  0  0  0  0  0  0
    8.8126   -3.6754   -5.7008 C   0  0  0  0  0  0  0  0  0  0  0  0
    9.9795   -4.0811   -5.0324 C   0  0  0  0  0  0  0  0  0  0  0  0
   10.7590   -3.1623   -4.3456 C   0  0  0  0  0  0  0  0  0  0  0  0
   10.3903   -1.8144   -4.3431 C   0  0  0  0  0  0  0  0  0  0  0  0
    9.2442   -1.3695   -5.0141 C   0  0  0  0  0  0  0  0  0  0  0  0
    8.9182   -0.0022   -5.0107 C   0  0  0  0  0  0  0  0  0  0  0  0
    7.7866    0.4726   -5.6748 C   0  0  0  0  0  0  0  0  0  0  0  0
    7.5747    1.8347   -5.6316 O   0  0  0  0  0  0  0  0  0  0  0  0
    7.0566    2.4741   -6.7444 C   0  0  0  0  0  0  0  0  0  0  0  0
    7.3373    2.0483   -8.0441 C   0  0  0  0  0  0  0  0  0  0  0  0
    6.7230    2.7013   -9.0885 C   0  0  0  0  0  0  0  0  0  0  0  0
    5.9240    3.7690   -8.9243 N   0  0  0  0  0  0  0  0  0  0  0  0
    5.7026    4.2085   -7.6751 C   0  0  0  0  0  0  0  0  0  0  0  0
    4.8578    5.2895   -7.5253 C   0  0  0  0  0  0  0  0  0  0  0  0
    4.3947    5.7692   -6.2768 C   0  0  0  0  0  0  0  0  0  0  0  0
    3.3348    6.6729   -6.2235 O   0  0  0  0  0  0  0  0  0  0  0  0
    2.6247    6.7665   -7.4929 C   0  0  0  0  0  0  0  0  0  0  0  0
    1.2559    7.4344   -7.4308 C   0  0  0  0  0  0  0  0  0  0  0  0
    1.2382    8.8912   -7.1986 N   0  0  0  0  0  0  0  0  0  0  0  0
    0.0516    6.6027   -7.0573 C   0  0  0  0  0  0  0  0  0  0  0  0
    0.2709    6.9608   -8.4951 C   0  0  0  0  0  0  0  0  0  0  0  0
    4.9795    5.2242   -5.1254 C   0  0  0  0  0  0  0  0  0  0  0  0
    4.7400    5.4668   -3.8038 O   0  0  0  0  0  0  0  0  0  0  0  0
    4.2776    6.7316   -3.3687 C   0  0  0  0  0  0  0  0  0  0  0  0
    5.8979    4.1592   -5.2734 C   0  0  0  0  0  0  0  0  0  0  0  0
    6.2362    3.6074   -6.5350 C   0  0  0  0  0  0  0  0  0  0  0  0
    6.9282   -0.4312   -6.2896 C   0  0  0  0  0  0  0  0  0  0  0  0
    7.2538   -1.7922   -6.3208 C   0  0  0  0  0  0  0  0  0  0  0  0
    8.4176   -2.3005   -5.7020 C   0  0  0  0  0  0  0  0  0  0  0  0
    7.4125   -7.9581   -5.9988 H   0  0  0  0  0  0  0  0  0  0  0  0
    7.5200   -7.1115   -7.5718 H   0  0  0  0  0  0  0  0  0  0  0  0
    6.1548   -6.7761   -6.4732 H   0  0  0  0  0  0  0  0  0  0  0  0
    8.2728   -6.0967   -4.9337 H   0  0  0  0  0  0  0  0  0  0  0  0
   10.3107   -5.1217   -5.0712 H   0  0  0  0  0  0  0  0  0  0  0  0
   11.6590   -3.4782   -3.8323 H   0  0  0  0  0  0  0  0  0  0  0  0
   11.0265   -1.1052   -3.8115 H   0  0  0  0  0  0  0  0  0  0  0  0
    9.5584    0.7145   -4.4998 H   0  0  0  0  0  0  0  0  0  0  0  0
    7.9913    1.2099   -8.2526 H   0  0  0  0  0  0  0  0  0  0  0  0
    6.8491    2.3706  -10.1151 H   0  0  0  0  0  0  0  0  0  0  0  0
    4.5119    5.7088   -8.4647 H   0  0  0  0  0  0  0  0  0  0  0  0
    2.4570    5.7534   -7.8818 H   0  0  0  0  0  0  0  0  0  0  0  0
    3.2344    7.3482   -8.1967 H   0  0  0  0  0  0  0  0  0  0  0  0
    1.9152    9.1473   -6.4811 H   0  0  0  0  0  0  0  0  0  0  0  0
    0.3279    9.1990   -6.8606 H   0  0  0  0  0  0  0  0  0  0  0  0
   -0.7854    7.0686   -6.5531 H   0  0  0  0  0  0  0  0  0  0  0  0
    0.2094    5.5679   -6.7704 H   0  0  0  0  0  0  0  0  0  0  0  0
   -0.3939    7.6833   -8.9560 H   0  0  0  0  0  0  0  0  0  0  0  0
    0.5706    6.1720   -9.1783 H   0  0  0  0  0  0  0  0  0  0  0  0
    4.1986    6.6621   -2.2705 H   0  0  0  0  0  0  0  0  0  0  0  0
    3.2861    6.9632   -3.7434 H   0  0  0  0  0  0  0  0  0  0  0  0
    5.0029    7.5248   -3.5774 H   0  0  0  0  0  0  0  0  0  0  0  0
    6.3322    3.7243   -4.3729 H   0  0  0  0  0  0  0  0  0  0  0  0
    6.0145   -0.0984   -6.7755 H   0  0  0  0  0  0  0  0  0  0  0  0
    6.5698   -2.4515   -6.8536 H   0  0  0  0  0  0  0  0  0  0  0  0
  1  2  1  0  0  0  0
  1 34  1  0  0  0  0
  1 35  1  0  0  0  0
  1 36  1  0  0  0  0
  2  3  1  0  0  0  0
  2 37  1  0  0  0  0
  3  4  2  0  0  0  0
  3  5  1  0  0  0  0
  5  6  1  0  0  0  0
  5 33  2  0  0  0  0
  6  7  2  0  0  0  0
  6 38  1  0  0  0  0
  7  8  1  0  0  0  0
  7 39  1  0  0  0  0
  8  9  2  0  0  0  0
  8 40  1  0  0  0  0
  9 10  1  0  0  0  0
  9 33  1  0  0  0  0
 10 11  2  0  0  0  0
 10 41  1  0  0  0  0
 11 12  1  0  0  0  0
 11 31  1  0  0  0  0
 12 13  1  0  0  0  0
 13 14  1  0  0  0  0
 13 30  2  0  0  0  0
 14 15  2  0  0  0  0
 14 42  1  0  0  0  0
 15 16  1  0  0  0  0
 15 43  1  0  0  0  0
 16 17  2  0  0  0  0
 17 18  1  0  0  0  0
 17 30  1  0  0  0  0
 18 19  2  0  0  0  0
 18 44  1  0  0  0  0
 19 20  1  0  0  0  0
 19 26  1  0  0  0  0
 20 21  1  0  0  0  0
 21 22  1  0  0  0  0
 21 45  1  0  0  0  0
 21 46  1  0  0  0  0
 22 23  1  0  0  0  0
 22 24  1  0  0  0  0
 22 25  1  0  0  0  0
 23 47  1  0  0  0  0
 23 48  1  0  0  0  0
 24 25  1  0  0  0  0
 24 49  1  0  0  0  0
 24 50  1  0  0  0  0
 25 51  1  0  0  0  0
 25 52  1  0  0  0  0
 26 27  1  0  0  0  0
 26 29  2  0  0  0  0
 27 28  1  0  0  0  0
 28 53  1  0  0  0  0
 28 54  1  0  0  0  0
 28 55  1  0  0  0  0
 29 30  1  0  0  0  0
 29 56  1  0  0  0  0
 31 32  2  0  0  0  0
 31 57  1  0  0  0  0
 32 33  1  0  0  0  0
 32 58  1  0  0  0  0
M  END
$$$$
