CHEMBL2337365
 OpenBabel04072215363D

 34 37  0  0  0  0  0  0  0  0999 V2000
    1.1108    0.1189   -0.1774 N   0  0  0  0  0  0  0  0  0  0  0  0
    2.4873    0.0980   -0.0889 C   0  0  0  0  0  0  0  0  0  0  0  0
    3.0606   -1.1052   -0.0524 N   0  0  0  0  0  0  0  0  0  0  0  0
    4.4153   -1.2302   -0.0138 C   0  0  0  0  0  0  0  0  0  0  0  0
    4.9545   -2.5207   -0.0446 N   0  0  0  0  0  0  0  0  0  0  0  0
    4.4329   -3.6715    0.5759 C   0  0  0  0  0  0  0  0  0  0  0  0
    4.7633   -4.9304    0.0558 C   0  0  0  0  0  0  0  0  0  0  0  0
    4.2808   -6.1006    0.6494 C   0  0  0  0  0  0  0  0  0  0  0  0
    3.4706   -6.0188    1.7796 C   0  0  0  0  0  0  0  0  0  0  0  0
    3.1454   -4.7727    2.2977 C   0  0  0  0  0  0  0  0  0  0  0  0
    2.3739   -4.6939    3.3906 F   0  0  0  0  0  0  0  0  0  0  0  0
    3.6141   -3.6062    1.7080 C   0  0  0  0  0  0  0  0  0  0  0  0
    5.1898   -0.0521    0.0067 C   0  0  0  0  0  0  0  0  0  0  0  0
    4.4544    1.1243    0.0110 C   0  0  0  0  0  0  0  0  0  0  0  0
    3.1240    1.2644   -0.0237 N   0  0  0  0  0  0  0  0  0  0  0  0
    5.3138    2.1778    0.0449 N   0  0  0  0  0  0  0  0  0  0  0  0
    6.6138    1.7372    0.0473 C   0  0  0  0  0  0  0  0  0  0  0  0
    7.7978    2.4898    0.0577 C   0  0  0  0  0  0  0  0  0  0  0  0
    9.0151    1.8085    0.0585 C   0  0  0  0  0  0  0  0  0  0  0  0
    9.0467    0.4215    0.0584 C   0  0  0  0  0  0  0  0  0  0  0  0
    7.8524   -0.3053    0.0509 C   0  0  0  0  0  0  0  0  0  0  0  0
    7.9241   -2.0108    0.0602 Cl  0  0  0  0  0  0  0  0  0  0  0  0
    6.5859    0.3309    0.0356 C   0  0  0  0  0  0  0  0  0  0  0  0
    0.7380   -0.7623    0.1456 H   0  0  0  0  0  0  0  0  0  0  0  0
    0.7380    0.9664    0.2224 H   0  0  0  0  0  0  0  0  0  0  0  0
    5.9682   -2.5332   -0.0780 H   0  0  0  0  0  0  0  0  0  0  0  0
    5.3807   -5.0021   -0.8370 H   0  0  0  0  0  0  0  0  0  0  0  0
    4.5340   -7.0683    0.2272 H   0  0  0  0  0  0  0  0  0  0  0  0
    3.0902   -6.9159    2.2574 H   0  0  0  0  0  0  0  0  0  0  0  0
    3.3471   -2.6522    2.1525 H   0  0  0  0  0  0  0  0  0  0  0  0
    5.0156    3.1415    0.0494 H   0  0  0  0  0  0  0  0  0  0  0  0
    7.7761    3.5765    0.0610 H   0  0  0  0  0  0  0  0  0  0  0  0
    9.9468    2.3701    0.0600 H   0  0  0  0  0  0  0  0  0  0  0  0
   10.0027   -0.0956    0.0622 H   0  0  0  0  0  0  0  0  0  0  0  0
  1  2  1  0  0  0  0
  1 24  1  0  0  0  0
  1 25  1  0  0  0  0
  2  3  1  0  0  0  0
  2 15  2  0  0  0  0
  3  4  2  0  0  0  0
  4  5  1  0  0  0  0
  4 13  1  0  0  0  0
  5  6  1  0  0  0  0
  5 26  1  0  0  0  0
  6  7  1  0  0  0  0
  6 12  2  0  0  0  0
  7  8  2  0  0  0  0
  7 27  1  0  0  0  0
  8  9  1  0  0  0  0
  8 28  1  0  0  0  0
  9 10  2  0  0  0  0
  9 29  1  0  0  0  0
 10 11  1  0  0  0  0
 10 12  1  0  0  0  0
 12 30  1  0  0  0  0
 13 14  2  0  0  0  0
 13 23  1  0  0  0  0
 14 15  1  0  0  0  0
 14 16  1  0  0  0  0
 16 17  1  0  0  0  0
 16 31  1  0  0  0  0
 17 18  1  0  0  0  0
 17 23  2  0  0  0  0
 18 19  2  0  0  0  0
 18 32  1  0  0  0  0
 19 20  1  0  0  0  0
 19 33  1  0  0  0  0
 20 21  2  0  0  0  0
 20 34  1  0  0  0  0
 21 22  1  0  0  0  0
 21 23  1  0  0  0  0
M  END
$$$$
