CHEMBL3827268
 OpenBabel04072215373D

 62 67  0  0  1  0  0  0  0  0999 V2000
    2.1055   -7.8077    5.8250 C   0  0  0  0  0  0  0  0  0  0  0  0
    2.3263   -7.2736    7.2449 C   0  0  3  0  0  0  0  0  0  0  0  0
    1.4368   -6.1804    7.5306 O   0  0  0  0  0  0  0  0  0  0  0  0
    1.6280   -5.0056    6.8493 C   0  0  0  0  0  0  0  0  0  0  0  0
    0.4854   -4.2257    6.6488 C   0  0  0  0  0  0  0  0  0  0  0  0
    0.5344   -3.0028    5.9596 C   0  0  0  0  0  0  0  0  0  0  0  0
    1.7891   -2.5784    5.5150 C   0  0  0  0  0  0  0  0  0  0  0  0
    2.1972   -1.4561    4.8433 N   0  0  0  0  0  0  0  0  0  0  0  0
    3.5308   -1.3701    4.6613 N   0  0  0  0  0  0  0  0  0  0  0  0
    3.9878   -2.5112    5.1997 C   0  0  0  0  0  0  0  0  0  0  0  0
    5.4387   -2.8390    5.2575 C   0  0  0  0  0  0  0  0  0  0  0  0
    5.9595   -3.9677    5.6908 N   0  0  0  0  0  0  0  0  0  0  0  0
    7.3134   -3.8086    5.5713 C   0  0  0  0  0  0  0  0  0  0  0  0
    8.3456   -4.7152    5.8447 C   0  0  0  0  0  0  0  0  0  0  0  0
    9.6879   -4.3544    5.5958 C   0  0  0  0  0  0  0  0  0  0  0  0
   10.7606   -5.4311    5.7668 C   0  0  0  0  0  0  0  0  0  0  0  0
   12.2256   -5.0083    5.5522 C   0  0  0  0  0  0  0  0  0  0  0  0
   12.6078   -4.8534    4.0748 C   0  0  0  0  0  0  0  0  0  0  0  0
   12.2748   -6.0426    3.2814 N   0  0  0  0  0  0  0  0  0  0  0  0
   12.6133   -5.8191    1.8737 C   0  0  0  0  0  0  0  0  0  0  0  0
   10.8546   -6.3924    3.4071 C   0  0  0  0  0  0  0  0  0  0  0  0
   10.4798   -6.6536    4.8661 C   0  0  0  0  0  0  0  0  0  0  0  0
    9.9599   -3.0368    5.1935 C   0  0  0  0  0  0  0  0  0  0  0  0
    8.9418   -2.1072    4.9256 C   0  0  0  0  0  0  0  0  0  0  0  0
    7.6343   -2.5460    5.0909 C   0  0  0  0  0  0  0  0  0  0  0  0
    6.4185   -1.9567    4.8706 N   0  0  0  0  0  0  0  0  0  0  0  0
    2.9476   -3.3118    5.7311 C   0  0  0  0  0  0  0  0  0  0  0  0
    2.8690   -4.5466    6.4038 C   0  0  0  0  0  0  0  0  0  0  0  0
    2.1445   -8.4240    8.2332 C   0  0  0  0  0  0  0  0  0  0  0  0
    3.2607   -9.2054    8.6087 C   0  0  0  0  0  0  0  0  0  0  0  0
    4.8686   -8.8997    8.0478 Cl  0  0  0  0  0  0  0  0  0  0  0  0
    3.0823  -10.3105    9.4390 C   0  0  0  0  0  0  0  0  0  0  0  0
    1.8894  -10.6998    9.9324 N   0  0  0  0  0  0  0  0  0  0  0  0
    0.8252   -9.9483    9.5656 C   0  0  0  0  0  0  0  0  0  0  0  0
    0.8936   -8.8330    8.7298 C   0  0  0  0  0  0  0  0  0  0  0  0
   -0.6065   -8.0802    8.3260 Cl  0  0  0  0  0  0  0  0  0  0  0  0
    2.4756   -7.0984    5.0780 H   0  0  0  0  0  0  0  0  0  0  0  0
    1.0396   -7.9536    5.6190 H   0  0  0  0  0  0  0  0  0  0  0  0
    2.6224   -8.7591    5.6599 H   0  0  0  0  0  0  0  0  0  0  0  0
    3.3481   -6.9091    7.3618 H   0  0  0  0  0  0  0  0  0  0  0  0
   -0.4714   -4.5783    7.0302 H   0  0  0  0  0  0  0  0  0  0  0  0
   -0.3627   -2.4136    5.8015 H   0  0  0  0  0  0  0  0  0  0  0  0
    1.6163   -0.6983    4.5032 H   0  0  0  0  0  0  0  0  0  0  0  0
    8.0820   -5.7033    6.2143 H   0  0  0  0  0  0  0  0  0  0  0  0
   10.6784   -5.7563    6.8139 H   0  0  0  0  0  0  0  0  0  0  0  0
   12.8715   -5.7834    5.9882 H   0  0  0  0  0  0  0  0  0  0  0  0
   12.4561   -4.0867    6.0990 H   0  0  0  0  0  0  0  0  0  0  0  0
   13.6905   -4.6819    4.0268 H   0  0  0  0  0  0  0  0  0  0  0  0
   12.1315   -3.9638    3.6483 H   0  0  0  0  0  0  0  0  0  0  0  0
   13.6865   -5.6310    1.7617 H   0  0  0  0  0  0  0  0  0  0  0  0
   12.0681   -4.9680    1.4482 H   0  0  0  0  0  0  0  0  0  0  0  0
   12.3834   -6.7065    1.2735 H   0  0  0  0  0  0  0  0  0  0  0  0
   10.6566   -7.3113    2.8412 H   0  0  0  0  0  0  0  0  0  0  0  0
   10.2123   -5.6092    2.9837 H   0  0  0  0  0  0  0  0  0  0  0  0
   11.0617   -7.5083    5.2363 H   0  0  0  0  0  0  0  0  0  0  0  0
    9.4310   -6.9674    4.9107 H   0  0  0  0  0  0  0  0  0  0  0  0
   10.9804   -2.6903    5.0662 H   0  0  0  0  0  0  0  0  0  0  0  0
    9.1735   -1.1023    4.5830 H   0  0  0  0  0  0  0  0  0  0  0  0
    6.2367   -1.0347    4.5083 H   0  0  0  0  0  0  0  0  0  0  0  0
    3.7906   -5.0882    6.5772 H   0  0  0  0  0  0  0  0  0  0  0  0
    3.9216  -10.9396    9.7251 H   0  0  0  0  0  0  0  0  0  0  0  0
   -0.1249  -10.2937    9.9633 H   0  0  0  0  0  0  0  0  0  0  0  0
  1  2  1  0  0  0  0
  1 37  1  0  0  0  0
  1 38  1  0  0  0  0
  1 39  1  0  0  0  0
  2  3  1  0  0  0  0
  2 29  1  0  0  0  0
  2 40  1  0  0  0  0
  3  4  1  0  0  0  0
  4  5  1  0  0  0  0
  4 28  2  0  0  0  0
  5  6  2  0  0  0  0
  5 41  1  0  0  0  0
  6  7  1  0  0  0  0
  6 42  1  0  0  0  0
  7  8  1  0  0  0  0
  7 27  2  0  0  0  0
  8  9  1  0  0  0  0
  8 43  1  0  0  0  0
  9 10  2  0  0  0  0
 10 11  1  0  0  0  0
 10 27  1  0  0  0  0
 11 12  2  0  0  0  0
 11 26  1  0  0  0  0
 12 13  1  0  0  0  0
 13 14  1  0  0  0  0
 13 25  2  0  0  0  0
 14 15  2  0  0  0  0
 14 44  1  0  0  0  0
 15 16  1  0  0  0  0
 15 23  1  0  0  0  0
 16 17  1  0  0  0  0
 16 22  1  0  0  0  0
 16 45  1  0  0  0  0
 17 18  1  0  0  0  0
 17 46  1  0  0  0  0
 17 47  1  0  0  0  0
 18 19  1  0  0  0  0
 18 48  1  0  0  0  0
 18 49  1  0  0  0  0
 19 20  1  0  0  0  0
 19 21  1  0  0  0  0
 20 50  1  0  0  0  0
 20 51  1  0  0  0  0
 20 52  1  0  0  0  0
 21 22  1  0  0  0  0
 21 53  1  0  0  0  0
 21 54  1  0  0  0  0
 22 55  1  0  0  0  0
 22 56  1  0  0  0  0
 23 24  2  0  0  0  0
 23 57  1  0  0  0  0
 24 25  1  0  0  0  0
 24 58  1  0  0  0  0
 25 26  1  0  0  0  0
 26 59  1  0  0  0  0
 27 28  1  0  0  0  0
 28 60  1  0  0  0  0
 29 30  1  0  0  0  0
 29 35  2  0  0  0  0
 30 31  1  0  0  0  0
 30 32  2  0  0  0  0
 32 33  1  0  0  0  0
 32 61  1  0  0  0  0
 33 34  2  0  0  0  0
 34 35  1  0  0  0  0
 34 62  1  0  0  0  0
 35 36  1  0  0  0  0
M  END
$$$$
