CHEMBL596087
 OpenBabel04072215383D

 74 79  0  0  0  0  0  0  0  0999 V2000
    2.7296   -0.0672   -1.3764 C   0  0  0  0  0  0  0  0  0  0  0  0
    2.3807   -0.1083    0.0003 O   0  0  0  0  0  0  0  0  0  0  0  0
    3.0800    0.6394    0.8990 C   0  0  0  0  0  0  0  0  0  0  0  0
    4.2963    1.2335    0.5783 C   0  0  0  0  0  0  0  0  0  0  0  0
    4.9443    2.0966    1.4792 C   0  0  0  0  0  0  0  0  0  0  0  0
    6.1206    2.7867    1.1602 C   0  0  0  0  0  0  0  0  0  0  0  0
    6.6140    2.7342   -0.1771 N   0  0  0  0  0  0  0  0  0  0  0  0
    7.9377    3.0675   -0.5273 C   0  0  0  0  0  0  0  0  0  0  0  0
    8.9945    2.5344    0.2003 C   0  0  0  0  0  0  0  0  0  0  0  0
   10.2995    2.9600   -0.0256 C   0  0  0  0  0  0  0  0  0  0  0  0
   10.5973    3.9204   -1.0081 C   0  0  0  0  0  0  0  0  0  0  0  0
   11.9692    4.4672   -1.0771 C   0  0  0  0  0  0  0  0  0  0  0  0
   12.2590    5.7262   -1.3352 N   0  0  0  0  0  0  0  0  0  0  0  0
   13.6119    5.9556   -1.1703 C   0  0  0  0  0  0  0  0  0  0  0  0
   14.2573    7.1979   -1.3260 C   0  0  0  0  0  0  0  0  0  0  0  0
   15.6325    7.2946   -1.0734 C   0  0  0  0  0  0  0  0  0  0  0  0
   16.3581    6.1794   -0.6667 C   0  0  0  0  0  0  0  0  0  0  0  0
   15.7392    4.9333   -0.5266 C   0  0  0  0  0  0  0  0  0  0  0  0
   14.3628    4.8437   -0.7952 C   0  0  0  0  0  0  0  0  0  0  0  0
   13.3375    3.4721   -0.7340 S   0  0  0  0  0  0  0  0  0  0  0  0
    9.5407    4.3979   -1.8206 C   0  0  0  0  0  0  0  0  0  0  0  0
    9.7179    5.4129   -2.9210 C   0  0  0  0  0  0  0  0  0  0  0  0
    8.2205    3.9585   -1.5669 C   0  0  0  0  0  0  0  0  0  0  0  0
    6.7700    3.5337    2.0684 N   0  0  0  0  0  0  0  0  0  0  0  0
    6.2171    3.6193    3.2809 C   0  0  0  0  0  0  0  0  0  0  0  0
    5.0660    3.0526    3.6667 N   0  0  0  0  0  0  0  0  0  0  0  0
    4.4337    2.2935    2.7642 C   0  0  0  0  0  0  0  0  0  0  0  0
    3.2380    1.6628    3.0941 C   0  0  0  0  0  0  0  0  0  0  0  0
    2.5561    0.8322    2.1889 C   0  0  0  0  0  0  0  0  0  0  0  0
    1.3771    0.3014    2.6773 O   0  0  0  0  0  0  0  0  0  0  0  0
    1.1018   -1.0233    2.2119 C   0  0  0  0  0  0  0  0  0  0  0  0
   -0.0842   -1.6490    2.9414 C   0  0  0  0  0  0  0  0  0  0  0  0
   -0.3142   -3.0832    2.4282 C   0  0  0  0  0  0  0  0  0  0  0  0
    0.8478   -3.9617    2.6322 N   0  0  0  0  0  0  0  0  0  0  0  0
    1.1440   -4.1712    4.0603 C   0  0  0  0  0  0  0  0  0  0  0  0
    2.3471   -5.1133    4.2729 C   0  0  0  0  0  0  0  0  0  0  0  0
    2.2062   -6.4359    3.6373 N   0  0  0  0  0  0  0  0  0  0  0  0
    1.2171   -7.2578    4.3304 C   0  0  0  0  0  0  0  0  0  0  0  0
    1.8565   -6.2414    2.2150 C   0  0  0  0  0  0  0  0  0  0  0  0
    0.6850   -5.2584    1.9459 C   0  0  0  0  0  0  0  0  0  0  0  0
    3.3836   -0.9119   -1.6127 H   0  0  0  0  0  0  0  0  0  0  0  0
    3.1850    0.8755   -1.6929 H   0  0  0  0  0  0  0  0  0  0  0  0
    1.8057   -0.1738   -1.9514 H   0  0  0  0  0  0  0  0  0  0  0  0
    4.7810    1.0218   -0.3691 H   0  0  0  0  0  0  0  0  0  0  0  0
    5.9272    3.1461   -0.8021 H   0  0  0  0  0  0  0  0  0  0  0  0
    8.8032    1.8155    0.9942 H   0  0  0  0  0  0  0  0  0  0  0  0
   11.0687    2.5643    0.6322 H   0  0  0  0  0  0  0  0  0  0  0  0
   13.6871    8.0625   -1.6359 H   0  0  0  0  0  0  0  0  0  0  0  0
   16.1299    8.2548   -1.1851 H   0  0  0  0  0  0  0  0  0  0  0  0
   17.4205    6.2741   -0.4547 H   0  0  0  0  0  0  0  0  0  0  0  0
   16.3046    4.0615   -0.2118 H   0  0  0  0  0  0  0  0  0  0  0  0
   10.7590    5.5709   -3.2075 H   0  0  0  0  0  0  0  0  0  0  0  0
    9.2903    6.3734   -2.6145 H   0  0  0  0  0  0  0  0  0  0  0  0
    9.2059    5.0722   -3.8282 H   0  0  0  0  0  0  0  0  0  0  0  0
    7.4065    4.3696   -2.1604 H   0  0  0  0  0  0  0  0  0  0  0  0
    6.7531    4.2060    4.0186 H   0  0  0  0  0  0  0  0  0  0  0  0
    2.8267    1.8164    4.0906 H   0  0  0  0  0  0  0  0  0  0  0  0
    1.9978   -1.6413    2.3421 H   0  0  0  0  0  0  0  0  0  0  0  0
    0.7996   -0.9936    1.1644 H   0  0  0  0  0  0  0  0  0  0  0  0
   -0.9824   -1.0481    2.7498 H   0  0  0  0  0  0  0  0  0  0  0  0
    0.0561   -1.6154    4.0269 H   0  0  0  0  0  0  0  0  0  0  0  0
   -0.5200   -3.0170    1.3506 H   0  0  0  0  0  0  0  0  0  0  0  0
   -1.2133   -3.5054    2.8927 H   0  0  0  0  0  0  0  0  0  0  0  0
    0.2613   -4.5641    4.5800 H   0  0  0  0  0  0  0  0  0  0  0  0
    1.4027   -3.2199    4.5361 H   0  0  0  0  0  0  0  0  0  0  0  0
    2.5375   -5.2260    5.3472 H   0  0  0  0  0  0  0  0  0  0  0  0
    3.2462   -4.6305    3.8656 H   0  0  0  0  0  0  0  0  0  0  0  0
    1.4702   -7.3473    5.3930 H   0  0  0  0  0  0  0  0  0  0  0  0
    1.2204   -8.2741    3.9227 H   0  0  0  0  0  0  0  0  0  0  0  0
    0.1973   -6.8666    4.2590 H   0  0  0  0  0  0  0  0  0  0  0  0
    1.6394   -7.2096    1.7465 H   0  0  0  0  0  0  0  0  0  0  0  0
    2.7507   -5.8623    1.7017 H   0  0  0  0  0  0  0  0  0  0  0  0
   -0.2587   -5.7325    2.2426 H   0  0  0  0  0  0  0  0  0  0  0  0
    0.6346   -5.0893    0.8627 H   0  0  0  0  0  0  0  0  0  0  0  0
  1  2  1  0  0  0  0
  1 41  1  0  0  0  0
  1 42  1  0  0  0  0
  1 43  1  0  0  0  0
  2  3  1  0  0  0  0
  3  4  1  0  0  0  0
  3 29  2  0  0  0  0
  4  5  2  0  0  0  0
  4 44  1  0  0  0  0
  5  6  1  0  0  0  0
  5 27  1  0  0  0  0
  6  7  1  0  0  0  0
  6 24  2  0  0  0  0
  7  8  1  0  0  0  0
  7 45  1  0  0  0  0
  8  9  1  0  0  0  0
  8 23  2  0  0  0  0
  9 10  2  0  0  0  0
  9 46  1  0  0  0  0
 10 11  1  0  0  0  0
 10 47  1  0  0  0  0
 11 12  1  0  0  0  0
 11 21  2  0  0  0  0
 12 13  2  0  0  0  0
 12 20  1  0  0  0  0
 13 14  1  0  0  0  0
 14 15  1  0  0  0  0
 14 19  2  0  0  0  0
 15 16  2  0  0  0  0
 15 48  1  0  0  0  0
 16 17  1  0  0  0  0
 16 49  1  0  0  0  0
 17 18  2  0  0  0  0
 17 50  1  0  0  0  0
 18 19  1  0  0  0  0
 18 51  1  0  0  0  0
 19 20  1  0  0  0  0
 21 22  1  0  0  0  0
 21 23  1  0  0  0  0
 22 52  1  0  0  0  0
 22 53  1  0  0  0  0
 22 54  1  0  0  0  0
 23 55  1  0  0  0  0
 24 25  1  0  0  0  0
 25 26  2  0  0  0  0
 25 56  1  0  0  0  0
 26 27  1  0  0  0  0
 27 28  2  0  0  0  0
 28 29  1  0  0  0  0
 28 57  1  0  0  0  0
 29 30  1  0  0  0  0
 30 31  1  0  0  0  0
 31 32  1  0  0  0  0
 31 58  1  0  0  0  0
 31 59  1  0  0  0  0
 32 33  1  0  0  0  0
 32 60  1  0  0  0  0
 32 61  1  0  0  0  0
 33 34  1  0  0  0  0
 33 62  1  0  0  0  0
 33 63  1  0  0  0  0
 34 35  1  0  0  0  0
 34 40  1  0  0  0  0
 35 36  1  0  0  0  0
 35 64  1  0  0  0  0
 35 65  1  0  0  0  0
 36 37  1  0  0  0  0
 36 66  1  0  0  0  0
 36 67  1  0  0  0  0
 37 38  1  0  0  0  0
 37 39  1  0  0  0  0
 38 68  1  0  0  0  0
 38 69  1  0  0  0  0
 38 70  1  0  0  0  0
 39 40  1  0  0  0  0
 39 71  1  0  0  0  0
 39 72  1  0  0  0  0
 40 73  1  0  0  0  0
 40 74  1  0  0  0  0
M  END
$$$$
