CHEMBL3963823
 OpenBabel04072215373D

 57 60  0  0  0  0  0  0  0  0999 V2000
    2.5423    0.0170   -0.2420 C   0  0  0  0  0  0  0  0  0  0  0  0
    1.0443    0.0205   -0.1339 C   0  0  0  0  0  0  0  0  0  0  0  0
    0.4042    1.2734   -0.0729 C   0  0  0  0  0  0  0  0  0  0  0  0
   -0.9861    1.3917    0.0047 C   0  0  0  0  0  0  0  0  0  0  0  0
   -1.6345    2.6590   -0.0068 N   0  0  0  0  0  0  0  0  0  0  0  0
   -1.0760    3.7872   -0.5733 C   0  0  0  0  0  0  0  0  0  0  0  0
   -0.0559    3.7902   -1.2584 O   0  0  0  0  0  0  0  0  0  0  0  0
   -1.7784    4.9408   -0.2500 N   0  0  0  0  0  0  0  0  0  0  0  0
   -1.2846    6.1898   -0.7016 C   0  0  0  0  0  0  0  0  0  0  0  0
   -0.8874    6.3706   -2.0285 C   0  0  0  0  0  0  0  0  0  0  0  0
   -0.2720    7.5564   -2.4251 C   0  0  0  0  0  0  0  0  0  0  0  0
   -0.0383    8.5716   -1.4953 C   0  0  0  0  0  0  0  0  0  0  0  0
    0.7462    9.9957   -2.0761 Cl  0  0  0  0  0  0  0  0  0  0  0  0
   -0.4433    8.4155   -0.1575 C   0  0  0  0  0  0  0  0  0  0  0  0
   -0.1489    9.4464    0.9107 C   0  0  0  0  0  0  0  0  0  0  0  0
   -1.2301   10.5121    0.9678 C   0  0  0  0  0  0  0  0  0  0  0  0
   -0.0915    8.8749    2.1565 F   0  0  0  0  0  0  0  0  0  0  0  0
    1.0584   10.0576    0.7747 F   0  0  0  0  0  0  0  0  0  0  0  0
   -1.1074    7.2272    0.2149 C   0  0  0  0  0  0  0  0  0  0  0  0
   -1.7505    0.2356    0.1193 C   0  0  0  0  0  0  0  0  0  0  0  0
   -1.1274   -1.0197    0.1000 C   0  0  0  0  0  0  0  0  0  0  0  0
    0.2624   -1.1415   -0.0653 C   0  0  0  0  0  0  0  0  0  0  0  0
    0.8899   -2.3773   -0.0764 O   0  0  0  0  0  0  0  0  0  0  0  0
    0.2790   -3.4149   -0.7862 C   0  0  0  0  0  0  0  0  0  0  0  0
    0.5484   -4.7130   -0.3859 C   0  0  0  0  0  0  0  0  0  0  0  0
   -0.0670   -5.7148   -1.1154 C   0  0  0  0  0  0  0  0  0  0  0  0
    0.2110   -7.0642   -0.8075 N   0  0  0  0  0  0  0  0  0  0  0  0
   -0.3805   -8.1385   -1.4492 C   0  0  0  0  0  0  0  0  0  0  0  0
   -1.3453   -8.1039   -2.2008 O   0  0  0  0  0  0  0  0  0  0  0  0
    0.2092   -9.4899   -1.1876 C   0  0  0  0  0  0  0  0  0  0  0  0
    0.2494  -10.0613    0.2086 C   0  0  0  0  0  0  0  0  0  0  0  0
    1.5313   -9.7666   -0.5185 C   0  0  0  0  0  0  0  0  0  0  0  0
   -0.8822   -5.4358   -2.1382 N   0  0  0  0  0  0  0  0  0  0  0  0
   -1.0621   -4.1518   -2.4561 C   0  0  0  0  0  0  0  0  0  0  0  0
   -0.5029   -3.1126   -1.8376 N   0  0  0  0  0  0  0  0  0  0  0  0
    2.9083    0.9859   -0.6095 H   0  0  0  0  0  0  0  0  0  0  0  0
    2.8912   -0.7361   -0.9522 H   0  0  0  0  0  0  0  0  0  0  0  0
    2.9927   -0.1548    0.7396 H   0  0  0  0  0  0  0  0  0  0  0  0
    1.0253    2.1658   -0.0918 H   0  0  0  0  0  0  0  0  0  0  0  0
   -2.6356    2.6612    0.0881 H   0  0  0  0  0  0  0  0  0  0  0  0
   -2.1754    4.9205    0.6801 H   0  0  0  0  0  0  0  0  0  0  0  0
   -1.0216    5.5765   -2.7603 H   0  0  0  0  0  0  0  0  0  0  0  0
    0.0535    7.6632   -3.4574 H   0  0  0  0  0  0  0  0  0  0  0  0
   -2.1921   10.0769    1.2571 H   0  0  0  0  0  0  0  0  0  0  0  0
   -1.3490   11.0279    0.0128 H   0  0  0  0  0  0  0  0  0  0  0  0
   -0.9688   11.2636    1.7222 H   0  0  0  0  0  0  0  0  0  0  0  0
   -1.4012    7.0883    1.2538 H   0  0  0  0  0  0  0  0  0  0  0  0
   -2.8329    0.2783    0.1931 H   0  0  0  0  0  0  0  0  0  0  0  0
   -1.7478   -1.9073    0.1865 H   0  0  0  0  0  0  0  0  0  0  0  0
    1.1977   -4.9125    0.4536 H   0  0  0  0  0  0  0  0  0  0  0  0
    0.9047   -7.2519   -0.1033 H   0  0  0  0  0  0  0  0  0  0  0  0
   -0.0557  -10.1915   -1.9781 H   0  0  0  0  0  0  0  0  0  0  0  0
   -0.0478  -11.0998    0.3251 H   0  0  0  0  0  0  0  0  0  0  0  0
   -0.0332   -9.4289    1.0398 H   0  0  0  0  0  0  0  0  0  0  0  0
    2.1046  -10.6134   -0.8893 H   0  0  0  0  0  0  0  0  0  0  0  0
    2.1539   -8.9570   -0.1679 H   0  0  0  0  0  0  0  0  0  0  0  0
   -1.7220   -3.9413   -3.2889 H   0  0  0  0  0  0  0  0  0  0  0  0
  1  2  1  0  0  0  0
  1 36  1  0  0  0  0
  1 37  1  0  0  0  0
  1 38  1  0  0  0  0
  2  3  1  0  0  0  0
  2 22  2  0  0  0  0
  3  4  2  0  0  0  0
  3 39  1  0  0  0  0
  4  5  1  0  0  0  0
  4 20  1  0  0  0  0
  5  6  1  0  0  0  0
  5 40  1  0  0  0  0
  6  7  2  0  0  0  0
  6  8  1  0  0  0  0
  8  9  1  0  0  0  0
  8 41  1  0  0  0  0
  9 10  1  0  0  0  0
  9 19  2  0  0  0  0
 10 11  2  0  0  0  0
 10 42  1  0  0  0  0
 11 12  1  0  0  0  0
 11 43  1  0  0  0  0
 12 13  1  0  0  0  0
 12 14  2  0  0  0  0
 14 15  1  0  0  0  0
 14 19  1  0  0  0  0
 15 16  1  0  0  0  0
 15 17  1  0  0  0  0
 15 18  1  0  0  0  0
 16 44  1  0  0  0  0
 16 45  1  0  0  0  0
 16 46  1  0  0  0  0
 19 47  1  0  0  0  0
 20 21  2  0  0  0  0
 20 48  1  0  0  0  0
 21 22  1  0  0  0  0
 21 49  1  0  0  0  0
 22 23  1  0  0  0  0
 23 24  1  0  0  0  0
 24 25  1  0  0  0  0
 24 35  2  0  0  0  0
 25 26  2  0  0  0  0
 25 50  1  0  0  0  0
 26 27  1  0  0  0  0
 26 33  1  0  0  0  0
 27 28  1  0  0  0  0
 27 51  1  0  0  0  0
 28 29  2  0  0  0  0
 28 30  1  0  0  0  0
 30 31  1  0  0  0  0
 30 32  1  0  0  0  0
 30 52  1  0  0  0  0
 31 32  1  0  0  0  0
 31 53  1  0  0  0  0
 31 54  1  0  0  0  0
 32 55  1  0  0  0  0
 32 56  1  0  0  0  0
 33 34  2  0  0  0  0
 34 35  1  0  0  0  0
 34 57  1  0  0  0  0
M  END
$$$$
