CHEMBL175914
 OpenBabel04072215363D

 48 51  0  0  0  0  0  0  0  0999 V2000
    3.5017    1.1879    0.1402 C   0  0  0  0  0  0  0  0  0  0  0  0
    2.6336    0.0180    0.0241 N   0  0  0  0  0  0  0  0  0  0  0  0
    1.2736    0.1922   -0.3144 C   0  0  0  0  0  0  0  0  0  0  0  0
    0.8259    1.2430   -1.1274 C   0  0  0  0  0  0  0  0  0  0  0  0
   -0.5357    1.4321   -1.4232 C   0  0  0  0  0  0  0  0  0  0  0  0
   -1.4958    0.5481   -0.9014 C   0  0  0  0  0  0  0  0  0  0  0  0
   -2.8659    0.6183   -1.0997 N   0  0  0  0  0  0  0  0  0  0  0  0
   -3.4501   -0.3692   -0.4608 C   0  0  0  0  0  0  0  0  0  0  0  0
   -2.4229   -1.4328    0.4020 S   0  0  0  0  0  0  0  0  0  0  0  0
   -1.0579   -0.5091   -0.1052 C   0  0  0  0  0  0  0  0  0  0  0  0
    0.3055   -0.7017    0.1882 C   0  0  0  0  0  0  0  0  0  0  0  0
    3.3160   -1.2065    0.1941 C   0  0  0  0  0  0  0  0  0  0  0  0
    2.8222   -2.2810   -0.4169 N   0  0  0  0  0  0  0  0  0  0  0  0
    3.5204   -3.3797   -0.2271 C   0  0  0  0  0  0  0  0  0  0  0  0
    3.0545   -4.4737   -0.8877 O   0  0  0  0  0  0  0  0  0  0  0  0
    4.5942   -3.5346    0.5122 N   0  0  0  0  0  0  0  0  0  0  0  0
    5.0195   -2.4360    1.1034 C   0  0  0  0  0  0  0  0  0  0  0  0
    6.1250   -2.4722    1.9415 N   0  0  0  0  0  0  0  0  0  0  0  0
    6.4614   -3.6876    2.7179 C   0  0  0  0  0  0  0  0  0  0  0  0
    5.2477   -4.0899    3.5894 C   0  0  0  0  0  0  0  0  0  0  0  0
    6.8868   -4.8501    1.7977 C   0  0  0  0  0  0  0  0  0  0  0  0
    7.6970   -3.3898    3.6136 C   0  0  0  0  0  0  0  0  0  0  0  0
    7.9098   -4.0728    4.8313 C   0  0  0  0  0  0  0  0  0  0  0  0
    9.0465   -3.8461    5.6131 C   0  0  0  0  0  0  0  0  0  0  0  0
   10.0093   -2.9371    5.1906 C   0  0  0  0  0  0  0  0  0  0  0  0
    9.8403   -2.2657    3.9833 C   0  0  0  0  0  0  0  0  0  0  0  0
    8.7039   -2.4958    3.1999 C   0  0  0  0  0  0  0  0  0  0  0  0
    4.4286   -1.2514    0.9466 N   0  0  0  0  0  0  0  0  0  0  0  0
    2.9648    2.1392    0.0602 H   0  0  0  0  0  0  0  0  0  0  0  0
    4.2690    1.1777   -0.6429 H   0  0  0  0  0  0  0  0  0  0  0  0
    3.9951    1.2193    1.1193 H   0  0  0  0  0  0  0  0  0  0  0  0
    1.5305    1.9376   -1.5784 H   0  0  0  0  0  0  0  0  0  0  0  0
   -0.8562    2.2565   -2.0527 H   0  0  0  0  0  0  0  0  0  0  0  0
   -4.5235   -0.5095   -0.4749 H   0  0  0  0  0  0  0  0  0  0  0  0
    0.5959   -1.5253    0.8343 H   0  0  0  0  0  0  0  0  0  0  0  0
    2.3311   -4.0643   -1.3878 H   0  0  0  0  0  0  0  0  0  0  0  0
    6.1235   -1.6200    2.4896 H   0  0  0  0  0  0  0  0  0  0  0  0
    4.3311   -4.2196    3.0062 H   0  0  0  0  0  0  0  0  0  0  0  0
    5.0411   -3.3262    4.3496 H   0  0  0  0  0  0  0  0  0  0  0  0
    5.4081   -5.0438    4.1030 H   0  0  0  0  0  0  0  0  0  0  0  0
    6.0646   -5.2403    1.1927 H   0  0  0  0  0  0  0  0  0  0  0  0
    7.2633   -5.7017    2.3770 H   0  0  0  0  0  0  0  0  0  0  0  0
    7.6826   -4.5418    1.1086 H   0  0  0  0  0  0  0  0  0  0  0  0
    7.2055   -4.8174    5.1926 H   0  0  0  0  0  0  0  0  0  0  0  0
    9.1811   -4.3901    6.5441 H   0  0  0  0  0  0  0  0  0  0  0  0
   10.8954   -2.7647    5.7961 H   0  0  0  0  0  0  0  0  0  0  0  0
   10.6027   -1.5698    3.6421 H   0  0  0  0  0  0  0  0  0  0  0  0
    8.6190   -1.9788    2.2447 H   0  0  0  0  0  0  0  0  0  0  0  0
  1  2  1  0  0  0  0
  1 29  1  0  0  0  0
  1 30  1  0  0  0  0
  1 31  1  0  0  0  0
  2  3  1  0  0  0  0
  2 12  1  0  0  0  0
  3  4  1  0  0  0  0
  3 11  2  0  0  0  0
  4  5  2  0  0  0  0
  4 32  1  0  0  0  0
  5  6  1  0  0  0  0
  5 33  1  0  0  0  0
  6  7  1  0  0  0  0
  6 10  2  0  0  0  0
  7  8  2  0  0  0  0
  8  9  1  0  0  0  0
  8 34  1  0  0  0  0
  9 10  1  0  0  0  0
 10 11  1  0  0  0  0
 11 35  1  0  0  0  0
 12 13  1  0  0  0  0
 12 28  2  0  0  0  0
 13 14  2  0  0  0  0
 14 15  1  0  0  0  0
 14 16  1  0  0  0  0
 15 36  1  0  0  0  0
 16 17  2  0  0  0  0
 17 18  1  0  0  0  0
 17 28  1  0  0  0  0
 18 19  1  0  0  0  0
 18 37  1  0  0  0  0
 19 20  1  0  0  0  0
 19 21  1  0  0  0  0
 19 22  1  0  0  0  0
 20 38  1  0  0  0  0
 20 39  1  0  0  0  0
 20 40  1  0  0  0  0
 21 41  1  0  0  0  0
 21 42  1  0  0  0  0
 21 43  1  0  0  0  0
 22 23  1  0  0  0  0
 22 27  2  0  0  0  0
 23 24  2  0  0  0  0
 23 44  1  0  0  0  0
 24 25  1  0  0  0  0
 24 45  1  0  0  0  0
 25 26  2  0  0  0  0
 25 46  1  0  0  0  0
 26 27  1  0  0  0  0
 26 47  1  0  0  0  0
 27 48  1  0  0  0  0
M  END
$$$$
