CHEMBL3590220
 OpenBabel04072215363D

 59 63  0  0  0  0  0  0  0  0999 V2000
   12.8155    0.6278    6.2685 C   0  0  0  0  0  0  0  0  0  0  0  0
   12.5131    0.6727    4.8341 N   0  0  0  0  0  0  0  0  0  0  0  0
   13.7542    0.6581    4.0616 C   0  0  0  0  0  0  0  0  0  0  0  0
   11.6512   -0.4693    4.4399 C   0  0  0  0  0  0  0  0  0  0  0  0
   10.3004   -0.4290    5.1730 C   0  0  0  0  0  0  0  0  0  0  0  0
    9.9864   -1.3545    5.9273 O   0  0  0  0  0  0  0  0  0  0  0  0
    9.4748    0.6694    4.9740 N   0  0  0  0  0  0  0  0  0  0  0  0
    8.3606    0.9034    5.8902 C   0  0  0  0  0  0  0  0  0  0  0  0
    7.0586    1.1007    5.1231 C   0  0  0  0  0  0  0  0  0  0  0  0
    7.1850    2.1551    4.0082 C   0  0  0  0  0  0  0  0  0  0  0  0
    7.1478    3.5293    4.5080 N   0  0  0  0  0  0  0  0  0  0  0  0
    6.2403    4.4948    4.1819 C   0  0  0  0  0  0  0  0  0  0  0  0
    6.5989    5.6111    4.9052 C   0  0  0  0  0  0  0  0  0  0  0  0
    7.7289    5.2310    5.6715 C   0  0  0  0  0  0  0  0  0  0  0  0
    8.4743    6.0220    6.6700 C   0  0  0  0  0  0  0  0  0  0  0  0
    9.5769    5.4825    7.3093 C   0  0  0  0  0  0  0  0  0  0  0  0
   10.2340    6.1108    8.3228 N   0  0  0  0  0  0  0  0  0  0  0  0
    9.7957    7.3384    8.6431 C   0  0  0  0  0  0  0  0  0  0  0  0
   10.5483    7.9143    9.6787 N   0  0  0  0  0  0  0  0  0  0  0  0
    8.7424    7.9362    7.9594 C   0  0  0  0  0  0  0  0  0  0  0  0
    8.4928    9.3402    8.0731 N   0  0  0  0  0  0  0  0  0  0  0  0
    8.0127    9.9783    6.9503 N   0  0  0  0  0  0  0  0  0  0  0  0
    8.4375   11.2214    7.0011 N   0  0  0  0  0  0  0  0  0  0  0  0
    8.9386   11.4450    8.2369 C   0  0  0  0  0  0  0  0  0  0  0  0
    9.4294   12.6192    8.8022 C   0  0  0  0  0  0  0  0  0  0  0  0
    8.8427   12.7849   10.0609 C   0  0  0  0  0  0  0  0  0  0  0  0
    8.7312   11.6930   10.9407 C   0  0  0  0  0  0  0  0  0  0  0  0
    8.8824   10.3980   10.4387 C   0  0  0  0  0  0  0  0  0  0  0  0
    8.7918   10.3002    9.0250 C   0  0  0  0  0  0  0  0  0  0  0  0
    8.0551    7.2646    6.9710 N   0  0  0  0  0  0  0  0  0  0  0  0
    8.0647    3.9521    5.3919 N   0  0  0  0  0  0  0  0  0  0  0  0
    8.4107    1.8733    3.1315 C   0  0  0  0  0  0  0  0  0  0  0  0
    9.6859    1.6952    3.9520 C   0  0  0  0  0  0  0  0  0  0  0  0
   13.4301    1.4884    6.5545 H   0  0  0  0  0  0  0  0  0  0  0  0
   13.3481   -0.2878    6.5487 H   0  0  0  0  0  0  0  0  0  0  0  0
   11.9042    0.6961    6.8722 H   0  0  0  0  0  0  0  0  0  0  0  0
   14.3861    1.5106    4.3349 H   0  0  0  0  0  0  0  0  0  0  0  0
   13.5423    0.7570    2.9913 H   0  0  0  0  0  0  0  0  0  0  0  0
   14.3298   -0.2614    4.2180 H   0  0  0  0  0  0  0  0  0  0  0  0
   12.1390   -1.4246    4.6737 H   0  0  0  0  0  0  0  0  0  0  0  0
   11.4555   -0.4716    3.3614 H   0  0  0  0  0  0  0  0  0  0  0  0
    8.6078    1.7753    6.5031 H   0  0  0  0  0  0  0  0  0  0  0  0
    8.2464    0.0700    6.5905 H   0  0  0  0  0  0  0  0  0  0  0  0
    6.2479    1.3546    5.8150 H   0  0  0  0  0  0  0  0  0  0  0  0
    6.7929    0.1428    4.6583 H   0  0  0  0  0  0  0  0  0  0  0  0
    6.2938    2.0617    3.3731 H   0  0  0  0  0  0  0  0  0  0  0  0
    5.4402    4.3146    3.4773 H   0  0  0  0  0  0  0  0  0  0  0  0
    6.0891    6.5639    4.9180 H   0  0  0  0  0  0  0  0  0  0  0  0
    9.9712    4.5071    7.0398 H   0  0  0  0  0  0  0  0  0  0  0  0
   11.2753    7.2409    9.9118 H   0  0  0  0  0  0  0  0  0  0  0  0
   10.9654    8.8122    9.4319 H   0  0  0  0  0  0  0  0  0  0  0  0
   10.5359   12.5261    8.9140 H   0  0  0  0  0  0  0  0  0  0  0  0
    8.2025   13.6552   10.2157 H   0  0  0  0  0  0  0  0  0  0  0  0
    8.4232   11.8708   11.9483 H   0  0  0  0  0  0  0  0  0  0  0  0
    8.7341    9.5313   11.0853 H   0  0  0  0  0  0  0  0  0  0  0  0
    8.5503    2.6613    2.3822 H   0  0  0  0  0  0  0  0  0  0  0  0
    8.2285    0.9398    2.5815 H   0  0  0  0  0  0  0  0  0  0  0  0
   10.0021    2.6208    4.4423 H   0  0  0  0  0  0  0  0  0  0  0  0
   10.4844    1.4153    3.2621 H   0  0  0  0  0  0  0  0  0  0  0  0
  1  2  1  0  0  0  0
  1 34  1  0  0  0  0
  1 35  1  0  0  0  0
  1 36  1  0  0  0  0
  2  3  1  0  0  0  0
  2  4  1  0  0  0  0
  3 37  1  0  0  0  0
  3 38  1  0  0  0  0
  3 39  1  0  0  0  0
  4  5  1  0  0  0  0
  4 40  1  0  0  0  0
  4 41  1  0  0  0  0
  5  6  2  0  0  0  0
  5  7  1  0  0  0  0
  7  8  1  0  0  0  0
  7 33  1  0  0  0  0
  8  9  1  0  0  0  0
  8 42  1  0  0  0  0
  8 43  1  0  0  0  0
  9 10  1  0  0  0  0
  9 44  1  0  0  0  0
  9 45  1  0  0  0  0
 10 11  1  0  0  0  0
 10 32  1  0  0  0  0
 10 46  1  0  0  0  0
 11 12  1  0  0  0  0
 11 31  1  0  0  0  0
 12 13  2  0  0  0  0
 12 47  1  0  0  0  0
 13 14  1  0  0  0  0
 13 48  1  0  0  0  0
 14 15  1  0  0  0  0
 14 31  2  0  0  0  0
 15 16  1  0  0  0  0
 15 30  2  0  0  0  0
 16 17  2  0  0  0  0
 16 49  1  0  0  0  0
 17 18  1  0  0  0  0
 18 19  1  0  0  0  0
 18 20  2  0  0  0  0
 19 50  1  0  0  0  0
 19 51  1  0  0  0  0
 20 21  1  0  0  0  0
 20 30  1  0  0  0  0
 21 22  1  0  0  0  0
 21 29  1  0  0  0  0
 22 23  2  0  0  0  0
 23 24  1  0  0  0  0
 24 25  1  0  0  0  0
 24 29  2  0  0  0  0
 25 26  2  0  0  0  0
 25 52  1  0  0  0  0
 26 27  1  0  0  0  0
 26 53  1  0  0  0  0
 27 28  2  0  0  0  0
 27 54  1  0  0  0  0
 28 29  1  0  0  0  0
 28 55  1  0  0  0  0
 32 33  1  0  0  0  0
 32 56  1  0  0  0  0
 32 57  1  0  0  0  0
 33 58  1  0  0  0  0
 33 59  1  0  0  0  0
M  END
$$$$
