CHEMBL4217462
 OpenBabel04072215383D

 61 64  0  0  0  0  0  0  0  0999 V2000
    3.0559    1.3277   -5.8936 C   0  0  0  0  0  0  0  0  0  0  0  0
    3.7946    1.2099   -4.5851 C   0  0  0  0  0  0  0  0  0  0  0  0
    3.2300    1.4945   -3.5346 O   0  0  0  0  0  0  0  0  0  0  0  0
    5.0956    0.7717   -4.7535 N   0  0  0  0  0  0  0  0  0  0  0  0
    5.9363    0.4697   -3.7078 C   0  0  0  0  0  0  0  0  0  0  0  0
    7.2856    0.2170   -3.8155 C   0  0  0  0  0  0  0  0  0  0  0  0
    7.7101   -0.0333   -2.5308 N   0  0  0  0  0  0  0  0  0  0  0  0
    8.9877   -0.3047   -2.0465 C   0  0  0  0  0  0  0  0  0  0  0  0
    9.1613   -0.5467   -0.7281 C   0  0  0  0  0  0  0  0  0  0  0  0
   10.5130   -0.8567   -0.2274 C   0  0  0  0  0  0  0  0  0  0  0  0
   10.8921   -2.2095   -0.1591 C   0  0  0  0  0  0  0  0  0  0  0  0
   12.1578   -2.5863    0.2937 C   0  0  0  0  0  0  0  0  0  0  0  0
   12.5623   -3.9338    0.4479 N   0  0  0  0  0  0  0  0  0  0  0  0
   11.7180   -5.0343    0.4957 C   0  0  0  0  0  0  0  0  0  0  0  0
   10.4941   -5.0128    0.4281 O   0  0  0  0  0  0  0  0  0  0  0  0
   12.3795   -6.3503    0.7334 C   0  0  0  0  0  0  0  0  0  0  0  0
   11.6925   -7.3047    1.4881 C   0  0  0  0  0  0  0  0  0  0  0  0
   12.2673   -8.5491    1.7231 C   0  0  0  0  0  0  0  0  0  0  0  0
   13.5257   -8.8510    1.1953 C   0  0  0  0  0  0  0  0  0  0  0  0
   14.2403   -7.9219    0.4154 C   0  0  0  0  0  0  0  0  0  0  0  0
   15.5851   -8.2956   -0.2388 C   0  0  0  0  0  0  0  0  0  0  0  0
   15.2908   -8.8979   -1.6267 C   0  0  0  0  0  0  0  0  0  0  0  0
   16.5105   -7.0698   -0.4135 C   0  0  0  0  0  0  0  0  0  0  0  0
   16.3910   -9.3342    0.5773 C   0  0  0  0  0  0  0  0  0  0  0  0
   13.6336   -6.6670    0.1869 C   0  0  0  0  0  0  0  0  0  0  0  0
   13.0742   -1.5843    0.6244 C   0  0  0  0  0  0  0  0  0  0  0  0
   12.6979   -0.2356    0.5923 C   0  0  0  0  0  0  0  0  0  0  0  0
   11.4067    0.1426    0.1980 C   0  0  0  0  0  0  0  0  0  0  0  0
   11.0073    1.5927    0.2493 C   0  0  0  0  0  0  0  0  0  0  0  0
    7.9787   -0.5312    0.1384 C   0  0  0  0  0  0  0  0  0  0  0  0
    6.7508   -0.2541   -0.3408 C   0  0  0  0  0  0  0  0  0  0  0  0
    6.5824    0.0265   -1.7227 C   0  0  0  0  0  0  0  0  0  0  0  0
    5.5158    0.3458   -2.4179 N   0  0  0  0  0  0  0  0  0  0  0  0
    2.1606    1.9404   -5.7478 H   0  0  0  0  0  0  0  0  0  0  0  0
    2.7542    0.3328   -6.2314 H   0  0  0  0  0  0  0  0  0  0  0  0
    3.6790    1.8086   -6.6520 H   0  0  0  0  0  0  0  0  0  0  0  0
    5.4809    0.7077   -5.6832 H   0  0  0  0  0  0  0  0  0  0  0  0
    7.9688    0.2101   -4.6508 H   0  0  0  0  0  0  0  0  0  0  0  0
    9.7968   -0.3101   -2.7665 H   0  0  0  0  0  0  0  0  0  0  0  0
   10.1709   -2.9595   -0.4728 H   0  0  0  0  0  0  0  0  0  0  0  0
   13.5255   -4.0810    0.7197 H   0  0  0  0  0  0  0  0  0  0  0  0
   10.7040   -7.0832    1.8862 H   0  0  0  0  0  0  0  0  0  0  0  0
   11.7290   -9.2936    2.3053 H   0  0  0  0  0  0  0  0  0  0  0  0
   13.9184   -9.8460    1.3897 H   0  0  0  0  0  0  0  0  0  0  0  0
   14.7708   -8.1818   -2.2736 H   0  0  0  0  0  0  0  0  0  0  0  0
   14.6575   -9.7898   -1.5496 H   0  0  0  0  0  0  0  0  0  0  0  0
   16.2162   -9.1928   -2.1348 H   0  0  0  0  0  0  0  0  0  0  0  0
   16.1003   -6.3330   -1.1118 H   0  0  0  0  0  0  0  0  0  0  0  0
   17.4863   -7.3646   -0.8172 H   0  0  0  0  0  0  0  0  0  0  0  0
   16.6842   -6.5673    0.5453 H   0  0  0  0  0  0  0  0  0  0  0  0
   15.8767  -10.2979    0.6537 H   0  0  0  0  0  0  0  0  0  0  0  0
   16.5911   -8.9739    1.5928 H   0  0  0  0  0  0  0  0  0  0  0  0
   17.3578   -9.5417    0.1020 H   0  0  0  0  0  0  0  0  0  0  0  0
   14.1111   -5.9411   -0.4637 H   0  0  0  0  0  0  0  0  0  0  0  0
   14.0793   -1.8335    0.9541 H   0  0  0  0  0  0  0  0  0  0  0  0
   13.4192    0.5192    0.9012 H   0  0  0  0  0  0  0  0  0  0  0  0
   11.7834    2.2045    0.7222 H   0  0  0  0  0  0  0  0  0  0  0  0
   10.0978    1.7174    0.8475 H   0  0  0  0  0  0  0  0  0  0  0  0
   10.8383    1.9833   -0.7581 H   0  0  0  0  0  0  0  0  0  0  0  0
    8.1161   -0.7653    1.1877 H   0  0  0  0  0  0  0  0  0  0  0  0
    5.8742   -0.2497    0.2960 H   0  0  0  0  0  0  0  0  0  0  0  0
  1  2  1  0  0  0  0
  1 34  1  0  0  0  0
  1 35  1  0  0  0  0
  1 36  1  0  0  0  0
  2  3  2  0  0  0  0
  2  4  1  0  0  0  0
  4  5  1  0  0  0  0
  4 37  1  0  0  0  0
  5  6  2  0  0  0  0
  5 33  1  0  0  0  0
  6  7  1  0  0  0  0
  6 38  1  0  0  0  0
  7  8  1  0  0  0  0
  7 32  1  0  0  0  0
  8  9  2  0  0  0  0
  8 39  1  0  0  0  0
  9 10  1  0  0  0  0
  9 30  1  0  0  0  0
 10 11  1  0  0  0  0
 10 28  2  0  0  0  0
 11 12  2  0  0  0  0
 11 40  1  0  0  0  0
 12 13  1  0  0  0  0
 12 26  1  0  0  0  0
 13 14  1  0  0  0  0
 13 41  1  0  0  0  0
 14 15  2  0  0  0  0
 14 16  1  0  0  0  0
 16 17  1  0  0  0  0
 16 25  2  0  0  0  0
 17 18  2  0  0  0  0
 17 42  1  0  0  0  0
 18 19  1  0  0  0  0
 18 43  1  0  0  0  0
 19 20  2  0  0  0  0
 19 44  1  0  0  0  0
 20 21  1  0  0  0  0
 20 25  1  0  0  0  0
 21 22  1  0  0  0  0
 21 23  1  0  0  0  0
 21 24  1  0  0  0  0
 22 45  1  0  0  0  0
 22 46  1  0  0  0  0
 22 47  1  0  0  0  0
 23 48  1  0  0  0  0
 23 49  1  0  0  0  0
 23 50  1  0  0  0  0
 24 51  1  0  0  0  0
 24 52  1  0  0  0  0
 24 53  1  0  0  0  0
 25 54  1  0  0  0  0
 26 27  2  0  0  0  0
 26 55  1  0  0  0  0
 27 28  1  0  0  0  0
 27 56  1  0  0  0  0
 28 29  1  0  0  0  0
 29 57  1  0  0  0  0
 29 58  1  0  0  0  0
 29 59  1  0  0  0  0
 30 31  2  0  0  0  0
 30 60  1  0  0  0  0
 31 32  1  0  0  0  0
 31 61  1  0  0  0  0
 32 33  2  0  0  0  0
M  END
$$$$
