CHEMBL271189
 OpenBabel04072215363D

 59 62  0  0  0  0  0  0  0  0999 V2000
    5.0913   -1.8112    3.1665 C   0  0  0  0  0  0  0  0  0  0  0  0
    4.6381   -2.1045    1.8517 O   0  0  0  0  0  0  0  0  0  0  0  0
    5.0194   -3.4178    1.4433 C   0  0  0  0  0  0  0  0  0  0  0  0
    4.5263   -3.6717    0.0235 C   0  0  0  0  0  0  0  0  0  0  0  0
    5.0640   -2.6615   -0.9894 C   0  0  0  0  0  0  0  0  0  0  0  0
    6.5098   -2.6978   -1.1264 N   0  0  0  0  0  0  0  0  0  0  0  0
    7.1424   -3.6366   -1.9191 C   0  0  0  0  0  0  0  0  0  0  0  0
    6.5311   -4.5205   -2.5083 O   0  0  0  0  0  0  0  0  0  0  0  0
    8.6352   -3.5289   -2.0192 C   0  0  0  0  0  0  0  0  0  0  0  0
    9.3505   -3.2114   -0.8547 C   0  0  0  0  0  0  0  0  0  0  0  0
   10.7418   -3.1572   -0.8788 C   0  0  0  0  0  0  0  0  0  0  0  0
   11.4295   -3.4430   -2.0586 C   0  0  0  0  0  0  0  0  0  0  0  0
   10.7459   -3.7800   -3.2414 C   0  0  0  0  0  0  0  0  0  0  0  0
   11.4630   -4.0976   -4.4191 C   0  0  0  0  0  0  0  0  0  0  0  0
   10.8045   -4.4411   -5.6029 C   0  0  0  0  0  0  0  0  0  0  0  0
   11.5852   -4.7710   -6.6954 O   0  0  0  0  0  0  0  0  0  0  0  0
   11.1430   -5.7471   -7.5859 C   0  0  0  0  0  0  0  0  0  0  0  0
   10.4338   -6.8609   -7.1545 C   0  0  0  0  0  0  0  0  0  0  0  0
    9.9763   -7.7395   -8.1114 C   0  0  0  0  0  0  0  0  0  0  0  0
   10.2122   -7.6053   -9.4337 N   0  0  0  0  0  0  0  0  0  0  0  0
   10.9467   -6.5585   -9.8550 C   0  0  0  0  0  0  0  0  0  0  0  0
   11.1828   -6.3939  -11.2206 C   0  0  0  0  0  0  0  0  0  0  0  0
   11.9162   -5.3166  -11.7656 C   0  0  0  0  0  0  0  0  0  0  0  0
   11.7995   -5.2160  -13.1275 O   0  0  0  0  0  0  0  0  0  0  0  0
   12.9799   -5.2846  -13.9174 C   0  0  0  0  0  0  0  0  0  0  0  0
   12.4569   -4.3738  -10.8830 C   0  0  0  0  0  0  0  0  0  0  0  0
   13.1727   -3.2395  -11.0830 O   0  0  0  0  0  0  0  0  0  0  0  0
   13.4614   -2.7334  -12.3670 C   0  0  0  0  0  0  0  0  0  0  0  0
   12.2171   -4.5420   -9.5064 C   0  0  0  0  0  0  0  0  0  0  0  0
   11.4538   -5.5965   -8.9654 C   0  0  0  0  0  0  0  0  0  0  0  0
    9.4154   -4.3855   -5.6329 C   0  0  0  0  0  0  0  0  0  0  0  0
    8.6931   -4.1006   -4.4711 C   0  0  0  0  0  0  0  0  0  0  0  0
    9.3259   -3.8090   -3.2399 C   0  0  0  0  0  0  0  0  0  0  0  0
    4.7682   -0.7989    3.4237 H   0  0  0  0  0  0  0  0  0  0  0  0
    6.1840   -1.8501    3.2098 H   0  0  0  0  0  0  0  0  0  0  0  0
    4.6591   -2.5113    3.8878 H   0  0  0  0  0  0  0  0  0  0  0  0
    4.5692   -4.1520    2.1207 H   0  0  0  0  0  0  0  0  0  0  0  0
    6.1094   -3.5198    1.4955 H   0  0  0  0  0  0  0  0  0  0  0  0
    3.4311   -3.6065    0.0134 H   0  0  0  0  0  0  0  0  0  0  0  0
    4.7959   -4.6914   -0.2739 H   0  0  0  0  0  0  0  0  0  0  0  0
    4.7868   -1.6394   -0.7114 H   0  0  0  0  0  0  0  0  0  0  0  0
    4.6199   -2.8660   -1.9707 H   0  0  0  0  0  0  0  0  0  0  0  0
    7.0386   -1.9531   -0.6933 H   0  0  0  0  0  0  0  0  0  0  0  0
    8.8404   -3.0400    0.0892 H   0  0  0  0  0  0  0  0  0  0  0  0
   11.2939   -2.9159    0.0277 H   0  0  0  0  0  0  0  0  0  0  0  0
   12.5177   -3.4071   -2.0433 H   0  0  0  0  0  0  0  0  0  0  0  0
   12.5523   -4.0918   -4.4121 H   0  0  0  0  0  0  0  0  0  0  0  0
   10.2142   -7.0363   -6.1085 H   0  0  0  0  0  0  0  0  0  0  0  0
    9.3768   -8.6019   -7.8298 H   0  0  0  0  0  0  0  0  0  0  0  0
   10.7411   -7.1281  -11.8973 H   0  0  0  0  0  0  0  0  0  0  0  0
   12.8079   -5.9623  -14.7607 H   0  0  0  0  0  0  0  0  0  0  0  0
   13.8693   -5.6143  -13.3728 H   0  0  0  0  0  0  0  0  0  0  0  0
   13.1427   -4.3043  -14.3744 H   0  0  0  0  0  0  0  0  0  0  0  0
   13.8778   -1.7290  -12.2343 H   0  0  0  0  0  0  0  0  0  0  0  0
   12.5649   -2.6348  -12.9816 H   0  0  0  0  0  0  0  0  0  0  0  0
   14.2512   -3.3220  -12.8385 H   0  0  0  0  0  0  0  0  0  0  0  0
   12.6176   -3.7878   -8.8264 H   0  0  0  0  0  0  0  0  0  0  0  0
    8.8660   -4.5885   -6.5509 H   0  0  0  0  0  0  0  0  0  0  0  0
    7.6076   -4.1163   -4.5460 H   0  0  0  0  0  0  0  0  0  0  0  0
  1  2  1  0  0  0  0
  1 34  1  0  0  0  0
  1 35  1  0  0  0  0
  1 36  1  0  0  0  0
  2  3  1  0  0  0  0
  3  4  1  0  0  0  0
  3 37  1  0  0  0  0
  3 38  1  0  0  0  0
  4  5  1  0  0  0  0
  4 39  1  0  0  0  0
  4 40  1  0  0  0  0
  5  6  1  0  0  0  0
  5 41  1  0  0  0  0
  5 42  1  0  0  0  0
  6  7  1  0  0  0  0
  6 43  1  0  0  0  0
  7  8  2  0  0  0  0
  7  9  1  0  0  0  0
  9 10  1  0  0  0  0
  9 33  2  0  0  0  0
 10 11  2  0  0  0  0
 10 44  1  0  0  0  0
 11 12  1  0  0  0  0
 11 45  1  0  0  0  0
 12 13  2  0  0  0  0
 12 46  1  0  0  0  0
 13 14  1  0  0  0  0
 13 33  1  0  0  0  0
 14 15  2  0  0  0  0
 14 47  1  0  0  0  0
 15 16  1  0  0  0  0
 15 31  1  0  0  0  0
 16 17  1  0  0  0  0
 17 18  1  0  0  0  0
 17 30  2  0  0  0  0
 18 19  2  0  0  0  0
 18 48  1  0  0  0  0
 19 20  1  0  0  0  0
 19 49  1  0  0  0  0
 20 21  2  0  0  0  0
 21 22  1  0  0  0  0
 21 30  1  0  0  0  0
 22 23  2  0  0  0  0
 22 50  1  0  0  0  0
 23 24  1  0  0  0  0
 23 26  1  0  0  0  0
 24 25  1  0  0  0  0
 25 51  1  0  0  0  0
 25 52  1  0  0  0  0
 25 53  1  0  0  0  0
 26 27  1  0  0  0  0
 26 29  2  0  0  0  0
 27 28  1  0  0  0  0
 28 54  1  0  0  0  0
 28 55  1  0  0  0  0
 28 56  1  0  0  0  0
 29 30  1  0  0  0  0
 29 57  1  0  0  0  0
 31 32  2  0  0  0  0
 31 58  1  0  0  0  0
 32 33  1  0  0  0  0
 32 59  1  0  0  0  0
M  END
$$$$
