CHEMBL3977612
 OpenBabel04072215373D

 53 56  0  0  0  0  0  0  0  0999 V2000
    1.2107    0.5614    0.1558 O   0  0  0  0  0  0  0  0  0  0  0  0
    2.2938    0.0254   -0.0190 C   0  0  0  0  0  0  0  0  0  0  0  0
    2.8419   -0.2293   -1.2701 N   0  0  0  0  0  0  0  0  0  0  0  0
    2.2100    0.0653   -2.5055 C   0  0  0  0  0  0  0  0  0  0  0  0
    1.0809    0.8821   -2.6066 C   0  0  0  0  0  0  0  0  0  0  0  0
    0.4316    1.0702   -3.8264 C   0  0  0  0  0  0  0  0  0  0  0  0
    0.9587    0.5238   -4.9937 C   0  0  0  0  0  0  0  0  0  0  0  0
    0.3980    0.7085   -6.2413 O   0  0  0  0  0  0  0  0  0  0  0  0
   -0.1817    1.9271   -6.5425 C   0  0  0  0  0  0  0  0  0  0  0  0
    0.2609    3.1377   -6.0176 C   0  0  0  0  0  0  0  0  0  0  0  0
   -0.4407    4.2744   -6.3448 C   0  0  0  0  0  0  0  0  0  0  0  0
   -1.4816    4.2794   -7.1941 N   0  0  0  0  0  0  0  0  0  0  0  0
   -1.8630    3.1244   -7.7645 C   0  0  0  0  0  0  0  0  0  0  0  0
   -2.9145    3.1325   -8.6955 N   0  0  0  0  0  0  0  0  0  0  0  0
   -3.6028    4.2730   -9.0618 C   0  0  0  0  0  0  0  0  0  0  0  0
   -3.4368    5.4130   -8.6579 O   0  0  0  0  0  0  0  0  0  0  0  0
   -4.6608    4.0314  -10.0973 C   0  0  0  0  0  0  0  0  0  0  0  0
   -4.6252    4.8291  -11.3829 C   0  0  0  0  0  0  0  0  0  0  0  0
   -5.6976    5.1038  -10.3702 C   0  0  0  0  0  0  0  0  0  0  0  0
   -1.2381    1.9189   -7.4589 C   0  0  0  0  0  0  0  0  0  0  0  0
    2.0913   -0.2890   -4.9117 C   0  0  0  0  0  0  0  0  0  0  0  0
    2.7171   -0.5127   -3.6748 C   0  0  0  0  0  0  0  0  0  0  0  0
    3.1026   -0.4339    1.0104 N   0  0  0  0  0  0  0  0  0  0  0  0
    2.7704   -0.4221    2.3892 C   0  0  0  0  0  0  0  0  0  0  0  0
    1.5550    0.0436    2.8935 C   0  0  0  0  0  0  0  0  0  0  0  0
    1.3014    0.0537    4.2654 C   0  0  0  0  0  0  0  0  0  0  0  0
    2.2511   -0.4336    5.1568 C   0  0  0  0  0  0  0  0  0  0  0  0
    3.4376   -0.9773    4.6723 C   0  0  0  0  0  0  0  0  0  0  0  0
    4.4161   -1.5458    5.4306 O   0  0  0  0  0  0  0  0  0  0  0  0
    4.0668   -2.1843    6.6538 C   0  0  0  0  0  0  0  0  0  0  0  0
    2.7427   -2.3795    6.8253 F   0  0  0  0  0  0  0  0  0  0  0  0
    4.6635   -3.3978    6.6841 F   0  0  0  0  0  0  0  0  0  0  0  0
    4.5397   -1.4577    7.6887 F   0  0  0  0  0  0  0  0  0  0  0  0
    3.7108   -0.9290    3.2952 C   0  0  0  0  0  0  0  0  0  0  0  0
    3.6540   -0.8255   -1.3108 H   0  0  0  0  0  0  0  0  0  0  0  0
    0.6630    1.4007   -1.7502 H   0  0  0  0  0  0  0  0  0  0  0  0
   -0.4748    1.6697   -3.8367 H   0  0  0  0  0  0  0  0  0  0  0  0
    1.1062    3.2086   -5.3440 H   0  0  0  0  0  0  0  0  0  0  0  0
   -0.1860    5.2412   -5.9222 H   0  0  0  0  0  0  0  0  0  0  0  0
   -3.1617    2.2561   -9.1290 H   0  0  0  0  0  0  0  0  0  0  0  0
   -5.0190    3.0094  -10.1707 H   0  0  0  0  0  0  0  0  0  0  0  0
   -4.9130    4.3376  -12.3037 H   0  0  0  0  0  0  0  0  0  0  0  0
   -3.8463    5.5763  -11.5005 H   0  0  0  0  0  0  0  0  0  0  0  0
   -6.7105    4.7948  -10.5966 H   0  0  0  0  0  0  0  0  0  0  0  0
   -5.6377    6.0328   -9.8105 H   0  0  0  0  0  0  0  0  0  0  0  0
   -1.5559    0.9850   -7.9066 H   0  0  0  0  0  0  0  0  0  0  0  0
    2.4883   -0.7541   -5.8102 H   0  0  0  0  0  0  0  0  0  0  0  0
    3.5902   -1.1610   -3.6434 H   0  0  0  0  0  0  0  0  0  0  0  0
    4.0259   -0.7572    0.7679 H   0  0  0  0  0  0  0  0  0  0  0  0
    0.7661    0.4230    2.2527 H   0  0  0  0  0  0  0  0  0  0  0  0
    0.3533    0.4423    4.6300 H   0  0  0  0  0  0  0  0  0  0  0  0
    2.0254   -0.3790    6.2175 H   0  0  0  0  0  0  0  0  0  0  0  0
    4.6633   -1.3148    2.9413 H   0  0  0  0  0  0  0  0  0  0  0  0
  1  2  2  0  0  0  0
  2  3  1  0  0  0  0
  2 23  1  0  0  0  0
  3  4  1  0  0  0  0
  3 35  1  0  0  0  0
  4  5  1  0  0  0  0
  4 22  2  0  0  0  0
  5  6  2  0  0  0  0
  5 36  1  0  0  0  0
  6  7  1  0  0  0  0
  6 37  1  0  0  0  0
  7  8  1  0  0  0  0
  7 21  2  0  0  0  0
  8  9  1  0  0  0  0
  9 10  1  0  0  0  0
  9 20  2  0  0  0  0
 10 11  2  0  0  0  0
 10 38  1  0  0  0  0
 11 12  1  0  0  0  0
 11 39  1  0  0  0  0
 12 13  2  0  0  0  0
 13 14  1  0  0  0  0
 13 20  1  0  0  0  0
 14 15  1  0  0  0  0
 14 40  1  0  0  0  0
 15 16  2  0  0  0  0
 15 17  1  0  0  0  0
 17 18  1  0  0  0  0
 17 19  1  0  0  0  0
 17 41  1  0  0  0  0
 18 19  1  0  0  0  0
 18 42  1  0  0  0  0
 18 43  1  0  0  0  0
 19 44  1  0  0  0  0
 19 45  1  0  0  0  0
 20 46  1  0  0  0  0
 21 22  1  0  0  0  0
 21 47  1  0  0  0  0
 22 48  1  0  0  0  0
 23 24  1  0  0  0  0
 23 49  1  0  0  0  0
 24 25  1  0  0  0  0
 24 34  2  0  0  0  0
 25 26  2  0  0  0  0
 25 50  1  0  0  0  0
 26 27  1  0  0  0  0
 26 51  1  0  0  0  0
 27 28  2  0  0  0  0
 27 52  1  0  0  0  0
 28 29  1  0  0  0  0
 28 34  1  0  0  0  0
 29 30  1  0  0  0  0
 30 31  1  0  0  0  0
 30 32  1  0  0  0  0
 30 33  1  0  0  0  0
 34 53  1  0  0  0  0
M  END
$$$$
