CHEMBL475352
 OpenBabel04072215383D

 41 45  0  0  0  0  0  0  0  0999 V2000
    0.9809   -0.5272   -0.0365 C   0  0  0  0  0  0  0  0  0  0  0  0
    2.3235   -0.1864   -0.3618 O   0  0  0  0  0  0  0  0  0  0  0  0
    3.0746    0.3825    0.6390 C   0  0  0  0  0  0  0  0  0  0  0  0
    2.8034    0.1502    2.0077 C   0  0  0  0  0  0  0  0  0  0  0  0
    3.6265    0.6485    3.0293 C   0  0  0  0  0  0  0  0  0  0  0  0
    3.3286    0.3416    4.3701 N   0  0  0  0  0  0  0  0  0  0  0  0
    4.1554    0.3650    5.5096 C   0  0  0  0  0  0  0  0  0  0  0  0
    5.3186    1.0755    5.5504 N   0  0  0  0  0  0  0  0  0  0  0  0
    6.1115    0.9968    6.6379 C   0  0  0  0  0  0  0  0  0  0  0  0
    5.9165    0.2758    7.7563 N   0  0  0  0  0  0  0  0  0  0  0  0
    4.7599   -0.3949    7.6857 C   0  0  0  0  0  0  0  0  0  0  0  0
    4.2587   -1.2509    8.6201 N   0  0  0  0  0  0  0  0  0  0  0  0
    3.0663   -1.7276    8.1456 C   0  0  0  0  0  0  0  0  0  0  0  0
    2.7789   -1.2381    6.9539 N   0  0  0  0  0  0  0  0  0  0  0  0
    3.8396   -0.4019    6.6512 C   0  0  0  0  0  0  0  0  0  0  0  0
    4.7204    1.4158    2.6424 C   0  0  0  0  0  0  0  0  0  0  0  0
    4.9994    1.6621    1.2934 C   0  0  0  0  0  0  0  0  0  0  0  0
    4.1949    1.1499    0.2591 C   0  0  0  0  0  0  0  0  0  0  0  0
    4.5278    1.4589   -1.1572 C   0  0  0  0  0  0  0  0  0  0  0  0
    3.6677    1.6290   -2.1450 N   0  0  0  0  0  0  0  0  0  0  0  0
    4.3259    1.9579   -3.3252 C   0  0  0  0  0  0  0  0  0  0  0  0
    3.7297    2.2026   -4.5789 C   0  0  0  0  0  0  0  0  0  0  0  0
    4.5251    2.5335   -5.6850 C   0  0  0  0  0  0  0  0  0  0  0  0
    5.9056    2.6410   -5.5537 C   0  0  0  0  0  0  0  0  0  0  0  0
    6.5186    2.4062   -4.3189 C   0  0  0  0  0  0  0  0  0  0  0  0
    5.7120    2.0529   -3.2260 C   0  0  0  0  0  0  0  0  0  0  0  0
    6.1838    1.6708   -1.6244 S   0  0  0  0  0  0  0  0  0  0  0  0
    0.4700   -0.8078   -0.9620 H   0  0  0  0  0  0  0  0  0  0  0  0
    0.4499    0.3270    0.3972 H   0  0  0  0  0  0  0  0  0  0  0  0
    0.9417   -1.3948    0.6306 H   0  0  0  0  0  0  0  0  0  0  0  0
    1.9587   -0.4654    2.2998 H   0  0  0  0  0  0  0  0  0  0  0  0
    2.5254   -0.2620    4.5178 H   0  0  0  0  0  0  0  0  0  0  0  0
    7.0246    1.5833    6.5956 H   0  0  0  0  0  0  0  0  0  0  0  0
    4.7131   -1.4960    9.4880 H   0  0  0  0  0  0  0  0  0  0  0  0
    2.4643   -2.4305    8.7053 H   0  0  0  0  0  0  0  0  0  0  0  0
    5.3913    1.8491    3.3763 H   0  0  0  0  0  0  0  0  0  0  0  0
    5.8710    2.2757    1.0777 H   0  0  0  0  0  0  0  0  0  0  0  0
    2.6504    2.1317   -4.6825 H   0  0  0  0  0  0  0  0  0  0  0  0
    4.0606    2.7110   -6.6534 H   0  0  0  0  0  0  0  0  0  0  0  0
    6.5151    2.8995   -6.4152 H   0  0  0  0  0  0  0  0  0  0  0  0
    7.5971    2.4887   -4.2142 H   0  0  0  0  0  0  0  0  0  0  0  0
  1  2  1  0  0  0  0
  1 28  1  0  0  0  0
  1 29  1  0  0  0  0
  1 30  1  0  0  0  0
  2  3  1  0  0  0  0
  3  4  1  0  0  0  0
  3 18  2  0  0  0  0
  4  5  2  0  0  0  0
  4 31  1  0  0  0  0
  5  6  1  0  0  0  0
  5 16  1  0  0  0  0
  6  7  1  0  0  0  0
  6 32  1  0  0  0  0
  7  8  1  0  0  0  0
  7 15  2  0  0  0  0
  8  9  2  0  0  0  0
  9 10  1  0  0  0  0
  9 33  1  0  0  0  0
 10 11  2  0  0  0  0
 11 12  1  0  0  0  0
 11 15  1  0  0  0  0
 12 13  1  0  0  0  0
 12 34  1  0  0  0  0
 13 14  2  0  0  0  0
 13 35  1  0  0  0  0
 14 15  1  0  0  0  0
 16 17  2  0  0  0  0
 16 36  1  0  0  0  0
 17 18  1  0  0  0  0
 17 37  1  0  0  0  0
 18 19  1  0  0  0  0
 19 20  2  0  0  0  0
 19 27  1  0  0  0  0
 20 21  1  0  0  0  0
 21 22  1  0  0  0  0
 21 26  2  0  0  0  0
 22 23  2  0  0  0  0
 22 38  1  0  0  0  0
 23 24  1  0  0  0  0
 23 39  1  0  0  0  0
 24 25  2  0  0  0  0
 24 40  1  0  0  0  0
 25 26  1  0  0  0  0
 25 41  1  0  0  0  0
 26 27  1  0  0  0  0
M  END
$$$$
