CHEMBL603255
 OpenBabel04072215383D

 37 40  0  0  0  0  0  0  0  0999 V2000
    1.1202   -0.5571    0.5323 O   0  0  0  0  0  0  0  0  0  0  0  0
    2.2457   -0.2384    0.1595 C   0  0  0  0  0  0  0  0  0  0  0  0
    2.9263   -0.9464   -0.9880 C   0  0  0  0  0  0  0  0  0  0  0  0
    4.1778   -1.6031   -0.5274 C   0  0  0  0  0  0  0  0  0  0  0  0
    4.3226   -2.9699   -0.4631 C   0  0  0  0  0  0  0  0  0  0  0  0
    5.4213   -3.5812    0.0095 N   0  0  0  0  0  0  0  0  0  0  0  0
    6.4328   -2.7938    0.3923 C   0  0  0  0  0  0  0  0  0  0  0  0
    7.5554   -3.4334    0.9104 N   0  0  0  0  0  0  0  0  0  0  0  0
    8.8743   -2.9692    0.9826 C   0  0  0  0  0  0  0  0  0  0  0  0
    9.7171   -3.4271    2.0019 C   0  0  0  0  0  0  0  0  0  0  0  0
   11.0064   -2.9056    2.1480 C   0  0  0  0  0  0  0  0  0  0  0  0
   11.4722   -1.9327    1.2646 C   0  0  0  0  0  0  0  0  0  0  0  0
   10.6535   -1.4832    0.2355 C   0  0  0  0  0  0  0  0  0  0  0  0
    9.3647   -1.9928    0.1061 C   0  0  0  0  0  0  0  0  0  0  0  0
    6.3844   -1.4502    0.3412 N   0  0  0  0  0  0  0  0  0  0  0  0
    5.2512   -0.8579   -0.0898 C   0  0  0  0  0  0  0  0  0  0  0  0
    5.2346    0.6210   -0.0611 C   0  0  0  0  0  0  0  0  0  0  0  0
    6.3898    1.3295   -0.4540 C   0  0  0  0  0  0  0  0  0  0  0  0
    6.4406    2.7258   -0.4280 C   0  0  0  0  0  0  0  0  0  0  0  0
    5.3565    3.4495    0.0510 C   0  0  0  0  0  0  0  0  0  0  0  0
    4.2163    2.7785    0.4841 C   0  0  0  0  0  0  0  0  0  0  0  0
    4.1245    1.3815    0.3789 C   0  0  0  0  0  0  0  0  0  0  0  0
    2.8724    0.8372    0.7243 N   0  0  0  0  0  0  0  0  0  0  0  0
    3.1327   -0.2289   -1.7910 H   0  0  0  0  0  0  0  0  0  0  0  0
    2.2301   -1.6803   -1.4094 H   0  0  0  0  0  0  0  0  0  0  0  0
    3.5309   -3.6402   -0.7877 H   0  0  0  0  0  0  0  0  0  0  0  0
    7.4069   -4.4264    1.0076 H   0  0  0  0  0  0  0  0  0  0  0  0
    9.3602   -4.1629    2.7175 H   0  0  0  0  0  0  0  0  0  0  0  0
   11.6397   -3.2459    2.9627 H   0  0  0  0  0  0  0  0  0  0  0  0
   12.4705   -1.5190    1.3846 H   0  0  0  0  0  0  0  0  0  0  0  0
   11.0074   -0.7276   -0.4606 H   0  0  0  0  0  0  0  0  0  0  0  0
    8.7386   -1.6271   -0.7064 H   0  0  0  0  0  0  0  0  0  0  0  0
    7.2682    0.7820   -0.7943 H   0  0  0  0  0  0  0  0  0  0  0  0
    7.3321    3.2434   -0.7730 H   0  0  0  0  0  0  0  0  0  0  0  0
    5.3912    4.5356    0.0765 H   0  0  0  0  0  0  0  0  0  0  0  0
    3.3728    3.3640    0.8436 H   0  0  0  0  0  0  0  0  0  0  0  0
    2.2604    1.3789    1.3268 H   0  0  0  0  0  0  0  0  0  0  0  0
  1  2  2  0  0  0  0
  2  3  1  0  0  0  0
  2 23  1  0  0  0  0
  3  4  1  0  0  0  0
  3 24  1  0  0  0  0
  3 25  1  0  0  0  0
  4  5  1  0  0  0  0
  4 16  2  0  0  0  0
  5  6  2  0  0  0  0
  5 26  1  0  0  0  0
  6  7  1  0  0  0  0
  7  8  1  0  0  0  0
  7 15  2  0  0  0  0
  8  9  1  0  0  0  0
  8 27  1  0  0  0  0
  9 10  1  0  0  0  0
  9 14  2  0  0  0  0
 10 11  2  0  0  0  0
 10 28  1  0  0  0  0
 11 12  1  0  0  0  0
 11 29  1  0  0  0  0
 12 13  2  0  0  0  0
 12 30  1  0  0  0  0
 13 14  1  0  0  0  0
 13 31  1  0  0  0  0
 14 32  1  0  0  0  0
 15 16  1  0  0  0  0
 16 17  1  0  0  0  0
 17 18  1  0  0  0  0
 17 22  2  0  0  0  0
 18 19  2  0  0  0  0
 18 33  1  0  0  0  0
 19 20  1  0  0  0  0
 19 34  1  0  0  0  0
 20 21  2  0  0  0  0
 20 35  1  0  0  0  0
 21 22  1  0  0  0  0
 21 36  1  0  0  0  0
 22 23  1  0  0  0  0
 23 37  1  0  0  0  0
M  END
$$$$
