CHEMBL3933359
 OpenBabel04072215373D

 55 59  0  0  1  0  0  0  0  0999 V2000
   -3.7701   -1.8362    4.1355 C   0  0  0  0  0  0  0  0  0  0  0  0
   -2.5613   -1.4872    3.4480 O   0  0  0  0  0  0  0  0  0  0  0  0
   -1.4025   -2.0205    3.9564 C   0  0  0  0  0  0  0  0  0  0  0  0
   -1.3874   -2.9131    5.0280 C   0  0  0  0  0  0  0  0  0  0  0  0
   -0.1833   -3.4360    5.5288 C   0  0  0  0  0  0  0  0  0  0  0  0
   -0.1147   -4.3699    6.5715 C   0  0  0  0  0  0  0  0  0  0  0  0
   -1.3222   -4.9026    7.1162 N   0  0  0  0  0  0  0  0  0  0  0  0
   -1.3666   -5.5596    8.3687 C   0  0  0  0  0  0  0  0  0  0  0  0
   -0.7657   -4.9589    9.4832 C   0  0  0  0  0  0  0  0  0  0  0  0
   -0.6118   -5.6557   10.6770 C   0  0  0  0  0  0  0  0  0  0  0  0
   -1.0802   -6.9653   10.7773 C   0  0  0  0  0  0  0  0  0  0  0  0
   -0.6805   -7.9075   12.3763 Br  0  0  0  0  0  0  0  0  0  0  0  0
   -1.7720   -7.5401    9.7049 C   0  0  0  0  0  0  0  0  0  0  0  0
   -2.4133   -9.1457    9.7707 Cl  0  0  0  0  0  0  0  0  0  0  0  0
   -1.9296   -6.8305    8.5071 C   0  0  0  0  0  0  0  0  0  0  0  0
    1.0612   -4.7894    7.0638 N   0  0  0  0  0  0  0  0  0  0  0  0
    2.1645   -4.2970    6.4922 C   0  0  0  0  0  0  0  0  0  0  0  0
    2.2069   -3.4299    5.4724 N   0  0  0  0  0  0  0  0  0  0  0  0
    1.0345   -3.0057    4.9967 C   0  0  0  0  0  0  0  0  0  0  0  0
    1.0147   -2.1119    3.9267 C   0  0  0  0  0  0  0  0  0  0  0  0
   -0.1818   -1.6303    3.3737 C   0  0  0  0  0  0  0  0  0  0  0  0
   -0.2412   -0.8537    2.2402 O   0  0  0  0  0  0  0  0  0  0  0  0
    0.8554    0.0355    1.9520 C   0  0  1  0  0  0  0  0  0  0  0  0
    1.9289   -0.6260    1.0900 C   0  0  0  0  0  0  0  0  0  0  0  0
    1.4979   -0.5157   -0.2746 O   0  0  0  0  0  0  0  0  0  0  0  0
    0.7865    0.7196   -0.3943 C   0  0  2  0  0  0  0  0  0  0  0  0
    1.7078    1.8519   -0.8545 C   0  0  1  0  0  0  0  0  0  0  0  0
    1.5614    2.1818   -2.2466 O   0  0  0  0  0  0  0  0  0  0  0  0
    2.2857    1.4198   -3.1019 C   0  0  0  0  0  0  0  0  0  0  0  0
    2.1327    1.8862   -4.5223 C   0  0  0  0  0  0  0  0  0  0  0  0
    3.0271    0.4919   -2.7842 O   0  0  0  0  0  0  0  0  0  0  0  0
    1.2348    2.9993    0.0174 C   0  0  0  0  0  0  0  0  0  0  0  0
    0.9397    2.4084    1.2892 O   0  0  0  0  0  0  0  0  0  0  0  0
    0.3396    1.1261    1.0122 C   0  0  2  0  0  0  0  0  0  0  0  0
   -4.5909   -1.2635    3.6997 H   0  0  0  0  0  0  0  0  0  0  0  0
   -3.7147   -1.5632    5.1984 H   0  0  0  0  0  0  0  0  0  0  0  0
   -3.9900   -2.8962    4.0142 H   0  0  0  0  0  0  0  0  0  0  0  0
   -2.3069   -3.2197    5.5128 H   0  0  0  0  0  0  0  0  0  0  0  0
   -1.8151   -5.4089    6.3869 H   0  0  0  0  0  0  0  0  0  0  0  0
   -0.3634   -3.9501    9.3990 H   0  0  0  0  0  0  0  0  0  0  0  0
   -0.0861   -5.1789   11.4990 H   0  0  0  0  0  0  0  0  0  0  0  0
   -2.4416   -7.2998    7.6719 H   0  0  0  0  0  0  0  0  0  0  0  0
    3.1144   -4.6369    6.8937 H   0  0  0  0  0  0  0  0  0  0  0  0
    1.9779   -1.8240    3.5207 H   0  0  0  0  0  0  0  0  0  0  0  0
    1.2623    0.4532    2.8808 H   0  0  0  0  0  0  0  0  0  0  0  0
    2.0981   -1.6824    1.3030 H   0  0  0  0  0  0  0  0  0  0  0  0
    2.8806   -0.0889    1.1815 H   0  0  0  0  0  0  0  0  0  0  0  0
   -0.0567    0.5651   -1.0767 H   0  0  0  0  0  0  0  0  0  0  0  0
    2.7592    1.6366   -0.6216 H   0  0  0  0  0  0  0  0  0  0  0  0
    1.2524    2.5192   -4.6316 H   0  0  0  0  0  0  0  0  0  0  0  0
    2.0195    1.0222   -5.1782 H   0  0  0  0  0  0  0  0  0  0  0  0
    3.0262    2.4568   -4.8066 H   0  0  0  0  0  0  0  0  0  0  0  0
    0.3320    3.4779   -0.3808 H   0  0  0  0  0  0  0  0  0  0  0  0
    1.9994    3.7724    0.1386 H   0  0  0  0  0  0  0  0  0  0  0  0
   -0.7476    1.2493    1.0634 H   0  0  0  0  0  0  0  0  0  0  0  0
  1  2  1  0  0  0  0
  1 35  1  0  0  0  0
  1 36  1  0  0  0  0
  1 37  1  0  0  0  0
  2  3  1  0  0  0  0
  3  4  1  0  0  0  0
  3 21  2  0  0  0  0
  4  5  2  0  0  0  0
  4 38  1  0  0  0  0
  5  6  1  0  0  0  0
  5 19  1  0  0  0  0
  6  7  1  0  0  0  0
  6 16  2  0  0  0  0
  7  8  1  0  0  0  0
  7 39  1  0  0  0  0
  8  9  1  0  0  0  0
  8 15  2  0  0  0  0
  9 10  2  0  0  0  0
  9 40  1  0  0  0  0
 10 11  1  0  0  0  0
 10 41  1  0  0  0  0
 11 12  1  0  0  0  0
 11 13  2  0  0  0  0
 13 14  1  0  0  0  0
 13 15  1  0  0  0  0
 15 42  1  0  0  0  0
 16 17  1  0  0  0  0
 17 18  2  0  0  0  0
 17 43  1  0  0  0  0
 18 19  1  0  0  0  0
 19 20  2  0  0  0  0
 20 21  1  0  0  0  0
 20 44  1  0  0  0  0
 21 22  1  0  0  0  0
 23 24  1  0  0  0  0
 23 34  1  0  0  0  0
 23 22  1  0  0  0  0
 23 45  1  1  0  0  0
 24 25  1  0  0  0  0
 24 46  1  0  0  0  0
 24 47  1  0  0  0  0
 25 26  1  0  0  0  0
 26 27  1  0  0  0  0
 26 34  1  0  0  0  0
 26 48  1  6  0  0  0
 27 28  1  0  0  0  0
 27 32  1  0  0  0  0
 27 49  1  1  0  0  0
 28 29  1  0  0  0  0
 29 30  1  0  0  0  0
 29 31  2  0  0  0  0
 30 50  1  0  0  0  0
 30 51  1  0  0  0  0
 30 52  1  0  0  0  0
 32 33  1  0  0  0  0
 32 53  1  0  0  0  0
 32 54  1  0  0  0  0
 33 34  1  0  0  0  0
 34 55  1  1  0  0  0
M  END
$$$$
