CHEMBL598431
 OpenBabel04072215383D

 37 40  0  0  0  0  0  0  0  0999 V2000
    1.1991   -0.4819    0.4500 O   0  0  0  0  0  0  0  0  0  0  0  0
    2.3340   -0.1562    0.1046 C   0  0  0  0  0  0  0  0  0  0  0  0
    3.0432   -0.8406   -1.0438 C   0  0  0  0  0  0  0  0  0  0  0  0
    4.2864   -1.5025   -0.5659 C   0  0  0  0  0  0  0  0  0  0  0  0
    4.4309   -2.8695   -0.5055 C   0  0  0  0  0  0  0  0  0  0  0  0
    5.5192   -3.4795   -0.0093 N   0  0  0  0  0  0  0  0  0  0  0  0
    6.5171   -2.6964    0.4182 C   0  0  0  0  0  0  0  0  0  0  0  0
    7.6439   -3.3507    0.9105 N   0  0  0  0  0  0  0  0  0  0  0  0
    8.9727   -2.9137    1.0016 C   0  0  0  0  0  0  0  0  0  0  0  0
    9.3940   -1.6752    0.4897 C   0  0  0  0  0  0  0  0  0  0  0  0
   10.7055   -1.2248    0.6407 C   0  0  0  0  0  0  0  0  0  0  0  0
   11.6242   -2.0105    1.3228 C   0  0  0  0  0  0  0  0  0  0  0  0
   12.9078   -1.5658    1.4735 O   0  0  0  0  0  0  0  0  0  0  0  0
   11.2286   -3.2402    1.8534 C   0  0  0  0  0  0  0  0  0  0  0  0
   12.3428   -4.2412    2.7137 Cl  0  0  0  0  0  0  0  0  0  0  0  0
    9.9098   -3.6848    1.6981 C   0  0  0  0  0  0  0  0  0  0  0  0
    6.4534   -1.3577    0.3988 N   0  0  0  0  0  0  0  0  0  0  0  0
    5.3473   -0.7601   -0.0908 C   0  0  0  0  0  0  0  0  0  0  0  0
    5.3191    0.7208   -0.0650 C   0  0  0  0  0  0  0  0  0  0  0  0
    6.4572    1.3389   -0.4942 N   0  0  0  0  0  0  0  0  0  0  0  0
    6.4973    2.6888   -0.4623 C   0  0  0  0  0  0  0  0  0  0  0  0
    5.4693    3.4772    0.0201 C   0  0  0  0  0  0  0  0  0  0  0  0
    4.3185    2.8473    0.4777 C   0  0  0  0  0  0  0  0  0  0  0  0
    4.2058    1.4576    0.3834 C   0  0  0  0  0  0  0  0  0  0  0  0
    2.9493    0.9102    0.7105 N   0  0  0  0  0  0  0  0  0  0  0  0
    3.2663   -0.1062   -1.8289 H   0  0  0  0  0  0  0  0  0  0  0  0
    2.3596   -1.5672   -1.4955 H   0  0  0  0  0  0  0  0  0  0  0  0
    3.6495   -3.5391   -0.8550 H   0  0  0  0  0  0  0  0  0  0  0  0
    7.4927   -4.3489    0.9001 H   0  0  0  0  0  0  0  0  0  0  0  0
    8.7073   -1.0330   -0.0576 H   0  0  0  0  0  0  0  0  0  0  0  0
   10.9726   -0.2620    0.2178 H   0  0  0  0  0  0  0  0  0  0  0  0
   12.9843   -0.6859    1.0690 H   0  0  0  0  0  0  0  0  0  0  0  0
    9.6144   -4.6342    2.1379 H   0  0  0  0  0  0  0  0  0  0  0  0
    7.4073    3.1358   -0.8534 H   0  0  0  0  0  0  0  0  0  0  0  0
    5.5493    4.5590    0.0158 H   0  0  0  0  0  0  0  0  0  0  0  0
    3.4896    3.4529    0.8350 H   0  0  0  0  0  0  0  0  0  0  0  0
    2.3281    1.4415    1.3108 H   0  0  0  0  0  0  0  0  0  0  0  0
  1  2  2  0  0  0  0
  2  3  1  0  0  0  0
  2 25  1  0  0  0  0
  3  4  1  0  0  0  0
  3 26  1  0  0  0  0
  3 27  1  0  0  0  0
  4  5  1  0  0  0  0
  4 18  2  0  0  0  0
  5  6  2  0  0  0  0
  5 28  1  0  0  0  0
  6  7  1  0  0  0  0
  7  8  1  0  0  0  0
  7 17  2  0  0  0  0
  8  9  1  0  0  0  0
  8 29  1  0  0  0  0
  9 10  1  0  0  0  0
  9 16  2  0  0  0  0
 10 11  2  0  0  0  0
 10 30  1  0  0  0  0
 11 12  1  0  0  0  0
 11 31  1  0  0  0  0
 12 13  1  0  0  0  0
 12 14  2  0  0  0  0
 13 32  1  0  0  0  0
 14 15  1  0  0  0  0
 14 16  1  0  0  0  0
 16 33  1  0  0  0  0
 17 18  1  0  0  0  0
 18 19  1  0  0  0  0
 19 20  1  0  0  0  0
 19 24  2  0  0  0  0
 20 21  2  0  0  0  0
 21 22  1  0  0  0  0
 21 34  1  0  0  0  0
 22 23  2  0  0  0  0
 22 35  1  0  0  0  0
 23 24  1  0  0  0  0
 23 36  1  0  0  0  0
 24 25  1  0  0  0  0
 25 37  1  0  0  0  0
M  END
$$$$
