CHEMBL3642841
 OpenBabel04072215373D

 59 62  0  0  0  0  0  0  0  0999 V2000
    2.9348    2.0192    2.4463 C   0  0  0  0  0  0  0  0  0  0  0  0
    3.4969    1.3765    1.4127 C   0  0  0  0  0  0  0  0  0  0  0  0
    4.1819    2.1813    0.3676 C   0  0  0  0  0  0  0  0  0  0  0  0
    4.2427    3.4013    0.4725 O   0  0  0  0  0  0  0  0  0  0  0  0
    4.6572    1.4238   -0.6799 N   0  0  0  0  0  0  0  0  0  0  0  0
    5.3393    1.9567   -1.8010 C   0  0  0  0  0  0  0  0  0  0  0  0
    5.8930    3.2447   -1.8098 C   0  0  0  0  0  0  0  0  0  0  0  0
    6.4623    3.7853   -2.9643 C   0  0  0  0  0  0  0  0  0  0  0  0
    6.4889    3.0247   -4.1299 C   0  0  0  0  0  0  0  0  0  0  0  0
    7.0432    3.5331   -5.4094 C   0  0  0  0  0  0  0  0  0  0  0  0
    7.5435    2.6959   -6.1557 O   0  0  0  0  0  0  0  0  0  0  0  0
    6.9401    4.8984   -5.6481 N   0  0  0  0  0  0  0  0  0  0  0  0
    7.3550    5.5334   -6.8479 C   0  0  0  0  0  0  0  0  0  0  0  0
    7.6300    4.8221   -8.0088 C   0  0  0  0  0  0  0  0  0  0  0  0
    8.1883    5.4547   -9.1108 C   0  0  0  0  0  0  0  0  0  0  0  0
    8.4526    6.8306   -9.0980 C   0  0  0  0  0  0  0  0  0  0  0  0
    9.2049    7.3956  -10.2671 C   0  0  0  0  0  0  0  0  0  0  0  0
    8.0082    7.6049   -8.0054 C   0  0  0  0  0  0  0  0  0  0  0  0
    8.0580    9.0192   -8.0305 N   0  0  0  0  0  0  0  0  0  0  0  0
    7.0985    9.9098   -7.5181 C   0  0  0  0  0  0  0  0  0  0  0  0
    7.2682   11.2205   -7.7513 N   0  0  0  0  0  0  0  0  0  0  0  0
    6.2972   12.0597   -7.3222 C   0  0  0  0  0  0  0  0  0  0  0  0
    6.4732   13.5315   -7.5625 C   0  0  0  0  0  0  0  0  0  0  0  0
    5.1371   11.6131   -6.7206 C   0  0  0  0  0  0  0  0  0  0  0  0
    5.0223   10.2539   -6.5374 C   0  0  0  0  0  0  0  0  0  0  0  0
    3.8155    9.5841   -6.0272 C   0  0  0  0  0  0  0  0  0  0  0  0
    3.5366    8.2452   -6.3492 C   0  0  0  0  0  0  0  0  0  0  0  0
    2.3626    7.6323   -5.9186 C   0  0  0  0  0  0  0  0  0  0  0  0
    1.4823    8.3772   -5.1581 C   0  0  0  0  0  0  0  0  0  0  0  0
    1.7061    9.6570   -4.7959 N   0  0  0  0  0  0  0  0  0  0  0  0
    2.8613   10.2198   -5.2323 C   0  0  0  0  0  0  0  0  0  0  0  0
    6.0132    9.4217   -6.9051 N   0  0  0  0  0  0  0  0  0  0  0  0
    7.5061    6.9255   -6.8723 C   0  0  0  0  0  0  0  0  0  0  0  0
    6.0167    1.7047   -4.1093 C   0  0  0  0  0  0  0  0  0  0  0  0
    5.4483    1.1701   -2.9494 C   0  0  0  0  0  0  0  0  0  0  0  0
    2.4313    1.4878    3.2434 H   0  0  0  0  0  0  0  0  0  0  0  0
    2.9695    3.1057    2.5189 H   0  0  0  0  0  0  0  0  0  0  0  0
    3.4708    0.2986    1.3352 H   0  0  0  0  0  0  0  0  0  0  0  0
    4.3986    0.4457   -0.7286 H   0  0  0  0  0  0  0  0  0  0  0  0
    5.9104    3.8587   -0.9139 H   0  0  0  0  0  0  0  0  0  0  0  0
    6.8904    4.7811   -2.9133 H   0  0  0  0  0  0  0  0  0  0  0  0
    6.6113    5.5126   -4.9104 H   0  0  0  0  0  0  0  0  0  0  0  0
    7.4314    3.7577   -8.0860 H   0  0  0  0  0  0  0  0  0  0  0  0
    8.4376    4.8459   -9.9771 H   0  0  0  0  0  0  0  0  0  0  0  0
    9.6826    6.5910  -10.8413 H   0  0  0  0  0  0  0  0  0  0  0  0
   10.0162    8.0432   -9.9206 H   0  0  0  0  0  0  0  0  0  0  0  0
    8.5401    7.9441  -10.9372 H   0  0  0  0  0  0  0  0  0  0  0  0
    8.4736    9.4496   -8.8442 H   0  0  0  0  0  0  0  0  0  0  0  0
    7.4663   13.7536   -7.9625 H   0  0  0  0  0  0  0  0  0  0  0  0
    6.3526   14.0858   -6.6246 H   0  0  0  0  0  0  0  0  0  0  0  0
    5.7234   13.8849   -8.2783 H   0  0  0  0  0  0  0  0  0  0  0  0
    4.3508   12.3067   -6.4534 H   0  0  0  0  0  0  0  0  0  0  0  0
    4.2329    7.6733   -6.9622 H   0  0  0  0  0  0  0  0  0  0  0  0
    2.1430    6.6044   -6.1833 H   0  0  0  0  0  0  0  0  0  0  0  0
    0.5456    7.9521   -4.8104 H   0  0  0  0  0  0  0  0  0  0  0  0
    2.9912   11.2457   -4.8957 H   0  0  0  0  0  0  0  0  0  0  0  0
    7.2616    7.4981   -5.9800 H   0  0  0  0  0  0  0  0  0  0  0  0
    6.0703    1.0951   -5.0087 H   0  0  0  0  0  0  0  0  0  0  0  0
    5.0695    0.1522   -2.9779 H   0  0  0  0  0  0  0  0  0  0  0  0
  1  2  2  0  0  0  0
  1 36  1  0  0  0  0
  1 37  1  0  0  0  0
  2  3  1  0  0  0  0
  2 38  1  0  0  0  0
  3  4  2  0  0  0  0
  3  5  1  0  0  0  0
  5  6  1  0  0  0  0
  5 39  1  0  0  0  0
  6  7  1  0  0  0  0
  6 35  2  0  0  0  0
  7  8  2  0  0  0  0
  7 40  1  0  0  0  0
  8  9  1  0  0  0  0
  8 41  1  0  0  0  0
  9 10  1  0  0  0  0
  9 34  2  0  0  0  0
 10 11  2  0  0  0  0
 10 12  1  0  0  0  0
 12 13  1  0  0  0  0
 12 42  1  0  0  0  0
 13 14  1  0  0  0  0
 13 33  2  0  0  0  0
 14 15  2  0  0  0  0
 14 43  1  0  0  0  0
 15 16  1  0  0  0  0
 15 44  1  0  0  0  0
 16 17  1  0  0  0  0
 16 18  2  0  0  0  0
 17 45  1  0  0  0  0
 17 46  1  0  0  0  0
 17 47  1  0  0  0  0
 18 19  1  0  0  0  0
 18 33  1  0  0  0  0
 19 20  1  0  0  0  0
 19 48  1  0  0  0  0
 20 21  1  0  0  0  0
 20 32  2  0  0  0  0
 21 22  2  0  0  0  0
 22 23  1  0  0  0  0
 22 24  1  0  0  0  0
 23 49  1  0  0  0  0
 23 50  1  0  0  0  0
 23 51  1  0  0  0  0
 24 25  2  0  0  0  0
 24 52  1  0  0  0  0
 25 26  1  0  0  0  0
 25 32  1  0  0  0  0
 26 27  1  0  0  0  0
 26 31  2  0  0  0  0
 27 28  2  0  0  0  0
 27 53  1  0  0  0  0
 28 29  1  0  0  0  0
 28 54  1  0  0  0  0
 29 30  2  0  0  0  0
 29 55  1  0  0  0  0
 30 31  1  0  0  0  0
 31 56  1  0  0  0  0
 33 57  1  0  0  0  0
 34 35  1  0  0  0  0
 34 58  1  0  0  0  0
 35 59  1  0  0  0  0
M  END
$$$$
