CHEMBL1242575
 OpenBabel04072215363D

 61 65  0  0  0  0  0  0  0  0999 V2000
   10.9303   -2.7792   -0.4430 C   0  0  0  0  0  0  0  0  0  0  0  0
    9.8652   -3.7120   -0.2616 O   0  0  0  0  0  0  0  0  0  0  0  0
    8.9533   -3.8132   -1.2792 C   0  0  0  0  0  0  0  0  0  0  0  0
    9.2841   -3.5161   -2.6076 C   0  0  0  0  0  0  0  0  0  0  0  0
    8.3647   -3.5578   -3.6419 C   0  0  0  0  0  0  0  0  0  0  0  0
    8.8111   -3.2214   -4.8572 N   0  0  0  0  0  0  0  0  0  0  0  0
    7.9538   -3.2704   -5.8914 C   0  0  0  0  0  0  0  0  0  0  0  0
    6.6374   -3.6488   -5.7684 C   0  0  0  0  0  0  0  0  0  0  0  0
    6.1519   -3.9309   -4.4944 C   0  0  0  0  0  0  0  0  0  0  0  0
    4.8160   -4.2315   -4.2866 O   0  0  0  0  0  0  0  0  0  0  0  0
    3.8646   -3.5801   -5.0513 C   0  0  0  0  0  0  0  0  0  0  0  0
    2.7404   -4.3109   -5.4225 C   0  0  0  0  0  0  0  0  0  0  0  0
    1.7106   -3.7045   -6.1591 C   0  0  0  0  0  0  0  0  0  0  0  0
    1.7704   -2.3524   -6.5334 C   0  0  0  0  0  0  0  0  0  0  0  0
    2.9386   -1.6439   -6.2004 C   0  0  0  0  0  0  0  0  0  0  0  0
    3.9519   -2.2392   -5.4349 C   0  0  0  0  0  0  0  0  0  0  0  0
    3.1968   -0.3484   -6.5774 O   0  0  0  0  0  0  0  0  0  0  0  0
    2.0306    0.3738   -6.9642 C   0  0  0  0  0  0  0  0  0  0  0  0
    1.1259   -0.4335   -7.8808 C   0  0  0  0  0  0  0  0  0  0  0  0
    0.6940   -1.6753   -7.2242 N   0  0  0  0  0  0  0  0  0  0  0  0
   -0.6343   -2.1160   -7.1041 C   0  0  0  0  0  0  0  0  0  0  0  0
   -0.9472   -3.0817   -6.4113 O   0  0  0  0  0  0  0  0  0  0  0  0
   -1.5849   -1.3671   -7.7847 N   0  0  0  0  0  0  0  0  0  0  0  0
   -2.9907   -1.5692   -7.7379 C   0  0  0  0  0  0  0  0  0  0  0  0
   -3.6289   -2.3966   -6.8108 C   0  0  0  0  0  0  0  0  0  0  0  0
   -5.0004   -2.6567   -6.8981 C   0  0  0  0  0  0  0  0  0  0  0  0
   -5.7716   -2.0675   -7.9001 C   0  0  0  0  0  0  0  0  0  0  0  0
   -7.2183   -2.4269   -8.0581 C   0  0  0  0  0  0  0  0  0  0  0  0
   -5.1547   -1.1722   -8.7805 C   0  0  0  0  0  0  0  0  0  0  0  0
   -3.7783   -0.9195   -8.6959 C   0  0  0  0  0  0  0  0  0  0  0  0
    7.0359   -3.9406   -3.3793 C   0  0  0  0  0  0  0  0  0  0  0  0
    6.7020   -4.2911   -2.0423 C   0  0  0  0  0  0  0  0  0  0  0  0
    7.6494   -4.2370   -0.9919 C   0  0  0  0  0  0  0  0  0  0  0  0
    7.1527   -4.5529    0.3850 C   0  0  0  0  0  0  0  0  0  0  0  0
    8.0795   -5.0406    1.4717 C   0  0  0  0  0  0  0  0  0  0  0  0
    5.9512   -4.4111    0.6222 O   0  0  0  0  0  0  0  0  0  0  0  0
   11.5293   -2.7716    0.4725 H   0  0  0  0  0  0  0  0  0  0  0  0
   10.5360   -1.7697   -0.5998 H   0  0  0  0  0  0  0  0  0  0  0  0
   11.6011   -3.0720   -1.2569 H   0  0  0  0  0  0  0  0  0  0  0  0
   10.2943   -3.2264   -2.8831 H   0  0  0  0  0  0  0  0  0  0  0  0
    8.3643   -2.9735   -6.8513 H   0  0  0  0  0  0  0  0  0  0  0  0
    6.0058   -3.6811   -6.6463 H   0  0  0  0  0  0  0  0  0  0  0  0
    2.6503   -5.3580   -5.1435 H   0  0  0  0  0  0  0  0  0  0  0  0
    0.8728   -4.3349   -6.4457 H   0  0  0  0  0  0  0  0  0  0  0  0
    4.8053   -1.6319   -5.1436 H   0  0  0  0  0  0  0  0  0  0  0  0
    2.3692    1.2730   -7.4907 H   0  0  0  0  0  0  0  0  0  0  0  0
    1.4986    0.6989   -6.0622 H   0  0  0  0  0  0  0  0  0  0  0  0
    1.6635   -0.7302   -8.7916 H   0  0  0  0  0  0  0  0  0  0  0  0
    0.2876    0.1978   -8.1758 H   0  0  0  0  0  0  0  0  0  0  0  0
   -1.2672   -0.8003   -8.5519 H   0  0  0  0  0  0  0  0  0  0  0  0
   -3.0868   -2.8774   -6.0021 H   0  0  0  0  0  0  0  0  0  0  0  0
   -5.4462   -3.3444   -6.1833 H   0  0  0  0  0  0  0  0  0  0  0  0
   -7.5719   -3.0496   -7.2283 H   0  0  0  0  0  0  0  0  0  0  0  0
   -7.3595   -2.9896   -8.9877 H   0  0  0  0  0  0  0  0  0  0  0  0
   -7.8375   -1.5277   -8.0839 H   0  0  0  0  0  0  0  0  0  0  0  0
   -5.7394   -0.6843   -9.5573 H   0  0  0  0  0  0  0  0  0  0  0  0
   -3.3342   -0.2316   -9.4106 H   0  0  0  0  0  0  0  0  0  0  0  0
    5.6830   -4.6150   -1.8169 H   0  0  0  0  0  0  0  0  0  0  0  0
    9.0249   -5.4303    1.0933 H   0  0  0  0  0  0  0  0  0  0  0  0
    7.5921   -5.8711    1.9936 H   0  0  0  0  0  0  0  0  0  0  0  0
    8.2637   -4.2313    2.1843 H   0  0  0  0  0  0  0  0  0  0  0  0
  1  2  1  0  0  0  0
  1 37  1  0  0  0  0
  1 38  1  0  0  0  0
  1 39  1  0  0  0  0
  2  3  1  0  0  0  0
  3  4  1  0  0  0  0
  3 33  2  0  0  0  0
  4  5  2  0  0  0  0
  4 40  1  0  0  0  0
  5  6  1  0  0  0  0
  5 31  1  0  0  0  0
  6  7  2  0  0  0  0
  7  8  1  0  0  0  0
  7 41  1  0  0  0  0
  8  9  2  0  0  0  0
  8 42  1  0  0  0  0
  9 10  1  0  0  0  0
  9 31  1  0  0  0  0
 10 11  1  0  0  0  0
 11 12  1  0  0  0  0
 11 16  2  0  0  0  0
 12 13  2  0  0  0  0
 12 43  1  0  0  0  0
 13 14  1  0  0  0  0
 13 44  1  0  0  0  0
 14 15  2  0  0  0  0
 14 20  1  0  0  0  0
 15 16  1  0  0  0  0
 15 17  1  0  0  0  0
 16 45  1  0  0  0  0
 17 18  1  0  0  0  0
 18 19  1  0  0  0  0
 18 46  1  0  0  0  0
 18 47  1  0  0  0  0
 19 20  1  0  0  0  0
 19 48  1  0  0  0  0
 19 49  1  0  0  0  0
 20 21  1  0  0  0  0
 21 22  2  0  0  0  0
 21 23  1  0  0  0  0
 23 24  1  0  0  0  0
 23 50  1  0  0  0  0
 24 25  1  0  0  0  0
 24 30  2  0  0  0  0
 25 26  2  0  0  0  0
 25 51  1  0  0  0  0
 26 27  1  0  0  0  0
 26 52  1  0  0  0  0
 27 28  1  0  0  0  0
 27 29  2  0  0  0  0
 28 53  1  0  0  0  0
 28 54  1  0  0  0  0
 28 55  1  0  0  0  0
 29 30  1  0  0  0  0
 29 56  1  0  0  0  0
 30 57  1  0  0  0  0
 31 32  2  0  0  0  0
 32 33  1  0  0  0  0
 32 58  1  0  0  0  0
 33 34  1  0  0  0  0
 34 35  1  0  0  0  0
 34 36  2  0  0  0  0
 35 59  1  0  0  0  0
 35 60  1  0  0  0  0
 35 61  1  0  0  0  0
M  END
$$$$
