CHEMBL204621
 OpenBabel04072215363D

 43 46  0  0  0  0  0  0  0  0999 V2000
   -4.2712   -5.2162   -6.4493 Cl  0  0  0  0  0  0  0  0  0  0  0  0
   -4.5974   -4.5793   -4.8784 C   0  0  0  0  0  0  0  0  0  0  0  0
   -4.9306   -3.2292   -4.7776 C   0  0  0  0  0  0  0  0  0  0  0  0
   -5.1915   -2.6528   -3.5260 C   0  0  0  0  0  0  0  0  0  0  0  0
   -5.1031   -3.4049   -2.3497 C   0  0  0  0  0  0  0  0  0  0  0  0
   -5.3578   -2.8980   -1.0605 N   0  0  0  0  0  0  0  0  0  0  0  0
   -5.7486   -1.6676   -0.6729 C   0  0  0  0  0  0  0  0  0  0  0  0
   -5.5565   -1.0945    0.4950 N   0  0  0  0  0  0  0  0  0  0  0  0
   -6.1629    0.1436    0.4391 N   0  0  0  0  0  0  0  0  0  0  0  0
   -6.7270    0.2344   -0.7478 C   0  0  0  0  0  0  0  0  0  0  0  0
   -7.5246    1.2956   -1.3577 C   0  0  0  0  0  0  0  0  0  0  0  0
   -8.0755    1.0859   -2.6405 C   0  0  0  0  0  0  0  0  0  0  0  0
   -8.8305    2.0677   -3.2745 C   0  0  0  0  0  0  0  0  0  0  0  0
   -9.0193    3.2566   -2.6111 C   0  0  0  0  0  0  0  0  0  0  0  0
   -8.5183    3.5041   -1.3856 N   0  0  0  0  0  0  0  0  0  0  0  0
   -7.7959    2.5341   -0.7469 C   0  0  0  0  0  0  0  0  0  0  0  0
   -7.2745    2.9473    0.6243 C   0  0  0  0  0  0  0  0  0  0  0  0
   -8.1955    3.9764    1.3137 C   0  0  0  0  0  0  0  0  0  0  0  0
   -7.7760    4.5253    2.6611 C   0  0  0  0  0  0  0  0  0  0  0  0
   -8.2031    5.8155    3.0116 C   0  0  0  0  0  0  0  0  0  0  0  0
   -7.8951    6.3160    4.2680 C   0  0  0  0  0  0  0  0  0  0  0  0
   -7.2062    5.6259    5.1973 N   0  0  0  0  0  0  0  0  0  0  0  0
   -6.8146    4.3808    4.8516 C   0  0  0  0  0  0  0  0  0  0  0  0
   -7.0739    3.7925    3.6173 C   0  0  0  0  0  0  0  0  0  0  0  0
   -6.4994   -0.8889   -1.5073 O   0  0  0  0  0  0  0  0  0  0  0  0
   -4.7987   -4.7736   -2.4746 C   0  0  0  0  0  0  0  0  0  0  0  0
   -4.5385   -5.3571   -3.7226 C   0  0  0  0  0  0  0  0  0  0  0  0
   -4.1456   -7.0401   -3.7572 Cl  0  0  0  0  0  0  0  0  0  0  0  0
   -4.9836   -2.6090   -5.6694 H   0  0  0  0  0  0  0  0  0  0  0  0
   -5.4311   -1.5939   -3.5027 H   0  0  0  0  0  0  0  0  0  0  0  0
   -4.8996   -3.4291   -0.3266 H   0  0  0  0  0  0  0  0  0  0  0  0
   -7.9224    0.1448   -3.1660 H   0  0  0  0  0  0  0  0  0  0  0  0
   -9.2539    1.9058   -4.2592 H   0  0  0  0  0  0  0  0  0  0  0  0
   -9.5928    4.0668   -3.0520 H   0  0  0  0  0  0  0  0  0  0  0  0
   -6.2680    3.3653    0.4983 H   0  0  0  0  0  0  0  0  0  0  0  0
   -7.2033    2.0780    1.2802 H   0  0  0  0  0  0  0  0  0  0  0  0
   -9.1918    3.5317    1.4392 H   0  0  0  0  0  0  0  0  0  0  0  0
   -8.3159    4.8376    0.6437 H   0  0  0  0  0  0  0  0  0  0  0  0
   -8.7772    6.4239    2.3206 H   0  0  0  0  0  0  0  0  0  0  0  0
   -8.2153    7.3096    4.5657 H   0  0  0  0  0  0  0  0  0  0  0  0
   -6.2768    3.8401    5.6250 H   0  0  0  0  0  0  0  0  0  0  0  0
   -6.7387    2.7776    3.4363 H   0  0  0  0  0  0  0  0  0  0  0  0
   -4.7576   -5.4007   -1.5857 H   0  0  0  0  0  0  0  0  0  0  0  0
  1  2  1  0  0  0  0
  2  3  1  0  0  0  0
  2 27  2  0  0  0  0
  3  4  2  0  0  0  0
  3 29  1  0  0  0  0
  4  5  1  0  0  0  0
  4 30  1  0  0  0  0
  5  6  1  0  0  0  0
  5 26  2  0  0  0  0
  6  7  1  0  0  0  0
  6 31  1  0  0  0  0
  7  8  2  0  0  0  0
  7 25  1  0  0  0  0
  8  9  1  0  0  0  0
  9 10  2  0  0  0  0
 10 11  1  0  0  0  0
 10 25  1  0  0  0  0
 11 12  1  0  0  0  0
 11 16  2  0  0  0  0
 12 13  2  0  0  0  0
 12 32  1  0  0  0  0
 13 14  1  0  0  0  0
 13 33  1  0  0  0  0
 14 15  2  0  0  0  0
 14 34  1  0  0  0  0
 15 16  1  0  0  0  0
 16 17  1  0  0  0  0
 17 18  1  0  0  0  0
 17 35  1  0  0  0  0
 17 36  1  0  0  0  0
 18 19  1  0  0  0  0
 18 37  1  0  0  0  0
 18 38  1  0  0  0  0
 19 20  1  0  0  0  0
 19 24  2  0  0  0  0
 20 21  2  0  0  0  0
 20 39  1  0  0  0  0
 21 22  1  0  0  0  0
 21 40  1  0  0  0  0
 22 23  2  0  0  0  0
 23 24  1  0  0  0  0
 23 41  1  0  0  0  0
 24 42  1  0  0  0  0
 26 27  1  0  0  0  0
 26 43  1  0  0  0  0
 27 28  1  0  0  0  0
M  END
$$$$
