CHEMBL1981133
 OpenBabel04072215363D

 52 56  0  0  1  0  0  0  0  0999 V2000
    0.8826   -0.0152   -0.0828 N   0  0  0  0  0  0  0  0  0  0  0  0
    2.3568   -0.0884   -0.0430 C   0  0  3  0  0  0  0  0  0  0  0  0
    2.9461    0.1305   -1.4546 C   0  0  0  0  0  0  0  0  0  0  0  0
    2.4778   -0.8474   -2.3957 O   0  0  0  0  0  0  0  0  0  0  0  0
    2.9875   -0.7055   -3.6633 C   0  0  0  0  0  0  0  0  0  0  0  0
    3.8561    0.2927   -4.0878 C   0  0  0  0  0  0  0  0  0  0  0  0
    4.3496    0.3950   -5.3393 N   0  0  0  0  0  0  0  0  0  0  0  0
    3.9547   -0.5542   -6.2185 C   0  0  0  0  0  0  0  0  0  0  0  0
    3.0772   -1.6056   -5.9380 C   0  0  0  0  0  0  0  0  0  0  0  0
    2.6896   -2.5878   -6.9793 C   0  0  0  0  0  0  0  0  0  0  0  0
    2.6081   -2.2224   -8.3374 C   0  0  0  0  0  0  0  0  0  0  0  0
    2.2276   -3.1369   -9.3256 C   0  0  0  0  0  0  0  0  0  0  0  0
    1.8940   -4.4523   -8.9802 C   0  0  0  0  0  0  0  0  0  0  0  0
    1.4635   -5.3982   -9.9147 C   0  0  0  0  0  0  0  0  0  0  0  0
    1.1219   -6.6720   -9.6132 N   0  0  0  0  0  0  0  0  0  0  0  0
    1.2213   -7.0288   -8.3166 C   0  0  0  0  0  0  0  0  0  0  0  0
    1.6446   -6.1755   -7.3093 C   0  0  0  0  0  0  0  0  0  0  0  0
    1.9800   -4.8564   -7.6367 C   0  0  0  0  0  0  0  0  0  0  0  0
    2.3882   -3.9253   -6.6594 C   0  0  0  0  0  0  0  0  0  0  0  0
    2.5931   -1.6544   -4.6140 C   0  0  0  0  0  0  0  0  0  0  0  0
    2.9787    0.9756    0.8915 C   0  0  0  0  0  0  0  0  0  0  0  0
    2.6263    0.8438    2.3390 C   0  0  0  0  0  0  0  0  0  0  0  0
    1.5463    1.4339    2.9645 C   0  0  0  0  0  0  0  0  0  0  0  0
    1.5855    1.1105    4.2921 N   0  0  0  0  0  0  0  0  0  0  0  0
    2.6912    0.3444    4.5599 C   0  0  0  0  0  0  0  0  0  0  0  0
    3.1481   -0.1821    5.7765 C   0  0  0  0  0  0  0  0  0  0  0  0
    4.3245   -0.9351    5.7574 C   0  0  0  0  0  0  0  0  0  0  0  0
    5.0090   -1.1630    4.5660 C   0  0  0  0  0  0  0  0  0  0  0  0
    4.5372   -0.6326    3.3584 C   0  0  0  0  0  0  0  0  0  0  0  0
    3.3584    0.1416    3.3514 C   0  0  0  0  0  0  0  0  0  0  0  0
    0.5460   -0.7137   -0.7475 H   0  0  0  0  0  0  0  0  0  0  0  0
    0.5889    0.8872   -0.4519 H   0  0  0  0  0  0  0  0  0  0  0  0
    2.6220   -1.0931    0.3073 H   0  0  0  0  0  0  0  0  0  0  0  0
    4.0394    0.0637   -1.3840 H   0  0  0  0  0  0  0  0  0  0  0  0
    2.6569    1.1318   -1.8011 H   0  0  0  0  0  0  0  0  0  0  0  0
    4.2109    1.0793   -3.4315 H   0  0  0  0  0  0  0  0  0  0  0  0
    4.4004   -0.4335   -7.2022 H   0  0  0  0  0  0  0  0  0  0  0  0
    2.8235   -1.2040   -8.6558 H   0  0  0  0  0  0  0  0  0  0  0  0
    2.1804   -2.8082  -10.3618 H   0  0  0  0  0  0  0  0  0  0  0  0
    1.3686   -5.1462  -10.9680 H   0  0  0  0  0  0  0  0  0  0  0  0
    0.9382   -8.0542   -8.0961 H   0  0  0  0  0  0  0  0  0  0  0  0
    1.6989   -6.5359   -6.2876 H   0  0  0  0  0  0  0  0  0  0  0  0
    2.4708   -4.2621   -5.6274 H   0  0  0  0  0  0  0  0  0  0  0  0
    1.8914   -2.4278   -4.3091 H   0  0  0  0  0  0  0  0  0  0  0  0
    2.6936    1.9810    0.5487 H   0  0  0  0  0  0  0  0  0  0  0  0
    4.0734    0.9379    0.8007 H   0  0  0  0  0  0  0  0  0  0  0  0
    0.7503    2.0504    2.5687 H   0  0  0  0  0  0  0  0  0  0  0  0
    0.9060    1.4001    4.9808 H   0  0  0  0  0  0  0  0  0  0  0  0
    2.6142   -0.0084    6.7065 H   0  0  0  0  0  0  0  0  0  0  0  0
    4.7097   -1.3484    6.6867 H   0  0  0  0  0  0  0  0  0  0  0  0
    5.9204   -1.7556    4.5729 H   0  0  0  0  0  0  0  0  0  0  0  0
    5.0819   -0.8183    2.4378 H   0  0  0  0  0  0  0  0  0  0  0  0
  1  2  1  0  0  0  0
  1 31  1  0  0  0  0
  1 32  1  0  0  0  0
  2  3  1  0  0  0  0
  2 21  1  0  0  0  0
  2 33  1  0  0  0  0
  3  4  1  0  0  0  0
  3 34  1  0  0  0  0
  3 35  1  0  0  0  0
  4  5  1  0  0  0  0
  5  6  1  0  0  0  0
  5 20  2  0  0  0  0
  6  7  2  0  0  0  0
  6 36  1  0  0  0  0
  7  8  1  0  0  0  0
  8  9  2  0  0  0  0
  8 37  1  0  0  0  0
  9 10  1  0  0  0  0
  9 20  1  0  0  0  0
 10 11  1  0  0  0  0
 10 19  2  0  0  0  0
 11 12  2  0  0  0  0
 11 38  1  0  0  0  0
 12 13  1  0  0  0  0
 12 39  1  0  0  0  0
 13 14  1  0  0  0  0
 13 18  2  0  0  0  0
 14 15  2  0  0  0  0
 14 40  1  0  0  0  0
 15 16  1  0  0  0  0
 16 17  2  0  0  0  0
 16 41  1  0  0  0  0
 17 18  1  0  0  0  0
 17 42  1  0  0  0  0
 18 19  1  0  0  0  0
 19 43  1  0  0  0  0
 20 44  1  0  0  0  0
 21 22  1  0  0  0  0
 21 45  1  0  0  0  0
 21 46  1  0  0  0  0
 22 23  2  0  0  0  0
 22 30  1  0  0  0  0
 23 24  1  0  0  0  0
 23 47  1  0  0  0  0
 24 25  1  0  0  0  0
 24 48  1  0  0  0  0
 25 26  1  0  0  0  0
 25 30  2  0  0  0  0
 26 27  2  0  0  0  0
 26 49  1  0  0  0  0
 27 28  1  0  0  0  0
 27 50  1  0  0  0  0
 28 29  2  0  0  0  0
 28 51  1  0  0  0  0
 29 30  1  0  0  0  0
 29 52  1  0  0  0  0
M  END
$$$$
