CHEMBL1688355
 OpenBabel04072215363D

 48 52  0  0  0  0  0  0  0  0999 V2000
    1.3210    0.3952    0.3126 C   0  0  0  0  0  0  0  0  0  0  0  0
    0.6613    1.2522   -0.5517 C   0  0  0  0  0  0  0  0  0  0  0  0
   -0.7127    1.1299   -0.7173 C   0  0  0  0  0  0  0  0  0  0  0  0
   -1.4623    0.1389   -0.0412 C   0  0  0  0  0  0  0  0  0  0  0  0
   -2.9167    0.1882   -0.2335 C   0  0  0  0  0  0  0  0  0  0  0  0
   -3.5419    0.7215   -1.2669 N   0  0  0  0  0  0  0  0  0  0  0  0
   -4.8705    0.8506   -0.9483 N   0  0  0  0  0  0  0  0  0  0  0  0
   -5.0516    0.3888    0.2694 C   0  0  0  0  0  0  0  0  0  0  0  0
   -6.1560    0.3931    1.0528 N   0  0  0  0  0  0  0  0  0  0  0  0
   -7.2626    1.2526    0.8584 C   0  0  0  0  0  0  0  0  0  0  0  0
   -7.1182    2.5424    0.3288 C   0  0  0  0  0  0  0  0  0  0  0  0
   -8.2332    3.3460    0.0686 C   0  0  0  0  0  0  0  0  0  0  0  0
   -9.5155    2.8579    0.3004 C   0  0  0  0  0  0  0  0  0  0  0  0
   -9.6766    1.5919    0.8526 C   0  0  0  0  0  0  0  0  0  0  0  0
   -8.5595    0.7929    1.1332 C   0  0  0  0  0  0  0  0  0  0  0  0
  -10.9082    1.0714    1.1550 O   0  0  0  0  0  0  0  0  0  0  0  0
  -11.9315    1.6514    0.3454 C   0  0  0  0  0  0  0  0  0  0  0  0
  -11.8405    3.1692    0.2402 C   0  0  0  0  0  0  0  0  0  0  0  0
  -10.5435    3.6715   -0.0775 O   0  0  0  0  0  0  0  0  0  0  0  0
   -3.8626   -0.1391    0.7036 N   0  0  0  0  0  0  0  0  0  0  0  0
   -0.7773   -0.7925    0.7776 C   0  0  0  0  0  0  0  0  0  0  0  0
   -1.4775   -1.8359    1.4646 N   0  0  0  0  0  0  0  0  0  0  0  0
   -0.6659   -3.0575    1.6596 C   0  0  0  0  0  0  0  0  0  0  0  0
   -1.4543   -4.3011    1.8003 C   0  0  0  0  0  0  0  0  0  0  0  0
   -1.2425   -5.4448    2.5403 C   0  0  0  0  0  0  0  0  0  0  0  0
   -2.2024   -6.3838    2.2719 N   0  0  0  0  0  0  0  0  0  0  0  0
   -2.9801   -5.8365    1.3661 C   0  0  0  0  0  0  0  0  0  0  0  0
   -2.5723   -4.5714    1.0531 N   0  0  0  0  0  0  0  0  0  0  0  0
    0.6072   -0.6053    0.9753 C   0  0  0  0  0  0  0  0  0  0  0  0
    2.3926    0.4994    0.4727 H   0  0  0  0  0  0  0  0  0  0  0  0
    1.2054    2.0291   -1.0824 H   0  0  0  0  0  0  0  0  0  0  0  0
   -1.2242    1.8306   -1.3775 H   0  0  0  0  0  0  0  0  0  0  0  0
   -6.2088   -0.1373    1.9113 H   0  0  0  0  0  0  0  0  0  0  0  0
   -6.1303    2.9428    0.1188 H   0  0  0  0  0  0  0  0  0  0  0  0
   -8.0931    4.3473   -0.3286 H   0  0  0  0  0  0  0  0  0  0  0  0
   -8.7189   -0.2095    1.5144 H   0  0  0  0  0  0  0  0  0  0  0  0
  -11.8990    1.1844   -0.6455 H   0  0  0  0  0  0  0  0  0  0  0  0
  -12.8978    1.3871    0.7946 H   0  0  0  0  0  0  0  0  0  0  0  0
  -12.1708    3.6477    1.1670 H   0  0  0  0  0  0  0  0  0  0  0  0
  -12.5159    3.5061   -0.5556 H   0  0  0  0  0  0  0  0  0  0  0  0
   -3.6724   -0.5409    1.6056 H   0  0  0  0  0  0  0  0  0  0  0  0
   -1.6989   -1.4793    2.3949 H   0  0  0  0  0  0  0  0  0  0  0  0
   -0.0523   -2.9320    2.5619 H   0  0  0  0  0  0  0  0  0  0  0  0
    0.0152   -3.2163    0.8123 H   0  0  0  0  0  0  0  0  0  0  0  0
   -0.4367   -5.6535    3.2336 H   0  0  0  0  0  0  0  0  0  0  0  0
   -3.8359   -6.3057    0.8996 H   0  0  0  0  0  0  0  0  0  0  0  0
   -2.9921   -3.9506    0.3719 H   0  0  0  0  0  0  0  0  0  0  0  0
    1.1732   -1.2391    1.6535 H   0  0  0  0  0  0  0  0  0  0  0  0
  1  2  1  0  0  0  0
  1 29  2  0  0  0  0
  1 30  1  0  0  0  0
  2  3  2  0  0  0  0
  2 31  1  0  0  0  0
  3  4  1  0  0  0  0
  3 32  1  0  0  0  0
  4  5  1  0  0  0  0
  4 21  2  0  0  0  0
  5  6  2  0  0  0  0
  5 20  1  0  0  0  0
  6  7  1  0  0  0  0
  7  8  2  0  0  0  0
  8  9  1  0  0  0  0
  8 20  1  0  0  0  0
  9 10  1  0  0  0  0
  9 33  1  0  0  0  0
 10 11  1  0  0  0  0
 10 15  2  0  0  0  0
 11 12  2  0  0  0  0
 11 34  1  0  0  0  0
 12 13  1  0  0  0  0
 12 35  1  0  0  0  0
 13 14  2  0  0  0  0
 13 19  1  0  0  0  0
 14 15  1  0  0  0  0
 14 16  1  0  0  0  0
 15 36  1  0  0  0  0
 16 17  1  0  0  0  0
 17 18  1  0  0  0  0
 17 37  1  0  0  0  0
 17 38  1  0  0  0  0
 18 19  1  0  0  0  0
 18 39  1  0  0  0  0
 18 40  1  0  0  0  0
 20 41  1  0  0  0  0
 21 22  1  0  0  0  0
 21 29  1  0  0  0  0
 22 23  1  0  0  0  0
 22 42  1  0  0  0  0
 23 24  1  0  0  0  0
 23 43  1  0  0  0  0
 23 44  1  0  0  0  0
 24 25  2  0  0  0  0
 24 28  1  0  0  0  0
 25 26  1  0  0  0  0
 25 45  1  0  0  0  0
 26 27  2  0  0  0  0
 27 28  1  0  0  0  0
 27 46  1  0  0  0  0
 28 47  1  0  0  0  0
 29 48  1  0  0  0  0
M  END
$$$$
