CHEMBL1681939
 OpenBabel04072215363D

 60 62  0  0  0  0  0  0  0  0999 V2000
   10.4364    4.2275    4.4776 C   0  0  0  0  0  0  0  0  0  0  0  0
    9.5987    3.4179    3.6553 O   0  0  0  0  0  0  0  0  0  0  0  0
   10.1314    3.4270    2.3612 N   0  0  0  0  0  0  0  0  0  0  0  0
    9.4219    2.6719    1.5802 C   0  0  0  0  0  0  0  0  0  0  0  0
    9.8044    2.4747    0.1732 C   0  0  0  0  0  0  0  0  0  0  0  0
   11.1234    2.6070   -0.2516 C   0  0  0  0  0  0  0  0  0  0  0  0
   12.1820    2.8478    0.6229 N   0  0  0  0  0  0  0  0  0  0  0  0
   11.5008    2.3989   -1.5248 N   0  0  0  0  0  0  0  0  0  0  0  0
   10.5351    2.0842   -2.3910 C   0  0  0  0  0  0  0  0  0  0  0  0
    9.2349    1.9827   -2.1064 N   0  0  0  0  0  0  0  0  0  0  0  0
    8.8857    2.1533   -0.8091 C   0  0  0  0  0  0  0  0  0  0  0  0
    7.5289    2.0534   -0.4832 O   0  0  0  0  0  0  0  0  0  0  0  0
    6.7277    1.3253   -1.3423 C   0  0  0  0  0  0  0  0  0  0  0  0
    7.1175    0.0783   -1.8239 C   0  0  0  0  0  0  0  0  0  0  0  0
    6.3137   -0.6162   -2.7276 C   0  0  0  0  0  0  0  0  0  0  0  0
    5.0843   -0.1078   -3.1590 C   0  0  0  0  0  0  0  0  0  0  0  0
    4.2889   -0.8092   -4.1231 N   0  0  0  0  0  0  0  0  0  0  0  0
    4.7951   -1.7618   -4.9678 C   0  0  0  0  0  0  0  0  0  0  0  0
    5.9881   -2.0488   -5.0723 O   0  0  0  0  0  0  0  0  0  0  0  0
    3.8545   -2.4485   -5.7238 N   0  0  0  0  0  0  0  0  0  0  0  0
    4.4306   -3.4390   -6.6158 C   0  0  0  0  0  0  0  0  0  0  0  0
    3.4829   -4.2636   -7.4794 C   0  0  0  0  0  0  0  0  0  0  0  0
    4.3522   -5.2576   -8.2741 C   0  0  0  0  0  0  0  0  0  0  0  0
    3.5618   -6.1961   -9.1879 C   0  0  0  0  0  0  0  0  0  0  0  0
    4.4428   -7.0618   -9.9975 N   0  0  0  0  0  0  0  0  0  0  0  0
    3.6577   -7.9113  -10.9109 C   0  0  0  0  0  0  0  0  0  0  0  0
    3.2415   -9.1039  -10.0679 C   0  0  0  0  0  0  0  0  0  0  0  0
    4.4206   -9.3171   -9.1341 C   0  0  0  0  0  0  0  0  0  0  0  0
    5.2336   -8.0296   -9.2175 C   0  0  0  0  0  0  0  0  0  0  0  0
    4.6537    1.1092   -2.6014 C   0  0  0  0  0  0  0  0  0  0  0  0
    3.1214    1.7880   -3.0359 Cl  0  0  0  0  0  0  0  0  0  0  0  0
    5.4716    1.8256   -1.7003 C   0  0  0  0  0  0  0  0  0  0  0  0
   10.0259    4.2438    5.4904 H   0  0  0  0  0  0  0  0  0  0  0  0
   10.4649    5.2511    4.0910 H   0  0  0  0  0  0  0  0  0  0  0  0
   11.4505    3.8153    4.5142 H   0  0  0  0  0  0  0  0  0  0  0  0
    8.5168    2.1568    1.9476 H   0  0  0  0  0  0  0  0  0  0  0  0
   11.9382    3.5484    1.3243 H   0  0  0  0  0  0  0  0  0  0  0  0
   13.0230    3.0531    0.0949 H   0  0  0  0  0  0  0  0  0  0  0  0
   10.8346    1.8839   -3.4140 H   0  0  0  0  0  0  0  0  0  0  0  0
    8.0715   -0.3602   -1.5415 H   0  0  0  0  0  0  0  0  0  0  0  0
    6.6937   -1.5723   -3.0737 H   0  0  0  0  0  0  0  0  0  0  0  0
    3.3650   -0.4462   -4.3042 H   0  0  0  0  0  0  0  0  0  0  0  0
    3.0520   -1.9235   -6.0335 H   0  0  0  0  0  0  0  0  0  0  0  0
    5.0139   -4.1257   -5.9864 H   0  0  0  0  0  0  0  0  0  0  0  0
    5.1413   -2.9151   -7.2694 H   0  0  0  0  0  0  0  0  0  0  0  0
    2.9197   -3.6144   -8.1587 H   0  0  0  0  0  0  0  0  0  0  0  0
    2.7590   -4.8004   -6.8554 H   0  0  0  0  0  0  0  0  0  0  0  0
    4.9269   -5.8431   -7.5485 H   0  0  0  0  0  0  0  0  0  0  0  0
    5.0800   -4.6974   -8.8758 H   0  0  0  0  0  0  0  0  0  0  0  0
    2.9770   -5.5705   -9.8741 H   0  0  0  0  0  0  0  0  0  0  0  0
    2.8505   -6.7781   -8.5913 H   0  0  0  0  0  0  0  0  0  0  0  0
    4.3074   -8.2454  -11.7298 H   0  0  0  0  0  0  0  0  0  0  0  0
    2.8057   -7.3954  -11.3663 H   0  0  0  0  0  0  0  0  0  0  0  0
    3.0259   -9.9906  -10.6709 H   0  0  0  0  0  0  0  0  0  0  0  0
    2.3432   -8.8703   -9.4841 H   0  0  0  0  0  0  0  0  0  0  0  0
    5.0251  -10.1708   -9.4606 H   0  0  0  0  0  0  0  0  0  0  0  0
    4.0771   -9.5148   -8.1135 H   0  0  0  0  0  0  0  0  0  0  0  0
    6.1611   -8.2314   -9.7691 H   0  0  0  0  0  0  0  0  0  0  0  0
    5.5478   -7.6876   -8.2286 H   0  0  0  0  0  0  0  0  0  0  0  0
    5.1394    2.7800   -1.3001 H   0  0  0  0  0  0  0  0  0  0  0  0
  1  2  1  0  0  0  0
  1 33  1  0  0  0  0
  1 34  1  0  0  0  0
  1 35  1  0  0  0  0
  2  3  1  0  0  0  0
  3  4  2  0  0  0  0
  4  5  1  0  0  0  0
  4 36  1  0  0  0  0
  5  6  1  0  0  0  0
  5 11  2  0  0  0  0
  6  7  1  0  0  0  0
  6  8  2  0  0  0  0
  7 37  1  0  0  0  0
  7 38  1  0  0  0  0
  8  9  1  0  0  0  0
  9 10  2  0  0  0  0
  9 39  1  0  0  0  0
 10 11  1  0  0  0  0
 11 12  1  0  0  0  0
 12 13  1  0  0  0  0
 13 14  1  0  0  0  0
 13 32  2  0  0  0  0
 14 15  2  0  0  0  0
 14 40  1  0  0  0  0
 15 16  1  0  0  0  0
 15 41  1  0  0  0  0
 16 17  1  0  0  0  0
 16 30  2  0  0  0  0
 17 18  1  0  0  0  0
 17 42  1  0  0  0  0
 18 19  2  0  0  0  0
 18 20  1  0  0  0  0
 20 21  1  0  0  0  0
 20 43  1  0  0  0  0
 21 22  1  0  0  0  0
 21 44  1  0  0  0  0
 21 45  1  0  0  0  0
 22 23  1  0  0  0  0
 22 46  1  0  0  0  0
 22 47  1  0  0  0  0
 23 24  1  0  0  0  0
 23 48  1  0  0  0  0
 23 49  1  0  0  0  0
 24 25  1  0  0  0  0
 24 50  1  0  0  0  0
 24 51  1  0  0  0  0
 25 26  1  0  0  0  0
 25 29  1  0  0  0  0
 26 27  1  0  0  0  0
 26 52  1  0  0  0  0
 26 53  1  0  0  0  0
 27 28  1  0  0  0  0
 27 54  1  0  0  0  0
 27 55  1  0  0  0  0
 28 29  1  0  0  0  0
 28 56  1  0  0  0  0
 28 57  1  0  0  0  0
 29 58  1  0  0  0  0
 29 59  1  0  0  0  0
 30 31  1  0  0  0  0
 30 32  1  0  0  0  0
 32 60  1  0  0  0  0
M  END
$$$$
