CHEMBL261174
 OpenBabel04072215363D

 71 76  0  0  0  0  0  0  0  0999 V2000
   -2.3780    1.0807   -0.9006 C   0  0  0  0  0  0  0  0  0  0  0  0
   -1.1989    0.3878   -0.2754 C   0  0  0  0  0  0  0  0  0  0  0  0
   -1.2482   -1.0046   -0.1118 C   0  0  0  0  0  0  0  0  0  0  0  0
   -0.1728   -1.6969    0.4371 C   0  0  0  0  0  0  0  0  0  0  0  0
    0.9702   -1.0078    0.8314 C   0  0  0  0  0  0  0  0  0  0  0  0
    1.0475    0.3878    0.7045 C   0  0  0  0  0  0  0  0  0  0  0  0
    2.2943    1.0821    1.1796 C   0  0  0  0  0  0  0  0  0  0  0  0
   -0.0491    1.0907    0.1533 C   0  0  0  0  0  0  0  0  0  0  0  0
    0.0081    2.5004    0.0248 N   0  0  0  0  0  0  0  0  0  0  0  0
    0.5503    3.1109   -1.0963 C   0  0  0  0  0  0  0  0  0  0  0  0
    1.0116    2.5259   -2.0721 O   0  0  0  0  0  0  0  0  0  0  0  0
    0.5565    4.5803   -1.1068 C   0  0  0  0  0  0  0  0  0  0  0  0
    1.1253    5.2775   -2.1345 C   0  0  0  0  0  0  0  0  0  0  0  0
    1.1697    6.6186   -2.1525 N   0  0  0  0  0  0  0  0  0  0  0  0
    0.6286    7.3024   -1.1294 C   0  0  0  0  0  0  0  0  0  0  0  0
    0.7215    8.6889   -1.1310 N   0  0  0  0  0  0  0  0  0  0  0  0
    1.6122    9.4709   -1.8783 C   0  0  0  0  0  0  0  0  0  0  0  0
    1.1949   10.6848   -2.4074 C   0  0  0  0  0  0  0  0  0  0  0  0
    2.0066   11.3778   -3.3033 C   0  0  0  0  0  0  0  0  0  0  0  0
    3.2571   10.8655   -3.6898 C   0  0  0  0  0  0  0  0  0  0  0  0
    4.0781   11.4412   -4.6289 O   0  0  0  0  0  0  0  0  0  0  0  0
    3.5089   12.6003   -5.2444 C   0  0  0  0  0  0  0  0  0  0  0  0
    4.4326   13.1635   -6.3084 C   0  0  0  0  0  0  0  0  0  0  0  0
    3.8398   14.4416   -6.9220 C   0  0  0  0  0  0  0  0  0  0  0  0
    3.5726   15.5226   -5.9532 N   0  0  0  0  0  0  0  0  0  0  0  0
    4.7889   15.9600   -5.2643 C   0  0  0  0  0  0  0  0  0  0  0  0
    2.9520   16.6664   -6.6280 C   0  0  0  0  0  0  0  0  0  0  0  0
    3.7066    9.6846   -3.1197 C   0  0  0  0  0  0  0  0  0  0  0  0
    2.8882    8.9924   -2.2257 C   0  0  0  0  0  0  0  0  0  0  0  0
    0.0120    6.7062   -0.0990 N   0  0  0  0  0  0  0  0  0  0  0  0
    0.0118    5.3489   -0.1010 C   0  0  0  0  0  0  0  0  0  0  0  0
   -0.5483    4.6432    0.9803 N   0  0  0  0  0  0  0  0  0  0  0  0
   -1.1657    5.1201    2.1201 C   0  0  0  0  0  0  0  0  0  0  0  0
   -1.4547    6.4009    2.6116 C   0  0  0  0  0  0  0  0  0  0  0  0
   -2.1370    6.4859    3.8331 C   0  0  0  0  0  0  0  0  0  0  0  0
   -2.5110    5.3385    4.5323 C   0  0  0  0  0  0  0  0  0  0  0  0
   -2.2045    4.0681    4.0339 C   0  0  0  0  0  0  0  0  0  0  0  0
   -1.5221    3.9634    2.8114 C   0  0  0  0  0  0  0  0  0  0  0  0
   -1.1263    2.8358    2.1440 N   0  0  0  0  0  0  0  0  0  0  0  0
   -0.5489    3.2602    1.0422 C   0  0  0  0  0  0  0  0  0  0  0  0
   -3.1396    0.3589   -1.2174 H   0  0  0  0  0  0  0  0  0  0  0  0
   -2.0706    1.6349   -1.7930 H   0  0  0  0  0  0  0  0  0  0  0  0
   -2.8493    1.7609   -0.1860 H   0  0  0  0  0  0  0  0  0  0  0  0
   -2.1321   -1.5625   -0.4129 H   0  0  0  0  0  0  0  0  0  0  0  0
   -0.2267   -2.7753    0.5595 H   0  0  0  0  0  0  0  0  0  0  0  0
    1.8009   -1.5696    1.2527 H   0  0  0  0  0  0  0  0  0  0  0  0
    2.9970    0.3723    1.6302 H   0  0  0  0  0  0  0  0  0  0  0  0
    2.0506    1.8225    1.9479 H   0  0  0  0  0  0  0  0  0  0  0  0
    2.8102    1.5686    0.3463 H   0  0  0  0  0  0  0  0  0  0  0  0
    1.5919    4.7896   -2.9852 H   0  0  0  0  0  0  0  0  0  0  0  0
    0.1386    9.1466   -0.4495 H   0  0  0  0  0  0  0  0  0  0  0  0
    0.2109   11.0861   -2.1818 H   0  0  0  0  0  0  0  0  0  0  0  0
    1.6147   12.2994   -3.7083 H   0  0  0  0  0  0  0  0  0  0  0  0
    3.3477   13.3578   -4.4705 H   0  0  0  0  0  0  0  0  0  0  0  0
    2.5587   12.3320   -5.7247 H   0  0  0  0  0  0  0  0  0  0  0  0
    4.5778   12.4132   -7.0954 H   0  0  0  0  0  0  0  0  0  0  0  0
    5.4290   13.3415   -5.8891 H   0  0  0  0  0  0  0  0  0  0  0  0
    2.8882   14.1658   -7.3988 H   0  0  0  0  0  0  0  0  0  0  0  0
    4.5032   14.7933   -7.7200 H   0  0  0  0  0  0  0  0  0  0  0  0
    5.1971   15.1621   -4.6360 H   0  0  0  0  0  0  0  0  0  0  0  0
    4.5696   16.7892   -4.5821 H   0  0  0  0  0  0  0  0  0  0  0  0
    5.5638   16.2845   -5.9670 H   0  0  0  0  0  0  0  0  0  0  0  0
    2.0029   16.3762   -7.0920 H   0  0  0  0  0  0  0  0  0  0  0  0
    3.6027   17.0891   -7.4018 H   0  0  0  0  0  0  0  0  0  0  0  0
    2.7164   17.4584   -5.9075 H   0  0  0  0  0  0  0  0  0  0  0  0
    4.6778    9.2680   -3.3818 H   0  0  0  0  0  0  0  0  0  0  0  0
    3.2490    8.0536   -1.8119 H   0  0  0  0  0  0  0  0  0  0  0  0
   -1.1719    7.3034    2.0784 H   0  0  0  0  0  0  0  0  0  0  0  0
   -2.3833    7.4645    4.2414 H   0  0  0  0  0  0  0  0  0  0  0  0
   -3.0477    5.4286    5.4740 H   0  0  0  0  0  0  0  0  0  0  0  0
   -2.4911    3.1706    4.5719 H   0  0  0  0  0  0  0  0  0  0  0  0
  1  2  1  0  0  0  0
  1 41  1  0  0  0  0
  1 42  1  0  0  0  0
  1 43  1  0  0  0  0
  2  3  1  0  0  0  0
  2  8  2  0  0  0  0
  3  4  2  0  0  0  0
  3 44  1  0  0  0  0
  4  5  1  0  0  0  0
  4 45  1  0  0  0  0
  5  6  2  0  0  0  0
  5 46  1  0  0  0  0
  6  7  1  0  0  0  0
  6  8  1  0  0  0  0
  7 47  1  0  0  0  0
  7 48  1  0  0  0  0
  7 49  1  0  0  0  0
  8  9  1  0  0  0  0
  9 10  1  0  0  0  0
  9 40  1  0  0  0  0
 10 11  2  0  0  0  0
 10 12  1  0  0  0  0
 12 13  1  0  0  0  0
 12 31  2  0  0  0  0
 13 14  2  0  0  0  0
 13 50  1  0  0  0  0
 14 15  1  0  0  0  0
 15 16  1  0  0  0  0
 15 30  2  0  0  0  0
 16 17  1  0  0  0  0
 16 51  1  0  0  0  0
 17 18  1  0  0  0  0
 17 29  2  0  0  0  0
 18 19  2  0  0  0  0
 18 52  1  0  0  0  0
 19 20  1  0  0  0  0
 19 53  1  0  0  0  0
 20 21  1  0  0  0  0
 20 28  2  0  0  0  0
 21 22  1  0  0  0  0
 22 23  1  0  0  0  0
 22 54  1  0  0  0  0
 22 55  1  0  0  0  0
 23 24  1  0  0  0  0
 23 56  1  0  0  0  0
 23 57  1  0  0  0  0
 24 25  1  0  0  0  0
 24 58  1  0  0  0  0
 24 59  1  0  0  0  0
 25 26  1  0  0  0  0
 25 27  1  0  0  0  0
 26 60  1  0  0  0  0
 26 61  1  0  0  0  0
 26 62  1  0  0  0  0
 27 63  1  0  0  0  0
 27 64  1  0  0  0  0
 27 65  1  0  0  0  0
 28 29  1  0  0  0  0
 28 66  1  0  0  0  0
 29 67  1  0  0  0  0
 30 31  1  0  0  0  0
 31 32  1  0  0  0  0
 32 33  1  0  0  0  0
 32 40  1  0  0  0  0
 33 34  1  0  0  0  0
 33 38  2  0  0  0  0
 34 35  2  0  0  0  0
 34 68  1  0  0  0  0
 35 36  1  0  0  0  0
 35 69  1  0  0  0  0
 36 37  2  0  0  0  0
 36 70  1  0  0  0  0
 37 38  1  0  0  0  0
 37 71  1  0  0  0  0
 38 39  1  0  0  0  0
 39 40  2  0  0  0  0
M  END
$$$$
