CHEMBL3671555
 OpenBabel04072215373D

 61 63  0  0  1  0  0  0  0  0999 V2000
    2.2123    1.7635   -1.4825 C   0  0  0  0  0  0  0  0  0  0  0  0
    2.8129    0.9531   -0.6046 C   0  0  0  0  0  0  0  0  0  0  0  0
    3.4699    1.4932    0.6143 C   0  0  0  0  0  0  0  0  0  0  0  0
    3.2154    2.6016    1.0618 O   0  0  0  0  0  0  0  0  0  0  0  0
    4.3982    0.6004    1.1183 N   0  0  0  0  0  0  0  0  0  0  0  0
    5.1253    0.9471    2.2705 C   0  0  0  0  0  0  0  0  0  0  0  0
    6.3121    1.6617    2.0819 C   0  0  0  0  0  0  0  0  0  0  0  0
    7.0252    2.1699    3.1841 C   0  0  0  0  0  0  0  0  0  0  0  0
    8.1419    3.0154    3.0902 C   0  0  0  0  0  0  0  0  0  0  0  0
    8.5809    3.4696    1.8152 N   0  0  0  0  0  0  0  0  0  0  0  0
    9.4068    4.6031    1.6204 C   0  0  0  0  0  0  0  0  0  0  0  0
    9.1755    5.7938    2.3237 C   0  0  0  0  0  0  0  0  0  0  0  0
   10.0504    6.8757    2.2097 C   0  0  0  0  0  0  0  0  0  0  0  0
   11.1557    6.7808    1.3676 C   0  0  0  0  0  0  0  0  0  0  0  0
   12.3859    8.2131    1.2827 Br  0  0  0  0  0  0  0  0  0  0  0  0
   11.3688    5.6348    0.6058 C   0  0  0  0  0  0  0  0  0  0  0  0
   10.4875    4.5632    0.7309 C   0  0  0  0  0  0  0  0  0  0  0  0
   10.7050    3.4534    0.0070 F   0  0  0  0  0  0  0  0  0  0  0  0
    8.7875    3.4680    4.1805 N   0  0  0  0  0  0  0  0  0  0  0  0
    8.3041    3.0971    5.3661 C   0  0  0  0  0  0  0  0  0  0  0  0
    7.2218    2.3406    5.5722 N   0  0  0  0  0  0  0  0  0  0  0  0
    6.5789    1.8958    4.4862 C   0  0  0  0  0  0  0  0  0  0  0  0
    5.4102    1.1530    4.6486 C   0  0  0  0  0  0  0  0  0  0  0  0
    4.6717    0.6577    3.5629 C   0  0  0  0  0  0  0  0  0  0  0  0
    3.5419   -0.0461    3.8974 O   0  0  0  0  0  0  0  0  0  0  0  0
    3.2786   -1.2061    3.0978 C   0  0  0  0  0  0  0  0  0  0  0  0
    2.1067   -2.0430    3.6560 C   0  0  3  0  0  0  0  0  0  0  0  0
    0.8280   -1.2100    3.7494 C   0  0  0  0  0  0  0  0  0  0  0  0
    1.8557   -3.2176    2.8064 N   0  0  0  0  0  0  0  0  0  0  0  0
    2.6313   -4.3431    2.9153 C   0  0  0  0  0  0  0  0  0  0  0  0
    3.5091   -4.4903    3.7531 O   0  0  0  0  0  0  0  0  0  0  0  0
    2.3017   -5.2815    1.9632 N   0  0  0  0  0  0  0  0  0  0  0  0
    2.9360   -6.5859    2.0338 C   0  0  0  0  0  0  0  0  0  0  0  0
    2.5411   -7.5215    0.8948 C   0  0  0  0  0  0  0  0  0  0  0  0
    2.9687   -7.0168   -0.4748 C   0  0  0  0  0  0  0  0  0  0  0  0
    1.6931    1.3592   -2.3449 H   0  0  0  0  0  0  0  0  0  0  0  0
    2.2171    2.8435   -1.3568 H   0  0  0  0  0  0  0  0  0  0  0  0
    2.7887   -0.1223   -0.7269 H   0  0  0  0  0  0  0  0  0  0  0  0
    4.9254    0.1394    0.3865 H   0  0  0  0  0  0  0  0  0  0  0  0
    6.6307    1.9029    1.0716 H   0  0  0  0  0  0  0  0  0  0  0  0
    8.8612    2.6890    1.2272 H   0  0  0  0  0  0  0  0  0  0  0  0
    8.3196    5.8728    2.9911 H   0  0  0  0  0  0  0  0  0  0  0  0
    9.8673    7.7707    2.7986 H   0  0  0  0  0  0  0  0  0  0  0  0
   12.2176    5.5521   -0.0640 H   0  0  0  0  0  0  0  0  0  0  0  0
    8.8369    3.4555    6.2410 H   0  0  0  0  0  0  0  0  0  0  0  0
    5.0561    0.9623    5.6597 H   0  0  0  0  0  0  0  0  0  0  0  0
    4.1824   -1.8236    3.0289 H   0  0  0  0  0  0  0  0  0  0  0  0
    2.9709   -0.9095    2.0940 H   0  0  0  0  0  0  0  0  0  0  0  0
    2.3636   -2.3911    4.6639 H   0  0  0  0  0  0  0  0  0  0  0  0
    0.5468   -0.8066    2.7695 H   0  0  0  0  0  0  0  0  0  0  0  0
    0.9479   -0.3729    4.4431 H   0  0  0  0  0  0  0  0  0  0  0  0
   -0.0084   -1.8243    4.1014 H   0  0  0  0  0  0  0  0  0  0  0  0
    1.4744   -3.0476    1.8873 H   0  0  0  0  0  0  0  0  0  0  0  0
    1.3314   -5.2645    1.6851 H   0  0  0  0  0  0  0  0  0  0  0  0
    2.6456   -7.0376    2.9898 H   0  0  0  0  0  0  0  0  0  0  0  0
    4.0227   -6.4437    2.0556 H   0  0  0  0  0  0  0  0  0  0  0  0
    1.4570   -7.6829    0.8979 H   0  0  0  0  0  0  0  0  0  0  0  0
    3.0102   -8.4981    1.0681 H   0  0  0  0  0  0  0  0  0  0  0  0
    2.4612   -6.0813   -0.7291 H   0  0  0  0  0  0  0  0  0  0  0  0
    2.7150   -7.7536   -1.2426 H   0  0  0  0  0  0  0  0  0  0  0  0
    4.0490   -6.8477   -0.5125 H   0  0  0  0  0  0  0  0  0  0  0  0
  1  2  2  0  0  0  0
  1 36  1  0  0  0  0
  1 37  1  0  0  0  0
  2  3  1  0  0  0  0
  2 38  1  0  0  0  0
  3  4  2  0  0  0  0
  3  5  1  0  0  0  0
  5  6  1  0  0  0  0
  5 39  1  0  0  0  0
  6  7  1  0  0  0  0
  6 24  2  0  0  0  0
  7  8  2  0  0  0  0
  7 40  1  0  0  0  0
  8  9  1  0  0  0  0
  8 22  1  0  0  0  0
  9 10  1  0  0  0  0
  9 19  2  0  0  0  0
 10 11  1  0  0  0  0
 10 41  1  0  0  0  0
 11 12  1  0  0  0  0
 11 17  2  0  0  0  0
 12 13  2  0  0  0  0
 12 42  1  0  0  0  0
 13 14  1  0  0  0  0
 13 43  1  0  0  0  0
 14 15  1  0  0  0  0
 14 16  2  0  0  0  0
 16 17  1  0  0  0  0
 16 44  1  0  0  0  0
 17 18  1  0  0  0  0
 19 20  1  0  0  0  0
 20 21  2  0  0  0  0
 20 45  1  0  0  0  0
 21 22  1  0  0  0  0
 22 23  2  0  0  0  0
 23 24  1  0  0  0  0
 23 46  1  0  0  0  0
 24 25  1  0  0  0  0
 25 26  1  0  0  0  0
 26 27  1  0  0  0  0
 26 47  1  0  0  0  0
 26 48  1  0  0  0  0
 27 28  1  0  0  0  0
 27 29  1  0  0  0  0
 27 49  1  0  0  0  0
 28 50  1  0  0  0  0
 28 51  1  0  0  0  0
 28 52  1  0  0  0  0
 29 30  1  0  0  0  0
 29 53  1  0  0  0  0
 30 31  2  0  0  0  0
 30 32  1  0  0  0  0
 32 33  1  0  0  0  0
 32 54  1  0  0  0  0
 33 34  1  0  0  0  0
 33 55  1  0  0  0  0
 33 56  1  0  0  0  0
 34 35  1  0  0  0  0
 34 57  1  0  0  0  0
 34 58  1  0  0  0  0
 35 59  1  0  0  0  0
 35 60  1  0  0  0  0
 35 61  1  0  0  0  0
M  END
$$$$
