CHEMBL187279
 OpenBabel04072215363D

 52 54  0  0  0  0  0  0  0  0999 V2000
    1.1759   -5.4668   -2.2244 C   0  0  0  0  0  0  0  0  0  0  0  0
    2.6732   -5.2478   -2.0339 C   0  0  0  0  0  0  0  0  0  0  0  0
    3.0346   -4.1849   -1.0746 N   0  0  0  0  0  0  0  0  0  0  0  0
    2.4195   -4.3413    0.2508 C   0  0  0  0  0  0  0  0  0  0  0  0
    2.9182   -5.5161    1.0859 C   0  0  0  0  0  0  0  0  0  0  0  0
    4.5109   -4.0657   -1.0310 C   0  0  0  0  0  0  0  0  0  0  0  0
    5.0678   -2.8897   -0.2039 C   0  0  0  0  0  0  0  0  0  0  0  0
    6.5758   -2.8503   -0.2107 C   0  0  0  0  0  0  0  0  0  0  0  0
    7.3864   -2.6293   -1.3086 C   0  0  0  0  0  0  0  0  0  0  0  0
    7.0873   -2.3721   -2.7416 C   0  0  0  0  0  0  0  0  0  0  0  0
    8.6873   -2.6931   -0.8873 N   0  0  0  0  0  0  0  0  0  0  0  0
    8.7667   -2.9325    0.4633 C   0  0  0  0  0  0  0  0  0  0  0  0
   10.0254   -3.0179    1.1330 C   0  0  0  0  0  0  0  0  0  0  0  0
   11.2556   -3.0104    0.5961 C   0  0  0  0  0  0  0  0  0  0  0  0
   11.7535   -2.9403   -0.8033 C   0  0  0  0  0  0  0  0  0  0  0  0
   11.1207   -2.7777   -1.8290 O   0  0  0  0  0  0  0  0  0  0  0  0
   13.1209   -3.0862   -0.6764 N   0  0  0  0  0  0  0  0  0  0  0  0
   13.5833   -3.1732    0.6133 N   0  0  0  0  0  0  0  0  0  0  0  0
   12.5186   -3.1109    1.3659 C   0  0  0  0  0  0  0  0  0  0  0  0
   12.6169   -3.1231    2.8315 C   0  0  0  0  0  0  0  0  0  0  0  0
   12.2605   -1.8978    3.6402 C   0  0  0  0  0  0  0  0  0  0  0  0
   13.6994   -2.2904    3.4963 C   0  0  0  0  0  0  0  0  0  0  0  0
    7.4526   -3.0277    0.9219 C   0  0  0  0  0  0  0  0  0  0  0  0
    6.9991   -3.2706    2.3220 C   0  0  0  0  0  0  0  0  0  0  0  0
    1.0033   -6.1102   -3.0940 H   0  0  0  0  0  0  0  0  0  0  0  0
    0.6515   -4.5219   -2.3980 H   0  0  0  0  0  0  0  0  0  0  0  0
    0.7289   -5.9653   -1.3586 H   0  0  0  0  0  0  0  0  0  0  0  0
    3.0773   -4.9733   -3.0171 H   0  0  0  0  0  0  0  0  0  0  0  0
    3.1391   -6.2023   -1.7605 H   0  0  0  0  0  0  0  0  0  0  0  0
    1.3308   -4.4126    0.1488 H   0  0  0  0  0  0  0  0  0  0  0  0
    2.5611   -3.4172    0.8241 H   0  0  0  0  0  0  0  0  0  0  0  0
    2.9053   -6.4548    0.5248 H   0  0  0  0  0  0  0  0  0  0  0  0
    2.2756   -5.6470    1.9624 H   0  0  0  0  0  0  0  0  0  0  0  0
    3.9367   -5.3430    1.4477 H   0  0  0  0  0  0  0  0  0  0  0  0
    4.8553   -3.9366   -2.0638 H   0  0  0  0  0  0  0  0  0  0  0  0
    4.9631   -5.0038   -0.6842 H   0  0  0  0  0  0  0  0  0  0  0  0
    4.7228   -2.9622    0.8327 H   0  0  0  0  0  0  0  0  0  0  0  0
    4.6829   -1.9395   -0.5954 H   0  0  0  0  0  0  0  0  0  0  0  0
    6.0173   -2.2393   -2.9198 H   0  0  0  0  0  0  0  0  0  0  0  0
    7.4348   -3.2092   -3.3563 H   0  0  0  0  0  0  0  0  0  0  0  0
    7.5920   -1.4619   -3.0812 H   0  0  0  0  0  0  0  0  0  0  0  0
    9.4777   -2.5827   -1.5138 H   0  0  0  0  0  0  0  0  0  0  0  0
    9.9580   -3.1165    2.2134 H   0  0  0  0  0  0  0  0  0  0  0  0
   13.7650   -3.0701   -1.4574 H   0  0  0  0  0  0  0  0  0  0  0  0
   12.4306   -4.0897    3.2822 H   0  0  0  0  0  0  0  0  0  0  0  0
   11.7965   -2.0443    4.6098 H   0  0  0  0  0  0  0  0  0  0  0  0
   11.9344   -1.0017    3.1253 H   0  0  0  0  0  0  0  0  0  0  0  0
   14.2087   -2.7121    4.3578 H   0  0  0  0  0  0  0  0  0  0  0  0
   14.3372   -1.6705    2.8744 H   0  0  0  0  0  0  0  0  0  0  0  0
    7.8334   -3.3625    3.0222 H   0  0  0  0  0  0  0  0  0  0  0  0
    6.4134   -4.1948    2.3769 H   0  0  0  0  0  0  0  0  0  0  0  0
    6.3690   -2.4423    2.6644 H   0  0  0  0  0  0  0  0  0  0  0  0
  1  2  1  0  0  0  0
  1 25  1  0  0  0  0
  1 26  1  0  0  0  0
  1 27  1  0  0  0  0
  2  3  1  0  0  0  0
  2 28  1  0  0  0  0
  2 29  1  0  0  0  0
  3  4  1  0  0  0  0
  3  6  1  0  0  0  0
  4  5  1  0  0  0  0
  4 30  1  0  0  0  0
  4 31  1  0  0  0  0
  5 32  1  0  0  0  0
  5 33  1  0  0  0  0
  5 34  1  0  0  0  0
  6  7  1  0  0  0  0
  6 35  1  0  0  0  0
  6 36  1  0  0  0  0
  7  8  1  0  0  0  0
  7 37  1  0  0  0  0
  7 38  1  0  0  0  0
  8  9  2  0  0  0  0
  8 23  1  0  0  0  0
  9 10  1  0  0  0  0
  9 11  1  0  0  0  0
 10 39  1  0  0  0  0
 10 40  1  0  0  0  0
 10 41  1  0  0  0  0
 11 12  1  0  0  0  0
 11 42  1  0  0  0  0
 12 13  1  0  0  0  0
 12 23  2  0  0  0  0
 13 14  2  0  0  0  0
 13 43  1  0  0  0  0
 14 15  1  0  0  0  0
 14 19  1  0  0  0  0
 15 16  2  0  0  0  0
 15 17  1  0  0  0  0
 17 18  1  0  0  0  0
 17 44  1  0  0  0  0
 18 19  2  0  0  0  0
 19 20  1  0  0  0  0
 20 21  1  0  0  0  0
 20 22  1  0  0  0  0
 20 45  1  0  0  0  0
 21 22  1  0  0  0  0
 21 46  1  0  0  0  0
 21 47  1  0  0  0  0
 22 48  1  0  0  0  0
 22 49  1  0  0  0  0
 23 24  1  0  0  0  0
 24 50  1  0  0  0  0
 24 51  1  0  0  0  0
 24 52  1  0  0  0  0
M  END
$$$$
