CHEMBL477772
 OpenBabel04072215383D

 54 57  0  0  0  0  0  0  0  0999 V2000
   -4.8961   -4.9049    2.2393 C   0  0  0  0  0  0  0  0  0  0  0  0
   -4.3958   -3.6451    1.5922 C   0  0  0  0  0  0  0  0  0  0  0  0
   -5.3363   -2.8010    0.9915 C   0  0  0  0  0  0  0  0  0  0  0  0
   -4.9466   -1.6016    0.3987 C   0  0  0  0  0  0  0  0  0  0  0  0
   -3.6107   -1.1826    0.4030 C   0  0  0  0  0  0  0  0  0  0  0  0
   -3.2094    0.0371   -0.1734 N   0  0  0  0  0  0  0  0  0  0  0  0
   -3.9871    1.2025   -0.1707 C   0  0  0  0  0  0  0  0  0  0  0  0
   -4.8596    1.3701    0.8314 N   0  0  0  0  0  0  0  0  0  0  0  0
   -5.5342    2.5198    0.8571 C   0  0  0  0  0  0  0  0  0  0  0  0
   -5.3985    3.4902   -0.0979 C   0  0  0  0  0  0  0  0  0  0  0  0
   -4.5094    3.2500   -1.1293 C   0  0  0  0  0  0  0  0  0  0  0  0
   -4.3487    4.1925   -2.1691 N   0  0  0  0  0  0  0  0  0  0  0  0
   -5.4930    5.0253   -2.5439 C   0  0  0  0  0  0  0  0  0  0  0  0
   -3.1646    4.4291   -2.9281 C   0  0  0  0  0  0  0  0  0  0  0  0
   -1.8843    4.2137   -2.2991 C   0  0  0  0  0  0  0  0  0  0  0  0
   -0.6357    4.5114   -2.8806 C   0  0  0  0  0  0  0  0  0  0  0  0
   -0.7904    5.0214   -4.1615 C   0  0  0  0  0  0  0  0  0  0  0  0
    0.2251    5.4428   -4.9854 C   0  0  0  0  0  0  0  0  0  0  0  0
    1.6958    5.4962   -4.8054 C   0  0  0  0  0  0  0  0  0  0  0  0
   -0.4227    5.8576   -6.1253 N   0  0  0  0  0  0  0  0  0  0  0  0
    0.1685    6.3860   -7.3336 C   0  0  0  0  0  0  0  0  0  0  0  0
   -1.7668    5.7423   -6.0744 N   0  0  0  0  0  0  0  0  0  0  0  0
   -2.0255    5.2303   -4.8638 C   0  0  0  0  0  0  0  0  0  0  0  0
   -3.2531    4.9301   -4.2559 C   0  0  0  0  0  0  0  0  0  0  0  0
   -3.7895    2.1056   -1.1454 N   0  0  0  0  0  0  0  0  0  0  0  0
   -2.6602   -2.0330    0.9575 C   0  0  0  0  0  0  0  0  0  0  0  0
   -3.0456   -3.2484    1.5533 C   0  0  0  0  0  0  0  0  0  0  0  0
   -1.7403   -4.2479    2.2191 S   0  0  0  0  0  0  0  0  0  0  0  0
   -1.7273   -3.6739    3.7914 N   0  0  0  0  0  0  0  0  0  0  0  0
   -2.1498   -5.6211    2.2612 O   0  0  0  0  0  0  0  0  0  0  0  0
   -0.4622   -3.8496    1.6439 O   0  0  0  0  0  0  0  0  0  0  0  0
   -5.9897   -4.9780    2.1769 H   0  0  0  0  0  0  0  0  0  0  0  0
   -4.6386   -4.9174    3.3018 H   0  0  0  0  0  0  0  0  0  0  0  0
   -4.5001   -5.7903    1.7338 H   0  0  0  0  0  0  0  0  0  0  0  0
   -6.3921   -3.0636    0.9794 H   0  0  0  0  0  0  0  0  0  0  0  0
   -5.7202   -0.9769   -0.0424 H   0  0  0  0  0  0  0  0  0  0  0  0
   -2.7861   -0.0487   -1.0900 H   0  0  0  0  0  0  0  0  0  0  0  0
   -6.1986    2.6478    1.7013 H   0  0  0  0  0  0  0  0  0  0  0  0
   -5.9727    4.3987   -0.0157 H   0  0  0  0  0  0  0  0  0  0  0  0
   -6.4145    4.7832   -2.0124 H   0  0  0  0  0  0  0  0  0  0  0  0
   -5.7406    4.8930   -3.6003 H   0  0  0  0  0  0  0  0  0  0  0  0
   -5.2804    6.0842   -2.3614 H   0  0  0  0  0  0  0  0  0  0  0  0
   -1.8749    3.8168   -1.2832 H   0  0  0  0  0  0  0  0  0  0  0  0
    0.3001    4.3637   -2.3620 H   0  0  0  0  0  0  0  0  0  0  0  0
    1.9974    5.1397   -3.8150 H   0  0  0  0  0  0  0  0  0  0  0  0
    2.0611    6.5230   -4.9105 H   0  0  0  0  0  0  0  0  0  0  0  0
    2.1971    4.8681   -5.5478 H   0  0  0  0  0  0  0  0  0  0  0  0
    1.2565    6.4186   -7.2389 H   0  0  0  0  0  0  0  0  0  0  0  0
   -0.2177    7.3951   -7.4948 H   0  0  0  0  0  0  0  0  0  0  0  0
   -0.1064    5.7306   -8.1636 H   0  0  0  0  0  0  0  0  0  0  0  0
   -4.1818    5.0992   -4.7781 H   0  0  0  0  0  0  0  0  0  0  0  0
   -1.6150   -1.7359    0.9687 H   0  0  0  0  0  0  0  0  0  0  0  0
   -1.9627   -4.4013    4.4630 H   0  0  0  0  0  0  0  0  0  0  0  0
   -0.9077   -3.1069    3.9894 H   0  0  0  0  0  0  0  0  0  0  0  0
  1  2  1  0  0  0  0
  1 32  1  0  0  0  0
  1 33  1  0  0  0  0
  1 34  1  0  0  0  0
  2  3  1  0  0  0  0
  2 27  2  0  0  0  0
  3  4  2  0  0  0  0
  3 35  1  0  0  0  0
  4  5  1  0  0  0  0
  4 36  1  0  0  0  0
  5  6  1  0  0  0  0
  5 26  2  0  0  0  0
  6  7  1  0  0  0  0
  6 37  1  0  0  0  0
  7  8  1  0  0  0  0
  7 25  2  0  0  0  0
  8  9  2  0  0  0  0
  9 10  1  0  0  0  0
  9 38  1  0  0  0  0
 10 11  2  0  0  0  0
 10 39  1  0  0  0  0
 11 12  1  0  0  0  0
 11 25  1  0  0  0  0
 12 13  1  0  0  0  0
 12 14  1  0  0  0  0
 13 40  1  0  0  0  0
 13 41  1  0  0  0  0
 13 42  1  0  0  0  0
 14 15  1  0  0  0  0
 14 24  2  0  0  0  0
 15 16  2  0  0  0  0
 15 43  1  0  0  0  0
 16 17  1  0  0  0  0
 16 44  1  0  0  0  0
 17 18  2  0  0  0  0
 17 23  1  0  0  0  0
 18 19  1  0  0  0  0
 18 20  1  0  0  0  0
 19 45  1  0  0  0  0
 19 46  1  0  0  0  0
 19 47  1  0  0  0  0
 20 21  1  0  0  0  0
 20 22  1  0  0  0  0
 21 48  1  0  0  0  0
 21 49  1  0  0  0  0
 21 50  1  0  0  0  0
 22 23  2  0  0  0  0
 23 24  1  0  0  0  0
 24 51  1  0  0  0  0
 26 27  1  0  0  0  0
 26 52  1  0  0  0  0
 27 28  1  0  0  0  0
 28 29  1  0  0  0  0
 28 30  2  0  0  0  0
 28 31  2  0  0  0  0
 29 53  1  0  0  0  0
 29 54  1  0  0  0  0
M  END
$$$$
