CHEMBL2409783
 OpenBabel04072215363D

 56 60  0  0  0  0  0  0  0  0999 V2000
   -2.3499    0.6256   -0.6857 C   0  0  0  0  0  0  0  0  0  0  0  0
   -1.0534    0.0180   -0.3034 C   0  0  0  0  0  0  0  0  0  0  0  0
   -0.6369   -1.3308   -0.3885 C   0  0  0  0  0  0  0  0  0  0  0  0
    0.6642   -1.3579    0.0873 C   0  0  0  0  0  0  0  0  0  0  0  0
    1.6172   -2.4317    0.2368 C   0  0  0  0  0  0  0  0  0  0  0  0
    2.7449   -2.2193    0.6577 O   0  0  0  0  0  0  0  0  0  0  0  0
    1.2065   -3.7072   -0.1641 N   0  0  0  0  0  0  0  0  0  0  0  0
    2.0353   -4.8543   -0.0522 C   0  0  0  0  0  0  0  0  0  0  0  0
    3.1087   -4.9078    0.8331 C   0  0  0  0  0  0  0  0  0  0  0  0
    3.9985   -5.9715    0.8155 C   0  0  0  0  0  0  0  0  0  0  0  0
    3.8132   -7.0556   -0.0523 C   0  0  0  0  0  0  0  0  0  0  0  0
    4.8933   -8.1021   -0.0414 C   0  0  0  0  0  0  0  0  0  0  0  0
    2.6484   -7.0869   -0.8444 C   0  0  0  0  0  0  0  0  0  0  0  0
    2.3759   -8.1995   -1.6374 O   0  0  0  0  0  0  0  0  0  0  0  0
    1.0430   -8.5362   -1.8808 C   0  0  0  0  0  0  0  0  0  0  0  0
    0.7164   -9.0216   -3.2218 C   0  0  0  0  0  0  0  0  0  0  0  0
   -0.5623   -9.2620   -3.5984 C   0  0  0  0  0  0  0  0  0  0  0  0
   -1.6247   -9.0727   -2.6628 C   0  0  0  0  0  0  0  0  0  0  0  0
   -2.9333   -9.2165   -2.7356 N   0  0  0  0  0  0  0  0  0  0  0  0
   -3.3590   -8.8263   -1.4923 C   0  0  0  0  0  0  0  0  0  0  0  0
   -4.7006   -8.8318   -1.2118 N   0  0  0  0  0  0  0  0  0  0  0  0
   -5.2507   -8.2390   -0.0998 C   0  0  0  0  0  0  0  0  0  0  0  0
   -4.6730   -7.6004    0.7684 O   0  0  0  0  0  0  0  0  0  0  0  0
   -6.7452   -8.3509   -0.0449 C   0  0  0  0  0  0  0  0  0  0  0  0
   -7.5637   -7.0823   -0.1495 C   0  0  0  0  0  0  0  0  0  0  0  0
   -7.5246   -7.8337    1.1475 C   0  0  0  0  0  0  0  0  0  0  0  0
   -2.3879   -8.4836   -0.6526 N   0  0  0  0  0  0  0  0  0  0  0  0
   -1.2729   -8.6573   -1.3820 N   0  0  0  0  0  0  0  0  0  0  0  0
    0.0355   -8.4286   -0.9857 C   0  0  0  0  0  0  0  0  0  0  0  0
    1.7934   -5.9595   -0.8681 C   0  0  0  0  0  0  0  0  0  0  0  0
    0.9320   -0.0453    0.4419 N   0  0  0  0  0  0  0  0  0  0  0  0
    2.1135    0.5443    1.0221 C   0  0  0  0  0  0  0  0  0  0  0  0
   -0.0948    0.7928    0.1981 N   0  0  0  0  0  0  0  0  0  0  0  0
   -3.0304   -0.1194   -1.1035 H   0  0  0  0  0  0  0  0  0  0  0  0
   -2.1940    1.4083   -1.4364 H   0  0  0  0  0  0  0  0  0  0  0  0
   -2.8289    1.0800    0.1879 H   0  0  0  0  0  0  0  0  0  0  0  0
   -1.2256   -2.1590   -0.7539 H   0  0  0  0  0  0  0  0  0  0  0  0
    0.3686   -3.7830   -0.7182 H   0  0  0  0  0  0  0  0  0  0  0  0
    3.3025   -4.1246    1.5575 H   0  0  0  0  0  0  0  0  0  0  0  0
    4.8571   -5.9259    1.4828 H   0  0  0  0  0  0  0  0  0  0  0  0
    5.7951   -7.7064    0.4522 H   0  0  0  0  0  0  0  0  0  0  0  0
    5.2000   -8.3697   -1.0546 H   0  0  0  0  0  0  0  0  0  0  0  0
    4.5807   -8.9840    0.5204 H   0  0  0  0  0  0  0  0  0  0  0  0
    1.5354   -9.1856   -3.9192 H   0  0  0  0  0  0  0  0  0  0  0  0
   -0.8058   -9.6051   -4.5988 H   0  0  0  0  0  0  0  0  0  0  0  0
   -5.2807   -9.2339   -1.9293 H   0  0  0  0  0  0  0  0  0  0  0  0
   -7.1552   -9.2414   -0.5119 H   0  0  0  0  0  0  0  0  0  0  0  0
   -8.4795   -7.1112   -0.7278 H   0  0  0  0  0  0  0  0  0  0  0  0
   -7.0423   -6.1319   -0.1851 H   0  0  0  0  0  0  0  0  0  0  0  0
   -8.4203   -8.3632    1.4514 H   0  0  0  0  0  0  0  0  0  0  0  0
   -6.9805   -7.3866    1.9737 H   0  0  0  0  0  0  0  0  0  0  0  0
    0.1658   -8.0958    0.0314 H   0  0  0  0  0  0  0  0  0  0  0  0
    0.9499   -5.9326   -1.5485 H   0  0  0  0  0  0  0  0  0  0  0  0
    2.9140   -0.1608    1.1900 H   0  0  0  0  0  0  0  0  0  0  0  0
    1.8341    0.9859    1.9829 H   0  0  0  0  0  0  0  0  0  0  0  0
    2.4714    1.3200    0.3410 H   0  0  0  0  0  0  0  0  0  0  0  0
  1  2  1  0  0  0  0
  1 34  1  0  0  0  0
  1 35  1  0  0  0  0
  1 36  1  0  0  0  0
  2  3  1  0  0  0  0
  2 33  2  0  0  0  0
  3  4  2  0  0  0  0
  3 37  1  0  0  0  0
  4  5  1  0  0  0  0
  4 31  1  0  0  0  0
  5  6  2  0  0  0  0
  5  7  1  0  0  0  0
  7  8  1  0  0  0  0
  7 38  1  0  0  0  0
  8  9  1  0  0  0  0
  8 30  2  0  0  0  0
  9 10  2  0  0  0  0
  9 39  1  0  0  0  0
 10 11  1  0  0  0  0
 10 40  1  0  0  0  0
 11 12  1  0  0  0  0
 11 13  2  0  0  0  0
 12 41  1  0  0  0  0
 12 42  1  0  0  0  0
 12 43  1  0  0  0  0
 13 14  1  0  0  0  0
 13 30  1  0  0  0  0
 14 15  1  0  0  0  0
 15 16  1  0  0  0  0
 15 29  2  0  0  0  0
 16 17  2  0  0  0  0
 16 44  1  0  0  0  0
 17 18  1  0  0  0  0
 17 45  1  0  0  0  0
 18 19  2  0  0  0  0
 18 28  1  0  0  0  0
 19 20  1  0  0  0  0
 20 21  1  0  0  0  0
 20 27  2  0  0  0  0
 21 22  1  0  0  0  0
 21 46  1  0  0  0  0
 22 23  2  0  0  0  0
 22 24  1  0  0  0  0
 24 25  1  0  0  0  0
 24 26  1  0  0  0  0
 24 47  1  0  0  0  0
 25 26  1  0  0  0  0
 25 48  1  0  0  0  0
 25 49  1  0  0  0  0
 26 50  1  0  0  0  0
 26 51  1  0  0  0  0
 27 28  1  0  0  0  0
 28 29  1  0  0  0  0
 29 52  1  0  0  0  0
 30 53  1  0  0  0  0
 31 32  1  0  0  0  0
 31 33  1  0  0  0  0
 32 54  1  0  0  0  0
 32 55  1  0  0  0  0
 32 56  1  0  0  0  0
M  END
$$$$
