CHEMBL4792576
 OpenBabel04072215383D

 72 77  0  0  0  0  0  0  0  0999 V2000
    7.0878   -8.3387   -6.6829 C   0  0  0  0  0  0  0  0  0  0  0  0
    7.0723   -7.3156   -5.6965 O   0  0  0  0  0  0  0  0  0  0  0  0
    6.5986   -6.0643   -5.9665 C   0  0  0  0  0  0  0  0  0  0  0  0
    6.2913   -5.6225   -7.2529 C   0  0  0  0  0  0  0  0  0  0  0  0
    5.7896   -4.3559   -7.5053 C   0  0  0  0  0  0  0  0  0  0  0  0
    5.5681   -4.0380   -8.7827 N   0  0  0  0  0  0  0  0  0  0  0  0
    5.1403   -2.7992   -9.0339 C   0  0  0  0  0  0  0  0  0  0  0  0
    4.8854   -1.8619   -8.1248 N   0  0  0  0  0  0  0  0  0  0  0  0
    5.0592   -2.2256   -6.8365 C   0  0  0  0  0  0  0  0  0  0  0  0
    4.7758   -1.2749   -5.8580 O   0  0  0  0  0  0  0  0  0  0  0  0
    3.7865   -0.3445   -6.1251 C   0  0  0  0  0  0  0  0  0  0  0  0
    2.6152   -0.6481   -6.8247 C   0  0  0  0  0  0  0  0  0  0  0  0
    1.6175    0.3202   -7.0006 C   0  0  0  0  0  0  0  0  0  0  0  0
    1.7361    1.5993   -6.4397 C   0  0  0  0  0  0  0  0  0  0  0  0
    0.6404    2.4867   -6.5281 N   0  0  0  0  0  0  0  0  0  0  0  0
    0.0811    3.2762   -5.4932 C   0  0  0  0  0  0  0  0  0  0  0  0
    0.8300    3.4985   -4.3843 N   0  0  0  0  0  0  0  0  0  0  0  0
    0.3282    4.2413   -3.3782 C   0  0  0  0  0  0  0  0  0  0  0  0
   -0.9398    4.7874   -3.4006 C   0  0  0  0  0  0  0  0  0  0  0  0
   -1.7381    4.5492   -4.5125 C   0  0  0  0  0  0  0  0  0  0  0  0
   -3.0241    5.1096   -4.5856 N   0  0  0  0  0  0  0  0  0  0  0  0
   -3.8641    4.7816   -5.6149 C   0  0  0  0  0  0  0  0  0  0  0  0
   -3.5411    4.0582   -6.6974 C   0  0  0  0  0  0  0  0  0  0  0  0
   -4.5533    3.6948   -7.7284 C   0  0  0  0  0  0  0  0  0  0  0  0
   -4.2110    3.5972   -9.0875 C   0  0  0  0  0  0  0  0  0  0  0  0
   -5.1340    3.1403  -10.0359 C   0  0  0  0  0  0  0  0  0  0  0  0
   -6.4168    2.7959   -9.6362 C   0  0  0  0  0  0  0  0  0  0  0  0
   -7.2893    2.3249  -10.5366 F   0  0  0  0  0  0  0  0  0  0  0  0
   -6.8024    2.9231   -8.3101 C   0  0  0  0  0  0  0  0  0  0  0  0
   -5.8753    3.3694   -7.3612 C   0  0  0  0  0  0  0  0  0  0  0  0
   -2.1019    3.5789   -6.7672 C   0  0  0  0  0  0  0  0  0  0  0  0
   -1.6697    2.9580   -7.7363 O   0  0  0  0  0  0  0  0  0  0  0  0
   -1.2143    3.8185   -5.5930 C   0  0  0  0  0  0  0  0  0  0  0  0
    2.9140    1.8961   -5.7421 C   0  0  0  0  0  0  0  0  0  0  0  0
    3.9230    0.9358   -5.5909 C   0  0  0  0  0  0  0  0  0  0  0  0
    5.0285    1.2652   -4.9048 F   0  0  0  0  0  0  0  0  0  0  0  0
    5.5532   -3.4798   -6.4422 C   0  0  0  0  0  0  0  0  0  0  0  0
    5.8454   -3.9112   -5.1230 C   0  0  0  0  0  0  0  0  0  0  0  0
    6.4220   -5.1705   -4.8924 C   0  0  0  0  0  0  0  0  0  0  0  0
    6.7779   -5.3857   -3.5786 O   0  0  0  0  0  0  0  0  0  0  0  0
    7.8575   -6.3113   -3.3825 C   0  0  0  0  0  0  0  0  0  0  0  0
    8.5024   -6.1435   -1.9951 C   0  0  0  0  0  0  0  0  0  0  0  0
    7.4734   -6.2748   -0.8739 C   0  0  0  0  0  0  0  0  0  0  0  0
    9.6143   -7.1872   -1.8523 C   0  0  0  0  0  0  0  0  0  0  0  0
    9.1087   -4.8506   -1.8914 O   0  0  0  0  0  0  0  0  0  0  0  0
    8.1179   -8.5071   -7.0125 H   0  0  0  0  0  0  0  0  0  0  0  0
    6.4411   -8.1681   -7.5446 H   0  0  0  0  0  0  0  0  0  0  0  0
    6.7345   -9.2568   -6.2028 H   0  0  0  0  0  0  0  0  0  0  0  0
    6.4657   -6.2489   -8.1215 H   0  0  0  0  0  0  0  0  0  0  0  0
    4.9839   -2.5370  -10.0740 H   0  0  0  0  0  0  0  0  0  0  0  0
    2.4569   -1.6371   -7.2428 H   0  0  0  0  0  0  0  0  0  0  0  0
    0.7230    0.0461   -7.5553 H   0  0  0  0  0  0  0  0  0  0  0  0
   -0.0765    2.2000   -7.1994 H   0  0  0  0  0  0  0  0  0  0  0  0
    0.9899    4.3814   -2.5332 H   0  0  0  0  0  0  0  0  0  0  0  0
   -1.2883    5.3780   -2.5608 H   0  0  0  0  0  0  0  0  0  0  0  0
   -3.4480    5.4247   -3.7200 H   0  0  0  0  0  0  0  0  0  0  0  0
   -4.8692    5.1665   -5.4611 H   0  0  0  0  0  0  0  0  0  0  0  0
   -3.2096    3.8529   -9.4285 H   0  0  0  0  0  0  0  0  0  0  0  0
   -4.8485    3.0351  -11.0779 H   0  0  0  0  0  0  0  0  0  0  0  0
   -7.8127    2.6539   -8.0173 H   0  0  0  0  0  0  0  0  0  0  0  0
   -6.2009    3.4274   -6.3249 H   0  0  0  0  0  0  0  0  0  0  0  0
    3.0636    2.8767   -5.3011 H   0  0  0  0  0  0  0  0  0  0  0  0
    5.6658   -3.2463   -4.2799 H   0  0  0  0  0  0  0  0  0  0  0  0
    8.6352   -6.1397   -4.1388 H   0  0  0  0  0  0  0  0  0  0  0  0
    7.4619   -7.3309   -3.4439 H   0  0  0  0  0  0  0  0  0  0  0  0
    7.0554   -7.2853   -0.8288 H   0  0  0  0  0  0  0  0  0  0  0  0
    6.6480   -5.5672   -1.0109 H   0  0  0  0  0  0  0  0  0  0  0  0
    7.9221   -6.0349    0.0964 H   0  0  0  0  0  0  0  0  0  0  0  0
    9.2360   -8.2018   -2.0206 H   0  0  0  0  0  0  0  0  0  0  0  0
   10.0749   -7.1495   -0.8601 H   0  0  0  0  0  0  0  0  0  0  0  0
   10.4158   -6.9993   -2.5774 H   0  0  0  0  0  0  0  0  0  0  0  0
    8.4080   -4.1976   -2.0723 H   0  0  0  0  0  0  0  0  0  0  0  0
  1  2  1  0  0  0  0
  1 46  1  0  0  0  0
  1 47  1  0  0  0  0
  1 48  1  0  0  0  0
  2  3  1  0  0  0  0
  3  4  1  0  0  0  0
  3 39  2  0  0  0  0
  4  5  2  0  0  0  0
  4 49  1  0  0  0  0
  5  6  1  0  0  0  0
  5 37  1  0  0  0  0
  6  7  2  0  0  0  0
  7  8  1  0  0  0  0
  7 50  1  0  0  0  0
  8  9  2  0  0  0  0
  9 10  1  0  0  0  0
  9 37  1  0  0  0  0
 10 11  1  0  0  0  0
 11 12  1  0  0  0  0
 11 35  2  0  0  0  0
 12 13  2  0  0  0  0
 12 51  1  0  0  0  0
 13 14  1  0  0  0  0
 13 52  1  0  0  0  0
 14 15  1  0  0  0  0
 14 34  2  0  0  0  0
 15 16  1  0  0  0  0
 15 53  1  0  0  0  0
 16 17  1  0  0  0  0
 16 33  2  0  0  0  0
 17 18  2  0  0  0  0
 18 19  1  0  0  0  0
 18 54  1  0  0  0  0
 19 20  2  0  0  0  0
 19 55  1  0  0  0  0
 20 21  1  0  0  0  0
 20 33  1  0  0  0  0
 21 22  1  0  0  0  0
 21 56  1  0  0  0  0
 22 23  2  0  0  0  0
 22 57  1  0  0  0  0
 23 24  1  0  0  0  0
 23 31  1  0  0  0  0
 24 25  1  0  0  0  0
 24 30  2  0  0  0  0
 25 26  2  0  0  0  0
 25 58  1  0  0  0  0
 26 27  1  0  0  0  0
 26 59  1  0  0  0  0
 27 28  1  0  0  0  0
 27 29  2  0  0  0  0
 29 30  1  0  0  0  0
 29 60  1  0  0  0  0
 30 61  1  0  0  0  0
 31 32  2  0  0  0  0
 31 33  1  0  0  0  0
 34 35  1  0  0  0  0
 34 62  1  0  0  0  0
 35 36  1  0  0  0  0
 37 38  2  0  0  0  0
 38 39  1  0  0  0  0
 38 63  1  0  0  0  0
 39 40  1  0  0  0  0
 40 41  1  0  0  0  0
 41 42  1  0  0  0  0
 41 64  1  0  0  0  0
 41 65  1  0  0  0  0
 42 43  1  0  0  0  0
 42 44  1  0  0  0  0
 42 45  1  0  0  0  0
 43 66  1  0  0  0  0
 43 67  1  0  0  0  0
 43 68  1  0  0  0  0
 44 69  1  0  0  0  0
 44 70  1  0  0  0  0
 44 71  1  0  0  0  0
 45 72  1  0  0  0  0
M  END
$$$$
