CHEMBL2386788
 OpenBabel04072215363D

 65 69  0  0  0  0  0  0  0  0999 V2000
   -6.2279    1.6950   -0.3495 C   0  0  0  0  0  0  0  0  0  0  0  0
   -5.3420    0.5260   -0.2460 C   0  0  0  0  0  0  0  0  0  0  0  0
   -3.9895    0.3391   -0.0998 C   0  0  0  0  0  0  0  0  0  0  0  0
   -3.8328   -1.0646   -0.0540 C   0  0  0  0  0  0  0  0  0  0  0  0
   -2.6318   -1.7182    0.1169 N   0  0  0  0  0  0  0  0  0  0  0  0
   -2.4344   -3.0658    0.2478 C   0  0  0  0  0  0  0  0  0  0  0  0
   -1.3085   -3.4710    0.5348 O   0  0  0  0  0  0  0  0  0  0  0  0
   -3.5219   -3.8661    0.0055 N   0  0  0  0  0  0  0  0  0  0  0  0
   -3.4927   -5.2586    0.0960 C   0  0  0  0  0  0  0  0  0  0  0  0
   -2.9492   -5.8873    1.2124 C   0  0  0  0  0  0  0  0  0  0  0  0
   -2.9030   -7.2766    1.2636 C   0  0  0  0  0  0  0  0  0  0  0  0
   -3.3639   -8.0449    0.1822 C   0  0  0  0  0  0  0  0  0  0  0  0
   -3.2546   -9.4972    0.2367 C   0  0  0  0  0  0  0  0  0  0  0  0
   -3.3520  -10.2904    1.4044 C   0  0  0  0  0  0  0  0  0  0  0  0
   -3.1374  -11.5857    1.0099 C   0  0  0  0  0  0  0  0  0  0  0  0
   -3.1264  -12.7334    1.7910 N   0  0  0  0  0  0  0  0  0  0  0  0
   -3.4008  -12.7101    3.2093 C   0  0  0  0  0  0  0  0  0  0  0  0
   -3.6592  -11.6682    3.7903 O   0  0  0  0  0  0  0  0  0  0  0  0
   -3.3892  -13.9874    3.9409 C   0  0  0  0  0  0  0  0  0  0  0  0
   -2.6379  -15.0811    3.5252 C   0  0  0  0  0  0  0  0  0  0  0  0
   -2.6586  -16.2494    4.2920 C   0  0  0  0  0  0  0  0  0  0  0  0
   -3.4021  -16.3529    5.4815 C   0  0  0  0  0  0  0  0  0  0  0  0
   -3.3252  -17.5097    6.2290 N   0  0  0  0  0  0  0  0  0  0  0  0
   -3.6103  -17.5337    7.6739 C   0  0  0  0  0  0  0  0  0  0  0  0
   -2.7817  -18.6689    8.3286 C   0  0  0  0  0  0  0  0  0  0  0  0
   -3.0230  -19.9924    7.7051 N   0  0  0  0  0  0  0  0  0  0  0  0
   -2.1621  -21.0083    8.3070 C   0  0  0  0  0  0  0  0  0  0  0  0
   -2.7733  -19.9060    6.2480 C   0  0  0  0  0  0  0  0  0  0  0  0
   -3.6106  -18.7990    5.5720 C   0  0  0  0  0  0  0  0  0  0  0  0
   -4.1303  -15.2309    5.8862 C   0  0  0  0  0  0  0  0  0  0  0  0
   -4.1299  -14.0592    5.1283 C   0  0  0  0  0  0  0  0  0  0  0  0
   -2.9243  -11.5091   -0.3414 N   0  0  0  0  0  0  0  0  0  0  0  0
   -3.0258  -10.2649   -0.8394 N   0  0  0  0  0  0  0  0  0  0  0  0
   -3.9301   -7.4025   -0.9241 C   0  0  0  0  0  0  0  0  0  0  0  0
   -4.0305   -6.0102   -0.9493 C   0  0  0  0  0  0  0  0  0  0  0  0
   -5.0147   -1.6764   -0.2007 N   0  0  0  0  0  0  0  0  0  0  0  0
   -5.9573   -0.6816   -0.3011 O   0  0  0  0  0  0  0  0  0  0  0  0
   -5.6580    2.6268   -0.3234 H   0  0  0  0  0  0  0  0  0  0  0  0
   -6.9420    1.7031    0.4796 H   0  0  0  0  0  0  0  0  0  0  0  0
   -6.7902    1.6596   -1.2872 H   0  0  0  0  0  0  0  0  0  0  0  0
   -3.2304    1.1025   -0.0269 H   0  0  0  0  0  0  0  0  0  0  0  0
   -1.7974   -1.1642    0.2425 H   0  0  0  0  0  0  0  0  0  0  0  0
   -4.2230   -3.4469   -0.5961 H   0  0  0  0  0  0  0  0  0  0  0  0
   -2.5808   -5.3048    2.0531 H   0  0  0  0  0  0  0  0  0  0  0  0
   -2.4774   -7.7425    2.1485 H   0  0  0  0  0  0  0  0  0  0  0  0
   -3.5562   -9.9153    2.3961 H   0  0  0  0  0  0  0  0  0  0  0  0
   -2.9777  -13.6223    1.3313 H   0  0  0  0  0  0  0  0  0  0  0  0
   -1.9984  -15.0517    2.6509 H   0  0  0  0  0  0  0  0  0  0  0  0
   -2.0257  -17.0795    3.9842 H   0  0  0  0  0  0  0  0  0  0  0  0
   -4.6819  -17.6956    7.8483 H   0  0  0  0  0  0  0  0  0  0  0  0
   -3.3255  -16.5897    8.1537 H   0  0  0  0  0  0  0  0  0  0  0  0
   -3.0313  -18.7119    9.3950 H   0  0  0  0  0  0  0  0  0  0  0  0
   -1.7170  -18.4067    8.2498 H   0  0  0  0  0  0  0  0  0  0  0  0
   -2.3685  -21.0992    9.3786 H   0  0  0  0  0  0  0  0  0  0  0  0
   -1.0974  -20.7816    8.1776 H   0  0  0  0  0  0  0  0  0  0  0  0
   -2.3611  -21.9890    7.8612 H   0  0  0  0  0  0  0  0  0  0  0  0
   -3.0184  -20.8632    5.7738 H   0  0  0  0  0  0  0  0  0  0  0  0
   -1.7101  -19.7037    6.0568 H   0  0  0  0  0  0  0  0  0  0  0  0
   -4.6811  -19.0268    5.6622 H   0  0  0  0  0  0  0  0  0  0  0  0
   -3.3775  -18.7897    4.5019 H   0  0  0  0  0  0  0  0  0  0  0  0
   -4.7206  -15.2504    6.7986 H   0  0  0  0  0  0  0  0  0  0  0  0
   -4.7022  -13.2018    5.4791 H   0  0  0  0  0  0  0  0  0  0  0  0
   -2.7041  -12.2549   -0.9907 H   0  0  0  0  0  0  0  0  0  0  0  0
   -4.2874   -7.9796   -1.7735 H   0  0  0  0  0  0  0  0  0  0  0  0
   -4.4609   -5.5211   -1.8188 H   0  0  0  0  0  0  0  0  0  0  0  0
  1  2  1  0  0  0  0
  1 38  1  0  0  0  0
  1 39  1  0  0  0  0
  1 40  1  0  0  0  0
  2  3  2  0  0  0  0
  2 37  1  0  0  0  0
  3  4  1  0  0  0  0
  3 41  1  0  0  0  0
  4  5  1  0  0  0  0
  4 36  2  0  0  0  0
  5  6  1  0  0  0  0
  5 42  1  0  0  0  0
  6  7  2  0  0  0  0
  6  8  1  0  0  0  0
  8  9  1  0  0  0  0
  8 43  1  0  0  0  0
  9 10  1  0  0  0  0
  9 35  2  0  0  0  0
 10 11  2  0  0  0  0
 10 44  1  0  0  0  0
 11 12  1  0  0  0  0
 11 45  1  0  0  0  0
 12 13  1  0  0  0  0
 12 34  2  0  0  0  0
 13 14  1  0  0  0  0
 13 33  2  0  0  0  0
 14 15  2  0  0  0  0
 14 46  1  0  0  0  0
 15 16  1  0  0  0  0
 15 32  1  0  0  0  0
 16 17  1  0  0  0  0
 16 47  1  0  0  0  0
 17 18  2  0  0  0  0
 17 19  1  0  0  0  0
 19 20  1  0  0  0  0
 19 31  2  0  0  0  0
 20 21  2  0  0  0  0
 20 48  1  0  0  0  0
 21 22  1  0  0  0  0
 21 49  1  0  0  0  0
 22 23  1  0  0  0  0
 22 30  2  0  0  0  0
 23 24  1  0  0  0  0
 23 29  1  0  0  0  0
 24 25  1  0  0  0  0
 24 50  1  0  0  0  0
 24 51  1  0  0  0  0
 25 26  1  0  0  0  0
 25 52  1  0  0  0  0
 25 53  1  0  0  0  0
 26 27  1  0  0  0  0
 26 28  1  0  0  0  0
 27 54  1  0  0  0  0
 27 55  1  0  0  0  0
 27 56  1  0  0  0  0
 28 29  1  0  0  0  0
 28 57  1  0  0  0  0
 28 58  1  0  0  0  0
 29 59  1  0  0  0  0
 29 60  1  0  0  0  0
 30 31  1  0  0  0  0
 30 61  1  0  0  0  0
 31 62  1  0  0  0  0
 32 33  1  0  0  0  0
 32 63  1  0  0  0  0
 34 35  1  0  0  0  0
 34 64  1  0  0  0  0
 35 65  1  0  0  0  0
 36 37  1  0  0  0  0
M  END
$$$$
