CHEMBL3288517
 OpenBabel04072215363D

 47 51  0  0  0  0  0  0  0  0999 V2000
   -3.4904    3.0166    1.5105 N   0  0  0  0  0  0  0  0  0  0  0  0
   -3.2478    1.7051    1.3630 C   0  0  0  0  0  0  0  0  0  0  0  0
   -4.1397    0.8210    1.7975 N   0  0  0  0  0  0  0  0  0  0  0  0
   -3.6153   -0.3555    1.4526 N   0  0  0  0  0  0  0  0  0  0  0  0
   -2.4113   -0.2724    0.8094 C   0  0  0  0  0  0  0  0  0  0  0  0
   -1.6069   -1.2899    0.2905 C   0  0  0  0  0  0  0  0  0  0  0  0
   -0.4091   -0.9132   -0.3001 C   0  0  0  0  0  0  0  0  0  0  0  0
   -0.0358    0.4275   -0.3490 C   0  0  0  0  0  0  0  0  0  0  0  0
   -0.8448    1.4751    0.1686 C   0  0  0  0  0  0  0  0  0  0  0  0
   -0.3745    2.8793    0.0927 C   0  0  0  0  0  0  0  0  0  0  0  0
    0.4035    3.3405   -0.9793 C   0  0  0  0  0  0  0  0  0  0  0  0
    0.8630    4.6643   -1.0449 C   0  0  0  0  0  0  0  0  0  0  0  0
    0.4675    5.6350   -0.0968 C   0  0  0  0  0  0  0  0  0  0  0  0
    0.7926    7.0213   -0.1280 C   0  0  0  0  0  0  0  0  0  0  0  0
    1.6677    7.6674   -1.1438 C   0  0  0  0  0  0  0  0  0  0  0  0
    2.4709    8.5006   -0.7404 O   0  0  0  0  0  0  0  0  0  0  0  0
    1.4417    7.3347   -2.4703 N   0  0  0  0  0  0  0  0  0  0  0  0
    2.1201    7.8693   -3.5912 C   0  0  0  0  0  0  0  0  0  0  0  0
    3.2460    8.6932   -3.4931 C   0  0  0  0  0  0  0  0  0  0  0  0
    3.8093    9.2768   -4.6290 C   0  0  0  0  0  0  0  0  0  0  0  0
    3.2625    9.0288   -5.8854 C   0  0  0  0  0  0  0  0  0  0  0  0
    2.1750    8.1665   -5.9944 C   0  0  0  0  0  0  0  0  0  0  0  0
    1.4338    7.8178   -7.7005 Br  0  0  0  0  0  0  0  0  0  0  0  0
    1.6109    7.5749   -4.8612 C   0  0  0  0  0  0  0  0  0  0  0  0
    0.3248    7.8882    0.8786 C   0  0  0  0  0  0  0  0  0  0  0  0
   -0.4562    7.4111    1.9224 C   0  0  0  0  0  0  0  0  0  0  0  0
   -0.7560    6.0566    1.9834 C   0  0  0  0  0  0  0  0  0  0  0  0
   -0.3044    5.1698    0.9946 C   0  0  0  0  0  0  0  0  0  0  0  0
   -0.6336    3.8086    1.1052 C   0  0  0  0  0  0  0  0  0  0  0  0
   -2.0954    1.0911    0.7557 C   0  0  0  0  0  0  0  0  0  0  0  0
   -4.4211    3.2464    1.8414 H   0  0  0  0  0  0  0  0  0  0  0  0
   -3.1482    3.6663    0.8135 H   0  0  0  0  0  0  0  0  0  0  0  0
   -4.1334   -1.1958    1.6790 H   0  0  0  0  0  0  0  0  0  0  0  0
   -1.8978   -2.3334    0.3484 H   0  0  0  0  0  0  0  0  0  0  0  0
    0.2506   -1.6708   -0.7157 H   0  0  0  0  0  0  0  0  0  0  0  0
    0.9321    0.6572   -0.7925 H   0  0  0  0  0  0  0  0  0  0  0  0
    0.6844    2.6703   -1.7894 H   0  0  0  0  0  0  0  0  0  0  0  0
    1.5327    4.9121   -1.8645 H   0  0  0  0  0  0  0  0  0  0  0  0
    0.6375    6.7528   -2.6671 H   0  0  0  0  0  0  0  0  0  0  0  0
    3.7114    8.9133   -2.5365 H   0  0  0  0  0  0  0  0  0  0  0  0
    4.6653    9.9399   -4.5249 H   0  0  0  0  0  0  0  0  0  0  0  0
    3.6878    9.5106   -6.7603 H   0  0  0  0  0  0  0  0  0  0  0  0
    0.7582    6.9121   -4.9744 H   0  0  0  0  0  0  0  0  0  0  0  0
    0.5800    8.9470    0.8506 H   0  0  0  0  0  0  0  0  0  0  0  0
   -0.8176    8.0877    2.6923 H   0  0  0  0  0  0  0  0  0  0  0  0
   -1.3641    5.6942    2.8117 H   0  0  0  0  0  0  0  0  0  0  0  0
   -1.1269    3.4701    2.0160 H   0  0  0  0  0  0  0  0  0  0  0  0
  1  2  1  0  0  0  0
  1 31  1  0  0  0  0
  1 32  1  0  0  0  0
  2  3  2  0  0  0  0
  2 30  1  0  0  0  0
  3  4  1  0  0  0  0
  4  5  1  0  0  0  0
  4 33  1  0  0  0  0
  5  6  1  0  0  0  0
  5 30  2  0  0  0  0
  6  7  2  0  0  0  0
  6 34  1  0  0  0  0
  7  8  1  0  0  0  0
  7 35  1  0  0  0  0
  8  9  2  0  0  0  0
  8 36  1  0  0  0  0
  9 10  1  0  0  0  0
  9 30  1  0  0  0  0
 10 11  1  0  0  0  0
 10 29  2  0  0  0  0
 11 12  2  0  0  0  0
 11 37  1  0  0  0  0
 12 13  1  0  0  0  0
 12 38  1  0  0  0  0
 13 14  1  0  0  0  0
 13 28  2  0  0  0  0
 14 15  1  0  0  0  0
 14 25  2  0  0  0  0
 15 16  2  0  0  0  0
 15 17  1  0  0  0  0
 17 18  1  0  0  0  0
 17 39  1  0  0  0  0
 18 19  1  0  0  0  0
 18 24  2  0  0  0  0
 19 20  2  0  0  0  0
 19 40  1  0  0  0  0
 20 21  1  0  0  0  0
 20 41  1  0  0  0  0
 21 22  2  0  0  0  0
 21 42  1  0  0  0  0
 22 23  1  0  0  0  0
 22 24  1  0  0  0  0
 24 43  1  0  0  0  0
 25 26  1  0  0  0  0
 25 44  1  0  0  0  0
 26 27  2  0  0  0  0
 26 45  1  0  0  0  0
 27 28  1  0  0  0  0
 27 46  1  0  0  0  0
 28 29  1  0  0  0  0
 29 47  1  0  0  0  0
M  END
$$$$
