CHEMBL382647
 OpenBabel04072215373D

 47 50  0  0  0  0  0  0  0  0999 V2000
    1.1322    0.7123    0.4660 O   0  0  0  0  0  0  0  0  0  0  0  0
    2.2502    0.3361    0.1214 C   0  0  0  0  0  0  0  0  0  0  0  0
    2.7876    0.6201   -1.1217 N   0  0  0  0  0  0  0  0  0  0  0  0
    2.1737    1.3901   -2.1330 C   0  0  0  0  0  0  0  0  0  0  0  0
    1.0904    2.2408   -1.9071 C   0  0  0  0  0  0  0  0  0  0  0  0
    0.4838    2.9375   -2.9613 C   0  0  0  0  0  0  0  0  0  0  0  0
    0.9318    2.7973   -4.2760 C   0  0  0  0  0  0  0  0  0  0  0  0
    0.3438    3.4463   -5.3424 N   0  0  0  0  0  0  0  0  0  0  0  0
   -0.3617    4.7323   -5.2034 C   0  0  0  0  0  0  0  0  0  0  0  0
   -1.8766    4.5691   -5.3886 C   0  0  0  0  0  0  0  0  0  0  0  0
   -2.1902    3.8928   -6.6171 O   0  0  0  0  0  0  0  0  0  0  0  0
   -1.5992    2.5838   -6.6193 C   0  0  0  0  0  0  0  0  0  0  0  0
   -0.0665    2.6523   -6.5178 C   0  0  0  0  0  0  0  0  0  0  0  0
    2.0497    1.9722   -4.4799 C   0  0  0  0  0  0  0  0  0  0  0  0
    2.6753    1.2892   -3.4278 C   0  0  0  0  0  0  0  0  0  0  0  0
    3.0676   -0.4824    1.0055 C   0  0  0  0  0  0  0  0  0  0  0  0
    4.6712   -0.9578    0.6193 S   0  0  0  0  0  0  0  0  0  0  0  0
    4.7769   -1.7932    2.1065 C   0  0  0  0  0  0  0  0  0  0  0  0
    3.7075   -1.7542    2.8684 N   0  0  0  0  0  0  0  0  0  0  0  0
    2.7179   -0.9973    2.2530 C   0  0  0  0  0  0  0  0  0  0  0  0
    1.3902   -0.8526    2.9447 C   0  0  0  0  0  0  0  0  0  0  0  0
    1.4694   -0.8623    4.4715 C   0  0  0  0  0  0  0  0  0  0  0  0
    0.1304   -0.6491    5.0889 C   0  0  0  0  0  0  0  0  0  0  0  0
   -0.8237   -1.6197    5.4679 C   0  0  0  0  0  0  0  0  0  0  0  0
   -1.9296   -1.0731    5.9774 N   0  0  0  0  0  0  0  0  0  0  0  0
   -1.7132    0.2945    5.9345 O   0  0  0  0  0  0  0  0  0  0  0  0
   -0.4892    0.5380    5.4040 C   0  0  0  0  0  0  0  0  0  0  0  0
    3.6403    0.1342   -1.3662 H   0  0  0  0  0  0  0  0  0  0  0  0
    0.6848    2.4020   -0.9112 H   0  0  0  0  0  0  0  0  0  0  0  0
   -0.3702    3.5597   -2.7249 H   0  0  0  0  0  0  0  0  0  0  0  0
    0.0164    5.3914   -5.9948 H   0  0  0  0  0  0  0  0  0  0  0  0
   -0.1424    5.2333   -4.2546 H   0  0  0  0  0  0  0  0  0  0  0  0
   -2.3495    5.5559   -5.4289 H   0  0  0  0  0  0  0  0  0  0  0  0
   -2.3260    4.0184   -4.5546 H   0  0  0  0  0  0  0  0  0  0  0  0
   -1.8845    2.0944   -7.5559 H   0  0  0  0  0  0  0  0  0  0  0  0
   -2.0266    2.0002   -5.7951 H   0  0  0  0  0  0  0  0  0  0  0  0
    0.3350    3.1460   -7.4107 H   0  0  0  0  0  0  0  0  0  0  0  0
    0.3307    1.6312   -6.4991 H   0  0  0  0  0  0  0  0  0  0  0  0
    2.4657    1.8724   -5.4805 H   0  0  0  0  0  0  0  0  0  0  0  0
    3.5335    0.6637   -3.6518 H   0  0  0  0  0  0  0  0  0  0  0  0
    5.6733   -2.3261    2.3999 H   0  0  0  0  0  0  0  0  0  0  0  0
    0.7325   -1.6585    2.5954 H   0  0  0  0  0  0  0  0  0  0  0  0
    0.9157    0.0894    2.6534 H   0  0  0  0  0  0  0  0  0  0  0  0
    2.1550   -0.0752    4.8120 H   0  0  0  0  0  0  0  0  0  0  0  0
    1.8851   -1.8132    4.8255 H   0  0  0  0  0  0  0  0  0  0  0  0
   -0.7634   -2.6964    5.3907 H   0  0  0  0  0  0  0  0  0  0  0  0
   -0.2208    1.5805    5.3146 H   0  0  0  0  0  0  0  0  0  0  0  0
  1  2  2  0  0  0  0
  2  3  1  0  0  0  0
  2 16  1  0  0  0  0
  3  4  1  0  0  0  0
  3 28  1  0  0  0  0
  4  5  1  0  0  0  0
  4 15  2  0  0  0  0
  5  6  2  0  0  0  0
  5 29  1  0  0  0  0
  6  7  1  0  0  0  0
  6 30  1  0  0  0  0
  7  8  1  0  0  0  0
  7 14  2  0  0  0  0
  8  9  1  0  0  0  0
  8 13  1  0  0  0  0
  9 10  1  0  0  0  0
  9 31  1  0  0  0  0
  9 32  1  0  0  0  0
 10 11  1  0  0  0  0
 10 33  1  0  0  0  0
 10 34  1  0  0  0  0
 11 12  1  0  0  0  0
 12 13  1  0  0  0  0
 12 35  1  0  0  0  0
 12 36  1  0  0  0  0
 13 37  1  0  0  0  0
 13 38  1  0  0  0  0
 14 15  1  0  0  0  0
 14 39  1  0  0  0  0
 15 40  1  0  0  0  0
 16 17  1  0  0  0  0
 16 20  2  0  0  0  0
 17 18  1  0  0  0  0
 18 19  2  0  0  0  0
 18 41  1  0  0  0  0
 19 20  1  0  0  0  0
 20 21  1  0  0  0  0
 21 22  1  0  0  0  0
 21 42  1  0  0  0  0
 21 43  1  0  0  0  0
 22 23  1  0  0  0  0
 22 44  1  0  0  0  0
 22 45  1  0  0  0  0
 23 24  1  0  0  0  0
 23 27  2  0  0  0  0
 24 25  2  0  0  0  0
 24 46  1  0  0  0  0
 25 26  1  0  0  0  0
 26 27  1  0  0  0  0
 27 47  1  0  0  0  0
M  END
$$$$
