CHEMBL3648081
 OpenBabel04072215373D

 68 69  0  0  1  0  0  0  0  0999 V2000
    2.1731    1.0095   -1.1458 C   0  0  0  0  0  0  0  0  0  0  0  0
    2.7293   -0.3064   -0.6144 C   0  0  2  0  0  0  0  0  0  0  0  0
    3.0897   -0.0814    0.7543 O   0  0  0  0  0  0  0  0  0  0  0  0
    3.9251   -0.8981   -1.4464 C   0  0  1  0  0  0  0  0  0  0  0  0
    3.3961   -1.1174   -2.8699 C   0  0  0  0  0  0  0  0  0  0  0  0
    5.0593    0.0265   -1.4477 O   0  0  0  0  0  0  0  0  0  0  0  0
    6.2451   -0.3900   -2.0674 C   0  0  0  0  0  0  0  0  0  0  0  0
    6.4661   -1.7303   -2.1508 N   0  0  0  0  0  0  0  0  0  0  0  0
    7.6728   -2.1317   -2.5959 C   0  0  0  0  0  0  0  0  0  0  0  0
    8.0795   -3.4678   -2.5192 N   0  0  0  0  0  0  0  0  0  0  0  0
    8.9427   -4.1209   -3.4304 C   0  0  0  0  0  0  0  0  0  0  0  0
    9.5555   -3.4415   -4.4996 C   0  0  0  0  0  0  0  0  0  0  0  0
   10.2909   -4.0754   -5.5053 C   0  0  0  0  0  0  0  0  0  0  0  0
   10.4813   -5.4404   -5.4180 C   0  0  0  0  0  0  0  0  0  0  0  0
   11.3348   -6.3345   -6.6672 S   0  0  3  0  0  0  0  0  0  0  0  0
   11.9901   -7.4853   -6.0442 O   0  0  0  0  0  0  0  0  0  0  0  0
   10.2061   -6.8221   -7.9351 C   0  0  0  0  0  0  0  0  0  0  0  0
    9.0646   -7.6933   -7.4493 C   0  0  0  0  0  0  0  0  0  0  0  0
    8.2090   -8.0246   -8.5395 O   0  0  0  0  0  0  0  0  0  0  0  0
   12.4272   -5.3234   -7.4420 N   0  0  0  0  0  0  0  0  0  0  0  0
   13.3640   -5.9300   -8.7391 S   0  0  0  0  0  0  0  0  0  0  0  0
   14.5781   -5.1133   -8.8724 O   0  0  0  0  0  0  0  0  0  0  0  0
   13.4383   -7.3527   -8.6668 O   0  0  0  0  0  0  0  0  0  0  0  0
   12.3345   -5.5272  -10.1572 C   0  0  0  0  0  0  0  0  0  0  0  0
   12.9898   -5.9961  -11.4612 C   0  0  0  0  0  0  0  0  0  0  0  0
   12.0057   -5.6733  -13.0570 Si  0  0  0  0  0  0  0  0  0  0  0  0
   12.9907   -6.3171  -14.5208 C   0  0  0  0  0  0  0  0  0  0  0  0
   10.3600   -6.5630  -12.9504 C   0  0  0  0  0  0  0  0  0  0  0  0
   11.7080   -3.8357  -13.2772 C   0  0  0  0  0  0  0  0  0  0  0  0
    9.9933   -6.1336   -4.3031 C   0  0  0  0  0  0  0  0  0  0  0  0
    9.2235   -5.4843   -3.3204 C   0  0  0  0  0  0  0  0  0  0  0  0
    8.5790   -1.2726   -3.0847 N   0  0  0  0  0  0  0  0  0  0  0  0
    8.3414    0.0236   -3.0175 C   0  0  0  0  0  0  0  0  0  0  0  0
    7.2197    0.5428   -2.4279 C   0  0  0  0  0  0  0  0  0  0  0  0
    7.3403    2.3688   -1.9902 Br  0  0  0  0  0  0  0  0  0  0  0  0
    1.7682    0.9163   -2.1565 H   0  0  0  0  0  0  0  0  0  0  0  0
    2.9426    1.7891   -1.1342 H   0  0  0  0  0  0  0  0  0  0  0  0
    1.3666    1.3632   -0.4906 H   0  0  0  0  0  0  0  0  0  0  0  0
    1.9113   -1.0366   -0.6031 H   0  0  0  0  0  0  0  0  0  0  0  0
    3.8507    0.5214    0.7572 H   0  0  0  0  0  0  0  0  0  0  0  0
    4.2092   -1.8587   -0.9942 H   0  0  0  0  0  0  0  0  0  0  0  0
    3.3636   -0.1582   -3.3971 H   0  0  0  0  0  0  0  0  0  0  0  0
    2.3918   -1.5510   -2.9011 H   0  0  0  0  0  0  0  0  0  0  0  0
    4.0493   -1.8042   -3.4171 H   0  0  0  0  0  0  0  0  0  0  0  0
    7.4076   -4.0387   -2.0305 H   0  0  0  0  0  0  0  0  0  0  0  0
    9.4120   -2.3743   -4.6268 H   0  0  0  0  0  0  0  0  0  0  0  0
   10.6816   -3.4758   -6.3206 H   0  0  0  0  0  0  0  0  0  0  0  0
   10.7593   -7.4066   -8.6751 H   0  0  0  0  0  0  0  0  0  0  0  0
    9.8270   -5.9185   -8.4268 H   0  0  0  0  0  0  0  0  0  0  0  0
    8.4636   -7.1895   -6.6908 H   0  0  0  0  0  0  0  0  0  0  0  0
    9.4501   -8.6256   -7.0271 H   0  0  0  0  0  0  0  0  0  0  0  0
    7.7223   -7.2239   -8.8004 H   0  0  0  0  0  0  0  0  0  0  0  0
   12.1510   -4.4519  -10.1608 H   0  0  0  0  0  0  0  0  0  0  0  0
   11.3808   -6.0405  -10.0243 H   0  0  0  0  0  0  0  0  0  0  0  0
   13.1868   -7.0740  -11.4116 H   0  0  0  0  0  0  0  0  0  0  0  0
   13.9635   -5.5096  -11.5712 H   0  0  0  0  0  0  0  0  0  0  0  0
   13.1891   -7.3879  -14.4160 H   0  0  0  0  0  0  0  0  0  0  0  0
   13.9508   -5.7973  -14.5961 H   0  0  0  0  0  0  0  0  0  0  0  0
   12.4439   -6.1597  -15.4556 H   0  0  0  0  0  0  0  0  0  0  0  0
   10.5078   -7.6384  -12.8157 H   0  0  0  0  0  0  0  0  0  0  0  0
    9.7753   -6.4083  -13.8618 H   0  0  0  0  0  0  0  0  0  0  0  0
    9.7776   -6.1887  -12.1033 H   0  0  0  0  0  0  0  0  0  0  0  0
   12.6545   -3.2917  -13.3447 H   0  0  0  0  0  0  0  0  0  0  0  0
   11.1372   -3.4303  -12.4371 H   0  0  0  0  0  0  0  0  0  0  0  0
   11.1419   -3.6461  -14.1949 H   0  0  0  0  0  0  0  0  0  0  0  0
   10.1883   -7.2022   -4.1948 H   0  0  0  0  0  0  0  0  0  0  0  0
    8.8024   -6.0764   -2.5107 H   0  0  0  0  0  0  0  0  0  0  0  0
    9.1662    0.6401   -3.3739 H   0  0  0  0  0  0  0  0  0  0  0  0
  1 36  1  0  0  0  0
  1 37  1  0  0  0  0
  1 38  1  0  0  0  0
  2  4  1  0  0  0  0
  2  3  1  0  0  0  0
  2  1  1  0  0  0  0
  2 39  1  6  0  0  0
  3 40  1  0  0  0  0
  4  5  1  0  0  0  0
  4  6  1  0  0  0  0
  4 41  1  1  0  0  0
  5 42  1  0  0  0  0
  5 43  1  0  0  0  0
  5 44  1  0  0  0  0
  6  7  1  0  0  0  0
  7  8  1  0  0  0  0
  7 34  2  0  0  0  0
  8  9  2  0  0  0  0
  9 10  1  0  0  0  0
  9 32  1  0  0  0  0
 10 11  1  0  0  0  0
 10 45  1  0  0  0  0
 11 12  1  0  0  0  0
 11 31  2  0  0  0  0
 12 13  2  0  0  0  0
 12 46  1  0  0  0  0
 13 14  1  0  0  0  0
 13 47  1  0  0  0  0
 14 15  1  0  0  0  0
 14 30  2  0  0  0  0
 15 16  2  0  0  0  0
 15 17  1  0  0  0  0
 15 20  2  0  0  0  0
 17 18  1  0  0  0  0
 17 48  1  0  0  0  0
 17 49  1  0  0  0  0
 18 19  1  0  0  0  0
 18 50  1  0  0  0  0
 18 51  1  0  0  0  0
 19 52  1  0  0  0  0
 20 21  1  0  0  0  0
 21 22  2  0  0  0  0
 21 23  2  0  0  0  0
 21 24  1  0  0  0  0
 24 25  1  0  0  0  0
 24 53  1  0  0  0  0
 24 54  1  0  0  0  0
 25 26  1  0  0  0  0
 25 55  1  0  0  0  0
 25 56  1  0  0  0  0
 26 27  1  0  0  0  0
 26 28  1  0  0  0  0
 26 29  1  0  0  0  0
 27 57  1  0  0  0  0
 27 58  1  0  0  0  0
 27 59  1  0  0  0  0
 28 60  1  0  0  0  0
 28 61  1  0  0  0  0
 28 62  1  0  0  0  0
 29 63  1  0  0  0  0
 29 64  1  0  0  0  0
 29 65  1  0  0  0  0
 30 31  1  0  0  0  0
 30 66  1  0  0  0  0
 31 67  1  0  0  0  0
 32 33  2  0  0  0  0
 33 34  1  0  0  0  0
 33 68  1  0  0  0  0
 34 35  1  0  0  0  0
M  END
$$$$
