CHEMBL1984586
 OpenBabel04072215363D

 44 47  0  0  0  0  0  0  0  0999 V2000
   -1.6012   -2.8228   -1.5297 C   0  0  0  0  0  0  0  0  0  0  0  0
   -0.8591   -1.5164   -1.4641 C   0  0  0  0  0  0  0  0  0  0  0  0
   -1.5441   -0.3607   -1.8988 C   0  0  0  0  0  0  0  0  0  0  0  0
   -0.9383    0.8940   -1.8818 C   0  0  0  0  0  0  0  0  0  0  0  0
    0.3523    1.0203   -1.4010 C   0  0  0  0  0  0  0  0  0  0  0  0
    1.0343   -0.1086   -0.9525 C   0  0  0  0  0  0  0  0  0  0  0  0
    0.4666   -1.3924   -0.9916 C   0  0  0  0  0  0  0  0  0  0  0  0
    1.2042   -2.5400   -0.5744 N   0  0  0  0  0  0  0  0  0  0  0  0
    2.5743   -2.5681   -0.3675 C   0  0  0  0  0  0  0  0  0  0  0  0
    3.3311   -1.6146   -0.5183 O   0  0  0  0  0  0  0  0  0  0  0  0
    3.0500   -3.8298   -0.0111 N   0  0  0  0  0  0  0  0  0  0  0  0
    4.4422   -4.0051    0.2166 C   0  0  0  0  0  0  0  0  0  0  0  0
    5.1767   -3.0946    0.9844 C   0  0  0  0  0  0  0  0  0  0  0  0
    6.5740   -3.1569    1.0255 C   0  0  0  0  0  0  0  0  0  0  0  0
    7.2609   -4.1439    0.3083 C   0  0  0  0  0  0  0  0  0  0  0  0
    8.7169   -4.1126    0.1918 C   0  0  0  0  0  0  0  0  0  0  0  0
    9.5483   -3.6903    1.2131 C   0  0  0  0  0  0  0  0  0  0  0  0
   10.8502   -3.7446    0.8382 O   0  0  0  0  0  0  0  0  0  0  0  0
   10.8847   -4.1917   -0.4469 C   0  0  0  0  0  0  0  0  0  0  0  0
   12.0289   -4.3533   -1.1184 N   0  0  0  0  0  0  0  0  0  0  0  0
   11.8069   -4.7857   -2.3623 C   0  0  0  0  0  0  0  0  0  0  0  0
   10.6233   -5.0319   -2.9520 N   0  0  0  0  0  0  0  0  0  0  0  0
    9.4940   -4.8415   -2.2424 C   0  0  0  0  0  0  0  0  0  0  0  0
    8.3029   -5.0646   -2.9217 N   0  0  0  0  0  0  0  0  0  0  0  0
    9.5954   -4.4152   -0.9126 C   0  0  0  0  0  0  0  0  0  0  0  0
    6.5083   -5.1275   -0.3488 C   0  0  0  0  0  0  0  0  0  0  0  0
    5.1084   -5.0595   -0.4017 C   0  0  0  0  0  0  0  0  0  0  0  0
   -2.5126   -2.7314   -2.1344 H   0  0  0  0  0  0  0  0  0  0  0  0
   -1.8992   -3.1384   -0.5257 H   0  0  0  0  0  0  0  0  0  0  0  0
   -0.9906   -3.5987   -1.9994 H   0  0  0  0  0  0  0  0  0  0  0  0
   -2.5649   -0.4329   -2.2711 H   0  0  0  0  0  0  0  0  0  0  0  0
   -1.4721    1.7713   -2.2365 H   0  0  0  0  0  0  0  0  0  0  0  0
    0.8428    1.9889   -1.3688 H   0  0  0  0  0  0  0  0  0  0  0  0
    2.0293    0.0670   -0.5538 H   0  0  0  0  0  0  0  0  0  0  0  0
    0.7032   -3.4083   -0.4890 H   0  0  0  0  0  0  0  0  0  0  0  0
    2.5740   -4.5972   -0.4598 H   0  0  0  0  0  0  0  0  0  0  0  0
    4.6723   -2.2900    1.5164 H   0  0  0  0  0  0  0  0  0  0  0  0
    7.1043   -2.3864    1.5808 H   0  0  0  0  0  0  0  0  0  0  0  0
    9.3822   -3.3357    2.2228 H   0  0  0  0  0  0  0  0  0  0  0  0
   12.6857   -4.9543   -2.9779 H   0  0  0  0  0  0  0  0  0  0  0  0
    8.4883   -5.1330   -3.9167 H   0  0  0  0  0  0  0  0  0  0  0  0
    7.5662   -4.4147   -2.6698 H   0  0  0  0  0  0  0  0  0  0  0  0
    7.0042   -5.9413   -0.8741 H   0  0  0  0  0  0  0  0  0  0  0  0
    4.5723   -5.7861   -1.0049 H   0  0  0  0  0  0  0  0  0  0  0  0
  1  2  1  0  0  0  0
  1 28  1  0  0  0  0
  1 29  1  0  0  0  0
  1 30  1  0  0  0  0
  2  3  1  0  0  0  0
  2  7  2  0  0  0  0
  3  4  2  0  0  0  0
  3 31  1  0  0  0  0
  4  5  1  0  0  0  0
  4 32  1  0  0  0  0
  5  6  2  0  0  0  0
  5 33  1  0  0  0  0
  6  7  1  0  0  0  0
  6 34  1  0  0  0  0
  7  8  1  0  0  0  0
  8  9  1  0  0  0  0
  8 35  1  0  0  0  0
  9 10  2  0  0  0  0
  9 11  1  0  0  0  0
 11 12  1  0  0  0  0
 11 36  1  0  0  0  0
 12 13  1  0  0  0  0
 12 27  2  0  0  0  0
 13 14  2  0  0  0  0
 13 37  1  0  0  0  0
 14 15  1  0  0  0  0
 14 38  1  0  0  0  0
 15 16  1  0  0  0  0
 15 26  2  0  0  0  0
 16 17  2  0  0  0  0
 16 25  1  0  0  0  0
 17 18  1  0  0  0  0
 17 39  1  0  0  0  0
 18 19  1  0  0  0  0
 19 20  1  0  0  0  0
 19 25  2  0  0  0  0
 20 21  2  0  0  0  0
 21 22  1  0  0  0  0
 21 40  1  0  0  0  0
 22 23  2  0  0  0  0
 23 24  1  0  0  0  0
 23 25  1  0  0  0  0
 24 41  1  0  0  0  0
 24 42  1  0  0  0  0
 26 27  1  0  0  0  0
 26 43  1  0  0  0  0
 27 44  1  0  0  0  0
M  END
$$$$
