CHEMBL1969156
 OpenBabel04072215363D

 26 28  0  0  0  0  0  0  0  0999 V2000
    1.1363   -0.1291   -0.0332 N   0  0  0  0  0  0  0  0  0  0  0  0
    2.4977   -0.0491    0.0616 C   0  0  0  0  0  0  0  0  0  0  0  0
    3.1507   -1.1850    0.0866 N   0  0  0  0  0  0  0  0  0  0  0  0
    4.5249   -1.1358    0.1299 C   0  0  0  0  0  0  0  0  0  0  0  0
    5.2575   -0.0147    0.1265 C   0  0  0  0  0  0  0  0  0  0  0  0
    4.5807    1.2199    0.1024 C   0  0  0  0  0  0  0  0  0  0  0  0
    4.9373    2.5376    0.0480 C   0  0  0  0  0  0  0  0  0  0  0  0
    3.8256    3.3301    0.0500 N   0  0  0  0  0  0  0  0  0  0  0  0
    2.7737    2.5223    0.1361 C   0  0  0  0  0  0  0  0  0  0  0  0
    1.3990    3.0404    0.2013 C   0  0  0  0  0  0  0  0  0  0  0  0
    1.0665    4.1799   -0.5490 C   0  0  0  0  0  0  0  0  0  0  0  0
   -0.2315    4.6978   -0.5381 C   0  0  0  0  0  0  0  0  0  0  0  0
   -1.2207    4.0740    0.2168 C   0  0  0  0  0  0  0  0  0  0  0  0
   -0.8981    2.9700    1.0012 C   0  0  0  0  0  0  0  0  0  0  0  0
    0.4125    2.4841    1.0240 C   0  0  0  0  0  0  0  0  0  0  0  0
    3.1935    1.1876    0.1049 N   0  0  0  0  0  0  0  0  0  0  0  0
    0.8368   -1.0810   -0.2239 H   0  0  0  0  0  0  0  0  0  0  0  0
    0.6852    0.5432   -0.6438 H   0  0  0  0  0  0  0  0  0  0  0  0
    5.0229   -2.1028    0.1539 H   0  0  0  0  0  0  0  0  0  0  0  0
    6.3431   -0.0512    0.1429 H   0  0  0  0  0  0  0  0  0  0  0  0
    5.9331    2.9608    0.0086 H   0  0  0  0  0  0  0  0  0  0  0  0
    1.8314    4.6808   -1.1422 H   0  0  0  0  0  0  0  0  0  0  0  0
   -0.4658    5.5875   -1.1169 H   0  0  0  0  0  0  0  0  0  0  0  0
   -2.2364    4.4611    0.2114 H   0  0  0  0  0  0  0  0  0  0  0  0
   -1.6629    2.4895    1.6062 H   0  0  0  0  0  0  0  0  0  0  0  0
    0.6457    1.6554    1.6886 H   0  0  0  0  0  0  0  0  0  0  0  0
  1  2  1  0  0  0  0
  1 17  1  0  0  0  0
  1 18  1  0  0  0  0
  2  3  2  0  0  0  0
  2 16  1  0  0  0  0
  3  4  1  0  0  0  0
  4  5  2  0  0  0  0
  4 19  1  0  0  0  0
  5  6  1  0  0  0  0
  5 20  1  0  0  0  0
  6  7  2  0  0  0  0
  6 16  1  0  0  0  0
  7  8  1  0  0  0  0
  7 21  1  0  0  0  0
  8  9  2  0  0  0  0
  9 10  1  0  0  0  0
  9 16  1  0  0  0  0
 10 11  1  0  0  0  0
 10 15  2  0  0  0  0
 11 12  2  0  0  0  0
 11 22  1  0  0  0  0
 12 13  1  0  0  0  0
 12 23  1  0  0  0  0
 13 14  2  0  0  0  0
 13 24  1  0  0  0  0
 14 15  1  0  0  0  0
 14 25  1  0  0  0  0
 15 26  1  0  0  0  0
M  END
$$$$
