CHEMBL1996234
 OpenBabel04072215363D

 55 60  0  0  1  0  0  0  0  0999 V2000
    3.6210   -0.2722    4.5603 C   0  0  0  0  0  0  0  0  0  0  0  0
    4.5334   -0.2366    3.3379 C   0  0  3  0  0  0  0  0  0  0  0  0
    5.8764   -0.5025    3.7879 O   0  0  0  0  0  0  0  0  0  0  0  0
    4.3741    0.9824    2.3976 C   0  0  0  0  0  0  0  0  0  0  0  0
    4.3050    0.0376    1.1621 C   0  0  3  0  0  0  0  0  0  0  0  0
    5.6159   -0.0844    0.3472 C   0  0  0  0  0  0  0  0  0  0  0  0
    6.7865   -0.4373    0.8330 N   0  0  0  0  0  0  0  0  0  0  0  0
    7.6958   -0.4343   -0.2230 C   0  0  0  0  0  0  0  0  0  0  0  0
    9.1395   -0.5309    0.0427 C   0  0  0  0  0  0  0  0  0  0  0  0
    9.5713    0.0692    1.2289 C   0  0  0  0  0  0  0  0  0  0  0  0
   10.9229    0.1761    1.5236 C   0  0  0  0  0  0  0  0  0  0  0  0
   11.8801   -0.3029    0.6258 C   0  0  0  0  0  0  0  0  0  0  0  0
   13.2266   -0.0962    0.9101 C   0  0  0  0  0  0  0  0  0  0  0  0
   14.1933   -0.5224    0.0196 C   0  0  0  0  0  0  0  0  0  0  0  0
   13.8047   -1.1727   -1.1492 C   0  0  0  0  0  0  0  0  0  0  0  0
   14.8513   -1.6018   -2.1183 C   0  0  0  0  0  0  0  0  0  0  0  0
   14.8101   -2.8452   -2.7669 C   0  0  0  0  0  0  0  0  0  0  0  0
   15.8624   -3.2710   -3.5968 C   0  0  0  0  0  0  0  0  0  0  0  0
   16.9756   -2.4612   -3.8069 C   0  0  0  0  0  0  0  0  0  0  0  0
   17.0390   -1.2161   -3.1919 C   0  0  0  0  0  0  0  0  0  0  0  0
   15.9890   -0.7953   -2.3653 C   0  0  0  0  0  0  0  0  0  0  0  0
   12.4827   -1.4183   -1.4275 N   0  0  0  0  0  0  0  0  0  0  0  0
   11.5156   -0.9738   -0.5608 C   0  0  0  0  0  0  0  0  0  0  0  0
   10.1230   -1.1064   -0.7989 C   0  0  0  0  0  0  0  0  0  0  0  0
    7.0369   -0.0780   -1.3877 C   0  0  0  0  0  0  0  0  0  0  0  0
    7.3782    0.1426   -2.7782 C   0  0  0  0  0  0  0  0  0  0  0  0
    8.6006   -0.0922   -3.3347 N   0  0  0  0  0  0  0  0  0  0  0  0
    6.4834    0.6097   -3.6215 N   0  0  0  0  0  0  0  0  0  0  0  0
    5.2185    0.9035   -3.1648 C   0  0  0  0  0  0  0  0  0  0  0  0
    4.8189    0.7076   -1.9018 C   0  0  0  0  0  0  0  0  0  0  0  0
    5.7310    0.1891   -0.9980 N   0  0  0  0  0  0  0  0  0  0  0  0
    4.0414   -1.1182    2.1674 C   0  0  0  0  0  0  0  0  0  0  0  0
    3.9705    0.4237    5.3315 H   0  0  0  0  0  0  0  0  0  0  0  0
    3.6142   -1.2758    5.0024 H   0  0  0  0  0  0  0  0  0  0  0  0
    2.5869   -0.0092    4.3160 H   0  0  0  0  0  0  0  0  0  0  0  0
    6.1762    0.3206    4.2082 H   0  0  0  0  0  0  0  0  0  0  0  0
    5.1934    1.7076    2.4093 H   0  0  0  0  0  0  0  0  0  0  0  0
    3.4421    1.5437    2.5543 H   0  0  0  0  0  0  0  0  0  0  0  0
    3.4399    0.2593    0.5241 H   0  0  0  0  0  0  0  0  0  0  0  0
    8.8469    0.4857    1.9278 H   0  0  0  0  0  0  0  0  0  0  0  0
   11.2182    0.6692    2.4464 H   0  0  0  0  0  0  0  0  0  0  0  0
   13.5339    0.4249    1.8136 H   0  0  0  0  0  0  0  0  0  0  0  0
   15.2375   -0.3448    0.2486 H   0  0  0  0  0  0  0  0  0  0  0  0
   13.9659   -3.5121   -2.6056 H   0  0  0  0  0  0  0  0  0  0  0  0
   15.8168   -4.2474   -4.0740 H   0  0  0  0  0  0  0  0  0  0  0  0
   17.7917   -2.7946   -4.4430 H   0  0  0  0  0  0  0  0  0  0  0  0
   17.9039   -0.5745   -3.3448 H   0  0  0  0  0  0  0  0  0  0  0  0
   16.0787    0.1856   -1.9023 H   0  0  0  0  0  0  0  0  0  0  0  0
    9.8179   -1.6628   -1.6839 H   0  0  0  0  0  0  0  0  0  0  0  0
    9.3899    0.2118   -2.7801 H   0  0  0  0  0  0  0  0  0  0  0  0
    8.6430    0.2813   -4.2766 H   0  0  0  0  0  0  0  0  0  0  0  0
    4.5371    1.3267   -3.8993 H   0  0  0  0  0  0  0  0  0  0  0  0
    3.8267    0.9635   -1.5586 H   0  0  0  0  0  0  0  0  0  0  0  0
    4.6026   -2.0419    2.0015 H   0  0  0  0  0  0  0  0  0  0  0  0
    2.9763   -1.3825    2.2279 H   0  0  0  0  0  0  0  0  0  0  0  0
  1  2  1  0  0  0  0
  1 33  1  0  0  0  0
  1 34  1  0  0  0  0
  1 35  1  0  0  0  0
  2  3  1  0  0  0  0
  2  4  1  0  0  0  0
  2 32  1  0  0  0  0
  3 36  1  0  0  0  0
  4  5  1  0  0  0  0
  4 37  1  0  0  0  0
  4 38  1  0  0  0  0
  5  6  1  0  0  0  0
  5 32  1  0  0  0  0
  5 39  1  0  0  0  0
  6  7  2  0  0  0  0
  6 31  1  0  0  0  0
  7  8  1  0  0  0  0
  8  9  1  0  0  0  0
  8 25  2  0  0  0  0
  9 10  1  0  0  0  0
  9 24  2  0  0  0  0
 10 11  2  0  0  0  0
 10 40  1  0  0  0  0
 11 12  1  0  0  0  0
 11 41  1  0  0  0  0
 12 13  1  0  0  0  0
 12 23  2  0  0  0  0
 13 14  2  0  0  0  0
 13 42  1  0  0  0  0
 14 15  1  0  0  0  0
 14 43  1  0  0  0  0
 15 16  1  0  0  0  0
 15 22  2  0  0  0  0
 16 17  1  0  0  0  0
 16 21  2  0  0  0  0
 17 18  2  0  0  0  0
 17 44  1  0  0  0  0
 18 19  1  0  0  0  0
 18 45  1  0  0  0  0
 19 20  2  0  0  0  0
 19 46  1  0  0  0  0
 20 21  1  0  0  0  0
 20 47  1  0  0  0  0
 21 48  1  0  0  0  0
 22 23  1  0  0  0  0
 23 24  1  0  0  0  0
 24 49  1  0  0  0  0
 25 26  1  0  0  0  0
 25 31  1  0  0  0  0
 26 27  1  0  0  0  0
 26 28  2  0  0  0  0
 27 50  1  0  0  0  0
 27 51  1  0  0  0  0
 28 29  1  0  0  0  0
 29 30  2  0  0  0  0
 29 52  1  0  0  0  0
 30 31  1  0  0  0  0
 30 53  1  0  0  0  0
 32 54  1  0  0  0  0
 32 55  1  0  0  0  0
M  END
$$$$
