CHEMBL3947740
 OpenBabel04072215373D

 49 52  0  0  0  0  0  0  0  0999 V2000
    5.1548    7.1238   -1.6809 C   0  0  0  0  0  0  0  0  0  0  0  0
    4.9730    5.9475   -0.8968 O   0  0  0  0  0  0  0  0  0  0  0  0
    6.1008    5.3858   -0.3534 C   0  0  0  0  0  0  0  0  0  0  0  0
    7.4100    5.7614   -0.6337 C   0  0  0  0  0  0  0  0  0  0  0  0
    8.4615    5.0828   -0.0215 C   0  0  0  0  0  0  0  0  0  0  0  0
    9.7905    5.3420   -0.2325 O   0  0  0  0  0  0  0  0  0  0  0  0
   10.0952    6.5328   -0.9472 C   0  0  0  0  0  0  0  0  0  0  0  0
    8.2100    4.0463    0.8919 C   0  0  0  0  0  0  0  0  0  0  0  0
    6.9129    3.6927    1.2692 C   0  0  0  0  0  0  0  0  0  0  0  0
    6.6817    2.6924    2.2421 N   0  0  0  0  0  0  0  0  0  0  0  0
    5.3053    2.5585    2.7866 C   0  0  0  0  0  0  0  0  0  0  0  0
    7.5733    1.9889    3.1294 C   0  0  0  0  0  0  0  0  0  0  0  0
    7.2852    0.6347    3.3192 C   0  0  0  0  0  0  0  0  0  0  0  0
    7.6643    0.0007    4.4825 C   0  0  0  0  0  0  0  0  0  0  0  0
    8.4633    0.6226    5.4042 C   0  0  0  0  0  0  0  0  0  0  0  0
    8.5847   -0.0328    6.5602 N   0  0  0  0  0  0  0  0  0  0  0  0
    9.4920    0.4438    7.4171 C   0  0  0  0  0  0  0  0  0  0  0  0
   10.3261    1.4935    7.0916 C   0  0  0  0  0  0  0  0  0  0  0  0
   11.5268    1.6244    7.9041 C   0  0  0  0  0  0  0  0  0  0  0  0
   12.8430    1.1670    7.6390 C   0  0  0  0  0  0  0  0  0  0  0  0
   13.6376    1.2104    8.7163 N   0  0  0  0  0  0  0  0  0  0  0  0
   12.8333    1.6938    9.6781 N   0  0  0  0  0  0  0  0  0  0  0  0
   13.3793    2.1135   10.9474 C   0  0  0  0  0  0  0  0  0  0  0  0
   11.5304    1.8208    9.2747 C   0  0  0  0  0  0  0  0  0  0  0  0
   10.1223    2.2474    5.9609 N   0  0  0  0  0  0  0  0  0  0  0  0
    9.1033    1.8494    5.1062 C   0  0  0  0  0  0  0  0  0  0  0  0
    8.5707    2.5525    3.9696 C   0  0  0  0  0  0  0  0  0  0  0  0
    5.8738    4.3460    0.5600 C   0  0  0  0  0  0  0  0  0  0  0  0
    4.1683    7.5425   -1.9046 H   0  0  0  0  0  0  0  0  0  0  0  0
    5.6393    6.8825   -2.6328 H   0  0  0  0  0  0  0  0  0  0  0  0
    5.7176    7.8901   -1.1358 H   0  0  0  0  0  0  0  0  0  0  0  0
    7.5999    6.5562   -1.3384 H   0  0  0  0  0  0  0  0  0  0  0  0
   11.1780    6.6769   -0.9106 H   0  0  0  0  0  0  0  0  0  0  0  0
    9.6270    7.4094   -0.4845 H   0  0  0  0  0  0  0  0  0  0  0  0
    9.8027    6.4386   -1.9981 H   0  0  0  0  0  0  0  0  0  0  0  0
    9.0611    3.5130    1.3033 H   0  0  0  0  0  0  0  0  0  0  0  0
    4.5139    3.0459    2.2206 H   0  0  0  0  0  0  0  0  0  0  0  0
    5.2620    2.9727    3.8008 H   0  0  0  0  0  0  0  0  0  0  0  0
    4.9827    1.5103    2.8275 H   0  0  0  0  0  0  0  0  0  0  0  0
    6.6493    0.1036    2.6163 H   0  0  0  0  0  0  0  0  0  0  0  0
    7.2813   -1.0026    4.6889 H   0  0  0  0  0  0  0  0  0  0  0  0
    9.5785   -0.0990    8.3510 H   0  0  0  0  0  0  0  0  0  0  0  0
   13.2449    0.7606    6.7190 H   0  0  0  0  0  0  0  0  0  0  0  0
   14.4594    1.9433   10.9640 H   0  0  0  0  0  0  0  0  0  0  0  0
   12.8963    1.5590   11.7556 H   0  0  0  0  0  0  0  0  0  0  0  0
   13.1766    3.1833   11.0452 H   0  0  0  0  0  0  0  0  0  0  0  0
   10.7453    2.0296    9.9866 H   0  0  0  0  0  0  0  0  0  0  0  0
    8.8996    3.5765    3.8041 H   0  0  0  0  0  0  0  0  0  0  0  0
    4.8325    4.0616    0.6706 H   0  0  0  0  0  0  0  0  0  0  0  0
  1  2  1  0  0  0  0
  1 29  1  0  0  0  0
  1 30  1  0  0  0  0
  1 31  1  0  0  0  0
  2  3  1  0  0  0  0
  3  4  1  0  0  0  0
  3 28  2  0  0  0  0
  4  5  2  0  0  0  0
  4 32  1  0  0  0  0
  5  6  1  0  0  0  0
  5  8  1  0  0  0  0
  6  7  1  0  0  0  0
  7 33  1  0  0  0  0
  7 34  1  0  0  0  0
  7 35  1  0  0  0  0
  8  9  2  0  0  0  0
  8 36  1  0  0  0  0
  9 10  1  0  0  0  0
  9 28  1  0  0  0  0
 10 11  1  0  0  0  0
 10 12  1  0  0  0  0
 11 37  1  0  0  0  0
 11 38  1  0  0  0  0
 11 39  1  0  0  0  0
 12 13  1  0  0  0  0
 12 27  2  0  0  0  0
 13 14  2  0  0  0  0
 13 40  1  0  0  0  0
 14 15  1  0  0  0  0
 14 41  1  0  0  0  0
 15 16  1  0  0  0  0
 15 26  2  0  0  0  0
 16 17  2  0  0  0  0
 17 18  1  0  0  0  0
 17 42  1  0  0  0  0
 18 19  1  0  0  0  0
 18 25  2  0  0  0  0
 19 20  1  0  0  0  0
 19 24  2  0  0  0  0
 20 21  2  0  0  0  0
 20 43  1  0  0  0  0
 21 22  1  0  0  0  0
 22 23  1  0  0  0  0
 22 24  1  0  0  0  0
 23 44  1  0  0  0  0
 23 45  1  0  0  0  0
 23 46  1  0  0  0  0
 24 47  1  0  0  0  0
 25 26  1  0  0  0  0
 26 27  1  0  0  0  0
 27 48  1  0  0  0  0
 28 49  1  0  0  0  0
M  END
$$$$
