CHEMBL406909
 OpenBabel04072215383D

 52 57  0  0  0  0  0  0  0  0999 V2000
    3.9109   -0.4794    0.6465 C   0  0  0  0  0  0  0  0  0  0  0  0
    3.3306    0.1748   -0.5945 C   0  0  0  0  0  0  0  0  0  0  0  0
    3.8974    1.4810   -0.9203 N   0  0  0  0  0  0  0  0  0  0  0  0
    3.3676    2.6898   -0.4034 C   0  0  0  0  0  0  0  0  0  0  0  0
    2.4712    2.9530    0.6541 C   0  0  0  0  0  0  0  0  0  0  0  0
    2.0160    4.2768    0.8441 C   0  0  0  0  0  0  0  0  0  0  0  0
    2.4530    5.3141    0.0198 C   0  0  0  0  0  0  0  0  0  0  0  0
    1.9724    6.7221    0.1083 C   0  0  0  0  0  0  0  0  0  0  0  0
    1.5637    7.2931    1.4340 C   0  0  0  0  0  0  0  0  0  0  0  0
    1.9448    7.4159   -0.9094 O   0  0  0  0  0  0  0  0  0  0  0  0
    3.3517    5.0452   -1.0093 C   0  0  0  0  0  0  0  0  0  0  0  0
    3.7865    3.7335   -1.2395 C   0  0  0  0  0  0  0  0  0  0  0  0
    4.4763    3.0716   -2.2385 C   0  0  0  0  0  0  0  0  0  0  0  0
    4.6539    3.6399   -3.5033 C   0  0  0  0  0  0  0  0  0  0  0  0
    4.8048    2.7126   -4.5580 C   0  0  0  0  0  0  0  0  0  0  0  0
    4.9246    1.3163   -4.3732 C   0  0  0  0  0  0  0  0  0  0  0  0
    5.3482    0.9762   -3.0385 C   0  0  0  0  0  0  0  0  0  0  0  0
    4.7104    1.7412   -2.0331 C   0  0  0  0  0  0  0  0  0  0  0  0
    6.9124    0.6578   -3.0024 C   0  0  0  0  0  0  0  0  0  0  0  0
    7.6932    1.0186   -4.3374 C   0  0  0  0  0  0  0  0  0  0  0  0
    6.9265    0.3932   -5.4502 C   0  0  0  0  0  0  0  0  0  0  0  0
    7.3330   -0.5624   -6.2825 N   0  0  0  0  0  0  0  0  0  0  0  0
    6.1585   -1.0740   -6.7348 N   0  0  0  0  0  0  0  0  0  0  0  0
    6.1645   -2.2387   -7.5836 C   0  0  0  0  0  0  0  0  0  0  0  0
    5.0517   -0.5319   -6.1315 C   0  0  0  0  0  0  0  0  0  0  0  0
    5.5380    0.5436   -5.4368 C   0  0  0  0  0  0  0  0  0  0  0  0
    4.9756    3.4814   -5.7722 C   0  0  0  0  0  0  0  0  0  0  0  0
    5.1597    3.1787   -6.9408 O   0  0  0  0  0  0  0  0  0  0  0  0
    4.9532    4.8046   -5.3494 N   0  0  0  0  0  0  0  0  0  0  0  0
    4.6561    5.0258   -3.9528 C   0  0  0  0  0  0  0  0  0  0  0  0
    3.4003   -1.4309    0.8392 H   0  0  0  0  0  0  0  0  0  0  0  0
    3.7823    0.1494    1.5330 H   0  0  0  0  0  0  0  0  0  0  0  0
    4.9776   -0.6864    0.5246 H   0  0  0  0  0  0  0  0  0  0  0  0
    2.2499    0.3163   -0.4615 H   0  0  0  0  0  0  0  0  0  0  0  0
    3.4512   -0.4816   -1.4624 H   0  0  0  0  0  0  0  0  0  0  0  0
    2.0859    2.1533    1.2810 H   0  0  0  0  0  0  0  0  0  0  0  0
    1.2772    4.4627    1.6200 H   0  0  0  0  0  0  0  0  0  0  0  0
    1.8397    6.6457    2.2668 H   0  0  0  0  0  0  0  0  0  0  0  0
    0.4846    7.4627    1.4353 H   0  0  0  0  0  0  0  0  0  0  0  0
    2.0850    8.2469    1.5692 H   0  0  0  0  0  0  0  0  0  0  0  0
    3.6796    5.8587   -1.6474 H   0  0  0  0  0  0  0  0  0  0  0  0
    7.0214   -0.4176   -2.8244 H   0  0  0  0  0  0  0  0  0  0  0  0
    7.3771    1.2038   -2.1744 H   0  0  0  0  0  0  0  0  0  0  0  0
    8.7346    0.6848   -4.3154 H   0  0  0  0  0  0  0  0  0  0  0  0
    7.7057    2.1110   -4.4798 H   0  0  0  0  0  0  0  0  0  0  0  0
    7.1523   -2.3539   -8.0345 H   0  0  0  0  0  0  0  0  0  0  0  0
    5.4111   -2.1026   -8.3635 H   0  0  0  0  0  0  0  0  0  0  0  0
    5.9253   -3.1067   -6.9658 H   0  0  0  0  0  0  0  0  0  0  0  0
    4.0744   -0.9839   -6.1994 H   0  0  0  0  0  0  0  0  0  0  0  0
    5.1255    5.5432   -6.0145 H   0  0  0  0  0  0  0  0  0  0  0  0
    3.6828    5.5049   -3.8782 H   0  0  0  0  0  0  0  0  0  0  0  0
    5.4565    5.6074   -3.4884 H   0  0  0  0  0  0  0  0  0  0  0  0
  1  2  1  0  0  0  0
  1 31  1  0  0  0  0
  1 32  1  0  0  0  0
  1 33  1  0  0  0  0
  2  3  1  0  0  0  0
  2 34  1  0  0  0  0
  2 35  1  0  0  0  0
  3  4  1  0  0  0  0
  3 18  1  0  0  0  0
  4  5  1  0  0  0  0
  4 12  2  0  0  0  0
  5  6  2  0  0  0  0
  5 36  1  0  0  0  0
  6  7  1  0  0  0  0
  6 37  1  0  0  0  0
  7  8  1  0  0  0  0
  7 11  2  0  0  0  0
  8  9  1  0  0  0  0
  8 10  2  0  0  0  0
  9 38  1  0  0  0  0
  9 39  1  0  0  0  0
  9 40  1  0  0  0  0
 11 12  1  0  0  0  0
 11 41  1  0  0  0  0
 12 13  1  0  0  0  0
 13 14  1  0  0  0  0
 13 18  2  0  0  0  0
 14 15  2  0  0  0  0
 14 30  1  0  0  0  0
 15 16  1  0  0  0  0
 15 27  1  0  0  0  0
 16 17  2  0  0  0  0
 16 26  1  0  0  0  0
 17 18  1  0  0  0  0
 17 19  1  0  0  0  0
 19 20  1  0  0  0  0
 19 42  1  0  0  0  0
 19 43  1  0  0  0  0
 20 21  1  0  0  0  0
 20 44  1  0  0  0  0
 20 45  1  0  0  0  0
 21 22  2  0  0  0  0
 21 26  1  0  0  0  0
 22 23  1  0  0  0  0
 23 24  1  0  0  0  0
 23 25  1  0  0  0  0
 24 46  1  0  0  0  0
 24 47  1  0  0  0  0
 24 48  1  0  0  0  0
 25 26  2  0  0  0  0
 25 49  1  0  0  0  0
 27 28  2  0  0  0  0
 27 29  1  0  0  0  0
 29 30  1  0  0  0  0
 29 50  1  0  0  0  0
 30 51  1  0  0  0  0
 30 52  1  0  0  0  0
M  END
$$$$
