CHEMBL3974273
 OpenBabel04072215373D

 62 66  0  0  0  0  0  0  0  0999 V2000
    2.0384   -0.8340   -0.3303 C   0  0  0  0  0  0  0  0  0  0  0  0
    2.3813    0.2408    0.5467 O   0  0  0  0  0  0  0  0  0  0  0  0
    3.1602   -0.1625    1.5997 C   0  0  0  0  0  0  0  0  0  0  0  0
    2.8540   -1.2445    2.4046 C   0  0  0  0  0  0  0  0  0  0  0  0
    3.6820   -1.5508    3.4904 C   0  0  0  0  0  0  0  0  0  0  0  0
    3.4005   -2.5305    4.3970 O   0  0  0  0  0  0  0  0  0  0  0  0
    2.0248   -2.9166    4.4970 C   0  0  0  0  0  0  0  0  0  0  0  0
    4.8945   -0.8367    3.6652 C   0  0  0  0  0  0  0  0  0  0  0  0
    5.2727    0.2121    2.8111 C   0  0  0  0  0  0  0  0  0  0  0  0
    6.5312    0.8849    2.9172 N   0  0  0  0  0  0  0  0  0  0  0  0
    6.9312    1.7707    1.7089 C   0  0  0  0  0  0  0  0  0  0  0  0
    7.1649    0.7690    0.5899 C   0  0  0  0  0  0  0  0  0  0  0  0
    7.3653   -0.0903   -0.3701 C   0  0  0  0  0  0  0  0  0  0  0  0
    7.5974   -1.0514   -1.4038 C   0  0  0  0  0  0  0  0  0  0  0  0
    8.6238   -1.9738   -1.2768 C   0  0  0  0  0  0  0  0  0  0  0  0
    8.7731   -2.9191   -2.2817 C   0  0  0  0  0  0  0  0  0  0  0  0
    7.9075   -2.8904   -3.3712 C   0  0  0  0  0  0  0  0  0  0  0  0
    6.9307   -1.8989   -3.4318 C   0  0  0  0  0  0  0  0  0  0  0  0
    6.0518   -1.8665   -4.5142 N   0  0  0  0  0  0  0  0  0  0  0  0
    6.7542   -0.9880   -2.4650 N   0  0  0  0  0  0  0  0  0  0  0  0
    7.7386    0.4878    3.6027 C   0  0  0  0  0  0  0  0  0  0  0  0
    8.4368    1.5634    4.1486 C   0  0  0  0  0  0  0  0  0  0  0  0
    9.8040    1.4908    4.2866 C   0  0  0  0  0  0  0  0  0  0  0  0
   10.4840    0.3166    4.0844 C   0  0  0  0  0  0  0  0  0  0  0  0
   11.8129    0.4680    4.0587 N   0  0  0  0  0  0  0  0  0  0  0  0
   12.5389   -0.6516    4.0630 C   0  0  0  0  0  0  0  0  0  0  0  0
   11.9598   -1.8970    4.2002 C   0  0  0  0  0  0  0  0  0  0  0  0
   12.8639   -2.9551    4.6484 C   0  0  0  0  0  0  0  0  0  0  0  0
   13.1353   -3.4187    5.9687 C   0  0  0  0  0  0  0  0  0  0  0  0
   14.2166   -4.2094    6.0426 N   0  0  0  0  0  0  0  0  0  0  0  0
   14.6530   -4.2537    4.7734 N   0  0  0  0  0  0  0  0  0  0  0  0
   15.6444   -5.2250    4.3732 C   0  0  0  0  0  0  0  0  0  0  0  0
   13.9830   -3.3889    3.9481 C   0  0  0  0  0  0  0  0  0  0  0  0
   10.5939   -2.0585    4.0852 N   0  0  0  0  0  0  0  0  0  0  0  0
    9.8060   -0.9071    3.9455 C   0  0  0  0  0  0  0  0  0  0  0  0
    8.3921   -0.7770    3.6232 C   0  0  0  0  0  0  0  0  0  0  0  0
    4.3018    0.5977    1.8586 C   0  0  0  0  0  0  0  0  0  0  0  0
    1.7767   -0.4069   -1.3030 H   0  0  0  0  0  0  0  0  0  0  0  0
    1.1620   -1.3687    0.0490 H   0  0  0  0  0  0  0  0  0  0  0  0
    2.8759   -1.5249   -0.4832 H   0  0  0  0  0  0  0  0  0  0  0  0
    1.9610   -1.8206    2.1901 H   0  0  0  0  0  0  0  0  0  0  0  0
    1.9258   -3.6295    5.3248 H   0  0  0  0  0  0  0  0  0  0  0  0
    1.6775   -3.4297    3.5929 H   0  0  0  0  0  0  0  0  0  0  0  0
    1.3873   -2.0537    4.7234 H   0  0  0  0  0  0  0  0  0  0  0  0
    5.5229   -1.1181    4.5072 H   0  0  0  0  0  0  0  0  0  0  0  0
    7.8504    2.3402    1.8811 H   0  0  0  0  0  0  0  0  0  0  0  0
    6.1555    2.5027    1.4711 H   0  0  0  0  0  0  0  0  0  0  0  0
    9.2818   -1.9682   -0.4150 H   0  0  0  0  0  0  0  0  0  0  0  0
    9.5474   -3.6774   -2.2149 H   0  0  0  0  0  0  0  0  0  0  0  0
    7.9864   -3.6361   -4.1536 H   0  0  0  0  0  0  0  0  0  0  0  0
    6.5374   -1.9056   -5.4018 H   0  0  0  0  0  0  0  0  0  0  0  0
    5.4866   -1.0267   -4.4199 H   0  0  0  0  0  0  0  0  0  0  0  0
    7.9449    2.5187    4.2915 H   0  0  0  0  0  0  0  0  0  0  0  0
   10.3493    2.3869    4.5195 H   0  0  0  0  0  0  0  0  0  0  0  0
   13.6152   -0.5097    4.0297 H   0  0  0  0  0  0  0  0  0  0  0  0
   12.6210   -3.1754    6.8924 H   0  0  0  0  0  0  0  0  0  0  0  0
   15.9325   -5.8398    5.2303 H   0  0  0  0  0  0  0  0  0  0  0  0
   16.5167   -4.7118    3.9642 H   0  0  0  0  0  0  0  0  0  0  0  0
   15.1829   -5.8593    3.6109 H   0  0  0  0  0  0  0  0  0  0  0  0
   14.3437   -3.1822    2.9507 H   0  0  0  0  0  0  0  0  0  0  0  0
    7.8529   -1.6717    3.3169 H   0  0  0  0  0  0  0  0  0  0  0  0
    4.4228    1.4853    1.2456 H   0  0  0  0  0  0  0  0  0  0  0  0
  1  2  1  0  0  0  0
  1 38  1  0  0  0  0
  1 39  1  0  0  0  0
  1 40  1  0  0  0  0
  2  3  1  0  0  0  0
  3  4  1  0  0  0  0
  3 37  2  0  0  0  0
  4  5  2  0  0  0  0
  4 41  1  0  0  0  0
  5  6  1  0  0  0  0
  5  8  1  0  0  0  0
  6  7  1  0  0  0  0
  7 42  1  0  0  0  0
  7 43  1  0  0  0  0
  7 44  1  0  0  0  0
  8  9  2  0  0  0  0
  8 45  1  0  0  0  0
  9 10  1  0  0  0  0
  9 37  1  0  0  0  0
 10 11  1  0  0  0  0
 10 21  1  0  0  0  0
 11 12  1  0  0  0  0
 11 46  1  0  0  0  0
 11 47  1  0  0  0  0
 12 13  3  0  0  0  0
 13 14  1  0  0  0  0
 14 15  1  0  0  0  0
 14 20  2  0  0  0  0
 15 16  2  0  0  0  0
 15 48  1  0  0  0  0
 16 17  1  0  0  0  0
 16 49  1  0  0  0  0
 17 18  2  0  0  0  0
 17 50  1  0  0  0  0
 18 19  1  0  0  0  0
 18 20  1  0  0  0  0
 19 51  1  0  0  0  0
 19 52  1  0  0  0  0
 21 22  1  0  0  0  0
 21 36  2  0  0  0  0
 22 23  2  0  0  0  0
 22 53  1  0  0  0  0
 23 24  1  0  0  0  0
 23 54  1  0  0  0  0
 24 25  1  0  0  0  0
 24 35  2  0  0  0  0
 25 26  2  0  0  0  0
 26 27  1  0  0  0  0
 26 55  1  0  0  0  0
 27 28  1  0  0  0  0
 27 34  2  0  0  0  0
 28 29  1  0  0  0  0
 28 33  2  0  0  0  0
 29 30  2  0  0  0  0
 29 56  1  0  0  0  0
 30 31  1  0  0  0  0
 31 32  1  0  0  0  0
 31 33  1  0  0  0  0
 32 57  1  0  0  0  0
 32 58  1  0  0  0  0
 32 59  1  0  0  0  0
 33 60  1  0  0  0  0
 34 35  1  0  0  0  0
 35 36  1  0  0  0  0
 36 61  1  0  0  0  0
 37 62  1  0  0  0  0
M  END
$$$$
