CHEMBL147192
 OpenBabel04072215363D

 46 49  0  0  0  0  0  0  0  0999 V2000
    2.4421   -1.5442   -0.6082 C   0  0  0  0  0  0  0  0  0  0  0  0
    2.4283   -0.2006   -0.1095 O   0  0  0  0  0  0  0  0  0  0  0  0
    3.0930    0.6999   -0.9015 C   0  0  0  0  0  0  0  0  0  0  0  0
    4.2167    0.2885   -1.6157 C   0  0  0  0  0  0  0  0  0  0  0  0
    4.7714    1.0857   -2.6225 C   0  0  0  0  0  0  0  0  0  0  0  0
    5.7530    0.6209   -3.5104 C   0  0  0  0  0  0  0  0  0  0  0  0
    6.1937   -0.7284   -3.4120 N   0  0  0  0  0  0  0  0  0  0  0  0
    6.7910   -1.4655   -4.4563 C   0  0  0  0  0  0  0  0  0  0  0  0
    6.3067   -1.3833   -5.7678 C   0  0  0  0  0  0  0  0  0  0  0  0
    6.9601   -2.0410   -6.8110 C   0  0  0  0  0  0  0  0  0  0  0  0
    8.0932   -2.8061   -6.5428 C   0  0  0  0  0  0  0  0  0  0  0  0
    8.9438   -3.5450   -7.8421 Cl  0  0  0  0  0  0  0  0  0  0  0  0
    8.5480   -2.9637   -5.2370 C   0  0  0  0  0  0  0  0  0  0  0  0
    7.8842   -2.3049   -4.2062 C   0  0  0  0  0  0  0  0  0  0  0  0
    8.3270   -2.4523   -2.9471 F   0  0  0  0  0  0  0  0  0  0  0  0
    6.2263    1.3918   -4.5020 N   0  0  0  0  0  0  0  0  0  0  0  0
    5.7215    2.6262   -4.5993 C   0  0  0  0  0  0  0  0  0  0  0  0
    4.7690    3.1581   -3.8166 N   0  0  0  0  0  0  0  0  0  0  0  0
    4.2793    2.3754   -2.8434 C   0  0  0  0  0  0  0  0  0  0  0  0
    3.2302    2.8241   -2.0304 C   0  0  0  0  0  0  0  0  0  0  0  0
    2.6338    2.0140   -1.0456 C   0  0  0  0  0  0  0  0  0  0  0  0
    1.5817    2.5922   -0.3672 O   0  0  0  0  0  0  0  0  0  0  0  0
    1.4152    2.1446    0.9842 C   0  0  0  0  0  0  0  0  0  0  0  0
    0.3644    2.9838    1.7067 C   0  0  0  0  0  0  0  0  0  0  0  0
    0.1622    2.5163    3.0663 N   0  0  0  0  0  0  0  0  0  0  0  0
    0.7724    2.9947    4.1892 C   0  0  0  0  0  0  0  0  0  0  0  0
    0.2962    2.2110    5.2167 C   0  0  0  0  0  0  0  0  0  0  0  0
   -0.5886    1.2789    4.7471 N   0  0  0  0  0  0  0  0  0  0  0  0
   -0.6556    1.4897    3.4501 C   0  0  0  0  0  0  0  0  0  0  0  0
    1.6157   -2.0921   -0.1506 H   0  0  0  0  0  0  0  0  0  0  0  0
    3.3746   -2.0418   -0.3207 H   0  0  0  0  0  0  0  0  0  0  0  0
    2.3053   -1.5830   -1.6973 H   0  0  0  0  0  0  0  0  0  0  0  0
    4.6415   -0.6931   -1.4348 H   0  0  0  0  0  0  0  0  0  0  0  0
    6.6440   -0.8977   -2.5157 H   0  0  0  0  0  0  0  0  0  0  0  0
    5.4258   -0.7835   -5.9859 H   0  0  0  0  0  0  0  0  0  0  0  0
    6.5890   -1.9308   -7.8262 H   0  0  0  0  0  0  0  0  0  0  0  0
    9.4189   -3.5701   -5.0143 H   0  0  0  0  0  0  0  0  0  0  0  0
    6.1120    3.2463   -5.3958 H   0  0  0  0  0  0  0  0  0  0  0  0
    2.8420    3.8273   -2.1994 H   0  0  0  0  0  0  0  0  0  0  0  0
    2.3716    2.2092    1.5183 H   0  0  0  0  0  0  0  0  0  0  0  0
    1.0481    1.1165    0.9962 H   0  0  0  0  0  0  0  0  0  0  0  0
   -0.6010    2.9288    1.1891 H   0  0  0  0  0  0  0  0  0  0  0  0
    0.6462    4.0417    1.7421 H   0  0  0  0  0  0  0  0  0  0  0  0
    1.4765    3.8161    4.1761 H   0  0  0  0  0  0  0  0  0  0  0  0
    0.5421    2.2664    6.2683 H   0  0  0  0  0  0  0  0  0  0  0  0
   -1.2575    0.9234    2.7483 H   0  0  0  0  0  0  0  0  0  0  0  0
  1  2  1  0  0  0  0
  1 30  1  0  0  0  0
  1 31  1  0  0  0  0
  1 32  1  0  0  0  0
  2  3  1  0  0  0  0
  3  4  1  0  0  0  0
  3 21  2  0  0  0  0
  4  5  2  0  0  0  0
  4 33  1  0  0  0  0
  5  6  1  0  0  0  0
  5 19  1  0  0  0  0
  6  7  1  0  0  0  0
  6 16  2  0  0  0  0
  7  8  1  0  0  0  0
  7 34  1  0  0  0  0
  8  9  1  0  0  0  0
  8 14  2  0  0  0  0
  9 10  2  0  0  0  0
  9 35  1  0  0  0  0
 10 11  1  0  0  0  0
 10 36  1  0  0  0  0
 11 12  1  0  0  0  0
 11 13  2  0  0  0  0
 13 14  1  0  0  0  0
 13 37  1  0  0  0  0
 14 15  1  0  0  0  0
 16 17  1  0  0  0  0
 17 18  2  0  0  0  0
 17 38  1  0  0  0  0
 18 19  1  0  0  0  0
 19 20  2  0  0  0  0
 20 21  1  0  0  0  0
 20 39  1  0  0  0  0
 21 22  1  0  0  0  0
 22 23  1  0  0  0  0
 23 24  1  0  0  0  0
 23 40  1  0  0  0  0
 23 41  1  0  0  0  0
 24 25  1  0  0  0  0
 24 42  1  0  0  0  0
 24 43  1  0  0  0  0
 25 26  1  0  0  0  0
 25 29  1  0  0  0  0
 26 27  2  0  0  0  0
 26 44  1  0  0  0  0
 27 28  1  0  0  0  0
 27 45  1  0  0  0  0
 28 29  2  0  0  0  0
 29 46  1  0  0  0  0
M  END
$$$$
