CHEMBL3918739
 OpenBabel04072215373D

 62 65  0  0  0  0  0  0  0  0999 V2000
    1.3228   -2.8330   -4.1329 C   0  0  0  0  0  0  0  0  0  0  0  0
    2.2831   -3.3636   -3.2813 O   0  0  0  0  0  0  0  0  0  0  0  0
    2.9671   -2.6246   -2.3645 C   0  0  0  0  0  0  0  0  0  0  0  0
    2.6398   -1.2802   -2.1610 C   0  0  0  0  0  0  0  0  0  0  0  0
    3.3511   -0.5258   -1.2721 C   0  0  0  0  0  0  0  0  0  0  0  0
    3.0263    0.7770   -1.0835 F   0  0  0  0  0  0  0  0  0  0  0  0
    4.4139   -1.0777   -0.5821 C   0  0  0  0  0  0  0  0  0  0  0  0
    4.8212   -2.4365   -0.7116 C   0  0  0  0  0  0  0  0  0  0  0  0
    5.9666   -3.0159    0.0382 N   0  0  0  0  0  0  0  0  0  0  0  0
    6.6206   -4.2704   -0.4106 C   0  0  0  0  0  0  0  0  0  0  0  0
    6.9160   -4.5004   -1.9246 C   0  0  0  0  0  0  0  0  0  0  0  0
    7.6995   -3.4171   -2.6884 C   0  0  0  0  0  0  0  0  0  0  0  0
    7.7600   -3.7328   -4.1481 N   0  0  0  0  0  0  0  0  0  0  0  0
    8.5575   -4.9316   -4.4782 C   0  0  0  0  0  0  0  0  0  0  0  0
    9.9517   -4.4237   -4.7703 C   0  0  0  0  0  0  0  0  0  0  0  0
    9.6113   -3.2473   -5.6455 C   0  0  0  0  0  0  0  0  0  0  0  0
    8.4110   -2.6387   -4.9151 C   0  0  0  0  0  0  0  0  0  0  0  0
    6.2710   -2.6315    1.4346 C   0  0  0  0  0  0  0  0  0  0  0  0
    6.2374   -1.2971    1.9192 C   0  0  0  0  0  0  0  0  0  0  0  0
    6.4637   -0.9569    3.2398 C   0  0  0  0  0  0  0  0  0  0  0  0
    6.8035   -1.9194    4.1546 C   0  0  0  0  0  0  0  0  0  0  0  0
    7.0485   -1.5558    5.4330 N   0  0  0  0  0  0  0  0  0  0  0  0
    7.4515   -2.4621    6.3488 C   0  0  0  0  0  0  0  0  0  0  0  0
    7.6279   -3.7975    5.9695 C   0  0  0  0  0  0  0  0  0  0  0  0
    8.1487   -4.7768    6.9420 C   0  0  0  0  0  0  0  0  0  0  0  0
    8.4647   -6.0973    6.7029 C   0  0  0  0  0  0  0  0  0  0  0  0
    8.9393   -6.6460    7.8390 N   0  0  0  0  0  0  0  0  0  0  0  0
    8.9298   -5.7141    8.7799 N   0  0  0  0  0  0  0  0  0  0  0  0
    8.4580   -4.5642    8.2736 C   0  0  0  0  0  0  0  0  0  0  0  0
    7.3520   -4.1696    4.6804 N   0  0  0  0  0  0  0  0  0  0  0  0
    6.9381   -3.2524    3.7549 C   0  0  0  0  0  0  0  0  0  0  0  0
    6.6578   -3.6169    2.4125 C   0  0  0  0  0  0  0  0  0  0  0  0
    4.0320   -3.2021   -1.6230 C   0  0  0  0  0  0  0  0  0  0  0  0
   -0.2119   -0.0233    2.3750 Cl  0  0  0  0  0  0  0  0  0  0  0  0
    0.9553   -3.6056   -4.8340 H   0  0  0  0  0  0  0  0  0  0  0  0
    1.7600   -2.0004   -4.7332 H   0  0  0  0  0  0  0  0  0  0  0  0
    0.4617   -2.4410   -3.5478 H   0  0  0  0  0  0  0  0  0  0  0  0
    1.8338   -0.7907   -2.6873 H   0  0  0  0  0  0  0  0  0  0  0  0
    4.8425   -0.3378   -0.0081 H   0  0  0  0  0  0  0  0  0  0  0  0
    6.0570   -5.1480   -0.0266 H   0  0  0  0  0  0  0  0  0  0  0  0
    7.6348   -4.3052    0.0553 H   0  0  0  0  0  0  0  0  0  0  0  0
    6.0135   -4.7055   -2.5069 H   0  0  0  0  0  0  0  0  0  0  0  0
    7.4907   -5.4464   -1.9508 H   0  0  0  0  0  0  0  0  0  0  0  0
    8.7160   -3.2811   -2.2547 H   0  0  0  0  0  0  0  0  0  0  0  0
    7.1417   -2.4624   -2.5667 H   0  0  0  0  0  0  0  0  0  0  0  0
    8.1310   -5.3695   -5.4124 H   0  0  0  0  0  0  0  0  0  0  0  0
    8.5499   -5.7427   -3.7305 H   0  0  0  0  0  0  0  0  0  0  0  0
   10.6115   -5.1740   -5.2572 H   0  0  0  0  0  0  0  0  0  0  0  0
   10.4155   -4.0775   -3.8209 H   0  0  0  0  0  0  0  0  0  0  0  0
    9.2669   -3.6595   -6.6218 H   0  0  0  0  0  0  0  0  0  0  0  0
   10.4461   -2.5401   -5.8395 H   0  0  0  0  0  0  0  0  0  0  0  0
    7.7118   -2.1859   -5.6528 H   0  0  0  0  0  0  0  0  0  0  0  0
    8.7713   -1.8330   -4.2384 H   0  0  0  0  0  0  0  0  0  0  0  0
    6.1014   -0.4307    1.3572 H   0  0  0  0  0  0  0  0  0  0  0  0
    6.3938    0.0786    3.5499 H   0  0  0  0  0  0  0  0  0  0  0  0
    7.6532   -2.1165    7.3549 H   0  0  0  0  0  0  0  0  0  0  0  0
    8.3719   -6.6221    5.7625 H   0  0  0  0  0  0  0  0  0  0  0  0
    9.2502   -5.8622    9.7622 H   0  0  0  0  0  0  0  0  0  0  0  0
    8.3589   -3.6485    8.8411 H   0  0  0  0  0  0  0  0  0  0  0  0
    6.7458   -4.6641    2.1548 H   0  0  0  0  0  0  0  0  0  0  0  0
    4.1985   -4.2500   -1.7744 H   0  0  0  0  0  0  0  0  0  0  0  0
    1.1442    0.0071    2.1469 H   0  0  0  0  0  0  0  0  0  0  0  0
  1  2  1  0  0  0  0
  1 35  1  0  0  0  0
  1 36  1  0  0  0  0
  1 37  1  0  0  0  0
  2  3  1  0  0  0  0
  3  4  1  0  0  0  0
  3 33  2  0  0  0  0
  4  5  2  0  0  0  0
  4 38  1  0  0  0  0
  5  6  1  0  0  0  0
  5  7  1  0  0  0  0
  7  8  2  0  0  0  0
  7 39  1  0  0  0  0
  8  9  1  0  0  0  0
  8 33  1  0  0  0  0
  9 10  1  0  0  0  0
  9 18  1  0  0  0  0
 10 11  1  0  0  0  0
 10 40  1  0  0  0  0
 10 41  1  0  0  0  0
 11 12  1  0  0  0  0
 11 42  1  0  0  0  0
 11 43  1  0  0  0  0
 12 13  1  0  0  0  0
 12 44  1  0  0  0  0
 12 45  1  0  0  0  0
 13 14  1  0  0  0  0
 13 17  1  0  0  0  0
 14 15  1  0  0  0  0
 14 46  1  0  0  0  0
 14 47  1  0  0  0  0
 15 16  1  0  0  0  0
 15 48  1  0  0  0  0
 15 49  1  0  0  0  0
 16 17  1  0  0  0  0
 16 50  1  0  0  0  0
 16 51  1  0  0  0  0
 17 52  1  0  0  0  0
 17 53  1  0  0  0  0
 18 19  1  0  0  0  0
 18 32  2  0  0  0  0
 19 20  2  0  0  0  0
 19 54  1  0  0  0  0
 20 21  1  0  0  0  0
 20 55  1  0  0  0  0
 21 22  1  0  0  0  0
 21 31  2  0  0  0  0
 22 23  2  0  0  0  0
 23 24  1  0  0  0  0
 23 56  1  0  0  0  0
 24 25  1  0  0  0  0
 24 30  2  0  0  0  0
 25 26  1  0  0  0  0
 25 29  2  0  0  0  0
 26 27  2  0  0  0  0
 26 57  1  0  0  0  0
 27 28  1  0  0  0  0
 28 29  1  0  0  0  0
 28 58  1  0  0  0  0
 29 59  1  0  0  0  0
 30 31  1  0  0  0  0
 31 32  1  0  0  0  0
 32 60  1  0  0  0  0
 33 61  1  0  0  0  0
 34 62  1  0  0  0  0
M  END
$$$$
