CHEMBL4556620
 OpenBabel04072215383D

 49 52  0  0  0  0  0  0  0  0999 V2000
    1.2448   -5.2221    5.9906 C   0  0  0  0  0  0  0  0  0  0  0  0
    2.4275   -5.1221    5.2050 O   0  0  0  0  0  0  0  0  0  0  0  0
    2.9842   -3.8734    5.1339 C   0  0  0  0  0  0  0  0  0  0  0  0
    2.4390   -2.7234    5.7038 C   0  0  0  0  0  0  0  0  0  0  0  0
    3.1099   -1.5121    5.6084 C   0  0  0  0  0  0  0  0  0  0  0  0
    4.3303   -1.4343    4.9452 C   0  0  0  0  0  0  0  0  0  0  0  0
    4.9618   -0.2015    4.7917 N   0  0  0  0  0  0  0  0  0  0  0  0
    5.0770    0.7294    5.8058 C   0  0  0  0  0  0  0  0  0  0  0  0
    5.2027    1.9936    5.4961 N   0  0  0  0  0  0  0  0  0  0  0  0
    6.5831    2.2282    5.2967 C   0  0  0  0  0  0  0  0  0  0  0  0
    6.9579    2.8804    4.1367 C   0  0  0  0  0  0  0  0  0  0  0  0
    8.2390    2.6729    3.6465 C   0  0  0  0  0  0  0  0  0  0  0  0
    9.1554    1.8531    4.3310 C   0  0  0  0  0  0  0  0  0  0  0  0
   10.3095    1.3426    3.6811 N   0  0  0  0  0  0  0  0  0  0  0  0
   10.3268    1.0926    2.3109 C   0  0  0  0  0  0  0  0  0  0  0  0
    9.3661    1.2868    1.5722 O   0  0  0  0  0  0  0  0  0  0  0  0
   11.5357    0.5777    1.8751 N   0  0  0  0  0  0  0  0  0  0  0  0
   11.8599    0.3809    0.5090 C   0  0  0  0  0  0  0  0  0  0  0  0
   11.1996    1.0530   -0.5276 C   0  0  0  0  0  0  0  0  0  0  0  0
   11.5087    0.7984   -1.8640 C   0  0  0  0  0  0  0  0  0  0  0  0
   12.5025   -0.1188   -2.1812 C   0  0  0  0  0  0  0  0  0  0  0  0
   13.1986   -0.7647   -1.1604 C   0  0  0  0  0  0  0  0  0  0  0  0
   12.8850   -0.5112    0.1814 C   0  0  0  0  0  0  0  0  0  0  0  0
    8.8623    1.3997    5.6222 C   0  0  0  0  0  0  0  0  0  0  0  0
    7.5494    1.5222    6.0661 C   0  0  0  0  0  0  0  0  0  0  0  0
    7.0894    0.7345    7.1469 N   0  0  0  0  0  0  0  0  0  0  0  0
    5.7710    0.3058    7.1335 C   0  0  0  0  0  0  0  0  0  0  0  0
    5.2393   -0.3805    7.9794 O   0  0  0  0  0  0  0  0  0  0  0  0
    4.8500   -2.5701    4.3177 C   0  0  0  0  0  0  0  0  0  0  0  0
    4.1871   -3.7933    4.4289 C   0  0  0  0  0  0  0  0  0  0  0  0
    0.9689   -6.2778    6.0574 H   0  0  0  0  0  0  0  0  0  0  0  0
    0.4185   -4.6854    5.5108 H   0  0  0  0  0  0  0  0  0  0  0  0
    1.4088   -4.8581    7.0127 H   0  0  0  0  0  0  0  0  0  0  0  0
    1.4963   -2.7269    6.2366 H   0  0  0  0  0  0  0  0  0  0  0  0
    2.6679   -0.6237    6.0542 H   0  0  0  0  0  0  0  0  0  0  0  0
    4.7744    0.2247    3.8898 H   0  0  0  0  0  0  0  0  0  0  0  0
    6.2152    3.3941    3.5322 H   0  0  0  0  0  0  0  0  0  0  0  0
    8.4676    3.0752    2.6626 H   0  0  0  0  0  0  0  0  0  0  0  0
   10.9455    0.7982    4.2425 H   0  0  0  0  0  0  0  0  0  0  0  0
   12.1112    0.1039    2.5522 H   0  0  0  0  0  0  0  0  0  0  0  0
   10.4324    1.7950   -0.3261 H   0  0  0  0  0  0  0  0  0  0  0  0
   10.9637    1.3178   -2.6476 H   0  0  0  0  0  0  0  0  0  0  0  0
   12.7340   -0.3252   -3.2224 H   0  0  0  0  0  0  0  0  0  0  0  0
   13.9795   -1.4774   -1.4118 H   0  0  0  0  0  0  0  0  0  0  0  0
   13.4339   -1.0422    0.9530 H   0  0  0  0  0  0  0  0  0  0  0  0
    9.5613    0.7763    6.1689 H   0  0  0  0  0  0  0  0  0  0  0  0
    7.7112    0.2998    7.8114 H   0  0  0  0  0  0  0  0  0  0  0  0
    5.7872   -2.5204    3.7671 H   0  0  0  0  0  0  0  0  0  0  0  0
    4.6099   -4.6851    3.9729 H   0  0  0  0  0  0  0  0  0  0  0  0
  1  2  1  0  0  0  0
  1 31  1  0  0  0  0
  1 32  1  0  0  0  0
  1 33  1  0  0  0  0
  2  3  1  0  0  0  0
  3  4  1  0  0  0  0
  3 30  2  0  0  0  0
  4  5  2  0  0  0  0
  4 34  1  0  0  0  0
  5  6  1  0  0  0  0
  5 35  1  0  0  0  0
  6  7  1  0  0  0  0
  6 29  2  0  0  0  0
  7  8  1  0  0  0  0
  7 36  1  0  0  0  0
  8  9  2  0  0  0  0
  8 27  1  0  0  0  0
  9 10  1  0  0  0  0
 10 11  1  0  0  0  0
 10 25  2  0  0  0  0
 11 12  2  0  0  0  0
 11 37  1  0  0  0  0
 12 13  1  0  0  0  0
 12 38  1  0  0  0  0
 13 14  1  0  0  0  0
 13 24  2  0  0  0  0
 14 15  1  0  0  0  0
 14 39  1  0  0  0  0
 15 16  2  0  0  0  0
 15 17  1  0  0  0  0
 17 18  1  0  0  0  0
 17 40  1  0  0  0  0
 18 19  1  0  0  0  0
 18 23  2  0  0  0  0
 19 20  2  0  0  0  0
 19 41  1  0  0  0  0
 20 21  1  0  0  0  0
 20 42  1  0  0  0  0
 21 22  2  0  0  0  0
 21 43  1  0  0  0  0
 22 23  1  0  0  0  0
 22 44  1  0  0  0  0
 23 45  1  0  0  0  0
 24 25  1  0  0  0  0
 24 46  1  0  0  0  0
 25 26  1  0  0  0  0
 26 27  1  0  0  0  0
 26 47  1  0  0  0  0
 27 28  2  0  0  0  0
 29 30  1  0  0  0  0
 29 48  1  0  0  0  0
 30 49  1  0  0  0  0
M  END
$$$$
