CHEMBL354145
 OpenBabel04072215363D

 49 53  0  0  0  0  0  0  0  0999 V2000
    3.4983   -1.2994    0.0765 C   0  0  0  0  0  0  0  0  0  0  0  0
    2.6377   -0.2115    0.4211 O   0  0  0  0  0  0  0  0  0  0  0  0
    3.2002    1.0363    0.4253 C   0  0  0  0  0  0  0  0  0  0  0  0
    4.2296    1.3797   -0.4568 C   0  0  0  0  0  0  0  0  0  0  0  0
    4.8972    2.6209   -0.3615 C   0  0  0  0  0  0  0  0  0  0  0  0
    5.9920    3.0032   -1.1575 C   0  0  0  0  0  0  0  0  0  0  0  0
    6.4592    2.1224   -2.1781 N   0  0  0  0  0  0  0  0  0  0  0  0
    7.7425    2.2284   -2.7708 C   0  0  0  0  0  0  0  0  0  0  0  0
    8.9445    2.2968   -2.0319 C   0  0  0  0  0  0  0  0  0  0  0  0
    8.9925    2.0153   -0.3207 Cl  0  0  0  0  0  0  0  0  0  0  0  0
   10.1827    2.5141   -2.6690 C   0  0  0  0  0  0  0  0  0  0  0  0
   10.2603    2.6262   -4.0567 C   0  0  0  0  0  0  0  0  0  0  0  0
    9.0945    2.4708   -4.7719 C   0  0  0  0  0  0  0  0  0  0  0  0
    7.8773    2.2709   -4.1553 C   0  0  0  0  0  0  0  0  0  0  0  0
    6.8653    2.1377   -5.0655 O   0  0  0  0  0  0  0  0  0  0  0  0
    7.6043    2.1920   -6.3074 C   0  0  0  0  0  0  0  0  0  0  0  0
    9.0001    2.4971   -6.1278 O   0  0  0  0  0  0  0  0  0  0  0  0
    6.6262    4.1743   -0.9765 N   0  0  0  0  0  0  0  0  0  0  0  0
    6.1814    4.9525    0.0134 C   0  0  0  0  0  0  0  0  0  0  0  0
    5.1375    4.6990    0.8106 N   0  0  0  0  0  0  0  0  0  0  0  0
    4.5055    3.5370    0.6231 C   0  0  0  0  0  0  0  0  0  0  0  0
    3.4222    3.2182    1.4331 C   0  0  0  0  0  0  0  0  0  0  0  0
    2.7349    1.9996    1.3303 C   0  0  0  0  0  0  0  0  0  0  0  0
    1.6690    1.8953    2.1964 O   0  0  0  0  0  0  0  0  0  0  0  0
    0.6329    0.9901    1.8138 C   0  0  0  0  0  0  0  0  0  0  0  0
   -0.7135    1.3483    2.4150 C   0  0  0  0  0  0  0  0  0  0  0  0
   -1.0661    2.6522    2.7735 C   0  0  0  0  0  0  0  0  0  0  0  0
   -2.3709    2.9093    3.1766 C   0  0  0  0  0  0  0  0  0  0  0  0
   -3.3356    1.9662    3.2473 N   0  0  0  0  0  0  0  0  0  0  0  0
   -2.9842    0.7109    2.9069 C   0  0  0  0  0  0  0  0  0  0  0  0
   -4.0272   -0.2757    2.9499 C   0  0  0  0  0  0  0  0  0  0  0  0
   -4.8415   -1.1053    2.9603 N   0  0  0  0  0  0  0  0  0  0  0  0
   -1.7013    0.3558    2.4914 C   0  0  0  0  0  0  0  0  0  0  0  0
    3.3300   -2.1025    0.7996 H   0  0  0  0  0  0  0  0  0  0  0  0
    4.5677   -1.0635    0.1094 H   0  0  0  0  0  0  0  0  0  0  0  0
    3.2279   -1.6659   -0.9183 H   0  0  0  0  0  0  0  0  0  0  0  0
    4.5569    0.6721   -1.2139 H   0  0  0  0  0  0  0  0  0  0  0  0
    5.7393    2.0396   -2.8936 H   0  0  0  0  0  0  0  0  0  0  0  0
   11.0912    2.5859   -2.0747 H   0  0  0  0  0  0  0  0  0  0  0  0
   11.2064    2.8031   -4.5553 H   0  0  0  0  0  0  0  0  0  0  0  0
    7.1569    2.9547   -6.9542 H   0  0  0  0  0  0  0  0  0  0  0  0
    7.5262    1.2191   -6.8089 H   0  0  0  0  0  0  0  0  0  0  0  0
    6.7211    5.8769    0.1885 H   0  0  0  0  0  0  0  0  0  0  0  0
    3.1036    3.9428    2.1805 H   0  0  0  0  0  0  0  0  0  0  0  0
    0.9084   -0.0122    2.1614 H   0  0  0  0  0  0  0  0  0  0  0  0
    0.4840    0.9998    0.7270 H   0  0  0  0  0  0  0  0  0  0  0  0
   -0.3490    3.4666    2.7233 H   0  0  0  0  0  0  0  0  0  0  0  0
   -2.6866    3.9135    3.4465 H   0  0  0  0  0  0  0  0  0  0  0  0
   -1.4826   -0.6687    2.2091 H   0  0  0  0  0  0  0  0  0  0  0  0
  1  2  1  0  0  0  0
  1 34  1  0  0  0  0
  1 35  1  0  0  0  0
  1 36  1  0  0  0  0
  2  3  1  0  0  0  0
  3  4  1  0  0  0  0
  3 23  2  0  0  0  0
  4  5  2  0  0  0  0
  4 37  1  0  0  0  0
  5  6  1  0  0  0  0
  5 21  1  0  0  0  0
  6  7  1  0  0  0  0
  6 18  2  0  0  0  0
  7  8  1  0  0  0  0
  7 38  1  0  0  0  0
  8  9  1  0  0  0  0
  8 14  2  0  0  0  0
  9 10  1  0  0  0  0
  9 11  2  0  0  0  0
 11 12  1  0  0  0  0
 11 39  1  0  0  0  0
 12 13  2  0  0  0  0
 12 40  1  0  0  0  0
 13 14  1  0  0  0  0
 13 17  1  0  0  0  0
 14 15  1  0  0  0  0
 15 16  1  0  0  0  0
 16 17  1  0  0  0  0
 16 41  1  0  0  0  0
 16 42  1  0  0  0  0
 18 19  1  0  0  0  0
 19 20  2  0  0  0  0
 19 43  1  0  0  0  0
 20 21  1  0  0  0  0
 21 22  2  0  0  0  0
 22 23  1  0  0  0  0
 22 44  1  0  0  0  0
 23 24  1  0  0  0  0
 24 25  1  0  0  0  0
 25 26  1  0  0  0  0
 25 45  1  0  0  0  0
 25 46  1  0  0  0  0
 26 27  1  0  0  0  0
 26 33  2  0  0  0  0
 27 28  2  0  0  0  0
 27 47  1  0  0  0  0
 28 29  1  0  0  0  0
 28 48  1  0  0  0  0
 29 30  2  0  0  0  0
 30 31  1  0  0  0  0
 30 33  1  0  0  0  0
 31 32  3  0  0  0  0
 33 49  1  0  0  0  0
M  END
$$$$
