CHEMBL400569
 OpenBabel04072215373D

 64 69  0  0  0  0  0  0  0  0999 V2000
    1.9003    1.0460   -7.7827 C   0  0  0  0  0  0  0  0  0  0  0  0
    2.1241    0.4679   -6.3953 C   0  0  0  0  0  0  0  0  0  0  0  0
    3.0404    1.3407   -5.6778 N   0  0  0  0  0  0  0  0  0  0  0  0
    3.2870    0.8835   -4.3122 C   0  0  0  0  0  0  0  0  0  0  0  0
    4.2316    1.8308   -3.6306 C   0  0  0  0  0  0  0  0  0  0  0  0
    5.4696    1.4129   -3.1606 C   0  0  0  0  0  0  0  0  0  0  0  0
    6.3751    2.2377   -2.5996 N   0  0  0  0  0  0  0  0  0  0  0  0
    6.0299    3.5445   -2.5196 C   0  0  0  0  0  0  0  0  0  0  0  0
    4.8065    4.0869   -2.9339 C   0  0  0  0  0  0  0  0  0  0  0  0
    4.4798    5.5079   -2.7623 C   0  0  0  0  0  0  0  0  0  0  0  0
    3.6846    6.2559   -3.6473 C   0  0  0  0  0  0  0  0  0  0  0  0
    3.3383    7.5758   -3.5378 N   0  0  0  0  0  0  0  0  0  0  0  0
    3.8913    8.1515   -2.4539 C   0  0  0  0  0  0  0  0  0  0  0  0
    3.8000    9.4610   -2.0586 N   0  0  0  0  0  0  0  0  0  0  0  0
    4.5380    9.7587   -0.9553 N   0  0  0  0  0  0  0  0  0  0  0  0
    5.0859    8.5743   -0.6359 C   0  0  0  0  0  0  0  0  0  0  0  0
    6.0953    8.3684    0.4414 C   0  0  0  0  0  0  0  0  0  0  0  0
    6.6471    7.2064    0.7455 N   0  0  0  0  0  0  0  0  0  0  0  0
    7.6571    7.4953    1.6279 C   0  0  0  0  0  0  0  0  0  0  0  0
    8.6098    6.6480    2.2292 C   0  0  0  0  0  0  0  0  0  0  0  0
    9.6079    7.1877    3.0618 C   0  0  0  0  0  0  0  0  0  0  0  0
   10.5519    6.4106    3.7113 N   0  0  0  0  0  0  0  0  0  0  0  0
   10.3624    4.9772    3.9819 C   0  0  0  0  0  0  0  0  0  0  0  0
   10.9881    4.6328    5.3616 C   0  0  0  0  0  0  0  0  0  0  0  0
   12.4165    5.0191    5.4613 N   0  0  0  0  0  0  0  0  0  0  0  0
   12.9498    4.7105    6.7853 C   0  0  0  0  0  0  0  0  0  0  0  0
   12.5441    6.4655    5.1707 C   0  0  0  0  0  0  0  0  0  0  0  0
   11.9618    6.8382    3.7877 C   0  0  0  0  0  0  0  0  0  0  0  0
    9.5896    8.5820    3.2722 C   0  0  0  0  0  0  0  0  0  0  0  0
    8.6430    9.4458    2.7051 C   0  0  0  0  0  0  0  0  0  0  0  0
    7.6900    8.8587    1.8891 C   0  0  0  0  0  0  0  0  0  0  0  0
    6.6447    9.3769    1.1770 N   0  0  0  0  0  0  0  0  0  0  0  0
    4.6925    7.5472   -1.5120 C   0  0  0  0  0  0  0  0  0  0  0  0
    4.9729    6.1878   -1.6518 C   0  0  0  0  0  0  0  0  0  0  0  0
    3.8976    3.1835   -3.4790 C   0  0  0  0  0  0  0  0  0  0  0  0
    1.2325    0.3989   -8.3610 H   0  0  0  0  0  0  0  0  0  0  0  0
    2.8448    1.1356   -8.3316 H   0  0  0  0  0  0  0  0  0  0  0  0
    1.4444    2.0414   -7.7303 H   0  0  0  0  0  0  0  0  0  0  0  0
    2.5489   -0.5372   -6.4830 H   0  0  0  0  0  0  0  0  0  0  0  0
    1.1646    0.3974   -5.8710 H   0  0  0  0  0  0  0  0  0  0  0  0
    2.6583    2.2842   -5.6606 H   0  0  0  0  0  0  0  0  0  0  0  0
    3.7195   -0.1236   -4.3294 H   0  0  0  0  0  0  0  0  0  0  0  0
    2.3575    0.8365   -3.7320 H   0  0  0  0  0  0  0  0  0  0  0  0
    5.7859    0.3762   -3.2299 H   0  0  0  0  0  0  0  0  0  0  0  0
    6.8090    4.1691   -2.0857 H   0  0  0  0  0  0  0  0  0  0  0  0
    3.2805    5.7898   -4.5452 H   0  0  0  0  0  0  0  0  0  0  0  0
    3.2753   10.1942   -2.5193 H   0  0  0  0  0  0  0  0  0  0  0  0
    8.5717    5.5884    2.0008 H   0  0  0  0  0  0  0  0  0  0  0  0
   10.8370    4.3787    3.1940 H   0  0  0  0  0  0  0  0  0  0  0  0
    9.3013    4.7069    4.0215 H   0  0  0  0  0  0  0  0  0  0  0  0
   10.8852    3.5549    5.5318 H   0  0  0  0  0  0  0  0  0  0  0  0
   10.4085    5.1453    6.1427 H   0  0  0  0  0  0  0  0  0  0  0  0
   12.8836    3.6351    6.9832 H   0  0  0  0  0  0  0  0  0  0  0  0
   12.4221    5.2424    7.5850 H   0  0  0  0  0  0  0  0  0  0  0  0
   14.0120    4.9745    6.8397 H   0  0  0  0  0  0  0  0  0  0  0  0
   13.6016    6.7538    5.1906 H   0  0  0  0  0  0  0  0  0  0  0  0
   12.0277    7.0548    5.9415 H   0  0  0  0  0  0  0  0  0  0  0  0
   12.5355    6.3373    2.9968 H   0  0  0  0  0  0  0  0  0  0  0  0
   12.0974    7.9130    3.6335 H   0  0  0  0  0  0  0  0  0  0  0  0
   10.3177    9.0302    3.9422 H   0  0  0  0  0  0  0  0  0  0  0  0
    8.6615   10.5103    2.9008 H   0  0  0  0  0  0  0  0  0  0  0  0
    6.3795   10.3506    1.0952 H   0  0  0  0  0  0  0  0  0  0  0  0
    5.5854    5.6955   -0.9034 H   0  0  0  0  0  0  0  0  0  0  0  0
    2.9147    3.5239   -3.7939 H   0  0  0  0  0  0  0  0  0  0  0  0
  1  2  1  0  0  0  0
  1 36  1  0  0  0  0
  1 37  1  0  0  0  0
  1 38  1  0  0  0  0
  2  3  1  0  0  0  0
  2 39  1  0  0  0  0
  2 40  1  0  0  0  0
  3  4  1  0  0  0  0
  3 41  1  0  0  0  0
  4  5  1  0  0  0  0
  4 42  1  0  0  0  0
  4 43  1  0  0  0  0
  5  6  1  0  0  0  0
  5 35  2  0  0  0  0
  6  7  2  0  0  0  0
  6 44  1  0  0  0  0
  7  8  1  0  0  0  0
  8  9  2  0  0  0  0
  8 45  1  0  0  0  0
  9 10  1  0  0  0  0
  9 35  1  0  0  0  0
 10 11  1  0  0  0  0
 10 34  2  0  0  0  0
 11 12  2  0  0  0  0
 11 46  1  0  0  0  0
 12 13  1  0  0  0  0
 13 14  1  0  0  0  0
 13 33  2  0  0  0  0
 14 15  1  0  0  0  0
 14 47  1  0  0  0  0
 15 16  2  0  0  0  0
 16 17  1  0  0  0  0
 16 33  1  0  0  0  0
 17 18  2  0  0  0  0
 17 32  1  0  0  0  0
 18 19  1  0  0  0  0
 19 20  1  0  0  0  0
 19 31  2  0  0  0  0
 20 21  2  0  0  0  0
 20 48  1  0  0  0  0
 21 22  1  0  0  0  0
 21 29  1  0  0  0  0
 22 23  1  0  0  0  0
 22 28  1  0  0  0  0
 23 24  1  0  0  0  0
 23 49  1  0  0  0  0
 23 50  1  0  0  0  0
 24 25  1  0  0  0  0
 24 51  1  0  0  0  0
 24 52  1  0  0  0  0
 25 26  1  0  0  0  0
 25 27  1  0  0  0  0
 26 53  1  0  0  0  0
 26 54  1  0  0  0  0
 26 55  1  0  0  0  0
 27 28  1  0  0  0  0
 27 56  1  0  0  0  0
 27 57  1  0  0  0  0
 28 58  1  0  0  0  0
 28 59  1  0  0  0  0
 29 30  2  0  0  0  0
 29 60  1  0  0  0  0
 30 31  1  0  0  0  0
 30 61  1  0  0  0  0
 31 32  1  0  0  0  0
 32 62  1  0  0  0  0
 33 34  1  0  0  0  0
 34 63  1  0  0  0  0
 35 64  1  0  0  0  0
M  END
$$$$
