CHEMBL245800
 OpenBabel04072215363D

 52 56  0  0  1  0  0  0  0  0999 V2000
   -4.1347    0.1555   -1.3094 N   0  0  0  0  0  0  0  0  0  0  0  0
   -3.0471    0.1694   -0.9011 C   0  0  0  0  0  0  0  0  0  0  0  0
   -1.6994    0.2608   -0.4426 C   0  0  0  0  0  0  0  0  0  0  0  0
   -1.1981    1.5357   -0.2214 C   0  0  0  0  0  0  0  0  0  0  0  0
    0.0923    1.8106    0.0500 N   0  0  0  0  0  0  0  0  0  0  0  0
    0.9553    0.7926    0.0611 C   0  0  0  0  0  0  0  0  0  0  0  0
    2.2893    1.1246    0.2189 C   0  0  0  0  0  0  0  0  0  0  0  0
    3.2954    0.1593    0.2110 C   0  0  0  0  0  0  0  0  0  0  0  0
    2.9884   -1.1944    0.0575 C   0  0  0  0  0  0  0  0  0  0  0  0
    4.0635   -2.2103    0.0056 C   0  0  0  0  0  0  0  0  0  0  0  0
    3.9166   -3.4714    0.6149 C   0  0  0  0  0  0  0  0  0  0  0  0
    4.9345   -4.4354    0.5551 C   0  0  0  0  0  0  0  0  0  0  0  0
    6.1369   -4.1608   -0.1021 C   0  0  0  0  0  0  0  0  0  0  0  0
    7.2493   -5.1773   -0.1527 C   0  0  0  0  0  0  0  0  0  0  0  0
    7.6163   -5.5036   -1.5271 N   0  0  0  0  0  0  0  0  0  0  0  0
    6.3018   -2.9048   -0.6951 C   0  0  0  0  0  0  0  0  0  0  0  0
    5.2788   -1.9535   -0.6450 C   0  0  0  0  0  0  0  0  0  0  0  0
    1.6240   -1.5305   -0.0851 C   0  0  0  0  0  0  0  0  0  0  0  0
    0.5724   -0.5615   -0.1083 C   0  0  0  0  0  0  0  0  0  0  0  0
   -0.8319   -0.8359   -0.3187 C   0  0  0  0  0  0  0  0  0  0  0  0
   -1.2734   -2.1918   -0.5213 N   0  0  0  0  0  0  0  0  0  0  0  0
   -2.5885   -2.7087   -0.0196 C   0  0  2  0  0  0  0  0  0  0  0  0
   -2.9704   -2.5325    1.4164 C   0  0  0  0  0  0  0  0  0  0  0  0
   -2.5544   -3.9013    0.9220 C   0  0  1  0  0  0  0  0  0  0  0  0
   -3.5370   -5.0227    1.1909 C   0  0  0  0  0  0  0  0  0  0  0  0
   -4.2015   -5.7883    0.2214 C   0  0  0  0  0  0  0  0  0  0  0  0
   -4.9125   -6.9510    0.5758 C   0  0  0  0  0  0  0  0  0  0  0  0
   -4.9773   -7.3658    1.9062 C   0  0  0  0  0  0  0  0  0  0  0  0
   -4.3680   -6.6012    2.8910 C   0  0  0  0  0  0  0  0  0  0  0  0
   -3.6716   -5.4467    2.5318 C   0  0  0  0  0  0  0  0  0  0  0  0
   -1.8312    2.4175   -0.2949 H   0  0  0  0  0  0  0  0  0  0  0  0
    2.5663    2.1720    0.3258 H   0  0  0  0  0  0  0  0  0  0  0  0
    4.3263    0.4902    0.3202 H   0  0  0  0  0  0  0  0  0  0  0  0
    3.0016   -3.7246    1.1481 H   0  0  0  0  0  0  0  0  0  0  0  0
    4.7753   -5.4022    1.0271 H   0  0  0  0  0  0  0  0  0  0  0  0
    6.9539   -6.0963    0.3636 H   0  0  0  0  0  0  0  0  0  0  0  0
    8.1230   -4.7765    0.3755 H   0  0  0  0  0  0  0  0  0  0  0  0
    6.7973   -5.8779   -2.0040 H   0  0  0  0  0  0  0  0  0  0  0  0
    8.3134   -6.2448   -1.5217 H   0  0  0  0  0  0  0  0  0  0  0  0
    7.2297   -2.6650   -1.2119 H   0  0  0  0  0  0  0  0  0  0  0  0
    5.4467   -1.0013   -1.1440 H   0  0  0  0  0  0  0  0  0  0  0  0
    1.3895   -2.5806   -0.2302 H   0  0  0  0  0  0  0  0  0  0  0  0
   -0.5256   -2.8412   -0.2984 H   0  0  0  0  0  0  0  0  0  0  0  0
   -3.3743   -2.6738   -0.7695 H   0  0  0  0  0  0  0  0  0  0  0  0
   -4.0203   -2.3429    1.6191 H   0  0  0  0  0  0  0  0  0  0  0  0
   -2.2949   -2.0371    2.1011 H   0  0  0  0  0  0  0  0  0  0  0  0
   -1.5383   -4.2222    1.1472 H   0  0  0  0  0  0  0  0  0  0  0  0
   -4.1398   -5.5170   -0.8294 H   0  0  0  0  0  0  0  0  0  0  0  0
   -5.3931   -7.5538   -0.1905 H   0  0  0  0  0  0  0  0  0  0  0  0
   -5.4892   -8.2873    2.1761 H   0  0  0  0  0  0  0  0  0  0  0  0
   -4.4011   -6.9107    3.9322 H   0  0  0  0  0  0  0  0  0  0  0  0
   -3.1717   -4.8779    3.3144 H   0  0  0  0  0  0  0  0  0  0  0  0
  1  2  3  0  0  0  0
  2  3  1  0  0  0  0
  3  4  1  0  0  0  0
  3 20  2  0  0  0  0
  4  5  2  0  0  0  0
  4 31  1  0  0  0  0
  5  6  1  0  0  0  0
  6  7  1  0  0  0  0
  6 19  2  0  0  0  0
  7  8  2  0  0  0  0
  7 32  1  0  0  0  0
  8  9  1  0  0  0  0
  8 33  1  0  0  0  0
  9 10  1  0  0  0  0
  9 18  2  0  0  0  0
 10 11  1  0  0  0  0
 10 17  2  0  0  0  0
 11 12  2  0  0  0  0
 11 34  1  0  0  0  0
 12 13  1  0  0  0  0
 12 35  1  0  0  0  0
 13 14  1  0  0  0  0
 13 16  2  0  0  0  0
 14 15  1  0  0  0  0
 14 36  1  0  0  0  0
 14 37  1  0  0  0  0
 15 38  1  0  0  0  0
 15 39  1  0  0  0  0
 16 17  1  0  0  0  0
 16 40  1  0  0  0  0
 17 41  1  0  0  0  0
 18 19  1  0  0  0  0
 18 42  1  0  0  0  0
 19 20  1  0  0  0  0
 20 21  1  0  0  0  0
 21 22  1  0  0  0  0
 21 43  1  0  0  0  0
 22 23  1  0  0  0  0
 22 24  1  0  0  0  0
 22 44  1  6  0  0  0
 23 24  1  0  0  0  0
 23 45  1  0  0  0  0
 23 46  1  0  0  0  0
 24 25  1  0  0  0  0
 24 47  1  1  0  0  0
 25 26  1  0  0  0  0
 25 30  2  0  0  0  0
 26 27  2  0  0  0  0
 26 48  1  0  0  0  0
 27 28  1  0  0  0  0
 27 49  1  0  0  0  0
 28 29  2  0  0  0  0
 28 50  1  0  0  0  0
 29 30  1  0  0  0  0
 29 51  1  0  0  0  0
 30 52  1  0  0  0  0
M  END
$$$$
