CHEMBL3690570
 OpenBabel04072215373D

 60 64  0  0  0  0  0  0  0  0999 V2000
    2.7233    0.3149    1.2447 O   0  0  0  0  0  0  0  0  0  0  0  0
    2.6672    0.8290    0.1361 C   0  0  0  0  0  0  0  0  0  0  0  0
    1.6688    1.7266   -0.1807 N   0  0  0  0  0  0  0  0  0  0  0  0
    0.5866    1.9391    0.7880 C   0  0  0  0  0  0  0  0  0  0  0  0
   -0.5395    0.8966    0.7428 C   0  0  0  0  0  0  0  0  0  0  0  0
   -0.3555   -0.0024   -0.2526 F   0  0  0  0  0  0  0  0  0  0  0  0
   -0.6646    0.2209    1.9026 F   0  0  0  0  0  0  0  0  0  0  0  0
   -1.7253    1.5088    0.4987 F   0  0  0  0  0  0  0  0  0  0  0  0
    3.5343    0.6440   -0.9182 N   0  0  0  0  0  0  0  0  0  0  0  0
    4.6939   -0.1623   -0.9306 C   0  0  0  0  0  0  0  0  0  0  0  0
    5.1292   -0.8858    0.1799 C   0  0  0  0  0  0  0  0  0  0  0  0
    6.3307   -1.5854    0.1421 C   0  0  0  0  0  0  0  0  0  0  0  0
    7.0901   -1.5957   -1.0215 C   0  0  0  0  0  0  0  0  0  0  0  0
    6.6202   -0.9888   -2.1925 C   0  0  0  0  0  0  0  0  0  0  0  0
    7.3290   -1.1652   -3.4660 C   0  0  0  0  0  0  0  0  0  0  0  0
    7.5145   -0.2869   -4.5228 C   0  0  0  0  0  0  0  0  0  0  0  0
    8.2467   -0.8432   -5.5382 N   0  0  0  0  0  0  0  0  0  0  0  0
    8.5178   -2.0648   -5.1374 C   0  0  0  0  0  0  0  0  0  0  0  0
    9.2591   -3.1050   -5.7686 C   0  0  0  0  0  0  0  0  0  0  0  0
    9.4153   -4.3129   -5.1719 C   0  0  0  0  0  0  0  0  0  0  0  0
   10.2000   -5.3641   -5.8606 C   0  0  0  0  0  0  0  0  0  0  0  0
   10.7617   -6.3204   -5.0945 N   0  0  0  0  0  0  0  0  0  0  0  0
   11.4566   -7.2787   -5.7300 C   0  0  0  0  0  0  0  0  0  0  0  0
   11.5742   -7.3364   -7.0941 C   0  0  0  0  0  0  0  0  0  0  0  0
   10.9237   -6.3379   -7.7874 C   0  0  0  0  0  0  0  0  0  0  0  0
   10.9909   -6.3454   -9.2763 C   0  0  0  0  0  0  0  0  0  0  0  0
   12.0430   -6.7275   -9.7894 O   0  0  0  0  0  0  0  0  0  0  0  0
    9.8850   -5.9637  -10.0371 N   0  0  0  0  0  0  0  0  0  0  0  0
    8.5278   -5.6749   -9.5502 C   0  0  0  0  0  0  0  0  0  0  0  0
    7.4823   -6.4846  -10.3344 C   0  0  0  0  0  0  0  0  0  0  0  0
    7.6324   -6.3272  -11.7526 O   0  0  0  0  0  0  0  0  0  0  0  0
    8.9467   -6.7297  -12.1720 C   0  0  0  0  0  0  0  0  0  0  0  0
   10.0176   -5.8745  -11.4909 C   0  0  0  0  0  0  0  0  0  0  0  0
   10.2506   -5.3293   -7.1996 N   0  0  0  0  0  0  0  0  0  0  0  0
    8.7745   -4.5589   -3.8772 C   0  0  0  0  0  0  0  0  0  0  0  0
    8.0511   -3.5931   -3.2936 C   0  0  0  0  0  0  0  0  0  0  0  0
    7.9503   -2.3365   -3.8952 N   0  0  0  0  0  0  0  0  0  0  0  0
    5.4396   -0.2295   -2.1203 C   0  0  0  0  0  0  0  0  0  0  0  0
    1.4069    1.7670   -1.1549 H   0  0  0  0  0  0  0  0  0  0  0  0
    0.1793    2.9326    0.5768 H   0  0  0  0  0  0  0  0  0  0  0  0
    1.0118    1.9719    1.7980 H   0  0  0  0  0  0  0  0  0  0  0  0
    3.3646    1.2000   -1.7421 H   0  0  0  0  0  0  0  0  0  0  0  0
    4.5698   -0.9092    1.1087 H   0  0  0  0  0  0  0  0  0  0  0  0
    6.6721   -2.1224    1.0230 H   0  0  0  0  0  0  0  0  0  0  0  0
    8.0485   -2.1083   -0.9988 H   0  0  0  0  0  0  0  0  0  0  0  0
    7.1654    0.7356   -4.5981 H   0  0  0  0  0  0  0  0  0  0  0  0
    9.6991   -2.8787   -6.7358 H   0  0  0  0  0  0  0  0  0  0  0  0
   11.9247   -8.0211   -5.0894 H   0  0  0  0  0  0  0  0  0  0  0  0
   12.1377   -8.1148   -7.5915 H   0  0  0  0  0  0  0  0  0  0  0  0
    8.3616   -4.6026   -9.7067 H   0  0  0  0  0  0  0  0  0  0  0  0
    8.4022   -5.8993   -8.4911 H   0  0  0  0  0  0  0  0  0  0  0  0
    6.4746   -6.1512  -10.0663 H   0  0  0  0  0  0  0  0  0  0  0  0
    7.5560   -7.5509  -10.0890 H   0  0  0  0  0  0  0  0  0  0  0  0
    9.0025   -6.6083  -13.2577 H   0  0  0  0  0  0  0  0  0  0  0  0
    9.0847   -7.7933  -11.9421 H   0  0  0  0  0  0  0  0  0  0  0  0
    9.8698   -4.8187  -11.7499 H   0  0  0  0  0  0  0  0  0  0  0  0
   11.0121   -6.1716  -11.8270 H   0  0  0  0  0  0  0  0  0  0  0  0
    8.8831   -5.5357   -3.4150 H   0  0  0  0  0  0  0  0  0  0  0  0
    7.5410   -3.7672   -2.3578 H   0  0  0  0  0  0  0  0  0  0  0  0
    5.0866    0.2914   -3.0070 H   0  0  0  0  0  0  0  0  0  0  0  0
  1  2  2  0  0  0  0
  2  3  1  0  0  0  0
  2  9  1  0  0  0  0
  3  4  1  0  0  0  0
  3 39  1  0  0  0  0
  4  5  1  0  0  0  0
  4 40  1  0  0  0  0
  4 41  1  0  0  0  0
  5  6  1  0  0  0  0
  5  7  1  0  0  0  0
  5  8  1  0  0  0  0
  9 10  1  0  0  0  0
  9 42  1  0  0  0  0
 10 11  1  0  0  0  0
 10 38  2  0  0  0  0
 11 12  2  0  0  0  0
 11 43  1  0  0  0  0
 12 13  1  0  0  0  0
 12 44  1  0  0  0  0
 13 14  2  0  0  0  0
 13 45  1  0  0  0  0
 14 15  1  0  0  0  0
 14 38  1  0  0  0  0
 15 16  2  0  0  0  0
 15 37  1  0  0  0  0
 16 17  1  0  0  0  0
 16 46  1  0  0  0  0
 17 18  2  0  0  0  0
 18 19  1  0  0  0  0
 18 37  1  0  0  0  0
 19 20  2  0  0  0  0
 19 47  1  0  0  0  0
 20 21  1  0  0  0  0
 20 35  1  0  0  0  0
 21 22  1  0  0  0  0
 21 34  2  0  0  0  0
 22 23  2  0  0  0  0
 23 24  1  0  0  0  0
 23 48  1  0  0  0  0
 24 25  2  0  0  0  0
 24 49  1  0  0  0  0
 25 26  1  0  0  0  0
 25 34  1  0  0  0  0
 26 27  2  0  0  0  0
 26 28  1  0  0  0  0
 28 29  1  0  0  0  0
 28 33  1  0  0  0  0
 29 30  1  0  0  0  0
 29 50  1  0  0  0  0
 29 51  1  0  0  0  0
 30 31  1  0  0  0  0
 30 52  1  0  0  0  0
 30 53  1  0  0  0  0
 31 32  1  0  0  0  0
 32 33  1  0  0  0  0
 32 54  1  0  0  0  0
 32 55  1  0  0  0  0
 33 56  1  0  0  0  0
 33 57  1  0  0  0  0
 35 36  2  0  0  0  0
 35 58  1  0  0  0  0
 36 37  1  0  0  0  0
 36 59  1  0  0  0  0
 38 60  1  0  0  0  0
M  END
$$$$
