CHEMBL3972979
 OpenBabel04072215373D

 74 78  0  0  0  0  0  0  0  0999 V2000
   -2.1723   11.6863    3.0221 C   0  0  0  0  0  0  0  0  0  0  0  0
   -1.1393   11.6134    4.0188 N   0  0  0  0  0  0  0  0  0  0  0  0
   -0.1000   12.5137    4.0691 C   0  0  0  0  0  0  0  0  0  0  0  0
   -0.0415   13.4945    3.3303 O   0  0  0  0  0  0  0  0  0  0  0  0
    0.9283   12.2858    5.1584 C   0  0  0  0  0  0  0  0  0  0  0  0
    1.2085   10.8862    5.4058 N   0  0  0  0  0  0  0  0  0  0  0  0
    2.4144   10.2593    5.2658 C   0  0  0  0  0  0  0  0  0  0  0  0
    2.2419    8.9753    5.7264 C   0  0  0  0  0  0  0  0  0  0  0  0
    3.3067    8.0058    5.8475 C   0  0  0  0  0  0  0  0  0  0  0  0
    3.0551    6.6440    5.8466 C   0  0  0  0  0  0  0  0  0  0  0  0
    4.0228    5.7333    6.0860 N   0  0  0  0  0  0  0  0  0  0  0  0
    5.2444    6.2308    6.3526 C   0  0  0  0  0  0  0  0  0  0  0  0
    6.2403    5.3648    6.7291 C   0  0  0  0  0  0  0  0  0  0  0  0
    7.4919    5.8396    7.1348 C   0  0  0  0  0  0  0  0  0  0  0  0
    7.8540    7.1891    7.0752 C   0  0  0  0  0  0  0  0  0  0  0  0
    9.0992    7.7114    7.5149 N   0  0  0  0  0  0  0  0  0  0  0  0
   10.4399    7.0458    7.2875 C   0  0  0  0  0  0  0  0  0  0  0  0
   10.4013    5.6219    6.7548 C   0  0  0  0  0  0  0  0  0  0  0  0
   11.7060    4.8657    6.4960 C   0  0  0  0  0  0  0  0  0  0  0  0
   11.4022    3.5661    5.8421 N   0  0  0  0  0  0  0  0  0  0  0  0
   10.4650    2.6920    6.5736 C   0  0  0  0  0  0  0  0  0  0  0  0
   11.3342    1.9709    7.5784 C   0  0  0  0  0  0  0  0  0  0  0  0
   12.5703    1.6571    6.7581 C   0  0  0  0  0  0  0  0  0  0  0  0
   12.6074    2.7343    5.6704 C   0  0  0  0  0  0  0  0  0  0  0  0
    9.2114    8.9058    8.3125 C   0  0  0  0  0  0  0  0  0  0  0  0
    8.1943    9.2308    9.2329 C   0  0  0  0  0  0  0  0  0  0  0  0
    8.2602   10.3757   10.0309 C   0  0  0  0  0  0  0  0  0  0  0  0
    7.3218   10.7677   10.9482 O   0  0  0  0  0  0  0  0  0  0  0  0
    6.1639    9.9500   11.0696 C   0  0  0  0  0  0  0  0  0  0  0  0
    9.3661   11.2200    9.9347 C   0  0  0  0  0  0  0  0  0  0  0  0
   10.4010   10.9231    9.0523 C   0  0  0  0  0  0  0  0  0  0  0  0
   11.5495   11.6545    8.8961 O   0  0  0  0  0  0  0  0  0  0  0  0
   11.7038   12.8014    9.7270 C   0  0  0  0  0  0  0  0  0  0  0  0
   10.3099    9.7817    8.2397 C   0  0  0  0  0  0  0  0  0  0  0  0
    6.8237    8.0519    6.6436 C   0  0  0  0  0  0  0  0  0  0  0  0
    5.5304    7.6132    6.3270 C   0  0  0  0  0  0  0  0  0  0  0  0
    4.5538    8.5020    6.0542 N   0  0  0  0  0  0  0  0  0  0  0  0
    0.8810    8.9120    6.0953 C   0  0  0  0  0  0  0  0  0  0  0  0
    0.2449   10.0695    5.8948 N   0  0  0  0  0  0  0  0  0  0  0  0
   -2.8130   10.8068    3.1196 H   0  0  0  0  0  0  0  0  0  0  0  0
   -1.7211   11.7141    2.0285 H   0  0  0  0  0  0  0  0  0  0  0  0
   -2.7572   12.5957    3.1849 H   0  0  0  0  0  0  0  0  0  0  0  0
   -1.1101   10.8131    4.6544 H   0  0  0  0  0  0  0  0  0  0  0  0
    0.5805   12.7274    6.0968 H   0  0  0  0  0  0  0  0  0  0  0  0
    1.8671   12.7660    4.8621 H   0  0  0  0  0  0  0  0  0  0  0  0
    3.2896   10.7718    4.8913 H   0  0  0  0  0  0  0  0  0  0  0  0
    2.0674    6.2337    5.6707 H   0  0  0  0  0  0  0  0  0  0  0  0
    6.0312    4.2985    6.7748 H   0  0  0  0  0  0  0  0  0  0  0  0
    8.1277    5.0824    7.5610 H   0  0  0  0  0  0  0  0  0  0  0  0
   10.9743    7.0184    8.2486 H   0  0  0  0  0  0  0  0  0  0  0  0
   11.0343    7.6538    6.5960 H   0  0  0  0  0  0  0  0  0  0  0  0
    9.8031    5.5982    5.8371 H   0  0  0  0  0  0  0  0  0  0  0  0
    9.9396    5.0535    7.5562 H   0  0  0  0  0  0  0  0  0  0  0  0
   12.2497    4.7247    7.4386 H   0  0  0  0  0  0  0  0  0  0  0  0
   12.3469    5.4572    5.8317 H   0  0  0  0  0  0  0  0  0  0  0  0
   10.0408    1.9690    5.8624 H   0  0  0  0  0  0  0  0  0  0  0  0
    9.6045    3.1769    7.0333 H   0  0  0  0  0  0  0  0  0  0  0  0
   10.8570    1.0727    7.9811 H   0  0  0  0  0  0  0  0  0  0  0  0
   11.5892    2.6262    8.4201 H   0  0  0  0  0  0  0  0  0  0  0  0
   12.4632    0.6663    6.2992 H   0  0  0  0  0  0  0  0  0  0  0  0
   13.4729    1.6516    7.3752 H   0  0  0  0  0  0  0  0  0  0  0  0
   12.5545    2.2492    4.6875 H   0  0  0  0  0  0  0  0  0  0  0  0
   13.5397    3.3066    5.6917 H   0  0  0  0  0  0  0  0  0  0  0  0
    7.3543    8.5521    9.3296 H   0  0  0  0  0  0  0  0  0  0  0  0
    5.5213   10.3922   11.8367 H   0  0  0  0  0  0  0  0  0  0  0  0
    6.4273    8.9398   11.4007 H   0  0  0  0  0  0  0  0  0  0  0  0
    5.5982    9.9258   10.1322 H   0  0  0  0  0  0  0  0  0  0  0  0
    9.3880   12.0996   10.5693 H   0  0  0  0  0  0  0  0  0  0  0  0
   12.7224   13.1790    9.5925 H   0  0  0  0  0  0  0  0  0  0  0  0
   11.5874   12.5577   10.7886 H   0  0  0  0  0  0  0  0  0  0  0  0
   11.0088   13.5918    9.4251 H   0  0  0  0  0  0  0  0  0  0  0  0
   11.1168    9.6107    7.5336 H   0  0  0  0  0  0  0  0  0  0  0  0
    7.0086    9.1242    6.5943 H   0  0  0  0  0  0  0  0  0  0  0  0
    0.3297    8.0855    6.5264 H   0  0  0  0  0  0  0  0  0  0  0  0
  1  2  1  0  0  0  0
  1 40  1  0  0  0  0
  1 41  1  0  0  0  0
  1 42  1  0  0  0  0
  2  3  1  0  0  0  0
  2 43  1  0  0  0  0
  3  4  2  0  0  0  0
  3  5  1  0  0  0  0
  5  6  1  0  0  0  0
  5 44  1  0  0  0  0
  5 45  1  0  0  0  0
  6  7  1  0  0  0  0
  6 39  1  0  0  0  0
  7  8  2  0  0  0  0
  7 46  1  0  0  0  0
  8  9  1  0  0  0  0
  8 38  1  0  0  0  0
  9 10  1  0  0  0  0
  9 37  2  0  0  0  0
 10 11  2  0  0  0  0
 10 47  1  0  0  0  0
 11 12  1  0  0  0  0
 12 13  1  0  0  0  0
 12 36  2  0  0  0  0
 13 14  2  0  0  0  0
 13 48  1  0  0  0  0
 14 15  1  0  0  0  0
 14 49  1  0  0  0  0
 15 16  1  0  0  0  0
 15 35  2  0  0  0  0
 16 17  1  0  0  0  0
 16 25  1  0  0  0  0
 17 18  1  0  0  0  0
 17 50  1  0  0  0  0
 17 51  1  0  0  0  0
 18 19  1  0  0  0  0
 18 52  1  0  0  0  0
 18 53  1  0  0  0  0
 19 20  1  0  0  0  0
 19 54  1  0  0  0  0
 19 55  1  0  0  0  0
 20 21  1  0  0  0  0
 20 24  1  0  0  0  0
 21 22  1  0  0  0  0
 21 56  1  0  0  0  0
 21 57  1  0  0  0  0
 22 23  1  0  0  0  0
 22 58  1  0  0  0  0
 22 59  1  0  0  0  0
 23 24  1  0  0  0  0
 23 60  1  0  0  0  0
 23 61  1  0  0  0  0
 24 62  1  0  0  0  0
 24 63  1  0  0  0  0
 25 26  1  0  0  0  0
 25 34  2  0  0  0  0
 26 27  2  0  0  0  0
 26 64  1  0  0  0  0
 27 28  1  0  0  0  0
 27 30  1  0  0  0  0
 28 29  1  0  0  0  0
 29 65  1  0  0  0  0
 29 66  1  0  0  0  0
 29 67  1  0  0  0  0
 30 31  2  0  0  0  0
 30 68  1  0  0  0  0
 31 32  1  0  0  0  0
 31 34  1  0  0  0  0
 32 33  1  0  0  0  0
 33 69  1  0  0  0  0
 33 70  1  0  0  0  0
 33 71  1  0  0  0  0
 34 72  1  0  0  0  0
 35 36  1  0  0  0  0
 35 73  1  0  0  0  0
 36 37  1  0  0  0  0
 38 39  2  0  0  0  0
 38 74  1  0  0  0  0
M  END
$$$$
