CHEMBL3905485
 OpenBabel04072215373D

 75 78  0  0  1  0  0  0  0  0999 V2000
    2.1359   -5.7888    1.7245 C   0  0  0  0  0  0  0  0  0  0  0  0
    3.3418   -5.1764    1.9658 O   0  0  0  0  0  0  0  0  0  0  0  0
    3.5791   -3.8627    1.7879 C   0  0  0  0  0  0  0  0  0  0  0  0
    2.5448   -2.9742    1.4422 C   0  0  0  0  0  0  0  0  0  0  0  0
    2.7981   -1.6355    1.3676 C   0  0  0  0  0  0  0  0  0  0  0  0
    1.8182   -0.7397    1.0717 O   0  0  0  0  0  0  0  0  0  0  0  0
    0.4467   -0.7755    1.2191 C   0  0  0  0  0  0  0  0  0  0  0  0
    4.1088   -1.1911    1.6062 C   0  0  0  0  0  0  0  0  0  0  0  0
    5.2092   -2.0398    1.8922 C   0  0  0  0  0  0  0  0  0  0  0  0
    6.5639   -1.5445    2.1572 N   0  0  0  0  0  0  0  0  0  0  0  0
    6.9755   -0.0585    1.9399 C   0  0  0  0  0  0  0  0  0  0  0  0
    6.1204    1.1898    1.5134 C   0  0  0  0  0  0  0  0  0  0  0  0
    5.6793    1.1684    0.0553 C   0  0  0  0  0  0  0  0  0  0  0  0
    4.8413    2.3267   -0.4053 N   0  0  0  0  0  0  0  0  0  0  0  0
    3.7117    2.8224    0.4489 C   0  0  0  0  0  0  0  0  0  0  0  0
    2.4842    1.9286    0.3818 C   0  0  0  0  0  0  0  0  0  0  0  0
    2.0366    1.5914   -1.0456 C   0  0  0  0  0  0  0  0  0  0  0  0
    3.2192    1.0787   -1.8554 C   0  0  0  0  0  0  0  0  0  0  0  0
    4.3543    2.1221   -1.7997 C   0  0  3  0  0  0  0  0  0  0  0  0
    5.4790    1.7307   -2.7616 C   0  0  0  0  0  0  0  0  0  0  0  0
    7.6535   -2.3791    2.8059 C   0  0  0  0  0  0  0  0  0  0  0  0
    8.2249   -1.6336    3.8118 C   0  0  0  0  0  0  0  0  0  0  0  0
    9.3833   -1.8880    4.3402 C   0  0  0  0  0  0  0  0  0  0  0  0
   10.0515   -2.9928    4.0798 C   0  0  0  0  0  0  0  0  0  0  0  0
   11.2884   -2.8831    4.4783 N   0  0  0  0  0  0  0  0  0  0  0  0
   12.1231   -3.8565    4.4895 C   0  0  0  0  0  0  0  0  0  0  0  0
   11.6608   -5.1595    4.3978 C   0  0  0  0  0  0  0  0  0  0  0  0
   12.7561   -5.9622    5.3258 C   0  0  0  0  0  0  0  0  0  0  0  0
   13.2003   -5.2063    6.4628 C   0  0  0  0  0  0  0  0  0  0  0  0
   14.1552   -5.8021    7.1491 N   0  0  0  0  0  0  0  0  0  0  0  0
   14.3744   -6.9827    6.6051 N   0  0  0  0  0  0  0  0  0  0  0  0
   15.4529   -7.7764    7.2362 C   0  0  0  0  0  0  0  0  0  0  0  0
   13.5314   -7.1687    5.5275 C   0  0  0  0  0  0  0  0  0  0  0  0
   10.4053   -5.3060    3.6674 N   0  0  0  0  0  0  0  0  0  0  0  0
    9.5684   -4.1217    3.4281 C   0  0  0  0  0  0  0  0  0  0  0  0
    8.2804   -3.7794    2.6459 C   0  0  0  0  0  0  0  0  0  0  0  0
    4.8899   -3.3941    1.9996 C   0  0  0  0  0  0  0  0  0  0  0  0
    1.4774   -1.6785   -2.7594 Cl  0  0  0  0  0  0  0  0  0  0  0  0
    2.1275   -6.7529    2.2574 H   0  0  0  0  0  0  0  0  0  0  0  0
    2.0174   -5.9289    0.6304 H   0  0  0  0  0  0  0  0  0  0  0  0
    1.2878   -5.1989    2.1354 H   0  0  0  0  0  0  0  0  0  0  0  0
    1.5340   -3.2885    1.2505 H   0  0  0  0  0  0  0  0  0  0  0  0
    0.0144    0.1320    0.7359 H   0  0  0  0  0  0  0  0  0  0  0  0
    0.1911   -0.7013    2.2939 H   0  0  0  0  0  0  0  0  0  0  0  0
   -0.0038   -1.6560    0.7280 H   0  0  0  0  0  0  0  0  0  0  0  0
    4.2142   -0.1733    1.6085 H   0  0  0  0  0  0  0  0  0  0  0  0
    7.8899   -0.0431    1.3057 H   0  0  0  0  0  0  0  0  0  0  0  0
    7.2550    0.4328    2.8716 H   0  0  0  0  0  0  0  0  0  0  0  0
    6.7554    2.1099    1.6063 H   0  0  0  0  0  0  0  0  0  0  0  0
    5.3204    1.3702    2.2572 H   0  0  0  0  0  0  0  0  0  0  0  0
    5.2235    0.2045   -0.1916 H   0  0  0  0  0  0  0  0  0  0  0  0
    6.6364    1.1882   -0.5081 H   0  0  0  0  0  0  0  0  0  0  0  0
    3.3940    3.8270    0.1085 H   0  0  0  0  0  0  0  0  0  0  0  0
    4.0058    2.9311    1.5147 H   0  0  0  0  0  0  0  0  0  0  0  0
    1.6263    2.2939    0.9892 H   0  0  0  0  0  0  0  0  0  0  0  0
    2.8615    1.0751    0.8551 H   0  0  0  0  0  0  0  0  0  0  0  0
    1.6214    2.5001   -1.5240 H   0  0  0  0  0  0  0  0  0  0  0  0
    1.2388    0.8183   -1.0531 H   0  0  0  0  0  0  0  0  0  0  0  0
    2.8919    0.9102   -2.9020 H   0  0  0  0  0  0  0  0  0  0  0  0
    3.5509    0.0942   -1.4617 H   0  0  0  0  0  0  0  0  0  0  0  0
    3.9450    3.0876   -2.1698 H   0  0  0  0  0  0  0  0  0  0  0  0
    5.8911    0.7258   -2.5272 H   0  0  0  0  0  0  0  0  0  0  0  0
    6.2842    2.4910   -2.7011 H   0  0  0  0  0  0  0  0  0  0  0  0
    5.0847    1.6873   -3.7953 H   0  0  0  0  0  0  0  0  0  0  0  0
    7.8505   -0.7345    4.2120 H   0  0  0  0  0  0  0  0  0  0  0  0
    9.8146   -1.1558    4.9982 H   0  0  0  0  0  0  0  0  0  0  0  0
   13.0950   -3.5605    4.8172 H   0  0  0  0  0  0  0  0  0  0  0  0
   12.8799   -4.2228    6.7792 H   0  0  0  0  0  0  0  0  0  0  0  0
   15.9373   -7.1876    8.0666 H   0  0  0  0  0  0  0  0  0  0  0  0
   16.2793   -8.0002    6.5311 H   0  0  0  0  0  0  0  0  0  0  0  0
   15.0513   -8.6868    7.7108 H   0  0  0  0  0  0  0  0  0  0  0  0
   13.5539   -8.0759    4.9323 H   0  0  0  0  0  0  0  0  0  0  0  0
    7.8467   -4.4935    1.9356 H   0  0  0  0  0  0  0  0  0  0  0  0
    5.6456   -4.1009    2.2679 H   0  0  0  0  0  0  0  0  0  0  0  0
    1.7913   -1.5430   -1.4288 H   0  0  0  0  0  0  0  0  0  0  0  0
  1  2  1  0  0  0  0
  1 39  1  0  0  0  0
  1 40  1  0  0  0  0
  1 41  1  0  0  0  0
  2  3  1  0  0  0  0
  3  4  1  0  0  0  0
  3 37  2  0  0  0  0
  4  5  2  0  0  0  0
  4 42  1  0  0  0  0
  5  6  1  0  0  0  0
  5  8  1  0  0  0  0
  6  7  1  0  0  0  0
  7 43  1  0  0  0  0
  7 44  1  0  0  0  0
  7 45  1  0  0  0  0
  8  9  2  0  0  0  0
  8 46  1  0  0  0  0
  9 10  1  0  0  0  0
  9 37  1  0  0  0  0
 10 11  1  0  0  0  0
 10 21  1  0  0  0  0
 11 12  1  0  0  0  0
 11 47  1  0  0  0  0
 11 48  1  0  0  0  0
 12 13  1  0  0  0  0
 12 49  1  0  0  0  0
 12 50  1  0  0  0  0
 13 14  1  0  0  0  0
 13 51  1  0  0  0  0
 13 52  1  0  0  0  0
 14 15  1  0  0  0  0
 14 19  1  0  0  0  0
 15 16  1  0  0  0  0
 15 53  1  0  0  0  0
 15 54  1  0  0  0  0
 16 17  1  0  0  0  0
 16 55  1  0  0  0  0
 16 56  1  0  0  0  0
 17 18  1  0  0  0  0
 17 57  1  0  0  0  0
 17 58  1  0  0  0  0
 18 19  1  0  0  0  0
 18 59  1  0  0  0  0
 18 60  1  0  0  0  0
 19 20  1  0  0  0  0
 19 61  1  0  0  0  0
 20 62  1  0  0  0  0
 20 63  1  0  0  0  0
 20 64  1  0  0  0  0
 21 22  1  0  0  0  0
 21 36  2  0  0  0  0
 22 23  2  0  0  0  0
 22 65  1  0  0  0  0
 23 24  1  0  0  0  0
 23 66  1  0  0  0  0
 24 25  1  0  0  0  0
 24 35  2  0  0  0  0
 25 26  2  0  0  0  0
 26 27  1  0  0  0  0
 26 67  1  0  0  0  0
 27 28  1  0  0  0  0
 27 34  2  0  0  0  0
 28 29  1  0  0  0  0
 28 33  2  0  0  0  0
 29 30  2  0  0  0  0
 29 68  1  0  0  0  0
 30 31  1  0  0  0  0
 31 32  1  0  0  0  0
 31 33  1  0  0  0  0
 32 69  1  0  0  0  0
 32 70  1  0  0  0  0
 32 71  1  0  0  0  0
 33 72  1  0  0  0  0
 34 35  1  0  0  0  0
 35 36  1  0  0  0  0
 36 73  1  0  0  0  0
 37 74  1  0  0  0  0
 38 75  1  0  0  0  0
M  END
$$$$
