CHEMBL1098561
 OpenBabel04072215363D

 43 46  0  0  0  0  0  0  0  0999 V2000
    1.3820    1.0831   -2.0640 C   0  0  0  0  0  0  0  0  0  0  0  0
    2.6987    1.1869   -1.3472 C   0  0  0  0  0  0  0  0  0  0  0  0
    3.1002    2.1893   -0.7715 O   0  0  0  0  0  0  0  0  0  0  0  0
    3.3486   -0.0438   -1.4283 O   0  0  0  0  0  0  0  0  0  0  0  0
    4.7473   -0.0041   -1.2373 C   0  0  0  0  0  0  0  0  0  0  0  0
    5.3848   -0.9302   -0.3603 C   0  0  0  0  0  0  0  0  0  0  0  0
    4.6083   -1.8929    0.4813 C   0  0  0  0  0  0  0  0  0  0  0  0
    3.4322   -1.5057    1.1607 C   0  0  0  0  0  0  0  0  0  0  0  0
    2.7193   -2.3908    1.9851 C   0  0  0  0  0  0  0  0  0  0  0  0
    3.2100   -3.6699    2.1893 C   0  0  0  0  0  0  0  0  0  0  0  0
    2.5945   -4.5640    3.0183 O   0  0  0  0  0  0  0  0  0  0  0  0
    4.3711   -4.0743    1.5457 C   0  0  0  0  0  0  0  0  0  0  0  0
    4.8883   -5.3152    1.7873 O   0  0  0  0  0  0  0  0  0  0  0  0
    5.0383   -3.2230    0.6697 C   0  0  0  0  0  0  0  0  0  0  0  0
    6.8022   -0.8915   -0.3336 C   0  0  0  0  0  0  0  0  0  0  0  0
    7.5826   -1.6728    0.4963 O   0  0  0  0  0  0  0  0  0  0  0  0
    7.5624   -0.0303   -1.1509 C   0  0  0  0  0  0  0  0  0  0  0  0
    8.9352   -0.0877   -1.0844 O   0  0  0  0  0  0  0  0  0  0  0  0
    6.9241    0.8625   -2.0150 C   0  0  0  0  0  0  0  0  0  0  0  0
    5.5338    0.8427   -2.0336 C   0  0  0  0  0  0  0  0  0  0  0  0
    5.0683    1.7477   -2.9461 O   0  0  0  0  0  0  0  0  0  0  0  0
    6.1508    2.3748   -3.4845 C   0  0  0  0  0  0  0  0  0  0  0  0
    6.0944    3.3924   -4.4374 C   0  0  0  0  0  0  0  0  0  0  0  0
    7.3280    3.8738   -4.8681 C   0  0  0  0  0  0  0  0  0  0  0  0
    7.4138    4.8738   -5.8041 O   0  0  0  0  0  0  0  0  0  0  0  0
    8.5280    3.3621   -4.3702 C   0  0  0  0  0  0  0  0  0  0  0  0
    9.7175    3.8600   -4.8302 O   0  0  0  0  0  0  0  0  0  0  0  0
    8.5540    2.3541   -3.4133 C   0  0  0  0  0  0  0  0  0  0  0  0
    7.3249    1.8506   -2.9551 C   0  0  0  0  0  0  0  0  0  0  0  0
    0.8281    2.0197   -1.9548 H   0  0  0  0  0  0  0  0  0  0  0  0
    0.7880    0.2740   -1.6353 H   0  0  0  0  0  0  0  0  0  0  0  0
    1.5591    0.9069   -3.1294 H   0  0  0  0  0  0  0  0  0  0  0  0
    3.0548   -0.4889    1.0692 H   0  0  0  0  0  0  0  0  0  0  0  0
    1.8076   -2.0514    2.4667 H   0  0  0  0  0  0  0  0  0  0  0  0
    1.7755   -4.1586    3.3522 H   0  0  0  0  0  0  0  0  0  0  0  0
    4.2894   -5.7092    2.4536 H   0  0  0  0  0  0  0  0  0  0  0  0
    5.9157   -3.6104    0.1551 H   0  0  0  0  0  0  0  0  0  0  0  0
    7.0331   -2.0084    1.2259 H   0  0  0  0  0  0  0  0  0  0  0  0
    9.1217   -0.8007   -0.4413 H   0  0  0  0  0  0  0  0  0  0  0  0
    5.1460    3.7640   -4.7988 H   0  0  0  0  0  0  0  0  0  0  0  0
    6.5097    5.1472   -6.0371 H   0  0  0  0  0  0  0  0  0  0  0  0
    9.4633    4.5436   -5.4819 H   0  0  0  0  0  0  0  0  0  0  0  0
    9.4973    1.9683   -3.0308 H   0  0  0  0  0  0  0  0  0  0  0  0
  1  2  1  0  0  0  0
  1 30  1  0  0  0  0
  1 31  1  0  0  0  0
  1 32  1  0  0  0  0
  2  3  2  0  0  0  0
  2  4  1  0  0  0  0
  4  5  1  0  0  0  0
  5  6  1  0  0  0  0
  5 20  2  0  0  0  0
  6  7  1  0  0  0  0
  6 15  2  0  0  0  0
  7  8  1  0  0  0  0
  7 14  2  0  0  0  0
  8  9  2  0  0  0  0
  8 33  1  0  0  0  0
  9 10  1  0  0  0  0
  9 34  1  0  0  0  0
 10 11  1  0  0  0  0
 10 12  2  0  0  0  0
 11 35  1  0  0  0  0
 12 13  1  0  0  0  0
 12 14  1  0  0  0  0
 13 36  1  0  0  0  0
 14 37  1  0  0  0  0
 15 16  1  0  0  0  0
 15 17  1  0  0  0  0
 16 38  1  0  0  0  0
 17 18  1  0  0  0  0
 17 19  2  0  0  0  0
 18 39  1  0  0  0  0
 19 20  1  0  0  0  0
 19 29  1  0  0  0  0
 20 21  1  0  0  0  0
 21 22  1  0  0  0  0
 22 23  1  0  0  0  0
 22 29  2  0  0  0  0
 23 24  2  0  0  0  0
 23 40  1  0  0  0  0
 24 25  1  0  0  0  0
 24 26  1  0  0  0  0
 25 41  1  0  0  0  0
 26 27  1  0  0  0  0
 26 28  2  0  0  0  0
 27 42  1  0  0  0  0
 28 29  1  0  0  0  0
 28 43  1  0  0  0  0
M  END
$$$$
