CHEMBL3656074
 OpenBabel04072215373D

 80 84  0  0  1  0  0  0  0  0999 V2000
    2.8464    7.1998    2.6004 C   0  0  0  0  0  0  0  0  0  0  0  0
    1.7285    6.2217    2.3793 C   0  0  0  0  0  0  0  0  0  0  0  0
    2.0199    4.9207    1.9584 C   0  0  0  0  0  0  0  0  0  0  0  0
    0.9925    4.0028    1.7845 C   0  0  0  0  0  0  0  0  0  0  0  0
   -0.3291    4.3816    2.0083 C   0  0  0  0  0  0  0  0  0  0  0  0
   -1.2359    3.3987    1.9532 F   0  0  0  0  0  0  0  0  0  0  0  0
   -0.6668    5.6968    2.3641 C   0  0  0  0  0  0  0  0  0  0  0  0
   -1.9964    6.1789    2.5170 N   0  0  0  0  0  0  0  0  0  0  0  0
   -3.1209    5.5844    1.9734 C   0  0  0  0  0  0  0  0  0  0  0  0
   -3.1203    4.5947    1.2579 O   0  0  0  0  0  0  0  0  0  0  0  0
   -4.2923    6.2819    2.2661 N   0  0  0  0  0  0  0  0  0  0  0  0
   -5.5272    5.7152    1.8567 C   0  0  0  0  0  0  0  0  0  0  0  0
   -5.8342    4.3898    2.1836 C   0  0  0  0  0  0  0  0  0  0  0  0
   -6.9852    3.7836    1.6803 C   0  0  0  0  0  0  0  0  0  0  0  0
   -7.8712    4.5168    0.8896 C   0  0  0  0  0  0  0  0  0  0  0  0
   -9.0271    4.0008    0.3429 O   0  0  0  0  0  0  0  0  0  0  0  0
   -9.7254    3.0312    1.0245 C   0  0  0  0  0  0  0  0  0  0  0  0
   -9.8635    3.0033    2.4131 C   0  0  0  0  0  0  0  0  0  0  0  0
  -10.5662    1.9516    2.9740 C   0  0  0  0  0  0  0  0  0  0  0  0
  -11.1666    0.9768    2.2589 N   0  0  0  0  0  0  0  0  0  0  0  0
  -11.0672    1.0591    0.9101 C   0  0  0  0  0  0  0  0  0  0  0  0
  -11.7637   -0.0004    0.1882 C   0  0  0  0  0  0  0  0  0  0  0  0
  -11.9278   -0.2379   -1.1660 C   0  0  0  0  0  0  0  0  0  0  0  0
  -12.7262   -1.4089   -1.3431 C   0  0  0  0  0  0  0  0  0  0  0  0
  -13.1999   -2.0471   -2.5721 C   0  0  0  0  0  0  0  0  0  0  0  0
  -13.9325   -3.0312   -2.5630 O   0  0  0  0  0  0  0  0  0  0  0  0
  -12.7671   -1.4449   -3.7330 N   0  0  0  0  0  0  0  0  0  0  0  0
  -13.1409   -1.9261   -5.0443 C   0  0  0  0  0  0  0  0  0  0  0  0
  -14.4437   -1.3017   -5.5498 C   0  0  0  0  0  0  0  0  0  0  0  0
  -14.4194    0.2256   -5.6864 C   0  0  0  0  0  0  0  0  0  0  0  0
  -13.4308    0.7300   -6.7267 C   0  0  0  0  0  0  0  0  0  0  0  0
  -12.7358   -0.0530   -7.3741 O   0  0  0  0  0  0  0  0  0  0  0  0
  -13.3427    2.1028   -6.9109 N   0  0  0  0  0  0  0  0  0  0  0  0
  -14.1702    3.1155   -6.2532 C   0  0  0  0  0  0  0  0  0  0  0  0
  -14.9312    3.9486   -7.2865 C   0  0  0  0  0  0  0  0  0  0  0  0
  -13.9933    4.5243   -8.3474 C   0  0  0  0  0  0  0  0  0  0  0  0
  -13.1440    3.4245   -8.9903 C   0  0  3  0  0  0  0  0  0  0  0  0
  -12.2288    4.0107   -9.9117 O   0  0  0  0  0  0  0  0  0  0  0  0
  -12.4071    2.6201   -7.9106 C   0  0  0  0  0  0  0  0  0  0  0  0
  -13.0049   -1.8626   -0.0649 C   0  0  0  0  0  0  0  0  0  0  0  0
  -12.4260   -1.0158    0.8407 N   0  0  0  0  0  0  0  0  0  0  0  0
  -10.3659    2.0649    0.2583 C   0  0  0  0  0  0  0  0  0  0  0  0
   -7.5637    5.8406    0.5589 C   0  0  0  0  0  0  0  0  0  0  0  0
   -6.4065    6.4511    1.0619 C   0  0  0  0  0  0  0  0  0  0  0  0
    0.3859    6.6026    2.5828 C   0  0  0  0  0  0  0  0  0  0  0  0
    3.8220    6.7378    2.4094 H   0  0  0  0  0  0  0  0  0  0  0  0
    2.8444    7.5492    3.6371 H   0  0  0  0  0  0  0  0  0  0  0  0
    2.7459    8.0536    1.9242 H   0  0  0  0  0  0  0  0  0  0  0  0
    3.0459    4.6059    1.7816 H   0  0  0  0  0  0  0  0  0  0  0  0
    1.2034    2.9796    1.4885 H   0  0  0  0  0  0  0  0  0  0  0  0
   -2.1151    7.0912    2.9286 H   0  0  0  0  0  0  0  0  0  0  0  0
   -4.2095    7.2821    2.1612 H   0  0  0  0  0  0  0  0  0  0  0  0
   -5.1605    3.8061    2.8073 H   0  0  0  0  0  0  0  0  0  0  0  0
   -7.1594    2.7353    1.9054 H   0  0  0  0  0  0  0  0  0  0  0  0
   -9.4227    3.7593    3.0478 H   0  0  0  0  0  0  0  0  0  0  0  0
  -10.6589    1.8613    4.0534 H   0  0  0  0  0  0  0  0  0  0  0  0
  -11.5193    0.3862   -1.9479 H   0  0  0  0  0  0  0  0  0  0  0  0
  -12.1349   -0.6621   -3.6837 H   0  0  0  0  0  0  0  0  0  0  0  0
  -13.2579   -3.0146   -5.0021 H   0  0  0  0  0  0  0  0  0  0  0  0
  -12.2988   -1.7215   -5.7097 H   0  0  0  0  0  0  0  0  0  0  0  0
  -15.2572   -1.5687   -4.8635 H   0  0  0  0  0  0  0  0  0  0  0  0
  -14.6900   -1.7482   -6.5208 H   0  0  0  0  0  0  0  0  0  0  0  0
  -14.1913    0.6848   -4.7187 H   0  0  0  0  0  0  0  0  0  0  0  0
  -15.4207    0.5475   -5.9975 H   0  0  0  0  0  0  0  0  0  0  0  0
  -13.4964    3.7570   -5.6730 H   0  0  0  0  0  0  0  0  0  0  0  0
  -14.8792    2.6724   -5.5516 H   0  0  0  0  0  0  0  0  0  0  0  0
  -15.4673    4.7624   -6.7858 H   0  0  0  0  0  0  0  0  0  0  0  0
  -15.6828    3.3189   -7.7786 H   0  0  0  0  0  0  0  0  0  0  0  0
  -13.3386    5.2802   -7.8944 H   0  0  0  0  0  0  0  0  0  0  0  0
  -14.5678    5.0504   -9.1189 H   0  0  0  0  0  0  0  0  0  0  0  0
  -13.7970    2.7518   -9.5591 H   0  0  0  0  0  0  0  0  0  0  0  0
  -11.6459    4.6165   -9.4250 H   0  0  0  0  0  0  0  0  0  0  0  0
  -11.6813    3.2565   -7.3884 H   0  0  0  0  0  0  0  0  0  0  0  0
  -11.8227    1.8227   -8.3813 H   0  0  0  0  0  0  0  0  0  0  0  0
  -13.5751   -2.7223    0.2651 H   0  0  0  0  0  0  0  0  0  0  0  0
  -12.4668   -1.0941    1.8503 H   0  0  0  0  0  0  0  0  0  0  0  0
  -10.3052    2.1043   -0.8223 H   0  0  0  0  0  0  0  0  0  0  0  0
   -8.2143    6.3922   -0.1152 H   0  0  0  0  0  0  0  0  0  0  0  0
   -6.1707    7.4665    0.7590 H   0  0  0  0  0  0  0  0  0  0  0  0
    0.1742    7.6249    2.8886 H   0  0  0  0  0  0  0  0  0  0  0  0
  1  2  1  0  0  0  0
  1 46  1  0  0  0  0
  1 47  1  0  0  0  0
  1 48  1  0  0  0  0
  2  3  1  0  0  0  0
  2 45  2  0  0  0  0
  3  4  2  0  0  0  0
  3 49  1  0  0  0  0
  4  5  1  0  0  0  0
  4 50  1  0  0  0  0
  5  6  1  0  0  0  0
  5  7  2  0  0  0  0
  7  8  1  0  0  0  0
  7 45  1  0  0  0  0
  8  9  1  0  0  0  0
  8 51  1  0  0  0  0
  9 10  2  0  0  0  0
  9 11  1  0  0  0  0
 11 12  1  0  0  0  0
 11 52  1  0  0  0  0
 12 13  1  0  0  0  0
 12 44  2  0  0  0  0
 13 14  2  0  0  0  0
 13 53  1  0  0  0  0
 14 15  1  0  0  0  0
 14 54  1  0  0  0  0
 15 16  1  0  0  0  0
 15 43  2  0  0  0  0
 16 17  1  0  0  0  0
 17 18  1  0  0  0  0
 17 42  2  0  0  0  0
 18 19  2  0  0  0  0
 18 55  1  0  0  0  0
 19 20  1  0  0  0  0
 19 56  1  0  0  0  0
 20 21  2  0  0  0  0
 21 22  1  0  0  0  0
 21 42  1  0  0  0  0
 22 23  2  0  0  0  0
 22 41  1  0  0  0  0
 23 24  1  0  0  0  0
 23 57  1  0  0  0  0
 24 25  1  0  0  0  0
 24 40  2  0  0  0  0
 25 26  2  0  0  0  0
 25 27  1  0  0  0  0
 27 28  1  0  0  0  0
 27 58  1  0  0  0  0
 28 29  1  0  0  0  0
 28 59  1  0  0  0  0
 28 60  1  0  0  0  0
 29 30  1  0  0  0  0
 29 61  1  0  0  0  0
 29 62  1  0  0  0  0
 30 31  1  0  0  0  0
 30 63  1  0  0  0  0
 30 64  1  0  0  0  0
 31 32  2  0  0  0  0
 31 33  1  0  0  0  0
 33 34  1  0  0  0  0
 33 39  1  0  0  0  0
 34 35  1  0  0  0  0
 34 65  1  0  0  0  0
 34 66  1  0  0  0  0
 35 36  1  0  0  0  0
 35 67  1  0  0  0  0
 35 68  1  0  0  0  0
 36 37  1  0  0  0  0
 36 69  1  0  0  0  0
 36 70  1  0  0  0  0
 37 38  1  0  0  0  0
 37 39  1  0  0  0  0
 37 71  1  0  0  0  0
 38 72  1  0  0  0  0
 39 73  1  0  0  0  0
 39 74  1  0  0  0  0
 40 41  1  0  0  0  0
 40 75  1  0  0  0  0
 41 76  1  0  0  0  0
 42 77  1  0  0  0  0
 43 44  1  0  0  0  0
 43 78  1  0  0  0  0
 44 79  1  0  0  0  0
 45 80  1  0  0  0  0
M  END
$$$$
