CHEMBL3690465
 OpenBabel04072215373D

 47 50  0  0  0  0  0  0  0  0999 V2000
    3.4765    1.0194    2.5633 N   0  0  0  0  0  0  0  0  0  0  0  0
    3.6912    0.4841    1.2913 C   0  0  0  0  0  0  0  0  0  0  0  0
    4.4630   -0.6136    1.2251 N   0  0  0  0  0  0  0  0  0  0  0  0
    4.6196   -1.1887    0.0106 C   0  0  0  0  0  0  0  0  0  0  0  0
    5.3802   -2.4643   -0.0735 C   0  0  0  0  0  0  0  0  0  0  0  0
    5.8321   -3.0644   -1.3552 C   0  0  0  0  0  0  0  0  0  0  0  0
    6.7316   -4.0751   -1.3446 C   0  0  0  0  0  0  0  0  0  0  0  0
    7.0423   -4.6687   -0.1089 N   0  0  0  0  0  0  0  0  0  0  0  0
    7.6854   -5.8745    0.2407 C   0  0  0  0  0  0  0  0  0  0  0  0
    8.8599   -5.9301    1.1857 C   0  0  0  0  0  0  0  0  0  0  0  0
    9.6484   -4.7999    1.4324 C   0  0  0  0  0  0  0  0  0  0  0  0
   10.5272   -4.7776    2.5189 C   0  0  0  0  0  0  0  0  0  0  0  0
   10.6493   -5.8811    3.3620 C   0  0  0  0  0  0  0  0  0  0  0  0
    9.9236   -7.0409    3.1210 C   0  0  0  0  0  0  0  0  0  0  0  0
   10.0033   -8.1910    3.9605 N   0  0  0  0  0  0  0  0  0  0  0  0
   10.7595   -8.3207    5.1104 C   0  0  0  0  0  0  0  0  0  0  0  0
   11.4729   -7.4569    5.6237 O   0  0  0  0  0  0  0  0  0  0  0  0
   10.7307   -9.5896    5.6340 N   0  0  0  0  0  0  0  0  0  0  0  0
   11.5444   -9.8720    6.8291 C   0  0  0  0  0  0  0  0  0  0  0  0
   10.9500   -9.4380    8.1848 C   0  0  0  0  0  0  0  0  0  0  0  0
    9.6652   -9.0364    8.0681 F   0  0  0  0  0  0  0  0  0  0  0  0
   10.9535  -10.4883    9.0475 F   0  0  0  0  0  0  0  0  0  0  0  0
   11.6545   -8.4454    8.7676 F   0  0  0  0  0  0  0  0  0  0  0  0
    9.0471   -7.0631    2.0227 C   0  0  0  0  0  0  0  0  0  0  0  0
    6.4918   -6.5282    0.5830 C   0  0  0  0  0  0  0  0  0  0  0  0
    5.7082   -5.6394    1.3045 N   0  0  0  0  0  0  0  0  0  0  0  0
    6.1782   -4.4496    0.9591 C   0  0  0  0  0  0  0  0  0  0  0  0
    5.6264   -3.1497    1.0710 C   0  0  0  0  0  0  0  0  0  0  0  0
    4.0763   -0.7227   -1.1324 N   0  0  0  0  0  0  0  0  0  0  0  0
    3.2981    0.3732   -1.0152 C   0  0  0  0  0  0  0  0  0  0  0  0
    3.0665    1.0113    0.1771 C   0  0  0  0  0  0  0  0  0  0  0  0
    2.2847    2.0971    0.2441 F   0  0  0  0  0  0  0  0  0  0  0  0
    4.0835    0.5542    3.2317 H   0  0  0  0  0  0  0  0  0  0  0  0
    3.5499    2.0306    2.5838 H   0  0  0  0  0  0  0  0  0  0  0  0
    5.3964   -2.6895   -2.2778 H   0  0  0  0  0  0  0  0  0  0  0  0
    7.0923   -4.5619   -2.2420 H   0  0  0  0  0  0  0  0  0  0  0  0
    9.5455   -3.8960    0.8386 H   0  0  0  0  0  0  0  0  0  0  0  0
   11.0988   -3.8805    2.7457 H   0  0  0  0  0  0  0  0  0  0  0  0
   11.3211   -5.7898    4.2094 H   0  0  0  0  0  0  0  0  0  0  0  0
    9.4686   -9.0104    3.6836 H   0  0  0  0  0  0  0  0  0  0  0  0
    9.8562  -10.0941    5.5464 H   0  0  0  0  0  0  0  0  0  0  0  0
   12.5260   -9.3949    6.7140 H   0  0  0  0  0  0  0  0  0  0  0  0
   11.7205  -10.9539    6.8446 H   0  0  0  0  0  0  0  0  0  0  0  0
    8.4364   -7.9494    1.8534 H   0  0  0  0  0  0  0  0  0  0  0  0
    6.3167   -7.5924    0.6479 H   0  0  0  0  0  0  0  0  0  0  0  0
    5.3614   -2.7896    2.0581 H   0  0  0  0  0  0  0  0  0  0  0  0
    2.8420    0.7309   -1.9317 H   0  0  0  0  0  0  0  0  0  0  0  0
  1  2  1  0  0  0  0
  1 33  1  0  0  0  0
  1 34  1  0  0  0  0
  2  3  1  0  0  0  0
  2 31  2  0  0  0  0
  3  4  2  0  0  0  0
  4  5  1  0  0  0  0
  4 29  1  0  0  0  0
  5  6  1  0  0  0  0
  5 28  2  0  0  0  0
  6  7  2  0  0  0  0
  6 35  1  0  0  0  0
  7  8  1  0  0  0  0
  7 36  1  0  0  0  0
  8  9  1  0  0  0  0
  8 27  1  0  0  0  0
  9 10  1  0  0  0  0
  9 25  2  0  0  0  0
 10 11  1  0  0  0  0
 10 24  2  0  0  0  0
 11 12  2  0  0  0  0
 11 37  1  0  0  0  0
 12 13  1  0  0  0  0
 12 38  1  0  0  0  0
 13 14  2  0  0  0  0
 13 39  1  0  0  0  0
 14 15  1  0  0  0  0
 14 24  1  0  0  0  0
 15 16  1  0  0  0  0
 15 40  1  0  0  0  0
 16 17  2  0  0  0  0
 16 18  1  0  0  0  0
 18 19  1  0  0  0  0
 18 41  1  0  0  0  0
 19 20  1  0  0  0  0
 19 42  1  0  0  0  0
 19 43  1  0  0  0  0
 20 21  1  0  0  0  0
 20 22  1  0  0  0  0
 20 23  1  0  0  0  0
 24 44  1  0  0  0  0
 25 26  1  0  0  0  0
 25 45  1  0  0  0  0
 26 27  2  0  0  0  0
 27 28  1  0  0  0  0
 28 46  1  0  0  0  0
 29 30  2  0  0  0  0
 30 31  1  0  0  0  0
 30 47  1  0  0  0  0
 31 32  1  0  0  0  0
M  END
$$$$
