CHEMBL3690479
 OpenBabel04072215373D

 33 35  0  0  0  0  0  0  0  0999 V2000
    1.1871    0.2010   -0.1753 C   0  0  0  0  0  0  0  0  0  0  0  0
    2.6600   -0.0809   -0.3850 C   0  0  0  0  0  0  0  0  0  0  0  0
    3.2852    0.8521   -1.3058 N   0  0  0  0  0  0  0  0  0  0  0  0
    4.6437    0.6932   -1.5390 C   0  0  0  0  0  0  0  0  0  0  0  0
    5.2915   -0.1738   -0.9641 O   0  0  0  0  0  0  0  0  0  0  0  0
    5.1254    1.6381   -2.4108 N   0  0  0  0  0  0  0  0  0  0  0  0
    6.4505    1.6306   -2.7608 C   0  0  0  0  0  0  0  0  0  0  0  0
    7.2971    0.6364   -2.7085 N   0  0  0  0  0  0  0  0  0  0  0  0
    8.5521    1.0848   -3.0533 C   0  0  0  0  0  0  0  0  0  0  0  0
    8.6535    2.4311   -3.3520 C   0  0  0  0  0  0  0  0  0  0  0  0
    9.8272    3.2018   -3.6455 C   0  0  0  0  0  0  0  0  0  0  0  0
    9.9984    4.2320   -4.5528 C   0  0  0  0  0  0  0  0  0  0  0  0
   11.2762    4.7257   -4.5305 N   0  0  0  0  0  0  0  0  0  0  0  0
   11.9029    4.0247   -3.6116 C   0  0  0  0  0  0  0  0  0  0  0  0
   13.2447    4.1068   -3.1385 C   0  0  0  0  0  0  0  0  0  0  0  0
   13.6630    3.2794   -2.1631 C   0  0  0  0  0  0  0  0  0  0  0  0
   15.2759    3.3663   -1.5612 Cl  0  0  0  0  0  0  0  0  0  0  0  0
   12.7710    2.2961   -1.5711 C   0  0  0  0  0  0  0  0  0  0  0  0
   11.5009    2.2200   -2.0048 C   0  0  0  0  0  0  0  0  0  0  0  0
   11.0646    3.0706   -3.0284 N   0  0  0  0  0  0  0  0  0  0  0  0
    7.0689    3.1154   -3.3319 S   0  0  0  0  0  0  0  0  0  0  0  0
    0.7773   -0.4841    0.5741 H   0  0  0  0  0  0  0  0  0  0  0  0
    0.6274    0.0616   -1.1056 H   0  0  0  0  0  0  0  0  0  0  0  0
    1.0231    1.2266    0.1692 H   0  0  0  0  0  0  0  0  0  0  0  0
    2.7985   -1.0953   -0.7758 H   0  0  0  0  0  0  0  0  0  0  0  0
    3.1911   -0.0171    0.5723 H   0  0  0  0  0  0  0  0  0  0  0  0
    2.7500    1.1176   -2.1197 H   0  0  0  0  0  0  0  0  0  0  0  0
    4.6236    2.5050   -2.5066 H   0  0  0  0  0  0  0  0  0  0  0  0
    9.3690    0.3742   -3.0424 H   0  0  0  0  0  0  0  0  0  0  0  0
    9.2626    4.6424   -5.2331 H   0  0  0  0  0  0  0  0  0  0  0  0
   13.8975    4.8529   -3.5780 H   0  0  0  0  0  0  0  0  0  0  0  0
   13.1391    1.6486   -0.7814 H   0  0  0  0  0  0  0  0  0  0  0  0
   10.7963    1.5210   -1.5757 H   0  0  0  0  0  0  0  0  0  0  0  0
  1  2  1  0  0  0  0
  1 22  1  0  0  0  0
  1 23  1  0  0  0  0
  1 24  1  0  0  0  0
  2  3  1  0  0  0  0
  2 25  1  0  0  0  0
  2 26  1  0  0  0  0
  3  4  1  0  0  0  0
  3 27  1  0  0  0  0
  4  5  2  0  0  0  0
  4  6  1  0  0  0  0
  6  7  1  0  0  0  0
  6 28  1  0  0  0  0
  7  8  2  0  0  0  0
  7 21  1  0  0  0  0
  8  9  1  0  0  0  0
  9 10  2  0  0  0  0
  9 29  1  0  0  0  0
 10 11  1  0  0  0  0
 10 21  1  0  0  0  0
 11 12  2  0  0  0  0
 11 20  1  0  0  0  0
 12 13  1  0  0  0  0
 12 30  1  0  0  0  0
 13 14  2  0  0  0  0
 14 15  1  0  0  0  0
 14 20  1  0  0  0  0
 15 16  2  0  0  0  0
 15 31  1  0  0  0  0
 16 17  1  0  0  0  0
 16 18  1  0  0  0  0
 18 19  2  0  0  0  0
 18 32  1  0  0  0  0
 19 20  1  0  0  0  0
 19 33  1  0  0  0  0
M  END
$$$$
