CHEMBL2031894
 OpenBabel04072215363D

 60 64  0  0  0  0  0  0  0  0999 V2000
    0.0882    6.0662    2.2353 C   0  0  0  0  0  0  0  0  0  0  0  0
   -0.1597    4.8297    2.8972 O   0  0  0  0  0  0  0  0  0  0  0  0
    0.9083    4.2943    3.5681 C   0  0  0  0  0  0  0  0  0  0  0  0
    1.9184    5.0666    4.1486 C   0  0  0  0  0  0  0  0  0  0  0  0
    2.9937    4.4995    4.8214 C   0  0  0  0  0  0  0  0  0  0  0  0
    3.9334    5.3377    5.2827 N   0  0  0  0  0  0  0  0  0  0  0  0
    5.0053    4.8166    5.9104 C   0  0  0  0  0  0  0  0  0  0  0  0
    5.1625    3.4713    6.1612 C   0  0  0  0  0  0  0  0  0  0  0  0
    4.1662    2.5975    5.7264 C   0  0  0  0  0  0  0  0  0  0  0  0
    4.4197    1.2668    6.0294 O   0  0  0  0  0  0  0  0  0  0  0  0
    3.3968    0.4464    6.4470 C   0  0  0  0  0  0  0  0  0  0  0  0
    2.2913    0.8894    7.1598 C   0  0  0  0  0  0  0  0  0  0  0  0
    1.1953    0.0373    7.3370 C   0  0  0  0  0  0  0  0  0  0  0  0
    1.2008   -1.2872    6.8758 C   0  0  0  0  0  0  0  0  0  0  0  0
    0.0623   -2.1429    6.9422 N   0  0  0  0  0  0  0  0  0  0  0  0
   -1.1942   -1.7678    7.3947 C   0  0  0  0  0  0  0  0  0  0  0  0
   -1.4586   -0.6616    7.8502 O   0  0  0  0  0  0  0  0  0  0  0  0
   -2.2830   -2.7629    7.2666 C   0  0  0  0  0  0  0  0  0  0  0  0
   -3.5715   -2.6179    7.6472 C   0  0  0  0  0  0  0  0  0  0  0  0
   -4.1833   -1.4901    8.4284 C   0  0  0  0  0  0  0  0  0  0  0  0
   -4.3713   -3.6894    7.2353 N   0  0  0  0  0  0  0  0  0  0  0  0
   -5.5773   -4.1337    7.9367 C   0  0  0  0  0  0  0  0  0  0  0  0
   -3.4860   -4.6824    6.7829 N   0  0  0  0  0  0  0  0  0  0  0  0
   -3.9200   -5.8245    6.0924 C   0  0  0  0  0  0  0  0  0  0  0  0
   -3.3239   -7.0577    6.3901 C   0  0  0  0  0  0  0  0  0  0  0  0
   -3.7838   -8.2284    5.7842 C   0  0  0  0  0  0  0  0  0  0  0  0
   -4.8100   -8.1685    4.8459 C   0  0  0  0  0  0  0  0  0  0  0  0
   -5.3952   -6.9452    4.5254 C   0  0  0  0  0  0  0  0  0  0  0  0
   -4.9686   -5.7757    5.1666 C   0  0  0  0  0  0  0  0  0  0  0  0
   -2.1977   -4.1373    6.7058 C   0  0  0  0  0  0  0  0  0  0  0  0
   -1.1655   -4.6210    6.2625 O   0  0  0  0  0  0  0  0  0  0  0  0
    2.3787   -1.7693    6.2979 C   0  0  0  0  0  0  0  0  0  0  0  0
    3.4622   -0.9043    6.0911 C   0  0  0  0  0  0  0  0  0  0  0  0
    4.5624   -1.3817    5.4902 F   0  0  0  0  0  0  0  0  0  0  0  0
    3.0642    3.0977    4.9742 C   0  0  0  0  0  0  0  0  0  0  0  0
    2.0459    2.3191    4.3639 C   0  0  0  0  0  0  0  0  0  0  0  0
    0.9740    2.9099    3.6921 C   0  0  0  0  0  0  0  0  0  0  0  0
   -0.3447    1.7699    2.9397 Br  0  0  0  0  0  0  0  0  0  0  0  0
   -0.7459    6.2555    1.5534 H   0  0  0  0  0  0  0  0  0  0  0  0
    1.0059    6.0226    1.6379 H   0  0  0  0  0  0  0  0  0  0  0  0
    0.1247    6.8919    2.9526 H   0  0  0  0  0  0  0  0  0  0  0  0
    1.8894    6.1502    4.0937 H   0  0  0  0  0  0  0  0  0  0  0  0
    5.7577    5.5407    6.2119 H   0  0  0  0  0  0  0  0  0  0  0  0
    6.0439    3.1095    6.6784 H   0  0  0  0  0  0  0  0  0  0  0  0
    2.2163    1.9145    7.5120 H   0  0  0  0  0  0  0  0  0  0  0  0
    0.3294    0.4824    7.8144 H   0  0  0  0  0  0  0  0  0  0  0  0
    0.1556   -3.0796    6.5459 H   0  0  0  0  0  0  0  0  0  0  0  0
   -3.5414   -0.6216    8.5624 H   0  0  0  0  0  0  0  0  0  0  0  0
   -4.4334   -1.8436    9.4354 H   0  0  0  0  0  0  0  0  0  0  0  0
   -5.0991   -1.1349    7.9471 H   0  0  0  0  0  0  0  0  0  0  0  0
   -5.9788   -3.3646    8.6043 H   0  0  0  0  0  0  0  0  0  0  0  0
   -5.3862   -5.0279    8.5386 H   0  0  0  0  0  0  0  0  0  0  0  0
   -6.3680   -4.3555    7.2128 H   0  0  0  0  0  0  0  0  0  0  0  0
   -2.5353   -7.1187    7.1356 H   0  0  0  0  0  0  0  0  0  0  0  0
   -3.3420   -9.1866    6.0496 H   0  0  0  0  0  0  0  0  0  0  0  0
   -5.1533   -9.0789    4.3553 H   0  0  0  0  0  0  0  0  0  0  0  0
   -6.1818   -6.8970    3.7775 H   0  0  0  0  0  0  0  0  0  0  0  0
   -5.4257   -4.8272    4.9057 H   0  0  0  0  0  0  0  0  0  0  0  0
    2.4688   -2.7972    5.9585 H   0  0  0  0  0  0  0  0  0  0  0  0
    2.0820    1.2355    4.4057 H   0  0  0  0  0  0  0  0  0  0  0  0
  1  2  1  0  0  0  0
  1 39  1  0  0  0  0
  1 40  1  0  0  0  0
  1 41  1  0  0  0  0
  2  3  1  0  0  0  0
  3  4  1  0  0  0  0
  3 37  2  0  0  0  0
  4  5  2  0  0  0  0
  4 42  1  0  0  0  0
  5  6  1  0  0  0  0
  5 35  1  0  0  0  0
  6  7  2  0  0  0  0
  7  8  1  0  0  0  0
  7 43  1  0  0  0  0
  8  9  2  0  0  0  0
  8 44  1  0  0  0  0
  9 10  1  0  0  0  0
  9 35  1  0  0  0  0
 10 11  1  0  0  0  0
 11 12  1  0  0  0  0
 11 33  2  0  0  0  0
 12 13  2  0  0  0  0
 12 45  1  0  0  0  0
 13 14  1  0  0  0  0
 13 46  1  0  0  0  0
 14 15  1  0  0  0  0
 14 32  2  0  0  0  0
 15 16  1  0  0  0  0
 15 47  1  0  0  0  0
 16 17  2  0  0  0  0
 16 18  1  0  0  0  0
 18 19  2  0  0  0  0
 18 30  1  0  0  0  0
 19 20  1  0  0  0  0
 19 21  1  0  0  0  0
 20 48  1  0  0  0  0
 20 49  1  0  0  0  0
 20 50  1  0  0  0  0
 21 22  1  0  0  0  0
 21 23  1  0  0  0  0
 22 51  1  0  0  0  0
 22 52  1  0  0  0  0
 22 53  1  0  0  0  0
 23 24  1  0  0  0  0
 23 30  1  0  0  0  0
 24 25  1  0  0  0  0
 24 29  2  0  0  0  0
 25 26  2  0  0  0  0
 25 54  1  0  0  0  0
 26 27  1  0  0  0  0
 26 55  1  0  0  0  0
 27 28  2  0  0  0  0
 27 56  1  0  0  0  0
 28 29  1  0  0  0  0
 28 57  1  0  0  0  0
 29 58  1  0  0  0  0
 30 31  2  0  0  0  0
 32 33  1  0  0  0  0
 32 59  1  0  0  0  0
 33 34  1  0  0  0  0
 35 36  2  0  0  0  0
 36 37  1  0  0  0  0
 36 60  1  0  0  0  0
 37 38  1  0  0  0  0
M  END
$$$$
