CHEMBL368936
 OpenBabel04072215373D

 40 42  0  0  0  0  0  0  0  0999 V2000
    3.9353   -6.0168    0.8124 O   0  0  0  0  0  0  0  0  0  0  0  0
    4.0582   -4.7852    0.1127 C   0  0  0  0  0  0  0  0  0  0  0  0
    5.4924   -4.6324   -0.3818 C   0  0  0  0  0  0  0  0  0  0  0  0
    5.6538   -3.3281   -1.1550 C   0  0  0  0  0  0  0  0  0  0  0  0
    7.0077   -3.1929   -1.6663 N   0  0  0  0  0  0  0  0  0  0  0  0
    7.2917   -2.0572   -2.3243 C   0  0  0  0  0  0  0  0  0  0  0  0
    6.7208   -0.8776   -2.2365 N   0  0  0  0  0  0  0  0  0  0  0  0
    7.4105   -0.1106   -3.1399 C   0  0  0  0  0  0  0  0  0  0  0  0
    8.3638   -0.8706   -3.7777 C   0  0  0  0  0  0  0  0  0  0  0  0
    9.3667   -0.6048   -4.7854 C   0  0  0  0  0  0  0  0  0  0  0  0
   10.1739   -1.5870   -5.3405 C   0  0  0  0  0  0  0  0  0  0  0  0
   11.1592   -1.3069   -6.2263 N   0  0  0  0  0  0  0  0  0  0  0  0
   11.3023    0.0094   -6.5215 C   0  0  0  0  0  0  0  0  0  0  0  0
   10.4738    1.0167   -6.0173 C   0  0  0  0  0  0  0  0  0  0  0  0
   10.7127    2.3703   -6.3536 N   0  0  0  0  0  0  0  0  0  0  0  0
    9.7090    3.3649   -6.4751 C   0  0  0  0  0  0  0  0  0  0  0  0
    8.4004    3.0580   -6.8734 C   0  0  0  0  0  0  0  0  0  0  0  0
    7.4565    4.0664   -7.0823 C   0  0  0  0  0  0  0  0  0  0  0  0
    7.8149    5.3997   -6.9016 C   0  0  0  0  0  0  0  0  0  0  0  0
    9.1161    5.7158   -6.5219 C   0  0  0  0  0  0  0  0  0  0  0  0
    9.5626    7.3660   -6.3102 Cl  0  0  0  0  0  0  0  0  0  0  0  0
   10.0650    4.7109   -6.3203 C   0  0  0  0  0  0  0  0  0  0  0  0
    9.4946    0.7012   -5.1365 N   0  0  0  0  0  0  0  0  0  0  0  0
    8.2920   -2.1362   -3.2504 O   0  0  0  0  0  0  0  0  0  0  0  0
    3.0177   -6.0680    1.1377 H   0  0  0  0  0  0  0  0  0  0  0  0
    3.7919   -3.9708    0.7917 H   0  0  0  0  0  0  0  0  0  0  0  0
    3.3571   -4.7946   -0.7258 H   0  0  0  0  0  0  0  0  0  0  0  0
    5.7584   -5.4905   -1.0116 H   0  0  0  0  0  0  0  0  0  0  0  0
    6.1840   -4.6645    0.4695 H   0  0  0  0  0  0  0  0  0  0  0  0
    5.4118   -2.4861   -0.4946 H   0  0  0  0  0  0  0  0  0  0  0  0
    4.9464   -3.3129   -1.9935 H   0  0  0  0  0  0  0  0  0  0  0  0
    7.4231   -4.0355   -2.0457 H   0  0  0  0  0  0  0  0  0  0  0  0
    7.1936    0.9384   -3.2871 H   0  0  0  0  0  0  0  0  0  0  0  0
   10.0620   -2.6348   -5.0827 H   0  0  0  0  0  0  0  0  0  0  0  0
   12.1134    0.2350   -7.2057 H   0  0  0  0  0  0  0  0  0  0  0  0
   11.3369    2.4454   -7.1515 H   0  0  0  0  0  0  0  0  0  0  0  0
    8.1017    2.0249   -7.0357 H   0  0  0  0  0  0  0  0  0  0  0  0
    6.4469    3.8065   -7.3891 H   0  0  0  0  0  0  0  0  0  0  0  0
    7.0790    6.1829   -7.0634 H   0  0  0  0  0  0  0  0  0  0  0  0
   11.0767    4.9736   -6.0258 H   0  0  0  0  0  0  0  0  0  0  0  0
  1  2  1  0  0  0  0
  1 25  1  0  0  0  0
  2  3  1  0  0  0  0
  2 26  1  0  0  0  0
  2 27  1  0  0  0  0
  3  4  1  0  0  0  0
  3 28  1  0  0  0  0
  3 29  1  0  0  0  0
  4  5  1  0  0  0  0
  4 30  1  0  0  0  0
  4 31  1  0  0  0  0
  5  6  1  0  0  0  0
  5 32  1  0  0  0  0
  6  7  2  0  0  0  0
  6 24  1  0  0  0  0
  7  8  1  0  0  0  0
  8  9  2  0  0  0  0
  8 33  1  0  0  0  0
  9 10  1  0  0  0  0
  9 24  1  0  0  0  0
 10 11  1  0  0  0  0
 10 23  2  0  0  0  0
 11 12  2  0  0  0  0
 11 34  1  0  0  0  0
 12 13  1  0  0  0  0
 13 14  2  0  0  0  0
 13 35  1  0  0  0  0
 14 15  1  0  0  0  0
 14 23  1  0  0  0  0
 15 16  1  0  0  0  0
 15 36  1  0  0  0  0
 16 17  1  0  0  0  0
 16 22  2  0  0  0  0
 17 18  2  0  0  0  0
 17 37  1  0  0  0  0
 18 19  1  0  0  0  0
 18 38  1  0  0  0  0
 19 20  2  0  0  0  0
 19 39  1  0  0  0  0
 20 21  1  0  0  0  0
 20 22  1  0  0  0  0
 22 40  1  0  0  0  0
M  END
$$$$
