CHEMBL371639
 OpenBabel04072215373D

 42 45  0  0  0  0  0  0  0  0999 V2000
    1.8535   -0.5610    0.9550 N   0  0  0  0  0  0  0  0  0  0  0  0
    2.4674    0.0629   -0.0955 C   0  0  0  0  0  0  0  0  0  0  0  0
    2.3228    1.2630   -0.2904 O   0  0  0  0  0  0  0  0  0  0  0  0
    3.2577   -0.7906   -1.0321 C   0  0  0  0  0  0  0  0  0  0  0  0
    3.4886   -0.3096   -2.3189 C   0  0  0  0  0  0  0  0  0  0  0  0
    4.1792   -1.0949   -3.2482 C   0  0  0  0  0  0  0  0  0  0  0  0
    4.5955   -2.4077   -2.9536 C   0  0  0  0  0  0  0  0  0  0  0  0
    5.2145   -3.2951   -3.9777 C   0  0  0  0  0  0  0  0  0  0  0  0
    6.2007   -4.0897   -3.5002 N   0  0  0  0  0  0  0  0  0  0  0  0
    6.9178   -4.9114   -4.3395 N   0  0  0  0  0  0  0  0  0  0  0  0
    6.6861   -4.9170   -5.6675 C   0  0  0  0  0  0  0  0  0  0  0  0
    7.4053   -5.8020   -6.5162 N   0  0  0  0  0  0  0  0  0  0  0  0
    8.6759   -6.3695   -6.2948 C   0  0  0  0  0  0  0  0  0  0  0  0
    9.6749   -5.6834   -5.5921 C   0  0  0  0  0  0  0  0  0  0  0  0
   10.9687   -6.2027   -5.4874 C   0  0  0  0  0  0  0  0  0  0  0  0
   11.2878   -7.4198   -6.0897 C   0  0  0  0  0  0  0  0  0  0  0  0
   12.9106   -7.9916   -5.9428 Cl  0  0  0  0  0  0  0  0  0  0  0  0
   10.3044   -8.1162   -6.7967 C   0  0  0  0  0  0  0  0  0  0  0  0
   10.6192   -9.6315   -7.5686 Cl  0  0  0  0  0  0  0  0  0  0  0  0
    9.0127   -7.5838   -6.9085 C   0  0  0  0  0  0  0  0  0  0  0  0
    5.6893   -4.0901   -6.2235 C   0  0  0  0  0  0  0  0  0  0  0  0
    5.4857   -3.9854   -7.6230 C   0  0  0  0  0  0  0  0  0  0  0  0
    4.4876   -3.1785   -8.1650 C   0  0  0  0  0  0  0  0  0  0  0  0
    3.6193   -2.5130   -7.3198 C   0  0  0  0  0  0  0  0  0  0  0  0
    3.7971   -2.6050   -5.9400 C   0  0  0  0  0  0  0  0  0  0  0  0
    4.8827   -3.3126   -5.3559 C   0  0  0  0  0  0  0  0  0  0  0  0
    4.4289   -2.8321   -1.6200 C   0  0  0  0  0  0  0  0  0  0  0  0
    3.7751   -2.0341   -0.6669 C   0  0  0  0  0  0  0  0  0  0  0  0
    1.2193    0.0107    1.4997 H   0  0  0  0  0  0  0  0  0  0  0  0
    1.7549   -1.5615    1.0191 H   0  0  0  0  0  0  0  0  0  0  0  0
    3.1268    0.6744   -2.6138 H   0  0  0  0  0  0  0  0  0  0  0  0
    4.3756   -0.6553   -4.2245 H   0  0  0  0  0  0  0  0  0  0  0  0
    6.7494   -6.4402   -6.9562 H   0  0  0  0  0  0  0  0  0  0  0  0
    9.4619   -4.7199   -5.1347 H   0  0  0  0  0  0  0  0  0  0  0  0
   11.7230   -5.6403   -4.9431 H   0  0  0  0  0  0  0  0  0  0  0  0
    8.2664   -8.1297   -7.4815 H   0  0  0  0  0  0  0  0  0  0  0  0
    6.1427   -4.5097   -8.3158 H   0  0  0  0  0  0  0  0  0  0  0  0
    4.3846   -3.0824   -9.2428 H   0  0  0  0  0  0  0  0  0  0  0  0
    2.8115   -1.9091   -7.7246 H   0  0  0  0  0  0  0  0  0  0  0  0
    3.0612   -2.1006   -5.3180 H   0  0  0  0  0  0  0  0  0  0  0  0
    4.8138   -3.8033   -1.3071 H   0  0  0  0  0  0  0  0  0  0  0  0
    3.6955   -2.3969    0.3534 H   0  0  0  0  0  0  0  0  0  0  0  0
  1  2  1  0  0  0  0
  1 29  1  0  0  0  0
  1 30  1  0  0  0  0
  2  3  2  0  0  0  0
  2  4  1  0  0  0  0
  4  5  1  0  0  0  0
  4 28  2  0  0  0  0
  5  6  2  0  0  0  0
  5 31  1  0  0  0  0
  6  7  1  0  0  0  0
  6 32  1  0  0  0  0
  7  8  1  0  0  0  0
  7 27  2  0  0  0  0
  8  9  1  0  0  0  0
  8 26  2  0  0  0  0
  9 10  2  0  0  0  0
 10 11  1  0  0  0  0
 11 12  1  0  0  0  0
 11 21  2  0  0  0  0
 12 13  1  0  0  0  0
 12 33  1  0  0  0  0
 13 14  1  0  0  0  0
 13 20  2  0  0  0  0
 14 15  2  0  0  0  0
 14 34  1  0  0  0  0
 15 16  1  0  0  0  0
 15 35  1  0  0  0  0
 16 17  1  0  0  0  0
 16 18  2  0  0  0  0
 18 19  1  0  0  0  0
 18 20  1  0  0  0  0
 20 36  1  0  0  0  0
 21 22  1  0  0  0  0
 21 26  1  0  0  0  0
 22 23  2  0  0  0  0
 22 37  1  0  0  0  0
 23 24  1  0  0  0  0
 23 38  1  0  0  0  0
 24 25  2  0  0  0  0
 24 39  1  0  0  0  0
 25 26  1  0  0  0  0
 25 40  1  0  0  0  0
 27 28  1  0  0  0  0
 27 41  1  0  0  0  0
 28 42  1  0  0  0  0
M  END
$$$$
