CHEMBL1079428
 OpenBabel04072215353D

 35 38  0  0  0  0  0  0  0  0999 V2000
    2.1243    0.1637   -0.0502 C   0  0  0  0  0  0  0  0  0  0  0  0
    0.6933   -0.0077    0.0294 N   0  0  0  0  0  0  0  0  0  0  0  0
   -0.1941    1.0339    0.0343 C   0  0  0  0  0  0  0  0  0  0  0  0
   -1.4340    0.6146    0.0493 N   0  0  0  0  0  0  0  0  0  0  0  0
   -1.3582   -0.7608    0.0687 C   0  0  0  0  0  0  0  0  0  0  0  0
   -2.5577   -1.5929    0.0496 C   0  0  0  0  0  0  0  0  0  0  0  0
   -3.6702   -1.1764   -0.6974 C   0  0  0  0  0  0  0  0  0  0  0  0
   -4.7858   -2.0068   -0.8388 C   0  0  0  0  0  0  0  0  0  0  0  0
   -4.7999   -3.2650   -0.2393 C   0  0  0  0  0  0  0  0  0  0  0  0
   -3.7256   -3.6679    0.5491 C   0  0  0  0  0  0  0  0  0  0  0  0
   -2.6293   -2.8207    0.7190 C   0  0  0  0  0  0  0  0  0  0  0  0
   -0.0258   -1.1862    0.0367 C   0  0  0  0  0  0  0  0  0  0  0  0
    0.5308   -2.5179   -0.0223 C   0  0  0  0  0  0  0  0  0  0  0  0
    0.0465   -3.5856   -0.7590 C   0  0  0  0  0  0  0  0  0  0  0  0
    0.7069   -4.8235   -0.4653 C   0  0  0  0  0  0  0  0  0  0  0  0
    0.4899   -6.1505   -0.8686 C   0  0  0  0  0  0  0  0  0  0  0  0
   -0.5793   -6.5469   -1.6602 N   0  0  0  0  0  0  0  0  0  0  0  0
    1.3278   -7.1116   -0.4426 N   0  0  0  0  0  0  0  0  0  0  0  0
    2.3450   -6.7602    0.3614 C   0  0  0  0  0  0  0  0  0  0  0  0
    2.6259   -5.5466    0.8432 N   0  0  0  0  0  0  0  0  0  0  0  0
    1.7632   -4.6163    0.4013 C   0  0  0  0  0  0  0  0  0  0  0  0
    1.8674   -3.0065    0.9326 S   0  0  0  0  0  0  0  0  0  0  0  0
    2.3606    1.2218   -0.1940 H   0  0  0  0  0  0  0  0  0  0  0  0
    2.5037   -0.4087   -0.9005 H   0  0  0  0  0  0  0  0  0  0  0  0
    2.5710   -0.1712    0.8883 H   0  0  0  0  0  0  0  0  0  0  0  0
    0.1156    2.0706    0.0138 H   0  0  0  0  0  0  0  0  0  0  0  0
   -3.6639   -0.2033   -1.1856 H   0  0  0  0  0  0  0  0  0  0  0  0
   -5.6372   -1.6743   -1.4273 H   0  0  0  0  0  0  0  0  0  0  0  0
   -5.6527   -3.9242   -0.3766 H   0  0  0  0  0  0  0  0  0  0  0  0
   -3.7362   -4.6420    1.0307 H   0  0  0  0  0  0  0  0  0  0  0  0
   -1.8159   -3.1454    1.3645 H   0  0  0  0  0  0  0  0  0  0  0  0
   -0.7992   -3.5050   -1.4335 H   0  0  0  0  0  0  0  0  0  0  0  0
   -1.4111   -5.9775   -1.5745 H   0  0  0  0  0  0  0  0  0  0  0  0
   -0.7225   -7.5488   -1.5864 H   0  0  0  0  0  0  0  0  0  0  0  0
    3.0110   -7.5606    0.6666 H   0  0  0  0  0  0  0  0  0  0  0  0
  1  2  1  0  0  0  0
  1 23  1  0  0  0  0
  1 24  1  0  0  0  0
  1 25  1  0  0  0  0
  2  3  1  0  0  0  0
  2 12  1  0  0  0  0
  3  4  2  0  0  0  0
  3 26  1  0  0  0  0
  4  5  1  0  0  0  0
  5  6  1  0  0  0  0
  5 12  2  0  0  0  0
  6  7  1  0  0  0  0
  6 11  2  0  0  0  0
  7  8  2  0  0  0  0
  7 27  1  0  0  0  0
  8  9  1  0  0  0  0
  8 28  1  0  0  0  0
  9 10  2  0  0  0  0
  9 29  1  0  0  0  0
 10 11  1  0  0  0  0
 10 30  1  0  0  0  0
 11 31  1  0  0  0  0
 12 13  1  0  0  0  0
 13 14  2  0  0  0  0
 13 22  1  0  0  0  0
 14 15  1  0  0  0  0
 14 32  1  0  0  0  0
 15 16  1  0  0  0  0
 15 21  2  0  0  0  0
 16 17  1  0  0  0  0
 16 18  2  0  0  0  0
 17 33  1  0  0  0  0
 17 34  1  0  0  0  0
 18 19  1  0  0  0  0
 19 20  2  0  0  0  0
 19 35  1  0  0  0  0
 20 21  1  0  0  0  0
 21 22  1  0  0  0  0
M  END
$$$$
