CHEMBL3128225
 OpenBabel04072215363D

 67 71  0  0  0  0  0  0  0  0999 V2000
    9.2468    1.8377   -7.2584 C   0  0  0  0  0  0  0  0  0  0  0  0
    9.4270    0.4266   -7.2979 O   0  0  0  0  0  0  0  0  0  0  0  0
    8.5866   -0.3326   -6.5270 C   0  0  0  0  0  0  0  0  0  0  0  0
    7.3246    0.1201   -6.1100 C   0  0  0  0  0  0  0  0  0  0  0  0
    6.4761   -0.7062   -5.3671 C   0  0  0  0  0  0  0  0  0  0  0  0
    6.8773   -2.0047   -5.0568 C   0  0  0  0  0  0  0  0  0  0  0  0
    5.8291   -3.0364   -4.0582 S   0  0  0  0  0  0  0  0  0  0  0  0
    6.6589   -4.0154   -3.3908 O   0  0  0  0  0  0  0  0  0  0  0  0
    4.9613   -2.1552   -3.3029 O   0  0  0  0  0  0  0  0  0  0  0  0
    4.8419   -3.8053   -5.1777 N   0  0  0  0  0  0  0  0  0  0  0  0
    5.3950   -4.6567   -6.1660 C   0  0  0  0  0  0  0  0  0  0  0  0
    5.7398   -5.9658   -5.8339 C   0  0  0  0  0  0  0  0  0  0  0  0
    6.2442   -6.8188   -6.8148 C   0  0  0  0  0  0  0  0  0  0  0  0
    6.4051   -6.3631   -8.1260 C   0  0  0  0  0  0  0  0  0  0  0  0
    6.0550   -5.0477   -8.4708 C   0  0  0  0  0  0  0  0  0  0  0  0
    6.1893   -4.5572   -9.8974 C   0  0  0  0  0  0  0  0  0  0  0  0
    7.5245   -4.0340  -10.1153 N   0  0  0  0  0  0  0  0  0  0  0  0
    7.7762   -3.5184  -11.3868 C   0  0  0  0  0  0  0  0  0  0  0  0
    6.7688   -2.9941  -12.1309 N   0  0  0  0  0  0  0  0  0  0  0  0
    7.0570   -2.4673  -13.3417 C   0  0  0  0  0  0  0  0  0  0  0  0
    8.2481   -2.3950  -13.9610 N   0  0  0  0  0  0  0  0  0  0  0  0
    9.2190   -2.9304  -13.2017 C   0  0  0  0  0  0  0  0  0  0  0  0
    9.0652   -3.4867  -11.9414 C   0  0  0  0  0  0  0  0  0  0  0  0
   10.3660   -3.8796  -11.5724 C   0  0  0  0  0  0  0  0  0  0  0  0
   11.2807   -3.6059  -12.5079 N   0  0  0  0  0  0  0  0  0  0  0  0
   10.5580   -3.0285  -13.4999 N   0  0  0  0  0  0  0  0  0  0  0  0
   11.2207   -2.5355  -14.6965 C   0  0  0  0  0  0  0  0  0  0  0  0
   12.4681   -3.3393  -15.0768 C   0  0  0  0  0  0  0  0  0  0  0  0
   13.1490   -2.8195  -16.3204 C   0  0  0  0  0  0  0  0  0  0  0  0
   14.1839   -1.8783  -16.2229 C   0  0  0  0  0  0  0  0  0  0  0  0
   14.8332   -1.4179  -17.3701 C   0  0  0  0  0  0  0  0  0  0  0  0
   14.4510   -1.8886  -18.6246 C   0  0  0  0  0  0  0  0  0  0  0  0
   13.4172   -2.8170  -18.7334 C   0  0  0  0  0  0  0  0  0  0  0  0
   12.7667   -3.2793  -17.5873 C   0  0  0  0  0  0  0  0  0  0  0  0
    5.5686   -4.1917   -7.4695 C   0  0  0  0  0  0  0  0  0  0  0  0
    8.1263   -2.4721   -5.4643 C   0  0  0  0  0  0  0  0  0  0  0  0
    8.9863   -1.6418   -6.1957 C   0  0  0  0  0  0  0  0  0  0  0  0
   10.1579   -2.2613   -6.5505 O   0  0  0  0  0  0  0  0  0  0  0  0
   11.3186   -1.4414   -6.6144 C   0  0  0  0  0  0  0  0  0  0  0  0
   10.0919    2.2977   -7.7799 H   0  0  0  0  0  0  0  0  0  0  0  0
    9.2482    2.2104   -6.2281 H   0  0  0  0  0  0  0  0  0  0  0  0
    8.3348    2.1349   -7.7857 H   0  0  0  0  0  0  0  0  0  0  0  0
    6.9652    1.1128   -6.3630 H   0  0  0  0  0  0  0  0  0  0  0  0
    5.5098   -0.3254   -5.0407 H   0  0  0  0  0  0  0  0  0  0  0  0
    3.9799   -3.3076   -5.3877 H   0  0  0  0  0  0  0  0  0  0  0  0
    5.5965   -6.3322   -4.8201 H   0  0  0  0  0  0  0  0  0  0  0  0
    6.4976   -7.8454   -6.5588 H   0  0  0  0  0  0  0  0  0  0  0  0
    6.7926   -7.0456   -8.8802 H   0  0  0  0  0  0  0  0  0  0  0  0
    5.4251   -3.7913  -10.0782 H   0  0  0  0  0  0  0  0  0  0  0  0
    5.9818   -5.3892  -10.5829 H   0  0  0  0  0  0  0  0  0  0  0  0
    8.2696   -4.6208   -9.7593 H   0  0  0  0  0  0  0  0  0  0  0  0
    6.2141   -2.0358  -13.8777 H   0  0  0  0  0  0  0  0  0  0  0  0
   10.6861   -4.3545  -10.6547 H   0  0  0  0  0  0  0  0  0  0  0  0
   11.4753   -1.4872  -14.4966 H   0  0  0  0  0  0  0  0  0  0  0  0
   10.4898   -2.5605  -15.5135 H   0  0  0  0  0  0  0  0  0  0  0  0
   12.2058   -4.3958  -15.2248 H   0  0  0  0  0  0  0  0  0  0  0  0
   13.1962   -3.3328  -14.2553 H   0  0  0  0  0  0  0  0  0  0  0  0
   14.5035   -1.5092  -15.2504 H   0  0  0  0  0  0  0  0  0  0  0  0
   15.6429   -0.6976  -17.2843 H   0  0  0  0  0  0  0  0  0  0  0  0
   14.9618   -1.5358  -19.5169 H   0  0  0  0  0  0  0  0  0  0  0  0
   13.1222   -3.1875  -19.7117 H   0  0  0  0  0  0  0  0  0  0  0  0
   11.9706   -4.0131  -17.6902 H   0  0  0  0  0  0  0  0  0  0  0  0
    5.3199   -3.1632   -7.7202 H   0  0  0  0  0  0  0  0  0  0  0  0
    8.4466   -3.4810   -5.2109 H   0  0  0  0  0  0  0  0  0  0  0  0
   12.1899   -2.1004   -6.5416 H   0  0  0  0  0  0  0  0  0  0  0  0
   11.3711   -0.7334   -5.7801 H   0  0  0  0  0  0  0  0  0  0  0  0
   11.3842   -0.9324   -7.5800 H   0  0  0  0  0  0  0  0  0  0  0  0
  1  2  1  0  0  0  0
  1 40  1  0  0  0  0
  1 41  1  0  0  0  0
  1 42  1  0  0  0  0
  2  3  1  0  0  0  0
  3  4  1  0  0  0  0
  3 37  2  0  0  0  0
  4  5  2  0  0  0  0
  4 43  1  0  0  0  0
  5  6  1  0  0  0  0
  5 44  1  0  0  0  0
  6  7  1  0  0  0  0
  6 36  2  0  0  0  0
  7  8  2  0  0  0  0
  7  9  2  0  0  0  0
  7 10  1  0  0  0  0
 10 11  1  0  0  0  0
 10 45  1  0  0  0  0
 11 12  1  0  0  0  0
 11 35  2  0  0  0  0
 12 13  2  0  0  0  0
 12 46  1  0  0  0  0
 13 14  1  0  0  0  0
 13 47  1  0  0  0  0
 14 15  2  0  0  0  0
 14 48  1  0  0  0  0
 15 16  1  0  0  0  0
 15 35  1  0  0  0  0
 16 17  1  0  0  0  0
 16 49  1  0  0  0  0
 16 50  1  0  0  0  0
 17 18  1  0  0  0  0
 17 51  1  0  0  0  0
 18 19  1  0  0  0  0
 18 23  2  0  0  0  0
 19 20  2  0  0  0  0
 20 21  1  0  0  0  0
 20 52  1  0  0  0  0
 21 22  2  0  0  0  0
 22 23  1  0  0  0  0
 22 26  1  0  0  0  0
 23 24  1  0  0  0  0
 24 25  2  0  0  0  0
 24 53  1  0  0  0  0
 25 26  1  0  0  0  0
 26 27  1  0  0  0  0
 27 28  1  0  0  0  0
 27 54  1  0  0  0  0
 27 55  1  0  0  0  0
 28 29  1  0  0  0  0
 28 56  1  0  0  0  0
 28 57  1  0  0  0  0
 29 30  1  0  0  0  0
 29 34  2  0  0  0  0
 30 31  2  0  0  0  0
 30 58  1  0  0  0  0
 31 32  1  0  0  0  0
 31 59  1  0  0  0  0
 32 33  2  0  0  0  0
 32 60  1  0  0  0  0
 33 34  1  0  0  0  0
 33 61  1  0  0  0  0
 34 62  1  0  0  0  0
 35 63  1  0  0  0  0
 36 37  1  0  0  0  0
 36 64  1  0  0  0  0
 37 38  1  0  0  0  0
 38 39  1  0  0  0  0
 39 65  1  0  0  0  0
 39 66  1  0  0  0  0
 39 67  1  0  0  0  0
M  END
$$$$
