CHEMBL3979359
 OpenBabel04072215373D

 45 48  0  0  0  0  0  0  0  0999 V2000
    2.9801    0.5666   -1.5848 C   0  0  0  0  0  0  0  0  0  0  0  0
    1.5312    0.3441   -1.2598 C   0  0  0  0  0  0  0  0  0  0  0  0
    0.9973   -0.9470   -1.3219 C   0  0  0  0  0  0  0  0  0  0  0  0
   -0.3349   -1.1630   -0.9951 C   0  0  0  0  0  0  0  0  0  0  0  0
   -1.1441   -0.0945   -0.6195 C   0  0  0  0  0  0  0  0  0  0  0  0
   -2.3697   -0.4139   -0.1861 F   0  0  0  0  0  0  0  0  0  0  0  0
   -0.6601    1.2232   -0.6043 C   0  0  0  0  0  0  0  0  0  0  0  0
   -1.4475    2.3692   -0.3066 N   0  0  0  0  0  0  0  0  0  0  0  0
   -2.8270    2.4222   -0.3917 C   0  0  0  0  0  0  0  0  0  0  0  0
   -3.5500    1.5115   -0.7764 O   0  0  0  0  0  0  0  0  0  0  0  0
   -3.3347    3.6756   -0.0501 N   0  0  0  0  0  0  0  0  0  0  0  0
   -4.7541    3.8158   -0.0619 C   0  0  0  0  0  0  0  0  0  0  0  0
   -5.5254    2.9699    0.7515 C   0  0  0  0  0  0  0  0  0  0  0  0
   -6.9171    2.9698    0.6610 C   0  0  0  0  0  0  0  0  0  0  0  0
   -7.5516    3.8272   -0.2324 C   0  0  0  0  0  0  0  0  0  0  0  0
   -6.7949    4.7012   -1.0169 C   0  0  0  0  0  0  0  0  0  0  0  0
   -5.3949    4.7082   -0.9326 C   0  0  0  0  0  0  0  0  0  0  0  0
   -4.6681    5.5645   -1.8258 C   0  0  0  0  0  0  0  0  0  0  0  0
   -4.1198    6.3140   -2.5939 C   0  0  0  0  0  0  0  0  0  0  0  0
   -3.5562    7.2823   -3.4954 C   0  0  0  0  0  0  0  0  0  0  0  0
   -3.9207    8.7134   -3.3736 C   0  0  0  0  0  0  0  0  0  0  0  0
   -3.3639    9.5550   -4.2521 C   0  0  0  0  0  0  0  0  0  0  0  0
   -2.4816    9.0451   -5.2301 C   0  0  0  0  0  0  0  0  0  0  0  0
   -1.8157    9.6488   -6.1916 N   0  0  0  0  0  0  0  0  0  0  0  0
   -1.1316    8.6487   -6.8347 C   0  0  0  0  0  0  0  0  0  0  0  0
   -1.3818    7.4262   -6.2553 C   0  0  0  0  0  0  0  0  0  0  0  0
   -2.2422    7.6777   -5.2213 N   0  0  0  0  0  0  0  0  0  0  0  0
   -2.7535    6.7465   -4.3579 N   0  0  0  0  0  0  0  0  0  0  0  0
    0.6987    1.4237   -0.9002 C   0  0  0  0  0  0  0  0  0  0  0  0
    3.4842   -0.3787   -1.8171 H   0  0  0  0  0  0  0  0  0  0  0  0
    3.4959    1.0138   -0.7298 H   0  0  0  0  0  0  0  0  0  0  0  0
    3.0789    1.2197   -2.4568 H   0  0  0  0  0  0  0  0  0  0  0  0
    1.6158   -1.7952   -1.6058 H   0  0  0  0  0  0  0  0  0  0  0  0
   -0.7583   -2.1624   -1.0094 H   0  0  0  0  0  0  0  0  0  0  0  0
   -0.9646    3.2443   -0.1726 H   0  0  0  0  0  0  0  0  0  0  0  0
   -2.8264    4.4301   -0.4896 H   0  0  0  0  0  0  0  0  0  0  0  0
   -5.0398    2.2703    1.4290 H   0  0  0  0  0  0  0  0  0  0  0  0
   -7.4976    2.2739    1.2613 H   0  0  0  0  0  0  0  0  0  0  0  0
   -8.6331    3.7974   -0.3366 H   0  0  0  0  0  0  0  0  0  0  0  0
   -7.3062    5.3477   -1.7265 H   0  0  0  0  0  0  0  0  0  0  0  0
   -4.6094    9.0237   -2.6005 H   0  0  0  0  0  0  0  0  0  0  0  0
   -3.5737   10.6177   -4.2397 H   0  0  0  0  0  0  0  0  0  0  0  0
   -0.4957    8.8640   -7.6847 H   0  0  0  0  0  0  0  0  0  0  0  0
   -1.0386    6.4278   -6.4794 H   0  0  0  0  0  0  0  0  0  0  0  0
    1.1219    2.4256   -0.8795 H   0  0  0  0  0  0  0  0  0  0  0  0
  1  2  1  0  0  0  0
  1 30  1  0  0  0  0
  1 31  1  0  0  0  0
  1 32  1  0  0  0  0
  2  3  1  0  0  0  0
  2 29  2  0  0  0  0
  3  4  2  0  0  0  0
  3 33  1  0  0  0  0
  4  5  1  0  0  0  0
  4 34  1  0  0  0  0
  5  6  1  0  0  0  0
  5  7  2  0  0  0  0
  7  8  1  0  0  0  0
  7 29  1  0  0  0  0
  8  9  1  0  0  0  0
  8 35  1  0  0  0  0
  9 10  2  0  0  0  0
  9 11  1  0  0  0  0
 11 12  1  0  0  0  0
 11 36  1  0  0  0  0
 12 13  1  0  0  0  0
 12 17  2  0  0  0  0
 13 14  2  0  0  0  0
 13 37  1  0  0  0  0
 14 15  1  0  0  0  0
 14 38  1  0  0  0  0
 15 16  2  0  0  0  0
 15 39  1  0  0  0  0
 16 17  1  0  0  0  0
 16 40  1  0  0  0  0
 17 18  1  0  0  0  0
 18 19  3  0  0  0  0
 19 20  1  0  0  0  0
 20 21  1  0  0  0  0
 20 28  2  0  0  0  0
 21 22  2  0  0  0  0
 21 41  1  0  0  0  0
 22 23  1  0  0  0  0
 22 42  1  0  0  0  0
 23 24  2  0  0  0  0
 23 27  1  0  0  0  0
 24 25  1  0  0  0  0
 25 26  2  0  0  0  0
 25 43  1  0  0  0  0
 26 27  1  0  0  0  0
 26 44  1  0  0  0  0
 27 28  1  0  0  0  0
 29 45  1  0  0  0  0
M  END
$$$$
