CHEMBL3690537
 OpenBabel04072215373D

 49 52  0  0  0  0  0  0  0  0999 V2000
    5.2047    3.3511    2.8403 N   0  0  0  0  0  0  0  0  0  0  0  0
    3.9682    2.9551    2.4037 C   0  0  0  0  0  0  0  0  0  0  0  0
    3.0191    2.8747    3.1679 O   0  0  0  0  0  0  0  0  0  0  0  0
    3.8553    2.6434    0.9478 C   0  0  0  0  0  0  0  0  0  0  0  0
    2.6274    2.2874    0.4389 C   0  0  0  0  0  0  0  0  0  0  0  0
    2.6074    2.0308   -0.9045 C   0  0  0  0  0  0  0  0  0  0  0  0
    3.6997    2.1156   -1.6858 N   0  0  0  0  0  0  0  0  0  0  0  0
    4.8561    2.4754   -1.0972 C   0  0  0  0  0  0  0  0  0  0  0  0
    6.0644    2.6179   -1.9538 C   0  0  0  0  0  0  0  0  0  0  0  0
    7.3628    3.0421   -1.4128 C   0  0  0  0  0  0  0  0  0  0  0  0
    8.4185    3.2045   -2.2285 C   0  0  0  0  0  0  0  0  0  0  0  0
    8.2977    2.9303   -3.5909 N   0  0  0  0  0  0  0  0  0  0  0  0
    9.2256    2.9765   -4.6264 C   0  0  0  0  0  0  0  0  0  0  0  0
   10.6497    3.3369   -4.5372 C   0  0  0  0  0  0  0  0  0  0  0  0
   11.2420    4.0166   -5.6112 C   0  0  0  0  0  0  0  0  0  0  0  0
   12.5876    4.3723   -5.5756 C   0  0  0  0  0  0  0  0  0  0  0  0
   13.3537    4.0962   -4.4467 C   0  0  0  0  0  0  0  0  0  0  0  0
   12.7950    3.4394   -3.3480 C   0  0  0  0  0  0  0  0  0  0  0  0
   13.5072    3.1955   -2.1483 N   0  0  0  0  0  0  0  0  0  0  0  0
   14.7879    3.6132   -1.8646 C   0  0  0  0  0  0  0  0  0  0  0  0
   15.5367    4.2541   -2.5891 O   0  0  0  0  0  0  0  0  0  0  0  0
   15.2137    3.1908   -0.6223 N   0  0  0  0  0  0  0  0  0  0  0  0
   16.5641    3.5835   -0.1916 C   0  0  0  0  0  0  0  0  0  0  0  0
   16.7225    5.0266    0.3105 C   0  0  0  0  0  0  0  0  0  0  0  0
   15.5294    5.6482    0.4576 F   0  0  0  0  0  0  0  0  0  0  0  0
   17.3131    5.0251    1.5332 F   0  0  0  0  0  0  0  0  0  0  0  0
   17.4928    5.7765   -0.5039 F   0  0  0  0  0  0  0  0  0  0  0  0
   11.4567    3.0172   -3.4289 C   0  0  0  0  0  0  0  0  0  0  0  0
    8.4728    2.6700   -5.7523 C   0  0  0  0  0  0  0  0  0  0  0  0
    7.1702    2.3915   -5.4571 N   0  0  0  0  0  0  0  0  0  0  0  0
    7.0841    2.5383   -4.1548 C   0  0  0  0  0  0  0  0  0  0  0  0
    5.9607    2.3839   -3.2864 C   0  0  0  0  0  0  0  0  0  0  0  0
    4.9901    2.7501    0.2119 N   0  0  0  0  0  0  0  0  0  0  0  0
    5.3218    3.6103    3.8097 H   0  0  0  0  0  0  0  0  0  0  0  0
    5.9691    3.4525    2.1853 H   0  0  0  0  0  0  0  0  0  0  0  0
    1.7389    2.2206    1.0542 H   0  0  0  0  0  0  0  0  0  0  0  0
    1.6896    1.7471   -1.4134 H   0  0  0  0  0  0  0  0  0  0  0  0
    7.4484    3.2364   -0.3491 H   0  0  0  0  0  0  0  0  0  0  0  0
    9.3676    3.5598   -1.8550 H   0  0  0  0  0  0  0  0  0  0  0  0
   10.6650    4.2815   -6.4945 H   0  0  0  0  0  0  0  0  0  0  0  0
   13.0425    4.8806   -6.4216 H   0  0  0  0  0  0  0  0  0  0  0  0
   14.3929    4.4017   -4.4661 H   0  0  0  0  0  0  0  0  0  0  0  0
   13.0216    2.6888   -1.4246 H   0  0  0  0  0  0  0  0  0  0  0  0
   14.5107    3.1063    0.0968 H   0  0  0  0  0  0  0  0  0  0  0  0
   17.2547    3.4198   -1.0270 H   0  0  0  0  0  0  0  0  0  0  0  0
   16.8483    2.8829    0.6011 H   0  0  0  0  0  0  0  0  0  0  0  0
   11.0474    2.4245   -2.6175 H   0  0  0  0  0  0  0  0  0  0  0  0
    8.8187    2.6327   -6.7801 H   0  0  0  0  0  0  0  0  0  0  0  0
    5.0268    2.0860   -3.7543 H   0  0  0  0  0  0  0  0  0  0  0  0
  1  2  1  0  0  0  0
  1 34  1  0  0  0  0
  1 35  1  0  0  0  0
  2  3  2  0  0  0  0
  2  4  1  0  0  0  0
  4  5  1  0  0  0  0
  4 33  2  0  0  0  0
  5  6  2  0  0  0  0
  5 36  1  0  0  0  0
  6  7  1  0  0  0  0
  6 37  1  0  0  0  0
  7  8  2  0  0  0  0
  8  9  1  0  0  0  0
  8 33  1  0  0  0  0
  9 10  1  0  0  0  0
  9 32  2  0  0  0  0
 10 11  2  0  0  0  0
 10 38  1  0  0  0  0
 11 12  1  0  0  0  0
 11 39  1  0  0  0  0
 12 13  1  0  0  0  0
 12 31  1  0  0  0  0
 13 14  1  0  0  0  0
 13 29  2  0  0  0  0
 14 15  1  0  0  0  0
 14 28  2  0  0  0  0
 15 16  2  0  0  0  0
 15 40  1  0  0  0  0
 16 17  1  0  0  0  0
 16 41  1  0  0  0  0
 17 18  2  0  0  0  0
 17 42  1  0  0  0  0
 18 19  1  0  0  0  0
 18 28  1  0  0  0  0
 19 20  1  0  0  0  0
 19 43  1  0  0  0  0
 20 21  2  0  0  0  0
 20 22  1  0  0  0  0
 22 23  1  0  0  0  0
 22 44  1  0  0  0  0
 23 24  1  0  0  0  0
 23 45  1  0  0  0  0
 23 46  1  0  0  0  0
 24 25  1  0  0  0  0
 24 26  1  0  0  0  0
 24 27  1  0  0  0  0
 28 47  1  0  0  0  0
 29 30  1  0  0  0  0
 29 48  1  0  0  0  0
 30 31  2  0  0  0  0
 31 32  1  0  0  0  0
 32 49  1  0  0  0  0
M  END
$$$$
