CHEMBL199031
 OpenBabel04072215363D

 47 50  0  0  0  0  0  0  0  0999 V2000
    5.4601    1.6584   -1.6225 C   0  0  0  0  0  0  0  0  0  0  0  0
    4.4721    0.8451   -0.8428 C   0  0  0  0  0  0  0  0  0  0  0  0
    4.7929   -0.8312   -0.7153 S   0  0  0  0  0  0  0  0  0  0  0  0
    3.4470   -1.0967    0.2731 C   0  0  0  0  0  0  0  0  0  0  0  0
    3.2229   -2.3356    0.7417 N   0  0  0  0  0  0  0  0  0  0  0  0
    2.1368   -2.4044    1.5033 C   0  0  0  0  0  0  0  0  0  0  0  0
    1.2925   -1.4103    1.7927 N   0  0  0  0  0  0  0  0  0  0  0  0
    1.5341   -0.1828    1.2918 C   0  0  0  0  0  0  0  0  0  0  0  0
    0.5703    0.7572    1.6261 N   0  0  0  0  0  0  0  0  0  0  0  0
    2.6864    0.0430    0.4956 C   0  0  0  0  0  0  0  0  0  0  0  0
    3.3079    1.2115   -0.1630 C   0  0  0  0  0  0  0  0  0  0  0  0
    2.8576    2.6196   -0.0918 C   0  0  0  0  0  0  0  0  0  0  0  0
    2.3295    3.1122    1.0966 C   0  0  0  0  0  0  0  0  0  0  0  0
    1.7821    4.3951    1.1723 C   0  0  0  0  0  0  0  0  0  0  0  0
    1.8601    5.2826    0.0996 C   0  0  0  0  0  0  0  0  0  0  0  0
    1.3366    6.5989    0.1328 N   0  0  0  0  0  0  0  0  0  0  0  0
    0.7041    7.1721    1.2163 C   0  0  0  0  0  0  0  0  0  0  0  0
    0.5741    6.6362    2.3101 O   0  0  0  0  0  0  0  0  0  0  0  0
    0.1519    8.4135    0.9255 N   0  0  0  0  0  0  0  0  0  0  0  0
   -0.5937    9.0675    1.9387 C   0  0  0  0  0  0  0  0  0  0  0  0
   -0.1059    9.1542    3.2483 C   0  0  0  0  0  0  0  0  0  0  0  0
   -0.9230    9.6111    4.2811 C   0  0  0  0  0  0  0  0  0  0  0  0
   -2.2431    9.9942    4.0160 C   0  0  0  0  0  0  0  0  0  0  0  0
   -3.1640   10.3933    5.1344 C   0  0  0  0  0  0  0  0  0  0  0  0
   -2.5831   10.3776    6.3673 F   0  0  0  0  0  0  0  0  0  0  0  0
   -3.6628   11.6499    4.9772 F   0  0  0  0  0  0  0  0  0  0  0  0
   -4.2571    9.5783    5.2294 F   0  0  0  0  0  0  0  0  0  0  0  0
   -2.7031    9.9694    2.6871 C   0  0  0  0  0  0  0  0  0  0  0  0
   -1.8754    9.5294    1.6473 C   0  0  0  0  0  0  0  0  0  0  0  0
    2.4728    4.8361   -1.0709 C   0  0  0  0  0  0  0  0  0  0  0  0
    2.9286    3.5080   -1.1764 C   0  0  0  0  0  0  0  0  0  0  0  0
    6.3787    1.1015   -1.8386 H   0  0  0  0  0  0  0  0  0  0  0  0
    5.7501    2.5568   -1.0700 H   0  0  0  0  0  0  0  0  0  0  0  0
    5.0370    1.9486   -2.5892 H   0  0  0  0  0  0  0  0  0  0  0  0
    1.9052   -3.3737    1.9329 H   0  0  0  0  0  0  0  0  0  0  0  0
   -0.2378    0.3053    2.0402 H   0  0  0  0  0  0  0  0  0  0  0  0
    0.3731    1.4474    0.9141 H   0  0  0  0  0  0  0  0  0  0  0  0
    2.2934    2.5017    1.9963 H   0  0  0  0  0  0  0  0  0  0  0  0
    1.3027    4.6486    2.1113 H   0  0  0  0  0  0  0  0  0  0  0  0
    1.5177    7.1938   -0.6590 H   0  0  0  0  0  0  0  0  0  0  0  0
   -0.2041    8.4956   -0.0145 H   0  0  0  0  0  0  0  0  0  0  0  0
    0.9008    8.8144    3.4874 H   0  0  0  0  0  0  0  0  0  0  0  0
   -0.5345    9.6154    5.2976 H   0  0  0  0  0  0  0  0  0  0  0  0
   -3.7313   10.2522    2.4650 H   0  0  0  0  0  0  0  0  0  0  0  0
   -2.2791    9.4655    0.6410 H   0  0  0  0  0  0  0  0  0  0  0  0
    2.5840    5.4949   -1.9282 H   0  0  0  0  0  0  0  0  0  0  0  0
    3.3298    3.1947   -2.1348 H   0  0  0  0  0  0  0  0  0  0  0  0
  1  2  1  0  0  0  0
  1 32  1  0  0  0  0
  1 33  1  0  0  0  0
  1 34  1  0  0  0  0
  2  3  1  0  0  0  0
  2 11  2  0  0  0  0
  3  4  1  0  0  0  0
  4  5  1  0  0  0  0
  4 10  2  0  0  0  0
  5  6  2  0  0  0  0
  6  7  1  0  0  0  0
  6 35  1  0  0  0  0
  7  8  2  0  0  0  0
  8  9  1  0  0  0  0
  8 10  1  0  0  0  0
  9 36  1  0  0  0  0
  9 37  1  0  0  0  0
 10 11  1  0  0  0  0
 11 12  1  0  0  0  0
 12 13  1  0  0  0  0
 12 31  2  0  0  0  0
 13 14  2  0  0  0  0
 13 38  1  0  0  0  0
 14 15  1  0  0  0  0
 14 39  1  0  0  0  0
 15 16  1  0  0  0  0
 15 30  2  0  0  0  0
 16 17  1  0  0  0  0
 16 40  1  0  0  0  0
 17 18  2  0  0  0  0
 17 19  1  0  0  0  0
 19 20  1  0  0  0  0
 19 41  1  0  0  0  0
 20 21  1  0  0  0  0
 20 29  2  0  0  0  0
 21 22  2  0  0  0  0
 21 42  1  0  0  0  0
 22 23  1  0  0  0  0
 22 43  1  0  0  0  0
 23 24  1  0  0  0  0
 23 28  2  0  0  0  0
 24 25  1  0  0  0  0
 24 26  1  0  0  0  0
 24 27  1  0  0  0  0
 28 29  1  0  0  0  0
 28 44  1  0  0  0  0
 29 45  1  0  0  0  0
 30 31  1  0  0  0  0
 30 46  1  0  0  0  0
 31 47  1  0  0  0  0
M  END
$$$$
