CHEMBL3739726
 OpenBabel04072215373D

 61 65  0  0  0  0  0  0  0  0999 V2000
    3.4542    4.0333   -1.6090 C   0  0  0  0  0  0  0  0  0  0  0  0
    4.6333    3.2766   -1.3389 O   0  0  0  0  0  0  0  0  0  0  0  0
    5.3792    3.6965   -0.2695 C   0  0  0  0  0  0  0  0  0  0  0  0
    5.0786    4.8025    0.5183 C   0  0  0  0  0  0  0  0  0  0  0  0
    5.8474    5.1289    1.6377 C   0  0  0  0  0  0  0  0  0  0  0  0
    5.5039    6.2165    2.4659 N   0  0  0  0  0  0  0  0  0  0  0  0
    4.1834    6.6069    2.7398 C   0  0  0  0  0  0  0  0  0  0  0  0
    3.9967    7.9171    2.9558 N   0  0  0  0  0  0  0  0  0  0  0  0
    2.7351    8.3255    3.1934 C   0  0  0  0  0  0  0  0  0  0  0  0
    1.6471    7.4713    3.2153 C   0  0  0  0  0  0  0  0  0  0  0  0
    1.9417    6.1315    3.0156 C   0  0  0  0  0  0  0  0  0  0  0  0
    0.9935    5.1310    3.0051 O   0  0  0  0  0  0  0  0  0  0  0  0
   -0.1398    5.2888    3.7817 C   0  0  0  0  0  0  0  0  0  0  0  0
   -1.3594    4.8829    3.2420 C   0  0  0  0  0  0  0  0  0  0  0  0
   -2.5417    5.2712    3.8886 C   0  0  0  0  0  0  0  0  0  0  0  0
   -2.4932    5.9672    5.1179 C   0  0  0  0  0  0  0  0  0  0  0  0
   -3.6094    6.3649    5.8721 C   0  0  0  0  0  0  0  0  0  0  0  0
   -3.4492    7.7398    6.6654 C   0  0  0  0  0  0  0  0  0  0  0  0
   -2.6047    8.5598    6.3170 O   0  0  0  0  0  0  0  0  0  0  0  0
   -4.3118    7.8958    7.7720 N   0  0  0  0  0  0  0  0  0  0  0  0
   -4.3630    8.9372    8.7467 C   0  0  0  0  0  0  0  0  0  0  0  0
   -3.4946   10.0293    8.7828 C   0  0  0  0  0  0  0  0  0  0  0  0
   -3.6395   11.0381    9.7514 C   0  0  0  0  0  0  0  0  0  0  0  0
   -4.6433   10.9661   10.7138 C   0  0  0  0  0  0  0  0  0  0  0  0
   -5.4996    9.8692   10.7155 C   0  0  0  0  0  0  0  0  0  0  0  0
   -5.3559    8.8633    9.7443 C   0  0  0  0  0  0  0  0  0  0  0  0
   -3.8787    5.3612    6.7662 C   0  0  0  0  0  0  0  0  0  0  0  0
   -2.8111    5.0359    7.5910 C   0  0  0  0  0  0  0  0  0  0  0  0
   -1.5043    5.4043    7.1855 C   0  0  0  0  0  0  0  0  0  0  0  0
   -1.3150    5.7798    5.8322 C   0  0  0  0  0  0  0  0  0  0  0  0
   -0.1015    5.6682    5.1235 C   0  0  0  0  0  0  0  0  0  0  0  0
    3.1977    5.7046    2.7652 N   0  0  0  0  0  0  0  0  0  0  0  0
    7.0232    4.4063    1.8865 C   0  0  0  0  0  0  0  0  0  0  0  0
    7.3288    3.2774    1.1207 C   0  0  0  0  0  0  0  0  0  0  0  0
    8.3768    2.4229    1.3391 O   0  0  0  0  0  0  0  0  0  0  0  0
    9.2120    2.6964    2.4580 C   0  0  0  0  0  0  0  0  0  0  0  0
    6.5012    2.9299    0.0456 C   0  0  0  0  0  0  0  0  0  0  0  0
    2.9009    3.5339   -2.4081 H   0  0  0  0  0  0  0  0  0  0  0  0
    3.7136    5.0401   -1.9567 H   0  0  0  0  0  0  0  0  0  0  0  0
    2.7931    4.0794   -0.7351 H   0  0  0  0  0  0  0  0  0  0  0  0
    4.2135    5.4181    0.3029 H   0  0  0  0  0  0  0  0  0  0  0  0
    6.0122    7.0582    2.2542 H   0  0  0  0  0  0  0  0  0  0  0  0
    2.6146    9.3703    3.3812 H   0  0  0  0  0  0  0  0  0  0  0  0
    0.6622    7.8399    3.3760 H   0  0  0  0  0  0  0  0  0  0  0  0
   -1.3991    4.2713    2.3432 H   0  0  0  0  0  0  0  0  0  0  0  0
   -3.4982    4.9631    3.4743 H   0  0  0  0  0  0  0  0  0  0  0  0
   -4.9742    7.1504    7.9311 H   0  0  0  0  0  0  0  0  0  0  0  0
   -2.6871   10.1252    8.0649 H   0  0  0  0  0  0  0  0  0  0  0  0
   -2.9604   11.8909    9.7462 H   0  0  0  0  0  0  0  0  0  0  0  0
   -4.7563   11.7555   11.4526 H   0  0  0  0  0  0  0  0  0  0  0  0
   -6.2836    9.8025   11.4687 H   0  0  0  0  0  0  0  0  0  0  0  0
   -6.0509    8.0281    9.7837 H   0  0  0  0  0  0  0  0  0  0  0  0
   -4.7293    4.7074    6.6294 H   0  0  0  0  0  0  0  0  0  0  0  0
   -2.9758    4.4110    8.4648 H   0  0  0  0  0  0  0  0  0  0  0  0
   -0.6584    5.1383    7.8117 H   0  0  0  0  0  0  0  0  0  0  0  0
    0.8550    5.7393    5.6326 H   0  0  0  0  0  0  0  0  0  0  0  0
    7.6425    4.7099    2.7226 H   0  0  0  0  0  0  0  0  0  0  0  0
    9.8532    1.8246    2.6210 H   0  0  0  0  0  0  0  0  0  0  0  0
    8.6388    2.8484    3.3788 H   0  0  0  0  0  0  0  0  0  0  0  0
    9.8547    3.5568    2.2467 H   0  0  0  0  0  0  0  0  0  0  0  0
    6.7295    2.0458   -0.5444 H   0  0  0  0  0  0  0  0  0  0  0  0
  1  2  1  0  0  0  0
  1 38  1  0  0  0  0
  1 39  1  0  0  0  0
  1 40  1  0  0  0  0
  2  3  1  0  0  0  0
  3  4  1  0  0  0  0
  3 37  2  0  0  0  0
  4  5  2  0  0  0  0
  4 41  1  0  0  0  0
  5  6  1  0  0  0  0
  5 33  1  0  0  0  0
  6  7  1  0  0  0  0
  6 42  1  0  0  0  0
  7  8  1  0  0  0  0
  7 32  2  0  0  0  0
  8  9  2  0  0  0  0
  9 10  1  0  0  0  0
  9 43  1  0  0  0  0
 10 11  2  0  0  0  0
 10 44  1  0  0  0  0
 11 12  1  0  0  0  0
 11 32  1  0  0  0  0
 12 13  1  0  0  0  0
 13 14  1  0  0  0  0
 13 31  2  0  0  0  0
 14 15  2  0  0  0  0
 14 45  1  0  0  0  0
 15 16  1  0  0  0  0
 15 46  1  0  0  0  0
 16 17  1  0  0  0  0
 16 30  2  0  0  0  0
 17 18  1  0  0  0  0
 17 27  2  0  0  0  0
 18 19  2  0  0  0  0
 18 20  1  0  0  0  0
 20 21  1  0  0  0  0
 20 47  1  0  0  0  0
 21 22  1  0  0  0  0
 21 26  2  0  0  0  0
 22 23  2  0  0  0  0
 22 48  1  0  0  0  0
 23 24  1  0  0  0  0
 23 49  1  0  0  0  0
 24 25  2  0  0  0  0
 24 50  1  0  0  0  0
 25 26  1  0  0  0  0
 25 51  1  0  0  0  0
 26 52  1  0  0  0  0
 27 28  1  0  0  0  0
 27 53  1  0  0  0  0
 28 29  2  0  0  0  0
 28 54  1  0  0  0  0
 29 30  1  0  0  0  0
 29 55  1  0  0  0  0
 30 31  1  0  0  0  0
 31 56  1  0  0  0  0
 33 34  2  0  0  0  0
 33 57  1  0  0  0  0
 34 35  1  0  0  0  0
 34 37  1  0  0  0  0
 35 36  1  0  0  0  0
 36 58  1  0  0  0  0
 36 59  1  0  0  0  0
 36 60  1  0  0  0  0
 37 61  1  0  0  0  0
M  END
$$$$
