CHEMBL1969588
 OpenBabel04072215363D

 39 42  0  0  0  0  0  0  0  0999 V2000
   -2.0077   -0.1296    0.0409 Cl  0  0  0  0  0  0  0  0  0  0  0  0
   -0.2957   -0.0044    0.0005 C   0  0  0  0  0  0  0  0  0  0  0  0
    0.3156    1.2344   -0.0444 C   0  0  0  0  0  0  0  0  0  0  0  0
    1.7045    1.2691   -0.0600 C   0  0  0  0  0  0  0  0  0  0  0  0
    2.4294    2.5338   -0.0116 C   0  0  0  0  0  0  0  0  0  0  0  0
    3.6533    2.7281   -0.6328 C   0  0  0  0  0  0  0  0  0  0  0  0
    4.0684    4.0099   -0.3785 N   0  0  0  0  0  0  0  0  0  0  0  0
    3.1454    4.6512    0.3956 C   0  0  0  0  0  0  0  0  0  0  0  0
    3.2689    5.9239    0.8145 N   0  0  0  0  0  0  0  0  0  0  0  0
    2.2351    6.3269    1.5858 C   0  0  0  0  0  0  0  0  0  0  0  0
    1.1445    5.5485    1.9465 C   0  0  0  0  0  0  0  0  0  0  0  0
    1.0709    4.2324    1.4873 C   0  0  0  0  0  0  0  0  0  0  0  0
    2.1091    3.7605    0.6613 C   0  0  0  0  0  0  0  0  0  0  0  0
    2.3918    0.0528   -0.0782 C   0  0  0  0  0  0  0  0  0  0  0  0
    1.6909   -1.1493   -0.0136 C   0  0  0  0  0  0  0  0  0  0  0  0
    2.4442   -2.3177    0.0665 N   0  0  0  0  0  0  0  0  0  0  0  0
    1.7607   -3.5264    0.4927 C   0  0  0  0  0  0  0  0  0  0  0  0
    2.8124   -4.5113    0.9606 C   0  0  0  0  0  0  0  0  0  0  0  0
    3.7440   -4.1248    1.9437 C   0  0  0  0  0  0  0  0  0  0  0  0
    4.7187   -5.0145    2.3952 C   0  0  0  0  0  0  0  0  0  0  0  0
    4.7644   -6.3080    1.8795 C   0  0  0  0  0  0  0  0  0  0  0  0
    3.8427   -6.7069    0.9117 C   0  0  0  0  0  0  0  0  0  0  0  0
    2.8697   -5.8148    0.4526 C   0  0  0  0  0  0  0  0  0  0  0  0
    0.3500   -1.1877    0.0326 N   0  0  0  0  0  0  0  0  0  0  0  0
   -0.2812    2.1377   -0.0640 H   0  0  0  0  0  0  0  0  0  0  0  0
    4.2690    2.0723   -1.2342 H   0  0  0  0  0  0  0  0  0  0  0  0
    4.9256    4.4397   -0.6939 H   0  0  0  0  0  0  0  0  0  0  0  0
    2.3086    7.3545    1.9346 H   0  0  0  0  0  0  0  0  0  0  0  0
    0.3640    5.9570    2.5794 H   0  0  0  0  0  0  0  0  0  0  0  0
    0.2373    3.6005    1.7726 H   0  0  0  0  0  0  0  0  0  0  0  0
    3.4775    0.0252   -0.0680 H   0  0  0  0  0  0  0  0  0  0  0  0
    3.0109   -2.4546   -0.7637 H   0  0  0  0  0  0  0  0  0  0  0  0
    1.1687   -3.9435   -0.3304 H   0  0  0  0  0  0  0  0  0  0  0  0
    1.0884   -3.3379    1.3398 H   0  0  0  0  0  0  0  0  0  0  0  0
    3.7140   -3.1158    2.3475 H   0  0  0  0  0  0  0  0  0  0  0  0
    5.4353   -4.6984    3.1460 H   0  0  0  0  0  0  0  0  0  0  0  0
    5.5201   -7.0042    2.2316 H   0  0  0  0  0  0  0  0  0  0  0  0
    3.8816   -7.7181    0.5151 H   0  0  0  0  0  0  0  0  0  0  0  0
    2.1588   -6.1458   -0.3010 H   0  0  0  0  0  0  0  0  0  0  0  0
  1  2  1  0  0  0  0
  2  3  1  0  0  0  0
  2 24  2  0  0  0  0
  3  4  2  0  0  0  0
  3 25  1  0  0  0  0
  4  5  1  0  0  0  0
  4 14  1  0  0  0  0
  5  6  2  0  0  0  0
  5 13  1  0  0  0  0
  6  7  1  0  0  0  0
  6 26  1  0  0  0  0
  7  8  1  0  0  0  0
  7 27  1  0  0  0  0
  8  9  1  0  0  0  0
  8 13  2  0  0  0  0
  9 10  2  0  0  0  0
 10 11  1  0  0  0  0
 10 28  1  0  0  0  0
 11 12  2  0  0  0  0
 11 29  1  0  0  0  0
 12 13  1  0  0  0  0
 12 30  1  0  0  0  0
 14 15  2  0  0  0  0
 14 31  1  0  0  0  0
 15 16  1  0  0  0  0
 15 24  1  0  0  0  0
 16 17  1  0  0  0  0
 16 32  1  0  0  0  0
 17 18  1  0  0  0  0
 17 33  1  0  0  0  0
 17 34  1  0  0  0  0
 18 19  1  0  0  0  0
 18 23  2  0  0  0  0
 19 20  2  0  0  0  0
 19 35  1  0  0  0  0
 20 21  1  0  0  0  0
 20 36  1  0  0  0  0
 21 22  2  0  0  0  0
 21 37  1  0  0  0  0
 22 23  1  0  0  0  0
 22 38  1  0  0  0  0
 23 39  1  0  0  0  0
M  END
$$$$
