CHEMBL4065800
 OpenBabel04072215383D

 46 49  0  0  0  0  0  0  0  0999 V2000
   -1.0942    2.2040   -3.3795 C   0  0  0  0  0  0  0  0  0  0  0  0
   -1.3533    1.0362   -2.4948 C   0  0  0  0  0  0  0  0  0  0  0  0
   -1.7602   -0.0954   -3.0873 N   0  0  0  0  0  0  0  0  0  0  0  0
   -1.9307   -0.9519   -2.0716 N   0  0  0  0  0  0  0  0  0  0  0  0
   -1.6400   -0.4261   -0.8495 C   0  0  0  0  0  0  0  0  0  0  0  0
   -1.7398   -1.0989    0.3071 N   0  0  0  0  0  0  0  0  0  0  0  0
   -1.3899   -0.3593    1.3731 C   0  0  0  0  0  0  0  0  0  0  0  0
   -0.9718    0.9647    1.3324 C   0  0  0  0  0  0  0  0  0  0  0  0
   -0.8831    1.6387    0.0966 C   0  0  0  0  0  0  0  0  0  0  0  0
   -0.3990    3.0317    0.0349 C   0  0  0  0  0  0  0  0  0  0  0  0
    0.5249    3.4170   -0.9355 C   0  0  0  0  0  0  0  0  0  0  0  0
    0.9286    4.7436   -1.0862 C   0  0  0  0  0  0  0  0  0  0  0  0
    0.5046    5.7308   -0.2008 C   0  0  0  0  0  0  0  0  0  0  0  0
    0.9248    7.0779   -0.3078 N   0  0  0  0  0  0  0  0  0  0  0  0
    1.5710    7.6213   -1.4065 C   0  0  0  0  0  0  0  0  0  0  0  0
    1.7327    7.0560   -2.4824 O   0  0  0  0  0  0  0  0  0  0  0  0
    2.0721    8.8879   -1.1395 N   0  0  0  0  0  0  0  0  0  0  0  0
    2.7961    9.5953   -2.1317 C   0  0  0  0  0  0  0  0  0  0  0  0
    3.9848   10.2266   -1.7724 C   0  0  0  0  0  0  0  0  0  0  0  0
    4.7680   10.8433   -2.7508 C   0  0  0  0  0  0  0  0  0  0  0  0
    4.3409   10.8730   -4.0802 C   0  0  0  0  0  0  0  0  0  0  0  0
    3.1253   10.2807   -4.4494 C   0  0  0  0  0  0  0  0  0  0  0  0
    2.6377   10.3127   -5.8765 C   0  0  0  0  0  0  0  0  0  0  0  0
    3.4826   10.9696   -6.7223 F   0  0  0  0  0  0  0  0  0  0  0  0
    2.4715    9.0720   -6.4112 F   0  0  0  0  0  0  0  0  0  0  0  0
    1.4342   10.9397   -6.0015 F   0  0  0  0  0  0  0  0  0  0  0  0
    2.3606    9.6412   -3.4617 C   0  0  0  0  0  0  0  0  0  0  0  0
   -0.3273    5.3516    0.8549 C   0  0  0  0  0  0  0  0  0  0  0  0
   -0.7859    4.0224    0.9592 C   0  0  0  0  0  0  0  0  0  0  0  0
   -1.2440    0.8920   -1.0636 C   0  0  0  0  0  0  0  0  0  0  0  0
   -1.4247    2.0013   -4.4055 H   0  0  0  0  0  0  0  0  0  0  0  0
   -0.0251    2.4198   -3.4513 H   0  0  0  0  0  0  0  0  0  0  0  0
   -1.6276    3.0918   -3.0300 H   0  0  0  0  0  0  0  0  0  0  0  0
   -2.2445   -1.8924   -2.2644 H   0  0  0  0  0  0  0  0  0  0  0  0
   -1.4542   -0.8809    2.3260 H   0  0  0  0  0  0  0  0  0  0  0  0
   -0.6895    1.4513    2.2597 H   0  0  0  0  0  0  0  0  0  0  0  0
    0.9561    2.6809   -1.6073 H   0  0  0  0  0  0  0  0  0  0  0  0
    1.5956    4.9543   -1.9150 H   0  0  0  0  0  0  0  0  0  0  0  0
    0.5811    7.7298    0.3820 H   0  0  0  0  0  0  0  0  0  0  0  0
    2.3730    9.0218   -0.1841 H   0  0  0  0  0  0  0  0  0  0  0  0
    4.3553   10.1847   -0.7528 H   0  0  0  0  0  0  0  0  0  0  0  0
    5.7247   11.2852   -2.4813 H   0  0  0  0  0  0  0  0  0  0  0  0
    4.9662   11.3555   -4.8306 H   0  0  0  0  0  0  0  0  0  0  0  0
    1.4209    9.1656   -3.7472 H   0  0  0  0  0  0  0  0  0  0  0  0
   -0.6474    6.0732    1.6021 H   0  0  0  0  0  0  0  0  0  0  0  0
   -1.4571    3.7733    1.7794 H   0  0  0  0  0  0  0  0  0  0  0  0
  1  2  1  0  0  0  0
  1 31  1  0  0  0  0
  1 32  1  0  0  0  0
  1 33  1  0  0  0  0
  2  3  2  0  0  0  0
  2 30  1  0  0  0  0
  3  4  1  0  0  0  0
  4  5  1  0  0  0  0
  4 34  1  0  0  0  0
  5  6  1  0  0  0  0
  5 30  2  0  0  0  0
  6  7  2  0  0  0  0
  7  8  1  0  0  0  0
  7 35  1  0  0  0  0
  8  9  2  0  0  0  0
  8 36  1  0  0  0  0
  9 10  1  0  0  0  0
  9 30  1  0  0  0  0
 10 11  1  0  0  0  0
 10 29  2  0  0  0  0
 11 12  2  0  0  0  0
 11 37  1  0  0  0  0
 12 13  1  0  0  0  0
 12 38  1  0  0  0  0
 13 14  1  0  0  0  0
 13 28  2  0  0  0  0
 14 15  1  0  0  0  0
 14 39  1  0  0  0  0
 15 16  2  0  0  0  0
 15 17  1  0  0  0  0
 17 18  1  0  0  0  0
 17 40  1  0  0  0  0
 18 19  1  0  0  0  0
 18 27  2  0  0  0  0
 19 20  2  0  0  0  0
 19 41  1  0  0  0  0
 20 21  1  0  0  0  0
 20 42  1  0  0  0  0
 21 22  2  0  0  0  0
 21 43  1  0  0  0  0
 22 23  1  0  0  0  0
 22 27  1  0  0  0  0
 23 24  1  0  0  0  0
 23 25  1  0  0  0  0
 23 26  1  0  0  0  0
 27 44  1  0  0  0  0
 28 29  1  0  0  0  0
 28 45  1  0  0  0  0
 29 46  1  0  0  0  0
M  END
$$$$
