CHEMBL3932357
 OpenBabel04072215373D

 54 57  0  0  0  0  0  0  0  0999 V2000
    3.3209    0.8576    0.7576 N   0  0  0  0  0  0  0  0  0  0  0  0
    2.8729    1.7057   -0.2622 C   0  0  0  0  0  0  0  0  0  0  0  0
    1.6986    2.4446   -0.0893 C   0  0  0  0  0  0  0  0  0  0  0  0
    1.2781    3.3979   -1.0241 C   0  0  0  0  0  0  0  0  0  0  0  0
    0.0819    4.1512   -0.8946 N   0  0  0  0  0  0  0  0  0  0  0  0
   -0.8757    4.0079    0.1001 C   0  0  0  0  0  0  0  0  0  0  0  0
   -0.8388    3.1529    0.9773 O   0  0  0  0  0  0  0  0  0  0  0  0
   -1.8777    4.9670   -0.0004 N   0  0  0  0  0  0  0  0  0  0  0  0
   -2.9934    5.0681    0.8699 C   0  0  0  0  0  0  0  0  0  0  0  0
   -3.4225    4.0141    1.6824 C   0  0  0  0  0  0  0  0  0  0  0  0
   -4.4771    4.1796    2.5841 C   0  0  0  0  0  0  0  0  0  0  0  0
   -5.0804    5.4278    2.7389 C   0  0  0  0  0  0  0  0  0  0  0  0
   -6.0297    5.6910    3.7082 O   0  0  0  0  0  0  0  0  0  0  0  0
   -5.8874    5.0802    4.9414 C   0  0  0  0  0  0  0  0  0  0  0  0
   -4.6511    4.8079    5.5199 C   0  0  0  0  0  0  0  0  0  0  0  0
   -4.6309    4.0767    6.6849 C   0  0  0  0  0  0  0  0  0  0  0  0
   -5.7433    3.6845    7.3263 N   0  0  0  0  0  0  0  0  0  0  0  0
   -6.9394    4.0262    6.8197 C   0  0  0  0  0  0  0  0  0  0  0  0
   -8.1065    3.6439    7.5011 N   0  0  0  0  0  0  0  0  0  0  0  0
   -8.1117    2.9274    8.6818 C   0  0  0  0  0  0  0  0  0  0  0  0
   -7.1524    2.5414    9.3327 O   0  0  0  0  0  0  0  0  0  0  0  0
   -9.4881    2.5777    9.1575 C   0  0  0  0  0  0  0  0  0  0  0  0
   -9.6846    1.8775   10.4868 C   0  0  0  0  0  0  0  0  0  0  0  0
   -9.8833    1.1178    9.2091 C   0  0  0  0  0  0  0  0  0  0  0  0
   -7.0570    4.7273    5.6226 C   0  0  0  0  0  0  0  0  0  0  0  0
   -4.7163    6.4529    1.8665 C   0  0  0  0  0  0  0  0  0  0  0  0
   -5.3262    7.6457    1.9354 F   0  0  0  0  0  0  0  0  0  0  0  0
   -3.6910    6.2784    0.9284 C   0  0  0  0  0  0  0  0  0  0  0  0
    2.0929    3.6418   -2.1379 C   0  0  0  0  0  0  0  0  0  0  0  0
    3.3161    2.9588   -2.2963 C   0  0  0  0  0  0  0  0  0  0  0  0
    4.2297    3.2371   -3.4626 C   0  0  0  0  0  0  0  0  0  0  0  0
    3.7523    4.1869   -4.3149 F   0  0  0  0  0  0  0  0  0  0  0  0
    5.4578    3.6736   -3.0689 F   0  0  0  0  0  0  0  0  0  0  0  0
    4.4533    2.1312   -4.2254 F   0  0  0  0  0  0  0  0  0  0  0  0
    3.6999    2.0063   -1.3420 C   0  0  0  0  0  0  0  0  0  0  0  0
    2.5760    0.4860    1.3387 H   0  0  0  0  0  0  0  0  0  0  0  0
    3.9615    0.1342    0.4477 H   0  0  0  0  0  0  0  0  0  0  0  0
    1.1234    2.2478    0.8085 H   0  0  0  0  0  0  0  0  0  0  0  0
   -0.1230    4.8024   -1.6363 H   0  0  0  0  0  0  0  0  0  0  0  0
   -1.6764    5.7726   -0.5732 H   0  0  0  0  0  0  0  0  0  0  0  0
   -2.9498    3.0363    1.6505 H   0  0  0  0  0  0  0  0  0  0  0  0
   -4.7742    3.3297    3.1935 H   0  0  0  0  0  0  0  0  0  0  0  0
   -3.7159    5.1072    5.0628 H   0  0  0  0  0  0  0  0  0  0  0  0
   -3.6993    3.7595    7.1426 H   0  0  0  0  0  0  0  0  0  0  0  0
   -8.9897    3.8983    7.0894 H   0  0  0  0  0  0  0  0  0  0  0  0
  -10.2635    3.2899    8.8939 H   0  0  0  0  0  0  0  0  0  0  0  0
  -10.5600    2.1245   11.0752 H   0  0  0  0  0  0  0  0  0  0  0  0
   -8.8076    1.6467   11.0845 H   0  0  0  0  0  0  0  0  0  0  0  0
  -10.8938    0.8485    8.9284 H   0  0  0  0  0  0  0  0  0  0  0  0
   -9.1343    0.3745    8.9526 H   0  0  0  0  0  0  0  0  0  0  0  0
   -8.0248    4.9845    5.2079 H   0  0  0  0  0  0  0  0  0  0  0  0
   -3.4288    7.1167    0.2913 H   0  0  0  0  0  0  0  0  0  0  0  0
    1.8025    4.3831   -2.8784 H   0  0  0  0  0  0  0  0  0  0  0  0
    4.6572    1.4980   -1.4467 H   0  0  0  0  0  0  0  0  0  0  0  0
  1  2  1  0  0  0  0
  1 36  1  0  0  0  0
  1 37  1  0  0  0  0
  2  3  1  0  0  0  0
  2 35  2  0  0  0  0
  3  4  2  0  0  0  0
  3 38  1  0  0  0  0
  4  5  1  0  0  0  0
  4 29  1  0  0  0  0
  5  6  1  0  0  0  0
  5 39  1  0  0  0  0
  6  7  2  0  0  0  0
  6  8  1  0  0  0  0
  8  9  1  0  0  0  0
  8 40  1  0  0  0  0
  9 10  1  0  0  0  0
  9 28  2  0  0  0  0
 10 11  2  0  0  0  0
 10 41  1  0  0  0  0
 11 12  1  0  0  0  0
 11 42  1  0  0  0  0
 12 13  1  0  0  0  0
 12 26  2  0  0  0  0
 13 14  1  0  0  0  0
 14 15  1  0  0  0  0
 14 25  2  0  0  0  0
 15 16  2  0  0  0  0
 15 43  1  0  0  0  0
 16 17  1  0  0  0  0
 16 44  1  0  0  0  0
 17 18  2  0  0  0  0
 18 19  1  0  0  0  0
 18 25  1  0  0  0  0
 19 20  1  0  0  0  0
 19 45  1  0  0  0  0
 20 21  2  0  0  0  0
 20 22  1  0  0  0  0
 22 23  1  0  0  0  0
 22 24  1  0  0  0  0
 22 46  1  0  0  0  0
 23 24  1  0  0  0  0
 23 47  1  0  0  0  0
 23 48  1  0  0  0  0
 24 49  1  0  0  0  0
 24 50  1  0  0  0  0
 25 51  1  0  0  0  0
 26 27  1  0  0  0  0
 26 28  1  0  0  0  0
 28 52  1  0  0  0  0
 29 30  2  0  0  0  0
 29 53  1  0  0  0  0
 30 31  1  0  0  0  0
 30 35  1  0  0  0  0
 31 32  1  0  0  0  0
 31 33  1  0  0  0  0
 31 34  1  0  0  0  0
 35 54  1  0  0  0  0
M  END
$$$$
