CHEMBL3947828
 OpenBabel04072215373D

 72 76  0  0  0  0  0  0  0  0999 V2000
    3.8512    4.0167    0.4572 C   0  0  0  0  0  0  0  0  0  0  0  0
    4.5825    2.8224    0.2044 O   0  0  0  0  0  0  0  0  0  0  0  0
    4.5975    1.8545    1.1770 C   0  0  0  0  0  0  0  0  0  0  0  0
    4.0502    2.0554    2.4573 C   0  0  0  0  0  0  0  0  0  0  0  0
    4.0257    1.0272    3.4202 C   0  0  0  0  0  0  0  0  0  0  0  0
    3.4475    1.2173    4.7578 C   0  0  0  0  0  0  0  0  0  0  0  0
    2.7731    0.3226    5.5125 C   0  0  0  0  0  0  0  0  0  0  0  0
    2.1746   -0.9308    5.1871 C   0  0  0  0  0  0  0  0  0  0  0  0
    0.8404   -0.9006    4.8180 C   0  0  0  0  0  0  0  0  0  0  0  0
    0.2407   -1.7796    5.6878 N   0  0  0  0  0  0  0  0  0  0  0  0
   -1.0571   -1.5856    6.3094 C   0  0  0  0  0  0  0  0  0  0  0  0
   -2.1424   -0.9619    5.4423 C   0  0  0  0  0  0  0  0  0  0  0  0
   -3.4560   -0.8891    6.2299 C   0  0  0  0  0  0  0  0  0  0  0  0
   -3.3928   -0.0652    7.4479 N   0  0  0  0  0  0  0  0  0  0  0  0
   -3.0771    1.3517    7.1780 C   0  0  0  0  0  0  0  0  0  0  0  0
   -3.1355    2.2392    8.4462 C   0  0  0  0  0  0  0  0  0  0  0  0
   -4.3969    2.1589    9.2053 N   0  0  0  0  0  0  0  0  0  0  0  0
   -5.4872    2.8434    8.5149 C   0  0  0  0  0  0  0  0  0  0  0  0
   -4.7066    0.7374    9.4531 C   0  0  0  0  0  0  0  0  0  0  0  0
   -4.6616   -0.1685    8.1989 C   0  0  0  0  0  0  0  0  0  0  0  0
    1.1806   -2.6690    6.1744 C   0  0  0  0  0  0  0  0  0  0  0  0
    1.0372   -3.7460    7.0608 C   0  0  0  0  0  0  0  0  0  0  0  0
    2.1614   -4.5133    7.3480 C   0  0  0  0  0  0  0  0  0  0  0  0
    3.3952   -4.1923    6.7931 C   0  0  0  0  0  0  0  0  0  0  0  0
    3.5582   -3.0243    6.0290 C   0  0  0  0  0  0  0  0  0  0  0  0
    2.4304   -2.2313    5.7204 C   0  0  0  0  0  0  0  0  0  0  0  0
    2.2821    1.0237    6.7453 C   0  0  0  0  0  0  0  0  0  0  0  0
    1.5755    0.5792    7.6265 O   0  0  0  0  0  0  0  0  0  0  0  0
    2.6935    2.3060    6.6420 N   0  0  0  0  0  0  0  0  0  0  0  0
    3.3174    2.5243    5.4664 C   0  0  0  0  0  0  0  0  0  0  0  0
    3.6282    3.6169    5.0314 O   0  0  0  0  0  0  0  0  0  0  0  0
    4.5874   -0.1982    3.0821 C   0  0  0  0  0  0  0  0  0  0  0  0
    5.1042   -0.4379    1.8046 C   0  0  0  0  0  0  0  0  0  0  0  0
    5.6054   -1.6685    1.4500 O   0  0  0  0  0  0  0  0  0  0  0  0
    4.9420   -2.7788    2.0552 C   0  0  0  0  0  0  0  0  0  0  0  0
    5.1548    0.6009    0.8560 C   0  0  0  0  0  0  0  0  0  0  0  0
    5.6937    0.2506   -0.3594 O   0  0  0  0  0  0  0  0  0  0  0  0
    6.4157    1.2548   -1.0604 C   0  0  0  0  0  0  0  0  0  0  0  0
    3.8558    4.6134   -0.4596 H   0  0  0  0  0  0  0  0  0  0  0  0
    4.3310    4.6102    1.2423 H   0  0  0  0  0  0  0  0  0  0  0  0
    2.8053    3.8016    0.7038 H   0  0  0  0  0  0  0  0  0  0  0  0
    3.6304    3.0218    2.7176 H   0  0  0  0  0  0  0  0  0  0  0  0
    0.2682   -0.1025    4.3656 H   0  0  0  0  0  0  0  0  0  0  0  0
   -0.8633   -0.9716    7.1975 H   0  0  0  0  0  0  0  0  0  0  0  0
   -1.4023   -2.5683    6.6415 H   0  0  0  0  0  0  0  0  0  0  0  0
   -2.2916   -1.5788    4.5477 H   0  0  0  0  0  0  0  0  0  0  0  0
   -1.8545    0.0315    5.0815 H   0  0  0  0  0  0  0  0  0  0  0  0
   -3.7086   -1.9169    6.5248 H   0  0  0  0  0  0  0  0  0  0  0  0
   -4.2562   -0.5452    5.5650 H   0  0  0  0  0  0  0  0  0  0  0  0
   -3.7579    1.7560    6.4187 H   0  0  0  0  0  0  0  0  0  0  0  0
   -2.0591    1.4368    6.7814 H   0  0  0  0  0  0  0  0  0  0  0  0
   -2.9261    3.2815    8.1745 H   0  0  0  0  0  0  0  0  0  0  0  0
   -2.3182    1.9439    9.1182 H   0  0  0  0  0  0  0  0  0  0  0  0
   -5.2238    3.8910    8.3297 H   0  0  0  0  0  0  0  0  0  0  0  0
   -6.3846    2.8562    9.1432 H   0  0  0  0  0  0  0  0  0  0  0  0
   -5.7505    2.3885    7.5549 H   0  0  0  0  0  0  0  0  0  0  0  0
   -5.6858    0.6432    9.9386 H   0  0  0  0  0  0  0  0  0  0  0  0
   -3.9790    0.3563   10.1823 H   0  0  0  0  0  0  0  0  0  0  0  0
   -5.5090    0.0764    7.5462 H   0  0  0  0  0  0  0  0  0  0  0  0
   -4.7990   -1.2057    8.5283 H   0  0  0  0  0  0  0  0  0  0  0  0
    0.0826   -3.9788    7.5208 H   0  0  0  0  0  0  0  0  0  0  0  0
    2.0621   -5.3673    8.0139 H   0  0  0  0  0  0  0  0  0  0  0  0
    4.2471   -4.8381    6.9912 H   0  0  0  0  0  0  0  0  0  0  0  0
    4.5443   -2.7686    5.6551 H   0  0  0  0  0  0  0  0  0  0  0  0
    2.3668    3.0305    7.2545 H   0  0  0  0  0  0  0  0  0  0  0  0
    4.6352   -0.9800    3.8317 H   0  0  0  0  0  0  0  0  0  0  0  0
    5.2029   -3.6789    1.4955 H   0  0  0  0  0  0  0  0  0  0  0  0
    3.8513   -2.6685    2.0241 H   0  0  0  0  0  0  0  0  0  0  0  0
    5.2873   -2.9222    3.0863 H   0  0  0  0  0  0  0  0  0  0  0  0
    7.0851    0.7518   -1.7647 H   0  0  0  0  0  0  0  0  0  0  0  0
    7.0370    1.8666   -0.3951 H   0  0  0  0  0  0  0  0  0  0  0  0
    5.7364    1.8728   -1.6548 H   0  0  0  0  0  0  0  0  0  0  0  0
  1  2  1  0  0  0  0
  1 39  1  0  0  0  0
  1 40  1  0  0  0  0
  1 41  1  0  0  0  0
  2  3  1  0  0  0  0
  3  4  1  0  0  0  0
  3 36  2  0  0  0  0
  4  5  2  0  0  0  0
  4 42  1  0  0  0  0
  5  6  1  0  0  0  0
  5 32  1  0  0  0  0
  6  7  2  0  0  0  0
  6 30  1  0  0  0  0
  7  8  1  0  0  0  0
  7 27  1  0  0  0  0
  8  9  2  0  0  0  0
  8 26  1  0  0  0  0
  9 10  1  0  0  0  0
  9 43  1  0  0  0  0
 10 11  1  0  0  0  0
 10 21  1  0  0  0  0
 11 12  1  0  0  0  0
 11 44  1  0  0  0  0
 11 45  1  0  0  0  0
 12 13  1  0  0  0  0
 12 46  1  0  0  0  0
 12 47  1  0  0  0  0
 13 14  1  0  0  0  0
 13 48  1  0  0  0  0
 13 49  1  0  0  0  0
 14 15  1  0  0  0  0
 14 20  1  0  0  0  0
 15 16  1  0  0  0  0
 15 50  1  0  0  0  0
 15 51  1  0  0  0  0
 16 17  1  0  0  0  0
 16 52  1  0  0  0  0
 16 53  1  0  0  0  0
 17 18  1  0  0  0  0
 17 19  1  0  0  0  0
 18 54  1  0  0  0  0
 18 55  1  0  0  0  0
 18 56  1  0  0  0  0
 19 20  1  0  0  0  0
 19 57  1  0  0  0  0
 19 58  1  0  0  0  0
 20 59  1  0  0  0  0
 20 60  1  0  0  0  0
 21 22  1  0  0  0  0
 21 26  2  0  0  0  0
 22 23  2  0  0  0  0
 22 61  1  0  0  0  0
 23 24  1  0  0  0  0
 23 62  1  0  0  0  0
 24 25  2  0  0  0  0
 24 63  1  0  0  0  0
 25 26  1  0  0  0  0
 25 64  1  0  0  0  0
 27 28  2  0  0  0  0
 27 29  1  0  0  0  0
 29 30  1  0  0  0  0
 29 65  1  0  0  0  0
 30 31  2  0  0  0  0
 32 33  2  0  0  0  0
 32 66  1  0  0  0  0
 33 34  1  0  0  0  0
 33 36  1  0  0  0  0
 34 35  1  0  0  0  0
 35 67  1  0  0  0  0
 35 68  1  0  0  0  0
 35 69  1  0  0  0  0
 36 37  1  0  0  0  0
 37 38  1  0  0  0  0
 38 70  1  0  0  0  0
 38 71  1  0  0  0  0
 38 72  1  0  0  0  0
M  END
$$$$
