CHEMBL3973321
 OpenBabel04072215373D

 66 70  0  0  0  0  0  0  0  0999 V2000
    0.7147   -0.3549   -4.1998 C   0  0  0  0  0  0  0  0  0  0  0  0
    2.0298   -0.8588   -4.3495 O   0  0  0  0  0  0  0  0  0  0  0  0
    2.8677   -0.5740   -3.3150 C   0  0  0  0  0  0  0  0  0  0  0  0
    2.5694    0.1240   -2.1929 C   0  0  0  0  0  0  0  0  0  0  0  0
    3.4991    0.2382   -1.1593 C   0  0  0  0  0  0  0  0  0  0  0  0
    3.2189    0.8989    0.0042 O   0  0  0  0  0  0  0  0  0  0  0  0
    1.9063    1.4520    0.0618 C   0  0  0  0  0  0  0  0  0  0  0  0
    4.7547   -0.3572   -1.2518 C   0  0  0  0  0  0  0  0  0  0  0  0
    5.0817   -1.1647   -2.3340 C   0  0  0  0  0  0  0  0  0  0  0  0
    6.3226   -1.8910   -2.3389 N   0  0  0  0  0  0  0  0  0  0  0  0
    6.9235   -2.3425   -1.0410 C   0  0  0  0  0  0  0  0  0  0  0  0
    6.0427   -3.2694   -0.2494 C   0  0  0  0  0  0  0  0  0  0  0  0
    6.4991   -3.7983    1.0561 C   0  0  0  0  0  0  0  0  0  0  0  0
    5.4764   -4.6725    1.6318 N   0  0  0  0  0  0  0  0  0  0  0  0
    4.4268   -4.1962    2.5010 C   0  0  0  0  0  0  0  0  0  0  0  0
    3.7902   -5.4693    3.0366 C   0  0  0  0  0  0  0  0  0  0  0  0
    4.0275   -6.4814    1.9238 C   0  0  0  0  0  0  0  0  0  0  0  0
    5.3405   -6.0284    1.3396 C   0  0  0  0  0  0  0  0  0  0  0  0
    6.0974   -6.7221    0.6824 O   0  0  0  0  0  0  0  0  0  0  0  0
    7.3030   -1.8008   -3.4031 C   0  0  0  0  0  0  0  0  0  0  0  0
    8.0691   -2.9513   -3.6140 C   0  0  0  0  0  0  0  0  0  0  0  0
    8.9971   -2.9938   -4.5744 C   0  0  0  0  0  0  0  0  0  0  0  0
    9.3935   -1.8558   -5.2826 C   0  0  0  0  0  0  0  0  0  0  0  0
   10.6627   -1.9285   -5.2685 N   0  0  0  0  0  0  0  0  0  0  0  0
   11.1077   -2.4946   -6.3081 C   0  0  0  0  0  0  0  0  0  0  0  0
   11.3959   -1.6774   -7.2929 C   0  0  0  0  0  0  0  0  0  0  0  0
   12.7919   -2.8531   -7.5565 C   0  0  0  0  0  0  0  0  0  0  0  0
   13.7338   -3.8434   -6.7379 C   0  0  0  0  0  0  0  0  0  0  0  0
   14.5993   -4.6890   -7.4013 N   0  0  0  0  0  0  0  0  0  0  0  0
   14.3862   -4.4569   -8.7028 N   0  0  0  0  0  0  0  0  0  0  0  0
   15.0622   -5.3036   -9.7543 C   0  0  0  0  0  0  0  0  0  0  0  0
   13.3944   -3.3769   -8.8177 C   0  0  0  0  0  0  0  0  0  0  0  0
   10.0919   -0.6876   -6.8460 N   0  0  0  0  0  0  0  0  0  0  0  0
    8.9049   -0.7122   -5.5153 C   0  0  0  0  0  0  0  0  0  0  0  0
    7.7498   -0.6820   -4.2422 C   0  0  0  0  0  0  0  0  0  0  0  0
    4.1225   -1.0976   -3.3697 C   0  0  0  0  0  0  0  0  0  0  0  0
    0.1090   -0.7092   -5.0390 H   0  0  0  0  0  0  0  0  0  0  0  0
    0.7413    0.7369   -4.2298 H   0  0  0  0  0  0  0  0  0  0  0  0
    0.2364   -0.7041   -3.2829 H   0  0  0  0  0  0  0  0  0  0  0  0
    1.6151    0.5840   -2.1585 H   0  0  0  0  0  0  0  0  0  0  0  0
    1.7902    1.9420    1.0267 H   0  0  0  0  0  0  0  0  0  0  0  0
    1.1323    0.6759   -0.0191 H   0  0  0  0  0  0  0  0  0  0  0  0
    1.7698    2.2081   -0.7215 H   0  0  0  0  0  0  0  0  0  0  0  0
    5.4892   -0.1871   -0.4713 H   0  0  0  0  0  0  0  0  0  0  0  0
    7.2062   -1.5232   -0.3658 H   0  0  0  0  0  0  0  0  0  0  0  0
    7.8058   -2.9177   -1.3112 H   0  0  0  0  0  0  0  0  0  0  0  0
    5.9648   -4.1807   -0.8648 H   0  0  0  0  0  0  0  0  0  0  0  0
    5.1107   -2.7159   -0.0280 H   0  0  0  0  0  0  0  0  0  0  0  0
    6.6676   -2.9427    1.7053 H   0  0  0  0  0  0  0  0  0  0  0  0
    7.4054   -4.3670    0.8612 H   0  0  0  0  0  0  0  0  0  0  0  0
    3.7083   -3.6201    1.9123 H   0  0  0  0  0  0  0  0  0  0  0  0
    4.8290   -3.5638    3.2989 H   0  0  0  0  0  0  0  0  0  0  0  0
    2.7272   -5.3347    3.2480 H   0  0  0  0  0  0  0  0  0  0  0  0
    4.2742   -5.7932    3.9679 H   0  0  0  0  0  0  0  0  0  0  0  0
    3.2540   -6.3962    1.1531 H   0  0  0  0  0  0  0  0  0  0  0  0
    4.0724   -7.5128    2.2777 H   0  0  0  0  0  0  0  0  0  0  0  0
    8.0900   -3.8223   -2.9859 H   0  0  0  0  0  0  0  0  0  0  0  0
    9.7227   -3.7663   -4.6671 H   0  0  0  0  0  0  0  0  0  0  0  0
   11.4300   -3.4799   -6.0084 H   0  0  0  0  0  0  0  0  0  0  0  0
   13.8618   -4.0135   -5.6720 H   0  0  0  0  0  0  0  0  0  0  0  0
   15.8032   -6.0391   -9.3614 H   0  0  0  0  0  0  0  0  0  0  0  0
   15.6053   -4.6909  -10.4905 H   0  0  0  0  0  0  0  0  0  0  0  0
   14.3095   -5.8980  -10.2922 H   0  0  0  0  0  0  0  0  0  0  0  0
   13.2596   -3.1348   -9.8493 H   0  0  0  0  0  0  0  0  0  0  0  0
    7.0752    0.2363   -3.9497 H   0  0  0  0  0  0  0  0  0  0  0  0
    4.2183   -1.4041   -4.3864 H   0  0  0  0  0  0  0  0  0  0  0  0
  1  2  1  0  0  0  0
  1 37  1  0  0  0  0
  1 38  1  0  0  0  0
  1 39  1  0  0  0  0
  2  3  1  0  0  0  0
  3  4  1  0  0  0  0
  3 36  2  0  0  0  0
  4  5  2  0  0  0  0
  4 40  1  0  0  0  0
  5  6  1  0  0  0  0
  5  8  1  0  0  0  0
  6  7  1  0  0  0  0
  7 41  1  0  0  0  0
  7 42  1  0  0  0  0
  7 43  1  0  0  0  0
  8  9  2  0  0  0  0
  8 44  1  0  0  0  0
  9 10  1  0  0  0  0
  9 36  1  0  0  0  0
 10 11  1  0  0  0  0
 10 20  1  0  0  0  0
 11 12  1  0  0  0  0
 11 45  1  0  0  0  0
 11 46  1  0  0  0  0
 12 13  1  0  0  0  0
 12 47  1  0  0  0  0
 12 48  1  0  0  0  0
 13 14  1  0  0  0  0
 13 49  1  0  0  0  0
 13 50  1  0  0  0  0
 14 15  1  0  0  0  0
 14 18  1  0  0  0  0
 15 16  1  0  0  0  0
 15 51  1  0  0  0  0
 15 52  1  0  0  0  0
 16 17  1  0  0  0  0
 16 53  1  0  0  0  0
 16 54  1  0  0  0  0
 17 18  1  0  0  0  0
 17 55  1  0  0  0  0
 17 56  1  0  0  0  0
 18 19  2  0  0  0  0
 20 21  1  0  0  0  0
 20 35  2  0  0  0  0
 21 22  2  0  0  0  0
 21 57  1  0  0  0  0
 22 23  1  0  0  0  0
 22 58  1  0  0  0  0
 23 24  1  0  0  0  0
 23 34  2  0  0  0  0
 24 25  2  0  0  0  0
 25 26  1  0  0  0  0
 25 59  1  0  0  0  0
 26 27  1  0  0  0  0
 26 33  2  0  0  0  0
 27 28  1  0  0  0  0
 27 32  2  0  0  0  0
 28 29  2  0  0  0  0
 28 60  1  0  0  0  0
 29 30  1  0  0  0  0
 30 31  1  0  0  0  0
 30 32  1  0  0  0  0
 31 61  1  0  0  0  0
 31 62  1  0  0  0  0
 31 63  1  0  0  0  0
 32 64  1  0  0  0  0
 33 34  1  0  0  0  0
 34 35  1  0  0  0  0
 35 65  1  0  0  0  0
 36 66  1  0  0  0  0
M  END
$$$$
