CHEMBL4071997
 OpenBabel04072215383D

 43 46  0  0  0  0  0  0  0  0999 V2000
   -0.9936    2.2377   -3.3973 C   0  0  0  0  0  0  0  0  0  0  0  0
   -1.2370    1.0532   -2.5295 C   0  0  0  0  0  0  0  0  0  0  0  0
   -1.6137   -0.0813   -3.1440 N   0  0  0  0  0  0  0  0  0  0  0  0
   -1.7971   -0.9430   -2.1370 N   0  0  0  0  0  0  0  0  0  0  0  0
   -1.5417   -0.4260   -0.9071 C   0  0  0  0  0  0  0  0  0  0  0  0
   -1.6655   -1.1096    0.2477 N   0  0  0  0  0  0  0  0  0  0  0  0
   -1.3481   -0.3712    1.3269 C   0  0  0  0  0  0  0  0  0  0  0  0
   -0.9312    0.9510    1.2984 C   0  0  0  0  0  0  0  0  0  0  0  0
   -0.8099    1.6407    0.0722 C   0  0  0  0  0  0  0  0  0  0  0  0
   -0.3411    3.0392    0.0331 C   0  0  0  0  0  0  0  0  0  0  0  0
    0.5816    3.4568   -0.9263 C   0  0  0  0  0  0  0  0  0  0  0  0
    0.9535    4.7967   -1.0577 C   0  0  0  0  0  0  0  0  0  0  0  0
    0.4975    5.7615   -0.1635 C   0  0  0  0  0  0  0  0  0  0  0  0
    0.8338    7.1346   -0.2839 N   0  0  0  0  0  0  0  0  0  0  0  0
    1.2959    7.7322   -1.4405 C   0  0  0  0  0  0  0  0  0  0  0  0
    1.4696    7.1721   -2.5138 O   0  0  0  0  0  0  0  0  0  0  0  0
    1.5255    9.0797   -1.2899 N   0  0  0  0  0  0  0  0  0  0  0  0
    2.0840    9.7784   -2.4270 C   0  0  0  0  0  0  0  0  0  0  0  0
    1.7636   11.2287   -2.3355 C   0  0  0  0  0  0  0  0  0  0  0  0
    0.6102   11.8654   -2.7526 C   0  0  0  0  0  0  0  0  0  0  0  0
    0.6848   13.2781   -2.5962 C   0  0  0  0  0  0  0  0  0  0  0  0
    1.8879   13.6718   -2.0550 C   0  0  0  0  0  0  0  0  0  0  0  0
    2.9122   12.3418   -1.7267 S   0  0  0  0  0  0  0  0  0  0  0  0
   -0.3170    5.3447    0.8918 C   0  0  0  0  0  0  0  0  0  0  0  0
   -0.7501    4.0069    0.9716 C   0  0  0  0  0  0  0  0  0  0  0  0
   -1.1453    0.8963   -1.0987 C   0  0  0  0  0  0  0  0  0  0  0  0
   -1.3218    2.0473   -4.4260 H   0  0  0  0  0  0  0  0  0  0  0  0
    0.0725    2.4683   -3.4636 H   0  0  0  0  0  0  0  0  0  0  0  0
   -1.5396    3.1124   -3.0346 H   0  0  0  0  0  0  0  0  0  0  0  0
   -2.0973   -1.8888   -2.3446 H   0  0  0  0  0  0  0  0  0  0  0  0
   -1.4379   -0.8963    2.2745 H   0  0  0  0  0  0  0  0  0  0  0  0
   -0.6812    1.4363    2.2369 H   0  0  0  0  0  0  0  0  0  0  0  0
    1.0293    2.7393   -1.6058 H   0  0  0  0  0  0  0  0  0  0  0  0
    1.6202    5.0441   -1.8772 H   0  0  0  0  0  0  0  0  0  0  0  0
    0.5100    7.7525    0.4446 H   0  0  0  0  0  0  0  0  0  0  0  0
    1.8175    9.3927   -0.3781 H   0  0  0  0  0  0  0  0  0  0  0  0
    1.6603    9.3769   -3.3575 H   0  0  0  0  0  0  0  0  0  0  0  0
    3.1611    9.5826   -2.4508 H   0  0  0  0  0  0  0  0  0  0  0  0
   -0.2372   11.3379   -3.1759 H   0  0  0  0  0  0  0  0  0  0  0  0
   -0.0995   13.9698   -2.8781 H   0  0  0  0  0  0  0  0  0  0  0  0
    2.2182   14.6784   -1.8389 H   0  0  0  0  0  0  0  0  0  0  0  0
   -0.6624    6.0503    1.6430 H   0  0  0  0  0  0  0  0  0  0  0  0
   -1.4258    3.7343    1.7811 H   0  0  0  0  0  0  0  0  0  0  0  0
  1  2  1  0  0  0  0
  1 27  1  0  0  0  0
  1 28  1  0  0  0  0
  1 29  1  0  0  0  0
  2  3  2  0  0  0  0
  2 26  1  0  0  0  0
  3  4  1  0  0  0  0
  4  5  1  0  0  0  0
  4 30  1  0  0  0  0
  5  6  1  0  0  0  0
  5 26  2  0  0  0  0
  6  7  2  0  0  0  0
  7  8  1  0  0  0  0
  7 31  1  0  0  0  0
  8  9  2  0  0  0  0
  8 32  1  0  0  0  0
  9 10  1  0  0  0  0
  9 26  1  0  0  0  0
 10 11  1  0  0  0  0
 10 25  2  0  0  0  0
 11 12  2  0  0  0  0
 11 33  1  0  0  0  0
 12 13  1  0  0  0  0
 12 34  1  0  0  0  0
 13 14  1  0  0  0  0
 13 24  2  0  0  0  0
 14 15  1  0  0  0  0
 14 35  1  0  0  0  0
 15 16  2  0  0  0  0
 15 17  1  0  0  0  0
 17 18  1  0  0  0  0
 17 36  1  0  0  0  0
 18 19  1  0  0  0  0
 18 37  1  0  0  0  0
 18 38  1  0  0  0  0
 19 20  2  0  0  0  0
 19 23  1  0  0  0  0
 20 21  1  0  0  0  0
 20 39  1  0  0  0  0
 21 22  2  0  0  0  0
 21 40  1  0  0  0  0
 22 23  1  0  0  0  0
 22 41  1  0  0  0  0
 24 25  1  0  0  0  0
 24 42  1  0  0  0  0
 25 43  1  0  0  0  0
M  END
$$$$
