CHEMBL192856
 OpenBabel04072215363D

 83 85  0  0  0  0  0  0  0  0999 V2000
    4.9903    1.1530    2.5765 C   0  0  0  0  0  0  0  0  0  0  0  0
    4.5154    1.5411    1.1811 C   0  0  0  0  0  0  0  0  0  0  0  0
    4.8005    0.5610    0.1198 N   0  0  0  0  0  0  0  0  0  0  0  0
    4.2796   -0.7902    0.4014 C   0  0  0  0  0  0  0  0  0  0  0  0
    2.7598   -0.9370    0.4643 C   0  0  0  0  0  0  0  0  0  0  0  0
    4.3514    1.0492   -1.1988 C   0  0  0  0  0  0  0  0  0  0  0  0
    4.9819    2.3766   -1.6595 C   0  0  0  0  0  0  0  0  0  0  0  0
    6.5072    2.3313   -1.7976 C   0  0  0  0  0  0  0  0  0  0  0  0
    7.0439    3.7001   -2.2283 C   0  0  0  0  0  0  0  0  0  0  0  0
    8.5607    3.7026   -2.4100 C   0  0  0  0  0  0  0  0  0  0  0  0
    8.9922    5.0613   -2.7446 N   0  0  0  0  0  0  0  0  0  0  0  0
   10.3784    5.1962   -2.9200 C   0  0  0  0  0  0  0  0  0  0  0  0
   10.9534    6.4414   -2.6792 C   0  0  0  0  0  0  0  0  0  0  0  0
   12.3329    6.5860   -2.6849 C   0  0  0  0  0  0  0  0  0  0  0  0
   12.9152    7.7469   -2.3139 N   0  0  0  0  0  0  0  0  0  0  0  0
   14.2700    7.8114   -2.2673 C   0  0  0  0  0  0  0  0  0  0  0  0
   14.7943    9.0165   -1.7809 N   0  0  0  0  0  0  0  0  0  0  0  0
   15.1131   10.1212   -2.5139 C   0  0  0  0  0  0  0  0  0  0  0  0
   15.5045   11.1300   -1.9208 O   0  0  0  0  0  0  0  0  0  0  0  0
   14.9610   10.0417   -3.8705 N   0  0  0  0  0  0  0  0  0  0  0  0
   15.2294   11.1524   -4.8140 C   0  0  0  0  0  0  0  0  0  0  0  0
   16.7263   11.4851   -4.8282 C   0  0  0  0  0  0  0  0  0  0  0  0
   14.8241   10.6989   -6.2295 C   0  0  0  0  0  0  0  0  0  0  0  0
   14.4236   12.4222   -4.4766 C   0  0  0  0  0  0  0  0  0  0  0  0
   15.1245    6.7304   -2.5577 C   0  0  0  0  0  0  0  0  0  0  0  0
   16.5953    6.7196   -2.3918 C   0  0  0  0  0  0  0  0  0  0  0  0
   17.2374    7.3667   -1.3231 C   0  0  0  0  0  0  0  0  0  0  0  0
   18.6307    7.3927   -1.2252 C   0  0  0  0  0  0  0  0  0  0  0  0
   19.3218    8.0667   -0.2534 O   0  0  0  0  0  0  0  0  0  0  0  0
   18.6890    9.2551    0.2210 C   0  0  0  0  0  0  0  0  0  0  0  0
   19.4095    6.6804   -2.1377 C   0  0  0  0  0  0  0  0  0  0  0  0
   18.7996    5.9698   -3.1652 C   0  0  0  0  0  0  0  0  0  0  0  0
   19.4216    5.2104   -4.1161 O   0  0  0  0  0  0  0  0  0  0  0  0
   20.8411    5.2369   -4.1267 C   0  0  0  0  0  0  0  0  0  0  0  0
   17.4098    6.0050   -3.2874 C   0  0  0  0  0  0  0  0  0  0  0  0
   14.4835    5.5530   -2.9828 C   0  0  0  0  0  0  0  0  0  0  0  0
   13.0919    5.4718   -3.0369 C   0  0  0  0  0  0  0  0  0  0  0  0
   12.4398    4.2950   -3.3868 C   0  0  0  0  0  0  0  0  0  0  0  0
   11.1062    4.1378   -3.3097 N   0  0  0  0  0  0  0  0  0  0  0  0
    4.9752    2.0388    3.2216 H   0  0  0  0  0  0  0  0  0  0  0  0
    6.0171    0.7740    2.5605 H   0  0  0  0  0  0  0  0  0  0  0  0
    4.3394    0.4018    3.0328 H   0  0  0  0  0  0  0  0  0  0  0  0
    5.0449    2.4710    0.9525 H   0  0  0  0  0  0  0  0  0  0  0  0
    3.4477    1.7859    1.2164 H   0  0  0  0  0  0  0  0  0  0  0  0
    4.7095   -1.1591    1.3398 H   0  0  0  0  0  0  0  0  0  0  0  0
    4.6603   -1.4847   -0.3599 H   0  0  0  0  0  0  0  0  0  0  0  0
    2.2865   -0.1381    1.0412 H   0  0  0  0  0  0  0  0  0  0  0  0
    2.4962   -1.8848    0.9459 H   0  0  0  0  0  0  0  0  0  0  0  0
    2.3221   -0.9438   -0.5392 H   0  0  0  0  0  0  0  0  0  0  0  0
    3.2621    1.1830   -1.1990 H   0  0  0  0  0  0  0  0  0  0  0  0
    4.5772    0.2930   -1.9619 H   0  0  0  0  0  0  0  0  0  0  0  0
    4.6950    3.1897   -0.9824 H   0  0  0  0  0  0  0  0  0  0  0  0
    4.5444    2.6421   -2.6299 H   0  0  0  0  0  0  0  0  0  0  0  0
    6.7856    1.5722   -2.5381 H   0  0  0  0  0  0  0  0  0  0  0  0
    6.9696    2.0437   -0.8462 H   0  0  0  0  0  0  0  0  0  0  0  0
    6.7654    4.4526   -1.4792 H   0  0  0  0  0  0  0  0  0  0  0  0
    6.5674    4.0032   -3.1695 H   0  0  0  0  0  0  0  0  0  0  0  0
    8.8406    2.9824   -3.1873 H   0  0  0  0  0  0  0  0  0  0  0  0
    9.0351    3.3962   -1.4667 H   0  0  0  0  0  0  0  0  0  0  0  0
    8.5261    5.4370   -3.5659 H   0  0  0  0  0  0  0  0  0  0  0  0
   10.3293    7.2794   -2.3924 H   0  0  0  0  0  0  0  0  0  0  0  0
   14.4197    9.3078   -0.8877 H   0  0  0  0  0  0  0  0  0  0  0  0
   14.3356    9.3204   -4.1880 H   0  0  0  0  0  0  0  0  0  0  0  0
   17.3258   10.5828   -4.9983 H   0  0  0  0  0  0  0  0  0  0  0  0
   17.0549   11.9247   -3.8805 H   0  0  0  0  0  0  0  0  0  0  0  0
   16.9631   12.2012   -5.6227 H   0  0  0  0  0  0  0  0  0  0  0  0
   15.4096    9.8316   -6.5521 H   0  0  0  0  0  0  0  0  0  0  0  0
   14.9824   11.5004   -6.9617 H   0  0  0  0  0  0  0  0  0  0  0  0
   13.7657   10.4167   -6.2717 H   0  0  0  0  0  0  0  0  0  0  0  0
   14.6934   12.8384   -3.5012 H   0  0  0  0  0  0  0  0  0  0  0  0
   13.3466   12.2230   -4.4643 H   0  0  0  0  0  0  0  0  0  0  0  0
   14.6103   13.2089   -5.2178 H   0  0  0  0  0  0  0  0  0  0  0  0
   16.6459    7.8492   -0.5513 H   0  0  0  0  0  0  0  0  0  0  0  0
   19.4648    9.8949    0.6520 H   0  0  0  0  0  0  0  0  0  0  0  0
   17.9714    9.0141    1.0117 H   0  0  0  0  0  0  0  0  0  0  0  0
   18.2057    9.8197   -0.5849 H   0  0  0  0  0  0  0  0  0  0  0  0
   20.4870    6.7094   -2.0222 H   0  0  0  0  0  0  0  0  0  0  0  0
   21.1775    4.5913   -4.9434 H   0  0  0  0  0  0  0  0  0  0  0  0
   21.2521    4.8370   -3.1945 H   0  0  0  0  0  0  0  0  0  0  0  0
   21.2099    6.2485   -4.3241 H   0  0  0  0  0  0  0  0  0  0  0  0
   16.9700    5.4521   -4.1157 H   0  0  0  0  0  0  0  0  0  0  0  0
   15.0666    4.6670   -3.2177 H   0  0  0  0  0  0  0  0  0  0  0  0
   12.9841    3.4144   -3.7079 H   0  0  0  0  0  0  0  0  0  0  0  0
  1  2  1  0  0  0  0
  1 40  1  0  0  0  0
  1 41  1  0  0  0  0
  1 42  1  0  0  0  0
  2  3  1  0  0  0  0
  2 43  1  0  0  0  0
  2 44  1  0  0  0  0
  3  4  1  0  0  0  0
  3  6  1  0  0  0  0
  4  5  1  0  0  0  0
  4 45  1  0  0  0  0
  4 46  1  0  0  0  0
  5 47  1  0  0  0  0
  5 48  1  0  0  0  0
  5 49  1  0  0  0  0
  6  7  1  0  0  0  0
  6 50  1  0  0  0  0
  6 51  1  0  0  0  0
  7  8  1  0  0  0  0
  7 52  1  0  0  0  0
  7 53  1  0  0  0  0
  8  9  1  0  0  0  0
  8 54  1  0  0  0  0
  8 55  1  0  0  0  0
  9 10  1  0  0  0  0
  9 56  1  0  0  0  0
  9 57  1  0  0  0  0
 10 11  1  0  0  0  0
 10 58  1  0  0  0  0
 10 59  1  0  0  0  0
 11 12  1  0  0  0  0
 11 60  1  0  0  0  0
 12 13  1  0  0  0  0
 12 39  2  0  0  0  0
 13 14  2  0  0  0  0
 13 61  1  0  0  0  0
 14 15  1  0  0  0  0
 14 37  1  0  0  0  0
 15 16  2  0  0  0  0
 16 17  1  0  0  0  0
 16 25  1  0  0  0  0
 17 18  1  0  0  0  0
 17 62  1  0  0  0  0
 18 19  2  0  0  0  0
 18 20  1  0  0  0  0
 20 21  1  0  0  0  0
 20 63  1  0  0  0  0
 21 22  1  0  0  0  0
 21 23  1  0  0  0  0
 21 24  1  0  0  0  0
 22 64  1  0  0  0  0
 22 65  1  0  0  0  0
 22 66  1  0  0  0  0
 23 67  1  0  0  0  0
 23 68  1  0  0  0  0
 23 69  1  0  0  0  0
 24 70  1  0  0  0  0
 24 71  1  0  0  0  0
 24 72  1  0  0  0  0
 25 26  1  0  0  0  0
 25 36  2  0  0  0  0
 26 27  1  0  0  0  0
 26 35  2  0  0  0  0
 27 28  2  0  0  0  0
 27 73  1  0  0  0  0
 28 29  1  0  0  0  0
 28 31  1  0  0  0  0
 29 30  1  0  0  0  0
 30 74  1  0  0  0  0
 30 75  1  0  0  0  0
 30 76  1  0  0  0  0
 31 32  2  0  0  0  0
 31 77  1  0  0  0  0
 32 33  1  0  0  0  0
 32 35  1  0  0  0  0
 33 34  1  0  0  0  0
 34 78  1  0  0  0  0
 34 79  1  0  0  0  0
 34 80  1  0  0  0  0
 35 81  1  0  0  0  0
 36 37  1  0  0  0  0
 36 82  1  0  0  0  0
 37 38  2  0  0  0  0
 38 39  1  0  0  0  0
 38 83  1  0  0  0  0
M  END
$$$$
