CHEMBL3671526
 OpenBabel04072215373D

 62 64  0  0  0  0  0  0  0  0999 V2000
    4.6967   -1.4640   -1.9338 C   0  0  0  0  0  0  0  0  0  0  0  0
    4.1936   -0.5881   -1.0509 C   0  0  0  0  0  0  0  0  0  0  0  0
    5.0097   -0.1936    0.1308 C   0  0  0  0  0  0  0  0  0  0  0  0
    6.1121   -0.6884    0.3349 O   0  0  0  0  0  0  0  0  0  0  0  0
    4.4094    0.7500    0.9469 N   0  0  0  0  0  0  0  0  0  0  0  0
    5.1492    1.4566    1.9254 C   0  0  0  0  0  0  0  0  0  0  0  0
    6.3824    2.0184    1.5395 C   0  0  0  0  0  0  0  0  0  0  0  0
    7.1209    2.8653    2.4000 C   0  0  0  0  0  0  0  0  0  0  0  0
    8.2645    3.6147    2.0555 C   0  0  0  0  0  0  0  0  0  0  0  0
    8.6780    3.7011    0.6960 N   0  0  0  0  0  0  0  0  0  0  0  0
    9.5088    4.7197    0.1677 C   0  0  0  0  0  0  0  0  0  0  0  0
    9.2904    6.0599    0.5193 C   0  0  0  0  0  0  0  0  0  0  0  0
   10.1729    7.0674    0.1240 C   0  0  0  0  0  0  0  0  0  0  0  0
   11.2887    6.7444   -0.6423 C   0  0  0  0  0  0  0  0  0  0  0  0
   12.5507    8.0897   -1.0568 Br  0  0  0  0  0  0  0  0  0  0  0  0
   11.4962    5.4343   -1.0655 C   0  0  0  0  0  0  0  0  0  0  0  0
   10.6027    4.4365   -0.6640 C   0  0  0  0  0  0  0  0  0  0  0  0
   10.8295    3.1755   -1.0617 F   0  0  0  0  0  0  0  0  0  0  0  0
    8.9235    4.3559    2.9726 N   0  0  0  0  0  0  0  0  0  0  0  0
    8.4325    4.3715    4.2126 C   0  0  0  0  0  0  0  0  0  0  0  0
    7.3180    3.7629    4.6215 N   0  0  0  0  0  0  0  0  0  0  0  0
    6.6710    3.0315    3.7119 C   0  0  0  0  0  0  0  0  0  0  0  0
    5.4782    2.4331    4.0948 C   0  0  0  0  0  0  0  0  0  0  0  0
    4.6620    1.7003    3.2167 C   0  0  0  0  0  0  0  0  0  0  0  0
    3.4412    1.1670    3.6116 O   0  0  0  0  0  0  0  0  0  0  0  0
    2.9055    1.7885    4.8014 C   0  0  0  0  0  0  0  0  0  0  0  0
    1.4219    1.5069    5.0456 C   0  0  0  0  0  0  0  0  0  0  0  0
    0.8928    2.3443    6.1318 N   0  0  0  0  0  0  0  0  0  0  0  0
    0.4711    3.6233    5.8777 C   0  0  0  0  0  0  0  0  0  0  0  0
    0.4807    4.1202    4.7450 O   0  0  0  0  0  0  0  0  0  0  0  0
    0.0034    4.3835    7.0700 C   0  0  0  0  0  0  0  0  0  0  0  0
   -0.5366    5.6045    6.8868 C   0  0  0  0  0  0  0  0  0  0  0  0
   -1.1453    6.4727    7.9475 C   0  0  0  0  0  0  0  0  0  0  0  0
   -2.5583    6.7755    7.6649 N   0  0  0  0  0  0  0  0  0  0  0  0
   -3.3889    5.5691    7.6314 C   0  0  0  0  0  0  0  0  0  0  0  0
   -3.0926    7.7087    8.6597 C   0  0  0  0  0  0  0  0  0  0  0  0
    4.1624   -1.7285   -2.8419 H   0  0  0  0  0  0  0  0  0  0  0  0
    5.6749   -1.9208   -1.7771 H   0  0  0  0  0  0  0  0  0  0  0  0
    3.2434   -0.1054   -1.2209 H   0  0  0  0  0  0  0  0  0  0  0  0
    3.4025    0.8206    0.9756 H   0  0  0  0  0  0  0  0  0  0  0  0
    6.7567    1.8404    0.5333 H   0  0  0  0  0  0  0  0  0  0  0  0
    8.8274    2.7894    0.2755 H   0  0  0  0  0  0  0  0  0  0  0  0
    8.4334    6.3204    1.1358 H   0  0  0  0  0  0  0  0  0  0  0  0
    9.9910    8.0876    0.4507 H   0  0  0  0  0  0  0  0  0  0  0  0
   12.3555    5.1720   -1.6748 H   0  0  0  0  0  0  0  0  0  0  0  0
    8.9840    4.9364    4.9574 H   0  0  0  0  0  0  0  0  0  0  0  0
    5.1976    2.5802    5.1339 H   0  0  0  0  0  0  0  0  0  0  0  0
    3.0165    2.8743    4.7067 H   0  0  0  0  0  0  0  0  0  0  0  0
    3.4561    1.4384    5.6858 H   0  0  0  0  0  0  0  0  0  0  0  0
    1.2573    0.4605    5.3209 H   0  0  0  0  0  0  0  0  0  0  0  0
    0.8497    1.6992    4.1309 H   0  0  0  0  0  0  0  0  0  0  0  0
    0.9594    2.0120    7.0805 H   0  0  0  0  0  0  0  0  0  0  0  0
    0.0652    3.9254    8.0473 H   0  0  0  0  0  0  0  0  0  0  0  0
   -0.5874    6.0177    5.8795 H   0  0  0  0  0  0  0  0  0  0  0  0
   -0.5800    7.4133    7.9497 H   0  0  0  0  0  0  0  0  0  0  0  0
   -1.0285    6.0276    8.9446 H   0  0  0  0  0  0  0  0  0  0  0  0
   -3.0747    4.8885    6.8335 H   0  0  0  0  0  0  0  0  0  0  0  0
   -4.4301    5.8280    7.4079 H   0  0  0  0  0  0  0  0  0  0  0  0
   -3.3640    5.0256    8.5825 H   0  0  0  0  0  0  0  0  0  0  0  0
   -2.5252    8.6455    8.6683 H   0  0  0  0  0  0  0  0  0  0  0  0
   -3.0812    7.2850    9.6711 H   0  0  0  0  0  0  0  0  0  0  0  0
   -4.1276    7.9757    8.4163 H   0  0  0  0  0  0  0  0  0  0  0  0
  1  2  2  0  0  0  0
  1 37  1  0  0  0  0
  1 38  1  0  0  0  0
  2  3  1  0  0  0  0
  2 39  1  0  0  0  0
  3  4  2  0  0  0  0
  3  5  1  0  0  0  0
  5  6  1  0  0  0  0
  5 40  1  0  0  0  0
  6  7  1  0  0  0  0
  6 24  2  0  0  0  0
  7  8  2  0  0  0  0
  7 41  1  0  0  0  0
  8  9  1  0  0  0  0
  8 22  1  0  0  0  0
  9 10  1  0  0  0  0
  9 19  2  0  0  0  0
 10 11  1  0  0  0  0
 10 42  1  0  0  0  0
 11 12  1  0  0  0  0
 11 17  2  0  0  0  0
 12 13  2  0  0  0  0
 12 43  1  0  0  0  0
 13 14  1  0  0  0  0
 13 44  1  0  0  0  0
 14 15  1  0  0  0  0
 14 16  2  0  0  0  0
 16 17  1  0  0  0  0
 16 45  1  0  0  0  0
 17 18  1  0  0  0  0
 19 20  1  0  0  0  0
 20 21  2  0  0  0  0
 20 46  1  0  0  0  0
 21 22  1  0  0  0  0
 22 23  2  0  0  0  0
 23 24  1  0  0  0  0
 23 47  1  0  0  0  0
 24 25  1  0  0  0  0
 25 26  1  0  0  0  0
 26 27  1  0  0  0  0
 26 48  1  0  0  0  0
 26 49  1  0  0  0  0
 27 28  1  0  0  0  0
 27 50  1  0  0  0  0
 27 51  1  0  0  0  0
 28 29  1  0  0  0  0
 28 52  1  0  0  0  0
 29 30  2  0  0  0  0
 29 31  1  0  0  0  0
 31 32  2  0  0  0  0
 31 53  1  0  0  0  0
 32 33  1  0  0  0  0
 32 54  1  0  0  0  0
 33 34  1  0  0  0  0
 33 55  1  0  0  0  0
 33 56  1  0  0  0  0
 34 35  1  0  0  0  0
 34 36  1  0  0  0  0
 35 57  1  0  0  0  0
 35 58  1  0  0  0  0
 35 59  1  0  0  0  0
 36 60  1  0  0  0  0
 36 61  1  0  0  0  0
 36 62  1  0  0  0  0
M  END
$$$$
