CHEMBL504075
 OpenBabel04072215383D

 45 47  0  0  1  0  0  0  0  0999 V2000
   -9.0213   -0.6553  -11.3071 C   0  0  0  0  0  0  0  0  0  0  0  0
   -8.2832   -0.5106  -10.0090 C   0  0  0  0  0  0  0  0  0  0  0  0
   -7.9803    0.7448   -9.4753 C   0  0  0  0  0  0  0  0  0  0  0  0
   -7.2768    0.8518   -8.2702 C   0  0  0  0  0  0  0  0  0  0  0  0
   -6.8665   -0.2939   -7.5823 C   0  0  0  0  0  0  0  0  0  0  0  0
   -7.1629   -1.5559   -8.1038 C   0  0  0  0  0  0  0  0  0  0  0  0
   -6.6823   -2.8162   -7.4838 C   0  0  0  0  0  0  0  0  0  0  0  0
   -6.4210   -3.7428   -8.2432 O   0  0  0  0  0  0  0  0  0  0  0  0
   -6.6348   -2.8612   -6.0952 N   0  0  0  0  0  0  0  0  0  0  0  0
   -6.2519   -3.9977   -5.3379 C   0  0  0  0  0  0  0  0  0  0  0  0
   -5.5455   -5.0695   -5.8897 C   0  0  0  0  0  0  0  0  0  0  0  0
   -5.2680   -6.2103   -5.1388 C   0  0  0  0  0  0  0  0  0  0  0  0
   -5.7187   -6.3068   -3.8280 C   0  0  0  0  0  0  0  0  0  0  0  0
   -6.4144   -5.2429   -3.2339 C   0  0  0  0  0  0  0  0  0  0  0  0
   -6.9952   -5.4276   -1.8381 C   0  0  2  0  0  0  0  0  0  0  0  0
   -8.5215   -5.2788   -1.9010 C   0  0  0  0  0  0  0  0  0  0  0  0
   -6.4351   -4.4578   -0.9044 N   0  0  0  0  0  0  0  0  0  0  0  0
   -5.3224   -4.7694   -0.1374 C   0  0  0  0  0  0  0  0  0  0  0  0
   -4.2513   -5.5644   -0.5613 C   0  0  0  0  0  0  0  0  0  0  0  0
   -3.1444   -5.8206    0.1865 N   0  0  0  0  0  0  0  0  0  0  0  0
   -3.1261   -5.2106    1.3902 C   0  0  0  0  0  0  0  0  0  0  0  0
   -4.1716   -4.4128    1.8181 C   0  0  0  0  0  0  0  0  0  0  0  0
   -4.1287   -3.6249    3.3387 Cl  0  0  0  0  0  0  0  0  0  0  0  0
   -5.2845   -4.1857    1.0794 N   0  0  0  0  0  0  0  0  0  0  0  0
   -6.6315   -4.0688   -3.9893 C   0  0  0  0  0  0  0  0  0  0  0  0
   -7.8707   -1.6543   -9.3161 C   0  0  0  0  0  0  0  0  0  0  0  0
   -9.2419    0.3182  -11.7565 H   0  0  0  0  0  0  0  0  0  0  0  0
   -9.9706   -1.1756  -11.1445 H   0  0  0  0  0  0  0  0  0  0  0  0
   -8.4189   -1.2251  -12.0223 H   0  0  0  0  0  0  0  0  0  0  0  0
   -8.2748    1.6508  -10.0024 H   0  0  0  0  0  0  0  0  0  0  0  0
   -7.0291    1.8365   -7.8819 H   0  0  0  0  0  0  0  0  0  0  0  0
   -6.2798   -0.1858   -6.6747 H   0  0  0  0  0  0  0  0  0  0  0  0
   -7.0761   -2.1055   -5.5879 H   0  0  0  0  0  0  0  0  0  0  0  0
   -5.1921   -5.0490   -6.9159 H   0  0  0  0  0  0  0  0  0  0  0  0
   -4.7245   -7.0336   -5.5947 H   0  0  0  0  0  0  0  0  0  0  0  0
   -5.5311   -7.2273   -3.2800 H   0  0  0  0  0  0  0  0  0  0  0  0
   -6.8006   -6.4490   -1.4831 H   0  0  0  0  0  0  0  0  0  0  0  0
   -8.8271   -4.2647   -2.1833 H   0  0  0  0  0  0  0  0  0  0  0  0
   -8.9762   -5.4960   -0.9291 H   0  0  0  0  0  0  0  0  0  0  0  0
   -8.9492   -5.9707   -2.6368 H   0  0  0  0  0  0  0  0  0  0  0  0
   -7.1041   -4.0072   -0.2840 H   0  0  0  0  0  0  0  0  0  0  0  0
   -4.2358   -6.0274   -1.5381 H   0  0  0  0  0  0  0  0  0  0  0  0
   -2.2422   -5.3769    1.9945 H   0  0  0  0  0  0  0  0  0  0  0  0
   -7.1575   -3.2358   -3.5278 H   0  0  0  0  0  0  0  0  0  0  0  0
   -8.0846   -2.6396   -9.7298 H   0  0  0  0  0  0  0  0  0  0  0  0
  1  2  1  0  0  0  0
  1 27  1  0  0  0  0
  1 28  1  0  0  0  0
  1 29  1  0  0  0  0
  2  3  1  0  0  0  0
  2 26  2  0  0  0  0
  3  4  2  0  0  0  0
  3 30  1  0  0  0  0
  4  5  1  0  0  0  0
  4 31  1  0  0  0  0
  5  6  2  0  0  0  0
  5 32  1  0  0  0  0
  6  7  1  0  0  0  0
  6 26  1  0  0  0  0
  7  8  2  0  0  0  0
  7  9  1  0  0  0  0
  9 10  1  0  0  0  0
  9 33  1  0  0  0  0
 10 11  1  0  0  0  0
 10 25  2  0  0  0  0
 11 12  2  0  0  0  0
 11 34  1  0  0  0  0
 12 13  1  0  0  0  0
 12 35  1  0  0  0  0
 13 14  2  0  0  0  0
 13 36  1  0  0  0  0
 14 25  1  0  0  0  0
 15 17  1  0  0  0  0
 15 16  1  0  0  0  0
 15 14  1  0  0  0  0
 15 37  1  1  0  0  0
 16 38  1  0  0  0  0
 16 39  1  0  0  0  0
 16 40  1  0  0  0  0
 17 18  1  0  0  0  0
 17 41  1  0  0  0  0
 18 19  1  0  0  0  0
 18 24  2  0  0  0  0
 19 20  2  0  0  0  0
 19 42  1  0  0  0  0
 20 21  1  0  0  0  0
 21 22  2  0  0  0  0
 21 43  1  0  0  0  0
 22 23  1  0  0  0  0
 22 24  1  0  0  0  0
 25 44  1  0  0  0  0
 26 45  1  0  0  0  0
M  END
$$$$
