CHEMBL1242848
 OpenBabel04072215363D

 37 39  0  0  0  0  0  0  0  0999 V2000
    1.2821    0.9340    0.4914 C   0  0  0  0  0  0  0  0  0  0  0  0
    2.4109   -0.0493    0.1823 C   0  0  0  0  0  0  0  0  0  0  0  0
    3.5752    0.6463   -0.5225 C   0  0  0  0  0  0  0  0  0  0  0  0
    2.8465   -0.7563    1.3837 N   0  0  0  0  0  0  0  0  0  0  0  0
    3.3863   -0.0739    2.4158 N   0  0  0  0  0  0  0  0  0  0  0  0
    3.6635   -1.0169    3.3375 C   0  0  0  0  0  0  0  0  0  0  0  0
    4.3334   -0.6392    4.5889 C   0  0  0  0  0  0  0  0  0  0  0  0
    5.2650   -1.4946    5.1950 C   0  0  0  0  0  0  0  0  0  0  0  0
    5.9028   -1.1435    6.3918 C   0  0  0  0  0  0  0  0  0  0  0  0
    5.6276    0.0747    7.0061 C   0  0  0  0  0  0  0  0  0  0  0  0
    6.3494    0.4836    8.1443 N   0  0  0  0  0  0  0  0  0  0  0  0
    4.7817    0.9683    6.3381 C   0  0  0  0  0  0  0  0  0  0  0  0
    4.6420    2.2460    6.8105 O   0  0  0  0  0  0  0  0  0  0  0  0
    4.1094    0.6160    5.1696 C   0  0  0  0  0  0  0  0  0  0  0  0
    3.2344   -2.3116    2.8941 C   0  0  0  0  0  0  0  0  0  0  0  0
    3.1804   -3.6335    3.3620 C   0  0  0  0  0  0  0  0  0  0  0  0
    3.5526   -4.0566    4.6311 N   0  0  0  0  0  0  0  0  0  0  0  0
    2.7095   -4.5961    2.5414 N   0  0  0  0  0  0  0  0  0  0  0  0
    2.2934   -4.2490    1.3094 C   0  0  0  0  0  0  0  0  0  0  0  0
    2.2613   -3.0261    0.7677 N   0  0  0  0  0  0  0  0  0  0  0  0
    2.7447   -2.1000    1.6158 C   0  0  0  0  0  0  0  0  0  0  0  0
    0.9157    1.4040   -0.4276 H   0  0  0  0  0  0  0  0  0  0  0  0
    1.6133    1.7295    1.1678 H   0  0  0  0  0  0  0  0  0  0  0  0
    0.4389    0.4215    0.9673 H   0  0  0  0  0  0  0  0  0  0  0  0
    2.0133   -0.8065   -0.5044 H   0  0  0  0  0  0  0  0  0  0  0  0
    4.0158    1.4318    0.1010 H   0  0  0  0  0  0  0  0  0  0  0  0
    3.2396    1.1087   -1.4575 H   0  0  0  0  0  0  0  0  0  0  0  0
    4.3675   -0.0694   -0.7678 H   0  0  0  0  0  0  0  0  0  0  0  0
    5.5339   -2.4413    4.7318 H   0  0  0  0  0  0  0  0  0  0  0  0
    6.6145   -1.8373    6.8299 H   0  0  0  0  0  0  0  0  0  0  0  0
    6.7550   -0.3017    8.6480 H   0  0  0  0  0  0  0  0  0  0  0  0
    5.7812    1.0481    8.7723 H   0  0  0  0  0  0  0  0  0  0  0  0
    5.4795    2.4221    7.2788 H   0  0  0  0  0  0  0  0  0  0  0  0
    3.4518    1.3393    4.6927 H   0  0  0  0  0  0  0  0  0  0  0  0
    3.3805   -3.3844    5.3683 H   0  0  0  0  0  0  0  0  0  0  0  0
    3.2009   -4.9925    4.8044 H   0  0  0  0  0  0  0  0  0  0  0  0
    1.9394   -5.0610    0.6818 H   0  0  0  0  0  0  0  0  0  0  0  0
  1  2  1  0  0  0  0
  1 22  1  0  0  0  0
  1 23  1  0  0  0  0
  1 24  1  0  0  0  0
  2  3  1  0  0  0  0
  2  4  1  0  0  0  0
  2 25  1  0  0  0  0
  3 26  1  0  0  0  0
  3 27  1  0  0  0  0
  3 28  1  0  0  0  0
  4  5  1  0  0  0  0
  4 21  1  0  0  0  0
  5  6  2  0  0  0  0
  6  7  1  0  0  0  0
  6 15  1  0  0  0  0
  7  8  1  0  0  0  0
  7 14  2  0  0  0  0
  8  9  2  0  0  0  0
  8 29  1  0  0  0  0
  9 10  1  0  0  0  0
  9 30  1  0  0  0  0
 10 11  1  0  0  0  0
 10 12  2  0  0  0  0
 11 31  1  0  0  0  0
 11 32  1  0  0  0  0
 12 13  1  0  0  0  0
 12 14  1  0  0  0  0
 13 33  1  0  0  0  0
 14 34  1  0  0  0  0
 15 16  1  0  0  0  0
 15 21  2  0  0  0  0
 16 17  1  0  0  0  0
 16 18  2  0  0  0  0
 17 35  1  0  0  0  0
 17 36  1  0  0  0  0
 18 19  1  0  0  0  0
 19 20  2  0  0  0  0
 19 37  1  0  0  0  0
 20 21  1  0  0  0  0
M  END
$$$$
