CHEMBL3914615
 OpenBabel04072215373D

 66 69  0  0  0  0  0  0  0  0999 V2000
    1.1583   -3.8237    3.5662 C   0  0  0  0  0  0  0  0  0  0  0  0
    2.4972   -3.4692    3.5550 O   0  0  0  0  0  0  0  0  0  0  0  0
    3.1796   -2.7859    2.5889 C   0  0  0  0  0  0  0  0  0  0  0  0
    2.5582   -2.3025    1.4110 C   0  0  0  0  0  0  0  0  0  0  0  0
    3.2910   -1.5462    0.4800 C   0  0  0  0  0  0  0  0  0  0  0  0
    2.6754   -1.0480   -0.6321 O   0  0  0  0  0  0  0  0  0  0  0  0
    3.2699   -0.2047   -1.5615 C   0  0  0  0  0  0  0  0  0  0  0  0
    4.6467   -1.3004    0.7269 C   0  0  0  0  0  0  0  0  0  0  0  0
    5.3012   -1.7650    1.8749 C   0  0  0  0  0  0  0  0  0  0  0  0
    6.6708   -1.3590    2.0988 N   0  0  0  0  0  0  0  0  0  0  0  0
    6.9996    0.1137    1.8273 C   0  0  0  0  0  0  0  0  0  0  0  0
    5.9120    1.2672    1.7870 C   0  0  0  0  0  0  0  0  0  0  0  0
    5.0352    1.5856    3.0363 C   0  0  0  0  0  0  0  0  0  0  0  0
    4.1089    2.7202    2.7518 N   0  0  0  0  0  0  0  0  0  0  0  0
    3.2806    3.1623    3.9002 C   0  0  0  0  0  0  0  0  0  0  0  0
    1.8711    3.4630    3.3530 C   0  0  0  0  0  0  0  0  0  0  0  0
    2.0734    3.5002    1.8573 C   0  0  0  0  0  0  0  0  0  0  0  0
    0.9203    3.2032    1.1487 F   0  0  0  0  0  0  0  0  0  0  0  0
    2.5607    4.7373    1.4704 F   0  0  0  0  0  0  0  0  0  0  0  0
    3.1472    2.4512    1.6767 C   0  0  0  0  0  0  0  0  0  0  0  0
    7.6490   -2.0915    2.9395 C   0  0  0  0  0  0  0  0  0  0  0  0
    8.0455   -1.3136    4.0054 C   0  0  0  0  0  0  0  0  0  0  0  0
    9.1028   -1.5838    4.7316 C   0  0  0  0  0  0  0  0  0  0  0  0
    9.8340   -2.6853    4.5464 C   0  0  0  0  0  0  0  0  0  0  0  0
   10.8968   -2.6528    5.3058 N   0  0  0  0  0  0  0  0  0  0  0  0
   11.7520   -3.6238    5.3631 C   0  0  0  0  0  0  0  0  0  0  0  0
   11.5819   -4.7936    4.6879 C   0  0  0  0  0  0  0  0  0  0  0  0
   12.7534   -5.7308    5.2185 C   0  0  0  0  0  0  0  0  0  0  0  0
   13.2710   -5.5304    6.5431 C   0  0  0  0  0  0  0  0  0  0  0  0
   14.3496   -6.2578    6.7697 N   0  0  0  0  0  0  0  0  0  0  0  0
   14.5695   -6.9864    5.7036 N   0  0  0  0  0  0  0  0  0  0  0  0
   13.6004   -6.7591    4.7679 C   0  0  0  0  0  0  0  0  0  0  0  0
   10.4845   -4.8420    3.7374 N   0  0  0  0  0  0  0  0  0  0  0  0
    9.5625   -3.7259    3.6471 C   0  0  0  0  0  0  0  0  0  0  0  0
    8.3737   -3.4142    2.7558 C   0  0  0  0  0  0  0  0  0  0  0  0
    4.5537   -2.5209    2.8035 C   0  0  0  0  0  0  0  0  0  0  0  0
    0.1995   -0.1570    2.3819 Cl  0  0  0  0  0  0  0  0  0  0  0  0
    0.9230   -4.3006    4.5436 H   0  0  0  0  0  0  0  0  0  0  0  0
    0.9356   -4.5577    2.7642 H   0  0  0  0  0  0  0  0  0  0  0  0
    0.4998   -2.9338    3.4677 H   0  0  0  0  0  0  0  0  0  0  0  0
    1.5078   -2.4904    1.2231 H   0  0  0  0  0  0  0  0  0  0  0  0
    2.5548    0.0363   -2.3726 H   0  0  0  0  0  0  0  0  0  0  0  0
    4.1573   -0.6937   -2.0184 H   0  0  0  0  0  0  0  0  0  0  0  0
    3.5846    0.7503   -1.0824 H   0  0  0  0  0  0  0  0  0  0  0  0
    5.2158   -0.7294    0.0141 H   0  0  0  0  0  0  0  0  0  0  0  0
    7.5870    0.1602    0.8926 H   0  0  0  0  0  0  0  0  0  0  0  0
    7.7242    0.5481    2.5350 H   0  0  0  0  0  0  0  0  0  0  0  0
    5.2691    1.1489    0.9123 H   0  0  0  0  0  0  0  0  0  0  0  0
    6.4679    2.2149    1.5843 H   0  0  0  0  0  0  0  0  0  0  0  0
    5.7017    1.8779    3.8808 H   0  0  0  0  0  0  0  0  0  0  0  0
    4.4538    0.6939    3.3432 H   0  0  0  0  0  0  0  0  0  0  0  0
    3.7296    4.0830    4.3309 H   0  0  0  0  0  0  0  0  0  0  0  0
    3.1937    2.3951    4.7027 H   0  0  0  0  0  0  0  0  0  0  0  0
    1.3786    4.3735    3.7657 H   0  0  0  0  0  0  0  0  0  0  0  0
    1.2272    2.5843    3.5753 H   0  0  0  0  0  0  0  0  0  0  0  0
    3.5987    2.5451    0.6682 H   0  0  0  0  0  0  0  0  0  0  0  0
    2.7134    1.4353    1.8145 H   0  0  0  0  0  0  0  0  0  0  0  0
    7.5698   -0.4020    4.2747 H   0  0  0  0  0  0  0  0  0  0  0  0
    9.4080   -0.8667    5.4748 H   0  0  0  0  0  0  0  0  0  0  0  0
   12.5769   -3.3552    5.9810 H   0  0  0  0  0  0  0  0  0  0  0  0
   12.9147   -4.8377    7.2982 H   0  0  0  0  0  0  0  0  0  0  0  0
   15.3970   -7.6176    5.6539 H   0  0  0  0  0  0  0  0  0  0  0  0
   13.6387   -7.2503    3.7995 H   0  0  0  0  0  0  0  0  0  0  0  0
    8.0770   -4.0888    1.9450 H   0  0  0  0  0  0  0  0  0  0  0  0
    5.0149   -2.8606    3.7199 H   0  0  0  0  0  0  0  0  0  0  0  0
    0.7061   -0.1674    1.1022 H   0  0  0  0  0  0  0  0  0  0  0  0
  1  2  1  0  0  0  0
  1 38  1  0  0  0  0
  1 39  1  0  0  0  0
  1 40  1  0  0  0  0
  2  3  1  0  0  0  0
  3  4  1  0  0  0  0
  3 36  2  0  0  0  0
  4  5  2  0  0  0  0
  4 41  1  0  0  0  0
  5  6  1  0  0  0  0
  5  8  1  0  0  0  0
  6  7  1  0  0  0  0
  7 42  1  0  0  0  0
  7 43  1  0  0  0  0
  7 44  1  0  0  0  0
  8  9  2  0  0  0  0
  8 45  1  0  0  0  0
  9 10  1  0  0  0  0
  9 36  1  0  0  0  0
 10 11  1  0  0  0  0
 10 21  1  0  0  0  0
 11 12  1  0  0  0  0
 11 46  1  0  0  0  0
 11 47  1  0  0  0  0
 12 13  1  0  0  0  0
 12 48  1  0  0  0  0
 12 49  1  0  0  0  0
 13 14  1  0  0  0  0
 13 50  1  0  0  0  0
 13 51  1  0  0  0  0
 14 15  1  0  0  0  0
 14 20  1  0  0  0  0
 15 16  1  0  0  0  0
 15 52  1  0  0  0  0
 15 53  1  0  0  0  0
 16 17  1  0  0  0  0
 16 54  1  0  0  0  0
 16 55  1  0  0  0  0
 17 18  1  0  0  0  0
 17 19  1  0  0  0  0
 17 20  1  0  0  0  0
 20 56  1  0  0  0  0
 20 57  1  0  0  0  0
 21 22  1  0  0  0  0
 21 35  2  0  0  0  0
 22 23  2  0  0  0  0
 22 58  1  0  0  0  0
 23 24  1  0  0  0  0
 23 59  1  0  0  0  0
 24 25  1  0  0  0  0
 24 34  2  0  0  0  0
 25 26  2  0  0  0  0
 26 27  1  0  0  0  0
 26 60  1  0  0  0  0
 27 28  1  0  0  0  0
 27 33  2  0  0  0  0
 28 29  1  0  0  0  0
 28 32  2  0  0  0  0
 29 30  2  0  0  0  0
 29 61  1  0  0  0  0
 30 31  1  0  0  0  0
 31 32  1  0  0  0  0
 31 62  1  0  0  0  0
 32 63  1  0  0  0  0
 33 34  1  0  0  0  0
 34 35  1  0  0  0  0
 35 64  1  0  0  0  0
 36 65  1  0  0  0  0
 37 66  1  0  0  0  0
M  END
$$$$
