CHEMBL4294041
 OpenBabel04072215383D

 55 58  0  0  0  0  0  0  0  0999 V2000
    1.1592    0.2835   -0.6737 O   0  0  0  0  0  0  0  0  0  0  0  0
    2.1778    0.0079   -0.0498 C   0  0  0  0  0  0  0  0  0  0  0  0
    2.6852    0.8079    0.9529 N   0  0  0  0  0  0  0  0  0  0  0  0
    2.0115    2.0456    1.3192 C   0  0  0  0  0  0  0  0  0  0  0  0
    3.0007    3.0947    1.8360 C   0  0  0  0  0  0  0  0  0  0  0  0
    2.2840    4.3921    2.2088 C   0  0  0  0  0  0  0  0  0  0  0  0
    1.1678    4.1458    3.2203 C   0  0  0  0  0  0  0  0  0  0  0  0
    0.1847    3.0888    2.7245 C   0  0  0  0  0  0  0  0  0  0  0  0
    0.8958    1.7919    2.3415 C   0  0  0  0  0  0  0  0  0  0  0  0
    2.9288   -1.2502   -0.3658 C   0  0  0  0  0  0  0  0  0  0  0  0
    2.4491   -2.0428   -1.4026 C   0  0  0  0  0  0  0  0  0  0  0  0
    3.1602   -3.1861   -1.7536 C   0  0  0  0  0  0  0  0  0  0  0  0
    2.8109   -4.0367   -2.7832 O   0  0  0  0  0  0  0  0  0  0  0  0
    2.1791   -3.5383   -3.9026 C   0  0  0  0  0  0  0  0  0  0  0  0
    2.3671   -2.2365   -4.3827 C   0  0  0  0  0  0  0  0  0  0  0  0
    1.6268   -1.7690   -5.4669 C   0  0  0  0  0  0  0  0  0  0  0  0
    0.7496   -2.6133   -6.1503 C   0  0  0  0  0  0  0  0  0  0  0  0
   -0.1045   -2.1322   -7.2456 C   0  0  0  0  0  0  0  0  0  0  0  0
    0.2016   -1.1381   -8.0950 C   0  0  0  0  0  0  0  0  0  0  0  0
   -0.7066   -0.6801   -9.1595 C   0  0  0  0  0  0  0  0  0  0  0  0
   -0.3504    0.3651  -10.0022 C   0  0  0  0  0  0  0  0  0  0  0  0
   -1.2442    0.7646  -10.9958 C   0  0  0  0  0  0  0  0  0  0  0  0
   -2.4598    0.0979  -11.1188 C   0  0  0  0  0  0  0  0  0  0  0  0
   -2.7322   -0.9376  -10.2459 C   0  0  0  0  0  0  0  0  0  0  0  0
   -1.8853   -1.3374   -9.2721 N   0  0  0  0  0  0  0  0  0  0  0  0
    0.6335   -3.9464   -5.7205 C   0  0  0  0  0  0  0  0  0  0  0  0
    1.3417   -4.4056   -4.6017 C   0  0  0  0  0  0  0  0  0  0  0  0
    4.2642   -3.5465   -0.9961 C   0  0  0  0  0  0  0  0  0  0  0  0
    4.6553   -2.7101    0.0444 C   0  0  0  0  0  0  0  0  0  0  0  0
    4.0290   -1.5503    0.3695 N   0  0  0  0  0  0  0  0  0  0  0  0
    3.4250    0.4178    1.5241 H   0  0  0  0  0  0  0  0  0  0  0  0
    1.5479    2.4477    0.4076 H   0  0  0  0  0  0  0  0  0  0  0  0
    3.7582    3.3036    1.0701 H   0  0  0  0  0  0  0  0  0  0  0  0
    3.5389    2.7065    2.7100 H   0  0  0  0  0  0  0  0  0  0  0  0
    1.8600    4.8479    1.3051 H   0  0  0  0  0  0  0  0  0  0  0  0
    3.0030    5.1098    2.6190 H   0  0  0  0  0  0  0  0  0  0  0  0
    0.6337    5.0823    3.4176 H   0  0  0  0  0  0  0  0  0  0  0  0
    1.6044    3.8200    4.1723 H   0  0  0  0  0  0  0  0  0  0  0  0
   -0.3584    3.4780    1.8539 H   0  0  0  0  0  0  0  0  0  0  0  0
   -0.5615    2.8854    3.5005 H   0  0  0  0  0  0  0  0  0  0  0  0
    0.1634    1.0835    1.9368 H   0  0  0  0  0  0  0  0  0  0  0  0
    1.3170    1.3266    3.2412 H   0  0  0  0  0  0  0  0  0  0  0  0
    1.5537   -1.7401   -1.9315 H   0  0  0  0  0  0  0  0  0  0  0  0
    3.0505   -1.5532   -3.8935 H   0  0  0  0  0  0  0  0  0  0  0  0
    1.7384   -0.7240   -5.7494 H   0  0  0  0  0  0  0  0  0  0  0  0
   -1.0635   -2.6430   -7.3380 H   0  0  0  0  0  0  0  0  0  0  0  0
    1.1528   -0.6206   -8.0386 H   0  0  0  0  0  0  0  0  0  0  0  0
    0.6032    0.8755   -9.9011 H   0  0  0  0  0  0  0  0  0  0  0  0
   -0.9956    1.5790  -11.6697 H   0  0  0  0  0  0  0  0  0  0  0  0
   -3.1789    0.3796  -11.8778 H   0  0  0  0  0  0  0  0  0  0  0  0
   -3.6563   -1.5014  -10.3054 H   0  0  0  0  0  0  0  0  0  0  0  0
   -0.0195   -4.6353   -6.2522 H   0  0  0  0  0  0  0  0  0  0  0  0
    1.2261   -5.4378   -4.2788 H   0  0  0  0  0  0  0  0  0  0  0  0
    4.8072   -4.4625   -1.2050 H   0  0  0  0  0  0  0  0  0  0  0  0
    5.5057   -2.9714    0.6674 H   0  0  0  0  0  0  0  0  0  0  0  0
  1  2  2  0  0  0  0
  2  3  1  0  0  0  0
  2 10  1  0  0  0  0
  3  4  1  0  0  0  0
  3 31  1  0  0  0  0
  4  5  1  0  0  0  0
  4  9  1  0  0  0  0
  4 32  1  0  0  0  0
  5  6  1  0  0  0  0
  5 33  1  0  0  0  0
  5 34  1  0  0  0  0
  6  7  1  0  0  0  0
  6 35  1  0  0  0  0
  6 36  1  0  0  0  0
  7  8  1  0  0  0  0
  7 37  1  0  0  0  0
  7 38  1  0  0  0  0
  8  9  1  0  0  0  0
  8 39  1  0  0  0  0
  8 40  1  0  0  0  0
  9 41  1  0  0  0  0
  9 42  1  0  0  0  0
 10 11  1  0  0  0  0
 10 30  2  0  0  0  0
 11 12  2  0  0  0  0
 11 43  1  0  0  0  0
 12 13  1  0  0  0  0
 12 28  1  0  0  0  0
 13 14  1  0  0  0  0
 14 15  1  0  0  0  0
 14 27  2  0  0  0  0
 15 16  2  0  0  0  0
 15 44  1  0  0  0  0
 16 17  1  0  0  0  0
 16 45  1  0  0  0  0
 17 18  1  0  0  0  0
 17 26  2  0  0  0  0
 18 19  2  0  0  0  0
 18 46  1  0  0  0  0
 19 20  1  0  0  0  0
 19 47  1  0  0  0  0
 20 21  1  0  0  0  0
 20 25  2  0  0  0  0
 21 22  2  0  0  0  0
 21 48  1  0  0  0  0
 22 23  1  0  0  0  0
 22 49  1  0  0  0  0
 23 24  2  0  0  0  0
 23 50  1  0  0  0  0
 24 25  1  0  0  0  0
 24 51  1  0  0  0  0
 26 27  1  0  0  0  0
 26 52  1  0  0  0  0
 27 53  1  0  0  0  0
 28 29  2  0  0  0  0
 28 54  1  0  0  0  0
 29 30  1  0  0  0  0
 29 55  1  0  0  0  0
M  END
$$$$
