CHEMBL1242663
 OpenBabel04072215363D

 39 42  0  0  0  0  0  0  0  0999 V2000
    1.0913    0.4901    0.0252 C   0  0  0  0  0  0  0  0  0  0  0  0
    2.5249   -0.0441    0.1009 C   0  0  0  0  0  0  0  0  0  0  0  0
    3.4106    0.6120   -0.9632 C   0  0  0  0  0  0  0  0  0  0  0  0
    3.0903    0.1290    1.4340 N   0  0  0  0  0  0  0  0  0  0  0  0
    3.2981    1.3833    1.9110 N   0  0  0  0  0  0  0  0  0  0  0  0
    3.6680    1.1963    3.1850 C   0  0  0  0  0  0  0  0  0  0  0  0
    3.8462    2.3334    4.0808 C   0  0  0  0  0  0  0  0  0  0  0  0
    4.9471    2.3624    4.9419 C   0  0  0  0  0  0  0  0  0  0  0  0
    4.8622    3.1061    6.1187 C   0  0  0  0  0  0  0  0  0  0  0  0
    5.7998    2.9246    7.1362 C   0  0  0  0  0  0  0  0  0  0  0  0
    5.3935    3.1216    8.4489 C   0  0  0  0  0  0  0  0  0  0  0  0
    4.2069    3.7991    8.7027 C   0  0  0  0  0  0  0  0  0  0  0  0
    3.4474    4.2898    7.6364 C   0  0  0  0  0  0  0  0  0  0  0  0
    3.7129    3.8825    6.3368 C   0  0  0  0  0  0  0  0  0  0  0  0
    2.8213    4.1150    5.3626 N   0  0  0  0  0  0  0  0  0  0  0  0
    2.8958    3.3409    4.2554 C   0  0  0  0  0  0  0  0  0  0  0  0
    1.6210    3.6882    3.1520 Cl  0  0  0  0  0  0  0  0  0  0  0  0
    3.7877   -0.2059    3.4938 C   0  0  0  0  0  0  0  0  0  0  0  0
    4.1256   -1.0358    4.5779 C   0  0  0  0  0  0  0  0  0  0  0  0
    4.5205   -0.6502    5.8471 N   0  0  0  0  0  0  0  0  0  0  0  0
    4.0976   -2.3836    4.3854 N   0  0  0  0  0  0  0  0  0  0  0  0
    3.7565   -2.8716    3.1728 C   0  0  0  0  0  0  0  0  0  0  0  0
    3.3894   -2.1781    2.0889 N   0  0  0  0  0  0  0  0  0  0  0  0
    3.4141   -0.8566    2.3197 C   0  0  0  0  0  0  0  0  0  0  0  0
    0.6563    0.3123   -0.9649 H   0  0  0  0  0  0  0  0  0  0  0  0
    1.0482    1.5676    0.2238 H   0  0  0  0  0  0  0  0  0  0  0  0
    0.4532   -0.0057    0.7672 H   0  0  0  0  0  0  0  0  0  0  0  0
    2.4929   -1.1213   -0.1028 H   0  0  0  0  0  0  0  0  0  0  0  0
    3.4532    1.6988   -0.8334 H   0  0  0  0  0  0  0  0  0  0  0  0
    3.0302    0.4055   -1.9686 H   0  0  0  0  0  0  0  0  0  0  0  0
    4.4330    0.2283   -0.8987 H   0  0  0  0  0  0  0  0  0  0  0  0
    5.7568    1.6465    4.8116 H   0  0  0  0  0  0  0  0  0  0  0  0
    6.7929    2.5400    6.9259 H   0  0  0  0  0  0  0  0  0  0  0  0
    5.9929    2.7286    9.2664 H   0  0  0  0  0  0  0  0  0  0  0  0
    3.8764    3.9555    9.7262 H   0  0  0  0  0  0  0  0  0  0  0  0
    2.5692    4.8982    7.8358 H   0  0  0  0  0  0  0  0  0  0  0  0
    4.2608    0.2536    6.2040 H   0  0  0  0  0  0  0  0  0  0  0  0
    4.5821   -1.4262    6.4926 H   0  0  0  0  0  0  0  0  0  0  0  0
    3.7752   -3.9546    3.0683 H   0  0  0  0  0  0  0  0  0  0  0  0
  1  2  1  0  0  0  0
  1 25  1  0  0  0  0
  1 26  1  0  0  0  0
  1 27  1  0  0  0  0
  2  3  1  0  0  0  0
  2  4  1  0  0  0  0
  2 28  1  0  0  0  0
  3 29  1  0  0  0  0
  3 30  1  0  0  0  0
  3 31  1  0  0  0  0
  4  5  1  0  0  0  0
  4 24  1  0  0  0  0
  5  6  2  0  0  0  0
  6  7  1  0  0  0  0
  6 18  1  0  0  0  0
  7  8  1  0  0  0  0
  7 16  2  0  0  0  0
  8  9  2  0  0  0  0
  8 32  1  0  0  0  0
  9 10  1  0  0  0  0
  9 14  1  0  0  0  0
 10 11  2  0  0  0  0
 10 33  1  0  0  0  0
 11 12  1  0  0  0  0
 11 34  1  0  0  0  0
 12 13  2  0  0  0  0
 12 35  1  0  0  0  0
 13 14  1  0  0  0  0
 13 36  1  0  0  0  0
 14 15  2  0  0  0  0
 15 16  1  0  0  0  0
 16 17  1  0  0  0  0
 18 19  1  0  0  0  0
 18 24  2  0  0  0  0
 19 20  1  0  0  0  0
 19 21  2  0  0  0  0
 20 37  1  0  0  0  0
 20 38  1  0  0  0  0
 21 22  1  0  0  0  0
 22 23  2  0  0  0  0
 22 39  1  0  0  0  0
 23 24  1  0  0  0  0
M  END
$$$$
