CHEMBL4752530
 OpenBabel04072215383D

 46 49  0  0  0  0  0  0  0  0999 V2000
    8.7853   -3.6519    4.4195 C   0  0  0  0  0  0  0  0  0  0  0  0
    7.3134   -3.6589    4.7506 C   0  0  0  0  0  0  0  0  0  0  0  0
    6.7424   -4.7211    5.0059 O   0  0  0  0  0  0  0  0  0  0  0  0
    6.5617   -2.3718    4.7459 C   0  0  0  0  0  0  0  0  0  0  0  0
    7.3201   -0.8589    4.2681 S   0  0  0  0  0  0  0  0  0  0  0  0
    5.7655    0.0025    4.4106 C   0  0  0  0  0  0  0  0  0  0  0  0
    5.5272    1.2427    4.1266 N   0  0  0  0  0  0  0  0  0  0  0  0
    6.6223    1.9965    3.7387 N   0  0  0  0  0  0  0  0  0  0  0  0
    6.3047    3.1040    3.1485 C   0  0  0  0  0  0  0  0  0  0  0  0
    4.9267    3.6518    2.7348 C   0  0  0  0  0  0  0  0  0  0  0  0
    3.8464    3.1288    2.9104 O   0  0  0  0  0  0  0  0  0  0  0  0
    5.1966    4.8580    2.0925 N   0  0  0  0  0  0  0  0  0  0  0  0
    4.2051    5.5636    1.3120 C   0  0  0  0  0  0  0  0  0  0  0  0
    4.1684    5.0617   -0.1174 C   0  0  0  0  0  0  0  0  0  0  0  0
    3.4008    3.9364   -0.4556 C   0  0  0  0  0  0  0  0  0  0  0  0
    3.4390    3.4122   -1.7497 C   0  0  0  0  0  0  0  0  0  0  0  0
    4.2465    4.0033   -2.7201 C   0  0  0  0  0  0  0  0  0  0  0  0
    5.0007    5.1313   -2.4008 C   0  0  0  0  0  0  0  0  0  0  0  0
    4.9584    5.6586   -1.1119 C   0  0  0  0  0  0  0  0  0  0  0  0
    6.5730    5.1404    2.1147 C   0  0  0  0  0  0  0  0  0  0  0  0
    7.2487    6.2541    1.6464 C   0  0  0  0  0  0  0  0  0  0  0  0
    8.6433    6.2905    1.7993 C   0  0  0  0  0  0  0  0  0  0  0  0
    9.3342    5.2229    2.4042 C   0  0  0  0  0  0  0  0  0  0  0  0
   11.0452    5.3077    2.5693 Cl  0  0  0  0  0  0  0  0  0  0  0  0
    8.6525    4.1075    2.8800 C   0  0  0  0  0  0  0  0  0  0  0  0
    7.2784    4.1046    2.7256 C   0  0  0  0  0  0  0  0  0  0  0  0
    4.8355   -0.8948    4.8637 N   0  0  0  0  0  0  0  0  0  0  0  0
    5.2556   -2.2006    5.0417 C   0  0  0  0  0  0  0  0  0  0  0  0
    4.2840   -3.2326    5.5130 C   0  0  0  0  0  0  0  0  0  0  0  0
    9.1657   -4.6784    4.4468 H   0  0  0  0  0  0  0  0  0  0  0  0
    9.3365   -3.0664    5.1592 H   0  0  0  0  0  0  0  0  0  0  0  0
    8.9482   -3.2634    3.4109 H   0  0  0  0  0  0  0  0  0  0  0  0
    4.3957    6.6426    1.3450 H   0  0  0  0  0  0  0  0  0  0  0  0
    3.2187    5.4102    1.7689 H   0  0  0  0  0  0  0  0  0  0  0  0
    2.7797    3.4469    0.2948 H   0  0  0  0  0  0  0  0  0  0  0  0
    2.8488    2.5327   -1.9951 H   0  0  0  0  0  0  0  0  0  0  0  0
    4.2914    3.5808   -3.7203 H   0  0  0  0  0  0  0  0  0  0  0  0
    5.6311    5.5916   -3.1606 H   0  0  0  0  0  0  0  0  0  0  0  0
    5.5612    6.5338   -0.8859 H   0  0  0  0  0  0  0  0  0  0  0  0
    6.7341    7.0961    1.1988 H   0  0  0  0  0  0  0  0  0  0  0  0
    9.1963    7.1632    1.4537 H   0  0  0  0  0  0  0  0  0  0  0  0
    9.1644    3.2791    3.3563 H   0  0  0  0  0  0  0  0  0  0  0  0
    3.8668   -0.6231    4.9475 H   0  0  0  0  0  0  0  0  0  0  0  0
    3.3563   -2.7658    5.8628 H   0  0  0  0  0  0  0  0  0  0  0  0
    4.6881   -3.8014    6.3566 H   0  0  0  0  0  0  0  0  0  0  0  0
    4.0251   -3.9205    4.7028 H   0  0  0  0  0  0  0  0  0  0  0  0
  1  2  1  0  0  0  0
  1 30  1  0  0  0  0
  1 31  1  0  0  0  0
  1 32  1  0  0  0  0
  2  3  2  0  0  0  0
  2  4  1  0  0  0  0
  4  5  1  0  0  0  0
  4 28  2  0  0  0  0
  5  6  1  0  0  0  0
  6  7  2  0  0  0  0
  6 27  1  0  0  0  0
  7  8  1  0  0  0  0
  8  9  2  0  0  0  0
  9 10  1  0  0  0  0
  9 26  1  0  0  0  0
 10 11  2  0  0  0  0
 10 12  1  0  0  0  0
 12 13  1  0  0  0  0
 12 20  1  0  0  0  0
 13 14  1  0  0  0  0
 13 33  1  0  0  0  0
 13 34  1  0  0  0  0
 14 15  1  0  0  0  0
 14 19  2  0  0  0  0
 15 16  2  0  0  0  0
 15 35  1  0  0  0  0
 16 17  1  0  0  0  0
 16 36  1  0  0  0  0
 17 18  2  0  0  0  0
 17 37  1  0  0  0  0
 18 19  1  0  0  0  0
 18 38  1  0  0  0  0
 19 39  1  0  0  0  0
 20 21  1  0  0  0  0
 20 26  2  0  0  0  0
 21 22  2  0  0  0  0
 21 40  1  0  0  0  0
 22 23  1  0  0  0  0
 22 41  1  0  0  0  0
 23 24  1  0  0  0  0
 23 25  2  0  0  0  0
 25 26  1  0  0  0  0
 25 42  1  0  0  0  0
 27 28  1  0  0  0  0
 27 43  1  0  0  0  0
 28 29  1  0  0  0  0
 29 44  1  0  0  0  0
 29 45  1  0  0  0  0
 29 46  1  0  0  0  0
M  END
$$$$
