CHEMBL408030
 OpenBabel04072215383D

 78 84  0  0  0  0  0  0  0  0999 V2000
   -2.3551    1.0910   -0.9483 C   0  0  0  0  0  0  0  0  0  0  0  0
   -1.1855    0.3881   -0.3165 C   0  0  0  0  0  0  0  0  0  0  0  0
   -1.2280   -1.0078   -0.1813 C   0  0  0  0  0  0  0  0  0  0  0  0
   -0.1590   -1.7014    0.3801 C   0  0  0  0  0  0  0  0  0  0  0  0
    0.9692   -1.0110    0.8155 C   0  0  0  0  0  0  0  0  0  0  0  0
    1.0432    0.3856    0.7029 C   0  0  0  0  0  0  0  0  0  0  0  0
    2.2758    1.0892    1.1989 C   0  0  0  0  0  0  0  0  0  0  0  0
   -0.0448    1.0884    0.1383 C   0  0  0  0  0  0  0  0  0  0  0  0
    0.0176    2.4970    0.0083 N   0  0  0  0  0  0  0  0  0  0  0  0
    0.6048    3.1080   -1.0961 C   0  0  0  0  0  0  0  0  0  0  0  0
    1.1243    2.5234   -2.0422 O   0  0  0  0  0  0  0  0  0  0  0  0
    0.5845    4.5815   -1.1276 C   0  0  0  0  0  0  0  0  0  0  0  0
    1.0918    5.3063   -2.1831 C   0  0  0  0  0  0  0  0  0  0  0  0
    1.0464    6.6603   -2.2584 N   0  0  0  0  0  0  0  0  0  0  0  0
    0.5305    7.3105   -1.2074 C   0  0  0  0  0  0  0  0  0  0  0  0
    0.5134    8.7034   -1.2253 N   0  0  0  0  0  0  0  0  0  0  0  0
    0.5829    9.5355   -0.1012 C   0  0  0  0  0  0  0  0  0  0  0  0
    1.2687    9.1033    1.0381 C   0  0  0  0  0  0  0  0  0  0  0  0
    1.1484    9.7655    2.2499 C   0  0  0  0  0  0  0  0  0  0  0  0
    0.3329   10.8884    2.3601 C   0  0  0  0  0  0  0  0  0  0  0  0
    0.0537   11.5245    3.5476 O   0  0  0  0  0  0  0  0  0  0  0  0
    0.5860   10.8473    4.6945 C   0  0  0  0  0  0  0  0  0  0  0  0
    0.1787   11.5379    5.9855 C   0  0  0  0  0  0  0  0  0  0  0  0
    0.8322   10.8544    7.1992 C   0  0  0  0  0  0  0  0  0  0  0  0
    2.3084   10.7952    7.1547 N   0  0  0  0  0  0  0  0  0  0  0  0
    2.9109   12.1379    7.1167 C   0  0  0  0  0  0  0  0  0  0  0  0
    4.4372   12.0760    7.0525 C   0  0  0  0  0  0  0  0  0  0  0  0
    5.0056   11.2811    8.2180 C   0  0  0  0  0  0  0  0  0  0  0  0
    4.3481    9.9088    8.2826 C   0  0  0  0  0  0  0  0  0  0  0  0
    2.8209   10.0217    8.3005 C   0  0  0  0  0  0  0  0  0  0  0  0
   -0.2760   11.3951    1.2085 C   0  0  0  0  0  0  0  0  0  0  0  0
   -0.1468   10.7243   -0.0205 C   0  0  0  0  0  0  0  0  0  0  0  0
    0.0250    6.6759   -0.1312 N   0  0  0  0  0  0  0  0  0  0  0  0
    0.0409    5.3286   -0.1132 C   0  0  0  0  0  0  0  0  0  0  0  0
   -0.5317    4.6340    0.9680 N   0  0  0  0  0  0  0  0  0  0  0  0
   -1.1556    5.1165    2.1039 C   0  0  0  0  0  0  0  0  0  0  0  0
   -1.4392    6.3982    2.5941 C   0  0  0  0  0  0  0  0  0  0  0  0
   -2.1228    6.4868    3.8125 C   0  0  0  0  0  0  0  0  0  0  0  0
   -2.5053    5.3440    4.5147 C   0  0  0  0  0  0  0  0  0  0  0  0
   -2.2108    4.0710    4.0136 C   0  0  0  0  0  0  0  0  0  0  0  0
   -1.5276    3.9617    2.7924 C   0  0  0  0  0  0  0  0  0  0  0  0
   -1.1399    2.8310    2.1214 N   0  0  0  0  0  0  0  0  0  0  0  0
   -0.5450    3.2553    1.0254 C   0  0  0  0  0  0  0  0  0  0  0  0
   -3.1230    0.3786   -1.2698 H   0  0  0  0  0  0  0  0  0  0  0  0
   -2.0335    1.6435   -1.8367 H   0  0  0  0  0  0  0  0  0  0  0  0
   -2.8241    1.7772   -0.2370 H   0  0  0  0  0  0  0  0  0  0  0  0
   -2.0983   -1.5673   -0.5170 H   0  0  0  0  0  0  0  0  0  0  0  0
   -0.2048   -2.7829    0.4776 H   0  0  0  0  0  0  0  0  0  0  0  0
    1.7940   -1.5730    1.2481 H   0  0  0  0  0  0  0  0  0  0  0  0
    2.9990    0.3805    1.6175 H   0  0  0  0  0  0  0  0  0  0  0  0
    2.0193    1.7982    1.9921 H   0  0  0  0  0  0  0  0  0  0  0  0
    2.7727    1.6168    0.3793 H   0  0  0  0  0  0  0  0  0  0  0  0
    1.5651    4.8162   -3.0314 H   0  0  0  0  0  0  0  0  0  0  0  0
    0.5727    9.1100   -2.1439 H   0  0  0  0  0  0  0  0  0  0  0  0
    1.8832    8.2072    1.0059 H   0  0  0  0  0  0  0  0  0  0  0  0
    1.6787    9.3351    3.0918 H   0  0  0  0  0  0  0  0  0  0  0  0
    1.6789   10.8461    4.6195 H   0  0  0  0  0  0  0  0  0  0  0  0
    0.2050    9.8172    4.7280 H   0  0  0  0  0  0  0  0  0  0  0  0
   -0.9128   11.4972    6.0883 H   0  0  0  0  0  0  0  0  0  0  0  0
    0.4247   12.6040    5.9404 H   0  0  0  0  0  0  0  0  0  0  0  0
    0.4459    9.8264    7.2411 H   0  0  0  0  0  0  0  0  0  0  0  0
    0.4951   11.3557    8.1145 H   0  0  0  0  0  0  0  0  0  0  0  0
    2.5995   12.7237    7.9906 H   0  0  0  0  0  0  0  0  0  0  0  0
    2.5820   12.6792    6.2237 H   0  0  0  0  0  0  0  0  0  0  0  0
    4.8466   13.0924    7.0611 H   0  0  0  0  0  0  0  0  0  0  0  0
    4.7479   11.6145    6.1061 H   0  0  0  0  0  0  0  0  0  0  0  0
    4.8235   11.8221    9.1546 H   0  0  0  0  0  0  0  0  0  0  0  0
    6.0908   11.1776    8.1102 H   0  0  0  0  0  0  0  0  0  0  0  0
    4.6910    9.3799    9.1792 H   0  0  0  0  0  0  0  0  0  0  0  0
    4.6644    9.3108    7.4185 H   0  0  0  0  0  0  0  0  0  0  0  0
    2.5024   10.4787    9.2463 H   0  0  0  0  0  0  0  0  0  0  0  0
    2.4092    9.0050    8.2749 H   0  0  0  0  0  0  0  0  0  0  0  0
   -0.8923   12.2883    1.2719 H   0  0  0  0  0  0  0  0  0  0  0  0
   -0.6810   11.1026   -0.8880 H   0  0  0  0  0  0  0  0  0  0  0  0
   -1.1548    7.2992    2.0577 H   0  0  0  0  0  0  0  0  0  0  0  0
   -2.3630    7.4692    4.2207 H   0  0  0  0  0  0  0  0  0  0  0  0
   -3.0397    5.4381    5.4571 H   0  0  0  0  0  0  0  0  0  0  0  0
   -2.5087    3.1761    4.5502 H   0  0  0  0  0  0  0  0  0  0  0  0
  1  2  1  0  0  0  0
  1 44  1  0  0  0  0
  1 45  1  0  0  0  0
  1 46  1  0  0  0  0
  2  3  1  0  0  0  0
  2  8  2  0  0  0  0
  3  4  2  0  0  0  0
  3 47  1  0  0  0  0
  4  5  1  0  0  0  0
  4 48  1  0  0  0  0
  5  6  2  0  0  0  0
  5 49  1  0  0  0  0
  6  7  1  0  0  0  0
  6  8  1  0  0  0  0
  7 50  1  0  0  0  0
  7 51  1  0  0  0  0
  7 52  1  0  0  0  0
  8  9  1  0  0  0  0
  9 10  1  0  0  0  0
  9 43  1  0  0  0  0
 10 11  2  0  0  0  0
 10 12  1  0  0  0  0
 12 13  1  0  0  0  0
 12 34  2  0  0  0  0
 13 14  2  0  0  0  0
 13 53  1  0  0  0  0
 14 15  1  0  0  0  0
 15 16  1  0  0  0  0
 15 33  2  0  0  0  0
 16 17  1  0  0  0  0
 16 54  1  0  0  0  0
 17 18  1  0  0  0  0
 17 32  2  0  0  0  0
 18 19  2  0  0  0  0
 18 55  1  0  0  0  0
 19 20  1  0  0  0  0
 19 56  1  0  0  0  0
 20 21  1  0  0  0  0
 20 31  2  0  0  0  0
 21 22  1  0  0  0  0
 22 23  1  0  0  0  0
 22 57  1  0  0  0  0
 22 58  1  0  0  0  0
 23 24  1  0  0  0  0
 23 59  1  0  0  0  0
 23 60  1  0  0  0  0
 24 25  1  0  0  0  0
 24 61  1  0  0  0  0
 24 62  1  0  0  0  0
 25 26  1  0  0  0  0
 25 30  1  0  0  0  0
 26 27  1  0  0  0  0
 26 63  1  0  0  0  0
 26 64  1  0  0  0  0
 27 28  1  0  0  0  0
 27 65  1  0  0  0  0
 27 66  1  0  0  0  0
 28 29  1  0  0  0  0
 28 67  1  0  0  0  0
 28 68  1  0  0  0  0
 29 30  1  0  0  0  0
 29 69  1  0  0  0  0
 29 70  1  0  0  0  0
 30 71  1  0  0  0  0
 30 72  1  0  0  0  0
 31 32  1  0  0  0  0
 31 73  1  0  0  0  0
 32 74  1  0  0  0  0
 33 34  1  0  0  0  0
 34 35  1  0  0  0  0
 35 36  1  0  0  0  0
 35 43  1  0  0  0  0
 36 37  1  0  0  0  0
 36 41  2  0  0  0  0
 37 38  2  0  0  0  0
 37 75  1  0  0  0  0
 38 39  1  0  0  0  0
 38 76  1  0  0  0  0
 39 40  2  0  0  0  0
 39 77  1  0  0  0  0
 40 41  1  0  0  0  0
 40 78  1  0  0  0  0
 41 42  1  0  0  0  0
 42 43  2  0  0  0  0
M  END
$$$$
