CHEMBL3972617
 OpenBabel04072215373D

 75 80  0  0  0  0  0  0  0  0999 V2000
    0.2044    1.6388   -3.2164 C   0  0  0  0  0  0  0  0  0  0  0  0
    1.5105    1.9128   -3.7274 O   0  0  0  0  0  0  0  0  0  0  0  0
    2.5453    1.5794   -2.8883 C   0  0  0  0  0  0  0  0  0  0  0  0
    2.4477    1.5742   -1.5022 C   0  0  0  0  0  0  0  0  0  0  0  0
    3.5539    1.2177   -0.7317 C   0  0  0  0  0  0  0  0  0  0  0  0
    3.5851    1.1683    0.6341 O   0  0  0  0  0  0  0  0  0  0  0  0
    2.3743    1.4827    1.3172 C   0  0  0  0  0  0  0  0  0  0  0  0
    4.7688    0.8860   -1.3505 C   0  0  0  0  0  0  0  0  0  0  0  0
    4.9182    0.8901   -2.7414 C   0  0  0  0  0  0  0  0  0  0  0  0
    6.1858    0.6107   -3.3550 N   0  0  0  0  0  0  0  0  0  0  0  0
    6.9264   -0.6075   -2.8654 C   0  0  0  0  0  0  0  0  0  0  0  0
    6.1303   -1.9346   -2.4734 C   0  0  0  0  0  0  0  0  0  0  0  0
    5.5589   -2.8036   -3.5394 N   0  0  0  0  0  0  0  0  0  0  0  0
    4.5199   -2.1090   -4.3174 C   0  0  0  0  0  0  0  0  0  0  0  0
    3.2722   -1.8423   -3.4676 C   0  0  0  0  0  0  0  0  0  0  0  0
    2.6329   -3.0998   -3.1476 N   0  0  0  0  0  0  0  0  0  0  0  0
    1.3342   -3.4239   -3.4990 C   0  0  0  0  0  0  0  0  0  0  0  0
    0.7950   -4.4790   -3.1649 O   0  0  0  0  0  0  0  0  0  0  0  0
    0.5602   -2.4213   -4.3096 C   0  0  0  0  0  0  0  0  0  0  0  0
   -0.7634   -1.9037   -3.7918 C   0  0  0  0  0  0  0  0  0  0  0  0
   -0.7282   -2.7785   -5.0099 C   0  0  0  0  0  0  0  0  0  0  0  0
    3.5118   -4.0158   -2.4076 C   0  0  0  0  0  0  0  0  0  0  0  0
    4.9539   -4.0767   -3.0176 C   0  0  0  0  0  0  0  0  0  0  0  0
    6.9148    1.6079   -4.1067 C   0  0  0  0  0  0  0  0  0  0  0  0
    6.1927    2.7184   -4.5532 C   0  0  0  0  0  0  0  0  0  0  0  0
    6.6385    3.5234   -5.5761 C   0  0  0  0  0  0  0  0  0  0  0  0
    7.9004    3.4103   -6.0579 C   0  0  0  0  0  0  0  0  0  0  0  0
    8.1103    4.1725   -7.1338 N   0  0  0  0  0  0  0  0  0  0  0  0
    9.3835    4.3654   -7.4752 C   0  0  0  0  0  0  0  0  0  0  0  0
   10.4223    3.8765   -6.7098 C   0  0  0  0  0  0  0  0  0  0  0  0
   11.6948    4.5685   -6.9088 C   0  0  0  0  0  0  0  0  0  0  0  0
   12.2825    5.6240   -6.1551 C   0  0  0  0  0  0  0  0  0  0  0  0
   13.3056    6.2138   -6.7893 N   0  0  0  0  0  0  0  0  0  0  0  0
   13.3657    5.5578   -7.9598 N   0  0  0  0  0  0  0  0  0  0  0  0
   14.5073    5.7033   -8.8322 C   0  0  0  0  0  0  0  0  0  0  0  0
   12.3223    4.6931   -8.1397 C   0  0  0  0  0  0  0  0  0  0  0  0
   10.2026    2.9523   -5.6980 N   0  0  0  0  0  0  0  0  0  0  0  0
    8.8570    2.6355   -5.3923 C   0  0  0  0  0  0  0  0  0  0  0  0
    8.2983    1.6467   -4.4676 C   0  0  0  0  0  0  0  0  0  0  0  0
    3.7698    1.2515   -3.4966 C   0  0  0  0  0  0  0  0  0  0  0  0
   -0.5188    1.7533   -4.0303 H   0  0  0  0  0  0  0  0  0  0  0  0
   -0.0837    2.3362   -2.4223 H   0  0  0  0  0  0  0  0  0  0  0  0
    0.1470    0.6097   -2.8510 H   0  0  0  0  0  0  0  0  0  0  0  0
    1.5201    1.8656   -1.0254 H   0  0  0  0  0  0  0  0  0  0  0  0
    2.5668    1.3995    2.3903 H   0  0  0  0  0  0  0  0  0  0  0  0
    1.5815    0.7707    1.0626 H   0  0  0  0  0  0  0  0  0  0  0  0
    2.0607    2.5122    1.1135 H   0  0  0  0  0  0  0  0  0  0  0  0
    5.6184    0.6504   -0.7155 H   0  0  0  0  0  0  0  0  0  0  0  0
    7.4915   -0.3086   -1.9735 H   0  0  0  0  0  0  0  0  0  0  0  0
    7.6588   -0.9158   -3.6204 H   0  0  0  0  0  0  0  0  0  0  0  0
    5.3953   -1.7313   -1.6896 H   0  0  0  0  0  0  0  0  0  0  0  0
    6.8860   -2.5621   -1.9783 H   0  0  0  0  0  0  0  0  0  0  0  0
    4.2368   -2.7489   -5.1672 H   0  0  0  0  0  0  0  0  0  0  0  0
    4.9134   -1.1992   -4.7680 H   0  0  0  0  0  0  0  0  0  0  0  0
    2.6227   -1.1405   -3.9757 H   0  0  0  0  0  0  0  0  0  0  0  0
    3.5024   -1.3888   -2.5025 H   0  0  0  0  0  0  0  0  0  0  0  0
    1.1521   -1.7548   -4.9241 H   0  0  0  0  0  0  0  0  0  0  0  0
   -1.0214   -0.8655   -3.9484 H   0  0  0  0  0  0  0  0  0  0  0  0
   -1.1594   -2.3289   -2.8765 H   0  0  0  0  0  0  0  0  0  0  0  0
   -0.9020   -2.2995   -5.9697 H   0  0  0  0  0  0  0  0  0  0  0  0
   -1.0946   -3.7881   -4.9339 H   0  0  0  0  0  0  0  0  0  0  0  0
    3.0743   -5.0201   -2.3731 H   0  0  0  0  0  0  0  0  0  0  0  0
    3.5715   -3.6465   -1.3763 H   0  0  0  0  0  0  0  0  0  0  0  0
    4.8942   -4.7610   -3.8770 H   0  0  0  0  0  0  0  0  0  0  0  0
    5.6341   -4.5697   -2.3118 H   0  0  0  0  0  0  0  0  0  0  0  0
    5.2146    2.9719   -4.1710 H   0  0  0  0  0  0  0  0  0  0  0  0
    5.9671    4.2800   -5.9866 H   0  0  0  0  0  0  0  0  0  0  0  0
    9.5305    5.0068   -8.3323 H   0  0  0  0  0  0  0  0  0  0  0  0
   11.9840    6.0209   -5.1925 H   0  0  0  0  0  0  0  0  0  0  0  0
   15.2273    6.4001   -8.3952 H   0  0  0  0  0  0  0  0  0  0  0  0
   14.1773    6.0599   -9.8109 H   0  0  0  0  0  0  0  0  0  0  0  0
   14.9663    4.7148   -8.9243 H   0  0  0  0  0  0  0  0  0  0  0  0
   12.1352    4.2377   -9.1019 H   0  0  0  0  0  0  0  0  0  0  0  0
    8.9957    0.9324   -4.0350 H   0  0  0  0  0  0  0  0  0  0  0  0
    3.8164    1.2719   -4.5858 H   0  0  0  0  0  0  0  0  0  0  0  0
  1  2  1  0  0  0  0
  1 41  1  0  0  0  0
  1 42  1  0  0  0  0
  1 43  1  0  0  0  0
  2  3  1  0  0  0  0
  3  4  1  0  0  0  0
  3 40  2  0  0  0  0
  4  5  2  0  0  0  0
  4 44  1  0  0  0  0
  5  6  1  0  0  0  0
  5  8  1  0  0  0  0
  6  7  1  0  0  0  0
  7 45  1  0  0  0  0
  7 46  1  0  0  0  0
  7 47  1  0  0  0  0
  8  9  2  0  0  0  0
  8 48  1  0  0  0  0
  9 10  1  0  0  0  0
  9 40  1  0  0  0  0
 10 11  1  0  0  0  0
 10 24  1  0  0  0  0
 11 12  1  0  0  0  0
 11 49  1  0  0  0  0
 11 50  1  0  0  0  0
 12 13  1  0  0  0  0
 12 51  1  0  0  0  0
 12 52  1  0  0  0  0
 13 14  1  0  0  0  0
 13 23  1  0  0  0  0
 14 15  1  0  0  0  0
 14 53  1  0  0  0  0
 14 54  1  0  0  0  0
 15 16  1  0  0  0  0
 15 55  1  0  0  0  0
 15 56  1  0  0  0  0
 16 17  1  0  0  0  0
 16 22  1  0  0  0  0
 17 18  2  0  0  0  0
 17 19  1  0  0  0  0
 19 20  1  0  0  0  0
 19 21  1  0  0  0  0
 19 57  1  0  0  0  0
 20 21  1  0  0  0  0
 20 58  1  0  0  0  0
 20 59  1  0  0  0  0
 21 60  1  0  0  0  0
 21 61  1  0  0  0  0
 22 23  1  0  0  0  0
 22 62  1  0  0  0  0
 22 63  1  0  0  0  0
 23 64  1  0  0  0  0
 23 65  1  0  0  0  0
 24 25  1  0  0  0  0
 24 39  2  0  0  0  0
 25 26  2  0  0  0  0
 25 66  1  0  0  0  0
 26 27  1  0  0  0  0
 26 67  1  0  0  0  0
 27 28  1  0  0  0  0
 27 38  2  0  0  0  0
 28 29  2  0  0  0  0
 29 30  1  0  0  0  0
 29 68  1  0  0  0  0
 30 31  1  0  0  0  0
 30 37  2  0  0  0  0
 31 32  1  0  0  0  0
 31 36  2  0  0  0  0
 32 33  2  0  0  0  0
 32 69  1  0  0  0  0
 33 34  1  0  0  0  0
 34 35  1  0  0  0  0
 34 36  1  0  0  0  0
 35 70  1  0  0  0  0
 35 71  1  0  0  0  0
 35 72  1  0  0  0  0
 36 73  1  0  0  0  0
 37 38  1  0  0  0  0
 38 39  1  0  0  0  0
 39 74  1  0  0  0  0
 40 75  1  0  0  0  0
M  END
$$$$
