CHEMBL2004033
 OpenBabel04072215363D

 16 17  0  0  0  0  0  0  0  0999 V2000
    0.9647    0.0546    0.0648 O   0  0  0  0  0  0  0  0  0  0  0  0
    2.1832    0.0240    0.0652 C   0  0  0  0  0  0  0  0  0  0  0  0
    3.0324    1.1199    0.0654 N   0  0  0  0  0  0  0  0  0  0  0  0
    4.3178    0.6653    0.0644 N   0  0  0  0  0  0  0  0  0  0  0  0
    5.4844    1.3889    0.0669 C   0  0  0  0  0  0  0  0  0  0  0  0
    6.6784    0.7657    0.0688 C   0  0  0  0  0  0  0  0  0  0  0  0
    6.7127   -0.6959    0.0678 C   0  0  0  0  0  0  0  0  0  0  0  0
    5.5717   -1.4176    0.0661 C   0  0  0  0  0  0  0  0  0  0  0  0
    4.2962   -0.7235    0.0653 C   0  0  0  0  0  0  0  0  0  0  0  0
    3.0445   -1.2030    0.0654 C   0  0  0  0  0  0  0  0  0  0  0  0
    2.4017   -2.9134    0.0666 Br  0  0  0  0  0  0  0  0  0  0  0  0
    2.7730    2.0944    0.0638 H   0  0  0  0  0  0  0  0  0  0  0  0
    5.3810    2.4670    0.0672 H   0  0  0  0  0  0  0  0  0  0  0  0
    7.6131    1.3143    0.0712 H   0  0  0  0  0  0  0  0  0  0  0  0
    7.6831   -1.1819    0.0683 H   0  0  0  0  0  0  0  0  0  0  0  0
    5.5920   -2.5016    0.0655 H   0  0  0  0  0  0  0  0  0  0  0  0
  1  2  2  0  0  0  0
  2  3  1  0  0  0  0
  2 10  1  0  0  0  0
  3  4  1  0  0  0  0
  3 12  1  0  0  0  0
  4  5  1  0  0  0  0
  4  9  1  0  0  0  0
  5  6  2  0  0  0  0
  5 13  1  0  0  0  0
  6  7  1  0  0  0  0
  6 14  1  0  0  0  0
  7  8  2  0  0  0  0
  7 15  1  0  0  0  0
  8  9  1  0  0  0  0
  8 16  1  0  0  0  0
  9 10  2  0  0  0  0
 10 11  1  0  0  0  0
M  END
$$$$
