CHEMBL1085317
 OpenBabel04072215363D

 70 74  0  0  0  0  0  0  0  0999 V2000
    6.2948   -1.9528    2.4585 C   0  0  0  0  0  0  0  0  0  0  0  0
    7.4141   -1.8279    1.4263 C   0  0  0  0  0  0  0  0  0  0  0  0
    7.7641   -3.2073    0.8598 C   0  0  0  0  0  0  0  0  0  0  0  0
    7.0219   -0.9103    0.2598 C   0  0  0  0  0  0  0  0  0  0  0  0
    6.6592    0.4185    0.6560 O   0  0  0  0  0  0  0  0  0  0  0  0
    7.6060    1.3436    0.3439 C   0  0  0  0  0  0  0  0  0  0  0  0
    8.8056    1.1188    0.3827 O   0  0  0  0  0  0  0  0  0  0  0  0
    6.9763    2.4837   -0.0787 N   0  0  0  0  0  0  0  0  0  0  0  0
    7.5702    3.6010   -0.6911 C   0  0  0  0  0  0  0  0  0  0  0  0
    8.9025    3.6205   -1.1119 C   0  0  0  0  0  0  0  0  0  0  0  0
    9.4692    4.7860   -1.6356 C   0  0  0  0  0  0  0  0  0  0  0  0
    8.7053    5.9467   -1.7468 C   0  0  0  0  0  0  0  0  0  0  0  0
    9.3307    7.1997   -2.1634 C   0  0  0  0  0  0  0  0  0  0  0  0
    9.8803    8.1271   -1.1249 C   0  0  0  0  0  0  0  0  0  0  0  0
   10.4620    9.2688   -1.3296 N   0  0  0  0  0  0  0  0  0  0  0  0
   10.5689    9.6650   -2.6320 C   0  0  0  0  0  0  0  0  0  0  0  0
   11.1484   10.7793   -3.2236 C   0  0  0  0  0  0  0  0  0  0  0  0
   11.9065   11.8222   -2.5483 C   0  0  0  0  0  0  0  0  0  0  0  0
   12.6615   11.5272   -1.4088 C   0  0  0  0  0  0  0  0  0  0  0  0
   13.4781   12.4929   -0.8313 C   0  0  0  0  0  0  0  0  0  0  0  0
   13.5557   13.7644   -1.3964 C   0  0  0  0  0  0  0  0  0  0  0  0
   12.8186   14.1102   -2.5382 C   0  0  0  0  0  0  0  0  0  0  0  0
   13.0118   15.3495   -3.1257 N   0  0  0  0  0  0  0  0  0  0  0  0
   12.7545   15.5773   -4.5531 C   0  0  0  0  0  0  0  0  0  0  0  0
   13.7316   16.6564   -5.0793 C   0  0  0  0  0  0  0  0  0  0  0  0
   13.6520   17.9265   -4.3205 N   0  0  0  0  0  0  0  0  0  0  0  0
   14.6337   18.8833   -4.8267 C   0  0  0  0  0  0  0  0  0  0  0  0
   13.8856   17.6498   -2.8825 C   0  0  0  0  0  0  0  0  0  0  0  0
   12.9292   16.5749   -2.3099 C   0  0  0  0  0  0  0  0  0  0  0  0
   11.9837   13.1205   -3.0889 C   0  0  0  0  0  0  0  0  0  0  0  0
   10.8836   10.6109   -4.6041 C   0  0  0  0  0  0  0  0  0  0  0  0
   10.2272    9.4856   -4.8915 N   0  0  0  0  0  0  0  0  0  0  0  0
   10.0797    8.8719   -3.6784 N   0  0  0  0  0  0  0  0  0  0  0  0
    9.4760    7.6013   -3.4406 C   0  0  0  0  0  0  0  0  0  0  0  0
    9.0925    6.8669   -4.5610 N   0  0  0  0  0  0  0  0  0  0  0  0
    7.3494    5.9125   -1.3985 C   0  0  0  0  0  0  0  0  0  0  0  0
    6.7826    4.7401   -0.8862 C   0  0  0  0  0  0  0  0  0  0  0  0
    6.5804   -2.6480    3.2562 H   0  0  0  0  0  0  0  0  0  0  0  0
    5.3742   -2.3297    2.0002 H   0  0  0  0  0  0  0  0  0  0  0  0
    6.0755   -0.9864    2.9222 H   0  0  0  0  0  0  0  0  0  0  0  0
    8.2948   -1.4163    1.9343 H   0  0  0  0  0  0  0  0  0  0  0  0
    6.9103   -3.6406    0.3258 H   0  0  0  0  0  0  0  0  0  0  0  0
    8.0541   -3.9031    1.6534 H   0  0  0  0  0  0  0  0  0  0  0  0
    8.5979   -3.1367    0.1526 H   0  0  0  0  0  0  0  0  0  0  0  0
    6.1417   -1.3167   -0.2464 H   0  0  0  0  0  0  0  0  0  0  0  0
    7.8223   -0.8922   -0.4869 H   0  0  0  0  0  0  0  0  0  0  0  0
    5.9762    2.4814    0.0621 H   0  0  0  0  0  0  0  0  0  0  0  0
    9.5339    2.7393   -1.0451 H   0  0  0  0  0  0  0  0  0  0  0  0
   10.5166    4.7748   -1.9321 H   0  0  0  0  0  0  0  0  0  0  0  0
    9.7875    7.7712   -0.0824 H   0  0  0  0  0  0  0  0  0  0  0  0
   12.6524   10.5302   -0.9743 H   0  0  0  0  0  0  0  0  0  0  0  0
   14.0857   12.2445    0.0343 H   0  0  0  0  0  0  0  0  0  0  0  0
   14.2582   14.4733   -0.9673 H   0  0  0  0  0  0  0  0  0  0  0  0
   11.7158   15.8955   -4.7045 H   0  0  0  0  0  0  0  0  0  0  0  0
   12.9226   14.6664   -5.1396 H   0  0  0  0  0  0  0  0  0  0  0  0
   13.5047   16.8429   -6.1356 H   0  0  0  0  0  0  0  0  0  0  0  0
   14.7538   16.2543   -5.0293 H   0  0  0  0  0  0  0  0  0  0  0  0
   14.4429   19.1030   -5.8829 H   0  0  0  0  0  0  0  0  0  0  0  0
   15.6620   18.5163   -4.7323 H   0  0  0  0  0  0  0  0  0  0  0  0
   14.5560   19.8339   -4.2873 H   0  0  0  0  0  0  0  0  0  0  0  0
   13.7525   18.5738   -2.3074 H   0  0  0  0  0  0  0  0  0  0  0  0
   14.9204   17.3128   -2.7269 H   0  0  0  0  0  0  0  0  0  0  0  0
   11.8978   16.9512   -2.3254 H   0  0  0  0  0  0  0  0  0  0  0  0
   13.1893   16.4047   -1.2597 H   0  0  0  0  0  0  0  0  0  0  0  0
   11.3787   13.3658   -3.9565 H   0  0  0  0  0  0  0  0  0  0  0  0
   11.1680   11.2628   -5.4205 H   0  0  0  0  0  0  0  0  0  0  0  0
    9.0054    7.4597   -5.3931 H   0  0  0  0  0  0  0  0  0  0  0  0
    8.3136    6.2355   -4.4089 H   0  0  0  0  0  0  0  0  0  0  0  0
    6.7344    6.8043   -1.4953 H   0  0  0  0  0  0  0  0  0  0  0  0
    5.7321    4.7484   -0.6073 H   0  0  0  0  0  0  0  0  0  0  0  0
  1  2  1  0  0  0  0
  1 38  1  0  0  0  0
  1 39  1  0  0  0  0
  1 40  1  0  0  0  0
  2  3  1  0  0  0  0
  2  4  1  0  0  0  0
  2 41  1  0  0  0  0
  3 42  1  0  0  0  0
  3 43  1  0  0  0  0
  3 44  1  0  0  0  0
  4  5  1  0  0  0  0
  4 45  1  0  0  0  0
  4 46  1  0  0  0  0
  5  6  1  0  0  0  0
  6  7  2  0  0  0  0
  6  8  1  0  0  0  0
  8  9  1  0  0  0  0
  8 47  1  0  0  0  0
  9 10  1  0  0  0  0
  9 37  2  0  0  0  0
 10 11  2  0  0  0  0
 10 48  1  0  0  0  0
 11 12  1  0  0  0  0
 11 49  1  0  0  0  0
 12 13  1  0  0  0  0
 12 36  2  0  0  0  0
 13 14  1  0  0  0  0
 13 34  2  0  0  0  0
 14 15  2  0  0  0  0
 14 50  1  0  0  0  0
 15 16  1  0  0  0  0
 16 17  2  0  0  0  0
 16 33  1  0  0  0  0
 17 18  1  0  0  0  0
 17 31  1  0  0  0  0
 18 19  1  0  0  0  0
 18 30  2  0  0  0  0
 19 20  2  0  0  0  0
 19 51  1  0  0  0  0
 20 21  1  0  0  0  0
 20 52  1  0  0  0  0
 21 22  2  0  0  0  0
 21 53  1  0  0  0  0
 22 23  1  0  0  0  0
 22 30  1  0  0  0  0
 23 24  1  0  0  0  0
 23 29  1  0  0  0  0
 24 25  1  0  0  0  0
 24 54  1  0  0  0  0
 24 55  1  0  0  0  0
 25 26  1  0  0  0  0
 25 56  1  0  0  0  0
 25 57  1  0  0  0  0
 26 27  1  0  0  0  0
 26 28  1  0  0  0  0
 27 58  1  0  0  0  0
 27 59  1  0  0  0  0
 27 60  1  0  0  0  0
 28 29  1  0  0  0  0
 28 61  1  0  0  0  0
 28 62  1  0  0  0  0
 29 63  1  0  0  0  0
 29 64  1  0  0  0  0
 30 65  1  0  0  0  0
 31 32  2  0  0  0  0
 31 66  1  0  0  0  0
 32 33  1  0  0  0  0
 33 34  1  0  0  0  0
 34 35  1  0  0  0  0
 35 67  1  0  0  0  0
 35 68  1  0  0  0  0
 36 37  1  0  0  0  0
 36 69  1  0  0  0  0
 37 70  1  0  0  0  0
M  END
$$$$
