CHEMBL272688
 OpenBabel04072215363D

 53 56  0  0  0  0  0  0  0  0999 V2000
    1.8912   -2.0433   -3.6860 C   0  0  0  0  0  0  0  0  0  0  0  0
    3.2599   -1.9146   -3.2661 N   0  0  0  0  0  0  0  0  0  0  0  0
    3.5957   -1.7199   -1.9441 C   0  0  0  0  0  0  0  0  0  0  0  0
    2.7735   -1.6586   -1.0366 O   0  0  0  0  0  0  0  0  0  0  0  0
    5.0669   -1.6015   -1.6811 C   0  0  0  0  0  0  0  0  0  0  0  0
    5.5078   -1.4611   -0.3742 C   0  0  0  0  0  0  0  0  0  0  0  0
    6.8803   -1.4600   -0.1505 C   0  0  0  0  0  0  0  0  0  0  0  0
    7.4640   -1.3653    1.0918 O   0  0  0  0  0  0  0  0  0  0  0  0
    6.8603   -1.9549    2.1786 C   0  0  0  0  0  0  0  0  0  0  0  0
    7.0562   -1.3244    3.4022 C   0  0  0  0  0  0  0  0  0  0  0  0
    6.4785   -1.8432    4.5666 C   0  0  0  0  0  0  0  0  0  0  0  0
    5.6754   -2.9923    4.5346 C   0  0  0  0  0  0  0  0  0  0  0  0
    5.5283   -3.6429    3.2926 C   0  0  0  0  0  0  0  0  0  0  0  0
    6.1431   -3.1492    2.1363 C   0  0  0  0  0  0  0  0  0  0  0  0
    4.7832   -4.7826    3.0948 O   0  0  0  0  0  0  0  0  0  0  0  0
    3.8581   -5.0280    4.1531 C   0  0  0  0  0  0  0  0  0  0  0  0
    4.5400   -4.9117    5.5045 C   0  0  0  0  0  0  0  0  0  0  0  0
    5.0200   -3.5386    5.7081 N   0  0  0  0  0  0  0  0  0  0  0  0
    4.7921   -2.7581    6.8517 C   0  0  0  0  0  0  0  0  0  0  0  0
    5.0836   -1.5661    6.9130 O   0  0  0  0  0  0  0  0  0  0  0  0
    4.1772   -3.4147    7.9090 N   0  0  0  0  0  0  0  0  0  0  0  0
    3.7370   -2.8113    9.1155 C   0  0  0  0  0  0  0  0  0  0  0  0
    3.6460   -1.4298    9.3043 C   0  0  0  0  0  0  0  0  0  0  0  0
    3.3020   -0.8925   10.5477 C   0  0  0  0  0  0  0  0  0  0  0  0
    3.0101   -1.7299   11.6240 C   0  0  0  0  0  0  0  0  0  0  0  0
    2.7017   -1.1546   12.9736 C   0  0  0  0  0  0  0  0  0  0  0  0
    3.0336   -3.1144   11.4252 C   0  0  0  0  0  0  0  0  0  0  0  0
    3.3889   -3.6505   10.1799 C   0  0  0  0  0  0  0  0  0  0  0  0
    7.7517   -1.4974   -1.2337 C   0  0  0  0  0  0  0  0  0  0  0  0
    7.2175   -1.6043   -2.5085 C   0  0  0  0  0  0  0  0  0  0  0  0
    5.8934   -1.6781   -2.7640 N   0  0  0  0  0  0  0  0  0  0  0  0
    1.8634   -2.1818   -4.7679 H   0  0  0  0  0  0  0  0  0  0  0  0
    1.3475   -1.1358   -3.4084 H   0  0  0  0  0  0  0  0  0  0  0  0
    1.4374   -2.9026   -3.1839 H   0  0  0  0  0  0  0  0  0  0  0  0
    4.0252   -1.9601   -3.9336 H   0  0  0  0  0  0  0  0  0  0  0  0
    4.7913   -1.3808    0.4363 H   0  0  0  0  0  0  0  0  0  0  0  0
    7.6565   -0.4200    3.4638 H   0  0  0  0  0  0  0  0  0  0  0  0
    6.7014   -1.3233    5.4932 H   0  0  0  0  0  0  0  0  0  0  0  0
    6.0197   -3.6965    1.2072 H   0  0  0  0  0  0  0  0  0  0  0  0
    3.4739   -6.0446    4.0181 H   0  0  0  0  0  0  0  0  0  0  0  0
    3.0090   -4.3380    4.0677 H   0  0  0  0  0  0  0  0  0  0  0  0
    5.4240   -5.5626    5.5473 H   0  0  0  0  0  0  0  0  0  0  0  0
    3.8430   -5.2317    6.2779 H   0  0  0  0  0  0  0  0  0  0  0  0
    4.2491   -4.4174    7.9378 H   0  0  0  0  0  0  0  0  0  0  0  0
    3.8501   -0.7253    8.5045 H   0  0  0  0  0  0  0  0  0  0  0  0
    3.2822    0.1892   10.6615 H   0  0  0  0  0  0  0  0  0  0  0  0
    2.6888   -0.0608   12.9496 H   0  0  0  0  0  0  0  0  0  0  0  0
    3.4643   -1.4646   13.6948 H   0  0  0  0  0  0  0  0  0  0  0  0
    1.7184   -1.4946   13.3164 H   0  0  0  0  0  0  0  0  0  0  0  0
    2.7924   -3.7859   12.2463 H   0  0  0  0  0  0  0  0  0  0  0  0
    3.4090   -4.7310   10.0693 H   0  0  0  0  0  0  0  0  0  0  0  0
    8.8254   -1.4506   -1.0855 H   0  0  0  0  0  0  0  0  0  0  0  0
    7.8653   -1.6404   -3.3811 H   0  0  0  0  0  0  0  0  0  0  0  0
  1  2  1  0  0  0  0
  1 32  1  0  0  0  0
  1 33  1  0  0  0  0
  1 34  1  0  0  0  0
  2  3  1  0  0  0  0
  2 35  1  0  0  0  0
  3  4  2  0  0  0  0
  3  5  1  0  0  0  0
  5  6  1  0  0  0  0
  5 31  2  0  0  0  0
  6  7  2  0  0  0  0
  6 36  1  0  0  0  0
  7  8  1  0  0  0  0
  7 29  1  0  0  0  0
  8  9  1  0  0  0  0
  9 10  1  0  0  0  0
  9 14  2  0  0  0  0
 10 11  2  0  0  0  0
 10 37  1  0  0  0  0
 11 12  1  0  0  0  0
 11 38  1  0  0  0  0
 12 13  2  0  0  0  0
 12 18  1  0  0  0  0
 13 14  1  0  0  0  0
 13 15  1  0  0  0  0
 14 39  1  0  0  0  0
 15 16  1  0  0  0  0
 16 17  1  0  0  0  0
 16 40  1  0  0  0  0
 16 41  1  0  0  0  0
 17 18  1  0  0  0  0
 17 42  1  0  0  0  0
 17 43  1  0  0  0  0
 18 19  1  0  0  0  0
 19 20  2  0  0  0  0
 19 21  1  0  0  0  0
 21 22  1  0  0  0  0
 21 44  1  0  0  0  0
 22 23  1  0  0  0  0
 22 28  2  0  0  0  0
 23 24  2  0  0  0  0
 23 45  1  0  0  0  0
 24 25  1  0  0  0  0
 24 46  1  0  0  0  0
 25 26  1  0  0  0  0
 25 27  2  0  0  0  0
 26 47  1  0  0  0  0
 26 48  1  0  0  0  0
 26 49  1  0  0  0  0
 27 28  1  0  0  0  0
 27 50  1  0  0  0  0
 28 51  1  0  0  0  0
 29 30  2  0  0  0  0
 29 52  1  0  0  0  0
 30 31  1  0  0  0  0
 30 53  1  0  0  0  0
M  END
$$$$
