CHEMBL2018747
 OpenBabel04072215363D

 55 57  0  0  0  0  0  0  0  0999 V2000
    6.3493    2.0133   -2.8294 C   0  0  0  0  0  0  0  0  0  0  0  0
    6.9969    1.4949   -1.5574 C   0  0  0  0  0  0  0  0  0  0  0  0
    5.9672    0.8533   -0.6230 C   0  0  0  0  0  0  0  0  0  0  0  0
    6.6038    0.3207    0.6592 C   0  0  0  0  0  0  0  0  0  0  0  0
    7.3233    1.4174    1.4178 C   0  0  0  0  0  0  0  0  0  0  0  0
    8.5490    1.4838    1.4232 O   0  0  0  0  0  0  0  0  0  0  0  0
    6.4683    2.2928    2.0589 N   0  0  0  0  0  0  0  0  0  0  0  0
    6.9041    3.4419    2.7435 C   0  0  0  0  0  0  0  0  0  0  0  0
    7.8946    4.2735    2.1947 C   0  0  0  0  0  0  0  0  0  0  0  0
    8.2929    5.4446    2.8527 C   0  0  0  0  0  0  0  0  0  0  0  0
    7.7026    5.8170    4.0623 C   0  0  0  0  0  0  0  0  0  0  0  0
    8.1490    6.9632    4.7550 N   0  0  0  0  0  0  0  0  0  0  0  0
    7.3875    7.7427    5.6631 C   0  0  0  0  0  0  0  0  0  0  0  0
    6.0571    7.8185    5.4754 N   0  0  0  0  0  0  0  0  0  0  0  0
    5.3644    8.5040    6.3841 C   0  0  0  0  0  0  0  0  0  0  0  0
    5.8661    9.0965    7.4751 N   0  0  0  0  0  0  0  0  0  0  0  0
    7.1913    9.0145    7.6602 C   0  0  0  0  0  0  0  0  0  0  0  0
    7.7620    9.5089    8.8342 C   0  0  0  0  0  0  0  0  0  0  0  0
    9.1338    9.4080    9.1433 C   0  0  0  0  0  0  0  0  0  0  0  0
    9.4245    9.6682   10.4551 O   0  0  0  0  0  0  0  0  0  0  0  0
   10.2902   10.7562   10.7448 C   0  0  0  0  0  0  0  0  0  0  0  0
    9.9856    8.8382    8.1972 C   0  0  0  0  0  0  0  0  0  0  0  0
   11.3215    8.5879    8.1783 O   0  0  0  0  0  0  0  0  0  0  0  0
   12.1847    8.9029    9.2442 C   0  0  0  0  0  0  0  0  0  0  0  0
    9.4121    8.3321    7.0166 C   0  0  0  0  0  0  0  0  0  0  0  0
    8.0250    8.3705    6.7529 C   0  0  0  0  0  0  0  0  0  0  0  0
    6.7453    4.9553    4.6200 C   0  0  0  0  0  0  0  0  0  0  0  0
    6.3356    3.7740    3.9791 C   0  0  0  0  0  0  0  0  0  0  0  0
    5.3811    2.8524    4.6823 C   0  0  0  0  0  0  0  0  0  0  0  0
    7.1000    2.4949   -3.4635 H   0  0  0  0  0  0  0  0  0  0  0  0
    5.5736    2.7513   -2.6012 H   0  0  0  0  0  0  0  0  0  0  0  0
    5.8939    1.1971   -3.3973 H   0  0  0  0  0  0  0  0  0  0  0  0
    7.4944    2.3342   -1.0582 H   0  0  0  0  0  0  0  0  0  0  0  0
    7.7739    0.7650   -1.8129 H   0  0  0  0  0  0  0  0  0  0  0  0
    5.4726    0.0224   -1.1400 H   0  0  0  0  0  0  0  0  0  0  0  0
    5.1893    1.5858   -0.3767 H   0  0  0  0  0  0  0  0  0  0  0  0
    7.3248   -0.4711    0.4322 H   0  0  0  0  0  0  0  0  0  0  0  0
    5.8380   -0.1199    1.3083 H   0  0  0  0  0  0  0  0  0  0  0  0
    5.5533    1.9365    2.2988 H   0  0  0  0  0  0  0  0  0  0  0  0
    8.3470    4.0296    1.2357 H   0  0  0  0  0  0  0  0  0  0  0  0
    9.0652    6.0572    2.3977 H   0  0  0  0  0  0  0  0  0  0  0  0
    8.7900    7.5461    4.2312 H   0  0  0  0  0  0  0  0  0  0  0  0
    4.2947    8.5775    6.2207 H   0  0  0  0  0  0  0  0  0  0  0  0
    7.0854    9.9379    9.5780 H   0  0  0  0  0  0  0  0  0  0  0  0
    9.8529   11.3543   11.5511 H   0  0  0  0  0  0  0  0  0  0  0  0
   10.4953   11.4067    9.8901 H   0  0  0  0  0  0  0  0  0  0  0  0
   11.2181   10.3512   11.1580 H   0  0  0  0  0  0  0  0  0  0  0  0
   13.1710    8.4994    8.9887 H   0  0  0  0  0  0  0  0  0  0  0  0
   11.8712    8.4271   10.1759 H   0  0  0  0  0  0  0  0  0  0  0  0
   12.3186    9.9834    9.3320 H   0  0  0  0  0  0  0  0  0  0  0  0
   10.0697    7.8205    6.3136 H   0  0  0  0  0  0  0  0  0  0  0  0
    6.3321    5.1892    5.5982 H   0  0  0  0  0  0  0  0  0  0  0  0
    5.1717    3.1912    5.7023 H   0  0  0  0  0  0  0  0  0  0  0  0
    5.8254    1.8529    4.7658 H   0  0  0  0  0  0  0  0  0  0  0  0
    4.4328    2.7854    4.1430 H   0  0  0  0  0  0  0  0  0  0  0  0
  1  2  1  0  0  0  0
  1 30  1  0  0  0  0
  1 31  1  0  0  0  0
  1 32  1  0  0  0  0
  2  3  1  0  0  0  0
  2 33  1  0  0  0  0
  2 34  1  0  0  0  0
  3  4  1  0  0  0  0
  3 35  1  0  0  0  0
  3 36  1  0  0  0  0
  4  5  1  0  0  0  0
  4 37  1  0  0  0  0
  4 38  1  0  0  0  0
  5  6  2  0  0  0  0
  5  7  1  0  0  0  0
  7  8  1  0  0  0  0
  7 39  1  0  0  0  0
  8  9  1  0  0  0  0
  8 28  2  0  0  0  0
  9 10  2  0  0  0  0
  9 40  1  0  0  0  0
 10 11  1  0  0  0  0
 10 41  1  0  0  0  0
 11 12  1  0  0  0  0
 11 27  2  0  0  0  0
 12 13  1  0  0  0  0
 12 42  1  0  0  0  0
 13 14  1  0  0  0  0
 13 26  2  0  0  0  0
 14 15  2  0  0  0  0
 15 16  1  0  0  0  0
 15 43  1  0  0  0  0
 16 17  2  0  0  0  0
 17 18  1  0  0  0  0
 17 26  1  0  0  0  0
 18 19  2  0  0  0  0
 18 44  1  0  0  0  0
 19 20  1  0  0  0  0
 19 22  1  0  0  0  0
 20 21  1  0  0  0  0
 21 45  1  0  0  0  0
 21 46  1  0  0  0  0
 21 47  1  0  0  0  0
 22 23  1  0  0  0  0
 22 25  2  0  0  0  0
 23 24  1  0  0  0  0
 24 48  1  0  0  0  0
 24 49  1  0  0  0  0
 24 50  1  0  0  0  0
 25 26  1  0  0  0  0
 25 51  1  0  0  0  0
 27 28  1  0  0  0  0
 27 52  1  0  0  0  0
 28 29  1  0  0  0  0
 29 53  1  0  0  0  0
 29 54  1  0  0  0  0
 29 55  1  0  0  0  0
M  END
$$$$
