CHEMBL3899410
 OpenBabel04072215373D

 52 55  0  0  1  0  0  0  0  0999 V2000
    2.7111   -0.0785   -1.0729 C   0  0  0  0  0  0  0  0  0  0  0  0
    2.3813   -0.0984    0.3162 O   0  0  0  0  0  0  0  0  0  0  0  0
    3.1752    0.6269    1.1666 C   0  0  0  0  0  0  0  0  0  0  0  0
    4.3777    1.2260    0.7758 C   0  0  0  0  0  0  0  0  0  0  0  0
    5.0997    2.0622    1.6613 C   0  0  0  0  0  0  0  0  0  0  0  0
    6.2266    2.8178    1.3239 C   0  0  0  0  0  0  0  0  0  0  0  0
    6.6839    2.8343   -0.0223 N   0  0  0  0  0  0  0  0  0  0  0  0
    7.9878    3.2541   -0.3565 C   0  0  0  0  0  0  0  0  0  0  0  0
    9.0786    2.7136    0.3368 C   0  0  0  0  0  0  0  0  0  0  0  0
   10.3673    3.2103    0.1404 C   0  0  0  0  0  0  0  0  0  0  0  0
   10.5832    4.2453   -0.7651 C   0  0  0  0  0  0  0  0  0  0  0  0
   12.1888    4.8646   -0.8801 Cl  0  0  0  0  0  0  0  0  0  0  0  0
    9.5100    4.7489   -1.5065 C   0  0  0  0  0  0  0  0  0  0  0  0
    9.7236    6.1499   -2.7744 Br  0  0  0  0  0  0  0  0  0  0  0  0
    8.2151    4.2484   -1.3144 C   0  0  0  0  0  0  0  0  0  0  0  0
    6.8822    3.5729    2.2295 N   0  0  0  0  0  0  0  0  0  0  0  0
    6.4092    3.5790    3.4744 C   0  0  0  0  0  0  0  0  0  0  0  0
    5.3379    2.9119    3.9012 N   0  0  0  0  0  0  0  0  0  0  0  0
    4.6962    2.1755    2.9904 C   0  0  0  0  0  0  0  0  0  0  0  0
    3.5558    1.5105    3.3897 C   0  0  0  0  0  0  0  0  0  0  0  0
    2.7381    0.8025    2.4903 C   0  0  0  0  0  0  0  0  0  0  0  0
    1.5005    0.3013    2.8721 O   0  0  0  0  0  0  0  0  0  0  0  0
    0.9689    0.9685    4.0307 C   0  0  0  0  0  0  0  0  0  0  0  0
   -0.5460    0.8408    4.2376 C   0  0  3  0  0  0  0  0  0  0  0  0
   -1.3760    1.2375    3.0076 C   0  0  0  0  0  0  0  0  0  0  0  0
   -1.2271    2.6745    2.7003 N   0  0  0  0  0  0  0  0  0  0  0  0
   -2.0172    3.0277    1.5251 C   0  0  0  0  0  0  0  0  0  0  0  0
   -1.6399    3.4639    3.8768 C   0  0  0  0  0  0  0  0  0  0  0  0
   -0.8860    3.0410    5.1492 C   0  0  0  0  0  0  0  0  0  0  0  0
   -0.9645    1.6232    5.3881 O   0  0  0  0  0  0  0  0  0  0  0  0
    3.4372   -0.8664   -1.3016 H   0  0  0  0  0  0  0  0  0  0  0  0
    3.0806    0.8939   -1.4178 H   0  0  0  0  0  0  0  0  0  0  0  0
    1.7986   -0.2768   -1.6416 H   0  0  0  0  0  0  0  0  0  0  0  0
    4.7910    1.0608   -0.2119 H   0  0  0  0  0  0  0  0  0  0  0  0
    5.9647    3.2463   -0.6123 H   0  0  0  0  0  0  0  0  0  0  0  0
    8.9169    1.9266    1.0727 H   0  0  0  0  0  0  0  0  0  0  0  0
   11.1811    2.8034    0.7290 H   0  0  0  0  0  0  0  0  0  0  0  0
    7.3835    4.6682   -1.8711 H   0  0  0  0  0  0  0  0  0  0  0  0
    6.9375    4.1843    4.2020 H   0  0  0  0  0  0  0  0  0  0  0  0
    3.2941    1.6099    4.4392 H   0  0  0  0  0  0  0  0  0  0  0  0
    1.2047    2.0347    3.9667 H   0  0  0  0  0  0  0  0  0  0  0  0
    1.4562    0.5629    4.9270 H   0  0  0  0  0  0  0  0  0  0  0  0
   -0.7745   -0.2046    4.4759 H   0  0  0  0  0  0  0  0  0  0  0  0
   -2.4325    1.0158    3.2148 H   0  0  0  0  0  0  0  0  0  0  0  0
   -1.0725    0.6274    2.1495 H   0  0  0  0  0  0  0  0  0  0  0  0
   -1.6984    2.4362    0.6595 H   0  0  0  0  0  0  0  0  0  0  0  0
   -1.8625    4.0795    1.2634 H   0  0  0  0  0  0  0  0  0  0  0  0
   -3.0892    2.8608    1.6792 H   0  0  0  0  0  0  0  0  0  0  0  0
   -2.7157    3.3411    4.0542 H   0  0  0  0  0  0  0  0  0  0  0  0
   -1.4499    4.5283    3.6939 H   0  0  0  0  0  0  0  0  0  0  0  0
   -1.3227    3.5452    6.0179 H   0  0  0  0  0  0  0  0  0  0  0  0
    0.1621    3.3589    5.1133 H   0  0  0  0  0  0  0  0  0  0  0  0
  1  2  1  0  0  0  0
  1 31  1  0  0  0  0
  1 32  1  0  0  0  0
  1 33  1  0  0  0  0
  2  3  1  0  0  0  0
  3  4  1  0  0  0  0
  3 21  2  0  0  0  0
  4  5  2  0  0  0  0
  4 34  1  0  0  0  0
  5  6  1  0  0  0  0
  5 19  1  0  0  0  0
  6  7  1  0  0  0  0
  6 16  2  0  0  0  0
  7  8  1  0  0  0  0
  7 35  1  0  0  0  0
  8  9  1  0  0  0  0
  8 15  2  0  0  0  0
  9 10  2  0  0  0  0
  9 36  1  0  0  0  0
 10 11  1  0  0  0  0
 10 37  1  0  0  0  0
 11 12  1  0  0  0  0
 11 13  2  0  0  0  0
 13 14  1  0  0  0  0
 13 15  1  0  0  0  0
 15 38  1  0  0  0  0
 16 17  1  0  0  0  0
 17 18  2  0  0  0  0
 17 39  1  0  0  0  0
 18 19  1  0  0  0  0
 19 20  2  0  0  0  0
 20 21  1  0  0  0  0
 20 40  1  0  0  0  0
 21 22  1  0  0  0  0
 22 23  1  0  0  0  0
 23 24  1  0  0  0  0
 23 41  1  0  0  0  0
 23 42  1  0  0  0  0
 24 25  1  0  0  0  0
 24 30  1  0  0  0  0
 24 43  1  0  0  0  0
 25 26  1  0  0  0  0
 25 44  1  0  0  0  0
 25 45  1  0  0  0  0
 26 27  1  0  0  0  0
 26 28  1  0  0  0  0
 27 46  1  0  0  0  0
 27 47  1  0  0  0  0
 27 48  1  0  0  0  0
 28 29  1  0  0  0  0
 28 49  1  0  0  0  0
 28 50  1  0  0  0  0
 29 30  1  0  0  0  0
 29 51  1  0  0  0  0
 29 52  1  0  0  0  0
M  END
$$$$
