CHEMBL203585
 OpenBabel04072215363D

 38 40  0  0  0  0  0  0  0  0999 V2000
    1.4051    0.4451    0.4786 C   0  0  0  0  0  0  0  0  0  0  0  0
    2.6471   -0.0747   -0.2001 C   0  0  0  0  0  0  0  0  0  0  0  0
    3.0166   -1.2328   -0.0041 O   0  0  0  0  0  0  0  0  0  0  0  0
    3.3128    0.7890   -1.0457 N   0  0  0  0  0  0  0  0  0  0  0  0
    2.9244    2.1713   -1.3433 C   0  0  0  0  0  0  0  0  0  0  0  0
    2.7462    2.3976   -2.8574 C   0  0  0  0  0  0  0  0  0  0  0  0
    3.9184    1.9069   -3.5946 N   0  0  0  0  0  0  0  0  0  0  0  0
    4.6931    2.6980   -4.4144 C   0  0  0  0  0  0  0  0  0  0  0  0
    4.1865    3.8404   -5.0003 C   0  0  0  0  0  0  0  0  0  0  0  0
    4.9854    4.5836   -5.8506 C   0  0  0  0  0  0  0  0  0  0  0  0
    4.5135    5.7157   -6.5251 N   0  0  0  0  0  0  0  0  0  0  0  0
    3.2402    5.9239   -6.9295 C   0  0  0  0  0  0  0  0  0  0  0  0
    2.2012    5.1590   -6.6607 N   0  0  0  0  0  0  0  0  0  0  0  0
    1.0661    5.6280   -7.2804 C   0  0  0  0  0  0  0  0  0  0  0  0
    1.2349    6.7847   -7.9994 C   0  0  0  0  0  0  0  0  0  0  0  0
    0.2092    7.4624   -8.7148 C   0  0  0  0  0  0  0  0  0  0  0  0
   -0.6447    7.9973   -9.2888 N   0  0  0  0  0  0  0  0  0  0  0  0
    2.8647    7.2895   -7.9184 S   0  0  0  0  0  0  0  0  0  0  0  0
    6.2646    4.2539   -6.0683 N   0  0  0  0  0  0  0  0  0  0  0  0
    6.6819    3.1298   -5.4712 C   0  0  0  0  0  0  0  0  0  0  0  0
    5.9595    2.3342   -4.6685 N   0  0  0  0  0  0  0  0  0  0  0  0
    4.3301    0.5259   -3.2950 C   0  0  0  0  0  0  0  0  0  0  0  0
    4.5021    0.3306   -1.7787 C   0  0  0  0  0  0  0  0  0  0  0  0
    1.0268   -0.3112    1.1729 H   0  0  0  0  0  0  0  0  0  0  0  0
    0.6311    0.6454   -0.2675 H   0  0  0  0  0  0  0  0  0  0  0  0
    1.6298    1.3467    1.0542 H   0  0  0  0  0  0  0  0  0  0  0  0
    3.7293    2.8133   -0.9649 H   0  0  0  0  0  0  0  0  0  0  0  0
    2.0069    2.4601   -0.8273 H   0  0  0  0  0  0  0  0  0  0  0  0
    2.5518    3.4645   -3.0007 H   0  0  0  0  0  0  0  0  0  0  0  0
    1.8603    1.8564   -3.2106 H   0  0  0  0  0  0  0  0  0  0  0  0
    3.1651    4.1388   -4.8278 H   0  0  0  0  0  0  0  0  0  0  0  0
    5.2642    6.1458   -7.0514 H   0  0  0  0  0  0  0  0  0  0  0  0
    0.1397    5.0748   -7.1670 H   0  0  0  0  0  0  0  0  0  0  0  0
    7.7062    2.8270   -5.6595 H   0  0  0  0  0  0  0  0  0  0  0  0
    5.2476    0.2207   -3.8096 H   0  0  0  0  0  0  0  0  0  0  0  0
    3.5382   -0.1435   -3.6553 H   0  0  0  0  0  0  0  0  0  0  0  0
    5.3499    0.9250   -1.4180 H   0  0  0  0  0  0  0  0  0  0  0  0
    4.7171   -0.7211   -1.5667 H   0  0  0  0  0  0  0  0  0  0  0  0
  1  2  1  0  0  0  0
  1 24  1  0  0  0  0
  1 25  1  0  0  0  0
  1 26  1  0  0  0  0
  2  3  2  0  0  0  0
  2  4  1  0  0  0  0
  4  5  1  0  0  0  0
  4 23  1  0  0  0  0
  5  6  1  0  0  0  0
  5 27  1  0  0  0  0
  5 28  1  0  0  0  0
  6  7  1  0  0  0  0
  6 29  1  0  0  0  0
  6 30  1  0  0  0  0
  7  8  1  0  0  0  0
  7 22  1  0  0  0  0
  8  9  1  0  0  0  0
  8 21  2  0  0  0  0
  9 10  2  0  0  0  0
  9 31  1  0  0  0  0
 10 11  1  0  0  0  0
 10 19  1  0  0  0  0
 11 12  1  0  0  0  0
 11 32  1  0  0  0  0
 12 13  2  0  0  0  0
 12 18  1  0  0  0  0
 13 14  1  0  0  0  0
 14 15  2  0  0  0  0
 14 33  1  0  0  0  0
 15 16  1  0  0  0  0
 15 18  1  0  0  0  0
 16 17  3  0  0  0  0
 19 20  2  0  0  0  0
 20 21  1  0  0  0  0
 20 34  1  0  0  0  0
 22 23  1  0  0  0  0
 22 35  1  0  0  0  0
 22 36  1  0  0  0  0
 23 37  1  0  0  0  0
 23 38  1  0  0  0  0
M  END
$$$$
