CHEMBL3932948
 OpenBabel04072215373D

 76 80  0  0  1  0  0  0  0  0999 V2000
    2.6897    7.4448    3.6615 C   0  0  0  0  0  0  0  0  0  0  0  0
    1.5969    6.4812    3.2926 C   0  0  0  0  0  0  0  0  0  0  0  0
    1.9497    5.2237    2.7917 C   0  0  0  0  0  0  0  0  0  0  0  0
    0.9606    4.3092    2.4676 C   0  0  0  0  0  0  0  0  0  0  0  0
   -0.3833    4.6384    2.6312 C   0  0  0  0  0  0  0  0  0  0  0  0
   -1.2474    3.6419    2.4144 F   0  0  0  0  0  0  0  0  0  0  0  0
   -0.7909    5.9048    3.0897 C   0  0  0  0  0  0  0  0  0  0  0  0
   -2.1532    6.3147    3.2356 N   0  0  0  0  0  0  0  0  0  0  0  0
   -3.2382    5.7228    2.5896 C   0  0  0  0  0  0  0  0  0  0  0  0
   -3.1584    4.7831    1.8084 O   0  0  0  0  0  0  0  0  0  0  0  0
   -4.4579    6.3367    2.8713 N   0  0  0  0  0  0  0  0  0  0  0  0
   -5.6258    5.7831    2.2691 C   0  0  0  0  0  0  0  0  0  0  0  0
   -5.9335    4.4369    2.4812 C   0  0  0  0  0  0  0  0  0  0  0  0
   -7.0085    3.8417    1.8217 C   0  0  0  0  0  0  0  0  0  0  0  0
   -7.8403    4.6023    0.9972 C   0  0  0  0  0  0  0  0  0  0  0  0
   -8.9642    4.0970    0.3675 O   0  0  0  0  0  0  0  0  0  0  0  0
   -9.7034    3.1172    1.0127 C   0  0  0  0  0  0  0  0  0  0  0  0
   -9.8024    3.0307    2.4026 C   0  0  0  0  0  0  0  0  0  0  0  0
  -10.4645    1.9663    2.9725 C   0  0  0  0  0  0  0  0  0  0  0  0
  -11.1234    1.0143    2.2819 N   0  0  0  0  0  0  0  0  0  0  0  0
  -11.1146    1.1510    0.9376 C   0  0  0  0  0  0  0  0  0  0  0  0
  -11.7899    0.2774    0.0358 C   0  0  0  0  0  0  0  0  0  0  0  0
  -11.6300    0.6472   -1.2805 C   0  0  0  0  0  0  0  0  0  0  0  0
  -12.2050   -0.0181   -2.4414 C   0  0  0  0  0  0  0  0  0  0  0  0
  -12.9298   -1.0081   -2.3394 O   0  0  0  0  0  0  0  0  0  0  0  0
  -11.8868    0.5322   -3.6610 N   0  0  0  0  0  0  0  0  0  0  0  0
  -12.3915    0.0065   -4.9091 C   0  0  0  0  0  0  0  0  0  0  0  0
  -13.7299    0.6399   -5.2734 C   0  0  0  0  0  0  0  0  0  0  0  0
  -14.2866    0.0893   -6.5942 C   0  0  0  0  0  0  0  0  0  0  0  0
  -14.5050   -1.3711   -6.5839 N   0  0  0  0  0  0  0  0  0  0  0  0
  -15.4941   -1.7366   -5.5555 C   0  0  0  0  0  0  0  0  0  0  0  0
  -15.7582   -3.2357   -5.5120 C   0  0  0  0  0  0  0  0  0  0  0  0
  -16.2138   -3.7524   -6.8669 C   0  0  0  0  0  0  0  0  0  0  0  0
  -15.2098   -3.3499   -7.9551 C   0  0  3  0  0  0  0  0  0  0  0  0
  -15.7075   -3.7383   -9.3512 C   0  0  0  0  0  0  0  0  0  0  0  0
  -15.9218   -5.1391   -9.4554 O   0  0  0  0  0  0  0  0  0  0  0  0
  -14.9301   -1.8366   -7.9145 C   0  0  0  0  0  0  0  0  0  0  0  0
  -10.6417    2.0385   -1.4262 S   0  0  0  0  0  0  0  0  0  0  0  0
  -10.4334    2.1729    0.2723 C   0  0  0  0  0  0  0  0  0  0  0  0
   -7.5250    5.9441    0.7628 C   0  0  0  0  0  0  0  0  0  0  0  0
   -6.4299    6.5425    1.4127 C   0  0  0  0  0  0  0  0  0  0  0  0
    0.2275    6.8152    3.4424 C   0  0  0  0  0  0  0  0  0  0  0  0
    3.6799    7.0025    3.4879 H   0  0  0  0  0  0  0  0  0  0  0  0
    2.6320    7.7015    4.7228 H   0  0  0  0  0  0  0  0  0  0  0  0
    2.6279    8.3519    3.0541 H   0  0  0  0  0  0  0  0  0  0  0  0
    2.9933    4.9435    2.6686 H   0  0  0  0  0  0  0  0  0  0  0  0
    1.2173    3.3201    2.1046 H   0  0  0  0  0  0  0  0  0  0  0  0
   -2.3308    7.1609    3.7452 H   0  0  0  0  0  0  0  0  0  0  0  0
   -4.4212    7.3427    2.9267 H   0  0  0  0  0  0  0  0  0  0  0  0
   -5.3280    3.8311    3.1501 H   0  0  0  0  0  0  0  0  0  0  0  0
   -7.1904    2.7841    1.9903 H   0  0  0  0  0  0  0  0  0  0  0  0
   -9.3153    3.7538    3.0515 H   0  0  0  0  0  0  0  0  0  0  0  0
  -10.4705    1.8466    4.0525 H   0  0  0  0  0  0  0  0  0  0  0  0
  -12.3679   -0.5836    0.3530 H   0  0  0  0  0  0  0  0  0  0  0  0
  -11.3244    1.3732   -3.6704 H   0  0  0  0  0  0  0  0  0  0  0  0
  -12.4798   -1.0807   -4.8181 H   0  0  0  0  0  0  0  0  0  0  0  0
  -11.6422    0.2258   -5.6767 H   0  0  0  0  0  0  0  0  0  0  0  0
  -13.6180    1.7279   -5.3564 H   0  0  0  0  0  0  0  0  0  0  0  0
  -14.4474    0.4951   -4.4566 H   0  0  0  0  0  0  0  0  0  0  0  0
  -13.5771    0.3472   -7.3917 H   0  0  0  0  0  0  0  0  0  0  0  0
  -15.2241    0.6110   -6.8256 H   0  0  0  0  0  0  0  0  0  0  0  0
  -16.4353   -1.1972   -5.7244 H   0  0  0  0  0  0  0  0  0  0  0  0
  -15.1309   -1.4617   -4.5609 H   0  0  0  0  0  0  0  0  0  0  0  0
  -16.5237   -3.4431   -4.7559 H   0  0  0  0  0  0  0  0  0  0  0  0
  -14.8470   -3.7599   -5.1976 H   0  0  0  0  0  0  0  0  0  0  0  0
  -17.2045   -3.3404   -7.0972 H   0  0  0  0  0  0  0  0  0  0  0  0
  -16.3212   -4.8419   -6.8196 H   0  0  0  0  0  0  0  0  0  0  0  0
  -14.2756   -3.8942   -7.7572 H   0  0  0  0  0  0  0  0  0  0  0  0
  -14.9796   -3.4491  -10.1167 H   0  0  0  0  0  0  0  0  0  0  0  0
  -16.6528   -3.2361   -9.5838 H   0  0  0  0  0  0  0  0  0  0  0  0
  -15.0823   -5.5799   -9.2383 H   0  0  0  0  0  0  0  0  0  0  0  0
  -15.8240   -1.2888   -8.2417 H   0  0  0  0  0  0  0  0  0  0  0  0
  -14.1355   -1.6213   -8.6413 H   0  0  0  0  0  0  0  0  0  0  0  0
   -8.1250    6.5227    0.0637 H   0  0  0  0  0  0  0  0  0  0  0  0
   -6.1805    7.5717    1.1773 H   0  0  0  0  0  0  0  0  0  0  0  0
   -0.0263    7.8074    3.8108 H   0  0  0  0  0  0  0  0  0  0  0  0
  1  2  1  0  0  0  0
  1 43  1  0  0  0  0
  1 44  1  0  0  0  0
  1 45  1  0  0  0  0
  2  3  1  0  0  0  0
  2 42  2  0  0  0  0
  3  4  2  0  0  0  0
  3 46  1  0  0  0  0
  4  5  1  0  0  0  0
  4 47  1  0  0  0  0
  5  6  1  0  0  0  0
  5  7  2  0  0  0  0
  7  8  1  0  0  0  0
  7 42  1  0  0  0  0
  8  9  1  0  0  0  0
  8 48  1  0  0  0  0
  9 10  2  0  0  0  0
  9 11  1  0  0  0  0
 11 12  1  0  0  0  0
 11 49  1  0  0  0  0
 12 13  1  0  0  0  0
 12 41  2  0  0  0  0
 13 14  2  0  0  0  0
 13 50  1  0  0  0  0
 14 15  1  0  0  0  0
 14 51  1  0  0  0  0
 15 16  1  0  0  0  0
 15 40  2  0  0  0  0
 16 17  1  0  0  0  0
 17 18  1  0  0  0  0
 17 39  2  0  0  0  0
 18 19  2  0  0  0  0
 18 52  1  0  0  0  0
 19 20  1  0  0  0  0
 19 53  1  0  0  0  0
 20 21  2  0  0  0  0
 21 22  1  0  0  0  0
 21 39  1  0  0  0  0
 22 23  2  0  0  0  0
 22 54  1  0  0  0  0
 23 24  1  0  0  0  0
 23 38  1  0  0  0  0
 24 25  2  0  0  0  0
 24 26  1  0  0  0  0
 26 27  1  0  0  0  0
 26 55  1  0  0  0  0
 27 28  1  0  0  0  0
 27 56  1  0  0  0  0
 27 57  1  0  0  0  0
 28 29  1  0  0  0  0
 28 58  1  0  0  0  0
 28 59  1  0  0  0  0
 29 30  1  0  0  0  0
 29 60  1  0  0  0  0
 29 61  1  0  0  0  0
 30 31  1  0  0  0  0
 30 37  1  0  0  0  0
 31 32  1  0  0  0  0
 31 62  1  0  0  0  0
 31 63  1  0  0  0  0
 32 33  1  0  0  0  0
 32 64  1  0  0  0  0
 32 65  1  0  0  0  0
 33 34  1  0  0  0  0
 33 66  1  0  0  0  0
 33 67  1  0  0  0  0
 34 35  1  0  0  0  0
 34 37  1  0  0  0  0
 34 68  1  0  0  0  0
 35 36  1  0  0  0  0
 35 69  1  0  0  0  0
 35 70  1  0  0  0  0
 36 71  1  0  0  0  0
 37 72  1  0  0  0  0
 37 73  1  0  0  0  0
 38 39  1  0  0  0  0
 40 41  1  0  0  0  0
 40 74  1  0  0  0  0
 41 75  1  0  0  0  0
 42 76  1  0  0  0  0
M  END
$$$$
