CHEMBL3696075
 OpenBabel04072215373D

 69 72  0  0  0  0  0  0  0  0999 V2000
    1.0683   -0.1218   -0.0810 N   0  0  0  0  0  0  0  0  0  0  0  0
    2.4251    0.0497   -0.0912 C   0  0  0  0  0  0  0  0  0  0  0  0
    2.9553    0.5474   -1.0762 O   0  0  0  0  0  0  0  0  0  0  0  0
    3.1319   -0.2855    1.1470 C   0  0  0  0  0  0  0  0  0  0  0  0
    4.2670    0.4531    1.7071 C   0  0  0  0  0  0  0  0  0  0  0  0
    4.7974    1.7154    1.1580 C   0  0  0  0  0  0  0  0  0  0  0  0
    3.8725    2.6457    0.6911 C   0  0  0  0  0  0  0  0  0  0  0  0
    4.2732    3.7360   -0.0673 C   0  0  0  0  0  0  0  0  0  0  0  0
    5.6156    3.9947   -0.3069 C   0  0  0  0  0  0  0  0  0  0  0  0
    6.0296    5.0663   -1.1524 N   0  0  0  0  0  0  0  0  0  0  0  0
    5.1695    5.9324   -1.8122 C   0  0  0  0  0  0  0  0  0  0  0  0
    3.9434    5.9324   -1.7224 O   0  0  0  0  0  0  0  0  0  0  0  0
    5.8259    6.8374   -2.6364 N   0  0  0  0  0  0  0  0  0  0  0  0
    5.0311    7.7690   -3.3597 C   0  0  0  0  0  0  0  0  0  0  0  0
    4.0892    8.5853   -2.7081 C   0  0  0  0  0  0  0  0  0  0  0  0
    3.2440    9.4331   -3.4306 C   0  0  0  0  0  0  0  0  0  0  0  0
    2.2306   10.3151   -2.7314 C   0  0  0  0  0  0  0  0  0  0  0  0
    2.2549   10.2044   -1.3752 F   0  0  0  0  0  0  0  0  0  0  0  0
    2.4340   11.6357   -2.9996 F   0  0  0  0  0  0  0  0  0  0  0  0
    0.9516   10.0514   -3.1094 F   0  0  0  0  0  0  0  0  0  0  0  0
    3.3352    9.4489   -4.8367 C   0  0  0  0  0  0  0  0  0  0  0  0
    4.2718    8.6427   -5.4922 C   0  0  0  0  0  0  0  0  0  0  0  0
    5.1213    7.8300   -4.7527 C   0  0  0  0  0  0  0  0  0  0  0  0
    5.9933    7.0305   -5.3932 F   0  0  0  0  0  0  0  0  0  0  0  0
    6.5661    3.1538    0.2846 C   0  0  0  0  0  0  0  0  0  0  0  0
    6.1557    2.0105    1.0154 C   0  0  0  0  0  0  0  0  0  0  0  0
    4.7599   -0.0297    2.8532 N   0  0  0  0  0  0  0  0  0  0  0  0
    3.8064   -1.2841    3.3684 S   0  0  0  0  0  0  0  0  0  0  0  0
    2.7737   -1.2954    2.0217 C   0  0  0  0  0  0  0  0  0  0  0  0
    1.7890   -2.2787    2.0011 N   0  0  0  0  0  0  0  0  0  0  0  0
    1.7266   -3.0898    0.8902 C   0  0  0  0  0  0  0  0  0  0  0  0
    2.4484   -2.9976   -0.0977 O   0  0  0  0  0  0  0  0  0  0  0  0
    0.7315   -4.0443    0.9985 N   0  0  0  0  0  0  0  0  0  0  0  0
    0.4351   -4.8371   -0.1788 C   0  0  0  0  0  0  0  0  0  0  0  0
   -0.2776   -6.1493    0.1256 C   0  0  0  0  0  0  0  0  0  0  0  0
   -0.3965   -6.9231   -1.1928 C   0  0  0  0  0  0  0  0  0  0  0  0
   -1.0030   -8.2621   -1.1187 N   0  0  0  0  0  0  0  0  0  0  0  0
   -0.2920   -9.1942   -0.2169 C   0  0  0  0  0  0  0  0  0  0  0  0
    1.1100   -9.5965   -0.7099 C   0  0  0  0  0  0  0  0  0  0  0  0
    1.0767  -10.1386   -2.0379 O   0  0  0  0  0  0  0  0  0  0  0  0
    0.4363   -9.2437   -2.9548 C   0  0  0  0  0  0  0  0  0  0  0  0
   -0.9842   -8.8847   -2.4733 C   0  0  0  0  0  0  0  0  0  0  0  0
    0.5949    0.0533   -0.9571 H   0  0  0  0  0  0  0  0  0  0  0  0
    0.6125   -0.6921    0.6136 H   0  0  0  0  0  0  0  0  0  0  0  0
    2.8031    2.5024    0.8222 H   0  0  0  0  0  0  0  0  0  0  0  0
    3.4670    4.3227   -0.4882 H   0  0  0  0  0  0  0  0  0  0  0  0
    7.0219    5.2080   -1.2694 H   0  0  0  0  0  0  0  0  0  0  0  0
    6.5816    6.4206   -3.1679 H   0  0  0  0  0  0  0  0  0  0  0  0
    4.0040    8.5400   -1.6220 H   0  0  0  0  0  0  0  0  0  0  0  0
    2.6663   10.0795   -5.4248 H   0  0  0  0  0  0  0  0  0  0  0  0
    4.3260    8.6320   -6.5751 H   0  0  0  0  0  0  0  0  0  0  0  0
    7.6301    3.3377    0.1715 H   0  0  0  0  0  0  0  0  0  0  0  0
    6.9071    1.3396    1.4345 H   0  0  0  0  0  0  0  0  0  0  0  0
    1.6176   -2.7536    2.8746 H   0  0  0  0  0  0  0  0  0  0  0  0
   -0.0293   -3.8518    1.6345 H   0  0  0  0  0  0  0  0  0  0  0  0
    1.3776   -5.0508   -0.6970 H   0  0  0  0  0  0  0  0  0  0  0  0
   -0.1684   -4.2157   -0.8519 H   0  0  0  0  0  0  0  0  0  0  0  0
   -1.2648   -5.9672    0.5641 H   0  0  0  0  0  0  0  0  0  0  0  0
    0.3140   -6.7057    0.8600 H   0  0  0  0  0  0  0  0  0  0  0  0
    0.6037   -6.9688   -1.6319 H   0  0  0  0  0  0  0  0  0  0  0  0
   -1.0048   -6.3189   -1.8773 H   0  0  0  0  0  0  0  0  0  0  0  0
   -0.9037  -10.1033   -0.1415 H   0  0  0  0  0  0  0  0  0  0  0  0
   -0.2416   -8.7980    0.8020 H   0  0  0  0  0  0  0  0  0  0  0  0
    1.5139  -10.3749   -0.0545 H   0  0  0  0  0  0  0  0  0  0  0  0
    1.8056   -8.7504   -0.6798 H   0  0  0  0  0  0  0  0  0  0  0  0
    0.3865   -9.7373   -3.9290 H   0  0  0  0  0  0  0  0  0  0  0  0
    1.0672   -8.3560   -3.0905 H   0  0  0  0  0  0  0  0  0  0  0  0
   -1.5772   -9.8081   -2.4263 H   0  0  0  0  0  0  0  0  0  0  0  0
   -1.4847   -8.2349   -3.2003 H   0  0  0  0  0  0  0  0  0  0  0  0
  1  2  1  0  0  0  0
  1 43  1  0  0  0  0
  1 44  1  0  0  0  0
  2  3  2  0  0  0  0
  2  4  1  0  0  0  0
  4  5  1  0  0  0  0
  4 29  2  0  0  0  0
  5  6  1  0  0  0  0
  5 27  2  0  0  0  0
  6  7  1  0  0  0  0
  6 26  2  0  0  0  0
  7  8  2  0  0  0  0
  7 45  1  0  0  0  0
  8  9  1  0  0  0  0
  8 46  1  0  0  0  0
  9 10  1  0  0  0  0
  9 25  2  0  0  0  0
 10 11  1  0  0  0  0
 10 47  1  0  0  0  0
 11 12  2  0  0  0  0
 11 13  1  0  0  0  0
 13 14  1  0  0  0  0
 13 48  1  0  0  0  0
 14 15  1  0  0  0  0
 14 23  2  0  0  0  0
 15 16  2  0  0  0  0
 15 49  1  0  0  0  0
 16 17  1  0  0  0  0
 16 21  1  0  0  0  0
 17 18  1  0  0  0  0
 17 19  1  0  0  0  0
 17 20  1  0  0  0  0
 21 22  2  0  0  0  0
 21 50  1  0  0  0  0
 22 23  1  0  0  0  0
 22 51  1  0  0  0  0
 23 24  1  0  0  0  0
 25 26  1  0  0  0  0
 25 52  1  0  0  0  0
 26 53  1  0  0  0  0
 27 28  1  0  0  0  0
 28 29  1  0  0  0  0
 29 30  1  0  0  0  0
 30 31  1  0  0  0  0
 30 54  1  0  0  0  0
 31 32  2  0  0  0  0
 31 33  1  0  0  0  0
 33 34  1  0  0  0  0
 33 55  1  0  0  0  0
 34 35  1  0  0  0  0
 34 56  1  0  0  0  0
 34 57  1  0  0  0  0
 35 36  1  0  0  0  0
 35 58  1  0  0  0  0
 35 59  1  0  0  0  0
 36 37  1  0  0  0  0
 36 60  1  0  0  0  0
 36 61  1  0  0  0  0
 37 38  1  0  0  0  0
 37 42  1  0  0  0  0
 38 39  1  0  0  0  0
 38 62  1  0  0  0  0
 38 63  1  0  0  0  0
 39 40  1  0  0  0  0
 39 64  1  0  0  0  0
 39 65  1  0  0  0  0
 40 41  1  0  0  0  0
 41 42  1  0  0  0  0
 41 66  1  0  0  0  0
 41 67  1  0  0  0  0
 42 68  1  0  0  0  0
 42 69  1  0  0  0  0
M  END
$$$$
