CHEMBL1242847
 OpenBabel04072215363D

 38 40  0  0  0  0  0  0  0  0999 V2000
    1.5937    0.7832    1.2561 C   0  0  0  0  0  0  0  0  0  0  0  0
    2.3267    0.2668    0.1545 O   0  0  0  0  0  0  0  0  0  0  0  0
    3.0723    1.1553   -0.5667 C   0  0  0  0  0  0  0  0  0  0  0  0
    3.1292    2.5372   -0.3862 C   0  0  0  0  0  0  0  0  0  0  0  0
    3.8749    3.3354   -1.2701 C   0  0  0  0  0  0  0  0  0  0  0  0
    4.5798    2.7574   -2.3331 C   0  0  0  0  0  0  0  0  0  0  0  0
    5.2114    3.5849   -3.3704 C   0  0  0  0  0  0  0  0  0  0  0  0
    5.7499    4.7854   -3.0729 N   0  0  0  0  0  0  0  0  0  0  0  0
    6.2319    5.2385   -4.2556 N   0  0  0  0  0  0  0  0  0  0  0  0
    6.8791    6.5431   -4.3452 C   0  0  0  0  0  0  0  0  0  0  0  0
    5.9312    7.6830   -3.9770 C   0  0  0  0  0  0  0  0  0  0  0  0
    8.1588    6.5952   -3.5066 C   0  0  0  0  0  0  0  0  0  0  0  0
    6.0104    4.3814   -5.2987 C   0  0  0  0  0  0  0  0  0  0  0  0
    6.3830    4.5546   -6.5783 N   0  0  0  0  0  0  0  0  0  0  0  0
    5.9882    3.5320   -7.3509 C   0  0  0  0  0  0  0  0  0  0  0  0
    5.2736    2.4508   -6.9860 N   0  0  0  0  0  0  0  0  0  0  0  0
    4.9060    2.3252   -5.6970 C   0  0  0  0  0  0  0  0  0  0  0  0
    4.1212    1.2177   -5.4072 N   0  0  0  0  0  0  0  0  0  0  0  0
    5.3084    3.3080   -4.7757 C   0  0  0  0  0  0  0  0  0  0  0  0
    4.6164    1.3618   -2.4198 C   0  0  0  0  0  0  0  0  0  0  0  0
    3.8329    0.5720   -1.5756 C   0  0  0  0  0  0  0  0  0  0  0  0
    1.0712   -0.0550    1.7278 H   0  0  0  0  0  0  0  0  0  0  0  0
    0.8381    1.5046    0.9291 H   0  0  0  0  0  0  0  0  0  0  0  0
    2.2665    1.2198    2.0001 H   0  0  0  0  0  0  0  0  0  0  0  0
    2.5869    3.0303    0.4139 H   0  0  0  0  0  0  0  0  0  0  0  0
    3.8790    4.4155   -1.1350 H   0  0  0  0  0  0  0  0  0  0  0  0
    7.1710    6.6832   -5.3934 H   0  0  0  0  0  0  0  0  0  0  0  0
    5.5801    7.6019   -2.9429 H   0  0  0  0  0  0  0  0  0  0  0  0
    5.0515    7.6835   -4.6301 H   0  0  0  0  0  0  0  0  0  0  0  0
    6.4293    8.6531   -4.0881 H   0  0  0  0  0  0  0  0  0  0  0  0
    7.9466    6.4737   -2.4395 H   0  0  0  0  0  0  0  0  0  0  0  0
    8.6692    7.5552   -3.6422 H   0  0  0  0  0  0  0  0  0  0  0  0
    8.8520    5.8012   -3.8043 H   0  0  0  0  0  0  0  0  0  0  0  0
    6.2699    3.5817   -8.3974 H   0  0  0  0  0  0  0  0  0  0  0  0
    3.7942    0.7788   -6.2609 H   0  0  0  0  0  0  0  0  0  0  0  0
    3.4082    1.3744   -4.7039 H   0  0  0  0  0  0  0  0  0  0  0  0
    5.2216    0.8637   -3.1722 H   0  0  0  0  0  0  0  0  0  0  0  0
    3.8087   -0.5043   -1.7230 H   0  0  0  0  0  0  0  0  0  0  0  0
  1  2  1  0  0  0  0
  1 22  1  0  0  0  0
  1 23  1  0  0  0  0
  1 24  1  0  0  0  0
  2  3  1  0  0  0  0
  3  4  1  0  0  0  0
  3 21  2  0  0  0  0
  4  5  2  0  0  0  0
  4 25  1  0  0  0  0
  5  6  1  0  0  0  0
  5 26  1  0  0  0  0
  6  7  1  0  0  0  0
  6 20  2  0  0  0  0
  7  8  2  0  0  0  0
  7 19  1  0  0  0  0
  8  9  1  0  0  0  0
  9 10  1  0  0  0  0
  9 13  1  0  0  0  0
 10 11  1  0  0  0  0
 10 12  1  0  0  0  0
 10 27  1  0  0  0  0
 11 28  1  0  0  0  0
 11 29  1  0  0  0  0
 11 30  1  0  0  0  0
 12 31  1  0  0  0  0
 12 32  1  0  0  0  0
 12 33  1  0  0  0  0
 13 14  1  0  0  0  0
 13 19  2  0  0  0  0
 14 15  2  0  0  0  0
 15 16  1  0  0  0  0
 15 34  1  0  0  0  0
 16 17  2  0  0  0  0
 17 18  1  0  0  0  0
 17 19  1  0  0  0  0
 18 35  1  0  0  0  0
 18 36  1  0  0  0  0
 20 21  1  0  0  0  0
 20 37  1  0  0  0  0
 21 38  1  0  0  0  0
M  END
$$$$
