CHEMBL3703197
 OpenBabel04072215373D

 61 65  0  0  0  0  0  0  0  0999 V2000
    5.7634   -1.0829    0.4308 C   0  0  0  0  0  0  0  0  0  0  0  0
    4.4961   -0.5988   -0.2090 C   0  0  0  0  0  0  0  0  0  0  0  0
    3.3105   -1.2435   -0.2755 C   0  0  0  0  0  0  0  0  0  0  0  0
    2.9595   -2.6299    0.1026 C   0  0  0  0  0  0  0  0  0  0  0  0
    3.8048   -3.3452    0.6305 O   0  0  0  0  0  0  0  0  0  0  0  0
    1.6766   -3.0253   -0.2499 N   0  0  0  0  0  0  0  0  0  0  0  0
    1.1206   -4.3128   -0.0632 C   0  0  0  0  0  0  0  0  0  0  0  0
    1.7346   -5.2884    0.7205 C   0  0  0  0  0  0  0  0  0  0  0  0
    1.1918   -6.5684    0.8350 C   0  0  0  0  0  0  0  0  0  0  0  0
   -0.0283   -6.8780    0.2336 C   0  0  0  0  0  0  0  0  0  0  0  0
   -0.6454   -8.1098    0.3581 O   0  0  0  0  0  0  0  0  0  0  0  0
   -0.4954   -8.8023    1.5469 C   0  0  0  0  0  0  0  0  0  0  0  0
   -0.4598   -8.1693    2.7828 C   0  0  0  0  0  0  0  0  0  0  0  0
   -0.2064   -8.9409    3.8944 C   0  0  0  0  0  0  0  0  0  0  0  0
   -0.0692  -10.2766    3.8474 N   0  0  0  0  0  0  0  0  0  0  0  0
   -0.1904  -10.9024    2.6637 C   0  0  0  0  0  0  0  0  0  0  0  0
   -0.1082  -12.3021    2.6199 N   0  0  0  0  0  0  0  0  0  0  0  0
    0.1611  -13.0947    3.7172 C   0  0  0  0  0  0  0  0  0  0  0  0
    0.4126  -12.7346    4.8572 O   0  0  0  0  0  0  0  0  0  0  0  0
    0.0872  -14.5647    3.4254 C   0  0  0  0  0  0  0  0  0  0  0  0
   -0.9288  -15.4078    4.1604 C   0  0  0  0  0  0  0  0  0  0  0  0
    0.5289  -15.5698    4.4731 C   0  0  0  0  0  0  0  0  0  0  0  0
   -0.4032  -10.1990    1.4842 C   0  0  0  0  0  0  0  0  0  0  0  0
   -0.6525   -5.9149   -0.5603 C   0  0  0  0  0  0  0  0  0  0  0  0
   -0.0855   -4.6331   -0.7014 C   0  0  0  0  0  0  0  0  0  0  0  0
    2.3517   -0.2212   -0.7542 C   0  0  0  0  0  0  0  0  0  0  0  0
    1.1725   -0.4601   -0.9779 O   0  0  0  0  0  0  0  0  0  0  0  0
    3.0620    0.9730   -0.8954 N   0  0  0  0  0  0  0  0  0  0  0  0
    2.5268    2.0848   -1.5643 C   0  0  0  0  0  0  0  0  0  0  0  0
    1.3548    2.6490   -1.0446 C   0  0  0  0  0  0  0  0  0  0  0  0
    0.7631    3.7485   -1.6601 C   0  0  0  0  0  0  0  0  0  0  0  0
    1.3214    4.2691   -2.8238 C   0  0  0  0  0  0  0  0  0  0  0  0
    2.4808    3.7025   -3.3586 C   0  0  0  0  0  0  0  0  0  0  0  0
    3.0974    2.6216   -2.7206 C   0  0  0  0  0  0  0  0  0  0  0  0
    4.4317    0.6894   -0.7711 N   0  0  0  0  0  0  0  0  0  0  0  0
    5.3394    1.7657   -0.3798 C   0  0  0  0  0  0  0  0  0  0  0  0
    5.7440   -2.1346    0.7178 H   0  0  0  0  0  0  0  0  0  0  0  0
    5.9472   -0.5120    1.3497 H   0  0  0  0  0  0  0  0  0  0  0  0
    6.6198   -0.9445   -0.2344 H   0  0  0  0  0  0  0  0  0  0  0  0
    1.1000   -2.3473   -0.7521 H   0  0  0  0  0  0  0  0  0  0  0  0
    2.6418   -5.0871    1.2798 H   0  0  0  0  0  0  0  0  0  0  0  0
    1.7351   -7.2987    1.4280 H   0  0  0  0  0  0  0  0  0  0  0  0
   -0.5755   -7.0961    2.8920 H   0  0  0  0  0  0  0  0  0  0  0  0
   -0.0934   -8.5006    4.8802 H   0  0  0  0  0  0  0  0  0  0  0  0
   -0.2768  -12.7497    1.7328 H   0  0  0  0  0  0  0  0  0  0  0  0
    0.3107  -14.8442    2.4004 H   0  0  0  0  0  0  0  0  0  0  0  0
   -1.4233  -16.2055    3.6203 H   0  0  0  0  0  0  0  0  0  0  0  0
   -1.5473  -14.9277    4.9124 H   0  0  0  0  0  0  0  0  0  0  0  0
    1.0254  -16.4749    4.1443 H   0  0  0  0  0  0  0  0  0  0  0  0
    0.8855  -15.2005    5.4304 H   0  0  0  0  0  0  0  0  0  0  0  0
   -0.4853  -10.7002    0.5261 H   0  0  0  0  0  0  0  0  0  0  0  0
   -1.5821   -6.1512   -1.0727 H   0  0  0  0  0  0  0  0  0  0  0  0
   -0.5903   -3.9054   -1.3328 H   0  0  0  0  0  0  0  0  0  0  0  0
    0.9112    2.2450   -0.1368 H   0  0  0  0  0  0  0  0  0  0  0  0
   -0.1336    4.1882   -1.2326 H   0  0  0  0  0  0  0  0  0  0  0  0
    0.8459    5.1120   -3.3187 H   0  0  0  0  0  0  0  0  0  0  0  0
    2.8945    4.0974   -4.2833 H   0  0  0  0  0  0  0  0  0  0  0  0
    3.9827    2.1718   -3.1616 H   0  0  0  0  0  0  0  0  0  0  0  0
    5.0703    2.7285   -0.8216 H   0  0  0  0  0  0  0  0  0  0  0  0
    6.3522    1.5338   -0.7298 H   0  0  0  0  0  0  0  0  0  0  0  0
    5.3677    1.8866    0.7077 H   0  0  0  0  0  0  0  0  0  0  0  0
  1  2  1  0  0  0  0
  1 37  1  0  0  0  0
  1 38  1  0  0  0  0
  1 39  1  0  0  0  0
  2  3  2  0  0  0  0
  2 35  1  0  0  0  0
  3  4  1  0  0  0  0
  3 26  1  0  0  0  0
  4  5  2  0  0  0  0
  4  6  1  0  0  0  0
  6  7  1  0  0  0  0
  6 40  1  0  0  0  0
  7  8  1  0  0  0  0
  7 25  2  0  0  0  0
  8  9  2  0  0  0  0
  8 41  1  0  0  0  0
  9 10  1  0  0  0  0
  9 42  1  0  0  0  0
 10 11  1  0  0  0  0
 10 24  2  0  0  0  0
 11 12  1  0  0  0  0
 12 13  1  0  0  0  0
 12 23  2  0  0  0  0
 13 14  2  0  0  0  0
 13 43  1  0  0  0  0
 14 15  1  0  0  0  0
 14 44  1  0  0  0  0
 15 16  2  0  0  0  0
 16 17  1  0  0  0  0
 16 23  1  0  0  0  0
 17 18  1  0  0  0  0
 17 45  1  0  0  0  0
 18 19  2  0  0  0  0
 18 20  1  0  0  0  0
 20 21  1  0  0  0  0
 20 22  1  0  0  0  0
 20 46  1  0  0  0  0
 21 22  1  0  0  0  0
 21 47  1  0  0  0  0
 21 48  1  0  0  0  0
 22 49  1  0  0  0  0
 22 50  1  0  0  0  0
 23 51  1  0  0  0  0
 24 25  1  0  0  0  0
 24 52  1  0  0  0  0
 25 53  1  0  0  0  0
 26 27  2  0  0  0  0
 26 28  1  0  0  0  0
 28 29  1  0  0  0  0
 28 35  1  0  0  0  0
 29 30  1  0  0  0  0
 29 34  2  0  0  0  0
 30 31  2  0  0  0  0
 30 54  1  0  0  0  0
 31 32  1  0  0  0  0
 31 55  1  0  0  0  0
 32 33  2  0  0  0  0
 32 56  1  0  0  0  0
 33 34  1  0  0  0  0
 33 57  1  0  0  0  0
 34 58  1  0  0  0  0
 35 36  1  0  0  0  0
 36 59  1  0  0  0  0
 36 60  1  0  0  0  0
 36 61  1  0  0  0  0
M  END
$$$$
