CHEMBL302279
 OpenBabel04072215363D

 54 58  0  0  0  0  0  0  0  0999 V2000
    1.0279    0.3051   -0.3209 N   0  0  0  0  0  0  0  0  0  0  0  0
    2.3837    0.0893   -0.1852 C   0  0  0  0  0  0  0  0  0  0  0  0
    3.1240    1.2127   -0.1106 N   0  0  0  0  0  0  0  0  0  0  0  0
    4.4565    1.0997   -0.0378 C   0  0  0  0  0  0  0  0  0  0  0  0
    5.1816   -0.0214   -0.0101 N   0  0  0  0  0  0  0  0  0  0  0  0
    4.4162   -1.1278   -0.0469 C   0  0  0  0  0  0  0  0  0  0  0  0
    3.0337   -1.1650   -0.1212 C   0  0  0  0  0  0  0  0  0  0  0  0
    2.6651   -2.5561   -0.0938 C   0  0  0  0  0  0  0  0  0  0  0  0
    1.3293   -3.1450   -0.0720 C   0  0  0  0  0  0  0  0  0  0  0  0
    1.0075   -4.2296   -0.8949 C   0  0  0  0  0  0  0  0  0  0  0  0
   -0.2580   -4.8087   -0.8412 C   0  0  0  0  0  0  0  0  0  0  0  0
   -1.2220   -4.2954    0.0245 C   0  0  0  0  0  0  0  0  0  0  0  0
   -2.4771   -4.8412    0.1763 O   0  0  0  0  0  0  0  0  0  0  0  0
   -2.5749   -6.2167    0.2065 C   0  0  0  0  0  0  0  0  0  0  0  0
   -1.5992   -7.0566    0.7409 C   0  0  0  0  0  0  0  0  0  0  0  0
   -1.7352   -8.4410    0.6365 C   0  0  0  0  0  0  0  0  0  0  0  0
   -2.8832   -8.9813    0.0595 C   0  0  0  0  0  0  0  0  0  0  0  0
   -3.9008   -8.1432   -0.4010 C   0  0  0  0  0  0  0  0  0  0  0  0
   -3.7483   -6.7586   -0.3276 C   0  0  0  0  0  0  0  0  0  0  0  0
   -0.9482   -3.1602    0.7842 C   0  0  0  0  0  0  0  0  0  0  0  0
    0.3407   -2.6265    0.7769 C   0  0  0  0  0  0  0  0  0  0  0  0
    3.8415   -3.3124   -0.0202 C   0  0  0  0  0  0  0  0  0  0  0  0
    4.0458   -4.7904    0.0956 C   0  0  0  0  0  0  0  0  0  0  0  0
    4.6463   -5.2317   -1.1126 O   0  0  0  0  0  0  0  0  0  0  0  0
    4.9047   -2.4170   -0.0150 N   0  0  0  0  0  0  0  0  0  0  0  0
    6.3172   -2.7657    0.0285 C   0  0  0  0  0  0  0  0  0  0  0  0
    7.0944   -2.2349    1.2368 C   0  0  0  0  0  0  0  0  0  0  0  0
    8.5632   -2.3286    0.8240 C   0  0  0  0  0  0  0  0  0  0  0  0
    8.5845   -2.4775   -0.6980 C   0  0  0  0  0  0  0  0  0  0  0  0
    7.1460   -2.2843   -1.1635 C   0  0  0  0  0  0  0  0  0  0  0  0
    0.7445    1.2370   -0.0492 H   0  0  0  0  0  0  0  0  0  0  0  0
    0.3732   -0.4495   -0.2240 H   0  0  0  0  0  0  0  0  0  0  0  0
    5.0110    2.0315    0.0005 H   0  0  0  0  0  0  0  0  0  0  0  0
    1.7407   -4.6573   -1.5709 H   0  0  0  0  0  0  0  0  0  0  0  0
   -0.4662   -5.6823   -1.4533 H   0  0  0  0  0  0  0  0  0  0  0  0
   -0.7069   -6.6523    1.2108 H   0  0  0  0  0  0  0  0  0  0  0  0
   -0.9437   -9.0911    0.9963 H   0  0  0  0  0  0  0  0  0  0  0  0
   -2.9907  -10.0591   -0.0228 H   0  0  0  0  0  0  0  0  0  0  0  0
   -4.8047   -8.5679   -0.8267 H   0  0  0  0  0  0  0  0  0  0  0  0
   -4.5310   -6.1040   -0.6984 H   0  0  0  0  0  0  0  0  0  0  0  0
   -1.7213   -2.7179    1.4057 H   0  0  0  0  0  0  0  0  0  0  0  0
    0.5620   -1.7968    1.4450 H   0  0  0  0  0  0  0  0  0  0  0  0
    3.1223   -5.3531    0.2476 H   0  0  0  0  0  0  0  0  0  0  0  0
    4.7054   -5.0396    0.9315 H   0  0  0  0  0  0  0  0  0  0  0  0
    3.9967   -5.1065   -1.8207 H   0  0  0  0  0  0  0  0  0  0  0  0
    6.3966   -3.8576    0.0568 H   0  0  0  0  0  0  0  0  0  0  0  0
    6.8883   -2.8154    2.1422 H   0  0  0  0  0  0  0  0  0  0  0  0
    6.8536   -1.1923    1.4664 H   0  0  0  0  0  0  0  0  0  0  0  0
    9.0443   -3.1941    1.2933 H   0  0  0  0  0  0  0  0  0  0  0  0
    9.1137   -1.4378    1.1449 H   0  0  0  0  0  0  0  0  0  0  0  0
    8.9348   -3.4817   -0.9646 H   0  0  0  0  0  0  0  0  0  0  0  0
    9.2624   -1.7590   -1.1696 H   0  0  0  0  0  0  0  0  0  0  0  0
    6.9301   -2.8526   -2.0739 H   0  0  0  0  0  0  0  0  0  0  0  0
    6.9759   -1.2267   -1.3897 H   0  0  0  0  0  0  0  0  0  0  0  0
  1  2  1  0  0  0  0
  1 31  1  0  0  0  0
  1 32  1  0  0  0  0
  2  3  1  0  0  0  0
  2  7  2  0  0  0  0
  3  4  2  0  0  0  0
  4  5  1  0  0  0  0
  4 33  1  0  0  0  0
  5  6  2  0  0  0  0
  6  7  1  0  0  0  0
  6 25  1  0  0  0  0
  7  8  1  0  0  0  0
  8  9  1  0  0  0  0
  8 22  2  0  0  0  0
  9 10  1  0  0  0  0
  9 21  2  0  0  0  0
 10 11  2  0  0  0  0
 10 34  1  0  0  0  0
 11 12  1  0  0  0  0
 11 35  1  0  0  0  0
 12 13  1  0  0  0  0
 12 20  2  0  0  0  0
 13 14  1  0  0  0  0
 14 15  1  0  0  0  0
 14 19  2  0  0  0  0
 15 16  2  0  0  0  0
 15 36  1  0  0  0  0
 16 17  1  0  0  0  0
 16 37  1  0  0  0  0
 17 18  2  0  0  0  0
 17 38  1  0  0  0  0
 18 19  1  0  0  0  0
 18 39  1  0  0  0  0
 19 40  1  0  0  0  0
 20 21  1  0  0  0  0
 20 41  1  0  0  0  0
 21 42  1  0  0  0  0
 22 23  1  0  0  0  0
 22 25  1  0  0  0  0
 23 24  1  0  0  0  0
 23 43  1  0  0  0  0
 23 44  1  0  0  0  0
 24 45  1  0  0  0  0
 25 26  1  0  0  0  0
 26 27  1  0  0  0  0
 26 30  1  0  0  0  0
 26 46  1  0  0  0  0
 27 28  1  0  0  0  0
 27 47  1  0  0  0  0
 27 48  1  0  0  0  0
 28 29  1  0  0  0  0
 28 49  1  0  0  0  0
 28 50  1  0  0  0  0
 29 30  1  0  0  0  0
 29 51  1  0  0  0  0
 29 52  1  0  0  0  0
 30 53  1  0  0  0  0
 30 54  1  0  0  0  0
M  END
$$$$
