CHEMBL4061797
 OpenBabel04072215373D

 46 49  0  0  0  0  0  0  0  0999 V2000
    3.0720   -0.8411    0.1744 C   0  0  0  0  0  0  0  0  0  0  0  0
    3.1564    0.5795    0.1653 O   0  0  0  0  0  0  0  0  0  0  0  0
    3.7077    1.2190   -0.9145 C   0  0  0  0  0  0  0  0  0  0  0  0
    3.6870    0.6794   -2.2027 C   0  0  0  0  0  0  0  0  0  0  0  0
    4.1934    1.3999   -3.3124 C   0  0  0  0  0  0  0  0  0  0  0  0
    4.7329    2.6964   -3.2001 C   0  0  0  0  0  0  0  0  0  0  0  0
    5.3892    3.3387   -4.4593 C   0  0  0  0  0  0  0  0  0  0  0  0
    5.2621    4.7924   -4.5934 N   0  0  0  0  0  0  0  0  0  0  0  0
    5.9342    5.5168   -5.6365 C   0  0  0  0  0  0  0  0  0  0  0  0
    5.1902    6.5887   -6.0509 N   0  0  0  0  0  0  0  0  0  0  0  0
    5.5606    7.7678   -5.5221 C   0  0  0  0  0  0  0  0  0  0  0  0
    4.9696    8.9110   -6.0502 N   0  0  0  0  0  0  0  0  0  0  0  0
    6.5636    7.9540   -4.6409 N   0  0  0  0  0  0  0  0  0  0  0  0
    7.3879    6.8791   -4.5966 C   0  0  0  0  0  0  0  0  0  0  0  0
    8.7267    6.8829   -4.2792 N   0  0  0  0  0  0  0  0  0  0  0  0
    9.2578    7.1763   -5.5303 C   0  0  0  0  0  0  0  0  0  0  0  0
   10.2541    8.0954   -5.8599 C   0  0  0  0  0  0  0  0  0  0  0  0
   10.4880    8.3167   -7.2051 C   0  0  0  0  0  0  0  0  0  0  0  0
    9.7878    7.5759   -8.1539 C   0  0  0  0  0  0  0  0  0  0  0  0
   10.0692    7.7905   -9.4950 O   0  0  0  0  0  0  0  0  0  0  0  0
    8.7731    6.6476   -7.8093 C   0  0  0  0  0  0  0  0  0  0  0  0
    8.4313    6.4575   -6.4290 C   0  0  0  0  0  0  0  0  0  0  0  0
    7.3290    5.8559   -5.5563 C   0  0  0  0  0  0  0  0  0  0  0  0
    4.7590    3.2246   -1.8919 C   0  0  0  0  0  0  0  0  0  0  0  0
    4.2552    2.5054   -0.7534 C   0  0  0  0  0  0  0  0  0  0  0  0
    4.3974    3.1937    0.4356 O   0  0  0  0  0  0  0  0  0  0  0  0
    4.0319    2.5639    1.6642 C   0  0  0  0  0  0  0  0  0  0  0  0
    2.7051   -1.1472    1.1616 H   0  0  0  0  0  0  0  0  0  0  0  0
    4.0569   -1.3017    0.0343 H   0  0  0  0  0  0  0  0  0  0  0  0
    2.3552   -1.2130   -0.5663 H   0  0  0  0  0  0  0  0  0  0  0  0
    3.2659   -0.3046   -2.3856 H   0  0  0  0  0  0  0  0  0  0  0  0
    4.1555    0.9087   -4.2842 H   0  0  0  0  0  0  0  0  0  0  0  0
    4.9213    2.8834   -5.3365 H   0  0  0  0  0  0  0  0  0  0  0  0
    6.4466    3.0554   -4.4457 H   0  0  0  0  0  0  0  0  0  0  0  0
    4.2846    5.0743   -4.6687 H   0  0  0  0  0  0  0  0  0  0  0  0
    4.4608    8.6448   -6.8803 H   0  0  0  0  0  0  0  0  0  0  0  0
    5.7172    9.5786   -6.2142 H   0  0  0  0  0  0  0  0  0  0  0  0
    9.1166    6.0768   -3.8189 H   0  0  0  0  0  0  0  0  0  0  0  0
   10.7450    8.6897   -5.0957 H   0  0  0  0  0  0  0  0  0  0  0  0
   11.1958    9.0908   -7.4898 H   0  0  0  0  0  0  0  0  0  0  0  0
   10.7961    8.4300   -9.5629 H   0  0  0  0  0  0  0  0  0  0  0  0
    8.2128    6.1575   -8.6096 H   0  0  0  0  0  0  0  0  0  0  0  0
    5.1833    4.2132   -1.7195 H   0  0  0  0  0  0  0  0  0  0  0  0
    4.3372    3.2214    2.4857 H   0  0  0  0  0  0  0  0  0  0  0  0
    4.5576    1.6142    1.8193 H   0  0  0  0  0  0  0  0  0  0  0  0
    2.9454    2.4433    1.7444 H   0  0  0  0  0  0  0  0  0  0  0  0
  1  2  1  0  0  0  0
  1 28  1  0  0  0  0
  1 29  1  0  0  0  0
  1 30  1  0  0  0  0
  2  3  1  0  0  0  0
  3  4  1  0  0  0  0
  3 25  2  0  0  0  0
  4  5  2  0  0  0  0
  4 31  1  0  0  0  0
  5  6  1  0  0  0  0
  5 32  1  0  0  0  0
  6  7  1  0  0  0  0
  6 24  2  0  0  0  0
  7  8  1  0  0  0  0
  7 33  1  0  0  0  0
  7 34  1  0  0  0  0
  8  9  1  0  0  0  0
  8 35  1  0  0  0  0
  9 10  1  0  0  0  0
  9 23  2  0  0  0  0
 10 11  2  0  0  0  0
 11 12  1  0  0  0  0
 11 13  1  0  0  0  0
 12 36  1  0  0  0  0
 12 37  1  0  0  0  0
 13 14  2  0  0  0  0
 14 15  1  0  0  0  0
 14 23  1  0  0  0  0
 15 16  1  0  0  0  0
 15 38  1  0  0  0  0
 16 17  1  0  0  0  0
 16 22  2  0  0  0  0
 17 18  2  0  0  0  0
 17 39  1  0  0  0  0
 18 19  1  0  0  0  0
 18 40  1  0  0  0  0
 19 20  1  0  0  0  0
 19 21  2  0  0  0  0
 20 41  1  0  0  0  0
 21 22  1  0  0  0  0
 21 42  1  0  0  0  0
 22 23  1  0  0  0  0
 24 25  1  0  0  0  0
 24 43  1  0  0  0  0
 25 26  1  0  0  0  0
 26 27  1  0  0  0  0
 27 44  1  0  0  0  0
 27 45  1  0  0  0  0
 27 46  1  0  0  0  0
M  END
$$$$
