CHEMBL381293
 OpenBabel04072215373D

 47 50  0  0  0  0  0  0  0  0999 V2000
   12.5566    2.2385   -5.9921 F   0  0  0  0  0  0  0  0  0  0  0  0
   11.7162    2.9847   -5.2450 C   0  0  0  0  0  0  0  0  0  0  0  0
   12.4347    3.8578   -4.5079 F   0  0  0  0  0  0  0  0  0  0  0  0
   10.9385    3.6921   -6.0965 F   0  0  0  0  0  0  0  0  0  0  0  0
   10.8662    2.2218   -4.3958 O   0  0  0  0  0  0  0  0  0  0  0  0
   11.2131    0.9475   -4.0555 C   0  0  0  0  0  0  0  0  0  0  0  0
   12.4965    0.4130   -4.0816 C   0  0  0  0  0  0  0  0  0  0  0  0
   12.6896   -0.9338   -3.7756 C   0  0  0  0  0  0  0  0  0  0  0  0
   11.6115   -1.7405   -3.3998 C   0  0  0  0  0  0  0  0  0  0  0  0
   10.3168   -1.2220   -3.3122 C   0  0  0  0  0  0  0  0  0  0  0  0
    9.2036   -1.9688   -2.8717 N   0  0  0  0  0  0  0  0  0  0  0  0
    9.1738   -3.2149   -2.3539 C   0  0  0  0  0  0  0  0  0  0  0  0
    8.1996   -4.1004   -2.3790 N   0  0  0  0  0  0  0  0  0  0  0  0
    8.6319   -5.2003   -1.6574 N   0  0  0  0  0  0  0  0  0  0  0  0
    9.8247   -4.8969   -1.1862 C   0  0  0  0  0  0  0  0  0  0  0  0
   10.7498   -5.6228   -0.3142 C   0  0  0  0  0  0  0  0  0  0  0  0
   11.9854   -5.0201   -0.0196 C   0  0  0  0  0  0  0  0  0  0  0  0
   12.9609   -5.5397    0.7630 N   0  0  0  0  0  0  0  0  0  0  0  0
   12.7143   -6.7475    1.2840 C   0  0  0  0  0  0  0  0  0  0  0  0
   11.5378   -7.4461    1.0582 C   0  0  0  0  0  0  0  0  0  0  0  0
   10.5046   -6.8880    0.2756 C   0  0  0  0  0  0  0  0  0  0  0  0
    9.2121   -7.6855    0.0628 C   0  0  0  0  0  0  0  0  0  0  0  0
    8.8621   -8.6586    1.2153 C   0  0  0  0  0  0  0  0  0  0  0  0
    7.6405   -9.5394    1.0981 C   0  0  0  0  0  0  0  0  0  0  0  0
    7.6526  -10.7844    1.7500 C   0  0  0  0  0  0  0  0  0  0  0  0
    6.5245  -11.5882    1.7116 C   0  0  0  0  0  0  0  0  0  0  0  0
    5.3858  -11.2372    1.0859 N   0  0  0  0  0  0  0  0  0  0  0  0
    5.3825  -10.0305    0.4762 C   0  0  0  0  0  0  0  0  0  0  0  0
    6.4640   -9.1569    0.4568 C   0  0  0  0  0  0  0  0  0  0  0  0
   10.2314   -3.6512   -1.6036 O   0  0  0  0  0  0  0  0  0  0  0  0
   10.1449    0.1391   -3.6304 C   0  0  0  0  0  0  0  0  0  0  0  0
   13.3693    1.0052   -4.3399 H   0  0  0  0  0  0  0  0  0  0  0  0
   13.6871   -1.3645   -3.8360 H   0  0  0  0  0  0  0  0  0  0  0  0
   11.8129   -2.7887   -3.2007 H   0  0  0  0  0  0  0  0  0  0  0  0
    8.3228   -1.6402   -3.2520 H   0  0  0  0  0  0  0  0  0  0  0  0
   12.2516   -4.0440   -0.4208 H   0  0  0  0  0  0  0  0  0  0  0  0
   13.5006   -7.1642    1.9062 H   0  0  0  0  0  0  0  0  0  0  0  0
   11.4603   -8.4245    1.5226 H   0  0  0  0  0  0  0  0  0  0  0  0
    9.3067   -8.2444   -0.8770 H   0  0  0  0  0  0  0  0  0  0  0  0
    8.3729   -6.9928   -0.0433 H   0  0  0  0  0  0  0  0  0  0  0  0
    8.7683   -8.0854    2.1468 H   0  0  0  0  0  0  0  0  0  0  0  0
    9.7007   -9.3500    1.3448 H   0  0  0  0  0  0  0  0  0  0  0  0
    8.5303  -11.1278    2.2880 H   0  0  0  0  0  0  0  0  0  0  0  0
    6.5078  -12.5569    2.2053 H   0  0  0  0  0  0  0  0  0  0  0  0
    4.4465   -9.7670   -0.0094 H   0  0  0  0  0  0  0  0  0  0  0  0
    6.3663   -8.2006   -0.0423 H   0  0  0  0  0  0  0  0  0  0  0  0
    9.1559    0.5883   -3.5564 H   0  0  0  0  0  0  0  0  0  0  0  0
  1  2  1  0  0  0  0
  2  3  1  0  0  0  0
  2  4  1  0  0  0  0
  2  5  1  0  0  0  0
  5  6  1  0  0  0  0
  6  7  1  0  0  0  0
  6 31  2  0  0  0  0
  7  8  2  0  0  0  0
  7 32  1  0  0  0  0
  8  9  1  0  0  0  0
  8 33  1  0  0  0  0
  9 10  2  0  0  0  0
  9 34  1  0  0  0  0
 10 11  1  0  0  0  0
 10 31  1  0  0  0  0
 11 12  1  0  0  0  0
 11 35  1  0  0  0  0
 12 13  2  0  0  0  0
 12 30  1  0  0  0  0
 13 14  1  0  0  0  0
 14 15  2  0  0  0  0
 15 16  1  0  0  0  0
 15 30  1  0  0  0  0
 16 17  1  0  0  0  0
 16 21  2  0  0  0  0
 17 18  2  0  0  0  0
 17 36  1  0  0  0  0
 18 19  1  0  0  0  0
 19 20  2  0  0  0  0
 19 37  1  0  0  0  0
 20 21  1  0  0  0  0
 20 38  1  0  0  0  0
 21 22  1  0  0  0  0
 22 23  1  0  0  0  0
 22 39  1  0  0  0  0
 22 40  1  0  0  0  0
 23 24  1  0  0  0  0
 23 41  1  0  0  0  0
 23 42  1  0  0  0  0
 24 25  1  0  0  0  0
 24 29  2  0  0  0  0
 25 26  2  0  0  0  0
 25 43  1  0  0  0  0
 26 27  1  0  0  0  0
 26 44  1  0  0  0  0
 27 28  2  0  0  0  0
 28 29  1  0  0  0  0
 28 45  1  0  0  0  0
 29 46  1  0  0  0  0
 31 47  1  0  0  0  0
M  END
$$$$
