CHEMBL3964931
 OpenBabel04072215373D

 59 63  0  0  0  0  0  0  0  0999 V2000
    2.8211    5.2670    2.9406 C   0  0  0  0  0  0  0  0  0  0  0  0
    2.1391    4.1128    2.4373 O   0  0  0  0  0  0  0  0  0  0  0  0
    2.9300    3.1001    1.9937 C   0  0  0  0  0  0  0  0  0  0  0  0
    2.4366    1.9555    1.4926 C   0  0  0  0  0  0  0  0  0  0  0  0
    3.1920    1.0176    0.8221 C   0  0  0  0  0  0  0  0  0  0  0  0
    2.6524   -0.0923    0.2528 O   0  0  0  0  0  0  0  0  0  0  0  0
    1.2364   -0.2606    0.3771 C   0  0  0  0  0  0  0  0  0  0  0  0
    4.5432    1.2294    0.6939 C   0  0  0  0  0  0  0  0  0  0  0  0
    5.1101    2.4123    1.0912 C   0  0  0  0  0  0  0  0  0  0  0  0
    6.4201    2.7358    0.7265 N   0  0  0  0  0  0  0  0  0  0  0  0
    6.9685    2.2128   -0.5638 C   0  0  0  0  0  0  0  0  0  0  0  0
    8.2279    1.3013   -0.5335 C   0  0  0  0  0  0  0  0  0  0  0  0
    9.2120    0.5854   -0.3226 C   0  0  0  0  0  0  0  0  0  0  0  0
   10.3439   -0.2779    0.1494 C   0  0  0  0  0  0  0  0  0  0  0  0
   11.5846    0.1495   -0.2317 N   0  0  0  0  0  0  0  0  0  0  0  0
   12.6397   -0.6546    0.0594 C   0  0  0  0  0  0  0  0  0  0  0  0
   12.5176   -1.6535    0.9931 C   0  0  0  0  0  0  0  0  0  0  0  0
   11.3101   -2.2295    1.2280 N   0  0  0  0  0  0  0  0  0  0  0  0
   10.2186   -1.5318    0.7593 C   0  0  0  0  0  0  0  0  0  0  0  0
    8.6675   -2.2776    0.9517 Cl  0  0  0  0  0  0  0  0  0  0  0  0
    7.3291    3.4126    1.5848 C   0  0  0  0  0  0  0  0  0  0  0  0
    8.2651    4.1993    0.9661 C   0  0  0  0  0  0  0  0  0  0  0  0
    9.1403    4.9702    1.6369 C   0  0  0  0  0  0  0  0  0  0  0  0
    9.1844    5.0014    2.9315 C   0  0  0  0  0  0  0  0  0  0  0  0
   10.2825    5.5225    3.2565 N   0  0  0  0  0  0  0  0  0  0  0  0
   11.0192    6.4202    2.9569 C   0  0  0  0  0  0  0  0  0  0  0  0
   10.9583    6.6687    4.1816 C   0  0  0  0  0  0  0  0  0  0  0  0
   12.4451    7.7433    3.6867 C   0  0  0  0  0  0  0  0  0  0  0  0
   13.4914    8.2474    2.2944 C   0  0  0  0  0  0  0  0  0  0  0  0
   14.4205    9.2954    2.2928 N   0  0  0  0  0  0  0  0  0  0  0  0
   14.1806    9.8670    3.4807 N   0  0  0  0  0  0  0  0  0  0  0  0
   14.8865   11.1280    3.8714 C   0  0  0  0  0  0  0  0  0  0  0  0
   13.0913    9.1111    4.1950 C   0  0  0  0  0  0  0  0  0  0  0  0
    9.4474    5.7503    4.9129 N   0  0  0  0  0  0  0  0  0  0  0  0
    8.4151    4.5926    3.9363 C   0  0  0  0  0  0  0  0  0  0  0  0
    7.3996    3.4672    3.0291 C   0  0  0  0  0  0  0  0  0  0  0  0
    4.2739    3.1945    1.8628 C   0  0  0  0  0  0  0  0  0  0  0  0
    2.0857    5.9856    3.3229 H   0  0  0  0  0  0  0  0  0  0  0  0
    3.3731    5.7448    2.1309 H   0  0  0  0  0  0  0  0  0  0  0  0
    3.5029    5.0348    3.7597 H   0  0  0  0  0  0  0  0  0  0  0  0
    1.4086    1.7795    1.6479 H   0  0  0  0  0  0  0  0  0  0  0  0
    0.9386   -1.1890   -0.1196 H   0  0  0  0  0  0  0  0  0  0  0  0
    0.6955    0.5633   -0.0959 H   0  0  0  0  0  0  0  0  0  0  0  0
    0.9460   -0.3330    1.4280 H   0  0  0  0  0  0  0  0  0  0  0  0
    5.1860    0.4756    0.2670 H   0  0  0  0  0  0  0  0  0  0  0  0
    7.2216    3.0478   -1.2329 H   0  0  0  0  0  0  0  0  0  0  0  0
    6.1598    1.6481   -1.0406 H   0  0  0  0  0  0  0  0  0  0  0  0
   13.5551   -0.5249   -0.5196 H   0  0  0  0  0  0  0  0  0  0  0  0
   13.3688   -1.9578    1.6047 H   0  0  0  0  0  0  0  0  0  0  0  0
    8.4567    4.1621   -0.0828 H   0  0  0  0  0  0  0  0  0  0  0  0
    9.8359    5.6028    1.1770 H   0  0  0  0  0  0  0  0  0  0  0  0
   11.3572    6.5042    2.0125 H   0  0  0  0  0  0  0  0  0  0  0  0
   13.5484    7.6969    1.3483 H   0  0  0  0  0  0  0  0  0  0  0  0
   15.6699   11.4028    3.1437 H   0  0  0  0  0  0  0  0  0  0  0  0
   15.3636   11.0317    4.8548 H   0  0  0  0  0  0  0  0  0  0  0  0
   14.1661   11.9519    3.9116 H   0  0  0  0  0  0  0  0  0  0  0  0
   12.8906    9.5413    5.1286 H   0  0  0  0  0  0  0  0  0  0  0  0
    6.7531    2.6388    3.4791 H   0  0  0  0  0  0  0  0  0  0  0  0
    4.6871    3.8732    2.5097 H   0  0  0  0  0  0  0  0  0  0  0  0
  1  2  1  0  0  0  0
  1 38  1  0  0  0  0
  1 39  1  0  0  0  0
  1 40  1  0  0  0  0
  2  3  1  0  0  0  0
  3  4  1  0  0  0  0
  3 37  2  0  0  0  0
  4  5  2  0  0  0  0
  4 41  1  0  0  0  0
  5  6  1  0  0  0  0
  5  8  1  0  0  0  0
  6  7  1  0  0  0  0
  7 42  1  0  0  0  0
  7 43  1  0  0  0  0
  7 44  1  0  0  0  0
  8  9  2  0  0  0  0
  8 45  1  0  0  0  0
  9 10  1  0  0  0  0
  9 37  1  0  0  0  0
 10 11  1  0  0  0  0
 10 21  1  0  0  0  0
 11 12  1  0  0  0  0
 11 46  1  0  0  0  0
 11 47  1  0  0  0  0
 12 13  3  0  0  0  0
 13 14  1  0  0  0  0
 14 15  1  0  0  0  0
 14 19  2  0  0  0  0
 15 16  2  0  0  0  0
 16 17  1  0  0  0  0
 16 48  1  0  0  0  0
 17 18  2  0  0  0  0
 17 49  1  0  0  0  0
 18 19  1  0  0  0  0
 19 20  1  0  0  0  0
 21 22  1  0  0  0  0
 21 36  2  0  0  0  0
 22 23  2  0  0  0  0
 22 50  1  0  0  0  0
 23 24  1  0  0  0  0
 23 51  1  0  0  0  0
 24 25  1  0  0  0  0
 24 35  2  0  0  0  0
 25 26  2  0  0  0  0
 26 27  1  0  0  0  0
 26 52  1  0  0  0  0
 27 28  1  0  0  0  0
 27 34  2  0  0  0  0
 28 29  1  0  0  0  0
 28 33  2  0  0  0  0
 29 30  2  0  0  0  0
 29 53  1  0  0  0  0
 30 31  1  0  0  0  0
 31 32  1  0  0  0  0
 31 33  1  0  0  0  0
 32 54  1  0  0  0  0
 32 55  1  0  0  0  0
 32 56  1  0  0  0  0
 33 57  1  0  0  0  0
 34 35  1  0  0  0  0
 35 36  1  0  0  0  0
 36 58  1  0  0  0  0
 37 59  1  0  0  0  0
M  END
$$$$
