CHEMBL392331
 OpenBabel04072215373D

 45 47  0  0  0  0  0  0  0  0999 V2000
    0.9943   -0.0386   -0.0842 C   0  0  0  0  0  0  0  0  0  0  0  0
    2.4807    0.0415   -0.0649 C   0  0  0  0  0  0  0  0  0  0  0  0
    3.2957    1.1938   -0.0677 C   0  0  0  0  0  0  0  0  0  0  0  0
    4.5931    0.7267   -0.0607 C   0  0  0  0  0  0  0  0  0  0  0  0
    5.8723    1.4140   -0.1153 C   0  0  0  0  0  0  0  0  0  0  0  0
    6.8361    0.8736   -0.6233 O   0  0  0  0  0  0  0  0  0  0  0  0
    5.9081    2.6478    0.5249 N   0  0  0  0  0  0  0  0  0  0  0  0
    7.0745    3.4382    0.6176 C   0  0  0  0  0  0  0  0  0  0  0  0
    8.1741    3.2385   -0.2196 C   0  0  0  0  0  0  0  0  0  0  0  0
    9.3325    3.9871   -0.0774 C   0  0  0  0  0  0  0  0  0  0  0  0
    9.4223    4.9780    0.8898 C   0  0  0  0  0  0  0  0  0  0  0  0
   10.5083    5.7573    1.1387 O   0  0  0  0  0  0  0  0  0  0  0  0
   11.3798    6.0333    0.0449 C   0  0  0  0  0  0  0  0  0  0  0  0
   10.9618    5.5469   -1.1385 F   0  0  0  0  0  0  0  0  0  0  0  0
   11.4899    7.3748   -0.1028 F   0  0  0  0  0  0  0  0  0  0  0  0
   12.6059    5.5350    0.3079 F   0  0  0  0  0  0  0  0  0  0  0  0
    8.3200    5.1971    1.7281 C   0  0  0  0  0  0  0  0  0  0  0  0
    7.1475    4.4449    1.5798 C   0  0  0  0  0  0  0  0  0  0  0  0
    4.4907   -0.6392   -0.0411 N   0  0  0  0  0  0  0  0  0  0  0  0
    5.5771   -1.6185   -0.0634 C   0  0  0  0  0  0  0  0  0  0  0  0
    6.5448   -1.5590    1.1227 C   0  0  0  0  0  0  0  0  0  0  0  0
    7.6725   -2.5675    1.0343 C   0  0  0  0  0  0  0  0  0  0  0  0
    8.8588   -2.2262    0.3873 C   0  0  0  0  0  0  0  0  0  0  0  0
    9.8878   -3.1560    0.3178 C   0  0  0  0  0  0  0  0  0  0  0  0
    9.8137   -4.3981    0.8454 N   0  0  0  0  0  0  0  0  0  0  0  0
    8.6626   -4.7155    1.4674 C   0  0  0  0  0  0  0  0  0  0  0  0
    7.5749   -3.8527    1.5893 C   0  0  0  0  0  0  0  0  0  0  0  0
    3.2076   -1.0768   -0.0424 N   0  0  0  0  0  0  0  0  0  0  0  0
    0.5455    0.9605   -0.0870 H   0  0  0  0  0  0  0  0  0  0  0  0
    0.6288   -0.5713    0.7996 H   0  0  0  0  0  0  0  0  0  0  0  0
    0.6470   -0.5686   -0.9767 H   0  0  0  0  0  0  0  0  0  0  0  0
    2.9660    2.2209   -0.1081 H   0  0  0  0  0  0  0  0  0  0  0  0
    5.1155    2.9144    1.0874 H   0  0  0  0  0  0  0  0  0  0  0  0
    8.1604    2.5002   -1.0170 H   0  0  0  0  0  0  0  0  0  0  0  0
   10.1393    3.7488   -0.7692 H   0  0  0  0  0  0  0  0  0  0  0  0
    8.3777    5.9591    2.4996 H   0  0  0  0  0  0  0  0  0  0  0  0
    6.3158    4.6375    2.2534 H   0  0  0  0  0  0  0  0  0  0  0  0
    6.1117   -1.4524   -1.0079 H   0  0  0  0  0  0  0  0  0  0  0  0
    5.1116   -2.6086   -0.0972 H   0  0  0  0  0  0  0  0  0  0  0  0
    6.0002   -1.7013    2.0614 H   0  0  0  0  0  0  0  0  0  0  0  0
    7.0005   -0.5674    1.1995 H   0  0  0  0  0  0  0  0  0  0  0  0
    8.9929   -1.2427   -0.0589 H   0  0  0  0  0  0  0  0  0  0  0  0
   10.8227   -2.9192   -0.1766 H   0  0  0  0  0  0  0  0  0  0  0  0
    8.6241   -5.7187    1.8855 H   0  0  0  0  0  0  0  0  0  0  0  0
    6.6925   -4.1974    2.1120 H   0  0  0  0  0  0  0  0  0  0  0  0
  1  2  1  0  0  0  0
  1 29  1  0  0  0  0
  1 30  1  0  0  0  0
  1 31  1  0  0  0  0
  2  3  1  0  0  0  0
  2 28  2  0  0  0  0
  3  4  2  0  0  0  0
  3 32  1  0  0  0  0
  4  5  1  0  0  0  0
  4 19  1  0  0  0  0
  5  6  2  0  0  0  0
  5  7  1  0  0  0  0
  7  8  1  0  0  0  0
  7 33  1  0  0  0  0
  8  9  1  0  0  0  0
  8 18  2  0  0  0  0
  9 10  2  0  0  0  0
  9 34  1  0  0  0  0
 10 11  1  0  0  0  0
 10 35  1  0  0  0  0
 11 12  1  0  0  0  0
 11 17  2  0  0  0  0
 12 13  1  0  0  0  0
 13 14  1  0  0  0  0
 13 15  1  0  0  0  0
 13 16  1  0  0  0  0
 17 18  1  0  0  0  0
 17 36  1  0  0  0  0
 18 37  1  0  0  0  0
 19 20  1  0  0  0  0
 19 28  1  0  0  0  0
 20 21  1  0  0  0  0
 20 38  1  0  0  0  0
 20 39  1  0  0  0  0
 21 22  1  0  0  0  0
 21 40  1  0  0  0  0
 21 41  1  0  0  0  0
 22 23  1  0  0  0  0
 22 27  2  0  0  0  0
 23 24  2  0  0  0  0
 23 42  1  0  0  0  0
 24 25  1  0  0  0  0
 24 43  1  0  0  0  0
 25 26  2  0  0  0  0
 26 27  1  0  0  0  0
 26 44  1  0  0  0  0
 27 45  1  0  0  0  0
M  END
$$$$
