CHEMBL3912831
 OpenBabel04072215373D

 59 62  0  0  0  0  0  0  0  0999 V2000
    0.7975   -3.3097    2.8253 C   0  0  0  0  0  0  0  0  0  0  0  0
    2.1909   -3.2582    3.1405 O   0  0  0  0  0  0  0  0  0  0  0  0
    3.0107   -2.5960    2.2575 C   0  0  0  0  0  0  0  0  0  0  0  0
    2.5855   -2.0604    1.0419 C   0  0  0  0  0  0  0  0  0  0  0  0
    3.4800   -1.3450    0.2502 C   0  0  0  0  0  0  0  0  0  0  0  0
    3.1831   -0.7407   -0.9420 O   0  0  0  0  0  0  0  0  0  0  0  0
    1.8745   -0.9355   -1.4634 C   0  0  0  0  0  0  0  0  0  0  0  0
    4.8031   -1.1681    0.6793 C   0  0  0  0  0  0  0  0  0  0  0  0
    5.2786   -1.7028    1.8887 C   0  0  0  0  0  0  0  0  0  0  0  0
    6.5569   -1.3710    2.4176 N   0  0  0  0  0  0  0  0  0  0  0  0
    7.0496    0.0231    2.0891 C   0  0  0  0  0  0  0  0  0  0  0  0
    6.1571    1.1930    2.5921 C   0  0  0  0  0  0  0  0  0  0  0  0
    6.6953    2.5245    2.2709 N   0  0  0  0  0  0  0  0  0  0  0  0
    6.8387    2.9581    0.9592 C   0  0  0  0  0  0  0  0  0  0  0  0
    6.6432    2.1951    0.0134 O   0  0  0  0  0  0  0  0  0  0  0  0
    7.2616    4.4410    0.7687 C   0  0  0  0  0  0  0  0  0  0  0  0
    7.3394    5.1118    1.9547 F   0  0  0  0  0  0  0  0  0  0  0  0
    8.4842    4.5610    0.1815 F   0  0  0  0  0  0  0  0  0  0  0  0
    6.3819    5.1395   -0.0036 F   0  0  0  0  0  0  0  0  0  0  0  0
    7.7104   -2.2174    2.6348 C   0  0  0  0  0  0  0  0  0  0  0  0
    8.4969   -1.8571    3.7392 C   0  0  0  0  0  0  0  0  0  0  0  0
    9.8437   -2.1290    3.7258 C   0  0  0  0  0  0  0  0  0  0  0  0
   10.4281   -2.8985    2.7466 C   0  0  0  0  0  0  0  0  0  0  0  0
   11.7633   -2.9209    2.7896 N   0  0  0  0  0  0  0  0  0  0  0  0
   12.3803   -3.7914    1.9853 C   0  0  0  0  0  0  0  0  0  0  0  0
   11.6761   -4.6917    1.2148 C   0  0  0  0  0  0  0  0  0  0  0  0
   12.4376   -5.8320    0.7149 C   0  0  0  0  0  0  0  0  0  0  0  0
   12.5752   -7.1344    1.2634 C   0  0  0  0  0  0  0  0  0  0  0  0
   13.5386   -7.8513    0.6710 N   0  0  0  0  0  0  0  0  0  0  0  0
   14.0212   -7.0114   -0.2601 N   0  0  0  0  0  0  0  0  0  0  0  0
   14.8621   -7.5035   -1.3263 C   0  0  0  0  0  0  0  0  0  0  0  0
   13.5201   -5.7432   -0.1459 C   0  0  0  0  0  0  0  0  0  0  0  0
   10.3071   -4.5911    1.0752 N   0  0  0  0  0  0  0  0  0  0  0  0
    9.6383   -3.6153    1.8154 C   0  0  0  0  0  0  0  0  0  0  0  0
    8.2538   -3.1856    1.7440 C   0  0  0  0  0  0  0  0  0  0  0  0
    4.3554   -2.4377    2.6596 C   0  0  0  0  0  0  0  0  0  0  0  0
    0.2694   -3.7560    3.6751 H   0  0  0  0  0  0  0  0  0  0  0  0
    0.6158   -3.9463    1.9523 H   0  0  0  0  0  0  0  0  0  0  0  0
    0.3747   -2.3094    2.6734 H   0  0  0  0  0  0  0  0  0  0  0  0
    1.5609   -2.1852    0.7181 H   0  0  0  0  0  0  0  0  0  0  0  0
    1.8242   -0.4363   -2.4356 H   0  0  0  0  0  0  0  0  0  0  0  0
    1.1190   -0.4784   -0.8152 H   0  0  0  0  0  0  0  0  0  0  0  0
    1.6663   -1.9985   -1.6240 H   0  0  0  0  0  0  0  0  0  0  0  0
    5.4527   -0.5710    0.0449 H   0  0  0  0  0  0  0  0  0  0  0  0
    7.2625    0.0898    1.0189 H   0  0  0  0  0  0  0  0  0  0  0  0
    8.0251    0.2180    2.5620 H   0  0  0  0  0  0  0  0  0  0  0  0
    6.0658    1.1467    3.6844 H   0  0  0  0  0  0  0  0  0  0  0  0
    5.1518    1.1488    2.1681 H   0  0  0  0  0  0  0  0  0  0  0  0
    6.7058    3.2317    3.0080 H   0  0  0  0  0  0  0  0  0  0  0  0
    8.0904   -1.1880    4.4894 H   0  0  0  0  0  0  0  0  0  0  0  0
   10.4824   -1.6849    4.4833 H   0  0  0  0  0  0  0  0  0  0  0  0
   13.4611   -3.7877    2.0321 H   0  0  0  0  0  0  0  0  0  0  0  0
   12.0433   -7.5802    2.0952 H   0  0  0  0  0  0  0  0  0  0  0  0
   14.9613   -8.5899   -1.2502 H   0  0  0  0  0  0  0  0  0  0  0  0
   15.8426   -7.0258   -1.2700 H   0  0  0  0  0  0  0  0  0  0  0  0
   14.3681   -7.2512   -2.2689 H   0  0  0  0  0  0  0  0  0  0  0  0
   13.9460   -4.9219   -0.7035 H   0  0  0  0  0  0  0  0  0  0  0  0
    7.6419   -3.5758    0.9288 H   0  0  0  0  0  0  0  0  0  0  0  0
    4.6574   -2.8328    3.6273 H   0  0  0  0  0  0  0  0  0  0  0  0
  1  2  1  0  0  0  0
  1 37  1  0  0  0  0
  1 38  1  0  0  0  0
  1 39  1  0  0  0  0
  2  3  1  0  0  0  0
  3  4  1  0  0  0  0
  3 36  2  0  0  0  0
  4  5  2  0  0  0  0
  4 40  1  0  0  0  0
  5  6  1  0  0  0  0
  5  8  1  0  0  0  0
  6  7  1  0  0  0  0
  7 41  1  0  0  0  0
  7 42  1  0  0  0  0
  7 43  1  0  0  0  0
  8  9  2  0  0  0  0
  8 44  1  0  0  0  0
  9 10  1  0  0  0  0
  9 36  1  0  0  0  0
 10 11  1  0  0  0  0
 10 20  1  0  0  0  0
 11 12  1  0  0  0  0
 11 45  1  0  0  0  0
 11 46  1  0  0  0  0
 12 13  1  0  0  0  0
 12 47  1  0  0  0  0
 12 48  1  0  0  0  0
 13 14  1  0  0  0  0
 13 49  1  0  0  0  0
 14 15  2  0  0  0  0
 14 16  1  0  0  0  0
 16 17  1  0  0  0  0
 16 18  1  0  0  0  0
 16 19  1  0  0  0  0
 20 21  1  0  0  0  0
 20 35  2  0  0  0  0
 21 22  2  0  0  0  0
 21 50  1  0  0  0  0
 22 23  1  0  0  0  0
 22 51  1  0  0  0  0
 23 24  1  0  0  0  0
 23 34  2  0  0  0  0
 24 25  2  0  0  0  0
 25 26  1  0  0  0  0
 25 52  1  0  0  0  0
 26 27  1  0  0  0  0
 26 33  2  0  0  0  0
 27 28  1  0  0  0  0
 27 32  2  0  0  0  0
 28 29  2  0  0  0  0
 28 53  1  0  0  0  0
 29 30  1  0  0  0  0
 30 31  1  0  0  0  0
 30 32  1  0  0  0  0
 31 54  1  0  0  0  0
 31 55  1  0  0  0  0
 31 56  1  0  0  0  0
 32 57  1  0  0  0  0
 33 34  1  0  0  0  0
 34 35  1  0  0  0  0
 35 58  1  0  0  0  0
 36 59  1  0  0  0  0
M  END
$$$$
