CHEMBL1242386
 OpenBabel04072215363D

 37 40  0  0  0  0  0  0  0  0999 V2000
    1.0488   -0.1057    0.0056 C   0  0  0  0  0  0  0  0  0  0  0  0
    2.5737    0.0052    0.0585 C   0  0  0  0  0  0  0  0  0  0  0  0
    3.1656    0.1020   -1.3483 C   0  0  0  0  0  0  0  0  0  0  0  0
    2.9925    1.1258    0.8944 N   0  0  0  0  0  0  0  0  0  0  0  0
    2.6451    2.3827    0.5511 N   0  0  0  0  0  0  0  0  0  0  0  0
    3.1745    3.1582    1.5166 C   0  0  0  0  0  0  0  0  0  0  0  0
    3.0202    4.6158    1.4331 C   0  0  0  0  0  0  0  0  0  0  0  0
    4.0196    5.4763    1.9090 C   0  0  0  0  0  0  0  0  0  0  0  0
    3.8797    6.8687    1.8809 C   0  0  0  0  0  0  0  0  0  0  0  0
    2.7297    7.3715    1.2750 C   0  0  0  0  0  0  0  0  0  0  0  0
    2.3134    8.6528    1.0370 N   0  0  0  0  0  0  0  0  0  0  0  0
    1.1471    8.7421    0.3759 N   0  0  0  0  0  0  0  0  0  0  0  0
    0.8025    7.4650    0.1925 C   0  0  0  0  0  0  0  0  0  0  0  0
    1.7387    6.5623    0.7384 C   0  0  0  0  0  0  0  0  0  0  0  0
    1.8692    5.1634    0.8323 C   0  0  0  0  0  0  0  0  0  0  0  0
    3.8267    2.3638    2.5140 C   0  0  0  0  0  0  0  0  0  0  0  0
    4.5007    2.5328    3.7342 C   0  0  0  0  0  0  0  0  0  0  0  0
    4.6737    3.7389    4.4005 N   0  0  0  0  0  0  0  0  0  0  0  0
    5.0159    1.4470    4.3486 N   0  0  0  0  0  0  0  0  0  0  0  0
    4.8490    0.2411    3.7782 C   0  0  0  0  0  0  0  0  0  0  0  0
    4.1957   -0.0490    2.6405 N   0  0  0  0  0  0  0  0  0  0  0  0
    3.7120    1.0591    2.0545 C   0  0  0  0  0  0  0  0  0  0  0  0
    0.7434   -0.9808   -0.5772 H   0  0  0  0  0  0  0  0  0  0  0  0
    0.5951    0.7791   -0.4546 H   0  0  0  0  0  0  0  0  0  0  0  0
    0.6298   -0.2073    1.0128 H   0  0  0  0  0  0  0  0  0  0  0  0
    2.9626   -0.9073    0.5263 H   0  0  0  0  0  0  0  0  0  0  0  0
    2.8285    1.0055   -1.8683 H   0  0  0  0  0  0  0  0  0  0  0  0
    2.8708   -0.7620   -1.9531 H   0  0  0  0  0  0  0  0  0  0  0  0
    4.2598    0.1297   -1.3096 H   0  0  0  0  0  0  0  0  0  0  0  0
    4.9508    5.0736    2.3026 H   0  0  0  0  0  0  0  0  0  0  0  0
    4.6511    7.5156    2.2851 H   0  0  0  0  0  0  0  0  0  0  0  0
    2.7922    9.5137    1.2854 H   0  0  0  0  0  0  0  0  0  0  0  0
   -0.1142    7.2416   -0.3407 H   0  0  0  0  0  0  0  0  0  0  0  0
    1.0976    4.5161    0.4231 H   0  0  0  0  0  0  0  0  0  0  0  0
    3.9027    4.3877    4.3028 H   0  0  0  0  0  0  0  0  0  0  0  0
    4.9846    3.5749    5.3512 H   0  0  0  0  0  0  0  0  0  0  0  0
    5.2894   -0.5990    4.3053 H   0  0  0  0  0  0  0  0  0  0  0  0
  1  2  1  0  0  0  0
  1 23  1  0  0  0  0
  1 24  1  0  0  0  0
  1 25  1  0  0  0  0
  2  3  1  0  0  0  0
  2  4  1  0  0  0  0
  2 26  1  0  0  0  0
  3 27  1  0  0  0  0
  3 28  1  0  0  0  0
  3 29  1  0  0  0  0
  4  5  1  0  0  0  0
  4 22  1  0  0  0  0
  5  6  2  0  0  0  0
  6  7  1  0  0  0  0
  6 16  1  0  0  0  0
  7  8  1  0  0  0  0
  7 15  2  0  0  0  0
  8  9  2  0  0  0  0
  8 30  1  0  0  0  0
  9 10  1  0  0  0  0
  9 31  1  0  0  0  0
 10 11  1  0  0  0  0
 10 14  2  0  0  0  0
 11 12  1  0  0  0  0
 11 32  1  0  0  0  0
 12 13  2  0  0  0  0
 13 14  1  0  0  0  0
 13 33  1  0  0  0  0
 14 15  1  0  0  0  0
 15 34  1  0  0  0  0
 16 17  1  0  0  0  0
 16 22  2  0  0  0  0
 17 18  1  0  0  0  0
 17 19  2  0  0  0  0
 18 35  1  0  0  0  0
 18 36  1  0  0  0  0
 19 20  1  0  0  0  0
 20 21  2  0  0  0  0
 20 37  1  0  0  0  0
 21 22  1  0  0  0  0
M  END
$$$$
