CHEMBL2409779
 OpenBabel04072215363D

 54 58  0  0  0  0  0  0  0  0999 V2000
   -2.3059    0.6168   -0.9353 C   0  0  0  0  0  0  0  0  0  0  0  0
   -1.0066    0.0281   -0.5324 C   0  0  0  0  0  0  0  0  0  0  0  0
   -0.6065   -1.3287   -0.5297 C   0  0  0  0  0  0  0  0  0  0  0  0
    0.7007   -1.3408   -0.0639 C   0  0  0  0  0  0  0  0  0  0  0  0
    1.6319   -2.4280    0.1586 C   0  0  0  0  0  0  0  0  0  0  0  0
    2.7665   -2.1963    0.5715 O   0  0  0  0  0  0  0  0  0  0  0  0
    1.1991   -3.7187   -0.1518 N   0  0  0  0  0  0  0  0  0  0  0  0
    1.9937   -4.8868    0.0287 C   0  0  0  0  0  0  0  0  0  0  0  0
    3.1170   -4.8906    0.8638 C   0  0  0  0  0  0  0  0  0  0  0  0
    3.9761   -5.9822    0.9259 C   0  0  0  0  0  0  0  0  0  0  0  0
    3.6959   -7.1167    0.1822 C   0  0  0  0  0  0  0  0  0  0  0  0
    2.5004   -7.2028   -0.5384 C   0  0  0  0  0  0  0  0  0  0  0  0
    2.1115   -8.3505   -1.2064 O   0  0  0  0  0  0  0  0  0  0  0  0
    2.4721   -9.6162   -0.7379 C   0  0  0  0  0  0  0  0  0  0  0  0
    2.6337   -9.8639    0.6984 C   0  0  0  0  0  0  0  0  0  0  0  0
    3.0635  -11.0485    1.1695 C   0  0  0  0  0  0  0  0  0  0  0  0
    3.2799  -12.1235    0.2706 C   0  0  0  0  0  0  0  0  0  0  0  0
    3.6739  -13.3555    0.4850 N   0  0  0  0  0  0  0  0  0  0  0  0
    3.6514  -13.9717   -0.7294 C   0  0  0  0  0  0  0  0  0  0  0  0
    3.9806  -15.2970   -0.9081 N   0  0  0  0  0  0  0  0  0  0  0  0
    4.4015  -16.1231    0.1163 C   0  0  0  0  0  0  0  0  0  0  0  0
    4.5758  -15.8365    1.2922 O   0  0  0  0  0  0  0  0  0  0  0  0
    4.6259  -17.5396   -0.3223 C   0  0  0  0  0  0  0  0  0  0  0  0
    3.7638  -18.6260    0.2820 C   0  0  0  0  0  0  0  0  0  0  0  0
    5.2234  -18.5648    0.6203 C   0  0  0  0  0  0  0  0  0  0  0  0
    3.2455  -13.0979   -1.7165 C   0  0  0  0  0  0  0  0  0  0  0  0
    3.0211  -11.8975   -1.0749 N   0  0  0  0  0  0  0  0  0  0  0  0
    2.6273  -10.6567   -1.5819 C   0  0  0  0  0  0  0  0  0  0  0  0
    1.6637   -6.0747   -0.6440 C   0  0  0  0  0  0  0  0  0  0  0  0
    0.9874   -0.0081    0.1839 N   0  0  0  0  0  0  0  0  0  0  0  0
    2.1899    0.6155    0.6900 C   0  0  0  0  0  0  0  0  0  0  0  0
   -0.0349    0.8228   -0.0986 N   0  0  0  0  0  0  0  0  0  0  0  0
   -3.0026   -0.1511   -1.2826 H   0  0  0  0  0  0  0  0  0  0  0  0
   -2.1605    1.3388   -1.7461 H   0  0  0  0  0  0  0  0  0  0  0  0
   -2.7656    1.1396   -0.0897 H   0  0  0  0  0  0  0  0  0  0  0  0
   -1.2069   -2.1746   -0.8313 H   0  0  0  0  0  0  0  0  0  0  0  0
    0.3367   -3.8165   -0.6663 H   0  0  0  0  0  0  0  0  0  0  0  0
    3.3694   -4.0431    1.4927 H   0  0  0  0  0  0  0  0  0  0  0  0
    4.8610   -5.9345    1.5544 H   0  0  0  0  0  0  0  0  0  0  0  0
    4.4028   -7.9400    0.2160 H   0  0  0  0  0  0  0  0  0  0  0  0
    2.4211   -9.0685    1.4045 H   0  0  0  0  0  0  0  0  0  0  0  0
    3.2256  -11.2192    2.2282 H   0  0  0  0  0  0  0  0  0  0  0  0
    3.8868  -15.6706   -1.8379 H   0  0  0  0  0  0  0  0  0  0  0  0
    4.9022  -17.6582   -1.3653 H   0  0  0  0  0  0  0  0  0  0  0  0
    3.4206  -19.4234   -0.3646 H   0  0  0  0  0  0  0  0  0  0  0  0
    3.0651  -18.3525    1.0667 H   0  0  0  0  0  0  0  0  0  0  0  0
    5.8710  -19.3303    0.2091 H   0  0  0  0  0  0  0  0  0  0  0  0
    5.4931  -18.2590    1.6268 H   0  0  0  0  0  0  0  0  0  0  0  0
    3.1000  -13.2069   -2.7797 H   0  0  0  0  0  0  0  0  0  0  0  0
    2.4866  -10.5750   -2.6515 H   0  0  0  0  0  0  0  0  0  0  0  0
    0.7799   -6.1338   -1.2729 H   0  0  0  0  0  0  0  0  0  0  0  0
    2.9896   -0.0903    0.8895 H   0  0  0  0  0  0  0  0  0  0  0  0
    1.9385    1.1306    1.6211 H   0  0  0  0  0  0  0  0  0  0  0  0
    2.5385    1.3339   -0.0566 H   0  0  0  0  0  0  0  0  0  0  0  0
  1  2  1  0  0  0  0
  1 33  1  0  0  0  0
  1 34  1  0  0  0  0
  1 35  1  0  0  0  0
  2  3  1  0  0  0  0
  2 32  2  0  0  0  0
  3  4  2  0  0  0  0
  3 36  1  0  0  0  0
  4  5  1  0  0  0  0
  4 30  1  0  0  0  0
  5  6  2  0  0  0  0
  5  7  1  0  0  0  0
  7  8  1  0  0  0  0
  7 37  1  0  0  0  0
  8  9  1  0  0  0  0
  8 29  2  0  0  0  0
  9 10  2  0  0  0  0
  9 38  1  0  0  0  0
 10 11  1  0  0  0  0
 10 39  1  0  0  0  0
 11 12  2  0  0  0  0
 11 40  1  0  0  0  0
 12 13  1  0  0  0  0
 12 29  1  0  0  0  0
 13 14  1  0  0  0  0
 14 15  1  0  0  0  0
 14 28  2  0  0  0  0
 15 16  2  0  0  0  0
 15 41  1  0  0  0  0
 16 17  1  0  0  0  0
 16 42  1  0  0  0  0
 17 18  2  0  0  0  0
 17 27  1  0  0  0  0
 18 19  1  0  0  0  0
 19 20  1  0  0  0  0
 19 26  2  0  0  0  0
 20 21  1  0  0  0  0
 20 43  1  0  0  0  0
 21 22  2  0  0  0  0
 21 23  1  0  0  0  0
 23 24  1  0  0  0  0
 23 25  1  0  0  0  0
 23 44  1  0  0  0  0
 24 25  1  0  0  0  0
 24 45  1  0  0  0  0
 24 46  1  0  0  0  0
 25 47  1  0  0  0  0
 25 48  1  0  0  0  0
 26 27  1  0  0  0  0
 26 49  1  0  0  0  0
 27 28  1  0  0  0  0
 28 50  1  0  0  0  0
 29 51  1  0  0  0  0
 30 31  1  0  0  0  0
 30 32  1  0  0  0  0
 31 52  1  0  0  0  0
 31 53  1  0  0  0  0
 31 54  1  0  0  0  0
M  END
$$$$
