CHEMBL3890607
 OpenBabel04072215373D

 68 71  0  0  0  0  0  0  0  0999 V2000
    0.9854   -0.1242   -5.1840 C   0  0  0  0  0  0  0  0  0  0  0  0
    2.2539   -0.6435   -4.9881 O   0  0  0  0  0  0  0  0  0  0  0  0
    2.8997   -0.7546   -3.7945 C   0  0  0  0  0  0  0  0  0  0  0  0
    2.2529   -0.4635   -2.5758 C   0  0  0  0  0  0  0  0  0  0  0  0
    2.9069   -0.6579   -1.3671 C   0  0  0  0  0  0  0  0  0  0  0  0
    2.2207   -0.4271   -0.2123 O   0  0  0  0  0  0  0  0  0  0  0  0
    2.5453   -0.8990    1.0523 C   0  0  0  0  0  0  0  0  0  0  0  0
    4.2397   -1.0922   -1.3768 C   0  0  0  0  0  0  0  0  0  0  0  0
    4.9549   -1.3770   -2.5819 C   0  0  0  0  0  0  0  0  0  0  0  0
    6.3100   -1.9267   -2.5501 N   0  0  0  0  0  0  0  0  0  0  0  0
    6.9155   -2.3683   -1.2386 C   0  0  0  0  0  0  0  0  0  0  0  0
    8.3220   -1.7546   -1.0908 C   0  0  0  0  0  0  0  0  0  0  0  0
    9.1405   -2.1633    0.0812 N   0  0  0  0  0  0  0  0  0  0  0  0
   10.4456   -1.4602    0.0143 C   0  0  0  0  0  0  0  0  0  0  0  0
   11.3629   -2.0324   -1.1006 C   0  0  0  0  0  0  0  0  0  0  0  0
   11.5999   -3.4638   -0.8892 N   0  0  0  0  0  0  0  0  0  0  0  0
   10.3303   -4.2017   -0.8178 C   0  0  0  0  0  0  0  0  0  0  0  0
    9.3973   -3.6167    0.2627 C   0  0  0  0  0  0  0  0  0  0  0  0
    7.1594   -2.2596   -3.7097 C   0  0  0  0  0  0  0  0  0  0  0  0
    7.6749   -3.5594   -3.6451 C   0  0  0  0  0  0  0  0  0  0  0  0
    8.8177   -3.9084   -4.2652 C   0  0  0  0  0  0  0  0  0  0  0  0
    9.4696   -3.0413   -5.0709 C   0  0  0  0  0  0  0  0  0  0  0  0
   10.6717   -3.4344   -5.4506 N   0  0  0  0  0  0  0  0  0  0  0  0
   11.4091   -2.7596   -6.3074 C   0  0  0  0  0  0  0  0  0  0  0  0
   10.8653   -1.6497   -6.9661 C   0  0  0  0  0  0  0  0  0  0  0  0
   11.6125   -1.3839   -8.3019 C   0  0  0  0  0  0  0  0  0  0  0  0
   12.6344   -2.2466   -8.7679 C   0  0  0  0  0  0  0  0  0  0  0  0
   12.9772   -1.9473  -10.0132 N   0  0  0  0  0  0  0  0  0  0  0  0
   12.2562   -0.9187  -10.3922 N   0  0  0  0  0  0  0  0  0  0  0  0
   12.3428   -0.4564  -11.7706 C   0  0  0  0  0  0  0  0  0  0  0  0
   11.4363   -0.5043   -9.3782 C   0  0  0  0  0  0  0  0  0  0  0  0
    9.6532   -1.1155   -6.4722 N   0  0  0  0  0  0  0  0  0  0  0  0
    8.9444   -1.7892   -5.4524 C   0  0  0  0  0  0  0  0  0  0  0  0
    7.7471   -1.3467   -4.7085 C   0  0  0  0  0  0  0  0  0  0  0  0
    4.2445   -1.2062   -3.7895 C   0  0  0  0  0  0  0  0  0  0  0  0
    2.3867    2.6289    0.6010 Cl  0  0  0  0  0  0  0  0  0  0  0  0
    0.6935   -0.2719   -6.2437 H   0  0  0  0  0  0  0  0  0  0  0  0
    0.9807    0.9643   -4.9628 H   0  0  0  0  0  0  0  0  0  0  0  0
    0.2310   -0.6426   -4.5519 H   0  0  0  0  0  0  0  0  0  0  0  0
    1.2265   -0.1295   -2.5478 H   0  0  0  0  0  0  0  0  0  0  0  0
    1.8210   -0.4998    1.7931 H   0  0  0  0  0  0  0  0  0  0  0  0
    3.5574   -0.5750    1.3707 H   0  0  0  0  0  0  0  0  0  0  0  0
    2.4776   -2.0088    1.0669 H   0  0  0  0  0  0  0  0  0  0  0  0
    4.6700   -1.1924   -0.4130 H   0  0  0  0  0  0  0  0  0  0  0  0
    6.9780   -3.4665   -1.1846 H   0  0  0  0  0  0  0  0  0  0  0  0
    6.3585   -2.1596   -0.3245 H   0  0  0  0  0  0  0  0  0  0  0  0
    8.1654   -0.6566   -1.0517 H   0  0  0  0  0  0  0  0  0  0  0  0
    8.8822   -1.9803   -1.9999 H   0  0  0  0  0  0  0  0  0  0  0  0
   10.9695   -1.5678    0.9879 H   0  0  0  0  0  0  0  0  0  0  0  0
   10.2923   -0.3717   -0.1510 H   0  0  0  0  0  0  0  0  0  0  0  0
   12.3316   -1.4921   -1.0969 H   0  0  0  0  0  0  0  0  0  0  0  0
   10.9512   -1.8779   -2.1197 H   0  0  0  0  0  0  0  0  0  0  0  0
   12.1331   -3.5933    0.0016 H   0  0  0  0  0  0  0  0  0  0  0  0
   10.5471   -5.2681   -0.5821 H   0  0  0  0  0  0  0  0  0  0  0  0
    9.8286   -4.1808   -1.8001 H   0  0  0  0  0  0  0  0  0  0  0  0
    9.9017   -3.7623    1.2463 H   0  0  0  0  0  0  0  0  0  0  0  0
    8.4546   -4.1964    0.3193 H   0  0  0  0  0  0  0  0  0  0  0  0
    7.2879   -4.3085   -2.9852 H   0  0  0  0  0  0  0  0  0  0  0  0
    9.2519   -4.8763   -4.0640 H   0  0  0  0  0  0  0  0  0  0  0  0
   12.3440   -3.2010   -6.5045 H   0  0  0  0  0  0  0  0  0  0  0  0
   13.0828   -3.1157   -8.3234 H   0  0  0  0  0  0  0  0  0  0  0  0
   13.0116   -1.1433  -12.3506 H   0  0  0  0  0  0  0  0  0  0  0  0
   12.7625    0.5639  -11.8253 H   0  0  0  0  0  0  0  0  0  0  0  0
   11.3410   -0.5189  -12.2392 H   0  0  0  0  0  0  0  0  0  0  0  0
   10.7251    0.3021   -9.4695 H   0  0  0  0  0  0  0  0  0  0  0  0
    7.3783   -0.3304   -4.8191 H   0  0  0  0  0  0  0  0  0  0  0  0
    4.7125   -1.4522   -4.7319 H   0  0  0  0  0  0  0  0  0  0  0  0
    1.8784    2.1003   -0.5636 H   0  0  0  0  0  0  0  0  0  0  0  0
  1  2  1  0  0  0  0
  1 37  1  0  0  0  0
  1 38  1  0  0  0  0
  1 39  1  0  0  0  0
  2  3  1  0  0  0  0
  3  4  1  0  0  0  0
  3 35  2  0  0  0  0
  4  5  2  0  0  0  0
  4 40  1  0  0  0  0
  5  6  1  0  0  0  0
  5  8  1  0  0  0  0
  6  7  1  0  0  0  0
  7 41  1  0  0  0  0
  7 42  1  0  0  0  0
  7 43  1  0  0  0  0
  8  9  2  0  0  0  0
  8 44  1  0  0  0  0
  9 10  1  0  0  0  0
  9 35  1  0  0  0  0
 10 11  1  0  0  0  0
 10 19  1  0  0  0  0
 11 12  1  0  0  0  0
 11 45  1  0  0  0  0
 11 46  1  0  0  0  0
 12 13  1  0  0  0  0
 12 47  1  0  0  0  0
 12 48  1  0  0  0  0
 13 14  1  0  0  0  0
 13 18  1  0  0  0  0
 14 15  1  0  0  0  0
 14 49  1  0  0  0  0
 14 50  1  0  0  0  0
 15 16  1  0  0  0  0
 15 51  1  0  0  0  0
 15 52  1  0  0  0  0
 16 17  1  0  0  0  0
 16 53  1  0  0  0  0
 17 18  1  0  0  0  0
 17 54  1  0  0  0  0
 17 55  1  0  0  0  0
 18 56  1  0  0  0  0
 18 57  1  0  0  0  0
 19 20  1  0  0  0  0
 19 34  2  0  0  0  0
 20 21  2  0  0  0  0
 20 58  1  0  0  0  0
 21 22  1  0  0  0  0
 21 59  1  0  0  0  0
 22 23  1  0  0  0  0
 22 33  2  0  0  0  0
 23 24  2  0  0  0  0
 24 25  1  0  0  0  0
 24 60  1  0  0  0  0
 25 26  1  0  0  0  0
 25 32  2  0  0  0  0
 26 27  1  0  0  0  0
 26 31  2  0  0  0  0
 27 28  2  0  0  0  0
 27 61  1  0  0  0  0
 28 29  1  0  0  0  0
 29 30  1  0  0  0  0
 29 31  1  0  0  0  0
 30 62  1  0  0  0  0
 30 63  1  0  0  0  0
 30 64  1  0  0  0  0
 31 65  1  0  0  0  0
 32 33  1  0  0  0  0
 33 34  1  0  0  0  0
 34 66  1  0  0  0  0
 35 67  1  0  0  0  0
 36 68  1  0  0  0  0
M  END
$$$$
