CHEMBL3740003
 OpenBabel04072215373D

 56 60  0  0  0  0  0  0  0  0999 V2000
    2.2173    0.0349    0.0112 C   0  0  0  0  0  0  0  0  0  0  0  0
    0.7359   -0.0910    0.0225 C   0  0  0  0  0  0  0  0  0  0  0  0
   -0.0811    1.0056   -0.0523 N   0  0  0  0  0  0  0  0  0  0  0  0
   -1.4165    0.6487   -0.0057 C   0  0  0  0  0  0  0  0  0  0  0  0
   -2.4622    1.6916   -0.0302 C   0  0  0  0  0  0  0  0  0  0  0  0
   -3.6735    1.5000   -0.7083 C   0  0  0  0  0  0  0  0  0  0  0  0
   -4.7202    2.4192   -0.5864 C   0  0  0  0  0  0  0  0  0  0  0  0
   -4.5458    3.5810    0.1598 C   0  0  0  0  0  0  0  0  0  0  0  0
   -3.3226    3.8275    0.7765 C   0  0  0  0  0  0  0  0  0  0  0  0
   -2.2919    2.8861    0.6896 C   0  0  0  0  0  0  0  0  0  0  0  0
   -1.4529   -0.7524    0.0803 C   0  0  0  0  0  0  0  0  0  0  0  0
   -2.6784   -1.5652    0.1531 C   0  0  0  0  0  0  0  0  0  0  0  0
   -2.7856   -2.7741   -0.5510 C   0  0  0  0  0  0  0  0  0  0  0  0
   -3.9485   -3.5490   -0.4900 C   0  0  0  0  0  0  0  0  0  0  0  0
   -5.0465   -3.1004    0.2358 C   0  0  0  0  0  0  0  0  0  0  0  0
   -4.9663   -1.8986    0.9315 C   0  0  0  0  0  0  0  0  0  0  0  0
   -3.7787   -1.1605    0.9219 C   0  0  0  0  0  0  0  0  0  0  0  0
   -0.0844   -1.1992    0.0970 C   0  0  0  0  0  0  0  0  0  0  0  0
    0.4098   -2.5376    0.1265 C   0  0  0  0  0  0  0  0  0  0  0  0
    0.7090   -3.2219   -0.9811 C   0  0  0  0  0  0  0  0  0  0  0  0
    1.1548   -4.5714   -0.8810 C   0  0  0  0  0  0  0  0  0  0  0  0
    1.3375   -5.1781    0.3029 C   0  0  0  0  0  0  0  0  0  0  0  0
    1.7875   -6.4897    0.4651 N   0  0  0  0  0  0  0  0  0  0  0  0
    2.1190   -7.3640   -0.5562 C   0  0  0  0  0  0  0  0  0  0  0  0
    2.0400   -7.0952   -1.7528 O   0  0  0  0  0  0  0  0  0  0  0  0
    2.6228   -8.7230   -0.2216 C   0  0  0  0  0  0  0  0  0  0  0  0
    2.3083   -9.4100    0.9531 C   0  0  0  0  0  0  0  0  0  0  0  0
    2.7485  -10.7309    1.1190 C   0  0  0  0  0  0  0  0  0  0  0  0
    3.4974  -11.3635    0.1223 C   0  0  0  0  0  0  0  0  0  0  0  0
    3.8204  -10.6800   -1.0444 C   0  0  0  0  0  0  0  0  0  0  0  0
    3.3855   -9.3678   -1.2128 C   0  0  0  0  0  0  0  0  0  0  0  0
    1.0494   -4.3876    1.5498 C   0  0  0  0  0  0  0  0  0  0  0  0
    1.2387   -4.9014    2.6516 O   0  0  0  0  0  0  0  0  0  0  0  0
    0.5756   -3.1054    1.4107 O   0  0  0  0  0  0  0  0  0  0  0  0
    2.5347    1.0826   -0.0086 H   0  0  0  0  0  0  0  0  0  0  0  0
    2.6392   -0.4619   -0.8683 H   0  0  0  0  0  0  0  0  0  0  0  0
    2.6443   -0.4279    0.9069 H   0  0  0  0  0  0  0  0  0  0  0  0
    0.2450    1.9589   -0.1337 H   0  0  0  0  0  0  0  0  0  0  0  0
   -3.8369    0.6025   -1.3007 H   0  0  0  0  0  0  0  0  0  0  0  0
   -5.6767    2.2128   -1.0595 H   0  0  0  0  0  0  0  0  0  0  0  0
   -5.3632    4.2895    0.2646 H   0  0  0  0  0  0  0  0  0  0  0  0
   -3.1783    4.7393    1.3505 H   0  0  0  0  0  0  0  0  0  0  0  0
   -1.3689    3.0849    1.2282 H   0  0  0  0  0  0  0  0  0  0  0  0
   -1.9739   -3.1346   -1.1723 H   0  0  0  0  0  0  0  0  0  0  0  0
   -3.9961   -4.4960   -1.0216 H   0  0  0  0  0  0  0  0  0  0  0  0
   -5.9613   -3.6859    0.2603 H   0  0  0  0  0  0  0  0  0  0  0  0
   -5.8252   -1.5289    1.4848 H   0  0  0  0  0  0  0  0  0  0  0  0
   -3.7385   -0.2419    1.5022 H   0  0  0  0  0  0  0  0  0  0  0  0
    0.5875   -2.7914   -1.9703 H   0  0  0  0  0  0  0  0  0  0  0  0
    1.3235   -5.0625   -1.8292 H   0  0  0  0  0  0  0  0  0  0  0  0
    1.9133   -6.7750    1.4320 H   0  0  0  0  0  0  0  0  0  0  0  0
    1.6902   -8.9656    1.7260 H   0  0  0  0  0  0  0  0  0  0  0  0
    2.4892  -11.2820    2.0200 H   0  0  0  0  0  0  0  0  0  0  0  0
    3.8184  -12.3949    0.2477 H   0  0  0  0  0  0  0  0  0  0  0  0
    4.3899  -11.1658   -1.8325 H   0  0  0  0  0  0  0  0  0  0  0  0
    3.6237   -8.8503   -2.1414 H   0  0  0  0  0  0  0  0  0  0  0  0
  1  2  1  0  0  0  0
  1 35  1  0  0  0  0
  1 36  1  0  0  0  0
  1 37  1  0  0  0  0
  2  3  1  0  0  0  0
  2 18  2  0  0  0  0
  3  4  1  0  0  0  0
  3 38  1  0  0  0  0
  4  5  1  0  0  0  0
  4 11  2  0  0  0  0
  5  6  1  0  0  0  0
  5 10  2  0  0  0  0
  6  7  2  0  0  0  0
  6 39  1  0  0  0  0
  7  8  1  0  0  0  0
  7 40  1  0  0  0  0
  8  9  2  0  0  0  0
  8 41  1  0  0  0  0
  9 10  1  0  0  0  0
  9 42  1  0  0  0  0
 10 43  1  0  0  0  0
 11 12  1  0  0  0  0
 11 18  1  0  0  0  0
 12 13  1  0  0  0  0
 12 17  2  0  0  0  0
 13 14  2  0  0  0  0
 13 44  1  0  0  0  0
 14 15  1  0  0  0  0
 14 45  1  0  0  0  0
 15 16  2  0  0  0  0
 15 46  1  0  0  0  0
 16 17  1  0  0  0  0
 16 47  1  0  0  0  0
 17 48  1  0  0  0  0
 18 19  1  0  0  0  0
 19 20  2  0  0  0  0
 19 34  1  0  0  0  0
 20 21  1  0  0  0  0
 20 49  1  0  0  0  0
 21 22  2  0  0  0  0
 21 50  1  0  0  0  0
 22 23  1  0  0  0  0
 22 32  1  0  0  0  0
 23 24  1  0  0  0  0
 23 51  1  0  0  0  0
 24 25  2  0  0  0  0
 24 26  1  0  0  0  0
 26 27  1  0  0  0  0
 26 31  2  0  0  0  0
 27 28  2  0  0  0  0
 27 52  1  0  0  0  0
 28 29  1  0  0  0  0
 28 53  1  0  0  0  0
 29 30  2  0  0  0  0
 29 54  1  0  0  0  0
 30 31  1  0  0  0  0
 30 55  1  0  0  0  0
 31 56  1  0  0  0  0
 32 33  2  0  0  0  0
 32 34  1  0  0  0  0
M  END
$$$$
