CHEMBL244097
 OpenBabel04072215363D

 53 56  0  0  0  0  0  0  0  0999 V2000
    6.8121    2.2007   -9.7699 C   0  0  0  0  0  0  0  0  0  0  0  0
    6.2862    3.3880   -9.1708 O   0  0  0  0  0  0  0  0  0  0  0  0
    6.7889    3.6382   -7.9269 C   0  0  0  0  0  0  0  0  0  0  0  0
    7.6113    2.9180   -7.3807 O   0  0  0  0  0  0  0  0  0  0  0  0
    6.2048    4.7798   -7.4574 N   0  0  0  0  0  0  0  0  0  0  0  0
    6.5265    5.3198   -6.2422 C   0  0  0  0  0  0  0  0  0  0  0  0
    7.4145    4.8982   -5.3727 N   0  0  0  0  0  0  0  0  0  0  0  0
    7.3948    5.7956   -4.3380 C   0  0  0  0  0  0  0  0  0  0  0  0
    8.1802    5.8431   -3.1788 C   0  0  0  0  0  0  0  0  0  0  0  0
    7.9910    6.9090   -2.2910 C   0  0  0  0  0  0  0  0  0  0  0  0
    8.8435    6.9443   -1.2074 O   0  0  0  0  0  0  0  0  0  0  0  0
    9.2472    8.1579   -0.7061 C   0  0  0  0  0  0  0  0  0  0  0  0
    9.4851    8.2078    0.6658 C   0  0  0  0  0  0  0  0  0  0  0  0
    9.8425    9.4139    1.2810 C   0  0  0  0  0  0  0  0  0  0  0  0
    9.9663   10.5898    0.5360 C   0  0  0  0  0  0  0  0  0  0  0  0
   10.2400   11.8549    1.1100 N   0  0  0  0  0  0  0  0  0  0  0  0
   10.5717   12.0985    2.4302 C   0  0  0  0  0  0  0  0  0  0  0  0
   10.8180   11.2397    3.2711 O   0  0  0  0  0  0  0  0  0  0  0  0
   10.5681   13.4607    2.7200 N   0  0  0  0  0  0  0  0  0  0  0  0
   10.8890   13.9093    4.0229 C   0  0  0  0  0  0  0  0  0  0  0  0
   10.0780   14.8672    4.6341 C   0  0  0  0  0  0  0  0  0  0  0  0
   10.3246   15.2475    5.9556 C   0  0  0  0  0  0  0  0  0  0  0  0
   11.4018   14.6980    6.6551 C   0  0  0  0  0  0  0  0  0  0  0  0
   12.2381   13.7624    6.0357 C   0  0  0  0  0  0  0  0  0  0  0  0
   13.3951   13.2367    6.8034 C   0  0  0  0  0  0  0  0  0  0  0  0
   13.9378   13.8713    7.6878 O   0  0  0  0  0  0  0  0  0  0  0  0
   13.7730   11.9870    6.4550 O   0  0  0  0  0  0  0  0  0  0  0  0
   11.9887   13.3841    4.7134 C   0  0  0  0  0  0  0  0  0  0  0  0
    9.7862   10.5248   -0.8519 C   0  0  0  0  0  0  0  0  0  0  0  0
    9.4533    9.3071   -1.4674 C   0  0  0  0  0  0  0  0  0  0  0  0
    6.9637    7.8389   -2.5023 C   0  0  0  0  0  0  0  0  0  0  0  0
    6.1812    7.8138   -3.6632 C   0  0  0  0  0  0  0  0  0  0  0  0
    6.4411    6.7808   -4.5621 C   0  0  0  0  0  0  0  0  0  0  0  0
    5.9109    6.4588   -5.7861 N   0  0  0  0  0  0  0  0  0  0  0  0
    6.4884    2.1735  -10.8139 H   0  0  0  0  0  0  0  0  0  0  0  0
    6.4149    1.3188   -9.2581 H   0  0  0  0  0  0  0  0  0  0  0  0
    7.9071    2.1978   -9.7530 H   0  0  0  0  0  0  0  0  0  0  0  0
    5.5255    5.2119   -8.0619 H   0  0  0  0  0  0  0  0  0  0  0  0
    8.9320    5.0825   -3.0004 H   0  0  0  0  0  0  0  0  0  0  0  0
    9.3833    7.3097    1.2699 H   0  0  0  0  0  0  0  0  0  0  0  0
    9.9931    9.3930    2.3557 H   0  0  0  0  0  0  0  0  0  0  0  0
   10.3097   12.6394    0.4770 H   0  0  0  0  0  0  0  0  0  0  0  0
    9.8753   13.9966    2.2163 H   0  0  0  0  0  0  0  0  0  0  0  0
    9.2169   15.2836    4.1189 H   0  0  0  0  0  0  0  0  0  0  0  0
    9.6697   15.9616    6.4495 H   0  0  0  0  0  0  0  0  0  0  0  0
   11.5896   15.0008    7.6839 H   0  0  0  0  0  0  0  0  0  0  0  0
   13.1654   11.5140    5.8559 H   0  0  0  0  0  0  0  0  0  0  0  0
   12.6547   12.6954    4.1994 H   0  0  0  0  0  0  0  0  0  0  0  0
    9.8877   11.4072   -1.4709 H   0  0  0  0  0  0  0  0  0  0  0  0
    9.3429    9.2827   -2.5492 H   0  0  0  0  0  0  0  0  0  0  0  0
    6.7750    8.6199   -1.7688 H   0  0  0  0  0  0  0  0  0  0  0  0
    5.4234    8.5669   -3.8464 H   0  0  0  0  0  0  0  0  0  0  0  0
    5.1981    6.9794   -6.2720 H   0  0  0  0  0  0  0  0  0  0  0  0
  1  2  1  0  0  0  0
  1 35  1  0  0  0  0
  1 36  1  0  0  0  0
  1 37  1  0  0  0  0
  2  3  1  0  0  0  0
  3  4  2  0  0  0  0
  3  5  1  0  0  0  0
  5  6  1  0  0  0  0
  5 38  1  0  0  0  0
  6  7  2  0  0  0  0
  6 34  1  0  0  0  0
  7  8  1  0  0  0  0
  8  9  1  0  0  0  0
  8 33  2  0  0  0  0
  9 10  2  0  0  0  0
  9 39  1  0  0  0  0
 10 11  1  0  0  0  0
 10 31  1  0  0  0  0
 11 12  1  0  0  0  0
 12 13  1  0  0  0  0
 12 30  2  0  0  0  0
 13 14  2  0  0  0  0
 13 40  1  0  0  0  0
 14 15  1  0  0  0  0
 14 41  1  0  0  0  0
 15 16  1  0  0  0  0
 15 29  2  0  0  0  0
 16 17  1  0  0  0  0
 16 42  1  0  0  0  0
 17 18  2  0  0  0  0
 17 19  1  0  0  0  0
 19 20  1  0  0  0  0
 19 43  1  0  0  0  0
 20 21  1  0  0  0  0
 20 28  2  0  0  0  0
 21 22  2  0  0  0  0
 21 44  1  0  0  0  0
 22 23  1  0  0  0  0
 22 45  1  0  0  0  0
 23 24  2  0  0  0  0
 23 46  1  0  0  0  0
 24 25  1  0  0  0  0
 24 28  1  0  0  0  0
 25 26  2  0  0  0  0
 25 27  1  0  0  0  0
 27 47  1  0  0  0  0
 28 48  1  0  0  0  0
 29 30  1  0  0  0  0
 29 49  1  0  0  0  0
 30 50  1  0  0  0  0
 31 32  2  0  0  0  0
 31 51  1  0  0  0  0
 32 33  1  0  0  0  0
 32 52  1  0  0  0  0
 33 34  1  0  0  0  0
 34 53  1  0  0  0  0
M  END
$$$$
