CHEMBL390735
 OpenBabel04072215373D

 62 67  0  0  0  0  0  0  0  0999 V2000
   -2.8513    1.6896   -4.6226 C   0  0  0  0  0  0  0  0  0  0  0  0
   -3.3911    1.4892   -3.2806 N   0  0  0  0  0  0  0  0  0  0  0  0
   -3.5667    0.0525   -3.0221 C   0  0  0  0  0  0  0  0  0  0  0  0
   -4.1710   -0.1942   -1.6375 C   0  0  0  0  0  0  0  0  0  0  0  0
   -3.4046    0.4315   -0.5540 N   0  0  0  0  0  0  0  0  0  0  0  0
   -3.2136   -0.0871    0.7335 C   0  0  0  0  0  0  0  0  0  0  0  0
   -2.4930    0.4651    1.5647 O   0  0  0  0  0  0  0  0  0  0  0  0
   -3.8781   -1.3631    1.1470 C   0  0  0  0  0  0  0  0  0  0  0  0
   -3.1929   -2.2554    2.0093 C   0  0  0  0  0  0  0  0  0  0  0  0
   -3.7583   -3.4847    2.3975 C   0  0  0  0  0  0  0  0  0  0  0  0
   -4.9957   -3.8035    1.8831 C   0  0  0  0  0  0  0  0  0  0  0  0
   -5.7023   -2.9097    1.0394 C   0  0  0  0  0  0  0  0  0  0  0  0
   -5.1783   -1.6685    0.7319 C   0  0  0  0  0  0  0  0  0  0  0  0
   -7.0348   -3.4654    0.5199 C   0  0  0  0  0  0  0  0  0  0  0  0
   -6.9931   -4.7592    1.2455 C   0  0  0  0  0  0  0  0  0  0  0  0
   -7.7468   -5.9235    1.4370 C   0  0  0  0  0  0  0  0  0  0  0  0
   -9.0443   -6.2150    0.8022 C   0  0  0  0  0  0  0  0  0  0  0  0
   -9.6871   -5.4246   -0.1290 C   0  0  0  0  0  0  0  0  0  0  0  0
  -11.1740   -6.0937   -0.6460 S   0  0  0  0  0  0  0  0  0  0  0  0
  -10.9812   -7.4605    0.3633 C   0  0  0  0  0  0  0  0  0  0  0  0
  -11.9472   -8.5086    0.4220 C   0  0  0  0  0  0  0  0  0  0  0  0
  -12.8048   -9.3537    0.4364 C   0  0  0  0  0  0  0  0  0  0  0  0
  -13.9077  -10.3224    0.4388 C   0  0  0  0  0  0  0  0  0  0  0  0
  -13.3880  -11.6460    0.3183 O   0  0  0  0  0  0  0  0  0  0  0  0
  -14.2934  -12.6719    0.3518 C   0  0  0  0  0  0  0  0  0  0  0  0
  -15.6781  -12.5465    0.4836 C   0  0  0  0  0  0  0  0  0  0  0  0
  -16.4893  -13.6856    0.5165 C   0  0  0  0  0  0  0  0  0  0  0  0
  -15.9222  -14.9545    0.4149 C   0  0  0  0  0  0  0  0  0  0  0  0
  -14.5435  -15.0869    0.2752 C   0  0  0  0  0  0  0  0  0  0  0  0
  -13.7324  -13.9492    0.2444 C   0  0  0  0  0  0  0  0  0  0  0  0
   -9.8050   -7.3981    1.0850 C   0  0  0  0  0  0  0  0  0  0  0  0
   -7.1183   -6.7609    2.2883 N   0  0  0  0  0  0  0  0  0  0  0  0
   -5.9631   -6.1183    2.6180 N   0  0  0  0  0  0  0  0  0  0  0  0
   -5.8593   -4.9297    1.9945 C   0  0  0  0  0  0  0  0  0  0  0  0
   -3.0322    1.8289   -0.8128 C   0  0  0  0  0  0  0  0  0  0  0  0
   -2.4987    2.0569   -2.2461 C   0  0  0  0  0  0  0  0  0  0  0  0
   -3.5363    1.2736   -5.3706 H   0  0  0  0  0  0  0  0  0  0  0  0
   -1.8737    1.2122   -4.7531 H   0  0  0  0  0  0  0  0  0  0  0  0
   -2.7536    2.7572   -4.8447 H   0  0  0  0  0  0  0  0  0  0  0  0
   -2.6067   -0.4760   -3.0924 H   0  0  0  0  0  0  0  0  0  0  0  0
   -4.2410   -0.3852   -3.7682 H   0  0  0  0  0  0  0  0  0  0  0  0
   -4.2286   -1.2748   -1.5014 H   0  0  0  0  0  0  0  0  0  0  0  0
   -5.1831    0.2297   -1.6009 H   0  0  0  0  0  0  0  0  0  0  0  0
   -2.2068   -1.9809    2.3843 H   0  0  0  0  0  0  0  0  0  0  0  0
   -3.2236   -4.1510    3.0652 H   0  0  0  0  0  0  0  0  0  0  0  0
   -5.7739   -0.9694    0.1593 H   0  0  0  0  0  0  0  0  0  0  0  0
   -6.9923   -3.6006   -0.5646 H   0  0  0  0  0  0  0  0  0  0  0  0
   -7.8685   -2.8316    0.8281 H   0  0  0  0  0  0  0  0  0  0  0  0
   -9.3720   -4.4825   -0.5500 H   0  0  0  0  0  0  0  0  0  0  0  0
  -14.5719  -10.1086   -0.4066 H   0  0  0  0  0  0  0  0  0  0  0  0
  -14.4639  -10.2201    1.3787 H   0  0  0  0  0  0  0  0  0  0  0  0
  -16.1637  -11.5788    0.5622 H   0  0  0  0  0  0  0  0  0  0  0  0
  -17.5663  -13.5815    0.6226 H   0  0  0  0  0  0  0  0  0  0  0  0
  -16.5549  -15.8383    0.4446 H   0  0  0  0  0  0  0  0  0  0  0  0
  -14.0966  -16.0740    0.1923 H   0  0  0  0  0  0  0  0  0  0  0  0
  -12.6563  -14.0581    0.1392 H   0  0  0  0  0  0  0  0  0  0  0  0
   -9.4941   -8.1643    1.7858 H   0  0  0  0  0  0  0  0  0  0  0  0
   -5.3245   -6.5647    3.2673 H   0  0  0  0  0  0  0  0  0  0  0  0
   -2.2914    2.1774   -0.0857 H   0  0  0  0  0  0  0  0  0  0  0  0
   -3.9400    2.4271   -0.6602 H   0  0  0  0  0  0  0  0  0  0  0  0
   -1.4988    1.6099   -2.3248 H   0  0  0  0  0  0  0  0  0  0  0  0
   -2.3906    3.1361   -2.4072 H   0  0  0  0  0  0  0  0  0  0  0  0
  1  2  1  0  0  0  0
  1 37  1  0  0  0  0
  1 38  1  0  0  0  0
  1 39  1  0  0  0  0
  2  3  1  0  0  0  0
  2 36  1  0  0  0  0
  3  4  1  0  0  0  0
  3 40  1  0  0  0  0
  3 41  1  0  0  0  0
  4  5  1  0  0  0  0
  4 42  1  0  0  0  0
  4 43  1  0  0  0  0
  5  6  1  0  0  0  0
  5 35  1  0  0  0  0
  6  7  2  0  0  0  0
  6  8  1  0  0  0  0
  8  9  1  0  0  0  0
  8 13  2  0  0  0  0
  9 10  2  0  0  0  0
  9 44  1  0  0  0  0
 10 11  1  0  0  0  0
 10 45  1  0  0  0  0
 11 12  2  0  0  0  0
 11 34  1  0  0  0  0
 12 13  1  0  0  0  0
 12 14  1  0  0  0  0
 13 46  1  0  0  0  0
 14 15  1  0  0  0  0
 14 47  1  0  0  0  0
 14 48  1  0  0  0  0
 15 16  1  0  0  0  0
 15 34  2  0  0  0  0
 16 17  1  0  0  0  0
 16 32  2  0  0  0  0
 17 18  2  0  0  0  0
 17 31  1  0  0  0  0
 18 19  1  0  0  0  0
 18 49  1  0  0  0  0
 19 20  1  0  0  0  0
 20 21  1  0  0  0  0
 20 31  2  0  0  0  0
 21 22  3  0  0  0  0
 22 23  1  0  0  0  0
 23 24  1  0  0  0  0
 23 50  1  0  0  0  0
 23 51  1  0  0  0  0
 24 25  1  0  0  0  0
 25 26  1  0  0  0  0
 25 30  2  0  0  0  0
 26 27  2  0  0  0  0
 26 52  1  0  0  0  0
 27 28  1  0  0  0  0
 27 53  1  0  0  0  0
 28 29  2  0  0  0  0
 28 54  1  0  0  0  0
 29 30  1  0  0  0  0
 29 55  1  0  0  0  0
 30 56  1  0  0  0  0
 31 57  1  0  0  0  0
 32 33  1  0  0  0  0
 33 34  1  0  0  0  0
 33 58  1  0  0  0  0
 35 36  1  0  0  0  0
 35 59  1  0  0  0  0
 35 60  1  0  0  0  0
 36 61  1  0  0  0  0
 36 62  1  0  0  0  0
M  END
$$$$
