CHEMBL1988038
 OpenBabel04072215363D

 39 42  0  0  0  0  0  0  0  0999 V2000
    3.0624    2.5164   -0.8558 O   0  0  0  0  0  0  0  0  0  0  0  0
    2.7721    1.6919   -2.0094 S   0  0  0  0  0  0  0  0  0  0  0  0
    3.4655    1.8944   -3.2630 O   0  0  0  0  0  0  0  0  0  0  0  0
    2.9716    0.0740   -1.5322 N   0  0  0  0  0  0  0  0  0  0  0  0
    2.6845   -0.9425   -2.4889 C   0  0  0  0  0  0  0  0  0  0  0  0
    1.3995   -1.5069   -2.5499 C   0  0  0  0  0  0  0  0  0  0  0  0
    1.0737   -2.4363   -3.5427 C   0  0  0  0  0  0  0  0  0  0  0  0
    2.0561   -2.8062   -4.4480 C   0  0  0  0  0  0  0  0  0  0  0  0
    3.3522   -2.2585   -4.3582 C   0  0  0  0  0  0  0  0  0  0  0  0
    3.6758   -1.3138   -3.3990 C   0  0  0  0  0  0  0  0  0  0  0  0
    4.1600   -2.8766   -5.4445 C   0  0  0  0  0  0  0  0  0  0  0  0
    5.4052   -2.7494   -5.7783 N   0  0  0  0  0  0  0  0  0  0  0  0
    6.0969   -1.8721   -4.9460 O   0  0  0  0  0  0  0  0  0  0  0  0
    3.2479   -3.7792   -6.1830 C   0  0  0  0  0  0  0  0  0  0  0  0
    3.5056   -4.5660   -7.2910 C   0  0  0  0  0  0  0  0  0  0  0  0
    2.4475   -5.3186   -7.8016 C   0  0  0  0  0  0  0  0  0  0  0  0
    1.1768   -5.2689   -7.1994 C   0  0  0  0  0  0  0  0  0  0  0  0
    0.9416   -4.4683   -6.0739 C   0  0  0  0  0  0  0  0  0  0  0  0
    1.9915   -3.7205   -5.5661 C   0  0  0  0  0  0  0  0  0  0  0  0
    1.0405    1.8300   -2.3211 C   0  0  0  0  0  0  0  0  0  0  0  0
    0.5652    2.1907   -3.5854 C   0  0  0  0  0  0  0  0  0  0  0  0
   -0.8133    2.2593   -3.8046 C   0  0  0  0  0  0  0  0  0  0  0  0
   -1.7048    1.9728   -2.7683 C   0  0  0  0  0  0  0  0  0  0  0  0
   -1.2218    1.6261   -1.5061 C   0  0  0  0  0  0  0  0  0  0  0  0
    0.1515    1.5620   -1.2865 C   0  0  0  0  0  0  0  0  0  0  0  0
    0.5918    1.1737   -0.0819 F   0  0  0  0  0  0  0  0  0  0  0  0
    2.6354   -0.0689   -0.5790 H   0  0  0  0  0  0  0  0  0  0  0  0
    0.6340   -1.2196   -1.8348 H   0  0  0  0  0  0  0  0  0  0  0  0
    0.0715   -2.8491   -3.5964 H   0  0  0  0  0  0  0  0  0  0  0  0
    4.6631   -0.8704   -3.3470 H   0  0  0  0  0  0  0  0  0  0  0  0
    6.9896   -1.8717   -5.3383 H   0  0  0  0  0  0  0  0  0  0  0  0
    4.4910   -4.5896   -7.7433 H   0  0  0  0  0  0  0  0  0  0  0  0
    2.6050   -5.9475   -8.6752 H   0  0  0  0  0  0  0  0  0  0  0  0
    0.3647   -5.8608   -7.6173 H   0  0  0  0  0  0  0  0  0  0  0  0
   -0.0452   -4.4389   -5.6239 H   0  0  0  0  0  0  0  0  0  0  0  0
    1.2534    2.4123   -4.3973 H   0  0  0  0  0  0  0  0  0  0  0  0
   -1.1917    2.5349   -4.7870 H   0  0  0  0  0  0  0  0  0  0  0  0
   -2.7776    2.0197   -2.9463 H   0  0  0  0  0  0  0  0  0  0  0  0
   -1.9074    1.3978   -0.6958 H   0  0  0  0  0  0  0  0  0  0  0  0
  1  2  2  0  0  0  0
  2  3  2  0  0  0  0
  2  4  1  0  0  0  0
  2 20  1  0  0  0  0
  4  5  1  0  0  0  0
  4 27  1  0  0  0  0
  5  6  1  0  0  0  0
  5 10  2  0  0  0  0
  6  7  2  0  0  0  0
  6 28  1  0  0  0  0
  7  8  1  0  0  0  0
  7 29  1  0  0  0  0
  8  9  2  0  0  0  0
  8 19  1  0  0  0  0
  9 10  1  0  0  0  0
  9 11  1  0  0  0  0
 10 30  1  0  0  0  0
 11 12  2  3  0  0  0
 11 14  1  0  0  0  0
 12 13  1  0  0  0  0
 13 31  1  0  0  0  0
 14 15  1  0  0  0  0
 14 19  2  0  0  0  0
 15 16  2  0  0  0  0
 15 32  1  0  0  0  0
 16 17  1  0  0  0  0
 16 33  1  0  0  0  0
 17 18  2  0  0  0  0
 17 34  1  0  0  0  0
 18 19  1  0  0  0  0
 18 35  1  0  0  0  0
 20 21  1  0  0  0  0
 20 25  2  0  0  0  0
 21 22  2  0  0  0  0
 21 36  1  0  0  0  0
 22 23  1  0  0  0  0
 22 37  1  0  0  0  0
 23 24  2  0  0  0  0
 23 38  1  0  0  0  0
 24 25  1  0  0  0  0
 24 39  1  0  0  0  0
 25 26  1  0  0  0  0
M  END
$$$$
