CHEMBL4458736
 OpenBabel04072215383D

 51 54  0  0  0  0  0  0  0  0999 V2000
    0.2726   -0.2851    1.7751 C   0  0  0  0  0  0  0  0  0  0  0  0
    1.6390   -0.1547    2.1592 O   0  0  0  0  0  0  0  0  0  0  0  0
    2.3989   -1.2888    2.0829 C   0  0  0  0  0  0  0  0  0  0  0  0
    1.9477   -2.5292    1.6522 C   0  0  0  0  0  0  0  0  0  0  0  0
    2.8170   -3.6198    1.6175 C   0  0  0  0  0  0  0  0  0  0  0  0
    4.1534   -3.4983    2.0059 C   0  0  0  0  0  0  0  0  0  0  0  0
    5.0619   -4.5774    1.9993 N   0  0  0  0  0  0  0  0  0  0  0  0
    4.7886   -5.8491    1.5332 C   0  0  0  0  0  0  0  0  0  0  0  0
    3.7457   -6.1871    0.9797 O   0  0  0  0  0  0  0  0  0  0  0  0
    5.8150   -6.7472    1.8062 N   0  0  0  0  0  0  0  0  0  0  0  0
    5.6332   -8.0948    1.4153 C   0  0  0  0  0  0  0  0  0  0  0  0
    5.2046   -8.4136    0.1217 C   0  0  0  0  0  0  0  0  0  0  0  0
    4.8277   -9.7161   -0.1871 C   0  0  0  0  0  0  0  0  0  0  0  0
    4.8811  -10.7040    0.8048 C   0  0  0  0  0  0  0  0  0  0  0  0
    4.4035  -12.0667    0.4581 C   0  0  0  0  0  0  0  0  0  0  0  0
    4.4441  -12.4293   -0.7152 O   0  0  0  0  0  0  0  0  0  0  0  0
    3.8773  -12.8202    1.5290 N   0  0  0  0  0  0  0  0  0  0  0  0
    3.1478  -13.9444    1.2276 N   0  0  0  0  0  0  0  0  0  0  0  0
    3.7646  -14.8015    0.4701 C   0  0  0  0  0  0  0  0  0  0  0  0
    5.2708  -15.0935    0.3555 C   0  0  0  0  0  0  0  0  0  0  0  0
    6.0924  -14.9684    1.2386 O   0  0  0  0  0  0  0  0  0  0  0  0
    5.4557  -15.5205   -0.9444 N   0  0  0  0  0  0  0  0  0  0  0  0
    4.2662  -15.3820   -1.6555 C   0  0  0  0  0  0  0  0  0  0  0  0
    4.1359  -15.1109   -3.0026 C   0  0  0  0  0  0  0  0  0  0  0  0
    2.8659  -14.7216   -3.4543 C   0  0  0  0  0  0  0  0  0  0  0  0
    1.7610  -14.6968   -2.5829 C   0  0  0  0  0  0  0  0  0  0  0  0
    0.5709  -14.2946   -3.0474 F   0  0  0  0  0  0  0  0  0  0  0  0
    1.8961  -14.9614   -1.2296 C   0  0  0  0  0  0  0  0  0  0  0  0
    3.1749  -15.2392   -0.7940 C   0  0  0  0  0  0  0  0  0  0  0  0
    5.3909  -10.4038    2.0700 C   0  0  0  0  0  0  0  0  0  0  0  0
    5.7837   -9.1004    2.3718 C   0  0  0  0  0  0  0  0  0  0  0  0
    4.6068   -2.2509    2.4390 C   0  0  0  0  0  0  0  0  0  0  0  0
    3.7332   -1.1549    2.4764 C   0  0  0  0  0  0  0  0  0  0  0  0
   -0.1956    0.7003    1.8510 H   0  0  0  0  0  0  0  0  0  0  0  0
   -0.2625   -0.9628    2.4500 H   0  0  0  0  0  0  0  0  0  0  0  0
    0.1804   -0.6143    0.7340 H   0  0  0  0  0  0  0  0  0  0  0  0
    0.9260   -2.7005    1.3312 H   0  0  0  0  0  0  0  0  0  0  0  0
    2.3963   -4.5571    1.2731 H   0  0  0  0  0  0  0  0  0  0  0  0
    6.0157   -4.3760    2.2667 H   0  0  0  0  0  0  0  0  0  0  0  0
    6.2579   -6.6001    2.7018 H   0  0  0  0  0  0  0  0  0  0  0  0
    5.1094   -7.6376   -0.6384 H   0  0  0  0  0  0  0  0  0  0  0  0
    4.4536   -9.9445   -1.1843 H   0  0  0  0  0  0  0  0  0  0  0  0
    3.5007  -12.2915    2.3104 H   0  0  0  0  0  0  0  0  0  0  0  0
    6.3651  -15.7340   -1.3264 H   0  0  0  0  0  0  0  0  0  0  0  0
    5.0016  -15.0129   -3.6497 H   0  0  0  0  0  0  0  0  0  0  0  0
    2.7336  -14.3497   -4.4671 H   0  0  0  0  0  0  0  0  0  0  0  0
    1.0800  -14.8003   -0.5375 H   0  0  0  0  0  0  0  0  0  0  0  0
    5.4752  -11.1758    2.8326 H   0  0  0  0  0  0  0  0  0  0  0  0
    6.1229   -8.8733    3.3771 H   0  0  0  0  0  0  0  0  0  0  0  0
    5.6377   -2.1106    2.7519 H   0  0  0  0  0  0  0  0  0  0  0  0
    4.0952   -0.1879    2.8161 H   0  0  0  0  0  0  0  0  0  0  0  0
  1  2  1  0  0  0  0
  1 34  1  0  0  0  0
  1 35  1  0  0  0  0
  1 36  1  0  0  0  0
  2  3  1  0  0  0  0
  3  4  1  0  0  0  0
  3 33  2  0  0  0  0
  4  5  2  0  0  0  0
  4 37  1  0  0  0  0
  5  6  1  0  0  0  0
  5 38  1  0  0  0  0
  6  7  1  0  0  0  0
  6 32  2  0  0  0  0
  7  8  1  0  0  0  0
  7 39  1  0  0  0  0
  8  9  2  0  0  0  0
  8 10  1  0  0  0  0
 10 11  1  0  0  0  0
 10 40  1  0  0  0  0
 11 12  1  0  0  0  0
 11 31  2  0  0  0  0
 12 13  2  0  0  0  0
 12 41  1  0  0  0  0
 13 14  1  0  0  0  0
 13 42  1  0  0  0  0
 14 15  1  0  0  0  0
 14 30  2  0  0  0  0
 15 16  2  0  0  0  0
 15 17  1  0  0  0  0
 17 18  1  0  0  0  0
 17 43  1  0  0  0  0
 18 19  2  0  0  0  0
 19 20  1  0  0  0  0
 19 29  1  0  0  0  0
 20 21  2  0  0  0  0
 20 22  1  0  0  0  0
 22 23  1  0  0  0  0
 22 44  1  0  0  0  0
 23 24  1  0  0  0  0
 23 29  2  0  0  0  0
 24 25  2  0  0  0  0
 24 45  1  0  0  0  0
 25 26  1  0  0  0  0
 25 46  1  0  0  0  0
 26 27  1  0  0  0  0
 26 28  2  0  0  0  0
 28 29  1  0  0  0  0
 28 47  1  0  0  0  0
 30 31  1  0  0  0  0
 30 48  1  0  0  0  0
 31 49  1  0  0  0  0
 32 33  1  0  0  0  0
 32 50  1  0  0  0  0
 33 51  1  0  0  0  0
M  END
$$$$
