CHEMBL4753664
 OpenBabel04072215383D

 50 53  0  0  0  0  0  0  0  0999 V2000
    4.4456    6.9175   -2.3569 C   0  0  0  0  0  0  0  0  0  0  0  0
    4.7399    7.5256   -1.0966 O   0  0  0  0  0  0  0  0  0  0  0  0
    4.8195    6.6603   -0.0359 C   0  0  0  0  0  0  0  0  0  0  0  0
    5.2525    5.3313   -0.2107 C   0  0  0  0  0  0  0  0  0  0  0  0
    5.2977    4.4117    0.8228 C   0  0  0  0  0  0  0  0  0  0  0  0
    5.6410    3.1513    0.5388 N   0  0  0  0  0  0  0  0  0  0  0  0
    5.6064    2.2814    1.5497 C   0  0  0  0  0  0  0  0  0  0  0  0
    5.2662    2.5591    2.8068 N   0  0  0  0  0  0  0  0  0  0  0  0
    4.9313    3.8339    3.0860 C   0  0  0  0  0  0  0  0  0  0  0  0
    4.5170    4.1578    4.4053 N   0  0  0  0  0  0  0  0  0  0  0  0
    4.0879    3.2185    5.3646 C   0  0  0  0  0  0  0  0  0  0  0  0
    4.4087    3.3878    6.7119 C   0  0  0  0  0  0  0  0  0  0  0  0
    4.0670    2.4098    7.6526 C   0  0  0  0  0  0  0  0  0  0  0  0
    3.3801    1.2592    7.2643 C   0  0  0  0  0  0  0  0  0  0  0  0
    3.0975    0.1788    8.1224 N   0  0  0  0  0  0  0  0  0  0  0  0
    3.5168    0.0201    9.4297 C   0  0  0  0  0  0  0  0  0  0  0  0
    4.1861    0.8238   10.0694 O   0  0  0  0  0  0  0  0  0  0  0  0
    3.1126   -1.2440   10.1122 C   0  0  0  0  0  0  0  0  0  0  0  0
    3.5109   -1.4284   11.4468 C   0  0  0  0  0  0  0  0  0  0  0  0
    3.1268   -2.5701   12.1529 C   0  0  0  0  0  0  0  0  0  0  0  0
    2.3462   -3.5426   11.5313 C   0  0  0  0  0  0  0  0  0  0  0  0
    1.9636   -3.3817   10.2002 C   0  0  0  0  0  0  0  0  0  0  0  0
    2.3502   -2.2404    9.4996 C   0  0  0  0  0  0  0  0  0  0  0  0
    1.9643   -2.1306    8.2180 F   0  0  0  0  0  0  0  0  0  0  0  0
    2.9576    1.1421    5.9392 C   0  0  0  0  0  0  0  0  0  0  0  0
    3.3000    2.1189    5.0045 C   0  0  0  0  0  0  0  0  0  0  0  0
    4.9409    4.8342    2.1036 C   0  0  0  0  0  0  0  0  0  0  0  0
    4.5744    6.1845    2.3079 C   0  0  0  0  0  0  0  0  0  0  0  0
    4.4939    7.0999    1.2509 C   0  0  0  0  0  0  0  0  0  0  0  0
    4.0630    8.3201    1.6837 O   0  0  0  0  0  0  0  0  0  0  0  0
    3.7321    9.3472    0.7658 C   0  0  0  0  0  0  0  0  0  0  0  0
    4.0756    7.6936   -3.0325 H   0  0  0  0  0  0  0  0  0  0  0  0
    3.6625    6.1536   -2.2719 H   0  0  0  0  0  0  0  0  0  0  0  0
    5.3535    6.4945   -2.7997 H   0  0  0  0  0  0  0  0  0  0  0  0
    5.5530    4.9706   -1.1918 H   0  0  0  0  0  0  0  0  0  0  0  0
    5.8631    1.2525    1.3263 H   0  0  0  0  0  0  0  0  0  0  0  0
    5.1359    4.8620    4.7923 H   0  0  0  0  0  0  0  0  0  0  0  0
    4.9640    4.2589    7.0476 H   0  0  0  0  0  0  0  0  0  0  0  0
    4.3717    2.5721    8.6808 H   0  0  0  0  0  0  0  0  0  0  0  0
    2.5897   -0.5907    7.6995 H   0  0  0  0  0  0  0  0  0  0  0  0
    4.1200   -0.6754   11.9456 H   0  0  0  0  0  0  0  0  0  0  0  0
    3.4346   -2.6939   13.1892 H   0  0  0  0  0  0  0  0  0  0  0  0
    2.0368   -4.4255   12.0849 H   0  0  0  0  0  0  0  0  0  0  0  0
    1.3631   -4.1380    9.7041 H   0  0  0  0  0  0  0  0  0  0  0  0
    2.3862    0.2820    5.6018 H   0  0  0  0  0  0  0  0  0  0  0  0
    2.9726    1.9974    3.9749 H   0  0  0  0  0  0  0  0  0  0  0  0
    4.3028    6.5281    3.3048 H   0  0  0  0  0  0  0  0  0  0  0  0
    3.0132   10.0036    1.2694 H   0  0  0  0  0  0  0  0  0  0  0  0
    3.2348    8.9900   -0.1372 H   0  0  0  0  0  0  0  0  0  0  0  0
    4.6191    9.9440    0.5354 H   0  0  0  0  0  0  0  0  0  0  0  0
  1  2  1  0  0  0  0
  1 32  1  0  0  0  0
  1 33  1  0  0  0  0
  1 34  1  0  0  0  0
  2  3  1  0  0  0  0
  3  4  1  0  0  0  0
  3 29  2  0  0  0  0
  4  5  2  0  0  0  0
  4 35  1  0  0  0  0
  5  6  1  0  0  0  0
  5 27  1  0  0  0  0
  6  7  2  0  0  0  0
  7  8  1  0  0  0  0
  7 36  1  0  0  0  0
  8  9  2  0  0  0  0
  9 10  1  0  0  0  0
  9 27  1  0  0  0  0
 10 11  1  0  0  0  0
 10 37  1  0  0  0  0
 11 12  1  0  0  0  0
 11 26  2  0  0  0  0
 12 13  2  0  0  0  0
 12 38  1  0  0  0  0
 13 14  1  0  0  0  0
 13 39  1  0  0  0  0
 14 15  1  0  0  0  0
 14 25  2  0  0  0  0
 15 16  1  0  0  0  0
 15 40  1  0  0  0  0
 16 17  2  0  0  0  0
 16 18  1  0  0  0  0
 18 19  1  0  0  0  0
 18 23  2  0  0  0  0
 19 20  2  0  0  0  0
 19 41  1  0  0  0  0
 20 21  1  0  0  0  0
 20 42  1  0  0  0  0
 21 22  2  0  0  0  0
 21 43  1  0  0  0  0
 22 23  1  0  0  0  0
 22 44  1  0  0  0  0
 23 24  1  0  0  0  0
 25 26  1  0  0  0  0
 25 45  1  0  0  0  0
 26 46  1  0  0  0  0
 27 28  2  0  0  0  0
 28 29  1  0  0  0  0
 28 47  1  0  0  0  0
 29 30  1  0  0  0  0
 30 31  1  0  0  0  0
 31 48  1  0  0  0  0
 31 49  1  0  0  0  0
 31 50  1  0  0  0  0
M  END
$$$$
