CHEMBL4069070
 OpenBabel04072215383D

 43 46  0  0  0  0  0  0  0  0999 V2000
    2.0565   -5.7762    6.5899 C   0  0  0  0  0  0  0  0  0  0  0  0
    3.2825   -5.6781    5.8733 O   0  0  0  0  0  0  0  0  0  0  0  0
    3.6642   -4.4119    5.4832 C   0  0  0  0  0  0  0  0  0  0  0  0
    2.9218   -3.2558    5.7165 C   0  0  0  0  0  0  0  0  0  0  0  0
    3.4043   -2.0219    5.2757 C   0  0  0  0  0  0  0  0  0  0  0  0
    4.6298   -1.9416    4.6116 C   0  0  0  0  0  0  0  0  0  0  0  0
    5.1387   -0.7262    4.1592 O   0  0  0  0  0  0  0  0  0  0  0  0
    4.5121    0.4624    4.6326 C   0  0  0  0  0  0  0  0  0  0  0  0
    5.4052   -3.1099    4.3692 C   0  0  0  0  0  0  0  0  0  0  0  0
    7.0254   -2.9420    3.6163 S   0  0  0  0  0  0  0  0  0  0  0  0
    7.8514   -4.5876    3.2757 C   0  0  0  0  0  0  0  0  0  0  0  0
    7.6820   -4.9402    1.9001 C   0  0  0  0  0  0  0  0  0  0  0  0
    8.7791   -5.0107    1.0326 C   0  0  0  0  0  0  0  0  0  0  0  0
   10.0051   -4.4929    1.4420 C   0  0  0  0  0  0  0  0  0  0  0  0
   10.0675   -3.9998    2.7635 C   0  0  0  0  0  0  0  0  0  0  0  0
   11.1634   -3.6841    3.5564 N   0  0  0  0  0  0  0  0  0  0  0  0
   11.4795   -4.9663    3.9312 C   0  0  0  0  0  0  0  0  0  0  0  0
   12.6648   -5.5224    3.6940 N   0  0  0  0  0  0  0  0  0  0  0  0
   12.5475   -6.8389    3.5710 C   0  0  0  0  0  0  0  0  0  0  0  0
   13.5332   -7.4341    2.8136 N   0  0  0  0  0  0  0  0  0  0  0  0
   11.5392   -7.5756    4.0600 N   0  0  0  0  0  0  0  0  0  0  0  0
   10.4127   -6.9514    4.5043 C   0  0  0  0  0  0  0  0  0  0  0  0
    9.6353   -7.7327    5.3623 N   0  0  0  0  0  0  0  0  0  0  0  0
   10.2478   -5.5891    4.1857 C   0  0  0  0  0  0  0  0  0  0  0  0
    9.2126   -4.5976    3.7367 C   0  0  0  0  0  0  0  0  0  0  0  0
    4.8928   -4.3274    4.8008 C   0  0  0  0  0  0  0  0  0  0  0  0
    1.8994   -6.8303    6.8373 H   0  0  0  0  0  0  0  0  0  0  0  0
    1.2128   -5.4491    5.9724 H   0  0  0  0  0  0  0  0  0  0  0  0
    2.0945   -5.2165    7.5312 H   0  0  0  0  0  0  0  0  0  0  0  0
    1.9786   -3.2646    6.2469 H   0  0  0  0  0  0  0  0  0  0  0  0
    2.7920   -1.1517    5.4823 H   0  0  0  0  0  0  0  0  0  0  0  0
    5.0844    1.3160    4.2584 H   0  0  0  0  0  0  0  0  0  0  0  0
    4.5268    0.5085    5.7271 H   0  0  0  0  0  0  0  0  0  0  0  0
    3.4904    0.5639    4.2493 H   0  0  0  0  0  0  0  0  0  0  0  0
    6.6920   -4.9475    1.4449 H   0  0  0  0  0  0  0  0  0  0  0  0
    8.6716   -5.3654    0.0098 H   0  0  0  0  0  0  0  0  0  0  0  0
   10.9011   -4.5675    0.8295 H   0  0  0  0  0  0  0  0  0  0  0  0
   11.0676   -2.9901    4.2812 H   0  0  0  0  0  0  0  0  0  0  0  0
   14.3150   -6.8224    2.7193 H   0  0  0  0  0  0  0  0  0  0  0  0
   13.6663   -8.3985    3.0458 H   0  0  0  0  0  0  0  0  0  0  0  0
   10.1483   -8.6147    5.4301 H   0  0  0  0  0  0  0  0  0  0  0  0
    9.6376   -7.2858    6.2761 H   0  0  0  0  0  0  0  0  0  0  0  0
    5.4476   -5.2678    4.6401 H   0  0  0  0  0  0  0  0  0  0  0  0
  1  2  1  0  0  0  0
  1 27  1  0  0  0  0
  1 28  1  0  0  0  0
  1 29  1  0  0  0  0
  2  3  1  0  0  0  0
  3  4  1  0  0  0  0
  3 26  2  0  0  0  0
  4  5  2  0  0  0  0
  4 30  1  0  0  0  0
  5  6  1  0  0  0  0
  5 31  1  0  0  0  0
  6  7  1  0  0  0  0
  6  9  2  0  0  0  0
  7  8  1  0  0  0  0
  8 32  1  0  0  0  0
  8 33  1  0  0  0  0
  8 34  1  0  0  0  0
  9 10  1  0  0  0  0
  9 26  1  0  0  0  0
 10 11  1  0  0  0  0
 11 12  1  0  0  0  0
 11 25  2  0  0  0  0
 12 13  2  0  0  0  0
 12 35  1  0  0  0  0
 13 14  1  0  0  0  0
 13 36  1  0  0  0  0
 14 15  2  0  0  0  0
 14 37  1  0  0  0  0
 15 16  1  0  0  0  0
 15 25  1  0  0  0  0
 16 17  1  0  0  0  0
 16 38  1  0  0  0  0
 17 18  1  0  0  0  0
 17 24  2  0  0  0  0
 18 19  2  0  0  0  0
 19 20  1  0  0  0  0
 19 21  1  0  0  0  0
 20 39  1  0  0  0  0
 20 40  1  0  0  0  0
 21 22  2  0  0  0  0
 22 23  1  0  0  0  0
 22 24  1  0  0  0  0
 23 41  1  0  0  0  0
 23 42  1  0  0  0  0
 24 25  1  0  0  0  0
 26 43  1  0  0  0  0
M  END
$$$$
