CHEMBL1996791
 OpenBabel04072215363D

 32 34  0  0  1  0  0  0  0  0999 V2000
    0.5489   -2.0759    1.9400 N   0  0  0  0  0  0  0  0  0  0  0  0
    1.6023   -2.7620    1.3608 C   0  0  0  0  0  0  0  0  0  0  0  0
    1.4334   -4.0894    1.1862 N   0  0  0  0  0  0  0  0  0  0  0  0
    2.4486   -4.8077    0.6680 C   0  0  0  0  0  0  0  0  0  0  0  0
    3.6632   -4.3713    0.2949 N   0  0  0  0  0  0  0  0  0  0  0  0
    3.7796   -3.0420    0.4619 C   0  0  0  0  0  0  0  0  0  0  0  0
    2.8118   -2.1823    0.9612 C   0  0  0  0  0  0  0  0  0  0  0  0
    3.4307   -0.9176    0.9094 C   0  0  0  0  0  0  0  0  0  0  0  0
    2.5865    0.8531    1.4822 I   0  0  0  0  0  0  0  0  0  0  0  0
    4.6777   -0.9563    0.4315 N   0  0  0  0  0  0  0  0  0  0  0  0
    4.8938   -2.2739    0.2228 N   0  0  0  0  0  0  0  0  0  0  0  0
    6.2306   -2.7680   -0.1011 C   0  0  3  0  0  0  0  0  0  0  0  0
    7.2401   -2.4882    1.0258 C   0  0  0  0  0  0  0  0  0  0  0  0
    7.7164   -1.0384    1.0735 C   0  0  0  0  0  0  0  0  0  0  0  0
    8.1999   -0.5277   -0.2826 C   0  0  3  0  0  0  0  0  0  0  0  0
    8.4062    0.8798   -0.2027 O   0  0  0  0  0  0  0  0  0  0  0  0
    7.2405   -0.8249   -1.4353 C   0  0  0  0  0  0  0  0  0  0  0  0
    6.7565   -2.2722   -1.4556 C   0  0  0  0  0  0  0  0  0  0  0  0
   -0.3077   -2.6156    1.9360 H   0  0  0  0  0  0  0  0  0  0  0  0
    0.4772   -1.0881    1.7426 H   0  0  0  0  0  0  0  0  0  0  0  0
    2.2612   -5.8698    0.5420 H   0  0  0  0  0  0  0  0  0  0  0  0
    6.1284   -3.8582   -0.1775 H   0  0  0  0  0  0  0  0  0  0  0  0
    8.1154   -3.1331    0.8753 H   0  0  0  0  0  0  0  0  0  0  0  0
    6.8134   -2.7635    1.9984 H   0  0  0  0  0  0  0  0  0  0  0  0
    8.5325   -0.9472    1.8020 H   0  0  0  0  0  0  0  0  0  0  0  0
    6.9283   -0.3860    1.4652 H   0  0  0  0  0  0  0  0  0  0  0  0
    9.1712   -0.9847   -0.5042 H   0  0  0  0  0  0  0  0  0  0  0  0
    7.5451    1.2907   -0.0018 H   0  0  0  0  0  0  0  0  0  0  0  0
    7.7460   -0.5992   -2.3834 H   0  0  0  0  0  0  0  0  0  0  0  0
    6.3864   -0.1395   -1.4061 H   0  0  0  0  0  0  0  0  0  0  0  0
    7.6017   -2.9094   -1.7494 H   0  0  0  0  0  0  0  0  0  0  0  0
    5.9921   -2.3925   -2.2327 H   0  0  0  0  0  0  0  0  0  0  0  0
  1  2  1  0  0  0  0
  1 19  1  0  0  0  0
  1 20  1  0  0  0  0
  2  3  1  0  0  0  0
  2  7  2  0  0  0  0
  3  4  2  0  0  0  0
  4  5  1  0  0  0  0
  4 21  1  0  0  0  0
  5  6  2  0  0  0  0
  6  7  1  0  0  0  0
  6 11  1  0  0  0  0
  7  8  1  0  0  0  0
  8  9  1  0  0  0  0
  8 10  2  0  0  0  0
 10 11  1  0  0  0  0
 11 12  1  0  0  0  0
 12 13  1  0  0  0  0
 12 18  1  0  0  0  0
 12 22  1  0  0  0  0
 13 14  1  0  0  0  0
 13 23  1  0  0  0  0
 13 24  1  0  0  0  0
 14 15  1  0  0  0  0
 14 25  1  0  0  0  0
 14 26  1  0  0  0  0
 15 16  1  0  0  0  0
 15 17  1  0  0  0  0
 15 27  1  0  0  0  0
 16 28  1  0  0  0  0
 17 18  1  0  0  0  0
 17 29  1  0  0  0  0
 17 30  1  0  0  0  0
 18 31  1  0  0  0  0
 18 32  1  0  0  0  0
M  END
$$$$
