CHEMBL2007421
 OpenBabel04072215363D

 46 48  0  0  1  0  0  0  0  0999 V2000
    5.9378   -0.2687   -4.9545 C   0  0  0  0  0  0  0  0  0  0  0  0
    6.0031   -0.2272   -3.4300 C   0  0  0  0  0  0  0  0  0  0  0  0
    4.6506   -0.6322   -2.8420 C   0  0  0  0  0  0  0  0  0  0  0  0
    7.0204   -1.1586   -3.0261 O   0  0  0  0  0  0  0  0  0  0  0  0
    7.3984   -1.1037   -1.7477 C   0  0  0  0  0  0  0  0  0  0  0  0
    7.3037   -0.1685   -0.7480 C   0  0  0  0  0  0  0  0  0  0  0  0
    7.8420   -0.7843    0.4072 C   0  0  0  0  0  0  0  0  0  0  0  0
    7.8570   -0.2007    1.6232 N   0  0  0  0  0  0  0  0  0  0  0  0
    7.9594    1.1835    1.8659 C   0  0  0  0  0  0  0  0  0  0  0  0
    8.6274    1.9370    0.9631 N   0  0  0  0  0  0  0  0  0  0  0  0
    8.6741    3.2590    1.1257 C   0  0  0  0  0  0  0  0  0  0  0  0
    9.4932    3.9301    0.2464 N   0  0  0  0  0  0  0  0  0  0  0  0
    9.0969    5.2662   -0.1661 C   0  0  3  0  0  0  0  0  0  0  0  0
   10.3715    6.0688   -0.4437 C   0  0  0  0  0  0  0  0  0  0  0  0
    8.2446    5.2036   -1.4327 C   0  0  0  0  0  0  0  0  0  0  0  0
    6.9666    5.7668   -1.4475 C   0  0  0  0  0  0  0  0  0  0  0  0
    6.2272    5.7374   -2.6299 C   0  0  0  0  0  0  0  0  0  0  0  0
    6.7801    5.1458   -3.7539 C   0  0  0  0  0  0  0  0  0  0  0  0
    6.0998    5.1156   -4.9066 F   0  0  0  0  0  0  0  0  0  0  0  0
    8.0427    4.5913   -3.6641 C   0  0  0  0  0  0  0  0  0  0  0  0
    8.7840    4.5979   -2.5298 N   0  0  0  0  0  0  0  0  0  0  0  0
    8.0332    3.9016    2.1083 N   0  0  0  0  0  0  0  0  0  0  0  0
    7.3778    3.1331    3.0063 C   0  0  0  0  0  0  0  0  0  0  0  0
    7.3317    1.7591    2.9558 C   0  0  0  0  0  0  0  0  0  0  0  0
    6.4762    0.8642    4.1454 Cl  0  0  0  0  0  0  0  0  0  0  0  0
    8.2409   -2.0305    0.1560 N   0  0  0  0  0  0  0  0  0  0  0  0
    8.0250   -2.1724   -1.1672 N   0  0  0  0  0  0  0  0  0  0  0  0
    5.1473    0.3842   -5.3383 H   0  0  0  0  0  0  0  0  0  0  0  0
    5.7560   -1.2887   -5.3101 H   0  0  0  0  0  0  0  0  0  0  0  0
    6.8916    0.0529   -5.3861 H   0  0  0  0  0  0  0  0  0  0  0  0
    6.2659    0.7961   -3.1322 H   0  0  0  0  0  0  0  0  0  0  0  0
    4.4892   -1.7110   -2.9432 H   0  0  0  0  0  0  0  0  0  0  0  0
    3.8239   -0.1002   -3.3218 H   0  0  0  0  0  0  0  0  0  0  0  0
    4.6095   -0.4079   -1.7708 H   0  0  0  0  0  0  0  0  0  0  0  0
    6.8778    0.8229   -0.8261 H   0  0  0  0  0  0  0  0  0  0  0  0
    8.1907   -0.7634    2.3958 H   0  0  0  0  0  0  0  0  0  0  0  0
    9.6848    3.3098   -0.5380 H   0  0  0  0  0  0  0  0  0  0  0  0
    8.5520    5.7959    0.6247 H   0  0  0  0  0  0  0  0  0  0  0  0
   10.9984    5.5900   -1.2058 H   0  0  0  0  0  0  0  0  0  0  0  0
   10.9757    6.1565    0.4662 H   0  0  0  0  0  0  0  0  0  0  0  0
   10.1326    7.0793   -0.7925 H   0  0  0  0  0  0  0  0  0  0  0  0
    6.5516    6.2298   -0.5573 H   0  0  0  0  0  0  0  0  0  0  0  0
    5.2369    6.1757   -2.6800 H   0  0  0  0  0  0  0  0  0  0  0  0
    8.5045    4.1218   -4.5268 H   0  0  0  0  0  0  0  0  0  0  0  0
    6.8700    3.6842    3.7923 H   0  0  0  0  0  0  0  0  0  0  0  0
    8.2785   -3.0423   -1.6153 H   0  0  0  0  0  0  0  0  0  0  0  0
  1  2  1  0  0  0  0
  1 28  1  0  0  0  0
  1 29  1  0  0  0  0
  1 30  1  0  0  0  0
  2  3  1  0  0  0  0
  2  4  1  0  0  0  0
  2 31  1  0  0  0  0
  3 32  1  0  0  0  0
  3 33  1  0  0  0  0
  3 34  1  0  0  0  0
  4  5  1  0  0  0  0
  5  6  2  0  0  0  0
  5 27  1  0  0  0  0
  6  7  1  0  0  0  0
  6 35  1  0  0  0  0
  7  8  1  0  0  0  0
  7 26  2  0  0  0  0
  8  9  1  0  0  0  0
  8 36  1  0  0  0  0
  9 10  1  0  0  0  0
  9 24  2  0  0  0  0
 10 11  2  0  0  0  0
 11 12  1  0  0  0  0
 11 22  1  0  0  0  0
 12 13  1  0  0  0  0
 12 37  1  0  0  0  0
 13 14  1  0  0  0  0
 13 15  1  0  0  0  0
 13 38  1  0  0  0  0
 14 39  1  0  0  0  0
 14 40  1  0  0  0  0
 14 41  1  0  0  0  0
 15 16  1  0  0  0  0
 15 21  2  0  0  0  0
 16 17  2  0  0  0  0
 16 42  1  0  0  0  0
 17 18  1  0  0  0  0
 17 43  1  0  0  0  0
 18 19  1  0  0  0  0
 18 20  2  0  0  0  0
 20 21  1  0  0  0  0
 20 44  1  0  0  0  0
 22 23  2  0  0  0  0
 23 24  1  0  0  0  0
 23 45  1  0  0  0  0
 24 25  1  0  0  0  0
 26 27  1  0  0  0  0
 27 46  1  0  0  0  0
M  END
$$$$
