CHEMBL1241863
 OpenBabel04072215363D

 40 43  0  0  0  0  0  0  0  0999 V2000
    3.7574    0.0781    0.8710 C   0  0  0  0  0  0  0  0  0  0  0  0
    2.5891    0.1047   -0.1124 C   0  0  0  0  0  0  0  0  0  0  0  0
    1.2966    0.5378    0.5825 C   0  0  0  0  0  0  0  0  0  0  0  0
    2.9129    0.9249   -1.2759 N   0  0  0  0  0  0  0  0  0  0  0  0
    2.7152    2.2612   -1.2583 N   0  0  0  0  0  0  0  0  0  0  0  0
    3.1154    2.6748   -2.4760 C   0  0  0  0  0  0  0  0  0  0  0  0
    3.0294    4.0919   -2.8474 C   0  0  0  0  0  0  0  0  0  0  0  0
    2.8195    4.4482   -4.1887 C   0  0  0  0  0  0  0  0  0  0  0  0
    2.9584    5.7631   -4.6132 C   0  0  0  0  0  0  0  0  0  0  0  0
    3.1474    6.7471   -3.6603 C   0  0  0  0  0  0  0  0  0  0  0  0
    3.2442    8.0939   -4.0841 N   0  0  0  0  0  0  0  0  0  0  0  0
    2.5135    8.9847   -3.3178 C   0  0  0  0  0  0  0  0  0  0  0  0
    1.8991    9.9297   -3.7849 O   0  0  0  0  0  0  0  0  0  0  0  0
    2.6403    8.7785   -1.8480 C   0  0  0  0  0  0  0  0  0  0  0  0
    2.9957    7.5806   -1.3601 C   0  0  0  0  0  0  0  0  0  0  0  0
    3.1386    6.4522   -2.2895 C   0  0  0  0  0  0  0  0  0  0  0  0
    3.1479    5.1140   -1.8854 C   0  0  0  0  0  0  0  0  0  0  0  0
    3.6473    1.5845   -3.2454 C   0  0  0  0  0  0  0  0  0  0  0  0
    4.2477    1.3530   -4.4978 C   0  0  0  0  0  0  0  0  0  0  0  0
    4.5281    2.3161   -5.4575 N   0  0  0  0  0  0  0  0  0  0  0  0
    4.6173    0.0969   -4.8210 N   0  0  0  0  0  0  0  0  0  0  0  0
    4.4081   -0.8872   -3.9296 C   0  0  0  0  0  0  0  0  0  0  0  0
    3.8539   -0.7883   -2.7142 N   0  0  0  0  0  0  0  0  0  0  0  0
    3.4909    0.4740   -2.4315 C   0  0  0  0  0  0  0  0  0  0  0  0
    3.5213   -0.5394    1.7440 H   0  0  0  0  0  0  0  0  0  0  0  0
    4.0065    1.0851    1.2219 H   0  0  0  0  0  0  0  0  0  0  0  0
    4.6534   -0.3406    0.4000 H   0  0  0  0  0  0  0  0  0  0  0  0
    2.4278   -0.9145   -0.4851 H   0  0  0  0  0  0  0  0  0  0  0  0
    1.3779    1.5492    0.9947 H   0  0  0  0  0  0  0  0  0  0  0  0
    1.0552   -0.1393    1.4094 H   0  0  0  0  0  0  0  0  0  0  0  0
    0.4540    0.5265   -0.1175 H   0  0  0  0  0  0  0  0  0  0  0  0
    2.5567    3.6945   -4.9298 H   0  0  0  0  0  0  0  0  0  0  0  0
    2.8649    6.0150   -5.6652 H   0  0  0  0  0  0  0  0  0  0  0  0
    4.2160    8.3574   -3.9214 H   0  0  0  0  0  0  0  0  0  0  0  0
    2.3729    9.6257   -1.2314 H   0  0  0  0  0  0  0  0  0  0  0  0
    3.0533    7.4032   -0.2924 H   0  0  0  0  0  0  0  0  0  0  0  0
    3.2037    4.8579   -0.8293 H   0  0  0  0  0  0  0  0  0  0  0  0
    4.8237    3.2120   -5.0915 H   0  0  0  0  0  0  0  0  0  0  0  0
    5.1252    1.9289   -6.1800 H   0  0  0  0  0  0  0  0  0  0  0  0
    4.7382   -1.8735   -4.2328 H   0  0  0  0  0  0  0  0  0  0  0  0
  1  2  1  0  0  0  0
  1 25  1  0  0  0  0
  1 26  1  0  0  0  0
  1 27  1  0  0  0  0
  2  3  1  0  0  0  0
  2  4  1  0  0  0  0
  2 28  1  0  0  0  0
  3 29  1  0  0  0  0
  3 30  1  0  0  0  0
  3 31  1  0  0  0  0
  4  5  1  0  0  0  0
  4 24  1  0  0  0  0
  5  6  2  0  0  0  0
  6  7  1  0  0  0  0
  6 18  1  0  0  0  0
  7  8  1  0  0  0  0
  7 17  2  0  0  0  0
  8  9  2  0  0  0  0
  8 32  1  0  0  0  0
  9 10  1  0  0  0  0
  9 33  1  0  0  0  0
 10 11  1  0  0  0  0
 10 16  2  0  0  0  0
 11 12  1  0  0  0  0
 11 34  1  0  0  0  0
 12 13  2  0  0  0  0
 12 14  1  0  0  0  0
 14 15  2  0  0  0  0
 14 35  1  0  0  0  0
 15 16  1  0  0  0  0
 15 36  1  0  0  0  0
 16 17  1  0  0  0  0
 17 37  1  0  0  0  0
 18 19  1  0  0  0  0
 18 24  2  0  0  0  0
 19 20  1  0  0  0  0
 19 21  2  0  0  0  0
 20 38  1  0  0  0  0
 20 39  1  0  0  0  0
 21 22  1  0  0  0  0
 22 23  2  0  0  0  0
 22 40  1  0  0  0  0
 23 24  1  0  0  0  0
M  END
$$$$
