CHEMBL211060
 OpenBabel04072215363D

 57 60  0  0  0  0  0  0  0  0999 V2000
    1.2890   -0.4434   -0.5879 O   0  0  0  0  0  0  0  0  0  0  0  0
    2.3131   -0.1054   -0.0029 C   0  0  0  0  0  0  0  0  0  0  0  0
    2.7714    1.2033    0.0173 N   0  0  0  0  0  0  0  0  0  0  0  0
    1.9839    2.2567   -0.5980 C   0  0  0  0  0  0  0  0  0  0  0  0
    2.8609    3.4092   -1.1197 C   0  0  0  0  0  0  0  0  0  0  0  0
    2.0877    4.4767   -1.7843 N   0  0  0  0  0  0  0  0  0  0  0  0
    1.4023    4.0218   -3.0152 C   0  0  0  0  0  0  0  0  0  0  0  0
    2.3485    3.7623   -4.1991 C   0  0  0  0  0  0  0  0  0  0  0  0
    3.1415    4.9183   -4.4970 O   0  0  0  0  0  0  0  0  0  0  0  0
    3.8808    5.3449   -3.3470 C   0  0  0  0  0  0  0  0  0  0  0  0
    2.9502    5.6234   -2.1518 C   0  0  0  0  0  0  0  0  0  0  0  0
    3.1213   -1.1356    0.7129 C   0  0  0  0  0  0  0  0  0  0  0  0
    2.7115   -2.4739    0.6391 C   0  0  0  0  0  0  0  0  0  0  0  0
    3.4512   -3.4681    1.2772 C   0  0  0  0  0  0  0  0  0  0  0  0
    4.5969   -3.1203    1.9898 C   0  0  0  0  0  0  0  0  0  0  0  0
    5.3072   -4.0962    2.5778 F   0  0  0  0  0  0  0  0  0  0  0  0
    5.0429   -1.7912    2.0799 C   0  0  0  0  0  0  0  0  0  0  0  0
    6.2399   -1.4936    2.7122 N   0  0  0  0  0  0  0  0  0  0  0  0
    7.0347   -0.2965    2.4664 C   0  0  0  0  0  0  0  0  0  0  0  0
    6.6034    0.9202    3.2165 C   0  0  0  0  0  0  0  0  0  0  0  0
    5.9742    0.9866    4.4350 C   0  0  0  0  0  0  0  0  0  0  0  0
    5.6739    2.2479    4.8702 N   0  0  0  0  0  0  0  0  0  0  0  0
    6.0272    3.1669    4.0022 C   0  0  0  0  0  0  0  0  0  0  0  0
    5.7795    4.4912    4.1112 N   0  0  0  0  0  0  0  0  0  0  0  0
    4.8044    5.0665    4.9367 C   0  0  0  0  0  0  0  0  0  0  0  0
    4.2921    4.4367    6.0712 C   0  0  0  0  0  0  0  0  0  0  0  0
    3.2274    4.9987    6.7677 C   0  0  0  0  0  0  0  0  0  0  0  0
    2.7232    6.2147    6.3464 C   0  0  0  0  0  0  0  0  0  0  0  0
    3.3221    6.8175    5.2556 C   0  0  0  0  0  0  0  0  0  0  0  0
    4.3424    6.2751    4.5465 N   0  0  0  0  0  0  0  0  0  0  0  0
    6.8359    2.5136    2.6114 S   0  0  0  0  0  0  0  0  0  0  0  0
    4.2860   -0.8153    1.4243 C   0  0  0  0  0  0  0  0  0  0  0  0
    3.4821    1.4928    0.6638 H   0  0  0  0  0  0  0  0  0  0  0  0
    1.2814    2.6207    0.1592 H   0  0  0  0  0  0  0  0  0  0  0  0
    1.4075    1.8102   -1.4102 H   0  0  0  0  0  0  0  0  0  0  0  0
    3.6435    3.0035   -1.7699 H   0  0  0  0  0  0  0  0  0  0  0  0
    3.3805    3.8372   -0.2562 H   0  0  0  0  0  0  0  0  0  0  0  0
    0.6982    4.8137   -3.3001 H   0  0  0  0  0  0  0  0  0  0  0  0
    0.7799    3.1416   -2.8334 H   0  0  0  0  0  0  0  0  0  0  0  0
    1.7586    3.5315   -5.0913 H   0  0  0  0  0  0  0  0  0  0  0  0
    3.0095    2.9079   -4.0141 H   0  0  0  0  0  0  0  0  0  0  0  0
    4.4116    6.2619   -3.6192 H   0  0  0  0  0  0  0  0  0  0  0  0
    4.6372    4.5887   -3.1029 H   0  0  0  0  0  0  0  0  0  0  0  0
    2.2830    6.4536   -2.4211 H   0  0  0  0  0  0  0  0  0  0  0  0
    3.5293    5.9669   -1.2869 H   0  0  0  0  0  0  0  0  0  0  0  0
    1.8208   -2.7459    0.0741 H   0  0  0  0  0  0  0  0  0  0  0  0
    3.1514   -4.5094    1.2099 H   0  0  0  0  0  0  0  0  0  0  0  0
    6.5629   -2.1499    3.4167 H   0  0  0  0  0  0  0  0  0  0  0  0
    7.0638   -0.0963    1.3873 H   0  0  0  0  0  0  0  0  0  0  0  0
    8.0680   -0.5202    2.7558 H   0  0  0  0  0  0  0  0  0  0  0  0
    5.6927    0.1365    5.0439 H   0  0  0  0  0  0  0  0  0  0  0  0
    5.9746    5.1071    3.3329 H   0  0  0  0  0  0  0  0  0  0  0  0
    4.6921    3.4968    6.4319 H   0  0  0  0  0  0  0  0  0  0  0  0
    2.8042    4.4738    7.6181 H   0  0  0  0  0  0  0  0  0  0  0  0
    1.8875    6.6759    6.8598 H   0  0  0  0  0  0  0  0  0  0  0  0
    2.9774    7.7865    4.9047 H   0  0  0  0  0  0  0  0  0  0  0  0
    4.6111    0.2113    1.4954 H   0  0  0  0  0  0  0  0  0  0  0  0
  1  2  2  0  0  0  0
  2  3  1  0  0  0  0
  2 12  1  0  0  0  0
  3  4  1  0  0  0  0
  3 33  1  0  0  0  0
  4  5  1  0  0  0  0
  4 34  1  0  0  0  0
  4 35  1  0  0  0  0
  5  6  1  0  0  0  0
  5 36  1  0  0  0  0
  5 37  1  0  0  0  0
  6  7  1  0  0  0  0
  6 11  1  0  0  0  0
  7  8  1  0  0  0  0
  7 38  1  0  0  0  0
  7 39  1  0  0  0  0
  8  9  1  0  0  0  0
  8 40  1  0  0  0  0
  8 41  1  0  0  0  0
  9 10  1  0  0  0  0
 10 11  1  0  0  0  0
 10 42  1  0  0  0  0
 10 43  1  0  0  0  0
 11 44  1  0  0  0  0
 11 45  1  0  0  0  0
 12 13  1  0  0  0  0
 12 32  2  0  0  0  0
 13 14  2  0  0  0  0
 13 46  1  0  0  0  0
 14 15  1  0  0  0  0
 14 47  1  0  0  0  0
 15 16  1  0  0  0  0
 15 17  2  0  0  0  0
 17 18  1  0  0  0  0
 17 32  1  0  0  0  0
 18 19  1  0  0  0  0
 18 48  1  0  0  0  0
 19 20  1  0  0  0  0
 19 49  1  0  0  0  0
 19 50  1  0  0  0  0
 20 21  2  0  0  0  0
 20 31  1  0  0  0  0
 21 22  1  0  0  0  0
 21 51  1  0  0  0  0
 22 23  2  0  0  0  0
 23 24  1  0  0  0  0
 23 31  1  0  0  0  0
 24 25  1  0  0  0  0
 24 52  1  0  0  0  0
 25 26  1  0  0  0  0
 25 30  2  0  0  0  0
 26 27  2  0  0  0  0
 26 53  1  0  0  0  0
 27 28  1  0  0  0  0
 27 54  1  0  0  0  0
 28 29  2  0  0  0  0
 28 55  1  0  0  0  0
 29 30  1  0  0  0  0
 29 56  1  0  0  0  0
 32 57  1  0  0  0  0
M  END
$$$$
