CHEMBL3968968
 OpenBabel04072215373D

 65 69  0  0  1  0  0  0  0  0999 V2000
    2.0746    0.3430    1.8872 C   0  0  0  0  0  0  0  0  0  0  0  0
    2.4006    0.0389    0.4193 C   0  0  1  0  0  0  0  0  0  0  0  0
    3.2705    1.0713   -0.1557 N   0  0  0  0  0  0  0  0  0  0  0  0
    2.7404    2.3580   -0.2573 C   0  0  0  0  0  0  0  0  0  0  0  0
    1.4053    2.5685   -0.3313 N   0  0  0  0  0  0  0  0  0  0  0  0
    0.9562    3.8391   -0.3868 C   0  0  0  0  0  0  0  0  0  0  0  0
    1.6690    4.9775   -0.3788 N   0  0  0  0  0  0  0  0  0  0  0  0
    2.9837    4.7207   -0.3076 C   0  0  0  0  0  0  0  0  0  0  0  0
    3.9610    5.6711   -0.2525 N   0  0  0  0  0  0  0  0  0  0  0  0
    5.2060    5.0843   -0.1427 C   0  0  0  0  0  0  0  0  0  0  0  0
    6.4433    5.8539   -0.0086 C   0  0  0  0  0  0  0  0  0  0  0  0
    6.4559    7.0949    0.6417 C   0  0  0  0  0  0  0  0  0  0  0  0
    7.6453    7.8154    0.7878 C   0  0  0  0  0  0  0  0  0  0  0  0
    8.8537    7.3008    0.3010 C   0  0  0  0  0  0  0  0  0  0  0  0
   10.1560    8.0389    0.5129 C   0  0  0  0  0  0  0  0  0  0  0  0
   10.4943    8.2572    1.9215 N   0  0  0  0  0  0  0  0  0  0  0  0
   10.6675    7.0018    2.6509 C   0  0  0  0  0  0  0  0  0  0  0  0
   11.0211    7.2533    4.0986 C   0  0  0  0  0  0  0  0  0  0  0  0
   10.1801    6.8020    5.1284 C   0  0  0  0  0  0  0  0  0  0  0  0
   10.5391    6.9722    6.4670 C   0  0  0  0  0  0  0  0  0  0  0  0
   11.7463    7.6033    6.7923 C   0  0  0  0  0  0  0  0  0  0  0  0
   12.2038    7.7393    8.2005 C   0  0  0  0  0  0  0  0  0  0  0  0
   13.3961    7.8276    8.4790 O   0  0  0  0  0  0  0  0  0  0  0  0
   11.2242    7.7913    9.1660 N   0  0  0  0  0  0  0  0  0  0  0  0
   11.6897    8.0491   10.4775 O   0  0  0  0  0  0  0  0  0  0  0  0
   12.5818    8.0701    5.7713 C   0  0  0  0  0  0  0  0  0  0  0  0
   12.2187    7.9009    4.4340 C   0  0  0  0  0  0  0  0  0  0  0  0
    8.8411    6.0653   -0.3588 C   0  0  0  0  0  0  0  0  0  0  0  0
    7.6490    5.3504   -0.5102 C   0  0  0  0  0  0  0  0  0  0  0  0
    4.9888    3.7129   -0.1809 C   0  0  0  0  0  0  0  0  0  0  0  0
    3.5860    3.4791   -0.2588 C   0  0  0  0  0  0  0  0  0  0  0  0
    3.1505   -1.2870    0.3186 C   0  0  0  0  0  0  0  0  0  0  0  0
    2.5867   -2.3832   -0.3509 C   0  0  0  0  0  0  0  0  0  0  0  0
    3.3026   -3.5769   -0.4838 C   0  0  0  0  0  0  0  0  0  0  0  0
    4.5850   -3.6903    0.0512 C   0  0  0  0  0  0  0  0  0  0  0  0
    5.1490   -2.6182    0.7372 C   0  0  0  0  0  0  0  0  0  0  0  0
    4.4359   -1.4276    0.8725 C   0  0  0  0  0  0  0  0  0  0  0  0
    1.4430    1.2324    1.9825 H   0  0  0  0  0  0  0  0  0  0  0  0
    2.9808    0.5316    2.4748 H   0  0  0  0  0  0  0  0  0  0  0  0
    1.5383   -0.4907    2.3532 H   0  0  0  0  0  0  0  0  0  0  0  0
    1.4685   -0.0374   -0.1556 H   0  0  0  0  0  0  0  0  0  0  0  0
    3.5647    0.7935   -1.0901 H   0  0  0  0  0  0  0  0  0  0  0  0
   -0.1229    3.9568   -0.4385 H   0  0  0  0  0  0  0  0  0  0  0  0
    3.7748    6.6614   -0.2727 H   0  0  0  0  0  0  0  0  0  0  0  0
    5.5481    7.5099    1.0718 H   0  0  0  0  0  0  0  0  0  0  0  0
    7.6241    8.7713    1.3066 H   0  0  0  0  0  0  0  0  0  0  0  0
   10.0834    9.0122    0.0126 H   0  0  0  0  0  0  0  0  0  0  0  0
   10.9828    7.5136    0.0182 H   0  0  0  0  0  0  0  0  0  0  0  0
    9.7593    8.7994    2.3698 H   0  0  0  0  0  0  0  0  0  0  0  0
   11.4659    6.3988    2.2016 H   0  0  0  0  0  0  0  0  0  0  0  0
    9.7512    6.3997    2.6167 H   0  0  0  0  0  0  0  0  0  0  0  0
    9.2503    6.2879    4.8884 H   0  0  0  0  0  0  0  0  0  0  0  0
    9.8883    6.5664    7.2360 H   0  0  0  0  0  0  0  0  0  0  0  0
   10.2662    8.0566    8.9689 H   0  0  0  0  0  0  0  0  0  0  0  0
   12.6653    8.0471   10.3537 H   0  0  0  0  0  0  0  0  0  0  0  0
   13.5250    8.5565    6.0124 H   0  0  0  0  0  0  0  0  0  0  0  0
   12.8785    8.2628    3.6478 H   0  0  0  0  0  0  0  0  0  0  0  0
    9.7632    5.6401   -0.7502 H   0  0  0  0  0  0  0  0  0  0  0  0
    7.6751    4.3939   -1.0272 H   0  0  0  0  0  0  0  0  0  0  0  0
    5.7500    2.9469   -0.1099 H   0  0  0  0  0  0  0  0  0  0  0  0
    1.5898   -2.3160   -0.7808 H   0  0  0  0  0  0  0  0  0  0  0  0
    2.8622   -4.4186   -1.0122 H   0  0  0  0  0  0  0  0  0  0  0  0
    5.1462   -4.6133   -0.0674 H   0  0  0  0  0  0  0  0  0  0  0  0
    6.1465   -2.7025    1.1599 H   0  0  0  0  0  0  0  0  0  0  0  0
    4.8928   -0.5920    1.3997 H   0  0  0  0  0  0  0  0  0  0  0  0
  1  2  1  0  0  0  0
  1 38  1  0  0  0  0
  1 39  1  0  0  0  0
  1 40  1  0  0  0  0
  2  3  1  0  0  0  0
  2 32  1  0  0  0  0
  2 41  1  6  0  0  0
  3  4  1  0  0  0  0
  3 42  1  0  0  0  0
  4  5  1  0  0  0  0
  4 31  2  0  0  0  0
  5  6  2  0  0  0  0
  6  7  1  0  0  0  0
  6 43  1  0  0  0  0
  7  8  2  0  0  0  0
  8  9  1  0  0  0  0
  8 31  1  0  0  0  0
  9 10  1  0  0  0  0
  9 44  1  0  0  0  0
 10 11  1  0  0  0  0
 10 30  2  0  0  0  0
 11 12  1  0  0  0  0
 11 29  2  0  0  0  0
 12 13  2  0  0  0  0
 12 45  1  0  0  0  0
 13 14  1  0  0  0  0
 13 46  1  0  0  0  0
 14 15  1  0  0  0  0
 14 28  2  0  0  0  0
 15 16  1  0  0  0  0
 15 47  1  0  0  0  0
 15 48  1  0  0  0  0
 16 17  1  0  0  0  0
 16 49  1  0  0  0  0
 17 18  1  0  0  0  0
 17 50  1  0  0  0  0
 17 51  1  0  0  0  0
 18 19  1  0  0  0  0
 18 27  2  0  0  0  0
 19 20  2  0  0  0  0
 19 52  1  0  0  0  0
 20 21  1  0  0  0  0
 20 53  1  0  0  0  0
 21 22  1  0  0  0  0
 21 26  2  0  0  0  0
 22 23  2  0  0  0  0
 22 24  1  0  0  0  0
 24 25  1  0  0  0  0
 24 54  1  0  0  0  0
 25 55  1  0  0  0  0
 26 27  1  0  0  0  0
 26 56  1  0  0  0  0
 27 57  1  0  0  0  0
 28 29  1  0  0  0  0
 28 58  1  0  0  0  0
 29 59  1  0  0  0  0
 30 31  1  0  0  0  0
 30 60  1  0  0  0  0
 32 33  1  0  0  0  0
 32 37  2  0  0  0  0
 33 34  2  0  0  0  0
 33 61  1  0  0  0  0
 34 35  1  0  0  0  0
 34 62  1  0  0  0  0
 35 36  2  0  0  0  0
 35 63  1  0  0  0  0
 36 37  1  0  0  0  0
 36 64  1  0  0  0  0
 37 65  1  0  0  0  0
M  END
$$$$
