CHEMBL372634
 OpenBabel04072215373D

 45 48  0  0  0  0  0  0  0  0999 V2000
    2.4469   -0.2038   -1.0171 C   0  0  0  0  0  0  0  0  0  0  0  0
    0.9904   -0.1000   -0.6767 C   0  0  0  0  0  0  0  0  0  0  0  0
    0.3446    1.1358   -0.5736 C   0  0  0  0  0  0  0  0  0  0  0  0
   -1.0108    1.2028   -0.2322 C   0  0  0  0  0  0  0  0  0  0  0  0
   -1.7377    0.0354    0.0084 C   0  0  0  0  0  0  0  0  0  0  0  0
   -1.1040   -1.2047   -0.1016 C   0  0  0  0  0  0  0  0  0  0  0  0
   -1.7873   -2.4896    0.1974 C   0  0  0  0  0  0  0  0  0  0  0  0
   -1.0906   -3.3939    0.6456 O   0  0  0  0  0  0  0  0  0  0  0  0
   -3.1424   -2.5572   -0.0904 N   0  0  0  0  0  0  0  0  0  0  0  0
   -3.9521   -3.6983    0.0931 C   0  0  0  0  0  0  0  0  0  0  0  0
   -3.5165   -4.8421    0.7602 C   0  0  0  0  0  0  0  0  0  0  0  0
   -4.2926   -6.0036    0.7837 C   0  0  0  0  0  0  0  0  0  0  0  0
   -5.5785   -6.0294    0.2337 C   0  0  0  0  0  0  0  0  0  0  0  0
   -6.3576   -7.2814    0.2041 C   0  0  0  0  0  0  0  0  0  0  0  0
   -6.3917   -8.1557    1.2952 C   0  0  0  0  0  0  0  0  0  0  0  0
   -5.7797   -8.0904    2.6640 C   0  0  0  0  0  0  0  0  0  0  0  0
   -7.3052   -9.5664    0.9611 S   0  0  0  0  0  0  0  0  0  0  0  0
   -7.7057   -9.0328   -0.5919 C   0  0  0  0  0  0  0  0  0  0  0  0
   -8.4894   -9.8070   -1.3600 N   0  0  0  0  0  0  0  0  0  0  0  0
   -8.7253   -9.2691   -2.5518 C   0  0  0  0  0  0  0  0  0  0  0  0
   -8.2566   -8.1077   -3.0195 N   0  0  0  0  0  0  0  0  0  0  0  0
   -7.4547   -7.3660   -2.2314 C   0  0  0  0  0  0  0  0  0  0  0  0
   -6.9842   -6.2051   -2.8352 N   0  0  0  0  0  0  0  0  0  0  0  0
   -7.1484   -7.8057   -0.9208 C   0  0  0  0  0  0  0  0  0  0  0  0
   -6.0613   -4.8391   -0.3215 C   0  0  0  0  0  0  0  0  0  0  0  0
   -5.2462   -3.6993   -0.4380 C   0  0  0  0  0  0  0  0  0  0  0  0
    0.2559   -1.2656   -0.4421 C   0  0  0  0  0  0  0  0  0  0  0  0
    2.9058    0.7838   -1.1257 H   0  0  0  0  0  0  0  0  0  0  0  0
    2.5755   -0.7449   -1.9600 H   0  0  0  0  0  0  0  0  0  0  0  0
    2.9816   -0.7371   -0.2234 H   0  0  0  0  0  0  0  0  0  0  0  0
    0.8957    2.0580   -0.7429 H   0  0  0  0  0  0  0  0  0  0  0  0
   -1.4926    2.1728   -0.1341 H   0  0  0  0  0  0  0  0  0  0  0  0
   -2.7750    0.1143    0.3208 H   0  0  0  0  0  0  0  0  0  0  0  0
   -3.5535   -1.7885   -0.5964 H   0  0  0  0  0  0  0  0  0  0  0  0
   -2.5545   -4.8837    1.2613 H   0  0  0  0  0  0  0  0  0  0  0  0
   -3.8506   -6.8845    1.2390 H   0  0  0  0  0  0  0  0  0  0  0  0
   -5.3957   -7.1012    2.9180 H   0  0  0  0  0  0  0  0  0  0  0  0
   -4.9542   -8.8092    2.7401 H   0  0  0  0  0  0  0  0  0  0  0  0
   -6.5184   -8.3414    3.4332 H   0  0  0  0  0  0  0  0  0  0  0  0
   -9.3619   -9.8372   -3.2220 H   0  0  0  0  0  0  0  0  0  0  0  0
   -7.1986   -6.2370   -3.8267 H   0  0  0  0  0  0  0  0  0  0  0  0
   -6.0167   -6.0015   -2.6162 H   0  0  0  0  0  0  0  0  0  0  0  0
   -7.0712   -4.7922   -0.7310 H   0  0  0  0  0  0  0  0  0  0  0  0
   -5.6337   -2.8360   -0.9632 H   0  0  0  0  0  0  0  0  0  0  0  0
    0.7501   -2.2351   -0.5082 H   0  0  0  0  0  0  0  0  0  0  0  0
  1  2  1  0  0  0  0
  1 28  1  0  0  0  0
  1 29  1  0  0  0  0
  1 30  1  0  0  0  0
  2  3  1  0  0  0  0
  2 27  2  0  0  0  0
  3  4  2  0  0  0  0
  3 31  1  0  0  0  0
  4  5  1  0  0  0  0
  4 32  1  0  0  0  0
  5  6  2  0  0  0  0
  5 33  1  0  0  0  0
  6  7  1  0  0  0  0
  6 27  1  0  0  0  0
  7  8  2  0  0  0  0
  7  9  1  0  0  0  0
  9 10  1  0  0  0  0
  9 34  1  0  0  0  0
 10 11  1  0  0  0  0
 10 26  2  0  0  0  0
 11 12  2  0  0  0  0
 11 35  1  0  0  0  0
 12 13  1  0  0  0  0
 12 36  1  0  0  0  0
 13 14  1  0  0  0  0
 13 25  2  0  0  0  0
 14 15  2  0  0  0  0
 14 24  1  0  0  0  0
 15 16  1  0  0  0  0
 15 17  1  0  0  0  0
 16 37  1  0  0  0  0
 16 38  1  0  0  0  0
 16 39  1  0  0  0  0
 17 18  1  0  0  0  0
 18 19  1  0  0  0  0
 18 24  2  0  0  0  0
 19 20  2  0  0  0  0
 20 21  1  0  0  0  0
 20 40  1  0  0  0  0
 21 22  2  0  0  0  0
 22 23  1  0  0  0  0
 22 24  1  0  0  0  0
 23 41  1  0  0  0  0
 23 42  1  0  0  0  0
 25 26  1  0  0  0  0
 25 43  1  0  0  0  0
 26 44  1  0  0  0  0
 27 45  1  0  0  0  0
M  END
$$$$
