CHEMBL3973531
 OpenBabel04072215373D

 60 63  0  0  0  0  0  0  0  0999 V2000
    6.0147   -2.0778   -1.9976 C   0  0  0  0  0  0  0  0  0  0  0  0
    5.4792   -1.3754   -0.8624 N   0  0  0  0  0  0  0  0  0  0  0  0
    6.2932   -0.8260    0.0858 C   0  0  0  0  0  0  0  0  0  0  0  0
    7.5126   -0.9025    0.0643 O   0  0  0  0  0  0  0  0  0  0  0  0
    5.5768   -0.1667    1.0287 O   0  0  0  0  0  0  0  0  0  0  0  0
    6.3527    0.5434    2.0443 C   0  0  0  0  0  0  0  0  0  0  0  0
    6.8469    1.8909    1.4986 C   0  0  0  0  0  0  0  0  0  0  0  0
    7.7876    2.6933    2.3809 N   0  0  0  0  0  0  0  0  0  0  0  0
    7.1494    3.5701    3.3090 C   0  0  0  0  0  0  0  0  0  0  0  0
    7.6431    3.7787    4.6138 C   0  0  0  0  0  0  0  0  0  0  0  0
    6.9819    4.6400    5.5160 C   0  0  0  0  0  0  0  0  0  0  0  0
    7.3399    4.9177    6.8086 O   0  0  0  0  0  0  0  0  0  0  0  0
    8.4894    4.2622    7.3302 C   0  0  0  0  0  0  0  0  0  0  0  0
    5.8308    5.3237    5.1168 C   0  0  0  0  0  0  0  0  0  0  0  0
    5.3372    5.1476    3.8361 C   0  0  0  0  0  0  0  0  0  0  0  0
    4.2293    5.7776    3.3389 O   0  0  0  0  0  0  0  0  0  0  0  0
    4.1527    7.1589    3.6844 C   0  0  0  0  0  0  0  0  0  0  0  0
    5.9713    4.2617    2.9655 C   0  0  0  0  0  0  0  0  0  0  0  0
    9.1855    2.4814    2.1269 C   0  0  0  0  0  0  0  0  0  0  0  0
    9.5703    1.2211    1.6834 C   0  0  0  0  0  0  0  0  0  0  0  0
   10.8898    0.8626    1.4901 C   0  0  0  0  0  0  0  0  0  0  0  0
   11.8984    1.7601    1.6502 C   0  0  0  0  0  0  0  0  0  0  0  0
   13.0892    1.1982    1.4703 N   0  0  0  0  0  0  0  0  0  0  0  0
   14.1310    2.0266    1.4253 C   0  0  0  0  0  0  0  0  0  0  0  0
   13.9832    3.3958    1.5167 C   0  0  0  0  0  0  0  0  0  0  0  0
   15.1901    4.1518    1.1990 C   0  0  0  0  0  0  0  0  0  0  0  0
   15.6028    4.7393   -0.0268 C   0  0  0  0  0  0  0  0  0  0  0  0
   16.8928    5.1015   -0.0264 N   0  0  0  0  0  0  0  0  0  0  0  0
   17.3196    4.7304    1.1921 N   0  0  0  0  0  0  0  0  0  0  0  0
   18.5771    5.2094    1.7149 C   0  0  0  0  0  0  0  0  0  0  0  0
   16.3911    4.0016    1.8809 C   0  0  0  0  0  0  0  0  0  0  0  0
   12.7609    3.9671    1.7994 N   0  0  0  0  0  0  0  0  0  0  0  0
   11.6449    3.1318    1.9113 C   0  0  0  0  0  0  0  0  0  0  0  0
   10.2489    3.4336    2.2289 C   0  0  0  0  0  0  0  0  0  0  0  0
    5.1939   -2.3853   -2.6553 H   0  0  0  0  0  0  0  0  0  0  0  0
    6.5673   -2.9553   -1.6557 H   0  0  0  0  0  0  0  0  0  0  0  0
    6.6947   -1.4150   -2.5394 H   0  0  0  0  0  0  0  0  0  0  0  0
    4.4801   -1.2634   -0.7393 H   0  0  0  0  0  0  0  0  0  0  0  0
    7.1494   -0.1307    2.4143 H   0  0  0  0  0  0  0  0  0  0  0  0
    5.6828    0.6804    2.9069 H   0  0  0  0  0  0  0  0  0  0  0  0
    5.9409    2.4429    1.2345 H   0  0  0  0  0  0  0  0  0  0  0  0
    7.3045    1.7504    0.5121 H   0  0  0  0  0  0  0  0  0  0  0  0
    8.5232    3.2283    4.9314 H   0  0  0  0  0  0  0  0  0  0  0  0
    8.6556    4.6510    8.3446 H   0  0  0  0  0  0  0  0  0  0  0  0
    9.3790    4.4924    6.7413 H   0  0  0  0  0  0  0  0  0  0  0  0
    8.3212    3.1900    7.4089 H   0  0  0  0  0  0  0  0  0  0  0  0
    5.3315    5.9825    5.8222 H   0  0  0  0  0  0  0  0  0  0  0  0
    3.5461    7.6596    2.9230 H   0  0  0  0  0  0  0  0  0  0  0  0
    5.1379    7.6398    3.6898 H   0  0  0  0  0  0  0  0  0  0  0  0
    3.6560    7.2786    4.6507 H   0  0  0  0  0  0  0  0  0  0  0  0
    5.5326    4.1797    1.9771 H   0  0  0  0  0  0  0  0  0  0  0  0
    8.8715    0.4347    1.4640 H   0  0  0  0  0  0  0  0  0  0  0  0
   11.1194   -0.1529    1.1670 H   0  0  0  0  0  0  0  0  0  0  0  0
   15.0879    1.5457    1.2702 H   0  0  0  0  0  0  0  0  0  0  0  0
   15.0328    4.8790   -0.9366 H   0  0  0  0  0  0  0  0  0  0  0  0
   19.0797    5.8346    0.9722 H   0  0  0  0  0  0  0  0  0  0  0  0
   19.2081    4.3605    1.9896 H   0  0  0  0  0  0  0  0  0  0  0  0
   18.3447    5.8095    2.5996 H   0  0  0  0  0  0  0  0  0  0  0  0
   16.6562    3.4731    2.7857 H   0  0  0  0  0  0  0  0  0  0  0  0
   10.0076    4.4666    2.5012 H   0  0  0  0  0  0  0  0  0  0  0  0
  1  2  1  0  0  0  0
  1 35  1  0  0  0  0
  1 36  1  0  0  0  0
  1 37  1  0  0  0  0
  2  3  1  0  0  0  0
  2 38  1  0  0  0  0
  3  4  2  0  0  0  0
  3  5  1  0  0  0  0
  5  6  1  0  0  0  0
  6  7  1  0  0  0  0
  6 39  1  0  0  0  0
  6 40  1  0  0  0  0
  7  8  1  0  0  0  0
  7 41  1  0  0  0  0
  7 42  1  0  0  0  0
  8  9  1  0  0  0  0
  8 19  1  0  0  0  0
  9 10  1  0  0  0  0
  9 18  2  0  0  0  0
 10 11  2  0  0  0  0
 10 43  1  0  0  0  0
 11 12  1  0  0  0  0
 11 14  1  0  0  0  0
 12 13  1  0  0  0  0
 13 44  1  0  0  0  0
 13 45  1  0  0  0  0
 13 46  1  0  0  0  0
 14 15  2  0  0  0  0
 14 47  1  0  0  0  0
 15 16  1  0  0  0  0
 15 18  1  0  0  0  0
 16 17  1  0  0  0  0
 17 48  1  0  0  0  0
 17 49  1  0  0  0  0
 17 50  1  0  0  0  0
 18 51  1  0  0  0  0
 19 20  1  0  0  0  0
 19 34  2  0  0  0  0
 20 21  2  0  0  0  0
 20 52  1  0  0  0  0
 21 22  1  0  0  0  0
 21 53  1  0  0  0  0
 22 23  1  0  0  0  0
 22 33  2  0  0  0  0
 23 24  2  0  0  0  0
 24 25  1  0  0  0  0
 24 54  1  0  0  0  0
 25 26  1  0  0  0  0
 25 32  2  0  0  0  0
 26 27  1  0  0  0  0
 26 31  2  0  0  0  0
 27 28  2  0  0  0  0
 27 55  1  0  0  0  0
 28 29  1  0  0  0  0
 29 30  1  0  0  0  0
 29 31  1  0  0  0  0
 30 56  1  0  0  0  0
 30 57  1  0  0  0  0
 30 58  1  0  0  0  0
 31 59  1  0  0  0  0
 32 33  1  0  0  0  0
 33 34  1  0  0  0  0
 34 60  1  0  0  0  0
M  END
$$$$
