CHEMBL3959260
 OpenBabel04072215373D

 63 66  0  0  1  0  0  0  0  0999 V2000
    1.0503    3.6424   -2.6006 C   0  0  0  0  0  0  0  0  0  0  0  0
    2.1096    3.0065   -3.3194 O   0  0  0  0  0  0  0  0  0  0  0  0
    3.0495    2.3380   -2.5727 C   0  0  0  0  0  0  0  0  0  0  0  0
    2.9526    2.1326   -1.1964 C   0  0  0  0  0  0  0  0  0  0  0  0
    3.9327    1.4031   -0.5348 C   0  0  0  0  0  0  0  0  0  0  0  0
    3.9277    1.1112    0.8036 O   0  0  0  0  0  0  0  0  0  0  0  0
    2.6477    1.0927    1.4291 C   0  0  0  0  0  0  0  0  0  0  0  0
    5.0391    0.9232   -1.2426 C   0  0  0  0  0  0  0  0  0  0  0  0
    5.1840    1.1085   -2.6276 C   0  0  0  0  0  0  0  0  0  0  0  0
    6.2288    0.4998   -3.3683 N   0  0  0  0  0  0  0  0  0  0  0  0
    6.8120   -0.7835   -2.7974 C   0  0  0  0  0  0  0  0  0  0  0  0
    5.8343   -1.9952   -2.6276 C   0  0  3  0  0  0  0  0  0  0  0  0
    5.3672   -2.5625   -3.9781 C   0  0  0  0  0  0  0  0  0  0  0  0
    6.4367   -3.1597   -1.9245 N   0  0  0  0  0  0  0  0  0  0  0  0
    6.7513   -2.9239   -0.4981 C   0  0  0  0  0  0  0  0  0  0  0  0
    7.2811   -4.1255    0.3302 C   0  0  0  0  0  0  0  0  0  0  0  0
    7.3292   -5.2720   -0.3828 F   0  0  0  0  0  0  0  0  0  0  0  0
    8.5379   -3.8774    0.7730 F   0  0  0  0  0  0  0  0  0  0  0  0
    6.5076   -4.3463    1.4174 F   0  0  0  0  0  0  0  0  0  0  0  0
    7.2599    1.1342   -4.1675 C   0  0  0  0  0  0  0  0  0  0  0  0
    7.6961    0.3594   -5.2347 C   0  0  0  0  0  0  0  0  0  0  0  0
    9.0265    0.4397   -5.6027 C   0  0  0  0  0  0  0  0  0  0  0  0
    9.8620    1.4070   -5.1099 C   0  0  0  0  0  0  0  0  0  0  0  0
   11.1485    1.2007   -5.4066 N   0  0  0  0  0  0  0  0  0  0  0  0
   11.9755    2.2243   -5.1912 C   0  0  0  0  0  0  0  0  0  0  0  0
   11.5161    3.4586   -4.7811 C   0  0  0  0  0  0  0  0  0  0  0  0
   12.3966    4.5791   -5.1142 C   0  0  0  0  0  0  0  0  0  0  0  0
   12.3415    5.4590   -6.2302 C   0  0  0  0  0  0  0  0  0  0  0  0
   13.4646    6.1707   -6.3948 N   0  0  0  0  0  0  0  0  0  0  0  0
   14.2553    5.7411   -5.3979 N   0  0  0  0  0  0  0  0  0  0  0  0
   15.4822    6.4350   -5.0806 C   0  0  0  0  0  0  0  0  0  0  0  0
   13.7207    4.6837   -4.7122 C   0  0  0  0  0  0  0  0  0  0  0  0
   10.2260    3.6192   -4.3065 N   0  0  0  0  0  0  0  0  0  0  0  0
    9.3600    2.5185   -4.4005 C   0  0  0  0  0  0  0  0  0  0  0  0
    8.0326    2.2946   -3.8408 C   0  0  0  0  0  0  0  0  0  0  0  0
    4.1560    1.8199   -3.2790 C   0  0  0  0  0  0  0  0  0  0  0  0
    0.4210    4.1810   -3.3157 H   0  0  0  0  0  0  0  0  0  0  0  0
    1.4407    4.3777   -1.8874 H   0  0  0  0  0  0  0  0  0  0  0  0
    0.4140    2.9075   -2.0932 H   0  0  0  0  0  0  0  0  0  0  0  0
    2.1216    2.5396   -0.6369 H   0  0  0  0  0  0  0  0  0  0  0  0
    2.7792    0.7164    2.4477 H   0  0  0  0  0  0  0  0  0  0  0  0
    1.9615    0.4165    0.9065 H   0  0  0  0  0  0  0  0  0  0  0  0
    2.2263    2.1000    1.5036 H   0  0  0  0  0  0  0  0  0  0  0  0
    5.7802    0.3715   -0.6750 H   0  0  0  0  0  0  0  0  0  0  0  0
    7.3042   -0.5346   -1.8525 H   0  0  0  0  0  0  0  0  0  0  0  0
    7.6265   -1.1720   -3.4236 H   0  0  0  0  0  0  0  0  0  0  0  0
    4.9377   -1.6916   -2.0791 H   0  0  0  0  0  0  0  0  0  0  0  0
    6.1682   -3.1074   -4.4949 H   0  0  0  0  0  0  0  0  0  0  0  0
    5.0057   -1.7799   -4.6496 H   0  0  0  0  0  0  0  0  0  0  0  0
    4.5442   -3.2743   -3.8269 H   0  0  0  0  0  0  0  0  0  0  0  0
    7.2609   -3.5095   -2.4182 H   0  0  0  0  0  0  0  0  0  0  0  0
    5.8463   -2.5559   -0.0033 H   0  0  0  0  0  0  0  0  0  0  0  0
    7.5050   -2.1338   -0.4233 H   0  0  0  0  0  0  0  0  0  0  0  0
    7.0882   -0.4342   -5.6227 H   0  0  0  0  0  0  0  0  0  0  0  0
    9.4351   -0.3204   -6.2620 H   0  0  0  0  0  0  0  0  0  0  0  0
   13.0085    2.0469   -5.4681 H   0  0  0  0  0  0  0  0  0  0  0  0
   11.5519    5.5771   -6.9623 H   0  0  0  0  0  0  0  0  0  0  0  0
   15.6195    7.2830   -5.7574 H   0  0  0  0  0  0  0  0  0  0  0  0
   16.3253    5.7448   -5.1631 H   0  0  0  0  0  0  0  0  0  0  0  0
   15.3893    6.7999   -4.0539 H   0  0  0  0  0  0  0  0  0  0  0  0
   14.3173    4.1213   -4.0079 H   0  0  0  0  0  0  0  0  0  0  0  0
    7.6606    3.0096   -3.1029 H   0  0  0  0  0  0  0  0  0  0  0  0
    4.1800    1.9321   -4.3611 H   0  0  0  0  0  0  0  0  0  0  0  0
  1  2  1  0  0  0  0
  1 37  1  0  0  0  0
  1 38  1  0  0  0  0
  1 39  1  0  0  0  0
  2  3  1  0  0  0  0
  3  4  1  0  0  0  0
  3 36  2  0  0  0  0
  4  5  2  0  0  0  0
  4 40  1  0  0  0  0
  5  6  1  0  0  0  0
  5  8  1  0  0  0  0
  6  7  1  0  0  0  0
  7 41  1  0  0  0  0
  7 42  1  0  0  0  0
  7 43  1  0  0  0  0
  8  9  2  0  0  0  0
  8 44  1  0  0  0  0
  9 10  1  0  0  0  0
  9 36  1  0  0  0  0
 10 11  1  0  0  0  0
 10 20  1  0  0  0  0
 11 12  1  0  0  0  0
 11 45  1  0  0  0  0
 11 46  1  0  0  0  0
 12 13  1  0  0  0  0
 12 14  1  0  0  0  0
 12 47  1  0  0  0  0
 13 48  1  0  0  0  0
 13 49  1  0  0  0  0
 13 50  1  0  0  0  0
 14 15  1  0  0  0  0
 14 51  1  0  0  0  0
 15 16  1  0  0  0  0
 15 52  1  0  0  0  0
 15 53  1  0  0  0  0
 16 17  1  0  0  0  0
 16 18  1  0  0  0  0
 16 19  1  0  0  0  0
 20 21  1  0  0  0  0
 20 35  2  0  0  0  0
 21 22  2  0  0  0  0
 21 54  1  0  0  0  0
 22 23  1  0  0  0  0
 22 55  1  0  0  0  0
 23 24  1  0  0  0  0
 23 34  2  0  0  0  0
 24 25  2  0  0  0  0
 25 26  1  0  0  0  0
 25 56  1  0  0  0  0
 26 27  1  0  0  0  0
 26 33  2  0  0  0  0
 27 28  1  0  0  0  0
 27 32  2  0  0  0  0
 28 29  2  0  0  0  0
 28 57  1  0  0  0  0
 29 30  1  0  0  0  0
 30 31  1  0  0  0  0
 30 32  1  0  0  0  0
 31 58  1  0  0  0  0
 31 59  1  0  0  0  0
 31 60  1  0  0  0  0
 32 61  1  0  0  0  0
 33 34  1  0  0  0  0
 34 35  1  0  0  0  0
 35 62  1  0  0  0  0
 36 63  1  0  0  0  0
M  END
$$$$
