CHEMBL3114020
 OpenBabel04072215363D

 46 49  0  0  0  0  0  0  0  0999 V2000
    1.1290    0.3155    0.5230 C   0  0  0  0  0  0  0  0  0  0  0  0
    2.4820    0.0148   -0.0104 C   0  0  0  0  0  0  0  0  0  0  0  0
    3.3141   -1.0728    0.0989 C   0  0  0  0  0  0  0  0  0  0  0  0
    3.0412   -2.2458    0.7882 C   0  0  0  0  0  0  0  0  0  0  0  0
    4.1352   -3.1385    0.7217 C   0  0  0  0  0  0  0  0  0  0  0  0
    5.3921   -2.9037    0.0398 C   0  0  0  0  0  0  0  0  0  0  0  0
    6.4111   -3.8945    0.1512 N   0  0  0  0  0  0  0  0  0  0  0  0
    7.8111   -3.4910    0.0157 C   0  0  0  0  0  0  0  0  0  0  0  0
    6.1898   -5.2951    0.1263 C   0  0  0  0  0  0  0  0  0  0  0  0
    7.0124   -6.1796    0.7899 C   0  0  0  0  0  0  0  0  0  0  0  0
    6.6647   -7.5096    0.7453 C   0  0  0  0  0  0  0  0  0  0  0  0
    5.6047   -7.9815    0.0714 N   0  0  0  0  0  0  0  0  0  0  0  0
    4.8528   -7.0705   -0.5559 C   0  0  0  0  0  0  0  0  0  0  0  0
    3.7096   -7.5470   -1.1921 N   0  0  0  0  0  0  0  0  0  0  0  0
    2.6180   -6.8553   -1.7330 C   0  0  0  0  0  0  0  0  0  0  0  0
    1.3862   -7.5125   -1.8473 C   0  0  0  0  0  0  0  0  0  0  0  0
    0.2547   -6.8509   -2.3428 C   0  0  0  0  0  0  0  0  0  0  0  0
    0.3499   -5.5206   -2.7374 C   0  0  0  0  0  0  0  0  0  0  0  0
    1.5602   -4.8496   -2.6233 C   0  0  0  0  0  0  0  0  0  0  0  0
    1.6831   -3.2023   -3.1057 Cl  0  0  0  0  0  0  0  0  0  0  0  0
    2.6817   -5.5100   -2.1244 C   0  0  0  0  0  0  0  0  0  0  0  0
    5.1179   -5.7590   -0.5319 N   0  0  0  0  0  0  0  0  0  0  0  0
    5.5913   -1.6876   -0.6728 C   0  0  0  0  0  0  0  0  0  0  0  0
    4.5211   -0.7675   -0.6210 C   0  0  0  0  0  0  0  0  0  0  0  0
    4.4175    0.4612   -1.1546 N   0  0  0  0  0  0  0  0  0  0  0  0
    3.1940    0.8983   -0.7868 N   0  0  0  0  0  0  0  0  0  0  0  0
    2.7652    2.2152   -1.2026 C   0  0  0  0  0  0  0  0  0  0  0  0
    0.7334   -0.5108    1.1217 H   0  0  0  0  0  0  0  0  0  0  0  0
    0.4227    0.5023   -0.2921 H   0  0  0  0  0  0  0  0  0  0  0  0
    1.1584    1.2021    1.1644 H   0  0  0  0  0  0  0  0  0  0  0  0
    2.1306   -2.4721    1.3236 H   0  0  0  0  0  0  0  0  0  0  0  0
    4.0132   -4.0874    1.2505 H   0  0  0  0  0  0  0  0  0  0  0  0
    7.9620   -2.4088    0.0125 H   0  0  0  0  0  0  0  0  0  0  0  0
    8.2492   -3.8987   -0.9034 H   0  0  0  0  0  0  0  0  0  0  0  0
    8.3978   -3.8473    0.8691 H   0  0  0  0  0  0  0  0  0  0  0  0
    7.8657   -5.8652    1.3718 H   0  0  0  0  0  0  0  0  0  0  0  0
    7.2390   -8.2535    1.2887 H   0  0  0  0  0  0  0  0  0  0  0  0
    3.6186   -8.5398   -1.0409 H   0  0  0  0  0  0  0  0  0  0  0  0
    1.2865   -8.5475   -1.5248 H   0  0  0  0  0  0  0  0  0  0  0  0
   -0.6923   -7.3781   -2.4159 H   0  0  0  0  0  0  0  0  0  0  0  0
   -0.5254   -5.0070   -3.1342 H   0  0  0  0  0  0  0  0  0  0  0  0
    3.6086   -4.9508   -2.0562 H   0  0  0  0  0  0  0  0  0  0  0  0
    6.4760   -1.4551   -1.2394 H   0  0  0  0  0  0  0  0  0  0  0  0
    3.5459    2.6811   -1.8100 H   0  0  0  0  0  0  0  0  0  0  0  0
    2.5851    2.8183   -0.3088 H   0  0  0  0  0  0  0  0  0  0  0  0
    1.8500    2.1139   -1.7909 H   0  0  0  0  0  0  0  0  0  0  0  0
  1  2  1  0  0  0  0
  1 28  1  0  0  0  0
  1 29  1  0  0  0  0
  1 30  1  0  0  0  0
  2  3  2  0  0  0  0
  2 26  1  0  0  0  0
  3  4  1  0  0  0  0
  3 24  1  0  0  0  0
  4  5  2  0  0  0  0
  4 31  1  0  0  0  0
  5  6  1  0  0  0  0
  5 32  1  0  0  0  0
  6  7  1  0  0  0  0
  6 23  2  0  0  0  0
  7  8  1  0  0  0  0
  7  9  1  0  0  0  0
  8 33  1  0  0  0  0
  8 34  1  0  0  0  0
  8 35  1  0  0  0  0
  9 10  1  0  0  0  0
  9 22  2  0  0  0  0
 10 11  2  0  0  0  0
 10 36  1  0  0  0  0
 11 12  1  0  0  0  0
 11 37  1  0  0  0  0
 12 13  2  0  0  0  0
 13 14  1  0  0  0  0
 13 22  1  0  0  0  0
 14 15  1  0  0  0  0
 14 38  1  0  0  0  0
 15 16  1  0  0  0  0
 15 21  2  0  0  0  0
 16 17  2  0  0  0  0
 16 39  1  0  0  0  0
 17 18  1  0  0  0  0
 17 40  1  0  0  0  0
 18 19  2  0  0  0  0
 18 41  1  0  0  0  0
 19 20  1  0  0  0  0
 19 21  1  0  0  0  0
 21 42  1  0  0  0  0
 23 24  1  0  0  0  0
 23 43  1  0  0  0  0
 24 25  2  0  0  0  0
 25 26  1  0  0  0  0
 26 27  1  0  0  0  0
 27 44  1  0  0  0  0
 27 45  1  0  0  0  0
 27 46  1  0  0  0  0
M  END
$$$$
