CHEMBL3984477
 OpenBabel04072215373D

 69 71  0  0  0  0  0  0  0  0999 V2000
   -5.9260   -9.6949  -11.4654 O   0  0  0  0  0  0  0  0  0  0  0  0
   -5.6766   -8.5056  -11.6473 C   0  0  0  0  0  0  0  0  0  0  0  0
   -4.6364   -7.7102  -10.8866 C   0  0  0  0  0  0  0  0  0  0  0  0
   -3.8998   -8.5597   -9.8562 C   0  0  0  0  0  0  0  0  0  0  0  0
   -2.8621   -7.7417   -9.0879 C   0  0  0  0  0  0  0  0  0  0  0  0
   -2.1423   -8.6128   -8.0619 C   0  0  0  0  0  0  0  0  0  0  0  0
   -1.1038   -7.8133   -7.2764 C   0  0  0  0  0  0  0  0  0  0  0  0
   -0.4076   -8.7168   -6.2638 C   0  0  0  0  0  0  0  0  0  0  0  0
    0.6054   -7.9547   -5.5303 N   0  0  0  0  0  0  0  0  0  0  0  0
    1.3031   -8.8199   -4.5624 C   0  0  0  0  0  0  0  0  0  0  0  0
    2.0454   -9.9743   -5.2090 C   0  0  0  0  0  0  0  0  0  0  0  0
    3.0032   -9.7188   -6.1857 C   0  0  0  0  0  0  0  0  0  0  0  0
    3.6826  -10.7874   -6.7700 C   0  0  0  0  0  0  0  0  0  0  0  0
    4.6808  -10.6513   -7.7191 O   0  0  0  0  0  0  0  0  0  0  0  0
    5.5038   -9.5451   -7.6821 C   0  0  0  0  0  0  0  0  0  0  0  0
    5.8607   -8.9004   -6.5055 C   0  0  0  0  0  0  0  0  0  0  0  0
    6.5953   -7.7177   -6.5406 C   0  0  0  0  0  0  0  0  0  0  0  0
    7.0650   -7.1828   -7.7428 C   0  0  0  0  0  0  0  0  0  0  0  0
    7.7695   -5.9468   -7.8042 N   0  0  0  0  0  0  0  0  0  0  0  0
    8.0631   -5.1379   -6.7203 C   0  0  0  0  0  0  0  0  0  0  0  0
    7.7930   -5.3966   -5.5453 O   0  0  0  0  0  0  0  0  0  0  0  0
    8.6763   -3.9443   -7.0724 N   0  0  0  0  0  0  0  0  0  0  0  0
    9.0024   -3.0058   -6.0554 C   0  0  0  0  0  0  0  0  0  0  0  0
    8.5545   -1.6944   -6.1771 C   0  0  0  0  0  0  0  0  0  0  0  0
    8.8117   -0.7768   -5.1553 C   0  0  0  0  0  0  0  0  0  0  0  0
    9.5385   -1.1472   -4.0141 C   0  0  0  0  0  0  0  0  0  0  0  0
    9.8208    0.0986   -2.8539 Cl  0  0  0  0  0  0  0  0  0  0  0  0
    9.9953   -2.4594   -3.8655 C   0  0  0  0  0  0  0  0  0  0  0  0
   10.7369   -2.9713   -2.6545 C   0  0  0  0  0  0  0  0  0  0  0  0
   10.9612   -2.0743   -1.6578 F   0  0  0  0  0  0  0  0  0  0  0  0
   10.0834   -4.0096   -2.0567 F   0  0  0  0  0  0  0  0  0  0  0  0
   11.9694   -3.4593   -2.9805 F   0  0  0  0  0  0  0  0  0  0  0  0
    9.7227   -3.3780   -4.9088 C   0  0  0  0  0  0  0  0  0  0  0  0
    6.8115   -7.9035   -8.9218 C   0  0  0  0  0  0  0  0  0  0  0  0
    6.0300   -9.0780   -8.8882 C   0  0  0  0  0  0  0  0  0  0  0  0
    3.3136  -12.0809   -6.4298 C   0  0  0  0  0  0  0  0  0  0  0  0
    2.3172  -12.2494   -5.4775 C   0  0  0  0  0  0  0  0  0  0  0  0
    1.6869  -11.2319   -4.8509 N   0  0  0  0  0  0  0  0  0  0  0  0
   -6.3398   -7.7573  -12.5892 N   0  0  0  0  0  0  0  0  0  0  0  0
   -7.3493   -8.4079  -13.3311 O   0  0  0  0  0  0  0  0  0  0  0  0
   -5.1422   -6.8748  -10.3876 H   0  0  0  0  0  0  0  0  0  0  0  0
   -3.9217   -7.2957  -11.6083 H   0  0  0  0  0  0  0  0  0  0  0  0
   -3.4064   -9.4016  -10.3580 H   0  0  0  0  0  0  0  0  0  0  0  0
   -4.6212   -8.9919   -9.1515 H   0  0  0  0  0  0  0  0  0  0  0  0
   -3.3517   -6.9030   -8.5783 H   0  0  0  0  0  0  0  0  0  0  0  0
   -2.1316   -7.3159   -9.7864 H   0  0  0  0  0  0  0  0  0  0  0  0
   -1.6512   -9.4510   -8.5722 H   0  0  0  0  0  0  0  0  0  0  0  0
   -2.8728   -9.0444   -7.3663 H   0  0  0  0  0  0  0  0  0  0  0  0
   -1.5878   -6.9745   -6.7626 H   0  0  0  0  0  0  0  0  0  0  0  0
   -0.3642   -7.3912   -7.9692 H   0  0  0  0  0  0  0  0  0  0  0  0
    0.0508   -9.5470   -6.8137 H   0  0  0  0  0  0  0  0  0  0  0  0
   -1.1428   -9.1382   -5.5682 H   0  0  0  0  0  0  0  0  0  0  0  0
    0.1511   -7.2010   -5.0166 H   0  0  0  0  0  0  0  0  0  0  0  0
    0.5921   -9.1998   -3.8185 H   0  0  0  0  0  0  0  0  0  0  0  0
    2.0336   -8.2135   -4.0142 H   0  0  0  0  0  0  0  0  0  0  0  0
    3.1992   -8.6902   -6.4723 H   0  0  0  0  0  0  0  0  0  0  0  0
    5.5404   -9.2668   -5.5340 H   0  0  0  0  0  0  0  0  0  0  0  0
    6.7627   -7.2400   -5.5865 H   0  0  0  0  0  0  0  0  0  0  0  0
    8.0917   -5.6506   -8.7155 H   0  0  0  0  0  0  0  0  0  0  0  0
    8.3567   -3.5590   -7.9481 H   0  0  0  0  0  0  0  0  0  0  0  0
    7.9453   -1.3853   -7.0214 H   0  0  0  0  0  0  0  0  0  0  0  0
    8.4216    0.2358   -5.2432 H   0  0  0  0  0  0  0  0  0  0  0  0
   10.0740   -4.4067   -4.8099 H   0  0  0  0  0  0  0  0  0  0  0  0
    7.1943   -7.5644   -9.8792 H   0  0  0  0  0  0  0  0  0  0  0  0
    5.8224   -9.6161   -9.8106 H   0  0  0  0  0  0  0  0  0  0  0  0
    3.7869  -12.9401   -6.8885 H   0  0  0  0  0  0  0  0  0  0  0  0
    1.9858  -13.2438   -5.1869 H   0  0  0  0  0  0  0  0  0  0  0  0
   -6.1981   -6.7701  -12.7564 H   0  0  0  0  0  0  0  0  0  0  0  0
   -7.3349   -9.3120  -12.9560 H   0  0  0  0  0  0  0  0  0  0  0  0
  1  2  2  0  0  0  0
  2  3  1  0  0  0  0
  2 39  1  0  0  0  0
  3  4  1  0  0  0  0
  3 41  1  0  0  0  0
  3 42  1  0  0  0  0
  4  5  1  0  0  0  0
  4 43  1  0  0  0  0
  4 44  1  0  0  0  0
  5  6  1  0  0  0  0
  5 45  1  0  0  0  0
  5 46  1  0  0  0  0
  6  7  1  0  0  0  0
  6 47  1  0  0  0  0
  6 48  1  0  0  0  0
  7  8  1  0  0  0  0
  7 49  1  0  0  0  0
  7 50  1  0  0  0  0
  8  9  1  0  0  0  0
  8 51  1  0  0  0  0
  8 52  1  0  0  0  0
  9 10  1  0  0  0  0
  9 53  1  0  0  0  0
 10 11  1  0  0  0  0
 10 54  1  0  0  0  0
 10 55  1  0  0  0  0
 11 12  1  0  0  0  0
 11 38  2  0  0  0  0
 12 13  2  0  0  0  0
 12 56  1  0  0  0  0
 13 14  1  0  0  0  0
 13 36  1  0  0  0  0
 14 15  1  0  0  0  0
 15 16  1  0  0  0  0
 15 35  2  0  0  0  0
 16 17  2  0  0  0  0
 16 57  1  0  0  0  0
 17 18  1  0  0  0  0
 17 58  1  0  0  0  0
 18 19  1  0  0  0  0
 18 34  2  0  0  0  0
 19 20  1  0  0  0  0
 19 59  1  0  0  0  0
 20 21  2  0  0  0  0
 20 22  1  0  0  0  0
 22 23  1  0  0  0  0
 22 60  1  0  0  0  0
 23 24  1  0  0  0  0
 23 33  2  0  0  0  0
 24 25  2  0  0  0  0
 24 61  1  0  0  0  0
 25 26  1  0  0  0  0
 25 62  1  0  0  0  0
 26 27  1  0  0  0  0
 26 28  2  0  0  0  0
 28 29  1  0  0  0  0
 28 33  1  0  0  0  0
 29 30  1  0  0  0  0
 29 31  1  0  0  0  0
 29 32  1  0  0  0  0
 33 63  1  0  0  0  0
 34 35  1  0  0  0  0
 34 64  1  0  0  0  0
 35 65  1  0  0  0  0
 36 37  2  0  0  0  0
 36 66  1  0  0  0  0
 37 38  1  0  0  0  0
 37 67  1  0  0  0  0
 39 40  1  0  0  0  0
 39 68  1  0  0  0  0
 40 69  1  0  0  0  0
M  END
$$$$
