CHEMBL3978730
 OpenBabel04072215373D

 57 61  0  0  0  0  0  0  0  0999 V2000
    2.4816    0.3898    1.9779 O   0  0  0  0  0  0  0  0  0  0  0  0
    2.1720   -0.6581    1.4006 C   0  0  0  0  0  0  0  0  0  0  0  0
    0.7241   -1.1206    1.4137 C   0  0  0  0  0  0  0  0  0  0  0  0
    0.4023   -2.0292    2.5743 C   0  0  0  0  0  0  0  0  0  0  0  0
    0.6017   -1.5987    3.8961 C   0  0  0  0  0  0  0  0  0  0  0  0
    0.2886   -2.4375    4.9644 C   0  0  0  0  0  0  0  0  0  0  0  0
    0.4885   -2.0091    6.2175 F   0  0  0  0  0  0  0  0  0  0  0  0
   -0.2317   -3.7050    4.7519 C   0  0  0  0  0  0  0  0  0  0  0  0
   -0.4474   -4.1241    3.4476 C   0  0  0  0  0  0  0  0  0  0  0  0
   -0.9637   -5.3395    3.2236 F   0  0  0  0  0  0  0  0  0  0  0  0
   -0.1413   -3.3033    2.3615 C   0  0  0  0  0  0  0  0  0  0  0  0
    3.0286   -1.5061    0.7254 N   0  0  0  0  0  0  0  0  0  0  0  0
    4.4142   -1.3185    0.5170 C   0  0  0  0  0  0  0  0  0  0  0  0
    5.1227   -0.2089    0.9865 C   0  0  0  0  0  0  0  0  0  0  0  0
    6.4760   -0.0295    0.6841 C   0  0  0  0  0  0  0  0  0  0  0  0
    7.1478   -0.9812   -0.0637 C   0  0  0  0  0  0  0  0  0  0  0  0
    6.4825   -2.1510   -0.4348 C   0  0  0  0  0  0  0  0  0  0  0  0
    7.2124   -3.2725   -1.0597 C   0  0  0  0  0  0  0  0  0  0  0  0
    6.6342   -3.9927   -1.8665 O   0  0  0  0  0  0  0  0  0  0  0  0
    8.6372   -3.5687   -0.6817 C   0  0  0  0  0  0  0  0  0  0  0  0
    9.2138   -3.1453    0.5358 C   0  0  0  0  0  0  0  0  0  0  0  0
   10.5734   -3.3734    0.8335 C   0  0  0  0  0  0  0  0  0  0  0  0
   11.2963   -4.2000   -0.0424 C   0  0  0  0  0  0  0  0  0  0  0  0
   12.5682   -4.8691   -0.1155 C   0  0  0  0  0  0  0  0  0  0  0  0
   13.6775   -4.5469   -1.0124 C   0  0  0  0  0  0  0  0  0  0  0  0
   13.6390   -3.6179   -1.9866 C   0  0  0  0  0  0  0  0  0  0  0  0
   14.2991   -3.8264   -3.2953 C   0  0  0  0  0  0  0  0  0  0  0  0
   14.1575   -2.8758   -4.3023 C   0  0  0  0  0  0  0  0  0  0  0  0
   14.6147   -3.1717   -5.5878 C   0  0  0  0  0  0  0  0  0  0  0  0
   15.1908   -4.4096   -5.8410 C   0  0  0  0  0  0  0  0  0  0  0  0
   15.2911   -5.3022   -4.7891 C   0  0  0  0  0  0  0  0  0  0  0  0
   14.8615   -5.0381   -3.5325 N   0  0  0  0  0  0  0  0  0  0  0  0
   12.2174   -6.1716   -0.2290 N   0  0  0  0  0  0  0  0  0  0  0  0
   11.2171   -6.0621   -1.1389 N   0  0  0  0  0  0  0  0  0  0  0  0
   10.5587   -4.8615   -1.0225 C   0  0  0  0  0  0  0  0  0  0  0  0
    9.3416   -4.4282   -1.5255 C   0  0  0  0  0  0  0  0  0  0  0  0
    5.1085   -2.3007   -0.1943 C   0  0  0  0  0  0  0  0  0  0  0  0
    0.4890   -1.5981    0.4554 H   0  0  0  0  0  0  0  0  0  0  0  0
    0.0865   -0.2299    1.4727 H   0  0  0  0  0  0  0  0  0  0  0  0
    0.9995   -0.6082    4.1098 H   0  0  0  0  0  0  0  0  0  0  0  0
   -0.4707   -4.3505    5.5883 H   0  0  0  0  0  0  0  0  0  0  0  0
   -0.3436   -3.6731    1.3600 H   0  0  0  0  0  0  0  0  0  0  0  0
    2.6283   -2.3419    0.3158 H   0  0  0  0  0  0  0  0  0  0  0  0
    4.6567    0.5550    1.5967 H   0  0  0  0  0  0  0  0  0  0  0  0
    7.0039    0.8456    1.0455 H   0  0  0  0  0  0  0  0  0  0  0  0
    8.1906   -0.8184   -0.3205 H   0  0  0  0  0  0  0  0  0  0  0  0
    8.6043   -2.6670    1.3010 H   0  0  0  0  0  0  0  0  0  0  0  0
   10.9952   -3.0423    1.7787 H   0  0  0  0  0  0  0  0  0  0  0  0
   14.3869   -5.3706   -1.1155 H   0  0  0  0  0  0  0  0  0  0  0  0
   12.9177   -2.8094   -1.9520 H   0  0  0  0  0  0  0  0  0  0  0  0
   13.6671   -1.9278   -4.1109 H   0  0  0  0  0  0  0  0  0  0  0  0
   14.5025   -2.4470   -6.3894 H   0  0  0  0  0  0  0  0  0  0  0  0
   15.5463   -4.6739   -6.8312 H   0  0  0  0  0  0  0  0  0  0  0  0
   15.7223   -6.2893   -4.9352 H   0  0  0  0  0  0  0  0  0  0  0  0
   10.9296   -6.8928   -1.6499 H   0  0  0  0  0  0  0  0  0  0  0  0
    8.8839   -4.8754   -2.4023 H   0  0  0  0  0  0  0  0  0  0  0  0
    4.6040   -3.1990   -0.5486 H   0  0  0  0  0  0  0  0  0  0  0  0
  1  2  2  0  0  0  0
  2  3  1  0  0  0  0
  2 12  1  0  0  0  0
  3  4  1  0  0  0  0
  3 38  1  0  0  0  0
  3 39  1  0  0  0  0
  4  5  1  0  0  0  0
  4 11  2  0  0  0  0
  5  6  2  0  0  0  0
  5 40  1  0  0  0  0
  6  7  1  0  0  0  0
  6  8  1  0  0  0  0
  8  9  2  0  0  0  0
  8 41  1  0  0  0  0
  9 10  1  0  0  0  0
  9 11  1  0  0  0  0
 11 42  1  0  0  0  0
 12 13  1  0  0  0  0
 12 43  1  0  0  0  0
 13 14  1  0  0  0  0
 13 37  2  0  0  0  0
 14 15  2  0  0  0  0
 14 44  1  0  0  0  0
 15 16  1  0  0  0  0
 15 45  1  0  0  0  0
 16 17  2  0  0  0  0
 16 46  1  0  0  0  0
 17 18  1  0  0  0  0
 17 37  1  0  0  0  0
 18 19  2  0  0  0  0
 18 20  1  0  0  0  0
 20 21  1  0  0  0  0
 20 36  2  0  0  0  0
 21 22  2  0  0  0  0
 21 47  1  0  0  0  0
 22 23  1  0  0  0  0
 22 48  1  0  0  0  0
 23 24  1  0  0  0  0
 23 35  2  0  0  0  0
 24 25  1  0  0  0  0
 24 33  2  0  0  0  0
 25 26  2  0  0  0  0
 25 49  1  0  0  0  0
 26 27  1  0  0  0  0
 26 50  1  0  0  0  0
 27 28  1  0  0  0  0
 27 32  2  0  0  0  0
 28 29  2  0  0  0  0
 28 51  1  0  0  0  0
 29 30  1  0  0  0  0
 29 52  1  0  0  0  0
 30 31  2  0  0  0  0
 30 53  1  0  0  0  0
 31 32  1  0  0  0  0
 31 54  1  0  0  0  0
 33 34  1  0  0  0  0
 34 35  1  0  0  0  0
 34 55  1  0  0  0  0
 35 36  1  0  0  0  0
 36 56  1  0  0  0  0
 37 57  1  0  0  0  0
M  END
$$$$
