CHEMBL3908050
 OpenBabel04072215373D

 51 54  0  0  0  0  0  0  0  0999 V2000
    2.5846   -1.2534    3.0839 O   0  0  0  0  0  0  0  0  0  0  0  0
    2.1758   -0.7897    2.0226 C   0  0  0  0  0  0  0  0  0  0  0  0
    0.8614   -0.8863    1.5859 N   0  0  0  0  0  0  0  0  0  0  0  0
   -0.1690   -1.5726    2.2779 C   0  0  0  0  0  0  0  0  0  0  0  0
   -0.0751   -1.9167    3.6266 C   0  0  0  0  0  0  0  0  0  0  0  0
   -1.0738   -2.6681    4.2382 C   0  0  0  0  0  0  0  0  0  0  0  0
   -2.1980   -3.0805    3.5236 C   0  0  0  0  0  0  0  0  0  0  0  0
   -3.3450   -4.0281    4.3942 Cl  0  0  0  0  0  0  0  0  0  0  0  0
   -2.3434   -2.7195    2.1801 C   0  0  0  0  0  0  0  0  0  0  0  0
   -3.5202   -3.1167    1.3266 C   0  0  0  0  0  0  0  0  0  0  0  0
   -4.4519   -3.9186    1.9030 F   0  0  0  0  0  0  0  0  0  0  0  0
   -4.2055   -2.0266    0.8760 F   0  0  0  0  0  0  0  0  0  0  0  0
   -3.1217   -3.7803    0.2017 F   0  0  0  0  0  0  0  0  0  0  0  0
   -1.3221   -1.9448    1.5747 C   0  0  0  0  0  0  0  0  0  0  0  0
    2.9933   -0.1471    1.1133 N   0  0  0  0  0  0  0  0  0  0  0  0
    4.4113   -0.1039    1.1895 C   0  0  0  0  0  0  0  0  0  0  0  0
    5.1673   -1.0135    1.9420 C   0  0  0  0  0  0  0  0  0  0  0  0
    6.5659   -0.9912    1.8971 C   0  0  0  0  0  0  0  0  0  0  0  0
    7.2236   -1.9881    2.5884 O   0  0  0  0  0  0  0  0  0  0  0  0
    8.4217   -1.6697    3.2196 C   0  0  0  0  0  0  0  0  0  0  0  0
    9.2798   -2.7145    3.4922 C   0  0  0  0  0  0  0  0  0  0  0  0
   10.4365   -2.3747    4.1626 C   0  0  0  0  0  0  0  0  0  0  0  0
   11.3194   -3.3972    4.5485 N   0  0  0  0  0  0  0  0  0  0  0  0
   12.4438   -3.1891    5.3235 C   0  0  0  0  0  0  0  0  0  0  0  0
   12.8984   -2.1235    5.7134 O   0  0  0  0  0  0  0  0  0  0  0  0
   13.1516   -4.4557    5.6934 C   0  0  0  0  0  0  0  0  0  0  0  0
   14.1263   -4.4720    6.8514 C   0  0  0  0  0  0  0  0  0  0  0  0
   14.6377   -4.5677    5.4437 C   0  0  0  0  0  0  0  0  0  0  0  0
   10.7220   -1.1078    4.4816 N   0  0  0  0  0  0  0  0  0  0  0  0
    9.8240   -0.1735    4.1716 C   0  0  0  0  0  0  0  0  0  0  0  0
    8.6590   -0.3939    3.5684 N   0  0  0  0  0  0  0  0  0  0  0  0
    7.2198   -0.0581    1.0886 C   0  0  0  0  0  0  0  0  0  0  0  0
    6.4820    0.8876    0.3787 C   0  0  0  0  0  0  0  0  0  0  0  0
    5.0905    0.8512    0.4250 C   0  0  0  0  0  0  0  0  0  0  0  0
    4.3955    1.7561   -0.2826 F   0  0  0  0  0  0  0  0  0  0  0  0
    0.6928   -0.6495    0.6165 H   0  0  0  0  0  0  0  0  0  0  0  0
    0.7664   -1.6154    4.2386 H   0  0  0  0  0  0  0  0  0  0  0  0
   -0.9529   -2.9340    5.2860 H   0  0  0  0  0  0  0  0  0  0  0  0
   -1.4302   -1.6675    0.5239 H   0  0  0  0  0  0  0  0  0  0  0  0
    2.5670    0.4778    0.4425 H   0  0  0  0  0  0  0  0  0  0  0  0
    4.6936   -1.7743    2.5542 H   0  0  0  0  0  0  0  0  0  0  0  0
    9.0357   -3.7272    3.2041 H   0  0  0  0  0  0  0  0  0  0  0  0
   11.0832   -4.3431    4.2929 H   0  0  0  0  0  0  0  0  0  0  0  0
   12.5676   -5.3634    5.5785 H   0  0  0  0  0  0  0  0  0  0  0  0
   14.1699   -5.3588    7.4724 H   0  0  0  0  0  0  0  0  0  0  0  0
   14.3027   -3.5471    7.3919 H   0  0  0  0  0  0  0  0  0  0  0  0
   15.0267   -5.5190    5.1033 H   0  0  0  0  0  0  0  0  0  0  0  0
   15.1611   -3.7028    5.0475 H   0  0  0  0  0  0  0  0  0  0  0  0
   10.0688    0.8499    4.4298 H   0  0  0  0  0  0  0  0  0  0  0  0
    8.3035   -0.0508    1.0157 H   0  0  0  0  0  0  0  0  0  0  0  0
    6.9887    1.6411   -0.2150 H   0  0  0  0  0  0  0  0  0  0  0  0
  1  2  2  0  0  0  0
  2  3  1  0  0  0  0
  2 15  1  0  0  0  0
  3  4  1  0  0  0  0
  3 36  1  0  0  0  0
  4  5  1  0  0  0  0
  4 14  2  0  0  0  0
  5  6  2  0  0  0  0
  5 37  1  0  0  0  0
  6  7  1  0  0  0  0
  6 38  1  0  0  0  0
  7  8  1  0  0  0  0
  7  9  2  0  0  0  0
  9 10  1  0  0  0  0
  9 14  1  0  0  0  0
 10 11  1  0  0  0  0
 10 12  1  0  0  0  0
 10 13  1  0  0  0  0
 14 39  1  0  0  0  0
 15 16  1  0  0  0  0
 15 40  1  0  0  0  0
 16 17  1  0  0  0  0
 16 34  2  0  0  0  0
 17 18  2  0  0  0  0
 17 41  1  0  0  0  0
 18 19  1  0  0  0  0
 18 32  1  0  0  0  0
 19 20  1  0  0  0  0
 20 21  1  0  0  0  0
 20 31  2  0  0  0  0
 21 22  2  0  0  0  0
 21 42  1  0  0  0  0
 22 23  1  0  0  0  0
 22 29  1  0  0  0  0
 23 24  1  0  0  0  0
 23 43  1  0  0  0  0
 24 25  2  0  0  0  0
 24 26  1  0  0  0  0
 26 27  1  0  0  0  0
 26 28  1  0  0  0  0
 26 44  1  0  0  0  0
 27 28  1  0  0  0  0
 27 45  1  0  0  0  0
 27 46  1  0  0  0  0
 28 47  1  0  0  0  0
 28 48  1  0  0  0  0
 29 30  2  0  0  0  0
 30 31  1  0  0  0  0
 30 49  1  0  0  0  0
 32 33  2  0  0  0  0
 32 50  1  0  0  0  0
 33 34  1  0  0  0  0
 33 51  1  0  0  0  0
 34 35  1  0  0  0  0
M  END
$$$$
