CHEMBL3780136
 OpenBabel04072215373D

 61 65  0  0  0  0  0  0  0  0999 V2000
   10.5435    1.8002    2.2787 C   0  0  0  0  0  0  0  0  0  0  0  0
   10.0492    1.8649    0.9461 O   0  0  0  0  0  0  0  0  0  0  0  0
    8.9128    2.5986    0.7494 C   0  0  0  0  0  0  0  0  0  0  0  0
    8.1787    3.2611    1.7319 C   0  0  0  0  0  0  0  0  0  0  0  0
    7.0251    3.9837    1.3963 C   0  0  0  0  0  0  0  0  0  0  0  0
    6.5922    4.0677    0.0679 C   0  0  0  0  0  0  0  0  0  0  0  0
    5.3002    4.7518   -0.3256 C   0  0  0  0  0  0  0  0  0  0  0  0
    4.8615    5.9780    0.4491 C   0  0  0  0  0  0  0  0  0  0  0  0
    3.9017    5.7484    1.3668 N   0  0  0  0  0  0  0  0  0  0  0  0
    3.2814    6.7934    1.9965 N   0  0  0  0  0  0  0  0  0  0  0  0
    3.6083    8.0777    1.7347 C   0  0  0  0  0  0  0  0  0  0  0  0
    2.8409    9.1220    2.3542 N   0  0  0  0  0  0  0  0  0  0  0  0
    2.1700    8.9440    3.5981 C   0  0  0  0  0  0  0  0  0  0  0  0
    2.7456    8.1868    4.6169 C   0  0  0  0  0  0  0  0  0  0  0  0
    2.1263    8.0535    5.8583 C   0  0  0  0  0  0  0  0  0  0  0  0
    0.9223    8.6970    6.1436 C   0  0  0  0  0  0  0  0  0  0  0  0
    0.2342    8.5210    7.3713 N   0  0  0  0  0  0  0  0  0  0  0  0
    0.7004    7.7862    8.4511 C   0  0  0  0  0  0  0  0  0  0  0  0
    1.8257    7.3083    8.5453 O   0  0  0  0  0  0  0  0  0  0  0  0
   -0.2731    7.5994    9.4260 N   0  0  0  0  0  0  0  0  0  0  0  0
    0.0396    6.8453   10.5879 C   0  0  0  0  0  0  0  0  0  0  0  0
    1.2382    7.0495   11.2846 C   0  0  0  0  0  0  0  0  0  0  0  0
    1.5827    6.2350   12.3638 C   0  0  0  0  0  0  0  0  0  0  0  0
    0.7308    5.2044   12.7499 C   0  0  0  0  0  0  0  0  0  0  0  0
   -0.4740    5.0161   12.0726 C   0  0  0  0  0  0  0  0  0  0  0  0
   -1.5011    3.7087   12.5233 Cl  0  0  0  0  0  0  0  0  0  0  0  0
   -0.8389    5.8482   11.0097 C   0  0  0  0  0  0  0  0  0  0  0  0
    0.3725    9.5207    5.1527 C   0  0  0  0  0  0  0  0  0  0  0  0
    1.0027    9.6555    3.8968 C   0  0  0  0  0  0  0  0  0  0  0  0
    4.6285    8.3715    0.7979 C   0  0  0  0  0  0  0  0  0  0  0  0
    5.0354    9.6864    0.4515 C   0  0  0  0  0  0  0  0  0  0  0  0
    6.0754    9.9301   -0.4429 C   0  0  0  0  0  0  0  0  0  0  0  0
    6.7458    8.8653   -1.0291 C   0  0  0  0  0  0  0  0  0  0  0  0
    6.3551    7.5599   -0.7337 C   0  0  0  0  0  0  0  0  0  0  0  0
    5.2986    7.2834    0.1657 C   0  0  0  0  0  0  0  0  0  0  0  0
    7.3228    3.3751   -0.9121 C   0  0  0  0  0  0  0  0  0  0  0  0
    8.4719    2.6543   -0.5745 C   0  0  0  0  0  0  0  0  0  0  0  0
   11.4829    1.2379    2.2626 H   0  0  0  0  0  0  0  0  0  0  0  0
    9.8451    1.2646    2.9293 H   0  0  0  0  0  0  0  0  0  0  0  0
   10.7639    2.7986    2.6708 H   0  0  0  0  0  0  0  0  0  0  0  0
    8.4658    3.2245    2.7777 H   0  0  0  0  0  0  0  0  0  0  0  0
    6.4591    4.4604    2.1947 H   0  0  0  0  0  0  0  0  0  0  0  0
    4.5066    3.9951   -0.2497 H   0  0  0  0  0  0  0  0  0  0  0  0
    5.3352    5.0205   -1.3895 H   0  0  0  0  0  0  0  0  0  0  0  0
    3.4361    9.9352    2.4736 H   0  0  0  0  0  0  0  0  0  0  0  0
    3.6860    7.6637    4.4606 H   0  0  0  0  0  0  0  0  0  0  0  0
    2.6324    7.4142    6.5706 H   0  0  0  0  0  0  0  0  0  0  0  0
   -0.6267    9.0341    7.5002 H   0  0  0  0  0  0  0  0  0  0  0  0
   -1.2106    7.4993    9.0634 H   0  0  0  0  0  0  0  0  0  0  0  0
    1.9290    7.8317   10.9771 H   0  0  0  0  0  0  0  0  0  0  0  0
    2.5270    6.3914   12.8793 H   0  0  0  0  0  0  0  0  0  0  0  0
    1.0181    4.5462   13.5658 H   0  0  0  0  0  0  0  0  0  0  0  0
   -1.7640    5.6552   10.4741 H   0  0  0  0  0  0  0  0  0  0  0  0
   -0.5507   10.0638    5.3321 H   0  0  0  0  0  0  0  0  0  0  0  0
    0.5528   10.2991    3.1419 H   0  0  0  0  0  0  0  0  0  0  0  0
    4.5367   10.5538    0.8745 H   0  0  0  0  0  0  0  0  0  0  0  0
    6.3722   10.9501   -0.6778 H   0  0  0  0  0  0  0  0  0  0  0  0
    7.5660    9.0448   -1.7196 H   0  0  0  0  0  0  0  0  0  0  0  0
    6.9080    6.7516   -1.2104 H   0  0  0  0  0  0  0  0  0  0  0  0
    6.9910    3.3704   -1.9488 H   0  0  0  0  0  0  0  0  0  0  0  0
    9.0203    2.1195   -1.3469 H   0  0  0  0  0  0  0  0  0  0  0  0
  1  2  1  0  0  0  0
  1 38  1  0  0  0  0
  1 39  1  0  0  0  0
  1 40  1  0  0  0  0
  2  3  1  0  0  0  0
  3  4  1  0  0  0  0
  3 37  2  0  0  0  0
  4  5  2  0  0  0  0
  4 41  1  0  0  0  0
  5  6  1  0  0  0  0
  5 42  1  0  0  0  0
  6  7  1  0  0  0  0
  6 36  2  0  0  0  0
  7  8  1  0  0  0  0
  7 43  1  0  0  0  0
  7 44  1  0  0  0  0
  8  9  1  0  0  0  0
  8 35  2  0  0  0  0
  9 10  2  0  0  0  0
 10 11  1  0  0  0  0
 11 12  1  0  0  0  0
 11 30  2  0  0  0  0
 12 13  1  0  0  0  0
 12 45  1  0  0  0  0
 13 14  1  0  0  0  0
 13 29  2  0  0  0  0
 14 15  2  0  0  0  0
 14 46  1  0  0  0  0
 15 16  1  0  0  0  0
 15 47  1  0  0  0  0
 16 17  1  0  0  0  0
 16 28  2  0  0  0  0
 17 18  1  0  0  0  0
 17 48  1  0  0  0  0
 18 19  2  0  0  0  0
 18 20  1  0  0  0  0
 20 21  1  0  0  0  0
 20 49  1  0  0  0  0
 21 22  1  0  0  0  0
 21 27  2  0  0  0  0
 22 23  2  0  0  0  0
 22 50  1  0  0  0  0
 23 24  1  0  0  0  0
 23 51  1  0  0  0  0
 24 25  2  0  0  0  0
 24 52  1  0  0  0  0
 25 26  1  0  0  0  0
 25 27  1  0  0  0  0
 27 53  1  0  0  0  0
 28 29  1  0  0  0  0
 28 54  1  0  0  0  0
 29 55  1  0  0  0  0
 30 31  1  0  0  0  0
 30 35  1  0  0  0  0
 31 32  2  0  0  0  0
 31 56  1  0  0  0  0
 32 33  1  0  0  0  0
 32 57  1  0  0  0  0
 33 34  2  0  0  0  0
 33 58  1  0  0  0  0
 34 35  1  0  0  0  0
 34 59  1  0  0  0  0
 36 37  1  0  0  0  0
 36 60  1  0  0  0  0
 37 61  1  0  0  0  0
M  END
$$$$
