CHEMBL241918
 OpenBabel04072215363D

 72 75  0  0  0  0  0  0  0  0999 V2000
    1.1591   -0.5926   -0.8607 C   0  0  0  0  0  0  0  0  0  0  0  0
    2.3317   -0.1544   -0.0091 C   0  0  0  0  0  0  0  0  0  0  0  0
    2.8637   -1.2705    0.7184 O   0  0  0  0  0  0  0  0  0  0  0  0
    4.2255   -1.2611    0.9005 C   0  0  0  0  0  0  0  0  0  0  0  0
    4.8574   -2.5147    0.8257 C   0  0  0  0  0  0  0  0  0  0  0  0
    6.2442   -2.6740    0.9218 C   0  0  0  0  0  0  0  0  0  0  0  0
    6.7713   -3.9019    0.8519 N   0  0  0  0  0  0  0  0  0  0  0  0
    8.1043   -4.0010    0.9539 C   0  0  0  0  0  0  0  0  0  0  0  0
    8.9619   -2.9967    1.1653 N   0  0  0  0  0  0  0  0  0  0  0  0
    8.4294   -1.7641    1.2441 C   0  0  0  0  0  0  0  0  0  0  0  0
    9.3894   -0.7547    1.5071 N   0  0  0  0  0  0  0  0  0  0  0  0
    9.1688    0.3121    2.3729 C   0  0  0  0  0  0  0  0  0  0  0  0
    9.0935    0.2596    3.7141 C   0  0  0  0  0  0  0  0  0  0  0  0
    8.6454    1.4149    4.5223 C   0  0  0  0  0  0  0  0  0  0  0  0
    8.6944    1.3540    5.7485 O   0  0  0  0  0  0  0  0  0  0  0  0
    8.0737    2.5875    3.7947 C   0  0  0  0  0  0  0  0  0  0  0  0
    7.4383    3.5492    4.5657 O   0  0  0  0  0  0  0  0  0  0  0  0
    7.2875    4.8430    3.9676 C   0  0  0  0  0  0  0  0  0  0  0  0
    7.1812    5.9199    5.0160 C   0  0  0  0  0  0  0  0  0  0  0  0
    7.6595    5.7302    6.3169 C   0  0  0  0  0  0  0  0  0  0  0  0
    7.6394    6.7782    7.2337 C   0  0  0  0  0  0  0  0  0  0  0  0
    7.1591    8.0327    6.8552 C   0  0  0  0  0  0  0  0  0  0  0  0
    6.6993    8.2469    5.5569 C   0  0  0  0  0  0  0  0  0  0  0  0
    6.2398    9.4338    5.0560 O   0  0  0  0  0  0  0  0  0  0  0  0
    6.2988   10.5575    5.9247 C   0  0  0  0  0  0  0  0  0  0  0  0
    6.6999    7.1891    4.6497 C   0  0  0  0  0  0  0  0  0  0  0  0
    8.2212    2.6598    2.4669 C   0  0  0  0  0  0  0  0  0  0  0  0
    8.9590    1.6390    1.7122 C   0  0  0  0  0  0  0  0  0  0  0  0
    9.2914    1.8655    0.5545 O   0  0  0  0  0  0  0  0  0  0  0  0
    7.0415   -1.5373    1.0781 C   0  0  0  0  0  0  0  0  0  0  0  0
    6.3925   -0.2780    1.0791 C   0  0  0  0  0  0  0  0  0  0  0  0
    5.0089   -0.1276    1.0783 C   0  0  0  0  0  0  0  0  0  0  0  0
    4.4614    1.1497    1.3534 N   0  0  0  0  0  0  0  0  0  0  0  0
    4.9016    2.2971    0.7261 C   0  0  0  0  0  0  0  0  0  0  0  0
    5.7738    2.3381   -0.1334 O   0  0  0  0  0  0  0  0  0  0  0  0
    4.1505    3.5194    1.1212 C   0  0  0  0  0  0  0  0  0  0  0  0
    4.3121    4.6351    0.3882 C   0  0  0  0  0  0  0  0  0  0  0  0
    3.6041    5.9411    0.6028 C   0  0  0  0  0  0  0  0  0  0  0  0
    4.4970    7.0719    0.9038 N   0  0  0  0  0  0  0  0  0  0  0  0
    5.4554    7.3408   -0.1744 C   0  0  0  0  0  0  0  0  0  0  0  0
    3.6854    8.2793    1.1194 C   0  0  0  0  0  0  0  0  0  0  0  0
    0.6086    0.2829   -1.2196 H   0  0  0  0  0  0  0  0  0  0  0  0
    0.4809   -1.2404   -0.2994 H   0  0  0  0  0  0  0  0  0  0  0  0
    1.5139   -1.1535   -1.7304 H   0  0  0  0  0  0  0  0  0  0  0  0
    1.9672    0.5817    0.7152 H   0  0  0  0  0  0  0  0  0  0  0  0
    3.0713    0.3106   -0.6734 H   0  0  0  0  0  0  0  0  0  0  0  0
    4.2471   -3.4026    0.6694 H   0  0  0  0  0  0  0  0  0  0  0  0
    8.5287   -4.9960    0.8645 H   0  0  0  0  0  0  0  0  0  0  0  0
   10.2541   -1.2546    1.6910 H   0  0  0  0  0  0  0  0  0  0  0  0
    9.2963   -0.6531    4.2649 H   0  0  0  0  0  0  0  0  0  0  0  0
    6.3913    4.8361    3.3359 H   0  0  0  0  0  0  0  0  0  0  0  0
    8.1699    5.0946    3.3665 H   0  0  0  0  0  0  0  0  0  0  0  0
    8.0635    4.7661    6.6247 H   0  0  0  0  0  0  0  0  0  0  0  0
    8.0165    6.6184    8.2406 H   0  0  0  0  0  0  0  0  0  0  0  0
    7.1701    8.8224    7.5990 H   0  0  0  0  0  0  0  0  0  0  0  0
    6.0196   11.4440    5.3479 H   0  0  0  0  0  0  0  0  0  0  0  0
    7.3117   10.7221    6.3085 H   0  0  0  0  0  0  0  0  0  0  0  0
    5.5794   10.4460    6.7425 H   0  0  0  0  0  0  0  0  0  0  0  0
    6.3488    7.3627    3.6305 H   0  0  0  0  0  0  0  0  0  0  0  0
    7.8165    3.4567    1.8537 H   0  0  0  0  0  0  0  0  0  0  0  0
    6.9762    0.6209    1.0960 H   0  0  0  0  0  0  0  0  0  0  0  0
    3.5723    1.1683    1.8356 H   0  0  0  0  0  0  0  0  0  0  0  0
    3.5024    3.4862    1.9864 H   0  0  0  0  0  0  0  0  0  0  0  0
    4.9674    4.5982   -0.4814 H   0  0  0  0  0  0  0  0  0  0  0  0
    2.8964    5.8219    1.4336 H   0  0  0  0  0  0  0  0  0  0  0  0
    3.0047    6.1516   -0.2927 H   0  0  0  0  0  0  0  0  0  0  0  0
    6.1772    6.5247   -0.2771 H   0  0  0  0  0  0  0  0  0  0  0  0
    6.0497    8.2338    0.0536 H   0  0  0  0  0  0  0  0  0  0  0  0
    4.9614    7.4982   -1.1401 H   0  0  0  0  0  0  0  0  0  0  0  0
    2.9854    8.1356    1.9495 H   0  0  0  0  0  0  0  0  0  0  0  0
    3.1098    8.5507    0.2262 H   0  0  0  0  0  0  0  0  0  0  0  0
    4.3207    9.1313    1.3879 H   0  0  0  0  0  0  0  0  0  0  0  0
  1  2  1  0  0  0  0
  1 42  1  0  0  0  0
  1 43  1  0  0  0  0
  1 44  1  0  0  0  0
  2  3  1  0  0  0  0
  2 45  1  0  0  0  0
  2 46  1  0  0  0  0
  3  4  1  0  0  0  0
  4  5  1  0  0  0  0
  4 32  2  0  0  0  0
  5  6  2  0  0  0  0
  5 47  1  0  0  0  0
  6  7  1  0  0  0  0
  6 30  1  0  0  0  0
  7  8  2  0  0  0  0
  8  9  1  0  0  0  0
  8 48  1  0  0  0  0
  9 10  2  0  0  0  0
 10 11  1  0  0  0  0
 10 30  1  0  0  0  0
 11 12  1  0  0  0  0
 11 49  1  0  0  0  0
 12 13  2  0  0  0  0
 12 28  1  0  0  0  0
 13 14  1  0  0  0  0
 13 50  1  0  0  0  0
 14 15  2  0  0  0  0
 14 16  1  0  0  0  0
 16 17  1  0  0  0  0
 16 27  2  0  0  0  0
 17 18  1  0  0  0  0
 18 19  1  0  0  0  0
 18 51  1  0  0  0  0
 18 52  1  0  0  0  0
 19 20  1  0  0  0  0
 19 26  2  0  0  0  0
 20 21  2  0  0  0  0
 20 53  1  0  0  0  0
 21 22  1  0  0  0  0
 21 54  1  0  0  0  0
 22 23  2  0  0  0  0
 22 55  1  0  0  0  0
 23 24  1  0  0  0  0
 23 26  1  0  0  0  0
 24 25  1  0  0  0  0
 25 56  1  0  0  0  0
 25 57  1  0  0  0  0
 25 58  1  0  0  0  0
 26 59  1  0  0  0  0
 27 28  1  0  0  0  0
 27 60  1  0  0  0  0
 28 29  2  0  0  0  0
 30 31  2  0  0  0  0
 31 32  1  0  0  0  0
 31 61  1  0  0  0  0
 32 33  1  0  0  0  0
 33 34  1  0  0  0  0
 33 62  1  0  0  0  0
 34 35  2  0  0  0  0
 34 36  1  0  0  0  0
 36 37  2  0  0  0  0
 36 63  1  0  0  0  0
 37 38  1  0  0  0  0
 37 64  1  0  0  0  0
 38 39  1  0  0  0  0
 38 65  1  0  0  0  0
 38 66  1  0  0  0  0
 39 40  1  0  0  0  0
 39 41  1  0  0  0  0
 40 67  1  0  0  0  0
 40 68  1  0  0  0  0
 40 69  1  0  0  0  0
 41 70  1  0  0  0  0
 41 71  1  0  0  0  0
 41 72  1  0  0  0  0
M  END
$$$$
