CHEMBL3908195
 OpenBabel04072215373D

 54 57  0  0  0  0  0  0  0  0999 V2000
   -1.2054   -5.7991    0.3031 C   0  0  0  0  0  0  0  0  0  0  0  0
    0.2528   -6.0935   -0.0106 C   0  0  0  0  0  0  0  0  0  0  0  0
    0.2725   -7.0021   -1.0327 F   0  0  0  0  0  0  0  0  0  0  0  0
    0.8075   -4.9600   -0.5308 F   0  0  0  0  0  0  0  0  0  0  0  0
    1.0062   -6.5957    1.2054 C   0  0  0  0  0  0  0  0  0  0  0  0
    0.9927   -7.9675    1.4917 C   0  0  0  0  0  0  0  0  0  0  0  0
    1.7206   -8.4598    2.5660 C   0  0  0  0  0  0  0  0  0  0  0  0
    2.4496   -7.5927    3.3762 C   0  0  0  0  0  0  0  0  0  0  0  0
    3.2283   -8.1775    4.2928 F   0  0  0  0  0  0  0  0  0  0  0  0
    2.4322   -6.2040    3.1737 C   0  0  0  0  0  0  0  0  0  0  0  0
    3.0692   -5.2518    4.0192 N   0  0  0  0  0  0  0  0  0  0  0  0
    3.5362   -5.4840    5.3058 C   0  0  0  0  0  0  0  0  0  0  0  0
    3.4865   -6.5475    5.9086 O   0  0  0  0  0  0  0  0  0  0  0  0
    4.0227   -4.3283    5.9041 N   0  0  0  0  0  0  0  0  0  0  0  0
    4.5634   -4.3734    7.2191 C   0  0  0  0  0  0  0  0  0  0  0  0
    5.4896   -5.3468    7.6189 C   0  0  0  0  0  0  0  0  0  0  0  0
    5.9890   -5.3453    8.9324 C   0  0  0  0  0  0  0  0  0  0  0  0
    5.5547   -4.3903    9.8593 C   0  0  0  0  0  0  0  0  0  0  0  0
    6.1385   -4.4194   11.1114 O   0  0  0  0  0  0  0  0  0  0  0  0
    5.3554   -4.1122   12.2227 C   0  0  0  0  0  0  0  0  0  0  0  0
    6.0168   -3.6726   13.3561 C   0  0  0  0  0  0  0  0  0  0  0  0
    5.2206   -3.3990   14.4497 C   0  0  0  0  0  0  0  0  0  0  0  0
    5.8201   -2.9678   15.6531 N   0  0  0  0  0  0  0  0  0  0  0  0
    5.1081   -2.6964   16.8061 C   0  0  0  0  0  0  0  0  0  0  0  0
    3.8946   -2.7394   16.9481 O   0  0  0  0  0  0  0  0  0  0  0  0
    5.9499   -2.3247   17.9892 C   0  0  0  0  0  0  0  0  0  0  0  0
    5.5429   -2.8143   19.3649 C   0  0  0  0  0  0  0  0  0  0  0  0
    5.3976   -1.3609   19.0200 C   0  0  0  0  0  0  0  0  0  0  0  0
    3.8915   -3.5472   14.4019 N   0  0  0  0  0  0  0  0  0  0  0  0
    3.3535   -3.9995   13.2695 C   0  0  0  0  0  0  0  0  0  0  0  0
    4.0279   -4.3058   12.1609 N   0  0  0  0  0  0  0  0  0  0  0  0
    4.6432   -3.4128    9.4539 C   0  0  0  0  0  0  0  0  0  0  0  0
    4.1632   -3.4090    8.1448 C   0  0  0  0  0  0  0  0  0  0  0  0
    3.2611   -2.4827    7.7824 F   0  0  0  0  0  0  0  0  0  0  0  0
    1.7252   -5.7208    2.0541 C   0  0  0  0  0  0  0  0  0  0  0  0
   -1.7182   -5.4542   -0.6016 H   0  0  0  0  0  0  0  0  0  0  0  0
   -1.3007   -5.0138    1.0589 H   0  0  0  0  0  0  0  0  0  0  0  0
   -1.7298   -6.6944    0.6539 H   0  0  0  0  0  0  0  0  0  0  0  0
    0.4432   -8.6626    0.8593 H   0  0  0  0  0  0  0  0  0  0  0  0
    1.7520   -9.5243    2.7784 H   0  0  0  0  0  0  0  0  0  0  0  0
    3.0997   -4.2965    3.6948 H   0  0  0  0  0  0  0  0  0  0  0  0
    3.4860   -3.4942    5.7059 H   0  0  0  0  0  0  0  0  0  0  0  0
    5.8299   -6.1044    6.9201 H   0  0  0  0  0  0  0  0  0  0  0  0
    6.7108   -6.1038    9.2261 H   0  0  0  0  0  0  0  0  0  0  0  0
    7.0908   -3.5575   13.3646 H   0  0  0  0  0  0  0  0  0  0  0  0
    6.8232   -2.8721   15.6715 H   0  0  0  0  0  0  0  0  0  0  0  0
    7.0169   -2.2602   17.8065 H   0  0  0  0  0  0  0  0  0  0  0  0
    6.3180   -3.0933   20.0677 H   0  0  0  0  0  0  0  0  0  0  0  0
    4.6324   -3.4000   19.4580 H   0  0  0  0  0  0  0  0  0  0  0  0
    6.0738   -0.6596   19.4921 H   0  0  0  0  0  0  0  0  0  0  0  0
    4.3902   -0.9775   18.8837 H   0  0  0  0  0  0  0  0  0  0  0  0
    2.2760   -4.1185   13.2501 H   0  0  0  0  0  0  0  0  0  0  0  0
    4.2772   -2.6580   10.1417 H   0  0  0  0  0  0  0  0  0  0  0  0
    1.7161   -4.6550    1.8280 H   0  0  0  0  0  0  0  0  0  0  0  0
  1  2  1  0  0  0  0
  1 36  1  0  0  0  0
  1 37  1  0  0  0  0
  1 38  1  0  0  0  0
  2  3  1  0  0  0  0
  2  4  1  0  0  0  0
  2  5  1  0  0  0  0
  5  6  1  0  0  0  0
  5 35  2  0  0  0  0
  6  7  2  0  0  0  0
  6 39  1  0  0  0  0
  7  8  1  0  0  0  0
  7 40  1  0  0  0  0
  8  9  1  0  0  0  0
  8 10  2  0  0  0  0
 10 11  1  0  0  0  0
 10 35  1  0  0  0  0
 11 12  1  0  0  0  0
 11 41  1  0  0  0  0
 12 13  2  0  0  0  0
 12 14  1  0  0  0  0
 14 15  1  0  0  0  0
 14 42  1  0  0  0  0
 15 16  1  0  0  0  0
 15 33  2  0  0  0  0
 16 17  2  0  0  0  0
 16 43  1  0  0  0  0
 17 18  1  0  0  0  0
 17 44  1  0  0  0  0
 18 19  1  0  0  0  0
 18 32  2  0  0  0  0
 19 20  1  0  0  0  0
 20 21  1  0  0  0  0
 20 31  2  0  0  0  0
 21 22  2  0  0  0  0
 21 45  1  0  0  0  0
 22 23  1  0  0  0  0
 22 29  1  0  0  0  0
 23 24  1  0  0  0  0
 23 46  1  0  0  0  0
 24 25  2  0  0  0  0
 24 26  1  0  0  0  0
 26 27  1  0  0  0  0
 26 28  1  0  0  0  0
 26 47  1  0  0  0  0
 27 28  1  0  0  0  0
 27 48  1  0  0  0  0
 27 49  1  0  0  0  0
 28 50  1  0  0  0  0
 28 51  1  0  0  0  0
 29 30  2  0  0  0  0
 30 31  1  0  0  0  0
 30 52  1  0  0  0  0
 32 33  1  0  0  0  0
 32 53  1  0  0  0  0
 33 34  1  0  0  0  0
 35 54  1  0  0  0  0
M  END
$$$$
