CHEMBL4453147
 OpenBabel04072215383D

 33 36  0  0  0  0  0  0  0  0999 V2000
    2.2436   -3.8572    1.2764 F   0  0  0  0  0  0  0  0  0  0  0  0
    0.9324   -4.1302    1.2316 C   0  0  0  0  0  0  0  0  0  0  0  0
    0.4697   -5.3260    1.7654 C   0  0  0  0  0  0  0  0  0  0  0  0
   -0.8905   -5.6007    1.7288 C   0  0  0  0  0  0  0  0  0  0  0  0
   -1.7673   -4.6796    1.1524 C   0  0  0  0  0  0  0  0  0  0  0  0
   -1.3098   -3.4777    0.5891 C   0  0  0  0  0  0  0  0  0  0  0  0
   -2.1727   -2.5158    0.0424 N   0  0  0  0  0  0  0  0  0  0  0  0
   -3.5636   -2.4635    0.0096 C   0  0  0  0  0  0  0  0  0  0  0  0
   -4.1088   -1.8073   -1.0164 N   0  0  0  0  0  0  0  0  0  0  0  0
   -5.4521   -1.7944   -1.0753 C   0  0  0  0  0  0  0  0  0  0  0  0
   -6.2867   -2.3797   -0.1387 C   0  0  0  0  0  0  0  0  0  0  0  0
   -5.6454   -3.0021    0.9064 C   0  0  0  0  0  0  0  0  0  0  0  0
   -4.2938   -3.0454    0.9713 N   0  0  0  0  0  0  0  0  0  0  0  0
   -6.3483   -3.6687    2.0103 C   0  0  0  0  0  0  0  0  0  0  0  0
   -5.6403   -4.3037    3.0534 C   0  0  0  0  0  0  0  0  0  0  0  0
   -6.3035   -4.9185    4.1109 C   0  0  0  0  0  0  0  0  0  0  0  0
   -7.6791   -4.8930    4.1041 C   0  0  0  0  0  0  0  0  0  0  0  0
   -8.4024   -4.3026    3.1337 N   0  0  0  0  0  0  0  0  0  0  0  0
   -7.7397   -3.6975    2.1097 C   0  0  0  0  0  0  0  0  0  0  0  0
   -8.8463   -2.9283    0.9563 S   0  0  0  0  0  0  0  0  0  0  0  0
   -7.7592   -2.3274   -0.3426 C   0  0  0  0  0  0  0  0  0  0  0  0
    0.0617   -3.2103    0.6543 C   0  0  0  0  0  0  0  0  0  0  0  0
    1.1673   -6.0283    2.2097 H   0  0  0  0  0  0  0  0  0  0  0  0
   -1.2766   -6.5288    2.1440 H   0  0  0  0  0  0  0  0  0  0  0  0
   -2.8245   -4.9369    1.1299 H   0  0  0  0  0  0  0  0  0  0  0  0
   -1.7991   -1.9780   -0.7288 H   0  0  0  0  0  0  0  0  0  0  0  0
   -5.8561   -1.2819   -1.9457 H   0  0  0  0  0  0  0  0  0  0  0  0
   -4.5514   -4.3107    3.0525 H   0  0  0  0  0  0  0  0  0  0  0  0
   -5.7563   -5.3968    4.9135 H   0  0  0  0  0  0  0  0  0  0  0  0
   -8.2571   -5.3486    4.9030 H   0  0  0  0  0  0  0  0  0  0  0  0
   -8.0471   -1.2842   -0.5176 H   0  0  0  0  0  0  0  0  0  0  0  0
   -8.0042   -2.8859   -1.2530 H   0  0  0  0  0  0  0  0  0  0  0  0
    0.4701   -2.2809    0.2668 H   0  0  0  0  0  0  0  0  0  0  0  0
  1  2  1  0  0  0  0
  2  3  1  0  0  0  0
  2 22  2  0  0  0  0
  3  4  2  0  0  0  0
  3 23  1  0  0  0  0
  4  5  1  0  0  0  0
  4 24  1  0  0  0  0
  5  6  2  0  0  0  0
  5 25  1  0  0  0  0
  6  7  1  0  0  0  0
  6 22  1  0  0  0  0
  7  8  1  0  0  0  0
  7 26  1  0  0  0  0
  8  9  1  0  0  0  0
  8 13  2  0  0  0  0
  9 10  2  0  0  0  0
 10 11  1  0  0  0  0
 10 27  1  0  0  0  0
 11 12  2  0  0  0  0
 11 21  1  0  0  0  0
 12 13  1  0  0  0  0
 12 14  1  0  0  0  0
 14 15  1  0  0  0  0
 14 19  2  0  0  0  0
 15 16  2  0  0  0  0
 15 28  1  0  0  0  0
 16 17  1  0  0  0  0
 16 29  1  0  0  0  0
 17 18  2  0  0  0  0
 17 30  1  0  0  0  0
 18 19  1  0  0  0  0
 19 20  1  0  0  0  0
 20 21  1  0  0  0  0
 21 31  1  0  0  0  0
 21 32  1  0  0  0  0
 22 33  1  0  0  0  0
M  END
$$$$
