CHEMBL3690459
 OpenBabel04072215373D

 46 49  0  0  0  0  0  0  0  0999 V2000
    2.4123   -1.3258    0.6267 O   0  0  0  0  0  0  0  0  0  0  0  0
    2.1392   -0.5463   -0.2739 C   0  0  0  0  0  0  0  0  0  0  0  0
    0.8462   -0.1051   -0.4728 N   0  0  0  0  0  0  0  0  0  0  0  0
   -0.2305   -0.7302    0.3011 C   0  0  0  0  0  0  0  0  0  0  0  0
   -0.7338   -2.0675   -0.2598 C   0  0  0  0  0  0  0  0  0  0  0  0
   -0.1412   -2.3735   -1.4384 F   0  0  0  0  0  0  0  0  0  0  0  0
   -0.5334   -3.0927    0.5915 F   0  0  0  0  0  0  0  0  0  0  0  0
   -2.0661   -1.9935   -0.5035 F   0  0  0  0  0  0  0  0  0  0  0  0
    3.0056    0.0165   -1.1805 N   0  0  0  0  0  0  0  0  0  0  0  0
    4.3999   -0.1630   -1.2627 C   0  0  0  0  0  0  0  0  0  0  0  0
    5.1414   -0.9321   -0.3695 C   0  0  0  0  0  0  0  0  0  0  0  0
    6.5290   -1.0144   -0.4951 C   0  0  0  0  0  0  0  0  0  0  0  0
    7.1864   -0.3211   -1.5115 C   0  0  0  0  0  0  0  0  0  0  0  0
    6.4642    0.4453   -2.4339 C   0  0  0  0  0  0  0  0  0  0  0  0
    7.1646    1.1237   -3.5301 C   0  0  0  0  0  0  0  0  0  0  0  0
    8.2980    0.7214   -4.2231 C   0  0  0  0  0  0  0  0  0  0  0  0
    8.6214    1.5807   -5.2351 N   0  0  0  0  0  0  0  0  0  0  0  0
    7.7147    2.5284   -5.1761 C   0  0  0  0  0  0  0  0  0  0  0  0
    7.5492    3.6861   -5.9857 C   0  0  0  0  0  0  0  0  0  0  0  0
    6.5909    4.6029   -5.7079 C   0  0  0  0  0  0  0  0  0  0  0  0
    6.4867    5.8321   -6.5340 C   0  0  0  0  0  0  0  0  0  0  0  0
    7.6178    6.4705   -7.0497 C   0  0  0  0  0  0  0  0  0  0  0  0
    7.4634    7.6444   -7.7835 C   0  0  0  0  0  0  0  0  0  0  0  0
    6.1910    8.1549   -7.9658 C   0  0  0  0  0  0  0  0  0  0  0  0
    6.0092    9.2861   -8.6576 F   0  0  0  0  0  0  0  0  0  0  0  0
    5.1174    7.4824   -7.4119 C   0  0  0  0  0  0  0  0  0  0  0  0
    5.2354    6.3361   -6.6973 N   0  0  0  0  0  0  0  0  0  0  0  0
    5.6799    4.3581   -4.5826 C   0  0  0  0  0  0  0  0  0  0  0  0
    5.8315    3.2677   -3.8152 C   0  0  0  0  0  0  0  0  0  0  0  0
    6.8277    2.3378   -4.1200 N   0  0  0  0  0  0  0  0  0  0  0  0
    5.0668    0.4908   -2.3076 C   0  0  0  0  0  0  0  0  0  0  0  0
    0.6131    0.1561   -1.4202 H   0  0  0  0  0  0  0  0  0  0  0  0
   -1.0502   -0.0056    0.3230 H   0  0  0  0  0  0  0  0  0  0  0  0
    0.1077   -0.8704    1.3343 H   0  0  0  0  0  0  0  0  0  0  0  0
    2.6005    0.6834   -1.8218 H   0  0  0  0  0  0  0  0  0  0  0  0
    4.6722   -1.4787    0.4419 H   0  0  0  0  0  0  0  0  0  0  0  0
    7.0972   -1.6203    0.2066 H   0  0  0  0  0  0  0  0  0  0  0  0
    8.2699   -0.3944   -1.5732 H   0  0  0  0  0  0  0  0  0  0  0  0
    8.8860   -0.1726   -4.0551 H   0  0  0  0  0  0  0  0  0  0  0  0
    8.2380    3.7877   -6.8163 H   0  0  0  0  0  0  0  0  0  0  0  0
    8.6153    6.0803   -6.8746 H   0  0  0  0  0  0  0  0  0  0  0  0
    8.3254    8.1579   -8.1969 H   0  0  0  0  0  0  0  0  0  0  0  0
    4.1091    7.8652   -7.5277 H   0  0  0  0  0  0  0  0  0  0  0  0
    4.8958    5.0834   -4.3842 H   0  0  0  0  0  0  0  0  0  0  0  0
    5.2007    3.0903   -2.9570 H   0  0  0  0  0  0  0  0  0  0  0  0
    4.4778    1.0198   -3.0510 H   0  0  0  0  0  0  0  0  0  0  0  0
  1  2  2  0  0  0  0
  2  3  1  0  0  0  0
  2  9  1  0  0  0  0
  3  4  1  0  0  0  0
  3 32  1  0  0  0  0
  4  5  1  0  0  0  0
  4 33  1  0  0  0  0
  4 34  1  0  0  0  0
  5  6  1  0  0  0  0
  5  7  1  0  0  0  0
  5  8  1  0  0  0  0
  9 10  1  0  0  0  0
  9 35  1  0  0  0  0
 10 11  1  0  0  0  0
 10 31  2  0  0  0  0
 11 12  2  0  0  0  0
 11 36  1  0  0  0  0
 12 13  1  0  0  0  0
 12 37  1  0  0  0  0
 13 14  2  0  0  0  0
 13 38  1  0  0  0  0
 14 15  1  0  0  0  0
 14 31  1  0  0  0  0
 15 16  2  0  0  0  0
 15 30  1  0  0  0  0
 16 17  1  0  0  0  0
 16 39  1  0  0  0  0
 17 18  2  0  0  0  0
 18 19  1  0  0  0  0
 18 30  1  0  0  0  0
 19 20  2  0  0  0  0
 19 40  1  0  0  0  0
 20 21  1  0  0  0  0
 20 28  1  0  0  0  0
 21 22  1  0  0  0  0
 21 27  2  0  0  0  0
 22 23  2  0  0  0  0
 22 41  1  0  0  0  0
 23 24  1  0  0  0  0
 23 42  1  0  0  0  0
 24 25  1  0  0  0  0
 24 26  2  0  0  0  0
 26 27  1  0  0  0  0
 26 43  1  0  0  0  0
 28 29  2  0  0  0  0
 28 44  1  0  0  0  0
 29 30  1  0  0  0  0
 29 45  1  0  0  0  0
 31 46  1  0  0  0  0
M  END
$$$$
