CHEMBL3774580
 OpenBabel04072215373D

 38 40  0  0  0  0  0  0  0  0999 V2000
    3.3170   -0.6645   -0.9703 C   0  0  0  0  0  0  0  0  0  0  0  0
    2.4641   -0.0701    0.0123 O   0  0  0  0  0  0  0  0  0  0  0  0
    3.0280    0.9524    0.7309 C   0  0  0  0  0  0  0  0  0  0  0  0
    3.9940    1.7933    0.1517 C   0  0  0  0  0  0  0  0  0  0  0  0
    4.6330    2.7976    0.8592 C   0  0  0  0  0  0  0  0  0  0  0  0
    5.5698    3.5121    0.2299 N   0  0  0  0  0  0  0  0  0  0  0  0
    6.1787    4.4588    0.9437 C   0  0  0  0  0  0  0  0  0  0  0  0
    5.9361    4.7498    2.2227 N   0  0  0  0  0  0  0  0  0  0  0  0
    4.9926    4.0175    2.8541 C   0  0  0  0  0  0  0  0  0  0  0  0
    4.7432    4.2802    4.2300 N   0  0  0  0  0  0  0  0  0  0  0  0
    5.2452    5.4197    4.9016 C   0  0  0  0  0  0  0  0  0  0  0  0
    5.0804    6.7037    4.3621 C   0  0  0  0  0  0  0  0  0  0  0  0
    5.6403    7.8229    4.9838 C   0  0  0  0  0  0  0  0  0  0  0  0
    6.3643    7.6775    6.1661 C   0  0  0  0  0  0  0  0  0  0  0  0
    6.4942    6.4122    6.7290 C   0  0  0  0  0  0  0  0  0  0  0  0
    7.1957    6.2137    7.8878 O   0  0  0  0  0  0  0  0  0  0  0  0
    5.9303    5.2967    6.1120 C   0  0  0  0  0  0  0  0  0  0  0  0
    6.0873    4.0604    6.6882 O   0  0  0  0  0  0  0  0  0  0  0  0
    4.2764    3.0097    2.1914 C   0  0  0  0  0  0  0  0  0  0  0  0
    3.2450    2.2286    2.7593 C   0  0  0  0  0  0  0  0  0  0  0  0
    2.6231    1.1935    2.0476 C   0  0  0  0  0  0  0  0  0  0  0  0
    1.6968    0.5461    2.8133 O   0  0  0  0  0  0  0  0  0  0  0  0
    1.0365   -0.6109    2.3308 C   0  0  0  0  0  0  0  0  0  0  0  0
    2.9517   -1.6746   -1.1734 H   0  0  0  0  0  0  0  0  0  0  0  0
    4.3535   -0.7544   -0.6215 H   0  0  0  0  0  0  0  0  0  0  0  0
    3.2722   -0.0947   -1.9045 H   0  0  0  0  0  0  0  0  0  0  0  0
    4.2787    1.6769   -0.8911 H   0  0  0  0  0  0  0  0  0  0  0  0
    6.9497    5.0398    0.4502 H   0  0  0  0  0  0  0  0  0  0  0  0
    4.9658    3.4475    4.7776 H   0  0  0  0  0  0  0  0  0  0  0  0
    4.5284    6.8265    3.4325 H   0  0  0  0  0  0  0  0  0  0  0  0
    5.5197    8.8008    4.5256 H   0  0  0  0  0  0  0  0  0  0  0  0
    6.8122    8.5531    6.6212 H   0  0  0  0  0  0  0  0  0  0  0  0
    7.5892    7.0653    8.1470 H   0  0  0  0  0  0  0  0  0  0  0  0
    6.6012    4.2423    7.5023 H   0  0  0  0  0  0  0  0  0  0  0  0
    2.9177    2.4263    3.7788 H   0  0  0  0  0  0  0  0  0  0  0  0
    0.6668   -1.1540    3.2077 H   0  0  0  0  0  0  0  0  0  0  0  0
    1.6965   -1.3026    1.8042 H   0  0  0  0  0  0  0  0  0  0  0  0
    0.1696   -0.3298    1.7257 H   0  0  0  0  0  0  0  0  0  0  0  0
  1  2  1  0  0  0  0
  1 24  1  0  0  0  0
  1 25  1  0  0  0  0
  1 26  1  0  0  0  0
  2  3  1  0  0  0  0
  3  4  1  0  0  0  0
  3 21  2  0  0  0  0
  4  5  2  0  0  0  0
  4 27  1  0  0  0  0
  5  6  1  0  0  0  0
  5 19  1  0  0  0  0
  6  7  2  0  0  0  0
  7  8  1  0  0  0  0
  7 28  1  0  0  0  0
  8  9  2  0  0  0  0
  9 10  1  0  0  0  0
  9 19  1  0  0  0  0
 10 11  1  0  0  0  0
 10 29  1  0  0  0  0
 11 12  1  0  0  0  0
 11 17  2  0  0  0  0
 12 13  2  0  0  0  0
 12 30  1  0  0  0  0
 13 14  1  0  0  0  0
 13 31  1  0  0  0  0
 14 15  2  0  0  0  0
 14 32  1  0  0  0  0
 15 16  1  0  0  0  0
 15 17  1  0  0  0  0
 16 33  1  0  0  0  0
 17 18  1  0  0  0  0
 18 34  1  0  0  0  0
 19 20  2  0  0  0  0
 20 21  1  0  0  0  0
 20 35  1  0  0  0  0
 21 22  1  0  0  0  0
 22 23  1  0  0  0  0
 23 36  1  0  0  0  0
 23 37  1  0  0  0  0
 23 38  1  0  0  0  0
M  END
$$$$
