CHEMBL55594
 OpenBabel04072215383D

 61 65  0  0  0  0  0  0  0  0999 V2000
    1.4494   -0.1732   -0.2850 C   0  0  0  0  0  0  0  0  0  0  0  0
    2.8894   -0.0648    0.1763 C   0  0  0  0  0  0  0  0  0  0  0  0
    3.1328    1.3318    1.2563 S   0  0  0  0  0  0  0  0  0  0  0  0
    2.8420    2.5398    0.5089 O   0  0  0  0  0  0  0  0  0  0  0  0
    2.4881    1.0599    2.5355 O   0  0  0  0  0  0  0  0  0  0  0  0
    4.8905    1.3404    1.5784 C   0  0  0  0  0  0  0  0  0  0  0  0
    5.4538    0.2066    2.1978 C   0  0  0  0  0  0  0  0  0  0  0  0
    6.8188    0.1709    2.4729 C   0  0  0  0  0  0  0  0  0  0  0  0
    7.5681    1.2800    2.1331 C   0  0  0  0  0  0  0  0  0  0  0  0
    7.0253    2.4223    1.5286 C   0  0  0  0  0  0  0  0  0  0  0  0
    5.6690    2.4666    1.2415 C   0  0  0  0  0  0  0  0  0  0  0  0
    8.1484    3.3695    1.3628 C   0  0  0  0  0  0  0  0  0  0  0  0
    8.0834    4.6125    0.8509 C   0  0  0  0  0  0  0  0  0  0  0  0
    9.2068    5.4868    0.8097 C   0  0  0  0  0  0  0  0  0  0  0  0
    9.9909    5.4666   -0.3116 N   0  0  0  0  0  0  0  0  0  0  0  0
   11.1092    6.2159   -0.0966 C   0  0  0  0  0  0  0  0  0  0  0  0
   11.0610    6.7315    1.1898 C   0  0  0  0  0  0  0  0  0  0  0  0
    9.7701    6.3606    1.7481 C   0  0  0  0  0  0  0  0  0  0  0  0
    9.1778    6.4983    3.1339 C   0  0  0  0  0  0  0  0  0  0  0  0
    8.6672    7.8241    3.5699 N   0  0  0  0  0  0  0  0  0  0  0  0
    9.7349    8.7391    4.0240 C   0  0  0  0  0  0  0  0  0  0  0  0
   10.5733    8.1494    5.1715 C   0  0  0  0  0  0  0  0  0  0  0  0
    9.7631    7.8072    6.3085 O   0  0  0  0  0  0  0  0  0  0  0  0
    8.6088    7.0229    5.9728 C   0  0  0  0  0  0  0  0  0  0  0  0
    7.8195    7.6223    4.7891 C   0  0  0  0  0  0  0  0  0  0  0  0
   12.2923    7.3905    1.7521 C   0  0  0  0  0  0  0  0  0  0  0  0
   13.2197    7.9206    0.6284 C   0  0  0  0  0  0  0  0  0  0  0  0
   13.4971    6.8511   -0.4404 C   0  0  0  0  0  0  0  0  0  0  0  0
   12.2041    6.3555   -1.1002 C   0  0  0  0  0  0  0  0  0  0  0  0
    9.3811    2.6712    1.9075 C   0  0  0  0  0  0  0  0  0  0  0  0
   10.5314    3.0569    1.9623 O   0  0  0  0  0  0  0  0  0  0  0  0
    8.9306    1.4350    2.3428 N   0  0  0  0  0  0  0  0  0  0  0  0
    1.3238   -1.0387   -0.9437 H   0  0  0  0  0  0  0  0  0  0  0  0
    1.1410    0.7211   -0.8378 H   0  0  0  0  0  0  0  0  0  0  0  0
    0.7681   -0.2914    0.5647 H   0  0  0  0  0  0  0  0  0  0  0  0
    3.5535    0.0603   -0.6863 H   0  0  0  0  0  0  0  0  0  0  0  0
    3.1710   -0.9699    0.7223 H   0  0  0  0  0  0  0  0  0  0  0  0
    4.8296   -0.6364    2.4866 H   0  0  0  0  0  0  0  0  0  0  0  0
    7.2652   -0.6950    2.9538 H   0  0  0  0  0  0  0  0  0  0  0  0
    5.2186    3.3450    0.7903 H   0  0  0  0  0  0  0  0  0  0  0  0
    7.1377    5.0252    0.5142 H   0  0  0  0  0  0  0  0  0  0  0  0
    9.8302    4.8927   -1.1267 H   0  0  0  0  0  0  0  0  0  0  0  0
    9.8601    6.0209    3.8393 H   0  0  0  0  0  0  0  0  0  0  0  0
    8.2861    5.8568    3.1370 H   0  0  0  0  0  0  0  0  0  0  0  0
    9.2613    9.6614    4.3957 H   0  0  0  0  0  0  0  0  0  0  0  0
   10.3476    9.0645    3.1834 H   0  0  0  0  0  0  0  0  0  0  0  0
   11.3025    8.8912    5.5100 H   0  0  0  0  0  0  0  0  0  0  0  0
   11.1490    7.2753    4.8499 H   0  0  0  0  0  0  0  0  0  0  0  0
    7.9704    6.9913    6.8620 H   0  0  0  0  0  0  0  0  0  0  0  0
    8.9098    5.9875    5.7749 H   0  0  0  0  0  0  0  0  0  0  0  0
    7.4122    8.5949    5.1025 H   0  0  0  0  0  0  0  0  0  0  0  0
    6.9461    7.0022    4.5541 H   0  0  0  0  0  0  0  0  0  0  0  0
   12.8526    6.6383    2.3239 H   0  0  0  0  0  0  0  0  0  0  0  0
   12.0633    8.2074    2.4337 H   0  0  0  0  0  0  0  0  0  0  0  0
   14.1712    8.2600    1.0560 H   0  0  0  0  0  0  0  0  0  0  0  0
   12.7581    8.7923    0.1466 H   0  0  0  0  0  0  0  0  0  0  0  0
   14.0241    6.0070    0.0229 H   0  0  0  0  0  0  0  0  0  0  0  0
   14.1682    7.2502   -1.2118 H   0  0  0  0  0  0  0  0  0  0  0  0
   12.3943    5.4050   -1.6116 H   0  0  0  0  0  0  0  0  0  0  0  0
   11.8885    7.0790   -1.8613 H   0  0  0  0  0  0  0  0  0  0  0  0
    9.5487    0.7561    2.7610 H   0  0  0  0  0  0  0  0  0  0  0  0
  1  2  1  0  0  0  0
  1 33  1  0  0  0  0
  1 34  1  0  0  0  0
  1 35  1  0  0  0  0
  2  3  1  0  0  0  0
  2 36  1  0  0  0  0
  2 37  1  0  0  0  0
  3  4  2  0  0  0  0
  3  5  2  0  0  0  0
  3  6  1  0  0  0  0
  6  7  1  0  0  0  0
  6 11  2  0  0  0  0
  7  8  2  0  0  0  0
  7 38  1  0  0  0  0
  8  9  1  0  0  0  0
  8 39  1  0  0  0  0
  9 10  2  0  0  0  0
  9 32  1  0  0  0  0
 10 11  1  0  0  0  0
 10 12  1  0  0  0  0
 11 40  1  0  0  0  0
 12 13  2  0  0  0  0
 12 30  1  0  0  0  0
 13 14  1  0  0  0  0
 13 41  1  0  0  0  0
 14 15  1  0  0  0  0
 14 18  2  0  0  0  0
 15 16  1  0  0  0  0
 15 42  1  0  0  0  0
 16 17  2  0  0  0  0
 16 29  1  0  0  0  0
 17 18  1  0  0  0  0
 17 26  1  0  0  0  0
 18 19  1  0  0  0  0
 19 20  1  0  0  0  0
 19 43  1  0  0  0  0
 19 44  1  0  0  0  0
 20 21  1  0  0  0  0
 20 25  1  0  0  0  0
 21 22  1  0  0  0  0
 21 45  1  0  0  0  0
 21 46  1  0  0  0  0
 22 23  1  0  0  0  0
 22 47  1  0  0  0  0
 22 48  1  0  0  0  0
 23 24  1  0  0  0  0
 24 25  1  0  0  0  0
 24 49  1  0  0  0  0
 24 50  1  0  0  0  0
 25 51  1  0  0  0  0
 25 52  1  0  0  0  0
 26 27  1  0  0  0  0
 26 53  1  0  0  0  0
 26 54  1  0  0  0  0
 27 28  1  0  0  0  0
 27 55  1  0  0  0  0
 27 56  1  0  0  0  0
 28 29  1  0  0  0  0
 28 57  1  0  0  0  0
 28 58  1  0  0  0  0
 29 59  1  0  0  0  0
 29 60  1  0  0  0  0
 30 31  2  0  0  0  0
 30 32  1  0  0  0  0
 32 61  1  0  0  0  0
M  END
$$$$
