CHEMBL3936765
 OpenBabel04072215373D

 53 57  0  0  0  0  0  0  0  0999 V2000
    1.4715   -0.5852    0.7930 C   0  0  0  0  0  0  0  0  0  0  0  0
    2.6635   -0.1050    0.1588 N   0  0  0  0  0  0  0  0  0  0  0  0
    3.2666    1.0402    0.6199 C   0  0  0  0  0  0  0  0  0  0  0  0
    2.8075    1.7921    1.6735 C   0  0  0  0  0  0  0  0  0  0  0  0
    3.5180    2.8849    2.1505 C   0  0  0  0  0  0  0  0  0  0  0  0
    4.6758    3.3150    1.5597 C   0  0  0  0  0  0  0  0  0  0  0  0
    5.2363    2.5735    0.5303 C   0  0  0  0  0  0  0  0  0  0  0  0
    6.5580    2.9266    0.0550 N   0  0  0  0  0  0  0  0  0  0  0  0
    7.2072    2.1392   -1.0738 C   0  0  0  0  0  0  0  0  0  0  0  0
    7.9845    1.0221   -0.5642 C   0  0  0  0  0  0  0  0  0  0  0  0
    7.5969   -0.2204    0.2852 C   0  0  0  0  0  0  0  0  0  0  0  0
    8.8219    0.6337    0.6295 C   0  0  0  0  0  0  0  0  0  0  0  0
    7.4852    3.7461    0.7810 C   0  0  0  0  0  0  0  0  0  0  0  0
    8.3010    4.4468   -0.1161 C   0  0  0  0  0  0  0  0  0  0  0  0
    9.1668    5.3360    0.3333 C   0  0  0  0  0  0  0  0  0  0  0  0
    9.3488    5.4650    1.7013 C   0  0  0  0  0  0  0  0  0  0  0  0
   10.5409    5.7060    1.8579 N   0  0  0  0  0  0  0  0  0  0  0  0
   11.1175    6.8594    1.6562 C   0  0  0  0  0  0  0  0  0  0  0  0
   11.2849    7.1671    2.8242 C   0  0  0  0  0  0  0  0  0  0  0  0
   12.6132    8.3823    2.2126 C   0  0  0  0  0  0  0  0  0  0  0  0
   13.2807    9.8372    2.6373 C   0  0  0  0  0  0  0  0  0  0  0  0
   14.5357   10.2713    2.2346 N   0  0  0  0  0  0  0  0  0  0  0  0
   15.0769    9.2267    1.6085 N   0  0  0  0  0  0  0  0  0  0  0  0
   16.5093    9.2790    1.0992 C   0  0  0  0  0  0  0  0  0  0  0  0
   14.0473    8.1053    1.6426 C   0  0  0  0  0  0  0  0  0  0  0  0
    9.8927    6.4345    3.6162 N   0  0  0  0  0  0  0  0  0  0  0  0
    8.7964    5.1395    2.8694 C   0  0  0  0  0  0  0  0  0  0  0  0
    7.7490    3.9048    2.1858 C   0  0  0  0  0  0  0  0  0  0  0  0
    4.3704    1.5405    0.0333 C   0  0  0  0  0  0  0  0  0  0  0  0
    1.1872   -1.5564    0.3873 H   0  0  0  0  0  0  0  0  0  0  0  0
    0.6643    0.1240    0.5950 H   0  0  0  0  0  0  0  0  0  0  0  0
    1.5911   -0.6936    1.8712 H   0  0  0  0  0  0  0  0  0  0  0  0
    3.1555   -0.6877   -0.5117 H   0  0  0  0  0  0  0  0  0  0  0  0
    1.9044    1.4938    2.1173 H   0  0  0  0  0  0  0  0  0  0  0  0
    3.1590    3.3741    3.0411 H   0  0  0  0  0  0  0  0  0  0  0  0
    5.1605    4.2206    1.9084 H   0  0  0  0  0  0  0  0  0  0  0  0
    7.8312    2.7319   -1.7264 H   0  0  0  0  0  0  0  0  0  0  0  0
    6.3586    1.6726   -1.5805 H   0  0  0  0  0  0  0  0  0  0  0  0
    8.6133    1.1145   -1.4261 H   0  0  0  0  0  0  0  0  0  0  0  0
    7.7762   -1.2656   -0.0010 H   0  0  0  0  0  0  0  0  0  0  0  0
    6.6671   -0.3073    0.8425 H   0  0  0  0  0  0  0  0  0  0  0  0
    9.8002    0.1490    0.5043 H   0  0  0  0  0  0  0  0  0  0  0  0
    8.9818    1.3163    1.4430 H   0  0  0  0  0  0  0  0  0  0  0  0
    8.4506    4.3381   -1.0983 H   0  0  0  0  0  0  0  0  0  0  0  0
    9.8980    5.9076   -0.1457 H   0  0  0  0  0  0  0  0  0  0  0  0
   11.4403    7.0106    0.6343 H   0  0  0  0  0  0  0  0  0  0  0  0
   12.8342   10.6306    3.2006 H   0  0  0  0  0  0  0  0  0  0  0  0
   16.9826   10.2883    1.1699 H   0  0  0  0  0  0  0  0  0  0  0  0
   16.5691    8.9837    0.0395 H   0  0  0  0  0  0  0  0  0  0  0  0
   17.1480    8.5980    1.6823 H   0  0  0  0  0  0  0  0  0  0  0  0
   14.5212    7.2632    1.1677 H   0  0  0  0  0  0  0  0  0  0  0  0
    7.0829    3.2018    2.7906 H   0  0  0  0  0  0  0  0  0  0  0  0
    4.4168    1.0394   -0.9282 H   0  0  0  0  0  0  0  0  0  0  0  0
  1  2  1  0  0  0  0
  1 30  1  0  0  0  0
  1 31  1  0  0  0  0
  1 32  1  0  0  0  0
  2  3  1  0  0  0  0
  2 33  1  0  0  0  0
  3  4  1  0  0  0  0
  3 29  2  0  0  0  0
  4  5  2  0  0  0  0
  4 34  1  0  0  0  0
  5  6  1  0  0  0  0
  5 35  1  0  0  0  0
  6  7  2  0  0  0  0
  6 36  1  0  0  0  0
  7  8  1  0  0  0  0
  7 29  1  0  0  0  0
  8  9  1  0  0  0  0
  8 13  1  0  0  0  0
  9 10  1  0  0  0  0
  9 37  1  0  0  0  0
  9 38  1  0  0  0  0
 10 11  1  0  0  0  0
 10 12  1  0  0  0  0
 10 39  1  0  0  0  0
 11 12  1  0  0  0  0
 11 40  1  0  0  0  0
 11 41  1  0  0  0  0
 12 42  1  0  0  0  0
 12 43  1  0  0  0  0
 13 14  1  0  0  0  0
 13 28  2  0  0  0  0
 14 15  2  0  0  0  0
 14 44  1  0  0  0  0
 15 16  1  0  0  0  0
 15 45  1  0  0  0  0
 16 17  1  0  0  0  0
 16 27  2  0  0  0  0
 17 18  2  0  0  0  0
 18 19  1  0  0  0  0
 18 46  1  0  0  0  0
 19 20  1  0  0  0  0
 19 26  2  0  0  0  0
 20 21  1  0  0  0  0
 20 25  2  0  0  0  0
 21 22  2  0  0  0  0
 21 47  1  0  0  0  0
 22 23  1  0  0  0  0
 23 24  1  0  0  0  0
 23 25  1  0  0  0  0
 24 48  1  0  0  0  0
 24 49  1  0  0  0  0
 24 50  1  0  0  0  0
 25 51  1  0  0  0  0
 26 27  1  0  0  0  0
 27 28  1  0  0  0  0
 28 52  1  0  0  0  0
 29 53  1  0  0  0  0
M  END
$$$$
