CHEMBL1761931
 OpenBabel04072215363D

 47 49  0  0  0  0  0  0  0  0999 V2000
    1.9779   -0.7546   -2.1297 C   0  0  0  0  0  0  0  0  0  0  0  0
    2.3156    0.0356   -0.8761 C   0  0  0  0  0  0  0  0  0  0  0  0
    3.1098    1.1745   -1.2525 O   0  0  0  0  0  0  0  0  0  0  0  0
    4.4422    0.9061   -1.3270 C   0  0  0  0  0  0  0  0  0  0  0  0
    4.9386   -0.1311   -0.9047 O   0  0  0  0  0  0  0  0  0  0  0  0
    5.0852    1.9404   -1.9573 N   0  0  0  0  0  0  0  0  0  0  0  0
    6.4321    1.9378   -2.3656 C   0  0  0  0  0  0  0  0  0  0  0  0
    7.2185    0.7860   -2.3585 C   0  0  0  0  0  0  0  0  0  0  0  0
    8.5609    0.8248   -2.7385 C   0  0  0  0  0  0  0  0  0  0  0  0
    9.1769    2.0176   -3.1045 C   0  0  0  0  0  0  0  0  0  0  0  0
   10.5169    2.0994   -3.5440 N   0  0  0  0  0  0  0  0  0  0  0  0
   11.5754    1.1561   -3.4331 C   0  0  0  0  0  0  0  0  0  0  0  0
   11.4315    0.0775   -2.6412 N   0  0  0  0  0  0  0  0  0  0  0  0
   12.4377   -0.7947   -2.6011 C   0  0  0  0  0  0  0  0  0  0  0  0
   13.5797   -0.7084   -3.2872 N   0  0  0  0  0  0  0  0  0  0  0  0
   13.7261    0.3662   -4.0623 C   0  0  0  0  0  0  0  0  0  0  0  0
   14.9137    0.4923   -4.7662 C   0  0  0  0  0  0  0  0  0  0  0  0
   15.2095    1.6040   -5.5686 C   0  0  0  0  0  0  0  0  0  0  0  0
   16.4015    1.7385   -6.2291 O   0  0  0  0  0  0  0  0  0  0  0  0
   17.4164    0.7721   -5.9771 C   0  0  0  0  0  0  0  0  0  0  0  0
   14.2425    2.6088   -5.7025 C   0  0  0  0  0  0  0  0  0  0  0  0
   14.3068    3.7741   -6.4193 O   0  0  0  0  0  0  0  0  0  0  0  0
   15.5279    4.1200   -7.0567 C   0  0  0  0  0  0  0  0  0  0  0  0
   13.0197    2.4665   -5.0308 C   0  0  0  0  0  0  0  0  0  0  0  0
   12.7529    1.3612   -4.1858 C   0  0  0  0  0  0  0  0  0  0  0  0
    8.3623    3.1626   -3.1814 C   0  0  0  0  0  0  0  0  0  0  0  0
    7.0063    3.1264   -2.8180 C   0  0  0  0  0  0  0  0  0  0  0  0
    1.3958   -1.6474   -1.8909 H   0  0  0  0  0  0  0  0  0  0  0  0
    2.8883   -1.0607   -2.6585 H   0  0  0  0  0  0  0  0  0  0  0  0
    1.4076   -0.1306   -2.8248 H   0  0  0  0  0  0  0  0  0  0  0  0
    2.8241   -0.5970   -0.1375 H   0  0  0  0  0  0  0  0  0  0  0  0
    1.4017    0.4018   -0.3993 H   0  0  0  0  0  0  0  0  0  0  0  0
    4.5178    2.7571   -2.1328 H   0  0  0  0  0  0  0  0  0  0  0  0
    6.8167   -0.1835   -2.0834 H   0  0  0  0  0  0  0  0  0  0  0  0
    9.1049   -0.1153   -2.7285 H   0  0  0  0  0  0  0  0  0  0  0  0
   10.8812    3.0396   -3.4396 H   0  0  0  0  0  0  0  0  0  0  0  0
   12.3210   -1.6580   -1.9538 H   0  0  0  0  0  0  0  0  0  0  0  0
   15.6206   -0.3248   -4.6561 H   0  0  0  0  0  0  0  0  0  0  0  0
   18.3191    1.0856   -6.5090 H   0  0  0  0  0  0  0  0  0  0  0  0
   17.1238   -0.2085   -6.3662 H   0  0  0  0  0  0  0  0  0  0  0  0
   17.6626    0.7200   -4.9107 H   0  0  0  0  0  0  0  0  0  0  0  0
   15.3995    5.1115   -7.5025 H   0  0  0  0  0  0  0  0  0  0  0  0
   15.7556    3.4270   -7.8723 H   0  0  0  0  0  0  0  0  0  0  0  0
   16.3495    4.1961   -6.3370 H   0  0  0  0  0  0  0  0  0  0  0  0
   12.2690    3.2429   -5.1690 H   0  0  0  0  0  0  0  0  0  0  0  0
    8.7791    4.1031   -3.5343 H   0  0  0  0  0  0  0  0  0  0  0  0
    6.4201    4.0389   -2.8846 H   0  0  0  0  0  0  0  0  0  0  0  0
  1  2  1  0  0  0  0
  1 28  1  0  0  0  0
  1 29  1  0  0  0  0
  1 30  1  0  0  0  0
  2  3  1  0  0  0  0
  2 31  1  0  0  0  0
  2 32  1  0  0  0  0
  3  4  1  0  0  0  0
  4  5  2  0  0  0  0
  4  6  1  0  0  0  0
  6  7  1  0  0  0  0
  6 33  1  0  0  0  0
  7  8  1  0  0  0  0
  7 27  2  0  0  0  0
  8  9  2  0  0  0  0
  8 34  1  0  0  0  0
  9 10  1  0  0  0  0
  9 35  1  0  0  0  0
 10 11  1  0  0  0  0
 10 26  2  0  0  0  0
 11 12  1  0  0  0  0
 11 36  1  0  0  0  0
 12 13  1  0  0  0  0
 12 25  2  0  0  0  0
 13 14  2  0  0  0  0
 14 15  1  0  0  0  0
 14 37  1  0  0  0  0
 15 16  2  0  0  0  0
 16 17  1  0  0  0  0
 16 25  1  0  0  0  0
 17 18  2  0  0  0  0
 17 38  1  0  0  0  0
 18 19  1  0  0  0  0
 18 21  1  0  0  0  0
 19 20  1  0  0  0  0
 20 39  1  0  0  0  0
 20 40  1  0  0  0  0
 20 41  1  0  0  0  0
 21 22  1  0  0  0  0
 21 24  2  0  0  0  0
 22 23  1  0  0  0  0
 23 42  1  0  0  0  0
 23 43  1  0  0  0  0
 23 44  1  0  0  0  0
 24 25  1  0  0  0  0
 24 45  1  0  0  0  0
 26 27  1  0  0  0  0
 26 46  1  0  0  0  0
 27 47  1  0  0  0  0
M  END
$$$$
