CHEMBL3950262
 OpenBabel04072215373D

 53 56  0  0  0  0  0  0  0  0999 V2000
    3.2154   -2.5122   -1.2914 C   0  0  0  0  0  0  0  0  0  0  0  0
    2.7374   -1.8007   -0.2601 C   0  0  0  0  0  0  0  0  0  0  0  0
    3.5135   -0.8906    0.6606 C   0  0  0  0  0  0  0  0  0  0  0  0
    4.9987   -0.9974    0.4449 N   0  0  0  0  0  0  0  0  0  0  0  0
    5.4635    0.2338   -0.1492 C   0  0  0  0  0  0  0  0  0  0  0  0
    6.5697    0.9563    0.3194 C   0  0  0  0  0  0  0  0  0  0  0  0
    6.8740    2.2273   -0.2169 C   0  0  0  0  0  0  0  0  0  0  0  0
    7.8979    3.0527    0.1690 O   0  0  0  0  0  0  0  0  0  0  0  0
    8.7181    2.6160    1.2391 C   0  0  0  0  0  0  0  0  0  0  0  0
    6.0895    2.7839   -1.2354 C   0  0  0  0  0  0  0  0  0  0  0  0
    5.0053    2.0831   -1.7297 C   0  0  0  0  0  0  0  0  0  0  0  0
    4.1425    2.5432   -2.6859 O   0  0  0  0  0  0  0  0  0  0  0  0
    4.7726    3.2453   -3.7528 C   0  0  0  0  0  0  0  0  0  0  0  0
    4.7036    0.8361   -1.1882 C   0  0  0  0  0  0  0  0  0  0  0  0
    5.6941   -1.9911    1.2313 C   0  0  0  0  0  0  0  0  0  0  0  0
    5.0381   -2.5653    2.3170 C   0  0  0  0  0  0  0  0  0  0  0  0
    5.6837   -3.3613    3.2382 C   0  0  0  0  0  0  0  0  0  0  0  0
    6.9474   -3.8124    3.0352 C   0  0  0  0  0  0  0  0  0  0  0  0
    7.3881   -4.5452    4.0566 N   0  0  0  0  0  0  0  0  0  0  0  0
    8.4984   -5.2376    3.8395 C   0  0  0  0  0  0  0  0  0  0  0  0
    9.1382   -5.2485    2.6155 C   0  0  0  0  0  0  0  0  0  0  0  0
   10.0904   -6.3395    2.4471 C   0  0  0  0  0  0  0  0  0  0  0  0
    9.9228   -7.5885    1.7943 C   0  0  0  0  0  0  0  0  0  0  0  0
   10.8620   -8.4875    2.1256 N   0  0  0  0  0  0  0  0  0  0  0  0
   11.6254   -7.8302    3.0141 N   0  0  0  0  0  0  0  0  0  0  0  0
   12.8646   -8.3985    3.4927 C   0  0  0  0  0  0  0  0  0  0  0  0
   11.1235   -6.6004    3.3390 C   0  0  0  0  0  0  0  0  0  0  0  0
    8.7576   -4.3751    1.6080 N   0  0  0  0  0  0  0  0  0  0  0  0
    7.6271   -3.5733    1.8099 C   0  0  0  0  0  0  0  0  0  0  0  0
    6.9895   -2.5448    0.9719 C   0  0  0  0  0  0  0  0  0  0  0  0
    2.5551   -3.1014   -1.9186 H   0  0  0  0  0  0  0  0  0  0  0  0
    4.2698   -2.5002   -1.5507 H   0  0  0  0  0  0  0  0  0  0  0  0
    1.6671   -1.8348   -0.0679 H   0  0  0  0  0  0  0  0  0  0  0  0
    3.2004   -1.0594    1.6929 H   0  0  0  0  0  0  0  0  0  0  0  0
    3.1322    0.1328    0.5333 H   0  0  0  0  0  0  0  0  0  0  0  0
    7.1441    0.5530    1.1444 H   0  0  0  0  0  0  0  0  0  0  0  0
    9.5111    3.3591    1.3696 H   0  0  0  0  0  0  0  0  0  0  0  0
    9.1941    1.6587    1.0086 H   0  0  0  0  0  0  0  0  0  0  0  0
    8.1462    2.5673    2.1707 H   0  0  0  0  0  0  0  0  0  0  0  0
    6.3293    3.7758   -1.6078 H   0  0  0  0  0  0  0  0  0  0  0  0
    4.0985    3.2147   -4.6149 H   0  0  0  0  0  0  0  0  0  0  0  0
    5.7142    2.7718   -4.0514 H   0  0  0  0  0  0  0  0  0  0  0  0
    4.9301    4.2939   -3.4835 H   0  0  0  0  0  0  0  0  0  0  0  0
    3.8206    0.3428   -1.5887 H   0  0  0  0  0  0  0  0  0  0  0  0
    3.9963   -2.4268    2.5463 H   0  0  0  0  0  0  0  0  0  0  0  0
    5.1386   -3.6959    4.1158 H   0  0  0  0  0  0  0  0  0  0  0  0
    8.7889   -5.8939    4.6609 H   0  0  0  0  0  0  0  0  0  0  0  0
    9.1248   -7.9103    1.1345 H   0  0  0  0  0  0  0  0  0  0  0  0
   13.0417   -9.3664    3.0169 H   0  0  0  0  0  0  0  0  0  0  0  0
   12.8176   -8.5142    4.5788 H   0  0  0  0  0  0  0  0  0  0  0  0
   13.6651   -7.7046    3.2212 H   0  0  0  0  0  0  0  0  0  0  0  0
   11.5278   -6.0368    4.1678 H   0  0  0  0  0  0  0  0  0  0  0  0
    7.5158   -2.2565    0.0688 H   0  0  0  0  0  0  0  0  0  0  0  0
  1  2  2  0  0  0  0
  1 31  1  0  0  0  0
  1 32  1  0  0  0  0
  2  3  1  0  0  0  0
  2 33  1  0  0  0  0
  3  4  1  0  0  0  0
  3 34  1  0  0  0  0
  3 35  1  0  0  0  0
  4  5  1  0  0  0  0
  4 15  1  0  0  0  0
  5  6  1  0  0  0  0
  5 14  2  0  0  0  0
  6  7  2  0  0  0  0
  6 36  1  0  0  0  0
  7  8  1  0  0  0  0
  7 10  1  0  0  0  0
  8  9  1  0  0  0  0
  9 37  1  0  0  0  0
  9 38  1  0  0  0  0
  9 39  1  0  0  0  0
 10 11  2  0  0  0  0
 10 40  1  0  0  0  0
 11 12  1  0  0  0  0
 11 14  1  0  0  0  0
 12 13  1  0  0  0  0
 13 41  1  0  0  0  0
 13 42  1  0  0  0  0
 13 43  1  0  0  0  0
 14 44  1  0  0  0  0
 15 16  1  0  0  0  0
 15 30  2  0  0  0  0
 16 17  2  0  0  0  0
 16 45  1  0  0  0  0
 17 18  1  0  0  0  0
 17 46  1  0  0  0  0
 18 19  1  0  0  0  0
 18 29  2  0  0  0  0
 19 20  2  0  0  0  0
 20 21  1  0  0  0  0
 20 47  1  0  0  0  0
 21 22  1  0  0  0  0
 21 28  2  0  0  0  0
 22 23  1  0  0  0  0
 22 27  2  0  0  0  0
 23 24  2  0  0  0  0
 23 48  1  0  0  0  0
 24 25  1  0  0  0  0
 25 26  1  0  0  0  0
 25 27  1  0  0  0  0
 26 49  1  0  0  0  0
 26 50  1  0  0  0  0
 26 51  1  0  0  0  0
 27 52  1  0  0  0  0
 28 29  1  0  0  0  0
 29 30  1  0  0  0  0
 30 53  1  0  0  0  0
M  END
$$$$
