CHEMBL3959310
 OpenBabel04072215373D

 53 57  0  0  0  0  0  0  0  0999 V2000
    2.6751   -0.6992   -0.7035 O   0  0  0  0  0  0  0  0  0  0  0  0
    2.0494    0.0758    0.0211 C   0  0  0  0  0  0  0  0  0  0  0  0
    0.6347   -0.2478    0.3081 C   0  0  0  0  0  0  0  0  0  0  0  0
    0.3019   -1.6035    0.4123 C   0  0  0  0  0  0  0  0  0  0  0  0
   -0.9996   -1.9725    0.7198 C   0  0  0  0  0  0  0  0  0  0  0  0
   -1.9587   -0.9889    0.9564 C   0  0  0  0  0  0  0  0  0  0  0  0
   -1.6390    0.3701    0.8747 C   0  0  0  0  0  0  0  0  0  0  0  0
   -2.5530    1.3914    1.2106 N   0  0  0  0  0  0  0  0  0  0  0  0
   -3.7298    1.2138    1.9223 C   0  0  0  0  0  0  0  0  0  0  0  0
   -4.1731    0.1485    2.3455 O   0  0  0  0  0  0  0  0  0  0  0  0
   -4.4798    2.4699    2.2234 C   0  0  0  0  0  0  0  0  0  0  0  0
   -5.6535    2.3751    2.9757 C   0  0  0  0  0  0  0  0  0  0  0  0
   -6.3577    3.5424    3.2535 C   0  0  0  0  0  0  0  0  0  0  0  0
   -5.8607    4.7510    2.7914 C   0  0  0  0  0  0  0  0  0  0  0  0
   -4.6745    4.7497    2.0634 C   0  0  0  0  0  0  0  0  0  0  0  0
   -3.9634    3.6369    1.7661 N   0  0  0  0  0  0  0  0  0  0  0  0
   -0.3497    0.7370    0.4816 C   0  0  0  0  0  0  0  0  0  0  0  0
    2.7681    1.2383    0.6241 C   0  0  0  0  0  0  0  0  0  0  0  0
    2.2954    1.9622    1.7349 C   0  0  0  0  0  0  0  0  0  0  0  0
    3.0390    3.0258    2.2973 C   0  0  0  0  0  0  0  0  0  0  0  0
    4.3475    3.2428    1.8209 C   0  0  0  0  0  0  0  0  0  0  0  0
    5.5355    3.9598    2.2049 C   0  0  0  0  0  0  0  0  0  0  0  0
    6.1505    5.1066    1.5359 C   0  0  0  0  0  0  0  0  0  0  0  0
    5.8545    5.5111    0.2839 C   0  0  0  0  0  0  0  0  0  0  0  0
    6.9190    5.9044   -0.6714 C   0  0  0  0  0  0  0  0  0  0  0  0
    6.5927    6.2211   -1.9872 C   0  0  0  0  0  0  0  0  0  0  0  0
    7.6136    6.3282   -2.9346 C   0  0  0  0  0  0  0  0  0  0  0  0
    8.9306    6.1127   -2.5502 C   0  0  0  0  0  0  0  0  0  0  0  0
    9.1748    5.8166   -1.2221 C   0  0  0  0  0  0  0  0  0  0  0  0
    8.2052    5.7128   -0.2836 N   0  0  0  0  0  0  0  0  0  0  0  0
    6.4431    2.9707    2.3884 N   0  0  0  0  0  0  0  0  0  0  0  0
    6.1813    2.2079    1.2974 N   0  0  0  0  0  0  0  0  0  0  0  0
    4.8504    2.2780    0.9530 C   0  0  0  0  0  0  0  0  0  0  0  0
    4.0746    1.4432    0.1617 C   0  0  0  0  0  0  0  0  0  0  0  0
    1.0581   -2.3718    0.2636 H   0  0  0  0  0  0  0  0  0  0  0  0
   -1.2702   -3.0214    0.7967 H   0  0  0  0  0  0  0  0  0  0  0  0
   -2.9637   -1.3208    1.1964 H   0  0  0  0  0  0  0  0  0  0  0  0
   -2.2926    2.3629    1.0533 H   0  0  0  0  0  0  0  0  0  0  0  0
   -6.0176    1.4167    3.3278 H   0  0  0  0  0  0  0  0  0  0  0  0
   -7.2796    3.5045    3.8340 H   0  0  0  0  0  0  0  0  0  0  0  0
   -6.3863    5.6809    2.9866 H   0  0  0  0  0  0  0  0  0  0  0  0
   -4.2669    5.6806    1.6794 H   0  0  0  0  0  0  0  0  0  0  0  0
   -0.1033    1.7863    0.3592 H   0  0  0  0  0  0  0  0  0  0  0  0
    1.3792    1.6671    2.2419 H   0  0  0  0  0  0  0  0  0  0  0  0
    2.6718    3.5384    3.1831 H   0  0  0  0  0  0  0  0  0  0  0  0
    7.1505    5.3209    1.9182 H   0  0  0  0  0  0  0  0  0  0  0  0
    4.8977    5.2718   -0.1673 H   0  0  0  0  0  0  0  0  0  0  0  0
    5.5595    6.3366   -2.2954 H   0  0  0  0  0  0  0  0  0  0  0  0
    7.3781    6.5493   -3.9722 H   0  0  0  0  0  0  0  0  0  0  0  0
    9.7433    6.1637   -3.2670 H   0  0  0  0  0  0  0  0  0  0  0  0
   10.1854    5.6283   -0.8686 H   0  0  0  0  0  0  0  0  0  0  0  0
    6.8660    1.5275    0.9998 H   0  0  0  0  0  0  0  0  0  0  0  0
    4.5182    0.8067   -0.5973 H   0  0  0  0  0  0  0  0  0  0  0  0
  1  2  2  0  0  0  0
  2  3  1  0  0  0  0
  2 18  1  0  0  0  0
  3  4  1  0  0  0  0
  3 17  2  0  0  0  0
  4  5  2  0  0  0  0
  4 35  1  0  0  0  0
  5  6  1  0  0  0  0
  5 36  1  0  0  0  0
  6  7  2  0  0  0  0
  6 37  1  0  0  0  0
  7  8  1  0  0  0  0
  7 17  1  0  0  0  0
  8  9  1  0  0  0  0
  8 38  1  0  0  0  0
  9 10  2  0  0  0  0
  9 11  1  0  0  0  0
 11 12  1  0  0  0  0
 11 16  2  0  0  0  0
 12 13  2  0  0  0  0
 12 39  1  0  0  0  0
 13 14  1  0  0  0  0
 13 40  1  0  0  0  0
 14 15  2  0  0  0  0
 14 41  1  0  0  0  0
 15 16  1  0  0  0  0
 15 42  1  0  0  0  0
 17 43  1  0  0  0  0
 18 19  1  0  0  0  0
 18 34  2  0  0  0  0
 19 20  2  0  0  0  0
 19 44  1  0  0  0  0
 20 21  1  0  0  0  0
 20 45  1  0  0  0  0
 21 22  1  0  0  0  0
 21 33  2  0  0  0  0
 22 23  1  0  0  0  0
 22 31  2  0  0  0  0
 23 24  2  0  0  0  0
 23 46  1  0  0  0  0
 24 25  1  0  0  0  0
 24 47  1  0  0  0  0
 25 26  1  0  0  0  0
 25 30  2  0  0  0  0
 26 27  2  0  0  0  0
 26 48  1  0  0  0  0
 27 28  1  0  0  0  0
 27 49  1  0  0  0  0
 28 29  2  0  0  0  0
 28 50  1  0  0  0  0
 29 30  1  0  0  0  0
 29 51  1  0  0  0  0
 31 32  1  0  0  0  0
 32 33  1  0  0  0  0
 32 52  1  0  0  0  0
 33 34  1  0  0  0  0
 34 53  1  0  0  0  0
M  END
$$$$
