CHEMBL593293
 OpenBabel04072215383D

 49 53  0  0  0  0  0  0  0  0999 V2000
    5.0229    4.5705   -5.9933 C   0  0  0  0  0  0  0  0  0  0  0  0
    5.5970    5.6366   -5.2359 O   0  0  0  0  0  0  0  0  0  0  0  0
    5.5797    5.4785   -3.8740 C   0  0  0  0  0  0  0  0  0  0  0  0
    5.6752    4.2067   -3.2860 C   0  0  0  0  0  0  0  0  0  0  0  0
    5.5309    4.0059   -1.9170 C   0  0  0  0  0  0  0  0  0  0  0  0
    5.5264    2.7537   -1.4573 N   0  0  0  0  0  0  0  0  0  0  0  0
    5.2777    2.6020   -0.1523 C   0  0  0  0  0  0  0  0  0  0  0  0
    5.0337    3.5819    0.7169 N   0  0  0  0  0  0  0  0  0  0  0  0
    5.0637    4.8468    0.2463 C   0  0  0  0  0  0  0  0  0  0  0  0
    4.7099    5.9053    1.1181 N   0  0  0  0  0  0  0  0  0  0  0  0
    3.9484    5.7405    2.2938 C   0  0  0  0  0  0  0  0  0  0  0  0
    2.8192    4.9153    2.2928 C   0  0  0  0  0  0  0  0  0  0  0  0
    2.1327    4.6498    3.4737 C   0  0  0  0  0  0  0  0  0  0  0  0
    2.5539    5.2058    4.6909 C   0  0  0  0  0  0  0  0  0  0  0  0
    1.9312    4.7971    5.9607 C   0  0  0  0  0  0  0  0  0  0  0  0
    1.7824    5.5647    7.0219 N   0  0  0  0  0  0  0  0  0  0  0  0
    1.1754    4.8470    8.0458 C   0  0  0  0  0  0  0  0  0  0  0  0
    0.8227    5.3429    9.3175 C   0  0  0  0  0  0  0  0  0  0  0  0
    0.2177    4.4983   10.2536 C   0  0  0  0  0  0  0  0  0  0  0  0
   -0.0417    3.1643    9.9409 C   0  0  0  0  0  0  0  0  0  0  0  0
    0.2986    2.6468    8.6891 C   0  0  0  0  0  0  0  0  0  0  0  0
    0.9035    3.5089    7.7595 C   0  0  0  0  0  0  0  0  0  0  0  0
    1.4236    3.1615    6.1680 S   0  0  0  0  0  0  0  0  0  0  0  0
    3.6195    6.1224    4.6781 C   0  0  0  0  0  0  0  0  0  0  0  0
    4.3060    6.3779    3.4887 C   0  0  0  0  0  0  0  0  0  0  0  0
    5.3894    7.2187    3.4651 O   0  0  0  0  0  0  0  0  0  0  0  0
    5.3463    5.1219   -1.1003 C   0  0  0  0  0  0  0  0  0  0  0  0
    5.3760    6.4118   -1.6644 C   0  0  0  0  0  0  0  0  0  0  0  0
    5.4834    6.6016   -3.0473 C   0  0  0  0  0  0  0  0  0  0  0  0
    5.4470    7.9280   -3.3722 O   0  0  0  0  0  0  0  0  0  0  0  0
    5.2710    8.3112   -4.7259 C   0  0  0  0  0  0  0  0  0  0  0  0
    4.5053    5.0044   -6.8545 H   0  0  0  0  0  0  0  0  0  0  0  0
    4.2779    3.9845   -5.4398 H   0  0  0  0  0  0  0  0  0  0  0  0
    5.8189    3.9157   -6.3635 H   0  0  0  0  0  0  0  0  0  0  0  0
    5.8305    3.3281   -3.9003 H   0  0  0  0  0  0  0  0  0  0  0  0
    5.2559    1.5914    0.2323 H   0  0  0  0  0  0  0  0  0  0  0  0
    5.4831    6.5526    1.2672 H   0  0  0  0  0  0  0  0  0  0  0  0
    2.4928    4.4419    1.3717 H   0  0  0  0  0  0  0  0  0  0  0  0
    1.2820    3.9748    3.4237 H   0  0  0  0  0  0  0  0  0  0  0  0
    1.0232    6.3809    9.5606 H   0  0  0  0  0  0  0  0  0  0  0  0
   -0.0557    4.8831   11.2323 H   0  0  0  0  0  0  0  0  0  0  0  0
   -0.5126    2.5164   10.6766 H   0  0  0  0  0  0  0  0  0  0  0  0
    0.0993    1.6101    8.4412 H   0  0  0  0  0  0  0  0  0  0  0  0
    3.9242    6.5942    5.6083 H   0  0  0  0  0  0  0  0  0  0  0  0
    5.5778    7.4971    4.3774 H   0  0  0  0  0  0  0  0  0  0  0  0
    5.2639    7.2875   -1.0312 H   0  0  0  0  0  0  0  0  0  0  0  0
    5.0222    9.3770   -4.7264 H   0  0  0  0  0  0  0  0  0  0  0  0
    4.4318    7.7895   -5.1958 H   0  0  0  0  0  0  0  0  0  0  0  0
    6.2012    8.1865   -5.2872 H   0  0  0  0  0  0  0  0  0  0  0  0
  1  2  1  0  0  0  0
  1 32  1  0  0  0  0
  1 33  1  0  0  0  0
  1 34  1  0  0  0  0
  2  3  1  0  0  0  0
  3  4  1  0  0  0  0
  3 29  2  0  0  0  0
  4  5  2  0  0  0  0
  4 35  1  0  0  0  0
  5  6  1  0  0  0  0
  5 27  1  0  0  0  0
  6  7  2  0  0  0  0
  7  8  1  0  0  0  0
  7 36  1  0  0  0  0
  8  9  2  0  0  0  0
  9 10  1  0  0  0  0
  9 27  1  0  0  0  0
 10 11  1  0  0  0  0
 10 37  1  0  0  0  0
 11 12  1  0  0  0  0
 11 25  2  0  0  0  0
 12 13  2  0  0  0  0
 12 38  1  0  0  0  0
 13 14  1  0  0  0  0
 13 39  1  0  0  0  0
 14 15  1  0  0  0  0
 14 24  2  0  0  0  0
 15 16  2  0  0  0  0
 15 23  1  0  0  0  0
 16 17  1  0  0  0  0
 17 18  1  0  0  0  0
 17 22  2  0  0  0  0
 18 19  2  0  0  0  0
 18 40  1  0  0  0  0
 19 20  1  0  0  0  0
 19 41  1  0  0  0  0
 20 21  2  0  0  0  0
 20 42  1  0  0  0  0
 21 22  1  0  0  0  0
 21 43  1  0  0  0  0
 22 23  1  0  0  0  0
 24 25  1  0  0  0  0
 24 44  1  0  0  0  0
 25 26  1  0  0  0  0
 26 45  1  0  0  0  0
 27 28  2  0  0  0  0
 28 29  1  0  0  0  0
 28 46  1  0  0  0  0
 29 30  1  0  0  0  0
 30 31  1  0  0  0  0
 31 47  1  0  0  0  0
 31 48  1  0  0  0  0
 31 49  1  0  0  0  0
M  END
$$$$
