CHEMBL265284
 OpenBabel04072215363D

 65 71  0  0  0  0  0  0  0  0999 V2000
    3.7670   -0.1861   -3.2084 C   0  0  0  0  0  0  0  0  0  0  0  0
    3.1982    0.7238   -2.1311 C   0  0  0  0  0  0  0  0  0  0  0  0
    3.6488    0.3532   -0.7033 C   0  0  0  0  0  0  0  0  0  0  0  0
    5.0823    0.4856   -0.4567 N   0  0  0  0  0  0  0  0  0  0  0  0
    5.7676    1.7191   -0.5606 C   0  0  0  0  0  0  0  0  0  0  0  0
    5.3148    3.0465   -0.7433 C   0  0  0  0  0  0  0  0  0  0  0  0
    6.2630    4.0777   -0.9256 C   0  0  0  0  0  0  0  0  0  0  0  0
    7.6307    3.8237   -0.8909 C   0  0  0  0  0  0  0  0  0  0  0  0
    8.6398    4.7959   -1.0171 N   0  0  0  0  0  0  0  0  0  0  0  0
    8.5161    6.1408   -1.2778 C   0  0  0  0  0  0  0  0  0  0  0  0
    7.4952    6.7759   -1.4175 O   0  0  0  0  0  0  0  0  0  0  0  0
    9.8022    6.6682   -1.4311 O   0  0  0  0  0  0  0  0  0  0  0  0
    9.9498    7.5257   -2.5364 C   0  0  0  0  0  0  0  0  0  0  0  0
   10.7508    8.6641   -2.4091 C   0  0  0  0  0  0  0  0  0  0  0  0
   10.9750    9.4655   -3.5333 C   0  0  0  0  0  0  0  0  0  0  0  0
   10.4125    9.1161   -4.7550 C   0  0  0  0  0  0  0  0  0  0  0  0
   10.6335    9.8822   -5.8329 F   0  0  0  0  0  0  0  0  0  0  0  0
    9.6355    7.9709   -4.8850 C   0  0  0  0  0  0  0  0  0  0  0  0
    9.4120    7.1643   -3.7767 C   0  0  0  0  0  0  0  0  0  0  0  0
    8.0644    2.5017   -0.7375 C   0  0  0  0  0  0  0  0  0  0  0  0
    7.1378    1.4517   -0.5888 C   0  0  0  0  0  0  0  0  0  0  0  0
    7.1507    0.0635   -0.5629 C   0  0  0  0  0  0  0  0  0  0  0  0
    8.2506   -0.6584   -1.0657 C   0  0  0  0  0  0  0  0  0  0  0  0
    7.9671   -1.9670   -1.5000 C   0  0  0  0  0  0  0  0  0  0  0  0
    6.6992   -2.5755   -1.3770 C   0  0  0  0  0  0  0  0  0  0  0  0
    5.9251   -2.0085   -0.3145 C   0  0  0  0  0  0  0  0  0  0  0  0
    5.9884   -0.5788   -0.2900 C   0  0  0  0  0  0  0  0  0  0  0  0
    6.0466   -2.9351    1.0003 C   0  0  0  0  0  0  0  0  0  0  0  0
    7.1466   -4.0890    0.9052 C   0  0  0  0  0  0  0  0  0  0  0  0
    6.8743   -4.8055   -0.3719 C   0  0  0  0  0  0  0  0  0  0  0  0
    6.4886   -6.0714   -0.5327 N   0  0  0  0  0  0  0  0  0  0  0  0
    5.9098   -6.0462   -1.7606 N   0  0  0  0  0  0  0  0  0  0  0  0
    5.2222   -7.2141   -2.2565 C   0  0  0  0  0  0  0  0  0  0  0  0
    5.8439   -4.7877   -2.3098 C   0  0  0  0  0  0  0  0  0  0  0  0
    6.6324   -4.0100   -1.5038 C   0  0  0  0  0  0  0  0  0  0  0  0
    9.2192   -2.5705   -1.8871 C   0  0  0  0  0  0  0  0  0  0  0  0
    9.5452   -3.6994   -2.2165 O   0  0  0  0  0  0  0  0  0  0  0  0
   10.1548   -1.5556   -1.7252 N   0  0  0  0  0  0  0  0  0  0  0  0
    9.6466   -0.2864   -1.2642 C   0  0  0  0  0  0  0  0  0  0  0  0
    3.3795    0.1063   -4.1907 H   0  0  0  0  0  0  0  0  0  0  0  0
    3.4844   -1.2275   -3.0300 H   0  0  0  0  0  0  0  0  0  0  0  0
    4.8579   -0.1195   -3.2512 H   0  0  0  0  0  0  0  0  0  0  0  0
    2.1027    0.6795   -2.1795 H   0  0  0  0  0  0  0  0  0  0  0  0
    3.4664    1.7572   -2.3769 H   0  0  0  0  0  0  0  0  0  0  0  0
    3.3462   -0.6723   -0.4674 H   0  0  0  0  0  0  0  0  0  0  0  0
    3.1478    1.0159    0.0134 H   0  0  0  0  0  0  0  0  0  0  0  0
    4.2572    3.2844   -0.7910 H   0  0  0  0  0  0  0  0  0  0  0  0
    5.8879    5.0831   -1.1010 H   0  0  0  0  0  0  0  0  0  0  0  0
    9.6011    4.4812   -0.9941 H   0  0  0  0  0  0  0  0  0  0  0  0
   11.1994    8.9284   -1.4561 H   0  0  0  0  0  0  0  0  0  0  0  0
   11.5896   10.3618   -3.4684 H   0  0  0  0  0  0  0  0  0  0  0  0
    9.2142    7.7107   -5.8507 H   0  0  0  0  0  0  0  0  0  0  0  0
    8.8232    6.2600   -3.8863 H   0  0  0  0  0  0  0  0  0  0  0  0
    9.1245    2.2836   -0.7511 H   0  0  0  0  0  0  0  0  0  0  0  0
    5.0746   -3.4257    1.1371 H   0  0  0  0  0  0  0  0  0  0  0  0
    6.2591   -2.3207    1.8812 H   0  0  0  0  0  0  0  0  0  0  0  0
    7.1351   -4.7649    1.7646 H   0  0  0  0  0  0  0  0  0  0  0  0
    8.1531   -3.6439    0.8594 H   0  0  0  0  0  0  0  0  0  0  0  0
    5.4302   -8.0668   -1.6061 H   0  0  0  0  0  0  0  0  0  0  0  0
    5.5756   -7.4188   -3.2697 H   0  0  0  0  0  0  0  0  0  0  0  0
    4.1499   -7.0003   -2.2616 H   0  0  0  0  0  0  0  0  0  0  0  0
    5.2123   -4.5664   -3.1585 H   0  0  0  0  0  0  0  0  0  0  0  0
   11.1326   -1.7804   -1.8070 H   0  0  0  0  0  0  0  0  0  0  0  0
    9.7746    0.4526   -2.0566 H   0  0  0  0  0  0  0  0  0  0  0  0
   10.1382    0.0017   -0.3329 H   0  0  0  0  0  0  0  0  0  0  0  0
  1  2  1  0  0  0  0
  1 40  1  0  0  0  0
  1 41  1  0  0  0  0
  1 42  1  0  0  0  0
  2  3  1  0  0  0  0
  2 43  1  0  0  0  0
  2 44  1  0  0  0  0
  3  4  1  0  0  0  0
  3 45  1  0  0  0  0
  3 46  1  0  0  0  0
  4  5  1  0  0  0  0
  4 27  1  0  0  0  0
  5  6  1  0  0  0  0
  5 21  2  0  0  0  0
  6  7  2  0  0  0  0
  6 47  1  0  0  0  0
  7  8  1  0  0  0  0
  7 48  1  0  0  0  0
  8  9  1  0  0  0  0
  8 20  2  0  0  0  0
  9 10  1  0  0  0  0
  9 49  1  0  0  0  0
 10 11  2  0  0  0  0
 10 12  1  0  0  0  0
 12 13  1  0  0  0  0
 13 14  1  0  0  0  0
 13 19  2  0  0  0  0
 14 15  2  0  0  0  0
 14 50  1  0  0  0  0
 15 16  1  0  0  0  0
 15 51  1  0  0  0  0
 16 17  1  0  0  0  0
 16 18  2  0  0  0  0
 18 19  1  0  0  0  0
 18 52  1  0  0  0  0
 19 53  1  0  0  0  0
 20 21  1  0  0  0  0
 20 54  1  0  0  0  0
 21 22  1  0  0  0  0
 22 23  1  0  0  0  0
 22 27  2  0  0  0  0
 23 24  2  0  0  0  0
 23 39  1  0  0  0  0
 24 25  1  0  0  0  0
 24 36  1  0  0  0  0
 25 26  2  0  0  0  0
 25 35  1  0  0  0  0
 26 27  1  0  0  0  0
 26 28  1  0  0  0  0
 28 29  1  0  0  0  0
 28 55  1  0  0  0  0
 28 56  1  0  0  0  0
 29 30  1  0  0  0  0
 29 57  1  0  0  0  0
 29 58  1  0  0  0  0
 30 31  2  0  0  0  0
 30 35  1  0  0  0  0
 31 32  1  0  0  0  0
 32 33  1  0  0  0  0
 32 34  1  0  0  0  0
 33 59  1  0  0  0  0
 33 60  1  0  0  0  0
 33 61  1  0  0  0  0
 34 35  2  0  0  0  0
 34 62  1  0  0  0  0
 36 37  2  0  0  0  0
 36 38  1  0  0  0  0
 38 39  1  0  0  0  0
 38 63  1  0  0  0  0
 39 64  1  0  0  0  0
 39 65  1  0  0  0  0
M  END
$$$$
