CHEMBL206279
 OpenBabel04072215363D

 54 58  0  0  0  0  0  0  0  0999 V2000
    0.8168    0.1701   -0.1775 O   0  0  0  0  0  0  0  0  0  0  0  0
    2.0132    0.1529    0.0837 C   0  0  0  0  0  0  0  0  0  0  0  0
    2.5727   -0.4891    1.1877 N   0  0  0  0  0  0  0  0  0  0  0  0
    1.8753   -1.1457    2.2332 C   0  0  0  0  0  0  0  0  0  0  0  0
    0.4896   -1.2729    2.2871 C   0  0  0  0  0  0  0  0  0  0  0  0
   -0.1308   -2.0004    3.3153 C   0  0  0  0  0  0  0  0  0  0  0  0
    0.6039   -2.5974    4.3411 C   0  0  0  0  0  0  0  0  0  0  0  0
    0.0202   -3.3747    5.3215 N   0  0  0  0  0  0  0  0  0  0  0  0
   -1.1646   -4.2103    5.0642 C   0  0  0  0  0  0  0  0  0  0  0  0
   -2.3945   -3.7080    5.8363 C   0  0  0  0  0  0  0  0  0  0  0  0
   -2.1121   -3.5024    7.2303 O   0  0  0  0  0  0  0  0  0  0  0  0
   -1.0484   -2.5475    7.3806 C   0  0  0  0  0  0  0  0  0  0  0  0
    0.2525   -3.0572    6.7388 C   0  0  0  0  0  0  0  0  0  0  0  0
    1.9922   -2.4048    4.3147 C   0  0  0  0  0  0  0  0  0  0  0  0
    2.6236   -1.7021    3.2742 C   0  0  0  0  0  0  0  0  0  0  0  0
    2.9639    0.8923   -0.8263 C   0  0  0  0  0  0  0  0  0  0  0  0
    4.1772    1.3679   -0.2779 C   0  0  0  0  0  0  0  0  0  0  0  0
    5.0902    2.0967   -1.0427 C   0  0  0  0  0  0  0  0  0  0  0  0
    4.8145    2.3652   -2.3735 C   0  0  0  0  0  0  0  0  0  0  0  0
    3.6133    1.9301   -2.9297 C   0  0  0  0  0  0  0  0  0  0  0  0
    2.6522    1.2160   -2.1733 C   0  0  0  0  0  0  0  0  0  0  0  0
    1.3265    0.9293   -2.8717 C   0  0  0  0  0  0  0  0  0  0  0  0
    1.3639   -0.2687   -3.7348 N   0  0  0  0  0  0  0  0  0  0  0  0
    0.8869   -1.4994   -3.2663 C   0  0  0  0  0  0  0  0  0  0  0  0
    0.7704   -2.6168   -4.0028 C   0  0  0  0  0  0  0  0  0  0  0  0
    1.1801   -2.5045   -5.4085 C   0  0  0  0  0  0  0  0  0  0  0  0
    1.1997   -3.3744   -6.3677 N   0  0  0  0  0  0  0  0  0  0  0  0
    1.6744   -2.6367   -7.4478 C   0  0  0  0  0  0  0  0  0  0  0  0
    1.9470   -1.3769   -7.2434 N   0  0  0  0  0  0  0  0  0  0  0  0
    1.6539   -1.2183   -5.9212 C   0  0  0  0  0  0  0  0  0  0  0  0
    1.7145   -0.1791   -5.0890 C   0  0  0  0  0  0  0  0  0  0  0  0
    3.5799   -0.5432    1.2452 H   0  0  0  0  0  0  0  0  0  0  0  0
   -0.1558   -0.8331    1.5355 H   0  0  0  0  0  0  0  0  0  0  0  0
   -1.2142   -2.0743    3.2983 H   0  0  0  0  0  0  0  0  0  0  0  0
   -0.9252   -5.2229    5.4112 H   0  0  0  0  0  0  0  0  0  0  0  0
   -1.3977   -4.2971    3.9969 H   0  0  0  0  0  0  0  0  0  0  0  0
   -3.1957   -4.4520    5.7717 H   0  0  0  0  0  0  0  0  0  0  0  0
   -2.7766   -2.7730    5.4117 H   0  0  0  0  0  0  0  0  0  0  0  0
   -0.8976   -2.3862    8.4524 H   0  0  0  0  0  0  0  0  0  0  0  0
   -1.3621   -1.5939    6.9388 H   0  0  0  0  0  0  0  0  0  0  0  0
    0.5675   -3.9780    7.2435 H   0  0  0  0  0  0  0  0  0  0  0  0
    1.0419   -2.3112    6.8820 H   0  0  0  0  0  0  0  0  0  0  0  0
    2.6103   -2.8560    5.0886 H   0  0  0  0  0  0  0  0  0  0  0  0
    3.7065   -1.6148    3.2978 H   0  0  0  0  0  0  0  0  0  0  0  0
    4.4199    1.2316    0.7725 H   0  0  0  0  0  0  0  0  0  0  0  0
    6.0068    2.4697   -0.5916 H   0  0  0  0  0  0  0  0  0  0  0  0
    5.5167    2.9380   -2.9745 H   0  0  0  0  0  0  0  0  0  0  0  0
    3.4098    2.1829   -3.9692 H   0  0  0  0  0  0  0  0  0  0  0  0
    1.0888    1.8073   -3.4933 H   0  0  0  0  0  0  0  0  0  0  0  0
    0.4786    0.8965   -2.1915 H   0  0  0  0  0  0  0  0  0  0  0  0
    0.5822   -1.4927   -2.2222 H   0  0  0  0  0  0  0  0  0  0  0  0
    0.3877   -3.5551   -3.6317 H   0  0  0  0  0  0  0  0  0  0  0  0
    1.8063   -3.1165   -8.4308 H   0  0  0  0  0  0  0  0  0  0  0  0
    2.0375    0.7948   -5.4365 H   0  0  0  0  0  0  0  0  0  0  0  0
  1  2  2  0  0  0  0
  2  3  1  0  0  0  0
  2 16  1  0  0  0  0
  3  4  1  0  0  0  0
  3 32  1  0  0  0  0
  4  5  1  0  0  0  0
  4 15  2  0  0  0  0
  5  6  2  0  0  0  0
  5 33  1  0  0  0  0
  6  7  1  0  0  0  0
  6 34  1  0  0  0  0
  7  8  1  0  0  0  0
  7 14  2  0  0  0  0
  8  9  1  0  0  0  0
  8 13  1  0  0  0  0
  9 10  1  0  0  0  0
  9 35  1  0  0  0  0
  9 36  1  0  0  0  0
 10 11  1  0  0  0  0
 10 37  1  0  0  0  0
 10 38  1  0  0  0  0
 11 12  1  0  0  0  0
 12 13  1  0  0  0  0
 12 39  1  0  0  0  0
 12 40  1  0  0  0  0
 13 41  1  0  0  0  0
 13 42  1  0  0  0  0
 14 15  1  0  0  0  0
 14 43  1  0  0  0  0
 15 44  1  0  0  0  0
 16 17  1  0  0  0  0
 16 21  2  0  0  0  0
 17 18  2  0  0  0  0
 17 45  1  0  0  0  0
 18 19  1  0  0  0  0
 18 46  1  0  0  0  0
 19 20  2  0  0  0  0
 19 47  1  0  0  0  0
 20 21  1  0  0  0  0
 20 48  1  0  0  0  0
 21 22  1  0  0  0  0
 22 23  1  0  0  0  0
 22 49  1  0  0  0  0
 22 50  1  0  0  0  0
 23 24  1  0  0  0  0
 23 31  1  0  0  0  0
 24 25  2  0  0  0  0
 24 51  1  0  0  0  0
 25 26  1  0  0  0  0
 25 52  1  0  0  0  0
 26 27  2  0  0  0  0
 26 30  1  0  0  0  0
 27 28  1  0  0  0  0
 28 29  2  0  0  0  0
 28 53  1  0  0  0  0
 29 30  1  0  0  0  0
 30 31  2  0  0  0  0
 31 54  1  0  0  0  0
M  END
$$$$
