CHEMBL2031911
 OpenBabel04072215363D

 68 73  0  0  1  0  0  0  0  0999 V2000
    5.7265   -0.9059    1.7609 C   0  0  0  0  0  0  0  0  0  0  0  0
    6.7321   -0.1067    2.3795 O   0  0  0  0  0  0  0  0  0  0  0  0
    6.5439    1.2449    2.2663 C   0  0  0  0  0  0  0  0  0  0  0  0
    5.3127    1.8518    2.0714 C   0  0  0  0  0  0  0  0  0  0  0  0
    5.2382    3.2345    1.9706 C   0  0  0  0  0  0  0  0  0  0  0  0
    6.3745    4.0522    2.1669 C   0  0  0  0  0  0  0  0  0  0  0  0
    6.3396    5.4633    2.2402 C   0  0  0  0  0  0  0  0  0  0  0  0
    5.1943    6.2367    2.1746 O   0  0  0  0  0  0  0  0  0  0  0  0
    4.1061    5.9670    2.9848 C   0  0  0  0  0  0  0  0  0  0  0  0
    4.1360    5.1771    4.1334 C   0  0  0  0  0  0  0  0  0  0  0  0
    2.9418    4.8396    4.7900 C   0  0  0  0  0  0  0  0  0  0  0  0
    1.7081    5.3584    4.3770 C   0  0  0  0  0  0  0  0  0  0  0  0
    0.5003    5.0605    5.0624 N   0  0  0  0  0  0  0  0  0  0  0  0
    0.2820    3.9120    5.8175 C   0  0  0  0  0  0  0  0  0  0  0  0
    0.9646    2.9011    5.6895 O   0  0  0  0  0  0  0  0  0  0  0  0
   -0.8989    3.9591    6.7375 C   0  0  0  0  0  0  0  0  0  0  0  0
   -1.2130    3.2444    7.8546 C   0  0  0  0  0  0  0  0  0  0  0  0
   -0.4303    2.0960    8.4799 C   0  0  3  0  0  0  0  0  0  0  0  0
   -0.3631    2.0440   10.0063 C   0  0  0  0  0  0  0  0  0  0  0  0
    0.8704    1.2105   10.2576 C   0  0  0  0  0  0  0  0  0  0  0  0
    1.7771    1.6134    9.1238 C   0  0  0  0  0  0  0  0  0  0  0  0
    0.9418    2.1060    8.0795 O   0  0  0  0  0  0  0  0  0  0  0  0
   -2.4280    3.6903    8.4337 N   0  0  0  0  0  0  0  0  0  0  0  0
   -3.3889    2.8481    9.1509 C   0  0  0  0  0  0  0  0  0  0  0  0
   -2.9879    4.6000    7.5217 N   0  0  0  0  0  0  0  0  0  0  0  0
   -4.1429    5.3551    7.7944 C   0  0  0  0  0  0  0  0  0  0  0  0
   -5.1553    5.4274    6.8303 C   0  0  0  0  0  0  0  0  0  0  0  0
   -6.3442    6.1083    7.1063 C   0  0  0  0  0  0  0  0  0  0  0  0
   -6.5072    6.7602    8.3275 C   0  0  0  0  0  0  0  0  0  0  0  0
   -5.4921    6.7128    9.2830 C   0  0  0  0  0  0  0  0  0  0  0  0
   -4.3227    5.9906    9.0273 C   0  0  0  0  0  0  0  0  0  0  0  0
   -2.0711    4.8543    6.5094 C   0  0  0  0  0  0  0  0  0  0  0  0
   -2.1382    5.6578    5.5911 O   0  0  0  0  0  0  0  0  0  0  0  0
    1.6923    6.2405    3.2938 C   0  0  0  0  0  0  0  0  0  0  0  0
    2.8781    6.5150    2.5953 C   0  0  0  0  0  0  0  0  0  0  0  0
    2.8150    7.3031    1.5104 F   0  0  0  0  0  0  0  0  0  0  0  0
    7.5311    6.1815    2.3259 C   0  0  0  0  0  0  0  0  0  0  0  0
    8.7118    5.4728    2.4087 C   0  0  0  0  0  0  0  0  0  0  0  0
    8.7762    4.1253    2.4363 N   0  0  0  0  0  0  0  0  0  0  0  0
    7.6269    3.4232    2.3255 C   0  0  0  0  0  0  0  0  0  0  0  0
    7.6875    2.0378    2.3799 C   0  0  0  0  0  0  0  0  0  0  0  0
    6.0455   -1.9504    1.8096 H   0  0  0  0  0  0  0  0  0  0  0  0
    5.6121   -0.6355    0.7050 H   0  0  0  0  0  0  0  0  0  0  0  0
    4.7709   -0.8306    2.2904 H   0  0  0  0  0  0  0  0  0  0  0  0
    4.3876    1.2903    2.0200 H   0  0  0  0  0  0  0  0  0  0  0  0
    4.2631    3.6735    1.7828 H   0  0  0  0  0  0  0  0  0  0  0  0
    5.0647    4.7610    4.5129 H   0  0  0  0  0  0  0  0  0  0  0  0
    3.0064    4.1713    5.6457 H   0  0  0  0  0  0  0  0  0  0  0  0
   -0.2990    5.6749    4.9081 H   0  0  0  0  0  0  0  0  0  0  0  0
   -0.8659    1.1573    8.1092 H   0  0  0  0  0  0  0  0  0  0  0  0
   -1.2346    1.5811   10.4742 H   0  0  0  0  0  0  0  0  0  0  0  0
   -0.2365    3.0466   10.4285 H   0  0  0  0  0  0  0  0  0  0  0  0
    0.6262    0.1440   10.1790 H   0  0  0  0  0  0  0  0  0  0  0  0
    1.3186    1.3801   11.2397 H   0  0  0  0  0  0  0  0  0  0  0  0
    2.3727    0.7743    8.7513 H   0  0  0  0  0  0  0  0  0  0  0  0
    2.4569    2.4191    9.4153 H   0  0  0  0  0  0  0  0  0  0  0  0
   -2.9835    1.8753    9.4288 H   0  0  0  0  0  0  0  0  0  0  0  0
   -4.2837    2.6467    8.5517 H   0  0  0  0  0  0  0  0  0  0  0  0
   -3.6947    3.3527   10.0745 H   0  0  0  0  0  0  0  0  0  0  0  0
   -5.0489    4.9089    5.8804 H   0  0  0  0  0  0  0  0  0  0  0  0
   -7.1445    6.1257    6.3700 H   0  0  0  0  0  0  0  0  0  0  0  0
   -7.4243    7.3076    8.5341 H   0  0  0  0  0  0  0  0  0  0  0  0
   -5.6124    7.2390   10.2265 H   0  0  0  0  0  0  0  0  0  0  0  0
   -3.5358    5.9646    9.7766 H   0  0  0  0  0  0  0  0  0  0  0  0
    0.7692    6.6823    2.9357 H   0  0  0  0  0  0  0  0  0  0  0  0
    7.5385    7.2653    2.3259 H   0  0  0  0  0  0  0  0  0  0  0  0
    9.6711    5.9798    2.4671 H   0  0  0  0  0  0  0  0  0  0  0  0
    8.6542    1.5587    2.5207 H   0  0  0  0  0  0  0  0  0  0  0  0
  1  2  1  0  0  0  0
  1 42  1  0  0  0  0
  1 43  1  0  0  0  0
  1 44  1  0  0  0  0
  2  3  1  0  0  0  0
  3  4  1  0  0  0  0
  3 41  2  0  0  0  0
  4  5  2  0  0  0  0
  4 45  1  0  0  0  0
  5  6  1  0  0  0  0
  5 46  1  0  0  0  0
  6  7  1  0  0  0  0
  6 40  2  0  0  0  0
  7  8  1  0  0  0  0
  7 37  2  0  0  0  0
  8  9  1  0  0  0  0
  9 10  1  0  0  0  0
  9 35  2  0  0  0  0
 10 11  2  0  0  0  0
 10 47  1  0  0  0  0
 11 12  1  0  0  0  0
 11 48  1  0  0  0  0
 12 13  1  0  0  0  0
 12 34  2  0  0  0  0
 13 14  1  0  0  0  0
 13 49  1  0  0  0  0
 14 15  2  0  0  0  0
 14 16  1  0  0  0  0
 16 17  2  0  0  0  0
 16 32  1  0  0  0  0
 17 18  1  0  0  0  0
 17 23  1  0  0  0  0
 18 19  1  0  0  0  0
 18 22  1  0  0  0  0
 18 50  1  0  0  0  0
 19 20  1  0  0  0  0
 19 51  1  0  0  0  0
 19 52  1  0  0  0  0
 20 21  1  0  0  0  0
 20 53  1  0  0  0  0
 20 54  1  0  0  0  0
 21 22  1  0  0  0  0
 21 55  1  0  0  0  0
 21 56  1  0  0  0  0
 23 24  1  0  0  0  0
 23 25  1  0  0  0  0
 24 57  1  0  0  0  0
 24 58  1  0  0  0  0
 24 59  1  0  0  0  0
 25 26  1  0  0  0  0
 25 32  1  0  0  0  0
 26 27  1  0  0  0  0
 26 31  2  0  0  0  0
 27 28  2  0  0  0  0
 27 60  1  0  0  0  0
 28 29  1  0  0  0  0
 28 61  1  0  0  0  0
 29 30  2  0  0  0  0
 29 62  1  0  0  0  0
 30 31  1  0  0  0  0
 30 63  1  0  0  0  0
 31 64  1  0  0  0  0
 32 33  2  0  0  0  0
 34 35  1  0  0  0  0
 34 65  1  0  0  0  0
 35 36  1  0  0  0  0
 37 38  1  0  0  0  0
 37 66  1  0  0  0  0
 38 39  2  0  0  0  0
 38 67  1  0  0  0  0
 39 40  1  0  0  0  0
 40 41  1  0  0  0  0
 41 68  1  0  0  0  0
M  END
$$$$
