CHEMBL2113166
 OpenBabel04072215363D

 43 45  0  0  0  0  0  0  0  0999 V2000
    1.0541   -0.5390    0.9023 C   0  0  0  0  0  0  0  0  0  0  0  0
    2.3002   -0.0627    0.4313 O   0  0  0  0  0  0  0  0  0  0  0  0
    2.7809    1.0759    1.1526 C   0  0  0  0  0  0  0  0  0  0  0  0
    4.0901    1.4525    0.4761 C   0  0  0  0  0  0  0  0  0  0  0  0
    4.7466    2.5515    1.0746 O   0  0  0  0  0  0  0  0  0  0  0  0
    6.1031    2.6582    0.8878 C   0  0  0  0  0  0  0  0  0  0  0  0
    6.6889    3.4223    1.9264 C   0  0  0  0  0  0  0  0  0  0  0  0
    8.0584    3.6341    2.0512 C   0  0  0  0  0  0  0  0  0  0  0  0
    8.5403    4.3145    3.1006 N   0  0  0  0  0  0  0  0  0  0  0  0
    9.8715    4.4510    3.1791 C   0  0  0  0  0  0  0  0  0  0  0  0
   10.7617    3.9983    2.2917 N   0  0  0  0  0  0  0  0  0  0  0  0
   10.2655    3.3350    1.2279 C   0  0  0  0  0  0  0  0  0  0  0  0
   11.1700    2.8556    0.2375 N   0  0  0  0  0  0  0  0  0  0  0  0
   12.5425    2.8788    0.4300 C   0  0  0  0  0  0  0  0  0  0  0  0
   13.1819    2.3602    1.4927 C   0  0  0  0  0  0  0  0  0  0  0  0
   14.6288    2.4922    1.6893 C   0  0  0  0  0  0  0  0  0  0  0  0
   15.1814    1.9072    2.6139 O   0  0  0  0  0  0  0  0  0  0  0  0
   15.3511    3.3687    0.7312 C   0  0  0  0  0  0  0  0  0  0  0  0
   16.9779    3.7967    1.1078 Cl  0  0  0  0  0  0  0  0  0  0  0  0
   14.7640    3.8295   -0.3714 C   0  0  0  0  0  0  0  0  0  0  0  0
   13.3512    3.5179   -0.6550 C   0  0  0  0  0  0  0  0  0  0  0  0
   12.8435    3.8111   -1.7325 O   0  0  0  0  0  0  0  0  0  0  0  0
    8.8905    3.0961    1.0731 C   0  0  0  0  0  0  0  0  0  0  0  0
    8.3234    2.3385    0.0230 C   0  0  0  0  0  0  0  0  0  0  0  0
    6.9440    2.1109   -0.0880 C   0  0  0  0  0  0  0  0  0  0  0  0
    6.7006    1.2289   -1.0997 O   0  0  0  0  0  0  0  0  0  0  0  0
    5.6463    1.4334   -2.0231 C   0  0  0  0  0  0  0  0  0  0  0  0
    0.7805   -1.4074    0.2959 H   0  0  0  0  0  0  0  0  0  0  0  0
    0.2834    0.2265    0.7830 H   0  0  0  0  0  0  0  0  0  0  0  0
    1.1344   -0.8515    1.9459 H   0  0  0  0  0  0  0  0  0  0  0  0
    2.9341    0.8352    2.2093 H   0  0  0  0  0  0  0  0  0  0  0  0
    2.0629    1.9023    1.0813 H   0  0  0  0  0  0  0  0  0  0  0  0
    3.7951    1.7473   -0.5306 H   0  0  0  0  0  0  0  0  0  0  0  0
    4.7307    0.5647    0.4525 H   0  0  0  0  0  0  0  0  0  0  0  0
    6.0423    3.8289    2.7043 H   0  0  0  0  0  0  0  0  0  0  0  0
   10.2660    4.9814    4.0393 H   0  0  0  0  0  0  0  0  0  0  0  0
   10.9239    3.2653   -0.6690 H   0  0  0  0  0  0  0  0  0  0  0  0
   12.6421    1.8465    2.2765 H   0  0  0  0  0  0  0  0  0  0  0  0
   15.2685    4.4642   -1.0855 H   0  0  0  0  0  0  0  0  0  0  0  0
    8.9810    1.8679   -0.7045 H   0  0  0  0  0  0  0  0  0  0  0  0
    6.0329    1.3263   -3.0408 H   0  0  0  0  0  0  0  0  0  0  0  0
    5.1636    2.4109   -1.9439 H   0  0  0  0  0  0  0  0  0  0  0  0
    4.9324    0.6129   -1.8914 H   0  0  0  0  0  0  0  0  0  0  0  0
  1  2  1  0  0  0  0
  1 28  1  0  0  0  0
  1 29  1  0  0  0  0
  1 30  1  0  0  0  0
  2  3  1  0  0  0  0
  3  4  1  0  0  0  0
  3 31  1  0  0  0  0
  3 32  1  0  0  0  0
  4  5  1  0  0  0  0
  4 33  1  0  0  0  0
  4 34  1  0  0  0  0
  5  6  1  0  0  0  0
  6  7  1  0  0  0  0
  6 25  2  0  0  0  0
  7  8  2  0  0  0  0
  7 35  1  0  0  0  0
  8  9  1  0  0  0  0
  8 23  1  0  0  0  0
  9 10  2  0  0  0  0
 10 11  1  0  0  0  0
 10 36  1  0  0  0  0
 11 12  2  0  0  0  0
 12 13  1  0  0  0  0
 12 23  1  0  0  0  0
 13 14  1  0  0  0  0
 13 37  1  0  0  0  0
 14 15  2  0  0  0  0
 14 21  1  0  0  0  0
 15 16  1  0  0  0  0
 15 38  1  0  0  0  0
 16 17  2  0  0  0  0
 16 18  1  0  0  0  0
 18 19  1  0  0  0  0
 18 20  2  0  0  0  0
 20 21  1  0  0  0  0
 20 39  1  0  0  0  0
 21 22  2  0  0  0  0
 23 24  2  0  0  0  0
 24 25  1  0  0  0  0
 24 40  1  0  0  0  0
 25 26  1  0  0  0  0
 26 27  1  0  0  0  0
 27 41  1  0  0  0  0
 27 42  1  0  0  0  0
 27 43  1  0  0  0  0
M  END
$$$$
