CHEMBL1254670
 OpenBabel04072215363D

 44 47  0  0  0  0  0  0  0  0999 V2000
    0.5130   -0.2074    0.4525 C   0  0  0  0  0  0  0  0  0  0  0  0
    1.8825   -0.0856    0.9013 N   0  0  0  0  0  0  0  0  0  0  0  0
    2.4245    1.0542    1.4438 C   0  0  0  0  0  0  0  0  0  0  0  0
    3.7305    0.7791    1.7893 C   0  0  0  0  0  0  0  0  0  0  0  0
    3.9860   -0.5633    1.4314 C   0  0  0  0  0  0  0  0  0  0  0  0
    5.1198   -1.2773    1.5852 N   0  0  0  0  0  0  0  0  0  0  0  0
    5.0316   -2.5237    1.1067 C   0  0  0  0  0  0  0  0  0  0  0  0
    3.9759   -3.1056    0.5144 N   0  0  0  0  0  0  0  0  0  0  0  0
    2.8280   -2.3971    0.4158 C   0  0  0  0  0  0  0  0  0  0  0  0
    1.6994   -2.9671   -0.1674 O   0  0  0  0  0  0  0  0  0  0  0  0
    1.5084   -4.3221   -0.0190 C   0  0  0  0  0  0  0  0  0  0  0  0
    1.9088   -5.0375    1.1061 C   0  0  0  0  0  0  0  0  0  0  0  0
    1.6974   -6.4139    1.1807 C   0  0  0  0  0  0  0  0  0  0  0  0
    1.0289   -7.1044    0.1707 C   0  0  0  0  0  0  0  0  0  0  0  0
    0.8172   -8.5044    0.2092 N   0  0  0  0  0  0  0  0  0  0  0  0
    1.1187   -9.3362    1.2741 C   0  0  0  0  0  0  0  0  0  0  0  0
    1.4989   -8.9655    2.3801 O   0  0  0  0  0  0  0  0  0  0  0  0
    0.9870  -10.6773    0.9407 N   0  0  0  0  0  0  0  0  0  0  0  0
    1.2341  -11.6821    1.9095 C   0  0  0  0  0  0  0  0  0  0  0  0
    2.0261  -12.7771    1.5553 C   0  0  0  0  0  0  0  0  0  0  0  0
    2.3491  -13.7467    2.5109 C   0  0  0  0  0  0  0  0  0  0  0  0
    1.8407  -13.6509    3.8067 C   0  0  0  0  0  0  0  0  0  0  0  0
    1.0201  -12.5768    4.1471 C   0  0  0  0  0  0  0  0  0  0  0  0
    0.3746  -12.4693    5.7387 Cl  0  0  0  0  0  0  0  0  0  0  0  0
    0.7260  -11.5891    3.2074 C   0  0  0  0  0  0  0  0  0  0  0  0
    0.5723   -6.3772   -0.9354 C   0  0  0  0  0  0  0  0  0  0  0  0
    0.8091   -4.9937   -1.0279 C   0  0  0  0  0  0  0  0  0  0  0  0
    2.8266   -1.0830    0.8619 C   0  0  0  0  0  0  0  0  0  0  0  0
   -0.0013    0.7482    0.5854 H   0  0  0  0  0  0  0  0  0  0  0  0
    0.0202   -0.9762    1.0534 H   0  0  0  0  0  0  0  0  0  0  0  0
    0.5160   -0.4787   -0.6053 H   0  0  0  0  0  0  0  0  0  0  0  0
    1.8441    1.9621    1.5484 H   0  0  0  0  0  0  0  0  0  0  0  0
    4.4287    1.4643    2.2496 H   0  0  0  0  0  0  0  0  0  0  0  0
    5.9177   -3.1413    1.2159 H   0  0  0  0  0  0  0  0  0  0  0  0
    2.4173   -4.5528    1.9343 H   0  0  0  0  0  0  0  0  0  0  0  0
    2.0923   -6.9102    2.0623 H   0  0  0  0  0  0  0  0  0  0  0  0
    0.2912   -8.9133   -0.5501 H   0  0  0  0  0  0  0  0  0  0  0  0
    1.2495  -10.8941   -0.0094 H   0  0  0  0  0  0  0  0  0  0  0  0
    2.4563  -12.8576    0.5616 H   0  0  0  0  0  0  0  0  0  0  0  0
    3.0121  -14.5677    2.2500 H   0  0  0  0  0  0  0  0  0  0  0  0
    2.0904  -14.4052    4.5460 H   0  0  0  0  0  0  0  0  0  0  0  0
    0.0999  -10.7484    3.4962 H   0  0  0  0  0  0  0  0  0  0  0  0
    0.0362   -6.8679   -1.7439 H   0  0  0  0  0  0  0  0  0  0  0  0
    0.4554   -4.4433   -1.8962 H   0  0  0  0  0  0  0  0  0  0  0  0
  1  2  1  0  0  0  0
  1 29  1  0  0  0  0
  1 30  1  0  0  0  0
  1 31  1  0  0  0  0
  2  3  1  0  0  0  0
  2 28  1  0  0  0  0
  3  4  2  0  0  0  0
  3 32  1  0  0  0  0
  4  5  1  0  0  0  0
  4 33  1  0  0  0  0
  5  6  1  0  0  0  0
  5 28  2  0  0  0  0
  6  7  2  0  0  0  0
  7  8  1  0  0  0  0
  7 34  1  0  0  0  0
  8  9  2  0  0  0  0
  9 10  1  0  0  0  0
  9 28  1  0  0  0  0
 10 11  1  0  0  0  0
 11 12  1  0  0  0  0
 11 27  2  0  0  0  0
 12 13  2  0  0  0  0
 12 35  1  0  0  0  0
 13 14  1  0  0  0  0
 13 36  1  0  0  0  0
 14 15  1  0  0  0  0
 14 26  2  0  0  0  0
 15 16  1  0  0  0  0
 15 37  1  0  0  0  0
 16 17  2  0  0  0  0
 16 18  1  0  0  0  0
 18 19  1  0  0  0  0
 18 38  1  0  0  0  0
 19 20  1  0  0  0  0
 19 25  2  0  0  0  0
 20 21  2  0  0  0  0
 20 39  1  0  0  0  0
 21 22  1  0  0  0  0
 21 40  1  0  0  0  0
 22 23  2  0  0  0  0
 22 41  1  0  0  0  0
 23 24  1  0  0  0  0
 23 25  1  0  0  0  0
 25 42  1  0  0  0  0
 26 27  1  0  0  0  0
 26 43  1  0  0  0  0
 27 44  1  0  0  0  0
M  END
$$$$
