CHEMBL176553
 OpenBabel04072215363D

 38 40  0  0  0  0  0  0  0  0999 V2000
    1.2997   -0.0991   -0.3971 C   0  0  0  0  0  0  0  0  0  0  0  0
    2.5735    0.1780    0.1821 O   0  0  0  0  0  0  0  0  0  0  0  0
    3.2469   -0.8874    0.7178 C   0  0  0  0  0  0  0  0  0  0  0  0
    2.7757   -2.1959    0.7569 C   0  0  0  0  0  0  0  0  0  0  0  0
    3.5453   -3.2495    1.2775 C   0  0  0  0  0  0  0  0  0  0  0  0
    3.1166   -4.5926    1.2373 N   0  0  0  0  0  0  0  0  0  0  0  0
    2.1082   -5.0762    0.4907 C   0  0  0  0  0  0  0  0  0  0  0  0
    1.1748   -4.4502   -0.1980 N   0  0  0  0  0  0  0  0  0  0  0  0
    0.4539   -5.4416   -0.7841 C   0  0  0  0  0  0  0  0  0  0  0  0
    0.9708   -6.6678   -0.4359 C   0  0  0  0  0  0  0  0  0  0  0  0
    0.6208   -8.0420   -0.7422 C   0  0  0  0  0  0  0  0  0  0  0  0
   -0.4755   -8.3113   -1.5776 C   0  0  0  0  0  0  0  0  0  0  0  0
   -0.8522   -9.6230   -1.8614 C   0  0  0  0  0  0  0  0  0  0  0  0
   -0.1362  -10.6841   -1.3170 C   0  0  0  0  0  0  0  0  0  0  0  0
    0.9618  -10.4334   -0.4943 C   0  0  0  0  0  0  0  0  0  0  0  0
    1.3398   -9.1192   -0.2108 C   0  0  0  0  0  0  0  0  0  0  0  0
    2.0379   -6.4391    0.3938 O   0  0  0  0  0  0  0  0  0  0  0  0
    4.8024   -2.9411    1.8201 C   0  0  0  0  0  0  0  0  0  0  0  0
    5.2893   -1.6298    1.7945 C   0  0  0  0  0  0  0  0  0  0  0  0
    6.5126   -1.2176    2.2499 O   0  0  0  0  0  0  0  0  0  0  0  0
    7.3585   -2.2026    2.8272 C   0  0  0  0  0  0  0  0  0  0  0  0
    4.5061   -0.6125    1.2404 C   0  0  0  0  0  0  0  0  0  0  0  0
    0.9313    0.8213   -0.8590 H   0  0  0  0  0  0  0  0  0  0  0  0
    0.5799   -0.3986    0.3729 H   0  0  0  0  0  0  0  0  0  0  0  0
    1.3678   -0.8552   -1.1880 H   0  0  0  0  0  0  0  0  0  0  0  0
    1.7892   -2.4050    0.3705 H   0  0  0  0  0  0  0  0  0  0  0  0
    3.7446   -5.2700    1.6453 H   0  0  0  0  0  0  0  0  0  0  0  0
   -0.3936   -5.2235   -1.4160 H   0  0  0  0  0  0  0  0  0  0  0  0
   -1.0548   -7.5021   -2.0151 H   0  0  0  0  0  0  0  0  0  0  0  0
   -1.7096   -9.8127   -2.5027 H   0  0  0  0  0  0  0  0  0  0  0  0
   -0.4332  -11.7065   -1.5306 H   0  0  0  0  0  0  0  0  0  0  0  0
    1.5223  -11.2618   -0.0682 H   0  0  0  0  0  0  0  0  0  0  0  0
    2.1979   -8.9469    0.4359 H   0  0  0  0  0  0  0  0  0  0  0  0
    5.3978   -3.7443    2.2377 H   0  0  0  0  0  0  0  0  0  0  0  0
    8.3320   -1.7384    3.0116 H   0  0  0  0  0  0  0  0  0  0  0  0
    7.5241   -3.0465    2.1495 H   0  0  0  0  0  0  0  0  0  0  0  0
    6.9558   -2.5391    3.7879 H   0  0  0  0  0  0  0  0  0  0  0  0
    4.8864    0.4051    1.2121 H   0  0  0  0  0  0  0  0  0  0  0  0
  1  2  1  0  0  0  0
  1 23  1  0  0  0  0
  1 24  1  0  0  0  0
  1 25  1  0  0  0  0
  2  3  1  0  0  0  0
  3  4  1  0  0  0  0
  3 22  2  0  0  0  0
  4  5  2  0  0  0  0
  4 26  1  0  0  0  0
  5  6  1  0  0  0  0
  5 18  1  0  0  0  0
  6  7  1  0  0  0  0
  6 27  1  0  0  0  0
  7  8  2  0  0  0  0
  7 17  1  0  0  0  0
  8  9  1  0  0  0  0
  9 10  2  0  0  0  0
  9 28  1  0  0  0  0
 10 11  1  0  0  0  0
 10 17  1  0  0  0  0
 11 12  1  0  0  0  0
 11 16  2  0  0  0  0
 12 13  2  0  0  0  0
 12 29  1  0  0  0  0
 13 14  1  0  0  0  0
 13 30  1  0  0  0  0
 14 15  2  0  0  0  0
 14 31  1  0  0  0  0
 15 16  1  0  0  0  0
 15 32  1  0  0  0  0
 16 33  1  0  0  0  0
 18 19  2  0  0  0  0
 18 34  1  0  0  0  0
 19 20  1  0  0  0  0
 19 22  1  0  0  0  0
 20 21  1  0  0  0  0
 21 35  1  0  0  0  0
 21 36  1  0  0  0  0
 21 37  1  0  0  0  0
 22 38  1  0  0  0  0
M  END
$$$$
