CHEMBL605118
 OpenBabel04072215383D

 43 46  0  0  0  0  0  0  0  0999 V2000
    6.6273   -3.4062   -6.4161 C   0  0  0  0  0  0  0  0  0  0  0  0
    6.9152   -3.6228   -4.9446 C   0  0  0  0  0  0  0  0  0  0  0  0
    7.2745   -2.3713   -4.3581 O   0  0  0  0  0  0  0  0  0  0  0  0
    7.5803   -2.4085   -3.0226 C   0  0  0  0  0  0  0  0  0  0  0  0
    7.5435   -3.5494   -2.2207 C   0  0  0  0  0  0  0  0  0  0  0  0
    7.8757   -3.4793   -0.8634 C   0  0  0  0  0  0  0  0  0  0  0  0
    8.2858   -2.2724   -0.2974 C   0  0  0  0  0  0  0  0  0  0  0  0
    8.5879   -2.1844    1.0731 N   0  0  0  0  0  0  0  0  0  0  0  0
    9.4670   -1.2485    1.6360 C   0  0  0  0  0  0  0  0  0  0  0  0
    9.2758   -0.9078    2.9145 N   0  0  0  0  0  0  0  0  0  0  0  0
   10.0776    0.0478    3.4125 C   0  0  0  0  0  0  0  0  0  0  0  0
   11.0931    0.6358    2.6940 C   0  0  0  0  0  0  0  0  0  0  0  0
   11.2539    0.1989    1.3968 C   0  0  0  0  0  0  0  0  0  0  0  0
   10.4436   -0.7304    0.8652 N   0  0  0  0  0  0  0  0  0  0  0  0
   12.3169    0.7224    0.5294 C   0  0  0  0  0  0  0  0  0  0  0  0
   12.0526    1.1202   -0.7801 C   0  0  0  0  0  0  0  0  0  0  0  0
   12.9679    1.6633   -1.6235 N   0  0  0  0  0  0  0  0  0  0  0  0
   14.2331    1.7640   -1.1734 C   0  0  0  0  0  0  0  0  0  0  0  0
   14.6288    1.3496    0.0815 C   0  0  0  0  0  0  0  0  0  0  0  0
   13.6496    0.8799    0.9551 C   0  0  0  0  0  0  0  0  0  0  0  0
   14.0770    0.6405    2.2747 N   0  0  0  0  0  0  0  0  0  0  0  0
   13.4098    1.0367    3.4060 C   0  0  0  0  0  0  0  0  0  0  0  0
   13.9870    0.9644    4.4988 O   0  0  0  0  0  0  0  0  0  0  0  0
   12.0321    1.6317    3.2819 C   0  0  0  0  0  0  0  0  0  0  0  0
    8.2861   -1.1246   -1.1060 C   0  0  0  0  0  0  0  0  0  0  0  0
    7.9544   -1.1953   -2.4621 C   0  0  0  0  0  0  0  0  0  0  0  0
    6.3050   -4.3409   -6.8836 H   0  0  0  0  0  0  0  0  0  0  0  0
    7.5241   -3.0464   -6.9291 H   0  0  0  0  0  0  0  0  0  0  0  0
    5.8483   -2.6502   -6.5529 H   0  0  0  0  0  0  0  0  0  0  0  0
    7.7441   -4.3347   -4.8527 H   0  0  0  0  0  0  0  0  0  0  0  0
    6.0176   -4.0244   -4.4600 H   0  0  0  0  0  0  0  0  0  0  0  0
    7.2665   -4.5196   -2.6184 H   0  0  0  0  0  0  0  0  0  0  0  0
    7.8344   -4.3902   -0.2725 H   0  0  0  0  0  0  0  0  0  0  0  0
    8.7465   -3.0738    1.5276 H   0  0  0  0  0  0  0  0  0  0  0  0
    9.8772    0.3314    4.4427 H   0  0  0  0  0  0  0  0  0  0  0  0
   11.0513    1.0435   -1.1992 H   0  0  0  0  0  0  0  0  0  0  0  0
   14.9407    2.2256   -1.8550 H   0  0  0  0  0  0  0  0  0  0  0  0
   15.6590    1.4817    0.3964 H   0  0  0  0  0  0  0  0  0  0  0  0
   15.0558    0.4535    2.4474 H   0  0  0  0  0  0  0  0  0  0  0  0
   12.0709    2.5426    2.6725 H   0  0  0  0  0  0  0  0  0  0  0  0
   11.6907    1.9439    4.2757 H   0  0  0  0  0  0  0  0  0  0  0  0
    8.5665   -0.1614   -0.6919 H   0  0  0  0  0  0  0  0  0  0  0  0
    8.0039   -0.2925   -3.0623 H   0  0  0  0  0  0  0  0  0  0  0  0
  1  2  1  0  0  0  0
  1 27  1  0  0  0  0
  1 28  1  0  0  0  0
  1 29  1  0  0  0  0
  2  3  1  0  0  0  0
  2 30  1  0  0  0  0
  2 31  1  0  0  0  0
  3  4  1  0  0  0  0
  4  5  1  0  0  0  0
  4 26  2  0  0  0  0
  5  6  2  0  0  0  0
  5 32  1  0  0  0  0
  6  7  1  0  0  0  0
  6 33  1  0  0  0  0
  7  8  1  0  0  0  0
  7 25  2  0  0  0  0
  8  9  1  0  0  0  0
  8 34  1  0  0  0  0
  9 10  1  0  0  0  0
  9 14  2  0  0  0  0
 10 11  2  0  0  0  0
 11 12  1  0  0  0  0
 11 35  1  0  0  0  0
 12 13  2  0  0  0  0
 12 24  1  0  0  0  0
 13 14  1  0  0  0  0
 13 15  1  0  0  0  0
 15 16  1  0  0  0  0
 15 20  2  0  0  0  0
 16 17  2  0  0  0  0
 16 36  1  0  0  0  0
 17 18  1  0  0  0  0
 18 19  2  0  0  0  0
 18 37  1  0  0  0  0
 19 20  1  0  0  0  0
 19 38  1  0  0  0  0
 20 21  1  0  0  0  0
 21 22  1  0  0  0  0
 21 39  1  0  0  0  0
 22 23  2  0  0  0  0
 22 24  1  0  0  0  0
 24 40  1  0  0  0  0
 24 41  1  0  0  0  0
 25 26  1  0  0  0  0
 25 42  1  0  0  0  0
 26 43  1  0  0  0  0
M  END
$$$$
