CHEMBL4208557
 OpenBabel04072215383D

 60 64  0  0  0  0  0  0  0  0999 V2000
    3.6015    0.9888    1.3585 C   0  0  0  0  0  0  0  0  0  0  0  0
    3.5007    0.4548   -0.0388 C   0  0  0  0  0  0  0  0  0  0  0  0
    4.1785   -0.6539   -0.5516 C   0  0  0  0  0  0  0  0  0  0  0  0
    5.1391   -1.5258    0.1182 C   0  0  0  0  0  0  0  0  0  0  0  0
    5.4890   -1.3983    1.2898 O   0  0  0  0  0  0  0  0  0  0  0  0
    5.6764   -2.5432   -0.6412 N   0  0  0  0  0  0  0  0  0  0  0  0
    6.6501   -3.4475   -0.0711 C   0  0  0  0  0  0  0  0  0  0  0  0
    7.0948   -4.4542   -1.0413 C   0  0  0  0  0  0  0  0  0  0  0  0
    7.4286   -5.2279   -1.8321 N   0  0  0  0  0  0  0  0  0  0  0  0
    3.7556   -0.9411   -2.1932 S   0  0  0  0  0  0  0  0  0  0  0  0
    2.7020    0.3821   -2.2424 C   0  0  0  0  0  0  0  0  0  0  0  0
    2.0368    0.6755   -3.3722 N   0  0  0  0  0  0  0  0  0  0  0  0
    1.2427    1.7392   -3.2386 C   0  0  0  0  0  0  0  0  0  0  0  0
    1.0846    2.4967   -2.1484 N   0  0  0  0  0  0  0  0  0  0  0  0
    1.8137    2.1933   -1.0501 C   0  0  0  0  0  0  0  0  0  0  0  0
    1.7266    3.0025    0.0755 O   0  0  0  0  0  0  0  0  0  0  0  0
    1.4262    4.3314   -0.1089 C   0  0  0  0  0  0  0  0  0  0  0  0
    1.8949    5.0931   -1.1847 C   0  0  0  0  0  0  0  0  0  0  0  0
    1.4919    6.4228   -1.3335 C   0  0  0  0  0  0  0  0  0  0  0  0
    0.6987    7.0203   -0.3544 C   0  0  0  0  0  0  0  0  0  0  0  0
    0.3343    8.3695   -0.4399 N   0  0  0  0  0  0  0  0  0  0  0  0
   -0.3146    8.9382   -1.5212 C   0  0  0  0  0  0  0  0  0  0  0  0
   -0.6695    8.3960   -2.5581 O   0  0  0  0  0  0  0  0  0  0  0  0
   -0.5586   10.3982   -1.3035 C   0  0  0  0  0  0  0  0  0  0  0  0
    0.6375   11.1460   -1.8066 C   0  0  0  0  0  0  0  0  0  0  0  0
    1.3748   11.7169   -1.0197 O   0  0  0  0  0  0  0  0  0  0  0  0
    0.7207   11.0716   -3.1890 N   0  0  0  0  0  0  0  0  0  0  0  0
    1.5890   11.7467   -4.0459 C   0  0  0  0  0  0  0  0  0  0  0  0
    2.6157   12.5807   -3.6003 C   0  0  0  0  0  0  0  0  0  0  0  0
    3.3943   13.2756   -4.5172 C   0  0  0  0  0  0  0  0  0  0  0  0
    3.1602   13.1294   -5.8797 C   0  0  0  0  0  0  0  0  0  0  0  0
    3.9048   13.8132   -6.7564 F   0  0  0  0  0  0  0  0  0  0  0  0
    2.1569   12.2895   -6.3434 C   0  0  0  0  0  0  0  0  0  0  0  0
    1.3715   11.5931   -5.4268 C   0  0  0  0  0  0  0  0  0  0  0  0
   -2.0752   10.4437   -0.9052 C   0  0  0  0  0  0  0  0  0  0  0  0
   -1.6121   11.5598   -1.6441 C   0  0  0  0  0  0  0  0  0  0  0  0
    0.3272    6.3006    0.7809 C   0  0  0  0  0  0  0  0  0  0  0  0
    0.6668    4.9541    0.8800 C   0  0  0  0  0  0  0  0  0  0  0  0
    0.2480    4.2590    1.9480 F   0  0  0  0  0  0  0  0  0  0  0  0
    2.6472    1.0661   -1.0437 C   0  0  0  0  0  0  0  0  0  0  0  0
    4.2794    0.4240    1.9978 H   0  0  0  0  0  0  0  0  0  0  0  0
    2.6163    0.9684    1.8374 H   0  0  0  0  0  0  0  0  0  0  0  0
    3.9604    2.0232    1.3409 H   0  0  0  0  0  0  0  0  0  0  0  0
    5.3923   -2.6373   -1.6102 H   0  0  0  0  0  0  0  0  0  0  0  0
    6.1966   -3.9272    0.8041 H   0  0  0  0  0  0  0  0  0  0  0  0
    7.5004   -2.8522    0.2797 H   0  0  0  0  0  0  0  0  0  0  0  0
    0.6716    2.0331   -4.1139 H   0  0  0  0  0  0  0  0  0  0  0  0
    2.5595    4.6580   -1.9266 H   0  0  0  0  0  0  0  0  0  0  0  0
    1.8510    6.9934   -2.1871 H   0  0  0  0  0  0  0  0  0  0  0  0
    0.3863    8.9149    0.4132 H   0  0  0  0  0  0  0  0  0  0  0  0
    0.0150   10.4889   -3.6398 H   0  0  0  0  0  0  0  0  0  0  0  0
    2.8187   12.7073   -2.5398 H   0  0  0  0  0  0  0  0  0  0  0  0
    4.1941   13.9295   -4.1751 H   0  0  0  0  0  0  0  0  0  0  0  0
    1.9859   12.1904   -7.4111 H   0  0  0  0  0  0  0  0  0  0  0  0
    0.5806   10.9468   -5.7998 H   0  0  0  0  0  0  0  0  0  0  0  0
   -2.3492   10.5503    0.1337 H   0  0  0  0  0  0  0  0  0  0  0  0
   -2.7730    9.8109   -1.4600 H   0  0  0  0  0  0  0  0  0  0  0  0
   -1.4956   12.4933   -1.0866 H   0  0  0  0  0  0  0  0  0  0  0  0
   -1.8961   11.7235   -2.6746 H   0  0  0  0  0  0  0  0  0  0  0  0
   -0.2806    6.7475    1.5604 H   0  0  0  0  0  0  0  0  0  0  0  0
  1  2  1  0  0  0  0
  1 41  1  0  0  0  0
  1 42  1  0  0  0  0
  1 43  1  0  0  0  0
  2  3  2  0  0  0  0
  2 40  1  0  0  0  0
  3  4  1  0  0  0  0
  3 10  1  0  0  0  0
  4  5  2  0  0  0  0
  4  6  1  0  0  0  0
  6  7  1  0  0  0  0
  6 44  1  0  0  0  0
  7  8  1  0  0  0  0
  7 45  1  0  0  0  0
  7 46  1  0  0  0  0
  8  9  3  0  0  0  0
 10 11  1  0  0  0  0
 11 12  1  0  0  0  0
 11 40  2  0  0  0  0
 12 13  2  0  0  0  0
 13 14  1  0  0  0  0
 13 47  1  0  0  0  0
 14 15  2  0  0  0  0
 15 16  1  0  0  0  0
 15 40  1  0  0  0  0
 16 17  1  0  0  0  0
 17 18  1  0  0  0  0
 17 38  2  0  0  0  0
 18 19  2  0  0  0  0
 18 48  1  0  0  0  0
 19 20  1  0  0  0  0
 19 49  1  0  0  0  0
 20 21  1  0  0  0  0
 20 37  2  0  0  0  0
 21 22  1  0  0  0  0
 21 50  1  0  0  0  0
 22 23  2  0  0  0  0
 22 24  1  0  0  0  0
 24 25  1  0  0  0  0
 24 35  1  0  0  0  0
 24 36  1  0  0  0  0
 25 26  2  0  0  0  0
 25 27  1  0  0  0  0
 27 28  1  0  0  0  0
 27 51  1  0  0  0  0
 28 29  1  0  0  0  0
 28 34  2  0  0  0  0
 29 30  2  0  0  0  0
 29 52  1  0  0  0  0
 30 31  1  0  0  0  0
 30 53  1  0  0  0  0
 31 32  1  0  0  0  0
 31 33  2  0  0  0  0
 33 34  1  0  0  0  0
 33 54  1  0  0  0  0
 34 55  1  0  0  0  0
 35 36  1  0  0  0  0
 35 56  1  0  0  0  0
 35 57  1  0  0  0  0
 36 58  1  0  0  0  0
 36 59  1  0  0  0  0
 37 38  1  0  0  0  0
 37 60  1  0  0  0  0
 38 39  1  0  0  0  0
M  END
$$$$
