CHEMBL172292
 OpenBabel04072215363D

 34 37  0  0  0  0  0  0  0  0999 V2000
    1.3558   -0.2332    0.2537 C   0  0  0  0  0  0  0  0  0  0  0  0
    0.7844    0.9266    0.7755 C   0  0  0  0  0  0  0  0  0  0  0  0
   -0.5820    1.1680    0.6158 C   0  0  0  0  0  0  0  0  0  0  0  0
   -1.3830    0.2464   -0.0700 C   0  0  0  0  0  0  0  0  0  0  0  0
   -2.8313    0.4761   -0.2007 C   0  0  0  0  0  0  0  0  0  0  0  0
   -3.7740   -0.0027    0.8083 C   0  0  0  0  0  0  0  0  0  0  0  0
   -5.0893    0.2165    0.6495 C   0  0  0  0  0  0  0  0  0  0  0  0
   -5.5492    0.8805   -0.4916 N   0  0  0  0  0  0  0  0  0  0  0  0
   -6.8404    1.1830   -0.9182 C   0  0  0  0  0  0  0  0  0  0  0  0
   -8.1025    0.8082   -0.2715 C   0  0  0  0  0  0  0  0  0  0  0  0
   -9.2087    1.6647   -0.3147 C   0  0  0  0  0  0  0  0  0  0  0  0
  -10.4135    1.2908    0.2812 C   0  0  0  0  0  0  0  0  0  0  0  0
  -10.4799    0.0638    0.9169 C   0  0  0  0  0  0  0  0  0  0  0  0
   -9.4486   -0.8024    0.9706 N   0  0  0  0  0  0  0  0  0  0  0  0
   -8.2998   -0.4184    0.3604 C   0  0  0  0  0  0  0  0  0  0  0  0
   -6.6417    1.9141   -2.0806 C   0  0  0  0  0  0  0  0  0  0  0  0
   -5.3190    2.0293   -2.4055 N   0  0  0  0  0  0  0  0  0  0  0  0
   -4.6761    1.3880   -1.4559 C   0  0  0  0  0  0  0  0  0  0  0  0
   -3.2804    1.1566   -1.2791 C   0  0  0  0  0  0  0  0  0  0  0  0
   -0.8030   -0.9144   -0.5935 C   0  0  0  0  0  0  0  0  0  0  0  0
    0.5635   -1.1526   -0.4325 C   0  0  0  0  0  0  0  0  0  0  0  0
    2.4185   -0.4212    0.3826 H   0  0  0  0  0  0  0  0  0  0  0  0
    1.4017    1.6426    1.3125 H   0  0  0  0  0  0  0  0  0  0  0  0
   -1.0178    2.0708    1.0330 H   0  0  0  0  0  0  0  0  0  0  0  0
   -3.3854   -0.5253    1.6769 H   0  0  0  0  0  0  0  0  0  0  0  0
   -5.8080   -0.1048    1.3898 H   0  0  0  0  0  0  0  0  0  0  0  0
   -9.1483    2.6298   -0.8119 H   0  0  0  0  0  0  0  0  0  0  0  0
  -11.2794    1.9427    0.2479 H   0  0  0  0  0  0  0  0  0  0  0  0
  -11.3916   -0.2679    1.4055 H   0  0  0  0  0  0  0  0  0  0  0  0
   -7.5247   -1.1784    0.3869 H   0  0  0  0  0  0  0  0  0  0  0  0
   -7.4008    2.3490   -2.7190 H   0  0  0  0  0  0  0  0  0  0  0  0
   -2.6087    1.5403   -2.0401 H   0  0  0  0  0  0  0  0  0  0  0  0
   -1.4114   -1.6429   -1.1250 H   0  0  0  0  0  0  0  0  0  0  0  0
    1.0085   -2.0570   -0.8393 H   0  0  0  0  0  0  0  0  0  0  0  0
  1  2  1  0  0  0  0
  1 21  2  0  0  0  0
  1 22  1  0  0  0  0
  2  3  2  0  0  0  0
  2 23  1  0  0  0  0
  3  4  1  0  0  0  0
  3 24  1  0  0  0  0
  4  5  1  0  0  0  0
  4 20  2  0  0  0  0
  5  6  1  0  0  0  0
  5 19  2  0  0  0  0
  6  7  2  0  0  0  0
  6 25  1  0  0  0  0
  7  8  1  0  0  0  0
  7 26  1  0  0  0  0
  8  9  1  0  0  0  0
  8 18  1  0  0  0  0
  9 10  1  0  0  0  0
  9 16  2  0  0  0  0
 10 11  1  0  0  0  0
 10 15  2  0  0  0  0
 11 12  2  0  0  0  0
 11 27  1  0  0  0  0
 12 13  1  0  0  0  0
 12 28  1  0  0  0  0
 13 14  2  0  0  0  0
 13 29  1  0  0  0  0
 14 15  1  0  0  0  0
 15 30  1  0  0  0  0
 16 17  1  0  0  0  0
 16 31  1  0  0  0  0
 17 18  2  0  0  0  0
 18 19  1  0  0  0  0
 19 32  1  0  0  0  0
 20 21  1  0  0  0  0
 20 33  1  0  0  0  0
 21 34  1  0  0  0  0
M  END
$$$$
