CHEMBL599027
 OpenBabel04072215383D

 37 40  0  0  0  0  0  0  0  0999 V2000
    1.2748   -0.4584    0.5801 O   0  0  0  0  0  0  0  0  0  0  0  0
    2.4028   -0.1382    0.2146 C   0  0  0  0  0  0  0  0  0  0  0  0
    3.0933   -0.8483   -0.9298 C   0  0  0  0  0  0  0  0  0  0  0  0
    4.3472   -1.4955   -0.4613 C   0  0  0  0  0  0  0  0  0  0  0  0
    4.4969   -2.8614   -0.3872 C   0  0  0  0  0  0  0  0  0  0  0  0
    5.5969   -3.4646    0.0927 N   0  0  0  0  0  0  0  0  0  0  0  0
    6.5992   -2.6675    0.4819 C   0  0  0  0  0  0  0  0  0  0  0  0
    7.7264   -3.2988    0.9984 N   0  0  0  0  0  0  0  0  0  0  0  0
    9.0722   -2.9006    0.9076 C   0  0  0  0  0  0  0  0  0  0  0  0
    9.4983   -2.0214   -0.1007 C   0  0  0  0  0  0  0  0  0  0  0  0
   10.8288   -1.6144   -0.1958 C   0  0  0  0  0  0  0  0  0  0  0  0
   11.7627   -2.0675    0.7291 C   0  0  0  0  0  0  0  0  0  0  0  0
   11.3652   -2.9370    1.7437 C   0  0  0  0  0  0  0  0  0  0  0  0
   10.0320   -3.3557    1.8282 C   0  0  0  0  0  0  0  0  0  0  0  0
    9.5621   -4.5337    3.2455 Br  0  0  0  0  0  0  0  0  0  0  0  0
    6.5501   -1.3255    0.4204 N   0  0  0  0  0  0  0  0  0  0  0  0
    5.4167   -0.7434   -0.0238 C   0  0  0  0  0  0  0  0  0  0  0  0
    5.3932    0.7346   -0.0067 C   0  0  0  0  0  0  0  0  0  0  0  0
    6.5448    1.4455   -0.4054 C   0  0  0  0  0  0  0  0  0  0  0  0
    6.5895    2.8417   -0.3842 C   0  0  0  0  0  0  0  0  0  0  0  0
    5.5030    3.5622    0.0946 C   0  0  0  0  0  0  0  0  0  0  0  0
    4.3655    2.8879    0.5308 C   0  0  0  0  0  0  0  0  0  0  0  0
    4.2796    1.4896    0.4312 C   0  0  0  0  0  0  0  0  0  0  0  0
    3.0275    0.9401    0.7785 N   0  0  0  0  0  0  0  0  0  0  0  0
    3.2982   -0.1346   -1.7367 H   0  0  0  0  0  0  0  0  0  0  0  0
    2.4037   -1.5873   -1.3475 H   0  0  0  0  0  0  0  0  0  0  0  0
    3.7093   -3.5377   -0.7100 H   0  0  0  0  0  0  0  0  0  0  0  0
    7.5821   -4.2991    1.0358 H   0  0  0  0  0  0  0  0  0  0  0  0
    8.7924   -1.6577   -0.8435 H   0  0  0  0  0  0  0  0  0  0  0  0
   11.1285   -0.9406   -0.9962 H   0  0  0  0  0  0  0  0  0  0  0  0
   12.7965   -1.7431    0.6608 H   0  0  0  0  0  0  0  0  0  0  0  0
   12.0995   -3.2789    2.4688 H   0  0  0  0  0  0  0  0  0  0  0  0
    7.4247    0.9001   -0.7452 H   0  0  0  0  0  0  0  0  0  0  0  0
    7.4783    3.3621   -0.7320 H   0  0  0  0  0  0  0  0  0  0  0  0
    5.5336    4.6487    0.1171 H   0  0  0  0  0  0  0  0  0  0  0  0
    3.5202    3.4711    0.8896 H   0  0  0  0  0  0  0  0  0  0  0  0
    2.4156    1.4816    1.3760 H   0  0  0  0  0  0  0  0  0  0  0  0
  1  2  2  0  0  0  0
  2  3  1  0  0  0  0
  2 24  1  0  0  0  0
  3  4  1  0  0  0  0
  3 25  1  0  0  0  0
  3 26  1  0  0  0  0
  4  5  1  0  0  0  0
  4 17  2  0  0  0  0
  5  6  2  0  0  0  0
  5 27  1  0  0  0  0
  6  7  1  0  0  0  0
  7  8  1  0  0  0  0
  7 16  2  0  0  0  0
  8  9  1  0  0  0  0
  8 28  1  0  0  0  0
  9 10  1  0  0  0  0
  9 14  2  0  0  0  0
 10 11  2  0  0  0  0
 10 29  1  0  0  0  0
 11 12  1  0  0  0  0
 11 30  1  0  0  0  0
 12 13  2  0  0  0  0
 12 31  1  0  0  0  0
 13 14  1  0  0  0  0
 13 32  1  0  0  0  0
 14 15  1  0  0  0  0
 16 17  1  0  0  0  0
 17 18  1  0  0  0  0
 18 19  1  0  0  0  0
 18 23  2  0  0  0  0
 19 20  2  0  0  0  0
 19 33  1  0  0  0  0
 20 21  1  0  0  0  0
 20 34  1  0  0  0  0
 21 22  2  0  0  0  0
 21 35  1  0  0  0  0
 22 23  1  0  0  0  0
 22 36  1  0  0  0  0
 23 24  1  0  0  0  0
 24 37  1  0  0  0  0
M  END
$$$$
