CHEMBL576504
 OpenBabel04072215383D

 69 73  0  0  0  0  0  0  0  0999 V2000
    1.3425    0.3761   -7.3156 C   0  0  0  0  0  0  0  0  0  0  0  0
    2.6774    0.3817   -6.7121 N   0  0  0  0  0  0  0  0  0  0  0  0
    2.8709    1.6401   -5.9856 C   0  0  0  0  0  0  0  0  0  0  0  0
    2.8025   -0.7659   -5.8043 C   0  0  0  0  0  0  0  0  0  0  0  0
    4.1805   -0.8222   -5.1351 C   0  0  0  0  0  0  0  0  0  0  0  0
    4.2560   -1.9596   -4.2552 N   0  0  0  0  0  0  0  0  0  0  0  0
    3.9387   -2.0398   -2.9406 C   0  0  0  0  0  0  0  0  0  0  0  0
    4.2554   -3.2172   -2.4524 N   0  0  0  0  0  0  0  0  0  0  0  0
    4.7558   -3.9477   -3.5151 C   0  0  0  0  0  0  0  0  0  0  0  0
    5.2162   -5.3336   -3.4033 C   0  0  0  0  0  0  0  0  0  0  0  0
    6.0980   -5.8063   -4.1066 O   0  0  0  0  0  0  0  0  0  0  0  0
    4.4404   -6.1264   -2.5029 C   0  0  0  0  0  0  0  0  0  0  0  0
    3.1609   -5.8266   -2.1778 C   0  0  0  0  0  0  0  0  0  0  0  0
    2.7680   -6.8667   -1.4393 C   0  0  0  0  0  0  0  0  0  0  0  0
    1.7005   -7.0338   -0.8646 N   0  0  0  0  0  0  0  0  0  0  0  0
    0.6214   -6.9883   -0.4033 C   0  0  0  0  0  0  0  0  0  0  0  0
    1.3373   -8.1573    0.0305 C   0  0  0  0  0  0  0  0  0  0  0  0
    2.9100   -8.9575    0.0341 C   0  0  0  0  0  0  0  0  0  0  0  0
    4.1569   -9.5522    0.0095 O   0  0  0  0  0  0  0  0  0  0  0  0
    4.7963  -10.6713    0.6745 C   0  0  0  0  0  0  0  0  0  0  0  0
    4.5597  -11.2270    2.0100 C   0  0  0  0  0  0  0  0  0  0  0  0
    4.8686  -12.6331    2.3322 C   0  0  0  0  0  0  0  0  0  0  0  0
    5.7781  -13.3460    1.5538 C   0  0  0  0  0  0  0  0  0  0  0  0
    6.1839  -14.7377    1.7990 N   0  0  0  0  0  0  0  0  0  0  0  0
    5.6711  -15.4857    2.8725 C   0  0  0  0  0  0  0  0  0  0  0  0
    4.8581  -14.9834    3.6428 O   0  0  0  0  0  0  0  0  0  0  0  0
    6.0885  -16.9551    3.1281 C   0  0  0  0  0  0  0  0  0  0  0  0
    7.1199  -17.4525    2.0551 C   0  0  0  0  0  0  0  0  0  0  0  0
    7.5170  -16.7265    1.1428 O   0  0  0  0  0  0  0  0  0  0  0  0
    7.5711  -18.7769    2.1156 N   0  0  0  0  0  0  0  0  0  0  0  0
    8.4829  -19.2543    1.1153 C   0  0  0  0  0  0  0  0  0  0  0  0
    9.7336  -18.6478    0.9450 C   0  0  0  0  0  0  0  0  0  0  0  0
   10.6349  -19.1114   -0.0152 C   0  0  0  0  0  0  0  0  0  0  0  0
   10.2002  -20.0035   -0.9833 C   0  0  0  0  0  0  0  0  0  0  0  0
    8.9023  -20.4984   -0.9094 C   0  0  0  0  0  0  0  0  0  0  0  0
    8.1403  -20.2953    0.2525 C   0  0  0  0  0  0  0  0  0  0  0  0
    6.3003  -12.5875    0.4946 C   0  0  0  0  0  0  0  0  0  0  0  0
    5.8253  -11.3266    0.0555 C   0  0  0  0  0  0  0  0  0  0  0  0
    6.3981  -10.7945   -1.0264 F   0  0  0  0  0  0  0  0  0  0  0  0
    3.4941   -7.9231   -0.9864 C   0  0  0  0  0  0  0  0  0  0  0  0
    5.0215   -7.6137   -1.8163 S   0  0  0  0  0  0  0  0  0  0  0  0
    4.7437   -3.1635   -4.6515 C   0  0  0  0  0  0  0  0  0  0  0  0
    1.2436    1.2088   -8.0185 H   0  0  0  0  0  0  0  0  0  0  0  0
    0.5552    0.4647   -6.5573 H   0  0  0  0  0  0  0  0  0  0  0  0
    1.1746   -0.5471   -7.8809 H   0  0  0  0  0  0  0  0  0  0  0  0
    2.7913    2.4927   -6.6637 H   0  0  0  0  0  0  0  0  0  0  0  0
    3.8748    1.7059   -5.5561 H   0  0  0  0  0  0  0  0  0  0  0  0
    2.1431    1.7507   -5.1735 H   0  0  0  0  0  0  0  0  0  0  0  0
    2.6467   -1.7053   -6.3537 H   0  0  0  0  0  0  0  0  0  0  0  0
    2.0079   -0.7243   -5.0439 H   0  0  0  0  0  0  0  0  0  0  0  0
    4.3503    0.0457   -4.4888 H   0  0  0  0  0  0  0  0  0  0  0  0
    4.9846   -0.8701   -5.8736 H   0  0  0  0  0  0  0  0  0  0  0  0
    3.4931   -1.2331   -2.3770 H   0  0  0  0  0  0  0  0  0  0  0  0
    2.5298   -4.9772   -2.3877 H   0  0  0  0  0  0  0  0  0  0  0  0
    0.4284   -5.9875   -0.8408 H   0  0  0  0  0  0  0  0  0  0  0  0
    0.4696   -8.6308    0.5485 H   0  0  0  0  0  0  0  0  0  0  0  0
    4.3004  -10.6470    2.9185 H   0  0  0  0  0  0  0  0  0  0  0  0
    4.3203  -13.1407    3.1357 H   0  0  0  0  0  0  0  0  0  0  0  0
    6.8364  -15.1755    1.1565 H   0  0  0  0  0  0  0  0  0  0  0  0
    5.2001  -17.5942    3.0887 H   0  0  0  0  0  0  0  0  0  0  0  0
    6.5551  -17.0277    4.1147 H   0  0  0  0  0  0  0  0  0  0  0  0
    7.0709  -19.4631    2.6609 H   0  0  0  0  0  0  0  0  0  0  0  0
   10.0341  -17.8245    1.5867 H   0  0  0  0  0  0  0  0  0  0  0  0
   11.6528  -18.7355   -0.0319 H   0  0  0  0  0  0  0  0  0  0  0  0
   10.8688  -20.3083   -1.7845 H   0  0  0  0  0  0  0  0  0  0  0  0
    8.4859  -21.0312   -1.7621 H   0  0  0  0  0  0  0  0  0  0  0  0
    7.2621  -20.9093    0.4098 H   0  0  0  0  0  0  0  0  0  0  0  0
    7.0602  -12.9686   -0.1635 H   0  0  0  0  0  0  0  0  0  0  0  0
    5.0662   -3.3418   -5.6702 H   0  0  0  0  0  0  0  0  0  0  0  0
  1  2  1  0  0  0  0
  1 43  1  0  0  0  0
  1 44  1  0  0  0  0
  1 45  1  0  0  0  0
  2  3  1  0  0  0  0
  2  4  1  0  0  0  0
  3 46  1  0  0  0  0
  3 47  1  0  0  0  0
  3 48  1  0  0  0  0
  4  5  1  0  0  0  0
  4 49  1  0  0  0  0
  4 50  1  0  0  0  0
  5  6  1  0  0  0  0
  5 51  1  0  0  0  0
  5 52  1  0  0  0  0
  6  7  1  0  0  0  0
  6 42  1  0  0  0  0
  7  8  2  0  0  0  0
  7 53  1  0  0  0  0
  8  9  1  0  0  0  0
  9 10  1  0  0  0  0
  9 42  2  0  0  0  0
 10 11  2  0  0  0  0
 10 12  1  0  0  0  0
 12 13  2  0  0  0  0
 12 41  1  0  0  0  0
 13 14  1  0  0  0  0
 13 54  1  0  0  0  0
 14 15  1  0  0  0  0
 14 40  2  0  0  0  0
 15 16  2  0  0  0  0
 16 17  1  0  0  0  0
 16 55  1  0  0  0  0
 17 18  2  0  0  0  0
 17 56  1  0  0  0  0
 18 19  1  0  0  0  0
 18 40  1  0  0  0  0
 19 20  1  0  0  0  0
 20 21  1  0  0  0  0
 20 38  2  0  0  0  0
 21 22  2  0  0  0  0
 21 57  1  0  0  0  0
 22 23  1  0  0  0  0
 22 58  1  0  0  0  0
 23 24  1  0  0  0  0
 23 37  2  0  0  0  0
 24 25  1  0  0  0  0
 24 59  1  0  0  0  0
 25 26  2  0  0  0  0
 25 27  1  0  0  0  0
 27 28  1  0  0  0  0
 27 60  1  0  0  0  0
 27 61  1  0  0  0  0
 28 29  2  0  0  0  0
 28 30  1  0  0  0  0
 30 31  1  0  0  0  0
 30 62  1  0  0  0  0
 31 32  1  0  0  0  0
 31 36  2  0  0  0  0
 32 33  2  0  0  0  0
 32 63  1  0  0  0  0
 33 34  1  0  0  0  0
 33 64  1  0  0  0  0
 34 35  2  0  0  0  0
 34 65  1  0  0  0  0
 35 36  1  0  0  0  0
 35 66  1  0  0  0  0
 36 67  1  0  0  0  0
 37 38  1  0  0  0  0
 37 68  1  0  0  0  0
 38 39  1  0  0  0  0
 40 41  1  0  0  0  0
 42 69  1  0  0  0  0
M  END
$$$$
