CHEMBL1241770
 OpenBabel04072215363D

 41 44  0  0  1  0  0  0  0  0999 V2000
    0.8370    0.2459    0.0268 N   0  0  0  0  0  0  0  0  0  0  0  0
    2.2179    0.1449   -0.0182 C   0  0  0  0  0  0  0  0  0  0  0  0
    2.8853    1.3179   -0.0022 N   0  0  0  0  0  0  0  0  0  0  0  0
    4.2288    1.3009   -0.0415 C   0  0  0  0  0  0  0  0  0  0  0  0
    5.0348    0.2322   -0.1065 N   0  0  0  0  0  0  0  0  0  0  0  0
    4.3356   -0.9153   -0.1239 C   0  0  0  0  0  0  0  0  0  0  0  0
    2.9545   -1.0510   -0.0732 C   0  0  0  0  0  0  0  0  0  0  0  0
    2.7308   -2.4663   -0.0701 C   0  0  0  0  0  0  0  0  0  0  0  0
    1.4632   -3.2074    0.0204 C   0  0  0  0  0  0  0  0  0  0  0  0
    1.2932   -4.4073   -0.6932 C   0  0  0  0  0  0  0  0  0  0  0  0
    0.0854   -5.1155   -0.6369 C   0  0  0  0  0  0  0  0  0  0  0  0
   -0.9704   -4.6209    0.1238 C   0  0  0  0  0  0  0  0  0  0  0  0
   -2.4668   -5.4744    0.1705 Cl  0  0  0  0  0  0  0  0  0  0  0  0
   -0.8068   -3.4398    0.8465 C   0  0  0  0  0  0  0  0  0  0  0  0
   -1.8181   -2.8972    1.5921 O   0  0  0  0  0  0  0  0  0  0  0  0
    0.4072   -2.7548    0.8229 C   0  0  0  0  0  0  0  0  0  0  0  0
    3.8965   -3.1411   -0.1569 N   0  0  0  0  0  0  0  0  0  0  0  0
    4.8498   -2.1828   -0.1671 N   0  0  0  0  0  0  0  0  0  0  0  0
    6.2369   -2.5545    0.0567 C   0  0  0  0  0  0  0  0  0  0  0  0
    7.1007   -2.9167   -1.1579 C   0  0  3  0  0  0  0  0  0  0  0  0
    7.3202   -1.8042   -2.1840 C   0  0  0  0  0  0  0  0  0  0  0  0
    6.9102   -2.4053   -3.5172 C   0  0  0  0  0  0  0  0  0  0  0  0
    7.0101   -3.8553   -3.3496 N   0  0  0  0  0  0  0  0  0  0  0  0
    6.6237   -4.1209   -1.9588 C   0  0  0  0  0  0  0  0  0  0  0  0
    0.5316    1.1992   -0.1331 H   0  0  0  0  0  0  0  0  0  0  0  0
    0.3155   -0.4723   -0.4568 H   0  0  0  0  0  0  0  0  0  0  0  0
    4.7150    2.2712   -0.0170 H   0  0  0  0  0  0  0  0  0  0  0  0
    2.1088   -4.8004   -1.2994 H   0  0  0  0  0  0  0  0  0  0  0  0
   -0.0202   -6.0449   -1.1905 H   0  0  0  0  0  0  0  0  0  0  0  0
   -2.5965   -3.4771    1.4929 H   0  0  0  0  0  0  0  0  0  0  0  0
    0.5115   -1.8677    1.4428 H   0  0  0  0  0  0  0  0  0  0  0  0
    6.2199   -3.4055    0.7509 H   0  0  0  0  0  0  0  0  0  0  0  0
    6.7073   -1.7279    0.6020 H   0  0  0  0  0  0  0  0  0  0  0  0
    8.0964   -3.1649   -0.7568 H   0  0  0  0  0  0  0  0  0  0  0  0
    8.3857   -1.5397   -2.2080 H   0  0  0  0  0  0  0  0  0  0  0  0
    6.7654   -0.8878   -1.9707 H   0  0  0  0  0  0  0  0  0  0  0  0
    7.5525   -2.0588   -4.3335 H   0  0  0  0  0  0  0  0  0  0  0  0
    5.8792   -2.1276   -3.7619 H   0  0  0  0  0  0  0  0  0  0  0  0
    7.9761   -4.1461   -3.4948 H   0  0  0  0  0  0  0  0  0  0  0  0
    7.1071   -5.0406   -1.6079 H   0  0  0  0  0  0  0  0  0  0  0  0
    5.5436   -4.2790   -1.9047 H   0  0  0  0  0  0  0  0  0  0  0  0
  1  2  1  0  0  0  0
  1 25  1  0  0  0  0
  1 26  1  0  0  0  0
  2  3  1  0  0  0  0
  2  7  2  0  0  0  0
  3  4  2  0  0  0  0
  4  5  1  0  0  0  0
  4 27  1  0  0  0  0
  5  6  2  0  0  0  0
  6  7  1  0  0  0  0
  6 18  1  0  0  0  0
  7  8  1  0  0  0  0
  8  9  1  0  0  0  0
  8 17  2  0  0  0  0
  9 10  1  0  0  0  0
  9 16  2  0  0  0  0
 10 11  2  0  0  0  0
 10 28  1  0  0  0  0
 11 12  1  0  0  0  0
 11 29  1  0  0  0  0
 12 13  1  0  0  0  0
 12 14  2  0  0  0  0
 14 15  1  0  0  0  0
 14 16  1  0  0  0  0
 15 30  1  0  0  0  0
 16 31  1  0  0  0  0
 17 18  1  0  0  0  0
 18 19  1  0  0  0  0
 19 20  1  0  0  0  0
 19 32  1  0  0  0  0
 19 33  1  0  0  0  0
 20 21  1  0  0  0  0
 20 24  1  0  0  0  0
 20 34  1  0  0  0  0
 21 22  1  0  0  0  0
 21 35  1  0  0  0  0
 21 36  1  0  0  0  0
 22 23  1  0  0  0  0
 22 37  1  0  0  0  0
 22 38  1  0  0  0  0
 23 24  1  0  0  0  0
 23 39  1  0  0  0  0
 24 40  1  0  0  0  0
 24 41  1  0  0  0  0
M  END
$$$$
