CHEMBL2018764
 OpenBabel04072215363D

 56 59  0  0  0  0  0  0  0  0999 V2000
    2.3125   -0.3367    9.3238 C   0  0  0  0  0  0  0  0  0  0  0  0
    3.6330   -0.2715    8.7924 O   0  0  0  0  0  0  0  0  0  0  0  0
    3.7462    0.1377    7.4894 C   0  0  0  0  0  0  0  0  0  0  0  0
    2.6812    0.4705    6.6535 C   0  0  0  0  0  0  0  0  0  0  0  0
    2.9219    0.8775    5.3426 C   0  0  0  0  0  0  0  0  0  0  0  0
    4.2265    0.9598    4.8589 C   0  0  0  0  0  0  0  0  0  0  0  0
    5.3048    0.6480    5.6827 C   0  0  0  0  0  0  0  0  0  0  0  0
    6.6497    0.7687    5.2771 N   0  0  0  0  0  0  0  0  0  0  0  0
    7.1351    1.2950    4.1007 C   0  0  0  0  0  0  0  0  0  0  0  0
    6.4653    1.7259    3.1651 O   0  0  0  0  0  0  0  0  0  0  0  0
    8.5006    1.4671    4.0403 N   0  0  0  0  0  0  0  0  0  0  0  0
    9.4599    1.0146    4.9513 C   0  0  0  0  0  0  0  0  0  0  0  0
    9.4782   -0.3100    5.3813 C   0  0  0  0  0  0  0  0  0  0  0  0
   10.3740   -0.7123    6.3751 C   0  0  0  0  0  0  0  0  0  0  0  0
   11.2359    0.2033    6.9846 C   0  0  0  0  0  0  0  0  0  0  0  0
   12.1442   -0.1121    8.0226 N   0  0  0  0  0  0  0  0  0  0  0  0
   12.3789   -1.3272    8.7191 C   0  0  0  0  0  0  0  0  0  0  0  0
   11.7721   -2.4518    8.2993 N   0  0  0  0  0  0  0  0  0  0  0  0
   12.0546   -3.5884    8.9375 C   0  0  0  0  0  0  0  0  0  0  0  0
   12.8967   -3.7166    9.9604 N   0  0  0  0  0  0  0  0  0  0  0  0
   13.5009   -2.6047   10.3779 C   0  0  0  0  0  0  0  0  0  0  0  0
   14.3567   -2.7273   11.4603 C   0  0  0  0  0  0  0  0  0  0  0  0
   15.0078   -1.6330   12.0448 C   0  0  0  0  0  0  0  0  0  0  0  0
   15.8138   -1.7622   13.1442 O   0  0  0  0  0  0  0  0  0  0  0  0
   15.8735   -3.0350   13.7807 C   0  0  0  0  0  0  0  0  0  0  0  0
   14.8287   -0.3675   11.4739 C   0  0  0  0  0  0  0  0  0  0  0  0
   15.3544    0.8337   11.8720 O   0  0  0  0  0  0  0  0  0  0  0  0
   16.0915    0.8888   13.0860 C   0  0  0  0  0  0  0  0  0  0  0  0
   14.0027   -0.2420   10.3438 C   0  0  0  0  0  0  0  0  0  0  0  0
   13.2998   -1.3496    9.7961 C   0  0  0  0  0  0  0  0  0  0  0  0
   11.2602    1.5126    6.4690 C   0  0  0  0  0  0  0  0  0  0  0  0
   10.3975    1.9134    5.4435 C   0  0  0  0  0  0  0  0  0  0  0  0
    5.0545    0.2219    6.9958 C   0  0  0  0  0  0  0  0  0  0  0  0
    2.3823   -0.6200   10.3783 H   0  0  0  0  0  0  0  0  0  0  0  0
    1.7217   -1.1031    8.8104 H   0  0  0  0  0  0  0  0  0  0  0  0
    1.8163    0.6391    9.2781 H   0  0  0  0  0  0  0  0  0  0  0  0
    1.6509    0.4276    6.9881 H   0  0  0  0  0  0  0  0  0  0  0  0
    2.0917    1.1405    4.6928 H   0  0  0  0  0  0  0  0  0  0  0  0
    4.3662    1.2838    3.8335 H   0  0  0  0  0  0  0  0  0  0  0  0
    7.3323    0.5940    5.9986 H   0  0  0  0  0  0  0  0  0  0  0  0
    8.7485    2.2185    3.4081 H   0  0  0  0  0  0  0  0  0  0  0  0
    8.8097   -1.0472    4.9408 H   0  0  0  0  0  0  0  0  0  0  0  0
   10.3445   -1.7537    6.6737 H   0  0  0  0  0  0  0  0  0  0  0  0
   12.2380    0.6831    8.6433 H   0  0  0  0  0  0  0  0  0  0  0  0
   11.5470   -4.4833    8.6041 H   0  0  0  0  0  0  0  0  0  0  0  0
   14.4891   -3.7328   11.8489 H   0  0  0  0  0  0  0  0  0  0  0  0
   16.4884   -2.9350   14.6796 H   0  0  0  0  0  0  0  0  0  0  0  0
   16.3541   -3.7722   13.1293 H   0  0  0  0  0  0  0  0  0  0  0  0
   14.8793   -3.3712   14.0960 H   0  0  0  0  0  0  0  0  0  0  0  0
   16.3386    1.9380   13.2779 H   0  0  0  0  0  0  0  0  0  0  0  0
   17.0375    0.3465   12.9950 H   0  0  0  0  0  0  0  0  0  0  0  0
   15.4958    0.5404   13.9362 H   0  0  0  0  0  0  0  0  0  0  0  0
   13.9002    0.7484    9.9066 H   0  0  0  0  0  0  0  0  0  0  0  0
   11.9506    2.2463    6.8782 H   0  0  0  0  0  0  0  0  0  0  0  0
   10.4188    2.9436    5.0986 H   0  0  0  0  0  0  0  0  0  0  0  0
    5.8754   -0.0369    7.6621 H   0  0  0  0  0  0  0  0  0  0  0  0
  1  2  1  0  0  0  0
  1 34  1  0  0  0  0
  1 35  1  0  0  0  0
  1 36  1  0  0  0  0
  2  3  1  0  0  0  0
  3  4  1  0  0  0  0
  3 33  2  0  0  0  0
  4  5  2  0  0  0  0
  4 37  1  0  0  0  0
  5  6  1  0  0  0  0
  5 38  1  0  0  0  0
  6  7  2  0  0  0  0
  6 39  1  0  0  0  0
  7  8  1  0  0  0  0
  7 33  1  0  0  0  0
  8  9  1  0  0  0  0
  8 40  1  0  0  0  0
  9 10  2  0  0  0  0
  9 11  1  0  0  0  0
 11 12  1  0  0  0  0
 11 41  1  0  0  0  0
 12 13  1  0  0  0  0
 12 32  2  0  0  0  0
 13 14  2  0  0  0  0
 13 42  1  0  0  0  0
 14 15  1  0  0  0  0
 14 43  1  0  0  0  0
 15 16  1  0  0  0  0
 15 31  2  0  0  0  0
 16 17  1  0  0  0  0
 16 44  1  0  0  0  0
 17 18  1  0  0  0  0
 17 30  2  0  0  0  0
 18 19  2  0  0  0  0
 19 20  1  0  0  0  0
 19 45  1  0  0  0  0
 20 21  2  0  0  0  0
 21 22  1  0  0  0  0
 21 30  1  0  0  0  0
 22 23  2  0  0  0  0
 22 46  1  0  0  0  0
 23 24  1  0  0  0  0
 23 26  1  0  0  0  0
 24 25  1  0  0  0  0
 25 47  1  0  0  0  0
 25 48  1  0  0  0  0
 25 49  1  0  0  0  0
 26 27  1  0  0  0  0
 26 29  2  0  0  0  0
 27 28  1  0  0  0  0
 28 50  1  0  0  0  0
 28 51  1  0  0  0  0
 28 52  1  0  0  0  0
 29 30  1  0  0  0  0
 29 53  1  0  0  0  0
 31 32  1  0  0  0  0
 31 54  1  0  0  0  0
 32 55  1  0  0  0  0
 33 56  1  0  0  0  0
M  END
$$$$
