CHEMBL4228120
 OpenBabel04072215383D

 48 51  0  0  0  0  0  0  0  0999 V2000
    1.2755   -0.7923    0.9544 O   0  0  0  0  0  0  0  0  0  0  0  0
    2.3772   -0.4675    0.5113 C   0  0  0  0  0  0  0  0  0  0  0  0
    2.8387    0.8377    0.4686 N   0  0  0  0  0  0  0  0  0  0  0  0
    2.0733    1.8628    0.9480 N   0  0  0  0  0  0  0  0  0  0  0  0
    2.6470    3.0241    0.9080 C   0  0  0  0  0  0  0  0  0  0  0  0
    1.9731    4.2452    1.3890 C   0  0  0  0  0  0  0  0  0  0  0  0
    0.6803    4.1446    1.9251 C   0  0  0  0  0  0  0  0  0  0  0  0
    0.0356    5.2915    2.3749 C   0  0  0  0  0  0  0  0  0  0  0  0
   -1.1987    5.1964    2.8856 F   0  0  0  0  0  0  0  0  0  0  0  0
    0.6620    6.5298    2.2980 C   0  0  0  0  0  0  0  0  0  0  0  0
    0.0358    7.6320    2.7326 F   0  0  0  0  0  0  0  0  0  0  0  0
    1.9423    6.6428    1.7715 C   0  0  0  0  0  0  0  0  0  0  0  0
    2.6070    5.5010    1.3127 C   0  0  0  0  0  0  0  0  0  0  0  0
    4.1935    5.7144    0.6736 Cl  0  0  0  0  0  0  0  0  0  0  0  0
    3.2883   -1.4051    0.0167 N   0  0  0  0  0  0  0  0  0  0  0  0
    2.9459   -2.8268    0.1744 C   0  0  0  0  0  0  0  0  0  0  0  0
    4.2114   -3.6409    0.4106 C   0  0  0  0  0  0  0  0  0  0  0  0
    4.9985   -3.5259   -0.8667 C   0  0  0  0  0  0  0  0  0  0  0  0
    5.3921   -4.6471   -1.4932 N   0  0  0  0  0  0  0  0  0  0  0  0
    5.9763   -4.4612   -2.6817 C   0  0  0  0  0  0  0  0  0  0  0  0
    6.2363   -3.2769   -3.2549 N   0  0  0  0  0  0  0  0  0  0  0  0
    5.8365   -2.1718   -2.5975 C   0  0  0  0  0  0  0  0  0  0  0  0
    6.1627   -0.9017   -3.1299 N   0  0  0  0  0  0  0  0  0  0  0  0
    6.2388   -0.6024   -4.5094 C   0  0  0  0  0  0  0  0  0  0  0  0
    7.0975    0.4097   -4.9616 C   0  0  0  0  0  0  0  0  0  0  0  0
    7.1189    0.7750   -6.3103 C   0  0  0  0  0  0  0  0  0  0  0  0
    6.2596    0.1504   -7.2082 C   0  0  0  0  0  0  0  0  0  0  0  0
    6.2896    0.5243   -8.4957 F   0  0  0  0  0  0  0  0  0  0  0  0
    5.3763   -0.8312   -6.7728 C   0  0  0  0  0  0  0  0  0  0  0  0
    4.2843   -1.5857   -7.8684 Cl  0  0  0  0  0  0  0  0  0  0  0  0
    5.3600   -1.1993   -5.4279 C   0  0  0  0  0  0  0  0  0  0  0  0
    5.1654   -2.2513   -1.3910 C   0  0  0  0  0  0  0  0  0  0  0  0
    4.5597   -1.0839   -0.6669 C   0  0  0  0  0  0  0  0  0  0  0  0
    3.8191    1.0134    0.3190 H   0  0  0  0  0  0  0  0  0  0  0  0
    3.6667    3.1267    0.5002 H   0  0  0  0  0  0  0  0  0  0  0  0
    0.1688    3.1881    1.9949 H   0  0  0  0  0  0  0  0  0  0  0  0
    2.4109    7.6212    1.7193 H   0  0  0  0  0  0  0  0  0  0  0  0
    2.4398   -3.1391   -0.7491 H   0  0  0  0  0  0  0  0  0  0  0  0
    2.2405   -2.9667    0.9983 H   0  0  0  0  0  0  0  0  0  0  0  0
    4.8005   -3.2076    1.2304 H   0  0  0  0  0  0  0  0  0  0  0  0
    3.9912   -4.6817    0.6598 H   0  0  0  0  0  0  0  0  0  0  0  0
    6.2636   -5.3491   -3.2347 H   0  0  0  0  0  0  0  0  0  0  0  0
    6.9591   -0.5359   -2.6163 H   0  0  0  0  0  0  0  0  0  0  0  0
    7.7661    0.9199   -4.2712 H   0  0  0  0  0  0  0  0  0  0  0  0
    7.7937    1.5466   -6.6666 H   0  0  0  0  0  0  0  0  0  0  0  0
    4.6514   -1.9524   -5.0912 H   0  0  0  0  0  0  0  0  0  0  0  0
    4.3818   -0.2422   -1.3435 H   0  0  0  0  0  0  0  0  0  0  0  0
    5.2624   -0.7536    0.1098 H   0  0  0  0  0  0  0  0  0  0  0  0
  1  2  2  0  0  0  0
  2  3  1  0  0  0  0
  2 15  1  0  0  0  0
  3  4  1  0  0  0  0
  3 34  1  0  0  0  0
  4  5  2  0  0  0  0
  5  6  1  0  0  0  0
  5 35  1  0  0  0  0
  6  7  1  0  0  0  0
  6 13  2  0  0  0  0
  7  8  2  0  0  0  0
  7 36  1  0  0  0  0
  8  9  1  0  0  0  0
  8 10  1  0  0  0  0
 10 11  1  0  0  0  0
 10 12  2  0  0  0  0
 12 13  1  0  0  0  0
 12 37  1  0  0  0  0
 13 14  1  0  0  0  0
 15 16  1  0  0  0  0
 15 33  1  0  0  0  0
 16 17  1  0  0  0  0
 16 38  1  0  0  0  0
 16 39  1  0  0  0  0
 17 18  1  0  0  0  0
 17 40  1  0  0  0  0
 17 41  1  0  0  0  0
 18 19  1  0  0  0  0
 18 32  2  0  0  0  0
 19 20  2  0  0  0  0
 20 21  1  0  0  0  0
 20 42  1  0  0  0  0
 21 22  2  0  0  0  0
 22 23  1  0  0  0  0
 22 32  1  0  0  0  0
 23 24  1  0  0  0  0
 23 43  1  0  0  0  0
 24 25  1  0  0  0  0
 24 31  2  0  0  0  0
 25 26  2  0  0  0  0
 25 44  1  0  0  0  0
 26 27  1  0  0  0  0
 26 45  1  0  0  0  0
 27 28  1  0  0  0  0
 27 29  2  0  0  0  0
 29 30  1  0  0  0  0
 29 31  1  0  0  0  0
 31 46  1  0  0  0  0
 32 33  1  0  0  0  0
 33 47  1  0  0  0  0
 33 48  1  0  0  0  0
M  END
$$$$
