CHEMBL469455
 OpenBabel04072215383D

 56 60  0  0  0  0  0  0  0  0999 V2000
    3.1943    1.1629    4.1187 C   0  0  0  0  0  0  0  0  0  0  0  0
    3.4560    0.2093    3.0686 N   0  0  0  0  0  0  0  0  0  0  0  0
    2.5319   -0.4558    2.3172 C   0  0  0  0  0  0  0  0  0  0  0  0
    3.2498   -1.2176    1.4210 C   0  0  0  0  0  0  0  0  0  0  0  0
    2.7500   -2.0958    0.3691 C   0  0  0  0  0  0  0  0  0  0  0  0
    1.3754   -2.3128    0.1046 C   0  0  0  0  0  0  0  0  0  0  0  0
    1.2929   -3.1646   -0.9725 C   0  0  0  0  0  0  0  0  0  0  0  0
    2.5714   -3.5078   -1.3713 N   0  0  0  0  0  0  0  0  0  0  0  0
    2.9783   -4.3792   -2.4157 C   0  0  0  0  0  0  0  0  0  0  0  0
    1.9987   -4.9754   -3.2087 N   0  0  0  0  0  0  0  0  0  0  0  0
    4.3064   -4.5845   -2.5774 C   0  0  0  0  0  0  0  0  0  0  0  0
    4.9051   -5.4630   -3.5906 C   0  0  0  0  0  0  0  0  0  0  0  0
    5.1745   -4.9685   -4.8653 C   0  0  0  0  0  0  0  0  0  0  0  0
    5.8115   -5.7734   -5.8149 C   0  0  0  0  0  0  0  0  0  0  0  0
    6.2065   -7.0828   -5.5122 C   0  0  0  0  0  0  0  0  0  0  0  0
    6.9363   -7.8886   -6.4273 N   0  0  0  0  0  0  0  0  0  0  0  0
    7.7003   -7.3800   -7.4644 C   0  0  0  0  0  0  0  0  0  0  0  0
    7.8814   -6.1810   -7.6769 O   0  0  0  0  0  0  0  0  0  0  0  0
    8.2388   -8.3714   -8.2780 N   0  0  0  0  0  0  0  0  0  0  0  0
    9.0102   -7.9844   -9.4047 C   0  0  0  0  0  0  0  0  0  0  0  0
    8.6529   -8.4560  -10.6675 C   0  0  0  0  0  0  0  0  0  0  0  0
    9.2947   -7.9474  -11.7992 C   0  0  0  0  0  0  0  0  0  0  0  0
   10.3365   -7.0309  -11.6644 C   0  0  0  0  0  0  0  0  0  0  0  0
   10.9097   -6.5555  -12.7769 F   0  0  0  0  0  0  0  0  0  0  0  0
   10.7713   -6.6142  -10.4111 C   0  0  0  0  0  0  0  0  0  0  0  0
   11.9496   -5.6988  -10.2636 C   0  0  0  0  0  0  0  0  0  0  0  0
   12.5241   -5.3044  -11.4337 F   0  0  0  0  0  0  0  0  0  0  0  0
   11.6483   -4.5493   -9.5973 F   0  0  0  0  0  0  0  0  0  0  0  0
   12.9559   -6.2825   -9.5484 F   0  0  0  0  0  0  0  0  0  0  0  0
   10.0827   -7.0869   -9.2788 C   0  0  0  0  0  0  0  0  0  0  0  0
    5.8762   -7.6012   -4.2535 C   0  0  0  0  0  0  0  0  0  0  0  0
    5.2399   -6.7922   -3.2982 C   0  0  0  0  0  0  0  0  0  0  0  0
    5.1952   -3.8133   -1.6521 C   0  0  0  0  0  0  0  0  0  0  0  0
    4.8286   -3.0105   -0.7034 N   0  0  0  0  0  0  0  0  0  0  0  0
    3.4801   -2.8512   -0.5387 C   0  0  0  0  0  0  0  0  0  0  0  0
    4.5981   -0.9476    1.7285 C   0  0  0  0  0  0  0  0  0  0  0  0
    4.7277   -0.0781    2.7386 N   0  0  0  0  0  0  0  0  0  0  0  0
    2.1214    1.1922    4.3237 H   0  0  0  0  0  0  0  0  0  0  0  0
    3.5380    2.1444    3.7827 H   0  0  0  0  0  0  0  0  0  0  0  0
    3.7357    0.8510    5.0153 H   0  0  0  0  0  0  0  0  0  0  0  0
    1.4707   -0.3230    2.4712 H   0  0  0  0  0  0  0  0  0  0  0  0
    0.5320   -1.8864    0.6298 H   0  0  0  0  0  0  0  0  0  0  0  0
    0.4246   -3.5516   -1.4875 H   0  0  0  0  0  0  0  0  0  0  0  0
    1.1250   -5.1579   -2.7240 H   0  0  0  0  0  0  0  0  0  0  0  0
    2.3299   -5.7858   -3.7275 H   0  0  0  0  0  0  0  0  0  0  0  0
    4.9120   -3.9467   -5.1341 H   0  0  0  0  0  0  0  0  0  0  0  0
    5.9906   -5.3392   -6.7937 H   0  0  0  0  0  0  0  0  0  0  0  0
    7.1495   -8.8338   -6.1424 H   0  0  0  0  0  0  0  0  0  0  0  0
    7.6227   -9.1622   -8.4078 H   0  0  0  0  0  0  0  0  0  0  0  0
    7.8271   -9.1493  -10.7966 H   0  0  0  0  0  0  0  0  0  0  0  0
    8.9762   -8.2415  -12.7953 H   0  0  0  0  0  0  0  0  0  0  0  0
   10.3824   -6.7370   -8.2897 H   0  0  0  0  0  0  0  0  0  0  0  0
    6.1422   -8.6192   -3.9835 H   0  0  0  0  0  0  0  0  0  0  0  0
    5.0296   -7.2020   -2.3109 H   0  0  0  0  0  0  0  0  0  0  0  0
    6.2779   -3.9557   -1.8143 H   0  0  0  0  0  0  0  0  0  0  0  0
    5.4904   -1.3411    1.2597 H   0  0  0  0  0  0  0  0  0  0  0  0
  1  2  1  0  0  0  0
  1 38  1  0  0  0  0
  1 39  1  0  0  0  0
  1 40  1  0  0  0  0
  2  3  1  0  0  0  0
  2 37  1  0  0  0  0
  3  4  2  0  0  0  0
  3 41  1  0  0  0  0
  4  5  1  0  0  0  0
  4 36  1  0  0  0  0
  5  6  1  0  0  0  0
  5 35  2  0  0  0  0
  6  7  2  0  0  0  0
  6 42  1  0  0  0  0
  7  8  1  0  0  0  0
  7 43  1  0  0  0  0
  8  9  1  0  0  0  0
  8 35  1  0  0  0  0
  9 10  1  0  0  0  0
  9 11  2  0  0  0  0
 10 44  1  0  0  0  0
 10 45  1  0  0  0  0
 11 12  1  0  0  0  0
 11 33  1  0  0  0  0
 12 13  1  0  0  0  0
 12 32  2  0  0  0  0
 13 14  2  0  0  0  0
 13 46  1  0  0  0  0
 14 15  1  0  0  0  0
 14 47  1  0  0  0  0
 15 16  1  0  0  0  0
 15 31  2  0  0  0  0
 16 17  1  0  0  0  0
 16 48  1  0  0  0  0
 17 18  2  0  0  0  0
 17 19  1  0  0  0  0
 19 20  1  0  0  0  0
 19 49  1  0  0  0  0
 20 21  1  0  0  0  0
 20 30  2  0  0  0  0
 21 22  2  0  0  0  0
 21 50  1  0  0  0  0
 22 23  1  0  0  0  0
 22 51  1  0  0  0  0
 23 24  1  0  0  0  0
 23 25  2  0  0  0  0
 25 26  1  0  0  0  0
 25 30  1  0  0  0  0
 26 27  1  0  0  0  0
 26 28  1  0  0  0  0
 26 29  1  0  0  0  0
 30 52  1  0  0  0  0
 31 32  1  0  0  0  0
 31 53  1  0  0  0  0
 32 54  1  0  0  0  0
 33 34  2  0  0  0  0
 33 55  1  0  0  0  0
 34 35  1  0  0  0  0
 36 37  2  0  0  0  0
 36 56  1  0  0  0  0
M  END
$$$$
