CHEMBL96569
 OpenBabel04072215383D

 37 40  0  0  0  0  0  0  0  0999 V2000
    0.7291   -0.2766    1.0871 C   0  0  0  0  0  0  0  0  0  0  0  0
    1.3729   -0.5855   -0.0562 C   0  0  0  0  0  0  0  0  0  0  0  0
    2.7281   -1.0553   -0.0906 C   0  0  0  0  0  0  0  0  0  0  0  0
    3.7710   -0.7520    0.8098 C   0  0  0  0  0  0  0  0  0  0  0  0
    4.9133   -1.3773    0.5243 N   0  0  0  0  0  0  0  0  0  0  0  0
    4.6229   -2.1133   -0.5748 N   0  0  0  0  0  0  0  0  0  0  0  0
    5.4749   -2.9803   -1.2511 C   0  0  0  0  0  0  0  0  0  0  0  0
    5.0450   -3.6487   -2.3328 C   0  0  0  0  0  0  0  0  0  0  0  0
    5.8852   -4.5764   -3.0829 C   0  0  0  0  0  0  0  0  0  0  0  0
    5.9273   -5.9279   -2.7391 C   0  0  0  0  0  0  0  0  0  0  0  0
    6.7363   -6.7676   -3.4858 C   0  0  0  0  0  0  0  0  0  0  0  0
    7.4877   -6.3524   -4.5276 N   0  0  0  0  0  0  0  0  0  0  0  0
    7.4334   -5.0394   -4.8363 C   0  0  0  0  0  0  0  0  0  0  0  0
    6.6566   -4.1207   -4.1519 C   0  0  0  0  0  0  0  0  0  0  0  0
    3.6291   -3.3685   -2.7204 C   0  0  0  0  0  0  0  0  0  0  0  0
    2.8062   -2.5703   -2.1089 N   0  0  0  0  0  0  0  0  0  0  0  0
    3.3001   -1.9256   -1.0017 C   0  0  0  0  0  0  0  0  0  0  0  0
    0.6978   -0.4272   -1.4038 C   0  0  0  0  0  0  0  0  0  0  0  0
   -0.5755    0.4246   -1.3516 C   0  0  0  0  0  0  0  0  0  0  0  0
   -1.4483    0.0289   -0.1674 C   0  0  0  0  0  0  0  0  0  0  0  0
   -0.6932    0.1993    1.1491 C   0  0  0  0  0  0  0  0  0  0  0  0
    1.2275   -0.3838    2.0475 H   0  0  0  0  0  0  0  0  0  0  0  0
    3.7440   -0.0938    1.6693 H   0  0  0  0  0  0  0  0  0  0  0  0
    6.4724   -3.0688   -0.8406 H   0  0  0  0  0  0  0  0  0  0  0  0
    5.3480   -6.3259   -1.9126 H   0  0  0  0  0  0  0  0  0  0  0  0
    6.8036   -7.8286   -3.2603 H   0  0  0  0  0  0  0  0  0  0  0  0
    8.0515   -4.7357   -5.6771 H   0  0  0  0  0  0  0  0  0  0  0  0
    6.6586   -3.0777   -4.4510 H   0  0  0  0  0  0  0  0  0  0  0  0
    3.2697   -3.9032   -3.6166 H   0  0  0  0  0  0  0  0  0  0  0  0
    0.4295   -1.4191   -1.7877 H   0  0  0  0  0  0  0  0  0  0  0  0
    1.3808    0.0357   -2.1271 H   0  0  0  0  0  0  0  0  0  0  0  0
   -1.1351    0.3051   -2.2863 H   0  0  0  0  0  0  0  0  0  0  0  0
   -0.3083    1.4861   -1.2726 H   0  0  0  0  0  0  0  0  0  0  0  0
   -1.7613   -1.0172   -0.2794 H   0  0  0  0  0  0  0  0  0  0  0  0
   -2.3620    0.6336   -0.1507 H   0  0  0  0  0  0  0  0  0  0  0  0
   -1.2238   -0.3458    1.9379 H   0  0  0  0  0  0  0  0  0  0  0  0
   -0.6884    1.2570    1.4381 H   0  0  0  0  0  0  0  0  0  0  0  0
  1  2  2  0  0  0  0
  1 21  1  0  0  0  0
  1 22  1  0  0  0  0
  2  3  1  0  0  0  0
  2 18  1  0  0  0  0
  3  4  1  0  0  0  0
  3 17  2  0  0  0  0
  4  5  2  0  0  0  0
  4 23  1  0  0  0  0
  5  6  1  0  0  0  0
  6  7  1  0  0  0  0
  6 17  1  0  0  0  0
  7  8  2  0  0  0  0
  7 24  1  0  0  0  0
  8  9  1  0  0  0  0
  8 15  1  0  0  0  0
  9 10  1  0  0  0  0
  9 14  2  0  0  0  0
 10 11  2  0  0  0  0
 10 25  1  0  0  0  0
 11 12  1  0  0  0  0
 11 26  1  0  0  0  0
 12 13  2  0  0  0  0
 13 14  1  0  0  0  0
 13 27  1  0  0  0  0
 14 28  1  0  0  0  0
 15 16  2  0  0  0  0
 15 29  1  0  0  0  0
 16 17  1  0  0  0  0
 18 19  1  0  0  0  0
 18 30  1  0  0  0  0
 18 31  1  0  0  0  0
 19 20  1  0  0  0  0
 19 32  1  0  0  0  0
 19 33  1  0  0  0  0
 20 21  1  0  0  0  0
 20 34  1  0  0  0  0
 20 35  1  0  0  0  0
 21 36  1  0  0  0  0
 21 37  1  0  0  0  0
M  END
$$$$
