CHEMBL453057
 OpenBabel04072215383D

 56 60  0  0  0  0  0  0  0  0999 V2000
    2.3686   -0.4027    1.4695 C   0  0  0  0  0  0  0  0  0  0  0  0
    0.8714   -0.3079    1.4370 C   0  0  0  0  0  0  0  0  0  0  0  0
    0.2556    0.8770    1.8490 C   0  0  0  0  0  0  0  0  0  0  0  0
   -1.1257    0.9867    1.8260 C   0  0  0  0  0  0  0  0  0  0  0  0
   -1.9032   -0.0884    1.3890 C   0  0  0  0  0  0  0  0  0  0  0  0
   -1.3309   -1.2832    0.9639 C   0  0  0  0  0  0  0  0  0  0  0  0
   -2.1033   -2.3935    0.5142 N   0  0  0  0  0  0  0  0  0  0  0  0
   -3.4930   -2.4045    0.3658 C   0  0  0  0  0  0  0  0  0  0  0  0
   -4.2245   -1.4390    0.5570 O   0  0  0  0  0  0  0  0  0  0  0  0
   -3.9964   -3.6565    0.0168 N   0  0  0  0  0  0  0  0  0  0  0  0
   -5.4061   -3.8077   -0.1155 C   0  0  0  0  0  0  0  0  0  0  0  0
   -6.1561   -2.9408   -0.9206 C   0  0  0  0  0  0  0  0  0  0  0  0
   -7.5560   -3.0115   -0.9426 C   0  0  0  0  0  0  0  0  0  0  0  0
   -8.2282   -3.9417   -0.1444 C   0  0  0  0  0  0  0  0  0  0  0  0
   -9.7006   -3.9568   -0.0883 C   0  0  0  0  0  0  0  0  0  0  0  0
  -10.4178   -3.1385    0.9438 C   0  0  0  0  0  0  0  0  0  0  0  0
  -11.6995   -3.0641    1.1372 N   0  0  0  0  0  0  0  0  0  0  0  0
  -12.4809   -3.8118    0.3000 C   0  0  0  0  0  0  0  0  0  0  0  0
  -13.8569   -3.9805    0.2230 C   0  0  0  0  0  0  0  0  0  0  0  0
  -14.9070   -3.3750    1.0378 C   0  0  0  0  0  0  0  0  0  0  0  0
  -14.7431   -2.4725    2.1080 C   0  0  0  0  0  0  0  0  0  0  0  0
  -15.9117   -2.1041    2.6516 N   0  0  0  0  0  0  0  0  0  0  0  0
  -16.8214   -2.7723    1.9207 N   0  0  0  0  0  0  0  0  0  0  0  0
  -18.2282   -2.6427    2.2111 C   0  0  0  0  0  0  0  0  0  0  0  0
  -16.2705   -3.5456    0.9390 C   0  0  0  0  0  0  0  0  0  0  0  0
  -14.1239   -4.8896   -0.8308 C   0  0  0  0  0  0  0  0  0  0  0  0
  -12.9174   -5.2382   -1.3901 C   0  0  0  0  0  0  0  0  0  0  0  0
  -11.9042   -4.5934   -0.7067 N   0  0  0  0  0  0  0  0  0  0  0  0
  -10.5006   -4.6710   -0.9151 C   0  0  0  0  0  0  0  0  0  0  0  0
  -10.0252   -5.4793   -1.9480 N   0  0  0  0  0  0  0  0  0  0  0  0
   -7.4732   -4.8403    0.6245 C   0  0  0  0  0  0  0  0  0  0  0  0
   -6.0686   -4.7898    0.6216 C   0  0  0  0  0  0  0  0  0  0  0  0
    0.0708   -1.3874    0.9929 C   0  0  0  0  0  0  0  0  0  0  0  0
    2.8156    0.5241    1.8555 H   0  0  0  0  0  0  0  0  0  0  0  0
    2.7667   -0.5604    0.4629 H   0  0  0  0  0  0  0  0  0  0  0  0
    2.6899   -1.2154    2.1271 H   0  0  0  0  0  0  0  0  0  0  0  0
    0.8460    1.7237    2.1915 H   0  0  0  0  0  0  0  0  0  0  0  0
   -1.6097    1.9063    2.1441 H   0  0  0  0  0  0  0  0  0  0  0  0
   -2.9801    0.0735    1.4061 H   0  0  0  0  0  0  0  0  0  0  0  0
   -1.6007   -3.2032    0.1729 H   0  0  0  0  0  0  0  0  0  0  0  0
   -3.5042   -4.4264    0.4471 H   0  0  0  0  0  0  0  0  0  0  0  0
   -5.6583   -2.1795   -1.5182 H   0  0  0  0  0  0  0  0  0  0  0  0
   -8.1107   -2.3109   -1.5641 H   0  0  0  0  0  0  0  0  0  0  0  0
   -9.7642   -2.5422    1.6035 H   0  0  0  0  0  0  0  0  0  0  0  0
  -13.8248   -2.0678    2.5167 H   0  0  0  0  0  0  0  0  0  0  0  0
  -18.3711   -1.9438    3.0388 H   0  0  0  0  0  0  0  0  0  0  0  0
  -18.6139   -3.6283    2.4829 H   0  0  0  0  0  0  0  0  0  0  0  0
  -18.7316   -2.2697    1.3158 H   0  0  0  0  0  0  0  0  0  0  0  0
  -16.8841   -4.1352    0.2736 H   0  0  0  0  0  0  0  0  0  0  0  0
  -15.0910   -5.2481   -1.1583 H   0  0  0  0  0  0  0  0  0  0  0  0
  -12.7033   -5.8907   -2.2231 H   0  0  0  0  0  0  0  0  0  0  0  0
  -10.6084   -6.2879   -2.1426 H   0  0  0  0  0  0  0  0  0  0  0  0
   -9.0435   -5.7283   -1.8503 H   0  0  0  0  0  0  0  0  0  0  0  0
   -7.9736   -5.5658    1.2632 H   0  0  0  0  0  0  0  0  0  0  0  0
   -5.5176   -5.4652    1.2698 H   0  0  0  0  0  0  0  0  0  0  0  0
    0.5656   -2.3046    0.6755 H   0  0  0  0  0  0  0  0  0  0  0  0
  1  2  1  0  0  0  0
  1 34  1  0  0  0  0
  1 35  1  0  0  0  0
  1 36  1  0  0  0  0
  2  3  1  0  0  0  0
  2 33  2  0  0  0  0
  3  4  2  0  0  0  0
  3 37  1  0  0  0  0
  4  5  1  0  0  0  0
  4 38  1  0  0  0  0
  5  6  2  0  0  0  0
  5 39  1  0  0  0  0
  6  7  1  0  0  0  0
  6 33  1  0  0  0  0
  7  8  1  0  0  0  0
  7 40  1  0  0  0  0
  8  9  2  0  0  0  0
  8 10  1  0  0  0  0
 10 11  1  0  0  0  0
 10 41  1  0  0  0  0
 11 12  1  0  0  0  0
 11 32  2  0  0  0  0
 12 13  2  0  0  0  0
 12 42  1  0  0  0  0
 13 14  1  0  0  0  0
 13 43  1  0  0  0  0
 14 15  1  0  0  0  0
 14 31  2  0  0  0  0
 15 16  1  0  0  0  0
 15 29  2  0  0  0  0
 16 17  2  0  0  0  0
 16 44  1  0  0  0  0
 17 18  1  0  0  0  0
 18 19  2  0  0  0  0
 18 28  1  0  0  0  0
 19 20  1  0  0  0  0
 19 26  1  0  0  0  0
 20 21  1  0  0  0  0
 20 25  2  0  0  0  0
 21 22  2  0  0  0  0
 21 45  1  0  0  0  0
 22 23  1  0  0  0  0
 23 24  1  0  0  0  0
 23 25  1  0  0  0  0
 24 46  1  0  0  0  0
 24 47  1  0  0  0  0
 24 48  1  0  0  0  0
 25 49  1  0  0  0  0
 26 27  2  0  0  0  0
 26 50  1  0  0  0  0
 27 28  1  0  0  0  0
 27 51  1  0  0  0  0
 28 29  1  0  0  0  0
 29 30  1  0  0  0  0
 30 52  1  0  0  0  0
 30 53  1  0  0  0  0
 31 32  1  0  0  0  0
 31 54  1  0  0  0  0
 32 55  1  0  0  0  0
 33 56  1  0  0  0  0
M  END
$$$$
