CHEMBL3694688
 OpenBabel04072215373D

 51 54  0  0  0  0  0  0  0  0999 V2000
    2.4076    0.2783   -1.4482 O   0  0  0  0  0  0  0  0  0  0  0  0
    2.0968    0.4541   -0.2689 C   0  0  0  0  0  0  0  0  0  0  0  0
    0.7899    0.3337    0.1404 N   0  0  0  0  0  0  0  0  0  0  0  0
   -0.2623    0.1509   -0.8723 C   0  0  0  0  0  0  0  0  0  0  0  0
   -0.8108    1.4548   -1.4697 C   0  0  0  0  0  0  0  0  0  0  0  0
   -0.2170    2.5420   -0.9239 F   0  0  0  0  0  0  0  0  0  0  0  0
   -0.6434    1.5114   -2.8073 F   0  0  0  0  0  0  0  0  0  0  0  0
   -2.1402    1.5711   -1.2220 F   0  0  0  0  0  0  0  0  0  0  0  0
    2.9391    0.7547    0.7839 N   0  0  0  0  0  0  0  0  0  0  0  0
    4.3366    0.9629    0.7269 C   0  0  0  0  0  0  0  0  0  0  0  0
    5.0518    0.9298   -0.4614 C   0  0  0  0  0  0  0  0  0  0  0  0
    6.4458    1.0519   -0.5188 C   0  0  0  0  0  0  0  0  0  0  0  0
    7.1600    0.9573   -1.7926 C   0  0  0  0  0  0  0  0  0  0  0  0
    8.3319    1.5690   -2.2108 C   0  0  0  0  0  0  0  0  0  0  0  0
    8.6587    1.2353   -3.4972 N   0  0  0  0  0  0  0  0  0  0  0  0
    7.7082    0.4171   -3.8905 C   0  0  0  0  0  0  0  0  0  0  0  0
    7.5000   -0.2407   -5.1374 C   0  0  0  0  0  0  0  0  0  0  0  0
    6.4075   -1.0163   -5.3426 C   0  0  0  0  0  0  0  0  0  0  0  0
    6.1922   -1.6309   -6.6693 C   0  0  0  0  0  0  0  0  0  0  0  0
    4.9094   -1.8672   -7.1187 C   0  0  0  0  0  0  0  0  0  0  0  0
    4.8015   -2.4679   -8.3439 C   0  0  0  0  0  0  0  0  0  0  0  0
    5.8642   -2.8134   -9.0879 N   0  0  0  0  0  0  0  0  0  0  0  0
    7.0954   -2.5401   -8.5853 C   0  0  0  0  0  0  0  0  0  0  0  0
    8.3275   -2.9300   -9.4089 C   0  0  0  0  0  0  0  0  0  0  0  0
    8.0239   -3.5402  -10.5948 F   0  0  0  0  0  0  0  0  0  0  0  0
    9.1112   -1.8610   -9.7441 F   0  0  0  0  0  0  0  0  0  0  0  0
    9.1543   -3.8033   -8.7576 F   0  0  0  0  0  0  0  0  0  0  0  0
    7.2887   -1.9478   -7.3851 N   0  0  0  0  0  0  0  0  0  0  0  0
    5.4691   -1.2395   -4.2451 C   0  0  0  0  0  0  0  0  0  0  0  0
    5.6741   -0.6440   -3.0692 C   0  0  0  0  0  0  0  0  0  0  0  0
    6.7668    0.2022   -2.8901 N   0  0  0  0  0  0  0  0  0  0  0  0
    7.1304    1.3069    0.6656 C   0  0  0  0  0  0  0  0  0  0  0  0
    6.4327    1.4430    1.8752 C   0  0  0  0  0  0  0  0  0  0  0  0
    7.1708    1.8398    3.1277 C   0  0  0  0  0  0  0  0  0  0  0  0
    8.5074    2.0170    2.9360 F   0  0  0  0  0  0  0  0  0  0  0  0
    6.7106    3.0124    3.6451 F   0  0  0  0  0  0  0  0  0  0  0  0
    7.0505    0.9178    4.1206 F   0  0  0  0  0  0  0  0  0  0  0  0
    5.0362    1.2433    1.9001 C   0  0  0  0  0  0  0  0  0  0  0  0
    0.5347    0.9265    0.9183 H   0  0  0  0  0  0  0  0  0  0  0  0
   -1.0730   -0.4034   -0.3858 H   0  0  0  0  0  0  0  0  0  0  0  0
    0.1188   -0.4777   -1.6836 H   0  0  0  0  0  0  0  0  0  0  0  0
    2.5211    0.7527    1.7038 H   0  0  0  0  0  0  0  0  0  0  0  0
    4.5066    0.8333   -1.3878 H   0  0  0  0  0  0  0  0  0  0  0  0
    8.9524    2.2538   -1.6458 H   0  0  0  0  0  0  0  0  0  0  0  0
    8.2373   -0.0683   -5.9141 H   0  0  0  0  0  0  0  0  0  0  0  0
    4.0272   -1.5999   -6.5522 H   0  0  0  0  0  0  0  0  0  0  0  0
    3.8307   -2.6974   -8.7691 H   0  0  0  0  0  0  0  0  0  0  0  0
    4.6148   -1.8949   -4.3683 H   0  0  0  0  0  0  0  0  0  0  0  0
    4.9880   -0.8264   -2.2584 H   0  0  0  0  0  0  0  0  0  0  0  0
    8.2141    1.4173    0.6529 H   0  0  0  0  0  0  0  0  0  0  0  0
    4.5045    1.3443    2.8405 H   0  0  0  0  0  0  0  0  0  0  0  0
  1  2  2  0  0  0  0
  2  3  1  0  0  0  0
  2  9  1  0  0  0  0
  3  4  1  0  0  0  0
  3 39  1  0  0  0  0
  4  5  1  0  0  0  0
  4 40  1  0  0  0  0
  4 41  1  0  0  0  0
  5  6  1  0  0  0  0
  5  7  1  0  0  0  0
  5  8  1  0  0  0  0
  9 10  1  0  0  0  0
  9 42  1  0  0  0  0
 10 11  1  0  0  0  0
 10 38  2  0  0  0  0
 11 12  2  0  0  0  0
 11 43  1  0  0  0  0
 12 13  1  0  0  0  0
 12 32  1  0  0  0  0
 13 14  2  0  0  0  0
 13 31  1  0  0  0  0
 14 15  1  0  0  0  0
 14 44  1  0  0  0  0
 15 16  2  0  0  0  0
 16 17  1  0  0  0  0
 16 31  1  0  0  0  0
 17 18  2  0  0  0  0
 17 45  1  0  0  0  0
 18 19  1  0  0  0  0
 18 29  1  0  0  0  0
 19 20  1  0  0  0  0
 19 28  2  0  0  0  0
 20 21  2  0  0  0  0
 20 46  1  0  0  0  0
 21 22  1  0  0  0  0
 21 47  1  0  0  0  0
 22 23  2  0  0  0  0
 23 24  1  0  0  0  0
 23 28  1  0  0  0  0
 24 25  1  0  0  0  0
 24 26  1  0  0  0  0
 24 27  1  0  0  0  0
 29 30  2  0  0  0  0
 29 48  1  0  0  0  0
 30 31  1  0  0  0  0
 30 49  1  0  0  0  0
 32 33  2  0  0  0  0
 32 50  1  0  0  0  0
 33 34  1  0  0  0  0
 33 38  1  0  0  0  0
 34 35  1  0  0  0  0
 34 36  1  0  0  0  0
 34 37  1  0  0  0  0
 38 51  1  0  0  0  0
M  END
$$$$
