CHEMBL493671
 OpenBabel04072215383D

 50 53  0  0  1  0  0  0  0  0999 V2000
    2.4383    0.2677   -0.1840 C   0  0  0  0  0  0  0  0  0  0  0  0
    0.9381    0.1186   -0.1145 C   0  0  0  0  0  0  0  0  0  0  0  0
    0.1999    1.3250   -0.0393 C   0  0  0  0  0  0  0  0  0  0  0  0
   -1.1933    1.3320   -0.0162 C   0  0  0  0  0  0  0  0  0  0  0  0
   -1.8749    0.1242   -0.0509 C   0  0  0  0  0  0  0  0  0  0  0  0
   -3.3673    0.0373   -0.0692 C   0  0  0  0  0  0  0  0  0  0  0  0
   -3.9113   -0.9129   -0.6096 O   0  0  0  0  0  0  0  0  0  0  0  0
   -4.0418    1.0523    0.5822 N   0  0  0  0  0  0  0  0  0  0  0  0
   -5.4696    1.0487    0.6816 C   0  0  0  0  0  0  0  0  0  0  0  0
   -6.3054    1.7577   -0.3485 C   0  0  0  0  0  0  0  0  0  0  0  0
   -6.2078    2.3106    1.0430 C   0  0  0  0  0  0  0  0  0  0  0  0
   -1.1550   -1.0782   -0.0965 C   0  0  0  0  0  0  0  0  0  0  0  0
    0.2589   -1.1318   -0.1221 C   0  0  0  0  0  0  0  0  0  0  0  0
    0.9162   -2.4805   -0.1567 C   0  0  0  0  0  0  0  0  0  0  0  0
    0.2945   -3.5900   -0.7664 C   0  0  0  0  0  0  0  0  0  0  0  0
    0.8815   -4.8660   -0.7847 C   0  0  0  0  0  0  0  0  0  0  0  0
    2.1682   -5.0771   -0.2521 C   0  0  0  0  0  0  0  0  0  0  0  0
    2.9094   -6.2667   -0.3370 C   0  0  0  0  0  0  0  0  0  0  0  0
    2.4284   -7.3051   -1.1277 O   0  0  0  0  0  0  0  0  0  0  0  0
    3.4894   -8.1764   -1.5976 C   0  0  1  0  0  0  0  0  0  0  0  0
    2.8431   -9.3852   -2.2802 C   0  0  0  0  0  0  0  0  0  0  0  0
    4.4812   -7.4932   -2.5683 C   0  0  0  0  0  0  0  0  0  0  0  0
    4.2564   -6.1670   -2.7087 F   0  0  0  0  0  0  0  0  0  0  0  0
    5.7576   -7.6484   -2.1450 F   0  0  0  0  0  0  0  0  0  0  0  0
    4.4197   -8.0221   -3.8157 F   0  0  0  0  0  0  0  0  0  0  0  0
    4.1313   -6.4113    0.2289 N   0  0  0  0  0  0  0  0  0  0  0  0
    4.7147   -5.3669    0.8640 N   0  0  0  0  0  0  0  0  0  0  0  0
    4.0603   -4.1906    0.9148 C   0  0  0  0  0  0  0  0  0  0  0  0
    2.7914   -3.9945    0.3822 C   0  0  0  0  0  0  0  0  0  0  0  0
    2.1526   -2.7409    0.4529 C   0  0  0  0  0  0  0  0  0  0  0  0
    2.7353    1.2994   -0.4052 H   0  0  0  0  0  0  0  0  0  0  0  0
    2.8594   -0.3558   -0.9788 H   0  0  0  0  0  0  0  0  0  0  0  0
    2.8925    0.0268    0.7807 H   0  0  0  0  0  0  0  0  0  0  0  0
    0.7226    2.2800   -0.0212 H   0  0  0  0  0  0  0  0  0  0  0  0
   -1.7164    2.2840   -0.0052 H   0  0  0  0  0  0  0  0  0  0  0  0
   -3.5303    1.7144    1.1399 H   0  0  0  0  0  0  0  0  0  0  0  0
   -5.8705    0.1179    1.0756 H   0  0  0  0  0  0  0  0  0  0  0  0
   -7.2321    1.2836   -0.6508 H   0  0  0  0  0  0  0  0  0  0  0  0
   -5.7924    2.2763   -1.1495 H   0  0  0  0  0  0  0  0  0  0  0  0
   -7.0766    2.2208    1.6851 H   0  0  0  0  0  0  0  0  0  0  0  0
   -5.6435    3.2242    1.1835 H   0  0  0  0  0  0  0  0  0  0  0  0
   -1.7368   -1.9989   -0.0988 H   0  0  0  0  0  0  0  0  0  0  0  0
   -0.6731   -3.4851   -1.2549 H   0  0  0  0  0  0  0  0  0  0  0  0
    0.3285   -5.6928   -1.2263 H   0  0  0  0  0  0  0  0  0  0  0  0
    4.0302   -8.5818   -0.7314 H   0  0  0  0  0  0  0  0  0  0  0  0
    2.3870   -9.1015   -3.2353 H   0  0  0  0  0  0  0  0  0  0  0  0
    2.0466   -9.8149   -1.6652 H   0  0  0  0  0  0  0  0  0  0  0  0
    3.5920  -10.1606   -2.4775 H   0  0  0  0  0  0  0  0  0  0  0  0
    4.6127   -3.3874    1.3937 H   0  0  0  0  0  0  0  0  0  0  0  0
    2.6580   -1.9623    1.0113 H   0  0  0  0  0  0  0  0  0  0  0  0
  1  2  1  0  0  0  0
  1 31  1  0  0  0  0
  1 32  1  0  0  0  0
  1 33  1  0  0  0  0
  2  3  1  0  0  0  0
  2 13  2  0  0  0  0
  3  4  2  0  0  0  0
  3 34  1  0  0  0  0
  4  5  1  0  0  0  0
  4 35  1  0  0  0  0
  5  6  1  0  0  0  0
  5 12  2  0  0  0  0
  6  7  2  0  0  0  0
  6  8  1  0  0  0  0
  8  9  1  0  0  0  0
  8 36  1  0  0  0  0
  9 10  1  0  0  0  0
  9 11  1  0  0  0  0
  9 37  1  0  0  0  0
 10 11  1  0  0  0  0
 10 38  1  0  0  0  0
 10 39  1  0  0  0  0
 11 40  1  0  0  0  0
 11 41  1  0  0  0  0
 12 13  1  0  0  0  0
 12 42  1  0  0  0  0
 13 14  1  0  0  0  0
 14 15  1  0  0  0  0
 14 30  2  0  0  0  0
 15 16  2  0  0  0  0
 15 43  1  0  0  0  0
 16 17  1  0  0  0  0
 16 44  1  0  0  0  0
 17 18  1  0  0  0  0
 17 29  2  0  0  0  0
 18 19  1  0  0  0  0
 18 26  2  0  0  0  0
 19 20  1  0  0  0  0
 20 21  1  0  0  0  0
 20 22  1  0  0  0  0
 20 45  1  1  0  0  0
 21 46  1  0  0  0  0
 21 47  1  0  0  0  0
 21 48  1  0  0  0  0
 22 23  1  0  0  0  0
 22 24  1  0  0  0  0
 22 25  1  0  0  0  0
 26 27  1  0  0  0  0
 27 28  2  0  0  0  0
 28 29  1  0  0  0  0
 28 49  1  0  0  0  0
 29 30  1  0  0  0  0
 30 50  1  0  0  0  0
M  END
$$$$
