CHEMBL452287
 OpenBabel04072215383D

 45 48  0  0  0  0  0  0  0  0999 V2000
    2.3594   -0.4291    1.4813 C   0  0  0  0  0  0  0  0  0  0  0  0
    0.8622   -0.3101    1.4577 C   0  0  0  0  0  0  0  0  0  0  0  0
    0.2577    0.8771    1.8811 C   0  0  0  0  0  0  0  0  0  0  0  0
   -1.1254    0.9963    1.8700 C   0  0  0  0  0  0  0  0  0  0  0  0
   -1.9158   -0.0674    1.4354 C   0  0  0  0  0  0  0  0  0  0  0  0
   -1.3457   -1.2651    0.9931 C   0  0  0  0  0  0  0  0  0  0  0  0
   -2.1202   -2.3677    0.5416 N   0  0  0  0  0  0  0  0  0  0  0  0
   -3.4938   -2.3722    0.3679 C   0  0  0  0  0  0  0  0  0  0  0  0
   -4.2244   -1.3955    0.4983 O   0  0  0  0  0  0  0  0  0  0  0  0
   -3.9896   -3.6405    0.0668 N   0  0  0  0  0  0  0  0  0  0  0  0
   -5.3895   -3.8104   -0.1006 C   0  0  0  0  0  0  0  0  0  0  0  0
   -6.1320   -2.9444   -0.9125 C   0  0  0  0  0  0  0  0  0  0  0  0
   -7.5273   -3.0206   -0.9477 C   0  0  0  0  0  0  0  0  0  0  0  0
   -8.1977   -3.9606   -0.1610 C   0  0  0  0  0  0  0  0  0  0  0  0
   -9.6643   -3.9675   -0.1097 C   0  0  0  0  0  0  0  0  0  0  0  0
  -10.3841   -3.1338    0.9043 C   0  0  0  0  0  0  0  0  0  0  0  0
  -11.6707   -3.0335    1.0710 N   0  0  0  0  0  0  0  0  0  0  0  0
  -12.4328   -3.7836    0.2219 C   0  0  0  0  0  0  0  0  0  0  0  0
  -13.7887   -3.9558    0.0924 C   0  0  0  0  0  0  0  0  0  0  0  0
  -15.1650   -3.1659    1.0808 Br  0  0  0  0  0  0  0  0  0  0  0  0
  -13.9749   -4.8648   -0.9505 C   0  0  0  0  0  0  0  0  0  0  0  0
  -12.8204   -5.2744   -1.4786 N   0  0  0  0  0  0  0  0  0  0  0  0
  -11.8635   -4.5876   -0.7729 N   0  0  0  0  0  0  0  0  0  0  0  0
  -10.4545   -4.6716   -0.9519 C   0  0  0  0  0  0  0  0  0  0  0  0
   -9.9997   -5.4932   -1.9807 N   0  0  0  0  0  0  0  0  0  0  0  0
   -7.4509   -4.8674    0.6046 C   0  0  0  0  0  0  0  0  0  0  0  0
   -6.0497   -4.8095    0.6159 C   0  0  0  0  0  0  0  0  0  0  0  0
    0.0551   -1.3783    1.0139 C   0  0  0  0  0  0  0  0  0  0  0  0
    2.8243    0.4852    1.8686 H   0  0  0  0  0  0  0  0  0  0  0  0
    2.7444   -0.5927    0.4715 H   0  0  0  0  0  0  0  0  0  0  0  0
    2.6663   -1.2541    2.1312 H   0  0  0  0  0  0  0  0  0  0  0  0
    0.8567    1.7169    2.2238 H   0  0  0  0  0  0  0  0  0  0  0  0
   -1.5999    1.9172    2.1976 H   0  0  0  0  0  0  0  0  0  0  0  0
   -2.9886    0.0879    1.4596 H   0  0  0  0  0  0  0  0  0  0  0  0
   -1.6135   -3.1738    0.2032 H   0  0  0  0  0  0  0  0  0  0  0  0
   -3.5015   -4.3906    0.5341 H   0  0  0  0  0  0  0  0  0  0  0  0
   -5.6324   -2.1765   -1.4999 H   0  0  0  0  0  0  0  0  0  0  0  0
   -8.0796   -2.3168   -1.5672 H   0  0  0  0  0  0  0  0  0  0  0  0
   -9.7339   -2.5396    1.5684 H   0  0  0  0  0  0  0  0  0  0  0  0
  -14.8998   -5.2555   -1.3537 H   0  0  0  0  0  0  0  0  0  0  0  0
  -10.7125   -6.1688   -2.2709 H   0  0  0  0  0  0  0  0  0  0  0  0
   -9.0804   -5.8949   -1.8246 H   0  0  0  0  0  0  0  0  0  0  0  0
   -7.9545   -5.6016    1.2304 H   0  0  0  0  0  0  0  0  0  0  0  0
   -5.4996   -5.4913    1.2577 H   0  0  0  0  0  0  0  0  0  0  0  0
    0.5369   -2.2962    0.6859 H   0  0  0  0  0  0  0  0  0  0  0  0
  1  2  1  0  0  0  0
  1 29  1  0  0  0  0
  1 30  1  0  0  0  0
  1 31  1  0  0  0  0
  2  3  1  0  0  0  0
  2 28  2  0  0  0  0
  3  4  2  0  0  0  0
  3 32  1  0  0  0  0
  4  5  1  0  0  0  0
  4 33  1  0  0  0  0
  5  6  2  0  0  0  0
  5 34  1  0  0  0  0
  6  7  1  0  0  0  0
  6 28  1  0  0  0  0
  7  8  1  0  0  0  0
  7 35  1  0  0  0  0
  8  9  2  0  0  0  0
  8 10  1  0  0  0  0
 10 11  1  0  0  0  0
 10 36  1  0  0  0  0
 11 12  1  0  0  0  0
 11 27  2  0  0  0  0
 12 13  2  0  0  0  0
 12 37  1  0  0  0  0
 13 14  1  0  0  0  0
 13 38  1  0  0  0  0
 14 15  1  0  0  0  0
 14 26  2  0  0  0  0
 15 16  1  0  0  0  0
 15 24  2  0  0  0  0
 16 17  2  0  0  0  0
 16 39  1  0  0  0  0
 17 18  1  0  0  0  0
 18 19  2  0  0  0  0
 18 23  1  0  0  0  0
 19 20  1  0  0  0  0
 19 21  1  0  0  0  0
 21 22  2  0  0  0  0
 21 40  1  0  0  0  0
 22 23  1  0  0  0  0
 23 24  1  0  0  0  0
 24 25  1  0  0  0  0
 25 41  1  0  0  0  0
 25 42  1  0  0  0  0
 26 27  1  0  0  0  0
 26 43  1  0  0  0  0
 27 44  1  0  0  0  0
 28 45  1  0  0  0  0
M  END
$$$$
