CHEMBL502279
 OpenBabel04072215383D

 33 35  0  0  0  0  0  0  0  0999 V2000
    1.4725   -2.0969    0.4606 N   0  0  0  0  0  0  0  0  0  0  0  0
    1.1703   -1.0786   -0.4161 C   0  0  0  0  0  0  0  0  0  0  0  0
    0.2090   -1.3117   -1.3139 N   0  0  0  0  0  0  0  0  0  0  0  0
   -0.0885   -0.3033   -2.1470 C   0  0  0  0  0  0  0  0  0  0  0  0
    0.5452    0.9158   -2.1226 C   0  0  0  0  0  0  0  0  0  0  0  0
    1.5479    1.0463   -1.1815 C   0  0  0  0  0  0  0  0  0  0  0  0
    2.2960    2.3122   -1.0665 C   0  0  0  0  0  0  0  0  0  0  0  0
    3.2964    2.5031   -0.1908 C   0  0  0  0  0  0  0  0  0  0  0  0
    3.8883    3.7801   -0.0354 C   0  0  0  0  0  0  0  0  0  0  0  0
    4.9914    4.0980   -0.7872 N   0  0  0  0  0  0  0  0  0  0  0  0
    5.3661    5.3709   -0.4612 C   0  0  0  0  0  0  0  0  0  0  0  0
    4.5777    5.8854    0.4579 N   0  0  0  0  0  0  0  0  0  0  0  0
    3.6654    4.8959    0.7566 C   0  0  0  0  0  0  0  0  0  0  0  0
    2.5860    5.0599    1.7196 C   0  0  0  0  0  0  0  0  0  0  0  0
    2.0538    6.3314    1.9648 C   0  0  0  0  0  0  0  0  0  0  0  0
    0.9364    6.4831    2.7934 C   0  0  0  0  0  0  0  0  0  0  0  0
    0.3526    5.3672    3.3934 C   0  0  0  0  0  0  0  0  0  0  0  0
    0.9060    4.1081    3.2009 C   0  0  0  0  0  0  0  0  0  0  0  0
    2.0254    3.9584    2.3832 C   0  0  0  0  0  0  0  0  0  0  0  0
    1.8744    0.0505   -0.3335 N   0  0  0  0  0  0  0  0  0  0  0  0
    1.1876   -2.9833    0.0695 H   0  0  0  0  0  0  0  0  0  0  0  0
    2.4256   -2.0088    0.7826 H   0  0  0  0  0  0  0  0  0  0  0  0
   -0.8839   -0.5078   -2.8594 H   0  0  0  0  0  0  0  0  0  0  0  0
    0.2657    1.7101   -2.7984 H   0  0  0  0  0  0  0  0  0  0  0  0
    1.9701    3.1254   -1.7109 H   0  0  0  0  0  0  0  0  0  0  0  0
    3.6033    1.7137    0.4911 H   0  0  0  0  0  0  0  0  0  0  0  0
    5.4431    3.5042   -1.4673 H   0  0  0  0  0  0  0  0  0  0  0  0
    6.2102    5.8648   -0.9190 H   0  0  0  0  0  0  0  0  0  0  0  0
    2.4921    7.2084    1.4896 H   0  0  0  0  0  0  0  0  0  0  0  0
    0.5134    7.4728    2.9571 H   0  0  0  0  0  0  0  0  0  0  0  0
   -0.5283    5.4812    4.0152 H   0  0  0  0  0  0  0  0  0  0  0  0
    0.4682    3.2325    3.6730 H   0  0  0  0  0  0  0  0  0  0  0  0
    2.4445    2.9647    2.2669 H   0  0  0  0  0  0  0  0  0  0  0  0
  1  2  1  0  0  0  0
  1 21  1  0  0  0  0
  1 22  1  0  0  0  0
  2  3  1  0  0  0  0
  2 20  2  0  0  0  0
  3  4  2  0  0  0  0
  4  5  1  0  0  0  0
  4 23  1  0  0  0  0
  5  6  2  0  0  0  0
  5 24  1  0  0  0  0
  6  7  1  0  0  0  0
  6 20  1  0  0  0  0
  7  8  2  0  0  0  0
  7 25  1  0  0  0  0
  8  9  1  0  0  0  0
  8 26  1  0  0  0  0
  9 10  1  0  0  0  0
  9 13  2  0  0  0  0
 10 11  1  0  0  0  0
 10 27  1  0  0  0  0
 11 12  2  0  0  0  0
 11 28  1  0  0  0  0
 12 13  1  0  0  0  0
 13 14  1  0  0  0  0
 14 15  1  0  0  0  0
 14 19  2  0  0  0  0
 15 16  2  0  0  0  0
 15 29  1  0  0  0  0
 16 17  1  0  0  0  0
 16 30  1  0  0  0  0
 17 18  2  0  0  0  0
 17 31  1  0  0  0  0
 18 19  1  0  0  0  0
 18 32  1  0  0  0  0
 19 33  1  0  0  0  0
M  END
$$$$
