CHEMBL101682
 OpenBabel04072215353D

 41 43  0  0  0  0  0  0  0  0999 V2000
    1.6637    1.1555   -0.4399 O   0  0  0  0  0  0  0  0  0  0  0  0
    2.1872    0.1169   -0.0390 C   0  0  0  0  0  0  0  0  0  0  0  0
    2.0440   -0.3983    1.2355 N   0  0  0  0  0  0  0  0  0  0  0  0
    1.2812    0.2048    2.2702 C   0  0  0  0  0  0  0  0  0  0  0  0
    0.8656    1.5417    2.2292 C   0  0  0  0  0  0  0  0  0  0  0  0
    0.0676    2.0846    3.2403 C   0  0  0  0  0  0  0  0  0  0  0  0
   -0.3235    1.2987    4.3188 C   0  0  0  0  0  0  0  0  0  0  0  0
    0.1076   -0.0239    4.3946 C   0  0  0  0  0  0  0  0  0  0  0  0
    0.9113   -0.5574    3.3829 C   0  0  0  0  0  0  0  0  0  0  0  0
    1.2993   -1.8389    3.4775 F   0  0  0  0  0  0  0  0  0  0  0  0
    2.9961   -0.6529   -1.0317 C   0  0  0  0  0  0  0  0  0  0  0  0
    2.6955   -0.3682   -2.3836 C   0  0  0  0  0  0  0  0  0  0  0  0
    3.4231   -0.9303   -3.4265 C   0  0  0  0  0  0  0  0  0  0  0  0
    4.4922   -1.7573   -3.1320 C   0  0  0  0  0  0  0  0  0  0  0  0
    4.7938   -2.0573   -1.8006 C   0  0  0  0  0  0  0  0  0  0  0  0
    4.0176   -1.5738   -0.7217 C   0  0  0  0  0  0  0  0  0  0  0  0
    4.3268   -1.9231    0.6228 N   0  0  0  0  0  0  0  0  0  0  0  0
    5.0519   -3.1925    0.7733 C   0  0  0  0  0  0  0  0  0  0  0  0
    4.9261   -3.8057    2.1496 C   0  0  0  0  0  0  0  0  0  0  0  0
    4.9170   -5.2134    2.2484 C   0  0  0  0  0  0  0  0  0  0  0  0
    4.8933   -5.8424    3.4900 C   0  0  0  0  0  0  0  0  0  0  0  0
    4.8893   -5.0703    4.6416 C   0  0  0  0  0  0  0  0  0  0  0  0
    4.8848   -5.6718    5.8378 F   0  0  0  0  0  0  0  0  0  0  0  0
    4.9044   -3.6805    4.5714 C   0  0  0  0  0  0  0  0  0  0  0  0
    4.9285   -3.0465    3.3254 C   0  0  0  0  0  0  0  0  0  0  0  0
    2.4201   -1.3328    1.4033 H   0  0  0  0  0  0  0  0  0  0  0  0
    1.1567    2.2035    1.4200 H   0  0  0  0  0  0  0  0  0  0  0  0
   -0.2484    3.1233    3.1700 H   0  0  0  0  0  0  0  0  0  0  0  0
   -0.9599    1.7205    5.0922 H   0  0  0  0  0  0  0  0  0  0  0  0
   -0.1911   -0.6492    5.2317 H   0  0  0  0  0  0  0  0  0  0  0  0
    1.8793    0.3113   -2.6283 H   0  0  0  0  0  0  0  0  0  0  0  0
    3.1667   -0.6994   -4.4565 H   0  0  0  0  0  0  0  0  0  0  0  0
    5.0966   -2.1726   -3.9344 H   0  0  0  0  0  0  0  0  0  0  0  0
    5.6632   -2.6882   -1.6359 H   0  0  0  0  0  0  0  0  0  0  0  0
    4.8747   -1.1586    1.0262 H   0  0  0  0  0  0  0  0  0  0  0  0
    6.1194   -3.0485    0.5641 H   0  0  0  0  0  0  0  0  0  0  0  0
    4.6507   -3.9254    0.0604 H   0  0  0  0  0  0  0  0  0  0  0  0
    4.9333   -5.8281    1.3501 H   0  0  0  0  0  0  0  0  0  0  0  0
    4.8869   -6.9250    3.5642 H   0  0  0  0  0  0  0  0  0  0  0  0
    4.9046   -3.1000    5.4883 H   0  0  0  0  0  0  0  0  0  0  0  0
    4.9489   -1.9602    3.2890 H   0  0  0  0  0  0  0  0  0  0  0  0
  1  2  2  0  0  0  0
  2  3  1  0  0  0  0
  2 11  1  0  0  0  0
  3  4  1  0  0  0  0
  3 26  1  0  0  0  0
  4  5  1  0  0  0  0
  4  9  2  0  0  0  0
  5  6  2  0  0  0  0
  5 27  1  0  0  0  0
  6  7  1  0  0  0  0
  6 28  1  0  0  0  0
  7  8  2  0  0  0  0
  7 29  1  0  0  0  0
  8  9  1  0  0  0  0
  8 30  1  0  0  0  0
  9 10  1  0  0  0  0
 11 12  1  0  0  0  0
 11 16  2  0  0  0  0
 12 13  2  0  0  0  0
 12 31  1  0  0  0  0
 13 14  1  0  0  0  0
 13 32  1  0  0  0  0
 14 15  2  0  0  0  0
 14 33  1  0  0  0  0
 15 16  1  0  0  0  0
 15 34  1  0  0  0  0
 16 17  1  0  0  0  0
 17 18  1  0  0  0  0
 17 35  1  0  0  0  0
 18 19  1  0  0  0  0
 18 36  1  0  0  0  0
 18 37  1  0  0  0  0
 19 20  1  0  0  0  0
 19 25  2  0  0  0  0
 20 21  2  0  0  0  0
 20 38  1  0  0  0  0
 21 22  1  0  0  0  0
 21 39  1  0  0  0  0
 22 23  1  0  0  0  0
 22 24  2  0  0  0  0
 24 25  1  0  0  0  0
 24 40  1  0  0  0  0
 25 41  1  0  0  0  0
M  END
$$$$
