CHEMBL273077
 OpenBabel04072215363D

 42 45  0  0  0  0  0  0  0  0999 V2000
    3.4341    2.9541   -1.8892 N   0  0  0  0  0  0  0  0  0  0  0  0
    3.1259    1.6539   -1.7195 C   0  0  0  0  0  0  0  0  0  0  0  0
    3.8510    0.6850   -2.2840 N   0  0  0  0  0  0  0  0  0  0  0  0
    3.2872   -0.4986   -1.8719 O   0  0  0  0  0  0  0  0  0  0  0  0
    2.2171   -0.2440   -1.0830 C   0  0  0  0  0  0  0  0  0  0  0  0
    1.4266   -1.2286   -0.4944 C   0  0  0  0  0  0  0  0  0  0  0  0
    0.3632   -0.7900    0.2745 C   0  0  0  0  0  0  0  0  0  0  0  0
    0.1076    0.5764    0.4111 C   0  0  0  0  0  0  0  0  0  0  0  0
    0.9106    1.5867   -0.1981 C   0  0  0  0  0  0  0  0  0  0  0  0
    0.5574    3.0158   -0.0299 C   0  0  0  0  0  0  0  0  0  0  0  0
   -0.0450    3.4633    1.1540 C   0  0  0  0  0  0  0  0  0  0  0  0
   -0.4518    4.7904    1.3219 C   0  0  0  0  0  0  0  0  0  0  0  0
   -0.2184    5.7469    0.3379 C   0  0  0  0  0  0  0  0  0  0  0  0
   -0.6280    7.0960    0.4523 N   0  0  0  0  0  0  0  0  0  0  0  0
   -1.3024    7.6417    1.5248 C   0  0  0  0  0  0  0  0  0  0  0  0
   -1.5567    7.0542    2.5774 O   0  0  0  0  0  0  0  0  0  0  0  0
   -1.7298    8.9400    1.2811 N   0  0  0  0  0  0  0  0  0  0  0  0
   -2.4712    9.6179    2.2784 C   0  0  0  0  0  0  0  0  0  0  0  0
   -2.0270    9.6536    3.6077 C   0  0  0  0  0  0  0  0  0  0  0  0
   -2.8057   10.2490    4.5985 C   0  0  0  0  0  0  0  0  0  0  0  0
   -4.0348   10.8000    4.2579 C   0  0  0  0  0  0  0  0  0  0  0  0
   -4.7864   11.3447    5.2260 F   0  0  0  0  0  0  0  0  0  0  0  0
   -4.4792   10.7787    2.9358 C   0  0  0  0  0  0  0  0  0  0  0  0
   -6.0238   11.4200    2.5227 Cl  0  0  0  0  0  0  0  0  0  0  0  0
   -3.6901   10.2098    1.9344 C   0  0  0  0  0  0  0  0  0  0  0  0
    0.4087    5.3366   -0.8361 C   0  0  0  0  0  0  0  0  0  0  0  0
    0.7309    3.9825   -1.0336 C   0  0  0  0  0  0  0  0  0  0  0  0
    2.0267    1.1301   -0.9599 C   0  0  0  0  0  0  0  0  0  0  0  0
    4.2873    3.1668   -2.3966 H   0  0  0  0  0  0  0  0  0  0  0  0
    3.2093    3.6337   -1.1706 H   0  0  0  0  0  0  0  0  0  0  0  0
    1.6381   -2.2835   -0.6392 H   0  0  0  0  0  0  0  0  0  0  0  0
   -0.2902   -1.5109    0.7660 H   0  0  0  0  0  0  0  0  0  0  0  0
   -0.7647    0.8567    1.0012 H   0  0  0  0  0  0  0  0  0  0  0  0
   -0.2396    2.7838    1.9809 H   0  0  0  0  0  0  0  0  0  0  0  0
   -0.9548    5.0221    2.2539 H   0  0  0  0  0  0  0  0  0  0  0  0
   -0.3685    7.7228   -0.2956 H   0  0  0  0  0  0  0  0  0  0  0  0
   -2.0007    9.1087    0.3228 H   0  0  0  0  0  0  0  0  0  0  0  0
   -1.0783    9.1982    3.8858 H   0  0  0  0  0  0  0  0  0  0  0  0
   -2.4706   10.2652    5.6309 H   0  0  0  0  0  0  0  0  0  0  0  0
   -4.0609   10.1615    0.9167 H   0  0  0  0  0  0  0  0  0  0  0  0
    0.6282    6.0419   -1.6338 H   0  0  0  0  0  0  0  0  0  0  0  0
    1.1091    3.6949   -2.0116 H   0  0  0  0  0  0  0  0  0  0  0  0
  1  2  1  0  0  0  0
  1 29  1  0  0  0  0
  1 30  1  0  0  0  0
  2  3  2  0  0  0  0
  2 28  1  0  0  0  0
  3  4  1  0  0  0  0
  4  5  1  0  0  0  0
  5  6  1  0  0  0  0
  5 28  2  0  0  0  0
  6  7  2  0  0  0  0
  6 31  1  0  0  0  0
  7  8  1  0  0  0  0
  7 32  1  0  0  0  0
  8  9  2  0  0  0  0
  8 33  1  0  0  0  0
  9 10  1  0  0  0  0
  9 28  1  0  0  0  0
 10 11  1  0  0  0  0
 10 27  2  0  0  0  0
 11 12  2  0  0  0  0
 11 34  1  0  0  0  0
 12 13  1  0  0  0  0
 12 35  1  0  0  0  0
 13 14  1  0  0  0  0
 13 26  2  0  0  0  0
 14 15  1  0  0  0  0
 14 36  1  0  0  0  0
 15 16  2  0  0  0  0
 15 17  1  0  0  0  0
 17 18  1  0  0  0  0
 17 37  1  0  0  0  0
 18 19  1  0  0  0  0
 18 25  2  0  0  0  0
 19 20  2  0  0  0  0
 19 38  1  0  0  0  0
 20 21  1  0  0  0  0
 20 39  1  0  0  0  0
 21 22  1  0  0  0  0
 21 23  2  0  0  0  0
 23 24  1  0  0  0  0
 23 25  1  0  0  0  0
 25 40  1  0  0  0  0
 26 27  1  0  0  0  0
 26 41  1  0  0  0  0
 27 42  1  0  0  0  0
M  END
$$$$
