CHEMBL1255011
 OpenBabel04072215363D

 42 45  0  0  0  0  0  0  0  0999 V2000
    3.6187   -0.7693   -0.9339 C   0  0  0  0  0  0  0  0  0  0  0  0
    3.3438   -0.4632    0.4534 N   0  0  0  0  0  0  0  0  0  0  0  0
    3.8826    0.6034    1.1349 C   0  0  0  0  0  0  0  0  0  0  0  0
    3.3840    0.5780    2.4202 C   0  0  0  0  0  0  0  0  0  0  0  0
    2.5153   -0.5328    2.5146 C   0  0  0  0  0  0  0  0  0  0  0  0
    1.7974   -0.9574    3.5750 N   0  0  0  0  0  0  0  0  0  0  0  0
    1.0617   -2.0453    3.3181 C   0  0  0  0  0  0  0  0  0  0  0  0
    0.9869   -2.7370    2.1704 N   0  0  0  0  0  0  0  0  0  0  0  0
    1.7471   -2.3253    1.1311 C   0  0  0  0  0  0  0  0  0  0  0  0
    1.7297   -3.0238   -0.0669 O   0  0  0  0  0  0  0  0  0  0  0  0
    1.4834   -4.3786   -0.0236 C   0  0  0  0  0  0  0  0  0  0  0  0
    1.9687   -5.2267    0.9758 C   0  0  0  0  0  0  0  0  0  0  0  0
    1.6999   -6.5964    0.9309 C   0  0  0  0  0  0  0  0  0  0  0  0
    0.9730   -7.1350   -0.1325 C   0  0  0  0  0  0  0  0  0  0  0  0
    0.5204   -6.2955   -1.1592 C   0  0  0  0  0  0  0  0  0  0  0  0
   -0.1749   -6.8208   -2.3628 C   0  0  0  0  0  0  0  0  0  0  0  0
    0.0481   -6.2576   -3.4291 O   0  0  0  0  0  0  0  0  0  0  0  0
   -1.0561   -7.8690   -2.1507 N   0  0  0  0  0  0  0  0  0  0  0  0
   -1.8377   -8.5053   -3.1436 C   0  0  0  0  0  0  0  0  0  0  0  0
   -1.6198   -8.3449   -4.5150 C   0  0  0  0  0  0  0  0  0  0  0  0
   -2.4552   -8.9630   -5.4501 C   0  0  0  0  0  0  0  0  0  0  0  0
   -3.5166   -9.7546   -5.0225 C   0  0  0  0  0  0  0  0  0  0  0  0
   -3.7300   -9.9438   -3.6599 C   0  0  0  0  0  0  0  0  0  0  0  0
   -2.8884   -9.3311   -2.7241 C   0  0  0  0  0  0  0  0  0  0  0  0
    0.7856   -4.9184   -1.1031 C   0  0  0  0  0  0  0  0  0  0  0  0
    2.5095   -1.1768    1.2828 C   0  0  0  0  0  0  0  0  0  0  0  0
    4.3134   -0.0287   -1.3395 H   0  0  0  0  0  0  0  0  0  0  0  0
    2.6788   -0.7330   -1.4900 H   0  0  0  0  0  0  0  0  0  0  0  0
    4.0696   -1.7630   -0.9878 H   0  0  0  0  0  0  0  0  0  0  0  0
    4.5703    1.2885    0.6580 H   0  0  0  0  0  0  0  0  0  0  0  0
    3.6143    1.2797    3.2089 H   0  0  0  0  0  0  0  0  0  0  0  0
    0.4598   -2.4213    4.1393 H   0  0  0  0  0  0  0  0  0  0  0  0
    2.5572   -4.8324    1.8002 H   0  0  0  0  0  0  0  0  0  0  0  0
    2.0733   -7.2417    1.7230 H   0  0  0  0  0  0  0  0  0  0  0  0
    0.8108   -8.2080   -0.1713 H   0  0  0  0  0  0  0  0  0  0  0  0
   -1.2689   -8.1128   -1.1922 H   0  0  0  0  0  0  0  0  0  0  0  0
   -0.7980   -7.7455   -4.8938 H   0  0  0  0  0  0  0  0  0  0  0  0
   -2.2735   -8.8154   -6.5117 H   0  0  0  0  0  0  0  0  0  0  0  0
   -4.1742  -10.2202   -5.7525 H   0  0  0  0  0  0  0  0  0  0  0  0
   -4.5600  -10.5609   -3.3247 H   0  0  0  0  0  0  0  0  0  0  0  0
   -3.0877   -9.4884   -1.6676 H   0  0  0  0  0  0  0  0  0  0  0  0
    0.4477   -4.2686   -1.9083 H   0  0  0  0  0  0  0  0  0  0  0  0
  1  2  1  0  0  0  0
  1 27  1  0  0  0  0
  1 28  1  0  0  0  0
  1 29  1  0  0  0  0
  2  3  1  0  0  0  0
  2 26  1  0  0  0  0
  3  4  2  0  0  0  0
  3 30  1  0  0  0  0
  4  5  1  0  0  0  0
  4 31  1  0  0  0  0
  5  6  1  0  0  0  0
  5 26  2  0  0  0  0
  6  7  2  0  0  0  0
  7  8  1  0  0  0  0
  7 32  1  0  0  0  0
  8  9  2  0  0  0  0
  9 10  1  0  0  0  0
  9 26  1  0  0  0  0
 10 11  1  0  0  0  0
 11 12  1  0  0  0  0
 11 25  2  0  0  0  0
 12 13  2  0  0  0  0
 12 33  1  0  0  0  0
 13 14  1  0  0  0  0
 13 34  1  0  0  0  0
 14 15  2  0  0  0  0
 14 35  1  0  0  0  0
 15 16  1  0  0  0  0
 15 25  1  0  0  0  0
 16 17  2  0  0  0  0
 16 18  1  0  0  0  0
 18 19  1  0  0  0  0
 18 36  1  0  0  0  0
 19 20  1  0  0  0  0
 19 24  2  0  0  0  0
 20 21  2  0  0  0  0
 20 37  1  0  0  0  0
 21 22  1  0  0  0  0
 21 38  1  0  0  0  0
 22 23  2  0  0  0  0
 22 39  1  0  0  0  0
 23 24  1  0  0  0  0
 23 40  1  0  0  0  0
 24 41  1  0  0  0  0
 25 42  1  0  0  0  0
M  END
$$$$
