CHEMBL2001957
 OpenBabel04072215363D

 57 60  0  0  0  0  0  0  0  0999 V2000
    9.7222   -0.5199    0.1497 C   0  0  0  0  0  0  0  0  0  0  0  0
    9.8774   -0.0326    1.6026 C   0  0  0  0  0  0  0  0  0  0  0  0
   10.9663   -0.8633    2.3057 C   0  0  0  0  0  0  0  0  0  0  0  0
   10.2677    1.4658    1.6020 C   0  0  0  0  0  0  0  0  0  0  0  0
   11.4922    1.7124    0.9244 O   0  0  0  0  0  0  0  0  0  0  0  0
    8.5382   -0.1391    2.3655 C   0  0  0  0  0  0  0  0  0  0  0  0
    8.0138   -1.4915    2.4106 N   0  0  0  0  0  0  0  0  0  0  0  0
    6.8410   -1.6352    3.1308 C   0  0  0  0  0  0  0  0  0  0  0  0
    6.1409   -0.5488    3.4880 N   0  0  0  0  0  0  0  0  0  0  0  0
    4.9783   -0.7427    4.1189 C   0  0  0  0  0  0  0  0  0  0  0  0
    4.4627   -1.9854    4.3658 C   0  0  0  0  0  0  0  0  0  0  0  0
    5.2690   -3.0451    4.0092 C   0  0  0  0  0  0  0  0  0  0  0  0
    4.8853   -4.4363    4.2237 C   0  0  0  0  0  0  0  0  0  0  0  0
    4.9998   -5.5767    3.4210 C   0  0  0  0  0  0  0  0  0  0  0  0
    5.5097   -5.6692    2.0504 C   0  0  0  0  0  0  0  0  0  0  0  0
    6.1512   -6.8423    1.6304 C   0  0  0  0  0  0  0  0  0  0  0  0
    6.6779   -6.9495    0.3368 C   0  0  0  0  0  0  0  0  0  0  0  0
    6.5576   -5.8811   -0.5405 C   0  0  0  0  0  0  0  0  0  0  0  0
    7.0781   -5.9717   -1.7724 F   0  0  0  0  0  0  0  0  0  0  0  0
    5.9012   -4.7202   -0.1596 C   0  0  0  0  0  0  0  0  0  0  0  0
    5.3593   -4.6217    1.1267 C   0  0  0  0  0  0  0  0  0  0  0  0
    4.5593   -6.7077    4.0901 N   0  0  0  0  0  0  0  0  0  0  0  0
    4.1577   -6.2671    5.2582 C   0  0  0  0  0  0  0  0  0  0  0  0
    3.5372   -6.9704    6.3492 C   0  0  0  0  0  0  0  0  0  0  0  0
    3.3631   -8.2952    6.1126 O   0  0  0  0  0  0  0  0  0  0  0  0
    2.3106   -8.9047    6.8870 C   0  0  0  0  0  0  0  0  0  0  0  0
    0.9230   -8.3760    6.5182 C   0  0  0  0  0  0  0  0  0  0  0  0
    0.9631   -7.4368    5.5441 F   0  0  0  0  0  0  0  0  0  0  0  0
    0.1330   -9.3787    6.0679 F   0  0  0  0  0  0  0  0  0  0  0  0
    0.3024   -7.8246    7.5853 F   0  0  0  0  0  0  0  0  0  0  0  0
    3.1343   -6.3908    7.4451 N   0  0  0  0  0  0  0  0  0  0  0  0
    3.3549   -5.0319    7.5444 C   0  0  0  0  0  0  0  0  0  0  0  0
    3.9307   -4.2938    6.5803 C   0  0  0  0  0  0  0  0  0  0  0  0
    4.3243   -4.9107    5.3967 N   0  0  0  0  0  0  0  0  0  0  0  0
    6.4685   -2.8823    3.4244 N   0  0  0  0  0  0  0  0  0  0  0  0
   10.6606   -0.4248   -0.4056 H   0  0  0  0  0  0  0  0  0  0  0  0
    8.9613    0.0654   -0.3808 H   0  0  0  0  0  0  0  0  0  0  0  0
    9.4222   -1.5718    0.1057 H   0  0  0  0  0  0  0  0  0  0  0  0
   11.9261   -0.7971    1.7840 H   0  0  0  0  0  0  0  0  0  0  0  0
   10.7051   -1.9256    2.3472 H   0  0  0  0  0  0  0  0  0  0  0  0
   11.1169   -0.5166    3.3343 H   0  0  0  0  0  0  0  0  0  0  0  0
   10.3596    1.8527    2.6237 H   0  0  0  0  0  0  0  0  0  0  0  0
    9.4962    2.0616    1.1000 H   0  0  0  0  0  0  0  0  0  0  0  0
   12.2105    1.3281    1.4540 H   0  0  0  0  0  0  0  0  0  0  0  0
    7.8055    0.5083    1.8622 H   0  0  0  0  0  0  0  0  0  0  0  0
    8.6738    0.2446    3.3858 H   0  0  0  0  0  0  0  0  0  0  0  0
    8.6288   -2.2522    2.6757 H   0  0  0  0  0  0  0  0  0  0  0  0
    4.4553    0.1612    4.4180 H   0  0  0  0  0  0  0  0  0  0  0  0
    3.4882   -2.0988    4.8160 H   0  0  0  0  0  0  0  0  0  0  0  0
    6.2529   -7.6849    2.3116 H   0  0  0  0  0  0  0  0  0  0  0  0
    7.1832   -7.8554    0.0164 H   0  0  0  0  0  0  0  0  0  0  0  0
    5.8172   -3.8909   -0.8565 H   0  0  0  0  0  0  0  0  0  0  0  0
    4.8349   -3.7100    1.3885 H   0  0  0  0  0  0  0  0  0  0  0  0
    2.5121   -8.7900    7.9594 H   0  0  0  0  0  0  0  0  0  0  0  0
    2.3570   -9.9790    6.6815 H   0  0  0  0  0  0  0  0  0  0  0  0
    3.0257   -4.5632    8.4697 H   0  0  0  0  0  0  0  0  0  0  0  0
    4.0918   -3.2332    6.7021 H   0  0  0  0  0  0  0  0  0  0  0  0
  1  2  1  0  0  0  0
  1 36  1  0  0  0  0
  1 37  1  0  0  0  0
  1 38  1  0  0  0  0
  2  3  1  0  0  0  0
  2  4  1  0  0  0  0
  2  6  1  0  0  0  0
  3 39  1  0  0  0  0
  3 40  1  0  0  0  0
  3 41  1  0  0  0  0
  4  5  1  0  0  0  0
  4 42  1  0  0  0  0
  4 43  1  0  0  0  0
  5 44  1  0  0  0  0
  6  7  1  0  0  0  0
  6 45  1  0  0  0  0
  6 46  1  0  0  0  0
  7  8  1  0  0  0  0
  7 47  1  0  0  0  0
  8  9  1  0  0  0  0
  8 35  2  0  0  0  0
  9 10  2  0  0  0  0
 10 11  1  0  0  0  0
 10 48  1  0  0  0  0
 11 12  2  0  0  0  0
 11 49  1  0  0  0  0
 12 13  1  0  0  0  0
 12 35  1  0  0  0  0
 13 14  2  0  0  0  0
 13 34  1  0  0  0  0
 14 15  1  0  0  0  0
 14 22  1  0  0  0  0
 15 16  1  0  0  0  0
 15 21  2  0  0  0  0
 16 17  2  0  0  0  0
 16 50  1  0  0  0  0
 17 18  1  0  0  0  0
 17 51  1  0  0  0  0
 18 19  1  0  0  0  0
 18 20  2  0  0  0  0
 20 21  1  0  0  0  0
 20 52  1  0  0  0  0
 21 53  1  0  0  0  0
 22 23  2  0  0  0  0
 23 24  1  0  0  0  0
 23 34  1  0  0  0  0
 24 25  1  0  0  0  0
 24 31  2  0  0  0  0
 25 26  1  0  0  0  0
 26 27  1  0  0  0  0
 26 54  1  0  0  0  0
 26 55  1  0  0  0  0
 27 28  1  0  0  0  0
 27 29  1  0  0  0  0
 27 30  1  0  0  0  0
 31 32  1  0  0  0  0
 32 33  2  0  0  0  0
 32 56  1  0  0  0  0
 33 34  1  0  0  0  0
 33 57  1  0  0  0  0
M  END
$$$$
