CHEMBL3343366
 OpenBabel04072215363D

 77 82  0  0  0  0  0  0  0  0999 V2000
    2.5265   -0.0701    1.1241 C   0  0  0  0  0  0  0  0  0  0  0  0
    2.3106    0.3828   -0.2072 O   0  0  0  0  0  0  0  0  0  0  0  0
    3.0791   -0.1451   -1.2077 C   0  0  0  0  0  0  0  0  0  0  0  0
    4.2980   -0.7645   -0.9598 C   0  0  0  0  0  0  0  0  0  0  0  0
    4.9437   -1.5399   -1.9429 C   0  0  0  0  0  0  0  0  0  0  0  0
    6.0560   -2.3640   -1.6639 C   0  0  0  0  0  0  0  0  0  0  0  0
    6.6151   -2.5341   -0.4028 O   0  0  0  0  0  0  0  0  0  0  0  0
    5.8333   -2.9403    0.6606 C   0  0  0  0  0  0  0  0  0  0  0  0
    4.5594   -3.4983    0.5646 C   0  0  0  0  0  0  0  0  0  0  0  0
    3.8112   -3.7695    1.7210 C   0  0  0  0  0  0  0  0  0  0  0  0
    4.3405   -3.5637    2.9986 C   0  0  0  0  0  0  0  0  0  0  0  0
    3.6223   -3.8539    4.1849 N   0  0  0  0  0  0  0  0  0  0  0  0
    2.2546   -4.0799    4.2811 C   0  0  0  0  0  0  0  0  0  0  0  0
    1.4489   -3.9980    3.3621 O   0  0  0  0  0  0  0  0  0  0  0  0
    1.7927   -4.3932    5.6307 C   0  0  0  0  0  0  0  0  0  0  0  0
    2.5631   -5.0385    6.5548 N   0  0  0  0  0  0  0  0  0  0  0  0
    1.8579   -5.1472    7.6700 N   0  0  0  0  0  0  0  0  0  0  0  0
    0.6141   -4.6309    7.4647 N   0  0  0  0  0  0  0  0  0  0  0  0
   -0.3568   -4.7041    8.5074 C   0  0  0  0  0  0  0  0  0  0  0  0
    0.0919   -4.8037    9.8384 C   0  0  0  0  0  0  0  0  0  0  0  0
   -0.8229   -4.8447   10.8956 C   0  0  0  0  0  0  0  0  0  0  0  0
   -2.1841   -4.8191   10.6272 C   0  0  0  0  0  0  0  0  0  0  0  0
   -3.0609   -4.8661   11.6385 F   0  0  0  0  0  0  0  0  0  0  0  0
   -2.6468   -4.7581    9.3190 C   0  0  0  0  0  0  0  0  0  0  0  0
   -1.7362   -4.7016    8.2561 C   0  0  0  0  0  0  0  0  0  0  0  0
    0.5760   -4.0653    6.2075 C   0  0  0  0  0  0  0  0  0  0  0  0
   -0.4701   -3.1548    5.7481 C   0  0  0  0  0  0  0  0  0  0  0  0
   -0.0999   -2.4117    4.6785 F   0  0  0  0  0  0  0  0  0  0  0  0
   -1.6108   -3.7958    5.4047 F   0  0  0  0  0  0  0  0  0  0  0  0
   -0.7898   -2.2571    6.7159 F   0  0  0  0  0  0  0  0  0  0  0  0
    5.6448   -3.0698    3.0981 C   0  0  0  0  0  0  0  0  0  0  0  0
    6.3676   -2.7492    1.9389 C   0  0  0  0  0  0  0  0  0  0  0  0
    7.5934   -2.2207    2.0780 F   0  0  0  0  0  0  0  0  0  0  0  0
    6.6974   -3.0316   -2.7012 C   0  0  0  0  0  0  0  0  0  0  0  0
    6.1683   -2.9125   -3.9710 C   0  0  0  0  0  0  0  0  0  0  0  0
    5.0585   -2.1987   -4.2613 N   0  0  0  0  0  0  0  0  0  0  0  0
    4.4521   -1.5259   -3.2603 C   0  0  0  0  0  0  0  0  0  0  0  0
    3.3079   -0.7812   -3.5319 C   0  0  0  0  0  0  0  0  0  0  0  0
    2.6234   -0.0759   -2.5284 C   0  0  0  0  0  0  0  0  0  0  0  0
    1.5333    0.6390   -2.9687 O   0  0  0  0  0  0  0  0  0  0  0  0
    1.2094    1.7888   -2.1778 C   0  0  0  0  0  0  0  0  0  0  0  0
    0.6080    2.8884   -3.0398 C   0  0  0  0  0  0  0  0  0  0  0  0
   -0.7041    2.4585   -3.6964 C   0  0  0  0  0  0  0  0  0  0  0  0
   -1.3745    3.5848   -4.3717 N   0  0  0  0  0  0  0  0  0  0  0  0
   -2.6871    3.1721   -4.8963 C   0  0  0  0  0  0  0  0  0  0  0  0
   -2.3969    2.6299   -6.2814 C   0  0  0  0  0  0  0  0  0  0  0  0
   -1.3220    3.5669   -6.7920 C   0  0  0  0  0  0  0  0  0  0  0  0
   -0.6260    4.0856   -5.5394 C   0  0  0  0  0  0  0  0  0  0  0  0
    3.1141    0.6785    1.6633 H   0  0  0  0  0  0  0  0  0  0  0  0
    3.0061   -1.0480    1.1982 H   0  0  0  0  0  0  0  0  0  0  0  0
    1.5518   -0.1665    1.6133 H   0  0  0  0  0  0  0  0  0  0  0  0
    4.7449   -0.6825    0.0205 H   0  0  0  0  0  0  0  0  0  0  0  0
    4.0921   -3.6907   -0.3973 H   0  0  0  0  0  0  0  0  0  0  0  0
    2.8052   -4.1530    1.5757 H   0  0  0  0  0  0  0  0  0  0  0  0
    4.1384   -3.8446    5.0597 H   0  0  0  0  0  0  0  0  0  0  0  0
    1.1549   -4.8165   10.0760 H   0  0  0  0  0  0  0  0  0  0  0  0
   -0.4795   -4.8928   11.9245 H   0  0  0  0  0  0  0  0  0  0  0  0
   -3.7172   -4.7667    9.1312 H   0  0  0  0  0  0  0  0  0  0  0  0
   -2.1540   -4.7182    7.2561 H   0  0  0  0  0  0  0  0  0  0  0  0
    6.1147   -2.8877    4.0603 H   0  0  0  0  0  0  0  0  0  0  0  0
    7.5841   -3.6305   -2.5255 H   0  0  0  0  0  0  0  0  0  0  0  0
    6.6335   -3.4050   -4.8219 H   0  0  0  0  0  0  0  0  0  0  0  0
    2.9287   -0.7561   -4.5523 H   0  0  0  0  0  0  0  0  0  0  0  0
    2.1070    2.2240   -1.7218 H   0  0  0  0  0  0  0  0  0  0  0  0
    0.4943    1.4965   -1.4007 H   0  0  0  0  0  0  0  0  0  0  0  0
    1.3476    3.1612   -3.7991 H   0  0  0  0  0  0  0  0  0  0  0  0
    0.4389    3.7696   -2.4092 H   0  0  0  0  0  0  0  0  0  0  0  0
   -1.3672    2.0913   -2.9016 H   0  0  0  0  0  0  0  0  0  0  0  0
   -0.5285    1.6218   -4.3825 H   0  0  0  0  0  0  0  0  0  0  0  0
   -3.3305    4.0578   -4.9689 H   0  0  0  0  0  0  0  0  0  0  0  0
   -3.2080    2.4478   -4.2608 H   0  0  0  0  0  0  0  0  0  0  0  0
   -3.2799    2.6226   -6.9259 H   0  0  0  0  0  0  0  0  0  0  0  0
   -2.0085    1.6060   -6.2245 H   0  0  0  0  0  0  0  0  0  0  0  0
   -1.7757    4.4015   -7.3384 H   0  0  0  0  0  0  0  0  0  0  0  0
   -0.6287    3.0539   -7.4656 H   0  0  0  0  0  0  0  0  0  0  0  0
   -0.6493    5.1818   -5.5301 H   0  0  0  0  0  0  0  0  0  0  0  0
    0.4298    3.8015   -5.5524 H   0  0  0  0  0  0  0  0  0  0  0  0
  1  2  1  0  0  0  0
  1 49  1  0  0  0  0
  1 50  1  0  0  0  0
  1 51  1  0  0  0  0
  2  3  1  0  0  0  0
  3  4  1  0  0  0  0
  3 39  2  0  0  0  0
  4  5  2  0  0  0  0
  4 52  1  0  0  0  0
  5  6  1  0  0  0  0
  5 37  1  0  0  0  0
  6  7  1  0  0  0  0
  6 34  2  0  0  0  0
  7  8  1  0  0  0  0
  8  9  1  0  0  0  0
  8 32  2  0  0  0  0
  9 10  2  0  0  0  0
  9 53  1  0  0  0  0
 10 11  1  0  0  0  0
 10 54  1  0  0  0  0
 11 12  1  0  0  0  0
 11 31  2  0  0  0  0
 12 13  1  0  0  0  0
 12 55  1  0  0  0  0
 13 14  2  0  0  0  0
 13 15  1  0  0  0  0
 15 16  1  0  0  0  0
 15 26  2  0  0  0  0
 16 17  2  0  0  0  0
 17 18  1  0  0  0  0
 18 19  1  0  0  0  0
 18 26  1  0  0  0  0
 19 20  1  0  0  0  0
 19 25  2  0  0  0  0
 20 21  2  0  0  0  0
 20 56  1  0  0  0  0
 21 22  1  0  0  0  0
 21 57  1  0  0  0  0
 22 23  1  0  0  0  0
 22 24  2  0  0  0  0
 24 25  1  0  0  0  0
 24 58  1  0  0  0  0
 25 59  1  0  0  0  0
 26 27  1  0  0  0  0
 27 28  1  0  0  0  0
 27 29  1  0  0  0  0
 27 30  1  0  0  0  0
 31 32  1  0  0  0  0
 31 60  1  0  0  0  0
 32 33  1  0  0  0  0
 34 35  1  0  0  0  0
 34 61  1  0  0  0  0
 35 36  2  0  0  0  0
 35 62  1  0  0  0  0
 36 37  1  0  0  0  0
 37 38  2  0  0  0  0
 38 39  1  0  0  0  0
 38 63  1  0  0  0  0
 39 40  1  0  0  0  0
 40 41  1  0  0  0  0
 41 42  1  0  0  0  0
 41 64  1  0  0  0  0
 41 65  1  0  0  0  0
 42 43  1  0  0  0  0
 42 66  1  0  0  0  0
 42 67  1  0  0  0  0
 43 44  1  0  0  0  0
 43 68  1  0  0  0  0
 43 69  1  0  0  0  0
 44 45  1  0  0  0  0
 44 48  1  0  0  0  0
 45 46  1  0  0  0  0
 45 70  1  0  0  0  0
 45 71  1  0  0  0  0
 46 47  1  0  0  0  0
 46 72  1  0  0  0  0
 46 73  1  0  0  0  0
 47 48  1  0  0  0  0
 47 74  1  0  0  0  0
 47 75  1  0  0  0  0
 48 76  1  0  0  0  0
 48 77  1  0  0  0  0
M  END
$$$$
