CHEMBL3690460
 OpenBabel04072215373D

 49 52  0  0  0  0  0  0  0  0999 V2000
   -2.3096   -0.1891    1.1691 C   0  0  0  0  0  0  0  0  0  0  0  0
   -0.9456   -0.0919    0.5574 C   0  0  0  0  0  0  0  0  0  0  0  0
   -0.3471   -1.1839   -0.0655 C   0  0  0  0  0  0  0  0  0  0  0  0
    0.9137   -1.0199   -0.6097 C   0  0  0  0  0  0  0  0  0  0  0  0
    1.6115    0.1371   -0.5663 N   0  0  0  0  0  0  0  0  0  0  0  0
    1.0376    1.1965    0.0555 C   0  0  0  0  0  0  0  0  0  0  0  0
    1.8498    2.4494    0.0822 C   0  0  0  0  0  0  0  0  0  0  0  0
    2.8365    2.7329   -0.9709 C   0  0  0  0  0  0  0  0  0  0  0  0
    3.5784    3.8511   -0.9227 C   0  0  0  0  0  0  0  0  0  0  0  0
    3.3912    4.7693    0.1142 N   0  0  0  0  0  0  0  0  0  0  0  0
    3.9481    6.0315    0.3496 C   0  0  0  0  0  0  0  0  0  0  0  0
    4.8370    6.7884   -0.5525 C   0  0  0  0  0  0  0  0  0  0  0  0
    4.6862    6.6797   -1.9388 C   0  0  0  0  0  0  0  0  0  0  0  0
    5.5376    7.3475   -2.8078 C   0  0  0  0  0  0  0  0  0  0  0  0
    6.5047    8.2067   -2.3050 C   0  0  0  0  0  0  0  0  0  0  0  0
    6.6295    8.4297   -0.9324 C   0  0  0  0  0  0  0  0  0  0  0  0
    7.5403    9.3804   -0.4011 N   0  0  0  0  0  0  0  0  0  0  0  0
    8.3247   10.2479   -1.1391 C   0  0  0  0  0  0  0  0  0  0  0  0
    8.3716   10.3502   -2.3594 O   0  0  0  0  0  0  0  0  0  0  0  0
    9.1498   11.0260   -0.3562 N   0  0  0  0  0  0  0  0  0  0  0  0
   10.0223   11.9940   -1.0373 C   0  0  0  0  0  0  0  0  0  0  0  0
    9.3536   13.2888   -1.5312 C   0  0  0  0  0  0  0  0  0  0  0  0
    8.0869   13.4131   -1.0722 F   0  0  0  0  0  0  0  0  0  0  0  0
   10.0414   14.3653   -1.0714 F   0  0  0  0  0  0  0  0  0  0  0  0
    9.3272   13.3788   -2.8769 F   0  0  0  0  0  0  0  0  0  0  0  0
    5.8100    7.6883   -0.0573 C   0  0  0  0  0  0  0  0  0  0  0  0
    3.4103    6.4020    1.5733 C   0  0  0  0  0  0  0  0  0  0  0  0
    2.5309    5.4728    2.0615 N   0  0  0  0  0  0  0  0  0  0  0  0
    2.5087    4.5159    1.1613 C   0  0  0  0  0  0  0  0  0  0  0  0
    1.7441    3.3139    1.1168 C   0  0  0  0  0  0  0  0  0  0  0  0
   -0.2424    1.1184    0.6055 C   0  0  0  0  0  0  0  0  0  0  0  0
   -2.7233   -1.1981    1.0736 H   0  0  0  0  0  0  0  0  0  0  0  0
   -2.9956    0.5062    0.6755 H   0  0  0  0  0  0  0  0  0  0  0  0
   -2.2605    0.0519    2.2363 H   0  0  0  0  0  0  0  0  0  0  0  0
   -0.8476   -2.1457   -0.1326 H   0  0  0  0  0  0  0  0  0  0  0  0
    1.4171   -1.8420   -1.1115 H   0  0  0  0  0  0  0  0  0  0  0  0
    2.9559    2.0132   -1.7761 H   0  0  0  0  0  0  0  0  0  0  0  0
    4.3284    4.0597   -1.6720 H   0  0  0  0  0  0  0  0  0  0  0  0
    3.8911    6.0841   -2.3778 H   0  0  0  0  0  0  0  0  0  0  0  0
    5.4400    7.2146   -3.8818 H   0  0  0  0  0  0  0  0  0  0  0  0
    7.1398    8.7014   -3.0320 H   0  0  0  0  0  0  0  0  0  0  0  0
    7.5948    9.4537    0.6029 H   0  0  0  0  0  0  0  0  0  0  0  0
    8.8018   11.2835    0.5561 H   0  0  0  0  0  0  0  0  0  0  0  0
   10.4959   11.4957   -1.8923 H   0  0  0  0  0  0  0  0  0  0  0  0
   10.8220   12.2399   -0.3301 H   0  0  0  0  0  0  0  0  0  0  0  0
    5.9175    7.8195    1.0158 H   0  0  0  0  0  0  0  0  0  0  0  0
    3.5856    7.3242    2.1133 H   0  0  0  0  0  0  0  0  0  0  0  0
    1.0786    3.1400    1.9556 H   0  0  0  0  0  0  0  0  0  0  0  0
   -0.7063    1.9849    1.0660 H   0  0  0  0  0  0  0  0  0  0  0  0
  1  2  1  0  0  0  0
  1 32  1  0  0  0  0
  1 33  1  0  0  0  0
  1 34  1  0  0  0  0
  2  3  1  0  0  0  0
  2 31  2  0  0  0  0
  3  4  2  0  0  0  0
  3 35  1  0  0  0  0
  4  5  1  0  0  0  0
  4 36  1  0  0  0  0
  5  6  2  0  0  0  0
  6  7  1  0  0  0  0
  6 31  1  0  0  0  0
  7  8  1  0  0  0  0
  7 30  2  0  0  0  0
  8  9  2  0  0  0  0
  8 37  1  0  0  0  0
  9 10  1  0  0  0  0
  9 38  1  0  0  0  0
 10 11  1  0  0  0  0
 10 29  1  0  0  0  0
 11 12  1  0  0  0  0
 11 27  2  0  0  0  0
 12 13  1  0  0  0  0
 12 26  2  0  0  0  0
 13 14  2  0  0  0  0
 13 39  1  0  0  0  0
 14 15  1  0  0  0  0
 14 40  1  0  0  0  0
 15 16  2  0  0  0  0
 15 41  1  0  0  0  0
 16 17  1  0  0  0  0
 16 26  1  0  0  0  0
 17 18  1  0  0  0  0
 17 42  1  0  0  0  0
 18 19  2  0  0  0  0
 18 20  1  0  0  0  0
 20 21  1  0  0  0  0
 20 43  1  0  0  0  0
 21 22  1  0  0  0  0
 21 44  1  0  0  0  0
 21 45  1  0  0  0  0
 22 23  1  0  0  0  0
 22 24  1  0  0  0  0
 22 25  1  0  0  0  0
 26 46  1  0  0  0  0
 27 28  1  0  0  0  0
 27 47  1  0  0  0  0
 28 29  2  0  0  0  0
 29 30  1  0  0  0  0
 30 48  1  0  0  0  0
 31 49  1  0  0  0  0
M  END
$$$$
