CHEMBL1082958
 OpenBabel04072215363D

 77 81  0  0  0  0  0  0  0  0999 V2000
    1.0912    1.9473   -2.5609 C   0  0  0  0  0  0  0  0  0  0  0  0
    2.0515    2.8010   -1.9571 O   0  0  0  0  0  0  0  0  0  0  0  0
    3.2490    2.0958   -1.6394 C   0  0  0  0  0  0  0  0  0  0  0  0
    4.3259    3.0516   -1.1061 C   0  0  0  0  0  0  0  0  0  0  0  0
    4.0185    3.8199    0.1173 N   0  0  0  0  0  0  0  0  0  0  0  0
    5.1248    4.7668    0.4018 C   0  0  0  0  0  0  0  0  0  0  0  0
    6.4272    4.0672    0.8354 C   0  0  0  0  0  0  0  0  0  0  0  0
    6.1869    3.2502    2.0296 N   0  0  0  0  0  0  0  0  0  0  0  0
    6.8206    3.5584    3.2167 C   0  0  0  0  0  0  0  0  0  0  0  0
    7.1510    4.8791    3.5419 C   0  0  0  0  0  0  0  0  0  0  0  0
    7.9214    5.1901    4.6601 C   0  0  0  0  0  0  0  0  0  0  0  0
    8.3946    4.1813    5.4984 C   0  0  0  0  0  0  0  0  0  0  0  0
    9.2991    4.4902    6.5922 C   0  0  0  0  0  0  0  0  0  0  0  0
    9.4666    3.8693    7.8446 C   0  0  0  0  0  0  0  0  0  0  0  0
   10.4332    4.4156    8.5821 N   0  0  0  0  0  0  0  0  0  0  0  0
   10.9370    5.4083    7.7888 N   0  0  0  0  0  0  0  0  0  0  0  0
   11.9915    6.3034    8.1164 C   0  0  0  0  0  0  0  0  0  0  0  0
   12.6276    6.1092    9.3423 N   0  0  0  0  0  0  0  0  0  0  0  0
   12.2914    7.2778    7.2307 C   0  0  0  0  0  0  0  0  0  0  0  0
   13.3335    8.2829    7.4242 C   0  0  0  0  0  0  0  0  0  0  0  0
   14.6446    7.9791    7.0830 C   0  0  0  0  0  0  0  0  0  0  0  0
   15.6438    8.9436    7.2244 C   0  0  0  0  0  0  0  0  0  0  0  0
   15.3482   10.2200    7.7133 C   0  0  0  0  0  0  0  0  0  0  0  0
   16.3301   11.2150    7.8837 N   0  0  0  0  0  0  0  0  0  0  0  0
   17.6842   11.0297    7.7984 C   0  0  0  0  0  0  0  0  0  0  0  0
   18.2703    9.9847    7.5562 O   0  0  0  0  0  0  0  0  0  0  0  0
   18.3253   12.1893    8.1120 O   0  0  0  0  0  0  0  0  0  0  0  0
   19.7129   12.0068    8.4432 C   0  0  0  0  0  0  0  0  0  0  0  0
   20.6241   11.7774    7.2256 C   0  0  0  0  0  0  0  0  0  0  0  0
   20.6644   12.9999    6.3117 C   0  0  0  0  0  0  0  0  0  0  0  0
   22.0280   11.4050    7.7015 C   0  0  0  0  0  0  0  0  0  0  0  0
   14.0270   10.5228    8.0554 C   0  0  0  0  0  0  0  0  0  0  0  0
   13.0208    9.5558    7.9133 C   0  0  0  0  0  0  0  0  0  0  0  0
   11.5262    7.2557    5.9496 C   0  0  0  0  0  0  0  0  0  0  0  0
   10.5775    6.4343    5.6293 N   0  0  0  0  0  0  0  0  0  0  0  0
   10.2507    5.4962    6.5729 C   0  0  0  0  0  0  0  0  0  0  0  0
    8.0089    2.8632    5.2360 C   0  0  0  0  0  0  0  0  0  0  0  0
    7.2243    2.5604    4.1120 C   0  0  0  0  0  0  0  0  0  0  0  0
    5.0462    2.3248    1.9719 C   0  0  0  0  0  0  0  0  0  0  0  0
    3.7974    2.9965    1.3291 C   0  0  0  0  0  0  0  0  0  0  0  0
    0.1951    2.5345   -2.7763 H   0  0  0  0  0  0  0  0  0  0  0  0
    0.8232    1.1306   -1.8837 H   0  0  0  0  0  0  0  0  0  0  0  0
    1.4785    1.5443   -3.5019 H   0  0  0  0  0  0  0  0  0  0  0  0
    3.6393    1.6388   -2.5584 H   0  0  0  0  0  0  0  0  0  0  0  0
    3.0419    1.2939   -0.9238 H   0  0  0  0  0  0  0  0  0  0  0  0
    4.5080    3.7838   -1.9042 H   0  0  0  0  0  0  0  0  0  0  0  0
    5.2431    2.4656   -0.9901 H   0  0  0  0  0  0  0  0  0  0  0  0
    4.8007    5.4506    1.1981 H   0  0  0  0  0  0  0  0  0  0  0  0
    5.3167    5.3986   -0.4729 H   0  0  0  0  0  0  0  0  0  0  0  0
    7.2222    4.8090    0.9695 H   0  0  0  0  0  0  0  0  0  0  0  0
    6.8030    3.4111    0.0422 H   0  0  0  0  0  0  0  0  0  0  0  0
    6.8216    5.7033    2.9164 H   0  0  0  0  0  0  0  0  0  0  0  0
    8.1694    6.2329    4.8392 H   0  0  0  0  0  0  0  0  0  0  0  0
    8.9106    3.0364    8.2565 H   0  0  0  0  0  0  0  0  0  0  0  0
   12.0542    5.5514    9.9805 H   0  0  0  0  0  0  0  0  0  0  0  0
   13.0233    6.9483    9.7545 H   0  0  0  0  0  0  0  0  0  0  0  0
   14.9146    6.9957    6.7022 H   0  0  0  0  0  0  0  0  0  0  0  0
   16.6475    8.6544    6.9270 H   0  0  0  0  0  0  0  0  0  0  0  0
   16.0485   12.1299    8.2073 H   0  0  0  0  0  0  0  0  0  0  0  0
   19.7966   11.1748    9.1553 H   0  0  0  0  0  0  0  0  0  0  0  0
   20.0282   12.9040    8.9873 H   0  0  0  0  0  0  0  0  0  0  0  0
   20.2468   10.9457    6.6216 H   0  0  0  0  0  0  0  0  0  0  0  0
   21.0485   13.8786    6.8385 H   0  0  0  0  0  0  0  0  0  0  0  0
   19.6666   13.2363    5.9292 H   0  0  0  0  0  0  0  0  0  0  0  0
   21.3142   12.8116    5.4497 H   0  0  0  0  0  0  0  0  0  0  0  0
   22.4761   12.2119    8.2902 H   0  0  0  0  0  0  0  0  0  0  0  0
   22.6859   11.1928    6.8530 H   0  0  0  0  0  0  0  0  0  0  0  0
   21.9957   10.5065    8.3287 H   0  0  0  0  0  0  0  0  0  0  0  0
   13.7583   11.5002    8.4451 H   0  0  0  0  0  0  0  0  0  0  0  0
   11.9988    9.8077    8.1887 H   0  0  0  0  0  0  0  0  0  0  0  0
   11.8215    8.0208    5.2106 H   0  0  0  0  0  0  0  0  0  0  0  0
    8.3565    2.0457    5.8621 H   0  0  0  0  0  0  0  0  0  0  0  0
    6.9998    1.5185    3.9013 H   0  0  0  0  0  0  0  0  0  0  0  0
    4.7615    1.9725    2.9713 H   0  0  0  0  0  0  0  0  0  0  0  0
    5.3316    1.4444    1.3854 H   0  0  0  0  0  0  0  0  0  0  0  0
    3.3618    3.6644    2.0864 H   0  0  0  0  0  0  0  0  0  0  0  0
    3.0249    2.2408    1.1499 H   0  0  0  0  0  0  0  0  0  0  0  0
  1  2  1  0  0  0  0
  1 41  1  0  0  0  0
  1 42  1  0  0  0  0
  1 43  1  0  0  0  0
  2  3  1  0  0  0  0
  3  4  1  0  0  0  0
  3 44  1  0  0  0  0
  3 45  1  0  0  0  0
  4  5  1  0  0  0  0
  4 46  1  0  0  0  0
  4 47  1  0  0  0  0
  5  6  1  0  0  0  0
  5 40  1  0  0  0  0
  6  7  1  0  0  0  0
  6 48  1  0  0  0  0
  6 49  1  0  0  0  0
  7  8  1  0  0  0  0
  7 50  1  0  0  0  0
  7 51  1  0  0  0  0
  8  9  1  0  0  0  0
  8 39  1  0  0  0  0
  9 10  1  0  0  0  0
  9 38  2  0  0  0  0
 10 11  2  0  0  0  0
 10 52  1  0  0  0  0
 11 12  1  0  0  0  0
 11 53  1  0  0  0  0
 12 13  1  0  0  0  0
 12 37  2  0  0  0  0
 13 14  1  0  0  0  0
 13 36  2  0  0  0  0
 14 15  2  0  0  0  0
 14 54  1  0  0  0  0
 15 16  1  0  0  0  0
 16 17  1  0  0  0  0
 16 36  1  0  0  0  0
 17 18  1  0  0  0  0
 17 19  2  0  0  0  0
 18 55  1  0  0  0  0
 18 56  1  0  0  0  0
 19 20  1  0  0  0  0
 19 34  1  0  0  0  0
 20 21  1  0  0  0  0
 20 33  2  0  0  0  0
 21 22  2  0  0  0  0
 21 57  1  0  0  0  0
 22 23  1  0  0  0  0
 22 58  1  0  0  0  0
 23 24  1  0  0  0  0
 23 32  2  0  0  0  0
 24 25  1  0  0  0  0
 24 59  1  0  0  0  0
 25 26  2  0  0  0  0
 25 27  1  0  0  0  0
 27 28  1  0  0  0  0
 28 29  1  0  0  0  0
 28 60  1  0  0  0  0
 28 61  1  0  0  0  0
 29 30  1  0  0  0  0
 29 31  1  0  0  0  0
 29 62  1  0  0  0  0
 30 63  1  0  0  0  0
 30 64  1  0  0  0  0
 30 65  1  0  0  0  0
 31 66  1  0  0  0  0
 31 67  1  0  0  0  0
 31 68  1  0  0  0  0
 32 33  1  0  0  0  0
 32 69  1  0  0  0  0
 33 70  1  0  0  0  0
 34 35  2  0  0  0  0
 34 71  1  0  0  0  0
 35 36  1  0  0  0  0
 37 38  1  0  0  0  0
 37 72  1  0  0  0  0
 38 73  1  0  0  0  0
 39 40  1  0  0  0  0
 39 74  1  0  0  0  0
 39 75  1  0  0  0  0
 40 76  1  0  0  0  0
 40 77  1  0  0  0  0
M  END
$$$$
