CHEMBL513680
 OpenBabel04072215383D

 48 52  0  0  0  0  0  0  0  0999 V2000
    1.9811    6.3923   -1.7166 C   0  0  0  0  0  0  0  0  0  0  0  0
    1.6414    5.1271   -1.1060 N   0  0  0  0  0  0  0  0  0  0  0  0
    0.5415    5.0443   -0.3357 N   0  0  0  0  0  0  0  0  0  0  0  0
    0.3293    3.7227   -0.2021 C   0  0  0  0  0  0  0  0  0  0  0  0
   -0.9258    3.1513    0.2951 C   0  0  0  0  0  0  0  0  0  0  0  0
   -0.9681    2.0267    0.8093 O   0  0  0  0  0  0  0  0  0  0  0  0
   -2.2153    3.8939    0.1389 C   0  0  0  0  0  0  0  0  0  0  0  0
   -3.1031    3.7437    1.2310 C   0  0  0  0  0  0  0  0  0  0  0  0
   -4.3117    4.4343    1.2877 C   0  0  0  0  0  0  0  0  0  0  0  0
   -4.6430    5.3038    0.2626 C   0  0  0  0  0  0  0  0  0  0  0  0
   -3.7982    5.4201   -0.8448 C   0  0  0  0  0  0  0  0  0  0  0  0
   -2.5984    4.6799   -0.9730 C   0  0  0  0  0  0  0  0  0  0  0  0
   -1.9632    4.7963   -2.2050 N   0  0  0  0  0  0  0  0  0  0  0  0
   -1.1359    3.7755   -2.8216 C   0  0  0  0  0  0  0  0  0  0  0  0
   -1.5586    3.5193   -4.2405 C   0  0  0  0  0  0  0  0  0  0  0  0
   -0.7052    3.8565   -5.3052 C   0  0  0  0  0  0  0  0  0  0  0  0
   -1.0851    3.6343   -6.6326 C   0  0  0  0  0  0  0  0  0  0  0  0
   -2.3329    3.0379   -6.8808 C   0  0  0  0  0  0  0  0  0  0  0  0
   -3.0865    2.6883   -8.0166 C   0  0  0  0  0  0  0  0  0  0  0  0
   -4.2321    2.0689   -7.7104 N   0  0  0  0  0  0  0  0  0  0  0  0
   -4.2126    2.0289   -6.3665 N   0  0  0  0  0  0  0  0  0  0  0  0
   -3.1317    2.6550   -5.8070 C   0  0  0  0  0  0  0  0  0  0  0  0
   -2.7930    2.8965   -4.4782 C   0  0  0  0  0  0  0  0  0  0  0  0
    1.4267    2.9755   -0.7380 C   0  0  0  0  0  0  0  0  0  0  0  0
    1.7482    1.6082   -0.8580 C   0  0  0  0  0  0  0  0  0  0  0  0
    2.8770    1.2354   -1.5946 C   0  0  0  0  0  0  0  0  0  0  0  0
    3.6579    2.1965   -2.2335 C   0  0  0  0  0  0  0  0  0  0  0  0
    3.3476    3.5577   -2.1430 C   0  0  0  0  0  0  0  0  0  0  0  0
    2.2349    3.9174   -1.3701 C   0  0  0  0  0  0  0  0  0  0  0  0
    1.2127    7.1326   -1.4794 H   0  0  0  0  0  0  0  0  0  0  0  0
    2.0290    6.2536   -2.8026 H   0  0  0  0  0  0  0  0  0  0  0  0
    2.9475    6.7114   -1.3256 H   0  0  0  0  0  0  0  0  0  0  0  0
   -2.8437    3.0813    2.0574 H   0  0  0  0  0  0  0  0  0  0  0  0
   -4.9792    4.3038    2.1358 H   0  0  0  0  0  0  0  0  0  0  0  0
   -5.5646    5.8778    0.3057 H   0  0  0  0  0  0  0  0  0  0  0  0
   -4.1069    6.0919   -1.6453 H   0  0  0  0  0  0  0  0  0  0  0  0
   -2.3757    5.4465   -2.8639 H   0  0  0  0  0  0  0  0  0  0  0  0
   -1.1596    2.8180   -2.2931 H   0  0  0  0  0  0  0  0  0  0  0  0
   -0.1094    4.1407   -2.8540 H   0  0  0  0  0  0  0  0  0  0  0  0
    0.2701    4.2915   -5.1068 H   0  0  0  0  0  0  0  0  0  0  0  0
   -0.4220    3.9088   -7.4480 H   0  0  0  0  0  0  0  0  0  0  0  0
   -2.8477    2.8620   -9.0549 H   0  0  0  0  0  0  0  0  0  0  0  0
   -4.9629    1.5512   -5.8825 H   0  0  0  0  0  0  0  0  0  0  0  0
   -3.4429    2.6145   -3.6555 H   0  0  0  0  0  0  0  0  0  0  0  0
    1.1204    0.8511   -0.3949 H   0  0  0  0  0  0  0  0  0  0  0  0
    3.1347    0.1824   -1.6805 H   0  0  0  0  0  0  0  0  0  0  0  0
    4.5201    1.8812   -2.8177 H   0  0  0  0  0  0  0  0  0  0  0  0
    3.9456    4.2973   -2.6648 H   0  0  0  0  0  0  0  0  0  0  0  0
  1  2  1  0  0  0  0
  1 30  1  0  0  0  0
  1 31  1  0  0  0  0
  1 32  1  0  0  0  0
  2  3  1  0  0  0  0
  2 29  1  0  0  0  0
  3  4  2  0  0  0  0
  4  5  1  0  0  0  0
  4 24  1  0  0  0  0
  5  6  2  0  0  0  0
  5  7  1  0  0  0  0
  7  8  1  0  0  0  0
  7 12  2  0  0  0  0
  8  9  2  0  0  0  0
  8 33  1  0  0  0  0
  9 10  1  0  0  0  0
  9 34  1  0  0  0  0
 10 11  2  0  0  0  0
 10 35  1  0  0  0  0
 11 12  1  0  0  0  0
 11 36  1  0  0  0  0
 12 13  1  0  0  0  0
 13 14  1  0  0  0  0
 13 37  1  0  0  0  0
 14 15  1  0  0  0  0
 14 38  1  0  0  0  0
 14 39  1  0  0  0  0
 15 16  1  0  0  0  0
 15 23  2  0  0  0  0
 16 17  2  0  0  0  0
 16 40  1  0  0  0  0
 17 18  1  0  0  0  0
 17 41  1  0  0  0  0
 18 19  1  0  0  0  0
 18 22  2  0  0  0  0
 19 20  2  0  0  0  0
 19 42  1  0  0  0  0
 20 21  1  0  0  0  0
 21 22  1  0  0  0  0
 21 43  1  0  0  0  0
 22 23  1  0  0  0  0
 23 44  1  0  0  0  0
 24 25  1  0  0  0  0
 24 29  2  0  0  0  0
 25 26  2  0  0  0  0
 25 45  1  0  0  0  0
 26 27  1  0  0  0  0
 26 46  1  0  0  0  0
 27 28  2  0  0  0  0
 27 47  1  0  0  0  0
 28 29  1  0  0  0  0
 28 48  1  0  0  0  0
M  END
$$$$
