CHEMBL2004311
 OpenBabel04072215363D

 52 55  0  0  0  0  0  0  0  0999 V2000
   -5.8733   -3.9022   -0.2214 C   0  0  0  0  0  0  0  0  0  0  0  0
   -4.7939   -4.7671    0.3610 C   0  0  0  0  0  0  0  0  0  0  0  0
   -5.1211   -5.8652    1.1622 C   0  0  0  0  0  0  0  0  0  0  0  0
   -4.1189   -6.6818    1.6954 C   0  0  0  0  0  0  0  0  0  0  0  0
   -4.4425   -7.8649    2.5571 C   0  0  0  0  0  0  0  0  0  0  0  0
   -2.7759   -6.3963    1.3978 C   0  0  0  0  0  0  0  0  0  0  0  0
   -2.4330   -5.3223    0.5746 C   0  0  0  0  0  0  0  0  0  0  0  0
   -1.0911   -5.0371    0.2333 N   0  0  0  0  0  0  0  0  0  0  0  0
   -0.0697   -5.9646    0.2476 C   0  0  0  0  0  0  0  0  0  0  0  0
   -0.2084   -7.1705    0.4088 O   0  0  0  0  0  0  0  0  0  0  0  0
    1.1651   -5.3497    0.0926 N   0  0  0  0  0  0  0  0  0  0  0  0
    2.3474   -6.1194    0.0793 C   0  0  0  0  0  0  0  0  0  0  0  0
    3.3885   -5.7631    0.9152 C   0  0  0  0  0  0  0  0  0  0  0  0
    4.5372   -6.5589    0.9616 C   0  0  0  0  0  0  0  0  0  0  0  0
    4.7672   -7.6445    0.0838 C   0  0  0  0  0  0  0  0  0  0  0  0
    6.1131   -8.2947    0.0800 C   0  0  0  0  0  0  0  0  0  0  0  0
    6.2822   -9.6908   -0.0695 C   0  0  0  0  0  0  0  0  0  0  0  0
    7.5474  -10.2982   -0.2424 C   0  0  0  0  0  0  0  0  0  0  0  0
    8.7090   -9.5377   -0.2047 C   0  0  0  0  0  0  0  0  0  0  0  0
    8.5595   -8.1904    0.0371 C   0  0  0  0  0  0  0  0  0  0  0  0
    7.3089   -7.5675    0.1881 C   0  0  0  0  0  0  0  0  0  0  0  0
    7.5476   -6.1137    0.4751 C   0  0  0  0  0  0  0  0  0  0  0  0
    8.9770   -5.9775    0.3805 N   0  0  0  0  0  0  0  0  0  0  0  0
    9.6089   -7.1777    0.1707 C   0  0  0  0  0  0  0  0  0  0  0  0
   10.8068   -7.3734    0.1231 O   0  0  0  0  0  0  0  0  0  0  0  0
    3.6919   -7.9882   -0.7802 C   0  0  0  0  0  0  0  0  0  0  0  0
    3.6828   -9.1072   -1.7933 C   0  0  0  0  0  0  0  0  0  0  0  0
    2.4882   -7.2394   -0.7374 C   0  0  0  0  0  0  0  0  0  0  0  0
   -3.4453   -4.4919    0.0845 C   0  0  0  0  0  0  0  0  0  0  0  0
   -6.8676   -4.2541    0.0717 H   0  0  0  0  0  0  0  0  0  0  0  0
   -5.8221   -3.9210   -1.3141 H   0  0  0  0  0  0  0  0  0  0  0  0
   -5.7672   -2.8725    0.1313 H   0  0  0  0  0  0  0  0  0  0  0  0
   -6.1627   -6.0946    1.3760 H   0  0  0  0  0  0  0  0  0  0  0  0
   -5.5206   -7.9667    2.7129 H   0  0  0  0  0  0  0  0  0  0  0  0
   -3.9689   -7.7584    3.5386 H   0  0  0  0  0  0  0  0  0  0  0  0
   -4.0830   -8.7848    2.0842 H   0  0  0  0  0  0  0  0  0  0  0  0
   -2.0116   -7.0371    1.8301 H   0  0  0  0  0  0  0  0  0  0  0  0
   -0.9251   -4.2100   -0.3234 H   0  0  0  0  0  0  0  0  0  0  0  0
    1.2210   -4.4506    0.5506 H   0  0  0  0  0  0  0  0  0  0  0  0
    3.3026   -4.9173    1.5893 H   0  0  0  0  0  0  0  0  0  0  0  0
    5.2634   -6.3094    1.7281 H   0  0  0  0  0  0  0  0  0  0  0  0
    5.4130  -10.3481   -0.0746 H   0  0  0  0  0  0  0  0  0  0  0  0
    7.6109  -11.3703   -0.4177 H   0  0  0  0  0  0  0  0  0  0  0  0
    9.6918   -9.9754   -0.3427 H   0  0  0  0  0  0  0  0  0  0  0  0
    7.2821   -5.8514    1.5028 H   0  0  0  0  0  0  0  0  0  0  0  0
    7.0737   -5.4460   -0.2465 H   0  0  0  0  0  0  0  0  0  0  0  0
    9.5014   -5.1411    0.5996 H   0  0  0  0  0  0  0  0  0  0  0  0
    4.6395   -9.6042   -1.9379 H   0  0  0  0  0  0  0  0  0  0  0  0
    3.4049   -8.7122   -2.7771 H   0  0  0  0  0  0  0  0  0  0  0  0
    2.9440   -9.8640   -1.5023 H   0  0  0  0  0  0  0  0  0  0  0  0
    1.6608   -7.5314   -1.3847 H   0  0  0  0  0  0  0  0  0  0  0  0
   -3.1981   -3.6376   -0.5441 H   0  0  0  0  0  0  0  0  0  0  0  0
  1  2  1  0  0  0  0
  1 30  1  0  0  0  0
  1 31  1  0  0  0  0
  1 32  1  0  0  0  0
  2  3  1  0  0  0  0
  2 29  2  0  0  0  0
  3  4  2  0  0  0  0
  3 33  1  0  0  0  0
  4  5  1  0  0  0  0
  4  6  1  0  0  0  0
  5 34  1  0  0  0  0
  5 35  1  0  0  0  0
  5 36  1  0  0  0  0
  6  7  2  0  0  0  0
  6 37  1  0  0  0  0
  7  8  1  0  0  0  0
  7 29  1  0  0  0  0
  8  9  1  0  0  0  0
  8 38  1  0  0  0  0
  9 10  2  0  0  0  0
  9 11  1  0  0  0  0
 11 12  1  0  0  0  0
 11 39  1  0  0  0  0
 12 13  1  0  0  0  0
 12 28  2  0  0  0  0
 13 14  2  0  0  0  0
 13 40  1  0  0  0  0
 14 15  1  0  0  0  0
 14 41  1  0  0  0  0
 15 16  1  0  0  0  0
 15 26  2  0  0  0  0
 16 17  1  0  0  0  0
 16 21  2  0  0  0  0
 17 18  2  0  0  0  0
 17 42  1  0  0  0  0
 18 19  1  0  0  0  0
 18 43  1  0  0  0  0
 19 20  2  0  0  0  0
 19 44  1  0  0  0  0
 20 21  1  0  0  0  0
 20 24  1  0  0  0  0
 21 22  1  0  0  0  0
 22 23  1  0  0  0  0
 22 45  1  0  0  0  0
 22 46  1  0  0  0  0
 23 24  1  0  0  0  0
 23 47  1  0  0  0  0
 24 25  2  0  0  0  0
 26 27  1  0  0  0  0
 26 28  1  0  0  0  0
 27 48  1  0  0  0  0
 27 49  1  0  0  0  0
 27 50  1  0  0  0  0
 28 51  1  0  0  0  0
 29 52  1  0  0  0  0
M  END
$$$$
