CHEMBL3986713
 OpenBabel04072215373D

 59 63  0  0  0  0  0  0  0  0999 V2000
    1.9854   -0.1506    2.3615 O   0  0  0  0  0  0  0  0  0  0  0  0
    2.7214   -0.6333    1.5079 C   0  0  0  0  0  0  0  0  0  0  0  0
    2.9759   -0.0225    0.3157 N   0  0  0  0  0  0  0  0  0  0  0  0
    3.7380   -0.5110   -0.7733 C   0  0  0  0  0  0  0  0  0  0  0  0
    4.1364   -1.8498   -0.8443 C   0  0  0  0  0  0  0  0  0  0  0  0
    4.8347   -2.3124   -1.9609 C   0  0  0  0  0  0  0  0  0  0  0  0
    5.1162   -1.4517   -3.0225 C   0  0  0  0  0  0  0  0  0  0  0  0
    4.7398   -0.1088   -2.9629 C   0  0  0  0  0  0  0  0  0  0  0  0
    4.0775    0.3759   -1.8342 C   0  0  0  0  0  0  0  0  0  0  0  0
    3.8395    1.8129   -1.6523 C   0  0  0  0  0  0  0  0  0  0  0  0
    2.8962    2.5376   -2.2848 C   0  0  0  0  0  0  0  0  0  0  0  0
    2.2119    3.5891   -1.5649 C   0  0  0  0  0  0  0  0  0  0  0  0
    2.4645    3.8192   -0.2635 N   0  0  0  0  0  0  0  0  0  0  0  0
    1.2671    4.1392    0.2365 N   0  0  0  0  0  0  0  0  0  0  0  0
    0.2811    4.1782   -0.7088 C   0  0  0  0  0  0  0  0  0  0  0  0
   -1.1074    4.1925   -0.5916 C   0  0  0  0  0  0  0  0  0  0  0  0
   -1.8617    4.3371   -1.7675 C   0  0  0  0  0  0  0  0  0  0  0  0
   -3.3609    4.2742   -1.7410 C   0  0  0  0  0  0  0  0  0  0  0  0
   -3.9769    3.9813   -2.7620 O   0  0  0  0  0  0  0  0  0  0  0  0
   -4.1249    4.5020   -0.4838 C   0  0  0  0  0  0  0  0  0  0  0  0
   -3.6695    5.4394    0.4482 C   0  0  0  0  0  0  0  0  0  0  0  0
   -4.2645    5.5276    1.6969 C   0  0  0  0  0  0  0  0  0  0  0  0
   -5.3922    4.7625    1.9706 C   0  0  0  0  0  0  0  0  0  0  0  0
   -5.9698    3.9370    0.9972 C   0  0  0  0  0  0  0  0  0  0  0  0
   -7.2209    3.2896    1.2000 N   0  0  0  0  0  0  0  0  0  0  0  0
   -8.1329    3.6575    2.1918 C   0  0  0  0  0  0  0  0  0  0  0  0
   -7.9805    4.5660    3.0036 O   0  0  0  0  0  0  0  0  0  0  0  0
   -9.4229    2.9294    2.2396 C   0  0  0  0  0  0  0  0  0  0  0  0
   -9.5694    1.5890    1.8815 C   0  0  0  0  0  0  0  0  0  0  0  0
  -10.8057    0.9567    2.0547 C   0  0  0  0  0  0  0  0  0  0  0  0
  -11.8939    1.6583    2.5805 C   0  0  0  0  0  0  0  0  0  0  0  0
  -11.7579    2.9978    2.9345 C   0  0  0  0  0  0  0  0  0  0  0  0
  -10.5289    3.6296    2.7672 C   0  0  0  0  0  0  0  0  0  0  0  0
   -5.2965    3.7650   -0.2200 C   0  0  0  0  0  0  0  0  0  0  0  0
   -1.2104    4.4634   -3.0029 C   0  0  0  0  0  0  0  0  0  0  0  0
    0.1843    4.3076   -3.1069 C   0  0  0  0  0  0  0  0  0  0  0  0
    0.9351    4.1111   -1.9324 C   0  0  0  0  0  0  0  0  0  0  0  0
    3.2534   -1.5806    1.6744 H   0  0  0  0  0  0  0  0  0  0  0  0
    2.5566    0.8981    0.2286 H   0  0  0  0  0  0  0  0  0  0  0  0
    3.9040   -2.5648   -0.0627 H   0  0  0  0  0  0  0  0  0  0  0  0
    5.1555   -3.3514   -2.0006 H   0  0  0  0  0  0  0  0  0  0  0  0
    5.6587   -1.8263   -3.8868 H   0  0  0  0  0  0  0  0  0  0  0  0
    4.9979    0.5564   -3.7821 H   0  0  0  0  0  0  0  0  0  0  0  0
    4.2748    2.1981   -0.7290 H   0  0  0  0  0  0  0  0  0  0  0  0
    2.4036    2.1454   -3.1711 H   0  0  0  0  0  0  0  0  0  0  0  0
    1.1772    4.2407    1.2420 H   0  0  0  0  0  0  0  0  0  0  0  0
   -1.5564    4.0295    0.3809 H   0  0  0  0  0  0  0  0  0  0  0  0
   -2.8209    6.0883    0.2357 H   0  0  0  0  0  0  0  0  0  0  0  0
   -3.8655    6.1958    2.4556 H   0  0  0  0  0  0  0  0  0  0  0  0
   -5.8115    4.8452    2.9688 H   0  0  0  0  0  0  0  0  0  0  0  0
   -7.5381    2.6703    0.4691 H   0  0  0  0  0  0  0  0  0  0  0  0
   -8.7278    1.0095    1.5215 H   0  0  0  0  0  0  0  0  0  0  0  0
  -10.9213   -0.0959    1.8054 H   0  0  0  0  0  0  0  0  0  0  0  0
  -12.8477    1.1568    2.7328 H   0  0  0  0  0  0  0  0  0  0  0  0
  -12.5976    3.5474    3.3537 H   0  0  0  0  0  0  0  0  0  0  0  0
  -10.4226    4.6723    3.0629 H   0  0  0  0  0  0  0  0  0  0  0  0
   -5.6758    3.0878   -0.9808 H   0  0  0  0  0  0  0  0  0  0  0  0
   -1.7935    4.6188   -3.9100 H   0  0  0  0  0  0  0  0  0  0  0  0
    0.6657    4.3203   -4.0808 H   0  0  0  0  0  0  0  0  0  0  0  0
  1  2  2  0  0  0  0
  2  3  1  0  0  0  0
  2 38  1  0  0  0  0
  3  4  1  0  0  0  0
  3 39  1  0  0  0  0
  4  5  1  0  0  0  0
  4  9  2  0  0  0  0
  5  6  2  0  0  0  0
  5 40  1  0  0  0  0
  6  7  1  0  0  0  0
  6 41  1  0  0  0  0
  7  8  2  0  0  0  0
  7 42  1  0  0  0  0
  8  9  1  0  0  0  0
  8 43  1  0  0  0  0
  9 10  1  0  0  0  0
 10 11  2  0  0  0  0
 10 44  1  0  0  0  0
 11 12  1  0  0  0  0
 11 45  1  0  0  0  0
 12 13  2  0  0  0  0
 12 37  1  0  0  0  0
 13 14  1  0  0  0  0
 14 15  1  0  0  0  0
 14 46  1  0  0  0  0
 15 16  1  0  0  0  0
 15 37  2  0  0  0  0
 16 17  2  0  0  0  0
 16 47  1  0  0  0  0
 17 18  1  0  0  0  0
 17 35  1  0  0  0  0
 18 19  2  0  0  0  0
 18 20  1  0  0  0  0
 20 21  1  0  0  0  0
 20 34  2  0  0  0  0
 21 22  2  0  0  0  0
 21 48  1  0  0  0  0
 22 23  1  0  0  0  0
 22 49  1  0  0  0  0
 23 24  2  0  0  0  0
 23 50  1  0  0  0  0
 24 25  1  0  0  0  0
 24 34  1  0  0  0  0
 25 26  1  0  0  0  0
 25 51  1  0  0  0  0
 26 27  2  0  0  0  0
 26 28  1  0  0  0  0
 28 29  1  0  0  0  0
 28 33  2  0  0  0  0
 29 30  2  0  0  0  0
 29 52  1  0  0  0  0
 30 31  1  0  0  0  0
 30 53  1  0  0  0  0
 31 32  2  0  0  0  0
 31 54  1  0  0  0  0
 32 33  1  0  0  0  0
 32 55  1  0  0  0  0
 33 56  1  0  0  0  0
 34 57  1  0  0  0  0
 35 36  2  0  0  0  0
 35 58  1  0  0  0  0
 36 37  1  0  0  0  0
 36 59  1  0  0  0  0
M  END
$$$$
