CHEMBL271441
 OpenBabel04072215363D

 45 48  0  0  0  0  0  0  0  0999 V2000
    2.8128    0.8064   -2.3601 C   0  0  0  0  0  0  0  0  0  0  0  0
    1.4043    0.5213   -1.9234 C   0  0  0  0  0  0  0  0  0  0  0  0
    0.8940   -0.7755   -2.0275 C   0  0  0  0  0  0  0  0  0  0  0  0
   -0.3972   -1.0498   -1.5954 C   0  0  0  0  0  0  0  0  0  0  0  0
   -1.1938   -0.0338   -1.0750 C   0  0  0  0  0  0  0  0  0  0  0  0
   -2.3706   -0.4123   -0.5639 F   0  0  0  0  0  0  0  0  0  0  0  0
   -0.7387    1.2964   -1.0088 C   0  0  0  0  0  0  0  0  0  0  0  0
   -1.5140    2.4022   -0.5670 N   0  0  0  0  0  0  0  0  0  0  0  0
   -2.8932    2.4393   -0.4707 C   0  0  0  0  0  0  0  0  0  0  0  0
   -3.6590    1.5258   -0.7816 O   0  0  0  0  0  0  0  0  0  0  0  0
   -3.3615    3.6847   -0.0494 N   0  0  0  0  0  0  0  0  0  0  0  0
   -4.7544    3.8705    0.1468 C   0  0  0  0  0  0  0  0  0  0  0  0
   -5.5107    2.9492    0.8715 C   0  0  0  0  0  0  0  0  0  0  0  0
   -6.9072    3.0358    0.8901 C   0  0  0  0  0  0  0  0  0  0  0  0
   -7.5916    4.0520    0.1994 C   0  0  0  0  0  0  0  0  0  0  0  0
   -9.0673    4.0432    0.1068 C   0  0  0  0  0  0  0  0  0  0  0  0
   -9.8763    3.6446    1.1852 C   0  0  0  0  0  0  0  0  0  0  0  0
  -11.2303    3.5613    1.2001 N   0  0  0  0  0  0  0  0  0  0  0  0
  -11.9063    3.8964    0.0874 C   0  0  0  0  0  0  0  0  0  0  0  0
  -11.1940    4.3053   -1.0264 C   0  0  0  0  0  0  0  0  0  0  0  0
  -11.6329    4.6988   -2.2577 N   0  0  0  0  0  0  0  0  0  0  0  0
  -10.6559    5.0017   -3.1157 N   0  0  0  0  0  0  0  0  0  0  0  0
   -9.5440    4.7834   -2.4196 C   0  0  0  0  0  0  0  0  0  0  0  0
   -8.3434    4.9289   -3.0019 N   0  0  0  0  0  0  0  0  0  0  0  0
   -9.7977    4.3778   -1.0674 C   0  0  0  0  0  0  0  0  0  0  0  0
   -6.7977    5.0481   -0.3964 C   0  0  0  0  0  0  0  0  0  0  0  0
   -5.3971    4.9558   -0.4411 C   0  0  0  0  0  0  0  0  0  0  0  0
    0.5840    1.5476   -1.4121 C   0  0  0  0  0  0  0  0  0  0  0  0
    3.3115   -0.1047   -2.7127 H   0  0  0  0  0  0  0  0  0  0  0  0
    3.3969    1.1989   -1.5238 H   0  0  0  0  0  0  0  0  0  0  0  0
    2.8181    1.5270   -3.1831 H   0  0  0  0  0  0  0  0  0  0  0  0
    1.4986   -1.5849   -2.4279 H   0  0  0  0  0  0  0  0  0  0  0  0
   -0.7989   -2.0569   -1.6402 H   0  0  0  0  0  0  0  0  0  0  0  0
   -1.0243    3.2741   -0.4164 H   0  0  0  0  0  0  0  0  0  0  0  0
   -2.8656    4.4673   -0.4447 H   0  0  0  0  0  0  0  0  0  0  0  0
   -5.0249    2.1253    1.3906 H   0  0  0  0  0  0  0  0  0  0  0  0
   -7.4492    2.2544    1.4199 H   0  0  0  0  0  0  0  0  0  0  0  0
   -9.4270    3.3606    2.1352 H   0  0  0  0  0  0  0  0  0  0  0  0
  -12.9867    3.8231    0.1210 H   0  0  0  0  0  0  0  0  0  0  0  0
  -12.5911    4.7730   -2.5804 H   0  0  0  0  0  0  0  0  0  0  0  0
   -8.3732    5.0569   -4.0079 H   0  0  0  0  0  0  0  0  0  0  0  0
   -7.5904    4.3118   -2.7156 H   0  0  0  0  0  0  0  0  0  0  0  0
   -7.2684    5.8963   -0.8916 H   0  0  0  0  0  0  0  0  0  0  0  0
   -4.8419    5.6937   -1.0128 H   0  0  0  0  0  0  0  0  0  0  0  0
    0.9898    2.5564   -1.3579 H   0  0  0  0  0  0  0  0  0  0  0  0
  1  2  1  0  0  0  0
  1 29  1  0  0  0  0
  1 30  1  0  0  0  0
  1 31  1  0  0  0  0
  2  3  1  0  0  0  0
  2 28  2  0  0  0  0
  3  4  2  0  0  0  0
  3 32  1  0  0  0  0
  4  5  1  0  0  0  0
  4 33  1  0  0  0  0
  5  6  1  0  0  0  0
  5  7  2  0  0  0  0
  7  8  1  0  0  0  0
  7 28  1  0  0  0  0
  8  9  1  0  0  0  0
  8 34  1  0  0  0  0
  9 10  2  0  0  0  0
  9 11  1  0  0  0  0
 11 12  1  0  0  0  0
 11 35  1  0  0  0  0
 12 13  1  0  0  0  0
 12 27  2  0  0  0  0
 13 14  2  0  0  0  0
 13 36  1  0  0  0  0
 14 15  1  0  0  0  0
 14 37  1  0  0  0  0
 15 16  1  0  0  0  0
 15 26  2  0  0  0  0
 16 17  1  0  0  0  0
 16 25  2  0  0  0  0
 17 18  2  0  0  0  0
 17 38  1  0  0  0  0
 18 19  1  0  0  0  0
 19 20  2  0  0  0  0
 19 39  1  0  0  0  0
 20 21  1  0  0  0  0
 20 25  1  0  0  0  0
 21 22  1  0  0  0  0
 21 40  1  0  0  0  0
 22 23  2  0  0  0  0
 23 24  1  0  0  0  0
 23 25  1  0  0  0  0
 24 41  1  0  0  0  0
 24 42  1  0  0  0  0
 26 27  1  0  0  0  0
 26 43  1  0  0  0  0
 27 44  1  0  0  0  0
 28 45  1  0  0  0  0
M  END
$$$$
