CHEMBL3926026
 OpenBabel04072215373D

 72 76  0  0  0  0  0  0  0  0999 V2000
    2.6423    7.4513    3.7271 C   0  0  0  0  0  0  0  0  0  0  0  0
    1.5752    6.4633    3.3515 C   0  0  0  0  0  0  0  0  0  0  0  0
    1.9395    5.2082    2.8543 C   0  0  0  0  0  0  0  0  0  0  0  0
    0.9590    4.2781    2.5361 C   0  0  0  0  0  0  0  0  0  0  0  0
   -0.3876    4.5989    2.6944 C   0  0  0  0  0  0  0  0  0  0  0  0
   -1.2529    3.5964    2.4982 F   0  0  0  0  0  0  0  0  0  0  0  0
   -0.7951    5.8703    3.1304 C   0  0  0  0  0  0  0  0  0  0  0  0
   -2.1508    6.2968    3.2335 N   0  0  0  0  0  0  0  0  0  0  0  0
   -3.2132    5.7159    2.5631 C   0  0  0  0  0  0  0  0  0  0  0  0
   -3.1257    4.7917    1.7704 O   0  0  0  0  0  0  0  0  0  0  0  0
   -4.4290    6.3506    2.8180 N   0  0  0  0  0  0  0  0  0  0  0  0
   -5.6051    5.7843    2.2604 C   0  0  0  0  0  0  0  0  0  0  0  0
   -5.8848    4.4261    2.4455 C   0  0  0  0  0  0  0  0  0  0  0  0
   -6.9767    3.8335    1.8119 C   0  0  0  0  0  0  0  0  0  0  0  0
   -7.8426    4.6104    1.0399 C   0  0  0  0  0  0  0  0  0  0  0  0
   -8.9687    4.1085    0.4187 O   0  0  0  0  0  0  0  0  0  0  0  0
   -9.7025    3.1215    1.0549 C   0  0  0  0  0  0  0  0  0  0  0  0
   -9.8274    3.0400    2.4445 C   0  0  0  0  0  0  0  0  0  0  0  0
  -10.5177    1.9822    2.9999 C   0  0  0  0  0  0  0  0  0  0  0  0
  -11.1606    1.0318    2.3057 N   0  0  0  0  0  0  0  0  0  0  0  0
  -11.1256    1.1621    0.9534 C   0  0  0  0  0  0  0  0  0  0  0  0
  -11.7936    0.2953    0.0472 C   0  0  0  0  0  0  0  0  0  0  0  0
  -11.6149    0.6513   -1.2726 C   0  0  0  0  0  0  0  0  0  0  0  0
  -12.1908   -0.0213   -2.4286 C   0  0  0  0  0  0  0  0  0  0  0  0
  -12.9560   -0.9819   -2.3249 O   0  0  0  0  0  0  0  0  0  0  0  0
  -11.8426    0.4948   -3.6587 N   0  0  0  0  0  0  0  0  0  0  0  0
  -12.4002    0.0129   -4.9003 C   0  0  0  0  0  0  0  0  0  0  0  0
  -13.7377    0.6724   -5.2288 C   0  0  0  0  0  0  0  0  0  0  0  0
  -13.6394    2.1917   -5.4402 C   0  0  0  0  0  0  0  0  0  0  0  0
  -12.6889    2.6013   -6.4933 N   0  0  0  0  0  0  0  0  0  0  0  0
  -13.1148    2.1151   -7.8168 C   0  0  0  0  0  0  0  0  0  0  0  0
  -12.1498    2.5402   -8.9219 C   0  0  0  0  0  0  0  0  0  0  0  0
  -11.9778    4.0509   -8.9487 C   0  0  0  0  0  0  0  0  0  0  0  0
  -11.5689    4.5512   -7.5697 C   0  0  0  0  0  0  0  0  0  0  0  0
  -12.5428    4.0688   -6.4920 C   0  0  0  0  0  0  0  0  0  0  0  0
  -10.6038    2.0289   -1.4061 S   0  0  0  0  0  0  0  0  0  0  0  0
  -10.4215    2.1755    0.3002 C   0  0  0  0  0  0  0  0  0  0  0  0
   -7.5557    5.9635    0.8358 C   0  0  0  0  0  0  0  0  0  0  0  0
   -6.4508    6.5594    1.4640 C   0  0  0  0  0  0  0  0  0  0  0  0
    0.2087    6.7867    3.4896 C   0  0  0  0  0  0  0  0  0  0  0  0
    3.6436    7.0359    3.5628 H   0  0  0  0  0  0  0  0  0  0  0  0
    2.5630    7.7106    4.7871 H   0  0  0  0  0  0  0  0  0  0  0  0
    2.5552    8.3566    3.1191 H   0  0  0  0  0  0  0  0  0  0  0  0
    2.9856    4.9377    2.7291 H   0  0  0  0  0  0  0  0  0  0  0  0
    1.2253    3.2877    2.1795 H   0  0  0  0  0  0  0  0  0  0  0  0
   -2.3269    7.1704    3.7046 H   0  0  0  0  0  0  0  0  0  0  0  0
   -4.3758    7.3588    2.8079 H   0  0  0  0  0  0  0  0  0  0  0  0
   -5.2380    3.8097    3.0654 H   0  0  0  0  0  0  0  0  0  0  0  0
   -7.1337    2.7664    1.9378 H   0  0  0  0  0  0  0  0  0  0  0  0
   -9.3653    3.7698    3.0999 H   0  0  0  0  0  0  0  0  0  0  0  0
  -10.5642    1.8680    4.0802 H   0  0  0  0  0  0  0  0  0  0  0  0
  -12.3928   -0.5530    0.3567 H   0  0  0  0  0  0  0  0  0  0  0  0
  -11.2804    1.3375   -3.6822 H   0  0  0  0  0  0  0  0  0  0  0  0
  -12.5393   -1.0714   -4.8266 H   0  0  0  0  0  0  0  0  0  0  0  0
  -11.6581    0.1972   -5.6835 H   0  0  0  0  0  0  0  0  0  0  0  0
  -14.4517    0.4828   -4.4176 H   0  0  0  0  0  0  0  0  0  0  0  0
  -14.1636    0.1933   -6.1179 H   0  0  0  0  0  0  0  0  0  0  0  0
  -13.3337    2.6420   -4.4865 H   0  0  0  0  0  0  0  0  0  0  0  0
  -14.6417    2.5838   -5.6572 H   0  0  0  0  0  0  0  0  0  0  0  0
  -14.1258    2.4716   -8.0522 H   0  0  0  0  0  0  0  0  0  0  0  0
  -13.1418    1.0207   -7.8282 H   0  0  0  0  0  0  0  0  0  0  0  0
  -12.5250    2.1910   -9.8904 H   0  0  0  0  0  0  0  0  0  0  0  0
  -11.1753    2.0605   -8.7642 H   0  0  0  0  0  0  0  0  0  0  0  0
  -12.9219    4.5228   -9.2477 H   0  0  0  0  0  0  0  0  0  0  0  0
  -11.2253    4.3311   -9.6933 H   0  0  0  0  0  0  0  0  0  0  0  0
  -11.5321    5.6465   -7.5722 H   0  0  0  0  0  0  0  0  0  0  0  0
  -10.5565    4.1974   -7.3371 H   0  0  0  0  0  0  0  0  0  0  0  0
  -13.5160    4.5554   -6.6384 H   0  0  0  0  0  0  0  0  0  0  0  0
  -12.1575    4.3991   -5.5191 H   0  0  0  0  0  0  0  0  0  0  0  0
   -8.1811    6.5545    0.1724 H   0  0  0  0  0  0  0  0  0  0  0  0
   -6.2261    7.6021    1.2624 H   0  0  0  0  0  0  0  0  0  0  0  0
   -0.0579    7.7744    3.8584 H   0  0  0  0  0  0  0  0  0  0  0  0
  1  2  1  0  0  0  0
  1 41  1  0  0  0  0
  1 42  1  0  0  0  0
  1 43  1  0  0  0  0
  2  3  1  0  0  0  0
  2 40  2  0  0  0  0
  3  4  2  0  0  0  0
  3 44  1  0  0  0  0
  4  5  1  0  0  0  0
  4 45  1  0  0  0  0
  5  6  1  0  0  0  0
  5  7  2  0  0  0  0
  7  8  1  0  0  0  0
  7 40  1  0  0  0  0
  8  9  1  0  0  0  0
  8 46  1  0  0  0  0
  9 10  2  0  0  0  0
  9 11  1  0  0  0  0
 11 12  1  0  0  0  0
 11 47  1  0  0  0  0
 12 13  1  0  0  0  0
 12 39  2  0  0  0  0
 13 14  2  0  0  0  0
 13 48  1  0  0  0  0
 14 15  1  0  0  0  0
 14 49  1  0  0  0  0
 15 16  1  0  0  0  0
 15 38  2  0  0  0  0
 16 17  1  0  0  0  0
 17 18  1  0  0  0  0
 17 37  2  0  0  0  0
 18 19  2  0  0  0  0
 18 50  1  0  0  0  0
 19 20  1  0  0  0  0
 19 51  1  0  0  0  0
 20 21  2  0  0  0  0
 21 22  1  0  0  0  0
 21 37  1  0  0  0  0
 22 23  2  0  0  0  0
 22 52  1  0  0  0  0
 23 24  1  0  0  0  0
 23 36  1  0  0  0  0
 24 25  2  0  0  0  0
 24 26  1  0  0  0  0
 26 27  1  0  0  0  0
 26 53  1  0  0  0  0
 27 28  1  0  0  0  0
 27 54  1  0  0  0  0
 27 55  1  0  0  0  0
 28 29  1  0  0  0  0
 28 56  1  0  0  0  0
 28 57  1  0  0  0  0
 29 30  1  0  0  0  0
 29 58  1  0  0  0  0
 29 59  1  0  0  0  0
 30 31  1  0  0  0  0
 30 35  1  0  0  0  0
 31 32  1  0  0  0  0
 31 60  1  0  0  0  0
 31 61  1  0  0  0  0
 32 33  1  0  0  0  0
 32 62  1  0  0  0  0
 32 63  1  0  0  0  0
 33 34  1  0  0  0  0
 33 64  1  0  0  0  0
 33 65  1  0  0  0  0
 34 35  1  0  0  0  0
 34 66  1  0  0  0  0
 34 67  1  0  0  0  0
 35 68  1  0  0  0  0
 35 69  1  0  0  0  0
 36 37  1  0  0  0  0
 38 39  1  0  0  0  0
 38 70  1  0  0  0  0
 39 71  1  0  0  0  0
 40 72  1  0  0  0  0
M  END
$$$$
