CHEMBL4224973
 OpenBabel04072215383D

 48 50  0  0  0  0  0  0  0  0999 V2000
    2.3539    2.4228    2.6551 C   0  0  0  0  0  0  0  0  0  0  0  0
    3.4559    2.0731    1.7918 N   0  0  0  0  0  0  0  0  0  0  0  0
    4.7544    2.1158    2.2632 C   0  0  0  0  0  0  0  0  0  0  0  0
    5.0555    2.4689    3.3964 O   0  0  0  0  0  0  0  0  0  0  0  0
    5.8091    1.6569    1.3276 C   0  0  0  0  0  0  0  0  0  0  0  0
    5.7099    1.7628   -0.0584 C   0  0  0  0  0  0  0  0  0  0  0  0
    6.7600    1.2927   -0.8531 C   0  0  0  0  0  0  0  0  0  0  0  0
    7.8783    0.7244   -0.2430 C   0  0  0  0  0  0  0  0  0  0  0  0
    9.2249    0.1519   -1.2697 S   0  0  0  0  0  0  0  0  0  0  0  0
    9.9172   -1.1830   -0.3096 C   0  0  0  0  0  0  0  0  0  0  0  0
    9.3614   -2.4611   -0.3676 C   0  0  0  0  0  0  0  0  0  0  0  0
    9.9096   -3.4989    0.3884 C   0  0  0  0  0  0  0  0  0  0  0  0
   11.0365   -3.2778    1.1850 C   0  0  0  0  0  0  0  0  0  0  0  0
   11.6403   -2.0247    1.2062 C   0  0  0  0  0  0  0  0  0  0  0  0
   12.7533   -1.6939    2.0000 N   0  0  0  0  0  0  0  0  0  0  0  0
   13.6126   -2.4385    2.7839 C   0  0  0  0  0  0  0  0  0  0  0  0
   14.1256   -4.0069    2.5508 S   0  0  0  0  0  0  0  0  0  0  0  0
   14.1856   -1.6980    3.8094 N   0  0  0  0  0  0  0  0  0  0  0  0
   13.5709   -0.6223    4.4869 C   0  0  0  0  0  0  0  0  0  0  0  0
   12.1760   -0.5033    4.5390 C   0  0  0  0  0  0  0  0  0  0  0  0
   11.5769    0.6180    5.0997 C   0  0  0  0  0  0  0  0  0  0  0  0
   12.3757    1.6096    5.6501 C   0  0  0  0  0  0  0  0  0  0  0  0
   11.7766    2.7011    6.1394 F   0  0  0  0  0  0  0  0  0  0  0  0
   13.7642    1.4813    5.6899 C   0  0  0  0  0  0  0  0  0  0  0  0
   14.6107    2.5456    6.3218 C   0  0  0  0  0  0  0  0  0  0  0  0
   13.9319    3.6244    6.7942 F   0  0  0  0  0  0  0  0  0  0  0  0
   15.3239    2.0649    7.3793 F   0  0  0  0  0  0  0  0  0  0  0  0
   15.5365    3.0441    5.4535 F   0  0  0  0  0  0  0  0  0  0  0  0
   14.3631    0.3401    5.1150 C   0  0  0  0  0  0  0  0  0  0  0  0
   11.0606   -0.9756    0.4711 C   0  0  0  0  0  0  0  0  0  0  0  0
    8.0003    0.6362    1.1004 N   0  0  0  0  0  0  0  0  0  0  0  0
    6.9723    1.1078    1.8533 C   0  0  0  0  0  0  0  0  0  0  0  0
    1.4174    2.2067    2.1351 H   0  0  0  0  0  0  0  0  0  0  0  0
    2.4102    3.4877    2.8958 H   0  0  0  0  0  0  0  0  0  0  0  0
    2.4108    1.8385    3.5776 H   0  0  0  0  0  0  0  0  0  0  0  0
    3.2470    1.6031    0.9219 H   0  0  0  0  0  0  0  0  0  0  0  0
    4.8508    2.2307   -0.5315 H   0  0  0  0  0  0  0  0  0  0  0  0
    6.7020    1.3814   -1.9340 H   0  0  0  0  0  0  0  0  0  0  0  0
    8.4950   -2.6601   -0.9921 H   0  0  0  0  0  0  0  0  0  0  0  0
    9.4543   -4.4856    0.3649 H   0  0  0  0  0  0  0  0  0  0  0  0
   11.3968   -4.0976    1.7958 H   0  0  0  0  0  0  0  0  0  0  0  0
   12.9755   -0.7052    2.0194 H   0  0  0  0  0  0  0  0  0  0  0  0
   15.0872   -2.0259    4.1420 H   0  0  0  0  0  0  0  0  0  0  0  0
   11.5299   -1.2889    4.1514 H   0  0  0  0  0  0  0  0  0  0  0  0
   10.4956    0.7214    5.1008 H   0  0  0  0  0  0  0  0  0  0  0  0
   15.4483    0.2480    5.1138 H   0  0  0  0  0  0  0  0  0  0  0  0
   11.4915    0.0225    0.5119 H   0  0  0  0  0  0  0  0  0  0  0  0
    7.1135    1.0202    2.9270 H   0  0  0  0  0  0  0  0  0  0  0  0
  1  2  1  0  0  0  0
  1 33  1  0  0  0  0
  1 34  1  0  0  0  0
  1 35  1  0  0  0  0
  2  3  1  0  0  0  0
  2 36  1  0  0  0  0
  3  4  2  0  0  0  0
  3  5  1  0  0  0  0
  5  6  1  0  0  0  0
  5 32  2  0  0  0  0
  6  7  2  0  0  0  0
  6 37  1  0  0  0  0
  7  8  1  0  0  0  0
  7 38  1  0  0  0  0
  8  9  1  0  0  0  0
  8 31  2  0  0  0  0
  9 10  1  0  0  0  0
 10 11  1  0  0  0  0
 10 30  2  0  0  0  0
 11 12  2  0  0  0  0
 11 39  1  0  0  0  0
 12 13  1  0  0  0  0
 12 40  1  0  0  0  0
 13 14  2  0  0  0  0
 13 41  1  0  0  0  0
 14 15  1  0  0  0  0
 14 30  1  0  0  0  0
 15 16  1  0  0  0  0
 15 42  1  0  0  0  0
 16 17  2  0  0  0  0
 16 18  1  0  0  0  0
 18 19  1  0  0  0  0
 18 43  1  0  0  0  0
 19 20  1  0  0  0  0
 19 29  2  0  0  0  0
 20 21  2  0  0  0  0
 20 44  1  0  0  0  0
 21 22  1  0  0  0  0
 21 45  1  0  0  0  0
 22 23  1  0  0  0  0
 22 24  2  0  0  0  0
 24 25  1  0  0  0  0
 24 29  1  0  0  0  0
 25 26  1  0  0  0  0
 25 27  1  0  0  0  0
 25 28  1  0  0  0  0
 29 46  1  0  0  0  0
 30 47  1  0  0  0  0
 31 32  1  0  0  0  0
 32 48  1  0  0  0  0
M  END
$$$$
