CHEMBL219080
 OpenBabel04072215363D

 64 70  0  0  0  0  0  0  0  0999 V2000
    3.7274   -2.7336   -3.0591 C   0  0  0  0  0  0  0  0  0  0  0  0
    3.3159   -1.3841   -2.4695 C   0  0  0  0  0  0  0  0  0  0  0  0
    1.7970   -1.2272   -2.6135 C   0  0  0  0  0  0  0  0  0  0  0  0
    3.7503   -1.2273   -0.9902 C   0  0  0  0  0  0  0  0  0  0  0  0
    5.1940   -1.0873   -0.7923 N   0  0  0  0  0  0  0  0  0  0  0  0
    5.8800    0.1453   -0.9195 C   0  0  0  0  0  0  0  0  0  0  0  0
    5.4283    1.4675   -1.1099 C   0  0  0  0  0  0  0  0  0  0  0  0
    6.3819    2.4973   -1.2895 C   0  0  0  0  0  0  0  0  0  0  0  0
    7.7488    2.2381   -1.2655 C   0  0  0  0  0  0  0  0  0  0  0  0
    8.7695    3.1998   -1.4240 N   0  0  0  0  0  0  0  0  0  0  0  0
    8.6671    4.5588   -1.6606 C   0  0  0  0  0  0  0  0  0  0  0  0
    7.6162    5.1866   -1.7804 O   0  0  0  0  0  0  0  0  0  0  0  0
    9.9711    5.2009   -1.7233 C   0  0  0  0  0  0  0  0  0  0  0  0
   10.3101    6.5246   -1.9238 C   0  0  0  0  0  0  0  0  0  0  0  0
   11.7280    6.6045   -1.8842 C   0  0  0  0  0  0  0  0  0  0  0  0
   12.1679    5.3216   -1.6719 C   0  0  0  0  0  0  0  0  0  0  0  0
   11.1225    4.4538   -1.5712 O   0  0  0  0  0  0  0  0  0  0  0  0
    8.1816    0.9215   -1.0870 C   0  0  0  0  0  0  0  0  0  0  0  0
    7.2545   -0.1266   -0.9412 C   0  0  0  0  0  0  0  0  0  0  0  0
    7.2860   -1.5042   -0.9173 C   0  0  0  0  0  0  0  0  0  0  0  0
    8.3859   -2.2357   -1.3917 C   0  0  0  0  0  0  0  0  0  0  0  0
    8.0979   -3.5449   -1.8264 C   0  0  0  0  0  0  0  0  0  0  0  0
    6.8444   -4.1608   -1.6782 C   0  0  0  0  0  0  0  0  0  0  0  0
    6.0458   -3.5589   -0.6489 C   0  0  0  0  0  0  0  0  0  0  0  0
    6.1063   -2.1433   -0.6522 C   0  0  0  0  0  0  0  0  0  0  0  0
    6.0534   -4.4346    0.6761 C   0  0  0  0  0  0  0  0  0  0  0  0
    7.0958   -5.6333    0.6641 C   0  0  0  0  0  0  0  0  0  0  0  0
    6.8844   -6.3657   -0.6144 C   0  0  0  0  0  0  0  0  0  0  0  0
    6.4834   -7.6258   -0.7791 N   0  0  0  0  0  0  0  0  0  0  0  0
    6.0205   -7.6211   -2.0558 N   0  0  0  0  0  0  0  0  0  0  0  0
    5.3468   -8.7864   -2.5757 C   0  0  0  0  0  0  0  0  0  0  0  0
    6.0458   -6.3798   -2.6458 C   0  0  0  0  0  0  0  0  0  0  0  0
    6.7636   -5.5936   -1.7802 C   0  0  0  0  0  0  0  0  0  0  0  0
    9.3394   -4.1299   -2.2739 C   0  0  0  0  0  0  0  0  0  0  0  0
    9.6501   -5.2357   -2.6924 O   0  0  0  0  0  0  0  0  0  0  0  0
   10.2824   -3.1267   -2.0781 N   0  0  0  0  0  0  0  0  0  0  0  0
    9.7819   -1.8669   -1.5851 C   0  0  0  0  0  0  0  0  0  0  0  0
    3.3080   -2.8729   -4.0614 H   0  0  0  0  0  0  0  0  0  0  0  0
    3.3817   -3.5626   -2.4325 H   0  0  0  0  0  0  0  0  0  0  0  0
    4.8121   -2.7972   -3.1643 H   0  0  0  0  0  0  0  0  0  0  0  0
    3.7860   -0.5969   -3.0731 H   0  0  0  0  0  0  0  0  0  0  0  0
    1.2596   -1.9459   -1.9860 H   0  0  0  0  0  0  0  0  0  0  0  0
    1.4840   -1.3914   -3.6520 H   0  0  0  0  0  0  0  0  0  0  0  0
    1.4771   -0.2186   -2.3330 H   0  0  0  0  0  0  0  0  0  0  0  0
    3.4066   -2.0676   -0.3777 H   0  0  0  0  0  0  0  0  0  0  0  0
    3.2895   -0.3242   -0.5694 H   0  0  0  0  0  0  0  0  0  0  0  0
    4.3697    1.7085   -1.1511 H   0  0  0  0  0  0  0  0  0  0  0  0
    6.0102    3.5054   -1.4530 H   0  0  0  0  0  0  0  0  0  0  0  0
    9.7288    2.8665   -1.3637 H   0  0  0  0  0  0  0  0  0  0  0  0
    9.6042    7.3356   -2.0642 H   0  0  0  0  0  0  0  0  0  0  0  0
   12.3441    7.4852   -2.0046 H   0  0  0  0  0  0  0  0  0  0  0  0
   13.1507    4.8829   -1.5723 H   0  0  0  0  0  0  0  0  0  0  0  0
    9.2423    0.7047   -1.0804 H   0  0  0  0  0  0  0  0  0  0  0  0
    5.0500   -4.8557    0.8020 H   0  0  0  0  0  0  0  0  0  0  0  0
    6.2802   -3.7946    1.5358 H   0  0  0  0  0  0  0  0  0  0  0  0
    6.9979   -6.2847    1.5351 H   0  0  0  0  0  0  0  0  0  0  0  0
    8.1214   -5.2309    0.6709 H   0  0  0  0  0  0  0  0  0  0  0  0
    5.5695   -9.6480   -1.9418 H   0  0  0  0  0  0  0  0  0  0  0  0
    5.6997   -8.9693   -3.5933 H   0  0  0  0  0  0  0  0  0  0  0  0
    4.2722   -8.5855   -2.5728 H   0  0  0  0  0  0  0  0  0  0  0  0
    5.5151   -6.1703   -3.5638 H   0  0  0  0  0  0  0  0  0  0  0  0
   11.2575   -3.3313   -2.2347 H   0  0  0  0  0  0  0  0  0  0  0  0
    9.9178   -1.1079   -2.3571 H   0  0  0  0  0  0  0  0  0  0  0  0
   10.2776   -1.6070   -0.6467 H   0  0  0  0  0  0  0  0  0  0  0  0
  1  2  1  0  0  0  0
  1 38  1  0  0  0  0
  1 39  1  0  0  0  0
  1 40  1  0  0  0  0
  2  3  1  0  0  0  0
  2  4  1  0  0  0  0
  2 41  1  0  0  0  0
  3 42  1  0  0  0  0
  3 43  1  0  0  0  0
  3 44  1  0  0  0  0
  4  5  1  0  0  0  0
  4 45  1  0  0  0  0
  4 46  1  0  0  0  0
  5  6  1  0  0  0  0
  5 25  1  0  0  0  0
  6  7  1  0  0  0  0
  6 19  2  0  0  0  0
  7  8  2  0  0  0  0
  7 47  1  0  0  0  0
  8  9  1  0  0  0  0
  8 48  1  0  0  0  0
  9 10  1  0  0  0  0
  9 18  2  0  0  0  0
 10 11  1  0  0  0  0
 10 49  1  0  0  0  0
 11 12  2  0  0  0  0
 11 13  1  0  0  0  0
 13 14  2  0  0  0  0
 13 17  1  0  0  0  0
 14 15  1  0  0  0  0
 14 50  1  0  0  0  0
 15 16  2  0  0  0  0
 15 51  1  0  0  0  0
 16 17  1  0  0  0  0
 16 52  1  0  0  0  0
 18 19  1  0  0  0  0
 18 53  1  0  0  0  0
 19 20  1  0  0  0  0
 20 21  1  0  0  0  0
 20 25  2  0  0  0  0
 21 22  2  0  0  0  0
 21 37  1  0  0  0  0
 22 23  1  0  0  0  0
 22 34  1  0  0  0  0
 23 24  2  0  0  0  0
 23 33  1  0  0  0  0
 24 25  1  0  0  0  0
 24 26  1  0  0  0  0
 26 27  1  0  0  0  0
 26 54  1  0  0  0  0
 26 55  1  0  0  0  0
 27 28  1  0  0  0  0
 27 56  1  0  0  0  0
 27 57  1  0  0  0  0
 28 29  2  0  0  0  0
 28 33  1  0  0  0  0
 29 30  1  0  0  0  0
 30 31  1  0  0  0  0
 30 32  1  0  0  0  0
 31 58  1  0  0  0  0
 31 59  1  0  0  0  0
 31 60  1  0  0  0  0
 32 33  2  0  0  0  0
 32 61  1  0  0  0  0
 34 35  2  0  0  0  0
 34 36  1  0  0  0  0
 36 37  1  0  0  0  0
 36 62  1  0  0  0  0
 37 63  1  0  0  0  0
 37 64  1  0  0  0  0
M  END
$$$$
