CHEMBL3099467
 OpenBabel04072215363D

 77 80  0  0  0  0  0  0  0  0999 V2000
    1.7602   -0.1029   -1.7518 C   0  0  0  0  0  0  0  0  0  0  0  0
    2.7919    0.0546   -0.7832 O   0  0  0  0  0  0  0  0  0  0  0  0
    3.0509   -1.0027    0.0498 C   0  0  0  0  0  0  0  0  0  0  0  0
    2.7895   -2.3346   -0.2920 C   0  0  0  0  0  0  0  0  0  0  0  0
    3.2762   -3.4437    0.4566 C   0  0  0  0  0  0  0  0  0  0  0  0
    3.1131   -4.8386   -0.0657 C   0  0  0  0  0  0  0  0  0  0  0  0
    3.1133   -4.9653   -1.4676 C   0  0  0  0  0  0  0  0  0  0  0  0
    2.9345   -6.1473   -2.1781 C   0  0  0  0  0  0  0  0  0  0  0  0
    2.8719   -6.1644   -3.5982 N   0  0  0  0  0  0  0  0  0  0  0  0
    2.9733   -5.0431   -4.4084 C   0  0  0  0  0  0  0  0  0  0  0  0
    3.1327   -3.8863   -4.0040 O   0  0  0  0  0  0  0  0  0  0  0  0
    2.8492   -5.3050   -5.7637 N   0  0  0  0  0  0  0  0  0  0  0  0
    2.9736   -4.1944   -6.6505 C   0  0  0  0  0  0  0  0  0  0  0  0
    4.1363   -3.4091   -6.5970 C   0  0  0  0  0  0  0  0  0  0  0  0
    4.2598   -2.2515   -7.3695 C   0  0  0  0  0  0  0  0  0  0  0  0
    3.2387   -1.8853   -8.2424 C   0  0  0  0  0  0  0  0  0  0  0  0
    3.2719   -0.7998   -9.0838 O   0  0  0  0  0  0  0  0  0  0  0  0
    4.5849   -0.2934   -9.3638 C   0  0  0  0  0  0  0  0  0  0  0  0
    4.5839    0.5130  -10.6761 C   0  0  0  0  0  0  0  0  0  0  0  0
    5.9375    0.9238  -11.1047 N   0  0  0  0  0  0  0  0  0  0  0  0
    6.6085    1.8390  -10.1704 C   0  0  0  0  0  0  0  0  0  0  0  0
    6.2671    3.2273  -10.6659 C   0  0  0  0  0  0  0  0  0  0  0  0
    6.3656    3.0557  -12.1650 C   0  0  0  0  0  0  0  0  0  0  0  0
    5.9053    1.6202  -12.4081 C   0  0  0  0  0  0  0  0  0  0  0  0
    2.0721   -2.6522   -8.2826 C   0  0  0  0  0  0  0  0  0  0  0  0
    1.9199   -3.8124   -7.4938 C   0  0  0  0  0  0  0  0  0  0  0  0
    0.5962   -4.5188   -7.4799 C   0  0  0  0  0  0  0  0  0  0  0  0
    2.8056   -7.3135   -1.4370 C   0  0  0  0  0  0  0  0  0  0  0  0
    2.8492   -7.2656   -0.0230 C   0  0  0  0  0  0  0  0  0  0  0  0
    2.6187   -8.4116    0.6999 O   0  0  0  0  0  0  0  0  0  0  0  0
    3.3649   -9.5537    0.2912 C   0  0  0  0  0  0  0  0  0  0  0  0
    2.9949   -6.0355    0.6739 C   0  0  0  0  0  0  0  0  0  0  0  0
    2.9913   -5.9092    2.0446 O   0  0  0  0  0  0  0  0  0  0  0  0
    3.4297   -7.0394    2.8058 C   0  0  0  0  0  0  0  0  0  0  0  0
    4.0223   -3.1446    1.5990 C   0  0  0  0  0  0  0  0  0  0  0  0
    4.2282   -1.8159    1.9975 C   0  0  0  0  0  0  0  0  0  0  0  0
    3.7178   -0.7448    1.2446 C   0  0  0  0  0  0  0  0  0  0  0  0
    3.8952    0.6353    1.7786 C   0  0  0  0  0  0  0  0  0  0  0  0
    2.8436    1.6867    1.5021 C   0  0  0  0  0  0  0  0  0  0  0  0
    4.8604    0.8854    2.4977 O   0  0  0  0  0  0  0  0  0  0  0  0
    1.6347    0.8586   -2.2602 H   0  0  0  0  0  0  0  0  0  0  0  0
    0.8128   -0.3506   -1.2628 H   0  0  0  0  0  0  0  0  0  0  0  0
    2.0229   -0.8410   -2.5154 H   0  0  0  0  0  0  0  0  0  0  0  0
    2.2385   -2.5249   -1.2085 H   0  0  0  0  0  0  0  0  0  0  0  0
    3.2979   -4.0560   -2.0164 H   0  0  0  0  0  0  0  0  0  0  0  0
    2.7885   -7.0610   -4.0523 H   0  0  0  0  0  0  0  0  0  0  0  0
    2.1273   -5.9748   -5.9808 H   0  0  0  0  0  0  0  0  0  0  0  0
    4.9456   -3.6721   -5.9198 H   0  0  0  0  0  0  0  0  0  0  0  0
    5.1589   -1.6531   -7.2472 H   0  0  0  0  0  0  0  0  0  0  0  0
    5.2955   -1.1199   -9.4839 H   0  0  0  0  0  0  0  0  0  0  0  0
    4.8879    0.3395   -8.5231 H   0  0  0  0  0  0  0  0  0  0  0  0
    3.9004    1.3676  -10.5931 H   0  0  0  0  0  0  0  0  0  0  0  0
    4.1550   -0.1387  -11.4506 H   0  0  0  0  0  0  0  0  0  0  0  0
    7.6902    1.6737  -10.2535 H   0  0  0  0  0  0  0  0  0  0  0  0
    6.3558    1.7039   -9.1168 H   0  0  0  0  0  0  0  0  0  0  0  0
    6.9544    3.9887  -10.2858 H   0  0  0  0  0  0  0  0  0  0  0  0
    5.2467    3.5046  -10.3762 H   0  0  0  0  0  0  0  0  0  0  0  0
    7.4090    3.1727  -12.4817 H   0  0  0  0  0  0  0  0  0  0  0  0
    5.7611    3.7907  -12.7040 H   0  0  0  0  0  0  0  0  0  0  0  0
    6.5879    1.1234  -13.1068 H   0  0  0  0  0  0  0  0  0  0  0  0
    4.9111    1.6127  -12.8698 H   0  0  0  0  0  0  0  0  0  0  0  0
    1.2613   -2.3242   -8.9312 H   0  0  0  0  0  0  0  0  0  0  0  0
   -0.1045   -4.0746   -8.1954 H   0  0  0  0  0  0  0  0  0  0  0  0
    0.1428   -4.4360   -6.4838 H   0  0  0  0  0  0  0  0  0  0  0  0
    0.7169   -5.5718   -7.7393 H   0  0  0  0  0  0  0  0  0  0  0  0
    2.6473   -8.2606   -1.9365 H   0  0  0  0  0  0  0  0  0  0  0  0
    3.5140  -10.1842    1.1746 H   0  0  0  0  0  0  0  0  0  0  0  0
    4.3539   -9.2987   -0.1056 H   0  0  0  0  0  0  0  0  0  0  0  0
    2.7852  -10.1254   -0.4372 H   0  0  0  0  0  0  0  0  0  0  0  0
    3.6916   -6.6962    3.8124 H   0  0  0  0  0  0  0  0  0  0  0  0
    4.3285   -7.4970    2.3766 H   0  0  0  0  0  0  0  0  0  0  0  0
    2.6229   -7.7683    2.9285 H   0  0  0  0  0  0  0  0  0  0  0  0
    4.4783   -3.9396    2.1830 H   0  0  0  0  0  0  0  0  0  0  0  0
    4.8077   -1.6200    2.8982 H   0  0  0  0  0  0  0  0  0  0  0  0
    1.9632    1.2992    0.9918 H   0  0  0  0  0  0  0  0  0  0  0  0
    3.2835    2.4903    0.9056 H   0  0  0  0  0  0  0  0  0  0  0  0
    2.4862    2.0849    2.4589 H   0  0  0  0  0  0  0  0  0  0  0  0
  1  2  1  0  0  0  0
  1 41  1  0  0  0  0
  1 42  1  0  0  0  0
  1 43  1  0  0  0  0
  2  3  1  0  0  0  0
  3  4  1  0  0  0  0
  3 37  2  0  0  0  0
  4  5  2  0  0  0  0
  4 44  1  0  0  0  0
  5  6  1  0  0  0  0
  5 35  1  0  0  0  0
  6  7  1  0  0  0  0
  6 32  2  0  0  0  0
  7  8  2  0  0  0  0
  7 45  1  0  0  0  0
  8  9  1  0  0  0  0
  8 28  1  0  0  0  0
  9 10  1  0  0  0  0
  9 46  1  0  0  0  0
 10 11  2  0  0  0  0
 10 12  1  0  0  0  0
 12 13  1  0  0  0  0
 12 47  1  0  0  0  0
 13 14  1  0  0  0  0
 13 26  2  0  0  0  0
 14 15  2  0  0  0  0
 14 48  1  0  0  0  0
 15 16  1  0  0  0  0
 15 49  1  0  0  0  0
 16 17  1  0  0  0  0
 16 25  2  0  0  0  0
 17 18  1  0  0  0  0
 18 19  1  0  0  0  0
 18 50  1  0  0  0  0
 18 51  1  0  0  0  0
 19 20  1  0  0  0  0
 19 52  1  0  0  0  0
 19 53  1  0  0  0  0
 20 21  1  0  0  0  0
 20 24  1  0  0  0  0
 21 22  1  0  0  0  0
 21 54  1  0  0  0  0
 21 55  1  0  0  0  0
 22 23  1  0  0  0  0
 22 56  1  0  0  0  0
 22 57  1  0  0  0  0
 23 24  1  0  0  0  0
 23 58  1  0  0  0  0
 23 59  1  0  0  0  0
 24 60  1  0  0  0  0
 24 61  1  0  0  0  0
 25 26  1  0  0  0  0
 25 62  1  0  0  0  0
 26 27  1  0  0  0  0
 27 63  1  0  0  0  0
 27 64  1  0  0  0  0
 27 65  1  0  0  0  0
 28 29  2  0  0  0  0
 28 66  1  0  0  0  0
 29 30  1  0  0  0  0
 29 32  1  0  0  0  0
 30 31  1  0  0  0  0
 31 67  1  0  0  0  0
 31 68  1  0  0  0  0
 31 69  1  0  0  0  0
 32 33  1  0  0  0  0
 33 34  1  0  0  0  0
 34 70  1  0  0  0  0
 34 71  1  0  0  0  0
 34 72  1  0  0  0  0
 35 36  2  0  0  0  0
 35 73  1  0  0  0  0
 36 37  1  0  0  0  0
 36 74  1  0  0  0  0
 37 38  1  0  0  0  0
 38 39  1  0  0  0  0
 38 40  2  0  0  0  0
 39 75  1  0  0  0  0
 39 76  1  0  0  0  0
 39 77  1  0  0  0  0
M  END
$$$$
