CHEMBL3952488
 OpenBabel04072215373D

 61 65  0  0  0  0  0  0  0  0999 V2000
    0.7501    3.6877    2.9555 C   0  0  0  0  0  0  0  0  0  0  0  0
    2.1730    3.8514    3.0233 O   0  0  0  0  0  0  0  0  0  0  0  0
    2.9800    2.8428    2.5355 C   0  0  0  0  0  0  0  0  0  0  0  0
    2.4941    1.5984    2.1472 C   0  0  0  0  0  0  0  0  0  0  0  0
    3.3690    0.6488    1.6176 C   0  0  0  0  0  0  0  0  0  0  0  0
    3.0191   -0.6323    1.2727 O   0  0  0  0  0  0  0  0  0  0  0  0
    1.6845   -1.0315    1.5756 C   0  0  0  0  0  0  0  0  0  0  0  0
    4.7121    0.9682    1.3936 C   0  0  0  0  0  0  0  0  0  0  0  0
    5.2622    2.2046    1.7575 C   0  0  0  0  0  0  0  0  0  0  0  0
    6.5886    2.5749    1.3840 N   0  0  0  0  0  0  0  0  0  0  0  0
    7.0875    2.2254   -0.0817 C   0  0  0  0  0  0  0  0  0  0  0  0
    6.1923    2.4516   -1.2891 C   0  0  0  0  0  0  0  0  0  0  0  0
    5.4244    2.6457   -2.3248 C   0  0  0  0  0  0  0  0  0  0  0  0
    4.6100    2.8439   -3.4692 C   0  0  0  0  0  0  0  0  0  0  0  0
    3.9079    1.9059   -4.1932 C   0  0  0  0  0  0  0  0  0  0  0  0
    3.2483    2.4899   -5.2471 N   0  0  0  0  0  0  0  0  0  0  0  0
    3.5384    3.7692   -5.1658 C   0  0  0  0  0  0  0  0  0  0  0  0
    4.3576    4.0311   -4.1042 N   0  0  0  0  0  0  0  0  0  0  0  0
    4.8555    5.3293   -3.7266 C   0  0  0  0  0  0  0  0  0  0  0  0
    7.7627    2.7006    2.2472 C   0  0  0  0  0  0  0  0  0  0  0  0
    8.5668    3.7862    1.9342 C   0  0  0  0  0  0  0  0  0  0  0  0
    9.9079    3.7525    2.2233 C   0  0  0  0  0  0  0  0  0  0  0  0
   10.4851    2.7407    2.9600 C   0  0  0  0  0  0  0  0  0  0  0  0
   11.8198    2.7553    2.8501 N   0  0  0  0  0  0  0  0  0  0  0  0
   12.5224    2.0681    3.7509 C   0  0  0  0  0  0  0  0  0  0  0  0
   11.9031    1.4960    4.8339 C   0  0  0  0  0  0  0  0  0  0  0  0
   12.7220    1.4747    6.0623 C   0  0  0  0  0  0  0  0  0  0  0  0
   13.3007    0.4346    6.8337 C   0  0  0  0  0  0  0  0  0  0  0  0
   14.1030    0.8788    7.8245 N   0  0  0  0  0  0  0  0  0  0  0  0
   14.0327    2.2125    7.7148 N   0  0  0  0  0  0  0  0  0  0  0  0
   14.4980    3.0570    8.7938 C   0  0  0  0  0  0  0  0  0  0  0  0
   13.3735    2.6026    6.5743 C   0  0  0  0  0  0  0  0  0  0  0  0
   10.5069    1.2925    4.8207 N   0  0  0  0  0  0  0  0  0  0  0  0
    9.7181    1.8844    3.7451 C   0  0  0  0  0  0  0  0  0  0  0  0
    8.2951    1.8316    3.2741 C   0  0  0  0  0  0  0  0  0  0  0  0
    4.3698    3.1106    2.4048 C   0  0  0  0  0  0  0  0  0  0  0  0
    0.2786    4.6757    3.0446 H   0  0  0  0  0  0  0  0  0  0  0  0
    0.3857    3.0790    3.7932 H   0  0  0  0  0  0  0  0  0  0  0  0
    0.3973    3.2699    2.0025 H   0  0  0  0  0  0  0  0  0  0  0  0
    1.4422    1.3717    2.2640 H   0  0  0  0  0  0  0  0  0  0  0  0
    1.5966   -2.1000    1.3626 H   0  0  0  0  0  0  0  0  0  0  0  0
    0.9746   -0.4982    0.9356 H   0  0  0  0  0  0  0  0  0  0  0  0
    1.4467   -0.8862    2.6362 H   0  0  0  0  0  0  0  0  0  0  0  0
    5.3554    0.2246    0.9272 H   0  0  0  0  0  0  0  0  0  0  0  0
    7.3278    1.1540   -0.0509 H   0  0  0  0  0  0  0  0  0  0  0  0
    8.0299    2.7459   -0.2866 H   0  0  0  0  0  0  0  0  0  0  0  0
    3.8438    0.8405   -4.0138 H   0  0  0  0  0  0  0  0  0  0  0  0
    3.1839    4.5367   -5.8418 H   0  0  0  0  0  0  0  0  0  0  0  0
    4.4792    6.0827   -4.4236 H   0  0  0  0  0  0  0  0  0  0  0  0
    5.9477    5.3087   -3.7618 H   0  0  0  0  0  0  0  0  0  0  0  0
    4.5058    5.5553   -2.7161 H   0  0  0  0  0  0  0  0  0  0  0  0
    8.1892    4.6057    1.3300 H   0  0  0  0  0  0  0  0  0  0  0  0
   10.5601    4.5239    1.8397 H   0  0  0  0  0  0  0  0  0  0  0  0
   13.6012    2.1349    3.6413 H   0  0  0  0  0  0  0  0  0  0  0  0
   13.2123   -0.6324    6.7052 H   0  0  0  0  0  0  0  0  0  0  0  0
   14.6360    2.4526    9.6966 H   0  0  0  0  0  0  0  0  0  0  0  0
   13.7349    3.8157    8.9947 H   0  0  0  0  0  0  0  0  0  0  0  0
   15.4427    3.5348    8.5203 H   0  0  0  0  0  0  0  0  0  0  0  0
   13.3785    3.6419    6.2704 H   0  0  0  0  0  0  0  0  0  0  0  0
    7.6497    1.0689    3.7078 H   0  0  0  0  0  0  0  0  0  0  0  0
    4.7314    4.0667    2.7803 H   0  0  0  0  0  0  0  0  0  0  0  0
  1  2  1  0  0  0  0
  1 37  1  0  0  0  0
  1 38  1  0  0  0  0
  1 39  1  0  0  0  0
  2  3  1  0  0  0  0
  3  4  1  0  0  0  0
  3 36  2  0  0  0  0
  4  5  2  0  0  0  0
  4 40  1  0  0  0  0
  5  6  1  0  0  0  0
  5  8  1  0  0  0  0
  6  7  1  0  0  0  0
  7 41  1  0  0  0  0
  7 42  1  0  0  0  0
  7 43  1  0  0  0  0
  8  9  2  0  0  0  0
  8 44  1  0  0  0  0
  9 10  1  0  0  0  0
  9 36  1  0  0  0  0
 10 11  1  0  0  0  0
 10 20  1  0  0  0  0
 11 12  1  0  0  0  0
 11 45  1  0  0  0  0
 11 46  1  0  0  0  0
 12 13  3  0  0  0  0
 13 14  1  0  0  0  0
 14 15  2  0  0  0  0
 14 18  1  0  0  0  0
 15 16  1  0  0  0  0
 15 47  1  0  0  0  0
 16 17  2  0  0  0  0
 17 18  1  0  0  0  0
 17 48  1  0  0  0  0
 18 19  1  0  0  0  0
 19 49  1  0  0  0  0
 19 50  1  0  0  0  0
 19 51  1  0  0  0  0
 20 21  1  0  0  0  0
 20 35  2  0  0  0  0
 21 22  2  0  0  0  0
 21 52  1  0  0  0  0
 22 23  1  0  0  0  0
 22 53  1  0  0  0  0
 23 24  1  0  0  0  0
 23 34  2  0  0  0  0
 24 25  2  0  0  0  0
 25 26  1  0  0  0  0
 25 54  1  0  0  0  0
 26 27  1  0  0  0  0
 26 33  2  0  0  0  0
 27 28  1  0  0  0  0
 27 32  2  0  0  0  0
 28 29  2  0  0  0  0
 28 55  1  0  0  0  0
 29 30  1  0  0  0  0
 30 31  1  0  0  0  0
 30 32  1  0  0  0  0
 31 56  1  0  0  0  0
 31 57  1  0  0  0  0
 31 58  1  0  0  0  0
 32 59  1  0  0  0  0
 33 34  1  0  0  0  0
 34 35  1  0  0  0  0
 35 60  1  0  0  0  0
 36 61  1  0  0  0  0
M  END
$$$$
