CHEMBL598000
 OpenBabel04072215383D

 38 41  0  0  0  0  0  0  0  0999 V2000
    1.1360   -0.4463    0.5185 O   0  0  0  0  0  0  0  0  0  0  0  0
    2.2687   -0.1342    0.1542 C   0  0  0  0  0  0  0  0  0  0  0  0
    2.9585   -0.8413   -0.9878 C   0  0  0  0  0  0  0  0  0  0  0  0
    4.2068   -1.4974   -0.5160 C   0  0  0  0  0  0  0  0  0  0  0  0
    4.3441   -2.8655   -0.4354 C   0  0  0  0  0  0  0  0  0  0  0  0
    5.4357   -3.4785    0.0525 N   0  0  0  0  0  0  0  0  0  0  0  0
    6.4443   -2.6880    0.4390 C   0  0  0  0  0  0  0  0  0  0  0  0
    7.5637   -3.3239    0.9714 N   0  0  0  0  0  0  0  0  0  0  0  0
    8.8813   -2.8571    1.0455 C   0  0  0  0  0  0  0  0  0  0  0  0
    9.7218   -3.3080    2.0689 C   0  0  0  0  0  0  0  0  0  0  0  0
   11.0096   -2.7793    2.2241 C   0  0  0  0  0  0  0  0  0  0  0  0
   11.4659   -1.8018    1.3410 C   0  0  0  0  0  0  0  0  0  0  0  0
   12.7177   -1.2702    1.4989 O   0  0  0  0  0  0  0  0  0  0  0  0
   10.6518   -1.3624    0.2997 C   0  0  0  0  0  0  0  0  0  0  0  0
   11.1810   -0.1690   -0.8276 Cl  0  0  0  0  0  0  0  0  0  0  0  0
    9.3664   -1.8818    0.1608 C   0  0  0  0  0  0  0  0  0  0  0  0
    6.4036   -1.3444    0.3767 N   0  0  0  0  0  0  0  0  0  0  0  0
    5.2808   -0.7525   -0.0744 C   0  0  0  0  0  0  0  0  0  0  0  0
    5.2628    0.7260   -0.0509 C   0  0  0  0  0  0  0  0  0  0  0  0
    6.4169    1.4345   -0.4459 C   0  0  0  0  0  0  0  0  0  0  0  0
    6.4634    2.8311   -0.4256 C   0  0  0  0  0  0  0  0  0  0  0  0
    5.3768    3.5541    0.0496 C   0  0  0  0  0  0  0  0  0  0  0  0
    4.2379    2.8821    0.4852 C   0  0  0  0  0  0  0  0  0  0  0  0
    4.1504    1.4845    0.3865 C   0  0  0  0  0  0  0  0  0  0  0  0
    2.8977    0.9379    0.7312 N   0  0  0  0  0  0  0  0  0  0  0  0
    3.1742   -0.1231   -1.7895 H   0  0  0  0  0  0  0  0  0  0  0  0
    2.2674   -1.5742   -1.4165 H   0  0  0  0  0  0  0  0  0  0  0  0
    3.5523   -3.5347   -0.7601 H   0  0  0  0  0  0  0  0  0  0  0  0
    7.4118   -4.3168    1.0666 H   0  0  0  0  0  0  0  0  0  0  0  0
    9.3625   -4.0456    2.7844 H   0  0  0  0  0  0  0  0  0  0  0  0
   11.6265   -3.1301    3.0463 H   0  0  0  0  0  0  0  0  0  0  0  0
   13.1023   -1.5960    2.3280 H   0  0  0  0  0  0  0  0  0  0  0  0
    8.7413   -1.5317   -0.6539 H   0  0  0  0  0  0  0  0  0  0  0  0
    7.2974    0.8896   -0.7857 H   0  0  0  0  0  0  0  0  0  0  0  0
    7.3536    3.3496   -0.7737 H   0  0  0  0  0  0  0  0  0  0  0  0
    5.4084    4.6406    0.0686 H   0  0  0  0  0  0  0  0  0  0  0  0
    3.3926    3.4671    0.8411 H   0  0  0  0  0  0  0  0  0  0  0  0
    2.2833    1.4812    1.3272 H   0  0  0  0  0  0  0  0  0  0  0  0
  1  2  2  0  0  0  0
  2  3  1  0  0  0  0
  2 25  1  0  0  0  0
  3  4  1  0  0  0  0
  3 26  1  0  0  0  0
  3 27  1  0  0  0  0
  4  5  1  0  0  0  0
  4 18  2  0  0  0  0
  5  6  2  0  0  0  0
  5 28  1  0  0  0  0
  6  7  1  0  0  0  0
  7  8  1  0  0  0  0
  7 17  2  0  0  0  0
  8  9  1  0  0  0  0
  8 29  1  0  0  0  0
  9 10  1  0  0  0  0
  9 16  2  0  0  0  0
 10 11  2  0  0  0  0
 10 30  1  0  0  0  0
 11 12  1  0  0  0  0
 11 31  1  0  0  0  0
 12 13  1  0  0  0  0
 12 14  2  0  0  0  0
 13 32  1  0  0  0  0
 14 15  1  0  0  0  0
 14 16  1  0  0  0  0
 16 33  1  0  0  0  0
 17 18  1  0  0  0  0
 18 19  1  0  0  0  0
 19 20  1  0  0  0  0
 19 24  2  0  0  0  0
 20 21  2  0  0  0  0
 20 34  1  0  0  0  0
 21 22  1  0  0  0  0
 21 35  1  0  0  0  0
 22 23  2  0  0  0  0
 22 36  1  0  0  0  0
 23 24  1  0  0  0  0
 23 37  1  0  0  0  0
 24 25  1  0  0  0  0
 25 38  1  0  0  0  0
M  END
$$$$
