CHEMBL2002446
 OpenBabel04072215363D

 63 68  0  0  0  0  0  0  0  0999 V2000
    1.9384    0.0309   -1.0418 C   0  0  0  0  0  0  0  0  0  0  0  0
    0.4909    0.2119   -1.0694 N   0  0  0  0  0  0  0  0  0  0  0  0
   -0.2064   -1.0307   -0.7012 C   0  0  0  0  0  0  0  0  0  0  0  0
   -1.7382   -0.8274   -0.7203 C   0  0  0  0  0  0  0  0  0  0  0  0
   -2.2207    0.2073    0.2206 N   0  0  0  0  0  0  0  0  0  0  0  0
   -2.0465   -0.1428    1.6438 C   0  0  0  0  0  0  0  0  0  0  0  0
   -2.7600   -1.4106    2.0893 C   0  0  0  0  0  0  0  0  0  0  0  0
   -2.0940   -2.6632    2.0012 C   0  0  0  0  0  0  0  0  0  0  0  0
   -2.7194   -3.8638    2.3415 C   0  0  0  0  0  0  0  0  0  0  0  0
   -3.9990   -3.7784    2.8281 C   0  0  0  0  0  0  0  0  0  0  0  0
   -4.6779   -2.5404    2.9879 C   0  0  0  0  0  0  0  0  0  0  0  0
   -4.0699   -1.3549    2.5972 C   0  0  0  0  0  0  0  0  0  0  0  0
   -6.0685   -2.6986    3.6315 C   0  0  0  0  0  0  0  0  0  0  0  0
   -6.0558   -4.1845    3.7521 C   0  0  0  0  0  0  0  0  0  0  0  0
   -6.8442   -5.2583    4.1761 C   0  0  0  0  0  0  0  0  0  0  0  0
   -8.1744   -5.1463    4.7622 C   0  0  0  0  0  0  0  0  0  0  0  0
   -9.1478   -6.1224    4.6993 C   0  0  0  0  0  0  0  0  0  0  0  0
  -10.5957   -5.6336    5.4666 S   0  0  0  0  0  0  0  0  0  0  0  0
   -9.9238   -4.1281    5.9074 C   0  0  0  0  0  0  0  0  0  0  0  0
  -10.6377   -3.1313    6.6268 C   0  0  0  0  0  0  0  0  0  0  0  0
  -11.3403   -2.2557    7.2900 C   0  0  0  0  0  0  0  0  0  0  0  0
  -12.1593   -1.2350    8.0632 C   0  0  0  0  0  0  0  0  0  0  0  0
  -13.4117   -1.0199    7.4192 O   0  0  0  0  0  0  0  0  0  0  0  0
  -14.1890   -0.0480    8.1211 C   0  0  0  0  0  0  0  0  0  0  0  0
  -15.4937    0.1344    7.4109 C   0  0  0  0  0  0  0  0  0  0  0  0
  -15.5175    0.6918    6.0105 C   0  0  0  0  0  0  0  0  0  0  0  0
  -16.0669    1.5077    7.1463 C   0  0  0  0  0  0  0  0  0  0  0  0
   -8.6189   -4.0019    5.4875 C   0  0  0  0  0  0  0  0  0  0  0  0
   -6.2286   -6.4411    3.9467 N   0  0  0  0  0  0  0  0  0  0  0  0
   -5.0308   -6.0973    3.4080 N   0  0  0  0  0  0  0  0  0  0  0  0
   -4.9045   -4.7608    3.2947 C   0  0  0  0  0  0  0  0  0  0  0  0
   -1.4849    1.4574   -0.1032 C   0  0  0  0  0  0  0  0  0  0  0  0
    0.0623    1.3146   -0.1872 C   0  0  0  0  0  0  0  0  0  0  0  0
    2.2351   -0.7900   -1.7059 H   0  0  0  0  0  0  0  0  0  0  0  0
    2.3124   -0.1928   -0.0363 H   0  0  0  0  0  0  0  0  0  0  0  0
    2.4436    0.9296   -1.4094 H   0  0  0  0  0  0  0  0  0  0  0  0
    0.1238   -1.3715    0.2872 H   0  0  0  0  0  0  0  0  0  0  0  0
    0.0463   -1.8259   -1.4122 H   0  0  0  0  0  0  0  0  0  0  0  0
   -2.2551   -1.7794   -0.5661 H   0  0  0  0  0  0  0  0  0  0  0  0
   -2.0305   -0.5239   -1.7365 H   0  0  0  0  0  0  0  0  0  0  0  0
   -2.4444    0.6811    2.2507 H   0  0  0  0  0  0  0  0  0  0  0  0
   -0.9920   -0.2231    1.9293 H   0  0  0  0  0  0  0  0  0  0  0  0
   -1.0670   -2.7039    1.6506 H   0  0  0  0  0  0  0  0  0  0  0  0
   -2.2066   -4.8117    2.2383 H   0  0  0  0  0  0  0  0  0  0  0  0
   -4.5912   -0.4070    2.6954 H   0  0  0  0  0  0  0  0  0  0  0  0
   -6.8597   -2.3416    2.9686 H   0  0  0  0  0  0  0  0  0  0  0  0
   -6.0920   -2.2086    4.6083 H   0  0  0  0  0  0  0  0  0  0  0  0
   -9.0772   -7.0909    4.2237 H   0  0  0  0  0  0  0  0  0  0  0  0
  -11.5975   -0.2956    8.1134 H   0  0  0  0  0  0  0  0  0  0  0  0
  -12.3256   -1.6117    9.0786 H   0  0  0  0  0  0  0  0  0  0  0  0
  -13.6349    0.8964    8.1737 H   0  0  0  0  0  0  0  0  0  0  0  0
  -14.3805   -0.4002    9.1414 H   0  0  0  0  0  0  0  0  0  0  0  0
  -16.1891   -0.6643    7.6435 H   0  0  0  0  0  0  0  0  0  0  0  0
  -16.2120    0.2420    5.3105 H   0  0  0  0  0  0  0  0  0  0  0  0
  -14.5787    1.0010    5.5652 H   0  0  0  0  0  0  0  0  0  0  0  0
  -17.1433    1.6338    7.1935 H   0  0  0  0  0  0  0  0  0  0  0  0
  -15.5085    2.3861    7.4487 H   0  0  0  0  0  0  0  0  0  0  0  0
   -8.0221   -3.1241    5.6984 H   0  0  0  0  0  0  0  0  0  0  0  0
   -4.3840   -6.8313    3.1421 H   0  0  0  0  0  0  0  0  0  0  0  0
   -1.7440    2.2476    0.6121 H   0  0  0  0  0  0  0  0  0  0  0  0
   -1.8478    1.8154   -1.0767 H   0  0  0  0  0  0  0  0  0  0  0  0
    0.4641    1.1737    0.8243 H   0  0  0  0  0  0  0  0  0  0  0  0
    0.4725    2.2579   -0.5677 H   0  0  0  0  0  0  0  0  0  0  0  0
  1  2  1  0  0  0  0
  1 34  1  0  0  0  0
  1 35  1  0  0  0  0
  1 36  1  0  0  0  0
  2  3  1  0  0  0  0
  2 33  1  0  0  0  0
  3  4  1  0  0  0  0
  3 37  1  0  0  0  0
  3 38  1  0  0  0  0
  4  5  1  0  0  0  0
  4 39  1  0  0  0  0
  4 40  1  0  0  0  0
  5  6  1  0  0  0  0
  5 32  1  0  0  0  0
  6  7  1  0  0  0  0
  6 41  1  0  0  0  0
  6 42  1  0  0  0  0
  7  8  1  0  0  0  0
  7 12  2  0  0  0  0
  8  9  2  0  0  0  0
  8 43  1  0  0  0  0
  9 10  1  0  0  0  0
  9 44  1  0  0  0  0
 10 11  2  0  0  0  0
 10 31  1  0  0  0  0
 11 12  1  0  0  0  0
 11 13  1  0  0  0  0
 12 45  1  0  0  0  0
 13 14  1  0  0  0  0
 13 46  1  0  0  0  0
 13 47  1  0  0  0  0
 14 15  1  0  0  0  0
 14 31  2  0  0  0  0
 15 16  1  0  0  0  0
 15 29  2  0  0  0  0
 16 17  2  0  0  0  0
 16 28  1  0  0  0  0
 17 18  1  0  0  0  0
 17 48  1  0  0  0  0
 18 19  1  0  0  0  0
 19 20  1  0  0  0  0
 19 28  2  0  0  0  0
 20 21  3  0  0  0  0
 21 22  1  0  0  0  0
 22 23  1  0  0  0  0
 22 49  1  0  0  0  0
 22 50  1  0  0  0  0
 23 24  1  0  0  0  0
 24 25  1  0  0  0  0
 24 51  1  0  0  0  0
 24 52  1  0  0  0  0
 25 26  1  0  0  0  0
 25 27  1  0  0  0  0
 25 53  1  0  0  0  0
 26 27  1  0  0  0  0
 26 54  1  0  0  0  0
 26 55  1  0  0  0  0
 27 56  1  0  0  0  0
 27 57  1  0  0  0  0
 28 58  1  0  0  0  0
 29 30  1  0  0  0  0
 30 31  1  0  0  0  0
 30 59  1  0  0  0  0
 32 33  1  0  0  0  0
 32 60  1  0  0  0  0
 32 61  1  0  0  0  0
 33 62  1  0  0  0  0
 33 63  1  0  0  0  0
M  END
$$$$
