CHEMBL3896869
 OpenBabel04072215373D

 58 61  0  0  0  0  0  0  0  0999 V2000
    2.6164    0.2080    0.1290 C   0  0  0  0  0  0  0  0  0  0  0  0
    1.1183    0.0721    0.1495 C   0  0  0  0  0  0  0  0  0  0  0  0
    0.3736    1.2693    0.1576 C   0  0  0  0  0  0  0  0  0  0  0  0
   -1.0140    1.2772    0.0068 C   0  0  0  0  0  0  0  0  0  0  0  0
   -1.7752    2.4273   -0.0875 O   0  0  0  0  0  0  0  0  0  0  0  0
   -1.2432    3.5293   -0.7298 C   0  0  0  0  0  0  0  0  0  0  0  0
   -0.3686    3.4335   -1.8086 C   0  0  0  0  0  0  0  0  0  0  0  0
    0.1801    4.5980   -2.2914 C   0  0  0  0  0  0  0  0  0  0  0  0
   -0.1471    5.8154   -1.8262 N   0  0  0  0  0  0  0  0  0  0  0  0
   -1.0636    5.9177   -0.8486 C   0  0  0  0  0  0  0  0  0  0  0  0
   -1.4455    7.1930   -0.3936 N   0  0  0  0  0  0  0  0  0  0  0  0
   -0.9143    8.3726   -0.8823 C   0  0  0  0  0  0  0  0  0  0  0  0
   -0.0558    8.4997   -1.7435 O   0  0  0  0  0  0  0  0  0  0  0  0
   -1.4290    9.6396   -0.2778 C   0  0  0  0  0  0  0  0  0  0  0  0
   -1.2189    9.8959    1.1969 C   0  0  0  0  0  0  0  0  0  0  0  0
   -2.6107    9.7965    0.6414 C   0  0  0  0  0  0  0  0  0  0  0  0
   -1.6374    4.7899   -0.2695 C   0  0  0  0  0  0  0  0  0  0  0  0
   -1.6887    0.0691   -0.0430 C   0  0  0  0  0  0  0  0  0  0  0  0
   -0.9684   -1.1303    0.0141 C   0  0  0  0  0  0  0  0  0  0  0  0
    0.4362   -1.1620    0.1087 C   0  0  0  0  0  0  0  0  0  0  0  0
    1.1530   -2.3942    0.1805 N   0  0  0  0  0  0  0  0  0  0  0  0
    0.5900   -3.6429    0.4174 C   0  0  0  0  0  0  0  0  0  0  0  0
   -0.6088   -3.8605    0.5624 O   0  0  0  0  0  0  0  0  0  0  0  0
    1.5410   -4.6463    0.5539 N   0  0  0  0  0  0  0  0  0  0  0  0
    1.1293   -5.9724    0.8550 C   0  0  0  0  0  0  0  0  0  0  0  0
    1.7502   -6.6458    1.9087 C   0  0  0  0  0  0  0  0  0  0  0  0
    1.2872   -7.9052    2.2983 C   0  0  0  0  0  0  0  0  0  0  0  0
    0.2462   -8.5137    1.6004 C   0  0  0  0  0  0  0  0  0  0  0  0
   -0.1870   -9.7122    2.0147 F   0  0  0  0  0  0  0  0  0  0  0  0
   -0.3472   -7.8948    0.5021 C   0  0  0  0  0  0  0  0  0  0  0  0
   -1.4339   -8.5980   -0.2711 C   0  0  0  0  0  0  0  0  0  0  0  0
   -2.8165   -8.3647    0.3185 C   0  0  0  0  0  0  0  0  0  0  0  0
   -1.4765   -8.1901   -1.5769 F   0  0  0  0  0  0  0  0  0  0  0  0
   -1.2382   -9.9490   -0.3418 F   0  0  0  0  0  0  0  0  0  0  0  0
    0.0937   -6.6059    0.1466 C   0  0  0  0  0  0  0  0  0  0  0  0
    2.9222    1.2460    0.3202 H   0  0  0  0  0  0  0  0  0  0  0  0
    3.0025   -0.0578   -0.8613 H   0  0  0  0  0  0  0  0  0  0  0  0
    3.0893   -0.4080    0.8960 H   0  0  0  0  0  0  0  0  0  0  0  0
    0.9040    2.2177    0.2520 H   0  0  0  0  0  0  0  0  0  0  0  0
   -0.0799    2.4838   -2.2426 H   0  0  0  0  0  0  0  0  0  0  0  0
    0.9268    4.5905   -3.0791 H   0  0  0  0  0  0  0  0  0  0  0  0
   -2.1361    7.2401    0.3363 H   0  0  0  0  0  0  0  0  0  0  0  0
   -1.2512   10.4883   -0.9379 H   0  0  0  0  0  0  0  0  0  0  0  0
   -0.8343   10.8713    1.4752 H   0  0  0  0  0  0  0  0  0  0  0  0
   -0.8535    9.0867    1.8181 H   0  0  0  0  0  0  0  0  0  0  0  0
   -3.1810   10.7180    0.5583 H   0  0  0  0  0  0  0  0  0  0  0  0
   -3.2189    8.9457    0.9126 H   0  0  0  0  0  0  0  0  0  0  0  0
   -2.3646    4.8671    0.5302 H   0  0  0  0  0  0  0  0  0  0  0  0
   -2.7710    0.0400   -0.1389 H   0  0  0  0  0  0  0  0  0  0  0  0
   -1.5566   -2.0401   -0.0573 H   0  0  0  0  0  0  0  0  0  0  0  0
    2.1573   -2.3451    0.1030 H   0  0  0  0  0  0  0  0  0  0  0  0
    2.4055   -4.3452    0.9786 H   0  0  0  0  0  0  0  0  0  0  0  0
    2.5441   -6.1775    2.4827 H   0  0  0  0  0  0  0  0  0  0  0  0
    1.7194   -8.4134    3.1552 H   0  0  0  0  0  0  0  0  0  0  0  0
   -3.0957   -7.3073    0.2725 H   0  0  0  0  0  0  0  0  0  0  0  0
   -2.8772   -8.7032    1.3577 H   0  0  0  0  0  0  0  0  0  0  0  0
   -3.5634   -8.9272   -0.2534 H   0  0  0  0  0  0  0  0  0  0  0  0
   -0.3766   -6.0987   -0.6955 H   0  0  0  0  0  0  0  0  0  0  0  0
  1  2  1  0  0  0  0
  1 36  1  0  0  0  0
  1 37  1  0  0  0  0
  1 38  1  0  0  0  0
  2  3  1  0  0  0  0
  2 20  2  0  0  0  0
  3  4  2  0  0  0  0
  3 39  1  0  0  0  0
  4  5  1  0  0  0  0
  4 18  1  0  0  0  0
  5  6  1  0  0  0  0
  6  7  1  0  0  0  0
  6 17  2  0  0  0  0
  7  8  2  0  0  0  0
  7 40  1  0  0  0  0
  8  9  1  0  0  0  0
  8 41  1  0  0  0  0
  9 10  2  0  0  0  0
 10 11  1  0  0  0  0
 10 17  1  0  0  0  0
 11 12  1  0  0  0  0
 11 42  1  0  0  0  0
 12 13  2  0  0  0  0
 12 14  1  0  0  0  0
 14 15  1  0  0  0  0
 14 16  1  0  0  0  0
 14 43  1  0  0  0  0
 15 16  1  0  0  0  0
 15 44  1  0  0  0  0
 15 45  1  0  0  0  0
 16 46  1  0  0  0  0
 16 47  1  0  0  0  0
 17 48  1  0  0  0  0
 18 19  2  0  0  0  0
 18 49  1  0  0  0  0
 19 20  1  0  0  0  0
 19 50  1  0  0  0  0
 20 21  1  0  0  0  0
 21 22  1  0  0  0  0
 21 51  1  0  0  0  0
 22 23  2  0  0  0  0
 22 24  1  0  0  0  0
 24 25  1  0  0  0  0
 24 52  1  0  0  0  0
 25 26  1  0  0  0  0
 25 35  2  0  0  0  0
 26 27  2  0  0  0  0
 26 53  1  0  0  0  0
 27 28  1  0  0  0  0
 27 54  1  0  0  0  0
 28 29  1  0  0  0  0
 28 30  2  0  0  0  0
 30 31  1  0  0  0  0
 30 35  1  0  0  0  0
 31 32  1  0  0  0  0
 31 33  1  0  0  0  0
 31 34  1  0  0  0  0
 32 55  1  0  0  0  0
 32 56  1  0  0  0  0
 32 57  1  0  0  0  0
 35 58  1  0  0  0  0
M  END
$$$$
