CHEMBL3690589
 OpenBabel04072215373D

 60 64  0  0  0  0  0  0  0  0999 V2000
    5.4166   -3.1772    0.2789 O   0  0  0  0  0  0  0  0  0  0  0  0
    6.2950   -3.1082   -0.5702 C   0  0  0  0  0  0  0  0  0  0  0  0
    6.9461   -4.2376   -1.0247 N   0  0  0  0  0  0  0  0  0  0  0  0
    6.6881   -5.5116   -0.3444 C   0  0  0  0  0  0  0  0  0  0  0  0
    7.4827   -5.7197    0.9521 C   0  0  0  0  0  0  0  0  0  0  0  0
    8.3631   -4.7133    1.1677 F   0  0  0  0  0  0  0  0  0  0  0  0
    6.6873   -5.8236    2.0349 F   0  0  0  0  0  0  0  0  0  0  0  0
    8.2114   -6.8607    0.8686 F   0  0  0  0  0  0  0  0  0  0  0  0
    6.7555   -1.9776   -1.2008 N   0  0  0  0  0  0  0  0  0  0  0  0
    6.3037   -0.6503   -1.0209 C   0  0  0  0  0  0  0  0  0  0  0  0
    5.2433   -0.2922   -0.1947 C   0  0  0  0  0  0  0  0  0  0  0  0
    4.8309    1.0401   -0.1181 C   0  0  0  0  0  0  0  0  0  0  0  0
    5.4709    2.0226   -0.8748 C   0  0  0  0  0  0  0  0  0  0  0  0
    6.5499    1.6905   -1.6999 C   0  0  0  0  0  0  0  0  0  0  0  0
    7.2537    2.7364   -2.4500 C   0  0  0  0  0  0  0  0  0  0  0  0
    7.5228    4.0499   -2.0950 C   0  0  0  0  0  0  0  0  0  0  0  0
    8.2977    4.6908   -3.0235 N   0  0  0  0  0  0  0  0  0  0  0  0
    8.5105    3.7988   -3.9651 C   0  0  0  0  0  0  0  0  0  0  0  0
    9.2691    3.8821   -5.1683 C   0  0  0  0  0  0  0  0  0  0  0  0
    9.3064    2.8500   -6.0497 C   0  0  0  0  0  0  0  0  0  0  0  0
   10.0860    3.0315   -7.2441 C   0  0  0  0  0  0  0  0  0  0  0  0
   11.1120    3.8478   -7.4154 N   0  0  0  0  0  0  0  0  0  0  0  0
   11.6468    3.7935   -8.6841 N   0  0  0  0  0  0  0  0  0  0  0  0
   11.0077    2.9447   -9.4577 C   0  0  0  0  0  0  0  0  0  0  0  0
   11.3815    2.6410  -10.8709 C   0  0  0  0  0  0  0  0  0  0  0  0
   10.3299    3.1325  -11.8797 C   0  0  0  0  0  0  0  0  0  0  0  0
   10.6923    2.8191  -13.2761 N   0  0  0  0  0  0  0  0  0  0  0  0
   11.8611    3.5718  -13.7597 C   0  0  0  0  0  0  0  0  0  0  0  0
   11.3128    4.9064  -14.2212 C   0  0  0  0  0  0  0  0  0  0  0  0
    9.9511    4.5559  -14.7907 C   0  0  0  0  0  0  0  0  0  0  0  0
    9.6074    3.1889  -14.2055 C   0  0  0  0  0  0  0  0  0  0  0  0
    9.7103    2.1422   -8.6876 S   0  0  0  0  0  0  0  0  0  0  0  0
    8.5457    1.6308   -5.7382 C   0  0  0  0  0  0  0  0  0  0  0  0
    7.8253    1.5491   -4.6105 C   0  0  0  0  0  0  0  0  0  0  0  0
    7.8332    2.6112   -3.7047 N   0  0  0  0  0  0  0  0  0  0  0  0
    6.9674    0.3493   -1.7411 C   0  0  0  0  0  0  0  0  0  0  0  0
    7.8912   -4.0991   -1.3528 H   0  0  0  0  0  0  0  0  0  0  0  0
    6.9385   -6.2982   -1.0631 H   0  0  0  0  0  0  0  0  0  0  0  0
    5.6153   -5.5936   -0.1344 H   0  0  0  0  0  0  0  0  0  0  0  0
    7.4614   -2.1205   -1.9060 H   0  0  0  0  0  0  0  0  0  0  0  0
    4.7108   -1.0227    0.4054 H   0  0  0  0  0  0  0  0  0  0  0  0
    4.0046    1.3094    0.5353 H   0  0  0  0  0  0  0  0  0  0  0  0
    5.1166    3.0487   -0.8046 H   0  0  0  0  0  0  0  0  0  0  0  0
    7.2215    4.5585   -1.1875 H   0  0  0  0  0  0  0  0  0  0  0  0
    9.8047    4.8125   -5.3449 H   0  0  0  0  0  0  0  0  0  0  0  0
   11.5407    1.5617  -10.9860 H   0  0  0  0  0  0  0  0  0  0  0  0
   12.3473    3.1216  -11.0568 H   0  0  0  0  0  0  0  0  0  0  0  0
   10.1308    4.2024  -11.7390 H   0  0  0  0  0  0  0  0  0  0  0  0
    9.3866    2.6131  -11.6587 H   0  0  0  0  0  0  0  0  0  0  0  0
   12.2909    3.0306  -14.6116 H   0  0  0  0  0  0  0  0  0  0  0  0
   12.6667    3.6895  -13.0314 H   0  0  0  0  0  0  0  0  0  0  0  0
   11.9603    5.3868  -14.9605 H   0  0  0  0  0  0  0  0  0  0  0  0
   11.2005    5.5932  -13.3739 H   0  0  0  0  0  0  0  0  0  0  0  0
    9.9990    4.4978  -15.8841 H   0  0  0  0  0  0  0  0  0  0  0  0
    9.2096    5.3155  -14.5239 H   0  0  0  0  0  0  0  0  0  0  0  0
    9.5769    2.4482  -15.0141 H   0  0  0  0  0  0  0  0  0  0  0  0
    8.6128    3.1829  -13.7446 H   0  0  0  0  0  0  0  0  0  0  0  0
    8.5756    0.7891   -6.4227 H   0  0  0  0  0  0  0  0  0  0  0  0
    7.2338    0.6745   -4.3770 H   0  0  0  0  0  0  0  0  0  0  0  0
    7.8446    0.0780   -2.3208 H   0  0  0  0  0  0  0  0  0  0  0  0
  1  2  2  0  0  0  0
  2  3  1  0  0  0  0
  2  9  1  0  0  0  0
  3  4  1  0  0  0  0
  3 37  1  0  0  0  0
  4  5  1  0  0  0  0
  4 38  1  0  0  0  0
  4 39  1  0  0  0  0
  5  6  1  0  0  0  0
  5  7  1  0  0  0  0
  5  8  1  0  0  0  0
  9 10  1  0  0  0  0
  9 40  1  0  0  0  0
 10 11  1  0  0  0  0
 10 36  2  0  0  0  0
 11 12  2  0  0  0  0
 11 41  1  0  0  0  0
 12 13  1  0  0  0  0
 12 42  1  0  0  0  0
 13 14  2  0  0  0  0
 13 43  1  0  0  0  0
 14 15  1  0  0  0  0
 14 36  1  0  0  0  0
 15 16  2  0  0  0  0
 15 35  1  0  0  0  0
 16 17  1  0  0  0  0
 16 44  1  0  0  0  0
 17 18  2  0  0  0  0
 18 19  1  0  0  0  0
 18 35  1  0  0  0  0
 19 20  2  0  0  0  0
 19 45  1  0  0  0  0
 20 21  1  0  0  0  0
 20 33  1  0  0  0  0
 21 22  2  0  0  0  0
 21 32  1  0  0  0  0
 22 23  1  0  0  0  0
 23 24  2  0  0  0  0
 24 25  1  0  0  0  0
 24 32  1  0  0  0  0
 25 26  1  0  0  0  0
 25 46  1  0  0  0  0
 25 47  1  0  0  0  0
 26 27  1  0  0  0  0
 26 48  1  0  0  0  0
 26 49  1  0  0  0  0
 27 28  1  0  0  0  0
 27 31  1  0  0  0  0
 28 29  1  0  0  0  0
 28 50  1  0  0  0  0
 28 51  1  0  0  0  0
 29 30  1  0  0  0  0
 29 52  1  0  0  0  0
 29 53  1  0  0  0  0
 30 31  1  0  0  0  0
 30 54  1  0  0  0  0
 30 55  1  0  0  0  0
 31 56  1  0  0  0  0
 31 57  1  0  0  0  0
 33 34  2  0  0  0  0
 33 58  1  0  0  0  0
 34 35  1  0  0  0  0
 34 59  1  0  0  0  0
 36 60  1  0  0  0  0
M  END
$$$$
