CHEMBL1985095
 OpenBabel04072215363D

 49 54  0  0  0  0  0  0  0  0999 V2000
    2.7384    0.7602   -2.3572 N   0  0  0  0  0  0  0  0  0  0  0  0
    2.7292    0.0339   -1.1989 C   0  0  0  0  0  0  0  0  0  0  0  0
    1.7650    0.0853   -0.4408 O   0  0  0  0  0  0  0  0  0  0  0  0
    3.9474   -0.8124   -0.9271 C   0  0  0  0  0  0  0  0  0  0  0  0
    4.9297   -0.1052   -0.1231 N   0  0  0  0  0  0  0  0  0  0  0  0
    5.9707    0.6196   -0.6509 C   0  0  0  0  0  0  0  0  0  0  0  0
    6.7515    1.0912    0.3907 C   0  0  0  0  0  0  0  0  0  0  0  0
    7.9539    1.8938    0.1928 C   0  0  0  0  0  0  0  0  0  0  0  0
    8.3504    2.8187    1.1688 C   0  0  0  0  0  0  0  0  0  0  0  0
    9.5223    3.5890    1.0438 C   0  0  0  0  0  0  0  0  0  0  0  0
    9.9545    4.5157    2.0951 C   0  0  0  0  0  0  0  0  0  0  0  0
    9.1800    5.2471    2.9771 C   0  0  0  0  0  0  0  0  0  0  0  0
    9.9454    5.9753    3.9496 C   0  0  0  0  0  0  0  0  0  0  0  0
    9.5382    6.7924    5.0325 C   0  0  0  0  0  0  0  0  0  0  0  0
   10.4925    7.3709    5.8733 C   0  0  0  0  0  0  0  0  0  0  0  0
   11.8491    7.1699    5.6498 C   0  0  0  0  0  0  0  0  0  0  0  0
   12.2794    6.3863    4.5810 C   0  0  0  0  0  0  0  0  0  0  0  0
   11.3130    5.7872    3.7520 C   0  0  0  0  0  0  0  0  0  0  0  0
   11.6177    4.7500    2.4282 S   0  0  0  0  0  0  0  0  0  0  0  0
   10.2706    3.3945   -0.1317 C   0  0  0  0  0  0  0  0  0  0  0  0
   11.4389    3.9530   -0.5853 N   0  0  0  0  0  0  0  0  0  0  0  0
   11.8547    3.4925   -1.7770 N   0  0  0  0  0  0  0  0  0  0  0  0
   10.9186    2.5993   -2.0996 C   0  0  0  0  0  0  0  0  0  0  0  0
    9.9050    2.4932   -1.1221 C   0  0  0  0  0  0  0  0  0  0  0  0
    8.7375    1.7270   -0.9621 C   0  0  0  0  0  0  0  0  0  0  0  0
    6.1282    0.6459    1.5958 C   0  0  0  0  0  0  0  0  0  0  0  0
    6.4913    0.8524    2.8809 N   0  0  0  0  0  0  0  0  0  0  0  0
    5.6746    0.3135    3.7846 C   0  0  0  0  0  0  0  0  0  0  0  0
    5.9862    0.5192    5.1156 N   0  0  0  0  0  0  0  0  0  0  0  0
    4.5935   -0.4368    3.5312 N   0  0  0  0  0  0  0  0  0  0  0  0
    4.2312   -0.6468    2.2491 C   0  0  0  0  0  0  0  0  0  0  0  0
    5.0066   -0.0966    1.2477 C   0  0  0  0  0  0  0  0  0  0  0  0
    1.9289    1.3365   -2.5552 H   0  0  0  0  0  0  0  0  0  0  0  0
    3.4712    0.7127   -3.0510 H   0  0  0  0  0  0  0  0  0  0  0  0
    4.4258   -1.1112   -1.8663 H   0  0  0  0  0  0  0  0  0  0  0  0
    3.6520   -1.7264   -0.4029 H   0  0  0  0  0  0  0  0  0  0  0  0
    6.0699    0.7452   -1.7221 H   0  0  0  0  0  0  0  0  0  0  0  0
    7.7454    2.9339    2.0670 H   0  0  0  0  0  0  0  0  0  0  0  0
    8.0959    5.2473    2.9564 H   0  0  0  0  0  0  0  0  0  0  0  0
    8.4796    6.9550    5.2233 H   0  0  0  0  0  0  0  0  0  0  0  0
   10.1684    7.9791    6.7143 H   0  0  0  0  0  0  0  0  0  0  0  0
   12.5842    7.6173    6.3123 H   0  0  0  0  0  0  0  0  0  0  0  0
   13.3366    6.2229    4.4020 H   0  0  0  0  0  0  0  0  0  0  0  0
   12.0114    4.6336   -0.0984 H   0  0  0  0  0  0  0  0  0  0  0  0
   11.0125    2.0586   -3.0321 H   0  0  0  0  0  0  0  0  0  0  0  0
    8.4744    1.0032   -1.7244 H   0  0  0  0  0  0  0  0  0  0  0  0
    6.9754    0.6986    5.2123 H   0  0  0  0  0  0  0  0  0  0  0  0
    5.5879   -0.2238    5.6718 H   0  0  0  0  0  0  0  0  0  0  0  0
    3.3383   -1.2339    2.0763 H   0  0  0  0  0  0  0  0  0  0  0  0
  1  2  1  0  0  0  0
  1 33  1  0  0  0  0
  1 34  1  0  0  0  0
  2  3  2  0  0  0  0
  2  4  1  0  0  0  0
  4  5  1  0  0  0  0
  4 35  1  0  0  0  0
  4 36  1  0  0  0  0
  5  6  1  0  0  0  0
  5 32  1  0  0  0  0
  6  7  2  0  0  0  0
  6 37  1  0  0  0  0
  7  8  1  0  0  0  0
  7 26  1  0  0  0  0
  8  9  1  0  0  0  0
  8 25  2  0  0  0  0
  9 10  2  0  0  0  0
  9 38  1  0  0  0  0
 10 11  1  0  0  0  0
 10 20  1  0  0  0  0
 11 12  2  0  0  0  0
 11 19  1  0  0  0  0
 12 13  1  0  0  0  0
 12 39  1  0  0  0  0
 13 14  1  0  0  0  0
 13 18  2  0  0  0  0
 14 15  2  0  0  0  0
 14 40  1  0  0  0  0
 15 16  1  0  0  0  0
 15 41  1  0  0  0  0
 16 17  2  0  0  0  0
 16 42  1  0  0  0  0
 17 18  1  0  0  0  0
 17 43  1  0  0  0  0
 18 19  1  0  0  0  0
 20 21  1  0  0  0  0
 20 24  2  0  0  0  0
 21 22  1  0  0  0  0
 21 44  1  0  0  0  0
 22 23  2  0  0  0  0
 23 24  1  0  0  0  0
 23 45  1  0  0  0  0
 24 25  1  0  0  0  0
 25 46  1  0  0  0  0
 26 27  1  0  0  0  0
 26 32  2  0  0  0  0
 27 28  2  0  0  0  0
 28 29  1  0  0  0  0
 28 30  1  0  0  0  0
 29 47  1  0  0  0  0
 29 48  1  0  0  0  0
 30 31  2  0  0  0  0
 31 32  1  0  0  0  0
 31 49  1  0  0  0  0
M  END
$$$$
