CHEMBL1966343
 OpenBabel04072215363D

 35 37  0  0  0  0  0  0  0  0999 V2000
    2.8731    0.3208    1.1857 C   0  0  0  0  0  0  0  0  0  0  0  0
    2.4741   -0.2550   -0.1757 C   0  0  0  0  0  0  0  0  0  0  0  0
    0.9547   -0.4262   -0.2370 C   0  0  0  0  0  0  0  0  0  0  0  0
    2.9558    0.6376   -1.3339 C   0  0  0  0  0  0  0  0  0  0  0  0
    4.4377    0.8028   -1.3875 C   0  0  0  0  0  0  0  0  0  0  0  0
    5.1724    1.9994   -1.2471 C   0  0  0  0  0  0  0  0  0  0  0  0
    6.4892    1.6192   -1.3590 C   0  0  0  0  0  0  0  0  0  0  0  0
    7.7608    2.3332   -1.3486 C   0  0  0  0  0  0  0  0  0  0  0  0
    8.9836    1.6569   -1.4869 C   0  0  0  0  0  0  0  0  0  0  0  0
   10.2083    2.3373   -1.5431 C   0  0  0  0  0  0  0  0  0  0  0  0
   10.1632    3.7301   -1.4576 C   0  0  0  0  0  0  0  0  0  0  0  0
   11.1455    4.6826   -1.5081 N   0  0  0  0  0  0  0  0  0  0  0  0
   10.6993    5.9445   -1.3926 N   0  0  0  0  0  0  0  0  0  0  0  0
    9.3794    5.8046   -1.2813 C   0  0  0  0  0  0  0  0  0  0  0  0
    8.5431    6.8439   -1.1723 N   0  0  0  0  0  0  0  0  0  0  0  0
    8.9818    4.4429   -1.3046 C   0  0  0  0  0  0  0  0  0  0  0  0
    7.7650    3.7364   -1.2350 C   0  0  0  0  0  0  0  0  0  0  0  0
    6.5335    0.2685   -1.5493 O   0  0  0  0  0  0  0  0  0  0  0  0
    5.2470   -0.2450   -1.5760 N   0  0  0  0  0  0  0  0  0  0  0  0
    2.5101   -0.3181    1.9972 H   0  0  0  0  0  0  0  0  0  0  0  0
    2.4555    1.3229    1.3285 H   0  0  0  0  0  0  0  0  0  0  0  0
    3.9610    0.3877    1.2881 H   0  0  0  0  0  0  0  0  0  0  0  0
    2.9292   -1.2494   -0.2722 H   0  0  0  0  0  0  0  0  0  0  0  0
    0.4434    0.5426   -0.2151 H   0  0  0  0  0  0  0  0  0  0  0  0
    0.5947   -1.0165    0.6126 H   0  0  0  0  0  0  0  0  0  0  0  0
    0.6578   -0.9460   -1.1538 H   0  0  0  0  0  0  0  0  0  0  0  0
    2.4906    1.6288   -1.2454 H   0  0  0  0  0  0  0  0  0  0  0  0
    2.6153    0.2243   -2.2916 H   0  0  0  0  0  0  0  0  0  0  0  0
    4.7885    2.9957   -1.0937 H   0  0  0  0  0  0  0  0  0  0  0  0
    8.9997    0.5701   -1.5681 H   0  0  0  0  0  0  0  0  0  0  0  0
   11.1412    1.7978   -1.6661 H   0  0  0  0  0  0  0  0  0  0  0  0
   12.1408    4.5360   -1.6261 H   0  0  0  0  0  0  0  0  0  0  0  0
    8.9540    7.7531   -0.9937 H   0  0  0  0  0  0  0  0  0  0  0  0
    7.5953    6.7328   -0.8418 H   0  0  0  0  0  0  0  0  0  0  0  0
    6.8427    4.2958   -1.1225 H   0  0  0  0  0  0  0  0  0  0  0  0
  1  2  1  0  0  0  0
  1 20  1  0  0  0  0
  1 21  1  0  0  0  0
  1 22  1  0  0  0  0
  2  3  1  0  0  0  0
  2  4  1  0  0  0  0
  2 23  1  0  0  0  0
  3 24  1  0  0  0  0
  3 25  1  0  0  0  0
  3 26  1  0  0  0  0
  4  5  1  0  0  0  0
  4 27  1  0  0  0  0
  4 28  1  0  0  0  0
  5  6  1  0  0  0  0
  5 19  2  0  0  0  0
  6  7  2  0  0  0  0
  6 29  1  0  0  0  0
  7  8  1  0  0  0  0
  7 18  1  0  0  0  0
  8  9  1  0  0  0  0
  8 17  2  0  0  0  0
  9 10  2  0  0  0  0
  9 30  1  0  0  0  0
 10 11  1  0  0  0  0
 10 31  1  0  0  0  0
 11 12  1  0  0  0  0
 11 16  2  0  0  0  0
 12 13  1  0  0  0  0
 12 32  1  0  0  0  0
 13 14  2  0  0  0  0
 14 15  1  0  0  0  0
 14 16  1  0  0  0  0
 15 33  1  0  0  0  0
 15 34  1  0  0  0  0
 16 17  1  0  0  0  0
 17 35  1  0  0  0  0
 18 19  1  0  0  0  0
M  END
$$$$
