CHEMBL3633293
 OpenBabel04072215373D

 43 46  0  0  0  0  0  0  0  0999 V2000
   -0.5074    2.2515    3.3539 N   0  0  0  0  0  0  0  0  0  0  0  0
   -0.8055    1.0796    2.7685 C   0  0  0  0  0  0  0  0  0  0  0  0
   -0.9945   -0.0058    3.5120 N   0  0  0  0  0  0  0  0  0  0  0  0
   -1.2382   -0.9654    2.6184 N   0  0  0  0  0  0  0  0  0  0  0  0
   -1.2299   -0.5437    1.3168 C   0  0  0  0  0  0  0  0  0  0  0  0
   -1.4331   -1.2706    0.1409 C   0  0  0  0  0  0  0  0  0  0  0  0
   -1.3813   -0.5643   -1.0549 C   0  0  0  0  0  0  0  0  0  0  0  0
   -1.1194    0.8040   -1.0574 C   0  0  0  0  0  0  0  0  0  0  0  0
   -0.8774    1.5447    0.1318 C   0  0  0  0  0  0  0  0  0  0  0  0
   -0.5139    2.9763    0.0359 C   0  0  0  0  0  0  0  0  0  0  0  0
    0.3854    3.3966   -0.9663 C   0  0  0  0  0  0  0  0  0  0  0  0
    0.7558    4.7303   -1.1067 C   0  0  0  0  0  0  0  0  0  0  0  0
    0.2412    5.6799   -0.2352 C   0  0  0  0  0  0  0  0  0  0  0  0
   -0.6880    5.3154    0.7428 C   0  0  0  0  0  0  0  0  0  0  0  0
   -1.2590    6.2696    1.6136 N   0  0  0  0  0  0  0  0  0  0  0  0
   -1.4307    7.6009    1.2600 C   0  0  0  0  0  0  0  0  0  0  0  0
   -1.2222    8.0538    0.1423 O   0  0  0  0  0  0  0  0  0  0  0  0
   -1.8514    8.3777    2.3306 N   0  0  0  0  0  0  0  0  0  0  0  0
   -2.1048    9.7630    2.1254 C   0  0  0  0  0  0  0  0  0  0  0  0
   -2.8688   10.1896    1.0291 C   0  0  0  0  0  0  0  0  0  0  0  0
   -3.0376   11.5486    0.7625 C   0  0  0  0  0  0  0  0  0  0  0  0
   -2.4483   12.4969    1.5942 C   0  0  0  0  0  0  0  0  0  0  0  0
   -1.7135   12.0870    2.7090 C   0  0  0  0  0  0  0  0  0  0  0  0
   -1.5596   10.7247    2.9866 C   0  0  0  0  0  0  0  0  0  0  0  0
   -0.6017   10.2604    4.3481 Cl  0  0  0  0  0  0  0  0  0  0  0  0
   -1.0595    3.9702    0.8709 C   0  0  0  0  0  0  0  0  0  0  0  0
   -0.9475    0.8277    1.3629 C   0  0  0  0  0  0  0  0  0  0  0  0
   -0.2688    2.1767    4.3378 H   0  0  0  0  0  0  0  0  0  0  0  0
    0.0938    2.9005    2.8594 H   0  0  0  0  0  0  0  0  0  0  0  0
   -1.4045   -1.9057    2.9558 H   0  0  0  0  0  0  0  0  0  0  0  0
   -1.6375   -2.3350    0.1515 H   0  0  0  0  0  0  0  0  0  0  0  0
   -1.5387   -1.0826   -1.9988 H   0  0  0  0  0  0  0  0  0  0  0  0
   -1.0970    1.3115   -2.0224 H   0  0  0  0  0  0  0  0  0  0  0  0
    0.8141    2.6770   -1.6613 H   0  0  0  0  0  0  0  0  0  0  0  0
    1.4424    5.0311   -1.8935 H   0  0  0  0  0  0  0  0  0  0  0  0
    0.5814    6.7069   -0.3444 H   0  0  0  0  0  0  0  0  0  0  0  0
   -1.8628    5.9333    2.3528 H   0  0  0  0  0  0  0  0  0  0  0  0
   -1.4096    8.1477    3.2135 H   0  0  0  0  0  0  0  0  0  0  0  0
   -3.3185    9.4625    0.3545 H   0  0  0  0  0  0  0  0  0  0  0  0
   -3.6094   11.8598   -0.1088 H   0  0  0  0  0  0  0  0  0  0  0  0
   -2.5534   13.5550    1.3671 H   0  0  0  0  0  0  0  0  0  0  0  0
   -1.2431   12.8346    3.3418 H   0  0  0  0  0  0  0  0  0  0  0  0
   -1.8073    3.6920    1.6104 H   0  0  0  0  0  0  0  0  0  0  0  0
  1  2  1  0  0  0  0
  1 28  1  0  0  0  0
  1 29  1  0  0  0  0
  2  3  2  0  0  0  0
  2 27  1  0  0  0  0
  3  4  1  0  0  0  0
  4  5  1  0  0  0  0
  4 30  1  0  0  0  0
  5  6  1  0  0  0  0
  5 27  2  0  0  0  0
  6  7  2  0  0  0  0
  6 31  1  0  0  0  0
  7  8  1  0  0  0  0
  7 32  1  0  0  0  0
  8  9  2  0  0  0  0
  8 33  1  0  0  0  0
  9 10  1  0  0  0  0
  9 27  1  0  0  0  0
 10 11  1  0  0  0  0
 10 26  2  0  0  0  0
 11 12  2  0  0  0  0
 11 34  1  0  0  0  0
 12 13  1  0  0  0  0
 12 35  1  0  0  0  0
 13 14  2  0  0  0  0
 13 36  1  0  0  0  0
 14 15  1  0  0  0  0
 14 26  1  0  0  0  0
 15 16  1  0  0  0  0
 15 37  1  0  0  0  0
 16 17  2  0  0  0  0
 16 18  1  0  0  0  0
 18 19  1  0  0  0  0
 18 38  1  0  0  0  0
 19 20  1  0  0  0  0
 19 24  2  0  0  0  0
 20 21  2  0  0  0  0
 20 39  1  0  0  0  0
 21 22  1  0  0  0  0
 21 40  1  0  0  0  0
 22 23  2  0  0  0  0
 22 41  1  0  0  0  0
 23 24  1  0  0  0  0
 23 42  1  0  0  0  0
 24 25  1  0  0  0  0
 26 43  1  0  0  0  0
M  END
$$$$
