CHEMBL3676338
 OpenBabel04072215373D

 58 60  0  0  0  0  0  0  0  0999 V2000
    2.1835    2.2043    0.0923 C   0  0  0  0  0  0  0  0  0  0  0  0
    2.7743    1.0050    0.1532 C   0  0  0  0  0  0  0  0  0  0  0  0
    3.4425    0.5375    1.3966 C   0  0  0  0  0  0  0  0  0  0  0  0
    3.2051    1.0278    2.4919 O   0  0  0  0  0  0  0  0  0  0  0  0
    4.3648   -0.4618    1.1243 N   0  0  0  0  0  0  0  0  0  0  0  0
    5.1476   -0.9703    2.1819 C   0  0  0  0  0  0  0  0  0  0  0  0
    6.3124   -0.2786    2.5191 C   0  0  0  0  0  0  0  0  0  0  0  0
    7.0690   -0.6581    3.6525 C   0  0  0  0  0  0  0  0  0  0  0  0
    8.1840    0.0381    4.1420 C   0  0  0  0  0  0  0  0  0  0  0  0
    8.6004    1.2461    3.5220 N   0  0  0  0  0  0  0  0  0  0  0  0
    9.3908    2.2261    4.1729 C   0  0  0  0  0  0  0  0  0  0  0  0
    9.1187    2.5943    5.5005 C   0  0  0  0  0  0  0  0  0  0  0  0
    9.9404    3.4960    6.1787 C   0  0  0  0  0  0  0  0  0  0  0  0
   11.0319    4.0634    5.5299 C   0  0  0  0  0  0  0  0  0  0  0  0
   11.2813    3.7523    4.1913 C   0  0  0  0  0  0  0  0  0  0  0  0
   12.6328    4.4697    3.4014 Cl  0  0  0  0  0  0  0  0  0  0  0  0
   10.4572    2.8501    3.5152 C   0  0  0  0  0  0  0  0  0  0  0  0
   10.6938    2.5443    2.2283 F   0  0  0  0  0  0  0  0  0  0  0  0
    8.8612   -0.3754    5.2316 N   0  0  0  0  0  0  0  0  0  0  0  0
    8.4079   -1.4662    5.8504 C   0  0  0  0  0  0  0  0  0  0  0  0
    7.3379   -2.1805    5.4936 N   0  0  0  0  0  0  0  0  0  0  0  0
    6.6723   -1.7690    4.4112 C   0  0  0  0  0  0  0  0  0  0  0  0
    5.5318   -2.4669    4.0297 C   0  0  0  0  0  0  0  0  0  0  0  0
    4.7714   -2.1036    2.9135 C   0  0  0  0  0  0  0  0  0  0  0  0
    3.7098   -2.9417    2.6567 O   0  0  0  0  0  0  0  0  0  0  0  0
    3.3908   -3.1252    1.2728 C   0  0  0  0  0  0  0  0  0  0  0  0
    2.8322   -4.5305    1.0236 C   0  0  0  0  0  0  0  0  0  0  0  0
    2.5839   -4.7690   -0.3960 N   0  0  0  0  0  0  0  0  0  0  0  0
    3.6260   -5.0549   -1.2594 C   0  0  0  0  0  0  0  0  0  0  0  0
    4.7737   -5.2654   -0.8802 O   0  0  0  0  0  0  0  0  0  0  0  0
    3.2404   -5.0516   -2.7432 C   0  0  0  0  0  0  0  0  0  0  0  0
    2.8350   -3.6938   -3.1902 N   0  0  0  0  0  0  0  0  0  0  0  0
    3.9600   -2.7544   -3.0867 C   0  0  0  0  0  0  0  0  0  0  0  0
    2.4025   -3.7565   -4.5930 C   0  0  0  0  0  0  0  0  0  0  0  0
    1.6591    2.5197   -0.8033 H   0  0  0  0  0  0  0  0  0  0  0  0
    2.2004    2.8917    0.9344 H   0  0  0  0  0  0  0  0  0  0  0  0
    2.7351    0.3202   -0.6851 H   0  0  0  0  0  0  0  0  0  0  0  0
    4.8613   -0.2968    0.2595 H   0  0  0  0  0  0  0  0  0  0  0  0
    6.5962    0.6023    1.9487 H   0  0  0  0  0  0  0  0  0  0  0  0
    8.9106    1.0729    2.5688 H   0  0  0  0  0  0  0  0  0  0  0  0
    8.2698    2.1555    6.0224 H   0  0  0  0  0  0  0  0  0  0  0  0
    9.7270    3.7380    7.2178 H   0  0  0  0  0  0  0  0  0  0  0  0
   11.6851    4.7422    6.0721 H   0  0  0  0  0  0  0  0  0  0  0  0
    8.9543   -1.7929    6.7276 H   0  0  0  0  0  0  0  0  0  0  0  0
    5.2246   -3.3237    4.6265 H   0  0  0  0  0  0  0  0  0  0  0  0
    4.2749   -2.9942    0.6387 H   0  0  0  0  0  0  0  0  0  0  0  0
    2.6271   -2.3950    0.9901 H   0  0  0  0  0  0  0  0  0  0  0  0
    1.8863   -4.6723    1.5567 H   0  0  0  0  0  0  0  0  0  0  0  0
    3.5328   -5.2853    1.3961 H   0  0  0  0  0  0  0  0  0  0  0  0
    1.7386   -4.3949   -0.8135 H   0  0  0  0  0  0  0  0  0  0  0  0
    2.4070   -5.7545   -2.8663 H   0  0  0  0  0  0  0  0  0  0  0  0
    4.0879   -5.4336   -3.3256 H   0  0  0  0  0  0  0  0  0  0  0  0
    4.2977   -2.6474   -2.0509 H   0  0  0  0  0  0  0  0  0  0  0  0
    3.6473   -1.7538   -3.4073 H   0  0  0  0  0  0  0  0  0  0  0  0
    4.8157   -3.0594   -3.7002 H   0  0  0  0  0  0  0  0  0  0  0  0
    1.5638   -4.4505   -4.7133 H   0  0  0  0  0  0  0  0  0  0  0  0
    3.2107   -4.0750   -5.2636 H   0  0  0  0  0  0  0  0  0  0  0  0
    2.0491   -2.7744   -4.9289 H   0  0  0  0  0  0  0  0  0  0  0  0
  1  2  2  0  0  0  0
  1 35  1  0  0  0  0
  1 36  1  0  0  0  0
  2  3  1  0  0  0  0
  2 37  1  0  0  0  0
  3  4  2  0  0  0  0
  3  5  1  0  0  0  0
  5  6  1  0  0  0  0
  5 38  1  0  0  0  0
  6  7  1  0  0  0  0
  6 24  2  0  0  0  0
  7  8  2  0  0  0  0
  7 39  1  0  0  0  0
  8  9  1  0  0  0  0
  8 22  1  0  0  0  0
  9 10  1  0  0  0  0
  9 19  2  0  0  0  0
 10 11  1  0  0  0  0
 10 40  1  0  0  0  0
 11 12  1  0  0  0  0
 11 17  2  0  0  0  0
 12 13  2  0  0  0  0
 12 41  1  0  0  0  0
 13 14  1  0  0  0  0
 13 42  1  0  0  0  0
 14 15  2  0  0  0  0
 14 43  1  0  0  0  0
 15 16  1  0  0  0  0
 15 17  1  0  0  0  0
 17 18  1  0  0  0  0
 19 20  1  0  0  0  0
 20 21  2  0  0  0  0
 20 44  1  0  0  0  0
 21 22  1  0  0  0  0
 22 23  2  0  0  0  0
 23 24  1  0  0  0  0
 23 45  1  0  0  0  0
 24 25  1  0  0  0  0
 25 26  1  0  0  0  0
 26 27  1  0  0  0  0
 26 46  1  0  0  0  0
 26 47  1  0  0  0  0
 27 28  1  0  0  0  0
 27 48  1  0  0  0  0
 27 49  1  0  0  0  0
 28 29  1  0  0  0  0
 28 50  1  0  0  0  0
 29 30  2  0  0  0  0
 29 31  1  0  0  0  0
 31 32  1  0  0  0  0
 31 51  1  0  0  0  0
 31 52  1  0  0  0  0
 32 33  1  0  0  0  0
 32 34  1  0  0  0  0
 33 53  1  0  0  0  0
 33 54  1  0  0  0  0
 33 55  1  0  0  0  0
 34 56  1  0  0  0  0
 34 57  1  0  0  0  0
 34 58  1  0  0  0  0
M  END
$$$$
