CHEMBL44577
 OpenBabel04072215383D

 69 74  0  0  1  0  0  0  0  0999 V2000
   -3.2074    2.6668    8.2349 C   0  0  0  0  0  0  0  0  0  0  0  0
   -2.0659    2.8697    7.3439 N   0  0  0  0  0  0  0  0  0  0  0  0
   -0.8836    2.1615    7.8633 C   0  0  0  0  0  0  0  0  0  0  0  0
    0.3249    2.2048    6.9008 C   0  0  0  0  0  0  0  0  0  0  0  0
    0.0330    1.7350    5.5403 N   0  0  0  0  0  0  0  0  0  0  0  0
    0.3685    0.3315    5.2622 C   0  0  1  0  0  0  0  0  0  0  0  0
   -0.2501   -0.7651    6.1491 C   0  0  0  0  0  0  0  0  0  0  0  0
   -1.6390   -1.2282    5.7220 C   0  0  0  0  0  0  0  0  0  0  0  0
   -1.7374   -1.6118    4.2377 C   0  0  2  0  0  0  0  0  0  0  0  0
   -1.2408   -2.9649    4.0032 N   0  0  0  0  0  0  0  0  0  0  0  0
    0.0526   -3.2519    4.2299 N   0  0  0  0  0  0  0  0  0  0  0  0
    0.1280   -4.5886    4.1494 C   0  0  0  0  0  0  0  0  0  0  0  0
    1.3992   -5.2547    4.4294 C   0  0  0  0  0  0  0  0  0  0  0  0
    2.2782   -4.7049    5.3746 C   0  0  0  0  0  0  0  0  0  0  0  0
    3.4537   -5.3709    5.7237 C   0  0  0  0  0  0  0  0  0  0  0  0
    3.7258   -6.6268    5.1806 C   0  0  0  0  0  0  0  0  0  0  0  0
    4.7997   -7.4121    5.5285 O   0  0  0  0  0  0  0  0  0  0  0  0
    5.2848   -7.3776    6.8163 C   0  0  0  0  0  0  0  0  0  0  0  0
    4.5040   -7.1654    7.9566 C   0  0  0  0  0  0  0  0  0  0  0  0
    5.1088   -7.0874    9.2117 C   0  0  0  0  0  0  0  0  0  0  0  0
    6.4824   -7.2888    9.3363 C   0  0  0  0  0  0  0  0  0  0  0  0
    7.2501   -7.5810    8.2095 C   0  0  0  0  0  0  0  0  0  0  0  0
    6.6511   -7.6256    6.9507 C   0  0  0  0  0  0  0  0  0  0  0  0
    2.9043   -7.1353    4.1774 C   0  0  0  0  0  0  0  0  0  0  0  0
    1.7613   -6.4391    3.7824 C   0  0  0  0  0  0  0  0  0  0  0  0
   -1.1498   -5.1563    3.8398 C   0  0  0  0  0  0  0  0  0  0  0  0
   -1.7435   -6.4168    3.6952 C   0  0  0  0  0  0  0  0  0  0  0  0
   -1.1112   -7.6327    3.9257 N   0  0  0  0  0  0  0  0  0  0  0  0
   -3.0440   -6.4872    3.3465 N   0  0  0  0  0  0  0  0  0  0  0  0
   -3.7331   -5.3434    3.1899 C   0  0  0  0  0  0  0  0  0  0  0  0
   -3.2977   -4.0872    3.3743 N   0  0  0  0  0  0  0  0  0  0  0  0
   -1.9917   -4.0653    3.6956 C   0  0  0  0  0  0  0  0  0  0  0  0
   -1.0901   -0.5779    3.3108 C   0  0  0  0  0  0  0  0  0  0  0  0
    0.2797   -0.0791    3.7769 C   0  0  0  0  0  0  0  0  0  0  0  0
   -1.1642    2.3947    5.0260 C   0  0  0  0  0  0  0  0  0  0  0  0
   -2.3876    2.4314    5.9732 C   0  0  0  0  0  0  0  0  0  0  0  0
   -2.9790    3.0376    9.2397 H   0  0  0  0  0  0  0  0  0  0  0  0
   -3.4853    1.6086    8.3174 H   0  0  0  0  0  0  0  0  0  0  0  0
   -4.0803    3.2242    7.8787 H   0  0  0  0  0  0  0  0  0  0  0  0
   -1.1426    1.1238    8.0919 H   0  0  0  0  0  0  0  0  0  0  0  0
   -0.5757    2.6229    8.8093 H   0  0  0  0  0  0  0  0  0  0  0  0
    1.1730    1.6634    7.3363 H   0  0  0  0  0  0  0  0  0  0  0  0
    0.6598    3.2487    6.8237 H   0  0  0  0  0  0  0  0  0  0  0  0
    1.4466    0.2873    5.4809 H   0  0  0  0  0  0  0  0  0  0  0  0
   -0.2578   -0.4798    7.2029 H   0  0  0  0  0  0  0  0  0  0  0  0
    0.4261   -1.6290    6.1335 H   0  0  0  0  0  0  0  0  0  0  0  0
   -2.3600   -0.4390    5.9267 H   0  0  0  0  0  0  0  0  0  0  0  0
   -1.9452   -2.0718    6.3539 H   0  0  0  0  0  0  0  0  0  0  0  0
   -2.8048   -1.6478    3.9830 H   0  0  0  0  0  0  0  0  0  0  0  0
    2.0454   -3.7584    5.8591 H   0  0  0  0  0  0  0  0  0  0  0  0
    4.1256   -4.9100    6.4418 H   0  0  0  0  0  0  0  0  0  0  0  0
    3.4280   -7.0356    7.8846 H   0  0  0  0  0  0  0  0  0  0  0  0
    4.5077   -6.8667   10.0899 H   0  0  0  0  0  0  0  0  0  0  0  0
    6.9534   -7.2269   10.3137 H   0  0  0  0  0  0  0  0  0  0  0  0
    8.3162   -7.7662    8.3089 H   0  0  0  0  0  0  0  0  0  0  0  0
    7.2508   -7.8444    6.0711 H   0  0  0  0  0  0  0  0  0  0  0  0
    3.1450   -8.0846    3.7039 H   0  0  0  0  0  0  0  0  0  0  0  0
    1.1533   -6.8466    2.9780 H   0  0  0  0  0  0  0  0  0  0  0  0
   -0.4141   -7.6086    4.6598 H   0  0  0  0  0  0  0  0  0  0  0  0
   -1.7983   -8.3737    4.0094 H   0  0  0  0  0  0  0  0  0  0  0  0
   -4.7692   -5.4508    2.8845 H   0  0  0  0  0  0  0  0  0  0  0  0
   -1.7791    0.2647    3.2198 H   0  0  0  0  0  0  0  0  0  0  0  0
   -0.9951   -0.9835    2.2957 H   0  0  0  0  0  0  0  0  0  0  0  0
    0.6189    0.7397    3.1317 H   0  0  0  0  0  0  0  0  0  0  0  0
    1.0095   -0.8843    3.6107 H   0  0  0  0  0  0  0  0  0  0  0  0
   -1.4602    2.0352    4.0429 H   0  0  0  0  0  0  0  0  0  0  0  0
   -0.8829    3.4413    4.8390 H   0  0  0  0  0  0  0  0  0  0  0  0
   -2.8691    1.4528    5.9877 H   0  0  0  0  0  0  0  0  0  0  0  0
   -3.1224    3.1261    5.5484 H   0  0  0  0  0  0  0  0  0  0  0  0
  1  2  1  0  0  0  0
  1 37  1  0  0  0  0
  1 38  1  0  0  0  0
  1 39  1  0  0  0  0
  2  3  1  0  0  0  0
  2 36  1  0  0  0  0
  3  4  1  0  0  0  0
  3 40  1  0  0  0  0
  3 41  1  0  0  0  0
  4  5  1  0  0  0  0
  4 42  1  0  0  0  0
  4 43  1  0  0  0  0
  5 35  1  0  0  0  0
  6  7  1  0  0  0  0
  6 34  1  0  0  0  0
  6  5  1  0  0  0  0
  6 44  1  1  0  0  0
  7  8  1  0  0  0  0
  7 45  1  0  0  0  0
  7 46  1  0  0  0  0
  8  9  1  0  0  0  0
  8 47  1  0  0  0  0
  8 48  1  0  0  0  0
  9 33  1  0  0  0  0
  9 10  1  0  0  0  0
  9 49  1  6  0  0  0
 10 11  1  0  0  0  0
 10 32  1  0  0  0  0
 11 12  2  0  0  0  0
 12 13  1  0  0  0  0
 12 26  1  0  0  0  0
 13 14  1  0  0  0  0
 13 25  2  0  0  0  0
 14 15  2  0  0  0  0
 14 50  1  0  0  0  0
 15 16  1  0  0  0  0
 15 51  1  0  0  0  0
 16 17  1  0  0  0  0
 16 24  2  0  0  0  0
 17 18  1  0  0  0  0
 18 19  1  0  0  0  0
 18 23  2  0  0  0  0
 19 20  2  0  0  0  0
 19 52  1  0  0  0  0
 20 21  1  0  0  0  0
 20 53  1  0  0  0  0
 21 22  2  0  0  0  0
 21 54  1  0  0  0  0
 22 23  1  0  0  0  0
 22 55  1  0  0  0  0
 23 56  1  0  0  0  0
 24 25  1  0  0  0  0
 24 57  1  0  0  0  0
 25 58  1  0  0  0  0
 26 27  1  0  0  0  0
 26 32  2  0  0  0  0
 27 28  1  0  0  0  0
 27 29  2  0  0  0  0
 28 59  1  0  0  0  0
 28 60  1  0  0  0  0
 29 30  1  0  0  0  0
 30 31  2  0  0  0  0
 30 61  1  0  0  0  0
 31 32  1  0  0  0  0
 33 34  1  0  0  0  0
 33 62  1  0  0  0  0
 33 63  1  0  0  0  0
 34 64  1  0  0  0  0
 34 65  1  0  0  0  0
 35 36  1  0  0  0  0
 35 66  1  0  0  0  0
 35 67  1  0  0  0  0
 36 68  1  0  0  0  0
 36 69  1  0  0  0  0
M  END
$$$$
