CHEMBL600398
 OpenBabel04072215383D

 60 63  0  0  1  0  0  0  0  0999 V2000
    5.5505   11.5941   -0.3839 C   0  0  0  0  0  0  0  0  0  0  0  0
    6.5251   10.5730   -0.1492 O   0  0  0  0  0  0  0  0  0  0  0  0
    6.0410    9.3765    0.3130 C   0  0  0  0  0  0  0  0  0  0  0  0
    4.7542    8.9351   -0.0320 C   0  0  0  0  0  0  0  0  0  0  0  0
    4.1949    7.7762    0.4821 C   0  0  0  0  0  0  0  0  0  0  0  0
    2.9284    7.4910    0.1585 N   0  0  0  0  0  0  0  0  0  0  0  0
    2.4060    6.3896    0.6979 C   0  0  0  0  0  0  0  0  0  0  0  0
    3.0187    5.5559    1.5351 N   0  0  0  0  0  0  0  0  0  0  0  0
    4.2796    5.8981    1.8843 C   0  0  0  0  0  0  0  0  0  0  0  0
    4.8785    5.1701    2.9204 O   0  0  0  0  0  0  0  0  0  0  0  0
    3.9992    4.6670    3.8612 C   0  0  0  0  0  0  0  0  0  0  0  0
    2.9763    5.4524    4.3927 C   0  0  0  0  0  0  0  0  0  0  0  0
    1.9853    4.8731    5.1829 C   0  0  0  0  0  0  0  0  0  0  0  0
    2.0283    3.5182    5.5227 C   0  0  0  0  0  0  0  0  0  0  0  0
    1.0117    2.8850    6.2817 N   0  0  0  0  0  0  0  0  0  0  0  0
   -0.0510    3.5298    6.8951 C   0  0  0  0  0  0  0  0  0  0  0  0
   -0.2873    4.7297    6.8491 O   0  0  0  0  0  0  0  0  0  0  0  0
   -0.9836    2.6173    7.6650 C   0  0  0  0  0  0  0  0  0  0  0  0
   -1.9732    3.4833    8.4763 C   0  0  3  0  0  0  0  0  0  0  0  0
   -3.0292    2.6141    9.0957 N   0  0  0  0  0  0  0  0  0  0  0  0
   -4.2677    2.4805    8.4453 C   0  0  0  0  0  0  0  0  0  0  0  0
   -4.4023    2.3890    7.0557 C   0  0  0  0  0  0  0  0  0  0  0  0
   -5.6455    2.1489    6.4591 C   0  0  0  0  0  0  0  0  0  0  0  0
   -6.7810    1.9899    7.2460 C   0  0  0  0  0  0  0  0  0  0  0  0
   -6.6687    2.0545    8.6302 C   0  0  0  0  0  0  0  0  0  0  0  0
   -5.4203    2.2786    9.2213 C   0  0  0  0  0  0  0  0  0  0  0  0
   -1.2030    4.3088    9.5601 C   0  0  0  0  0  0  0  0  0  0  0  0
    0.1141    4.0091    9.6238 F   0  0  0  0  0  0  0  0  0  0  0  0
   -1.3271    5.6403    9.3698 F   0  0  0  0  0  0  0  0  0  0  0  0
   -1.7153    4.0486   10.7953 F   0  0  0  0  0  0  0  0  0  0  0  0
    3.1205    2.7586    5.0828 C   0  0  0  0  0  0  0  0  0  0  0  0
    4.1012    3.3394    4.2653 C   0  0  0  0  0  0  0  0  0  0  0  0
    5.1314    2.5851    3.8533 F   0  0  0  0  0  0  0  0  0  0  0  0
    4.9620    6.9933    1.3488 C   0  0  0  0  0  0  0  0  0  0  0  0
    6.2951    7.3713    1.6304 C   0  0  0  0  0  0  0  0  0  0  0  0
    6.8416    8.5595    1.1223 C   0  0  0  0  0  0  0  0  0  0  0  0
    8.1292    8.7444    1.5407 O   0  0  0  0  0  0  0  0  0  0  0  0
    8.7943    9.9709    1.2863 C   0  0  0  0  0  0  0  0  0  0  0  0
    6.0100   12.5621   -0.1637 H   0  0  0  0  0  0  0  0  0  0  0  0
    4.6671   11.5090    0.2611 H   0  0  0  0  0  0  0  0  0  0  0  0
    5.2542   11.5860   -1.4378 H   0  0  0  0  0  0  0  0  0  0  0  0
    4.1330    9.5133   -0.7139 H   0  0  0  0  0  0  0  0  0  0  0  0
    1.3632    6.1751    0.4689 H   0  0  0  0  0  0  0  0  0  0  0  0
    2.8863    6.5043    4.1346 H   0  0  0  0  0  0  0  0  0  0  0  0
    1.1658    5.5213    5.4720 H   0  0  0  0  0  0  0  0  0  0  0  0
    1.0901    1.8826    6.4027 H   0  0  0  0  0  0  0  0  0  0  0  0
   -0.4070    1.9615    8.3247 H   0  0  0  0  0  0  0  0  0  0  0  0
   -1.5052    1.9820    6.9428 H   0  0  0  0  0  0  0  0  0  0  0  0
   -2.4671    4.2173    7.8252 H   0  0  0  0  0  0  0  0  0  0  0  0
   -3.1805    2.8974   10.0702 H   0  0  0  0  0  0  0  0  0  0  0  0
   -3.5463    2.4878    6.3990 H   0  0  0  0  0  0  0  0  0  0  0  0
   -5.7196    2.0752    5.3772 H   0  0  0  0  0  0  0  0  0  0  0  0
   -7.7458    1.8036    6.7821 H   0  0  0  0  0  0  0  0  0  0  0  0
   -7.5485    1.9193    9.2538 H   0  0  0  0  0  0  0  0  0  0  0  0
   -5.3618    2.3014   10.3070 H   0  0  0  0  0  0  0  0  0  0  0  0
    3.2301    1.7123    5.3489 H   0  0  0  0  0  0  0  0  0  0  0  0
    6.9138    6.7370    2.2629 H   0  0  0  0  0  0  0  0  0  0  0  0
    9.6417   10.0236    1.9788 H   0  0  0  0  0  0  0  0  0  0  0  0
    8.1733   10.8446    1.4964 H   0  0  0  0  0  0  0  0  0  0  0  0
    9.1971    9.9879    0.2689 H   0  0  0  0  0  0  0  0  0  0  0  0
  1  2  1  0  0  0  0
  1 39  1  0  0  0  0
  1 40  1  0  0  0  0
  1 41  1  0  0  0  0
  2  3  1  0  0  0  0
  3  4  1  0  0  0  0
  3 36  2  0  0  0  0
  4  5  2  0  0  0  0
  4 42  1  0  0  0  0
  5  6  1  0  0  0  0
  5 34  1  0  0  0  0
  6  7  2  0  0  0  0
  7  8  1  0  0  0  0
  7 43  1  0  0  0  0
  8  9  2  0  0  0  0
  9 10  1  0  0  0  0
  9 34  1  0  0  0  0
 10 11  1  0  0  0  0
 11 12  1  0  0  0  0
 11 32  2  0  0  0  0
 12 13  2  0  0  0  0
 12 44  1  0  0  0  0
 13 14  1  0  0  0  0
 13 45  1  0  0  0  0
 14 15  1  0  0  0  0
 14 31  2  0  0  0  0
 15 16  1  0  0  0  0
 15 46  1  0  0  0  0
 16 17  2  0  0  0  0
 16 18  1  0  0  0  0
 18 19  1  0  0  0  0
 18 47  1  0  0  0  0
 18 48  1  0  0  0  0
 19 20  1  0  0  0  0
 19 27  1  0  0  0  0
 19 49  1  0  0  0  0
 20 21  1  0  0  0  0
 20 50  1  0  0  0  0
 21 22  1  0  0  0  0
 21 26  2  0  0  0  0
 22 23  2  0  0  0  0
 22 51  1  0  0  0  0
 23 24  1  0  0  0  0
 23 52  1  0  0  0  0
 24 25  2  0  0  0  0
 24 53  1  0  0  0  0
 25 26  1  0  0  0  0
 25 54  1  0  0  0  0
 26 55  1  0  0  0  0
 27 28  1  0  0  0  0
 27 29  1  0  0  0  0
 27 30  1  0  0  0  0
 31 32  1  0  0  0  0
 31 56  1  0  0  0  0
 32 33  1  0  0  0  0
 34 35  2  0  0  0  0
 35 36  1  0  0  0  0
 35 57  1  0  0  0  0
 36 37  1  0  0  0  0
 37 38  1  0  0  0  0
 38 58  1  0  0  0  0
 38 59  1  0  0  0  0
 38 60  1  0  0  0  0
M  END
$$$$
