CHEMBL3753854
 OpenBabel04072215373D

 57 61  0  0  0  0  0  0  0  0999 V2000
    4.4355    0.0770    1.9003 O   0  0  0  0  0  0  0  0  0  0  0  0
    3.2904   -0.3677    1.8280 C   0  0  0  0  0  0  0  0  0  0  0  0
    2.8738   -1.1891    0.5981 C   0  0  0  0  0  0  0  0  0  0  0  0
    1.7850   -2.1464    0.8911 N   0  0  0  0  0  0  0  0  0  0  0  0
    2.2280   -3.2454    1.7970 C   0  0  0  0  0  0  0  0  0  0  0  0
    3.0501   -4.3977    1.1556 C   0  0  0  0  0  0  0  0  0  0  0  0
    2.3380   -4.8915   -0.0165 N   0  0  0  0  0  0  0  0  0  0  0  0
    1.9130   -6.1794   -0.2673 C   0  0  0  0  0  0  0  0  0  0  0  0
    1.9567   -6.5781   -1.5581 N   0  0  0  0  0  0  0  0  0  0  0  0
    1.5050   -7.8124   -1.9657 N   0  0  0  0  0  0  0  0  0  0  0  0
    1.0326   -8.7056   -1.0728 C   0  0  0  0  0  0  0  0  0  0  0  0
    0.4422   -9.9218   -1.7006 C   0  0  0  0  0  0  0  0  0  0  0  0
    0.9708  -10.4548   -2.8928 C   0  0  0  0  0  0  0  0  0  0  0  0
    0.4125  -11.5856   -3.5038 C   0  0  0  0  0  0  0  0  0  0  0  0
   -0.6784  -12.2276   -2.9260 C   0  0  0  0  0  0  0  0  0  0  0  0
   -1.2391  -11.7132   -1.7649 C   0  0  0  0  0  0  0  0  0  0  0  0
   -0.7083  -10.5553   -1.1884 C   0  0  0  0  0  0  0  0  0  0  0  0
    1.0386   -8.3998    0.3075 C   0  0  0  0  0  0  0  0  0  0  0  0
    0.6639   -9.3305    1.3176 C   0  0  0  0  0  0  0  0  0  0  0  0
    0.5005   -8.9717    2.6522 C   0  0  0  0  0  0  0  0  0  0  0  0
    0.7433   -7.6699    3.0279 C   0  0  0  0  0  0  0  0  0  0  0  0
    1.1931   -6.7579    2.0748 C   0  0  0  0  0  0  0  0  0  0  0  0
    1.4138   -7.0871    0.7081 C   0  0  0  0  0  0  0  0  0  0  0  0
    2.1111   -3.8566   -1.0299 C   0  0  0  0  0  0  0  0  0  0  0  0
    1.2601   -2.7294   -0.3815 C   0  0  0  0  0  0  0  0  0  0  0  0
    2.2842   -0.1792    2.7586 N   0  0  0  0  0  0  0  0  0  0  0  0
    2.3636    0.5502    3.9706 C   0  0  0  0  0  0  0  0  0  0  0  0
    3.3997    1.4458    4.2402 C   0  0  0  0  0  0  0  0  0  0  0  0
    3.4531    2.1479    5.4533 C   0  0  0  0  0  0  0  0  0  0  0  0
    2.4635    1.9570    6.4154 C   0  0  0  0  0  0  0  0  0  0  0  0
    1.4148    1.0756    6.1600 C   0  0  0  0  0  0  0  0  0  0  0  0
    1.3608    0.3827    4.9447 C   0  0  0  0  0  0  0  0  0  0  0  0
    0.0448   -0.7150    4.6972 Cl  0  0  0  0  0  0  0  0  0  0  0  0
    3.7612   -1.6960    0.1989 H   0  0  0  0  0  0  0  0  0  0  0  0
    2.5323   -0.4528   -0.1391 H   0  0  0  0  0  0  0  0  0  0  0  0
    1.3059   -3.6591    2.2214 H   0  0  0  0  0  0  0  0  0  0  0  0
    2.7838   -2.8516    2.6542 H   0  0  0  0  0  0  0  0  0  0  0  0
    3.2786   -5.1759    1.8894 H   0  0  0  0  0  0  0  0  0  0  0  0
    4.0282   -4.0102    0.8429 H   0  0  0  0  0  0  0  0  0  0  0  0
    1.8242   -9.9760   -3.3724 H   0  0  0  0  0  0  0  0  0  0  0  0
    0.8304  -11.9603   -4.4348 H   0  0  0  0  0  0  0  0  0  0  0  0
   -1.1036  -13.1134   -3.3898 H   0  0  0  0  0  0  0  0  0  0  0  0
   -2.0999  -12.1973   -1.3107 H   0  0  0  0  0  0  0  0  0  0  0  0
   -1.2292  -10.1468   -0.3253 H   0  0  0  0  0  0  0  0  0  0  0  0
    0.4840  -10.3746    1.0717 H   0  0  0  0  0  0  0  0  0  0  0  0
    0.1635   -9.7027    3.3814 H   0  0  0  0  0  0  0  0  0  0  0  0
    0.5943   -7.3537    4.0567 H   0  0  0  0  0  0  0  0  0  0  0  0
    1.3362   -5.7487    2.4305 H   0  0  0  0  0  0  0  0  0  0  0  0
    1.5856   -4.2222   -1.9195 H   0  0  0  0  0  0  0  0  0  0  0  0
    3.0754   -3.4582   -1.3711 H   0  0  0  0  0  0  0  0  0  0  0  0
    0.2691   -3.1471   -0.1596 H   0  0  0  0  0  0  0  0  0  0  0  0
    1.0872   -1.9367   -1.1200 H   0  0  0  0  0  0  0  0  0  0  0  0
    1.4482   -0.7380    2.6050 H   0  0  0  0  0  0  0  0  0  0  0  0
    4.1848    1.6437    3.5163 H   0  0  0  0  0  0  0  0  0  0  0  0
    4.2686    2.8390    5.6389 H   0  0  0  0  0  0  0  0  0  0  0  0
    2.5120    2.4962    7.3580 H   0  0  0  0  0  0  0  0  0  0  0  0
    0.6480    0.9285    6.9164 H   0  0  0  0  0  0  0  0  0  0  0  0
  1  2  2  0  0  0  0
  2  3  1  0  0  0  0
  2 26  1  0  0  0  0
  3  4  1  0  0  0  0
  3 34  1  0  0  0  0
  3 35  1  0  0  0  0
  4  5  1  0  0  0  0
  4 25  1  0  0  0  0
  5  6  1  0  0  0  0
  5 36  1  0  0  0  0
  5 37  1  0  0  0  0
  6  7  1  0  0  0  0
  6 38  1  0  0  0  0
  6 39  1  0  0  0  0
  7  8  1  0  0  0  0
  7 24  1  0  0  0  0
  8  9  1  0  0  0  0
  8 23  2  0  0  0  0
  9 10  2  0  0  0  0
 10 11  1  0  0  0  0
 11 12  1  0  0  0  0
 11 18  2  0  0  0  0
 12 13  1  0  0  0  0
 12 17  2  0  0  0  0
 13 14  2  0  0  0  0
 13 40  1  0  0  0  0
 14 15  1  0  0  0  0
 14 41  1  0  0  0  0
 15 16  2  0  0  0  0
 15 42  1  0  0  0  0
 16 17  1  0  0  0  0
 16 43  1  0  0  0  0
 17 44  1  0  0  0  0
 18 19  1  0  0  0  0
 18 23  1  0  0  0  0
 19 20  2  0  0  0  0
 19 45  1  0  0  0  0
 20 21  1  0  0  0  0
 20 46  1  0  0  0  0
 21 22  2  0  0  0  0
 21 47  1  0  0  0  0
 22 23  1  0  0  0  0
 22 48  1  0  0  0  0
 24 25  1  0  0  0  0
 24 49  1  0  0  0  0
 24 50  1  0  0  0  0
 25 51  1  0  0  0  0
 25 52  1  0  0  0  0
 26 27  1  0  0  0  0
 26 53  1  0  0  0  0
 27 28  1  0  0  0  0
 27 32  2  0  0  0  0
 28 29  2  0  0  0  0
 28 54  1  0  0  0  0
 29 30  1  0  0  0  0
 29 55  1  0  0  0  0
 30 31  2  0  0  0  0
 30 56  1  0  0  0  0
 31 32  1  0  0  0  0
 31 57  1  0  0  0  0
 32 33  1  0  0  0  0
M  END
$$$$
