CHEMBL26641
 OpenBabel04072215363D

 54 57  0  0  0  0  0  0  0  0999 V2000
    2.2950    1.2519   -0.1237 C   0  0  0  0  0  0  0  0  0  0  0  0
    2.2717   -0.1017    0.3446 O   0  0  0  0  0  0  0  0  0  0  0  0
    3.1203   -0.4138    1.3734 C   0  0  0  0  0  0  0  0  0  0  0  0
    4.3451    0.2422    1.5383 C   0  0  0  0  0  0  0  0  0  0  0  0
    5.1230    0.0609    2.6995 C   0  0  0  0  0  0  0  0  0  0  0  0
    6.2027    0.8728    3.0889 C   0  0  0  0  0  0  0  0  0  0  0  0
    6.4708    2.0589    2.3528 N   0  0  0  0  0  0  0  0  0  0  0  0
    7.2749    3.1594    2.7231 C   0  0  0  0  0  0  0  0  0  0  0  0
    7.5510    3.4896    4.0543 C   0  0  0  0  0  0  0  0  0  0  0  0
    8.3951    4.5573    4.3705 C   0  0  0  0  0  0  0  0  0  0  0  0
    8.9286    5.3424    3.3522 C   0  0  0  0  0  0  0  0  0  0  0  0
   10.1269    6.7378    3.7813 Br  0  0  0  0  0  0  0  0  0  0  0  0
    8.5884    5.1011    2.0260 C   0  0  0  0  0  0  0  0  0  0  0  0
    7.7590    4.0235    1.7283 C   0  0  0  0  0  0  0  0  0  0  0  0
    7.4341    3.7920    0.4455 F   0  0  0  0  0  0  0  0  0  0  0  0
    6.8969    0.6279    4.2127 N   0  0  0  0  0  0  0  0  0  0  0  0
    6.5022   -0.4045    4.9608 C   0  0  0  0  0  0  0  0  0  0  0  0
    5.4734   -1.2147    4.6993 N   0  0  0  0  0  0  0  0  0  0  0  0
    4.7817   -0.9545    3.5900 C   0  0  0  0  0  0  0  0  0  0  0  0
    3.6404   -1.7029    3.3452 C   0  0  0  0  0  0  0  0  0  0  0  0
    2.7550   -1.4110    2.2866 C   0  0  0  0  0  0  0  0  0  0  0  0
    1.5272   -2.0473    2.1527 O   0  0  0  0  0  0  0  0  0  0  0  0
    1.1051   -2.7311    3.3460 C   0  0  0  0  0  0  0  0  0  0  0  0
   -0.3760   -3.1215    3.3660 C   0  0  0  0  0  0  0  0  0  0  0  0
   -0.7816   -3.7796    4.7184 C   0  0  0  0  0  0  0  0  0  0  0  0
   -2.2612   -4.2049    4.7279 C   0  0  0  0  0  0  0  0  0  0  0  0
   -3.2108   -3.0378    5.0053 C   0  0  0  0  0  0  0  0  0  0  0  0
   -2.8871   -2.3740    6.2685 N   0  0  0  0  0  0  0  0  0  0  0  0
   -1.5276   -1.8365    6.2328 C   0  0  0  0  0  0  0  0  0  0  0  0
   -0.4971   -2.9362    5.9822 C   0  0  0  0  0  0  0  0  0  0  0  0
    2.5016    1.2509   -1.1978 H   0  0  0  0  0  0  0  0  0  0  0  0
    3.0162    1.9186    0.3622 H   0  0  0  0  0  0  0  0  0  0  0  0
    1.3108    1.6948    0.0469 H   0  0  0  0  0  0  0  0  0  0  0  0
    4.6963    0.9350    0.7822 H   0  0  0  0  0  0  0  0  0  0  0  0
    6.5288    1.8814    1.3546 H   0  0  0  0  0  0  0  0  0  0  0  0
    7.1272    2.9113    4.8701 H   0  0  0  0  0  0  0  0  0  0  0  0
    8.6307    4.7537    5.4132 H   0  0  0  0  0  0  0  0  0  0  0  0
    8.9653    5.7232    1.2217 H   0  0  0  0  0  0  0  0  0  0  0  0
    7.0517   -0.5847    5.8783 H   0  0  0  0  0  0  0  0  0  0  0  0
    3.4465   -2.5005    4.0503 H   0  0  0  0  0  0  0  0  0  0  0  0
    1.2736   -2.0575    4.1887 H   0  0  0  0  0  0  0  0  0  0  0  0
    1.6994   -3.6464    3.4587 H   0  0  0  0  0  0  0  0  0  0  0  0
   -0.5549   -3.8402    2.5541 H   0  0  0  0  0  0  0  0  0  0  0  0
   -0.9984   -2.2511    3.1367 H   0  0  0  0  0  0  0  0  0  0  0  0
   -0.1803   -4.6950    4.8045 H   0  0  0  0  0  0  0  0  0  0  0  0
   -2.4010   -4.9592    5.5148 H   0  0  0  0  0  0  0  0  0  0  0  0
   -2.5321   -4.6900    3.7831 H   0  0  0  0  0  0  0  0  0  0  0  0
   -4.2384   -3.4144    5.0629 H   0  0  0  0  0  0  0  0  0  0  0  0
   -3.1915   -2.3144    4.1815 H   0  0  0  0  0  0  0  0  0  0  0  0
   -2.9629   -3.0502    7.0274 H   0  0  0  0  0  0  0  0  0  0  0  0
   -1.3179   -1.3609    7.1977 H   0  0  0  0  0  0  0  0  0  0  0  0
   -1.4529   -1.0479    5.4744 H   0  0  0  0  0  0  0  0  0  0  0  0
   -0.4980   -3.6120    6.8490 H   0  0  0  0  0  0  0  0  0  0  0  0
    0.5031   -2.4971    5.9734 H   0  0  0  0  0  0  0  0  0  0  0  0
  1  2  1  0  0  0  0
  1 31  1  0  0  0  0
  1 32  1  0  0  0  0
  1 33  1  0  0  0  0
  2  3  1  0  0  0  0
  3  4  1  0  0  0  0
  3 21  2  0  0  0  0
  4  5  2  0  0  0  0
  4 34  1  0  0  0  0
  5  6  1  0  0  0  0
  5 19  1  0  0  0  0
  6  7  1  0  0  0  0
  6 16  2  0  0  0  0
  7  8  1  0  0  0  0
  7 35  1  0  0  0  0
  8  9  1  0  0  0  0
  8 14  2  0  0  0  0
  9 10  2  0  0  0  0
  9 36  1  0  0  0  0
 10 11  1  0  0  0  0
 10 37  1  0  0  0  0
 11 12  1  0  0  0  0
 11 13  2  0  0  0  0
 13 14  1  0  0  0  0
 13 38  1  0  0  0  0
 14 15  1  0  0  0  0
 16 17  1  0  0  0  0
 17 18  2  0  0  0  0
 17 39  1  0  0  0  0
 18 19  1  0  0  0  0
 19 20  2  0  0  0  0
 20 21  1  0  0  0  0
 20 40  1  0  0  0  0
 21 22  1  0  0  0  0
 22 23  1  0  0  0  0
 23 24  1  0  0  0  0
 23 41  1  0  0  0  0
 23 42  1  0  0  0  0
 24 25  1  0  0  0  0
 24 43  1  0  0  0  0
 24 44  1  0  0  0  0
 25 26  1  0  0  0  0
 25 30  1  0  0  0  0
 25 45  1  0  0  0  0
 26 27  1  0  0  0  0
 26 46  1  0  0  0  0
 26 47  1  0  0  0  0
 27 28  1  0  0  0  0
 27 48  1  0  0  0  0
 27 49  1  0  0  0  0
 28 29  1  0  0  0  0
 28 50  1  0  0  0  0
 29 30  1  0  0  0  0
 29 51  1  0  0  0  0
 29 52  1  0  0  0  0
 30 53  1  0  0  0  0
 30 54  1  0  0  0  0
M  END
$$$$
