CHEMBL4163581
 OpenBabel04072215383D

 43 46  0  0  0  0  0  0  0  0999 V2000
    2.7323    0.6387   -1.2218 O   0  0  0  0  0  0  0  0  0  0  0  0
    2.3176    0.4514   -0.0693 C   0  0  0  0  0  0  0  0  0  0  0  0
    0.9736    0.3959    0.2652 N   0  0  0  0  0  0  0  0  0  0  0  0
   -0.1122    0.5708   -0.6317 C   0  0  0  0  0  0  0  0  0  0  0  0
    0.0209    0.5632   -2.0214 C   0  0  0  0  0  0  0  0  0  0  0  0
   -1.0753    0.8089   -2.8520 C   0  0  0  0  0  0  0  0  0  0  0  0
   -2.3241    1.0580   -2.2874 C   0  0  0  0  0  0  0  0  0  0  0  0
   -2.4711    1.0330   -0.9141 C   0  0  0  0  0  0  0  0  0  0  0  0
   -4.0160    1.3468   -0.2143 Cl  0  0  0  0  0  0  0  0  0  0  0  0
   -1.3774    0.7816   -0.0753 C   0  0  0  0  0  0  0  0  0  0  0  0
    3.1406    0.3226    1.0318 N   0  0  0  0  0  0  0  0  0  0  0  0
    4.5520    0.4486    1.0549 C   0  0  0  0  0  0  0  0  0  0  0  0
    5.3323    0.7368   -0.0680 C   0  0  0  0  0  0  0  0  0  0  0  0
    6.7140    0.8711    0.0512 C   0  0  0  0  0  0  0  0  0  0  0  0
    7.3425    0.7366    1.2922 C   0  0  0  0  0  0  0  0  0  0  0  0
    6.5936    0.4957    2.4496 C   0  0  0  0  0  0  0  0  0  0  0  0
    7.2102    0.5086    3.8038 C   0  0  0  0  0  0  0  0  0  0  0  0
    6.5972   -0.1817    4.8734 C   0  0  0  0  0  0  0  0  0  0  0  0
    6.9691    0.0491    6.1896 C   0  0  0  0  0  0  0  0  0  0  0  0
    8.0589    0.8688    6.4249 C   0  0  0  0  0  0  0  0  0  0  0  0
    8.5204    1.1755    7.7704 C   0  0  0  0  0  0  0  0  0  0  0  0
    7.7418    1.5429    8.6400 O   0  0  0  0  0  0  0  0  0  0  0  0
    9.8800    1.1610    7.8879 N   0  0  0  0  0  0  0  0  0  0  0  0
   10.6224    1.6166    6.8333 C   0  0  0  0  0  0  0  0  0  0  0  0
   10.1536    1.8541    5.6515 N   0  0  0  0  0  0  0  0  0  0  0  0
    8.8481    1.3718    5.3969 C   0  0  0  0  0  0  0  0  0  0  0  0
    8.3757    1.2511    4.0917 C   0  0  0  0  0  0  0  0  0  0  0  0
    5.1983    0.3322    2.2966 C   0  0  0  0  0  0  0  0  0  0  0  0
    0.7547    0.4121    1.2463 H   0  0  0  0  0  0  0  0  0  0  0  0
    0.9720    0.3654   -2.5085 H   0  0  0  0  0  0  0  0  0  0  0  0
   -0.9445    0.8108   -3.9318 H   0  0  0  0  0  0  0  0  0  0  0  0
   -3.1736    1.2673   -2.9391 H   0  0  0  0  0  0  0  0  0  0  0  0
   -1.5221    0.7817    1.0006 H   0  0  0  0  0  0  0  0  0  0  0  0
    2.6952    0.1068    1.9188 H   0  0  0  0  0  0  0  0  0  0  0  0
    4.8992    0.8701   -1.0469 H   0  0  0  0  0  0  0  0  0  0  0  0
    7.3022    1.0976   -0.8364 H   0  0  0  0  0  0  0  0  0  0  0  0
    8.4197    0.8668    1.3280 H   0  0  0  0  0  0  0  0  0  0  0  0
    5.7894   -0.8894    4.6902 H   0  0  0  0  0  0  0  0  0  0  0  0
    6.4477   -0.4288    7.0173 H   0  0  0  0  0  0  0  0  0  0  0  0
   10.2253    0.2893    8.2693 H   0  0  0  0  0  0  0  0  0  0  0  0
   11.6861    1.7508    7.0746 H   0  0  0  0  0  0  0  0  0  0  0  0
    8.9351    1.7543    3.3095 H   0  0  0  0  0  0  0  0  0  0  0  0
    4.5822    0.1563    3.1764 H   0  0  0  0  0  0  0  0  0  0  0  0
  1  2  2  0  0  0  0
  2  3  1  0  0  0  0
  2 11  1  0  0  0  0
  3  4  1  0  0  0  0
  3 29  1  0  0  0  0
  4  5  1  0  0  0  0
  4 10  2  0  0  0  0
  5  6  2  0  0  0  0
  5 30  1  0  0  0  0
  6  7  1  0  0  0  0
  6 31  1  0  0  0  0
  7  8  2  0  0  0  0
  7 32  1  0  0  0  0
  8  9  1  0  0  0  0
  8 10  1  0  0  0  0
 10 33  1  0  0  0  0
 11 12  1  0  0  0  0
 11 34  1  0  0  0  0
 12 13  1  0  0  0  0
 12 28  2  0  0  0  0
 13 14  2  0  0  0  0
 13 35  1  0  0  0  0
 14 15  1  0  0  0  0
 14 36  1  0  0  0  0
 15 16  2  0  0  0  0
 15 37  1  0  0  0  0
 16 17  1  0  0  0  0
 16 28  1  0  0  0  0
 17 18  1  0  0  0  0
 17 27  2  0  0  0  0
 18 19  2  0  0  0  0
 18 38  1  0  0  0  0
 19 20  1  0  0  0  0
 19 39  1  0  0  0  0
 20 21  1  0  0  0  0
 20 26  2  0  0  0  0
 21 22  2  0  0  0  0
 21 23  1  0  0  0  0
 23 24  1  0  0  0  0
 23 40  1  0  0  0  0
 24 25  2  0  0  0  0
 24 41  1  0  0  0  0
 25 26  1  0  0  0  0
 26 27  1  0  0  0  0
 27 42  1  0  0  0  0
 28 43  1  0  0  0  0
M  END
$$$$
