CHEMBL503074
 OpenBabel04072215383D

 41 44  0  0  0  0  0  0  0  0999 V2000
    5.0146    2.8789    1.9998 C   0  0  0  0  0  0  0  0  0  0  0  0
    6.0864    2.0882    1.2960 C   0  0  0  0  0  0  0  0  0  0  0  0
    6.6249    1.1354    1.8499 O   0  0  0  0  0  0  0  0  0  0  0  0
    6.3513    2.5779    0.0413 N   0  0  0  0  0  0  0  0  0  0  0  0
    7.2754    2.0458   -0.8443 C   0  0  0  0  0  0  0  0  0  0  0  0
    7.5658    2.8349   -1.8884 N   0  0  0  0  0  0  0  0  0  0  0  0
    8.5113    2.3817   -2.7328 C   0  0  0  0  0  0  0  0  0  0  0  0
    9.1406    1.1682   -2.5906 C   0  0  0  0  0  0  0  0  0  0  0  0
    8.7352    0.4094   -1.5164 C   0  0  0  0  0  0  0  0  0  0  0  0
    9.3071   -0.9233   -1.2768 C   0  0  0  0  0  0  0  0  0  0  0  0
    8.9350   -1.7060   -0.2505 C   0  0  0  0  0  0  0  0  0  0  0  0
    9.5352   -2.9728   -0.0703 C   0  0  0  0  0  0  0  0  0  0  0  0
    9.3028   -4.2794   -0.5077 C   0  0  0  0  0  0  0  0  0  0  0  0
    8.2178   -4.7424   -1.3634 C   0  0  0  0  0  0  0  0  0  0  0  0
    8.4316   -5.8475   -2.1993 C   0  0  0  0  0  0  0  0  0  0  0  0
    7.4017   -6.3434   -3.0032 C   0  0  0  0  0  0  0  0  0  0  0  0
    6.1432   -5.7483   -2.9728 C   0  0  0  0  0  0  0  0  0  0  0  0
    5.9168   -4.6514   -2.1445 C   0  0  0  0  0  0  0  0  0  0  0  0
    6.9477   -4.1505   -1.3445 C   0  0  0  0  0  0  0  0  0  0  0  0
   10.2717   -5.1563   -0.0259 N   0  0  0  0  0  0  0  0  0  0  0  0
   11.0189   -4.3968    0.7212 C   0  0  0  0  0  0  0  0  0  0  0  0
   12.4198   -4.6600    1.7140 S   0  0  0  0  0  0  0  0  0  0  0  0
   12.4158   -2.9343    2.1161 C   0  0  0  0  0  0  0  0  0  0  0  0
   11.4166   -2.2608    1.5217 C   0  0  0  0  0  0  0  0  0  0  0  0
   10.6344   -3.0891    0.7404 N   0  0  0  0  0  0  0  0  0  0  0  0
    7.8154    0.8440   -0.6374 N   0  0  0  0  0  0  0  0  0  0  0  0
    4.9614    2.5678    3.0474 H   0  0  0  0  0  0  0  0  0  0  0  0
    4.0487    2.6914    1.5237 H   0  0  0  0  0  0  0  0  0  0  0  0
    5.2460    3.9473    1.9688 H   0  0  0  0  0  0  0  0  0  0  0  0
    5.9620    3.4550   -0.2649 H   0  0  0  0  0  0  0  0  0  0  0  0
    8.7612    3.0498   -3.5523 H   0  0  0  0  0  0  0  0  0  0  0  0
    9.9006    0.8412   -3.2867 H   0  0  0  0  0  0  0  0  0  0  0  0
   10.0623   -1.2602   -1.9810 H   0  0  0  0  0  0  0  0  0  0  0  0
    8.1761   -1.3868    0.4631 H   0  0  0  0  0  0  0  0  0  0  0  0
    9.4044   -6.3358   -2.2204 H   0  0  0  0  0  0  0  0  0  0  0  0
    7.5808   -7.2076   -3.6389 H   0  0  0  0  0  0  0  0  0  0  0  0
    5.3375   -6.1440   -3.5853 H   0  0  0  0  0  0  0  0  0  0  0  0
    4.9335   -4.1894   -2.1082 H   0  0  0  0  0  0  0  0  0  0  0  0
    6.7302   -3.3154   -0.6854 H   0  0  0  0  0  0  0  0  0  0  0  0
   13.1572   -2.5057    2.7776 H   0  0  0  0  0  0  0  0  0  0  0  0
   11.1953   -1.2075    1.6028 H   0  0  0  0  0  0  0  0  0  0  0  0
  1  2  1  0  0  0  0
  1 27  1  0  0  0  0
  1 28  1  0  0  0  0
  1 29  1  0  0  0  0
  2  3  2  0  0  0  0
  2  4  1  0  0  0  0
  4  5  1  0  0  0  0
  4 30  1  0  0  0  0
  5  6  1  0  0  0  0
  5 26  2  0  0  0  0
  6  7  2  0  0  0  0
  7  8  1  0  0  0  0
  7 31  1  0  0  0  0
  8  9  2  0  0  0  0
  8 32  1  0  0  0  0
  9 10  1  0  0  0  0
  9 26  1  0  0  0  0
 10 11  2  0  0  0  0
 10 33  1  0  0  0  0
 11 12  1  0  0  0  0
 11 34  1  0  0  0  0
 12 13  2  0  0  0  0
 12 25  1  0  0  0  0
 13 14  1  0  0  0  0
 13 20  1  0  0  0  0
 14 15  1  0  0  0  0
 14 19  2  0  0  0  0
 15 16  2  0  0  0  0
 15 35  1  0  0  0  0
 16 17  1  0  0  0  0
 16 36  1  0  0  0  0
 17 18  2  0  0  0  0
 17 37  1  0  0  0  0
 18 19  1  0  0  0  0
 18 38  1  0  0  0  0
 19 39  1  0  0  0  0
 20 21  2  0  0  0  0
 21 22  1  0  0  0  0
 21 25  1  0  0  0  0
 22 23  1  0  0  0  0
 23 24  2  0  0  0  0
 23 40  1  0  0  0  0
 24 25  1  0  0  0  0
 24 41  1  0  0  0  0
M  END
$$$$
