CHEMBL1271836
 OpenBabel04072215363D

 34 36  0  0  0  0  0  0  0  0999 V2000
   -3.0527   -1.7825   -0.3971 C   0  0  0  0  0  0  0  0  0  0  0  0
   -2.2143   -0.5867   -0.0479 C   0  0  0  0  0  0  0  0  0  0  0  0
   -0.9095   -0.7586    0.4378 C   0  0  0  0  0  0  0  0  0  0  0  0
   -0.1250    0.3501    0.7468 C   0  0  0  0  0  0  0  0  0  0  0  0
    1.6371    0.1105    1.3874 Br  0  0  0  0  0  0  0  0  0  0  0  0
   -0.6266    1.6348    0.5762 C   0  0  0  0  0  0  0  0  0  0  0  0
   -1.9308    1.8227    0.0936 C   0  0  0  0  0  0  0  0  0  0  0  0
   -2.3638    3.2236   -0.1406 C   0  0  0  0  0  0  0  0  0  0  0  0
   -1.4919    4.0294   -0.4572 O   0  0  0  0  0  0  0  0  0  0  0  0
   -3.6960    3.5333    0.0857 N   0  0  0  0  0  0  0  0  0  0  0  0
   -4.2288    4.8429   -0.0375 C   0  0  0  0  0  0  0  0  0  0  0  0
   -3.6065    5.8771   -0.7290 C   0  0  0  0  0  0  0  0  0  0  0  0
   -4.0738    7.1485   -0.8112 N   0  0  0  0  0  0  0  0  0  0  0  0
   -5.2039    7.4424   -0.1574 C   0  0  0  0  0  0  0  0  0  0  0  0
   -5.6641    8.7517   -0.1757 C   0  0  0  0  0  0  0  0  0  0  0  0
   -6.8184    9.1299    0.5112 C   0  0  0  0  0  0  0  0  0  0  0  0
   -7.5387    8.1779    1.2253 C   0  0  0  0  0  0  0  0  0  0  0  0
   -7.1033    6.8520    1.2446 C   0  0  0  0  0  0  0  0  0  0  0  0
   -5.9336    6.4720    0.5601 C   0  0  0  0  0  0  0  0  0  0  0  0
   -5.4404    5.1503    0.5855 C   0  0  0  0  0  0  0  0  0  0  0  0
   -2.7247    0.7128   -0.2198 C   0  0  0  0  0  0  0  0  0  0  0  0
   -2.5065   -2.7178   -0.2308 H   0  0  0  0  0  0  0  0  0  0  0  0
   -3.3415   -1.7484   -1.4520 H   0  0  0  0  0  0  0  0  0  0  0  0
   -3.9513   -1.8047    0.2267 H   0  0  0  0  0  0  0  0  0  0  0  0
   -0.4997   -1.7588    0.5642 H   0  0  0  0  0  0  0  0  0  0  0  0
   -0.0039    2.4992    0.8024 H   0  0  0  0  0  0  0  0  0  0  0  0
   -4.2764    2.8388    0.5379 H   0  0  0  0  0  0  0  0  0  0  0  0
   -2.6833    5.7338   -1.2809 H   0  0  0  0  0  0  0  0  0  0  0  0
   -5.0973    9.4984   -0.7277 H   0  0  0  0  0  0  0  0  0  0  0  0
   -7.1443   10.1669    0.4907 H   0  0  0  0  0  0  0  0  0  0  0  0
   -8.4298    8.4703    1.7719 H   0  0  0  0  0  0  0  0  0  0  0  0
   -7.6723    6.1199    1.8131 H   0  0  0  0  0  0  0  0  0  0  0  0
   -5.9840    4.3891    1.1358 H   0  0  0  0  0  0  0  0  0  0  0  0
   -3.7186    0.8443   -0.6401 H   0  0  0  0  0  0  0  0  0  0  0  0
  1  2  1  0  0  0  0
  1 22  1  0  0  0  0
  1 23  1  0  0  0  0
  1 24  1  0  0  0  0
  2  3  1  0  0  0  0
  2 21  2  0  0  0  0
  3  4  2  0  0  0  0
  3 25  1  0  0  0  0
  4  5  1  0  0  0  0
  4  6  1  0  0  0  0
  6  7  2  0  0  0  0
  6 26  1  0  0  0  0
  7  8  1  0  0  0  0
  7 21  1  0  0  0  0
  8  9  2  0  0  0  0
  8 10  1  0  0  0  0
 10 11  1  0  0  0  0
 10 27  1  0  0  0  0
 11 12  1  0  0  0  0
 11 20  2  0  0  0  0
 12 13  2  0  0  0  0
 12 28  1  0  0  0  0
 13 14  1  0  0  0  0
 14 15  1  0  0  0  0
 14 19  2  0  0  0  0
 15 16  2  0  0  0  0
 15 29  1  0  0  0  0
 16 17  1  0  0  0  0
 16 30  1  0  0  0  0
 17 18  2  0  0  0  0
 17 31  1  0  0  0  0
 18 19  1  0  0  0  0
 18 32  1  0  0  0  0
 19 20  1  0  0  0  0
 20 33  1  0  0  0  0
 21 34  1  0  0  0  0
M  END
$$$$
