CHEMBL4245415
 OpenBabel04072215383D

 39 41  0  0  0  0  0  0  0  0999 V2000
    4.4511    4.8679    2.0924 C   0  0  0  0  0  0  0  0  0  0  0  0
    5.0296    3.7256    1.3439 C   0  0  0  0  0  0  0  0  0  0  0  0
    6.3665    3.3774    1.3906 C   0  0  0  0  0  0  0  0  0  0  0  0
    6.6120    2.2814    0.6452 O   0  0  0  0  0  0  0  0  0  0  0  0
    5.4343    1.8964    0.0927 C   0  0  0  0  0  0  0  0  0  0  0  0
    5.3631    0.8088   -0.6835 N   0  0  0  0  0  0  0  0  0  0  0  0
    4.1230    0.5910   -1.1003 C   0  0  0  0  0  0  0  0  0  0  0  0
    3.0350    1.3258   -0.8324 N   0  0  0  0  0  0  0  0  0  0  0  0
    3.1171    2.4452   -0.0447 C   0  0  0  0  0  0  0  0  0  0  0  0
    1.9195    3.1451    0.2467 N   0  0  0  0  0  0  0  0  0  0  0  0
    0.6991    2.3616   -0.0169 C   0  0  0  0  0  0  0  0  0  0  0  0
    1.6824    4.5392    0.1229 C   0  0  0  0  0  0  0  0  0  0  0  0
    2.5099    5.3855   -0.6183 C   0  0  0  0  0  0  0  0  0  0  0  0
    2.2611    6.7679   -0.6959 C   0  0  0  0  0  0  0  0  0  0  0  0
    1.1547    7.3733   -0.0810 C   0  0  0  0  0  0  0  0  0  0  0  0
    0.9572    8.7500   -0.1142 N   0  0  0  0  0  0  0  0  0  0  0  0
    1.3096    9.5149   -1.3119 C   0  0  0  0  0  0  0  0  0  0  0  0
   -0.0375    9.4001    0.7390 C   0  0  0  0  0  0  0  0  0  0  0  0
    0.3134    6.5108    0.6292 C   0  0  0  0  0  0  0  0  0  0  0  0
    0.5779    5.1342    0.7424 C   0  0  0  0  0  0  0  0  0  0  0  0
    4.4034    2.7600    0.4687 C   0  0  0  0  0  0  0  0  0  0  0  0
    5.2127    5.3349    2.7290 H   0  0  0  0  0  0  0  0  0  0  0  0
    3.6307    4.5462    2.7381 H   0  0  0  0  0  0  0  0  0  0  0  0
    4.1048    5.6514    1.4188 H   0  0  0  0  0  0  0  0  0  0  0  0
    7.2236    3.7908    1.9034 H   0  0  0  0  0  0  0  0  0  0  0  0
    3.9685   -0.2844   -1.7236 H   0  0  0  0  0  0  0  0  0  0  0  0
    0.8575    1.2813   -0.0973 H   0  0  0  0  0  0  0  0  0  0  0  0
    0.2114    2.6877   -0.9468 H   0  0  0  0  0  0  0  0  0  0  0  0
   -0.0159    2.4674    0.8067 H   0  0  0  0  0  0  0  0  0  0  0  0
    3.3823    4.9929   -1.1354 H   0  0  0  0  0  0  0  0  0  0  0  0
    2.9956    7.3681   -1.2282 H   0  0  0  0  0  0  0  0  0  0  0  0
    1.9782    9.0029   -2.0070 H   0  0  0  0  0  0  0  0  0  0  0  0
    1.8034   10.4456   -1.0132 H   0  0  0  0  0  0  0  0  0  0  0  0
    0.4043    9.7749   -1.8734 H   0  0  0  0  0  0  0  0  0  0  0  0
   -0.2253    8.8673    1.6752 H   0  0  0  0  0  0  0  0  0  0  0  0
   -0.9862    9.5269    0.2043 H   0  0  0  0  0  0  0  0  0  0  0  0
    0.3268   10.3915    1.0286 H   0  0  0  0  0  0  0  0  0  0  0  0
   -0.5851    6.8737    1.1141 H   0  0  0  0  0  0  0  0  0  0  0  0
   -0.1040    4.5472    1.3514 H   0  0  0  0  0  0  0  0  0  0  0  0
  1  2  1  0  0  0  0
  1 22  1  0  0  0  0
  1 23  1  0  0  0  0
  1 24  1  0  0  0  0
  2  3  2  0  0  0  0
  2 21  1  0  0  0  0
  3  4  1  0  0  0  0
  3 25  1  0  0  0  0
  4  5  1  0  0  0  0
  5  6  1  0  0  0  0
  5 21  2  0  0  0  0
  6  7  2  0  0  0  0
  7  8  1  0  0  0  0
  7 26  1  0  0  0  0
  8  9  2  0  0  0  0
  9 10  1  0  0  0  0
  9 21  1  0  0  0  0
 10 11  1  0  0  0  0
 10 12  1  0  0  0  0
 11 27  1  0  0  0  0
 11 28  1  0  0  0  0
 11 29  1  0  0  0  0
 12 13  1  0  0  0  0
 12 20  2  0  0  0  0
 13 14  2  0  0  0  0
 13 30  1  0  0  0  0
 14 15  1  0  0  0  0
 14 31  1  0  0  0  0
 15 16  1  0  0  0  0
 15 19  2  0  0  0  0
 16 17  1  0  0  0  0
 16 18  1  0  0  0  0
 17 32  1  0  0  0  0
 17 33  1  0  0  0  0
 17 34  1  0  0  0  0
 18 35  1  0  0  0  0
 18 36  1  0  0  0  0
 18 37  1  0  0  0  0
 19 20  1  0  0  0  0
 19 38  1  0  0  0  0
 20 39  1  0  0  0  0
M  END
$$$$
