CHEMBL2022711
 OpenBabel04072215363D

 69 74  0  0  1  0  0  0  0  0999 V2000
    0.9371    0.1094    0.4085 C   0  0  0  0  0  0  0  0  0  0  0  0
    2.4374    0.1038    0.4220 C   0  0  0  0  0  0  0  0  0  0  0  0
    3.1185    1.2407    0.2194 C   0  0  0  0  0  0  0  0  0  0  0  0
    4.4961    1.1995    0.1861 N   0  0  0  0  0  0  0  0  0  0  0  0
    5.4525    2.1757    0.0471 C   0  0  0  0  0  0  0  0  0  0  0  0
    5.2550    3.6473   -0.0234 C   0  0  0  0  0  0  0  0  0  0  0  0
    4.0770    4.4145    0.1207 C   0  0  0  0  0  0  0  0  0  0  0  0
    4.2773    5.7179   -0.0829 N   0  0  0  0  0  0  0  0  0  0  0  0
    5.6091    5.7902   -0.3073 N   0  0  0  0  0  0  0  0  0  0  0  0
    6.1919    7.0820   -0.6066 C   0  0  0  0  0  0  0  0  0  0  0  0
    6.9946    7.0640   -1.8809 C   0  0  0  0  0  0  0  0  0  0  0  0
    8.0804    7.6433   -1.9295 O   0  0  0  0  0  0  0  0  0  0  0  0
    6.3910    6.4553   -2.9752 N   0  0  0  0  0  0  0  0  0  0  0  0
    7.0222    6.4741   -4.2398 C   0  0  0  0  0  0  0  0  0  0  0  0
    8.3768    6.1764   -4.3843 C   0  0  0  0  0  0  0  0  0  0  0  0
    8.9571    6.3539   -5.6292 C   0  0  0  0  0  0  0  0  0  0  0  0
    8.2838    6.7984   -6.7143 N   0  0  0  0  0  0  0  0  0  0  0  0
    6.9624    7.0484   -6.5489 C   0  0  0  0  0  0  0  0  0  0  0  0
    6.2917    6.8668   -5.3542 C   0  0  0  0  0  0  0  0  0  0  0  0
    4.9878    7.1603   -5.2481 F   0  0  0  0  0  0  0  0  0  0  0  0
    6.2409    4.5827   -0.2373 C   0  0  0  0  0  0  0  0  0  0  0  0
    6.6459    1.4752   -0.0135 C   0  0  0  0  0  0  0  0  0  0  0  0
    6.4516    0.1123    0.1388 N   0  0  0  0  0  0  0  0  0  0  0  0
    5.1492   -0.0039    0.2860 C   0  0  0  0  0  0  0  0  0  0  0  0
    4.3655   -1.2103    0.5749 C   0  0  0  0  0  0  0  0  0  0  0  0
    4.9602   -2.4382    0.7579 N   0  0  0  0  0  0  0  0  0  0  0  0
    4.5642   -3.4157    1.6249 C   0  0  0  0  0  0  0  0  0  0  0  0
    3.8089   -3.3167    2.7836 C   0  0  0  0  0  0  0  0  0  0  0  0
    3.7787   -4.5588    3.5103 C   0  0  0  0  0  0  0  0  0  0  0  0
    3.3087   -4.7553    4.9400 C   0  0  0  0  0  0  0  0  0  0  0  0
    1.8552   -4.9604    5.1190 N   0  0  0  0  0  0  0  0  0  0  0  0
    1.5330   -5.2032    6.5415 C   0  0  0  0  0  0  0  0  0  0  0  0
    1.9464   -6.5816    7.0805 C   0  0  0  0  0  0  0  0  0  0  0  0
    1.5129   -7.7341    6.1770 C   0  0  0  0  0  0  0  0  0  0  0  0
    1.7878   -7.4468    4.6966 C   0  0  3  0  0  0  0  0  0  0  0  0
    1.1325   -8.5098    3.8150 C   0  0  0  0  0  0  0  0  0  0  0  0
    1.2851   -6.0472    4.3097 C   0  0  0  0  0  0  0  0  0  0  0  0
    4.3629   -5.5873    2.8861 N   0  0  0  0  0  0  0  0  0  0  0  0
    5.0431   -5.0569    1.4739 S   0  0  0  0  0  0  0  0  0  0  0  0
    3.0528   -1.1091    0.6498 N   0  0  0  0  0  0  0  0  0  0  0  0
    0.5427    1.0915    0.6845 H   0  0  0  0  0  0  0  0  0  0  0  0
    0.5378   -0.6216    1.1166 H   0  0  0  0  0  0  0  0  0  0  0  0
    0.5750   -0.1367   -0.5961 H   0  0  0  0  0  0  0  0  0  0  0  0
    2.6143    2.1742    0.0422 H   0  0  0  0  0  0  0  0  0  0  0  0
    3.0738    4.1212    0.3662 H   0  0  0  0  0  0  0  0  0  0  0  0
    6.8422    7.3404    0.2336 H   0  0  0  0  0  0  0  0  0  0  0  0
    5.3957    7.8314   -0.6909 H   0  0  0  0  0  0  0  0  0  0  0  0
    5.3730    6.4177   -2.9786 H   0  0  0  0  0  0  0  0  0  0  0  0
    8.9759    5.8239   -3.5516 H   0  0  0  0  0  0  0  0  0  0  0  0
   10.0138    6.1522   -5.7845 H   0  0  0  0  0  0  0  0  0  0  0  0
    6.4464    7.4382   -7.4194 H   0  0  0  0  0  0  0  0  0  0  0  0
    7.3086    4.4979   -0.3787 H   0  0  0  0  0  0  0  0  0  0  0  0
    7.6416    1.8768   -0.1479 H   0  0  0  0  0  0  0  0  0  0  0  0
    5.8405   -2.5649    0.2677 H   0  0  0  0  0  0  0  0  0  0  0  0
    3.3991   -2.3858    3.1519 H   0  0  0  0  0  0  0  0  0  0  0  0
    3.5878   -3.8454    5.4894 H   0  0  0  0  0  0  0  0  0  0  0  0
    3.8915   -5.5688    5.3877 H   0  0  0  0  0  0  0  0  0  0  0  0
    0.4484   -5.0912    6.6726 H   0  0  0  0  0  0  0  0  0  0  0  0
    1.9794   -4.4225    7.1707 H   0  0  0  0  0  0  0  0  0  0  0  0
    1.5043   -6.7285    8.0744 H   0  0  0  0  0  0  0  0  0  0  0  0
    3.0326   -6.6193    7.2217 H   0  0  0  0  0  0  0  0  0  0  0  0
    0.4430   -7.9242    6.3292 H   0  0  0  0  0  0  0  0  0  0  0  0
    2.0364   -8.6500    6.4801 H   0  0  0  0  0  0  0  0  0  0  0  0
    2.8693   -7.5014    4.5272 H   0  0  0  0  0  0  0  0  0  0  0  0
    0.0456   -8.5269    3.9517 H   0  0  0  0  0  0  0  0  0  0  0  0
    1.5201   -9.5051    4.0553 H   0  0  0  0  0  0  0  0  0  0  0  0
    1.3367   -8.3150    2.7570 H   0  0  0  0  0  0  0  0  0  0  0  0
    0.1921   -6.0167    4.4319 H   0  0  0  0  0  0  0  0  0  0  0  0
    1.4461   -5.8564    3.2431 H   0  0  0  0  0  0  0  0  0  0  0  0
  1  2  1  0  0  0  0
  1 41  1  0  0  0  0
  1 42  1  0  0  0  0
  1 43  1  0  0  0  0
  2  3  2  0  0  0  0
  2 40  1  0  0  0  0
  3  4  1  0  0  0  0
  3 44  1  0  0  0  0
  4  5  1  0  0  0  0
  4 24  1  0  0  0  0
  5  6  1  0  0  0  0
  5 22  2  0  0  0  0
  6  7  1  0  0  0  0
  6 21  2  0  0  0  0
  7  8  2  0  0  0  0
  7 45  1  0  0  0  0
  8  9  1  0  0  0  0
  9 10  1  0  0  0  0
  9 21  1  0  0  0  0
 10 11  1  0  0  0  0
 10 46  1  0  0  0  0
 10 47  1  0  0  0  0
 11 12  2  0  0  0  0
 11 13  1  0  0  0  0
 13 14  1  0  0  0  0
 13 48  1  0  0  0  0
 14 15  1  0  0  0  0
 14 19  2  0  0  0  0
 15 16  2  0  0  0  0
 15 49  1  0  0  0  0
 16 17  1  0  0  0  0
 16 50  1  0  0  0  0
 17 18  2  0  0  0  0
 18 19  1  0  0  0  0
 18 51  1  0  0  0  0
 19 20  1  0  0  0  0
 21 52  1  0  0  0  0
 22 23  1  0  0  0  0
 22 53  1  0  0  0  0
 23 24  2  0  0  0  0
 24 25  1  0  0  0  0
 25 26  1  0  0  0  0
 25 40  2  0  0  0  0
 26 27  1  0  0  0  0
 26 54  1  0  0  0  0
 27 28  2  0  0  0  0
 27 39  1  0  0  0  0
 28 29  1  0  0  0  0
 28 55  1  0  0  0  0
 29 30  1  0  0  0  0
 29 38  2  0  0  0  0
 30 31  1  0  0  0  0
 30 56  1  0  0  0  0
 30 57  1  0  0  0  0
 31 32  1  0  0  0  0
 31 37  1  0  0  0  0
 32 33  1  0  0  0  0
 32 58  1  0  0  0  0
 32 59  1  0  0  0  0
 33 34  1  0  0  0  0
 33 60  1  0  0  0  0
 33 61  1  0  0  0  0
 34 35  1  0  0  0  0
 34 62  1  0  0  0  0
 34 63  1  0  0  0  0
 35 36  1  0  0  0  0
 35 37  1  0  0  0  0
 35 64  1  0  0  0  0
 36 65  1  0  0  0  0
 36 66  1  0  0  0  0
 36 67  1  0  0  0  0
 37 68  1  0  0  0  0
 37 69  1  0  0  0  0
 38 39  1  0  0  0  0
M  END
$$$$
