CHEMBL1956897
 OpenBabel04072215363D

 51 55  0  0  0  0  0  0  0  0999 V2000
    1.1898    0.1067   -0.3488 N   0  0  0  0  0  0  0  0  0  0  0  0
    2.5710    0.0811   -0.2845 C   0  0  0  0  0  0  0  0  0  0  0  0
    3.1280   -1.1326   -0.2178 N   0  0  0  0  0  0  0  0  0  0  0  0
    4.4780   -1.2615   -0.1664 C   0  0  0  0  0  0  0  0  0  0  0  0
    5.0583   -2.5384   -0.1262 N   0  0  0  0  0  0  0  0  0  0  0  0
    4.5365   -3.7009    0.4693 C   0  0  0  0  0  0  0  0  0  0  0  0
    4.9473   -4.9573    0.0046 C   0  0  0  0  0  0  0  0  0  0  0  0
    4.4034   -6.1311    0.5367 C   0  0  0  0  0  0  0  0  0  0  0  0
    3.4473   -6.0624    1.5486 C   0  0  0  0  0  0  0  0  0  0  0  0
    3.0366   -4.8188    2.0186 C   0  0  0  0  0  0  0  0  0  0  0  0
    1.7477   -4.7090    3.3978 Br  0  0  0  0  0  0  0  0  0  0  0  0
    3.5678   -3.6484    1.4798 C   0  0  0  0  0  0  0  0  0  0  0  0
    5.2462   -0.0866   -0.1751 C   0  0  0  0  0  0  0  0  0  0  0  0
    6.6279    0.2369   -0.1324 C   0  0  0  0  0  0  0  0  0  0  0  0
    6.7353    1.6107   -0.1236 C   0  0  0  0  0  0  0  0  0  0  0  0
    5.4633    2.1341   -0.1426 N   0  0  0  0  0  0  0  0  0  0  0  0
    5.1473    3.5563   -0.1339 C   0  0  0  0  0  0  0  0  0  0  0  0
    5.0231    4.0806    1.2751 C   0  0  0  0  0  0  0  0  0  0  0  0
    6.1495    4.4925    1.9954 C   0  0  0  0  0  0  0  0  0  0  0  0
    6.0342    4.8956    3.3324 C   0  0  0  0  0  0  0  0  0  0  0  0
    4.7931    4.9169    3.9930 C   0  0  0  0  0  0  0  0  0  0  0  0
    4.6774    5.2872    5.4265 C   0  0  0  0  0  0  0  0  0  0  0  0
    5.5395    6.2253    6.0243 C   0  0  0  0  0  0  0  0  0  0  0  0
    5.4376    6.5541    7.3813 C   0  0  0  0  0  0  0  0  0  0  0  0
    4.4593    5.9616    8.1727 C   0  0  0  0  0  0  0  0  0  0  0  0
    3.5902    5.0339    7.6104 C   0  0  0  0  0  0  0  0  0  0  0  0
    3.7052    4.6968    6.2577 C   0  0  0  0  0  0  0  0  0  0  0  0
    3.6669    4.5416    3.2383 C   0  0  0  0  0  0  0  0  0  0  0  0
    3.7779    4.1184    1.9086 C   0  0  0  0  0  0  0  0  0  0  0  0
    4.5468    1.1117   -0.1947 C   0  0  0  0  0  0  0  0  0  0  0  0
    3.2120    1.2536   -0.2496 N   0  0  0  0  0  0  0  0  0  0  0  0
    0.8292   -0.7687    0.0084 H   0  0  0  0  0  0  0  0  0  0  0  0
    0.8366    0.9591    0.0571 H   0  0  0  0  0  0  0  0  0  0  0  0
    6.0577   -2.5543   -0.2687 H   0  0  0  0  0  0  0  0  0  0  0  0
    5.6721   -5.0311   -0.8027 H   0  0  0  0  0  0  0  0  0  0  0  0
    4.7163   -7.0982    0.1517 H   0  0  0  0  0  0  0  0  0  0  0  0
    3.0243   -6.9756    1.9567 H   0  0  0  0  0  0  0  0  0  0  0  0
    3.2387   -2.6865    1.8632 H   0  0  0  0  0  0  0  0  0  0  0  0
    7.4593   -0.4553   -0.0957 H   0  0  0  0  0  0  0  0  0  0  0  0
    7.6046    2.2543   -0.0823 H   0  0  0  0  0  0  0  0  0  0  0  0
    4.2254    3.7132   -0.7050 H   0  0  0  0  0  0  0  0  0  0  0  0
    5.9474    4.0790   -0.6715 H   0  0  0  0  0  0  0  0  0  0  0  0
    7.1348    4.4812    1.5345 H   0  0  0  0  0  0  0  0  0  0  0  0
    6.9455    5.1653    3.8619 H   0  0  0  0  0  0  0  0  0  0  0  0
    6.3059    6.7252    5.4366 H   0  0  0  0  0  0  0  0  0  0  0  0
    6.1236    7.2763    7.8163 H   0  0  0  0  0  0  0  0  0  0  0  0
    4.3757    6.2199    9.2247 H   0  0  0  0  0  0  0  0  0  0  0  0
    2.8245    4.5634    8.2217 H   0  0  0  0  0  0  0  0  0  0  0  0
    3.0252    3.9445    5.8638 H   0  0  0  0  0  0  0  0  0  0  0  0
    2.6736    4.5637    3.6814 H   0  0  0  0  0  0  0  0  0  0  0  0
    2.8819    3.8006    1.3780 H   0  0  0  0  0  0  0  0  0  0  0  0
  1  2  1  0  0  0  0
  1 32  1  0  0  0  0
  1 33  1  0  0  0  0
  2  3  1  0  0  0  0
  2 31  2  0  0  0  0
  3  4  2  0  0  0  0
  4  5  1  0  0  0  0
  4 13  1  0  0  0  0
  5  6  1  0  0  0  0
  5 34  1  0  0  0  0
  6  7  1  0  0  0  0
  6 12  2  0  0  0  0
  7  8  2  0  0  0  0
  7 35  1  0  0  0  0
  8  9  1  0  0  0  0
  8 36  1  0  0  0  0
  9 10  2  0  0  0  0
  9 37  1  0  0  0  0
 10 11  1  0  0  0  0
 10 12  1  0  0  0  0
 12 38  1  0  0  0  0
 13 14  1  0  0  0  0
 13 30  2  0  0  0  0
 14 15  2  0  0  0  0
 14 39  1  0  0  0  0
 15 16  1  0  0  0  0
 15 40  1  0  0  0  0
 16 17  1  0  0  0  0
 16 30  1  0  0  0  0
 17 18  1  0  0  0  0
 17 41  1  0  0  0  0
 17 42  1  0  0  0  0
 18 19  1  0  0  0  0
 18 29  2  0  0  0  0
 19 20  2  0  0  0  0
 19 43  1  0  0  0  0
 20 21  1  0  0  0  0
 20 44  1  0  0  0  0
 21 22  1  0  0  0  0
 21 28  2  0  0  0  0
 22 23  1  0  0  0  0
 22 27  2  0  0  0  0
 23 24  2  0  0  0  0
 23 45  1  0  0  0  0
 24 25  1  0  0  0  0
 24 46  1  0  0  0  0
 25 26  2  0  0  0  0
 25 47  1  0  0  0  0
 26 27  1  0  0  0  0
 26 48  1  0  0  0  0
 27 49  1  0  0  0  0
 28 29  1  0  0  0  0
 28 50  1  0  0  0  0
 29 51  1  0  0  0  0
 30 31  1  0  0  0  0
M  END
$$$$
