CHEMBL3702665
 OpenBabel04072215373D

 46 49  0  0  0  0  0  0  0  0999 V2000
    0.9826    0.3064   -0.0495 O   0  0  0  0  0  0  0  0  0  0  0  0
    2.1895    0.0927   -0.1198 C   0  0  0  0  0  0  0  0  0  0  0  0
    2.8130   -0.8446   -0.9284 N   0  0  0  0  0  0  0  0  0  0  0  0
    2.1507   -1.7333   -1.8110 C   0  0  0  0  0  0  0  0  0  0  0  0
    0.8148   -1.5752   -2.1873 C   0  0  0  0  0  0  0  0  0  0  0  0
    0.1772   -2.5169   -2.9968 C   0  0  0  0  0  0  0  0  0  0  0  0
    0.8753   -3.6282   -3.4554 C   0  0  0  0  0  0  0  0  0  0  0  0
    2.2271   -3.7955   -3.1264 C   0  0  0  0  0  0  0  0  0  0  0  0
    2.9897   -4.9977   -3.6246 C   0  0  0  0  0  0  0  0  0  0  0  0
    2.2383   -5.8493   -4.3788 F   0  0  0  0  0  0  0  0  0  0  0  0
    4.0543   -4.6540   -4.4019 F   0  0  0  0  0  0  0  0  0  0  0  0
    3.4973   -5.7505   -2.6094 F   0  0  0  0  0  0  0  0  0  0  0  0
    2.8611   -2.8340   -2.3109 C   0  0  0  0  0  0  0  0  0  0  0  0
    3.0625    0.8574    0.8083 C   0  0  0  0  0  0  0  0  0  0  0  0
    2.5513    1.1664    2.0720 C   0  0  0  0  0  0  0  0  0  0  0  0
    3.3077    1.9232    2.9573 C   0  0  0  0  0  0  0  0  0  0  0  0
    4.5730    2.3754    2.5762 C   0  0  0  0  0  0  0  0  0  0  0  0
    5.1186    2.0855    1.3127 C   0  0  0  0  0  0  0  0  0  0  0  0
    6.3835    2.5322    0.9695 N   0  0  0  0  0  0  0  0  0  0  0  0
    7.2293    1.8180    0.0124 C   0  0  0  0  0  0  0  0  0  0  0  0
    7.2708    2.5785   -1.3064 C   0  0  0  0  0  0  0  0  0  0  0  0
    7.6219    4.0233   -1.0783 C   0  0  0  0  0  0  0  0  0  0  0  0
    8.1272    4.6949   -2.1372 N   0  0  0  0  0  0  0  0  0  0  0  0
    8.4036    5.9925   -1.9402 C   0  0  0  0  0  0  0  0  0  0  0  0
    8.2306    6.6698   -0.7969 N   0  0  0  0  0  0  0  0  0  0  0  0
    7.7201    5.9607    0.2283 C   0  0  0  0  0  0  0  0  0  0  0  0
    7.3829    4.6230    0.1499 C   0  0  0  0  0  0  0  0  0  0  0  0
    6.8321    3.8820    1.3364 C   0  0  0  0  0  0  0  0  0  0  0  0
    4.3324    1.3185    0.4338 C   0  0  0  0  0  0  0  0  0  0  0  0
    3.7969   -1.0234   -0.7595 H   0  0  0  0  0  0  0  0  0  0  0  0
    0.2292   -0.7190   -1.8672 H   0  0  0  0  0  0  0  0  0  0  0  0
   -0.8695   -2.3787   -3.2574 H   0  0  0  0  0  0  0  0  0  0  0  0
    0.3577   -4.3619   -4.0706 H   0  0  0  0  0  0  0  0  0  0  0  0
    3.9068   -2.9787   -2.0478 H   0  0  0  0  0  0  0  0  0  0  0  0
    1.5609    0.8226    2.3623 H   0  0  0  0  0  0  0  0  0  0  0  0
    2.9154    2.1605    3.9426 H   0  0  0  0  0  0  0  0  0  0  0  0
    5.1485    2.9429    3.3040 H   0  0  0  0  0  0  0  0  0  0  0  0
    6.9038    0.7834   -0.1452 H   0  0  0  0  0  0  0  0  0  0  0  0
    8.2408    1.7477    0.4342 H   0  0  0  0  0  0  0  0  0  0  0  0
    6.2938    2.5392   -1.8019 H   0  0  0  0  0  0  0  0  0  0  0  0
    8.0056    2.1142   -1.9736 H   0  0  0  0  0  0  0  0  0  0  0  0
    8.8036    6.5432   -2.7847 H   0  0  0  0  0  0  0  0  0  0  0  0
    7.5849    6.5265    1.1464 H   0  0  0  0  0  0  0  0  0  0  0  0
    6.0155    4.4808    1.7587 H   0  0  0  0  0  0  0  0  0  0  0  0
    7.6174    3.7948    2.0969 H   0  0  0  0  0  0  0  0  0  0  0  0
    4.6781    1.1329   -0.5774 H   0  0  0  0  0  0  0  0  0  0  0  0
  1  2  2  0  0  0  0
  2  3  1  0  0  0  0
  2 14  1  0  0  0  0
  3  4  1  0  0  0  0
  3 30  1  0  0  0  0
  4  5  1  0  0  0  0
  4 13  2  0  0  0  0
  5  6  2  0  0  0  0
  5 31  1  0  0  0  0
  6  7  1  0  0  0  0
  6 32  1  0  0  0  0
  7  8  2  0  0  0  0
  7 33  1  0  0  0  0
  8  9  1  0  0  0  0
  8 13  1  0  0  0  0
  9 10  1  0  0  0  0
  9 11  1  0  0  0  0
  9 12  1  0  0  0  0
 13 34  1  0  0  0  0
 14 15  1  0  0  0  0
 14 29  2  0  0  0  0
 15 16  2  0  0  0  0
 15 35  1  0  0  0  0
 16 17  1  0  0  0  0
 16 36  1  0  0  0  0
 17 18  2  0  0  0  0
 17 37  1  0  0  0  0
 18 19  1  0  0  0  0
 18 29  1  0  0  0  0
 19 20  1  0  0  0  0
 19 28  1  0  0  0  0
 20 21  1  0  0  0  0
 20 38  1  0  0  0  0
 20 39  1  0  0  0  0
 21 22  1  0  0  0  0
 21 40  1  0  0  0  0
 21 41  1  0  0  0  0
 22 23  1  0  0  0  0
 22 27  2  0  0  0  0
 23 24  2  0  0  0  0
 24 25  1  0  0  0  0
 24 42  1  0  0  0  0
 25 26  2  0  0  0  0
 26 27  1  0  0  0  0
 26 43  1  0  0  0  0
 27 28  1  0  0  0  0
 28 44  1  0  0  0  0
 28 45  1  0  0  0  0
 29 46  1  0  0  0  0
M  END
$$$$
