CHEMBL1242977
 OpenBabel04072215363D

 55 58  0  0  0  0  0  0  0  0999 V2000
   -0.3497   10.2752   -0.8110 C   0  0  0  0  0  0  0  0  0  0  0  0
    1.0836   10.4312   -0.8739 N   0  0  0  0  0  0  0  0  0  0  0  0
    1.8219    9.3446   -1.3173 C   0  0  0  0  0  0  0  0  0  0  0  0
    2.9724    9.6567   -1.9218 N   0  0  0  0  0  0  0  0  0  0  0  0
    3.7036    8.6326   -2.3962 C   0  0  0  0  0  0  0  0  0  0  0  0
    3.3212    7.3143   -2.3113 C   0  0  0  0  0  0  0  0  0  0  0  0
    2.1135    7.0741   -1.6988 C   0  0  0  0  0  0  0  0  0  0  0  0
    1.4690    5.7395   -1.6535 C   0  0  0  0  0  0  0  0  0  0  0  0
    0.0556    5.6812   -1.6808 C   0  0  0  0  0  0  0  0  0  0  0  0
   -0.6341    4.4738   -1.6593 C   0  0  0  0  0  0  0  0  0  0  0  0
    0.1058    3.3159   -1.6646 C   0  0  0  0  0  0  0  0  0  0  0  0
    1.4509    3.3037   -1.6743 N   0  0  0  0  0  0  0  0  0  0  0  0
    2.1170    4.4949   -1.6026 C   0  0  0  0  0  0  0  0  0  0  0  0
    3.5054    4.4198   -1.3962 O   0  0  0  0  0  0  0  0  0  0  0  0
    3.9507    3.2949   -0.7069 C   0  0  0  0  0  0  0  0  0  0  0  0
    3.2679    2.8548    0.4316 C   0  0  0  0  0  0  0  0  0  0  0  0
    3.5798    1.6369    1.0329 C   0  0  0  0  0  0  0  0  0  0  0  0
    4.6195    0.8478    0.5513 C   0  0  0  0  0  0  0  0  0  0  0  0
    4.9266   -0.4318    1.0832 N   0  0  0  0  0  0  0  0  0  0  0  0
    4.3566   -0.9979    2.2157 C   0  0  0  0  0  0  0  0  0  0  0  0
    3.5464   -0.4718    2.9712 O   0  0  0  0  0  0  0  0  0  0  0  0
    4.8313   -2.3592    2.5876 C   0  0  0  0  0  0  0  0  0  0  0  0
    4.9655   -2.6425    3.9542 C   0  0  0  0  0  0  0  0  0  0  0  0
    5.4154   -3.8906    4.3784 C   0  0  0  0  0  0  0  0  0  0  0  0
    5.6995   -4.8796    3.4391 C   0  0  0  0  0  0  0  0  0  0  0  0
    5.5122   -4.6381    2.0675 C   0  0  0  0  0  0  0  0  0  0  0  0
    5.7276   -5.7434    1.0605 C   0  0  0  0  0  0  0  0  0  0  0  0
    6.1540   -6.9122    1.6141 F   0  0  0  0  0  0  0  0  0  0  0  0
    4.5906   -6.0471    0.3761 F   0  0  0  0  0  0  0  0  0  0  0  0
    6.6547   -5.4136    0.1202 F   0  0  0  0  0  0  0  0  0  0  0  0
    5.0869   -3.3618    1.6442 C   0  0  0  0  0  0  0  0  0  0  0  0
    5.3889    1.3455   -0.5125 C   0  0  0  0  0  0  0  0  0  0  0  0
    5.0793    2.5832   -1.1408 C   0  0  0  0  0  0  0  0  0  0  0  0
    6.0058    3.1193   -2.1939 C   0  0  0  0  0  0  0  0  0  0  0  0
    1.3660    8.0925   -1.1924 N   0  0  0  0  0  0  0  0  0  0  0  0
   -0.8244   11.2594   -0.8933 H   0  0  0  0  0  0  0  0  0  0  0  0
   -0.6487    9.8501    0.1526 H   0  0  0  0  0  0  0  0  0  0  0  0
   -0.7530    9.6545   -1.6191 H   0  0  0  0  0  0  0  0  0  0  0  0
    1.4293   11.2427   -1.3757 H   0  0  0  0  0  0  0  0  0  0  0  0
    4.6306    8.9198   -2.8852 H   0  0  0  0  0  0  0  0  0  0  0  0
    3.9261    6.5401   -2.7571 H   0  0  0  0  0  0  0  0  0  0  0  0
   -0.5254    6.6032   -1.7078 H   0  0  0  0  0  0  0  0  0  0  0  0
   -1.7179    4.4465   -1.6429 H   0  0  0  0  0  0  0  0  0  0  0  0
   -0.3689    2.3399   -1.6396 H   0  0  0  0  0  0  0  0  0  0  0  0
    2.4290    3.4209    0.8255 H   0  0  0  0  0  0  0  0  0  0  0  0
    2.9490    1.3241    1.8561 H   0  0  0  0  0  0  0  0  0  0  0  0
    5.6715   -0.9391    0.6249 H   0  0  0  0  0  0  0  0  0  0  0  0
    4.7142   -1.8840    4.6947 H   0  0  0  0  0  0  0  0  0  0  0  0
    5.5308   -4.0928    5.4409 H   0  0  0  0  0  0  0  0  0  0  0  0
    6.0475   -5.8522    3.7863 H   0  0  0  0  0  0  0  0  0  0  0  0
    4.9150   -3.1798    0.5849 H   0  0  0  0  0  0  0  0  0  0  0  0
    6.2447    0.7752   -0.8700 H   0  0  0  0  0  0  0  0  0  0  0  0
    6.7075    2.3512   -2.5412 H   0  0  0  0  0  0  0  0  0  0  0  0
    6.6009    3.9390   -1.7750 H   0  0  0  0  0  0  0  0  0  0  0  0
    5.4565    3.4805   -3.0670 H   0  0  0  0  0  0  0  0  0  0  0  0
  1  2  1  0  0  0  0
  1 36  1  0  0  0  0
  1 37  1  0  0  0  0
  1 38  1  0  0  0  0
  2  3  1  0  0  0  0
  2 39  1  0  0  0  0
  3  4  1  0  0  0  0
  3 35  2  0  0  0  0
  4  5  2  0  0  0  0
  5  6  1  0  0  0  0
  5 40  1  0  0  0  0
  6  7  2  0  0  0  0
  6 41  1  0  0  0  0
  7  8  1  0  0  0  0
  7 35  1  0  0  0  0
  8  9  1  0  0  0  0
  8 13  2  0  0  0  0
  9 10  2  0  0  0  0
  9 42  1  0  0  0  0
 10 11  1  0  0  0  0
 10 43  1  0  0  0  0
 11 12  2  0  0  0  0
 11 44  1  0  0  0  0
 12 13  1  0  0  0  0
 13 14  1  0  0  0  0
 14 15  1  0  0  0  0
 15 16  1  0  0  0  0
 15 33  2  0  0  0  0
 16 17  2  0  0  0  0
 16 45  1  0  0  0  0
 17 18  1  0  0  0  0
 17 46  1  0  0  0  0
 18 19  1  0  0  0  0
 18 32  2  0  0  0  0
 19 20  1  0  0  0  0
 19 47  1  0  0  0  0
 20 21  2  0  0  0  0
 20 22  1  0  0  0  0
 22 23  1  0  0  0  0
 22 31  2  0  0  0  0
 23 24  2  0  0  0  0
 23 48  1  0  0  0  0
 24 25  1  0  0  0  0
 24 49  1  0  0  0  0
 25 26  2  0  0  0  0
 25 50  1  0  0  0  0
 26 27  1  0  0  0  0
 26 31  1  0  0  0  0
 27 28  1  0  0  0  0
 27 29  1  0  0  0  0
 27 30  1  0  0  0  0
 31 51  1  0  0  0  0
 32 33  1  0  0  0  0
 32 52  1  0  0  0  0
 33 34  1  0  0  0  0
 34 53  1  0  0  0  0
 34 54  1  0  0  0  0
 34 55  1  0  0  0  0
M  END
$$$$
