CHEMBL604992
 OpenBabel04072215383D

 71 76  0  0  0  0  0  0  0  0999 V2000
    2.5173    0.6268    1.0497 C   0  0  0  0  0  0  0  0  0  0  0  0
    2.4539    0.1673   -0.2974 O   0  0  0  0  0  0  0  0  0  0  0  0
    3.2412   -0.8898   -0.6634 C   0  0  0  0  0  0  0  0  0  0  0  0
    4.3168   -1.3197    0.1081 C   0  0  0  0  0  0  0  0  0  0  0  0
    5.0050   -2.5140   -0.1850 C   0  0  0  0  0  0  0  0  0  0  0  0
    6.0149   -3.0497    0.6367 C   0  0  0  0  0  0  0  0  0  0  0  0
    6.3734   -2.3651    1.8402 N   0  0  0  0  0  0  0  0  0  0  0  0
    7.0976   -2.8860    2.9353 C   0  0  0  0  0  0  0  0  0  0  0  0
    7.9661   -2.0759    3.6820 C   0  0  0  0  0  0  0  0  0  0  0  0
    8.7380   -2.6049    4.7404 C   0  0  0  0  0  0  0  0  0  0  0  0
    8.6341   -3.9544    5.1081 C   0  0  0  0  0  0  0  0  0  0  0  0
    9.5299   -4.5532    6.1386 C   0  0  0  0  0  0  0  0  0  0  0  0
   10.4343   -3.9205    6.8699 N   0  0  0  0  0  0  0  0  0  0  0  0
   11.1846   -4.8350    7.6221 C   0  0  0  0  0  0  0  0  0  0  0  0
   12.2635   -4.5504    8.4947 C   0  0  0  0  0  0  0  0  0  0  0  0
   12.9549   -5.6018    9.1249 C   0  0  0  0  0  0  0  0  0  0  0  0
   12.5754   -6.9190    8.9027 C   0  0  0  0  0  0  0  0  0  0  0  0
   13.2624   -7.9073    9.4851 F   0  0  0  0  0  0  0  0  0  0  0  0
   11.5025   -7.2307    8.0840 C   0  0  0  0  0  0  0  0  0  0  0  0
   10.8231   -6.1729    7.4579 C   0  0  0  0  0  0  0  0  0  0  0  0
    9.4859   -6.2637    6.4052 S   0  0  0  0  0  0  0  0  0  0  0  0
    7.6799   -4.7233    4.4162 C   0  0  0  0  0  0  0  0  0  0  0  0
    6.9292   -4.2017    3.3568 C   0  0  0  0  0  0  0  0  0  0  0  0
    6.6289   -4.2007    0.3185 N   0  0  0  0  0  0  0  0  0  0  0  0
    6.2355   -4.8019   -0.8125 C   0  0  0  0  0  0  0  0  0  0  0  0
    5.2762   -4.3841   -1.6478 N   0  0  0  0  0  0  0  0  0  0  0  0
    4.6549   -3.2484   -1.3259 C   0  0  0  0  0  0  0  0  0  0  0  0
    3.6419   -2.7621   -2.1463 C   0  0  0  0  0  0  0  0  0  0  0  0
    2.9540   -1.5763   -1.8539 C   0  0  0  0  0  0  0  0  0  0  0  0
    2.0425   -1.1994   -2.8169 O   0  0  0  0  0  0  0  0  0  0  0  0
    1.8420    0.2117   -2.9027 C   0  0  0  0  0  0  0  0  0  0  0  0
    1.4770    0.6476   -4.3161 C   0  0  0  0  0  0  0  0  0  0  0  0
    1.3400    2.1779   -4.3101 C   0  0  0  0  0  0  0  0  0  0  0  0
    1.0676    2.7706   -5.6188 N   0  0  0  0  0  0  0  0  0  0  0  0
   -0.2133    2.3305   -6.1956 C   0  0  0  0  0  0  0  0  0  0  0  0
   -0.4327    2.9639   -7.5870 C   0  0  0  0  0  0  0  0  0  0  0  0
   -0.4073    4.4401   -7.6098 N   0  0  0  0  0  0  0  0  0  0  0  0
   -1.6273    5.0037   -7.0396 C   0  0  0  0  0  0  0  0  0  0  0  0
    0.7991    4.9155   -6.9010 C   0  0  0  0  0  0  0  0  0  0  0  0
    1.0678    4.2485   -5.5291 C   0  0  0  0  0  0  0  0  0  0  0  0
    3.1722    1.5019    1.0992 H   0  0  0  0  0  0  0  0  0  0  0  0
    2.8387   -0.1313    1.7707 H   0  0  0  0  0  0  0  0  0  0  0  0
    1.5101    0.9277    1.3495 H   0  0  0  0  0  0  0  0  0  0  0  0
    4.6339   -0.7363    0.9649 H   0  0  0  0  0  0  0  0  0  0  0  0
    6.6391   -1.4124    1.6214 H   0  0  0  0  0  0  0  0  0  0  0  0
    8.0853   -1.0251    3.4289 H   0  0  0  0  0  0  0  0  0  0  0  0
    9.4414   -1.9523    5.2558 H   0  0  0  0  0  0  0  0  0  0  0  0
   12.5676   -3.5210    8.6645 H   0  0  0  0  0  0  0  0  0  0  0  0
   13.7964   -5.3967    9.7807 H   0  0  0  0  0  0  0  0  0  0  0  0
   11.2123   -8.2636    7.9227 H   0  0  0  0  0  0  0  0  0  0  0  0
    7.5045   -5.7673    4.6598 H   0  0  0  0  0  0  0  0  0  0  0  0
    6.2179   -4.8525    2.8539 H   0  0  0  0  0  0  0  0  0  0  0  0
    6.7484   -5.7198   -1.0795 H   0  0  0  0  0  0  0  0  0  0  0  0
    3.3802   -3.3175   -3.0460 H   0  0  0  0  0  0  0  0  0  0  0  0
    2.7554    0.7549   -2.6314 H   0  0  0  0  0  0  0  0  0  0  0  0
    1.0204    0.4855   -2.2309 H   0  0  0  0  0  0  0  0  0  0  0  0
    0.5504    0.1486   -4.6192 H   0  0  0  0  0  0  0  0  0  0  0  0
    2.2539    0.3262   -5.0212 H   0  0  0  0  0  0  0  0  0  0  0  0
    2.2937    2.5872   -3.9480 H   0  0  0  0  0  0  0  0  0  0  0  0
    0.5737    2.4746   -3.5822 H   0  0  0  0  0  0  0  0  0  0  0  0
   -1.0457    2.5820   -5.5257 H   0  0  0  0  0  0  0  0  0  0  0  0
   -0.2225    1.2446   -6.3290 H   0  0  0  0  0  0  0  0  0  0  0  0
   -1.3722    2.5930   -8.0137 H   0  0  0  0  0  0  0  0  0  0  0  0
    0.3585    2.6013   -8.2573 H   0  0  0  0  0  0  0  0  0  0  0  0
   -2.5062    4.6271   -7.5752 H   0  0  0  0  0  0  0  0  0  0  0  0
   -1.6327    6.0922   -7.1618 H   0  0  0  0  0  0  0  0  0  0  0  0
   -1.7558    4.7790   -5.9760 H   0  0  0  0  0  0  0  0  0  0  0  0
    0.7628    6.0053   -6.7801 H   0  0  0  0  0  0  0  0  0  0  0  0
    1.6654    4.7226   -7.5479 H   0  0  0  0  0  0  0  0  0  0  0  0
    0.3170    4.5903   -4.8019 H   0  0  0  0  0  0  0  0  0  0  0  0
    2.0462    4.5943   -5.1714 H   0  0  0  0  0  0  0  0  0  0  0  0
  1  2  1  0  0  0  0
  1 41  1  0  0  0  0
  1 42  1  0  0  0  0
  1 43  1  0  0  0  0
  2  3  1  0  0  0  0
  3  4  1  0  0  0  0
  3 29  2  0  0  0  0
  4  5  2  0  0  0  0
  4 44  1  0  0  0  0
  5  6  1  0  0  0  0
  5 27  1  0  0  0  0
  6  7  1  0  0  0  0
  6 24  2  0  0  0  0
  7  8  1  0  0  0  0
  7 45  1  0  0  0  0
  8  9  1  0  0  0  0
  8 23  2  0  0  0  0
  9 10  2  0  0  0  0
  9 46  1  0  0  0  0
 10 11  1  0  0  0  0
 10 47  1  0  0  0  0
 11 12  1  0  0  0  0
 11 22  2  0  0  0  0
 12 13  2  0  0  0  0
 12 21  1  0  0  0  0
 13 14  1  0  0  0  0
 14 15  1  0  0  0  0
 14 20  2  0  0  0  0
 15 16  2  0  0  0  0
 15 48  1  0  0  0  0
 16 17  1  0  0  0  0
 16 49  1  0  0  0  0
 17 18  1  0  0  0  0
 17 19  2  0  0  0  0
 19 20  1  0  0  0  0
 19 50  1  0  0  0  0
 20 21  1  0  0  0  0
 22 23  1  0  0  0  0
 22 51  1  0  0  0  0
 23 52  1  0  0  0  0
 24 25  1  0  0  0  0
 25 26  2  0  0  0  0
 25 53  1  0  0  0  0
 26 27  1  0  0  0  0
 27 28  2  0  0  0  0
 28 29  1  0  0  0  0
 28 54  1  0  0  0  0
 29 30  1  0  0  0  0
 30 31  1  0  0  0  0
 31 32  1  0  0  0  0
 31 55  1  0  0  0  0
 31 56  1  0  0  0  0
 32 33  1  0  0  0  0
 32 57  1  0  0  0  0
 32 58  1  0  0  0  0
 33 34  1  0  0  0  0
 33 59  1  0  0  0  0
 33 60  1  0  0  0  0
 34 35  1  0  0  0  0
 34 40  1  0  0  0  0
 35 36  1  0  0  0  0
 35 61  1  0  0  0  0
 35 62  1  0  0  0  0
 36 37  1  0  0  0  0
 36 63  1  0  0  0  0
 36 64  1  0  0  0  0
 37 38  1  0  0  0  0
 37 39  1  0  0  0  0
 38 65  1  0  0  0  0
 38 66  1  0  0  0  0
 38 67  1  0  0  0  0
 39 40  1  0  0  0  0
 39 68  1  0  0  0  0
 39 69  1  0  0  0  0
 40 70  1  0  0  0  0
 40 71  1  0  0  0  0
M  END
$$$$
