CHEMBL4081227
 OpenBabel04072215383D

 30 33  0  0  0  0  0  0  0  0999 V2000
   -0.5681    0.0799    1.2529 C   0  0  0  0  0  0  0  0  0  0  0  0
    0.8150    0.0556    1.2667 C   0  0  0  0  0  0  0  0  0  0  0  0
    1.4975    0.0723    0.0493 C   0  0  0  0  0  0  0  0  0  0  0  0
    2.9491    0.0807   -0.0046 C   0  0  0  0  0  0  0  0  0  0  0  0
    3.8235   -0.4350   -0.9841 C   0  0  0  0  0  0  0  0  0  0  0  0
    5.1082   -0.2065   -0.7163 N   0  0  0  0  0  0  0  0  0  0  0  0
    5.0873    0.4763    0.4525 N   0  0  0  0  0  0  0  0  0  0  0  0
    6.1802    0.9790    1.1428 C   0  0  0  0  0  0  0  0  0  0  0  0
    6.0288    1.6531    2.2962 C   0  0  0  0  0  0  0  0  0  0  0  0
    7.0863    2.2301    3.0689 C   0  0  0  0  0  0  0  0  0  0  0  0
    6.9701    3.3816    3.9082 C   0  0  0  0  0  0  0  0  0  0  0  0
    8.1653    3.7084    4.5155 C   0  0  0  0  0  0  0  0  0  0  0  0
    9.4235    2.6398    4.0796 S   0  0  0  0  0  0  0  0  0  0  0  0
    8.3750    1.7311    3.0780 C   0  0  0  0  0  0  0  0  0  0  0  0
    4.5960    1.7675    2.7357 C   0  0  0  0  0  0  0  0  0  0  0  0
    3.5486    1.3174    2.1113 N   0  0  0  0  0  0  0  0  0  0  0  0
    3.7874    0.6590    0.9329 C   0  0  0  0  0  0  0  0  0  0  0  0
    0.7525    0.0889   -1.1319 C   0  0  0  0  0  0  0  0  0  0  0  0
   -0.6298    0.1078   -1.0414 C   0  0  0  0  0  0  0  0  0  0  0  0
   -1.3075    0.1048    0.1248 N   0  0  0  0  0  0  0  0  0  0  0  0
   -1.1316    0.0832    2.1813 H   0  0  0  0  0  0  0  0  0  0  0  0
    1.3392    0.0286    2.2159 H   0  0  0  0  0  0  0  0  0  0  0  0
    3.5727   -0.9746   -1.8885 H   0  0  0  0  0  0  0  0  0  0  0  0
    7.1356    0.8011    0.6689 H   0  0  0  0  0  0  0  0  0  0  0  0
    6.0689    3.9627    4.0605 H   0  0  0  0  0  0  0  0  0  0  0  0
    8.3594    4.5296    5.1918 H   0  0  0  0  0  0  0  0  0  0  0  0
    8.7674    0.8725    2.5504 H   0  0  0  0  0  0  0  0  0  0  0  0
    4.4284    2.2783    3.6989 H   0  0  0  0  0  0  0  0  0  0  0  0
    1.2230    0.1076   -2.1087 H   0  0  0  0  0  0  0  0  0  0  0  0
   -1.2475    0.1328   -1.9344 H   0  0  0  0  0  0  0  0  0  0  0  0
  1  2  1  0  0  0  0
  1 20  2  0  0  0  0
  1 21  1  0  0  0  0
  2  3  2  0  0  0  0
  2 22  1  0  0  0  0
  3  4  1  0  0  0  0
  3 18  1  0  0  0  0
  4  5  1  0  0  0  0
  4 17  2  0  0  0  0
  5  6  2  0  0  0  0
  5 23  1  0  0  0  0
  6  7  1  0  0  0  0
  7  8  1  0  0  0  0
  7 17  1  0  0  0  0
  8  9  2  0  0  0  0
  8 24  1  0  0  0  0
  9 10  1  0  0  0  0
  9 15  1  0  0  0  0
 10 11  1  0  0  0  0
 10 14  2  0  0  0  0
 11 12  2  0  0  0  0
 11 25  1  0  0  0  0
 12 13  1  0  0  0  0
 12 26  1  0  0  0  0
 13 14  1  0  0  0  0
 14 27  1  0  0  0  0
 15 16  2  0  0  0  0
 15 28  1  0  0  0  0
 16 17  1  0  0  0  0
 18 19  2  0  0  0  0
 18 29  1  0  0  0  0
 19 20  1  0  0  0  0
 19 30  1  0  0  0  0
M  END
$$$$
