CHEMBL1241678
 OpenBabel04072215363D

 37 40  0  0  1  0  0  0  0  0999 V2000
    5.9479   -8.9945   -0.6838 N   0  0  0  0  0  0  0  0  0  0  0  0
    6.1904   -7.6848   -1.0765 C   0  0  0  0  0  0  0  0  0  0  0  0
    6.6206   -7.5308   -2.3428 N   0  0  0  0  0  0  0  0  0  0  0  0
    6.8857   -6.2849   -2.7889 C   0  0  0  0  0  0  0  0  0  0  0  0
    6.7612   -5.1309   -2.1200 N   0  0  0  0  0  0  0  0  0  0  0  0
    6.3448   -5.3240   -0.8584 C   0  0  0  0  0  0  0  0  0  0  0  0
    6.0457   -6.5475   -0.2666 C   0  0  0  0  0  0  0  0  0  0  0  0
    5.6948   -6.2203    1.0813 C   0  0  0  0  0  0  0  0  0  0  0  0
    5.3695   -7.1067    2.2059 C   0  0  0  0  0  0  0  0  0  0  0  0
    5.9890   -8.3577    2.3367 C   0  0  0  0  0  0  0  0  0  0  0  0
    5.6663   -9.2192    3.3879 C   0  0  0  0  0  0  0  0  0  0  0  0
    4.7768   -8.7980    4.3688 C   0  0  0  0  0  0  0  0  0  0  0  0
    4.4250   -9.8396    5.6957 Cl  0  0  0  0  0  0  0  0  0  0  0  0
    4.1983   -7.5308    4.2853 C   0  0  0  0  0  0  0  0  0  0  0  0
    3.3576   -7.0567    5.2547 O   0  0  0  0  0  0  0  0  0  0  0  0
    4.4755   -6.6939    3.2060 C   0  0  0  0  0  0  0  0  0  0  0  0
    5.7059   -4.8907    1.2699 N   0  0  0  0  0  0  0  0  0  0  0  0
    6.1620   -4.3728    0.1089 N   0  0  0  0  0  0  0  0  0  0  0  0
    6.4094   -2.9508    0.0706 C   0  0  1  0  0  0  0  0  0  0  0  0
    7.4383   -2.5072    1.0980 C   0  0  0  0  0  0  0  0  0  0  0  0
    7.8215   -1.1271    0.6156 C   0  0  0  0  0  0  0  0  0  0  0  0
    7.6169   -1.0983   -0.8023 O   0  0  0  0  0  0  0  0  0  0  0  0
    6.9831   -2.3318   -1.1954 C   0  0  0  0  0  0  0  0  0  0  0  0
    5.9669   -9.6384   -1.4684 H   0  0  0  0  0  0  0  0  0  0  0  0
    5.2148   -9.1381   -0.0045 H   0  0  0  0  0  0  0  0  0  0  0  0
    7.2488   -6.2151   -3.8084 H   0  0  0  0  0  0  0  0  0  0  0  0
    6.7541   -8.6783    1.6316 H   0  0  0  0  0  0  0  0  0  0  0  0
    6.1310  -10.1992    3.4400 H   0  0  0  0  0  0  0  0  0  0  0  0
    3.3256   -7.7281    5.9620 H   0  0  0  0  0  0  0  0  0  0  0  0
    4.0092   -5.7125    3.1582 H   0  0  0  0  0  0  0  0  0  0  0  0
    5.4503   -2.4635    0.2937 H   0  0  0  0  0  0  0  0  0  0  0  0
    8.3139   -3.1687    1.0759 H   0  0  0  0  0  0  0  0  0  0  0  0
    7.0589   -2.4960    2.1248 H   0  0  0  0  0  0  0  0  0  0  0  0
    8.8643   -0.8842    0.8420 H   0  0  0  0  0  0  0  0  0  0  0  0
    7.1831   -0.3574    1.0613 H   0  0  0  0  0  0  0  0  0  0  0  0
    7.7627   -2.9379   -1.6637 H   0  0  0  0  0  0  0  0  0  0  0  0
    6.2113   -2.1116   -1.9389 H   0  0  0  0  0  0  0  0  0  0  0  0
  1  2  1  0  0  0  0
  1 24  1  0  0  0  0
  1 25  1  0  0  0  0
  2  3  1  0  0  0  0
  2  7  2  0  0  0  0
  3  4  2  0  0  0  0
  4  5  1  0  0  0  0
  4 26  1  0  0  0  0
  5  6  2  0  0  0  0
  6  7  1  0  0  0  0
  6 18  1  0  0  0  0
  7  8  1  0  0  0  0
  8  9  1  0  0  0  0
  8 17  2  0  0  0  0
  9 10  1  0  0  0  0
  9 16  2  0  0  0  0
 10 11  2  0  0  0  0
 10 27  1  0  0  0  0
 11 12  1  0  0  0  0
 11 28  1  0  0  0  0
 12 13  1  0  0  0  0
 12 14  2  0  0  0  0
 14 15  1  0  0  0  0
 14 16  1  0  0  0  0
 15 29  1  0  0  0  0
 16 30  1  0  0  0  0
 17 18  1  0  0  0  0
 19 20  1  0  0  0  0
 19 23  1  0  0  0  0
 19 18  1  0  0  0  0
 19 31  1  1  0  0  0
 20 21  1  0  0  0  0
 20 32  1  0  0  0  0
 20 33  1  0  0  0  0
 21 22  1  0  0  0  0
 21 34  1  0  0  0  0
 21 35  1  0  0  0  0
 22 23  1  0  0  0  0
 23 36  1  0  0  0  0
 23 37  1  0  0  0  0
M  END
$$$$
