CHEMBL3639591
 OpenBabel04072215373D

 52 55  0  0  0  0  0  0  0  0999 V2000
    2.8185    0.6023   -2.2311 C   0  0  0  0  0  0  0  0  0  0  0  0
    1.4012    0.4027   -1.7722 C   0  0  0  0  0  0  0  0  0  0  0  0
    0.8525   -0.8834   -1.8011 C   0  0  0  0  0  0  0  0  0  0  0  0
   -0.4472   -1.0922   -1.3617 C   0  0  0  0  0  0  0  0  0  0  0  0
   -1.2118   -0.0226   -0.9049 C   0  0  0  0  0  0  0  0  0  0  0  0
   -2.3964   -0.3399   -0.3685 F   0  0  0  0  0  0  0  0  0  0  0  0
   -0.7219    1.2951   -0.9145 C   0  0  0  0  0  0  0  0  0  0  0  0
   -1.4895    2.4404   -0.5294 N   0  0  0  0  0  0  0  0  0  0  0  0
   -2.8729    2.4871   -0.5227 C   0  0  0  0  0  0  0  0  0  0  0  0
   -3.6046    1.5843   -0.9171 O   0  0  0  0  0  0  0  0  0  0  0  0
   -3.3948    3.7060   -0.0907 N   0  0  0  0  0  0  0  0  0  0  0  0
   -4.8084    3.8086    0.0536 C   0  0  0  0  0  0  0  0  0  0  0  0
   -5.4930    2.8792    0.8450 C   0  0  0  0  0  0  0  0  0  0  0  0
   -6.8888    2.8828    0.9054 C   0  0  0  0  0  0  0  0  0  0  0  0
   -7.6225    3.8580    0.2272 C   0  0  0  0  0  0  0  0  0  0  0  0
   -9.0042    3.9346    0.2538 O   0  0  0  0  0  0  0  0  0  0  0  0
   -9.6791    3.5729    1.4087 C   0  0  0  0  0  0  0  0  0  0  0  0
   -9.1658    3.7752    2.6835 C   0  0  0  0  0  0  0  0  0  0  0  0
   -9.8876    3.3056    3.7618 C   0  0  0  0  0  0  0  0  0  0  0  0
  -11.0988    2.7290    3.6521 N   0  0  0  0  0  0  0  0  0  0  0  0
  -11.6342    2.6105    2.4097 C   0  0  0  0  0  0  0  0  0  0  0  0
  -12.9719    2.0234    2.4015 C   0  0  0  0  0  0  0  0  0  0  0  0
  -13.7732    1.8191    1.2944 C   0  0  0  0  0  0  0  0  0  0  0  0
  -14.9529    1.2514    1.7143 N   0  0  0  0  0  0  0  0  0  0  0  0
  -14.9506    1.0805    3.0837 C   0  0  0  0  0  0  0  0  0  0  0  0
  -16.0932    0.4992    3.7555 C   0  0  0  0  0  0  0  0  0  0  0  0
  -17.1042    0.1224    3.1862 O   0  0  0  0  0  0  0  0  0  0  0  0
  -15.9405    0.4126    5.0954 O   0  0  0  0  0  0  0  0  0  0  0  0
  -13.7265    1.5563    3.5244 C   0  0  0  0  0  0  0  0  0  0  0  0
  -10.9530    3.0180    1.2626 C   0  0  0  0  0  0  0  0  0  0  0  0
   -6.9423    4.7839   -0.5724 C   0  0  0  0  0  0  0  0  0  0  0  0
   -5.5361    4.7755   -0.6431 C   0  0  0  0  0  0  0  0  0  0  0  0
    0.6116    1.4869   -1.3235 C   0  0  0  0  0  0  0  0  0  0  0  0
    3.2779   -0.3499   -2.5230 H   0  0  0  0  0  0  0  0  0  0  0  0
    3.4264    1.0242   -1.4252 H   0  0  0  0  0  0  0  0  0  0  0  0
    2.8497    1.2622   -3.1031 H   0  0  0  0  0  0  0  0  0  0  0  0
    1.4361   -1.7341   -2.1467 H   0  0  0  0  0  0  0  0  0  0  0  0
   -0.8772   -2.0886   -1.3497 H   0  0  0  0  0  0  0  0  0  0  0  0
   -0.9959    3.3066   -0.3981 H   0  0  0  0  0  0  0  0  0  0  0  0
   -2.9305    4.5123   -0.4859 H   0  0  0  0  0  0  0  0  0  0  0  0
   -4.9451    2.1233    1.4023 H   0  0  0  0  0  0  0  0  0  0  0  0
   -7.3813    2.1079    1.4853 H   0  0  0  0  0  0  0  0  0  0  0  0
   -8.2056    4.2530    2.8510 H   0  0  0  0  0  0  0  0  0  0  0  0
   -9.4952    3.3765    4.7715 H   0  0  0  0  0  0  0  0  0  0  0  0
  -13.6225    2.0209    0.2441 H   0  0  0  0  0  0  0  0  0  0  0  0
  -15.7279    0.9878    1.1198 H   0  0  0  0  0  0  0  0  0  0  0  0
  -15.0879    0.7524    5.4125 H   0  0  0  0  0  0  0  0  0  0  0  0
  -13.3654    1.5840    4.5448 H   0  0  0  0  0  0  0  0  0  0  0  0
  -11.3888    2.9042    0.2761 H   0  0  0  0  0  0  0  0  0  0  0  0
   -7.5065    5.5013   -1.1640 H   0  0  0  0  0  0  0  0  0  0  0  0
   -5.0388    5.4772   -1.3063 H   0  0  0  0  0  0  0  0  0  0  0  0
    1.0472    2.4840   -1.3260 H   0  0  0  0  0  0  0  0  0  0  0  0
  1  2  1  0  0  0  0
  1 34  1  0  0  0  0
  1 35  1  0  0  0  0
  1 36  1  0  0  0  0
  2  3  1  0  0  0  0
  2 33  2  0  0  0  0
  3  4  2  0  0  0  0
  3 37  1  0  0  0  0
  4  5  1  0  0  0  0
  4 38  1  0  0  0  0
  5  6  1  0  0  0  0
  5  7  2  0  0  0  0
  7  8  1  0  0  0  0
  7 33  1  0  0  0  0
  8  9  1  0  0  0  0
  8 39  1  0  0  0  0
  9 10  2  0  0  0  0
  9 11  1  0  0  0  0
 11 12  1  0  0  0  0
 11 40  1  0  0  0  0
 12 13  1  0  0  0  0
 12 32  2  0  0  0  0
 13 14  2  0  0  0  0
 13 41  1  0  0  0  0
 14 15  1  0  0  0  0
 14 42  1  0  0  0  0
 15 16  1  0  0  0  0
 15 31  2  0  0  0  0
 16 17  1  0  0  0  0
 17 18  1  0  0  0  0
 17 30  2  0  0  0  0
 18 19  2  0  0  0  0
 18 43  1  0  0  0  0
 19 20  1  0  0  0  0
 19 44  1  0  0  0  0
 20 21  2  0  0  0  0
 21 22  1  0  0  0  0
 21 30  1  0  0  0  0
 22 23  2  0  0  0  0
 22 29  1  0  0  0  0
 23 24  1  0  0  0  0
 23 45  1  0  0  0  0
 24 25  1  0  0  0  0
 24 46  1  0  0  0  0
 25 26  1  0  0  0  0
 25 29  2  0  0  0  0
 26 27  2  0  0  0  0
 26 28  1  0  0  0  0
 28 47  1  0  0  0  0
 29 48  1  0  0  0  0
 30 49  1  0  0  0  0
 31 32  1  0  0  0  0
 31 50  1  0  0  0  0
 32 51  1  0  0  0  0
 33 52  1  0  0  0  0
M  END
$$$$
