CHEMBL1098158
 OpenBabel04072215363D

 61 65  0  0  0  0  0  0  0  0999 V2000
    0.3646    3.0912   -2.3822 C   0  0  0  0  0  0  0  0  0  0  0  0
    0.1085    1.7406   -2.8138 N   0  0  0  0  0  0  0  0  0  0  0  0
    0.9916    0.8917   -3.4106 C   0  0  0  0  0  0  0  0  0  0  0  0
    0.4665   -0.2997   -3.5898 N   0  0  0  0  0  0  0  0  0  0  0  0
   -0.8203   -0.2005   -3.1146 C   0  0  0  0  0  0  0  0  0  0  0  0
   -1.7892   -1.3305   -3.0909 C   0  0  0  0  0  0  0  0  0  0  0  0
   -1.4717   -2.6288   -3.4151 C   0  0  0  0  0  0  0  0  0  0  0  0
   -2.5780   -3.5119   -3.2492 C   0  0  0  0  0  0  0  0  0  0  0  0
   -2.5497   -4.8570   -3.4541 N   0  0  0  0  0  0  0  0  0  0  0  0
   -3.7016   -5.5099   -3.2196 C   0  0  0  0  0  0  0  0  0  0  0  0
   -4.8868   -4.9199   -2.8251 C   0  0  0  0  0  0  0  0  0  0  0  0
   -4.9359   -3.5314   -2.6944 C   0  0  0  0  0  0  0  0  0  0  0  0
   -6.0889   -2.8367   -2.3882 O   0  0  0  0  0  0  0  0  0  0  0  0
   -7.2481   -3.1660   -3.0535 C   0  0  0  0  0  0  0  0  0  0  0  0
   -7.2779   -3.7760   -4.3066 C   0  0  0  0  0  0  0  0  0  0  0  0
   -8.4828   -4.2449   -4.8234 C   0  0  0  0  0  0  0  0  0  0  0  0
   -9.6817   -4.0439   -4.1359 C   0  0  0  0  0  0  0  0  0  0  0  0
  -10.9019   -4.5820   -4.5979 N   0  0  0  0  0  0  0  0  0  0  0  0
  -10.9979   -5.6816   -5.4386 C   0  0  0  0  0  0  0  0  0  0  0  0
  -10.0741   -6.4239   -5.7404 O   0  0  0  0  0  0  0  0  0  0  0  0
  -12.3333   -5.9260   -5.9496 C   0  0  0  0  0  0  0  0  0  0  0  0
  -13.5599   -5.8584   -5.2794 C   0  0  0  0  0  0  0  0  0  0  0  0
  -14.5867   -6.1330   -6.0738 N   0  0  0  0  0  0  0  0  0  0  0  0
  -14.0365   -6.4276   -7.2822 N   0  0  0  0  0  0  0  0  0  0  0  0
  -14.9856   -6.6415   -8.4029 C   0  0  0  0  0  0  0  0  0  0  0  0
  -15.3483   -5.2675   -8.9966 C   0  0  0  0  0  0  0  0  0  0  0  0
  -14.4725   -7.5696   -9.5198 C   0  0  0  0  0  0  0  0  0  0  0  0
  -16.2937   -7.3066   -7.8923 C   0  0  0  0  0  0  0  0  0  0  0  0
  -12.6598   -6.3088   -7.2506 C   0  0  0  0  0  0  0  0  0  0  0  0
  -11.7700   -6.5136   -8.4165 C   0  0  0  0  0  0  0  0  0  0  0  0
  -10.4713   -6.2087   -8.1879 F   0  0  0  0  0  0  0  0  0  0  0  0
  -11.7943   -7.7959   -8.8545 F   0  0  0  0  0  0  0  0  0  0  0  0
  -12.1420   -5.7216   -9.4553 F   0  0  0  0  0  0  0  0  0  0  0  0
   -9.6765   -3.2749   -2.9707 C   0  0  0  0  0  0  0  0  0  0  0  0
   -8.4580   -2.8603   -2.4292 C   0  0  0  0  0  0  0  0  0  0  0  0
   -8.4664   -2.1859   -1.2695 F   0  0  0  0  0  0  0  0  0  0  0  0
   -3.7320   -2.8330   -2.8567 C   0  0  0  0  0  0  0  0  0  0  0  0
   -3.4241   -1.1606   -2.6447 S   0  0  0  0  0  0  0  0  0  0  0  0
   -1.0660    1.0705   -2.6488 C   0  0  0  0  0  0  0  0  0  0  0  0
    1.3448    3.4123   -2.7380 H   0  0  0  0  0  0  0  0  0  0  0  0
    0.3386    3.1064   -1.2890 H   0  0  0  0  0  0  0  0  0  0  0  0
   -0.4147    3.7416   -2.7879 H   0  0  0  0  0  0  0  0  0  0  0  0
    1.9989    1.1832   -3.6847 H   0  0  0  0  0  0  0  0  0  0  0  0
   -0.4837   -2.9453   -3.7285 H   0  0  0  0  0  0  0  0  0  0  0  0
   -3.6544   -6.5852   -3.3783 H   0  0  0  0  0  0  0  0  0  0  0  0
   -5.7665   -5.5344   -2.6646 H   0  0  0  0  0  0  0  0  0  0  0  0
   -6.3723   -3.9420   -4.8835 H   0  0  0  0  0  0  0  0  0  0  0  0
   -8.4525   -4.7665   -5.7774 H   0  0  0  0  0  0  0  0  0  0  0  0
  -11.7516   -4.1946   -4.2154 H   0  0  0  0  0  0  0  0  0  0  0  0
  -13.7580   -5.6237   -4.2405 H   0  0  0  0  0  0  0  0  0  0  0  0
  -14.4728   -4.7746   -9.4322 H   0  0  0  0  0  0  0  0  0  0  0  0
  -15.7505   -4.5955   -8.2286 H   0  0  0  0  0  0  0  0  0  0  0  0
  -16.1061   -5.3614   -9.7825 H   0  0  0  0  0  0  0  0  0  0  0  0
  -13.6863   -7.1137  -10.1229 H   0  0  0  0  0  0  0  0  0  0  0  0
  -15.2721   -7.8110  -10.2306 H   0  0  0  0  0  0  0  0  0  0  0  0
  -14.0996   -8.5151   -9.1110 H   0  0  0  0  0  0  0  0  0  0  0  0
  -16.8176   -6.6868   -7.1564 H   0  0  0  0  0  0  0  0  0  0  0  0
  -16.0855   -8.2779   -7.4284 H   0  0  0  0  0  0  0  0  0  0  0  0
  -16.9969   -7.4758   -8.7172 H   0  0  0  0  0  0  0  0  0  0  0  0
  -10.5880   -3.0435   -2.4304 H   0  0  0  0  0  0  0  0  0  0  0  0
   -1.9386    1.5253   -2.1946 H   0  0  0  0  0  0  0  0  0  0  0  0
  1  2  1  0  0  0  0
  1 40  1  0  0  0  0
  1 41  1  0  0  0  0
  1 42  1  0  0  0  0
  2  3  1  0  0  0  0
  2 39  1  0  0  0  0
  3  4  2  0  0  0  0
  3 43  1  0  0  0  0
  4  5  1  0  0  0  0
  5  6  1  0  0  0  0
  5 39  2  0  0  0  0
  6  7  2  0  0  0  0
  6 38  1  0  0  0  0
  7  8  1  0  0  0  0
  7 44  1  0  0  0  0
  8  9  1  0  0  0  0
  8 37  2  0  0  0  0
  9 10  2  0  0  0  0
 10 11  1  0  0  0  0
 10 45  1  0  0  0  0
 11 12  2  0  0  0  0
 11 46  1  0  0  0  0
 12 13  1  0  0  0  0
 12 37  1  0  0  0  0
 13 14  1  0  0  0  0
 14 15  1  0  0  0  0
 14 35  2  0  0  0  0
 15 16  2  0  0  0  0
 15 47  1  0  0  0  0
 16 17  1  0  0  0  0
 16 48  1  0  0  0  0
 17 18  1  0  0  0  0
 17 34  2  0  0  0  0
 18 19  1  0  0  0  0
 18 49  1  0  0  0  0
 19 20  2  0  0  0  0
 19 21  1  0  0  0  0
 21 22  1  0  0  0  0
 21 29  2  0  0  0  0
 22 23  2  0  0  0  0
 22 50  1  0  0  0  0
 23 24  1  0  0  0  0
 24 25  1  0  0  0  0
 24 29  1  0  0  0  0
 25 26  1  0  0  0  0
 25 27  1  0  0  0  0
 25 28  1  0  0  0  0
 26 51  1  0  0  0  0
 26 52  1  0  0  0  0
 26 53  1  0  0  0  0
 27 54  1  0  0  0  0
 27 55  1  0  0  0  0
 27 56  1  0  0  0  0
 28 57  1  0  0  0  0
 28 58  1  0  0  0  0
 28 59  1  0  0  0  0
 29 30  1  0  0  0  0
 30 31  1  0  0  0  0
 30 32  1  0  0  0  0
 30 33  1  0  0  0  0
 34 35  1  0  0  0  0
 34 60  1  0  0  0  0
 35 36  1  0  0  0  0
 37 38  1  0  0  0  0
 39 61  1  0  0  0  0
M  END
$$$$
