CHEMBL1997041
 OpenBabel04072215363D

 27 29  0  0  0  0  0  0  0  0999 V2000
    1.5491    1.7687   -0.0027 C   0  0  0  0  0  0  0  0  0  0  0  0
    0.3713    0.8438   -0.0083 C   0  0  0  0  0  0  0  0  0  0  0  0
   -0.9443    1.3348   -0.0164 C   0  0  0  0  0  0  0  0  0  0  0  0
   -2.0627    0.4737   -0.0212 C   0  0  0  0  0  0  0  0  0  0  0  0
   -3.4254    1.0288    0.0009 C   0  0  0  0  0  0  0  0  0  0  0  0
   -3.6285    2.2214   -0.6304 N   0  0  0  0  0  0  0  0  0  0  0  0
   -4.8615    2.7589   -0.6094 C   0  0  0  0  0  0  0  0  0  0  0  0
   -5.9654    2.2722   -0.0214 N   0  0  0  0  0  0  0  0  0  0  0  0
   -5.7191    1.1098    0.5992 C   0  0  0  0  0  0  0  0  0  0  0  0
   -6.6568    0.3976    1.2937 N   0  0  0  0  0  0  0  0  0  0  0  0
   -6.0861   -0.7307    1.8198 C   0  0  0  0  0  0  0  0  0  0  0  0
   -4.7550   -0.7302    1.4611 C   0  0  0  0  0  0  0  0  0  0  0  0
   -4.5103    0.4295    0.6658 C   0  0  0  0  0  0  0  0  0  0  0  0
   -1.8106   -0.9102   -0.0584 C   0  0  0  0  0  0  0  0  0  0  0  0
   -0.5067   -1.4126   -0.0353 C   0  0  0  0  0  0  0  0  0  0  0  0
    0.5682   -0.5354   -0.0051 C   0  0  0  0  0  0  0  0  0  0  0  0
    1.8124   -1.0342    0.0181 F   0  0  0  0  0  0  0  0  0  0  0  0
    1.2369    2.8180   -0.0175 H   0  0  0  0  0  0  0  0  0  0  0  0
    2.1712    1.5924   -0.8863 H   0  0  0  0  0  0  0  0  0  0  0  0
    2.1502    1.6093    0.8981 H   0  0  0  0  0  0  0  0  0  0  0  0
   -1.1080    2.4130   -0.0157 H   0  0  0  0  0  0  0  0  0  0  0  0
   -4.9771    3.7054   -1.1303 H   0  0  0  0  0  0  0  0  0  0  0  0
   -7.6179    0.6898    1.3986 H   0  0  0  0  0  0  0  0  0  0  0  0
   -6.6689   -1.4271    2.4086 H   0  0  0  0  0  0  0  0  0  0  0  0
   -4.0393   -1.4893    1.7477 H   0  0  0  0  0  0  0  0  0  0  0  0
   -2.6294   -1.6218   -0.1225 H   0  0  0  0  0  0  0  0  0  0  0  0
   -0.3259   -2.4825   -0.0463 H   0  0  0  0  0  0  0  0  0  0  0  0
  1  2  1  0  0  0  0
  1 18  1  0  0  0  0
  1 19  1  0  0  0  0
  1 20  1  0  0  0  0
  2  3  1  0  0  0  0
  2 16  2  0  0  0  0
  3  4  2  0  0  0  0
  3 21  1  0  0  0  0
  4  5  1  0  0  0  0
  4 14  1  0  0  0  0
  5  6  1  0  0  0  0
  5 13  2  0  0  0  0
  6  7  2  0  0  0  0
  7  8  1  0  0  0  0
  7 22  1  0  0  0  0
  8  9  2  0  0  0  0
  9 10  1  0  0  0  0
  9 13  1  0  0  0  0
 10 11  1  0  0  0  0
 10 23  1  0  0  0  0
 11 12  2  0  0  0  0
 11 24  1  0  0  0  0
 12 13  1  0  0  0  0
 12 25  1  0  0  0  0
 14 15  2  0  0  0  0
 14 26  1  0  0  0  0
 15 16  1  0  0  0  0
 15 27  1  0  0  0  0
 16 17  1  0  0  0  0
M  END
$$$$
