CHEMBL3920116
 OpenBabel04072215373D

 42 45  0  0  0  0  0  0  0  0999 V2000
    2.4180   -1.4784    0.0372 C   0  0  0  0  0  0  0  0  0  0  0  0
    1.9338   -2.7291    0.5701 N   0  0  0  0  0  0  0  0  0  0  0  0
    2.8131   -3.5523    1.1823 N   0  0  0  0  0  0  0  0  0  0  0  0
    2.0560   -4.5650    1.6006 C   0  0  0  0  0  0  0  0  0  0  0  0
    0.7059   -4.3998    1.2590 C   0  0  0  0  0  0  0  0  0  0  0  0
    0.6385   -3.2029    0.5739 C   0  0  0  0  0  0  0  0  0  0  0  0
   -0.3946   -2.5534   -0.0243 N   0  0  0  0  0  0  0  0  0  0  0  0
   -1.7491   -2.8963    0.0815 C   0  0  0  0  0  0  0  0  0  0  0  0
   -2.5555   -2.4868   -0.9121 N   0  0  0  0  0  0  0  0  0  0  0  0
   -3.8542   -2.8657   -0.8448 C   0  0  0  0  0  0  0  0  0  0  0  0
   -4.3904   -3.6002    0.1893 C   0  0  0  0  0  0  0  0  0  0  0  0
   -3.4978   -3.8994    1.2013 C   0  0  0  0  0  0  0  0  0  0  0  0
   -2.1914   -3.5786    1.1431 N   0  0  0  0  0  0  0  0  0  0  0  0
   -3.9271   -4.6744    2.4172 C   0  0  0  0  0  0  0  0  0  0  0  0
   -5.4430   -4.6220    2.5849 C   0  0  0  0  0  0  0  0  0  0  0  0
   -6.0714   -4.9842    1.3146 N   0  0  0  0  0  0  0  0  0  0  0  0
   -6.8025   -6.1381    1.0248 C   0  0  0  0  0  0  0  0  0  0  0  0
   -7.4276   -6.2513   -0.0306 O   0  0  0  0  0  0  0  0  0  0  0  0
   -6.8596   -7.2912    1.9660 C   0  0  0  0  0  0  0  0  0  0  0  0
   -5.8090   -7.7036    2.7871 C   0  0  0  0  0  0  0  0  0  0  0  0
   -5.9545   -8.8069    3.6268 C   0  0  0  0  0  0  0  0  0  0  0  0
   -7.1417   -9.5121    3.5773 C   0  0  0  0  0  0  0  0  0  0  0  0
   -8.1647   -9.1860    2.7608 N   0  0  0  0  0  0  0  0  0  0  0  0
   -7.9972   -8.0916    1.9688 C   0  0  0  0  0  0  0  0  0  0  0  0
   -5.8387   -4.0015    0.2500 C   0  0  0  0  0  0  0  0  0  0  0  0
    3.4365   -1.3027    0.3961 H   0  0  0  0  0  0  0  0  0  0  0  0
    1.7684   -0.6707    0.3819 H   0  0  0  0  0  0  0  0  0  0  0  0
    2.4147   -1.5467   -1.0527 H   0  0  0  0  0  0  0  0  0  0  0  0
    2.5185   -5.3877    2.1317 H   0  0  0  0  0  0  0  0  0  0  0  0
   -0.1101   -5.0779    1.4589 H   0  0  0  0  0  0  0  0  0  0  0  0
   -0.2720   -1.9154   -0.7975 H   0  0  0  0  0  0  0  0  0  0  0  0
   -4.4643   -2.5472   -1.6857 H   0  0  0  0  0  0  0  0  0  0  0  0
   -3.4348   -4.2857    3.3141 H   0  0  0  0  0  0  0  0  0  0  0  0
   -3.5793   -5.7003    2.2641 H   0  0  0  0  0  0  0  0  0  0  0  0
   -5.7613   -3.5989    2.8269 H   0  0  0  0  0  0  0  0  0  0  0  0
   -5.7888   -5.2448    3.4110 H   0  0  0  0  0  0  0  0  0  0  0  0
   -4.8524   -7.2059    2.7812 H   0  0  0  0  0  0  0  0  0  0  0  0
   -5.1515   -9.1116    4.2888 H   0  0  0  0  0  0  0  0  0  0  0  0
   -7.2968  -10.3888    4.1994 H   0  0  0  0  0  0  0  0  0  0  0  0
   -8.8358   -7.8835    1.3079 H   0  0  0  0  0  0  0  0  0  0  0  0
   -6.4462   -3.1191    0.4877 H   0  0  0  0  0  0  0  0  0  0  0  0
   -6.1623   -4.3900   -0.7215 H   0  0  0  0  0  0  0  0  0  0  0  0
  1  2  1  0  0  0  0
  1 26  1  0  0  0  0
  1 27  1  0  0  0  0
  1 28  1  0  0  0  0
  2  3  1  0  0  0  0
  2  6  1  0  0  0  0
  3  4  2  0  0  0  0
  4  5  1  0  0  0  0
  4 29  1  0  0  0  0
  5  6  2  0  0  0  0
  5 30  1  0  0  0  0
  6  7  1  0  0  0  0
  7  8  1  0  0  0  0
  7 31  1  0  0  0  0
  8  9  1  0  0  0  0
  8 13  2  0  0  0  0
  9 10  2  0  0  0  0
 10 11  1  0  0  0  0
 10 32  1  0  0  0  0
 11 12  2  0  0  0  0
 11 25  1  0  0  0  0
 12 13  1  0  0  0  0
 12 14  1  0  0  0  0
 14 15  1  0  0  0  0
 14 33  1  0  0  0  0
 14 34  1  0  0  0  0
 15 16  1  0  0  0  0
 15 35  1  0  0  0  0
 15 36  1  0  0  0  0
 16 17  1  0  0  0  0
 16 25  1  0  0  0  0
 17 18  2  0  0  0  0
 17 19  1  0  0  0  0
 19 20  1  0  0  0  0
 19 24  2  0  0  0  0
 20 21  2  0  0  0  0
 20 37  1  0  0  0  0
 21 22  1  0  0  0  0
 21 38  1  0  0  0  0
 22 23  2  0  0  0  0
 22 39  1  0  0  0  0
 23 24  1  0  0  0  0
 24 40  1  0  0  0  0
 25 41  1  0  0  0  0
 25 42  1  0  0  0  0
M  END
$$$$
