CHEMBL3976600
 OpenBabel04072215373D

 58 61  0  0  0  0  0  0  0  0999 V2000
    2.5471    0.2355    0.0704 C   0  0  0  0  0  0  0  0  0  0  0  0
    1.0469    0.1061    0.1078 C   0  0  0  0  0  0  0  0  0  0  0  0
    0.3120    1.3049    0.1930 C   0  0  0  0  0  0  0  0  0  0  0  0
   -1.0793    1.3076    0.1831 C   0  0  0  0  0  0  0  0  0  0  0  0
   -1.7668    0.1105    0.0022 C   0  0  0  0  0  0  0  0  0  0  0  0
   -3.1424    0.0280   -0.1100 O   0  0  0  0  0  0  0  0  0  0  0  0
   -3.8271    1.0311   -0.7687 C   0  0  0  0  0  0  0  0  0  0  0  0
   -3.2958    1.7389   -1.8446 C   0  0  0  0  0  0  0  0  0  0  0  0
   -4.0348    2.7819   -2.3515 C   0  0  0  0  0  0  0  0  0  0  0  0
   -5.2634    3.0997   -1.9092 N   0  0  0  0  0  0  0  0  0  0  0  0
   -5.8197    2.3625   -0.9320 C   0  0  0  0  0  0  0  0  0  0  0  0
   -7.1232    2.6631   -0.5001 N   0  0  0  0  0  0  0  0  0  0  0  0
   -7.8652    3.7232   -0.9881 C   0  0  0  0  0  0  0  0  0  0  0  0
   -7.5208    4.5495   -1.8206 O   0  0  0  0  0  0  0  0  0  0  0  0
   -9.2361    3.9042   -0.4221 C   0  0  0  0  0  0  0  0  0  0  0  0
   -9.3841    4.2650    1.0388 C   0  0  0  0  0  0  0  0  0  0  0  0
   -9.9766    2.9877    0.5145 C   0  0  0  0  0  0  0  0  0  0  0  0
   -5.1273    1.3117   -0.3349 C   0  0  0  0  0  0  0  0  0  0  0  0
   -1.0533   -1.0919   -0.0254 C   0  0  0  0  0  0  0  0  0  0  0  0
    0.3552   -1.1272    0.0297 C   0  0  0  0  0  0  0  0  0  0  0  0
    1.0769   -2.3690    0.0436 N   0  0  0  0  0  0  0  0  0  0  0  0
    0.5217   -3.6336   -0.1047 C   0  0  0  0  0  0  0  0  0  0  0  0
   -0.6382   -3.8683   -0.4263 O   0  0  0  0  0  0  0  0  0  0  0  0
    1.4220   -4.6502    0.2170 N   0  0  0  0  0  0  0  0  0  0  0  0
    1.0128   -6.0125    0.1725 C   0  0  0  0  0  0  0  0  0  0  0  0
    1.3225   -6.8474    1.2496 C   0  0  0  0  0  0  0  0  0  0  0  0
    0.8335   -8.1574    1.2810 C   0  0  0  0  0  0  0  0  0  0  0  0
    0.0870   -8.6509    0.2136 C   0  0  0  0  0  0  0  0  0  0  0  0
   -0.3854   -9.9030    0.2866 F   0  0  0  0  0  0  0  0  0  0  0  0
   -0.1772   -7.8659   -0.9065 C   0  0  0  0  0  0  0  0  0  0  0  0
   -0.9329   -8.4427   -2.0768 C   0  0  0  0  0  0  0  0  0  0  0  0
   -2.4410   -8.3141   -1.9235 C   0  0  0  0  0  0  0  0  0  0  0  0
   -0.5918   -7.8347   -3.2543 F   0  0  0  0  0  0  0  0  0  0  0  0
   -0.6522   -9.7650   -2.2823 F   0  0  0  0  0  0  0  0  0  0  0  0
    0.2803   -6.5334   -0.9084 C   0  0  0  0  0  0  0  0  0  0  0  0
    2.8576    1.2712    0.2612 H   0  0  0  0  0  0  0  0  0  0  0  0
    2.9281   -0.0348   -0.9194 H   0  0  0  0  0  0  0  0  0  0  0  0
    3.0202   -0.3809    0.8389 H   0  0  0  0  0  0  0  0  0  0  0  0
    0.8236    2.2645    0.2582 H   0  0  0  0  0  0  0  0  0  0  0  0
   -1.6084    2.2504    0.2769 H   0  0  0  0  0  0  0  0  0  0  0  0
   -2.3204    1.5198   -2.2611 H   0  0  0  0  0  0  0  0  0  0  0  0
   -3.6503    3.4212   -3.1395 H   0  0  0  0  0  0  0  0  0  0  0  0
   -7.5218    2.0814    0.2170 H   0  0  0  0  0  0  0  0  0  0  0  0
   -9.8716    4.4571   -1.1128 H   0  0  0  0  0  0  0  0  0  0  0  0
  -10.0460    5.0908    1.2755 H   0  0  0  0  0  0  0  0  0  0  0  0
   -8.5114    4.2025    1.6784 H   0  0  0  0  0  0  0  0  0  0  0  0
  -11.0574    2.9486    0.4097 H   0  0  0  0  0  0  0  0  0  0  0  0
   -9.5455    2.0486    0.8271 H   0  0  0  0  0  0  0  0  0  0  0  0
   -5.5655    0.7206    0.4609 H   0  0  0  0  0  0  0  0  0  0  0  0
   -1.6457   -1.9972   -0.1047 H   0  0  0  0  0  0  0  0  0  0  0  0
    2.0806   -2.3107    0.0682 H   0  0  0  0  0  0  0  0  0  0  0  0
    2.0797   -4.4085    0.9445 H   0  0  0  0  0  0  0  0  0  0  0  0
    1.8821   -6.4784    2.1042 H   0  0  0  0  0  0  0  0  0  0  0  0
    1.0151   -8.7977    2.1396 H   0  0  0  0  0  0  0  0  0  0  0  0
   -2.7508   -7.2646   -1.8979 H   0  0  0  0  0  0  0  0  0  0  0  0
   -2.8015   -8.8134   -1.0185 H   0  0  0  0  0  0  0  0  0  0  0  0
   -2.9419   -8.7839   -2.7777 H   0  0  0  0  0  0  0  0  0  0  0  0
    0.0640   -5.9026   -1.7702 H   0  0  0  0  0  0  0  0  0  0  0  0
  1  2  1  0  0  0  0
  1 36  1  0  0  0  0
  1 37  1  0  0  0  0
  1 38  1  0  0  0  0
  2  3  1  0  0  0  0
  2 20  2  0  0  0  0
  3  4  2  0  0  0  0
  3 39  1  0  0  0  0
  4  5  1  0  0  0  0
  4 40  1  0  0  0  0
  5  6  1  0  0  0  0
  5 19  2  0  0  0  0
  6  7  1  0  0  0  0
  7  8  1  0  0  0  0
  7 18  2  0  0  0  0
  8  9  2  0  0  0  0
  8 41  1  0  0  0  0
  9 10  1  0  0  0  0
  9 42  1  0  0  0  0
 10 11  2  0  0  0  0
 11 12  1  0  0  0  0
 11 18  1  0  0  0  0
 12 13  1  0  0  0  0
 12 43  1  0  0  0  0
 13 14  2  0  0  0  0
 13 15  1  0  0  0  0
 15 16  1  0  0  0  0
 15 17  1  0  0  0  0
 15 44  1  0  0  0  0
 16 17  1  0  0  0  0
 16 45  1  0  0  0  0
 16 46  1  0  0  0  0
 17 47  1  0  0  0  0
 17 48  1  0  0  0  0
 18 49  1  0  0  0  0
 19 20  1  0  0  0  0
 19 50  1  0  0  0  0
 20 21  1  0  0  0  0
 21 22  1  0  0  0  0
 21 51  1  0  0  0  0
 22 23  2  0  0  0  0
 22 24  1  0  0  0  0
 24 25  1  0  0  0  0
 24 52  1  0  0  0  0
 25 26  1  0  0  0  0
 25 35  2  0  0  0  0
 26 27  2  0  0  0  0
 26 53  1  0  0  0  0
 27 28  1  0  0  0  0
 27 54  1  0  0  0  0
 28 29  1  0  0  0  0
 28 30  2  0  0  0  0
 30 31  1  0  0  0  0
 30 35  1  0  0  0  0
 31 32  1  0  0  0  0
 31 33  1  0  0  0  0
 31 34  1  0  0  0  0
 32 55  1  0  0  0  0
 32 56  1  0  0  0  0
 32 57  1  0  0  0  0
 35 58  1  0  0  0  0
M  END
$$$$
