CHEMBL3220327
 OpenBabel04072215363D

 82 85  0  0  0  0  0  0  0  0999 V2000
    0.0026    0.6984    1.8283 C   0  0  0  0  0  0  0  0  0  0  0  0
    0.9421    0.1349    0.9178 O   0  0  0  0  0  0  0  0  0  0  0  0
    1.4791    0.9916   -0.0145 C   0  0  0  0  0  0  0  0  0  0  0  0
    1.6132    2.3566    0.2359 C   0  0  0  0  0  0  0  0  0  0  0  0
    2.2693    3.2479   -0.6376 C   0  0  0  0  0  0  0  0  0  0  0  0
    2.4095    4.6814   -0.3052 C   0  0  0  0  0  0  0  0  0  0  0  0
    2.4264    5.0077    1.0750 C   0  0  0  0  0  0  0  0  0  0  0  0
    2.6486    6.2637    1.5904 C   0  0  0  0  0  0  0  0  0  0  0  0
    2.6446    6.5021    3.0029 N   0  0  0  0  0  0  0  0  0  0  0  0
    2.8666    5.5172    3.9595 C   0  0  0  0  0  0  0  0  0  0  0  0
    3.0516    4.3355    3.7279 O   0  0  0  0  0  0  0  0  0  0  0  0
    2.9028    6.0050    5.2696 N   0  0  0  0  0  0  0  0  0  0  0  0
    3.0447    5.0547    6.3250 C   0  0  0  0  0  0  0  0  0  0  0  0
    4.3603    4.7901    6.7794 C   0  0  0  0  0  0  0  0  0  0  0  0
    4.5901    3.9450    7.8703 C   0  0  0  0  0  0  0  0  0  0  0  0
    5.8277    3.6596    8.4096 O   0  0  0  0  0  0  0  0  0  0  0  0
    6.7888    4.6971    8.1959 C   0  0  0  0  0  0  0  0  0  0  0  0
    7.8836    4.7029    9.2772 C   0  0  0  0  0  0  0  0  0  0  0  0
    8.8707    5.8007    9.1083 N   0  0  0  0  0  0  0  0  0  0  0  0
    9.8644    5.7625   10.1944 C   0  0  0  0  0  0  0  0  0  0  0  0
   10.8563    6.9250   10.0859 C   0  0  0  0  0  0  0  0  0  0  0  0
   11.5528    6.9402    8.7311 C   0  0  0  0  0  0  0  0  0  0  0  0
   10.5211    6.9301    7.6141 C   0  0  0  0  0  0  0  0  0  0  0  0
    9.5337    5.7759    7.7937 C   0  0  0  0  0  0  0  0  0  0  0  0
    3.5137    3.3276    8.5140 C   0  0  0  0  0  0  0  0  0  0  0  0
    2.2211    3.5569    8.0516 C   0  0  0  0  0  0  0  0  0  0  0  0
    1.9779    4.3959    6.9374 C   0  0  0  0  0  0  0  0  0  0  0  0
    0.5940    4.4058    6.3505 C   0  0  0  0  0  0  0  0  0  0  0  0
    2.8922    7.2792    0.6692 C   0  0  0  0  0  0  0  0  0  0  0  0
    2.8995    7.0099   -0.7112 C   0  0  0  0  0  0  0  0  0  0  0  0
    3.0980    8.0266   -1.6205 O   0  0  0  0  0  0  0  0  0  0  0  0
    4.1499    8.9330   -1.3426 C   0  0  0  0  0  0  0  0  0  0  0  0
    2.6250    5.7314   -1.2300 C   0  0  0  0  0  0  0  0  0  0  0  0
    2.5046    5.4662   -2.5852 O   0  0  0  0  0  0  0  0  0  0  0  0
    3.2245    6.3199   -3.4782 C   0  0  0  0  0  0  0  0  0  0  0  0
    2.8990    2.6961   -1.7390 C   0  0  0  0  0  0  0  0  0  0  0  0
    2.7440    1.3333   -2.0379 C   0  0  0  0  0  0  0  0  0  0  0  0
    1.9891    0.4781   -1.2137 C   0  0  0  0  0  0  0  0  0  0  0  0
    1.7060   -0.9144   -1.6705 C   0  0  0  0  0  0  0  0  0  0  0  0
    0.3975   -1.5908   -1.2620 C   0  0  0  0  0  0  0  0  0  0  0  0
    2.5532   -1.5142   -2.4670 N   0  0  0  0  0  0  0  0  0  0  0  0
    2.1133   -2.7960   -2.8009 O   0  0  0  0  0  0  0  0  0  0  0  0
   -0.3644   -0.1140    2.4743 H   0  0  0  0  0  0  0  0  0  0  0  0
   -0.8550    1.1169    1.2868 H   0  0  0  0  0  0  0  0  0  0  0  0
    0.4500    1.4426    2.4959 H   0  0  0  0  0  0  0  0  0  0  0  0
    1.2156    2.7298    1.1736 H   0  0  0  0  0  0  0  0  0  0  0  0
    2.2670    4.2047    1.7807 H   0  0  0  0  0  0  0  0  0  0  0  0
    2.6514    7.4639    3.2940 H   0  0  0  0  0  0  0  0  0  0  0  0
    2.2555    6.7562    5.4463 H   0  0  0  0  0  0  0  0  0  0  0  0
    5.1813    5.2651    6.2549 H   0  0  0  0  0  0  0  0  0  0  0  0
    6.2960    5.6753    8.2375 H   0  0  0  0  0  0  0  0  0  0  0  0
    7.2299    4.5339    7.2067 H   0  0  0  0  0  0  0  0  0  0  0  0
    8.3739    3.7217    9.3237 H   0  0  0  0  0  0  0  0  0  0  0  0
    7.3797    4.8315   10.2455 H   0  0  0  0  0  0  0  0  0  0  0  0
   10.4126    4.8112   10.1853 H   0  0  0  0  0  0  0  0  0  0  0  0
    9.3595    5.8384   11.1648 H   0  0  0  0  0  0  0  0  0  0  0  0
   11.6054    6.8478   10.8822 H   0  0  0  0  0  0  0  0  0  0  0  0
   10.3260    7.8737   10.2342 H   0  0  0  0  0  0  0  0  0  0  0  0
   12.1979    6.0583    8.6384 H   0  0  0  0  0  0  0  0  0  0  0  0
   12.1968    7.8222    8.6422 H   0  0  0  0  0  0  0  0  0  0  0  0
   11.0258    6.8308    6.6460 H   0  0  0  0  0  0  0  0  0  0  0  0
    9.9818    7.8859    7.5945 H   0  0  0  0  0  0  0  0  0  0  0  0
   10.0615    4.8243    7.6452 H   0  0  0  0  0  0  0  0  0  0  0  0
    8.7983    5.8784    6.9904 H   0  0  0  0  0  0  0  0  0  0  0  0
    3.6930    2.6773    9.3646 H   0  0  0  0  0  0  0  0  0  0  0  0
    1.3987    3.0455    8.5526 H   0  0  0  0  0  0  0  0  0  0  0  0
   -0.1078    3.8160    6.9549 H   0  0  0  0  0  0  0  0  0  0  0  0
    0.6201    3.9409    5.3582 H   0  0  0  0  0  0  0  0  0  0  0  0
    0.2017    5.4223    6.2731 H   0  0  0  0  0  0  0  0  0  0  0  0
    3.1065    8.2895    1.0150 H   0  0  0  0  0  0  0  0  0  0  0  0
    4.4656    9.3785   -2.2932 H   0  0  0  0  0  0  0  0  0  0  0  0
    5.0285    8.4679   -0.8814 H   0  0  0  0  0  0  0  0  0  0  0  0
    3.7393    9.7266   -0.7169 H   0  0  0  0  0  0  0  0  0  0  0  0
    3.3341    5.8173   -4.4424 H   0  0  0  0  0  0  0  0  0  0  0  0
    4.2420    6.5180   -3.1102 H   0  0  0  0  0  0  0  0  0  0  0  0
    2.6729    7.2482   -3.6844 H   0  0  0  0  0  0  0  0  0  0  0  0
    3.5099    3.3061   -2.3868 H   0  0  0  0  0  0  0  0  0  0  0  0
    3.2219    0.9542   -2.9445 H   0  0  0  0  0  0  0  0  0  0  0  0
   -0.2451   -0.9844   -0.6310 H   0  0  0  0  0  0  0  0  0  0  0  0
    0.6277   -2.5232   -0.7287 H   0  0  0  0  0  0  0  0  0  0  0  0
   -0.1858   -1.8200   -2.1541 H   0  0  0  0  0  0  0  0  0  0  0  0
    2.8341   -3.1381   -3.3623 H   0  0  0  0  0  0  0  0  0  0  0  0
  1  2  1  0  0  0  0
  1 43  1  0  0  0  0
  1 44  1  0  0  0  0
  1 45  1  0  0  0  0
  2  3  1  0  0  0  0
  3  4  1  0  0  0  0
  3 38  2  0  0  0  0
  4  5  2  0  0  0  0
  4 46  1  0  0  0  0
  5  6  1  0  0  0  0
  5 36  1  0  0  0  0
  6  7  1  0  0  0  0
  6 33  2  0  0  0  0
  7  8  2  0  0  0  0
  7 47  1  0  0  0  0
  8  9  1  0  0  0  0
  8 29  1  0  0  0  0
  9 10  1  0  0  0  0
  9 48  1  0  0  0  0
 10 11  2  0  0  0  0
 10 12  1  0  0  0  0
 12 13  1  0  0  0  0
 12 49  1  0  0  0  0
 13 14  1  0  0  0  0
 13 27  2  0  0  0  0
 14 15  2  0  0  0  0
 14 50  1  0  0  0  0
 15 16  1  0  0  0  0
 15 25  1  0  0  0  0
 16 17  1  0  0  0  0
 17 18  1  0  0  0  0
 17 51  1  0  0  0  0
 17 52  1  0  0  0  0
 18 19  1  0  0  0  0
 18 53  1  0  0  0  0
 18 54  1  0  0  0  0
 19 20  1  0  0  0  0
 19 24  1  0  0  0  0
 20 21  1  0  0  0  0
 20 55  1  0  0  0  0
 20 56  1  0  0  0  0
 21 22  1  0  0  0  0
 21 57  1  0  0  0  0
 21 58  1  0  0  0  0
 22 23  1  0  0  0  0
 22 59  1  0  0  0  0
 22 60  1  0  0  0  0
 23 24  1  0  0  0  0
 23 61  1  0  0  0  0
 23 62  1  0  0  0  0
 24 63  1  0  0  0  0
 24 64  1  0  0  0  0
 25 26  2  0  0  0  0
 25 65  1  0  0  0  0
 26 27  1  0  0  0  0
 26 66  1  0  0  0  0
 27 28  1  0  0  0  0
 28 67  1  0  0  0  0
 28 68  1  0  0  0  0
 28 69  1  0  0  0  0
 29 30  2  0  0  0  0
 29 70  1  0  0  0  0
 30 31  1  0  0  0  0
 30 33  1  0  0  0  0
 31 32  1  0  0  0  0
 32 71  1  0  0  0  0
 32 72  1  0  0  0  0
 32 73  1  0  0  0  0
 33 34  1  0  0  0  0
 34 35  1  0  0  0  0
 35 74  1  0  0  0  0
 35 75  1  0  0  0  0
 35 76  1  0  0  0  0
 36 37  2  0  0  0  0
 36 77  1  0  0  0  0
 37 38  1  0  0  0  0
 37 78  1  0  0  0  0
 38 39  1  0  0  0  0
 39 40  1  0  0  0  0
 39 41  2  0  0  0  0
 40 79  1  0  0  0  0
 40 80  1  0  0  0  0
 40 81  1  0  0  0  0
 41 42  1  0  0  0  0
 42 82  1  0  0  0  0
M  END
$$$$
