CHEMBL3671521
 OpenBabel04072215373D

 56 58  0  0  0  0  0  0  0  0999 V2000
    3.5163   -3.6033   -1.7509 C   0  0  0  0  0  0  0  0  0  0  0  0
    3.5426   -2.3012   -2.0585 C   0  0  0  0  0  0  0  0  0  0  0  0
    3.7228   -1.2983   -0.9753 C   0  0  0  0  0  0  0  0  0  0  0  0
    3.2990   -1.4798    0.1619 O   0  0  0  0  0  0  0  0  0  0  0  0
    4.4295   -0.1587   -1.2853 N   0  0  0  0  0  0  0  0  0  0  0  0
    5.2658   -0.0616   -2.4125 C   0  0  0  0  0  0  0  0  0  0  0  0
    6.3859   -0.8927   -2.4703 C   0  0  0  0  0  0  0  0  0  0  0  0
    7.0954   -1.0491   -3.6793 C   0  0  0  0  0  0  0  0  0  0  0  0
    8.1301   -1.9734   -3.8777 C   0  0  0  0  0  0  0  0  0  0  0  0
    8.4886   -2.8767   -2.8453 N   0  0  0  0  0  0  0  0  0  0  0  0
    9.2300   -4.0636   -3.0652 C   0  0  0  0  0  0  0  0  0  0  0  0
    8.9256   -4.9128   -4.1393 C   0  0  0  0  0  0  0  0  0  0  0  0
    9.7296   -6.0155   -4.4303 C   0  0  0  0  0  0  0  0  0  0  0  0
   10.8344   -6.2924   -3.6286 C   0  0  0  0  0  0  0  0  0  0  0  0
   11.9736   -7.7304   -4.0813 Br  0  0  0  0  0  0  0  0  0  0  0  0
   11.1161   -5.5050   -2.5141 C   0  0  0  0  0  0  0  0  0  0  0  0
   10.3064   -4.4063   -2.2381 C   0  0  0  0  0  0  0  0  0  0  0  0
   10.5934   -3.6360   -1.1768 F   0  0  0  0  0  0  0  0  0  0  0  0
    8.7555   -2.0814   -5.0683 N   0  0  0  0  0  0  0  0  0  0  0  0
    8.3340   -1.2945   -6.0586 C   0  0  0  0  0  0  0  0  0  0  0  0
    7.3306   -0.4201   -5.9890 N   0  0  0  0  0  0  0  0  0  0  0  0
    6.7102   -0.3143   -4.8089 C   0  0  0  0  0  0  0  0  0  0  0  0
    5.6253    0.5529   -4.7101 C   0  0  0  0  0  0  0  0  0  0  0  0
    4.9032    0.7103   -3.5223 C   0  0  0  0  0  0  0  0  0  0  0  0
    3.8484    1.5874   -3.6003 O   0  0  0  0  0  0  0  0  0  0  0  0
    3.5639    2.3055   -2.3939 C   0  0  0  0  0  0  0  0  0  0  0  0
    3.0370    3.7087   -2.7095 C   0  0  0  0  0  0  0  0  0  0  0  0
    2.8592    4.5032   -1.5015 N   0  0  0  0  0  0  0  0  0  0  0  0
    3.9464    5.0645   -0.8600 C   0  0  0  0  0  0  0  0  0  0  0  0
    5.0846    4.9915   -1.3133 O   0  0  0  0  0  0  0  0  0  0  0  0
    3.6191    5.7565    0.4620 C   0  0  0  0  0  0  0  0  0  0  0  0
    3.1890    4.7328    1.5122 C   0  0  0  0  0  0  0  0  0  0  0  0
    4.8323    6.5414    0.9694 C   0  0  0  0  0  0  0  0  0  0  0  0
    3.4534   -4.3569   -2.5279 H   0  0  0  0  0  0  0  0  0  0  0  0
    3.5798   -3.9412   -0.7202 H   0  0  0  0  0  0  0  0  0  0  0  0
    3.5026   -1.9652   -3.0881 H   0  0  0  0  0  0  0  0  0  0  0  0
    4.7806    0.2584   -0.4287 H   0  0  0  0  0  0  0  0  0  0  0  0
    6.6598   -1.4794   -1.5963 H   0  0  0  0  0  0  0  0  0  0  0  0
    8.8119   -2.3777   -2.0193 H   0  0  0  0  0  0  0  0  0  0  0  0
    8.0745   -4.6935   -4.7802 H   0  0  0  0  0  0  0  0  0  0  0  0
    9.4957   -6.6284   -5.2971 H   0  0  0  0  0  0  0  0  0  0  0  0
   11.9666   -5.7159   -1.8752 H   0  0  0  0  0  0  0  0  0  0  0  0
    8.8517   -1.3877   -7.0077 H   0  0  0  0  0  0  0  0  0  0  0  0
    5.3158    1.1033   -5.5973 H   0  0  0  0  0  0  0  0  0  0  0  0
    4.4598    2.4068   -1.7700 H   0  0  0  0  0  0  0  0  0  0  0  0
    2.7933    1.7614   -1.8355 H   0  0  0  0  0  0  0  0  0  0  0  0
    2.0717    3.6533   -3.2227 H   0  0  0  0  0  0  0  0  0  0  0  0
    3.7311    4.2280   -3.3786 H   0  0  0  0  0  0  0  0  0  0  0  0
    1.9496    4.5245   -1.0568 H   0  0  0  0  0  0  0  0  0  0  0  0
    2.7982    6.4645    0.2854 H   0  0  0  0  0  0  0  0  0  0  0  0
    3.9361    3.9388    1.6232 H   0  0  0  0  0  0  0  0  0  0  0  0
    2.2412    4.2576    1.2407 H   0  0  0  0  0  0  0  0  0  0  0  0
    3.0510    5.2075    2.4907 H   0  0  0  0  0  0  0  0  0  0  0  0
    5.6990    5.8861    1.1175 H   0  0  0  0  0  0  0  0  0  0  0  0
    4.6146    7.0334    1.9228 H   0  0  0  0  0  0  0  0  0  0  0  0
    5.1214    7.3131    0.2485 H   0  0  0  0  0  0  0  0  0  0  0  0
  1  2  2  0  0  0  0
  1 34  1  0  0  0  0
  1 35  1  0  0  0  0
  2  3  1  0  0  0  0
  2 36  1  0  0  0  0
  3  4  2  0  0  0  0
  3  5  1  0  0  0  0
  5  6  1  0  0  0  0
  5 37  1  0  0  0  0
  6  7  1  0  0  0  0
  6 24  2  0  0  0  0
  7  8  2  0  0  0  0
  7 38  1  0  0  0  0
  8  9  1  0  0  0  0
  8 22  1  0  0  0  0
  9 10  1  0  0  0  0
  9 19  2  0  0  0  0
 10 11  1  0  0  0  0
 10 39  1  0  0  0  0
 11 12  1  0  0  0  0
 11 17  2  0  0  0  0
 12 13  2  0  0  0  0
 12 40  1  0  0  0  0
 13 14  1  0  0  0  0
 13 41  1  0  0  0  0
 14 15  1  0  0  0  0
 14 16  2  0  0  0  0
 16 17  1  0  0  0  0
 16 42  1  0  0  0  0
 17 18  1  0  0  0  0
 19 20  1  0  0  0  0
 20 21  2  0  0  0  0
 20 43  1  0  0  0  0
 21 22  1  0  0  0  0
 22 23  2  0  0  0  0
 23 24  1  0  0  0  0
 23 44  1  0  0  0  0
 24 25  1  0  0  0  0
 25 26  1  0  0  0  0
 26 27  1  0  0  0  0
 26 45  1  0  0  0  0
 26 46  1  0  0  0  0
 27 28  1  0  0  0  0
 27 47  1  0  0  0  0
 27 48  1  0  0  0  0
 28 29  1  0  0  0  0
 28 49  1  0  0  0  0
 29 30  2  0  0  0  0
 29 31  1  0  0  0  0
 31 32  1  0  0  0  0
 31 33  1  0  0  0  0
 31 50  1  0  0  0  0
 32 51  1  0  0  0  0
 32 52  1  0  0  0  0
 32 53  1  0  0  0  0
 33 54  1  0  0  0  0
 33 55  1  0  0  0  0
 33 56  1  0  0  0  0
M  END
$$$$
