CHEMBL148880
 OpenBabel04072215363D

 52 57  0  0  0  0  0  0  0  0999 V2000
    1.0540   -0.2076    0.1635 O   0  0  0  0  0  0  0  0  0  0  0  0
    2.2567   -0.0917    0.3555 C   0  0  0  0  0  0  0  0  0  0  0  0
    3.1087   -1.1868    0.3723 N   0  0  0  0  0  0  0  0  0  0  0  0
    4.5108   -0.8969    0.5725 C   0  0  0  0  0  0  0  0  0  0  0  0
    4.4490    0.5616    0.6023 C   0  0  0  0  0  0  0  0  0  0  0  0
    3.1323    1.0354    0.5136 C   0  0  0  0  0  0  0  0  0  0  0  0
    2.8549    2.3808    0.4103 C   0  0  0  0  0  0  0  0  0  0  0  0
    3.8860    3.2420    0.0103 C   0  0  0  0  0  0  0  0  0  0  0  0
    5.1664    2.8616    0.3536 C   0  0  0  0  0  0  0  0  0  0  0  0
    5.4504    1.5576    0.6440 C   0  0  0  0  0  0  0  0  0  0  0  0
    6.7621    1.2701    0.9423 C   0  0  0  0  0  0  0  0  0  0  0  0
    7.5052    0.1199    1.2421 C   0  0  0  0  0  0  0  0  0  0  0  0
    8.8504    0.2054    1.5932 C   0  0  0  0  0  0  0  0  0  0  0  0
    9.5919   -1.0787    1.8607 C   0  0  0  0  0  0  0  0  0  0  0  0
    8.9463   -1.8263    2.8870 O   0  0  0  0  0  0  0  0  0  0  0  0
    9.4443    1.4682    1.6419 C   0  0  0  0  0  0  0  0  0  0  0  0
    8.7258    2.6442    1.3287 C   0  0  0  0  0  0  0  0  0  0  0  0
    7.3629    2.5408    0.9641 C   0  0  0  0  0  0  0  0  0  0  0  0
    6.3818    3.5092    0.6055 N   0  0  0  0  0  0  0  0  0  0  0  0
    6.6107    4.9473    0.6941 C   0  0  0  0  0  0  0  0  0  0  0  0
    5.6515    5.7454    1.5883 C   0  0  0  0  0  0  0  0  0  0  0  0
    5.6031    5.3012    3.0442 C   0  0  0  0  0  0  0  0  0  0  0  0
    6.8717    5.4800    3.6579 O   0  0  0  0  0  0  0  0  0  0  0  0
    3.3044    4.2509   -0.9657 C   0  0  0  0  0  0  0  0  0  0  0  0
    1.7994    4.0366   -0.7742 C   0  0  0  0  0  0  0  0  0  0  0  0
    0.6960    4.6557   -1.3352 C   0  0  0  0  0  0  0  0  0  0  0  0
   -0.5784    4.3263   -0.8362 C   0  0  0  0  0  0  0  0  0  0  0  0
   -0.7373    3.4112    0.2157 C   0  0  0  0  0  0  0  0  0  0  0  0
    0.3642    2.7252    0.7049 C   0  0  0  0  0  0  0  0  0  0  0  0
    1.6014    2.9968    0.1441 C   0  0  0  0  0  0  0  0  0  0  0  0
    2.7393   -2.0944    0.1378 H   0  0  0  0  0  0  0  0  0  0  0  0
    5.0861   -1.2762   -0.2736 H   0  0  0  0  0  0  0  0  0  0  0  0
    4.8197   -1.3261    1.5262 H   0  0  0  0  0  0  0  0  0  0  0  0
    7.0426   -0.8626    1.2113 H   0  0  0  0  0  0  0  0  0  0  0  0
   10.6275   -0.9054    2.1642 H   0  0  0  0  0  0  0  0  0  0  0  0
    9.5987   -1.6937    0.9536 H   0  0  0  0  0  0  0  0  0  0  0  0
    8.8775   -1.2419    3.6612 H   0  0  0  0  0  0  0  0  0  0  0  0
   10.4924    1.5553    1.9223 H   0  0  0  0  0  0  0  0  0  0  0  0
    9.2362    3.6018    1.3744 H   0  0  0  0  0  0  0  0  0  0  0  0
    6.5795    5.3334   -0.3307 H   0  0  0  0  0  0  0  0  0  0  0  0
    7.6316    5.1114    1.0565 H   0  0  0  0  0  0  0  0  0  0  0  0
    4.6387    5.7264    1.1807 H   0  0  0  0  0  0  0  0  0  0  0  0
    5.9792    6.7934    1.5616 H   0  0  0  0  0  0  0  0  0  0  0  0
    5.2847    4.2607    3.1576 H   0  0  0  0  0  0  0  0  0  0  0  0
    4.8846    5.9251    3.5879 H   0  0  0  0  0  0  0  0  0  0  0  0
    7.3871    4.6702    3.4995 H   0  0  0  0  0  0  0  0  0  0  0  0
    3.5783    3.9413   -1.9841 H   0  0  0  0  0  0  0  0  0  0  0  0
    3.6101    5.2772   -0.7728 H   0  0  0  0  0  0  0  0  0  0  0  0
    0.7903    5.3706   -2.1449 H   0  0  0  0  0  0  0  0  0  0  0  0
   -1.4673    4.7910   -1.2561 H   0  0  0  0  0  0  0  0  0  0  0  0
   -1.7187    3.2084    0.6368 H   0  0  0  0  0  0  0  0  0  0  0  0
    0.2620    1.9993    1.5051 H   0  0  0  0  0  0  0  0  0  0  0  0
  1  2  2  0  0  0  0
  2  3  1  0  0  0  0
  2  6  1  0  0  0  0
  3  4  1  0  0  0  0
  3 31  1  0  0  0  0
  4  5  1  0  0  0  0
  4 32  1  0  0  0  0
  4 33  1  0  0  0  0
  5  6  1  0  0  0  0
  5 10  2  0  0  0  0
  6  7  2  0  0  0  0
  7  8  1  0  0  0  0
  7 30  1  0  0  0  0
  8  9  2  0  0  0  0
  8 24  1  0  0  0  0
  9 10  1  0  0  0  0
  9 19  1  0  0  0  0
 10 11  1  0  0  0  0
 11 12  1  0  0  0  0
 11 18  2  0  0  0  0
 12 13  2  0  0  0  0
 12 34  1  0  0  0  0
 13 14  1  0  0  0  0
 13 16  1  0  0  0  0
 14 15  1  0  0  0  0
 14 35  1  0  0  0  0
 14 36  1  0  0  0  0
 15 37  1  0  0  0  0
 16 17  2  0  0  0  0
 16 38  1  0  0  0  0
 17 18  1  0  0  0  0
 17 39  1  0  0  0  0
 18 19  1  0  0  0  0
 19 20  1  0  0  0  0
 20 21  1  0  0  0  0
 20 40  1  0  0  0  0
 20 41  1  0  0  0  0
 21 22  1  0  0  0  0
 21 42  1  0  0  0  0
 21 43  1  0  0  0  0
 22 23  1  0  0  0  0
 22 44  1  0  0  0  0
 22 45  1  0  0  0  0
 23 46  1  0  0  0  0
 24 25  1  0  0  0  0
 24 47  1  0  0  0  0
 24 48  1  0  0  0  0
 25 26  1  0  0  0  0
 25 30  2  0  0  0  0
 26 27  2  0  0  0  0
 26 49  1  0  0  0  0
 27 28  1  0  0  0  0
 27 50  1  0  0  0  0
 28 29  2  0  0  0  0
 28 51  1  0  0  0  0
 29 30  1  0  0  0  0
 29 52  1  0  0  0  0
M  END
$$$$
