CHEMBL2011298
 OpenBabel04072215363D

 43 46  0  0  0  0  0  0  0  0999 V2000
    1.1673    0.3678    0.0473 N   0  0  0  0  0  0  0  0  0  0  0  0
    2.5112    0.1346    0.0174 C   0  0  0  0  0  0  0  0  0  0  0  0
    3.1995   -1.0685   -0.0239 C   0  0  0  0  0  0  0  0  0  0  0  0
    2.5724   -2.3903    0.0187 C   0  0  0  0  0  0  0  0  0  0  0  0
    3.0353   -3.4258   -0.8132 C   0  0  0  0  0  0  0  0  0  0  0  0
    2.5861   -4.7363   -0.6385 C   0  0  0  0  0  0  0  0  0  0  0  0
    1.6073   -5.0006    0.3085 C   0  0  0  0  0  0  0  0  0  0  0  0
    1.1867   -6.2587    0.4900 F   0  0  0  0  0  0  0  0  0  0  0  0
    1.0689   -3.9790    1.0804 C   0  0  0  0  0  0  0  0  0  0  0  0
    1.5638   -2.6786    0.9497 C   0  0  0  0  0  0  0  0  0  0  0  0
    4.5836   -0.6993   -0.1605 C   0  0  0  0  0  0  0  0  0  0  0  0
    5.7561   -1.5930   -0.2327 C   0  0  0  0  0  0  0  0  0  0  0  0
    6.8489   -1.2694   -1.0370 C   0  0  0  0  0  0  0  0  0  0  0  0
    7.8429   -2.2199   -1.2158 C   0  0  0  0  0  0  0  0  0  0  0  0
    7.8197   -3.4519   -0.6623 N   0  0  0  0  0  0  0  0  0  0  0  0
    6.7901   -3.7206    0.1625 C   0  0  0  0  0  0  0  0  0  0  0  0
    5.7783   -2.8182    0.4409 C   0  0  0  0  0  0  0  0  0  0  0  0
    4.7142    0.6236   -0.3113 N   0  0  0  0  0  0  0  0  0  0  0  0
    3.4829    1.1429   -0.0719 N   0  0  0  0  0  0  0  0  0  0  0  0
    3.2989    2.5545    0.0220 C   0  0  0  0  0  0  0  0  0  0  0  0
    4.1699    3.4132   -0.6658 C   0  0  0  0  0  0  0  0  0  0  0  0
    3.9720    4.8011   -0.6233 C   0  0  0  0  0  0  0  0  0  0  0  0
    2.9304    5.3564    0.1353 C   0  0  0  0  0  0  0  0  0  0  0  0
    2.7127    6.8474    0.2105 C   0  0  0  0  0  0  0  0  0  0  0  0
    3.5802    7.5673   -0.5524 F   0  0  0  0  0  0  0  0  0  0  0  0
    1.4655    7.2108   -0.2015 F   0  0  0  0  0  0  0  0  0  0  0  0
    2.8393    7.3298    1.4780 F   0  0  0  0  0  0  0  0  0  0  0  0
    2.0863    4.4903    0.8498 C   0  0  0  0  0  0  0  0  0  0  0  0
    2.2673    3.1037    0.7938 C   0  0  0  0  0  0  0  0  0  0  0  0
    0.5386   -0.4007   -0.1786 H   0  0  0  0  0  0  0  0  0  0  0  0
    0.8040    1.2477   -0.3185 H   0  0  0  0  0  0  0  0  0  0  0  0
    3.7991   -3.2375   -1.5660 H   0  0  0  0  0  0  0  0  0  0  0  0
    3.0102   -5.5490   -1.2201 H   0  0  0  0  0  0  0  0  0  0  0  0
    0.2900   -4.2051    1.8015 H   0  0  0  0  0  0  0  0  0  0  0  0
    1.1737   -1.9016    1.6039 H   0  0  0  0  0  0  0  0  0  0  0  0
    6.9192   -0.3101   -1.5387 H   0  0  0  0  0  0  0  0  0  0  0  0
    8.7044   -2.0180   -1.8466 H   0  0  0  0  0  0  0  0  0  0  0  0
    6.7819   -4.7197    0.5910 H   0  0  0  0  0  0  0  0  0  0  0  0
    4.9954   -3.1088    1.1341 H   0  0  0  0  0  0  0  0  0  0  0  0
    4.9793    3.0142   -1.2729 H   0  0  0  0  0  0  0  0  0  0  0  0
    4.6406    5.4480   -1.1910 H   0  0  0  0  0  0  0  0  0  0  0  0
    1.2874    4.8995    1.4695 H   0  0  0  0  0  0  0  0  0  0  0  0
    1.6206    2.4763    1.4029 H   0  0  0  0  0  0  0  0  0  0  0  0
  1  2  1  0  0  0  0
  1 30  1  0  0  0  0
  1 31  1  0  0  0  0
  2  3  2  0  0  0  0
  2 19  1  0  0  0  0
  3  4  1  0  0  0  0
  3 11  1  0  0  0  0
  4  5  1  0  0  0  0
  4 10  2  0  0  0  0
  5  6  2  0  0  0  0
  5 32  1  0  0  0  0
  6  7  1  0  0  0  0
  6 33  1  0  0  0  0
  7  8  1  0  0  0  0
  7  9  2  0  0  0  0
  9 10  1  0  0  0  0
  9 34  1  0  0  0  0
 10 35  1  0  0  0  0
 11 12  1  0  0  0  0
 11 18  2  0  0  0  0
 12 13  1  0  0  0  0
 12 17  2  0  0  0  0
 13 14  2  0  0  0  0
 13 36  1  0  0  0  0
 14 15  1  0  0  0  0
 14 37  1  0  0  0  0
 15 16  2  0  0  0  0
 16 17  1  0  0  0  0
 16 38  1  0  0  0  0
 17 39  1  0  0  0  0
 18 19  1  0  0  0  0
 19 20  1  0  0  0  0
 20 21  1  0  0  0  0
 20 29  2  0  0  0  0
 21 22  2  0  0  0  0
 21 40  1  0  0  0  0
 22 23  1  0  0  0  0
 22 41  1  0  0  0  0
 23 24  1  0  0  0  0
 23 28  2  0  0  0  0
 24 25  1  0  0  0  0
 24 26  1  0  0  0  0
 24 27  1  0  0  0  0
 28 29  1  0  0  0  0
 28 42  1  0  0  0  0
 29 43  1  0  0  0  0
M  END
$$$$
