CHEMBL2088108
 OpenBabel04072215363D

 40 43  0  0  0  0  0  0  0  0999 V2000
    2.1351    0.0502   -4.6654 C   0  0  0  0  0  0  0  0  0  0  0  0
    2.3724    0.2459   -3.2209 C   0  0  0  0  0  0  0  0  0  0  0  0
    2.0560    1.2812   -2.3760 C   0  0  0  0  0  0  0  0  0  0  0  0
    2.5344    0.8977   -1.1017 C   0  0  0  0  0  0  0  0  0  0  0  0
    2.3893    1.6309    0.0226 N   0  0  0  0  0  0  0  0  0  0  0  0
    2.3781    3.0386    0.1035 C   0  0  0  0  0  0  0  0  0  0  0  0
    1.7186    3.6369    1.1545 C   0  0  0  0  0  0  0  0  0  0  0  0
    1.6720    5.0098    1.1331 C   0  0  0  0  0  0  0  0  0  0  0  0
    2.2636    5.7615    0.1874 N   0  0  0  0  0  0  0  0  0  0  0  0
    2.9236    5.1008   -0.7680 C   0  0  0  0  0  0  0  0  0  0  0  0
    3.6555    5.7713   -1.7303 N   0  0  0  0  0  0  0  0  0  0  0  0
    3.0669    7.0024   -2.2186 C   0  0  0  0  0  0  0  0  0  0  0  0
    3.8919    7.6228   -3.2908 C   0  0  0  0  0  0  0  0  0  0  0  0
    5.2034    8.0295   -3.3596 C   0  0  0  0  0  0  0  0  0  0  0  0
    5.3480    8.4946   -4.6785 C   0  0  0  0  0  0  0  0  0  0  0  0
    6.6526    9.0525   -5.2251 C   0  0  0  0  0  0  0  0  0  0  0  0
    6.5965   10.1434   -6.2764 C   0  0  0  0  0  0  0  0  0  0  0  0
    7.0282    8.7717   -6.6668 C   0  0  0  0  0  0  0  0  0  0  0  0
    4.2126    8.3843   -5.3759 N   0  0  0  0  0  0  0  0  0  0  0  0
    3.2923    7.8340   -4.4946 O   0  0  0  0  0  0  0  0  0  0  0  0
    2.9712    3.7703   -0.8570 N   0  0  0  0  0  0  0  0  0  0  0  0
    3.0825   -0.3189   -1.1378 N   0  0  0  0  0  0  0  0  0  0  0  0
    3.0088   -0.6725   -2.4338 N   0  0  0  0  0  0  0  0  0  0  0  0
    1.5683    0.8898   -5.0824 H   0  0  0  0  0  0  0  0  0  0  0  0
    1.5607   -0.8640   -4.8445 H   0  0  0  0  0  0  0  0  0  0  0  0
    3.0828   -0.0193   -5.2072 H   0  0  0  0  0  0  0  0  0  0  0  0
    1.5384    2.1953   -2.6341 H   0  0  0  0  0  0  0  0  0  0  0  0
    2.7917    1.2132    0.8535 H   0  0  0  0  0  0  0  0  0  0  0  0
    1.2212    3.0641    1.9248 H   0  0  0  0  0  0  0  0  0  0  0  0
    1.1371    5.5633    1.8991 H   0  0  0  0  0  0  0  0  0  0  0  0
    3.8526    5.0855   -2.4520 H   0  0  0  0  0  0  0  0  0  0  0  0
    2.9774    7.7331   -1.4046 H   0  0  0  0  0  0  0  0  0  0  0  0
    2.0561    6.8120   -2.6022 H   0  0  0  0  0  0  0  0  0  0  0  0
    5.9392    7.9761   -2.5719 H   0  0  0  0  0  0  0  0  0  0  0  0
    7.4696    9.0934   -4.5117 H   0  0  0  0  0  0  0  0  0  0  0  0
    7.3479   10.9230   -6.2332 H   0  0  0  0  0  0  0  0  0  0  0  0
    5.6278   10.4850   -6.6245 H   0  0  0  0  0  0  0  0  0  0  0  0
    8.0771    8.6113   -6.8893 H   0  0  0  0  0  0  0  0  0  0  0  0
    6.3539    8.1787   -7.2734 H   0  0  0  0  0  0  0  0  0  0  0  0
    3.4055   -1.5643   -2.7102 H   0  0  0  0  0  0  0  0  0  0  0  0
  1  2  1  0  0  0  0
  1 24  1  0  0  0  0
  1 25  1  0  0  0  0
  1 26  1  0  0  0  0
  2  3  2  0  0  0  0
  2 23  1  0  0  0  0
  3  4  1  0  0  0  0
  3 27  1  0  0  0  0
  4  5  1  0  0  0  0
  4 22  2  0  0  0  0
  5  6  1  0  0  0  0
  5 28  1  0  0  0  0
  6  7  1  0  0  0  0
  6 21  2  0  0  0  0
  7  8  2  0  0  0  0
  7 29  1  0  0  0  0
  8  9  1  0  0  0  0
  8 30  1  0  0  0  0
  9 10  2  0  0  0  0
 10 11  1  0  0  0  0
 10 21  1  0  0  0  0
 11 12  1  0  0  0  0
 11 31  1  0  0  0  0
 12 13  1  0  0  0  0
 12 32  1  0  0  0  0
 12 33  1  0  0  0  0
 13 14  2  0  0  0  0
 13 20  1  0  0  0  0
 14 15  1  0  0  0  0
 14 34  1  0  0  0  0
 15 16  1  0  0  0  0
 15 19  2  0  0  0  0
 16 17  1  0  0  0  0
 16 18  1  0  0  0  0
 16 35  1  0  0  0  0
 17 18  1  0  0  0  0
 17 36  1  0  0  0  0
 17 37  1  0  0  0  0
 18 38  1  0  0  0  0
 18 39  1  0  0  0  0
 19 20  1  0  0  0  0
 22 23  1  0  0  0  0
 23 40  1  0  0  0  0
M  END
$$$$
