CHEMBL3934547
 OpenBabel04072215373D

 40 44  0  0  0  0  0  0  0  0999 V2000
    0.9331    0.0953    0.2366 N   0  0  0  0  0  0  0  0  0  0  0  0
    2.2930   -0.0149    0.2406 C   0  0  0  0  0  0  0  0  0  0  0  0
    3.2295    1.0034    0.2634 C   0  0  0  0  0  0  0  0  0  0  0  0
    2.8981    2.4194    0.2806 C   0  0  0  0  0  0  0  0  0  0  0  0
    1.9684    2.8286    0.9841 O   0  0  0  0  0  0  0  0  0  0  0  0
    3.7185    3.3012   -0.5023 C   0  0  0  0  0  0  0  0  0  0  0  0
    4.4720    3.0790   -1.6380 C   0  0  0  0  0  0  0  0  0  0  0  0
    5.1583    4.2816   -1.9297 C   0  0  0  0  0  0  0  0  0  0  0  0
    6.1238    4.6338   -2.8757 C   0  0  0  0  0  0  0  0  0  0  0  0
    7.1095    5.5042   -2.4247 C   0  0  0  0  0  0  0  0  0  0  0  0
    6.8120    6.4107   -1.4128 C   0  0  0  0  0  0  0  0  0  0  0  0
    5.5825    6.3733   -0.7475 C   0  0  0  0  0  0  0  0  0  0  0  0
    4.8592    5.1939   -0.9256 C   0  0  0  0  0  0  0  0  0  0  0  0
    3.8124    4.6535   -0.2212 N   0  0  0  0  0  0  0  0  0  0  0  0
    4.4764    0.3437    0.4003 C   0  0  0  0  0  0  0  0  0  0  0  0
    4.3449   -0.9804    0.5139 N   0  0  0  0  0  0  0  0  0  0  0  0
    3.0088   -1.2048    0.3566 N   0  0  0  0  0  0  0  0  0  0  0  0
    2.4640   -2.5133    0.4414 C   0  0  0  0  0  0  0  0  0  0  0  0
    3.0343   -3.4366    1.3273 C   0  0  0  0  0  0  0  0  0  0  0  0
    2.3918   -4.6598    1.5857 C   0  0  0  0  0  0  0  0  0  0  0  0
    1.2240   -4.9816    0.8754 C   0  0  0  0  0  0  0  0  0  0  0  0
    0.4320   -6.1023    0.9351 N   0  0  0  0  0  0  0  0  0  0  0  0
   -0.4951   -5.9198    0.0217 C   0  0  0  0  0  0  0  0  0  0  0  0
   -0.3524   -4.7144   -0.6067 N   0  0  0  0  0  0  0  0  0  0  0  0
    0.7319   -4.0819   -0.0617 C   0  0  0  0  0  0  0  0  0  0  0  0
    1.3125   -2.8342   -0.3043 C   0  0  0  0  0  0  0  0  0  0  0  0
    0.5572    1.0243    0.4472 H   0  0  0  0  0  0  0  0  0  0  0  0
    0.3819   -0.6259    0.6966 H   0  0  0  0  0  0  0  0  0  0  0  0
    4.6042    2.1303   -2.1413 H   0  0  0  0  0  0  0  0  0  0  0  0
    5.7475    4.8357   -3.8875 H   0  0  0  0  0  0  0  0  0  0  0  0
    8.0906    5.4785   -2.8885 H   0  0  0  0  0  0  0  0  0  0  0  0
    7.5518    7.1542   -1.1354 H   0  0  0  0  0  0  0  0  0  0  0  0
    5.3225    7.1063    0.0057 H   0  0  0  0  0  0  0  0  0  0  0  0
    3.3329    5.1127    0.5449 H   0  0  0  0  0  0  0  0  0  0  0  0
    5.4744    0.7747    0.4738 H   0  0  0  0  0  0  0  0  0  0  0  0
    3.9359   -3.1915    1.8855 H   0  0  0  0  0  0  0  0  0  0  0  0
    2.7781   -5.3502    2.3284 H   0  0  0  0  0  0  0  0  0  0  0  0
   -1.2851   -6.6165   -0.2282 H   0  0  0  0  0  0  0  0  0  0  0  0
   -0.9372   -4.3640   -1.3502 H   0  0  0  0  0  0  0  0  0  0  0  0
    0.9002   -2.1590   -1.0482 H   0  0  0  0  0  0  0  0  0  0  0  0
  1  2  1  0  0  0  0
  1 27  1  0  0  0  0
  1 28  1  0  0  0  0
  2  3  2  0  0  0  0
  2 17  1  0  0  0  0
  3  4  1  0  0  0  0
  3 15  1  0  0  0  0
  4  5  2  0  0  0  0
  4  6  1  0  0  0  0
  6  7  2  0  0  0  0
  6 14  1  0  0  0  0
  7  8  1  0  0  0  0
  7 29  1  0  0  0  0
  8  9  1  0  0  0  0
  8 13  2  0  0  0  0
  9 10  2  0  0  0  0
  9 30  1  0  0  0  0
 10 11  1  0  0  0  0
 10 31  1  0  0  0  0
 11 12  2  0  0  0  0
 11 32  1  0  0  0  0
 12 13  1  0  0  0  0
 12 33  1  0  0  0  0
 13 14  1  0  0  0  0
 14 34  1  0  0  0  0
 15 16  2  0  0  0  0
 15 35  1  0  0  0  0
 16 17  1  0  0  0  0
 17 18  1  0  0  0  0
 18 19  1  0  0  0  0
 18 26  2  0  0  0  0
 19 20  2  0  0  0  0
 19 36  1  0  0  0  0
 20 21  1  0  0  0  0
 20 37  1  0  0  0  0
 21 22  1  0  0  0  0
 21 25  2  0  0  0  0
 22 23  2  0  0  0  0
 23 24  1  0  0  0  0
 23 38  1  0  0  0  0
 24 25  1  0  0  0  0
 24 39  1  0  0  0  0
 25 26  1  0  0  0  0
 26 40  1  0  0  0  0
M  END
$$$$
