CHEMBL3114024
 OpenBabel04072215363D

 50 53  0  0  0  0  0  0  0  0999 V2000
    2.5611    0.4455    2.9264 C   0  0  0  0  0  0  0  0  0  0  0  0
    4.2821    0.5547    2.3621 S   0  0  0  0  0  0  0  0  0  0  0  0
    4.2820    2.0294    1.3492 C   0  0  0  0  0  0  0  0  0  0  0  0
    3.1401    2.8039    1.1018 C   0  0  0  0  0  0  0  0  0  0  0  0
    3.2322    3.9603    0.3218 C   0  0  0  0  0  0  0  0  0  0  0  0
    4.4523    4.3822   -0.2128 C   0  0  0  0  0  0  0  0  0  0  0  0
    4.5740    5.5399   -0.9968 N   0  0  0  0  0  0  0  0  0  0  0  0
    3.7515    6.6673   -0.9335 C   0  0  0  0  0  0  0  0  0  0  0  0
    3.5697    7.3402   -2.0758 N   0  0  0  0  0  0  0  0  0  0  0  0
    2.7873    8.4249   -2.0011 C   0  0  0  0  0  0  0  0  0  0  0  0
    2.1870    8.8446   -0.8387 C   0  0  0  0  0  0  0  0  0  0  0  0
    2.3701    8.0694    0.2941 C   0  0  0  0  0  0  0  0  0  0  0  0
    1.6583    8.3303    1.4962 N   0  0  0  0  0  0  0  0  0  0  0  0
    2.4150    8.0344    2.7169 C   0  0  0  0  0  0  0  0  0  0  0  0
    0.3803    8.9483    1.6231 C   0  0  0  0  0  0  0  0  0  0  0  0
   -0.4915    8.9265    0.4601 C   0  0  0  0  0  0  0  0  0  0  0  0
   -1.5726    9.7950    0.2234 C   0  0  0  0  0  0  0  0  0  0  0  0
   -1.8414   10.4871    1.3842 C   0  0  0  0  0  0  0  0  0  0  0  0
   -2.7449   11.5159    1.5869 C   0  0  0  0  0  0  0  0  0  0  0  0
   -2.5173   13.0053    1.7273 C   0  0  0  0  0  0  0  0  0  0  0  0
   -3.2671   10.9396    2.7245 N   0  0  0  0  0  0  0  0  0  0  0  0
   -4.6768   10.7660    2.9595 C   0  0  0  0  0  0  0  0  0  0  0  0
   -2.2566   10.5941    3.5751 N   0  0  0  0  0  0  0  0  0  0  0  0
   -1.2937   10.2213    2.6902 C   0  0  0  0  0  0  0  0  0  0  0  0
   -0.0613    9.5612    2.8286 C   0  0  0  0  0  0  0  0  0  0  0  0
    3.1880    7.0074    0.2385 N   0  0  0  0  0  0  0  0  0  0  0  0
    5.5802    3.5781   -0.0063 C   0  0  0  0  0  0  0  0  0  0  0  0
    5.4966    2.4258    0.7775 C   0  0  0  0  0  0  0  0  0  0  0  0
    2.4584   -0.4152    3.5917 H   0  0  0  0  0  0  0  0  0  0  0  0
    1.8867    0.3014    2.0774 H   0  0  0  0  0  0  0  0  0  0  0  0
    2.2718    1.3414    3.4843 H   0  0  0  0  0  0  0  0  0  0  0  0
    2.1658    2.5468    1.4960 H   0  0  0  0  0  0  0  0  0  0  0  0
    2.3249    4.5376    0.1537 H   0  0  0  0  0  0  0  0  0  0  0  0
    4.7693    5.3546   -1.9745 H   0  0  0  0  0  0  0  0  0  0  0  0
    2.6330    8.9588   -2.9341 H   0  0  0  0  0  0  0  0  0  0  0  0
    1.5736    9.7355   -0.8404 H   0  0  0  0  0  0  0  0  0  0  0  0
    3.3375    7.4650    2.5513 H   0  0  0  0  0  0  0  0  0  0  0  0
    1.8105    7.4436    3.4144 H   0  0  0  0  0  0  0  0  0  0  0  0
    2.7200    8.9645    3.2124 H   0  0  0  0  0  0  0  0  0  0  0  0
   -0.2746    8.1939   -0.3200 H   0  0  0  0  0  0  0  0  0  0  0  0
   -2.1497    9.8091   -0.6874 H   0  0  0  0  0  0  0  0  0  0  0  0
   -1.4632   13.2206    1.9445 H   0  0  0  0  0  0  0  0  0  0  0  0
   -3.0877   13.3940    2.5849 H   0  0  0  0  0  0  0  0  0  0  0  0
   -2.8270   13.5632    0.8441 H   0  0  0  0  0  0  0  0  0  0  0  0
   -5.0023    9.8860    2.3932 H   0  0  0  0  0  0  0  0  0  0  0  0
   -5.1976   11.6445    2.5634 H   0  0  0  0  0  0  0  0  0  0  0  0
   -4.8637   10.6461    4.0237 H   0  0  0  0  0  0  0  0  0  0  0  0
    0.4528    9.5197    3.7760 H   0  0  0  0  0  0  0  0  0  0  0  0
    6.5403    3.8727   -0.4246 H   0  0  0  0  0  0  0  0  0  0  0  0
    6.4031    1.8419    0.9503 H   0  0  0  0  0  0  0  0  0  0  0  0
  1  2  1  0  0  0  0
  1 29  1  0  0  0  0
  1 30  1  0  0  0  0
  1 31  1  0  0  0  0
  2  3  1  0  0  0  0
  3  4  1  0  0  0  0
  3 28  2  0  0  0  0
  4  5  2  0  0  0  0
  4 32  1  0  0  0  0
  5  6  1  0  0  0  0
  5 33  1  0  0  0  0
  6  7  1  0  0  0  0
  6 27  2  0  0  0  0
  7  8  1  0  0  0  0
  7 34  1  0  0  0  0
  8  9  1  0  0  0  0
  8 26  2  0  0  0  0
  9 10  2  0  0  0  0
 10 11  1  0  0  0  0
 10 35  1  0  0  0  0
 11 12  2  0  0  0  0
 11 36  1  0  0  0  0
 12 13  1  0  0  0  0
 12 26  1  0  0  0  0
 13 14  1  0  0  0  0
 13 15  1  0  0  0  0
 14 37  1  0  0  0  0
 14 38  1  0  0  0  0
 14 39  1  0  0  0  0
 15 16  1  0  0  0  0
 15 25  2  0  0  0  0
 16 17  2  0  0  0  0
 16 40  1  0  0  0  0
 17 18  1  0  0  0  0
 17 41  1  0  0  0  0
 18 19  2  0  0  0  0
 18 24  1  0  0  0  0
 19 20  1  0  0  0  0
 19 21  1  0  0  0  0
 20 42  1  0  0  0  0
 20 43  1  0  0  0  0
 20 44  1  0  0  0  0
 21 22  1  0  0  0  0
 21 23  1  0  0  0  0
 22 45  1  0  0  0  0
 22 46  1  0  0  0  0
 22 47  1  0  0  0  0
 23 24  2  0  0  0  0
 24 25  1  0  0  0  0
 25 48  1  0  0  0  0
 27 28  1  0  0  0  0
 27 49  1  0  0  0  0
 28 50  1  0  0  0  0
M  END
$$$$
