CHEMBL3774913
 OpenBabel04072215373D

 40 42  0  0  0  0  0  0  0  0999 V2000
    2.6003    1.7360    0.1975 C   0  0  0  0  0  0  0  0  0  0  0  0
    2.4255    0.3267    0.0203 O   0  0  0  0  0  0  0  0  0  0  0  0
    3.0319   -0.3770    1.0348 C   0  0  0  0  0  0  0  0  0  0  0  0
    4.1418    0.1887    1.7018 C   0  0  0  0  0  0  0  0  0  0  0  0
    4.7183   -0.3610    2.8281 C   0  0  0  0  0  0  0  0  0  0  0  0
    5.7219    0.2815    3.4127 N   0  0  0  0  0  0  0  0  0  0  0  0
    6.2273   -0.2722    4.5256 C   0  0  0  0  0  0  0  0  0  0  0  0
    5.8511   -1.4300    5.0601 N   0  0  0  0  0  0  0  0  0  0  0  0
    4.8693   -2.0968    4.4549 C   0  0  0  0  0  0  0  0  0  0  0  0
    4.4876   -3.3656    4.9715 N   0  0  0  0  0  0  0  0  0  0  0  0
    4.7279   -3.8346    6.3027 C   0  0  0  0  0  0  0  0  0  0  0  0
    4.5772   -2.9564    7.3767 C   0  0  0  0  0  0  0  0  0  0  0  0
    5.0093   -3.3076    8.6490 C   0  0  0  0  0  0  0  0  0  0  0  0
    4.9780   -2.4003    9.6345 F   0  0  0  0  0  0  0  0  0  0  0  0
    5.5615   -4.5570    8.8928 C   0  0  0  0  0  0  0  0  0  0  0  0
    5.6370   -5.4759    7.8498 C   0  0  0  0  0  0  0  0  0  0  0  0
    6.1852   -6.7094    8.0787 O   0  0  0  0  0  0  0  0  0  0  0  0
    5.2205   -5.1396    6.5415 C   0  0  0  0  0  0  0  0  0  0  0  0
    5.3869   -6.1214    5.4138 C   0  0  0  0  0  0  0  0  0  0  0  0
    4.1865   -1.5691    3.3228 C   0  0  0  0  0  0  0  0  0  0  0  0
    3.0486   -2.1081    2.6747 C   0  0  0  0  0  0  0  0  0  0  0  0
    2.4995   -1.5771    1.4937 C   0  0  0  0  0  0  0  0  0  0  0  0
    1.4717   -2.3261    1.0176 O   0  0  0  0  0  0  0  0  0  0  0  0
    1.1871   -2.3138   -0.3712 C   0  0  0  0  0  0  0  0  0  0  0  0
    1.7782    2.2482   -0.3193 H   0  0  0  0  0  0  0  0  0  0  0  0
    3.5458    2.0698   -0.2368 H   0  0  0  0  0  0  0  0  0  0  0  0
    2.5455    2.0485    1.2510 H   0  0  0  0  0  0  0  0  0  0  0  0
    4.5493    1.1275    1.3472 H   0  0  0  0  0  0  0  0  0  0  0  0
    7.0155    0.2616    5.0318 H   0  0  0  0  0  0  0  0  0  0  0  0
    4.4492   -4.0686    4.2656 H   0  0  0  0  0  0  0  0  0  0  0  0
    4.1871   -1.9512    7.2211 H   0  0  0  0  0  0  0  0  0  0  0  0
    5.9524   -4.7707    9.8802 H   0  0  0  0  0  0  0  0  0  0  0  0
    6.4403   -6.7758    9.0136 H   0  0  0  0  0  0  0  0  0  0  0  0
    5.7486   -7.0992    5.7431 H   0  0  0  0  0  0  0  0  0  0  0  0
    6.1108   -5.7299    4.6915 H   0  0  0  0  0  0  0  0  0  0  0  0
    4.4279   -6.2867    4.9109 H   0  0  0  0  0  0  0  0  0  0  0  0
    2.5186   -2.9489    3.1211 H   0  0  0  0  0  0  0  0  0  0  0  0
    0.8317   -3.3182   -0.6467 H   0  0  0  0  0  0  0  0  0  0  0  0
    2.0534   -2.0942   -1.0054 H   0  0  0  0  0  0  0  0  0  0  0  0
    0.3646   -1.6229   -0.5680 H   0  0  0  0  0  0  0  0  0  0  0  0
  1  2  1  0  0  0  0
  1 25  1  0  0  0  0
  1 26  1  0  0  0  0
  1 27  1  0  0  0  0
  2  3  1  0  0  0  0
  3  4  1  0  0  0  0
  3 22  2  0  0  0  0
  4  5  2  0  0  0  0
  4 28  1  0  0  0  0
  5  6  1  0  0  0  0
  5 20  1  0  0  0  0
  6  7  2  0  0  0  0
  7  8  1  0  0  0  0
  7 29  1  0  0  0  0
  8  9  2  0  0  0  0
  9 10  1  0  0  0  0
  9 20  1  0  0  0  0
 10 11  1  0  0  0  0
 10 30  1  0  0  0  0
 11 12  1  0  0  0  0
 11 18  2  0  0  0  0
 12 13  2  0  0  0  0
 12 31  1  0  0  0  0
 13 14  1  0  0  0  0
 13 15  1  0  0  0  0
 15 16  2  0  0  0  0
 15 32  1  0  0  0  0
 16 17  1  0  0  0  0
 16 18  1  0  0  0  0
 17 33  1  0  0  0  0
 18 19  1  0  0  0  0
 19 34  1  0  0  0  0
 19 35  1  0  0  0  0
 19 36  1  0  0  0  0
 20 21  2  0  0  0  0
 21 22  1  0  0  0  0
 21 37  1  0  0  0  0
 22 23  1  0  0  0  0
 23 24  1  0  0  0  0
 24 38  1  0  0  0  0
 24 39  1  0  0  0  0
 24 40  1  0  0  0  0
M  END
$$$$
