CHEMBL3933449
 OpenBabel04072215373D

 56 59  0  0  0  0  0  0  0  0999 V2000
    2.4685   -2.0484   -1.2381 C   0  0  0  0  0  0  0  0  0  0  0  0
    3.1765   -0.9171   -0.7509 O   0  0  0  0  0  0  0  0  0  0  0  0
    3.7993   -0.2012   -1.8251 C   0  0  0  0  0  0  0  0  0  0  0  0
    4.4442    1.0768   -1.2502 C   0  0  0  0  0  0  0  0  0  0  0  0
    5.1155    1.9178   -2.3092 N   0  0  0  0  0  0  0  0  0  0  0  0
    4.1540    2.7545   -3.0001 C   0  0  0  0  0  0  0  0  0  0  0  0
    2.7514    2.5573   -2.8337 C   0  0  0  0  0  0  0  0  0  0  0  0
    1.7624    3.2044   -3.5719 C   0  0  0  0  0  0  0  0  0  0  0  0
    0.4193    2.9375   -3.5087 O   0  0  0  0  0  0  0  0  0  0  0  0
    0.0125    1.8163   -2.7224 C   0  0  0  0  0  0  0  0  0  0  0  0
    2.1502    4.2104   -4.4308 C   0  0  0  0  0  0  0  0  0  0  0  0
    3.5006    4.5737   -4.4978 C   0  0  0  0  0  0  0  0  0  0  0  0
    3.9412    5.6626   -5.2182 O   0  0  0  0  0  0  0  0  0  0  0  0
    2.9766    6.7053   -5.3734 C   0  0  0  0  0  0  0  0  0  0  0  0
    4.4964    3.8261   -3.8251 C   0  0  0  0  0  0  0  0  0  0  0  0
    6.5614    1.8822   -2.3042 C   0  0  0  0  0  0  0  0  0  0  0  0
    7.1917    1.5740   -1.0992 C   0  0  0  0  0  0  0  0  0  0  0  0
    8.5493    1.6656   -0.8977 C   0  0  0  0  0  0  0  0  0  0  0  0
    9.3945    2.0008   -1.8935 C   0  0  0  0  0  0  0  0  0  0  0  0
   10.6208    2.1556   -1.4348 N   0  0  0  0  0  0  0  0  0  0  0  0
   11.5863    2.2493   -2.3524 C   0  0  0  0  0  0  0  0  0  0  0  0
   11.3131    2.1503   -3.7076 C   0  0  0  0  0  0  0  0  0  0  0  0
   12.4968    1.8839   -4.5072 C   0  0  0  0  0  0  0  0  0  0  0  0
   12.9832    0.6449   -5.0209 C   0  0  0  0  0  0  0  0  0  0  0  0
   14.2747    0.6905   -5.3868 N   0  0  0  0  0  0  0  0  0  0  0  0
   14.6409    1.9471   -5.0865 N   0  0  0  0  0  0  0  0  0  0  0  0
   15.9336    2.4579   -5.4800 C   0  0  0  0  0  0  0  0  0  0  0  0
   13.6584    2.6448   -4.4379 C   0  0  0  0  0  0  0  0  0  0  0  0
   10.0043    2.1252   -4.1744 N   0  0  0  0  0  0  0  0  0  0  0  0
    8.9440    2.0986   -3.2372 C   0  0  0  0  0  0  0  0  0  0  0  0
    7.4736    2.1128   -3.3899 C   0  0  0  0  0  0  0  0  0  0  0  0
    2.0582   -2.5981   -0.3875 H   0  0  0  0  0  0  0  0  0  0  0  0
    3.1401   -2.7070   -1.7963 H   0  0  0  0  0  0  0  0  0  0  0  0
    1.6413   -1.7227   -1.8761 H   0  0  0  0  0  0  0  0  0  0  0  0
    3.0426    0.0117   -2.5830 H   0  0  0  0  0  0  0  0  0  0  0  0
    4.5686   -0.8273   -2.2865 H   0  0  0  0  0  0  0  0  0  0  0  0
    5.0622    0.7054   -0.4452 H   0  0  0  0  0  0  0  0  0  0  0  0
    3.7340    1.6778   -0.6631 H   0  0  0  0  0  0  0  0  0  0  0  0
    2.3694    1.8815   -2.0832 H   0  0  0  0  0  0  0  0  0  0  0  0
   -1.0601    1.6602   -2.8733 H   0  0  0  0  0  0  0  0  0  0  0  0
    0.1707    2.0121   -1.6561 H   0  0  0  0  0  0  0  0  0  0  0  0
    0.5238    0.8972   -3.0321 H   0  0  0  0  0  0  0  0  0  0  0  0
    1.3862    4.7094   -5.0177 H   0  0  0  0  0  0  0  0  0  0  0  0
    3.5036    7.6080   -5.6945 H   0  0  0  0  0  0  0  0  0  0  0  0
    2.4708    6.9392   -4.4280 H   0  0  0  0  0  0  0  0  0  0  0  0
    2.2476    6.4517   -6.1506 H   0  0  0  0  0  0  0  0  0  0  0  0
    5.5278    4.1443   -3.9244 H   0  0  0  0  0  0  0  0  0  0  0  0
    6.6921    1.2612   -0.1922 H   0  0  0  0  0  0  0  0  0  0  0  0
    8.9590    1.4557    0.0856 H   0  0  0  0  0  0  0  0  0  0  0  0
   12.5830    2.3044   -1.9485 H   0  0  0  0  0  0  0  0  0  0  0  0
   12.4726   -0.3093   -5.0848 H   0  0  0  0  0  0  0  0  0  0  0  0
   16.4810    1.6987   -6.0449 H   0  0  0  0  0  0  0  0  0  0  0  0
   16.5007    2.7468   -4.5900 H   0  0  0  0  0  0  0  0  0  0  0  0
   15.7583    3.3308   -6.1143 H   0  0  0  0  0  0  0  0  0  0  0  0
   13.8743    3.5963   -3.9709 H   0  0  0  0  0  0  0  0  0  0  0  0
    7.0856    2.2865   -4.3957 H   0  0  0  0  0  0  0  0  0  0  0  0
  1  2  1  0  0  0  0
  1 32  1  0  0  0  0
  1 33  1  0  0  0  0
  1 34  1  0  0  0  0
  2  3  1  0  0  0  0
  3  4  1  0  0  0  0
  3 35  1  0  0  0  0
  3 36  1  0  0  0  0
  4  5  1  0  0  0  0
  4 37  1  0  0  0  0
  4 38  1  0  0  0  0
  5  6  1  0  0  0  0
  5 16  1  0  0  0  0
  6  7  1  0  0  0  0
  6 15  2  0  0  0  0
  7  8  2  0  0  0  0
  7 39  1  0  0  0  0
  8  9  1  0  0  0  0
  8 11  1  0  0  0  0
  9 10  1  0  0  0  0
 10 40  1  0  0  0  0
 10 41  1  0  0  0  0
 10 42  1  0  0  0  0
 11 12  2  0  0  0  0
 11 43  1  0  0  0  0
 12 13  1  0  0  0  0
 12 15  1  0  0  0  0
 13 14  1  0  0  0  0
 14 44  1  0  0  0  0
 14 45  1  0  0  0  0
 14 46  1  0  0  0  0
 15 47  1  0  0  0  0
 16 17  1  0  0  0  0
 16 31  2  0  0  0  0
 17 18  2  0  0  0  0
 17 48  1  0  0  0  0
 18 19  1  0  0  0  0
 18 49  1  0  0  0  0
 19 20  1  0  0  0  0
 19 30  2  0  0  0  0
 20 21  2  0  0  0  0
 21 22  1  0  0  0  0
 21 50  1  0  0  0  0
 22 23  1  0  0  0  0
 22 29  2  0  0  0  0
 23 24  1  0  0  0  0
 23 28  2  0  0  0  0
 24 25  2  0  0  0  0
 24 51  1  0  0  0  0
 25 26  1  0  0  0  0
 26 27  1  0  0  0  0
 26 28  1  0  0  0  0
 27 52  1  0  0  0  0
 27 53  1  0  0  0  0
 27 54  1  0  0  0  0
 28 55  1  0  0  0  0
 29 30  1  0  0  0  0
 30 31  1  0  0  0  0
 31 56  1  0  0  0  0
M  END
$$$$
