CHEMBL3950516
 OpenBabel04072215373D

 51 54  0  0  0  0  0  0  0  0999 V2000
    1.1783   -0.5884   -0.2194 O   0  0  0  0  0  0  0  0  0  0  0  0
    2.2844   -0.1338    0.0470 C   0  0  0  0  0  0  0  0  0  0  0  0
    2.8477   -0.1425    1.3160 N   0  0  0  0  0  0  0  0  0  0  0  0
    2.2092   -0.6392    2.4804 C   0  0  0  0  0  0  0  0  0  0  0  0
    1.0746   -1.4510    2.4329 C   0  0  0  0  0  0  0  0  0  0  0  0
    0.3976   -1.8104    3.5974 C   0  0  0  0  0  0  0  0  0  0  0  0
    0.8835   -1.4240    4.8451 C   0  0  0  0  0  0  0  0  0  0  0  0
    0.2325   -1.6991    6.0289 O   0  0  0  0  0  0  0  0  0  0  0  0
   -0.4145   -2.9269    6.1493 C   0  0  0  0  0  0  0  0  0  0  0  0
   -1.4721   -2.9978    7.0337 C   0  0  0  0  0  0  0  0  0  0  0  0
   -2.0657   -4.2378    7.1559 C   0  0  0  0  0  0  0  0  0  0  0  0
   -3.1039   -4.4042    8.0915 N   0  0  0  0  0  0  0  0  0  0  0  0
   -3.6879   -5.6228    8.3783 C   0  0  0  0  0  0  0  0  0  0  0  0
   -3.4524   -6.7001    7.8493 O   0  0  0  0  0  0  0  0  0  0  0  0
   -4.6947   -5.6334    9.4825 C   0  0  0  0  0  0  0  0  0  0  0  0
   -5.2449   -4.4483   10.2303 C   0  0  0  0  0  0  0  0  0  0  0  0
   -4.2308   -5.3367   10.8917 C   0  0  0  0  0  0  0  0  0  0  0  0
   -1.6662   -5.2862    6.4271 N   0  0  0  0  0  0  0  0  0  0  0  0
   -0.6286   -5.1136    5.6087 C   0  0  0  0  0  0  0  0  0  0  0  0
    0.0474   -3.9782    5.4514 N   0  0  0  0  0  0  0  0  0  0  0  0
    2.0444   -0.6488    4.9090 C   0  0  0  0  0  0  0  0  0  0  0  0
    2.7099   -0.2665    3.7335 C   0  0  0  0  0  0  0  0  0  0  0  0
    3.1046    0.4886   -0.8813 N   0  0  0  0  0  0  0  0  0  0  0  0
    2.7705    0.7643   -2.2307 C   0  0  0  0  0  0  0  0  0  0  0  0
    1.5378    0.4473   -2.8117 C   0  0  0  0  0  0  0  0  0  0  0  0
    1.2865    0.7592   -4.1433 C   0  0  0  0  0  0  0  0  0  0  0  0
    0.1007    0.4440   -4.6785 F   0  0  0  0  0  0  0  0  0  0  0  0
    2.2362    1.4018   -4.9201 C   0  0  0  0  0  0  0  0  0  0  0  0
    3.4699    1.7480   -4.3629 C   0  0  0  0  0  0  0  0  0  0  0  0
    4.5018    2.4859   -5.1729 C   0  0  0  0  0  0  0  0  0  0  0  0
    4.1105    2.7492   -6.4494 F   0  0  0  0  0  0  0  0  0  0  0  0
    4.8200    3.6902   -4.6225 F   0  0  0  0  0  0  0  0  0  0  0  0
    5.6732    1.7994   -5.2718 F   0  0  0  0  0  0  0  0  0  0  0  0
    3.7307    1.4138   -3.0169 C   0  0  0  0  0  0  0  0  0  0  0  0
    3.6646    0.4297    1.4651 H   0  0  0  0  0  0  0  0  0  0  0  0
    0.6712   -1.8265    1.4980 H   0  0  0  0  0  0  0  0  0  0  0  0
   -0.5079   -2.4024    3.5000 H   0  0  0  0  0  0  0  0  0  0  0  0
   -1.7890   -2.1311    7.5940 H   0  0  0  0  0  0  0  0  0  0  0  0
   -3.3765   -3.6024    8.6332 H   0  0  0  0  0  0  0  0  0  0  0  0
   -5.3843   -6.4702    9.3778 H   0  0  0  0  0  0  0  0  0  0  0  0
   -6.2718   -4.5195   10.5784 H   0  0  0  0  0  0  0  0  0  0  0  0
   -4.9573   -3.4408    9.9680 H   0  0  0  0  0  0  0  0  0  0  0  0
   -4.5585   -6.0156   11.6716 H   0  0  0  0  0  0  0  0  0  0  0  0
   -3.2272   -4.9539   11.0384 H   0  0  0  0  0  0  0  0  0  0  0  0
   -0.3146   -5.9696    5.0237 H   0  0  0  0  0  0  0  0  0  0  0  0
    2.4286   -0.3296    5.8750 H   0  0  0  0  0  0  0  0  0  0  0  0
    3.6009    0.3506    3.8174 H   0  0  0  0  0  0  0  0  0  0  0  0
    4.0322    0.7336   -0.5811 H   0  0  0  0  0  0  0  0  0  0  0  0
    0.7365   -0.0420   -2.2695 H   0  0  0  0  0  0  0  0  0  0  0  0
    1.9925    1.6354   -5.9566 H   0  0  0  0  0  0  0  0  0  0  0  0
    4.6970    1.6845   -2.5908 H   0  0  0  0  0  0  0  0  0  0  0  0
  1  2  2  0  0  0  0
  2  3  1  0  0  0  0
  2 23  1  0  0  0  0
  3  4  1  0  0  0  0
  3 35  1  0  0  0  0
  4  5  1  0  0  0  0
  4 22  2  0  0  0  0
  5  6  2  0  0  0  0
  5 36  1  0  0  0  0
  6  7  1  0  0  0  0
  6 37  1  0  0  0  0
  7  8  1  0  0  0  0
  7 21  2  0  0  0  0
  8  9  1  0  0  0  0
  9 10  1  0  0  0  0
  9 20  2  0  0  0  0
 10 11  2  0  0  0  0
 10 38  1  0  0  0  0
 11 12  1  0  0  0  0
 11 18  1  0  0  0  0
 12 13  1  0  0  0  0
 12 39  1  0  0  0  0
 13 14  2  0  0  0  0
 13 15  1  0  0  0  0
 15 16  1  0  0  0  0
 15 17  1  0  0  0  0
 15 40  1  0  0  0  0
 16 17  1  0  0  0  0
 16 41  1  0  0  0  0
 16 42  1  0  0  0  0
 17 43  1  0  0  0  0
 17 44  1  0  0  0  0
 18 19  2  0  0  0  0
 19 20  1  0  0  0  0
 19 45  1  0  0  0  0
 21 22  1  0  0  0  0
 21 46  1  0  0  0  0
 22 47  1  0  0  0  0
 23 24  1  0  0  0  0
 23 48  1  0  0  0  0
 24 25  1  0  0  0  0
 24 34  2  0  0  0  0
 25 26  2  0  0  0  0
 25 49  1  0  0  0  0
 26 27  1  0  0  0  0
 26 28  1  0  0  0  0
 28 29  2  0  0  0  0
 28 50  1  0  0  0  0
 29 30  1  0  0  0  0
 29 34  1  0  0  0  0
 30 31  1  0  0  0  0
 30 32  1  0  0  0  0
 30 33  1  0  0  0  0
 34 51  1  0  0  0  0
M  END
$$$$
