CHEMBL1822792
 OpenBabel04072215363D

 60 64  0  0  1  0  0  0  0  0999 V2000
    1.4961    0.4043    1.7086 C   0  0  0  0  0  0  0  0  0  0  0  0
    2.2645    0.5398    0.4501 N   0  0  0  0  0  0  0  0  0  0  0  0
    1.4200    0.3335   -0.7777 C   0  0  0  0  0  0  0  0  0  0  0  0
    0.3701    1.4336   -1.0085 C   0  0  2  0  0  0  0  0  0  0  0  0
   -0.4584    1.1704   -2.2756 C   0  0  0  0  0  0  0  0  0  0  0  0
   -1.4005    2.2377   -2.4910 O   0  0  0  0  0  0  0  0  0  0  0  0
   -0.7160    3.4988   -2.5845 C   0  0  0  0  0  0  0  0  0  0  0  0
    0.0981    3.7556   -1.3236 C   0  0  0  0  0  0  0  0  0  0  0  0
    1.0373    2.6941   -1.1525 O   0  0  0  0  0  0  0  0  0  0  0  0
    3.3148    1.8812    0.4095 S   0  0  0  0  0  0  0  0  0  0  0  0
    3.8660    2.0166   -0.9202 O   0  0  0  0  0  0  0  0  0  0  0  0
    2.7183    2.9711    1.1439 O   0  0  0  0  0  0  0  0  0  0  0  0
    4.5973    1.2380    1.3173 N   0  0  0  0  0  0  0  0  0  0  0  0
    5.3750    2.2264    2.0043 C   0  0  0  0  0  0  0  0  0  0  0  0
    6.3433    2.9885    1.3630 C   0  0  0  0  0  0  0  0  0  0  0  0
    7.0147    3.9940    2.0728 C   0  0  0  0  0  0  0  0  0  0  0  0
    6.7245    4.2671    3.4276 C   0  0  0  0  0  0  0  0  0  0  0  0
    7.5436    5.2889    4.0919 C   0  0  0  0  0  0  0  0  0  0  0  0
    7.2708    5.9922    5.2009 C   0  0  0  0  0  0  0  0  0  0  0  0
    6.0871    5.9539    6.0510 C   0  0  0  0  0  0  0  0  0  0  0  0
    5.9441    7.0762    6.8108 N   0  0  0  0  0  0  0  0  0  0  0  0
    4.8975    7.1395    7.6762 C   0  0  0  0  0  0  0  0  0  0  0  0
    3.9567    6.1331    7.8383 C   0  0  0  0  0  0  0  0  0  0  0  0
    2.8213    6.2751    8.7286 C   0  0  0  0  0  0  0  0  0  0  0  0
    2.1257    7.4251    9.1701 C   0  0  0  0  0  0  0  0  0  0  0  0
    1.0833    7.1314    9.9523 N   0  0  0  0  0  0  0  0  0  0  0  0
    1.1005    5.7886   10.0092 N   0  0  0  0  0  0  0  0  0  0  0  0
    0.0667    5.0754   10.7195 C   0  0  0  0  0  0  0  0  0  0  0  0
    2.1337    5.2301    9.3131 C   0  0  0  0  0  0  0  0  0  0  0  0
    4.1411    4.9849    7.0713 C   0  0  0  0  0  0  0  0  0  0  0  0
    5.2161    4.8834    6.1721 C   0  0  0  0  0  0  0  0  0  0  0  0
    5.3581    3.6055    5.4687 C   0  0  0  0  0  0  0  0  0  0  0  0
    5.0386    2.5800    6.0742 O   0  0  0  0  0  0  0  0  0  0  0  0
    5.7442    3.4914    4.0510 C   0  0  0  0  0  0  0  0  0  0  0  0
    5.0680    2.4851    3.3341 C   0  0  0  0  0  0  0  0  0  0  0  0
    0.9322   -0.5348    1.7053 H   0  0  0  0  0  0  0  0  0  0  0  0
    0.7822    1.2257    1.8284 H   0  0  0  0  0  0  0  0  0  0  0  0
    2.1624    0.3825    2.5742 H   0  0  0  0  0  0  0  0  0  0  0  0
    0.9211   -0.6438   -0.6874 H   0  0  0  0  0  0  0  0  0  0  0  0
    2.0913    0.2504   -1.6398 H   0  0  0  0  0  0  0  0  0  0  0  0
   -0.3041    1.4981   -0.1459 H   0  0  0  0  0  0  0  0  0  0  0  0
   -1.0294    0.2405   -2.1820 H   0  0  0  0  0  0  0  0  0  0  0  0
    0.1800    1.0926   -3.1633 H   0  0  0  0  0  0  0  0  0  0  0  0
   -1.4608    4.2860   -2.7246 H   0  0  0  0  0  0  0  0  0  0  0  0
   -0.0645    3.4744   -3.4667 H   0  0  0  0  0  0  0  0  0  0  0  0
   -0.5415    3.8079   -0.4339 H   0  0  0  0  0  0  0  0  0  0  0  0
    0.6583    4.6915   -1.4011 H   0  0  0  0  0  0  0  0  0  0  0  0
    5.1502    0.6981    0.6519 H   0  0  0  0  0  0  0  0  0  0  0  0
    6.5820    2.8229    0.3145 H   0  0  0  0  0  0  0  0  0  0  0  0
    7.7764    4.5710    1.5469 H   0  0  0  0  0  0  0  0  0  0  0  0
    8.4888    5.5149    3.5986 H   0  0  0  0  0  0  0  0  0  0  0  0
    8.0025    6.7352    5.5199 H   0  0  0  0  0  0  0  0  0  0  0  0
    4.8554    8.0581    8.2559 H   0  0  0  0  0  0  0  0  0  0  0  0
    2.3197    8.4645    8.9379 H   0  0  0  0  0  0  0  0  0  0  0  0
   -0.6039    5.7879   11.2058 H   0  0  0  0  0  0  0  0  0  0  0  0
    0.5400    4.4349   11.4674 H   0  0  0  0  0  0  0  0  0  0  0  0
   -0.4901    4.4729    9.9968 H   0  0  0  0  0  0  0  0  0  0  0  0
    2.2733    4.1578    9.2846 H   0  0  0  0  0  0  0  0  0  0  0  0
    3.4432    4.1532    7.1498 H   0  0  0  0  0  0  0  0  0  0  0  0
    4.2922    1.8967    3.8202 H   0  0  0  0  0  0  0  0  0  0  0  0
  1  2  1  0  0  0  0
  1 36  1  0  0  0  0
  1 37  1  0  0  0  0
  1 38  1  0  0  0  0
  2  3  1  0  0  0  0
  2 10  1  0  0  0  0
  3  4  1  0  0  0  0
  3 39  1  0  0  0  0
  3 40  1  0  0  0  0
  4  5  1  0  0  0  0
  4  9  1  0  0  0  0
  4 41  1  1  0  0  0
  5  6  1  0  0  0  0
  5 42  1  0  0  0  0
  5 43  1  0  0  0  0
  6  7  1  0  0  0  0
  7  8  1  0  0  0  0
  7 44  1  0  0  0  0
  7 45  1  0  0  0  0
  8  9  1  0  0  0  0
  8 46  1  0  0  0  0
  8 47  1  0  0  0  0
 10 11  2  0  0  0  0
 10 12  2  0  0  0  0
 10 13  1  0  0  0  0
 13 14  1  0  0  0  0
 13 48  1  0  0  0  0
 14 15  1  0  0  0  0
 14 35  2  0  0  0  0
 15 16  2  0  0  0  0
 15 49  1  0  0  0  0
 16 17  1  0  0  0  0
 16 50  1  0  0  0  0
 17 18  1  0  0  0  0
 17 34  2  0  0  0  0
 18 19  2  0  0  0  0
 18 51  1  0  0  0  0
 19 20  1  0  0  0  0
 19 52  1  0  0  0  0
 20 21  1  0  0  0  0
 20 31  2  0  0  0  0
 21 22  2  0  0  0  0
 22 23  1  0  0  0  0
 22 53  1  0  0  0  0
 23 24  1  0  0  0  0
 23 30  2  0  0  0  0
 24 25  1  0  0  0  0
 24 29  2  0  0  0  0
 25 26  2  0  0  0  0
 25 54  1  0  0  0  0
 26 27  1  0  0  0  0
 27 28  1  0  0  0  0
 27 29  1  0  0  0  0
 28 55  1  0  0  0  0
 28 56  1  0  0  0  0
 28 57  1  0  0  0  0
 29 58  1  0  0  0  0
 30 31  1  0  0  0  0
 30 59  1  0  0  0  0
 31 32  1  0  0  0  0
 32 33  2  0  0  0  0
 32 34  1  0  0  0  0
 34 35  1  0  0  0  0
 35 60  1  0  0  0  0
M  END
$$$$
