CHEMBL245734
 OpenBabel04072215363D

 47 51  0  0  1  0  0  0  0  0999 V2000
    4.8965    4.3930   -0.1740 O   0  0  0  0  0  0  0  0  0  0  0  0
    4.7032    3.1911   -0.3192 C   0  0  0  0  0  0  0  0  0  0  0  0
    3.4929    2.6645   -0.0519 O   0  0  0  0  0  0  0  0  0  0  0  0
    5.8214    2.2215   -0.6962 C   0  0  3  0  0  0  0  0  0  0  0  0
    6.8901    2.9224   -1.5748 C   0  0  0  0  0  0  0  0  0  0  0  0
    6.4439    3.0937   -3.0331 C   0  0  0  0  0  0  0  0  0  0  0  0
    5.8812    1.7905   -3.6163 C   0  0  0  0  0  0  0  0  0  0  0  0
    4.8494    1.2627   -2.7253 N   0  0  0  0  0  0  0  0  0  0  0  0
    3.4598    1.3234   -2.8925 C   0  0  0  0  0  0  0  0  0  0  0  0
    2.7151    0.8950   -2.0058 O   0  0  0  0  0  0  0  0  0  0  0  0
    2.8237    1.9525   -4.0913 C   0  0  0  0  0  0  0  0  0  0  0  0
    3.3119    3.1508   -4.6458 C   0  0  0  0  0  0  0  0  0  0  0  0
    2.7293    3.7749   -5.7645 C   0  0  0  0  0  0  0  0  0  0  0  0
    1.5769    3.2585   -6.3311 C   0  0  0  0  0  0  0  0  0  0  0  0
    1.0526    2.1298   -5.7409 C   0  0  0  0  0  0  0  0  0  0  0  0
    1.6406    1.4550   -4.6309 C   0  0  0  0  0  0  0  0  0  0  0  0
    0.8093    0.2424   -4.1718 C   0  0  0  0  0  0  0  0  0  0  0  0
   -0.3012    0.3601   -5.1674 C   0  0  0  0  0  0  0  0  0  0  0  0
   -0.1407    1.4326   -6.0514 C   0  0  0  0  0  0  0  0  0  0  0  0
   -1.1101    1.5687   -6.9414 N   0  0  0  0  0  0  0  0  0  0  0  0
   -1.9252    0.5365   -6.6129 N   0  0  0  0  0  0  0  0  0  0  0  0
   -1.4804   -0.2223   -5.5485 C   0  0  0  0  0  0  0  0  0  0  0  0
   -2.1685   -1.4042   -4.9698 C   0  0  0  0  0  0  0  0  0  0  0  0
   -1.7228   -2.1500   -3.8446 C   0  0  0  0  0  0  0  0  0  0  0  0
   -2.5650   -3.1992   -3.5376 C   0  0  0  0  0  0  0  0  0  0  0  0
   -3.8915   -3.2873   -4.6145 S   0  0  0  0  0  0  0  0  0  0  0  0
   -3.3390   -1.9194   -5.4861 C   0  0  0  0  0  0  0  0  0  0  0  0
    5.3706    0.9400   -1.3967 C   0  0  0  0  0  0  0  0  0  0  0  0
    3.2880    1.7616   -0.3820 H   0  0  0  0  0  0  0  0  0  0  0  0
    6.2949    1.9497    0.2563 H   0  0  0  0  0  0  0  0  0  0  0  0
    7.8089    2.3236   -1.5638 H   0  0  0  0  0  0  0  0  0  0  0  0
    7.1550    3.9056   -1.1673 H   0  0  0  0  0  0  0  0  0  0  0  0
    7.2776    3.4473   -3.6492 H   0  0  0  0  0  0  0  0  0  0  0  0
    5.6945    3.8890   -3.0418 H   0  0  0  0  0  0  0  0  0  0  0  0
    6.6816    1.0417   -3.6716 H   0  0  0  0  0  0  0  0  0  0  0  0
    5.5145    1.9128   -4.6373 H   0  0  0  0  0  0  0  0  0  0  0  0
    4.1472    3.6674   -4.2030 H   0  0  0  0  0  0  0  0  0  0  0  0
    3.1745    4.6829   -6.1639 H   0  0  0  0  0  0  0  0  0  0  0  0
    1.0886    3.7342   -7.1729 H   0  0  0  0  0  0  0  0  0  0  0  0
    0.4387    0.3732   -3.1522 H   0  0  0  0  0  0  0  0  0  0  0  0
    1.3695   -0.6878   -4.2962 H   0  0  0  0  0  0  0  0  0  0  0  0
   -2.7753    0.4132   -7.1509 H   0  0  0  0  0  0  0  0  0  0  0  0
   -0.8307   -1.9404   -3.2623 H   0  0  0  0  0  0  0  0  0  0  0  0
   -2.4685   -3.9142   -2.7358 H   0  0  0  0  0  0  0  0  0  0  0  0
   -3.9178   -1.5785   -6.3337 H   0  0  0  0  0  0  0  0  0  0  0  0
    6.2288    0.2682   -1.5298 H   0  0  0  0  0  0  0  0  0  0  0  0
    4.6474    0.3795   -0.7982 H   0  0  0  0  0  0  0  0  0  0  0  0
  1  2  2  0  0  0  0
  2  3  1  0  0  0  0
  2  4  1  0  0  0  0
  3 29  1  0  0  0  0
  4  5  1  0  0  0  0
  4 28  1  0  0  0  0
  4 30  1  0  0  0  0
  5  6  1  0  0  0  0
  5 31  1  0  0  0  0
  5 32  1  0  0  0  0
  6  7  1  0  0  0  0
  6 33  1  0  0  0  0
  6 34  1  0  0  0  0
  7  8  1  0  0  0  0
  7 35  1  0  0  0  0
  7 36  1  0  0  0  0
  8  9  1  0  0  0  0
  8 28  1  0  0  0  0
  9 10  2  0  0  0  0
  9 11  1  0  0  0  0
 11 12  1  0  0  0  0
 11 16  2  0  0  0  0
 12 13  2  0  0  0  0
 12 37  1  0  0  0  0
 13 14  1  0  0  0  0
 13 38  1  0  0  0  0
 14 15  2  0  0  0  0
 14 39  1  0  0  0  0
 15 16  1  0  0  0  0
 15 19  1  0  0  0  0
 16 17  1  0  0  0  0
 17 18  1  0  0  0  0
 17 40  1  0  0  0  0
 17 41  1  0  0  0  0
 18 19  1  0  0  0  0
 18 22  2  0  0  0  0
 19 20  2  0  0  0  0
 20 21  1  0  0  0  0
 21 22  1  0  0  0  0
 21 42  1  0  0  0  0
 22 23  1  0  0  0  0
 23 24  1  0  0  0  0
 23 27  2  0  0  0  0
 24 25  2  0  0  0  0
 24 43  1  0  0  0  0
 25 26  1  0  0  0  0
 25 44  1  0  0  0  0
 26 27  1  0  0  0  0
 27 45  1  0  0  0  0
 28 46  1  0  0  0  0
 28 47  1  0  0  0  0
M  END
$$$$
