CHEMBL3957533
 OpenBabel04072215373D

 69 73  0  0  1  0  0  0  0  0999 V2000
    0.6308    3.5477    2.0368 C   0  0  0  0  0  0  0  0  0  0  0  0
    2.0174    3.8957    1.9956 O   0  0  0  0  0  0  0  0  0  0  0  0
    2.9042    2.8900    1.6857 C   0  0  0  0  0  0  0  0  0  0  0  0
    2.5415    1.5556    1.4904 C   0  0  0  0  0  0  0  0  0  0  0  0
    3.5056    0.6304    1.1032 C   0  0  0  0  0  0  0  0  0  0  0  0
    3.2785   -0.6914    0.8262 O   0  0  0  0  0  0  0  0  0  0  0  0
    1.9585   -1.1766    1.0337 C   0  0  0  0  0  0  0  0  0  0  0  0
    4.8343    1.0387    0.9188 C   0  0  0  0  0  0  0  0  0  0  0  0
    5.2459    2.3673    1.1062 C   0  0  0  0  0  0  0  0  0  0  0  0
    6.5282    2.8159    0.6946 N   0  0  0  0  0  0  0  0  0  0  0  0
    7.0822    2.1535   -0.5647 C   0  0  0  0  0  0  0  0  0  0  0  0
    6.1918    2.2708   -1.8459 C   0  0  0  0  0  0  0  0  0  0  0  0
    6.7538    1.6502   -3.0846 N   0  0  0  0  0  0  0  0  0  0  0  0
    5.8787    1.8570   -4.2582 C   0  0  0  0  0  0  0  0  0  0  0  0
    4.5919    1.0214   -4.2380 C   0  0  0  0  0  0  0  0  0  0  0  0
    4.8850   -0.4678   -4.0564 C   0  0  0  0  0  0  0  0  0  0  0  0
    5.8140   -0.6994   -2.8587 C   0  0  3  0  0  0  0  0  0  0  0  0
    6.1796   -2.1171   -2.7697 N   0  0  0  0  0  0  0  0  0  0  0  0
    7.0625    0.2096   -2.9690 C   0  0  0  0  0  0  0  0  0  0  0  0
    7.6354    3.3209    1.4829 C   0  0  0  0  0  0  0  0  0  0  0  0
    8.4126    4.2730    0.8264 C   0  0  0  0  0  0  0  0  0  0  0  0
    9.7467    4.4193    1.1473 C   0  0  0  0  0  0  0  0  0  0  0  0
   10.2996    3.7804    2.2263 C   0  0  0  0  0  0  0  0  0  0  0  0
   11.6320    3.8795    2.2736 N   0  0  0  0  0  0  0  0  0  0  0  0
   12.2237    3.4509    3.3913 C   0  0  0  0  0  0  0  0  0  0  0  0
   11.4987    3.0190    4.4840 C   0  0  0  0  0  0  0  0  0  0  0  0
   12.2360    3.0151    5.7496 C   0  0  0  0  0  0  0  0  0  0  0  0
   12.2696    4.0127    6.7621 C   0  0  0  0  0  0  0  0  0  0  0  0
   13.2687    3.8415    7.6382 N   0  0  0  0  0  0  0  0  0  0  0  0
   13.8946    2.7420    7.1868 N   0  0  0  0  0  0  0  0  0  0  0  0
   14.9025    2.0905    7.9903 C   0  0  0  0  0  0  0  0  0  0  0  0
   13.4105    2.3104    5.9807 C   0  0  0  0  0  0  0  0  0  0  0  0
   10.1377    2.7906    4.3893 N   0  0  0  0  0  0  0  0  0  0  0  0
    9.5084    3.1173    3.1783 C   0  0  0  0  0  0  0  0  0  0  0  0
    8.1441    2.8244    2.7191 C   0  0  0  0  0  0  0  0  0  0  0  0
    4.2505    3.2811    1.5145 C   0  0  0  0  0  0  0  0  0  0  0  0
    0.0465    4.4649    2.1626 H   0  0  0  0  0  0  0  0  0  0  0  0
    0.4175    2.8994    2.8947 H   0  0  0  0  0  0  0  0  0  0  0  0
    0.2965    3.0789    1.1029 H   0  0  0  0  0  0  0  0  0  0  0  0
    1.5150    1.2427    1.6249 H   0  0  0  0  0  0  0  0  0  0  0  0
    1.9618   -2.2524    0.8355 H   0  0  0  0  0  0  0  0  0  0  0  0
    1.2542   -0.7118    0.3357 H   0  0  0  0  0  0  0  0  0  0  0  0
    1.6423   -1.0300    2.0718 H   0  0  0  0  0  0  0  0  0  0  0  0
    5.5447    0.2875    0.5829 H   0  0  0  0  0  0  0  0  0  0  0  0
    7.3149    1.1125   -0.3281 H   0  0  0  0  0  0  0  0  0  0  0  0
    8.0438    2.5980   -0.8571 H   0  0  0  0  0  0  0  0  0  0  0  0
    6.0681    3.3426   -2.0527 H   0  0  0  0  0  0  0  0  0  0  0  0
    5.1921    1.8788   -1.6496 H   0  0  0  0  0  0  0  0  0  0  0  0
    6.4450    1.5952   -5.1638 H   0  0  0  0  0  0  0  0  0  0  0  0
    5.6326    2.9192   -4.3713 H   0  0  0  0  0  0  0  0  0  0  0  0
    4.0417    1.1679   -5.1758 H   0  0  0  0  0  0  0  0  0  0  0  0
    3.9319    1.3639   -3.4344 H   0  0  0  0  0  0  0  0  0  0  0  0
    5.3455   -0.8551   -4.9755 H   0  0  0  0  0  0  0  0  0  0  0  0
    3.9434   -1.0141   -3.9218 H   0  0  0  0  0  0  0  0  0  0  0  0
    5.2766   -0.4462   -1.9383 H   0  0  0  0  0  0  0  0  0  0  0  0
    6.6082   -2.4229   -3.6429 H   0  0  0  0  0  0  0  0  0  0  0  0
    5.3339   -2.6770   -2.6610 H   0  0  0  0  0  0  0  0  0  0  0  0
    7.6345   -0.0839   -3.8630 H   0  0  0  0  0  0  0  0  0  0  0  0
    7.7499    0.0267   -2.1369 H   0  0  0  0  0  0  0  0  0  0  0  0
    8.0309    4.7904   -0.0505 H   0  0  0  0  0  0  0  0  0  0  0  0
   10.3853    5.0202    0.5083 H   0  0  0  0  0  0  0  0  0  0  0  0
   13.3046    3.5315    3.4021 H   0  0  0  0  0  0  0  0  0  0  0  0
   11.6399    4.8868    6.8696 H   0  0  0  0  0  0  0  0  0  0  0  0
   15.0382    2.6306    8.9314 H   0  0  0  0  0  0  0  0  0  0  0  0
   15.8437    2.0517    7.4377 H   0  0  0  0  0  0  0  0  0  0  0  0
   14.5431    1.0783    8.2006 H   0  0  0  0  0  0  0  0  0  0  0  0
   13.9311    1.5500    5.4143 H   0  0  0  0  0  0  0  0  0  0  0  0
    7.5277    2.1778    3.3350 H   0  0  0  0  0  0  0  0  0  0  0  0
    4.5052    4.3328    1.6227 H   0  0  0  0  0  0  0  0  0  0  0  0
  1  2  1  0  0  0  0
  1 37  1  0  0  0  0
  1 38  1  0  0  0  0
  1 39  1  0  0  0  0
  2  3  1  0  0  0  0
  3  4  1  0  0  0  0
  3 36  2  0  0  0  0
  4  5  2  0  0  0  0
  4 40  1  0  0  0  0
  5  6  1  0  0  0  0
  5  8  1  0  0  0  0
  6  7  1  0  0  0  0
  7 41  1  0  0  0  0
  7 42  1  0  0  0  0
  7 43  1  0  0  0  0
  8  9  2  0  0  0  0
  8 44  1  0  0  0  0
  9 10  1  0  0  0  0
  9 36  1  0  0  0  0
 10 11  1  0  0  0  0
 10 20  1  0  0  0  0
 11 12  1  0  0  0  0
 11 45  1  0  0  0  0
 11 46  1  0  0  0  0
 12 13  1  0  0  0  0
 12 47  1  0  0  0  0
 12 48  1  0  0  0  0
 13 14  1  0  0  0  0
 13 19  1  0  0  0  0
 14 15  1  0  0  0  0
 14 49  1  0  0  0  0
 14 50  1  0  0  0  0
 15 16  1  0  0  0  0
 15 51  1  0  0  0  0
 15 52  1  0  0  0  0
 16 17  1  0  0  0  0
 16 53  1  0  0  0  0
 16 54  1  0  0  0  0
 17 18  1  0  0  0  0
 17 19  1  0  0  0  0
 17 55  1  0  0  0  0
 18 56  1  0  0  0  0
 18 57  1  0  0  0  0
 19 58  1  0  0  0  0
 19 59  1  0  0  0  0
 20 21  1  0  0  0  0
 20 35  2  0  0  0  0
 21 22  2  0  0  0  0
 21 60  1  0  0  0  0
 22 23  1  0  0  0  0
 22 61  1  0  0  0  0
 23 24  1  0  0  0  0
 23 34  2  0  0  0  0
 24 25  2  0  0  0  0
 25 26  1  0  0  0  0
 25 62  1  0  0  0  0
 26 27  1  0  0  0  0
 26 33  2  0  0  0  0
 27 28  1  0  0  0  0
 27 32  2  0  0  0  0
 28 29  2  0  0  0  0
 28 63  1  0  0  0  0
 29 30  1  0  0  0  0
 30 31  1  0  0  0  0
 30 32  1  0  0  0  0
 31 64  1  0  0  0  0
 31 65  1  0  0  0  0
 31 66  1  0  0  0  0
 32 67  1  0  0  0  0
 33 34  1  0  0  0  0
 34 35  1  0  0  0  0
 35 68  1  0  0  0  0
 36 69  1  0  0  0  0
M  END
$$$$
