CHEMBL387385
 OpenBabel04072215373D

 48 51  0  0  1  0  0  0  0  0999 V2000
    2.2986   -3.2261   -1.6407 O   0  0  0  0  0  0  0  0  0  0  0  0
    1.6470   -4.2639   -1.6431 C   0  0  0  0  0  0  0  0  0  0  0  0
    1.8264   -5.2555   -0.7101 N   0  0  0  0  0  0  0  0  0  0  0  0
    2.8556   -5.1804    0.3252 C   0  0  2  0  0  0  0  0  0  0  0  0
    4.2332   -5.5330   -0.2943 C   0  0  0  0  0  0  0  0  0  0  0  0
    4.2759   -6.8777   -0.7848 O   0  0  0  0  0  0  0  0  0  0  0  0
    2.4090   -6.0298    1.5138 C   0  0  0  0  0  0  0  0  0  0  0  0
    1.1301   -5.8031    2.0673 C   0  0  0  0  0  0  0  0  0  0  0  0
    0.6312   -6.6105    3.0873 C   0  0  0  0  0  0  0  0  0  0  0  0
    1.4111   -7.6442    3.5887 C   0  0  0  0  0  0  0  0  0  0  0  0
    0.9005   -8.4299    4.5482 F   0  0  0  0  0  0  0  0  0  0  0  0
    2.6944   -7.8608    3.0967 C   0  0  0  0  0  0  0  0  0  0  0  0
    3.6727   -9.1282    3.7291 Cl  0  0  0  0  0  0  0  0  0  0  0  0
    3.1937   -7.0549    2.0711 C   0  0  0  0  0  0  0  0  0  0  0  0
    0.6647   -4.5688   -2.6583 C   0  0  0  0  0  0  0  0  0  0  0  0
   -0.2459   -5.6071   -2.7905 C   0  0  0  0  0  0  0  0  0  0  0  0
   -0.8907   -5.4757   -4.0493 C   0  0  0  0  0  0  0  0  0  0  0  0
   -1.8757   -6.4332   -4.5654 C   0  0  0  0  0  0  0  0  0  0  0  0
   -1.8537   -7.7176   -4.1768 N   0  0  0  0  0  0  0  0  0  0  0  0
   -2.8272   -8.2890   -4.8971 N   0  0  0  0  0  0  0  0  0  0  0  0
   -3.5005   -7.4157   -5.6978 C   0  0  0  0  0  0  0  0  0  0  0  0
   -2.9201   -6.1765   -5.5037 C   0  0  0  0  0  0  0  0  0  0  0  0
   -3.3818   -4.9641   -6.1654 C   0  0  0  0  0  0  0  0  0  0  0  0
   -3.7951   -4.9887   -7.5061 C   0  0  0  0  0  0  0  0  0  0  0  0
   -4.1822   -3.8125   -8.1553 C   0  0  0  0  0  0  0  0  0  0  0  0
   -4.1432   -2.5959   -7.4766 C   0  0  0  0  0  0  0  0  0  0  0  0
   -3.7501   -2.5664   -6.1418 C   0  0  0  0  0  0  0  0  0  0  0  0
   -3.6603   -1.0628   -5.3093 Cl  0  0  0  0  0  0  0  0  0  0  0  0
   -3.4013   -3.7426   -5.4794 C   0  0  0  0  0  0  0  0  0  0  0  0
   -0.3704   -4.3502   -4.6484 C   0  0  0  0  0  0  0  0  0  0  0  0
    0.5033   -3.7687   -3.7696 N   0  0  0  0  0  0  0  0  0  0  0  0
    1.3168   -6.1220   -0.8058 H   0  0  0  0  0  0  0  0  0  0  0  0
    2.9155   -4.1397    0.6692 H   0  0  0  0  0  0  0  0  0  0  0  0
    4.4629   -4.8768   -1.1410 H   0  0  0  0  0  0  0  0  0  0  0  0
    5.0352   -5.4157    0.4413 H   0  0  0  0  0  0  0  0  0  0  0  0
    3.5170   -6.9858   -1.3841 H   0  0  0  0  0  0  0  0  0  0  0  0
    0.5044   -4.9992    1.6771 H   0  0  0  0  0  0  0  0  0  0  0  0
   -0.3662   -6.4481    3.4843 H   0  0  0  0  0  0  0  0  0  0  0  0
    4.1967   -7.2598    1.6970 H   0  0  0  0  0  0  0  0  0  0  0  0
   -0.4246   -6.4063   -2.0828 H   0  0  0  0  0  0  0  0  0  0  0  0
   -2.9801   -9.2867   -4.7904 H   0  0  0  0  0  0  0  0  0  0  0  0
   -4.3228   -7.7489   -6.3146 H   0  0  0  0  0  0  0  0  0  0  0  0
   -3.8029   -5.9209   -8.0670 H   0  0  0  0  0  0  0  0  0  0  0  0
   -4.4975   -3.8447   -9.1952 H   0  0  0  0  0  0  0  0  0  0  0  0
   -4.4161   -1.6788   -7.9911 H   0  0  0  0  0  0  0  0  0  0  0  0
   -3.1178   -3.6943   -4.4308 H   0  0  0  0  0  0  0  0  0  0  0  0
   -0.5485   -3.9026   -5.6171 H   0  0  0  0  0  0  0  0  0  0  0  0
    1.0194   -2.9101   -3.9245 H   0  0  0  0  0  0  0  0  0  0  0  0
  1  2  2  0  0  0  0
  2  3  1  0  0  0  0
  2 15  1  0  0  0  0
  3 32  1  0  0  0  0
  4  7  1  0  0  0  0
  4  5  1  0  0  0  0
  4  3  1  0  0  0  0
  4 33  1  1  0  0  0
  5  6  1  0  0  0  0
  5 34  1  0  0  0  0
  5 35  1  0  0  0  0
  6 36  1  0  0  0  0
  7  8  1  0  0  0  0
  7 14  2  0  0  0  0
  8  9  2  0  0  0  0
  8 37  1  0  0  0  0
  9 10  1  0  0  0  0
  9 38  1  0  0  0  0
 10 11  1  0  0  0  0
 10 12  2  0  0  0  0
 12 13  1  0  0  0  0
 12 14  1  0  0  0  0
 14 39  1  0  0  0  0
 15 16  2  0  0  0  0
 15 31  1  0  0  0  0
 16 17  1  0  0  0  0
 16 40  1  0  0  0  0
 17 18  1  0  0  0  0
 17 30  2  0  0  0  0
 18 19  2  0  0  0  0
 18 22  1  0  0  0  0
 19 20  1  0  0  0  0
 20 21  1  0  0  0  0
 20 41  1  0  0  0  0
 21 22  2  0  0  0  0
 21 42  1  0  0  0  0
 22 23  1  0  0  0  0
 23 24  1  0  0  0  0
 23 29  2  0  0  0  0
 24 25  2  0  0  0  0
 24 43  1  0  0  0  0
 25 26  1  0  0  0  0
 25 44  1  0  0  0  0
 26 27  2  0  0  0  0
 26 45  1  0  0  0  0
 27 28  1  0  0  0  0
 27 29  1  0  0  0  0
 29 46  1  0  0  0  0
 30 31  1  0  0  0  0
 30 47  1  0  0  0  0
 31 48  1  0  0  0  0
M  END
$$$$
