CHEMBL3963229
 OpenBabel04072215373D

 50 54  0  0  1  0  0  0  0  0999 V2000
    2.4509   -0.5140    0.4552 C   0  0  0  0  0  0  0  0  0  0  0  0
    1.0536   -0.2196    0.0217 C   0  0  0  0  0  0  0  0  0  0  0  0
    0.5880    1.0674   -0.3860 C   0  0  0  0  0  0  0  0  0  0  0  0
   -0.7353    0.9145   -0.7153 C   0  0  0  0  0  0  0  0  0  0  0  0
   -1.1228   -0.3692   -0.5448 O   0  0  0  0  0  0  0  0  0  0  0  0
   -0.0385   -1.0767   -0.0931 C   0  0  0  0  0  0  0  0  0  0  0  0
   -0.2237   -2.4956    0.1424 C   0  0  0  0  0  0  0  0  0  0  0  0
    0.6955   -3.2023    0.5644 O   0  0  0  0  0  0  0  0  0  0  0  0
   -1.4916   -2.9699   -0.1923 N   0  0  0  0  0  0  0  0  0  0  0  0
   -1.9493   -4.3006   -0.0884 C   0  0  0  0  0  0  0  0  0  0  0  0
   -1.3087   -5.2563    0.6973 C   0  0  0  0  0  0  0  0  0  0  0  0
   -1.7860   -6.5643    0.7501 C   0  0  0  0  0  0  0  0  0  0  0  0
   -2.9202   -6.9211    0.0287 C   0  0  0  0  0  0  0  0  0  0  0  0
   -3.6207   -5.9659   -0.7253 C   0  0  0  0  0  0  0  0  0  0  0  0
   -4.9748   -6.2834   -1.3508 C   0  0  3  0  0  0  0  0  0  0  0  0
   -4.9280   -7.4486   -2.3635 C   0  0  0  0  0  0  0  0  0  0  0  0
   -6.1533   -8.2990   -2.3744 N   0  0  0  0  0  0  0  0  0  0  0  0
   -6.5612   -8.6282   -1.1971 C   0  0  0  0  0  0  0  0  0  0  0  0
   -7.4279   -9.7693   -0.9070 C   0  0  0  0  0  0  0  0  0  0  0  0
   -8.7565   -9.9212   -1.2490 C   0  0  0  0  0  0  0  0  0  0  0  0
   -9.3923  -11.1036   -0.8623 C   0  0  0  0  0  0  0  0  0  0  0  0
   -8.6599  -12.1384   -0.2547 C   0  0  0  0  0  0  0  0  0  0  0  0
   -7.3595  -11.9084    0.1925 C   0  0  0  0  0  0  0  0  0  0  0  0
   -6.8447  -10.6370    0.0088 C   0  0  0  0  0  0  0  0  0  0  0  0
   -6.0974  -10.0248    1.0556 N   0  0  0  0  0  0  0  0  0  0  0  0
   -6.2172   -8.6212    1.1659 C   0  0  0  0  0  0  0  0  0  0  0  0
   -6.4365   -8.0601    2.2133 O   0  0  0  0  0  0  0  0  0  0  0  0
   -6.1122   -7.9931   -0.0660 N   0  0  0  0  0  0  0  0  0  0  0  0
   -5.9840   -6.5671   -0.2299 C   0  0  0  0  0  0  0  0  0  0  0  0
   -3.1120   -4.6543   -0.7865 C   0  0  0  0  0  0  0  0  0  0  0  0
    3.0864    0.3705    0.3369 H   0  0  0  0  0  0  0  0  0  0  0  0
    2.8887   -1.3112   -0.1508 H   0  0  0  0  0  0  0  0  0  0  0  0
    2.4855   -0.8008    1.5078 H   0  0  0  0  0  0  0  0  0  0  0  0
    1.1539    1.9840   -0.4378 H   0  0  0  0  0  0  0  0  0  0  0  0
   -1.4981    1.5917   -1.0765 H   0  0  0  0  0  0  0  0  0  0  0  0
   -2.1031   -2.3001   -0.6528 H   0  0  0  0  0  0  0  0  0  0  0  0
   -0.4490   -5.0078    1.3115 H   0  0  0  0  0  0  0  0  0  0  0  0
   -1.2819   -7.2936    1.3811 H   0  0  0  0  0  0  0  0  0  0  0  0
   -3.2716   -7.9462    0.1005 H   0  0  0  0  0  0  0  0  0  0  0  0
   -5.3206   -5.3938   -1.8906 H   0  0  0  0  0  0  0  0  0  0  0  0
   -4.0658   -8.1080   -2.1811 H   0  0  0  0  0  0  0  0  0  0  0  0
   -4.7661   -7.0520   -3.3716 H   0  0  0  0  0  0  0  0  0  0  0  0
   -9.3080   -9.1072   -1.7079 H   0  0  0  0  0  0  0  0  0  0  0  0
  -10.4621  -11.2220   -1.0169 H   0  0  0  0  0  0  0  0  0  0  0  0
   -9.1432  -13.0880   -0.0369 H   0  0  0  0  0  0  0  0  0  0  0  0
   -6.8395  -12.6537    0.7851 H   0  0  0  0  0  0  0  0  0  0  0  0
   -5.1306  -10.3278    1.0536 H   0  0  0  0  0  0  0  0  0  0  0  0
   -5.7474   -6.0747    0.7173 H   0  0  0  0  0  0  0  0  0  0  0  0
   -6.9705   -6.1939   -0.5500 H   0  0  0  0  0  0  0  0  0  0  0  0
   -3.6351   -3.9104   -1.3833 H   0  0  0  0  0  0  0  0  0  0  0  0
  1  2  1  0  0  0  0
  1 31  1  0  0  0  0
  1 32  1  0  0  0  0
  1 33  1  0  0  0  0
  2  3  1  0  0  0  0
  2  6  2  0  0  0  0
  3  4  2  0  0  0  0
  3 34  1  0  0  0  0
  4  5  1  0  0  0  0
  4 35  1  0  0  0  0
  5  6  1  0  0  0  0
  6  7  1  0  0  0  0
  7  8  2  0  0  0  0
  7  9  1  0  0  0  0
  9 10  1  0  0  0  0
  9 36  1  0  0  0  0
 10 11  1  0  0  0  0
 10 30  2  0  0  0  0
 11 12  2  0  0  0  0
 11 37  1  0  0  0  0
 12 13  1  0  0  0  0
 12 38  1  0  0  0  0
 13 14  2  0  0  0  0
 13 39  1  0  0  0  0
 14 15  1  0  0  0  0
 14 30  1  0  0  0  0
 15 16  1  0  0  0  0
 15 29  1  0  0  0  0
 15 40  1  0  0  0  0
 16 17  1  0  0  0  0
 16 41  1  0  0  0  0
 16 42  1  0  0  0  0
 17 18  2  0  0  0  0
 18 19  1  0  0  0  0
 18 28  1  0  0  0  0
 19 20  1  0  0  0  0
 19 24  2  0  0  0  0
 20 21  2  0  0  0  0
 20 43  1  0  0  0  0
 21 22  1  0  0  0  0
 21 44  1  0  0  0  0
 22 23  2  0  0  0  0
 22 45  1  0  0  0  0
 23 24  1  0  0  0  0
 23 46  1  0  0  0  0
 24 25  1  0  0  0  0
 25 26  1  0  0  0  0
 25 47  1  0  0  0  0
 26 27  2  0  0  0  0
 26 28  1  0  0  0  0
 28 29  1  0  0  0  0
 29 48  1  0  0  0  0
 29 49  1  0  0  0  0
 30 50  1  0  0  0  0
M  END
$$$$
