CHEMBL197158
 OpenBabel04072215363D

 42 45  0  0  0  0  0  0  0  0999 V2000
    1.9634   -1.2869   -0.4062 N   0  0  0  0  0  0  0  0  0  0  0  0
    2.4576   -0.0707   -0.0231 C   0  0  0  0  0  0  0  0  0  0  0  0
    2.2719    0.3539    1.1099 O   0  0  0  0  0  0  0  0  0  0  0  0
    3.1563    0.7358   -1.0586 C   0  0  0  0  0  0  0  0  0  0  0  0
    3.2501    2.1154   -0.8721 C   0  0  0  0  0  0  0  0  0  0  0  0
    3.8310    2.9201   -1.8589 C   0  0  0  0  0  0  0  0  0  0  0  0
    4.2709    2.3890   -3.0877 C   0  0  0  0  0  0  0  0  0  0  0  0
    4.7702    3.2460   -4.2009 C   0  0  0  0  0  0  0  0  0  0  0  0
    5.7534    2.6715   -4.9302 N   0  0  0  0  0  0  0  0  0  0  0  0
    6.3748    3.3577   -5.9436 N   0  0  0  0  0  0  0  0  0  0  0  0
    6.0703    4.6429   -6.2053 C   0  0  0  0  0  0  0  0  0  0  0  0
    6.7603    5.3612   -7.2171 N   0  0  0  0  0  0  0  0  0  0  0  0
    8.0123    5.1235   -7.8153 C   0  0  0  0  0  0  0  0  0  0  0  0
    8.9372    4.1980   -7.3189 C   0  0  0  0  0  0  0  0  0  0  0  0
   10.2273    4.1001   -7.8543 C   0  0  0  0  0  0  0  0  0  0  0  0
   10.6170    4.9542   -8.8770 C   0  0  0  0  0  0  0  0  0  0  0  0
   12.3772    4.8653   -9.5573 Br  0  0  0  0  0  0  0  0  0  0  0  0
    9.7215    5.8958   -9.3817 C   0  0  0  0  0  0  0  0  0  0  0  0
    8.4293    5.9783   -8.8498 C   0  0  0  0  0  0  0  0  0  0  0  0
    5.0613    5.2971   -5.4668 C   0  0  0  0  0  0  0  0  0  0  0  0
    4.7622    6.6740   -5.6391 C   0  0  0  0  0  0  0  0  0  0  0  0
    3.7343    7.3020   -4.9383 C   0  0  0  0  0  0  0  0  0  0  0  0
    2.9367    6.5562   -4.0912 C   0  0  0  0  0  0  0  0  0  0  0  0
    3.2207    5.2045   -3.8933 C   0  0  0  0  0  0  0  0  0  0  0  0
    4.3358    4.5614   -4.4959 C   0  0  0  0  0  0  0  0  0  0  0  0
    4.2603    0.9867   -3.2032 C   0  0  0  0  0  0  0  0  0  0  0  0
    3.7212    0.1668   -2.2003 C   0  0  0  0  0  0  0  0  0  0  0  0
    1.3787   -1.7656    0.2670 H   0  0  0  0  0  0  0  0  0  0  0  0
    1.8937   -1.5720   -1.3719 H   0  0  0  0  0  0  0  0  0  0  0  0
    2.8606    2.5743    0.0351 H   0  0  0  0  0  0  0  0  0  0  0  0
    3.9219    3.9829   -1.6439 H   0  0  0  0  0  0  0  0  0  0  0  0
    6.0998    5.8001   -7.8486 H   0  0  0  0  0  0  0  0  0  0  0  0
    8.6846    3.5357   -6.4968 H   0  0  0  0  0  0  0  0  0  0  0  0
   10.9174    3.3663   -7.4440 H   0  0  0  0  0  0  0  0  0  0  0  0
   10.0244    6.5772  -10.1710 H   0  0  0  0  0  0  0  0  0  0  0  0
    7.7593    6.7434   -9.2363 H   0  0  0  0  0  0  0  0  0  0  0  0
    5.3594    7.2900   -6.3099 H   0  0  0  0  0  0  0  0  0  0  0  0
    3.5525    8.3661   -5.0676 H   0  0  0  0  0  0  0  0  0  0  0  0
    2.1050    7.0199   -3.5677 H   0  0  0  0  0  0  0  0  0  0  0  0
    2.5411    4.6528   -3.2480 H   0  0  0  0  0  0  0  0  0  0  0  0
    4.6786    0.5109   -4.0909 H   0  0  0  0  0  0  0  0  0  0  0  0
    3.7602   -0.9107   -2.3319 H   0  0  0  0  0  0  0  0  0  0  0  0
  1  2  1  0  0  0  0
  1 28  1  0  0  0  0
  1 29  1  0  0  0  0
  2  3  2  0  0  0  0
  2  4  1  0  0  0  0
  4  5  1  0  0  0  0
  4 27  2  0  0  0  0
  5  6  2  0  0  0  0
  5 30  1  0  0  0  0
  6  7  1  0  0  0  0
  6 31  1  0  0  0  0
  7  8  1  0  0  0  0
  7 26  2  0  0  0  0
  8  9  1  0  0  0  0
  8 25  2  0  0  0  0
  9 10  2  0  0  0  0
 10 11  1  0  0  0  0
 11 12  1  0  0  0  0
 11 20  2  0  0  0  0
 12 13  1  0  0  0  0
 12 32  1  0  0  0  0
 13 14  1  0  0  0  0
 13 19  2  0  0  0  0
 14 15  2  0  0  0  0
 14 33  1  0  0  0  0
 15 16  1  0  0  0  0
 15 34  1  0  0  0  0
 16 17  1  0  0  0  0
 16 18  2  0  0  0  0
 18 19  1  0  0  0  0
 18 35  1  0  0  0  0
 19 36  1  0  0  0  0
 20 21  1  0  0  0  0
 20 25  1  0  0  0  0
 21 22  2  0  0  0  0
 21 37  1  0  0  0  0
 22 23  1  0  0  0  0
 22 38  1  0  0  0  0
 23 24  2  0  0  0  0
 23 39  1  0  0  0  0
 24 25  1  0  0  0  0
 24 40  1  0  0  0  0
 26 27  1  0  0  0  0
 26 41  1  0  0  0  0
 27 42  1  0  0  0  0
M  END
$$$$
