CHEMBL366019
 OpenBabel04072215373D

 54 56  0  0  0  0  0  0  0  0999 V2000
    2.2111   -0.2285    4.3101 C   0  0  0  0  0  0  0  0  0  0  0  0
    1.9849    1.2037    3.8554 C   0  0  0  0  0  0  0  0  0  0  0  0
    2.9289    1.5174    2.8177 O   0  0  0  0  0  0  0  0  0  0  0  0
    4.1394    1.9314    3.2858 C   0  0  0  0  0  0  0  0  0  0  0  0
    4.3443    2.2127    4.4582 O   0  0  0  0  0  0  0  0  0  0  0  0
    5.0446    1.9462    2.2550 N   0  0  0  0  0  0  0  0  0  0  0  0
    6.4107    2.1183    2.4204 C   0  0  0  0  0  0  0  0  0  0  0  0
    7.0523    2.0668    3.6300 C   0  0  0  0  0  0  0  0  0  0  0  0
    8.3751    2.2727    3.4355 N   0  0  0  0  0  0  0  0  0  0  0  0
    9.2698    2.2898    4.4306 N   0  0  0  0  0  0  0  0  0  0  0  0
   10.4638    2.5855    4.0468 C   0  0  0  0  0  0  0  0  0  0  0  0
   10.8581    2.8673    2.7714 N   0  0  0  0  0  0  0  0  0  0  0  0
    9.9975    2.8340    1.7904 C   0  0  0  0  0  0  0  0  0  0  0  0
   10.4427    3.1163    0.5147 N   0  0  0  0  0  0  0  0  0  0  0  0
   11.6143    3.8679    0.2451 C   0  0  0  0  0  0  0  0  0  0  0  0
   11.9488    5.0220    0.9759 C   0  0  0  0  0  0  0  0  0  0  0  0
   13.1084    5.7570    0.6768 C   0  0  0  0  0  0  0  0  0  0  0  0
   13.4463    6.9379    1.5264 C   0  0  0  0  0  0  0  0  0  0  0  0
   12.6740    7.2777    2.4180 O   0  0  0  0  0  0  0  0  0  0  0  0
   14.6480    7.5543    1.2641 N   0  0  0  0  0  0  0  0  0  0  0  0
   14.9135    8.7483    1.9685 O   0  0  0  0  0  0  0  0  0  0  0  0
   15.7584    8.4207    3.0694 C   0  0  0  0  0  0  0  0  0  0  0  0
   13.9223    5.3358   -0.3757 C   0  0  0  0  0  0  0  0  0  0  0  0
   15.0313    6.0112   -0.7113 F   0  0  0  0  0  0  0  0  0  0  0  0
   13.6059    4.2020   -1.1189 C   0  0  0  0  0  0  0  0  0  0  0  0
   12.4589    3.4847   -0.8045 C   0  0  0  0  0  0  0  0  0  0  0  0
   12.1629    2.3865   -1.5158 F   0  0  0  0  0  0  0  0  0  0  0  0
    8.6282    2.4906    2.1063 C   0  0  0  0  0  0  0  0  0  0  0  0
    7.4122    2.3703    1.4089 C   0  0  0  0  0  0  0  0  0  0  0  0
    7.0787    2.5725   -0.0596 C   0  0  0  0  0  0  0  0  0  0  0  0
    7.3112    4.0088   -0.5260 C   0  0  0  0  0  0  0  0  0  0  0  0
    7.6994    1.5533   -1.0123 C   0  0  0  0  0  0  0  0  0  0  0  0
    1.5201   -0.5012    5.1116 H   0  0  0  0  0  0  0  0  0  0  0  0
    3.2365   -0.3731    4.6679 H   0  0  0  0  0  0  0  0  0  0  0  0
    2.0719   -0.9180    3.4709 H   0  0  0  0  0  0  0  0  0  0  0  0
    2.0534    1.9028    4.6983 H   0  0  0  0  0  0  0  0  0  0  0  0
    0.9805    1.3126    3.4356 H   0  0  0  0  0  0  0  0  0  0  0  0
    4.6672    1.7965    1.3328 H   0  0  0  0  0  0  0  0  0  0  0  0
    6.6880    1.9073    4.6345 H   0  0  0  0  0  0  0  0  0  0  0  0
   11.2589    2.6162    4.8120 H   0  0  0  0  0  0  0  0  0  0  0  0
   10.3526    2.3291   -0.1177 H   0  0  0  0  0  0  0  0  0  0  0  0
   11.3051    5.3486    1.7918 H   0  0  0  0  0  0  0  0  0  0  0  0
   15.1186    7.4582    0.3697 H   0  0  0  0  0  0  0  0  0  0  0  0
   16.0255    9.3427    3.5914 H   0  0  0  0  0  0  0  0  0  0  0  0
   16.6765    7.9403    2.7141 H   0  0  0  0  0  0  0  0  0  0  0  0
   15.2358    7.7590    3.7673 H   0  0  0  0  0  0  0  0  0  0  0  0
   14.2502    3.8808   -1.9293 H   0  0  0  0  0  0  0  0  0  0  0  0
    5.9973    2.4157   -0.1669 H   0  0  0  0  0  0  0  0  0  0  0  0
    8.3581    4.3083   -0.4541 H   0  0  0  0  0  0  0  0  0  0  0  0
    6.7237    4.7083    0.0793 H   0  0  0  0  0  0  0  0  0  0  0  0
    7.0006    4.1318   -1.5694 H   0  0  0  0  0  0  0  0  0  0  0  0
    8.7767    1.6731   -1.1218 H   0  0  0  0  0  0  0  0  0  0  0  0
    7.2651    1.6645   -2.0142 H   0  0  0  0  0  0  0  0  0  0  0  0
    7.5026    0.5277   -0.6830 H   0  0  0  0  0  0  0  0  0  0  0  0
  1  2  1  0  0  0  0
  1 33  1  0  0  0  0
  1 34  1  0  0  0  0
  1 35  1  0  0  0  0
  2  3  1  0  0  0  0
  2 36  1  0  0  0  0
  2 37  1  0  0  0  0
  3  4  1  0  0  0  0
  4  5  2  0  0  0  0
  4  6  1  0  0  0  0
  6  7  1  0  0  0  0
  6 38  1  0  0  0  0
  7  8  2  0  0  0  0
  7 29  1  0  0  0  0
  8  9  1  0  0  0  0
  8 39  1  0  0  0  0
  9 10  1  0  0  0  0
  9 28  1  0  0  0  0
 10 11  2  0  0  0  0
 11 12  1  0  0  0  0
 11 40  1  0  0  0  0
 12 13  2  0  0  0  0
 13 14  1  0  0  0  0
 13 28  1  0  0  0  0
 14 15  1  0  0  0  0
 14 41  1  0  0  0  0
 15 16  1  0  0  0  0
 15 26  2  0  0  0  0
 16 17  2  0  0  0  0
 16 42  1  0  0  0  0
 17 18  1  0  0  0  0
 17 23  1  0  0  0  0
 18 19  2  0  0  0  0
 18 20  1  0  0  0  0
 20 21  1  0  0  0  0
 20 43  1  0  0  0  0
 21 22  1  0  0  0  0
 22 44  1  0  0  0  0
 22 45  1  0  0  0  0
 22 46  1  0  0  0  0
 23 24  1  0  0  0  0
 23 25  2  0  0  0  0
 25 26  1  0  0  0  0
 25 47  1  0  0  0  0
 26 27  1  0  0  0  0
 28 29  2  0  0  0  0
 29 30  1  0  0  0  0
 30 31  1  0  0  0  0
 30 32  1  0  0  0  0
 30 48  1  0  0  0  0
 31 49  1  0  0  0  0
 31 50  1  0  0  0  0
 31 51  1  0  0  0  0
 32 52  1  0  0  0  0
 32 53  1  0  0  0  0
 32 54  1  0  0  0  0
M  END
$$$$
