CHEMBL523745
 OpenBabel04072215383D

 50 54  0  0  0  0  0  0  0  0999 V2000
    2.1046   -1.0832   -0.9995 C   0  0  0  0  0  0  0  0  0  0  0  0
    0.9324   -0.2695   -0.6906 N   0  0  0  0  0  0  0  0  0  0  0  0
   -0.2465   -0.7547   -1.4491 C   0  0  0  0  0  0  0  0  0  0  0  0
   -1.5340    0.0361   -1.1177 C   0  0  0  0  0  0  0  0  0  0  0  0
   -1.7677   -0.0492    0.3274 N   0  0  0  0  0  0  0  0  0  0  0  0
   -3.0417   -0.0381    0.8618 C   0  0  0  0  0  0  0  0  0  0  0  0
   -3.2670   -0.6688    2.0988 C   0  0  0  0  0  0  0  0  0  0  0  0
   -4.5214   -0.7300    2.7117 C   0  0  0  0  0  0  0  0  0  0  0  0
   -5.5648   -0.1361    2.0167 C   0  0  0  0  0  0  0  0  0  0  0  0
   -6.8885    0.0228    2.3123 N   0  0  0  0  0  0  0  0  0  0  0  0
   -7.5031    0.6402    1.2519 C   0  0  0  0  0  0  0  0  0  0  0  0
   -8.9077    0.8781    1.2949 C   0  0  0  0  0  0  0  0  0  0  0  0
   -9.6128    0.9262    0.1334 C   0  0  0  0  0  0  0  0  0  0  0  0
   -9.0740    0.6345   -1.1201 N   0  0  0  0  0  0  0  0  0  0  0  0
  -11.0413    1.3366    0.1850 C   0  0  0  0  0  0  0  0  0  0  0  0
  -11.8345    1.4685   -0.9658 C   0  0  0  0  0  0  0  0  0  0  0  0
  -13.1354    1.9659   -0.8777 C   0  0  0  0  0  0  0  0  0  0  0  0
  -14.0585    2.1945   -2.3119 Cl  0  0  0  0  0  0  0  0  0  0  0  0
  -13.6860    2.3008    0.3560 C   0  0  0  0  0  0  0  0  0  0  0  0
  -12.9336    2.1267    1.5156 C   0  0  0  0  0  0  0  0  0  0  0  0
  -11.6211    1.6583    1.4228 C   0  0  0  0  0  0  0  0  0  0  0  0
  -10.8765    1.5142    2.5932 N   0  0  0  0  0  0  0  0  0  0  0  0
   -9.5747    1.1071    2.6123 C   0  0  0  0  0  0  0  0  0  0  0  0
   -8.9986    0.9343    3.6863 O   0  0  0  0  0  0  0  0  0  0  0  0
   -6.6203    0.9155    0.3021 N   0  0  0  0  0  0  0  0  0  0  0  0
   -5.4136    0.4630    0.7747 C   0  0  0  0  0  0  0  0  0  0  0  0
   -4.1412    0.5225    0.1891 C   0  0  0  0  0  0  0  0  0  0  0  0
   -0.6465    0.4633    1.1348 C   0  0  0  0  0  0  0  0  0  0  0  0
    0.6365   -0.3151    0.7622 C   0  0  0  0  0  0  0  0  0  0  0  0
    2.3379   -1.0229   -2.0679 H   0  0  0  0  0  0  0  0  0  0  0  0
    1.9618   -2.1375   -0.7363 H   0  0  0  0  0  0  0  0  0  0  0  0
    2.9817   -0.7083   -0.4616 H   0  0  0  0  0  0  0  0  0  0  0  0
   -0.4255   -1.8161   -1.2235 H   0  0  0  0  0  0  0  0  0  0  0  0
   -0.0560   -0.6749   -2.5250 H   0  0  0  0  0  0  0  0  0  0  0  0
   -2.3596   -0.4116   -1.6835 H   0  0  0  0  0  0  0  0  0  0  0  0
   -1.4329    1.0830   -1.4306 H   0  0  0  0  0  0  0  0  0  0  0  0
   -2.4380   -1.1720    2.5929 H   0  0  0  0  0  0  0  0  0  0  0  0
   -4.6644   -1.2319    3.6616 H   0  0  0  0  0  0  0  0  0  0  0  0
   -7.3451   -0.2347    3.1789 H   0  0  0  0  0  0  0  0  0  0  0  0
   -8.0444    0.6269   -1.0795 H   0  0  0  0  0  0  0  0  0  0  0  0
   -9.3701    1.2716   -1.8509 H   0  0  0  0  0  0  0  0  0  0  0  0
  -11.4481    1.1988   -1.9442 H   0  0  0  0  0  0  0  0  0  0  0  0
  -14.6948    2.6986    0.4197 H   0  0  0  0  0  0  0  0  0  0  0  0
  -13.3712    2.3789    2.4775 H   0  0  0  0  0  0  0  0  0  0  0  0
  -11.2990    1.6965    3.4955 H   0  0  0  0  0  0  0  0  0  0  0  0
   -4.0321    1.0214   -0.7659 H   0  0  0  0  0  0  0  0  0  0  0  0
   -0.8172    0.3605    2.2121 H   0  0  0  0  0  0  0  0  0  0  0  0
   -0.5076    1.5346    0.9365 H   0  0  0  0  0  0  0  0  0  0  0  0
    0.5143   -1.3569    1.0903 H   0  0  0  0  0  0  0  0  0  0  0  0
    1.4767    0.1101    1.3234 H   0  0  0  0  0  0  0  0  0  0  0  0
  1  2  1  0  0  0  0
  1 30  1  0  0  0  0
  1 31  1  0  0  0  0
  1 32  1  0  0  0  0
  2  3  1  0  0  0  0
  2 29  1  0  0  0  0
  3  4  1  0  0  0  0
  3 33  1  0  0  0  0
  3 34  1  0  0  0  0
  4  5  1  0  0  0  0
  4 35  1  0  0  0  0
  4 36  1  0  0  0  0
  5  6  1  0  0  0  0
  5 28  1  0  0  0  0
  6  7  1  0  0  0  0
  6 27  2  0  0  0  0
  7  8  2  0  0  0  0
  7 37  1  0  0  0  0
  8  9  1  0  0  0  0
  8 38  1  0  0  0  0
  9 10  1  0  0  0  0
  9 26  2  0  0  0  0
 10 11  1  0  0  0  0
 10 39  1  0  0  0  0
 11 12  1  0  0  0  0
 11 25  2  0  0  0  0
 12 13  2  0  0  0  0
 12 23  1  0  0  0  0
 13 14  1  0  0  0  0
 13 15  1  0  0  0  0
 14 40  1  0  0  0  0
 14 41  1  0  0  0  0
 15 16  1  0  0  0  0
 15 21  2  0  0  0  0
 16 17  2  0  0  0  0
 16 42  1  0  0  0  0
 17 18  1  0  0  0  0
 17 19  1  0  0  0  0
 19 20  2  0  0  0  0
 19 43  1  0  0  0  0
 20 21  1  0  0  0  0
 20 44  1  0  0  0  0
 21 22  1  0  0  0  0
 22 23  1  0  0  0  0
 22 45  1  0  0  0  0
 23 24  2  0  0  0  0
 25 26  1  0  0  0  0
 26 27  1  0  0  0  0
 27 46  1  0  0  0  0
 28 29  1  0  0  0  0
 28 47  1  0  0  0  0
 28 48  1  0  0  0  0
 29 49  1  0  0  0  0
 29 50  1  0  0  0  0
M  END
$$$$
