CHEMBL3706837
 OpenBabel04072215373D

 59 62  0  0  0  0  0  0  0  0999 V2000
    1.0943    0.8886   -0.1760 C   0  0  0  0  0  0  0  0  0  0  0  0
    2.3326    0.2162   -0.2987 O   0  0  0  0  0  0  0  0  0  0  0  0
    2.7909    0.1083   -1.6522 C   0  0  0  0  0  0  0  0  0  0  0  0
    4.1006   -0.6624   -1.5636 C   0  0  0  0  0  0  0  0  0  0  0  0
    4.7670   -0.8526   -2.7941 O   0  0  0  0  0  0  0  0  0  0  0  0
    6.1273   -1.0513   -2.7513 C   0  0  0  0  0  0  0  0  0  0  0  0
    6.7207   -0.6620   -3.9809 C   0  0  0  0  0  0  0  0  0  0  0  0
    8.0934   -0.6957   -4.2321 C   0  0  0  0  0  0  0  0  0  0  0  0
    8.5810   -0.2706   -5.4046 N   0  0  0  0  0  0  0  0  0  0  0  0
    9.9107   -0.3289   -5.5657 C   0  0  0  0  0  0  0  0  0  0  0  0
   10.7917   -0.8004   -4.6800 N   0  0  0  0  0  0  0  0  0  0  0  0
   10.2920   -1.2392   -3.5101 C   0  0  0  0  0  0  0  0  0  0  0  0
   11.1841   -1.7975   -2.5550 N   0  0  0  0  0  0  0  0  0  0  0  0
   12.5682   -1.6655   -2.6770 C   0  0  0  0  0  0  0  0  0  0  0  0
   13.2067   -0.5228   -2.9244 C   0  0  0  0  0  0  0  0  0  0  0  0
   14.6607   -0.4281   -3.1171 C   0  0  0  0  0  0  0  0  0  0  0  0
   15.1711    0.6564   -3.3736 O   0  0  0  0  0  0  0  0  0  0  0  0
   15.4643   -1.6827   -2.9841 C   0  0  0  0  0  0  0  0  0  0  0  0
   16.8294   -1.5367   -3.1495 O   0  0  0  0  0  0  0  0  0  0  0  0
   17.6668   -2.5609   -2.6186 C   0  0  0  0  0  0  0  0  0  0  0  0
   19.0297   -2.0567   -2.4912 C   0  0  0  0  0  0  0  0  0  0  0  0
   20.1462   -1.6283   -2.3289 C   0  0  0  0  0  0  0  0  0  0  0  0
   21.4535   -1.0997   -2.0995 C   0  0  0  0  0  0  0  0  0  0  0  0
   21.6102    0.0918   -1.3854 C   0  0  0  0  0  0  0  0  0  0  0  0
   22.8850    0.6223   -1.1773 C   0  0  0  0  0  0  0  0  0  0  0  0
   24.0055   -0.0373   -1.6807 C   0  0  0  0  0  0  0  0  0  0  0  0
   23.8535   -1.2342   -2.3814 C   0  0  0  0  0  0  0  0  0  0  0  0
   22.5799   -1.7672   -2.5892 C   0  0  0  0  0  0  0  0  0  0  0  0
   14.8328   -2.8300   -2.6954 C   0  0  0  0  0  0  0  0  0  0  0  0
   13.3740   -2.9004   -2.4865 C   0  0  0  0  0  0  0  0  0  0  0  0
   12.8500   -3.9652   -2.1540 O   0  0  0  0  0  0  0  0  0  0  0  0
    8.9210   -1.1761   -3.2206 C   0  0  0  0  0  0  0  0  0  0  0  0
    8.3525   -1.5393   -1.9839 C   0  0  0  0  0  0  0  0  0  0  0  0
    6.9689   -1.5089   -1.7289 C   0  0  0  0  0  0  0  0  0  0  0  0
    6.7737   -1.8855   -0.4370 O   0  0  0  0  0  0  0  0  0  0  0  0
    5.6275   -2.5537    0.0423 C   0  0  0  0  0  0  0  0  0  0  0  0
    0.8403    0.9287    0.8877 H   0  0  0  0  0  0  0  0  0  0  0  0
    0.3083    0.3401   -0.7010 H   0  0  0  0  0  0  0  0  0  0  0  0
    1.1755    1.9102   -0.5547 H   0  0  0  0  0  0  0  0  0  0  0  0
    2.9387    1.0978   -2.0951 H   0  0  0  0  0  0  0  0  0  0  0  0
    2.0602   -0.4443   -2.2552 H   0  0  0  0  0  0  0  0  0  0  0  0
    3.7986   -1.6426   -1.1971 H   0  0  0  0  0  0  0  0  0  0  0  0
    4.7436   -0.1474   -0.8422 H   0  0  0  0  0  0  0  0  0  0  0  0
    6.0771   -0.2788   -4.7742 H   0  0  0  0  0  0  0  0  0  0  0  0
   10.3149    0.0368   -6.5046 H   0  0  0  0  0  0  0  0  0  0  0  0
   10.9269   -2.7691   -2.3688 H   0  0  0  0  0  0  0  0  0  0  0  0
   12.6657    0.4147   -3.0338 H   0  0  0  0  0  0  0  0  0  0  0  0
   17.6419   -3.4351   -3.2841 H   0  0  0  0  0  0  0  0  0  0  0  0
   17.3188   -2.8528   -1.6207 H   0  0  0  0  0  0  0  0  0  0  0  0
   20.7410    0.6144   -0.9932 H   0  0  0  0  0  0  0  0  0  0  0  0
   23.0018    1.5531   -0.6283 H   0  0  0  0  0  0  0  0  0  0  0  0
   24.9969    0.3825   -1.5286 H   0  0  0  0  0  0  0  0  0  0  0  0
   24.7277   -1.7493   -2.7707 H   0  0  0  0  0  0  0  0  0  0  0  0
   22.4712   -2.6998   -3.1365 H   0  0  0  0  0  0  0  0  0  0  0  0
   15.3465   -3.7774   -2.5955 H   0  0  0  0  0  0  0  0  0  0  0  0
    9.0114   -1.8384   -1.1691 H   0  0  0  0  0  0  0  0  0  0  0  0
    5.9389   -3.2732    0.8057 H   0  0  0  0  0  0  0  0  0  0  0  0
    5.0868   -3.1105   -0.7261 H   0  0  0  0  0  0  0  0  0  0  0  0
    5.0015   -1.8264    0.5685 H   0  0  0  0  0  0  0  0  0  0  0  0
  1  2  1  0  0  0  0
  1 37  1  0  0  0  0
  1 38  1  0  0  0  0
  1 39  1  0  0  0  0
  2  3  1  0  0  0  0
  3  4  1  0  0  0  0
  3 40  1  0  0  0  0
  3 41  1  0  0  0  0
  4  5  1  0  0  0  0
  4 42  1  0  0  0  0
  4 43  1  0  0  0  0
  5  6  1  0  0  0  0
  6  7  1  0  0  0  0
  6 34  2  0  0  0  0
  7  8  2  0  0  0  0
  7 44  1  0  0  0  0
  8  9  1  0  0  0  0
  8 32  1  0  0  0  0
  9 10  2  0  0  0  0
 10 11  1  0  0  0  0
 10 45  1  0  0  0  0
 11 12  2  0  0  0  0
 12 13  1  0  0  0  0
 12 32  1  0  0  0  0
 13 14  1  0  0  0  0
 13 46  1  0  0  0  0
 14 15  2  0  0  0  0
 14 30  1  0  0  0  0
 15 16  1  0  0  0  0
 15 47  1  0  0  0  0
 16 17  2  0  0  0  0
 16 18  1  0  0  0  0
 18 19  1  0  0  0  0
 18 29  2  0  0  0  0
 19 20  1  0  0  0  0
 20 21  1  0  0  0  0
 20 48  1  0  0  0  0
 20 49  1  0  0  0  0
 21 22  3  0  0  0  0
 22 23  1  0  0  0  0
 23 24  1  0  0  0  0
 23 28  2  0  0  0  0
 24 25  2  0  0  0  0
 24 50  1  0  0  0  0
 25 26  1  0  0  0  0
 25 51  1  0  0  0  0
 26 27  2  0  0  0  0
 26 52  1  0  0  0  0
 27 28  1  0  0  0  0
 27 53  1  0  0  0  0
 28 54  1  0  0  0  0
 29 30  1  0  0  0  0
 29 55  1  0  0  0  0
 30 31  2  0  0  0  0
 32 33  2  0  0  0  0
 33 34  1  0  0  0  0
 33 56  1  0  0  0  0
 34 35  1  0  0  0  0
 35 36  1  0  0  0  0
 36 57  1  0  0  0  0
 36 58  1  0  0  0  0
 36 59  1  0  0  0  0
M  END
$$$$
