CHEMBL3814321
 OpenBabel04072215373D

 55 58  0  0  0  0  0  0  0  0999 V2000
   10.2024    7.1020    1.6195 C   0  0  0  0  0  0  0  0  0  0  0  0
    9.5744    6.2113    0.6993 O   0  0  0  0  0  0  0  0  0  0  0  0
    8.4059    5.7270    1.3014 N   0  0  0  0  0  0  0  0  0  0  0  0
    7.7755    4.9339    0.4871 C   0  0  0  0  0  0  0  0  0  0  0  0
    6.5044    4.3045    0.8919 C   0  0  0  0  0  0  0  0  0  0  0  0
    5.7051    4.8484    1.8905 C   0  0  0  0  0  0  0  0  0  0  0  0
    5.9354    6.1096    2.4374 N   0  0  0  0  0  0  0  0  0  0  0  0
    4.5765    4.2593    2.3189 N   0  0  0  0  0  0  0  0  0  0  0  0
    4.2602    3.0897    1.7544 C   0  0  0  0  0  0  0  0  0  0  0  0
    4.9596    2.4659    0.8046 N   0  0  0  0  0  0  0  0  0  0  0  0
    6.0515    3.1182    0.3446 C   0  0  0  0  0  0  0  0  0  0  0  0
    6.7605    2.5369   -0.7049 O   0  0  0  0  0  0  0  0  0  0  0  0
    6.0907    1.6159   -1.4890 C   0  0  0  0  0  0  0  0  0  0  0  0
    6.7689    0.4459   -1.8197 C   0  0  0  0  0  0  0  0  0  0  0  0
    6.1500   -0.5219   -2.6250 C   0  0  0  0  0  0  0  0  0  0  0  0
    4.8502   -0.3391   -3.1092 C   0  0  0  0  0  0  0  0  0  0  0  0
    4.1860   -1.2915   -3.9167 N   0  0  0  0  0  0  0  0  0  0  0  0
    4.7686   -2.3816   -4.5443 C   0  0  0  0  0  0  0  0  0  0  0  0
    5.9558   -2.6679   -4.5834 O   0  0  0  0  0  0  0  0  0  0  0  0
    3.8016   -3.2600   -5.2816 C   0  0  0  0  0  0  0  0  0  0  0  0
    3.3309   -2.7221   -6.5899 C   0  0  0  0  0  0  0  0  0  0  0  0
    2.3294   -2.0171   -6.5888 O   0  0  0  0  0  0  0  0  0  0  0  0
    4.0927   -3.0986   -7.6847 N   0  0  0  0  0  0  0  0  0  0  0  0
    3.8562   -2.7151   -9.0244 C   0  0  0  0  0  0  0  0  0  0  0  0
    3.0341   -1.6357   -9.3615 C   0  0  0  0  0  0  0  0  0  0  0  0
    2.7432   -1.3498  -10.6965 C   0  0  0  0  0  0  0  0  0  0  0  0
    3.2874   -2.1398  -11.6978 C   0  0  0  0  0  0  0  0  0  0  0  0
    2.9675   -1.8973  -12.9748 F   0  0  0  0  0  0  0  0  0  0  0  0
    4.1555   -3.1799  -11.3892 C   0  0  0  0  0  0  0  0  0  0  0  0
    4.4560   -3.4584  -10.0500 C   0  0  0  0  0  0  0  0  0  0  0  0
    2.8202   -4.0588   -4.4193 C   0  0  0  0  0  0  0  0  0  0  0  0
    3.9246   -4.7747   -5.1248 C   0  0  0  0  0  0  0  0  0  0  0  0
    4.1745    0.8382   -2.7779 C   0  0  0  0  0  0  0  0  0  0  0  0
    4.8091    1.8177   -2.0081 C   0  0  0  0  0  0  0  0  0  0  0  0
    4.1602    2.9740   -1.7954 F   0  0  0  0  0  0  0  0  0  0  0  0
   11.1233    7.4822    1.1705 H   0  0  0  0  0  0  0  0  0  0  0  0
   10.4530    6.5737    2.5453 H   0  0  0  0  0  0  0  0  0  0  0  0
    9.5428    7.9477    1.8418 H   0  0  0  0  0  0  0  0  0  0  0  0
    8.1811    4.6981   -0.5108 H   0  0  0  0  0  0  0  0  0  0  0  0
    6.9267    6.2638    2.6262 H   0  0  0  0  0  0  0  0  0  0  0  0
    5.3221    6.2605    3.2274 H   0  0  0  0  0  0  0  0  0  0  0  0
    3.3450    2.6131    2.0872 H   0  0  0  0  0  0  0  0  0  0  0  0
    7.7766    0.2685   -1.4544 H   0  0  0  0  0  0  0  0  0  0  0  0
    6.7102   -1.4292   -2.8382 H   0  0  0  0  0  0  0  0  0  0  0  0
    3.2071   -1.1170   -4.1284 H   0  0  0  0  0  0  0  0  0  0  0  0
    4.8266   -3.7784   -7.5219 H   0  0  0  0  0  0  0  0  0  0  0  0
    2.6084   -0.9877   -8.6018 H   0  0  0  0  0  0  0  0  0  0  0  0
    2.0859   -0.5254  -10.9498 H   0  0  0  0  0  0  0  0  0  0  0  0
    4.5752   -3.7774  -12.1930 H   0  0  0  0  0  0  0  0  0  0  0  0
    5.1253   -4.2865   -9.8300 H   0  0  0  0  0  0  0  0  0  0  0  0
    1.8056   -4.1876   -4.7842 H   0  0  0  0  0  0  0  0  0  0  0  0
    2.8881   -3.9762   -3.3395 H   0  0  0  0  0  0  0  0  0  0  0  0
    3.6437   -5.4180   -5.9527 H   0  0  0  0  0  0  0  0  0  0  0  0
    4.7525   -5.1561   -4.5361 H   0  0  0  0  0  0  0  0  0  0  0  0
    3.1655    1.0367   -3.1249 H   0  0  0  0  0  0  0  0  0  0  0  0
  1  2  1  0  0  0  0
  1 36  1  0  0  0  0
  1 37  1  0  0  0  0
  1 38  1  0  0  0  0
  2  3  1  0  0  0  0
  3  4  2  0  0  0  0
  4  5  1  0  0  0  0
  4 39  1  0  0  0  0
  5  6  1  0  0  0  0
  5 11  2  0  0  0  0
  6  7  1  0  0  0  0
  6  8  2  0  0  0  0
  7 40  1  0  0  0  0
  7 41  1  0  0  0  0
  8  9  1  0  0  0  0
  9 10  2  0  0  0  0
  9 42  1  0  0  0  0
 10 11  1  0  0  0  0
 11 12  1  0  0  0  0
 12 13  1  0  0  0  0
 13 14  1  0  0  0  0
 13 34  2  0  0  0  0
 14 15  2  0  0  0  0
 14 43  1  0  0  0  0
 15 16  1  0  0  0  0
 15 44  1  0  0  0  0
 16 17  1  0  0  0  0
 16 33  2  0  0  0  0
 17 18  1  0  0  0  0
 17 45  1  0  0  0  0
 18 19  2  0  0  0  0
 18 20  1  0  0  0  0
 20 21  1  0  0  0  0
 20 31  1  0  0  0  0
 20 32  1  0  0  0  0
 21 22  2  0  0  0  0
 21 23  1  0  0  0  0
 23 24  1  0  0  0  0
 23 46  1  0  0  0  0
 24 25  1  0  0  0  0
 24 30  2  0  0  0  0
 25 26  2  0  0  0  0
 25 47  1  0  0  0  0
 26 27  1  0  0  0  0
 26 48  1  0  0  0  0
 27 28  1  0  0  0  0
 27 29  2  0  0  0  0
 29 30  1  0  0  0  0
 29 49  1  0  0  0  0
 30 50  1  0  0  0  0
 31 32  1  0  0  0  0
 31 51  1  0  0  0  0
 31 52  1  0  0  0  0
 32 53  1  0  0  0  0
 32 54  1  0  0  0  0
 33 34  1  0  0  0  0
 33 55  1  0  0  0  0
 34 35  1  0  0  0  0
M  END
$$$$
