CHEMBL3963323
 OpenBabel04072215373D

 63 67  0  0  0  0  0  0  0  0999 V2000
    0.5478    1.0534    3.9447 C   0  0  0  0  0  0  0  0  0  0  0  0
    1.8985    1.5018    4.0965 O   0  0  0  0  0  0  0  0  0  0  0  0
    2.8239    1.0210    3.1992 C   0  0  0  0  0  0  0  0  0  0  0  0
    2.5309    0.0889    2.2029 C   0  0  0  0  0  0  0  0  0  0  0  0
    3.5189   -0.2957    1.3023 C   0  0  0  0  0  0  0  0  0  0  0  0
    3.3509   -1.1757    0.2660 O   0  0  0  0  0  0  0  0  0  0  0  0
    2.0965   -1.8388    0.1739 C   0  0  0  0  0  0  0  0  0  0  0  0
    4.8044    0.2551    1.3972 C   0  0  0  0  0  0  0  0  0  0  0  0
    5.1547    1.1859    2.3883 C   0  0  0  0  0  0  0  0  0  0  0  0
    6.3981    1.8744    2.3707 N   0  0  0  0  0  0  0  0  0  0  0  0
    6.9736    2.1548    0.9854 C   0  0  0  0  0  0  0  0  0  0  0  0
    6.0883    2.9977    0.0230 C   0  0  0  0  0  0  0  0  0  0  0  0
    6.7037    3.2555   -1.2928 N   0  0  0  0  0  0  0  0  0  0  0  0
    6.9600    2.2103   -2.1636 C   0  0  0  0  0  0  0  0  0  0  0  0
    6.8103    1.0304   -1.8812 O   0  0  0  0  0  0  0  0  0  0  0  0
    7.4012    2.6068   -3.5377 C   0  0  0  0  0  0  0  0  0  0  0  0
    6.6991    1.9965   -4.7396 C   0  0  0  0  0  0  0  0  0  0  0  0
    8.1011    1.5866   -4.4194 C   0  0  0  0  0  0  0  0  0  0  0  0
    7.4958    1.8264    3.3152 C   0  0  0  0  0  0  0  0  0  0  0  0
    8.1599    3.0411    3.4637 C   0  0  0  0  0  0  0  0  0  0  0  0
    9.4965    3.0611    3.8136 C   0  0  0  0  0  0  0  0  0  0  0  0
   10.1622    1.9300    4.1959 C   0  0  0  0  0  0  0  0  0  0  0  0
   11.4814    2.1145    4.3095 N   0  0  0  0  0  0  0  0  0  0  0  0
   12.1896    1.1268    4.8628 C   0  0  0  0  0  0  0  0  0  0  0  0
   11.5939   -0.0022    5.3806 C   0  0  0  0  0  0  0  0  0  0  0  0
   12.4416   -0.7788    6.2991 C   0  0  0  0  0  0  0  0  0  0  0  0
   12.5070   -0.7369    7.7213 C   0  0  0  0  0  0  0  0  0  0  0  0
   13.5989   -1.3341    8.2203 N   0  0  0  0  0  0  0  0  0  0  0  0
   14.2575   -1.7501    7.1264 N   0  0  0  0  0  0  0  0  0  0  0  0
   15.4012   -2.6266    7.2464 C   0  0  0  0  0  0  0  0  0  0  0  0
   13.6830   -1.3090    5.9634 C   0  0  0  0  0  0  0  0  0  0  0  0
   10.2508   -0.2577    5.1507 N   0  0  0  0  0  0  0  0  0  0  0  0
    9.4866    0.7156    4.4584 C   0  0  0  0  0  0  0  0  0  0  0  0
    8.1183    0.6853    3.9195 C   0  0  0  0  0  0  0  0  0  0  0  0
    4.1363    1.5460    3.2996 C   0  0  0  0  0  0  0  0  0  0  0  0
   -0.0728    1.5642    4.6881 H   0  0  0  0  0  0  0  0  0  0  0  0
    0.4653   -0.0231    4.1328 H   0  0  0  0  0  0  0  0  0  0  0  0
    0.1450    1.3079    2.9567 H   0  0  0  0  0  0  0  0  0  0  0  0
    1.5351   -0.3246    2.1162 H   0  0  0  0  0  0  0  0  0  0  0  0
    2.1542   -2.5494   -0.6559 H   0  0  0  0  0  0  0  0  0  0  0  0
    1.2913   -1.1306   -0.0500 H   0  0  0  0  0  0  0  0  0  0  0  0
    1.8805   -2.4072    1.0843 H   0  0  0  0  0  0  0  0  0  0  0  0
    5.5288   -0.0473    0.6449 H   0  0  0  0  0  0  0  0  0  0  0  0
    7.2919    1.2120    0.5325 H   0  0  0  0  0  0  0  0  0  0  0  0
    7.9021    2.7393    1.0663 H   0  0  0  0  0  0  0  0  0  0  0  0
    5.8979    3.9846    0.4605 H   0  0  0  0  0  0  0  0  0  0  0  0
    5.1190    2.5250   -0.1620 H   0  0  0  0  0  0  0  0  0  0  0  0
    6.6927    4.1837   -1.6615 H   0  0  0  0  0  0  0  0  0  0  0  0
    7.7288    3.6354   -3.6489 H   0  0  0  0  0  0  0  0  0  0  0  0
    6.5429    2.6063   -5.6265 H   0  0  0  0  0  0  0  0  0  0  0  0
    5.9177    1.2609   -4.5712 H   0  0  0  0  0  0  0  0  0  0  0  0
    8.8935    1.9281   -5.0885 H   0  0  0  0  0  0  0  0  0  0  0  0
    8.2630    0.5841   -4.0391 H   0  0  0  0  0  0  0  0  0  0  0  0
    7.6926    3.9648    3.1339 H   0  0  0  0  0  0  0  0  0  0  0  0
   10.0485    3.9926    3.7358 H   0  0  0  0  0  0  0  0  0  0  0  0
   13.2550    1.3131    4.9409 H   0  0  0  0  0  0  0  0  0  0  0  0
   11.8345   -0.2518    8.4173 H   0  0  0  0  0  0  0  0  0  0  0  0
   15.6105   -2.8317    8.3005 H   0  0  0  0  0  0  0  0  0  0  0  0
   16.2721   -2.1629    6.7760 H   0  0  0  0  0  0  0  0  0  0  0  0
   15.1495   -3.5617    6.7384 H   0  0  0  0  0  0  0  0  0  0  0  0
   14.1993   -1.4129    5.0195 H   0  0  0  0  0  0  0  0  0  0  0  0
    7.5891   -0.2706    3.9273 H   0  0  0  0  0  0  0  0  0  0  0  0
    4.3317    2.3019    4.0572 H   0  0  0  0  0  0  0  0  0  0  0  0
  1  2  1  0  0  0  0
  1 36  1  0  0  0  0
  1 37  1  0  0  0  0
  1 38  1  0  0  0  0
  2  3  1  0  0  0  0
  3  4  1  0  0  0  0
  3 35  2  0  0  0  0
  4  5  2  0  0  0  0
  4 39  1  0  0  0  0
  5  6  1  0  0  0  0
  5  8  1  0  0  0  0
  6  7  1  0  0  0  0
  7 40  1  0  0  0  0
  7 41  1  0  0  0  0
  7 42  1  0  0  0  0
  8  9  2  0  0  0  0
  8 43  1  0  0  0  0
  9 10  1  0  0  0  0
  9 35  1  0  0  0  0
 10 11  1  0  0  0  0
 10 19  1  0  0  0  0
 11 12  1  0  0  0  0
 11 44  1  0  0  0  0
 11 45  1  0  0  0  0
 12 13  1  0  0  0  0
 12 46  1  0  0  0  0
 12 47  1  0  0  0  0
 13 14  1  0  0  0  0
 13 48  1  0  0  0  0
 14 15  2  0  0  0  0
 14 16  1  0  0  0  0
 16 17  1  0  0  0  0
 16 18  1  0  0  0  0
 16 49  1  0  0  0  0
 17 18  1  0  0  0  0
 17 50  1  0  0  0  0
 17 51  1  0  0  0  0
 18 52  1  0  0  0  0
 18 53  1  0  0  0  0
 19 20  1  0  0  0  0
 19 34  2  0  0  0  0
 20 21  2  0  0  0  0
 20 54  1  0  0  0  0
 21 22  1  0  0  0  0
 21 55  1  0  0  0  0
 22 23  1  0  0  0  0
 22 33  2  0  0  0  0
 23 24  2  0  0  0  0
 24 25  1  0  0  0  0
 24 56  1  0  0  0  0
 25 26  1  0  0  0  0
 25 32  2  0  0  0  0
 26 27  1  0  0  0  0
 26 31  2  0  0  0  0
 27 28  2  0  0  0  0
 27 57  1  0  0  0  0
 28 29  1  0  0  0  0
 29 30  1  0  0  0  0
 29 31  1  0  0  0  0
 30 58  1  0  0  0  0
 30 59  1  0  0  0  0
 30 60  1  0  0  0  0
 31 61  1  0  0  0  0
 32 33  1  0  0  0  0
 33 34  1  0  0  0  0
 34 62  1  0  0  0  0
 35 63  1  0  0  0  0
M  END
$$$$
