CHEMBL474432
 OpenBabel04072215383D

 50 53  0  0  0  0  0  0  0  0999 V2000
    6.4142    5.4389   -0.4412 C   0  0  0  0  0  0  0  0  0  0  0  0
    7.3809    5.1808    0.5806 O   0  0  0  0  0  0  0  0  0  0  0  0
    6.9786    4.2932    1.5455 C   0  0  0  0  0  0  0  0  0  0  0  0
    6.1751    3.1841    1.2085 C   0  0  0  0  0  0  0  0  0  0  0  0
    5.6627    2.3585    2.2208 C   0  0  0  0  0  0  0  0  0  0  0  0
    4.8449    1.2671    2.1213 N   0  0  0  0  0  0  0  0  0  0  0  0
    4.6638    0.8697    3.3603 C   0  0  0  0  0  0  0  0  0  0  0  0
    5.3122    1.6649    4.2880 N   0  0  0  0  0  0  0  0  0  0  0  0
    5.2691    1.4986    5.6747 C   0  0  0  0  0  0  0  0  0  0  0  0
    5.0928    0.3229    6.3733 C   0  0  0  0  0  0  0  0  0  0  0  0
    5.1070    0.5577    7.7854 C   0  0  0  0  0  0  0  0  0  0  0  0
    4.9881   -0.3672    8.7780 O   0  0  0  0  0  0  0  0  0  0  0  0
    5.6270   -1.6142    8.4981 C   0  0  0  0  0  0  0  0  0  0  0  0
    5.4512   -2.4941    9.7166 C   0  0  0  0  0  0  0  0  0  0  0  0
    6.4795   -2.4920   10.6817 C   0  0  0  0  0  0  0  0  0  0  0  0
    6.4027   -3.2887   11.8251 C   0  0  0  0  0  0  0  0  0  0  0  0
    5.2898   -4.0902   12.0373 C   0  0  0  0  0  0  0  0  0  0  0  0
    4.2473   -4.0820   11.1131 C   0  0  0  0  0  0  0  0  0  0  0  0
    4.3018   -3.2869    9.9461 C   0  0  0  0  0  0  0  0  0  0  0  0
    3.1042   -3.3666    9.0195 C   0  0  0  0  0  0  0  0  0  0  0  0
    3.1653   -2.5729    7.9166 F   0  0  0  0  0  0  0  0  0  0  0  0
    2.9145   -4.6310    8.5461 F   0  0  0  0  0  0  0  0  0  0  0  0
    1.9424   -3.0284    9.6458 F   0  0  0  0  0  0  0  0  0  0  0  0
    5.1823    1.9086    8.1037 C   0  0  0  0  0  0  0  0  0  0  0  0
    5.1593    2.5962    9.3860 C   0  0  0  0  0  0  0  0  0  0  0  0
    5.2372    3.8031    9.5548 O   0  0  0  0  0  0  0  0  0  0  0  0
    5.0438    1.7470   10.4434 O   0  0  0  0  0  0  0  0  0  0  0  0
    5.3435    2.8519    6.6857 S   0  0  0  0  0  0  0  0  0  0  0  0
    5.9948    2.6190    3.5436 C   0  0  0  0  0  0  0  0  0  0  0  0
    6.9056    3.6285    3.8772 C   0  0  0  0  0  0  0  0  0  0  0  0
    7.3902    4.4779    2.8725 C   0  0  0  0  0  0  0  0  0  0  0  0
    8.2222    5.4207    3.4116 O   0  0  0  0  0  0  0  0  0  0  0  0
    8.8265    6.3918    2.5801 C   0  0  0  0  0  0  0  0  0  0  0  0
    6.4074    6.5150   -0.6373 H   0  0  0  0  0  0  0  0  0  0  0  0
    5.3893    5.1606   -0.1687 H   0  0  0  0  0  0  0  0  0  0  0  0
    6.7111    4.9191   -1.3571 H   0  0  0  0  0  0  0  0  0  0  0  0
    5.9161    2.9531    0.1814 H   0  0  0  0  0  0  0  0  0  0  0  0
    4.0249    0.0478    3.6558 H   0  0  0  0  0  0  0  0  0  0  0  0
    5.0068   -0.6463    5.9014 H   0  0  0  0  0  0  0  0  0  0  0  0
    6.6972   -1.4533    8.3092 H   0  0  0  0  0  0  0  0  0  0  0  0
    5.2219   -2.1073    7.6101 H   0  0  0  0  0  0  0  0  0  0  0  0
    7.3616   -1.8667   10.5466 H   0  0  0  0  0  0  0  0  0  0  0  0
    7.2147   -3.2836   12.5485 H   0  0  0  0  0  0  0  0  0  0  0  0
    5.2293   -4.7174   12.9237 H   0  0  0  0  0  0  0  0  0  0  0  0
    3.3748   -4.7091   11.3020 H   0  0  0  0  0  0  0  0  0  0  0  0
    4.9649    0.8095   10.1656 H   0  0  0  0  0  0  0  0  0  0  0  0
    7.2430    3.7837    4.8968 H   0  0  0  0  0  0  0  0  0  0  0  0
    9.4198    7.0427    3.2322 H   0  0  0  0  0  0  0  0  0  0  0  0
    8.0776    7.0216    2.0937 H   0  0  0  0  0  0  0  0  0  0  0  0
    9.5133    5.9312    1.8649 H   0  0  0  0  0  0  0  0  0  0  0  0
  1  2  1  0  0  0  0
  1 34  1  0  0  0  0
  1 35  1  0  0  0  0
  1 36  1  0  0  0  0
  2  3  1  0  0  0  0
  3  4  1  0  0  0  0
  3 31  2  0  0  0  0
  4  5  2  0  0  0  0
  4 37  1  0  0  0  0
  5  6  1  0  0  0  0
  5 29  1  0  0  0  0
  6  7  2  0  0  0  0
  7  8  1  0  0  0  0
  7 38  1  0  0  0  0
  8  9  1  0  0  0  0
  8 29  1  0  0  0  0
  9 10  2  0  0  0  0
  9 28  1  0  0  0  0
 10 11  1  0  0  0  0
 10 39  1  0  0  0  0
 11 12  1  0  0  0  0
 11 24  2  0  0  0  0
 12 13  1  0  0  0  0
 13 14  1  0  0  0  0
 13 40  1  0  0  0  0
 13 41  1  0  0  0  0
 14 15  1  0  0  0  0
 14 19  2  0  0  0  0
 15 16  2  0  0  0  0
 15 42  1  0  0  0  0
 16 17  1  0  0  0  0
 16 43  1  0  0  0  0
 17 18  2  0  0  0  0
 17 44  1  0  0  0  0
 18 19  1  0  0  0  0
 18 45  1  0  0  0  0
 19 20  1  0  0  0  0
 20 21  1  0  0  0  0
 20 22  1  0  0  0  0
 20 23  1  0  0  0  0
 24 25  1  0  0  0  0
 24 28  1  0  0  0  0
 25 26  2  0  0  0  0
 25 27  1  0  0  0  0
 27 46  1  0  0  0  0
 29 30  2  0  0  0  0
 30 31  1  0  0  0  0
 30 47  1  0  0  0  0
 31 32  1  0  0  0  0
 32 33  1  0  0  0  0
 33 48  1  0  0  0  0
 33 49  1  0  0  0  0
 33 50  1  0  0  0  0
M  END
$$$$
