CHEMBL2006237
 OpenBabel04072215363D

 56 59  0  0  0  0  0  0  0  0999 V2000
   -1.8906   -7.2186    0.4196 C   0  0  0  0  0  0  0  0  0  0  0  0
   -1.2147   -5.9292    0.3405 N   0  0  0  0  0  0  0  0  0  0  0  0
   -2.1715   -4.8284    0.1449 C   0  0  0  0  0  0  0  0  0  0  0  0
   -1.4399   -3.4701    0.0535 C   0  0  0  0  0  0  0  0  0  0  0  0
   -0.6149   -3.1320    1.2348 N   0  0  0  0  0  0  0  0  0  0  0  0
   -1.4001   -2.8300    2.4416 C   0  0  0  0  0  0  0  0  0  0  0  0
   -2.3927   -1.6630    2.2869 C   0  0  0  0  0  0  0  0  0  0  0  0
   -3.1639   -1.3957    3.5830 C   0  0  0  0  0  0  0  0  0  0  0  0
   -4.0275   -2.5340    3.9093 N   0  0  0  0  0  0  0  0  0  0  0  0
   -4.2466   -2.6991    5.2853 C   0  0  0  0  0  0  0  0  0  0  0  0
   -4.5137   -3.9814    5.7663 C   0  0  0  0  0  0  0  0  0  0  0  0
   -4.7359   -4.1742    7.1256 C   0  0  0  0  0  0  0  0  0  0  0  0
   -4.7351   -3.0739    7.9668 C   0  0  0  0  0  0  0  0  0  0  0  0
   -4.5003   -1.8243    7.4101 C   0  0  0  0  0  0  0  0  0  0  0  0
   -4.4684   -0.6228    8.2322 C   0  0  0  0  0  0  0  0  0  0  0  0
   -4.6645   -0.5352    9.5351 N   0  0  0  0  0  0  0  0  0  0  0  0
   -4.4438    0.7889    9.8652 C   0  0  0  0  0  0  0  0  0  0  0  0
   -4.4777    1.4372   11.1133 C   0  0  0  0  0  0  0  0  0  0  0  0
   -4.8149    0.7139   12.3629 C   0  0  0  0  0  0  0  0  0  0  0  0
   -5.1234   -0.6138   12.2614 N   0  0  0  0  0  0  0  0  0  0  0  0
   -4.8206    1.2815   13.4509 O   0  0  0  0  0  0  0  0  0  0  0  0
   -4.1708    2.8075   11.1656 C   0  0  0  0  0  0  0  0  0  0  0  0
   -3.8486    3.5171   10.0040 C   0  0  0  0  0  0  0  0  0  0  0  0
   -3.8269    2.8903    8.7539 C   0  0  0  0  0  0  0  0  0  0  0  0
   -4.1275    1.5272    8.7282 C   0  0  0  0  0  0  0  0  0  0  0  0
   -4.1859    0.6164    7.7062 N   0  0  0  0  0  0  0  0  0  0  0  0
   -4.2508   -1.6216    6.0929 N   0  0  0  0  0  0  0  0  0  0  0  0
    0.2992   -4.2769    1.4884 C   0  0  0  0  0  0  0  0  0  0  0  0
   -0.3799   -5.6743    1.5276 C   0  0  0  0  0  0  0  0  0  0  0  0
   -2.4730   -7.4020   -0.4904 H   0  0  0  0  0  0  0  0  0  0  0  0
   -2.5663   -7.2844    1.2796 H   0  0  0  0  0  0  0  0  0  0  0  0
   -1.1584   -8.0303    0.4908 H   0  0  0  0  0  0  0  0  0  0  0  0
   -2.9123   -4.8034    0.9554 H   0  0  0  0  0  0  0  0  0  0  0  0
   -2.7237   -4.9827   -0.7897 H   0  0  0  0  0  0  0  0  0  0  0  0
   -2.1581   -2.6758   -0.1711 H   0  0  0  0  0  0  0  0  0  0  0  0
   -0.7762   -3.4916   -0.8222 H   0  0  0  0  0  0  0  0  0  0  0  0
   -0.7039   -2.5638    3.2480 H   0  0  0  0  0  0  0  0  0  0  0  0
   -1.9250   -3.7272    2.7792 H   0  0  0  0  0  0  0  0  0  0  0  0
   -3.1206   -1.8622    1.4938 H   0  0  0  0  0  0  0  0  0  0  0  0
   -1.8415   -0.7564    2.0090 H   0  0  0  0  0  0  0  0  0  0  0  0
   -3.7908   -0.5054    3.4517 H   0  0  0  0  0  0  0  0  0  0  0  0
   -2.4375   -1.1811    4.3773 H   0  0  0  0  0  0  0  0  0  0  0  0
   -3.7119   -3.4078    3.5092 H   0  0  0  0  0  0  0  0  0  0  0  0
   -4.5185   -4.8348    5.0969 H   0  0  0  0  0  0  0  0  0  0  0  0
   -4.9060   -5.1715    7.5208 H   0  0  0  0  0  0  0  0  0  0  0  0
   -4.9092   -3.1844    9.0318 H   0  0  0  0  0  0  0  0  0  0  0  0
   -5.1069   -1.0839   11.3618 H   0  0  0  0  0  0  0  0  0  0  0  0
   -5.3507   -1.1281   13.0978 H   0  0  0  0  0  0  0  0  0  0  0  0
   -4.1803    3.3253   12.1236 H   0  0  0  0  0  0  0  0  0  0  0  0
   -3.6092    4.5768   10.0768 H   0  0  0  0  0  0  0  0  0  0  0  0
   -3.5761    3.4420    7.8529 H   0  0  0  0  0  0  0  0  0  0  0  0
   -4.0128    0.7803    6.7234 H   0  0  0  0  0  0  0  0  0  0  0  0
    0.8563   -4.1169    2.4200 H   0  0  0  0  0  0  0  0  0  0  0  0
    1.0550   -4.2824    0.6916 H   0  0  0  0  0  0  0  0  0  0  0  0
   -0.9792   -5.7636    2.4433 H   0  0  0  0  0  0  0  0  0  0  0  0
    0.4083   -6.4344    1.5868 H   0  0  0  0  0  0  0  0  0  0  0  0
  1  2  1  0  0  0  0
  1 30  1  0  0  0  0
  1 31  1  0  0  0  0
  1 32  1  0  0  0  0
  2  3  1  0  0  0  0
  2 29  1  0  0  0  0
  3  4  1  0  0  0  0
  3 33  1  0  0  0  0
  3 34  1  0  0  0  0
  4  5  1  0  0  0  0
  4 35  1  0  0  0  0
  4 36  1  0  0  0  0
  5  6  1  0  0  0  0
  5 28  1  0  0  0  0
  6  7  1  0  0  0  0
  6 37  1  0  0  0  0
  6 38  1  0  0  0  0
  7  8  1  0  0  0  0
  7 39  1  0  0  0  0
  7 40  1  0  0  0  0
  8  9  1  0  0  0  0
  8 41  1  0  0  0  0
  8 42  1  0  0  0  0
  9 10  1  0  0  0  0
  9 43  1  0  0  0  0
 10 11  1  0  0  0  0
 10 27  2  0  0  0  0
 11 12  2  0  0  0  0
 11 44  1  0  0  0  0
 12 13  1  0  0  0  0
 12 45  1  0  0  0  0
 13 14  2  0  0  0  0
 13 46  1  0  0  0  0
 14 15  1  0  0  0  0
 14 27  1  0  0  0  0
 15 16  2  0  0  0  0
 15 26  1  0  0  0  0
 16 17  1  0  0  0  0
 17 18  1  0  0  0  0
 17 25  2  0  0  0  0
 18 19  1  0  0  0  0
 18 22  2  0  0  0  0
 19 20  1  0  0  0  0
 19 21  2  0  0  0  0
 20 47  1  0  0  0  0
 20 48  1  0  0  0  0
 22 23  1  0  0  0  0
 22 49  1  0  0  0  0
 23 24  2  0  0  0  0
 23 50  1  0  0  0  0
 24 25  1  0  0  0  0
 24 51  1  0  0  0  0
 25 26  1  0  0  0  0
 26 52  1  0  0  0  0
 28 29  1  0  0  0  0
 28 53  1  0  0  0  0
 28 54  1  0  0  0  0
 29 55  1  0  0  0  0
 29 56  1  0  0  0  0
M  END
$$$$
