CHEMBL1761934
 OpenBabel04072215363D

 56 59  0  0  0  0  0  0  0  0999 V2000
    0.3957   -0.1388    2.1045 C   0  0  0  0  0  0  0  0  0  0  0  0
    1.7681    0.0374    2.4463 O   0  0  0  0  0  0  0  0  0  0  0  0
    2.5448   -1.0899    2.4478 C   0  0  0  0  0  0  0  0  0  0  0  0
    2.0956   -2.3664    2.1313 C   0  0  0  0  0  0  0  0  0  0  0  0
    2.9774   -3.4509    2.1633 C   0  0  0  0  0  0  0  0  0  0  0  0
    4.3242   -3.3019    2.5020 C   0  0  0  0  0  0  0  0  0  0  0  0
    5.2329   -4.3904    2.5500 N   0  0  0  0  0  0  0  0  0  0  0  0
    4.9326   -5.6923    2.1588 C   0  0  0  0  0  0  0  0  0  0  0  0
    3.8739   -6.0324    1.6380 O   0  0  0  0  0  0  0  0  0  0  0  0
    5.9409   -6.6010    2.4527 N   0  0  0  0  0  0  0  0  0  0  0  0
    5.7367   -7.9682    2.1101 C   0  0  0  0  0  0  0  0  0  0  0  0
    5.2894   -8.3345    0.8377 C   0  0  0  0  0  0  0  0  0  0  0  0
    4.9665   -9.6691    0.5412 C   0  0  0  0  0  0  0  0  0  0  0  0
    5.0430  -10.6649    1.5139 C   0  0  0  0  0  0  0  0  0  0  0  0
    4.7239  -12.0319    1.3027 N   0  0  0  0  0  0  0  0  0  0  0  0
    4.2204  -12.7166    0.1615 C   0  0  0  0  0  0  0  0  0  0  0  0
    4.1239  -12.0612   -1.0103 N   0  0  0  0  0  0  0  0  0  0  0  0
    3.7006  -12.7456   -2.0731 C   0  0  0  0  0  0  0  0  0  0  0  0
    3.3818  -14.0404   -2.0976 N   0  0  0  0  0  0  0  0  0  0  0  0
    3.4750  -14.6951   -0.9428 C   0  0  0  0  0  0  0  0  0  0  0  0
    3.1070  -16.0320   -0.9549 C   0  0  0  0  0  0  0  0  0  0  0  0
    3.0781  -16.8251    0.1990 C   0  0  0  0  0  0  0  0  0  0  0  0
    2.6605  -18.1297    0.1854 O   0  0  0  0  0  0  0  0  0  0  0  0
    2.1048  -18.6408   -1.0224 C   0  0  0  0  0  0  0  0  0  0  0  0
    3.4977  -16.2549    1.4066 C   0  0  0  0  0  0  0  0  0  0  0  0
    3.5465  -16.8259    2.6514 O   0  0  0  0  0  0  0  0  0  0  0  0
    3.0148  -18.1324    2.8285 C   0  0  0  0  0  0  0  0  0  0  0  0
    3.9285  -14.9146    1.4159 C   0  0  0  0  0  0  0  0  0  0  0  0
    3.8951  -14.0983    0.2519 C   0  0  0  0  0  0  0  0  0  0  0  0
    5.5586  -10.2890    2.7710 C   0  0  0  0  0  0  0  0  0  0  0  0
    5.9213   -8.9617    3.0632 C   0  0  0  0  0  0  0  0  0  0  0  0
    4.7726   -2.0148    2.8233 C   0  0  0  0  0  0  0  0  0  0  0  0
    3.8864   -0.9201    2.7912 C   0  0  0  0  0  0  0  0  0  0  0  0
   -0.0803    0.8455    2.0808 H   0  0  0  0  0  0  0  0  0  0  0  0
   -0.1220   -0.7425    2.8596 H   0  0  0  0  0  0  0  0  0  0  0  0
    0.2829   -0.5800    1.1072 H   0  0  0  0  0  0  0  0  0  0  0  0
    1.0687   -2.5698    1.8553 H   0  0  0  0  0  0  0  0  0  0  0  0
    2.5431   -4.4112    1.9055 H   0  0  0  0  0  0  0  0  0  0  0  0
    6.1977   -4.1893    2.7770 H   0  0  0  0  0  0  0  0  0  0  0  0
    6.4245   -6.4234    3.3191 H   0  0  0  0  0  0  0  0  0  0  0  0
    5.1568   -7.5840    0.0625 H   0  0  0  0  0  0  0  0  0  0  0  0
    4.6056   -9.8771   -0.4601 H   0  0  0  0  0  0  0  0  0  0  0  0
    4.3470  -12.4270    2.1550 H   0  0  0  0  0  0  0  0  0  0  0  0
    3.5991  -12.1992   -3.0046 H   0  0  0  0  0  0  0  0  0  0  0  0
    2.8194  -16.4388   -1.9203 H   0  0  0  0  0  0  0  0  0  0  0  0
    1.7384  -19.6523   -0.8248 H   0  0  0  0  0  0  0  0  0  0  0  0
    2.8703  -18.7108   -1.8019 H   0  0  0  0  0  0  0  0  0  0  0  0
    1.2507  -18.0406   -1.3566 H   0  0  0  0  0  0  0  0  0  0  0  0
    3.0551  -18.3654    3.8976 H   0  0  0  0  0  0  0  0  0  0  0  0
    3.6276  -18.8781    2.3127 H   0  0  0  0  0  0  0  0  0  0  0  0
    1.9624  -18.1857    2.5307 H   0  0  0  0  0  0  0  0  0  0  0  0
    4.2697  -14.5062    2.3639 H   0  0  0  0  0  0  0  0  0  0  0  0
    5.6642  -11.0360    3.5539 H   0  0  0  0  0  0  0  0  0  0  0  0
    6.2692   -8.7196    4.0653 H   0  0  0  0  0  0  0  0  0  0  0  0
    5.8079   -1.8325    3.0958 H   0  0  0  0  0  0  0  0  0  0  0  0
    4.2490    0.0745    3.0415 H   0  0  0  0  0  0  0  0  0  0  0  0
  1  2  1  0  0  0  0
  1 34  1  0  0  0  0
  1 35  1  0  0  0  0
  1 36  1  0  0  0  0
  2  3  1  0  0  0  0
  3  4  1  0  0  0  0
  3 33  2  0  0  0  0
  4  5  2  0  0  0  0
  4 37  1  0  0  0  0
  5  6  1  0  0  0  0
  5 38  1  0  0  0  0
  6  7  1  0  0  0  0
  6 32  2  0  0  0  0
  7  8  1  0  0  0  0
  7 39  1  0  0  0  0
  8  9  2  0  0  0  0
  8 10  1  0  0  0  0
 10 11  1  0  0  0  0
 10 40  1  0  0  0  0
 11 12  1  0  0  0  0
 11 31  2  0  0  0  0
 12 13  2  0  0  0  0
 12 41  1  0  0  0  0
 13 14  1  0  0  0  0
 13 42  1  0  0  0  0
 14 15  1  0  0  0  0
 14 30  2  0  0  0  0
 15 16  1  0  0  0  0
 15 43  1  0  0  0  0
 16 17  1  0  0  0  0
 16 29  2  0  0  0  0
 17 18  2  0  0  0  0
 18 19  1  0  0  0  0
 18 44  1  0  0  0  0
 19 20  2  0  0  0  0
 20 21  1  0  0  0  0
 20 29  1  0  0  0  0
 21 22  2  0  0  0  0
 21 45  1  0  0  0  0
 22 23  1  0  0  0  0
 22 25  1  0  0  0  0
 23 24  1  0  0  0  0
 24 46  1  0  0  0  0
 24 47  1  0  0  0  0
 24 48  1  0  0  0  0
 25 26  1  0  0  0  0
 25 28  2  0  0  0  0
 26 27  1  0  0  0  0
 27 49  1  0  0  0  0
 27 50  1  0  0  0  0
 27 51  1  0  0  0  0
 28 29  1  0  0  0  0
 28 52  1  0  0  0  0
 30 31  1  0  0  0  0
 30 53  1  0  0  0  0
 31 54  1  0  0  0  0
 32 33  1  0  0  0  0
 32 55  1  0  0  0  0
 33 56  1  0  0  0  0
M  END
$$$$
