CHEMBL1085512
 OpenBabel04072215363D

 68 73  0  0  0  0  0  0  0  0999 V2000
    1.2894   -1.1722   -2.3242 C   0  0  0  0  0  0  0  0  0  0  0  0
    0.5388   -0.3403   -1.3896 N   0  0  0  0  0  0  0  0  0  0  0  0
   -0.7312    0.1209   -1.9970 C   0  0  0  0  0  0  0  0  0  0  0  0
   -1.5518    0.9991   -1.0249 C   0  0  0  0  0  0  0  0  0  0  0  0
   -1.8061    0.2552    0.2203 N   0  0  0  0  0  0  0  0  0  0  0  0
   -3.0273    0.2758    0.8599 C   0  0  0  0  0  0  0  0  0  0  0  0
   -4.2284    0.3116    0.1379 C   0  0  0  0  0  0  0  0  0  0  0  0
   -5.4800    0.2591    0.7659 C   0  0  0  0  0  0  0  0  0  0  0  0
   -5.5751    0.1698    2.1546 C   0  0  0  0  0  0  0  0  0  0  0  0
   -6.8782    0.0990    2.7952 C   0  0  0  0  0  0  0  0  0  0  0  0
   -8.1011   -0.4075    2.3064 C   0  0  0  0  0  0  0  0  0  0  0  0
   -9.1082   -0.2918    3.1710 N   0  0  0  0  0  0  0  0  0  0  0  0
   -8.5388    0.2890    4.2674 N   0  0  0  0  0  0  0  0  0  0  0  0
   -9.1962    0.6261    5.4824 C   0  0  0  0  0  0  0  0  0  0  0  0
  -10.5383    0.2703    5.5981 N   0  0  0  0  0  0  0  0  0  0  0  0
   -8.4781    1.2740    6.4280 C   0  0  0  0  0  0  0  0  0  0  0  0
   -9.0003    1.6804    7.7342 C   0  0  0  0  0  0  0  0  0  0  0  0
   -9.0742    0.7423    8.7618 C   0  0  0  0  0  0  0  0  0  0  0  0
   -9.5396    1.1135   10.0225 C   0  0  0  0  0  0  0  0  0  0  0  0
   -9.9487    2.4234   10.2757 C   0  0  0  0  0  0  0  0  0  0  0  0
  -10.4302    2.8469   11.5281 N   0  0  0  0  0  0  0  0  0  0  0  0
  -10.5074    2.1122   12.6861 C   0  0  0  0  0  0  0  0  0  0  0  0
  -10.2733    0.9179   12.8352 O   0  0  0  0  0  0  0  0  0  0  0  0
  -10.8428    2.9641   13.7277 O   0  0  0  0  0  0  0  0  0  0  0  0
  -10.0621    2.7763   14.8771 C   0  0  0  0  0  0  0  0  0  0  0  0
   -8.6689    2.6819   14.7842 C   0  0  0  0  0  0  0  0  0  0  0  0
   -7.8994    2.6499   15.9429 C   0  0  0  0  0  0  0  0  0  0  0  0
   -8.5195    2.7285   17.1897 C   0  0  0  0  0  0  0  0  0  0  0  0
   -9.9112    2.8202   17.2786 C   0  0  0  0  0  0  0  0  0  0  0  0
  -10.6898    2.8465   16.1188 C   0  0  0  0  0  0  0  0  0  0  0  0
   -9.8655    3.3666    9.2459 C   0  0  0  0  0  0  0  0  0  0  0  0
   -9.3949    3.0013    7.9781 C   0  0  0  0  0  0  0  0  0  0  0  0
   -7.0394    1.5160    6.1075 C   0  0  0  0  0  0  0  0  0  0  0  0
   -6.4255    1.1983    5.0120 N   0  0  0  0  0  0  0  0  0  0  0  0
   -7.1826    0.5703    4.0601 C   0  0  0  0  0  0  0  0  0  0  0  0
   -4.3903    0.1347    2.8916 C   0  0  0  0  0  0  0  0  0  0  0  0
   -3.1443    0.1970    2.2533 C   0  0  0  0  0  0  0  0  0  0  0  0
   -0.5885   -0.2606    0.8655 C   0  0  0  0  0  0  0  0  0  0  0  0
    0.2294   -1.0916   -0.1523 C   0  0  0  0  0  0  0  0  0  0  0  0
    1.5446   -0.5998   -3.2228 H   0  0  0  0  0  0  0  0  0  0  0  0
    0.7335   -2.0660   -2.6289 H   0  0  0  0  0  0  0  0  0  0  0  0
    2.2360   -1.4904   -1.8741 H   0  0  0  0  0  0  0  0  0  0  0  0
   -1.3437   -0.7406   -2.2988 H   0  0  0  0  0  0  0  0  0  0  0  0
   -0.5192    0.7061   -2.8991 H   0  0  0  0  0  0  0  0  0  0  0  0
   -2.4645    1.3241   -1.5326 H   0  0  0  0  0  0  0  0  0  0  0  0
   -0.9899    1.9122   -0.7889 H   0  0  0  0  0  0  0  0  0  0  0  0
   -4.2190    0.3336   -0.9476 H   0  0  0  0  0  0  0  0  0  0  0  0
   -6.3698    0.2865    0.1429 H   0  0  0  0  0  0  0  0  0  0  0  0
   -8.2986   -0.8634    1.3439 H   0  0  0  0  0  0  0  0  0  0  0  0
  -10.9657    0.1068    4.6830 H   0  0  0  0  0  0  0  0  0  0  0  0
  -11.0848    0.8577    6.2197 H   0  0  0  0  0  0  0  0  0  0  0  0
   -8.7682   -0.2890    8.5936 H   0  0  0  0  0  0  0  0  0  0  0  0
   -9.5669    0.3427   10.7876 H   0  0  0  0  0  0  0  0  0  0  0  0
  -10.6622    3.8235   11.6430 H   0  0  0  0  0  0  0  0  0  0  0  0
   -8.1739    2.6413   13.8185 H   0  0  0  0  0  0  0  0  0  0  0  0
   -6.8177    2.5767   15.8708 H   0  0  0  0  0  0  0  0  0  0  0  0
   -7.9144    2.7241   18.0920 H   0  0  0  0  0  0  0  0  0  0  0  0
  -10.3848    2.8839   18.2548 H   0  0  0  0  0  0  0  0  0  0  0  0
  -11.7701    2.9308   16.1905 H   0  0  0  0  0  0  0  0  0  0  0  0
  -10.1568    4.4043    9.4112 H   0  0  0  0  0  0  0  0  0  0  0  0
   -9.3377    3.7506    7.1906 H   0  0  0  0  0  0  0  0  0  0  0  0
   -6.4557    2.0107    6.9023 H   0  0  0  0  0  0  0  0  0  0  0  0
   -4.4078    0.0527    3.9756 H   0  0  0  0  0  0  0  0  0  0  0  0
   -2.2620    0.1960    2.8868 H   0  0  0  0  0  0  0  0  0  0  0  0
   -0.8161   -0.9243    1.7069 H   0  0  0  0  0  0  0  0  0  0  0  0
    0.0121    0.5742    1.2469 H   0  0  0  0  0  0  0  0  0  0  0  0
   -0.3404   -1.9997   -0.3967 H   0  0  0  0  0  0  0  0  0  0  0  0
    1.1597   -1.4102    0.3319 H   0  0  0  0  0  0  0  0  0  0  0  0
  1  2  1  0  0  0  0
  1 40  1  0  0  0  0
  1 41  1  0  0  0  0
  1 42  1  0  0  0  0
  2  3  1  0  0  0  0
  2 39  1  0  0  0  0
  3  4  1  0  0  0  0
  3 43  1  0  0  0  0
  3 44  1  0  0  0  0
  4  5  1  0  0  0  0
  4 45  1  0  0  0  0
  4 46  1  0  0  0  0
  5  6  1  0  0  0  0
  5 38  1  0  0  0  0
  6  7  1  0  0  0  0
  6 37  2  0  0  0  0
  7  8  2  0  0  0  0
  7 47  1  0  0  0  0
  8  9  1  0  0  0  0
  8 48  1  0  0  0  0
  9 10  1  0  0  0  0
  9 36  2  0  0  0  0
 10 11  1  0  0  0  0
 10 35  2  0  0  0  0
 11 12  2  0  0  0  0
 11 49  1  0  0  0  0
 12 13  1  0  0  0  0
 13 14  1  0  0  0  0
 13 35  1  0  0  0  0
 14 15  1  0  0  0  0
 14 16  2  0  0  0  0
 15 50  1  0  0  0  0
 15 51  1  0  0  0  0
 16 17  1  0  0  0  0
 16 33  1  0  0  0  0
 17 18  1  0  0  0  0
 17 32  2  0  0  0  0
 18 19  2  0  0  0  0
 18 52  1  0  0  0  0
 19 20  1  0  0  0  0
 19 53  1  0  0  0  0
 20 21  1  0  0  0  0
 20 31  2  0  0  0  0
 21 22  1  0  0  0  0
 21 54  1  0  0  0  0
 22 23  2  0  0  0  0
 22 24  1  0  0  0  0
 24 25  1  0  0  0  0
 25 26  1  0  0  0  0
 25 30  2  0  0  0  0
 26 27  2  0  0  0  0
 26 55  1  0  0  0  0
 27 28  1  0  0  0  0
 27 56  1  0  0  0  0
 28 29  2  0  0  0  0
 28 57  1  0  0  0  0
 29 30  1  0  0  0  0
 29 58  1  0  0  0  0
 30 59  1  0  0  0  0
 31 32  1  0  0  0  0
 31 60  1  0  0  0  0
 32 61  1  0  0  0  0
 33 34  2  0  0  0  0
 33 62  1  0  0  0  0
 34 35  1  0  0  0  0
 36 37  1  0  0  0  0
 36 63  1  0  0  0  0
 37 64  1  0  0  0  0
 38 39  1  0  0  0  0
 38 65  1  0  0  0  0
 38 66  1  0  0  0  0
 39 67  1  0  0  0  0
 39 68  1  0  0  0  0
M  END
$$$$
