CHEMBL224968
 OpenBabel04072215363D

 67 72  0  0  0  0  0  0  0  0999 V2000
    1.7706    0.0457   -1.2776 C   0  0  0  0  0  0  0  0  0  0  0  0
    0.3297    0.2277   -1.1795 N   0  0  0  0  0  0  0  0  0  0  0  0
   -0.3422   -1.0040   -0.7376 C   0  0  0  0  0  0  0  0  0  0  0  0
   -1.8708   -0.7747   -0.7517 C   0  0  0  0  0  0  0  0  0  0  0  0
   -2.3119    0.2590    0.2151 N   0  0  0  0  0  0  0  0  0  0  0  0
   -2.0858   -0.1012    1.6343 C   0  0  0  0  0  0  0  0  0  0  0  0
   -2.7922   -1.3681    2.1016 C   0  0  0  0  0  0  0  0  0  0  0  0
   -2.1406   -2.6268    1.9687 C   0  0  0  0  0  0  0  0  0  0  0  0
   -2.7865   -3.8352    2.2284 C   0  0  0  0  0  0  0  0  0  0  0  0
   -4.0446   -3.7520    2.7447 C   0  0  0  0  0  0  0  0  0  0  0  0
   -4.6998   -2.5141    2.9926 C   0  0  0  0  0  0  0  0  0  0  0  0
   -4.0867   -1.3155    2.6422 C   0  0  0  0  0  0  0  0  0  0  0  0
   -6.0697   -2.6887    3.6706 C   0  0  0  0  0  0  0  0  0  0  0  0
   -6.0551   -4.1803    3.7394 C   0  0  0  0  0  0  0  0  0  0  0  0
   -6.8160   -5.2680    4.1844 C   0  0  0  0  0  0  0  0  0  0  0  0
   -8.1314   -5.1517    4.8018 C   0  0  0  0  0  0  0  0  0  0  0  0
   -8.5665   -4.0504    5.5085 C   0  0  0  0  0  0  0  0  0  0  0  0
  -10.1515   -4.2471    6.0974 S   0  0  0  0  0  0  0  0  0  0  0  0
  -10.2747   -5.8015    5.4033 C   0  0  0  0  0  0  0  0  0  0  0  0
  -11.4504   -6.5925    5.5447 C   0  0  0  0  0  0  0  0  0  0  0  0
  -12.5379   -7.2983    5.6831 C   0  0  0  0  0  0  0  0  0  0  0  0
  -13.8057   -8.1211    5.8445 C   0  0  0  0  0  0  0  0  0  0  0  0
  -14.9908   -7.3971    5.4015 N   0  0  0  0  0  0  0  0  0  0  0  0
  -16.2314   -8.0113    5.4958 C   0  0  0  0  0  0  0  0  0  0  0  0
  -16.3841   -9.1314    5.9257 O   0  0  0  0  0  0  0  0  0  0  0  0
  -17.2695   -7.1661    5.0471 O   0  0  0  0  0  0  0  0  0  0  0  0
  -18.3444   -6.9185    5.9431 C   0  0  0  0  0  0  0  0  0  0  0  0
  -18.1090   -6.8139    7.3143 C   0  0  0  0  0  0  0  0  0  0  0  0
  -19.1766   -6.6454    8.2003 C   0  0  0  0  0  0  0  0  0  0  0  0
  -20.4706   -6.4692    7.7162 C   0  0  0  0  0  0  0  0  0  0  0  0
  -20.6927   -6.4403    6.3383 C   0  0  0  0  0  0  0  0  0  0  0  0
  -19.6323   -6.6798    5.4455 C   0  0  0  0  0  0  0  0  0  0  0  0
   -9.1326   -6.1667    4.7235 C   0  0  0  0  0  0  0  0  0  0  0  0
   -6.1829   -6.4377    3.9692 N   0  0  0  0  0  0  0  0  0  0  0  0
   -5.0297   -6.0832    3.3419 N   0  0  0  0  0  0  0  0  0  0  0  0
   -4.9414   -4.7471    3.2092 C   0  0  0  0  0  0  0  0  0  0  0  0
   -1.5682    1.5020   -0.1310 C   0  0  0  0  0  0  0  0  0  0  0  0
   -0.0272    1.3290   -0.2625 C   0  0  0  0  0  0  0  0  0  0  0  0
    2.0048   -0.7671   -1.9745 H   0  0  0  0  0  0  0  0  0  0  0  0
    2.2302   -0.1850   -0.3106 H   0  0  0  0  0  0  0  0  0  0  0  0
    2.2370    0.9501   -1.6823 H   0  0  0  0  0  0  0  0  0  0  0  0
    0.0138   -1.2831    0.2618 H   0  0  0  0  0  0  0  0  0  0  0  0
   -0.1009   -1.8433   -1.3985 H   0  0  0  0  0  0  0  0  0  0  0  0
   -2.4203   -1.7103   -0.6178 H   0  0  0  0  0  0  0  0  0  0  0  0
   -2.1610   -0.4510   -1.7642 H   0  0  0  0  0  0  0  0  0  0  0  0
   -2.4517    0.7304    2.2512 H   0  0  0  0  0  0  0  0  0  0  0  0
   -1.0231   -0.1952    1.8835 H   0  0  0  0  0  0  0  0  0  0  0  0
   -1.1036   -2.6785    1.6518 H   0  0  0  0  0  0  0  0  0  0  0  0
   -2.2937   -4.7807    2.0333 H   0  0  0  0  0  0  0  0  0  0  0  0
   -4.5911   -0.3672    2.7985 H   0  0  0  0  0  0  0  0  0  0  0  0
   -6.8761   -2.3014    3.0445 H   0  0  0  0  0  0  0  0  0  0  0  0
   -6.0603   -2.2404    4.6662 H   0  0  0  0  0  0  0  0  0  0  0  0
   -8.0218   -3.1420    5.7176 H   0  0  0  0  0  0  0  0  0  0  0  0
  -13.9389   -8.3962    6.8963 H   0  0  0  0  0  0  0  0  0  0  0  0
  -13.7284   -9.0400    5.2535 H   0  0  0  0  0  0  0  0  0  0  0  0
  -14.9304   -6.4584    5.0403 H   0  0  0  0  0  0  0  0  0  0  0  0
  -17.1024   -6.8843    7.7126 H   0  0  0  0  0  0  0  0  0  0  0  0
  -18.9955   -6.6649    9.2716 H   0  0  0  0  0  0  0  0  0  0  0  0
  -21.3005   -6.3614    8.4114 H   0  0  0  0  0  0  0  0  0  0  0  0
  -21.6975   -6.2467    5.9676 H   0  0  0  0  0  0  0  0  0  0  0  0
  -19.8368   -6.6915    4.3778 H   0  0  0  0  0  0  0  0  0  0  0  0
   -9.0068   -7.1100    4.2038 H   0  0  0  0  0  0  0  0  0  0  0  0
   -4.3852   -6.8074    3.0518 H   0  0  0  0  0  0  0  0  0  0  0  0
   -1.7943    2.2971    0.5899 H   0  0  0  0  0  0  0  0  0  0  0  0
   -1.9533    1.8640   -1.0953 H   0  0  0  0  0  0  0  0  0  0  0  0
    0.4018    1.1508    0.7320 H   0  0  0  0  0  0  0  0  0  0  0  0
    0.3985    2.2684   -0.6335 H   0  0  0  0  0  0  0  0  0  0  0  0
  1  2  1  0  0  0  0
  1 39  1  0  0  0  0
  1 40  1  0  0  0  0
  1 41  1  0  0  0  0
  2  3  1  0  0  0  0
  2 38  1  0  0  0  0
  3  4  1  0  0  0  0
  3 42  1  0  0  0  0
  3 43  1  0  0  0  0
  4  5  1  0  0  0  0
  4 44  1  0  0  0  0
  4 45  1  0  0  0  0
  5  6  1  0  0  0  0
  5 37  1  0  0  0  0
  6  7  1  0  0  0  0
  6 46  1  0  0  0  0
  6 47  1  0  0  0  0
  7  8  1  0  0  0  0
  7 12  2  0  0  0  0
  8  9  2  0  0  0  0
  8 48  1  0  0  0  0
  9 10  1  0  0  0  0
  9 49  1  0  0  0  0
 10 11  2  0  0  0  0
 10 36  1  0  0  0  0
 11 12  1  0  0  0  0
 11 13  1  0  0  0  0
 12 50  1  0  0  0  0
 13 14  1  0  0  0  0
 13 51  1  0  0  0  0
 13 52  1  0  0  0  0
 14 15  1  0  0  0  0
 14 36  2  0  0  0  0
 15 16  1  0  0  0  0
 15 34  2  0  0  0  0
 16 17  2  0  0  0  0
 16 33  1  0  0  0  0
 17 18  1  0  0  0  0
 17 53  1  0  0  0  0
 18 19  1  0  0  0  0
 19 20  1  0  0  0  0
 19 33  2  0  0  0  0
 20 21  3  0  0  0  0
 21 22  1  0  0  0  0
 22 23  1  0  0  0  0
 22 54  1  0  0  0  0
 22 55  1  0  0  0  0
 23 24  1  0  0  0  0
 23 56  1  0  0  0  0
 24 25  2  0  0  0  0
 24 26  1  0  0  0  0
 26 27  1  0  0  0  0
 27 28  1  0  0  0  0
 27 32  2  0  0  0  0
 28 29  2  0  0  0  0
 28 57  1  0  0  0  0
 29 30  1  0  0  0  0
 29 58  1  0  0  0  0
 30 31  2  0  0  0  0
 30 59  1  0  0  0  0
 31 32  1  0  0  0  0
 31 60  1  0  0  0  0
 32 61  1  0  0  0  0
 33 62  1  0  0  0  0
 34 35  1  0  0  0  0
 35 36  1  0  0  0  0
 35 63  1  0  0  0  0
 37 38  1  0  0  0  0
 37 64  1  0  0  0  0
 37 65  1  0  0  0  0
 38 66  1  0  0  0  0
 38 67  1  0  0  0  0
M  END
$$$$
