CHEMBL376077
 OpenBabel04072215373D

 46 49  0  0  0  0  0  0  0  0999 V2000
   -1.5796   -2.7605   -1.4875 C   0  0  0  0  0  0  0  0  0  0  0  0
   -0.8428   -1.4560   -1.3825 C   0  0  0  0  0  0  0  0  0  0  0  0
   -1.5269   -0.2862   -1.7821 C   0  0  0  0  0  0  0  0  0  0  0  0
   -0.9272    0.9710   -1.7289 C   0  0  0  0  0  0  0  0  0  0  0  0
    0.3652    1.0840   -1.2445 C   0  0  0  0  0  0  0  0  0  0  0  0
    1.0476   -0.0592   -0.8280 C   0  0  0  0  0  0  0  0  0  0  0  0
    0.4815   -1.3432   -0.9096 C   0  0  0  0  0  0  0  0  0  0  0  0
    1.2236   -2.5061   -0.5377 N   0  0  0  0  0  0  0  0  0  0  0  0
    2.5954   -2.5311   -0.3250 C   0  0  0  0  0  0  0  0  0  0  0  0
    3.3330   -1.5571   -0.4269 O   0  0  0  0  0  0  0  0  0  0  0  0
    3.0916   -3.7971   -0.0399 N   0  0  0  0  0  0  0  0  0  0  0  0
    4.4890   -3.9528    0.1808 C   0  0  0  0  0  0  0  0  0  0  0  0
    5.2140   -3.0512    0.9673 C   0  0  0  0  0  0  0  0  0  0  0  0
    6.6137   -3.1051    1.0230 C   0  0  0  0  0  0  0  0  0  0  0  0
    7.3343   -4.0814    0.3189 C   0  0  0  0  0  0  0  0  0  0  0  0
    8.8166   -4.1297    0.3443 C   0  0  0  0  0  0  0  0  0  0  0  0
    9.5480   -3.8104    1.5163 C   0  0  0  0  0  0  0  0  0  0  0  0
   10.9313   -3.9806    1.6090 C   0  0  0  0  0  0  0  0  0  0  0  0
   11.6540   -4.5260    0.5529 C   0  0  0  0  0  0  0  0  0  0  0  0
   10.9476   -4.7966   -0.6203 C   0  0  0  0  0  0  0  0  0  0  0  0
   11.3641   -5.3426   -1.8043 N   0  0  0  0  0  0  0  0  0  0  0  0
   10.4463   -5.3120   -2.7768 N   0  0  0  0  0  0  0  0  0  0  0  0
    9.3732   -4.8051   -2.1777 C   0  0  0  0  0  0  0  0  0  0  0  0
    8.2549   -4.5246   -2.8672 N   0  0  0  0  0  0  0  0  0  0  0  0
    9.5819   -4.5532   -0.7826 C   0  0  0  0  0  0  0  0  0  0  0  0
    6.5716   -5.0450   -0.3725 C   0  0  0  0  0  0  0  0  0  0  0  0
    5.1714   -4.9830   -0.4531 C   0  0  0  0  0  0  0  0  0  0  0  0
   -2.5069   -2.6465   -2.0628 H   0  0  0  0  0  0  0  0  0  0  0  0
   -1.8482   -3.1253   -0.4917 H   0  0  0  0  0  0  0  0  0  0  0  0
   -0.9773   -3.5093   -2.0094 H   0  0  0  0  0  0  0  0  0  0  0  0
   -2.5464   -0.3493   -2.1544 H   0  0  0  0  0  0  0  0  0  0  0  0
   -1.4613    1.8549   -2.0574 H   0  0  0  0  0  0  0  0  0  0  0  0
    0.8548    2.0503   -1.1828 H   0  0  0  0  0  0  0  0  0  0  0  0
    2.0434    0.1057   -0.4298 H   0  0  0  0  0  0  0  0  0  0  0  0
    0.7266   -3.3811   -0.4846 H   0  0  0  0  0  0  0  0  0  0  0  0
    2.6309   -4.5545   -0.5213 H   0  0  0  0  0  0  0  0  0  0  0  0
    4.7012   -2.2656    1.5186 H   0  0  0  0  0  0  0  0  0  0  0  0
    7.1262   -2.3465    1.6109 H   0  0  0  0  0  0  0  0  0  0  0  0
    9.0271   -3.4429    2.3989 H   0  0  0  0  0  0  0  0  0  0  0  0
   11.4450   -3.7162    2.5310 H   0  0  0  0  0  0  0  0  0  0  0  0
   12.7208   -4.7069    0.6359 H   0  0  0  0  0  0  0  0  0  0  0  0
   12.2745   -5.7326   -2.0169 H   0  0  0  0  0  0  0  0  0  0  0  0
    8.3588   -4.5054   -3.8755 H   0  0  0  0  0  0  0  0  0  0  0  0
    7.6422   -3.7924   -2.5207 H   0  0  0  0  0  0  0  0  0  0  0  0
    7.0710   -5.8542   -0.9040 H   0  0  0  0  0  0  0  0  0  0  0  0
    4.6532   -5.7038   -1.0775 H   0  0  0  0  0  0  0  0  0  0  0  0
  1  2  1  0  0  0  0
  1 28  1  0  0  0  0
  1 29  1  0  0  0  0
  1 30  1  0  0  0  0
  2  3  1  0  0  0  0
  2  7  2  0  0  0  0
  3  4  2  0  0  0  0
  3 31  1  0  0  0  0
  4  5  1  0  0  0  0
  4 32  1  0  0  0  0
  5  6  2  0  0  0  0
  5 33  1  0  0  0  0
  6  7  1  0  0  0  0
  6 34  1  0  0  0  0
  7  8  1  0  0  0  0
  8  9  1  0  0  0  0
  8 35  1  0  0  0  0
  9 10  2  0  0  0  0
  9 11  1  0  0  0  0
 11 12  1  0  0  0  0
 11 36  1  0  0  0  0
 12 13  1  0  0  0  0
 12 27  2  0  0  0  0
 13 14  2  0  0  0  0
 13 37  1  0  0  0  0
 14 15  1  0  0  0  0
 14 38  1  0  0  0  0
 15 16  1  0  0  0  0
 15 26  2  0  0  0  0
 16 17  1  0  0  0  0
 16 25  2  0  0  0  0
 17 18  2  0  0  0  0
 17 39  1  0  0  0  0
 18 19  1  0  0  0  0
 18 40  1  0  0  0  0
 19 20  2  0  0  0  0
 19 41  1  0  0  0  0
 20 21  1  0  0  0  0
 20 25  1  0  0  0  0
 21 22  1  0  0  0  0
 21 42  1  0  0  0  0
 22 23  2  0  0  0  0
 23 24  1  0  0  0  0
 23 25  1  0  0  0  0
 24 43  1  0  0  0  0
 24 44  1  0  0  0  0
 26 27  1  0  0  0  0
 26 45  1  0  0  0  0
 27 46  1  0  0  0  0
M  END
$$$$
