CHEMBL3986639
 OpenBabel04072215373D

 72 76  0  0  1  0  0  0  0  0999 V2000
    0.0251   -0.7313    0.5665 C   0  0  0  0  0  0  0  0  0  0  0  0
    1.3540   -0.3990    0.0593 N   0  0  0  0  0  0  0  0  0  0  0  0
    2.0080    0.5609    0.9546 C   0  0  0  0  0  0  0  0  0  0  0  0
    2.2275   -1.5663   -0.1981 C   0  0  3  0  0  0  0  0  0  0  0  0
    1.7097   -2.5675   -1.2352 C   0  0  0  0  0  0  0  0  0  0  0  0
    1.1469   -3.7384   -0.4394 C   0  0  0  0  0  0  0  0  0  0  0  0
    1.8293   -3.7158    0.8603 N   0  0  0  0  0  0  0  0  0  0  0  0
    2.5320   -4.8165    1.3538 C   0  0  0  0  0  0  0  0  0  0  0  0
    3.1263   -5.7912    0.5464 C   0  0  0  0  0  0  0  0  0  0  0  0
    3.9349   -6.8195    1.0664 C   0  0  0  0  0  0  0  0  0  0  0  0
    4.5912   -7.7795    0.2462 N   0  0  0  0  0  0  0  0  0  0  0  0
    4.6609   -7.7316   -1.1370 C   0  0  0  0  0  0  0  0  0  0  0  0
    4.2173   -6.8274   -1.8380 O   0  0  0  0  0  0  0  0  0  0  0  0
    5.2777   -8.8558   -1.6837 N   0  0  0  0  0  0  0  0  0  0  0  0
    5.4265   -8.9293   -3.0950 C   0  0  0  0  0  0  0  0  0  0  0  0
    5.9512   -7.8481   -3.8168 C   0  0  0  0  0  0  0  0  0  0  0  0
    5.9782   -7.8610   -5.2151 C   0  0  0  0  0  0  0  0  0  0  0  0
    5.4303   -8.9381   -5.9124 C   0  0  0  0  0  0  0  0  0  0  0  0
    5.3663   -9.0111   -7.2902 O   0  0  0  0  0  0  0  0  0  0  0  0
    5.1755   -7.8597   -8.0319 C   0  0  0  0  0  0  0  0  0  0  0  0
    4.3637   -6.8100   -7.6220 C   0  0  0  0  0  0  0  0  0  0  0  0
    4.2848   -5.7041   -8.4417 C   0  0  0  0  0  0  0  0  0  0  0  0
    4.9121   -5.6140   -9.6293 N   0  0  0  0  0  0  0  0  0  0  0  0
    5.6427   -6.6545  -10.0617 C   0  0  0  0  0  0  0  0  0  0  0  0
    6.2721   -6.5787  -11.3202 N   0  0  0  0  0  0  0  0  0  0  0  0
    6.1874   -5.4837  -12.1573 C   0  0  0  0  0  0  0  0  0  0  0  0
    5.5664   -4.4484  -11.9612 O   0  0  0  0  0  0  0  0  0  0  0  0
    6.9251   -5.5610  -13.4555 C   0  0  0  0  0  0  0  0  0  0  0  0
    6.5182   -6.5882  -14.4863 C   0  0  0  0  0  0  0  0  0  0  0  0
    7.8994   -6.6196  -13.8970 C   0  0  0  0  0  0  0  0  0  0  0  0
    5.7951   -7.8017   -9.2880 C   0  0  0  0  0  0  0  0  0  0  0  0
    4.9713  -10.0412   -5.1827 C   0  0  0  0  0  0  0  0  0  0  0  0
    4.4650  -11.1053   -5.8245 F   0  0  0  0  0  0  0  0  0  0  0  0
    4.9887  -10.0578   -3.7829 C   0  0  0  0  0  0  0  0  0  0  0  0
    4.1198   -6.8850    2.4519 C   0  0  0  0  0  0  0  0  0  0  0  0
    3.5297   -5.9232    3.2959 C   0  0  0  0  0  0  0  0  0  0  0  0
    3.7416   -5.9190    4.7868 C   0  0  0  0  0  0  0  0  0  0  0  0
    4.5591   -6.9149    5.2269 F   0  0  0  0  0  0  0  0  0  0  0  0
    4.3048   -4.7566    5.2233 F   0  0  0  0  0  0  0  0  0  0  0  0
    2.5794   -6.0524    5.4847 F   0  0  0  0  0  0  0  0  0  0  0  0
    2.7410   -4.9112    2.7324 C   0  0  0  0  0  0  0  0  0  0  0  0
    2.6056   -2.4659    0.9996 C   0  0  0  0  0  0  0  0  0  0  0  0
   -0.5465    0.1843    0.7621 H   0  0  0  0  0  0  0  0  0  0  0  0
    0.0568   -1.3090    1.4958 H   0  0  0  0  0  0  0  0  0  0  0  0
   -0.5516   -1.2870   -0.1787 H   0  0  0  0  0  0  0  0  0  0  0  0
    1.4638    1.5115    0.9562 H   0  0  0  0  0  0  0  0  0  0  0  0
    3.0255    0.7870    0.6155 H   0  0  0  0  0  0  0  0  0  0  0  0
    2.0650    0.2030    1.9885 H   0  0  0  0  0  0  0  0  0  0  0  0
    3.1549   -1.1463   -0.6118 H   0  0  0  0  0  0  0  0  0  0  0  0
    2.5514   -2.9178   -1.8469 H   0  0  0  0  0  0  0  0  0  0  0  0
    0.9736   -2.1445   -1.9272 H   0  0  0  0  0  0  0  0  0  0  0  0
    1.2413   -4.6730   -1.0009 H   0  0  0  0  0  0  0  0  0  0  0  0
    0.0751   -3.5959   -0.2632 H   0  0  0  0  0  0  0  0  0  0  0  0
    2.9843   -5.7049   -0.5215 H   0  0  0  0  0  0  0  0  0  0  0  0
    5.1863   -8.4526    0.7076 H   0  0  0  0  0  0  0  0  0  0  0  0
    5.0607   -9.7189   -1.2051 H   0  0  0  0  0  0  0  0  0  0  0  0
    6.3222   -6.9672   -3.2952 H   0  0  0  0  0  0  0  0  0  0  0  0
    6.3967   -7.0037   -5.7349 H   0  0  0  0  0  0  0  0  0  0  0  0
    3.8157   -6.8232   -6.6877 H   0  0  0  0  0  0  0  0  0  0  0  0
    3.7057   -4.8293   -8.1637 H   0  0  0  0  0  0  0  0  0  0  0  0
    6.7959   -7.3828  -11.6256 H   0  0  0  0  0  0  0  0  0  0  0  0
    7.1366   -4.5632  -13.8427 H   0  0  0  0  0  0  0  0  0  0  0  0
    6.3935   -6.2393  -15.5062 H   0  0  0  0  0  0  0  0  0  0  0  0
    5.8182   -7.3638  -14.1994 H   0  0  0  0  0  0  0  0  0  0  0  0
    8.7194   -6.2998  -14.5352 H   0  0  0  0  0  0  0  0  0  0  0  0
    8.1646   -7.4357  -13.2409 H   0  0  0  0  0  0  0  0  0  0  0  0
    6.3812   -8.6455   -9.6352 H   0  0  0  0  0  0  0  0  0  0  0  0
    4.5811  -10.9188   -3.2647 H   0  0  0  0  0  0  0  0  0  0  0  0
    4.7379   -7.6651    2.8905 H   0  0  0  0  0  0  0  0  0  0  0  0
    2.2810   -4.1654    3.3823 H   0  0  0  0  0  0  0  0  0  0  0  0
    3.6877   -2.6566    0.9567 H   0  0  0  0  0  0  0  0  0  0  0  0
    2.3934   -2.0035    1.9681 H   0  0  0  0  0  0  0  0  0  0  0  0
  1  2  1  0  0  0  0
  1 43  1  0  0  0  0
  1 44  1  0  0  0  0
  1 45  1  0  0  0  0
  2  3  1  0  0  0  0
  2  4  1  0  0  0  0
  3 46  1  0  0  0  0
  3 47  1  0  0  0  0
  3 48  1  0  0  0  0
  4  5  1  0  0  0  0
  4 42  1  0  0  0  0
  4 49  1  0  0  0  0
  5  6  1  0  0  0  0
  5 50  1  0  0  0  0
  5 51  1  0  0  0  0
  6  7  1  0  0  0  0
  6 52  1  0  0  0  0
  6 53  1  0  0  0  0
  7  8  1  0  0  0  0
  7 42  1  0  0  0  0
  8  9  1  0  0  0  0
  8 41  2  0  0  0  0
  9 10  2  0  0  0  0
  9 54  1  0  0  0  0
 10 11  1  0  0  0  0
 10 35  1  0  0  0  0
 11 12  1  0  0  0  0
 11 55  1  0  0  0  0
 12 13  2  0  0  0  0
 12 14  1  0  0  0  0
 14 15  1  0  0  0  0
 14 56  1  0  0  0  0
 15 16  1  0  0  0  0
 15 34  2  0  0  0  0
 16 17  2  0  0  0  0
 16 57  1  0  0  0  0
 17 18  1  0  0  0  0
 17 58  1  0  0  0  0
 18 19  1  0  0  0  0
 18 32  2  0  0  0  0
 19 20  1  0  0  0  0
 20 21  1  0  0  0  0
 20 31  2  0  0  0  0
 21 22  2  0  0  0  0
 21 59  1  0  0  0  0
 22 23  1  0  0  0  0
 22 60  1  0  0  0  0
 23 24  2  0  0  0  0
 24 25  1  0  0  0  0
 24 31  1  0  0  0  0
 25 26  1  0  0  0  0
 25 61  1  0  0  0  0
 26 27  2  0  0  0  0
 26 28  1  0  0  0  0
 28 29  1  0  0  0  0
 28 30  1  0  0  0  0
 28 62  1  0  0  0  0
 29 30  1  0  0  0  0
 29 63  1  0  0  0  0
 29 64  1  0  0  0  0
 30 65  1  0  0  0  0
 30 66  1  0  0  0  0
 31 67  1  0  0  0  0
 32 33  1  0  0  0  0
 32 34  1  0  0  0  0
 34 68  1  0  0  0  0
 35 36  2  0  0  0  0
 35 69  1  0  0  0  0
 36 37  1  0  0  0  0
 36 41  1  0  0  0  0
 37 38  1  0  0  0  0
 37 39  1  0  0  0  0
 37 40  1  0  0  0  0
 41 70  1  0  0  0  0
 42 71  1  0  0  0  0
 42 72  1  0  0  0  0
M  END
$$$$
