CHEMBL199996
 OpenBabel04072215363D

 35 37  0  0  0  0  0  0  0  0999 V2000
    1.0832   -0.1008   -0.0223 C   0  0  0  0  0  0  0  0  0  0  0  0
    2.5470    0.1086   -0.0689 C   0  0  0  0  0  0  0  0  0  0  0  0
    3.3738   -0.9636   -0.0155 N   0  0  0  0  0  0  0  0  0  0  0  0
    4.6220   -0.4313   -0.0390 N   0  0  0  0  0  0  0  0  0  0  0  0
    4.5854    0.9133   -0.0709 C   0  0  0  0  0  0  0  0  0  0  0  0
    5.6838    2.1488   -0.0536 S   0  0  0  0  0  0  0  0  0  0  0  0
    4.3623    3.3022   -0.1126 C   0  0  0  0  0  0  0  0  0  0  0  0
    4.6379    4.7271   -0.1948 C   0  0  0  0  0  0  0  0  0  0  0  0
    5.9494    5.0974   -0.3318 N   0  0  0  0  0  0  0  0  0  0  0  0
    3.7615    5.5909   -0.1769 O   0  0  0  0  0  0  0  0  0  0  0  0
    3.1055    2.6708   -0.1452 C   0  0  0  0  0  0  0  0  0  0  0  0
    1.9037    3.3856   -0.2199 N   0  0  0  0  0  0  0  0  0  0  0  0
    0.9711    3.0623   -1.1928 C   0  0  0  0  0  0  0  0  0  0  0  0
    1.1393    2.1811   -2.0319 O   0  0  0  0  0  0  0  0  0  0  0  0
   -0.1492    3.8771   -1.1452 N   0  0  0  0  0  0  0  0  0  0  0  0
   -1.1993    3.7034   -2.0759 C   0  0  0  0  0  0  0  0  0  0  0  0
   -1.7484    2.4425   -2.3347 C   0  0  0  0  0  0  0  0  0  0  0  0
   -2.7277    2.2893   -3.3176 C   0  0  0  0  0  0  0  0  0  0  0  0
   -3.1482    3.3933   -4.0562 C   0  0  0  0  0  0  0  0  0  0  0  0
   -2.6207    4.6555   -3.7829 C   0  0  0  0  0  0  0  0  0  0  0  0
   -1.6687    4.8171   -2.7732 C   0  0  0  0  0  0  0  0  0  0  0  0
    3.3033    1.2794   -0.1145 C   0  0  0  0  0  0  0  0  0  0  0  0
    0.8407   -1.1607    0.1050 H   0  0  0  0  0  0  0  0  0  0  0  0
    0.5996    0.2127   -0.9474 H   0  0  0  0  0  0  0  0  0  0  0  0
    0.6421    0.4488    0.8142 H   0  0  0  0  0  0  0  0  0  0  0  0
    5.4188   -1.0568   -0.0170 H   0  0  0  0  0  0  0  0  0  0  0  0
    6.6818    4.4084   -0.4408 H   0  0  0  0  0  0  0  0  0  0  0  0
    6.1648    6.0718   -0.4909 H   0  0  0  0  0  0  0  0  0  0  0  0
    1.9872    4.3787   -0.0263 H   0  0  0  0  0  0  0  0  0  0  0  0
    0.0318    4.8242   -0.8480 H   0  0  0  0  0  0  0  0  0  0  0  0
   -1.4174    1.5692   -1.7784 H   0  0  0  0  0  0  0  0  0  0  0  0
   -3.1442    1.3057   -3.5193 H   0  0  0  0  0  0  0  0  0  0  0  0
   -3.8798    3.2680   -4.8501 H   0  0  0  0  0  0  0  0  0  0  0  0
   -2.9341    5.5118   -4.3739 H   0  0  0  0  0  0  0  0  0  0  0  0
   -1.2485    5.8023   -2.5964 H   0  0  0  0  0  0  0  0  0  0  0  0
  1  2  1  0  0  0  0
  1 23  1  0  0  0  0
  1 24  1  0  0  0  0
  1 25  1  0  0  0  0
  2  3  2  0  0  0  0
  2 22  1  0  0  0  0
  3  4  1  0  0  0  0
  4  5  1  0  0  0  0
  4 26  1  0  0  0  0
  5  6  1  0  0  0  0
  5 22  2  0  0  0  0
  6  7  1  0  0  0  0
  7  8  1  0  0  0  0
  7 11  2  0  0  0  0
  8  9  1  0  0  0  0
  8 10  2  0  0  0  0
  9 27  1  0  0  0  0
  9 28  1  0  0  0  0
 11 12  1  0  0  0  0
 11 22  1  0  0  0  0
 12 13  1  0  0  0  0
 12 29  1  0  0  0  0
 13 14  2  0  0  0  0
 13 15  1  0  0  0  0
 15 16  1  0  0  0  0
 15 30  1  0  0  0  0
 16 17  1  0  0  0  0
 16 21  2  0  0  0  0
 17 18  2  0  0  0  0
 17 31  1  0  0  0  0
 18 19  1  0  0  0  0
 18 32  1  0  0  0  0
 19 20  2  0  0  0  0
 19 33  1  0  0  0  0
 20 21  1  0  0  0  0
 20 34  1  0  0  0  0
 21 35  1  0  0  0  0
M  END
$$$$
