CHEMBL3945860
 OpenBabel04072215373D

 57 61  0  0  0  0  0  0  0  0999 V2000
    3.3950    0.7965    0.9327 C   0  0  0  0  0  0  0  0  0  0  0  0
    2.6530    0.5487   -0.2627 O   0  0  0  0  0  0  0  0  0  0  0  0
    3.2667   -0.2545   -1.1878 C   0  0  0  0  0  0  0  0  0  0  0  0
    4.2209   -1.2152   -0.8466 C   0  0  0  0  0  0  0  0  0  0  0  0
    4.8921   -1.9670   -1.8396 C   0  0  0  0  0  0  0  0  0  0  0  0
    5.9011   -2.9069   -1.5962 C   0  0  0  0  0  0  0  0  0  0  0  0
    6.3010   -3.1586   -0.2569 N   0  0  0  0  0  0  0  0  0  0  0  0
    7.5130   -3.7786    0.1009 C   0  0  0  0  0  0  0  0  0  0  0  0
    8.7187   -3.3933   -0.5001 C   0  0  0  0  0  0  0  0  0  0  0  0
    9.9138   -4.0440   -0.1959 C   0  0  0  0  0  0  0  0  0  0  0  0
    9.9187   -5.0906    0.7254 C   0  0  0  0  0  0  0  0  0  0  0  0
   11.4205   -5.8879    1.0248 Cl  0  0  0  0  0  0  0  0  0  0  0  0
    8.7271   -5.4628    1.3588 C   0  0  0  0  0  0  0  0  0  0  0  0
    8.6575   -6.7475    2.5129 Cl  0  0  0  0  0  0  0  0  0  0  0  0
    7.5314   -4.8010    1.0541 C   0  0  0  0  0  0  0  0  0  0  0  0
    6.5228   -3.5667   -2.5932 N   0  0  0  0  0  0  0  0  0  0  0  0
    6.1313   -3.2914   -3.8372 C   0  0  0  0  0  0  0  0  0  0  0  0
    5.1908   -2.4098   -4.1828 N   0  0  0  0  0  0  0  0  0  0  0  0
    4.5911   -1.7581   -3.1874 C   0  0  0  0  0  0  0  0  0  0  0  0
    3.6130   -0.8377   -3.5077 C   0  0  0  0  0  0  0  0  0  0  0  0
    2.9060   -0.1128   -2.5341 C   0  0  0  0  0  0  0  0  0  0  0  0
    1.8574    0.7362   -2.8348 O   0  0  0  0  0  0  0  0  0  0  0  0
    1.3410    0.5454   -4.1577 C   0  0  0  0  0  0  0  0  0  0  0  0
   -0.0037    1.1242   -4.4258 C   0  0  0  0  0  0  0  0  0  0  0  0
   -0.9718    1.5771   -3.5549 C   0  0  0  0  0  0  0  0  0  0  0  0
   -2.3836    2.0231   -4.4339 S   0  0  0  0  0  0  0  0  0  0  0  0
   -1.6040    1.5849   -5.9009 C   0  0  0  0  0  0  0  0  0  0  0  0
   -2.2757    1.7148   -7.2458 C   0  0  0  0  0  0  0  0  0  0  0  0
   -2.3661    0.3552   -7.9628 C   0  0  0  0  0  0  0  0  0  0  0  0
   -1.0321   -0.0988   -8.5627 C   0  0  0  0  0  0  0  0  0  0  0  0
   -0.4550    0.9194   -9.4415 N   0  0  0  0  0  0  0  0  0  0  0  0
   -0.2323    2.1704   -8.7140 C   0  0  0  0  0  0  0  0  0  0  0  0
   -1.5319    2.7309   -8.1289 C   0  0  0  0  0  0  0  0  0  0  0  0
   -0.3802    1.1401   -5.7558 N   0  0  0  0  0  0  0  0  0  0  0  0
    3.1324    1.7928    1.2992 H   0  0  0  0  0  0  0  0  0  0  0  0
    4.4810    0.7920    0.7773 H   0  0  0  0  0  0  0  0  0  0  0  0
    3.1185    0.0627    1.6969 H   0  0  0  0  0  0  0  0  0  0  0  0
    4.4664   -1.3892    0.1965 H   0  0  0  0  0  0  0  0  0  0  0  0
    5.5045   -3.4799    0.2830 H   0  0  0  0  0  0  0  0  0  0  0  0
    8.7270   -2.5856   -1.2299 H   0  0  0  0  0  0  0  0  0  0  0  0
   10.8280   -3.7354   -0.6955 H   0  0  0  0  0  0  0  0  0  0  0  0
    6.6096   -5.1088    1.5416 H   0  0  0  0  0  0  0  0  0  0  0  0
    6.6255   -3.8268   -4.6399 H   0  0  0  0  0  0  0  0  0  0  0  0
    3.4262   -0.7007   -4.5689 H   0  0  0  0  0  0  0  0  0  0  0  0
    1.2310   -0.5275   -4.3688 H   0  0  0  0  0  0  0  0  0  0  0  0
    2.0421    0.9932   -4.8746 H   0  0  0  0  0  0  0  0  0  0  0  0
   -0.9275    1.6442   -2.4771 H   0  0  0  0  0  0  0  0  0  0  0  0
   -3.2988    2.0818   -7.0911 H   0  0  0  0  0  0  0  0  0  0  0  0
   -3.0966    0.4402   -8.7789 H   0  0  0  0  0  0  0  0  0  0  0  0
   -2.7446   -0.4196   -7.2849 H   0  0  0  0  0  0  0  0  0  0  0  0
   -1.1955   -1.0098   -9.1502 H   0  0  0  0  0  0  0  0  0  0  0  0
   -0.3146   -0.3758   -7.7823 H   0  0  0  0  0  0  0  0  0  0  0  0
   -1.0858    1.0897  -10.2232 H   0  0  0  0  0  0  0  0  0  0  0  0
    0.1895    2.9041   -9.4097 H   0  0  0  0  0  0  0  0  0  0  0  0
    0.5291    2.0260   -7.9393 H   0  0  0  0  0  0  0  0  0  0  0  0
   -2.1899    3.0182   -8.9594 H   0  0  0  0  0  0  0  0  0  0  0  0
   -1.3158    3.6502   -7.5698 H   0  0  0  0  0  0  0  0  0  0  0  0
  1  2  1  0  0  0  0
  1 35  1  0  0  0  0
  1 36  1  0  0  0  0
  1 37  1  0  0  0  0
  2  3  1  0  0  0  0
  3  4  1  0  0  0  0
  3 21  2  0  0  0  0
  4  5  2  0  0  0  0
  4 38  1  0  0  0  0
  5  6  1  0  0  0  0
  5 19  1  0  0  0  0
  6  7  1  0  0  0  0
  6 16  2  0  0  0  0
  7  8  1  0  0  0  0
  7 39  1  0  0  0  0
  8  9  1  0  0  0  0
  8 15  2  0  0  0  0
  9 10  2  0  0  0  0
  9 40  1  0  0  0  0
 10 11  1  0  0  0  0
 10 41  1  0  0  0  0
 11 12  1  0  0  0  0
 11 13  2  0  0  0  0
 13 14  1  0  0  0  0
 13 15  1  0  0  0  0
 15 42  1  0  0  0  0
 16 17  1  0  0  0  0
 17 18  2  0  0  0  0
 17 43  1  0  0  0  0
 18 19  1  0  0  0  0
 19 20  2  0  0  0  0
 20 21  1  0  0  0  0
 20 44  1  0  0  0  0
 21 22  1  0  0  0  0
 22 23  1  0  0  0  0
 23 24  1  0  0  0  0
 23 45  1  0  0  0  0
 23 46  1  0  0  0  0
 24 25  2  0  0  0  0
 24 34  1  0  0  0  0
 25 26  1  0  0  0  0
 25 47  1  0  0  0  0
 26 27  1  0  0  0  0
 27 28  1  0  0  0  0
 27 34  2  0  0  0  0
 28 29  1  0  0  0  0
 28 33  1  0  0  0  0
 28 48  1  0  0  0  0
 29 30  1  0  0  0  0
 29 49  1  0  0  0  0
 29 50  1  0  0  0  0
 30 31  1  0  0  0  0
 30 51  1  0  0  0  0
 30 52  1  0  0  0  0
 31 32  1  0  0  0  0
 31 53  1  0  0  0  0
 32 33  1  0  0  0  0
 32 54  1  0  0  0  0
 32 55  1  0  0  0  0
 33 56  1  0  0  0  0
 33 57  1  0  0  0  0
M  END
$$$$
