CHEMBL278965
 OpenBabel04072215363D

 76 79  0  0  0  0  0  0  0  0999 V2000
   11.3211   -2.2826   -7.2836 C   0  0  0  0  0  0  0  0  0  0  0  0
   10.0541   -2.5482   -6.6439 N   0  0  0  0  0  0  0  0  0  0  0  0
    9.7324   -1.7293   -5.5690 C   0  0  0  0  0  0  0  0  0  0  0  0
   10.6690   -1.2401   -4.7712 N   0  0  0  0  0  0  0  0  0  0  0  0
   10.2110   -0.5090   -3.7526 C   0  0  0  0  0  0  0  0  0  0  0  0
    8.9378   -0.2400   -3.4814 N   0  0  0  0  0  0  0  0  0  0  0  0
    8.0778   -0.7714   -4.3441 C   0  0  0  0  0  0  0  0  0  0  0  0
    6.6294   -0.6495   -4.1230 C   0  0  0  0  0  0  0  0  0  0  0  0
    5.7757   -1.6642   -4.6143 C   0  0  0  0  0  0  0  0  0  0  0  0
    4.3954   -1.6038   -4.4587 C   0  0  0  0  0  0  0  0  0  0  0  0
    3.8727   -0.4998   -3.8284 C   0  0  0  0  0  0  0  0  0  0  0  0
    4.6324    0.5012   -3.3469 N   0  0  0  0  0  0  0  0  0  0  0  0
    5.9899    0.4039   -3.4575 C   0  0  0  0  0  0  0  0  0  0  0  0
    6.7485    1.4315   -2.8941 O   0  0  0  0  0  0  0  0  0  0  0  0
    6.1661    2.1992   -1.8935 C   0  0  0  0  0  0  0  0  0  0  0  0
    5.3832    1.6225   -0.8768 C   0  0  0  0  0  0  0  0  0  0  0  0
    4.7258    2.4311    0.0556 C   0  0  0  0  0  0  0  0  0  0  0  0
    3.7000    1.8687    0.9808 C   0  0  0  0  0  0  0  0  0  0  0  0
    2.7409    2.5627    1.3013 O   0  0  0  0  0  0  0  0  0  0  0  0
    3.9576    0.5990    1.4639 N   0  0  0  0  0  0  0  0  0  0  0  0
    3.0948   -0.1049    2.3362 C   0  0  0  0  0  0  0  0  0  0  0  0
    1.7336   -0.2157    2.0009 C   0  0  0  0  0  0  0  0  0  0  0  0
    0.9001   -1.1165    2.6779 C   0  0  0  0  0  0  0  0  0  0  0  0
   -0.5097   -1.3890    2.2217 C   0  0  0  0  0  0  0  0  0  0  0  0
   -0.8836   -0.6860    1.1168 F   0  0  0  0  0  0  0  0  0  0  0  0
   -0.6944   -2.7027    1.8975 F   0  0  0  0  0  0  0  0  0  0  0  0
   -1.4404   -1.1148    3.1774 F   0  0  0  0  0  0  0  0  0  0  0  0
    1.4265   -1.8311    3.7573 C   0  0  0  0  0  0  0  0  0  0  0  0
    2.7674   -1.6789    4.1224 C   0  0  0  0  0  0  0  0  0  0  0  0
    3.6457   -0.8337    3.4181 C   0  0  0  0  0  0  0  0  0  0  0  0
    4.9792   -0.7330    3.8106 N   0  0  0  0  0  0  0  0  0  0  0  0
    5.6898    0.5402    3.8177 C   0  0  0  0  0  0  0  0  0  0  0  0
    5.7239   -1.9225    4.2314 C   0  0  0  0  0  0  0  0  0  0  0  0
    5.9590   -2.8394    3.0315 C   0  0  0  0  0  0  0  0  0  0  0  0
    6.8147   -4.0453    3.4228 C   0  0  0  0  0  0  0  0  0  0  0  0
    7.0424   -4.9797    2.3076 N   0  0  0  0  0  0  0  0  0  0  0  0
    7.7677   -4.3581    1.1973 C   0  0  0  0  0  0  0  0  0  0  0  0
    7.7800   -6.1525    2.7845 C   0  0  0  0  0  0  0  0  0  0  0  0
    4.9403    3.8123    0.0421 C   0  0  0  0  0  0  0  0  0  0  0  0
    5.7835    4.3827   -0.9152 C   0  0  0  0  0  0  0  0  0  0  0  0
    6.3916    3.5884   -1.9021 C   0  0  0  0  0  0  0  0  0  0  0  0
    7.2145    4.2482   -2.9728 C   0  0  0  0  0  0  0  0  0  0  0  0
    8.4387   -1.5154   -5.4028 N   0  0  0  0  0  0  0  0  0  0  0  0
   11.4042   -2.9048   -8.1808 H   0  0  0  0  0  0  0  0  0  0  0  0
   12.1606   -2.5391   -6.6295 H   0  0  0  0  0  0  0  0  0  0  0  0
   11.4054   -1.2368   -7.5963 H   0  0  0  0  0  0  0  0  0  0  0  0
    9.2476   -2.5560   -7.2582 H   0  0  0  0  0  0  0  0  0  0  0  0
   10.9551   -0.1064   -3.0742 H   0  0  0  0  0  0  0  0  0  0  0  0
    6.1983   -2.5298   -5.1235 H   0  0  0  0  0  0  0  0  0  0  0  0
    3.7547   -2.3967   -4.8271 H   0  0  0  0  0  0  0  0  0  0  0  0
    2.8031   -0.3880   -3.6786 H   0  0  0  0  0  0  0  0  0  0  0  0
    5.2078    0.5507   -0.8783 H   0  0  0  0  0  0  0  0  0  0  0  0
    4.9152    0.2738    1.4608 H   0  0  0  0  0  0  0  0  0  0  0  0
    1.3414    0.3389    1.1488 H   0  0  0  0  0  0  0  0  0  0  0  0
    0.7994   -2.5267    4.3139 H   0  0  0  0  0  0  0  0  0  0  0  0
    3.1132   -2.2355    4.9891 H   0  0  0  0  0  0  0  0  0  0  0  0
    5.0324    1.4053    3.6872 H   0  0  0  0  0  0  0  0  0  0  0  0
    6.4494    0.5470    3.0277 H   0  0  0  0  0  0  0  0  0  0  0  0
    6.2035    0.6819    4.7745 H   0  0  0  0  0  0  0  0  0  0  0  0
    5.2197   -2.4536    5.0457 H   0  0  0  0  0  0  0  0  0  0  0  0
    6.6960   -1.6190    4.6415 H   0  0  0  0  0  0  0  0  0  0  0  0
    6.4479   -2.2512    2.2469 H   0  0  0  0  0  0  0  0  0  0  0  0
    5.0023   -3.1869    2.6222 H   0  0  0  0  0  0  0  0  0  0  0  0
    6.2880   -4.5794    4.2253 H   0  0  0  0  0  0  0  0  0  0  0  0
    7.7698   -3.7017    3.8405 H   0  0  0  0  0  0  0  0  0  0  0  0
    7.1636   -3.5843    0.7130 H   0  0  0  0  0  0  0  0  0  0  0  0
    7.9838   -5.0940    0.4150 H   0  0  0  0  0  0  0  0  0  0  0  0
    8.7143   -3.9119    1.5221 H   0  0  0  0  0  0  0  0  0  0  0  0
    7.2221   -6.6638    3.5768 H   0  0  0  0  0  0  0  0  0  0  0  0
    8.7691   -5.8854    3.1742 H   0  0  0  0  0  0  0  0  0  0  0  0
    7.9117   -6.8799    1.9760 H   0  0  0  0  0  0  0  0  0  0  0  0
    4.4321    4.4507    0.7628 H   0  0  0  0  0  0  0  0  0  0  0  0
    5.9280    5.4620   -0.9092 H   0  0  0  0  0  0  0  0  0  0  0  0
    7.3086    5.3268   -2.7957 H   0  0  0  0  0  0  0  0  0  0  0  0
    6.7399    4.1179   -3.9506 H   0  0  0  0  0  0  0  0  0  0  0  0
    8.2253    3.8314   -2.9953 H   0  0  0  0  0  0  0  0  0  0  0  0
  1  2  1  0  0  0  0
  1 44  1  0  0  0  0
  1 45  1  0  0  0  0
  1 46  1  0  0  0  0
  2  3  1  0  0  0  0
  2 47  1  0  0  0  0
  3  4  1  0  0  0  0
  3 43  2  0  0  0  0
  4  5  2  0  0  0  0
  5  6  1  0  0  0  0
  5 48  1  0  0  0  0
  6  7  2  0  0  0  0
  7  8  1  0  0  0  0
  7 43  1  0  0  0  0
  8  9  1  0  0  0  0
  8 13  2  0  0  0  0
  9 10  2  0  0  0  0
  9 49  1  0  0  0  0
 10 11  1  0  0  0  0
 10 50  1  0  0  0  0
 11 12  2  0  0  0  0
 11 51  1  0  0  0  0
 12 13  1  0  0  0  0
 13 14  1  0  0  0  0
 14 15  1  0  0  0  0
 15 16  1  0  0  0  0
 15 41  2  0  0  0  0
 16 17  2  0  0  0  0
 16 52  1  0  0  0  0
 17 18  1  0  0  0  0
 17 39  1  0  0  0  0
 18 19  2  0  0  0  0
 18 20  1  0  0  0  0
 20 21  1  0  0  0  0
 20 53  1  0  0  0  0
 21 22  1  0  0  0  0
 21 30  2  0  0  0  0
 22 23  2  0  0  0  0
 22 54  1  0  0  0  0
 23 24  1  0  0  0  0
 23 28  1  0  0  0  0
 24 25  1  0  0  0  0
 24 26  1  0  0  0  0
 24 27  1  0  0  0  0
 28 29  2  0  0  0  0
 28 55  1  0  0  0  0
 29 30  1  0  0  0  0
 29 56  1  0  0  0  0
 30 31  1  0  0  0  0
 31 32  1  0  0  0  0
 31 33  1  0  0  0  0
 32 57  1  0  0  0  0
 32 58  1  0  0  0  0
 32 59  1  0  0  0  0
 33 34  1  0  0  0  0
 33 60  1  0  0  0  0
 33 61  1  0  0  0  0
 34 35  1  0  0  0  0
 34 62  1  0  0  0  0
 34 63  1  0  0  0  0
 35 36  1  0  0  0  0
 35 64  1  0  0  0  0
 35 65  1  0  0  0  0
 36 37  1  0  0  0  0
 36 38  1  0  0  0  0
 37 66  1  0  0  0  0
 37 67  1  0  0  0  0
 37 68  1  0  0  0  0
 38 69  1  0  0  0  0
 38 70  1  0  0  0  0
 38 71  1  0  0  0  0
 39 40  2  0  0  0  0
 39 72  1  0  0  0  0
 40 41  1  0  0  0  0
 40 73  1  0  0  0  0
 41 42  1  0  0  0  0
 42 74  1  0  0  0  0
 42 75  1  0  0  0  0
 42 76  1  0  0  0  0
M  END
$$$$
