CHEMBL248712
 OpenBabel04072215363D

 47 51  0  0  0  0  0  0  0  0999 V2000
   -0.2028   -0.5922    2.2104 C   0  0  0  0  0  0  0  0  0  0  0  0
    0.5590   -1.8595    2.5672 C   0  0  0  0  0  0  0  0  0  0  0  0
    1.9563   -1.5265    2.8277 N   0  0  0  0  0  0  0  0  0  0  0  0
    2.7350   -2.7138    3.1743 C   0  0  0  0  0  0  0  0  0  0  0  0
    4.1731   -2.3659    3.4403 C   0  0  0  0  0  0  0  0  0  0  0  0
    5.2027   -2.9116    2.6844 C   0  0  0  0  0  0  0  0  0  0  0  0
    6.5153   -2.7105    2.9179 N   0  0  0  0  0  0  0  0  0  0  0  0
    6.8311   -1.9307    3.9781 C   0  0  0  0  0  0  0  0  0  0  0  0
    5.8995   -1.3260    4.8134 C   0  0  0  0  0  0  0  0  0  0  0  0
    6.2969   -0.5618    5.9982 C   0  0  0  0  0  0  0  0  0  0  0  0
    7.4185   -0.8534    6.7798 C   0  0  0  0  0  0  0  0  0  0  0  0
    7.8059   -0.2394    7.9409 N   0  0  0  0  0  0  0  0  0  0  0  0
    6.9564    0.7480    8.2918 C   0  0  0  0  0  0  0  0  0  0  0  0
    7.0284    1.5684    9.3822 N   0  0  0  0  0  0  0  0  0  0  0  0
    6.0060    2.4741    9.4606 N   0  0  0  0  0  0  0  0  0  0  0  0
    5.2745    2.1897    8.3685 C   0  0  0  0  0  0  0  0  0  0  0  0
    3.9589    2.8168    8.0279 C   0  0  0  0  0  0  0  0  0  0  0  0
    3.2203    2.5206    6.9669 N   0  0  0  0  0  0  0  0  0  0  0  0
    2.0062    3.1163    7.1788 C   0  0  0  0  0  0  0  0  0  0  0  0
    0.8194    3.0406    6.4335 C   0  0  0  0  0  0  0  0  0  0  0  0
   -0.2893    3.7501    6.8982 C   0  0  0  0  0  0  0  0  0  0  0  0
   -1.4334    3.6960    6.2013 F   0  0  0  0  0  0  0  0  0  0  0  0
   -0.2307    4.5056    8.0670 C   0  0  0  0  0  0  0  0  0  0  0  0
   -1.3116    5.1856    8.4761 F   0  0  0  0  0  0  0  0  0  0  0  0
    0.9304    4.5738    8.8361 C   0  0  0  0  0  0  0  0  0  0  0  0
    2.0355    3.8702    8.3511 C   0  0  0  0  0  0  0  0  0  0  0  0
    3.2946    3.6842    8.8386 N   0  0  0  0  0  0  0  0  0  0  0  0
    5.8327    1.1548    7.6044 C   0  0  0  0  0  0  0  0  0  0  0  0
    5.4926    0.4939    6.4302 C   0  0  0  0  0  0  0  0  0  0  0  0
    4.5486   -1.5436    4.5035 C   0  0  0  0  0  0  0  0  0  0  0  0
   -1.2510   -0.8292    2.0006 H   0  0  0  0  0  0  0  0  0  0  0  0
    0.2195   -0.1128    1.3206 H   0  0  0  0  0  0  0  0  0  0  0  0
   -0.1789    0.1307    3.0329 H   0  0  0  0  0  0  0  0  0  0  0  0
    0.4853   -2.5682    1.7346 H   0  0  0  0  0  0  0  0  0  0  0  0
    0.0996   -2.3180    3.4506 H   0  0  0  0  0  0  0  0  0  0  0  0
    2.0053   -0.8531    3.5902 H   0  0  0  0  0  0  0  0  0  0  0  0
    2.6836   -3.4412    2.3566 H   0  0  0  0  0  0  0  0  0  0  0  0
    2.3267   -3.2070    4.0661 H   0  0  0  0  0  0  0  0  0  0  0  0
    4.9918   -3.5698    1.8458 H   0  0  0  0  0  0  0  0  0  0  0  0
    7.8966   -1.8313    4.1537 H   0  0  0  0  0  0  0  0  0  0  0  0
    8.0899   -1.6644    6.4896 H   0  0  0  0  0  0  0  0  0  0  0  0
    7.7408    1.5538   10.1039 H   0  0  0  0  0  0  0  0  0  0  0  0
    0.7557    2.4409    5.5309 H   0  0  0  0  0  0  0  0  0  0  0  0
    0.9649    5.1499    9.7521 H   0  0  0  0  0  0  0  0  0  0  0  0
    3.6701    4.0114    9.7278 H   0  0  0  0  0  0  0  0  0  0  0  0
    4.6169    0.8112    5.8724 H   0  0  0  0  0  0  0  0  0  0  0  0
    3.7615   -1.1110    5.1268 H   0  0  0  0  0  0  0  0  0  0  0  0
  1  2  1  0  0  0  0
  1 31  1  0  0  0  0
  1 32  1  0  0  0  0
  1 33  1  0  0  0  0
  2  3  1  0  0  0  0
  2 34  1  0  0  0  0
  2 35  1  0  0  0  0
  3  4  1  0  0  0  0
  3 36  1  0  0  0  0
  4  5  1  0  0  0  0
  4 37  1  0  0  0  0
  4 38  1  0  0  0  0
  5  6  1  0  0  0  0
  5 30  2  0  0  0  0
  6  7  2  0  0  0  0
  6 39  1  0  0  0  0
  7  8  1  0  0  0  0
  8  9  2  0  0  0  0
  8 40  1  0  0  0  0
  9 10  1  0  0  0  0
  9 30  1  0  0  0  0
 10 11  1  0  0  0  0
 10 29  2  0  0  0  0
 11 12  2  0  0  0  0
 11 41  1  0  0  0  0
 12 13  1  0  0  0  0
 13 14  1  0  0  0  0
 13 28  2  0  0  0  0
 14 15  1  0  0  0  0
 14 42  1  0  0  0  0
 15 16  2  0  0  0  0
 16 17  1  0  0  0  0
 16 28  1  0  0  0  0
 17 18  2  0  0  0  0
 17 27  1  0  0  0  0
 18 19  1  0  0  0  0
 19 20  1  0  0  0  0
 19 26  2  0  0  0  0
 20 21  2  0  0  0  0
 20 43  1  0  0  0  0
 21 22  1  0  0  0  0
 21 23  1  0  0  0  0
 23 24  1  0  0  0  0
 23 25  2  0  0  0  0
 25 26  1  0  0  0  0
 25 44  1  0  0  0  0
 26 27  1  0  0  0  0
 27 45  1  0  0  0  0
 28 29  1  0  0  0  0
 29 46  1  0  0  0  0
 30 47  1  0  0  0  0
M  END
$$$$
