CHEMBL2071270
 OpenBabel04072215363D

 47 50  0  0  1  0  0  0  0  0999 V2000
    2.4074   -0.4897    1.1016 N   0  0  0  0  0  0  0  0  0  0  0  0
    3.5511   -1.2011    0.9448 C   0  0  0  0  0  0  0  0  0  0  0  0
    4.6301   -0.6102    0.9553 O   0  0  0  0  0  0  0  0  0  0  0  0
    3.4662   -2.7032    0.7837 C   0  0  1  0  0  0  0  0  0  0  0  0
    2.8371   -3.4729    1.9869 C   0  0  2  0  0  0  0  0  0  0  0  0
    3.2366   -4.9305    1.8577 C   0  0  0  0  0  0  0  0  0  0  0  0
    2.5823   -5.4292    0.7944 C   0  0  0  0  0  0  0  0  0  0  0  0
    1.7288   -4.3047    0.2226 C   0  0  1  0  0  0  0  0  0  0  0  0
    1.3814   -3.6589    1.5698 C   0  0  0  0  0  0  0  0  0  0  0  0
    2.7037   -3.2860   -0.4389 C   0  0  1  0  0  0  0  0  0  0  0  0
    2.1316   -2.3724   -1.4320 N   0  0  0  0  0  0  0  0  0  0  0  0
    0.8407   -1.8875   -1.4755 C   0  0  0  0  0  0  0  0  0  0  0  0
    0.1972   -1.7436   -0.3083 N   0  0  0  0  0  0  0  0  0  0  0  0
   -1.0632   -1.2864   -0.2866 C   0  0  0  0  0  0  0  0  0  0  0  0
   -1.5806   -1.0639    0.9930 N   0  0  0  0  0  0  0  0  0  0  0  0
   -2.5679   -0.2207    1.3437 C   0  0  0  0  0  0  0  0  0  0  0  0
   -3.6852    0.2203    0.6102 C   0  0  0  0  0  0  0  0  0  0  0  0
   -4.3936    1.1380    1.2795 N   0  0  0  0  0  0  0  0  0  0  0  0
   -3.7064    1.2861    2.4279 N   0  0  0  0  0  0  0  0  0  0  0  0
   -4.0937    2.3233    3.3643 C   0  0  0  0  0  0  0  0  0  0  0  0
   -5.5381    2.1858    3.8206 C   0  0  0  0  0  0  0  0  0  0  0  0
   -5.7209    1.0006    4.5928 O   0  0  0  0  0  0  0  0  0  0  0  0
   -2.6407    0.4400    2.5447 C   0  0  0  0  0  0  0  0  0  0  0  0
   -1.7402   -0.9691   -1.3953 N   0  0  0  0  0  0  0  0  0  0  0  0
   -1.0831   -1.1082   -2.5644 C   0  0  0  0  0  0  0  0  0  0  0  0
    0.2205   -1.5424   -2.6641 C   0  0  0  0  0  0  0  0  0  0  0  0
    0.9903   -1.6467   -4.1957 Cl  0  0  0  0  0  0  0  0  0  0  0  0
    2.5345    0.5146    1.0556 H   0  0  0  0  0  0  0  0  0  0  0  0
    1.5616   -0.8448    0.6654 H   0  0  0  0  0  0  0  0  0  0  0  0
    4.5177   -3.0225    0.7058 H   0  0  0  0  0  0  0  0  0  0  0  0
    2.9647   -3.0389    2.9795 H   0  0  0  0  0  0  0  0  0  0  0  0
    3.9323   -5.4507    2.4988 H   0  0  0  0  0  0  0  0  0  0  0  0
    2.6555   -6.4309    0.3980 H   0  0  0  0  0  0  0  0  0  0  0  0
    0.8830   -4.6441   -0.3774 H   0  0  0  0  0  0  0  0  0  0  0  0
    0.8082   -4.3315    2.2250 H   0  0  0  0  0  0  0  0  0  0  0  0
    0.8480   -2.7179    1.5541 H   0  0  0  0  0  0  0  0  0  0  0  0
    3.4375   -3.8618   -1.0221 H   0  0  0  0  0  0  0  0  0  0  0  0
    2.8017   -1.8198   -1.9613 H   0  0  0  0  0  0  0  0  0  0  0  0
   -0.8497   -1.2867    1.6582 H   0  0  0  0  0  0  0  0  0  0  0  0
   -4.0087   -0.0841   -0.3770 H   0  0  0  0  0  0  0  0  0  0  0  0
   -3.9349    3.2790    2.8531 H   0  0  0  0  0  0  0  0  0  0  0  0
   -3.4120    2.2655    4.2200 H   0  0  0  0  0  0  0  0  0  0  0  0
   -6.2432    2.1740    2.9829 H   0  0  0  0  0  0  0  0  0  0  0  0
   -5.7967    3.0344    4.4614 H   0  0  0  0  0  0  0  0  0  0  0  0
   -5.7267    0.2573    3.9596 H   0  0  0  0  0  0  0  0  0  0  0  0
   -2.0038    0.4381    3.4186 H   0  0  0  0  0  0  0  0  0  0  0  0
   -1.6602   -0.8404   -3.4442 H   0  0  0  0  0  0  0  0  0  0  0  0
  1  2  1  0  0  0  0
  1 28  1  0  0  0  0
  1 29  1  0  0  0  0
  2  3  2  0  0  0  0
  2  4  1  0  0  0  0
  4  5  1  0  0  0  0
  4 10  1  0  0  0  0
  4 30  1  6  0  0  0
  5  6  1  0  0  0  0
  5  9  1  0  0  0  0
  5 31  1  1  0  0  0
  6  7  2  0  0  0  0
  6 32  1  0  0  0  0
  7  8  1  0  0  0  0
  7 33  1  0  0  0  0
  8  9  1  0  0  0  0
  8 10  1  0  0  0  0
  8 34  1  6  0  0  0
  9 35  1  0  0  0  0
  9 36  1  0  0  0  0
 10 11  1  0  0  0  0
 10 37  1  6  0  0  0
 11 12  1  0  0  0  0
 11 38  1  0  0  0  0
 12 13  1  0  0  0  0
 12 26  2  0  0  0  0
 13 14  2  0  0  0  0
 14 15  1  0  0  0  0
 14 24  1  0  0  0  0
 15 16  1  0  0  0  0
 15 39  1  0  0  0  0
 16 17  1  0  0  0  0
 16 23  2  0  0  0  0
 17 18  2  0  0  0  0
 17 40  1  0  0  0  0
 18 19  1  0  0  0  0
 19 20  1  0  0  0  0
 19 23  1  0  0  0  0
 20 21  1  0  0  0  0
 20 41  1  0  0  0  0
 20 42  1  0  0  0  0
 21 22  1  0  0  0  0
 21 43  1  0  0  0  0
 21 44  1  0  0  0  0
 22 45  1  0  0  0  0
 23 46  1  0  0  0  0
 24 25  2  0  0  0  0
 25 26  1  0  0  0  0
 25 47  1  0  0  0  0
 26 27  1  0  0  0  0
M  END
$$$$
