CHEMBL3397916
 OpenBabel04072215363D

 61 64  0  0  0  0  0  0  0  0999 V2000
    1.1568   -0.2009   -0.4800 C   0  0  0  0  0  0  0  0  0  0  0  0
    2.4245   -0.0766    0.1512 O   0  0  0  0  0  0  0  0  0  0  0  0
    3.0793    1.1248    0.0586 C   0  0  0  0  0  0  0  0  0  0  0  0
    2.5630    2.2654   -0.5475 C   0  0  0  0  0  0  0  0  0  0  0  0
    3.3367    3.4222   -0.6192 C   0  0  0  0  0  0  0  0  0  0  0  0
    4.6460    3.4455   -0.0997 C   0  0  0  0  0  0  0  0  0  0  0  0
    5.4354    4.6628   -0.4237 C   0  0  0  0  0  0  0  0  0  0  0  0
    6.4870    4.5179   -1.0388 O   0  0  0  0  0  0  0  0  0  0  0  0
    4.9111    5.8559    0.0459 N   0  0  0  0  0  0  0  0  0  0  0  0
    5.5727    7.1018   -0.0705 C   0  0  0  0  0  0  0  0  0  0  0  0
    6.4226    7.4054   -1.1376 C   0  0  0  0  0  0  0  0  0  0  0  0
    7.0814    8.6415   -1.1921 C   0  0  0  0  0  0  0  0  0  0  0  0
    6.8913    9.5792   -0.1802 C   0  0  0  0  0  0  0  0  0  0  0  0
    7.4759   10.8130   -0.1255 O   0  0  0  0  0  0  0  0  0  0  0  0
    7.8195   11.3760   -1.3970 C   0  0  0  0  0  0  0  0  0  0  0  0
    7.8836   12.9043   -1.2449 C   0  0  0  0  0  0  0  0  0  0  0  0
    8.0964   13.6272   -2.5158 N   0  0  0  0  0  0  0  0  0  0  0  0
    9.3898   13.3222   -3.1476 C   0  0  0  0  0  0  0  0  0  0  0  0
   10.3759   14.2358   -2.4521 C   0  0  0  0  0  0  0  0  0  0  0  0
    9.5873   15.5261   -2.3373 C   0  0  0  0  0  0  0  0  0  0  0  0
    8.1251   15.0870   -2.2812 C   0  0  0  0  0  0  0  0  0  0  0  0
    6.0565    9.2688    0.8937 C   0  0  0  0  0  0  0  0  0  0  0  0
    5.3644    8.0538    0.9283 C   0  0  0  0  0  0  0  0  0  0  0  0
    5.2059    2.3213    0.5641 C   0  0  0  0  0  0  0  0  0  0  0  0
    6.5830    2.3246    1.1520 C   0  0  0  0  0  0  0  0  0  0  0  0
    7.0802    3.4194    1.8858 C   0  0  0  0  0  0  0  0  0  0  0  0
    8.3762    3.4233    2.4203 C   0  0  0  0  0  0  0  0  0  0  0  0
    9.1884    2.3009    2.3002 C   0  0  0  0  0  0  0  0  0  0  0  0
    8.7054    1.1958    1.6163 C   0  0  0  0  0  0  0  0  0  0  0  0
    9.4354    0.0477    1.5181 O   0  0  0  0  0  0  0  0  0  0  0  0
    7.4464    1.2183    1.0149 C   0  0  0  0  0  0  0  0  0  0  0  0
    4.3676    1.1737    0.6377 C   0  0  0  0  0  0  0  0  0  0  0  0
    4.7540    0.0232    1.2962 O   0  0  0  0  0  0  0  0  0  0  0  0
    0.8340   -1.2394   -0.3765 H   0  0  0  0  0  0  0  0  0  0  0  0
    1.2206    0.0205   -1.5526 H   0  0  0  0  0  0  0  0  0  0  0  0
    0.4192    0.4351    0.0125 H   0  0  0  0  0  0  0  0  0  0  0  0
    1.5738    2.2796   -0.9923 H   0  0  0  0  0  0  0  0  0  0  0  0
    2.9348    4.2922   -1.1368 H   0  0  0  0  0  0  0  0  0  0  0  0
    4.1354    5.8101    0.6939 H   0  0  0  0  0  0  0  0  0  0  0  0
    6.5686    6.7060   -1.9552 H   0  0  0  0  0  0  0  0  0  0  0  0
    7.7441    8.8284   -2.0320 H   0  0  0  0  0  0  0  0  0  0  0  0
    7.0626   11.1332   -2.1533 H   0  0  0  0  0  0  0  0  0  0  0  0
    8.7905   10.9706   -1.6983 H   0  0  0  0  0  0  0  0  0  0  0  0
    8.6348   13.1650   -0.4882 H   0  0  0  0  0  0  0  0  0  0  0  0
    6.9208   13.2241   -0.8226 H   0  0  0  0  0  0  0  0  0  0  0  0
    9.3258   13.5837   -4.2126 H   0  0  0  0  0  0  0  0  0  0  0  0
    9.6852   12.2721   -3.1077 H   0  0  0  0  0  0  0  0  0  0  0  0
   11.3035   14.3613   -3.0172 H   0  0  0  0  0  0  0  0  0  0  0  0
   10.6323   13.8523   -1.4575 H   0  0  0  0  0  0  0  0  0  0  0  0
    9.7559   16.1416   -3.2278 H   0  0  0  0  0  0  0  0  0  0  0  0
    9.8852   16.1045   -1.4579 H   0  0  0  0  0  0  0  0  0  0  0  0
    7.5607   15.5880   -3.0769 H   0  0  0  0  0  0  0  0  0  0  0  0
    7.6574   15.3795   -1.3342 H   0  0  0  0  0  0  0  0  0  0  0  0
    5.9447    9.9817    1.7072 H   0  0  0  0  0  0  0  0  0  0  0  0
    4.7196    7.8456    1.7765 H   0  0  0  0  0  0  0  0  0  0  0  0
    6.4751    4.3094    2.0380 H   0  0  0  0  0  0  0  0  0  0  0  0
    8.7471    4.3105    2.9277 H   0  0  0  0  0  0  0  0  0  0  0  0
   10.1842    2.3110    2.7312 H   0  0  0  0  0  0  0  0  0  0  0  0
   10.2583    0.1583    2.0222 H   0  0  0  0  0  0  0  0  0  0  0  0
    7.1432    0.3439    0.4402 H   0  0  0  0  0  0  0  0  0  0  0  0
    5.4550    0.2310    1.9333 H   0  0  0  0  0  0  0  0  0  0  0  0
  1  2  1  0  0  0  0
  1 34  1  0  0  0  0
  1 35  1  0  0  0  0
  1 36  1  0  0  0  0
  2  3  1  0  0  0  0
  3  4  1  0  0  0  0
  3 32  2  0  0  0  0
  4  5  2  0  0  0  0
  4 37  1  0  0  0  0
  5  6  1  0  0  0  0
  5 38  1  0  0  0  0
  6  7  1  0  0  0  0
  6 24  2  0  0  0  0
  7  8  2  0  0  0  0
  7  9  1  0  0  0  0
  9 10  1  0  0  0  0
  9 39  1  0  0  0  0
 10 11  1  0  0  0  0
 10 23  2  0  0  0  0
 11 12  2  0  0  0  0
 11 40  1  0  0  0  0
 12 13  1  0  0  0  0
 12 41  1  0  0  0  0
 13 14  1  0  0  0  0
 13 22  2  0  0  0  0
 14 15  1  0  0  0  0
 15 16  1  0  0  0  0
 15 42  1  0  0  0  0
 15 43  1  0  0  0  0
 16 17  1  0  0  0  0
 16 44  1  0  0  0  0
 16 45  1  0  0  0  0
 17 18  1  0  0  0  0
 17 21  1  0  0  0  0
 18 19  1  0  0  0  0
 18 46  1  0  0  0  0
 18 47  1  0  0  0  0
 19 20  1  0  0  0  0
 19 48  1  0  0  0  0
 19 49  1  0  0  0  0
 20 21  1  0  0  0  0
 20 50  1  0  0  0  0
 20 51  1  0  0  0  0
 21 52  1  0  0  0  0
 21 53  1  0  0  0  0
 22 23  1  0  0  0  0
 22 54  1  0  0  0  0
 23 55  1  0  0  0  0
 24 25  1  0  0  0  0
 24 32  1  0  0  0  0
 25 26  1  0  0  0  0
 25 31  2  0  0  0  0
 26 27  2  0  0  0  0
 26 56  1  0  0  0  0
 27 28  1  0  0  0  0
 27 57  1  0  0  0  0
 28 29  2  0  0  0  0
 28 58  1  0  0  0  0
 29 30  1  0  0  0  0
 29 31  1  0  0  0  0
 30 59  1  0  0  0  0
 31 60  1  0  0  0  0
 32 33  1  0  0  0  0
 33 61  1  0  0  0  0
M  END
$$$$
