CHEMBL3741411
 OpenBabel04072215373D

 62 66  0  0  0  0  0  0  0  0999 V2000
    7.7681   -1.2818    4.4236 C   0  0  0  0  0  0  0  0  0  0  0  0
    5.9990   -1.1734    4.6588 S   0  0  0  0  0  0  0  0  0  0  0  0
    5.6455   -1.9450    5.8194 O   0  0  0  0  0  0  0  0  0  0  0  0
    5.6610    0.2356    4.5887 O   0  0  0  0  0  0  0  0  0  0  0  0
    5.2914   -1.9325    3.1932 C   0  0  0  0  0  0  0  0  0  0  0  0
    5.6891   -3.3703    3.0467 C   0  0  0  0  0  0  0  0  0  0  0  0
    4.9206   -4.3892    3.6262 C   0  0  0  0  0  0  0  0  0  0  0  0
    5.2630   -5.7338    3.4294 C   0  0  0  0  0  0  0  0  0  0  0  0
    6.3747   -6.0657    2.6577 C   0  0  0  0  0  0  0  0  0  0  0  0
    7.1852   -5.0669    2.1004 C   0  0  0  0  0  0  0  0  0  0  0  0
    8.2596   -5.4146    1.2734 N   0  0  0  0  0  0  0  0  0  0  0  0
    9.4198   -4.6394    1.0753 C   0  0  0  0  0  0  0  0  0  0  0  0
    9.9556   -4.6922   -0.1508 N   0  0  0  0  0  0  0  0  0  0  0  0
   11.0551   -3.9459   -0.3635 C   0  0  0  0  0  0  0  0  0  0  0  0
   11.6373   -3.1573    0.5992 C   0  0  0  0  0  0  0  0  0  0  0  0
   11.0449   -3.1916    1.8417 C   0  0  0  0  0  0  0  0  0  0  0  0
   11.5031   -2.4659    2.9350 O   0  0  0  0  0  0  0  0  0  0  0  0
   12.8486   -2.1924    3.0398 C   0  0  0  0  0  0  0  0  0  0  0  0
   13.2310   -0.9606    3.5611 C   0  0  0  0  0  0  0  0  0  0  0  0
   14.5534   -0.5349    3.3618 C   0  0  0  0  0  0  0  0  0  0  0  0
   15.5133   -1.3879    2.7577 C   0  0  0  0  0  0  0  0  0  0  0  0
   16.8777   -1.0919    2.5542 C   0  0  0  0  0  0  0  0  0  0  0  0
   17.6167   -1.8520    1.3589 C   0  0  0  0  0  0  0  0  0  0  0  0
   16.9595   -2.3383    0.4434 O   0  0  0  0  0  0  0  0  0  0  0  0
   19.0265   -1.9403    1.4533 N   0  0  0  0  0  0  0  0  0  0  0  0
   19.9449   -2.5395    0.5309 C   0  0  0  0  0  0  0  0  0  0  0  0
   19.5645   -3.1934   -0.6436 C   0  0  0  0  0  0  0  0  0  0  0  0
   20.5244   -3.7183   -1.5255 C   0  0  0  0  0  0  0  0  0  0  0  0
   21.8790   -3.6042   -1.2352 C   0  0  0  0  0  0  0  0  0  0  0  0
   22.7865   -4.0933   -2.0917 F   0  0  0  0  0  0  0  0  0  0  0  0
   22.2951   -2.9735   -0.0745 C   0  0  0  0  0  0  0  0  0  0  0  0
   21.3304   -2.4513    0.7950 C   0  0  0  0  0  0  0  0  0  0  0  0
   21.7564   -1.8175    1.9002 F   0  0  0  0  0  0  0  0  0  0  0  0
   17.5239   -1.3827    3.7161 C   0  0  0  0  0  0  0  0  0  0  0  0
   17.3722   -2.7122    4.0933 C   0  0  0  0  0  0  0  0  0  0  0  0
   16.2710   -3.4488    3.5646 C   0  0  0  0  0  0  0  0  0  0  0  0
   15.2123   -2.7247    2.9410 C   0  0  0  0  0  0  0  0  0  0  0  0
   13.8596   -3.1307    2.8085 C   0  0  0  0  0  0  0  0  0  0  0  0
    9.9215   -3.8973    2.0798 N   0  0  0  0  0  0  0  0  0  0  0  0
    6.8012   -3.7198    2.3042 C   0  0  0  0  0  0  0  0  0  0  0  0
    8.2411   -0.8246    5.2945 H   0  0  0  0  0  0  0  0  0  0  0  0
    8.0472   -0.7326    3.5205 H   0  0  0  0  0  0  0  0  0  0  0  0
    8.0630   -2.3273    4.3596 H   0  0  0  0  0  0  0  0  0  0  0  0
    5.5888   -1.3474    2.3295 H   0  0  0  0  0  0  0  0  0  0  0  0
    4.1952   -1.8323    3.2937 H   0  0  0  0  0  0  0  0  0  0  0  0
    4.0390   -4.1447    4.2367 H   0  0  0  0  0  0  0  0  0  0  0  0
    4.6580   -6.5072    3.8865 H   0  0  0  0  0  0  0  0  0  0  0  0
    6.6313   -7.1130    2.5196 H   0  0  0  0  0  0  0  0  0  0  0  0
    7.9450   -5.6714    0.3429 H   0  0  0  0  0  0  0  0  0  0  0  0
   11.4697   -4.0052   -1.3667 H   0  0  0  0  0  0  0  0  0  0  0  0
   12.5158   -2.5701    0.3731 H   0  0  0  0  0  0  0  0  0  0  0  0
   12.5316   -0.3402    4.1205 H   0  0  0  0  0  0  0  0  0  0  0  0
   14.8637    0.4301    3.7589 H   0  0  0  0  0  0  0  0  0  0  0  0
   19.4734   -1.5668    2.2846 H   0  0  0  0  0  0  0  0  0  0  0  0
   18.5186   -3.3084   -0.9111 H   0  0  0  0  0  0  0  0  0  0  0  0
   20.2166   -4.2064   -2.4467 H   0  0  0  0  0  0  0  0  0  0  0  0
   23.3547   -2.8747    0.1370 H   0  0  0  0  0  0  0  0  0  0  0  0
   17.7929   -0.5967    4.4122 H   0  0  0  0  0  0  0  0  0  0  0  0
   18.0451   -3.1317    4.8315 H   0  0  0  0  0  0  0  0  0  0  0  0
   16.1383   -4.4837    3.8583 H   0  0  0  0  0  0  0  0  0  0  0  0
   13.5950   -4.1727    2.6566 H   0  0  0  0  0  0  0  0  0  0  0  0
    7.4222   -2.9470    1.8581 H   0  0  0  0  0  0  0  0  0  0  0  0
  1  2  1  0  0  0  0
  1 41  1  0  0  0  0
  1 42  1  0  0  0  0
  1 43  1  0  0  0  0
  2  3  2  0  0  0  0
  2  4  2  0  0  0  0
  2  5  1  0  0  0  0
  5  6  1  0  0  0  0
  5 44  1  0  0  0  0
  5 45  1  0  0  0  0
  6  7  1  0  0  0  0
  6 40  2  0  0  0  0
  7  8  2  0  0  0  0
  7 46  1  0  0  0  0
  8  9  1  0  0  0  0
  8 47  1  0  0  0  0
  9 10  2  0  0  0  0
  9 48  1  0  0  0  0
 10 11  1  0  0  0  0
 10 40  1  0  0  0  0
 11 12  1  0  0  0  0
 11 49  1  0  0  0  0
 12 13  1  0  0  0  0
 12 39  2  0  0  0  0
 13 14  2  0  0  0  0
 14 15  1  0  0  0  0
 14 50  1  0  0  0  0
 15 16  2  0  0  0  0
 15 51  1  0  0  0  0
 16 17  1  0  0  0  0
 16 39  1  0  0  0  0
 17 18  1  0  0  0  0
 18 19  1  0  0  0  0
 18 38  2  0  0  0  0
 19 20  2  0  0  0  0
 19 52  1  0  0  0  0
 20 21  1  0  0  0  0
 20 53  1  0  0  0  0
 21 22  1  0  0  0  0
 21 37  2  0  0  0  0
 22 23  1  0  0  0  0
 22 34  2  0  0  0  0
 23 24  2  0  0  0  0
 23 25  1  0  0  0  0
 25 26  1  0  0  0  0
 25 54  1  0  0  0  0
 26 27  1  0  0  0  0
 26 32  2  0  0  0  0
 27 28  2  0  0  0  0
 27 55  1  0  0  0  0
 28 29  1  0  0  0  0
 28 56  1  0  0  0  0
 29 30  1  0  0  0  0
 29 31  2  0  0  0  0
 31 32  1  0  0  0  0
 31 57  1  0  0  0  0
 32 33  1  0  0  0  0
 34 35  1  0  0  0  0
 34 58  1  0  0  0  0
 35 36  2  0  0  0  0
 35 59  1  0  0  0  0
 36 37  1  0  0  0  0
 36 60  1  0  0  0  0
 37 38  1  0  0  0  0
 38 61  1  0  0  0  0
 40 62  1  0  0  0  0
M  END
$$$$
