CHEMBL3984548
 OpenBabel04072215373D

 66 69  0  0  0  0  0  0  0  0999 V2000
    1.7947    5.5925   -0.8466 C   0  0  0  0  0  0  0  0  0  0  0  0
    2.6200    4.3871   -0.8974 N   0  0  0  0  0  0  0  0  0  0  0  0
    3.4069    4.3073    0.3503 C   0  0  0  0  0  0  0  0  0  0  0  0
    4.2619    3.0276    0.4573 C   0  0  0  0  0  0  0  0  0  0  0  0
    5.1157    2.9829    1.7504 N   0  0  0  0  0  0  0  0  0  0  0  0
    4.3100    2.4505    2.8356 C   0  0  0  0  0  0  0  0  0  0  0  0
    2.8780    2.4030    2.7513 C   0  0  0  0  0  0  0  0  0  0  0  0
    2.0234    2.0774    3.7927 C   0  0  0  0  0  0  0  0  0  0  0  0
    0.6534    2.1361    3.7539 O   0  0  0  0  0  0  0  0  0  0  0  0
    0.0555    2.6293    2.5528 C   0  0  0  0  0  0  0  0  0  0  0  0
    2.5888    1.6138    4.9566 C   0  0  0  0  0  0  0  0  0  0  0  0
    3.9833    1.4675    5.0469 C   0  0  0  0  0  0  0  0  0  0  0  0
    4.6171    0.8651    6.1053 O   0  0  0  0  0  0  0  0  0  0  0  0
    3.7694    0.1682    7.0172 C   0  0  0  0  0  0  0  0  0  0  0  0
    4.8356    1.9366    4.0137 C   0  0  0  0  0  0  0  0  0  0  0  0
    6.5547    2.9787    1.5229 C   0  0  0  0  0  0  0  0  0  0  0  0
    6.9154    2.4594    0.3046 C   0  0  0  0  0  0  0  0  0  0  0  0
    8.1957    2.3702   -0.0939 C   0  0  0  0  0  0  0  0  0  0  0  0
    9.2488    2.6751    0.6653 C   0  0  0  0  0  0  0  0  0  0  0  0
   10.1732    2.0751    0.0181 N   0  0  0  0  0  0  0  0  0  0  0  0
   11.3514    2.6152    0.0372 C   0  0  0  0  0  0  0  0  0  0  0  0
   11.7732    3.5963    0.8816 C   0  0  0  0  0  0  0  0  0  0  0  0
   13.1762    4.0128    0.4339 C   0  0  0  0  0  0  0  0  0  0  0  0
   14.4448    4.3474    1.0149 C   0  0  0  0  0  0  0  0  0  0  0  0
   15.5056    4.3148    0.1670 N   0  0  0  0  0  0  0  0  0  0  0  0
   14.9765    4.0045   -1.0285 N   0  0  0  0  0  0  0  0  0  0  0  0
   15.8307    3.7762   -2.1914 C   0  0  0  0  0  0  0  0  0  0  0  0
   15.5215    4.5135   -3.4931 C   0  0  0  0  0  0  0  0  0  0  0  0
   15.4440    6.2796   -3.3663 S   0  0  0  0  0  0  0  0  0  0  0  0
   17.0963    6.7852   -2.9206 C   0  0  0  0  0  0  0  0  0  0  0  0
   15.2134    6.7779   -4.7086 O   0  0  0  0  0  0  0  0  0  0  0  0
   14.5385    6.6249   -2.2931 O   0  0  0  0  0  0  0  0  0  0  0  0
   13.6271    3.7948   -0.9172 C   0  0  0  0  0  0  0  0  0  0  0  0
   10.7985    3.9929    1.8521 N   0  0  0  0  0  0  0  0  0  0  0  0
    9.2818    3.5142    1.7727 C   0  0  0  0  0  0  0  0  0  0  0  0
    7.7296    3.4919    2.2848 C   0  0  0  0  0  0  0  0  0  0  0  0
    1.2373    5.7182   -1.7787 H   0  0  0  0  0  0  0  0  0  0  0  0
    2.4137    6.4830   -0.6953 H   0  0  0  0  0  0  0  0  0  0  0  0
    1.0668    5.5228   -0.0312 H   0  0  0  0  0  0  0  0  0  0  0  0
    3.2515    4.4568   -1.6981 H   0  0  0  0  0  0  0  0  0  0  0  0
    2.7080    4.3939    1.1813 H   0  0  0  0  0  0  0  0  0  0  0  0
    4.0824    5.1631    0.4192 H   0  0  0  0  0  0  0  0  0  0  0  0
    4.8261    3.0687   -0.4752 H   0  0  0  0  0  0  0  0  0  0  0  0
    3.6802    2.0936    0.3347 H   0  0  0  0  0  0  0  0  0  0  0  0
    2.3739    2.6067    1.8191 H   0  0  0  0  0  0  0  0  0  0  0  0
   -1.0309    2.6429    2.6867 H   0  0  0  0  0  0  0  0  0  0  0  0
    0.2707    1.9628    1.7100 H   0  0  0  0  0  0  0  0  0  0  0  0
    0.3718    3.6561    2.3316 H   0  0  0  0  0  0  0  0  0  0  0  0
    1.9269    1.3500    5.7747 H   0  0  0  0  0  0  0  0  0  0  0  0
    4.3970   -0.4467    7.6672 H   0  0  0  0  0  0  0  0  0  0  0  0
    3.0739   -0.5074    6.5037 H   0  0  0  0  0  0  0  0  0  0  0  0
    3.2266    0.8829    7.6440 H   0  0  0  0  0  0  0  0  0  0  0  0
    5.9052    1.8145    4.1281 H   0  0  0  0  0  0  0  0  0  0  0  0
    6.2441    2.0134   -0.4227 H   0  0  0  0  0  0  0  0  0  0  0  0
    8.3752    1.9843   -1.1111 H   0  0  0  0  0  0  0  0  0  0  0  0
   11.8939    2.2591   -0.8179 H   0  0  0  0  0  0  0  0  0  0  0  0
   14.6795    4.5414    2.0523 H   0  0  0  0  0  0  0  0  0  0  0  0
   15.8017    2.6934   -2.4117 H   0  0  0  0  0  0  0  0  0  0  0  0
   16.8658    3.9832   -1.9013 H   0  0  0  0  0  0  0  0  0  0  0  0
   14.5679    4.1890   -3.9260 H   0  0  0  0  0  0  0  0  0  0  0  0
   16.2821    4.2900   -4.2409 H   0  0  0  0  0  0  0  0  0  0  0  0
   17.7891    6.5323   -3.7641 H   0  0  0  0  0  0  0  0  0  0  0  0
   17.4127    6.2664   -1.9919 H   0  0  0  0  0  0  0  0  0  0  0  0
   17.0716    7.8558   -2.7777 H   0  0  0  0  0  0  0  0  0  0  0  0
   13.1115    3.4441   -1.8015 H   0  0  0  0  0  0  0  0  0  0  0  0
    7.5317    3.9266    3.2717 H   0  0  0  0  0  0  0  0  0  0  0  0
  1  2  1  0  0  0  0
  1 37  1  0  0  0  0
  1 38  1  0  0  0  0
  1 39  1  0  0  0  0
  2  3  1  0  0  0  0
  2 40  1  0  0  0  0
  3  4  1  0  0  0  0
  3 41  1  0  0  0  0
  3 42  1  0  0  0  0
  4  5  1  0  0  0  0
  4 43  1  0  0  0  0
  4 44  1  0  0  0  0
  5  6  1  0  0  0  0
  5 16  1  0  0  0  0
  6  7  1  0  0  0  0
  6 15  2  0  0  0  0
  7  8  2  0  0  0  0
  7 45  1  0  0  0  0
  8  9  1  0  0  0  0
  8 11  1  0  0  0  0
  9 10  1  0  0  0  0
 10 46  1  0  0  0  0
 10 47  1  0  0  0  0
 10 48  1  0  0  0  0
 11 12  2  0  0  0  0
 11 49  1  0  0  0  0
 12 13  1  0  0  0  0
 12 15  1  0  0  0  0
 13 14  1  0  0  0  0
 14 50  1  0  0  0  0
 14 51  1  0  0  0  0
 14 52  1  0  0  0  0
 15 53  1  0  0  0  0
 16 17  1  0  0  0  0
 16 36  2  0  0  0  0
 17 18  2  0  0  0  0
 17 54  1  0  0  0  0
 18 19  1  0  0  0  0
 18 55  1  0  0  0  0
 19 20  1  0  0  0  0
 19 35  2  0  0  0  0
 20 21  2  0  0  0  0
 21 22  1  0  0  0  0
 21 56  1  0  0  0  0
 22 23  1  0  0  0  0
 22 34  2  0  0  0  0
 23 24  1  0  0  0  0
 23 33  2  0  0  0  0
 24 25  2  0  0  0  0
 24 57  1  0  0  0  0
 25 26  1  0  0  0  0
 26 27  1  0  0  0  0
 26 33  1  0  0  0  0
 27 28  1  0  0  0  0
 27 58  1  0  0  0  0
 27 59  1  0  0  0  0
 28 29  1  0  0  0  0
 28 60  1  0  0  0  0
 28 61  1  0  0  0  0
 29 30  1  0  0  0  0
 29 31  2  0  0  0  0
 29 32  2  0  0  0  0
 30 62  1  0  0  0  0
 30 63  1  0  0  0  0
 30 64  1  0  0  0  0
 33 65  1  0  0  0  0
 34 35  1  0  0  0  0
 35 36  1  0  0  0  0
 36 66  1  0  0  0  0
M  END
$$$$
