CHEMBL1682357
 OpenBabel04072215363D

 34 37  0  0  0  0  0  0  0  0999 V2000
   -5.5839    3.6486    0.5894 C   0  0  0  0  0  0  0  0  0  0  0  0
   -4.8894    3.0328    1.6290 C   0  0  0  0  0  0  0  0  0  0  0  0
   -3.9991    1.9901    1.3581 C   0  0  0  0  0  0  0  0  0  0  0  0
   -3.7959    1.5505    0.0410 C   0  0  0  0  0  0  0  0  0  0  0  0
   -2.8068    0.4544   -0.2715 C   0  0  0  0  0  0  0  0  0  0  0  0
   -3.5415   -0.8398   -0.2246 C   0  0  0  0  0  0  0  0  0  0  0  0
   -3.6911   -1.7227    0.8736 C   0  0  0  0  0  0  0  0  0  0  0  0
   -4.3644   -2.8100    0.3623 C   0  0  0  0  0  0  0  0  0  0  0  0
   -4.8301   -4.0860    0.9050 C   0  0  0  0  0  0  0  0  0  0  0  0
   -5.5184   -5.0075    0.0965 C   0  0  0  0  0  0  0  0  0  0  0  0
   -6.0288   -6.2122    0.5991 C   0  0  0  0  0  0  0  0  0  0  0  0
   -5.8067   -6.4769    1.9506 C   0  0  0  0  0  0  0  0  0  0  0  0
   -6.1932   -7.5186    2.7533 N   0  0  0  0  0  0  0  0  0  0  0  0
   -5.7213   -7.4467    4.0115 N   0  0  0  0  0  0  0  0  0  0  0  0
   -5.0444   -6.2945    4.0208 C   0  0  0  0  0  0  0  0  0  0  0  0
   -5.0876   -5.6236    2.7757 C   0  0  0  0  0  0  0  0  0  0  0  0
   -4.6007   -4.4095    2.2574 C   0  0  0  0  0  0  0  0  0  0  0  0
   -4.6127   -2.5791   -0.9574 O   0  0  0  0  0  0  0  0  0  0  0  0
   -4.0892   -1.3565   -1.3321 N   0  0  0  0  0  0  0  0  0  0  0  0
   -4.5091    2.1745   -0.9949 C   0  0  0  0  0  0  0  0  0  0  0  0
   -5.3945    3.2179   -0.7229 C   0  0  0  0  0  0  0  0  0  0  0  0
   -6.2725    4.4621    0.8016 H   0  0  0  0  0  0  0  0  0  0  0  0
   -5.0363    3.3697    2.6522 H   0  0  0  0  0  0  0  0  0  0  0  0
   -3.4597    1.5298    2.1826 H   0  0  0  0  0  0  0  0  0  0  0  0
   -1.9853    0.4624    0.4553 H   0  0  0  0  0  0  0  0  0  0  0  0
   -2.3534    0.6163   -1.2571 H   0  0  0  0  0  0  0  0  0  0  0  0
   -3.3372   -1.5852    1.8832 H   0  0  0  0  0  0  0  0  0  0  0  0
   -5.6796   -4.7925   -0.9605 H   0  0  0  0  0  0  0  0  0  0  0  0
   -6.5718   -6.9006   -0.0406 H   0  0  0  0  0  0  0  0  0  0  0  0
   -6.7806   -8.3068    2.5043 H   0  0  0  0  0  0  0  0  0  0  0  0
   -4.5482   -5.9880    4.9323 H   0  0  0  0  0  0  0  0  0  0  0  0
   -4.0605   -3.7343    2.9129 H   0  0  0  0  0  0  0  0  0  0  0  0
   -4.3752    1.8486   -2.0245 H   0  0  0  0  0  0  0  0  0  0  0  0
   -5.9338    3.6979   -1.5347 H   0  0  0  0  0  0  0  0  0  0  0  0
  1  2  1  0  0  0  0
  1 21  2  0  0  0  0
  1 22  1  0  0  0  0
  2  3  2  0  0  0  0
  2 23  1  0  0  0  0
  3  4  1  0  0  0  0
  3 24  1  0  0  0  0
  4  5  1  0  0  0  0
  4 20  2  0  0  0  0
  5  6  1  0  0  0  0
  5 25  1  0  0  0  0
  5 26  1  0  0  0  0
  6  7  1  0  0  0  0
  6 19  2  0  0  0  0
  7  8  2  0  0  0  0
  7 27  1  0  0  0  0
  8  9  1  0  0  0  0
  8 18  1  0  0  0  0
  9 10  1  0  0  0  0
  9 17  2  0  0  0  0
 10 11  2  0  0  0  0
 10 28  1  0  0  0  0
 11 12  1  0  0  0  0
 11 29  1  0  0  0  0
 12 13  1  0  0  0  0
 12 16  2  0  0  0  0
 13 14  1  0  0  0  0
 13 30  1  0  0  0  0
 14 15  2  0  0  0  0
 15 16  1  0  0  0  0
 15 31  1  0  0  0  0
 16 17  1  0  0  0  0
 17 32  1  0  0  0  0
 18 19  1  0  0  0  0
 20 21  1  0  0  0  0
 20 33  1  0  0  0  0
 21 34  1  0  0  0  0
M  END
$$$$
