CHEMBL2031907
 OpenBabel04072215363D

 71 76  0  0  0  0  0  0  0  0999 V2000
    4.9832   -6.8045   12.3846 C   0  0  0  0  0  0  0  0  0  0  0  0
    5.9586   -5.9839   13.0202 O   0  0  0  0  0  0  0  0  0  0  0  0
    6.3140   -4.8479   12.3421 C   0  0  0  0  0  0  0  0  0  0  0  0
    5.8602   -4.4942   11.0835 C   0  0  0  0  0  0  0  0  0  0  0  0
    6.2704   -3.3112   10.4912 C   0  0  0  0  0  0  0  0  0  0  0  0
    7.1086   -2.4071   11.1745 C   0  0  0  0  0  0  0  0  0  0  0  0
    7.4644   -1.1293   10.6839 C   0  0  0  0  0  0  0  0  0  0  0  0
    7.0054   -0.5956    9.4775 O   0  0  0  0  0  0  0  0  0  0  0  0
    5.6523   -0.5114    9.1967 C   0  0  0  0  0  0  0  0  0  0  0  0
    5.2417   -0.3266    7.8641 C   0  0  0  0  0  0  0  0  0  0  0  0
    3.8577   -0.2482    7.5144 C   0  0  0  0  0  0  0  0  0  0  0  0
    2.8987   -0.4006    8.5096 C   0  0  0  0  0  0  0  0  0  0  0  0
    1.4916   -0.4974    8.3728 N   0  0  0  0  0  0  0  0  0  0  0  0
    0.5373    0.1048    7.5545 C   0  0  0  0  0  0  0  0  0  0  0  0
    0.7868    0.9111    6.6639 O   0  0  0  0  0  0  0  0  0  0  0  0
   -0.9221   -0.2935    7.8819 C   0  0  0  0  0  0  0  0  0  0  0  0
   -2.1764    0.0309    7.4301 C   0  0  0  0  0  0  0  0  0  0  0  0
   -2.6227    1.1950    6.5610 C   0  0  0  0  0  0  0  0  0  0  0  0
   -3.1065    0.8979    5.1834 N   0  0  0  0  0  0  0  0  0  0  0  0
   -1.9540    0.8293    4.2637 C   0  0  0  0  0  0  0  0  0  0  0  0
   -1.4713    2.2781    4.1761 C   0  0  0  0  0  0  0  0  0  0  0  0
   -2.7323    3.1159    4.4252 C   0  0  0  0  0  0  0  0  0  0  0  0
   -3.8257    2.0710    4.6157 C   0  0  0  0  0  0  0  0  0  0  0  0
   -3.1958   -0.7415    8.0385 N   0  0  0  0  0  0  0  0  0  0  0  0
   -4.6135   -0.3673    8.1537 C   0  0  0  0  0  0  0  0  0  0  0  0
   -2.6026   -1.3382    9.1457 N   0  0  0  0  0  0  0  0  0  0  0  0
   -3.2857   -2.2033   10.0106 C   0  0  0  0  0  0  0  0  0  0  0  0
   -3.1644   -2.0432   11.3947 C   0  0  0  0  0  0  0  0  0  0  0  0
   -3.9227   -2.8396   12.2555 C   0  0  0  0  0  0  0  0  0  0  0  0
   -4.7717   -3.8203   11.7388 C   0  0  0  0  0  0  0  0  0  0  0  0
   -4.8771   -3.9975   10.3607 C   0  0  0  0  0  0  0  0  0  0  0  0
   -4.1420   -3.1895    9.4993 C   0  0  0  0  0  0  0  0  0  0  0  0
   -1.2358   -1.1829    9.0592 C   0  0  0  0  0  0  0  0  0  0  0  0
   -0.3713   -1.6455    9.8032 O   0  0  0  0  0  0  0  0  0  0  0  0
    3.2911   -0.5949    9.7925 N   0  0  0  0  0  0  0  0  0  0  0  0
    4.6191   -0.5922   10.1129 C   0  0  0  0  0  0  0  0  0  0  0  0
    8.4226   -0.3772   11.3740 C   0  0  0  0  0  0  0  0  0  0  0  0
    8.9199   -0.8741   12.5655 C   0  0  0  0  0  0  0  0  0  0  0  0
    8.5119   -2.0448   13.1095 N   0  0  0  0  0  0  0  0  0  0  0  0
    7.6338   -2.7854   12.4309 C   0  0  0  0  0  0  0  0  0  0  0  0
    7.2263   -4.0052   12.9836 C   0  0  0  0  0  0  0  0  0  0  0  0
    4.7943   -7.6725   13.0272 H   0  0  0  0  0  0  0  0  0  0  0  0
    5.3540   -7.1820   11.4249 H   0  0  0  0  0  0  0  0  0  0  0  0
    4.0368   -6.2707   12.2588 H   0  0  0  0  0  0  0  0  0  0  0  0
    5.1666   -5.1170   10.5204 H   0  0  0  0  0  0  0  0  0  0  0  0
    5.9171   -3.0884    9.4878 H   0  0  0  0  0  0  0  0  0  0  0  0
    6.0002   -0.2725    7.0825 H   0  0  0  0  0  0  0  0  0  0  0  0
    3.5804   -0.1530    6.4663 H   0  0  0  0  0  0  0  0  0  0  0  0
    1.1293   -0.9881    9.1918 H   0  0  0  0  0  0  0  0  0  0  0  0
   -1.8665    1.9784    6.6203 H   0  0  0  0  0  0  0  0  0  0  0  0
   -3.4719    1.6628    7.0824 H   0  0  0  0  0  0  0  0  0  0  0  0
   -2.3047    0.5013    3.2734 H   0  0  0  0  0  0  0  0  0  0  0  0
   -1.1943    0.1128    4.5829 H   0  0  0  0  0  0  0  0  0  0  0  0
   -1.0016    2.5051    3.2185 H   0  0  0  0  0  0  0  0  0  0  0  0
   -0.7297    2.4798    4.9581 H   0  0  0  0  0  0  0  0  0  0  0  0
   -2.9413    3.8070    3.6051 H   0  0  0  0  0  0  0  0  0  0  0  0
   -2.6263    3.7121    5.3410 H   0  0  0  0  0  0  0  0  0  0  0  0
   -4.2476    1.8071    3.6325 H   0  0  0  0  0  0  0  0  0  0  0  0
   -4.6693    2.4156    5.2236 H   0  0  0  0  0  0  0  0  0  0  0  0
   -4.9673    0.2580    7.3295 H   0  0  0  0  0  0  0  0  0  0  0  0
   -4.8129    0.1599    9.0939 H   0  0  0  0  0  0  0  0  0  0  0  0
   -5.2536   -1.2545    8.1140 H   0  0  0  0  0  0  0  0  0  0  0  0
   -2.5277   -1.2646   11.8089 H   0  0  0  0  0  0  0  0  0  0  0  0
   -3.8569   -2.6930   13.3307 H   0  0  0  0  0  0  0  0  0  0  0  0
   -5.3573   -4.4416   12.4074 H   0  0  0  0  0  0  0  0  0  0  0  0
   -5.5285   -4.7620    9.9500 H   0  0  0  0  0  0  0  0  0  0  0  0
   -4.2175   -3.3283    8.4238 H   0  0  0  0  0  0  0  0  0  0  0  0
    4.7912   -0.6871   11.1861 H   0  0  0  0  0  0  0  0  0  0  0  0
    8.7937    0.5719   10.9918 H   0  0  0  0  0  0  0  0  0  0  0  0
    9.6659   -0.3301   13.1450 H   0  0  0  0  0  0  0  0  0  0  0  0
    7.6125   -4.2933   13.9629 H   0  0  0  0  0  0  0  0  0  0  0  0
  1  2  1  0  0  0  0
  1 42  1  0  0  0  0
  1 43  1  0  0  0  0
  1 44  1  0  0  0  0
  2  3  1  0  0  0  0
  3  4  1  0  0  0  0
  3 41  2  0  0  0  0
  4  5  2  0  0  0  0
  4 45  1  0  0  0  0
  5  6  1  0  0  0  0
  5 46  1  0  0  0  0
  6  7  1  0  0  0  0
  6 40  2  0  0  0  0
  7  8  1  0  0  0  0
  7 37  2  0  0  0  0
  8  9  1  0  0  0  0
  9 10  1  0  0  0  0
  9 36  2  0  0  0  0
 10 11  2  0  0  0  0
 10 47  1  0  0  0  0
 11 12  1  0  0  0  0
 11 48  1  0  0  0  0
 12 13  1  0  0  0  0
 12 35  2  0  0  0  0
 13 14  1  0  0  0  0
 13 49  1  0  0  0  0
 14 15  2  0  0  0  0
 14 16  1  0  0  0  0
 16 17  2  0  0  0  0
 16 33  1  0  0  0  0
 17 18  1  0  0  0  0
 17 24  1  0  0  0  0
 18 19  1  0  0  0  0
 18 50  1  0  0  0  0
 18 51  1  0  0  0  0
 19 20  1  0  0  0  0
 19 23  1  0  0  0  0
 20 21  1  0  0  0  0
 20 52  1  0  0  0  0
 20 53  1  0  0  0  0
 21 22  1  0  0  0  0
 21 54  1  0  0  0  0
 21 55  1  0  0  0  0
 22 23  1  0  0  0  0
 22 56  1  0  0  0  0
 22 57  1  0  0  0  0
 23 58  1  0  0  0  0
 23 59  1  0  0  0  0
 24 25  1  0  0  0  0
 24 26  1  0  0  0  0
 25 60  1  0  0  0  0
 25 61  1  0  0  0  0
 25 62  1  0  0  0  0
 26 27  1  0  0  0  0
 26 33  1  0  0  0  0
 27 28  1  0  0  0  0
 27 32  2  0  0  0  0
 28 29  2  0  0  0  0
 28 63  1  0  0  0  0
 29 30  1  0  0  0  0
 29 64  1  0  0  0  0
 30 31  2  0  0  0  0
 30 65  1  0  0  0  0
 31 32  1  0  0  0  0
 31 66  1  0  0  0  0
 32 67  1  0  0  0  0
 33 34  2  0  0  0  0
 35 36  1  0  0  0  0
 36 68  1  0  0  0  0
 37 38  1  0  0  0  0
 37 69  1  0  0  0  0
 38 39  2  0  0  0  0
 38 70  1  0  0  0  0
 39 40  1  0  0  0  0
 40 41  1  0  0  0  0
 41 71  1  0  0  0  0
M  END
$$$$
