CHEMBL3644023
 OpenBabel04072215373D

 52 53  0  0  1  0  0  0  0  0999 V2000
    6.1027    6.4944   -5.9378 C   0  0  0  0  0  0  0  0  0  0  0  0
    6.0951    7.8349   -5.9842 C   0  0  0  0  0  0  0  0  0  0  0  0
    6.1412    8.7259   -4.7790 C   0  0  0  0  0  0  0  0  0  0  0  0
    4.7014    9.7934   -4.7721 S   0  0  0  0  0  0  0  0  0  0  0  0
    4.7117   10.6108   -5.9740 O   0  0  0  0  0  0  0  0  0  0  0  0
    3.5246    9.0176   -4.4079 O   0  0  0  0  0  0  0  0  0  0  0  0
    5.0159   10.8747   -3.3992 C   0  0  0  0  0  0  0  0  0  0  0  0
    5.0869   12.2578   -3.5638 C   0  0  0  0  0  0  0  0  0  0  0  0
    5.2782   13.0841   -2.4440 C   0  0  0  0  0  0  0  0  0  0  0  0
    5.3887   12.5416   -1.1579 C   0  0  0  0  0  0  0  0  0  0  0  0
    5.4679   13.3873   -0.0372 N   0  0  0  0  0  0  0  0  0  0  0  0
    5.1784   13.1084    1.3033 C   0  0  0  0  0  0  0  0  0  0  0  0
    4.8985   14.1406    2.1013 N   0  0  0  0  0  0  0  0  0  0  0  0
    4.5931   13.8491    3.3858 C   0  0  0  0  0  0  0  0  0  0  0  0
    4.5628   12.5739    3.9170 C   0  0  0  0  0  0  0  0  0  0  0  0
    4.2717   12.3463    5.3491 C   0  0  0  0  0  0  0  0  0  0  0  0
    4.0377   13.5092    6.0286 F   0  0  0  0  0  0  0  0  0  0  0  0
    3.1722   11.5771    5.5681 F   0  0  0  0  0  0  0  0  0  0  0  0
    5.2985   11.7478    6.0130 F   0  0  0  0  0  0  0  0  0  0  0  0
    4.8424   11.5781    3.0219 C   0  0  0  0  0  0  0  0  0  0  0  0
    4.7979   10.2394    3.4031 O   0  0  0  0  0  0  0  0  0  0  0  0
    5.0583    9.3176    2.3014 C   0  0  2  0  0  0  0  0  0  0  0  0
    3.7841    9.1230    1.4635 C   0  0  0  0  0  0  0  0  0  0  0  0
    5.6580    7.9617    2.7894 C   0  0  0  0  0  0  0  0  0  0  0  0
    4.7189    7.1444    3.6750 C   0  0  0  0  0  0  0  0  0  0  0  0
    6.1099    7.1117    1.5875 C   0  0  0  0  0  0  0  0  0  0  0  0
    6.8451    8.2346    3.5509 O   0  0  0  0  0  0  0  0  0  0  0  0
    5.1492   11.8482    1.7433 N   0  0  0  0  0  0  0  0  0  0  0  0
    5.4176   11.1455   -1.0579 C   0  0  0  0  0  0  0  0  0  0  0  0
    5.1912   10.3096   -2.1461 C   0  0  0  0  0  0  0  0  0  0  0  0
    6.0592    5.9107   -6.8550 H   0  0  0  0  0  0  0  0  0  0  0  0
    6.1281    5.9489   -5.0010 H   0  0  0  0  0  0  0  0  0  0  0  0
    6.0578    8.3299   -6.9554 H   0  0  0  0  0  0  0  0  0  0  0  0
    7.0298    9.3630   -4.8142 H   0  0  0  0  0  0  0  0  0  0  0  0
    6.1428    8.1474   -3.8502 H   0  0  0  0  0  0  0  0  0  0  0  0
    4.9740   12.7097   -4.5465 H   0  0  0  0  0  0  0  0  0  0  0  0
    5.3079   14.1623   -2.5866 H   0  0  0  0  0  0  0  0  0  0  0  0
    5.3166   14.3721   -0.2034 H   0  0  0  0  0  0  0  0  0  0  0  0
    4.3633   14.7231    3.9944 H   0  0  0  0  0  0  0  0  0  0  0  0
    5.8650    9.7356    1.6908 H   0  0  0  0  0  0  0  0  0  0  0  0
    3.0051    8.6067    2.0317 H   0  0  0  0  0  0  0  0  0  0  0  0
    3.9885    8.5496    0.5540 H   0  0  0  0  0  0  0  0  0  0  0  0
    3.3453   10.0768    1.1555 H   0  0  0  0  0  0  0  0  0  0  0  0
    3.8457    6.7834    3.1229 H   0  0  0  0  0  0  0  0  0  0  0  0
    4.3747    7.7295    4.5337 H   0  0  0  0  0  0  0  0  0  0  0  0
    5.2428    6.2698    4.0799 H   0  0  0  0  0  0  0  0  0  0  0  0
    5.2638    6.6870    1.0375 H   0  0  0  0  0  0  0  0  0  0  0  0
    6.7575    6.2879    1.9077 H   0  0  0  0  0  0  0  0  0  0  0  0
    6.7037    7.7093    0.8845 H   0  0  0  0  0  0  0  0  0  0  0  0
    6.5668    8.7132    4.3523 H   0  0  0  0  0  0  0  0  0  0  0  0
    5.5993   10.6652   -0.1114 H   0  0  0  0  0  0  0  0  0  0  0  0
    5.1335    9.2355   -1.9848 H   0  0  0  0  0  0  0  0  0  0  0  0
  1  2  2  0  0  0  0
  1 31  1  0  0  0  0
  1 32  1  0  0  0  0
  2  3  1  0  0  0  0
  2 33  1  0  0  0  0
  3  4  1  0  0  0  0
  3 34  1  0  0  0  0
  3 35  1  0  0  0  0
  4  5  2  0  0  0  0
  4  6  2  0  0  0  0
  4  7  1  0  0  0  0
  7  8  1  0  0  0  0
  7 30  2  0  0  0  0
  8  9  2  0  0  0  0
  8 36  1  0  0  0  0
  9 10  1  0  0  0  0
  9 37  1  0  0  0  0
 10 11  1  0  0  0  0
 10 29  2  0  0  0  0
 11 12  1  0  0  0  0
 11 38  1  0  0  0  0
 12 13  1  0  0  0  0
 12 28  2  0  0  0  0
 13 14  2  0  0  0  0
 14 15  1  0  0  0  0
 14 39  1  0  0  0  0
 15 16  1  0  0  0  0
 15 20  2  0  0  0  0
 16 17  1  0  0  0  0
 16 18  1  0  0  0  0
 16 19  1  0  0  0  0
 20 21  1  0  0  0  0
 20 28  1  0  0  0  0
 22 24  1  0  0  0  0
 22 23  1  0  0  0  0
 22 21  1  0  0  0  0
 22 40  1  6  0  0  0
 23 41  1  0  0  0  0
 23 42  1  0  0  0  0
 23 43  1  0  0  0  0
 24 25  1  0  0  0  0
 24 26  1  0  0  0  0
 24 27  1  0  0  0  0
 25 44  1  0  0  0  0
 25 45  1  0  0  0  0
 25 46  1  0  0  0  0
 26 47  1  0  0  0  0
 26 48  1  0  0  0  0
 26 49  1  0  0  0  0
 27 50  1  0  0  0  0
 29 30  1  0  0  0  0
 29 51  1  0  0  0  0
 30 52  1  0  0  0  0
M  END
$$$$
