CHEMBL195828
 OpenBabel04072215363D

 53 56  0  0  0  0  0  0  0  0999 V2000
    1.9138    0.7343   -0.6735 C   0  0  0  0  0  0  0  0  0  0  0  0
    2.8957   -0.2513   -0.0675 C   0  0  0  0  0  0  0  0  0  0  0  0
    3.6449    0.4315    0.9432 O   0  0  0  0  0  0  0  0  0  0  0  0
    4.7474    1.1015    0.5274 C   0  0  0  0  0  0  0  0  0  0  0  0
    5.3047    0.9882   -0.5514 O   0  0  0  0  0  0  0  0  0  0  0  0
    5.1318    2.0963    1.5638 C   0  0  0  0  0  0  0  0  0  0  0  0
    4.3294    2.3036    2.6931 C   0  0  0  0  0  0  0  0  0  0  0  0
    4.6627    3.2938    3.6015 C   0  0  0  0  0  0  0  0  0  0  0  0
    5.8043    4.0611    3.3935 C   0  0  0  0  0  0  0  0  0  0  0  0
    6.6606    3.8346    2.3058 C   0  0  0  0  0  0  0  0  0  0  0  0
    7.9019    4.5173    2.1481 N   0  0  0  0  0  0  0  0  0  0  0  0
    8.5440    5.1601    3.1932 C   0  0  0  0  0  0  0  0  0  0  0  0
    8.0693    5.2479    4.3204 O   0  0  0  0  0  0  0  0  0  0  0  0
    9.7912    5.6677    2.8574 N   0  0  0  0  0  0  0  0  0  0  0  0
   10.6804    6.2145    3.8237 C   0  0  0  0  0  0  0  0  0  0  0  0
   10.5230    5.9722    5.1882 C   0  0  0  0  0  0  0  0  0  0  0  0
   11.2648    6.6606    6.1430 C   0  0  0  0  0  0  0  0  0  0  0  0
   12.3123    7.5018    5.7745 C   0  0  0  0  0  0  0  0  0  0  0  0
   13.0532    8.2490    6.8104 C   0  0  0  0  0  0  0  0  0  0  0  0
   13.3837    7.6654    8.0401 C   0  0  0  0  0  0  0  0  0  0  0  0
   13.1911    6.2818    8.5929 C   0  0  0  0  0  0  0  0  0  0  0  0
   14.1260    8.7832    9.1049 S   0  0  0  0  0  0  0  0  0  0  0  0
   14.0625   10.0279    7.9644 C   0  0  0  0  0  0  0  0  0  0  0  0
   14.5552   11.2321    8.2969 N   0  0  0  0  0  0  0  0  0  0  0  0
   14.4408   12.1179    7.3140 C   0  0  0  0  0  0  0  0  0  0  0  0
   13.8998   11.9185    6.1079 N   0  0  0  0  0  0  0  0  0  0  0  0
   13.3979   10.7037    5.8133 C   0  0  0  0  0  0  0  0  0  0  0  0
   12.8213   10.6216    4.5505 N   0  0  0  0  0  0  0  0  0  0  0  0
   13.4718    9.6579    6.7636 C   0  0  0  0  0  0  0  0  0  0  0  0
   12.5765    7.6262    4.4019 C   0  0  0  0  0  0  0  0  0  0  0  0
   11.7399    7.0315    3.4314 C   0  0  0  0  0  0  0  0  0  0  0  0
    6.2951    2.8674    1.3593 C   0  0  0  0  0  0  0  0  0  0  0  0
    1.2873    0.2511   -1.4266 H   0  0  0  0  0  0  0  0  0  0  0  0
    2.4422    1.5747   -1.1359 H   0  0  0  0  0  0  0  0  0  0  0  0
    1.2712    1.1607    0.1053 H   0  0  0  0  0  0  0  0  0  0  0  0
    3.5468   -0.6979   -0.8248 H   0  0  0  0  0  0  0  0  0  0  0  0
    2.3511   -1.0638    0.4252 H   0  0  0  0  0  0  0  0  0  0  0  0
    3.4379    1.7145    2.8702 H   0  0  0  0  0  0  0  0  0  0  0  0
    4.0433    3.4728    4.4752 H   0  0  0  0  0  0  0  0  0  0  0  0
    5.9914    4.8417    4.1250 H   0  0  0  0  0  0  0  0  0  0  0  0
    8.4567    4.2865    1.3368 H   0  0  0  0  0  0  0  0  0  0  0  0
    9.9519    5.9064    1.8891 H   0  0  0  0  0  0  0  0  0  0  0  0
    9.7949    5.2644    5.5693 H   0  0  0  0  0  0  0  0  0  0  0  0
   10.9830    6.5140    7.1821 H   0  0  0  0  0  0  0  0  0  0  0  0
   12.9181    5.5465    7.8338 H   0  0  0  0  0  0  0  0  0  0  0  0
   12.4066    6.2898    9.3598 H   0  0  0  0  0  0  0  0  0  0  0  0
   14.1132    5.9148    9.0567 H   0  0  0  0  0  0  0  0  0  0  0  0
   14.8214   13.1141    7.5137 H   0  0  0  0  0  0  0  0  0  0  0  0
   12.7480   11.5563    4.1614 H   0  0  0  0  0  0  0  0  0  0  0  0
   11.9581   10.0923    4.5402 H   0  0  0  0  0  0  0  0  0  0  0  0
   13.4140    8.2299    4.0572 H   0  0  0  0  0  0  0  0  0  0  0  0
   11.9245    7.2459    2.3821 H   0  0  0  0  0  0  0  0  0  0  0  0
    6.9091    2.6880    0.4828 H   0  0  0  0  0  0  0  0  0  0  0  0
  1  2  1  0  0  0  0
  1 33  1  0  0  0  0
  1 34  1  0  0  0  0
  1 35  1  0  0  0  0
  2  3  1  0  0  0  0
  2 36  1  0  0  0  0
  2 37  1  0  0  0  0
  3  4  1  0  0  0  0
  4  5  2  0  0  0  0
  4  6  1  0  0  0  0
  6  7  1  0  0  0  0
  6 32  2  0  0  0  0
  7  8  2  0  0  0  0
  7 38  1  0  0  0  0
  8  9  1  0  0  0  0
  8 39  1  0  0  0  0
  9 10  2  0  0  0  0
  9 40  1  0  0  0  0
 10 11  1  0  0  0  0
 10 32  1  0  0  0  0
 11 12  1  0  0  0  0
 11 41  1  0  0  0  0
 12 13  2  0  0  0  0
 12 14  1  0  0  0  0
 14 15  1  0  0  0  0
 14 42  1  0  0  0  0
 15 16  1  0  0  0  0
 15 31  2  0  0  0  0
 16 17  2  0  0  0  0
 16 43  1  0  0  0  0
 17 18  1  0  0  0  0
 17 44  1  0  0  0  0
 18 19  1  0  0  0  0
 18 30  2  0  0  0  0
 19 20  2  0  0  0  0
 19 29  1  0  0  0  0
 20 21  1  0  0  0  0
 20 22  1  0  0  0  0
 21 45  1  0  0  0  0
 21 46  1  0  0  0  0
 21 47  1  0  0  0  0
 22 23  1  0  0  0  0
 23 24  1  0  0  0  0
 23 29  2  0  0  0  0
 24 25  2  0  0  0  0
 25 26  1  0  0  0  0
 25 48  1  0  0  0  0
 26 27  2  0  0  0  0
 27 28  1  0  0  0  0
 27 29  1  0  0  0  0
 28 49  1  0  0  0  0
 28 50  1  0  0  0  0
 30 31  1  0  0  0  0
 30 51  1  0  0  0  0
 31 52  1  0  0  0  0
 32 53  1  0  0  0  0
M  END
$$$$
