CHEMBL3916992
 OpenBabel04072215373D

 68 72  0  0  0  0  0  0  0  0999 V2000
    0.9389   -0.1656   -0.1743 O   0  0  0  0  0  0  0  0  0  0  0  0
    2.1264    0.0482    0.0248 C   0  0  0  0  0  0  0  0  0  0  0  0
    2.7535   -0.1162    1.2502 N   0  0  0  0  0  0  0  0  0  0  0  0
    2.1288   -0.5787    2.4369 C   0  0  0  0  0  0  0  0  0  0  0  0
    0.8546   -1.1636    2.4595 C   0  0  0  0  0  0  0  0  0  0  0  0
    0.2179   -1.5861    3.6368 C   0  0  0  0  0  0  0  0  0  0  0  0
   -1.0364   -2.1694    3.6118 N   0  0  0  0  0  0  0  0  0  0  0  0
   -2.0013   -1.9793    4.6952 C   0  0  0  0  0  0  0  0  0  0  0  0
   -3.2769   -1.3497    4.1360 C   0  0  0  0  0  0  0  0  0  0  0  0
   -3.8255   -2.1198    2.9368 C   0  0  0  0  0  0  0  0  0  0  0  0
   -4.4007   -3.3580    3.3580 O   0  0  0  0  0  0  0  0  0  0  0  0
   -2.7556   -2.3543    1.8717 C   0  0  0  0  0  0  0  0  0  0  0  0
   -1.4943   -2.9693    2.4699 C   0  0  0  0  0  0  0  0  0  0  0  0
    0.9234   -1.3933    4.8282 C   0  0  0  0  0  0  0  0  0  0  0  0
    2.2177   -0.8428    4.8491 C   0  0  0  0  0  0  0  0  0  0  0  0
    2.9632   -0.6999    6.1502 C   0  0  0  0  0  0  0  0  0  0  0  0
    2.2617   -1.1251    7.2377 F   0  0  0  0  0  0  0  0  0  0  0  0
    4.1270   -1.4079    6.1581 F   0  0  0  0  0  0  0  0  0  0  0  0
    3.3114    0.5904    6.4124 F   0  0  0  0  0  0  0  0  0  0  0  0
    2.8163   -0.4431    3.6425 C   0  0  0  0  0  0  0  0  0  0  0  0
    2.9993    0.5132   -0.9523 N   0  0  0  0  0  0  0  0  0  0  0  0
    2.6519    0.8455   -2.2856 C   0  0  0  0  0  0  0  0  0  0  0  0
    1.3489    0.7569   -2.7878 C   0  0  0  0  0  0  0  0  0  0  0  0
    1.0547    1.0808   -4.1147 C   0  0  0  0  0  0  0  0  0  0  0  0
    2.0464    1.5927   -4.9504 C   0  0  0  0  0  0  0  0  0  0  0  0
    1.8091    2.0085   -6.2452 O   0  0  0  0  0  0  0  0  0  0  0  0
    0.5839    2.5789   -6.5459 C   0  0  0  0  0  0  0  0  0  0  0  0
   -0.1173    3.3810   -5.6502 C   0  0  0  0  0  0  0  0  0  0  0  0
   -1.3737    3.8070   -6.0178 C   0  0  0  0  0  0  0  0  0  0  0  0
   -1.9135    3.5516   -7.2200 N   0  0  0  0  0  0  0  0  0  0  0  0
   -1.1985    2.8585   -8.1222 C   0  0  0  0  0  0  0  0  0  0  0  0
   -1.7282    2.6615   -9.4086 N   0  0  0  0  0  0  0  0  0  0  0  0
   -2.9804    3.0953   -9.7957 C   0  0  0  0  0  0  0  0  0  0  0  0
   -3.8396    3.6296   -9.1072 O   0  0  0  0  0  0  0  0  0  0  0  0
   -3.2608    2.8854  -11.2514 C   0  0  0  0  0  0  0  0  0  0  0  0
   -3.4848    4.0994  -12.1272 C   0  0  0  0  0  0  0  0  0  0  0  0
   -4.6337    3.1862  -11.8179 C   0  0  0  0  0  0  0  0  0  0  0  0
    0.0607    2.3474   -7.8186 C   0  0  0  0  0  0  0  0  0  0  0  0
    3.3504    1.6609   -4.4621 C   0  0  0  0  0  0  0  0  0  0  0  0
    4.3412    2.1027   -5.2524 F   0  0  0  0  0  0  0  0  0  0  0  0
    3.6598    1.2892   -3.1480 C   0  0  0  0  0  0  0  0  0  0  0  0
    3.6831    0.2601    1.3481 H   0  0  0  0  0  0  0  0  0  0  0  0
    0.3081   -1.2832    1.5332 H   0  0  0  0  0  0  0  0  0  0  0  0
   -1.6298   -1.3240    5.4897 H   0  0  0  0  0  0  0  0  0  0  0  0
   -2.2193   -2.9488    5.1574 H   0  0  0  0  0  0  0  0  0  0  0  0
   -3.0572   -0.3203    3.8253 H   0  0  0  0  0  0  0  0  0  0  0  0
   -4.0288   -1.3033    4.9322 H   0  0  0  0  0  0  0  0  0  0  0  0
   -4.6457   -1.5449    2.4929 H   0  0  0  0  0  0  0  0  0  0  0  0
   -3.7048   -3.9159    3.7434 H   0  0  0  0  0  0  0  0  0  0  0  0
   -2.5023   -1.3967    1.3997 H   0  0  0  0  0  0  0  0  0  0  0  0
   -3.1410   -3.0193    1.0902 H   0  0  0  0  0  0  0  0  0  0  0  0
   -0.7373   -3.0917    1.6876 H   0  0  0  0  0  0  0  0  0  0  0  0
   -1.7038   -3.9867    2.8209 H   0  0  0  0  0  0  0  0  0  0  0  0
    0.4842   -1.7168    5.7699 H   0  0  0  0  0  0  0  0  0  0  0  0
    3.8153   -0.0129    3.6666 H   0  0  0  0  0  0  0  0  0  0  0  0
    3.9751    0.5731   -0.7087 H   0  0  0  0  0  0  0  0  0  0  0  0
    0.5103    0.4361   -2.1778 H   0  0  0  0  0  0  0  0  0  0  0  0
    0.0309    0.9558   -4.4545 H   0  0  0  0  0  0  0  0  0  0  0  0
    0.2667    3.6396   -4.6715 H   0  0  0  0  0  0  0  0  0  0  0  0
   -2.0043    4.3730   -5.3399 H   0  0  0  0  0  0  0  0  0  0  0  0
   -1.1423    2.2078  -10.0903 H   0  0  0  0  0  0  0  0  0  0  0  0
   -2.7474    2.0433  -11.7039 H   0  0  0  0  0  0  0  0  0  0  0  0
   -3.0829    4.0909  -13.1317 H   0  0  0  0  0  0  0  0  0  0  0  0
   -3.4910    5.0789  -11.6576 H   0  0  0  0  0  0  0  0  0  0  0  0
   -5.0122    2.5553  -12.6134 H   0  0  0  0  0  0  0  0  0  0  0  0
   -5.4007    3.5530  -11.1441 H   0  0  0  0  0  0  0  0  0  0  0  0
    0.6283    1.7722   -8.5425 H   0  0  0  0  0  0  0  0  0  0  0  0
    4.6917    1.3687   -2.8203 H   0  0  0  0  0  0  0  0  0  0  0  0
  1  2  2  0  0  0  0
  2  3  1  0  0  0  0
  2 21  1  0  0  0  0
  3  4  1  0  0  0  0
  3 42  1  0  0  0  0
  4  5  1  0  0  0  0
  4 20  2  0  0  0  0
  5  6  2  0  0  0  0
  5 43  1  0  0  0  0
  6  7  1  0  0  0  0
  6 14  1  0  0  0  0
  7  8  1  0  0  0  0
  7 13  1  0  0  0  0
  8  9  1  0  0  0  0
  8 44  1  0  0  0  0
  8 45  1  0  0  0  0
  9 10  1  0  0  0  0
  9 46  1  0  0  0  0
  9 47  1  0  0  0  0
 10 11  1  0  0  0  0
 10 12  1  0  0  0  0
 10 48  1  0  0  0  0
 11 49  1  0  0  0  0
 12 13  1  0  0  0  0
 12 50  1  0  0  0  0
 12 51  1  0  0  0  0
 13 52  1  0  0  0  0
 13 53  1  0  0  0  0
 14 15  2  0  0  0  0
 14 54  1  0  0  0  0
 15 16  1  0  0  0  0
 15 20  1  0  0  0  0
 16 17  1  0  0  0  0
 16 18  1  0  0  0  0
 16 19  1  0  0  0  0
 20 55  1  0  0  0  0
 21 22  1  0  0  0  0
 21 56  1  0  0  0  0
 22 23  1  0  0  0  0
 22 41  2  0  0  0  0
 23 24  2  0  0  0  0
 23 57  1  0  0  0  0
 24 25  1  0  0  0  0
 24 58  1  0  0  0  0
 25 26  1  0  0  0  0
 25 39  2  0  0  0  0
 26 27  1  0  0  0  0
 27 28  1  0  0  0  0
 27 38  2  0  0  0  0
 28 29  2  0  0  0  0
 28 59  1  0  0  0  0
 29 30  1  0  0  0  0
 29 60  1  0  0  0  0
 30 31  2  0  0  0  0
 31 32  1  0  0  0  0
 31 38  1  0  0  0  0
 32 33  1  0  0  0  0
 32 61  1  0  0  0  0
 33 34  2  0  0  0  0
 33 35  1  0  0  0  0
 35 36  1  0  0  0  0
 35 37  1  0  0  0  0
 35 62  1  0  0  0  0
 36 37  1  0  0  0  0
 36 63  1  0  0  0  0
 36 64  1  0  0  0  0
 37 65  1  0  0  0  0
 37 66  1  0  0  0  0
 38 67  1  0  0  0  0
 39 40  1  0  0  0  0
 39 41  1  0  0  0  0
 41 68  1  0  0  0  0
M  END
$$$$
