CHEMBL202234
 OpenBabel04072215363D

 46 48  0  0  0  0  0  0  0  0999 V2000
    2.8532    1.1863   -0.9430 C   0  0  0  0  0  0  0  0  0  0  0  0
    2.4588   -0.0117   -0.0434 C   0  0  0  0  0  0  0  0  0  0  0  0
    0.9291   -0.1836   -0.1073 C   0  0  0  0  0  0  0  0  0  0  0  0
    3.1207   -1.2576   -0.6727 C   0  0  0  0  0  0  0  0  0  0  0  0
    2.8715    0.2086    1.4236 C   0  0  0  0  0  0  0  0  0  0  0  0
    2.9398    1.5029    1.9608 C   0  0  0  0  0  0  0  0  0  0  0  0
    3.3132    1.7349    3.2887 C   0  0  0  0  0  0  0  0  0  0  0  0
    3.6159    0.6798    4.1418 C   0  0  0  0  0  0  0  0  0  0  0  0
    3.9943    0.8520    5.4919 N   0  0  0  0  0  0  0  0  0  0  0  0
    4.1350    2.0520    6.1789 C   0  0  0  0  0  0  0  0  0  0  0  0
    3.9632    3.1541    5.6685 O   0  0  0  0  0  0  0  0  0  0  0  0
    4.4990    1.9321    7.5878 C   0  0  0  0  0  0  0  0  0  0  0  0
    4.8065    0.4151    8.3374 S   0  0  0  0  0  0  0  0  0  0  0  0
    5.0646    1.2096    9.8279 C   0  0  0  0  0  0  0  0  0  0  0  0
    4.9585    2.5173    9.8099 N   0  0  0  0  0  0  0  0  0  0  0  0
    4.6423    2.9517    8.5275 C   0  0  0  0  0  0  0  0  0  0  0  0
    4.4308    4.4255    8.3041 C   0  0  0  0  0  0  0  0  0  0  0  0
    5.1918    5.3254    9.2829 C   0  0  0  0  0  0  0  0  0  0  0  0
    4.9168    6.7700    9.0427 C   0  0  0  0  0  0  0  0  0  0  0  0
    3.8883    7.5669    9.5944 C   0  0  0  0  0  0  0  0  0  0  0  0
    3.9289    8.8262    9.1540 N   0  0  0  0  0  0  0  0  0  0  0  0
    5.0094    8.8741    8.2885 O   0  0  0  0  0  0  0  0  0  0  0  0
    5.5904    7.6500    8.2280 C   0  0  0  0  0  0  0  0  0  0  0  0
    3.5253   -0.6193    3.6383 C   0  0  0  0  0  0  0  0  0  0  0  0
    3.1524   -0.8526    2.3018 C   0  0  0  0  0  0  0  0  0  0  0  0
    2.6250    0.9864   -1.9957 H   0  0  0  0  0  0  0  0  0  0  0  0
    3.9266    1.3990   -0.8681 H   0  0  0  0  0  0  0  0  0  0  0  0
    2.3092    2.1007   -0.6816 H   0  0  0  0  0  0  0  0  0  0  0  0
    0.5933   -0.3391   -1.1395 H   0  0  0  0  0  0  0  0  0  0  0  0
    0.4090    0.7012    0.2781 H   0  0  0  0  0  0  0  0  0  0  0  0
    0.5957   -1.0451    0.4826 H   0  0  0  0  0  0  0  0  0  0  0  0
    2.8135   -1.3753   -1.7194 H   0  0  0  0  0  0  0  0  0  0  0  0
    2.8418   -2.1849   -0.1629 H   0  0  0  0  0  0  0  0  0  0  0  0
    4.2135   -1.1760   -0.6561 H   0  0  0  0  0  0  0  0  0  0  0  0
    2.6981    2.3775    1.3664 H   0  0  0  0  0  0  0  0  0  0  0  0
    3.3476    2.7696    3.6077 H   0  0  0  0  0  0  0  0  0  0  0  0
    4.1749    0.0092    6.0223 H   0  0  0  0  0  0  0  0  0  0  0  0
    5.2984    0.6624   10.7322 H   0  0  0  0  0  0  0  0  0  0  0  0
    3.3540    4.6277    8.3721 H   0  0  0  0  0  0  0  0  0  0  0  0
    4.7434    4.6988    7.2906 H   0  0  0  0  0  0  0  0  0  0  0  0
    6.2701    5.1395    9.1934 H   0  0  0  0  0  0  0  0  0  0  0  0
    4.9205    5.0815   10.3175 H   0  0  0  0  0  0  0  0  0  0  0  0
    3.1129    7.2849   10.2932 H   0  0  0  0  0  0  0  0  0  0  0  0
    6.4466    7.5753    7.5740 H   0  0  0  0  0  0  0  0  0  0  0  0
    3.7372   -1.4788    4.2690 H   0  0  0  0  0  0  0  0  0  0  0  0
    3.0849   -1.8854    1.9686 H   0  0  0  0  0  0  0  0  0  0  0  0
  1  2  1  0  0  0  0
  1 26  1  0  0  0  0
  1 27  1  0  0  0  0
  1 28  1  0  0  0  0
  2  3  1  0  0  0  0
  2  4  1  0  0  0  0
  2  5  1  0  0  0  0
  3 29  1  0  0  0  0
  3 30  1  0  0  0  0
  3 31  1  0  0  0  0
  4 32  1  0  0  0  0
  4 33  1  0  0  0  0
  4 34  1  0  0  0  0
  5  6  1  0  0  0  0
  5 25  2  0  0  0  0
  6  7  2  0  0  0  0
  6 35  1  0  0  0  0
  7  8  1  0  0  0  0
  7 36  1  0  0  0  0
  8  9  1  0  0  0  0
  8 24  2  0  0  0  0
  9 10  1  0  0  0  0
  9 37  1  0  0  0  0
 10 11  2  0  0  0  0
 10 12  1  0  0  0  0
 12 13  1  0  0  0  0
 12 16  2  0  0  0  0
 13 14  1  0  0  0  0
 14 15  2  0  0  0  0
 14 38  1  0  0  0  0
 15 16  1  0  0  0  0
 16 17  1  0  0  0  0
 17 18  1  0  0  0  0
 17 39  1  0  0  0  0
 17 40  1  0  0  0  0
 18 19  1  0  0  0  0
 18 41  1  0  0  0  0
 18 42  1  0  0  0  0
 19 20  1  0  0  0  0
 19 23  2  0  0  0  0
 20 21  2  0  0  0  0
 20 43  1  0  0  0  0
 21 22  1  0  0  0  0
 22 23  1  0  0  0  0
 23 44  1  0  0  0  0
 24 25  1  0  0  0  0
 24 45  1  0  0  0  0
 25 46  1  0  0  0  0
M  END
$$$$
