CHEMBL4074262
 OpenBabel04072215383D

 57 62  0  0  1  0  0  0  0  0999 V2000
    1.5054   -0.5503    0.1438 C   0  0  0  0  0  0  0  0  0  0  0  0
    2.7436    0.2902   -0.2513 C   0  0  3  0  0  0  0  0  0  0  0  0
    2.5299    1.6913    0.2938 C   0  0  0  0  0  0  0  0  0  0  0  0
    2.4274    1.9541    1.6745 C   0  0  0  0  0  0  0  0  0  0  0  0
    1.9620    3.2011    2.1341 C   0  0  0  0  0  0  0  0  0  0  0  0
    1.8667    3.4777    3.5020 C   0  0  0  0  0  0  0  0  0  0  0  0
    1.4147    4.7258    3.9313 C   0  0  0  0  0  0  0  0  0  0  0  0
    1.4971    5.1109    5.3234 C   0  0  0  0  0  0  0  0  0  0  0  0
    0.7347    5.9966    6.1175 C   0  0  0  0  0  0  0  0  0  0  0  0
    1.2278    6.1314    7.3534 N   0  0  0  0  0  0  0  0  0  0  0  0
    2.3175    5.3443    7.3467 N   0  0  0  0  0  0  0  0  0  0  0  0
    3.1574    5.2317    8.5140 C   0  0  0  0  0  0  0  0  0  0  0  0
    2.5265    4.7190    6.1544 C   0  0  0  0  0  0  0  0  0  0  0  0
    0.9793    5.6120    2.9580 C   0  0  0  0  0  0  0  0  0  0  0  0
    1.0602    5.3780    1.6243 N   0  0  0  0  0  0  0  0  0  0  0  0
    1.5804    4.2043    1.2258 C   0  0  0  0  0  0  0  0  0  0  0  0
    1.7462    3.9582   -0.1258 C   0  0  0  0  0  0  0  0  0  0  0  0
    2.2311    2.7343   -0.5823 C   0  0  0  0  0  0  0  0  0  0  0  0
    2.3459    2.5402   -1.9043 F   0  0  0  0  0  0  0  0  0  0  0  0
    3.9947   -0.3202    0.1936 N   0  0  0  0  0  0  0  0  0  0  0  0
    4.0510   -0.8500    1.4445 N   0  0  0  0  0  0  0  0  0  0  0  0
    5.1278   -1.6183    1.5172 N   0  0  0  0  0  0  0  0  0  0  0  0
    5.7743   -1.5364    0.3249 C   0  0  0  0  0  0  0  0  0  0  0  0
    6.9013   -2.1984   -0.0230 N   0  0  0  0  0  0  0  0  0  0  0  0
    7.3400   -1.8532   -1.2544 C   0  0  0  0  0  0  0  0  0  0  0  0
    6.7283   -0.9159   -2.0996 C   0  0  0  0  0  0  0  0  0  0  0  0
    7.4287   -0.5430   -3.3292 C   0  0  0  0  0  0  0  0  0  0  0  0
    8.5398   -1.1606   -3.9642 C   0  0  0  0  0  0  0  0  0  0  0  0
    8.9672   -0.4966   -5.0386 N   0  0  0  0  0  0  0  0  0  0  0  0
    8.1339    0.5603   -5.1121 N   0  0  0  0  0  0  0  0  0  0  0  0
    8.2242    1.4894   -6.2286 C   0  0  0  0  0  0  0  0  0  0  0  0
    9.2834    1.1358   -7.2770 C   0  0  0  0  0  0  0  0  0  0  0  0
    9.0334   -0.1393   -7.8665 O   0  0  0  0  0  0  0  0  0  0  0  0
    7.2087    0.5839   -4.0982 C   0  0  0  0  0  0  0  0  0  0  0  0
    5.5419   -0.2942   -1.7846 N   0  0  0  0  0  0  0  0  0  0  0  0
    5.1184   -0.6555   -0.5369 C   0  0  0  0  0  0  0  0  0  0  0  0
    0.6059   -0.1685   -0.3545 H   0  0  0  0  0  0  0  0  0  0  0  0
    1.3004   -0.5097    1.2230 H   0  0  0  0  0  0  0  0  0  0  0  0
    1.6242   -1.6056   -0.1191 H   0  0  0  0  0  0  0  0  0  0  0  0
    2.7929    0.3065   -1.3461 H   0  0  0  0  0  0  0  0  0  0  0  0
    2.6473    1.1717    2.3964 H   0  0  0  0  0  0  0  0  0  0  0  0
    2.1704    2.7284    4.2284 H   0  0  0  0  0  0  0  0  0  0  0  0
   -0.1544    6.5545    5.8511 H   0  0  0  0  0  0  0  0  0  0  0  0
    2.7808    5.8850    9.3035 H   0  0  0  0  0  0  0  0  0  0  0  0
    4.1733    5.5251    8.2360 H   0  0  0  0  0  0  0  0  0  0  0  0
    3.1400    4.1900    8.8441 H   0  0  0  0  0  0  0  0  0  0  0  0
    3.3875    4.0846    5.9946 H   0  0  0  0  0  0  0  0  0  0  0  0
    0.5766    6.5883    3.2123 H   0  0  0  0  0  0  0  0  0  0  0  0
    1.4958    4.7296   -0.8472 H   0  0  0  0  0  0  0  0  0  0  0  0
    8.2590   -2.3592   -1.5347 H   0  0  0  0  0  0  0  0  0  0  0  0
    9.0705   -2.0623   -3.6893 H   0  0  0  0  0  0  0  0  0  0  0  0
    8.4342    2.4774   -5.8054 H   0  0  0  0  0  0  0  0  0  0  0  0
    7.2337    1.4985   -6.6903 H   0  0  0  0  0  0  0  0  0  0  0  0
   10.2941    1.1293   -6.8551 H   0  0  0  0  0  0  0  0  0  0  0  0
    9.2649    1.8755   -8.0843 H   0  0  0  0  0  0  0  0  0  0  0  0
    9.1276   -0.7801   -7.1273 H   0  0  0  0  0  0  0  0  0  0  0  0
    6.4905    1.3877   -4.0102 H   0  0  0  0  0  0  0  0  0  0  0  0
  1  2  1  0  0  0  0
  1 37  1  0  0  0  0
  1 38  1  0  0  0  0
  1 39  1  0  0  0  0
  2  3  1  0  0  0  0
  2 20  1  0  0  0  0
  2 40  1  0  0  0  0
  3  4  1  0  0  0  0
  3 18  2  0  0  0  0
  4  5  2  0  0  0  0
  4 41  1  0  0  0  0
  5  6  1  0  0  0  0
  5 16  1  0  0  0  0
  6  7  2  0  0  0  0
  6 42  1  0  0  0  0
  7  8  1  0  0  0  0
  7 14  1  0  0  0  0
  8  9  1  0  0  0  0
  8 13  2  0  0  0  0
  9 10  2  0  0  0  0
  9 43  1  0  0  0  0
 10 11  1  0  0  0  0
 11 12  1  0  0  0  0
 11 13  1  0  0  0  0
 12 44  1  0  0  0  0
 12 45  1  0  0  0  0
 12 46  1  0  0  0  0
 13 47  1  0  0  0  0
 14 15  2  0  0  0  0
 14 48  1  0  0  0  0
 15 16  1  0  0  0  0
 16 17  2  0  0  0  0
 17 18  1  0  0  0  0
 17 49  1  0  0  0  0
 18 19  1  0  0  0  0
 20 21  1  0  0  0  0
 20 36  1  0  0  0  0
 21 22  2  0  0  0  0
 22 23  1  0  0  0  0
 23 24  1  0  0  0  0
 23 36  2  0  0  0  0
 24 25  2  0  0  0  0
 25 26  1  0  0  0  0
 25 50  1  0  0  0  0
 26 27  1  0  0  0  0
 26 35  2  0  0  0  0
 27 28  1  0  0  0  0
 27 34  2  0  0  0  0
 28 29  2  0  0  0  0
 28 51  1  0  0  0  0
 29 30  1  0  0  0  0
 30 31  1  0  0  0  0
 30 34  1  0  0  0  0
 31 32  1  0  0  0  0
 31 52  1  0  0  0  0
 31 53  1  0  0  0  0
 32 33  1  0  0  0  0
 32 54  1  0  0  0  0
 32 55  1  0  0  0  0
 33 56  1  0  0  0  0
 34 57  1  0  0  0  0
 35 36  1  0  0  0  0
M  END
$$$$
