CHEMBL1987535
 OpenBabel04072215363D

 45 48  0  0  0  0  0  0  0  0999 V2000
    1.3461   -0.7930   -0.0441 O   0  0  0  0  0  0  0  0  0  0  0  0
    2.2938   -0.0302    0.0693 C   0  0  0  0  0  0  0  0  0  0  0  0
    2.6186    0.9006   -0.8883 N   0  0  0  0  0  0  0  0  0  0  0  0
    1.8899    0.9642   -2.1357 C   0  0  0  0  0  0  0  0  0  0  0  0
    0.6742    1.8870   -2.0614 C   0  0  0  0  0  0  0  0  0  0  0  0
   -0.0610    1.9229   -3.3704 C   0  0  0  0  0  0  0  0  0  0  0  0
   -1.0946    1.1079   -3.7942 C   0  0  0  0  0  0  0  0  0  0  0  0
   -1.5456    1.4461   -5.1034 C   0  0  0  0  0  0  0  0  0  0  0  0
   -0.8438    2.5044   -5.6346 C   0  0  0  0  0  0  0  0  0  0  0  0
    0.3513    3.0860   -4.5604 S   0  0  0  0  0  0  0  0  0  0  0  0
    3.1098    0.0109    1.1925 N   0  0  0  0  0  0  0  0  0  0  0  0
    4.1683    0.9891    1.4003 C   0  0  0  0  0  0  0  0  0  0  0  0
    5.2160    0.4692    2.3252 C   0  0  0  0  0  0  0  0  0  0  0  0
    5.1219   -0.6722    3.0297 C   0  0  0  0  0  0  0  0  0  0  0  0
    6.1606   -1.1589    3.8819 C   0  0  0  0  0  0  0  0  0  0  0  0
    7.0530   -0.3398    4.5533 C   0  0  0  0  0  0  0  0  0  0  0  0
    7.9326   -1.1437    5.2342 N   0  0  0  0  0  0  0  0  0  0  0  0
    7.6370   -2.4521    5.0060 C   0  0  0  0  0  0  0  0  0  0  0  0
    8.3366   -3.4829    5.5165 N   0  0  0  0  0  0  0  0  0  0  0  0
    7.8563   -4.6877    5.1279 C   0  0  0  0  0  0  0  0  0  0  0  0
    6.7600   -4.8957    4.3019 C   0  0  0  0  0  0  0  0  0  0  0  0
    6.0716   -3.7920    3.8073 C   0  0  0  0  0  0  0  0  0  0  0  0
    6.5233   -2.5100    4.1698 C   0  0  0  0  0  0  0  0  0  0  0  0
    3.8580   -1.5038    2.9695 C   0  0  0  0  0  0  0  0  0  0  0  0
    2.6896   -0.7114    2.3873 C   0  0  0  0  0  0  0  0  0  0  0  0
    3.5991    1.0813   -0.9853 H   0  0  0  0  0  0  0  0  0  0  0  0
    1.6048   -0.0536   -2.4167 H   0  0  0  0  0  0  0  0  0  0  0  0
    2.5984    1.3285   -2.8899 H   0  0  0  0  0  0  0  0  0  0  0  0
    0.9945    2.9009   -1.7843 H   0  0  0  0  0  0  0  0  0  0  0  0
   -0.0006    1.5586   -1.2626 H   0  0  0  0  0  0  0  0  0  0  0  0
   -1.5106    0.3101   -3.1914 H   0  0  0  0  0  0  0  0  0  0  0  0
   -2.3461    0.9397   -5.6281 H   0  0  0  0  0  0  0  0  0  0  0  0
   -0.9742    2.9668   -6.6036 H   0  0  0  0  0  0  0  0  0  0  0  0
    3.7092    1.8951    1.8058 H   0  0  0  0  0  0  0  0  0  0  0  0
    4.6672    1.2508    0.4643 H   0  0  0  0  0  0  0  0  0  0  0  0
    6.1230    1.0659    2.3740 H   0  0  0  0  0  0  0  0  0  0  0  0
    7.1462    0.7370    4.5988 H   0  0  0  0  0  0  0  0  0  0  0  0
    8.7047   -0.8337    5.8037 H   0  0  0  0  0  0  0  0  0  0  0  0
    8.4095   -5.5392    5.5157 H   0  0  0  0  0  0  0  0  0  0  0  0
    6.4480   -5.8996    4.0381 H   0  0  0  0  0  0  0  0  0  0  0  0
    5.2212   -3.9339    3.1514 H   0  0  0  0  0  0  0  0  0  0  0  0
    3.5754   -1.8731    3.9621 H   0  0  0  0  0  0  0  0  0  0  0  0
    4.0315   -2.3683    2.3181 H   0  0  0  0  0  0  0  0  0  0  0  0
    2.3379    0.0403    3.1056 H   0  0  0  0  0  0  0  0  0  0  0  0
    1.8478   -1.3806    2.1861 H   0  0  0  0  0  0  0  0  0  0  0  0
  1  2  2  0  0  0  0
  2  3  1  0  0  0  0
  2 11  1  0  0  0  0
  3  4  1  0  0  0  0
  3 26  1  0  0  0  0
  4  5  1  0  0  0  0
  4 27  1  0  0  0  0
  4 28  1  0  0  0  0
  5  6  1  0  0  0  0
  5 29  1  0  0  0  0
  5 30  1  0  0  0  0
  6  7  2  0  0  0  0
  6 10  1  0  0  0  0
  7  8  1  0  0  0  0
  7 31  1  0  0  0  0
  8  9  2  0  0  0  0
  8 32  1  0  0  0  0
  9 10  1  0  0  0  0
  9 33  1  0  0  0  0
 11 12  1  0  0  0  0
 11 25  1  0  0  0  0
 12 13  1  0  0  0  0
 12 34  1  0  0  0  0
 12 35  1  0  0  0  0
 13 14  2  0  0  0  0
 13 36  1  0  0  0  0
 14 15  1  0  0  0  0
 14 24  1  0  0  0  0
 15 16  2  0  0  0  0
 15 23  1  0  0  0  0
 16 17  1  0  0  0  0
 16 37  1  0  0  0  0
 17 18  1  0  0  0  0
 17 38  1  0  0  0  0
 18 19  1  0  0  0  0
 18 23  2  0  0  0  0
 19 20  2  0  0  0  0
 20 21  1  0  0  0  0
 20 39  1  0  0  0  0
 21 22  2  0  0  0  0
 21 40  1  0  0  0  0
 22 23  1  0  0  0  0
 22 41  1  0  0  0  0
 24 25  1  0  0  0  0
 24 42  1  0  0  0  0
 24 43  1  0  0  0  0
 25 44  1  0  0  0  0
 25 45  1  0  0  0  0
M  END
$$$$
