CHEMBL2113165
 OpenBabel04072215363D

 71 75  0  0  1  0  0  0  0  0999 V2000
   13.7505   -2.2536  -12.2441 C   0  0  0  0  0  0  0  0  0  0  0  0
   13.6651   -2.0328  -10.8503 O   0  0  0  0  0  0  0  0  0  0  0  0
   12.3220   -2.0240  -10.3556 C   0  0  0  0  0  0  0  0  0  0  0  0
   12.4529   -1.7318   -8.8678 C   0  0  0  0  0  0  0  0  0  0  0  0
   11.2250   -1.7069   -8.1736 O   0  0  0  0  0  0  0  0  0  0  0  0
   11.2478   -1.9784   -6.8271 C   0  0  0  0  0  0  0  0  0  0  0  0
    9.9853   -2.4679   -6.4137 C   0  0  0  0  0  0  0  0  0  0  0  0
    9.6964   -2.8744   -5.1122 C   0  0  0  0  0  0  0  0  0  0  0  0
    8.4848   -3.3660   -4.8293 N   0  0  0  0  0  0  0  0  0  0  0  0
    8.2593   -3.7284   -3.5635 C   0  0  0  0  0  0  0  0  0  0  0  0
    9.1184   -3.5950   -2.5539 N   0  0  0  0  0  0  0  0  0  0  0  0
   10.3318   -3.0919   -2.8355 C   0  0  0  0  0  0  0  0  0  0  0  0
   11.2675   -2.9154   -1.7753 N   0  0  0  0  0  0  0  0  0  0  0  0
   10.9044   -3.0473   -0.4353 C   0  0  0  0  0  0  0  0  0  0  0  0
   10.1630   -4.0211    0.1032 C   0  0  0  0  0  0  0  0  0  0  0  0
    9.6688   -4.0072    1.4892 C   0  0  0  0  0  0  0  0  0  0  0  0
    8.8974   -4.9007    1.8259 O   0  0  0  0  0  0  0  0  0  0  0  0
   10.0796   -2.8612    2.3902 C   0  0  0  0  0  0  0  0  0  0  0  0
    9.5825   -2.7920    3.7084 N   0  0  0  0  0  0  0  0  0  0  0  0
    9.1998   -3.9824    4.4938 C   0  0  0  0  0  0  0  0  0  0  0  0
    7.7026   -3.9551    4.7922 C   0  0  0  0  0  0  0  0  0  0  0  0
    7.3027   -2.6790    5.5544 C   0  0  3  0  0  0  0  0  0  0  0  0
    7.8762   -2.5949    6.9909 C   0  0  0  0  0  0  0  0  0  0  0  0
    7.4803   -3.7031    7.9305 C   0  0  0  0  0  0  0  0  0  0  0  0
    8.4522   -4.5513    8.4798 C   0  0  0  0  0  0  0  0  0  0  0  0
    8.1048   -5.5383    9.4028 C   0  0  0  0  0  0  0  0  0  0  0  0
    6.7778   -5.6931    9.7918 C   0  0  0  0  0  0  0  0  0  0  0  0
    5.7983   -4.8571    9.2463 C   0  0  0  0  0  0  0  0  0  0  0  0
    6.1446   -3.8646    8.3342 C   0  0  0  0  0  0  0  0  0  0  0  0
    7.7664   -1.4628    4.7283 C   0  0  0  0  0  0  0  0  0  0  0  0
    9.2590   -1.5181    4.3730 C   0  0  0  0  0  0  0  0  0  0  0  0
   10.9022   -1.9403    1.8602 C   0  0  0  0  0  0  0  0  0  0  0  0
   11.3837   -1.9598    0.4682 C   0  0  0  0  0  0  0  0  0  0  0  0
   12.1316   -1.0826    0.0439 O   0  0  0  0  0  0  0  0  0  0  0  0
   10.6973   -2.7505   -4.1533 C   0  0  0  0  0  0  0  0  0  0  0  0
   11.9710   -2.2910   -4.5554 C   0  0  0  0  0  0  0  0  0  0  0  0
   12.2661   -1.8898   -5.8732 C   0  0  0  0  0  0  0  0  0  0  0  0
   13.5894   -1.5766   -5.9537 O   0  0  0  0  0  0  0  0  0  0  0  0
   14.0963   -0.5346   -6.7617 C   0  0  0  0  0  0  0  0  0  0  0  0
   14.8104   -2.2530  -12.5153 H   0  0  0  0  0  0  0  0  0  0  0  0
   13.2508   -1.4494  -12.7901 H   0  0  0  0  0  0  0  0  0  0  0  0
   13.3230   -3.2248  -12.5046 H   0  0  0  0  0  0  0  0  0  0  0  0
   11.8325   -2.9870  -10.5310 H   0  0  0  0  0  0  0  0  0  0  0  0
   11.7382   -1.2380  -10.8511 H   0  0  0  0  0  0  0  0  0  0  0  0
   12.8789   -0.7294   -8.8296 H   0  0  0  0  0  0  0  0  0  0  0  0
   13.1399   -2.4685   -8.4378 H   0  0  0  0  0  0  0  0  0  0  0  0
    9.1928   -2.5666   -7.1560 H   0  0  0  0  0  0  0  0  0  0  0  0
    7.2931   -4.1634   -3.3334 H   0  0  0  0  0  0  0  0  0  0  0  0
   11.7597   -2.0248   -1.8947 H   0  0  0  0  0  0  0  0  0  0  0  0
    9.8054   -4.8503   -0.4952 H   0  0  0  0  0  0  0  0  0  0  0  0
    9.7730   -3.9820    5.4282 H   0  0  0  0  0  0  0  0  0  0  0  0
    9.4779   -4.9213    4.0089 H   0  0  0  0  0  0  0  0  0  0  0  0
    7.4101   -4.8516    5.3487 H   0  0  0  0  0  0  0  0  0  0  0  0
    7.1456   -3.9844    3.8453 H   0  0  0  0  0  0  0  0  0  0  0  0
    6.2066   -2.6501    5.6163 H   0  0  0  0  0  0  0  0  0  0  0  0
    7.5478   -1.6522    7.4470 H   0  0  0  0  0  0  0  0  0  0  0  0
    8.9664   -2.5342    6.9648 H   0  0  0  0  0  0  0  0  0  0  0  0
    9.4988   -4.4367    8.2038 H   0  0  0  0  0  0  0  0  0  0  0  0
    8.8710   -6.1813    9.8293 H   0  0  0  0  0  0  0  0  0  0  0  0
    6.5047   -6.4552   10.5153 H   0  0  0  0  0  0  0  0  0  0  0  0
    4.7609   -4.9796    9.5475 H   0  0  0  0  0  0  0  0  0  0  0  0
    5.3678   -3.2228    7.9270 H   0  0  0  0  0  0  0  0  0  0  0  0
    7.5500   -0.5331    5.2677 H   0  0  0  0  0  0  0  0  0  0  0  0
    7.1838   -1.4275    3.7982 H   0  0  0  0  0  0  0  0  0  0  0  0
    9.8803   -1.4090    5.2687 H   0  0  0  0  0  0  0  0  0  0  0  0
    9.4819   -0.6558    3.7353 H   0  0  0  0  0  0  0  0  0  0  0  0
   11.2700   -1.1072    2.4432 H   0  0  0  0  0  0  0  0  0  0  0  0
   12.7794   -2.2491   -3.8239 H   0  0  0  0  0  0  0  0  0  0  0  0
   14.8678    0.0015   -6.2003 H   0  0  0  0  0  0  0  0  0  0  0  0
   13.3444    0.1962   -7.0688 H   0  0  0  0  0  0  0  0  0  0  0  0
   14.6171   -0.9868   -7.6122 H   0  0  0  0  0  0  0  0  0  0  0  0
  1  2  1  0  0  0  0
  1 40  1  0  0  0  0
  1 41  1  0  0  0  0
  1 42  1  0  0  0  0
  2  3  1  0  0  0  0
  3  4  1  0  0  0  0
  3 43  1  0  0  0  0
  3 44  1  0  0  0  0
  4  5  1  0  0  0  0
  4 45  1  0  0  0  0
  4 46  1  0  0  0  0
  5  6  1  0  0  0  0
  6  7  1  0  0  0  0
  6 37  2  0  0  0  0
  7  8  2  0  0  0  0
  7 47  1  0  0  0  0
  8  9  1  0  0  0  0
  8 35  1  0  0  0  0
  9 10  2  0  0  0  0
 10 11  1  0  0  0  0
 10 48  1  0  0  0  0
 11 12  2  0  0  0  0
 12 13  1  0  0  0  0
 12 35  1  0  0  0  0
 13 14  1  0  0  0  0
 13 49  1  0  0  0  0
 14 15  2  0  0  0  0
 14 33  1  0  0  0  0
 15 16  1  0  0  0  0
 15 50  1  0  0  0  0
 16 17  2  0  0  0  0
 16 18  1  0  0  0  0
 18 19  1  0  0  0  0
 18 32  2  0  0  0  0
 19 20  1  0  0  0  0
 19 31  1  0  0  0  0
 20 21  1  0  0  0  0
 20 51  1  0  0  0  0
 20 52  1  0  0  0  0
 21 22  1  0  0  0  0
 21 53  1  0  0  0  0
 21 54  1  0  0  0  0
 22 23  1  0  0  0  0
 22 30  1  0  0  0  0
 22 55  1  0  0  0  0
 23 24  1  0  0  0  0
 23 56  1  0  0  0  0
 23 57  1  0  0  0  0
 24 25  1  0  0  0  0
 24 29  2  0  0  0  0
 25 26  2  0  0  0  0
 25 58  1  0  0  0  0
 26 27  1  0  0  0  0
 26 59  1  0  0  0  0
 27 28  2  0  0  0  0
 27 60  1  0  0  0  0
 28 29  1  0  0  0  0
 28 61  1  0  0  0  0
 29 62  1  0  0  0  0
 30 31  1  0  0  0  0
 30 63  1  0  0  0  0
 30 64  1  0  0  0  0
 31 65  1  0  0  0  0
 31 66  1  0  0  0  0
 32 33  1  0  0  0  0
 32 67  1  0  0  0  0
 33 34  2  0  0  0  0
 35 36  2  0  0  0  0
 36 37  1  0  0  0  0
 36 68  1  0  0  0  0
 37 38  1  0  0  0  0
 38 39  1  0  0  0  0
 39 69  1  0  0  0  0
 39 70  1  0  0  0  0
 39 71  1  0  0  0  0
M  END
$$$$
