CHEMBL1097368
 OpenBabel04072215363D

 46 50  0  0  0  0  0  0  0  0999 V2000
    1.2595   -0.5364    1.1968 C   0  0  0  0  0  0  0  0  0  0  0  0
    0.8744    0.1174    0.0261 C   0  0  0  0  0  0  0  0  0  0  0  0
   -0.4798    0.3851   -0.2092 C   0  0  0  0  0  0  0  0  0  0  0  0
   -1.4562   -0.0083    0.7139 C   0  0  0  0  0  0  0  0  0  0  0  0
   -2.9125    0.3045    0.4735 C   0  0  0  0  0  0  0  0  0  0  0  0
   -3.6365   -0.7976   -0.3048 C   0  0  0  0  0  0  0  0  0  0  0  0
   -5.0916   -0.5043   -0.5049 C   0  0  0  0  0  0  0  0  0  0  0  0
   -5.7924    0.6841   -0.6428 C   0  0  0  0  0  0  0  0  0  0  0  0
   -7.1736    0.3736   -0.8245 C   0  0  0  0  0  0  0  0  0  0  0  0
   -8.3716    1.0904   -0.9977 C   0  0  0  0  0  0  0  0  0  0  0  0
   -8.4048    2.4870   -1.0576 N   0  0  0  0  0  0  0  0  0  0  0  0
   -9.4052    3.3429   -0.5546 C   0  0  0  0  0  0  0  0  0  0  0  0
   -9.4699    4.6571   -1.0358 C   0  0  0  0  0  0  0  0  0  0  0  0
  -10.3744    5.5915   -0.5152 C   0  0  0  0  0  0  0  0  0  0  0  0
  -11.2749    5.1299    0.4469 C   0  0  0  0  0  0  0  0  0  0  0  0
  -12.1964    5.7917    1.2225 N   0  0  0  0  0  0  0  0  0  0  0  0
  -13.1322    4.8964    1.6683 C   0  0  0  0  0  0  0  0  0  0  0  0
  -12.5506    3.6512    1.5864 C   0  0  0  0  0  0  0  0  0  0  0  0
  -11.3565    3.7931    0.8257 C   0  0  0  0  0  0  0  0  0  0  0  0
  -10.3664    2.9063    0.3716 C   0  0  0  0  0  0  0  0  0  0  0  0
   -9.5188    0.3683   -1.1264 N   0  0  0  0  0  0  0  0  0  0  0  0
   -9.4611   -0.9747   -1.0809 C   0  0  0  0  0  0  0  0  0  0  0  0
   -8.3737   -1.7575   -0.9069 N   0  0  0  0  0  0  0  0  0  0  0  0
   -7.2673   -1.0091   -0.7899 C   0  0  0  0  0  0  0  0  0  0  0  0
   -6.0097   -1.5204   -0.6143 N   0  0  0  0  0  0  0  0  0  0  0  0
   -1.0604   -0.6946    1.8700 C   0  0  0  0  0  0  0  0  0  0  0  0
    0.2898   -0.9580    2.1059 C   0  0  0  0  0  0  0  0  0  0  0  0
    2.3103   -0.7432    1.3760 H   0  0  0  0  0  0  0  0  0  0  0  0
    1.6204    0.4456   -0.6866 H   0  0  0  0  0  0  0  0  0  0  0  0
   -0.7601    0.9145   -1.1205 H   0  0  0  0  0  0  0  0  0  0  0  0
   -2.9825    1.2596   -0.0621 H   0  0  0  0  0  0  0  0  0  0  0  0
   -3.4066    0.4723    1.4392 H   0  0  0  0  0  0  0  0  0  0  0  0
   -3.5318   -1.7516    0.2284 H   0  0  0  0  0  0  0  0  0  0  0  0
   -3.1717   -0.9354   -1.2887 H   0  0  0  0  0  0  0  0  0  0  0  0
   -5.3600    1.6758   -0.6071 H   0  0  0  0  0  0  0  0  0  0  0  0
   -7.4909    2.9163   -1.0735 H   0  0  0  0  0  0  0  0  0  0  0  0
   -8.8088    4.9672   -1.8424 H   0  0  0  0  0  0  0  0  0  0  0  0
  -10.4030    6.6114   -0.8833 H   0  0  0  0  0  0  0  0  0  0  0  0
  -12.1870    6.7832    1.4175 H   0  0  0  0  0  0  0  0  0  0  0  0
  -14.0832    5.2275    2.0619 H   0  0  0  0  0  0  0  0  0  0  0  0
  -12.9739    2.7261    1.9545 H   0  0  0  0  0  0  0  0  0  0  0  0
  -10.3643    1.8875    0.7436 H   0  0  0  0  0  0  0  0  0  0  0  0
  -10.4099   -1.4844   -1.1945 H   0  0  0  0  0  0  0  0  0  0  0  0
   -5.8245   -2.5145   -0.5592 H   0  0  0  0  0  0  0  0  0  0  0  0
   -1.8036   -1.0139    2.6029 H   0  0  0  0  0  0  0  0  0  0  0  0
    0.5958   -1.4856    3.0074 H   0  0  0  0  0  0  0  0  0  0  0  0
  1  2  1  0  0  0  0
  1 27  2  0  0  0  0
  1 28  1  0  0  0  0
  2  3  2  0  0  0  0
  2 29  1  0  0  0  0
  3  4  1  0  0  0  0
  3 30  1  0  0  0  0
  4  5  1  0  0  0  0
  4 26  2  0  0  0  0
  5  6  1  0  0  0  0
  5 31  1  0  0  0  0
  5 32  1  0  0  0  0
  6  7  1  0  0  0  0
  6 33  1  0  0  0  0
  6 34  1  0  0  0  0
  7  8  2  0  0  0  0
  7 25  1  0  0  0  0
  8  9  1  0  0  0  0
  8 35  1  0  0  0  0
  9 10  1  0  0  0  0
  9 24  2  0  0  0  0
 10 11  1  0  0  0  0
 10 21  2  0  0  0  0
 11 12  1  0  0  0  0
 11 36  1  0  0  0  0
 12 13  1  0  0  0  0
 12 20  2  0  0  0  0
 13 14  2  0  0  0  0
 13 37  1  0  0  0  0
 14 15  1  0  0  0  0
 14 38  1  0  0  0  0
 15 16  1  0  0  0  0
 15 19  2  0  0  0  0
 16 17  1  0  0  0  0
 16 39  1  0  0  0  0
 17 18  2  0  0  0  0
 17 40  1  0  0  0  0
 18 19  1  0  0  0  0
 18 41  1  0  0  0  0
 19 20  1  0  0  0  0
 20 42  1  0  0  0  0
 21 22  1  0  0  0  0
 22 23  2  0  0  0  0
 22 43  1  0  0  0  0
 23 24  1  0  0  0  0
 24 25  1  0  0  0  0
 25 44  1  0  0  0  0
 26 27  1  0  0  0  0
 26 45  1  0  0  0  0
 27 46  1  0  0  0  0
M  END
$$$$
