CHEMBL1203982
 OpenBabel04072215363D

 67 70  0  0  0  0  0  0  0  0999 V2000
    1.2842    0.6474   -0.5926 C   0  0  0  0  0  0  0  0  0  0  0  0
    2.6934    0.4892   -0.2968 N   0  0  0  0  0  0  0  0  0  0  0  0
    3.2746   -0.7373   -0.1621 C   0  0  0  0  0  0  0  0  0  0  0  0
    2.5999   -1.7442   -0.3306 O   0  0  0  0  0  0  0  0  0  0  0  0
    4.7354   -0.8857    0.1095 C   0  0  0  0  0  0  0  0  0  0  0  0
    5.5126    0.1674    0.6613 C   0  0  0  0  0  0  0  0  0  0  0  0
    6.8991    0.0231    0.8636 C   0  0  0  0  0  0  0  0  0  0  0  0
    7.5091   -1.1728    0.4823 C   0  0  0  0  0  0  0  0  0  0  0  0
    6.7561   -2.2050   -0.0512 C   0  0  0  0  0  0  0  0  0  0  0  0
    5.3778   -2.1034   -0.2229 C   0  0  0  0  0  0  0  0  0  0  0  0
    7.5619   -3.2989   -0.4173 N   0  0  0  0  0  0  0  0  0  0  0  0
    8.8432   -2.9617   -0.1648 C   0  0  0  0  0  0  0  0  0  0  0  0
    9.7818   -3.7138   -0.3708 O   0  0  0  0  0  0  0  0  0  0  0  0
    8.9210   -1.6136    0.4471 C   0  0  0  0  0  0  0  0  0  0  0  0
   10.0504   -0.9863    0.8663 C   0  0  0  0  0  0  0  0  0  0  0  0
   11.3302   -1.5606    0.6029 N   0  0  0  0  0  0  0  0  0  0  0  0
   11.9593   -1.4053   -0.6769 C   0  0  0  0  0  0  0  0  0  0  0  0
   11.3519   -0.6719   -1.7212 C   0  0  0  0  0  0  0  0  0  0  0  0
   11.9596   -0.5657   -2.9768 C   0  0  0  0  0  0  0  0  0  0  0  0
   13.1838   -1.1977   -3.2219 C   0  0  0  0  0  0  0  0  0  0  0  0
   13.7687   -1.2166   -4.6180 C   0  0  0  0  0  0  0  0  0  0  0  0
   14.0473    0.1150   -5.2072 N   0  0  0  0  0  0  0  0  0  0  0  0
   15.1709    0.7670   -4.4913 C   0  0  0  0  0  0  0  0  0  0  0  0
   15.5975    2.0755   -5.1758 C   0  0  0  0  0  0  0  0  0  0  0  0
   16.0043    1.7935   -6.6209 C   0  0  0  0  0  0  0  0  0  0  0  0
   14.8087    1.1910   -7.3511 C   0  0  0  0  0  0  0  0  0  0  0  0
   14.3744   -0.0981   -6.6444 C   0  0  0  0  0  0  0  0  0  0  0  0
   13.8169   -1.8935   -2.1751 C   0  0  0  0  0  0  0  0  0  0  0  0
   13.2118   -1.9923   -0.9147 C   0  0  0  0  0  0  0  0  0  0  0  0
   10.0332    0.2756    1.6209 C   0  0  0  0  0  0  0  0  0  0  0  0
   10.0627    0.2229    3.0198 C   0  0  0  0  0  0  0  0  0  0  0  0
   10.0882    1.4028    3.7642 C   0  0  0  0  0  0  0  0  0  0  0  0
   10.0928    2.6404    3.1148 C   0  0  0  0  0  0  0  0  0  0  0  0
   10.0677    2.6987    1.7175 C   0  0  0  0  0  0  0  0  0  0  0  0
   10.0400    1.5191    0.9661 C   0  0  0  0  0  0  0  0  0  0  0  0
   -0.3294   -2.3501    0.9504 Cl  0  0  0  0  0  0  0  0  0  0  0  0
    1.0498    1.7174   -0.7782 H   0  0  0  0  0  0  0  0  0  0  0  0
    0.6772    0.3024    0.2668 H   0  0  0  0  0  0  0  0  0  0  0  0
    1.0090    0.0665   -1.5014 H   0  0  0  0  0  0  0  0  0  0  0  0
    3.2623    1.3457   -0.2526 H   0  0  0  0  0  0  0  0  0  0  0  0
    5.0591    1.1047    0.9399 H   0  0  0  0  0  0  0  0  0  0  0  0
    7.4591    0.8460    1.2728 H   0  0  0  0  0  0  0  0  0  0  0  0
    4.8278   -2.9300   -0.6564 H   0  0  0  0  0  0  0  0  0  0  0  0
    7.2348   -4.1874   -0.8209 H   0  0  0  0  0  0  0  0  0  0  0  0
   11.8632   -1.9604    1.3870 H   0  0  0  0  0  0  0  0  0  0  0  0
   10.3959   -0.1896   -1.5820 H   0  0  0  0  0  0  0  0  0  0  0  0
   11.4586   -0.0217   -3.7645 H   0  0  0  0  0  0  0  0  0  0  0  0
   13.0095   -1.7382   -5.2430 H   0  0  0  0  0  0  0  0  0  0  0  0
   14.6893   -1.8438   -4.6412 H   0  0  0  0  0  0  0  0  0  0  0  0
   16.0519    0.0883   -4.4462 H   0  0  0  0  0  0  0  0  0  0  0  0
   14.8598    1.0095   -3.4518 H   0  0  0  0  0  0  0  0  0  0  0  0
   16.4529    2.5248   -4.6277 H   0  0  0  0  0  0  0  0  0  0  0  0
   14.7546    2.8020   -5.1656 H   0  0  0  0  0  0  0  0  0  0  0  0
   16.8615    1.0820   -6.6423 H   0  0  0  0  0  0  0  0  0  0  0  0
   16.3210    2.7323   -7.1234 H   0  0  0  0  0  0  0  0  0  0  0  0
   15.0793    0.9675   -8.4044 H   0  0  0  0  0  0  0  0  0  0  0  0
   13.9697    1.9218   -7.3536 H   0  0  0  0  0  0  0  0  0  0  0  0
   15.1936   -0.8459   -6.7504 H   0  0  0  0  0  0  0  0  0  0  0  0
   13.4786   -0.4877   -7.1786 H   0  0  0  0  0  0  0  0  0  0  0  0
   14.7643   -2.3907   -2.3422 H   0  0  0  0  0  0  0  0  0  0  0  0
   13.7084   -2.5531   -0.1326 H   0  0  0  0  0  0  0  0  0  0  0  0
   10.0702   -0.7316    3.5290 H   0  0  0  0  0  0  0  0  0  0  0  0
   10.1145    1.3556    4.8450 H   0  0  0  0  0  0  0  0  0  0  0  0
   10.1194    3.5531    3.6956 H   0  0  0  0  0  0  0  0  0  0  0  0
   10.0756    3.6583    1.2173 H   0  0  0  0  0  0  0  0  0  0  0  0
   10.0287    1.5798   -0.1135 H   0  0  0  0  0  0  0  0  0  0  0  0
    0.6656   -1.6797    1.6258 H   0  0  0  0  0  0  0  0  0  0  0  0
  1  2  1  0  0  0  0
  1 37  1  0  0  0  0
  1 38  1  0  0  0  0
  1 39  1  0  0  0  0
  2  3  1  0  0  0  0
  2 40  1  0  0  0  0
  3  4  2  0  0  0  0
  3  5  1  0  0  0  0
  5  6  1  0  0  0  0
  5 10  2  0  0  0  0
  6  7  2  0  0  0  0
  6 41  1  0  0  0  0
  7  8  1  0  0  0  0
  7 42  1  0  0  0  0
  8  9  2  0  0  0  0
  8 14  1  0  0  0  0
  9 10  1  0  0  0  0
  9 11  1  0  0  0  0
 10 43  1  0  0  0  0
 11 12  1  0  0  0  0
 11 44  1  0  0  0  0
 12 13  2  0  0  0  0
 12 14  1  0  0  0  0
 14 15  2  0  0  0  0
 15 16  1  0  0  0  0
 15 30  1  0  0  0  0
 16 17  1  0  0  0  0
 16 45  1  0  0  0  0
 17 18  1  0  0  0  0
 17 29  2  0  0  0  0
 18 19  2  0  0  0  0
 18 46  1  0  0  0  0
 19 20  1  0  0  0  0
 19 47  1  0  0  0  0
 20 21  1  0  0  0  0
 20 28  2  0  0  0  0
 21 22  1  0  0  0  0
 21 48  1  0  0  0  0
 21 49  1  0  0  0  0
 22 23  1  0  0  0  0
 22 27  1  0  0  0  0
 23 24  1  0  0  0  0
 23 50  1  0  0  0  0
 23 51  1  0  0  0  0
 24 25  1  0  0  0  0
 24 52  1  0  0  0  0
 24 53  1  0  0  0  0
 25 26  1  0  0  0  0
 25 54  1  0  0  0  0
 25 55  1  0  0  0  0
 26 27  1  0  0  0  0
 26 56  1  0  0  0  0
 26 57  1  0  0  0  0
 27 58  1  0  0  0  0
 27 59  1  0  0  0  0
 28 29  1  0  0  0  0
 28 60  1  0  0  0  0
 29 61  1  0  0  0  0
 30 31  1  0  0  0  0
 30 35  2  0  0  0  0
 31 32  2  0  0  0  0
 31 62  1  0  0  0  0
 32 33  1  0  0  0  0
 32 63  1  0  0  0  0
 33 34  2  0  0  0  0
 33 64  1  0  0  0  0
 34 35  1  0  0  0  0
 34 65  1  0  0  0  0
 35 66  1  0  0  0  0
 36 67  1  0  0  0  0
M  END
$$$$
