CHEMBL119276
 OpenBabel04072215363D

 58 62  0  0  0  0  0  0  0  0999 V2000
    3.1551    1.3025   -0.2140 C   0  0  0  0  0  0  0  0  0  0  0  0
    3.9144    1.4774    1.0751 C   0  0  0  0  0  0  0  0  0  0  0  0
    4.2177    2.6051    1.4643 O   0  0  0  0  0  0  0  0  0  0  0  0
    4.2068    0.3346    1.7942 N   0  0  0  0  0  0  0  0  0  0  0  0
    3.8999   -1.0374    1.3805 C   0  0  0  0  0  0  0  0  0  0  0  0
    3.0232   -1.7323    2.4378 C   0  0  0  0  0  0  0  0  0  0  0  0
    3.5911   -1.7057    3.8043 N   0  0  0  0  0  0  0  0  0  0  0  0
    4.8040   -2.5295    3.9463 C   0  0  0  0  0  0  0  0  0  0  0  0
    4.5899   -4.0161    3.6599 C   0  0  0  0  0  0  0  0  0  0  0  0
    5.8365   -4.6722    3.8878 O   0  0  0  0  0  0  0  0  0  0  0  0
    5.7363   -5.9986    4.1981 C   0  0  0  0  0  0  0  0  0  0  0  0
    4.6795   -6.8290    3.8208 C   0  0  0  0  0  0  0  0  0  0  0  0
    4.6456   -8.1702    4.2073 C   0  0  0  0  0  0  0  0  0  0  0  0
    5.7234   -8.6436    4.9571 C   0  0  0  0  0  0  0  0  0  0  0  0
    5.9753   -9.8986    5.4469 N   0  0  0  0  0  0  0  0  0  0  0  0
    7.2008   -9.9519    6.0741 C   0  0  0  0  0  0  0  0  0  0  0  0
    7.7805  -11.2050    6.5622 C   0  0  0  0  0  0  0  0  0  0  0  0
    9.0036  -11.2039    7.2341 C   0  0  0  0  0  0  0  0  0  0  0  0
    9.6112  -12.4112    7.5974 C   0  0  0  0  0  0  0  0  0  0  0  0
   10.8639  -12.4326    8.2315 C   0  0  0  0  0  0  0  0  0  0  0  0
   11.4680  -13.6457    8.5449 C   0  0  0  0  0  0  0  0  0  0  0  0
   10.8201  -14.8376    8.2346 C   0  0  0  0  0  0  0  0  0  0  0  0
    9.5672  -14.8102    7.6161 C   0  0  0  0  0  0  0  0  0  0  0  0
    8.9427  -13.6159    7.2877 C   0  0  0  0  0  0  0  0  0  0  0  0
    7.7448  -13.6422    6.6797 N   0  0  0  0  0  0  0  0  0  0  0  0
    7.2129  -12.4567    6.3387 C   0  0  0  0  0  0  0  0  0  0  0  0
    6.0173  -12.6053    5.7006 O   0  0  0  0  0  0  0  0  0  0  0  0
    7.7027   -8.6626    6.0507 C   0  0  0  0  0  0  0  0  0  0  0  0
    6.7997   -7.8442    5.3263 C   0  0  0  0  0  0  0  0  0  0  0  0
    6.8117   -6.4981    4.9354 C   0  0  0  0  0  0  0  0  0  0  0  0
    3.8902   -0.2970    4.1697 C   0  0  0  0  0  0  0  0  0  0  0  0
    4.7666    0.4567    3.1435 C   0  0  0  0  0  0  0  0  0  0  0  0
    3.0592    2.2717   -0.7114 H   0  0  0  0  0  0  0  0  0  0  0  0
    2.1516    0.9251    0.0039 H   0  0  0  0  0  0  0  0  0  0  0  0
    3.6836    0.6281   -0.8918 H   0  0  0  0  0  0  0  0  0  0  0  0
    4.8539   -1.5637    1.2570 H   0  0  0  0  0  0  0  0  0  0  0  0
    3.3929   -1.0727    0.4150 H   0  0  0  0  0  0  0  0  0  0  0  0
    2.7932   -2.7551    2.1228 H   0  0  0  0  0  0  0  0  0  0  0  0
    2.0508   -1.2234    2.4715 H   0  0  0  0  0  0  0  0  0  0  0  0
    5.1639   -2.4503    4.9816 H   0  0  0  0  0  0  0  0  0  0  0  0
    5.6340   -2.1712    3.3262 H   0  0  0  0  0  0  0  0  0  0  0  0
    4.3106   -4.1827    2.6145 H   0  0  0  0  0  0  0  0  0  0  0  0
    3.8024   -4.3916    4.3253 H   0  0  0  0  0  0  0  0  0  0  0  0
    3.8596   -6.4574    3.2140 H   0  0  0  0  0  0  0  0  0  0  0  0
    3.8203   -8.8144    3.9242 H   0  0  0  0  0  0  0  0  0  0  0  0
    5.3808  -10.7065    5.3081 H   0  0  0  0  0  0  0  0  0  0  0  0
    9.5064  -10.2662    7.4545 H   0  0  0  0  0  0  0  0  0  0  0  0
   11.3786  -11.5065    8.4737 H   0  0  0  0  0  0  0  0  0  0  0  0
   12.4441  -13.6638    9.0225 H   0  0  0  0  0  0  0  0  0  0  0  0
   11.2890  -15.7913    8.4621 H   0  0  0  0  0  0  0  0  0  0  0  0
    9.0693  -15.7467    7.3746 H   0  0  0  0  0  0  0  0  0  0  0  0
    5.9652  -13.5794    5.7010 H   0  0  0  0  0  0  0  0  0  0  0  0
    8.6508   -8.3374    6.4573 H   0  0  0  0  0  0  0  0  0  0  0  0
    7.6401   -5.8502    5.2043 H   0  0  0  0  0  0  0  0  0  0  0  0
    4.3533   -0.2541    5.1629 H   0  0  0  0  0  0  0  0  0  0  0  0
    2.9315    0.2298    4.2647 H   0  0  0  0  0  0  0  0  0  0  0  0
    5.7820    0.0453    3.1181 H   0  0  0  0  0  0  0  0  0  0  0  0
    4.8510    1.5048    3.4460 H   0  0  0  0  0  0  0  0  0  0  0  0
  1  2  1  0  0  0  0
  1 33  1  0  0  0  0
  1 34  1  0  0  0  0
  1 35  1  0  0  0  0
  2  3  2  0  0  0  0
  2  4  1  0  0  0  0
  4  5  1  0  0  0  0
  4 32  1  0  0  0  0
  5  6  1  0  0  0  0
  5 36  1  0  0  0  0
  5 37  1  0  0  0  0
  6  7  1  0  0  0  0
  6 38  1  0  0  0  0
  6 39  1  0  0  0  0
  7  8  1  0  0  0  0
  7 31  1  0  0  0  0
  8  9  1  0  0  0  0
  8 40  1  0  0  0  0
  8 41  1  0  0  0  0
  9 10  1  0  0  0  0
  9 42  1  0  0  0  0
  9 43  1  0  0  0  0
 10 11  1  0  0  0  0
 11 12  1  0  0  0  0
 11 30  2  0  0  0  0
 12 13  2  0  0  0  0
 12 44  1  0  0  0  0
 13 14  1  0  0  0  0
 13 45  1  0  0  0  0
 14 15  1  0  0  0  0
 14 29  2  0  0  0  0
 15 16  1  0  0  0  0
 15 46  1  0  0  0  0
 16 17  1  0  0  0  0
 16 28  2  0  0  0  0
 17 18  1  0  0  0  0
 17 26  2  0  0  0  0
 18 19  2  0  0  0  0
 18 47  1  0  0  0  0
 19 20  1  0  0  0  0
 19 24  1  0  0  0  0
 20 21  2  0  0  0  0
 20 48  1  0  0  0  0
 21 22  1  0  0  0  0
 21 49  1  0  0  0  0
 22 23  2  0  0  0  0
 22 50  1  0  0  0  0
 23 24  1  0  0  0  0
 23 51  1  0  0  0  0
 24 25  2  0  0  0  0
 25 26  1  0  0  0  0
 26 27  1  0  0  0  0
 27 52  1  0  0  0  0
 28 29  1  0  0  0  0
 28 53  1  0  0  0  0
 29 30  1  0  0  0  0
 30 54  1  0  0  0  0
 31 32  1  0  0  0  0
 31 55  1  0  0  0  0
 31 56  1  0  0  0  0
 32 57  1  0  0  0  0
 32 58  1  0  0  0  0
M  END
$$$$
