CHEMBL1172421
 OpenBabel04072215363D

 51 54  0  0  0  0  0  0  0  0999 V2000
    2.3258    0.5032   -1.0087 C   0  0  0  0  0  0  0  0  0  0  0  0
    0.9857    0.1865   -0.4402 C   0  0  0  0  0  0  0  0  0  0  0  0
    0.5153   -1.1088   -0.4799 N   0  0  0  0  0  0  0  0  0  0  0  0
   -0.7411   -1.1837    0.0595 C   0  0  0  0  0  0  0  0  0  0  0  0
   -1.3807   -2.4470    0.1202 C   0  0  0  0  0  0  0  0  0  0  0  0
   -1.2233   -3.2898    1.1510 C   0  0  0  0  0  0  0  0  0  0  0  0
   -0.3385   -3.0717    2.3618 C   0  0  0  0  0  0  0  0  0  0  0  0
    0.4515   -2.1759    2.5889 O   0  0  0  0  0  0  0  0  0  0  0  0
   -0.5825   -4.1628    3.1753 N   0  0  0  0  0  0  0  0  0  0  0  0
   -1.4792   -5.0452    2.5872 C   0  0  0  0  0  0  0  0  0  0  0  0
   -1.9014   -6.2397    3.1321 C   0  0  0  0  0  0  0  0  0  0  0  0
   -2.8208   -7.0242    2.4233 C   0  0  0  0  0  0  0  0  0  0  0  0
   -3.3354   -8.2436    2.9569 N   0  0  0  0  0  0  0  0  0  0  0  0
   -3.3176   -8.5385    4.3132 C   0  0  0  0  0  0  0  0  0  0  0  0
   -2.9419   -7.7315    5.1608 O   0  0  0  0  0  0  0  0  0  0  0  0
   -3.7565   -9.8161    4.6242 N   0  0  0  0  0  0  0  0  0  0  0  0
   -3.8145  -10.3138    5.9602 C   0  0  0  0  0  0  0  0  0  0  0  0
   -3.7970   -9.4710    7.0821 C   0  0  0  0  0  0  0  0  0  0  0  0
   -3.7163   -9.9786    8.3804 C   0  0  0  0  0  0  0  0  0  0  0  0
   -3.7014  -11.3497    8.5767 C   0  0  0  0  0  0  0  0  0  0  0  0
   -3.5630  -11.9767   10.1714 Cl  0  0  0  0  0  0  0  0  0  0  0  0
   -3.7945  -12.2112    7.4853 C   0  0  0  0  0  0  0  0  0  0  0  0
   -3.8565  -11.6956    6.1765 C   0  0  0  0  0  0  0  0  0  0  0  0
   -3.2398   -6.5840    1.1494 C   0  0  0  0  0  0  0  0  0  0  0  0
   -2.7899   -5.3549    0.6091 C   0  0  0  0  0  0  0  0  0  0  0  0
   -1.9058   -4.5832    1.3469 C   0  0  0  0  0  0  0  0  0  0  0  0
   -1.1075    0.0921    0.4495 C   0  0  0  0  0  0  0  0  0  0  0  0
   -2.3815    0.4910    1.1123 C   0  0  0  0  0  0  0  0  0  0  0  0
   -0.0060    0.9748    0.1428 C   0  0  0  0  0  0  0  0  0  0  0  0
    0.0140    2.4250    0.3903 C   0  0  0  0  0  0  0  0  0  0  0  0
   -0.9911    3.1192    0.4182 O   0  0  0  0  0  0  0  0  0  0  0  0
    1.2425    2.9507    0.6261 O   0  0  0  0  0  0  0  0  0  0  0  0
    2.7804   -0.3751   -1.4797 H   0  0  0  0  0  0  0  0  0  0  0  0
    3.0142    0.8377   -0.2264 H   0  0  0  0  0  0  0  0  0  0  0  0
    2.2480    1.2878   -1.7677 H   0  0  0  0  0  0  0  0  0  0  0  0
    1.0310   -1.8973   -0.8475 H   0  0  0  0  0  0  0  0  0  0  0  0
   -2.0705   -2.6883   -0.6859 H   0  0  0  0  0  0  0  0  0  0  0  0
   -0.1370   -4.2885    4.0717 H   0  0  0  0  0  0  0  0  0  0  0  0
   -1.4982   -6.5319    4.0926 H   0  0  0  0  0  0  0  0  0  0  0  0
   -3.9537   -8.7871    2.3718 H   0  0  0  0  0  0  0  0  0  0  0  0
   -3.7594  -10.4997    3.8777 H   0  0  0  0  0  0  0  0  0  0  0  0
   -3.8339   -8.3896    6.9905 H   0  0  0  0  0  0  0  0  0  0  0  0
   -3.6523   -9.2881    9.2176 H   0  0  0  0  0  0  0  0  0  0  0  0
   -3.7994  -13.2866    7.6448 H   0  0  0  0  0  0  0  0  0  0  0  0
   -3.9050  -12.3949    5.3488 H   0  0  0  0  0  0  0  0  0  0  0  0
   -3.9437   -7.1758    0.5688 H   0  0  0  0  0  0  0  0  0  0  0  0
   -3.1418   -5.0281   -0.3642 H   0  0  0  0  0  0  0  0  0  0  0  0
   -3.0497   -0.3640    1.2522 H   0  0  0  0  0  0  0  0  0  0  0  0
   -2.9121    1.2347    0.5104 H   0  0  0  0  0  0  0  0  0  0  0  0
   -2.1764    0.9196    2.0994 H   0  0  0  0  0  0  0  0  0  0  0  0
    1.8907    2.2420    0.7718 H   0  0  0  0  0  0  0  0  0  0  0  0
  1  2  1  0  0  0  0
  1 33  1  0  0  0  0
  1 34  1  0  0  0  0
  1 35  1  0  0  0  0
  2  3  1  0  0  0  0
  2 29  2  0  0  0  0
  3  4  1  0  0  0  0
  3 36  1  0  0  0  0
  4  5  1  0  0  0  0
  4 27  2  0  0  0  0
  5  6  2  0  0  0  0
  5 37  1  0  0  0  0
  6  7  1  0  0  0  0
  6 26  1  0  0  0  0
  7  8  2  0  0  0  0
  7  9  1  0  0  0  0
  9 10  1  0  0  0  0
  9 38  1  0  0  0  0
 10 11  1  0  0  0  0
 10 26  2  0  0  0  0
 11 12  2  0  0  0  0
 11 39  1  0  0  0  0
 12 13  1  0  0  0  0
 12 24  1  0  0  0  0
 13 14  1  0  0  0  0
 13 40  1  0  0  0  0
 14 15  2  0  0  0  0
 14 16  1  0  0  0  0
 16 17  1  0  0  0  0
 16 41  1  0  0  0  0
 17 18  1  0  0  0  0
 17 23  2  0  0  0  0
 18 19  2  0  0  0  0
 18 42  1  0  0  0  0
 19 20  1  0  0  0  0
 19 43  1  0  0  0  0
 20 21  1  0  0  0  0
 20 22  2  0  0  0  0
 22 23  1  0  0  0  0
 22 44  1  0  0  0  0
 23 45  1  0  0  0  0
 24 25  2  0  0  0  0
 24 46  1  0  0  0  0
 25 26  1  0  0  0  0
 25 47  1  0  0  0  0
 27 28  1  0  0  0  0
 27 29  1  0  0  0  0
 28 48  1  0  0  0  0
 28 49  1  0  0  0  0
 28 50  1  0  0  0  0
 29 30  1  0  0  0  0
 30 31  2  0  0  0  0
 30 32  1  0  0  0  0
 32 51  1  0  0  0  0
M  END
$$$$
