CHEMBL384909
 OpenBabel04072215373D

 51 54  0  0  0  0  0  0  0  0999 V2000
    0.9142    0.0775    0.2349 O   0  0  0  0  0  0  0  0  0  0  0  0
    2.1196    0.0044    0.0171 C   0  0  0  0  0  0  0  0  0  0  0  0
    2.8203   -1.1805   -0.0257 N   0  0  0  0  0  0  0  0  0  0  0  0
    2.1605   -2.4293    0.2824 C   0  0  0  0  0  0  0  0  0  0  0  0
    2.8489   -3.5986   -0.3720 C   0  0  0  0  0  0  0  0  0  0  0  0
    3.3811   -4.6421    0.3979 C   0  0  0  0  0  0  0  0  0  0  0  0
    3.9583   -5.7543   -0.2189 C   0  0  0  0  0  0  0  0  0  0  0  0
    4.0117   -5.8342   -1.6093 C   0  0  0  0  0  0  0  0  0  0  0  0
    3.4941   -4.7995   -2.3856 C   0  0  0  0  0  0  0  0  0  0  0  0
    2.9163   -3.6874   -1.7710 C   0  0  0  0  0  0  0  0  0  0  0  0
    2.9074    1.2490   -0.1903 C   0  0  0  0  0  0  0  0  0  0  0  0
    2.4537    2.4438    0.3794 C   0  0  0  0  0  0  0  0  0  0  0  0
    3.1783    3.6200    0.1946 C   0  0  0  0  0  0  0  0  0  0  0  0
    4.3543    3.5917   -0.5513 C   0  0  0  0  0  0  0  0  0  0  0  0
    5.0419    4.7351   -0.7037 F   0  0  0  0  0  0  0  0  0  0  0  0
    4.8451    2.4000   -1.1130 C   0  0  0  0  0  0  0  0  0  0  0  0
    6.0485    2.4099   -1.8264 N   0  0  0  0  0  0  0  0  0  0  0  0
    6.8057    1.1684   -1.9552 C   0  0  0  0  0  0  0  0  0  0  0  0
    8.2645    1.3914   -2.1571 C   0  0  0  0  0  0  0  0  0  0  0  0
    9.0205    2.4661   -1.7646 C   0  0  0  0  0  0  0  0  0  0  0  0
   10.3546    2.3796   -2.0605 N   0  0  0  0  0  0  0  0  0  0  0  0
   10.6355    1.2613   -2.6921 C   0  0  0  0  0  0  0  0  0  0  0  0
   11.8443    0.9138   -3.1863 N   0  0  0  0  0  0  0  0  0  0  0  0
   12.8452    1.8191   -3.5515 C   0  0  0  0  0  0  0  0  0  0  0  0
   12.9848    3.0828   -2.9779 C   0  0  0  0  0  0  0  0  0  0  0  0
   13.9189    3.9792   -3.4838 C   0  0  0  0  0  0  0  0  0  0  0  0
   14.7345    3.5797   -4.5269 C   0  0  0  0  0  0  0  0  0  0  0  0
   14.5871    2.2890   -5.0030 C   0  0  0  0  0  0  0  0  0  0  0  0
   13.6686    1.4076   -4.5409 N   0  0  0  0  0  0  0  0  0  0  0  0
    9.2721    0.2148   -2.8902 S   0  0  0  0  0  0  0  0  0  0  0  0
    4.0779    1.2400   -0.9587 C   0  0  0  0  0  0  0  0  0  0  0  0
    3.8279   -1.1682    0.0505 H   0  0  0  0  0  0  0  0  0  0  0  0
    1.1131   -2.3961   -0.0374 H   0  0  0  0  0  0  0  0  0  0  0  0
    2.1672   -2.5291    1.3738 H   0  0  0  0  0  0  0  0  0  0  0  0
    3.3340   -4.6068    1.4841 H   0  0  0  0  0  0  0  0  0  0  0  0
    4.3544   -6.5664    0.3859 H   0  0  0  0  0  0  0  0  0  0  0  0
    4.4481   -6.7074   -2.0876 H   0  0  0  0  0  0  0  0  0  0  0  0
    3.5264   -4.8656   -3.4701 H   0  0  0  0  0  0  0  0  0  0  0  0
    2.4977   -2.8943   -2.3879 H   0  0  0  0  0  0  0  0  0  0  0  0
    1.5370    2.4577    0.9654 H   0  0  0  0  0  0  0  0  0  0  0  0
    2.8425    4.5546    0.6333 H   0  0  0  0  0  0  0  0  0  0  0  0
    5.9578    2.9250   -2.7025 H   0  0  0  0  0  0  0  0  0  0  0  0
    6.3879    0.5735   -2.7769 H   0  0  0  0  0  0  0  0  0  0  0  0
    6.7155    0.5815   -1.0310 H   0  0  0  0  0  0  0  0  0  0  0  0
    8.6431    3.3471   -1.2558 H   0  0  0  0  0  0  0  0  0  0  0  0
   11.9134    0.0913   -3.7722 H   0  0  0  0  0  0  0  0  0  0  0  0
   12.3627    3.4024   -2.1500 H   0  0  0  0  0  0  0  0  0  0  0  0
   13.9877    4.9788   -3.0659 H   0  0  0  0  0  0  0  0  0  0  0  0
   15.4651    4.2558   -4.9533 H   0  0  0  0  0  0  0  0  0  0  0  0
   15.2180    1.9192   -5.8054 H   0  0  0  0  0  0  0  0  0  0  0  0
    4.3746    0.3254   -1.4613 H   0  0  0  0  0  0  0  0  0  0  0  0
  1  2  2  0  0  0  0
  2  3  1  0  0  0  0
  2 11  1  0  0  0  0
  3  4  1  0  0  0  0
  3 32  1  0  0  0  0
  4  5  1  0  0  0  0
  4 33  1  0  0  0  0
  4 34  1  0  0  0  0
  5  6  1  0  0  0  0
  5 10  2  0  0  0  0
  6  7  2  0  0  0  0
  6 35  1  0  0  0  0
  7  8  1  0  0  0  0
  7 36  1  0  0  0  0
  8  9  2  0  0  0  0
  8 37  1  0  0  0  0
  9 10  1  0  0  0  0
  9 38  1  0  0  0  0
 10 39  1  0  0  0  0
 11 12  1  0  0  0  0
 11 31  2  0  0  0  0
 12 13  2  0  0  0  0
 12 40  1  0  0  0  0
 13 14  1  0  0  0  0
 13 41  1  0  0  0  0
 14 15  1  0  0  0  0
 14 16  2  0  0  0  0
 16 17  1  0  0  0  0
 16 31  1  0  0  0  0
 17 18  1  0  0  0  0
 17 42  1  0  0  0  0
 18 19  1  0  0  0  0
 18 43  1  0  0  0  0
 18 44  1  0  0  0  0
 19 20  2  0  0  0  0
 19 30  1  0  0  0  0
 20 21  1  0  0  0  0
 20 45  1  0  0  0  0
 21 22  2  0  0  0  0
 22 23  1  0  0  0  0
 22 30  1  0  0  0  0
 23 24  1  0  0  0  0
 23 46  1  0  0  0  0
 24 25  1  0  0  0  0
 24 29  2  0  0  0  0
 25 26  2  0  0  0  0
 25 47  1  0  0  0  0
 26 27  1  0  0  0  0
 26 48  1  0  0  0  0
 27 28  2  0  0  0  0
 27 49  1  0  0  0  0
 28 29  1  0  0  0  0
 28 50  1  0  0  0  0
 31 51  1  0  0  0  0
M  END
$$$$
