CHEMBL4797262
 OpenBabel04072215383D

 54 58  0  0  0  0  0  0  0  0999 V2000
    1.0186    0.2560    0.0164 O   0  0  0  0  0  0  0  0  0  0  0  0
    2.2298    0.1269   -0.1637 C   0  0  0  0  0  0  0  0  0  0  0  0
    2.8172   -0.7414   -1.0475 N   0  0  0  0  0  0  0  0  0  0  0  0
    2.1982   -1.6747   -1.8942 C   0  0  0  0  0  0  0  0  0  0  0  0
    0.8454   -1.6296   -2.2281 C   0  0  0  0  0  0  0  0  0  0  0  0
    0.2980   -2.5923   -3.0821 C   0  0  0  0  0  0  0  0  0  0  0  0
    1.1016   -3.6082   -3.5937 C   0  0  0  0  0  0  0  0  0  0  0  0
    0.4215   -4.7993   -4.6306 Cl  0  0  0  0  0  0  0  0  0  0  0  0
    2.4530   -3.6657   -3.2668 C   0  0  0  0  0  0  0  0  0  0  0  0
    2.9996   -2.6966   -2.4223 C   0  0  0  0  0  0  0  0  0  0  0  0
    3.0804    0.8094    0.6587 N   0  0  0  0  0  0  0  0  0  0  0  0
    4.4617    0.8754    0.6071 C   0  0  0  0  0  0  0  0  0  0  0  0
    5.0646    1.2610    1.7286 N   0  0  0  0  0  0  0  0  0  0  0  0
    6.4070    1.2054    1.7197 C   0  0  0  0  0  0  0  0  0  0  0  0
    7.2468    1.6233    3.2367 S   0  0  0  0  0  0  0  0  0  0  0  0
    7.3508    0.0821    4.0695 C   0  0  0  0  0  0  0  0  0  0  0  0
    6.4864   -0.9839    3.9631 C   0  0  0  0  0  0  0  0  0  0  0  0
    6.9343   -1.9736    4.7985 N   0  0  0  0  0  0  0  0  0  0  0  0
    8.0770   -1.5677    5.4494 C   0  0  0  0  0  0  0  0  0  0  0  0
    8.8679   -2.2494    6.3835 C   0  0  0  0  0  0  0  0  0  0  0  0
    9.9761   -1.5797    6.9071 C   0  0  0  0  0  0  0  0  0  0  0  0
   10.2772   -0.2782    6.5151 C   0  0  0  0  0  0  0  0  0  0  0  0
    9.4782    0.3887    5.5774 C   0  0  0  0  0  0  0  0  0  0  0  0
    8.3550   -0.2661    5.0239 C   0  0  0  0  0  0  0  0  0  0  0  0
    7.1376    0.8595    0.6025 C   0  0  0  0  0  0  0  0  0  0  0  0
    6.4317    0.5507   -0.5414 C   0  0  0  0  0  0  0  0  0  0  0  0
    7.0913    0.3255   -1.7337 N   0  0  0  0  0  0  0  0  0  0  0  0
    6.4251    0.6343   -3.0113 C   0  0  0  0  0  0  0  0  0  0  0  0
    6.0553   -0.6337   -3.7892 C   0  0  0  0  0  0  0  0  0  0  0  0
    7.1721   -1.5271   -3.9169 O   0  0  0  0  0  0  0  0  0  0  0  0
    7.6459   -1.9180   -2.6205 C   0  0  0  0  0  0  0  0  0  0  0  0
    8.1311   -0.7090   -1.8043 C   0  0  0  0  0  0  0  0  0  0  0  0
    5.0930    0.5122   -0.5219 N   0  0  0  0  0  0  0  0  0  0  0  0
    3.8321   -0.7567   -1.0145 H   0  0  0  0  0  0  0  0  0  0  0  0
    0.1981   -0.8415   -1.8566 H   0  0  0  0  0  0  0  0  0  0  0  0
   -0.7557   -2.5373   -3.3403 H   0  0  0  0  0  0  0  0  0  0  0  0
    3.0827   -4.4610   -3.6571 H   0  0  0  0  0  0  0  0  0  0  0  0
    4.0515   -2.7715   -2.1585 H   0  0  0  0  0  0  0  0  0  0  0  0
    2.6549    1.2556    1.4555 H   0  0  0  0  0  0  0  0  0  0  0  0
    5.5837   -1.1251    3.3853 H   0  0  0  0  0  0  0  0  0  0  0  0
    6.4859   -2.8691    4.9353 H   0  0  0  0  0  0  0  0  0  0  0  0
    8.6317   -3.2610    6.6981 H   0  0  0  0  0  0  0  0  0  0  0  0
   10.6097   -2.0815    7.6366 H   0  0  0  0  0  0  0  0  0  0  0  0
   11.1392    0.2285    6.9422 H   0  0  0  0  0  0  0  0  0  0  0  0
    9.7215    1.4065    5.2866 H   0  0  0  0  0  0  0  0  0  0  0  0
    8.2191    0.8840    0.6089 H   0  0  0  0  0  0  0  0  0  0  0  0
    7.1409    1.2083   -3.6123 H   0  0  0  0  0  0  0  0  0  0  0  0
    5.5419    1.2725   -2.8882 H   0  0  0  0  0  0  0  0  0  0  0  0
    5.7284   -0.3682   -4.8003 H   0  0  0  0  0  0  0  0  0  0  0  0
    5.2319   -1.1644   -3.3073 H   0  0  0  0  0  0  0  0  0  0  0  0
    8.4749   -2.6171   -2.7698 H   0  0  0  0  0  0  0  0  0  0  0  0
    6.8461   -2.4561   -2.0979 H   0  0  0  0  0  0  0  0  0  0  0  0
    9.0039   -0.2678   -2.2983 H   0  0  0  0  0  0  0  0  0  0  0  0
    8.4507   -1.0530   -0.8143 H   0  0  0  0  0  0  0  0  0  0  0  0
  1  2  2  0  0  0  0
  2  3  1  0  0  0  0
  2 11  1  0  0  0  0
  3  4  1  0  0  0  0
  3 34  1  0  0  0  0
  4  5  1  0  0  0  0
  4 10  2  0  0  0  0
  5  6  2  0  0  0  0
  5 35  1  0  0  0  0
  6  7  1  0  0  0  0
  6 36  1  0  0  0  0
  7  8  1  0  0  0  0
  7  9  2  0  0  0  0
  9 10  1  0  0  0  0
  9 37  1  0  0  0  0
 10 38  1  0  0  0  0
 11 12  1  0  0  0  0
 11 39  1  0  0  0  0
 12 13  1  0  0  0  0
 12 33  2  0  0  0  0
 13 14  2  0  0  0  0
 14 15  1  0  0  0  0
 14 25  1  0  0  0  0
 15 16  1  0  0  0  0
 16 17  2  0  0  0  0
 16 24  1  0  0  0  0
 17 18  1  0  0  0  0
 17 40  1  0  0  0  0
 18 19  1  0  0  0  0
 18 41  1  0  0  0  0
 19 20  1  0  0  0  0
 19 24  2  0  0  0  0
 20 21  2  0  0  0  0
 20 42  1  0  0  0  0
 21 22  1  0  0  0  0
 21 43  1  0  0  0  0
 22 23  2  0  0  0  0
 22 44  1  0  0  0  0
 23 24  1  0  0  0  0
 23 45  1  0  0  0  0
 25 26  2  0  0  0  0
 25 46  1  0  0  0  0
 26 27  1  0  0  0  0
 26 33  1  0  0  0  0
 27 28  1  0  0  0  0
 27 32  1  0  0  0  0
 28 29  1  0  0  0  0
 28 47  1  0  0  0  0
 28 48  1  0  0  0  0
 29 30  1  0  0  0  0
 29 49  1  0  0  0  0
 29 50  1  0  0  0  0
 30 31  1  0  0  0  0
 31 32  1  0  0  0  0
 31 51  1  0  0  0  0
 31 52  1  0  0  0  0
 32 53  1  0  0  0  0
 32 54  1  0  0  0  0
M  END
$$$$
