CHEMBL1975503
 OpenBabel04072215363D

 27 29  0  0  0  0  0  0  0  0999 V2000
    2.3615    0.1167   -0.1620 N   0  0  0  0  0  0  0  0  0  0  0  0
    0.9740    0.0214    0.0004 C   0  0  0  0  0  0  0  0  0  0  0  0
    0.2620    1.0658    0.5947 C   0  0  0  0  0  0  0  0  0  0  0  0
   -1.1372    1.0509    0.6300 C   0  0  0  0  0  0  0  0  0  0  0  0
   -1.8464    0.0049    0.0316 C   0  0  0  0  0  0  0  0  0  0  0  0
   -3.3118    0.0084    0.0227 C   0  0  0  0  0  0  0  0  0  0  0  0
   -3.9999    0.5938   -0.9793 C   0  0  0  0  0  0  0  0  0  0  0  0
   -5.4528    0.6068   -1.0075 C   0  0  0  0  0  0  0  0  0  0  0  0
   -6.1453    0.0234   -0.0190 C   0  0  0  0  0  0  0  0  0  0  0  0
   -5.4633   -0.5759    1.0013 N   0  0  0  0  0  0  0  0  0  0  0  0
   -5.9596   -1.2265    2.1024 C   0  0  0  0  0  0  0  0  0  0  0  0
   -7.1218   -1.4170    2.4211 O   0  0  0  0  0  0  0  0  0  0  0  0
   -4.8298   -1.6423    2.8100 N   0  0  0  0  0  0  0  0  0  0  0  0
   -3.6778   -1.2585    2.1663 N   0  0  0  0  0  0  0  0  0  0  0  0
   -4.1062   -0.6345    1.1081 C   0  0  0  0  0  0  0  0  0  0  0  0
   -1.1385   -1.0184   -0.6061 C   0  0  0  0  0  0  0  0  0  0  0  0
    0.2602   -0.9960   -0.6370 C   0  0  0  0  0  0  0  0  0  0  0  0
    2.8210    0.6680    0.5559 H   0  0  0  0  0  0  0  0  0  0  0  0
    2.8189   -0.7776   -0.3095 H   0  0  0  0  0  0  0  0  0  0  0  0
    0.7915    1.9053    1.0372 H   0  0  0  0  0  0  0  0  0  0  0  0
   -1.6636    1.8689    1.1162 H   0  0  0  0  0  0  0  0  0  0  0  0
   -3.4861    1.0781   -1.8065 H   0  0  0  0  0  0  0  0  0  0  0  0
   -5.9541    1.0947   -1.8370 H   0  0  0  0  0  0  0  0  0  0  0  0
   -7.2296   -0.0029    0.0227 H   0  0  0  0  0  0  0  0  0  0  0  0
   -4.8262   -2.1558    3.6806 H   0  0  0  0  0  0  0  0  0  0  0  0
   -1.6667   -1.8334   -1.0952 H   0  0  0  0  0  0  0  0  0  0  0  0
    0.7880   -1.7844   -1.1671 H   0  0  0  0  0  0  0  0  0  0  0  0
  1  2  1  0  0  0  0
  1 18  1  0  0  0  0
  1 19  1  0  0  0  0
  2  3  1  0  0  0  0
  2 17  2  0  0  0  0
  3  4  2  0  0  0  0
  3 20  1  0  0  0  0
  4  5  1  0  0  0  0
  4 21  1  0  0  0  0
  5  6  1  0  0  0  0
  5 16  2  0  0  0  0
  6  7  2  0  0  0  0
  6 15  1  0  0  0  0
  7  8  1  0  0  0  0
  7 22  1  0  0  0  0
  8  9  2  0  0  0  0
  8 23  1  0  0  0  0
  9 10  1  0  0  0  0
  9 24  1  0  0  0  0
 10 11  1  0  0  0  0
 10 15  1  0  0  0  0
 11 12  2  0  0  0  0
 11 13  1  0  0  0  0
 13 14  1  0  0  0  0
 13 25  1  0  0  0  0
 14 15  2  0  0  0  0
 16 17  1  0  0  0  0
 16 26  1  0  0  0  0
 17 27  1  0  0  0  0
M  END
$$$$
