CHEMBL1076465
 OpenBabel04072215353D

 68 72  0  0  0  0  0  0  0  0999 V2000
   -1.0116   -0.5762    0.9145 C   0  0  0  0  0  0  0  0  0  0  0  0
    0.4304   -0.1362    0.9672 C   0  0  0  0  0  0  0  0  0  0  0  0
    0.6957    1.2042    1.2739 C   0  0  0  0  0  0  0  0  0  0  0  0
    2.0056    1.6602    1.4182 C   0  0  0  0  0  0  0  0  0  0  0  0
    3.0721    0.7707    1.3186 C   0  0  0  0  0  0  0  0  0  0  0  0
    4.4311    1.1428    1.5013 N   0  0  0  0  0  0  0  0  0  0  0  0
    4.9087    2.4221    1.7045 C   0  0  0  0  0  0  0  0  0  0  0  0
    4.2413    3.4488    1.7724 O   0  0  0  0  0  0  0  0  0  0  0  0
    6.3890    2.5698    1.8069 C   0  0  0  0  0  0  0  0  0  0  0  0
    7.2190    1.5870    2.3593 C   0  0  0  0  0  0  0  0  0  0  0  0
    8.5891    1.8270    2.4757 C   0  0  0  0  0  0  0  0  0  0  0  0
    9.1412    3.0326    2.0422 C   0  0  0  0  0  0  0  0  0  0  0  0
    8.3270    4.0251    1.4754 C   0  0  0  0  0  0  0  0  0  0  0  0
    8.9020    5.3279    0.9760 C   0  0  0  0  0  0  0  0  0  0  0  0
   10.2532    5.4179    1.1305 F   0  0  0  0  0  0  0  0  0  0  0  0
    8.6681    5.5198   -0.3516 F   0  0  0  0  0  0  0  0  0  0  0  0
    8.3814    6.4124    1.6117 F   0  0  0  0  0  0  0  0  0  0  0  0
    6.9487    3.7820    1.3736 C   0  0  0  0  0  0  0  0  0  0  0  0
    2.8042   -0.5673    1.0083 C   0  0  0  0  0  0  0  0  0  0  0  0
    1.5096   -1.0250    0.7376 C   0  0  0  0  0  0  0  0  0  0  0  0
    1.2443   -2.3525    0.3396 N   0  0  0  0  0  0  0  0  0  0  0  0
    1.9576   -3.1861   -0.4846 C   0  0  0  0  0  0  0  0  0  0  0  0
    1.2539   -3.9997   -1.2654 N   0  0  0  0  0  0  0  0  0  0  0  0
    1.3929   -5.2080   -0.6315 C   0  0  0  0  0  0  0  0  0  0  0  0
    0.5876   -6.3509   -0.6942 C   0  0  0  0  0  0  0  0  0  0  0  0
    0.8632   -7.4050    0.1849 C   0  0  0  0  0  0  0  0  0  0  0  0
    1.9385   -7.3393    1.0753 C   0  0  0  0  0  0  0  0  0  0  0  0
    2.7872   -6.2285    1.1123 C   0  0  0  0  0  0  0  0  0  0  0  0
    2.4819   -5.1774    0.2408 C   0  0  0  0  0  0  0  0  0  0  0  0
    3.0601   -3.9457   -0.0645 N   0  0  0  0  0  0  0  0  0  0  0  0
    4.4524   -3.6526   -0.2280 C   0  0  0  0  0  0  0  0  0  0  0  0
    5.3906   -4.6593   -0.0577 C   0  0  0  0  0  0  0  0  0  0  0  0
    6.7307   -4.3383   -0.1940 C   0  0  0  0  0  0  0  0  0  0  0  0
    7.6662   -5.3357    0.0912 N   0  0  0  0  0  0  0  0  0  0  0  0
    9.0693   -4.9754    0.2531 C   0  0  0  0  0  0  0  0  0  0  0  0
    9.9444   -5.3620   -0.9379 C   0  0  0  0  0  0  0  0  0  0  0  0
    9.6475   -4.5494   -2.1933 C   0  0  0  0  0  0  0  0  0  0  0  0
   10.5994   -4.8882   -3.2500 N   0  0  0  0  0  0  0  0  0  0  0  0
    7.1182   -3.0982   -0.5133 N   0  0  0  0  0  0  0  0  0  0  0  0
    6.1432   -2.2059   -0.7385 C   0  0  0  0  0  0  0  0  0  0  0  0
    4.8256   -2.4154   -0.6094 N   0  0  0  0  0  0  0  0  0  0  0  0
   -1.6956    0.2517    1.1333 H   0  0  0  0  0  0  0  0  0  0  0  0
   -1.1949   -1.3505    1.6683 H   0  0  0  0  0  0  0  0  0  0  0  0
   -1.2722   -0.9584   -0.0768 H   0  0  0  0  0  0  0  0  0  0  0  0
   -0.1187    1.9142    1.4049 H   0  0  0  0  0  0  0  0  0  0  0  0
    2.1486    2.7124    1.6322 H   0  0  0  0  0  0  0  0  0  0  0  0
    5.0979    0.3931    1.3795 H   0  0  0  0  0  0  0  0  0  0  0  0
    6.8135    0.6530    2.7400 H   0  0  0  0  0  0  0  0  0  0  0  0
    9.2309    1.0678    2.9226 H   0  0  0  0  0  0  0  0  0  0  0  0
   10.2103    3.2017    2.1516 H   0  0  0  0  0  0  0  0  0  0  0  0
    6.2988    4.5537    0.9526 H   0  0  0  0  0  0  0  0  0  0  0  0
    3.6200   -1.2728    1.0012 H   0  0  0  0  0  0  0  0  0  0  0  0
    0.2696   -2.4205    0.0528 H   0  0  0  0  0  0  0  0  0  0  0  0
   -0.2677   -6.3797   -1.3600 H   0  0  0  0  0  0  0  0  0  0  0  0
    0.2122   -8.2760    0.1911 H   0  0  0  0  0  0  0  0  0  0  0  0
    2.1158   -8.1658    1.7607 H   0  0  0  0  0  0  0  0  0  0  0  0
    3.6096   -6.1764    1.8185 H   0  0  0  0  0  0  0  0  0  0  0  0
    5.1287   -5.6789    0.1783 H   0  0  0  0  0  0  0  0  0  0  0  0
    7.5047   -6.1885   -0.4374 H   0  0  0  0  0  0  0  0  0  0  0  0
    9.4319   -5.5441    1.1186 H   0  0  0  0  0  0  0  0  0  0  0  0
    9.2106   -3.9214    0.5178 H   0  0  0  0  0  0  0  0  0  0  0  0
    9.8394   -6.4339   -1.1498 H   0  0  0  0  0  0  0  0  0  0  0  0
   10.9917   -5.2024   -0.6454 H   0  0  0  0  0  0  0  0  0  0  0  0
    9.7111   -3.4769   -1.9816 H   0  0  0  0  0  0  0  0  0  0  0  0
    8.6376   -4.7669   -2.5547 H   0  0  0  0  0  0  0  0  0  0  0  0
   11.5387   -4.6044   -2.9709 H   0  0  0  0  0  0  0  0  0  0  0  0
   10.3797   -4.3414   -4.0826 H   0  0  0  0  0  0  0  0  0  0  0  0
    6.4558   -1.2109   -1.0400 H   0  0  0  0  0  0  0  0  0  0  0  0
  1  2  1  0  0  0  0
  1 42  1  0  0  0  0
  1 43  1  0  0  0  0
  1 44  1  0  0  0  0
  2  3  1  0  0  0  0
  2 20  2  0  0  0  0
  3  4  2  0  0  0  0
  3 45  1  0  0  0  0
  4  5  1  0  0  0  0
  4 46  1  0  0  0  0
  5  6  1  0  0  0  0
  5 19  2  0  0  0  0
  6  7  1  0  0  0  0
  6 47  1  0  0  0  0
  7  8  2  0  0  0  0
  7  9  1  0  0  0  0
  9 10  1  0  0  0  0
  9 18  2  0  0  0  0
 10 11  2  0  0  0  0
 10 48  1  0  0  0  0
 11 12  1  0  0  0  0
 11 49  1  0  0  0  0
 12 13  2  0  0  0  0
 12 50  1  0  0  0  0
 13 14  1  0  0  0  0
 13 18  1  0  0  0  0
 14 15  1  0  0  0  0
 14 16  1  0  0  0  0
 14 17  1  0  0  0  0
 18 51  1  0  0  0  0
 19 20  1  0  0  0  0
 19 52  1  0  0  0  0
 20 21  1  0  0  0  0
 21 22  1  0  0  0  0
 21 53  1  0  0  0  0
 22 23  2  0  0  0  0
 22 30  1  0  0  0  0
 23 24  1  0  0  0  0
 24 25  1  0  0  0  0
 24 29  2  0  0  0  0
 25 26  2  0  0  0  0
 25 54  1  0  0  0  0
 26 27  1  0  0  0  0
 26 55  1  0  0  0  0
 27 28  2  0  0  0  0
 27 56  1  0  0  0  0
 28 29  1  0  0  0  0
 28 57  1  0  0  0  0
 29 30  1  0  0  0  0
 30 31  1  0  0  0  0
 31 32  1  0  0  0  0
 31 41  2  0  0  0  0
 32 33  2  0  0  0  0
 32 58  1  0  0  0  0
 33 34  1  0  0  0  0
 33 39  1  0  0  0  0
 34 35  1  0  0  0  0
 34 59  1  0  0  0  0
 35 36  1  0  0  0  0
 35 60  1  0  0  0  0
 35 61  1  0  0  0  0
 36 37  1  0  0  0  0
 36 62  1  0  0  0  0
 36 63  1  0  0  0  0
 37 38  1  0  0  0  0
 37 64  1  0  0  0  0
 37 65  1  0  0  0  0
 38 66  1  0  0  0  0
 38 67  1  0  0  0  0
 39 40  2  0  0  0  0
 40 41  1  0  0  0  0
 40 68  1  0  0  0  0
M  END
$$$$
