CHEMBL3660292
 OpenBabel04072215373D

 64 68  0  0  1  0  0  0  0  0999 V2000
    2.8787    7.1165    2.5120 C   0  0  0  0  0  0  0  0  0  0  0  0
    1.7500    6.1471    2.3110 C   0  0  0  0  0  0  0  0  0  0  0  0
    2.0242    4.8342    1.9160 C   0  0  0  0  0  0  0  0  0  0  0  0
    0.9861    3.9248    1.7642 C   0  0  0  0  0  0  0  0  0  0  0  0
   -0.3295    4.3227    1.9859 C   0  0  0  0  0  0  0  0  0  0  0  0
   -1.2473    3.3486    1.9569 F   0  0  0  0  0  0  0  0  0  0  0  0
   -0.6506    5.6509    2.3181 C   0  0  0  0  0  0  0  0  0  0  0  0
   -1.9720    6.1506    2.4676 N   0  0  0  0  0  0  0  0  0  0  0  0
   -3.1056    5.5598    1.9426 C   0  0  0  0  0  0  0  0  0  0  0  0
   -3.1130    4.5517    1.2422 O   0  0  0  0  0  0  0  0  0  0  0  0
   -4.2664    6.2693    2.2238 N   0  0  0  0  0  0  0  0  0  0  0  0
   -5.5100    5.7089    1.8299 C   0  0  0  0  0  0  0  0  0  0  0  0
   -5.8248    4.3869    2.1656 C   0  0  0  0  0  0  0  0  0  0  0  0
   -6.9863    3.7887    1.6770 C   0  0  0  0  0  0  0  0  0  0  0  0
   -7.8722    4.5270    0.8919 C   0  0  0  0  0  0  0  0  0  0  0  0
   -9.0356    4.0196    0.3555 O   0  0  0  0  0  0  0  0  0  0  0  0
   -9.7368    3.0581    1.0471 C   0  0  0  0  0  0  0  0  0  0  0  0
   -9.8689    3.0366    2.4326 C   0  0  0  0  0  0  0  0  0  0  0  0
  -10.5782    1.9956    3.0029 C   0  0  0  0  0  0  0  0  0  0  0  0
  -11.1936    1.0269    2.2925 N   0  0  0  0  0  0  0  0  0  0  0  0
  -11.1044    1.1085    0.9418 C   0  0  0  0  0  0  0  0  0  0  0  0
  -11.8326    0.0648    0.2325 C   0  0  0  0  0  0  0  0  0  0  0  0
  -12.0249   -0.1803   -1.1135 C   0  0  0  0  0  0  0  0  0  0  0  0
  -12.8134   -1.3648   -1.2708 C   0  0  0  0  0  0  0  0  0  0  0  0
  -13.1696   -1.9440   -2.5648 C   0  0  0  0  0  0  0  0  0  0  0  0
  -13.2272   -1.2298   -3.5670 O   0  0  0  0  0  0  0  0  0  0  0  0
  -13.3471   -3.3146   -2.6698 N   0  0  0  0  0  0  0  0  0  0  0  0
  -13.4959   -3.9269   -3.9793 C   0  0  0  0  0  0  0  0  0  0  0  0
  -13.7013   -5.4123   -3.7114 C   0  0  0  0  0  0  0  0  0  0  0  0
  -13.0228   -5.6274   -2.3651 C   0  0  1  0  0  0  0  0  0  0  0  0
  -11.6196   -5.8141   -2.5491 O   0  0  0  0  0  0  0  0  0  0  0  0
  -13.2972   -4.3244   -1.6201 C   0  0  0  0  0  0  0  0  0  0  0  0
  -13.1418   -1.7581    0.0152 C   0  0  0  0  0  0  0  0  0  0  0  0
  -12.5089   -0.9271    0.9029 N   0  0  0  0  0  0  0  0  0  0  0  0
  -10.3911    2.0985    0.2822 C   0  0  0  0  0  0  0  0  0  0  0  0
   -7.5586    5.8474    0.5535 C   0  0  0  0  0  0  0  0  0  0  0  0
   -6.3930    6.4490    1.0413 C   0  0  0  0  0  0  0  0  0  0  0  0
    0.4129    6.5475    2.5111 C   0  0  0  0  0  0  0  0  0  0  0  0
    3.8486    6.6404    2.3282 H   0  0  0  0  0  0  0  0  0  0  0  0
    2.8814    7.4851    3.5422 H   0  0  0  0  0  0  0  0  0  0  0  0
    2.7846    7.9589    1.8204 H   0  0  0  0  0  0  0  0  0  0  0  0
    3.0461    4.5033    1.7443 H   0  0  0  0  0  0  0  0  0  0  0  0
    1.1836    2.8933    1.4892 H   0  0  0  0  0  0  0  0  0  0  0  0
   -2.0787    7.0758    2.8571 H   0  0  0  0  0  0  0  0  0  0  0  0
   -4.1784    7.2678    2.1042 H   0  0  0  0  0  0  0  0  0  0  0  0
   -5.1502    3.8004    2.7842 H   0  0  0  0  0  0  0  0  0  0  0  0
   -7.1675    2.7432    1.9073 H   0  0  0  0  0  0  0  0  0  0  0  0
   -9.4188    3.7939    3.0620 H   0  0  0  0  0  0  0  0  0  0  0  0
  -10.6704    1.9120    4.0819 H   0  0  0  0  0  0  0  0  0  0  0  0
  -11.6275    0.4089   -1.9316 H   0  0  0  0  0  0  0  0  0  0  0  0
  -12.5764   -3.7466   -4.5481 H   0  0  0  0  0  0  0  0  0  0  0  0
  -14.3348   -3.4777   -4.5210 H   0  0  0  0  0  0  0  0  0  0  0  0
  -13.2788   -6.0267   -4.5120 H   0  0  0  0  0  0  0  0  0  0  0  0
  -14.7730   -5.6235   -3.6270 H   0  0  0  0  0  0  0  0  0  0  0  0
  -13.4084   -6.4988   -1.8296 H   0  0  0  0  0  0  0  0  0  0  0  0
  -11.2333   -4.9521   -2.7905 H   0  0  0  0  0  0  0  0  0  0  0  0
  -12.5171   -4.1043   -0.8891 H   0  0  0  0  0  0  0  0  0  0  0  0
  -14.2855   -4.3399   -1.1478 H   0  0  0  0  0  0  0  0  0  0  0  0
  -13.7576   -2.5636    0.3924 H   0  0  0  0  0  0  0  0  0  0  0  0
  -12.5287   -0.9931    1.9137 H   0  0  0  0  0  0  0  0  0  0  0  0
  -10.3357    2.1310   -0.7994 H   0  0  0  0  0  0  0  0  0  0  0  0
   -8.2126    6.3996   -0.1161 H   0  0  0  0  0  0  0  0  0  0  0  0
   -6.1524    7.4623    0.7325 H   0  0  0  0  0  0  0  0  0  0  0  0
    0.2138    7.5784    2.7959 H   0  0  0  0  0  0  0  0  0  0  0  0
  1  2  1  0  0  0  0
  1 39  1  0  0  0  0
  1 40  1  0  0  0  0
  1 41  1  0  0  0  0
  2  3  1  0  0  0  0
  2 38  2  0  0  0  0
  3  4  2  0  0  0  0
  3 42  1  0  0  0  0
  4  5  1  0  0  0  0
  4 43  1  0  0  0  0
  5  6  1  0  0  0  0
  5  7  2  0  0  0  0
  7  8  1  0  0  0  0
  7 38  1  0  0  0  0
  8  9  1  0  0  0  0
  8 44  1  0  0  0  0
  9 10  2  0  0  0  0
  9 11  1  0  0  0  0
 11 12  1  0  0  0  0
 11 45  1  0  0  0  0
 12 13  1  0  0  0  0
 12 37  2  0  0  0  0
 13 14  2  0  0  0  0
 13 46  1  0  0  0  0
 14 15  1  0  0  0  0
 14 47  1  0  0  0  0
 15 16  1  0  0  0  0
 15 36  2  0  0  0  0
 16 17  1  0  0  0  0
 17 18  1  0  0  0  0
 17 35  2  0  0  0  0
 18 19  2  0  0  0  0
 18 48  1  0  0  0  0
 19 20  1  0  0  0  0
 19 49  1  0  0  0  0
 20 21  2  0  0  0  0
 21 22  1  0  0  0  0
 21 35  1  0  0  0  0
 22 23  2  0  0  0  0
 22 34  1  0  0  0  0
 23 24  1  0  0  0  0
 23 50  1  0  0  0  0
 24 25  1  0  0  0  0
 24 33  2  0  0  0  0
 25 26  2  0  0  0  0
 25 27  1  0  0  0  0
 27 28  1  0  0  0  0
 27 32  1  0  0  0  0
 28 29  1  0  0  0  0
 28 51  1  0  0  0  0
 28 52  1  0  0  0  0
 29 30  1  0  0  0  0
 29 53  1  0  0  0  0
 29 54  1  0  0  0  0
 30 31  1  0  0  0  0
 30 32  1  0  0  0  0
 30 55  1  1  0  0  0
 31 56  1  0  0  0  0
 32 57  1  0  0  0  0
 32 58  1  0  0  0  0
 33 34  1  0  0  0  0
 33 59  1  0  0  0  0
 34 60  1  0  0  0  0
 35 61  1  0  0  0  0
 36 37  1  0  0  0  0
 36 62  1  0  0  0  0
 37 63  1  0  0  0  0
 38 64  1  0  0  0  0
M  END
$$$$
