CHEMBL599248
 OpenBabel04072215383D

 33 36  0  0  0  0  0  0  0  0999 V2000
    1.6395   -0.6744   -0.7113 C   0  0  0  0  0  0  0  0  0  0  0  0
    2.8276   -0.2274   -0.0640 O   0  0  0  0  0  0  0  0  0  0  0  0
    3.3980   -1.0802    0.8451 C   0  0  0  0  0  0  0  0  0  0  0  0
    3.0417   -2.3866    1.0852 C   0  0  0  0  0  0  0  0  0  0  0  0
    3.7011   -3.1257    2.0897 C   0  0  0  0  0  0  0  0  0  0  0  0
    4.6705   -2.5371    2.9079 C   0  0  0  0  0  0  0  0  0  0  0  0
    4.9855   -1.1921    2.6840 C   0  0  0  0  0  0  0  0  0  0  0  0
    4.4115   -0.4880    1.6035 C   0  0  0  0  0  0  0  0  0  0  0  0
    5.7840   -0.4367    3.5599 N   0  0  0  0  0  0  0  0  0  0  0  0
    5.7612   -0.5195    4.9147 C   0  0  0  0  0  0  0  0  0  0  0  0
    6.5191    0.1819    5.5505 O   0  0  0  0  0  0  0  0  0  0  0  0
    4.7498   -1.3885    5.6023 C   0  0  0  0  0  0  0  0  0  0  0  0
    5.0354   -2.8127    5.2967 C   0  0  0  0  0  0  0  0  0  0  0  0
    5.2091   -3.7977    6.4205 C   0  0  0  0  0  0  0  0  0  0  0  0
    5.3717   -5.0785    6.2860 N   0  0  0  0  0  0  0  0  0  0  0  0
    5.6404   -5.4957    5.0143 C   0  0  0  0  0  0  0  0  0  0  0  0
    5.9162   -6.7312    4.4765 C   0  0  0  0  0  0  0  0  0  0  0  0
    6.6894   -6.4026    3.3559 C   0  0  0  0  0  0  0  0  0  0  0  0
    6.4718   -5.1533    2.9346 N   0  0  0  0  0  0  0  0  0  0  0  0
    5.7125   -4.6017    3.9341 N   0  0  0  0  0  0  0  0  0  0  0  0
    5.1947   -3.3093    4.0614 C   0  0  0  0  0  0  0  0  0  0  0  0
    1.2785    0.1434   -1.3415 H   0  0  0  0  0  0  0  0  0  0  0  0
    0.8537   -0.9093    0.0123 H   0  0  0  0  0  0  0  0  0  0  0  0
    1.8520   -1.5303   -1.3608 H   0  0  0  0  0  0  0  0  0  0  0  0
    2.2497   -2.8841    0.5255 H   0  0  0  0  0  0  0  0  0  0  0  0
    3.3834   -4.1497    2.2671 H   0  0  0  0  0  0  0  0  0  0  0  0
    4.6643    0.5561    1.4299 H   0  0  0  0  0  0  0  0  0  0  0  0
    6.2740    0.3769    3.1956 H   0  0  0  0  0  0  0  0  0  0  0  0
    3.7301   -1.1105    5.2928 H   0  0  0  0  0  0  0  0  0  0  0  0
    4.8079   -1.2028    6.6872 H   0  0  0  0  0  0  0  0  0  0  0  0
    5.1208   -3.3812    7.4348 H   0  0  0  0  0  0  0  0  0  0  0  0
    5.7996   -7.6947    4.9611 H   0  0  0  0  0  0  0  0  0  0  0  0
    7.4009   -7.0229    2.8308 H   0  0  0  0  0  0  0  0  0  0  0  0
  1  2  1  0  0  0  0
  1 22  1  0  0  0  0
  1 23  1  0  0  0  0
  1 24  1  0  0  0  0
  2  3  1  0  0  0  0
  3  4  1  0  0  0  0
  3  8  2  0  0  0  0
  4  5  2  0  0  0  0
  4 25  1  0  0  0  0
  5  6  1  0  0  0  0
  5 26  1  0  0  0  0
  6  7  2  0  0  0  0
  6 21  1  0  0  0  0
  7  8  1  0  0  0  0
  7  9  1  0  0  0  0
  8 27  1  0  0  0  0
  9 10  1  0  0  0  0
  9 28  1  0  0  0  0
 10 11  2  0  0  0  0
 10 12  1  0  0  0  0
 12 13  1  0  0  0  0
 12 29  1  0  0  0  0
 12 30  1  0  0  0  0
 13 14  1  0  0  0  0
 13 21  2  0  0  0  0
 14 15  2  0  0  0  0
 14 31  1  0  0  0  0
 15 16  1  0  0  0  0
 16 17  2  0  0  0  0
 16 20  1  0  0  0  0
 17 18  1  0  0  0  0
 17 32  1  0  0  0  0
 18 19  2  0  0  0  0
 18 33  1  0  0  0  0
 19 20  1  0  0  0  0
 20 21  1  0  0  0  0
M  END
$$$$
