CHEMBL3287312
 OpenBabel04072215363D

 71 75  0  0  0  0  0  0  0  0999 V2000
    8.8849    3.4287    2.2852 C   0  0  0  0  0  0  0  0  0  0  0  0
    7.4992    3.1016    2.3404 O   0  0  0  0  0  0  0  0  0  0  0  0
    7.1790    1.9364    2.9808 C   0  0  0  0  0  0  0  0  0  0  0  0
    8.0894    1.0637    3.5679 C   0  0  0  0  0  0  0  0  0  0  0  0
    7.6463   -0.0964    4.2082 C   0  0  0  0  0  0  0  0  0  0  0  0
    6.2905   -0.4122    4.2667 C   0  0  0  0  0  0  0  0  0  0  0  0
    5.8032   -1.5784    4.8885 N   0  0  0  0  0  0  0  0  0  0  0  0
    6.5468   -2.5244    5.5720 C   0  0  0  0  0  0  0  0  0  0  0  0
    7.7482   -2.5208    5.7956 O   0  0  0  0  0  0  0  0  0  0  0  0
    5.7311   -3.6668    6.0877 C   0  0  0  0  0  0  0  0  0  0  0  0
    4.6601   -3.2860    7.0486 C   0  0  0  0  0  0  0  0  0  0  0  0
    3.5739   -3.0079    6.5566 O   0  0  0  0  0  0  0  0  0  0  0  0
    5.0213   -3.1689    8.3821 N   0  0  0  0  0  0  0  0  0  0  0  0
    4.1300   -2.7519    9.4053 C   0  0  0  0  0  0  0  0  0  0  0  0
    2.7460   -2.7683    9.2169 C   0  0  0  0  0  0  0  0  0  0  0  0
    1.8718   -2.2484   10.1698 C   0  0  0  0  0  0  0  0  0  0  0  0
    2.3547   -1.7661   11.3834 C   0  0  0  0  0  0  0  0  0  0  0  0
    1.5387   -1.2011   12.3444 O   0  0  0  0  0  0  0  0  0  0  0  0
    0.2626   -1.7317   12.5042 C   0  0  0  0  0  0  0  0  0  0  0  0
   -0.7283   -0.9076   12.9677 C   0  0  0  0  0  0  0  0  0  0  0  0
   -1.9637   -1.4992   13.0856 C   0  0  0  0  0  0  0  0  0  0  0  0
   -2.2150   -2.7894   12.7767 N   0  0  0  0  0  0  0  0  0  0  0  0
   -1.1727   -3.5229   12.3651 C   0  0  0  0  0  0  0  0  0  0  0  0
   -1.4050   -4.8586   12.0316 N   0  0  0  0  0  0  0  0  0  0  0  0
   -0.4750   -5.9119   12.0768 C   0  0  0  0  0  0  0  0  0  0  0  0
    0.6434   -5.8763   12.9181 C   0  0  0  0  0  0  0  0  0  0  0  0
    1.5907   -6.8954   12.9016 C   0  0  0  0  0  0  0  0  0  0  0  0
    1.4355   -7.9730   12.0357 C   0  0  0  0  0  0  0  0  0  0  0  0
    0.3139   -8.0604   11.1993 C   0  0  0  0  0  0  0  0  0  0  0  0
    0.1771   -9.1767   10.1962 C   0  0  0  0  0  0  0  0  0  0  0  0
    0.0315  -10.7890   10.9628 S   0  0  0  0  0  0  0  0  0  0  0  0
   -1.3782  -10.6598   12.0370 C   0  0  0  0  0  0  0  0  0  0  0  0
   -0.3302  -11.7232    9.9099 O   0  0  0  0  0  0  0  0  0  0  0  0
    1.1995  -11.0531   11.7825 O   0  0  0  0  0  0  0  0  0  0  0  0
   -0.6367   -7.0205   11.2331 C   0  0  0  0  0  0  0  0  0  0  0  0
    0.0630   -3.0288   12.2306 N   0  0  0  0  0  0  0  0  0  0  0  0
    3.7350   -1.7892   11.6002 C   0  0  0  0  0  0  0  0  0  0  0  0
    4.2371   -1.3104   12.7491 F   0  0  0  0  0  0  0  0  0  0  0  0
    4.6258   -2.2852   10.6281 C   0  0  0  0  0  0  0  0  0  0  0  0
    6.3326   -5.0669    6.1104 C   0  0  0  0  0  0  0  0  0  0  0  0
    5.3370   -4.7301    5.0484 C   0  0  0  0  0  0  0  0  0  0  0  0
    5.3731    0.4616    3.6724 C   0  0  0  0  0  0  0  0  0  0  0  0
    5.8178    1.6287    3.0353 C   0  0  0  0  0  0  0  0  0  0  0  0
    8.9825    4.4155    1.8243 H   0  0  0  0  0  0  0  0  0  0  0  0
    9.4293    2.7104    1.6623 H   0  0  0  0  0  0  0  0  0  0  0  0
    9.3228    3.4907    3.2878 H   0  0  0  0  0  0  0  0  0  0  0  0
    9.1583    1.2447    3.5533 H   0  0  0  0  0  0  0  0  0  0  0  0
    8.4029   -0.7357    4.6482 H   0  0  0  0  0  0  0  0  0  0  0  0
    4.7964   -1.7232    4.8621 H   0  0  0  0  0  0  0  0  0  0  0  0
    6.0088   -3.2273    8.6087 H   0  0  0  0  0  0  0  0  0  0  0  0
    2.2944   -3.1904    8.3260 H   0  0  0  0  0  0  0  0  0  0  0  0
    0.8113   -2.2487    9.9372 H   0  0  0  0  0  0  0  0  0  0  0  0
   -0.5557    0.1302   13.2102 H   0  0  0  0  0  0  0  0  0  0  0  0
   -2.8224   -0.9368   13.4427 H   0  0  0  0  0  0  0  0  0  0  0  0
   -2.3618   -5.1067   12.2370 H   0  0  0  0  0  0  0  0  0  0  0  0
    0.7989   -5.0400   13.5957 H   0  0  0  0  0  0  0  0  0  0  0  0
    2.4598   -6.8319   13.5512 H   0  0  0  0  0  0  0  0  0  0  0  0
    2.2139   -8.7344   12.0155 H   0  0  0  0  0  0  0  0  0  0  0  0
    1.0475   -9.2007    9.5325 H   0  0  0  0  0  0  0  0  0  0  0  0
   -0.7167   -9.0466    9.5766 H   0  0  0  0  0  0  0  0  0  0  0  0
   -2.2351  -10.3192   11.4529 H   0  0  0  0  0  0  0  0  0  0  0  0
   -1.1572   -9.9700   12.8519 H   0  0  0  0  0  0  0  0  0  0  0  0
   -1.5802  -11.6551   12.4407 H   0  0  0  0  0  0  0  0  0  0  0  0
   -1.4824   -7.0355   10.5475 H   0  0  0  0  0  0  0  0  0  0  0  0
    5.6873   -2.2566   10.8458 H   0  0  0  0  0  0  0  0  0  0  0  0
    6.0252   -5.7609    6.8832 H   0  0  0  0  0  0  0  0  0  0  0  0
    7.3646   -5.1903    5.7955 H   0  0  0  0  0  0  0  0  0  0  0  0
    4.3469   -5.1711    5.1164 H   0  0  0  0  0  0  0  0  0  0  0  0
    5.6850   -4.6021    4.0290 H   0  0  0  0  0  0  0  0  0  0  0  0
    4.3049    0.2585    3.6974 H   0  0  0  0  0  0  0  0  0  0  0  0
    5.0971    2.3031    2.5782 H   0  0  0  0  0  0  0  0  0  0  0  0
  1  2  1  0  0  0  0
  1 44  1  0  0  0  0
  1 45  1  0  0  0  0
  1 46  1  0  0  0  0
  2  3  1  0  0  0  0
  3  4  1  0  0  0  0
  3 43  2  0  0  0  0
  4  5  2  0  0  0  0
  4 47  1  0  0  0  0
  5  6  1  0  0  0  0
  5 48  1  0  0  0  0
  6  7  1  0  0  0  0
  6 42  2  0  0  0  0
  7  8  1  0  0  0  0
  7 49  1  0  0  0  0
  8  9  2  0  0  0  0
  8 10  1  0  0  0  0
 10 11  1  0  0  0  0
 10 40  1  0  0  0  0
 10 41  1  0  0  0  0
 11 12  2  0  0  0  0
 11 13  1  0  0  0  0
 13 14  1  0  0  0  0
 13 50  1  0  0  0  0
 14 15  1  0  0  0  0
 14 39  2  0  0  0  0
 15 16  2  0  0  0  0
 15 51  1  0  0  0  0
 16 17  1  0  0  0  0
 16 52  1  0  0  0  0
 17 18  1  0  0  0  0
 17 37  2  0  0  0  0
 18 19  1  0  0  0  0
 19 20  1  0  0  0  0
 19 36  2  0  0  0  0
 20 21  2  0  0  0  0
 20 53  1  0  0  0  0
 21 22  1  0  0  0  0
 21 54  1  0  0  0  0
 22 23  2  0  0  0  0
 23 24  1  0  0  0  0
 23 36  1  0  0  0  0
 24 25  1  0  0  0  0
 24 55  1  0  0  0  0
 25 26  1  0  0  0  0
 25 35  2  0  0  0  0
 26 27  2  0  0  0  0
 26 56  1  0  0  0  0
 27 28  1  0  0  0  0
 27 57  1  0  0  0  0
 28 29  2  0  0  0  0
 28 58  1  0  0  0  0
 29 30  1  0  0  0  0
 29 35  1  0  0  0  0
 30 31  1  0  0  0  0
 30 59  1  0  0  0  0
 30 60  1  0  0  0  0
 31 32  1  0  0  0  0
 31 33  2  0  0  0  0
 31 34  2  0  0  0  0
 32 61  1  0  0  0  0
 32 62  1  0  0  0  0
 32 63  1  0  0  0  0
 35 64  1  0  0  0  0
 37 38  1  0  0  0  0
 37 39  1  0  0  0  0
 39 65  1  0  0  0  0
 40 41  1  0  0  0  0
 40 66  1  0  0  0  0
 40 67  1  0  0  0  0
 41 68  1  0  0  0  0
 41 69  1  0  0  0  0
 42 43  1  0  0  0  0
 42 70  1  0  0  0  0
 43 71  1  0  0  0  0
M  END
$$$$
