CHEMBL3979885
 OpenBabel04072215373D

 74 78  0  0  1  0  0  0  0  0999 V2000
    0.6744   -3.8426    0.9044 C   0  0  0  0  0  0  0  0  0  0  0  0
    2.0053   -3.9618    1.4161 O   0  0  0  0  0  0  0  0  0  0  0  0
    2.9460   -3.0709    0.9392 C   0  0  0  0  0  0  0  0  0  0  0  0
    2.6715   -2.1148   -0.0389 C   0  0  0  0  0  0  0  0  0  0  0  0
    3.6563   -1.2063   -0.4114 C   0  0  0  0  0  0  0  0  0  0  0  0
    3.5059   -0.2006   -1.3274 O   0  0  0  0  0  0  0  0  0  0  0  0
    2.2842   -0.1628   -2.0527 C   0  0  0  0  0  0  0  0  0  0  0  0
    4.9178   -1.2604    0.1944 C   0  0  0  0  0  0  0  0  0  0  0  0
    5.2532   -2.2199    1.1635 C   0  0  0  0  0  0  0  0  0  0  0  0
    6.4859   -2.1567    1.8757 N   0  0  0  0  0  0  0  0  0  0  0  0
    6.9995   -0.7447    2.1669 C   0  0  0  0  0  0  0  0  0  0  0  0
    6.0469    0.2159    2.9538 C   0  0  0  0  0  0  0  0  0  0  0  0
    6.5919    1.5868    3.1636 N   0  0  0  0  0  0  0  0  0  0  0  0
    6.7869    2.4402    2.1125 C   0  0  0  0  0  0  0  0  0  0  0  0
    6.6223    2.0961    0.9421 O   0  0  0  0  0  0  0  0  0  0  0  0
    7.2579    3.8754    2.4272 C   0  0  3  0  0  0  0  0  0  0  0  0
    6.1833    4.6988    3.1409 C   0  0  0  0  0  0  0  0  0  0  0  0
    6.5948    6.1701    3.2578 C   0  0  0  0  0  0  0  0  0  0  0  0
    6.9897    6.7649    1.9063 C   0  0  0  0  0  0  0  0  0  0  0  0
    8.0666    5.9806    1.2900 N   0  0  0  0  0  0  0  0  0  0  0  0
    8.4338    6.5670   -0.0051 C   0  0  0  0  0  0  0  0  0  0  0  0
    7.6544    4.5754    1.1049 C   0  0  0  0  0  0  0  0  0  0  0  0
    7.5741   -3.0994    1.9548 C   0  0  0  0  0  0  0  0  0  0  0  0
    8.1334   -3.1932    3.2256 C   0  0  0  0  0  0  0  0  0  0  0  0
    9.4344   -3.6133    3.3849 C   0  0  0  0  0  0  0  0  0  0  0  0
   10.1900   -4.0952    2.3457 C   0  0  0  0  0  0  0  0  0  0  0  0
   11.4615   -4.2820    2.7239 N   0  0  0  0  0  0  0  0  0  0  0  0
   12.2650   -4.8794    1.8422 C   0  0  0  0  0  0  0  0  0  0  0  0
   11.8182   -5.3441    0.6278 C   0  0  0  0  0  0  0  0  0  0  0  0
   12.8072   -6.1766   -0.0866 C   0  0  0  0  0  0  0  0  0  0  0  0
   13.0634   -7.5828    0.0141 C   0  0  0  0  0  0  0  0  0  0  0  0
   14.2689   -7.9458   -0.4517 N   0  0  0  0  0  0  0  0  0  0  0  0
   14.8260   -6.7816   -0.8214 N   0  0  0  0  0  0  0  0  0  0  0  0
   16.0797   -6.7563   -1.5432 C   0  0  0  0  0  0  0  0  0  0  0  0
   14.0593   -5.6994   -0.4751 C   0  0  0  0  0  0  0  0  0  0  0  0
   10.5191   -5.0712    0.1911 N   0  0  0  0  0  0  0  0  0  0  0  0
    9.6412   -4.3525    1.0682 C   0  0  0  0  0  0  0  0  0  0  0  0
    8.2879   -3.7709    0.8963 C   0  0  0  0  0  0  0  0  0  0  0  0
    4.2338   -3.1338    1.5188 C   0  0  0  0  0  0  0  0  0  0  0  0
    0.0323   -4.5611    1.4250 H   0  0  0  0  0  0  0  0  0  0  0  0
    0.6375   -4.0859   -0.1645 H   0  0  0  0  0  0  0  0  0  0  0  0
    0.2545   -2.8451    1.0883 H   0  0  0  0  0  0  0  0  0  0  0  0
    1.6938   -2.0633   -0.4985 H   0  0  0  0  0  0  0  0  0  0  0  0
    2.3501    0.6558   -2.7750 H   0  0  0  0  0  0  0  0  0  0  0  0
    1.4376    0.0454   -1.3897 H   0  0  0  0  0  0  0  0  0  0  0  0
    2.1288   -1.0911   -2.6126 H   0  0  0  0  0  0  0  0  0  0  0  0
    5.6393   -0.5027   -0.1014 H   0  0  0  0  0  0  0  0  0  0  0  0
    7.3429   -0.2961    1.2312 H   0  0  0  0  0  0  0  0  0  0  0  0
    7.9021   -0.7899    2.7912 H   0  0  0  0  0  0  0  0  0  0  0  0
    5.8448   -0.1955    3.9507 H   0  0  0  0  0  0  0  0  0  0  0  0
    5.0827    0.3377    2.4500 H   0  0  0  0  0  0  0  0  0  0  0  0
    6.5458    1.9739    4.1038 H   0  0  0  0  0  0  0  0  0  0  0  0
    8.1483    3.8015    3.0664 H   0  0  0  0  0  0  0  0  0  0  0  0
    5.9878    4.2969    4.1409 H   0  0  0  0  0  0  0  0  0  0  0  0
    5.2380    4.6348    2.5869 H   0  0  0  0  0  0  0  0  0  0  0  0
    7.4371    6.2627    3.9554 H   0  0  0  0  0  0  0  0  0  0  0  0
    5.7681    6.7526    3.6815 H   0  0  0  0  0  0  0  0  0  0  0  0
    7.3282    7.7970    2.0670 H   0  0  0  0  0  0  0  0  0  0  0  0
    6.1096    6.8133    1.2511 H   0  0  0  0  0  0  0  0  0  0  0  0
    8.7756    7.6011    0.1185 H   0  0  0  0  0  0  0  0  0  0  0  0
    7.5960    6.5671   -0.7126 H   0  0  0  0  0  0  0  0  0  0  0  0
    9.2642    6.0141   -0.4576 H   0  0  0  0  0  0  0  0  0  0  0  0
    8.4867    4.0181    0.6542 H   0  0  0  0  0  0  0  0  0  0  0  0
    6.8173    4.5274    0.3934 H   0  0  0  0  0  0  0  0  0  0  0  0
    7.6096   -2.7900    4.0895 H   0  0  0  0  0  0  0  0  0  0  0  0
    9.8766   -3.5223    4.3672 H   0  0  0  0  0  0  0  0  0  0  0  0
   13.2946   -5.0031    2.1664 H   0  0  0  0  0  0  0  0  0  0  0  0
   12.4501   -8.3562    0.4602 H   0  0  0  0  0  0  0  0  0  0  0  0
   16.4278   -7.7757   -1.7357 H   0  0  0  0  0  0  0  0  0  0  0  0
   16.8292   -6.2090   -0.9647 H   0  0  0  0  0  0  0  0  0  0  0  0
   15.8963   -6.2510   -2.4956 H   0  0  0  0  0  0  0  0  0  0  0  0
   14.4716   -4.7011   -0.5179 H   0  0  0  0  0  0  0  0  0  0  0  0
    7.8494   -3.8088   -0.1006 H   0  0  0  0  0  0  0  0  0  0  0  0
    4.4106   -3.8603    2.3091 H   0  0  0  0  0  0  0  0  0  0  0  0
  1  2  1  0  0  0  0
  1 40  1  0  0  0  0
  1 41  1  0  0  0  0
  1 42  1  0  0  0  0
  2  3  1  0  0  0  0
  3  4  1  0  0  0  0
  3 39  2  0  0  0  0
  4  5  2  0  0  0  0
  4 43  1  0  0  0  0
  5  6  1  0  0  0  0
  5  8  1  0  0  0  0
  6  7  1  0  0  0  0
  7 44  1  0  0  0  0
  7 45  1  0  0  0  0
  7 46  1  0  0  0  0
  8  9  2  0  0  0  0
  8 47  1  0  0  0  0
  9 10  1  0  0  0  0
  9 39  1  0  0  0  0
 10 11  1  0  0  0  0
 10 23  1  0  0  0  0
 11 12  1  0  0  0  0
 11 48  1  0  0  0  0
 11 49  1  0  0  0  0
 12 13  1  0  0  0  0
 12 50  1  0  0  0  0
 12 51  1  0  0  0  0
 13 14  1  0  0  0  0
 13 52  1  0  0  0  0
 14 15  2  0  0  0  0
 14 16  1  0  0  0  0
 16 17  1  0  0  0  0
 16 22  1  0  0  0  0
 16 53  1  0  0  0  0
 17 18  1  0  0  0  0
 17 54  1  0  0  0  0
 17 55  1  0  0  0  0
 18 19  1  0  0  0  0
 18 56  1  0  0  0  0
 18 57  1  0  0  0  0
 19 20  1  0  0  0  0
 19 58  1  0  0  0  0
 19 59  1  0  0  0  0
 20 21  1  0  0  0  0
 20 22  1  0  0  0  0
 21 60  1  0  0  0  0
 21 61  1  0  0  0  0
 21 62  1  0  0  0  0
 22 63  1  0  0  0  0
 22 64  1  0  0  0  0
 23 24  1  0  0  0  0
 23 38  2  0  0  0  0
 24 25  2  0  0  0  0
 24 65  1  0  0  0  0
 25 26  1  0  0  0  0
 25 66  1  0  0  0  0
 26 27  1  0  0  0  0
 26 37  2  0  0  0  0
 27 28  2  0  0  0  0
 28 29  1  0  0  0  0
 28 67  1  0  0  0  0
 29 30  1  0  0  0  0
 29 36  2  0  0  0  0
 30 31  1  0  0  0  0
 30 35  2  0  0  0  0
 31 32  2  0  0  0  0
 31 68  1  0  0  0  0
 32 33  1  0  0  0  0
 33 34  1  0  0  0  0
 33 35  1  0  0  0  0
 34 69  1  0  0  0  0
 34 70  1  0  0  0  0
 34 71  1  0  0  0  0
 35 72  1  0  0  0  0
 36 37  1  0  0  0  0
 37 38  1  0  0  0  0
 38 73  1  0  0  0  0
 39 74  1  0  0  0  0
M  END
$$$$
