CHEMBL393636
 OpenBabel04072215373D

 27 29  0  0  0  0  0  0  0  0999 V2000
    1.4840    0.6513    0.1169 O   0  0  0  0  0  0  0  0  0  0  0  0
    2.6469    0.3016    0.0505 C   0  0  0  0  0  0  0  0  0  0  0  0
    3.7439    1.1446    0.0113 N   0  0  0  0  0  0  0  0  0  0  0  0
    4.9336    0.4291    0.0197 C   0  0  0  0  0  0  0  0  0  0  0  0
    6.2102    0.9542    0.0146 C   0  0  0  0  0  0  0  0  0  0  0  0
    7.2754    0.0500    0.0315 C   0  0  0  0  0  0  0  0  0  0  0  0
    7.0262   -1.3317    0.0501 C   0  0  0  0  0  0  0  0  0  0  0  0
    8.0537   -2.2304    0.0610 O   0  0  0  0  0  0  0  0  0  0  0  0
    5.7305   -1.8460    0.0582 C   0  0  0  0  0  0  0  0  0  0  0  0
    4.6802   -0.9459    0.0443 C   0  0  0  0  0  0  0  0  0  0  0  0
    3.2156   -1.1006    0.0539 C   0  0  0  0  0  0  0  0  0  0  0  0
    2.5915   -2.2907    0.0336 C   0  0  0  0  0  0  0  0  0  0  0  0
    1.1955   -2.5330   -0.0107 C   0  0  0  0  0  0  0  0  0  0  0  0
    0.4719   -3.6119   -0.4885 C   0  0  0  0  0  0  0  0  0  0  0  0
   -0.9043   -3.3429   -0.2884 C   0  0  0  0  0  0  0  0  0  0  0  0
   -0.9915   -2.1220    0.3354 C   0  0  0  0  0  0  0  0  0  0  0  0
    0.2821   -1.6459    0.5084 N   0  0  0  0  0  0  0  0  0  0  0  0
    3.6545    2.1494    0.0054 H   0  0  0  0  0  0  0  0  0  0  0  0
    6.3855    2.0234    0.0027 H   0  0  0  0  0  0  0  0  0  0  0  0
    8.2922    0.4322    0.0306 H   0  0  0  0  0  0  0  0  0  0  0  0
    8.8964   -1.7480    0.0385 H   0  0  0  0  0  0  0  0  0  0  0  0
    5.5701   -2.9181    0.0750 H   0  0  0  0  0  0  0  0  0  0  0  0
    3.2045   -3.1896    0.0043 H   0  0  0  0  0  0  0  0  0  0  0  0
    0.8895   -4.4920   -0.9605 H   0  0  0  0  0  0  0  0  0  0  0  0
   -1.7400   -3.9664   -0.5772 H   0  0  0  0  0  0  0  0  0  0  0  0
   -1.8411   -1.5355    0.6575 H   0  0  0  0  0  0  0  0  0  0  0  0
    0.5066   -0.7316    0.8875 H   0  0  0  0  0  0  0  0  0  0  0  0
  1  2  2  0  0  0  0
  2  3  1  0  0  0  0
  2 11  1  0  0  0  0
  3  4  1  0  0  0  0
  3 18  1  0  0  0  0
  4  5  1  0  0  0  0
  4 10  2  0  0  0  0
  5  6  2  0  0  0  0
  5 19  1  0  0  0  0
  6  7  1  0  0  0  0
  6 20  1  0  0  0  0
  7  8  1  0  0  0  0
  7  9  2  0  0  0  0
  8 21  1  0  0  0  0
  9 10  1  0  0  0  0
  9 22  1  0  0  0  0
 10 11  1  0  0  0  0
 11 12  2  0  0  0  0
 12 13  1  0  0  0  0
 12 23  1  0  0  0  0
 13 14  2  0  0  0  0
 13 17  1  0  0  0  0
 14 15  1  0  0  0  0
 14 24  1  0  0  0  0
 15 16  2  0  0  0  0
 15 25  1  0  0  0  0
 16 17  1  0  0  0  0
 16 26  1  0  0  0  0
 17 27  1  0  0  0  0
M  END
$$$$
