CHEMBL3633764
 OpenBabel04072215373D

 50 52  0  0  0  0  0  0  0  0999 V2000
    2.7108    0.4183    1.4778 C   0  0  0  0  0  0  0  0  0  0  0  0
    2.4197    0.0355    0.1388 O   0  0  0  0  0  0  0  0  0  0  0  0
    3.0611   -1.0365   -0.4120 C   0  0  0  0  0  0  0  0  0  0  0  0
    4.2352   -1.5894    0.1101 C   0  0  0  0  0  0  0  0  0  0  0  0
    4.8295   -2.7207   -0.4302 C   0  0  0  0  0  0  0  0  0  0  0  0
    5.9277   -3.1912    0.1657 N   0  0  0  0  0  0  0  0  0  0  0  0
    6.4787   -4.2822   -0.3701 C   0  0  0  0  0  0  0  0  0  0  0  0
    6.0472   -4.9204   -1.4563 N   0  0  0  0  0  0  0  0  0  0  0  0
    4.9473   -4.4323   -2.0625 C   0  0  0  0  0  0  0  0  0  0  0  0
    4.5031   -5.0566   -3.2621 N   0  0  0  0  0  0  0  0  0  0  0  0
    5.0234   -6.2853   -3.7348 C   0  0  0  0  0  0  0  0  0  0  0  0
    5.0978   -7.3986   -2.8838 C   0  0  0  0  0  0  0  0  0  0  0  0
    5.6877   -8.5889   -3.3071 C   0  0  0  0  0  0  0  0  0  0  0  0
    6.1997   -8.6856   -4.5961 C   0  0  0  0  0  0  0  0  0  0  0  0
    6.1004   -7.5947   -5.4607 C   0  0  0  0  0  0  0  0  0  0  0  0
    6.8117   -7.7262   -7.2085 Br  0  0  0  0  0  0  0  0  0  0  0  0
    5.5075   -6.4005   -5.0407 C   0  0  0  0  0  0  0  0  0  0  0  0
    4.2585   -3.3145   -1.5607 C   0  0  0  0  0  0  0  0  0  0  0  0
    3.0736   -2.7662   -2.1042 C   0  0  0  0  0  0  0  0  0  0  0  0
    2.5009   -1.6141   -1.5593 C   0  0  0  0  0  0  0  0  0  0  0  0
    1.3601   -1.1973   -2.1952 O   0  0  0  0  0  0  0  0  0  0  0  0
    1.2980    0.2056   -2.4696 C   0  0  0  0  0  0  0  0  0  0  0  0
    0.1711    0.4703   -3.4743 C   0  0  0  0  0  0  0  0  0  0  0  0
   -1.1728   -0.0398   -2.9463 C   0  0  0  0  0  0  0  0  0  0  0  0
   -2.3460    0.3415   -3.8451 C   0  0  0  0  0  0  0  0  0  0  0  0
   -3.6541   -0.1935   -3.2950 C   0  0  0  0  0  0  0  0  0  0  0  0
   -3.7722   -0.7934   -2.2290 O   0  0  0  0  0  0  0  0  0  0  0  0
   -4.7371    0.0542   -4.1045 N   0  0  0  0  0  0  0  0  0  0  0  0
   -5.9913   -0.3284   -3.5723 O   0  0  0  0  0  0  0  0  0  0  0  0
    3.3020    1.3388    1.4652 H   0  0  0  0  0  0  0  0  0  0  0  0
    3.2132   -0.3425    2.0802 H   0  0  0  0  0  0  0  0  0  0  0  0
    1.7592    0.6305    1.9742 H   0  0  0  0  0  0  0  0  0  0  0  0
    4.7343   -1.1466    0.9664 H   0  0  0  0  0  0  0  0  0  0  0  0
    7.3603   -4.6823    0.1175 H   0  0  0  0  0  0  0  0  0  0  0  0
    4.4518   -4.3567   -3.9955 H   0  0  0  0  0  0  0  0  0  0  0  0
    4.7131   -7.3257   -1.8692 H   0  0  0  0  0  0  0  0  0  0  0  0
    5.7593   -9.4276   -2.6187 H   0  0  0  0  0  0  0  0  0  0  0  0
    6.6817   -9.6059   -4.9138 H   0  0  0  0  0  0  0  0  0  0  0  0
    5.4573   -5.5575   -5.7227 H   0  0  0  0  0  0  0  0  0  0  0  0
    2.5843   -3.2420   -2.9515 H   0  0  0  0  0  0  0  0  0  0  0  0
    2.2484    0.5585   -2.8888 H   0  0  0  0  0  0  0  0  0  0  0  0
    1.0668    0.7671   -1.5605 H   0  0  0  0  0  0  0  0  0  0  0  0
    0.3973   -0.0299   -4.4234 H   0  0  0  0  0  0  0  0  0  0  0  0
    0.1160    1.5476   -3.6712 H   0  0  0  0  0  0  0  0  0  0  0  0
   -1.3436    0.3600   -1.9390 H   0  0  0  0  0  0  0  0  0  0  0  0
   -1.1369   -1.1320   -2.8493 H   0  0  0  0  0  0  0  0  0  0  0  0
   -2.1992   -0.0623   -4.8532 H   0  0  0  0  0  0  0  0  0  0  0  0
   -2.4254    1.4325   -3.9177 H   0  0  0  0  0  0  0  0  0  0  0  0
   -4.7468    0.7680   -4.8242 H   0  0  0  0  0  0  0  0  0  0  0  0
   -5.7370   -0.7494   -2.7203 H   0  0  0  0  0  0  0  0  0  0  0  0
  1  2  1  0  0  0  0
  1 30  1  0  0  0  0
  1 31  1  0  0  0  0
  1 32  1  0  0  0  0
  2  3  1  0  0  0  0
  3  4  1  0  0  0  0
  3 20  2  0  0  0  0
  4  5  2  0  0  0  0
  4 33  1  0  0  0  0
  5  6  1  0  0  0  0
  5 18  1  0  0  0  0
  6  7  2  0  0  0  0
  7  8  1  0  0  0  0
  7 34  1  0  0  0  0
  8  9  2  0  0  0  0
  9 10  1  0  0  0  0
  9 18  1  0  0  0  0
 10 11  1  0  0  0  0
 10 35  1  0  0  0  0
 11 12  1  0  0  0  0
 11 17  2  0  0  0  0
 12 13  2  0  0  0  0
 12 36  1  0  0  0  0
 13 14  1  0  0  0  0
 13 37  1  0  0  0  0
 14 15  2  0  0  0  0
 14 38  1  0  0  0  0
 15 16  1  0  0  0  0
 15 17  1  0  0  0  0
 17 39  1  0  0  0  0
 18 19  2  0  0  0  0
 19 20  1  0  0  0  0
 19 40  1  0  0  0  0
 20 21  1  0  0  0  0
 21 22  1  0  0  0  0
 22 23  1  0  0  0  0
 22 41  1  0  0  0  0
 22 42  1  0  0  0  0
 23 24  1  0  0  0  0
 23 43  1  0  0  0  0
 23 44  1  0  0  0  0
 24 25  1  0  0  0  0
 24 45  1  0  0  0  0
 24 46  1  0  0  0  0
 25 26  1  0  0  0  0
 25 47  1  0  0  0  0
 25 48  1  0  0  0  0
 26 27  2  0  0  0  0
 26 28  1  0  0  0  0
 28 29  1  0  0  0  0
 28 49  1  0  0  0  0
 29 50  1  0  0  0  0
M  END
$$$$
