CHEMBL3925286
 OpenBabel04072215373D

 65 69  0  0  1  0  0  0  0  0999 V2000
    0.8628   -1.8835   -4.0863 C   0  0  0  0  0  0  0  0  0  0  0  0
    1.8643   -2.6955   -3.4706 O   0  0  0  0  0  0  0  0  0  0  0  0
    2.8493   -2.0337   -2.7704 C   0  0  0  0  0  0  0  0  0  0  0  0
    2.7076   -0.7373   -2.2636 C   0  0  0  0  0  0  0  0  0  0  0  0
    3.7324   -0.1795   -1.5028 C   0  0  0  0  0  0  0  0  0  0  0  0
    3.7157    1.0566   -0.9051 O   0  0  0  0  0  0  0  0  0  0  0  0
    2.5845    1.8880   -1.1838 C   0  0  0  0  0  0  0  0  0  0  0  0
    4.8914   -0.9271   -1.2565 C   0  0  0  0  0  0  0  0  0  0  0  0
    5.0828   -2.2316   -1.7414 C   0  0  0  0  0  0  0  0  0  0  0  0
    6.1901   -3.0197   -1.3341 N   0  0  0  0  0  0  0  0  0  0  0  0
    6.6994   -2.7857    0.0939 C   0  0  0  0  0  0  0  0  0  0  0  0
    5.6550   -3.0183    1.2392 C   0  0  0  0  0  0  0  0  0  0  0  0
    6.1426   -2.7585    2.6302 N   0  0  0  0  0  0  0  0  0  0  0  0
    5.0956   -3.0406    3.6372 C   0  0  0  0  0  0  0  0  0  0  0  0
    5.2969   -2.0590    4.7972 C   0  0  0  0  0  0  0  0  0  0  0  0
    6.4942   -1.2195    4.3945 C   0  0  3  0  0  0  0  0  0  0  0  0
    7.6723   -1.7510    5.0007 O   0  0  0  0  0  0  0  0  0  0  0  0
    6.5414   -1.3583    2.8684 C   0  0  0  0  0  0  0  0  0  0  0  0
    7.2433   -3.6076   -2.1316 C   0  0  0  0  0  0  0  0  0  0  0  0
    7.6681   -4.8568   -1.6708 C   0  0  0  0  0  0  0  0  0  0  0  0
    8.9441   -5.2930   -1.9433 C   0  0  0  0  0  0  0  0  0  0  0  0
    9.7894   -4.6019   -2.7702 C   0  0  0  0  0  0  0  0  0  0  0  0
   11.0371   -5.0674   -2.7354 N   0  0  0  0  0  0  0  0  0  0  0  0
   11.9003   -4.5551   -3.6142 C   0  0  0  0  0  0  0  0  0  0  0  0
   11.5196   -3.6544   -4.5855 C   0  0  0  0  0  0  0  0  0  0  0  0
   12.4896   -3.5024   -5.6776 C   0  0  0  0  0  0  0  0  0  0  0  0
   12.6011   -4.2420   -6.8928 C   0  0  0  0  0  0  0  0  0  0  0  0
   13.7893   -4.0957   -7.4963 N   0  0  0  0  0  0  0  0  0  0  0  0
   14.4648   -3.2865   -6.6641 N   0  0  0  0  0  0  0  0  0  0  0  0
   15.7364   -2.7213   -7.0552 C   0  0  0  0  0  0  0  0  0  0  0  0
   13.7885   -3.0409   -5.4989 C   0  0  0  0  0  0  0  0  0  0  0  0
   10.2565   -3.0836   -4.5599 N   0  0  0  0  0  0  0  0  0  0  0  0
    9.3490   -3.5143   -3.5651 C   0  0  0  0  0  0  0  0  0  0  0  0
    8.0345   -3.0028   -3.1596 C   0  0  0  0  0  0  0  0  0  0  0  0
    4.0289   -2.7723   -2.5077 C   0  0  0  0  0  0  0  0  0  0  0  0
    0.1711   -2.5362   -4.6298 H   0  0  0  0  0  0  0  0  0  0  0  0
    1.3149   -1.1977   -4.8109 H   0  0  0  0  0  0  0  0  0  0  0  0
    0.2622   -1.3341   -3.3525 H   0  0  0  0  0  0  0  0  0  0  0  0
    1.7938   -0.1815   -2.4247 H   0  0  0  0  0  0  0  0  0  0  0  0
    2.7631    2.8397   -0.7007 H   0  0  0  0  0  0  0  0  0  0  0  0
    1.6698    1.4516   -0.7610 H   0  0  0  0  0  0  0  0  0  0  0  0
    2.4816    2.0535   -2.2589 H   0  0  0  0  0  0  0  0  0  0  0  0
    5.6569   -0.4529   -0.6475 H   0  0  0  0  0  0  0  0  0  0  0  0
    7.1355   -1.7843    0.1530 H   0  0  0  0  0  0  0  0  0  0  0  0
    7.5282   -3.4683    0.3258 H   0  0  0  0  0  0  0  0  0  0  0  0
    5.3494   -4.0727    1.1957 H   0  0  0  0  0  0  0  0  0  0  0  0
    4.7530   -2.4244    1.0608 H   0  0  0  0  0  0  0  0  0  0  0  0
    5.1824   -4.0727    3.9940 H   0  0  0  0  0  0  0  0  0  0  0  0
    4.0842   -2.9062    3.2386 H   0  0  0  0  0  0  0  0  0  0  0  0
    5.4475   -2.5766    5.7510 H   0  0  0  0  0  0  0  0  0  0  0  0
    4.4094   -1.4204    4.8902 H   0  0  0  0  0  0  0  0  0  0  0  0
    6.3953   -0.1793    4.7191 H   0  0  0  0  0  0  0  0  0  0  0  0
    7.7930   -2.6421    4.6240 H   0  0  0  0  0  0  0  0  0  0  0  0
    7.5491   -1.1705    2.4872 H   0  0  0  0  0  0  0  0  0  0  0  0
    5.8289   -0.6618    2.4133 H   0  0  0  0  0  0  0  0  0  0  0  0
    7.0498   -5.4273   -0.9951 H   0  0  0  0  0  0  0  0  0  0  0  0
    9.3174   -6.1772   -1.4333 H   0  0  0  0  0  0  0  0  0  0  0  0
   12.9091   -4.9475   -3.5482 H   0  0  0  0  0  0  0  0  0  0  0  0
   11.8902   -4.9268   -7.3395 H   0  0  0  0  0  0  0  0  0  0  0  0
   15.9799   -3.0178   -8.0794 H   0  0  0  0  0  0  0  0  0  0  0  0
   16.5164   -3.0610   -6.3691 H   0  0  0  0  0  0  0  0  0  0  0  0
   15.6361   -1.6336   -7.0065 H   0  0  0  0  0  0  0  0  0  0  0  0
   14.2840   -2.5732   -4.6595 H   0  0  0  0  0  0  0  0  0  0  0  0
    7.6839   -2.0765   -3.6246 H   0  0  0  0  0  0  0  0  0  0  0  0
    4.0851   -3.8057   -2.8483 H   0  0  0  0  0  0  0  0  0  0  0  0
  1  2  1  0  0  0  0
  1 36  1  0  0  0  0
  1 37  1  0  0  0  0
  1 38  1  0  0  0  0
  2  3  1  0  0  0  0
  3  4  1  0  0  0  0
  3 35  2  0  0  0  0
  4  5  2  0  0  0  0
  4 39  1  0  0  0  0
  5  6  1  0  0  0  0
  5  8  1  0  0  0  0
  6  7  1  0  0  0  0
  7 40  1  0  0  0  0
  7 41  1  0  0  0  0
  7 42  1  0  0  0  0
  8  9  2  0  0  0  0
  8 43  1  0  0  0  0
  9 10  1  0  0  0  0
  9 35  1  0  0  0  0
 10 11  1  0  0  0  0
 10 19  1  0  0  0  0
 11 12  1  0  0  0  0
 11 44  1  0  0  0  0
 11 45  1  0  0  0  0
 12 13  1  0  0  0  0
 12 46  1  0  0  0  0
 12 47  1  0  0  0  0
 13 14  1  0  0  0  0
 13 18  1  0  0  0  0
 14 15  1  0  0  0  0
 14 48  1  0  0  0  0
 14 49  1  0  0  0  0
 15 16  1  0  0  0  0
 15 50  1  0  0  0  0
 15 51  1  0  0  0  0
 16 17  1  0  0  0  0
 16 18  1  0  0  0  0
 16 52  1  0  0  0  0
 17 53  1  0  0  0  0
 18 54  1  0  0  0  0
 18 55  1  0  0  0  0
 19 20  1  0  0  0  0
 19 34  2  0  0  0  0
 20 21  2  0  0  0  0
 20 56  1  0  0  0  0
 21 22  1  0  0  0  0
 21 57  1  0  0  0  0
 22 23  1  0  0  0  0
 22 33  2  0  0  0  0
 23 24  2  0  0  0  0
 24 25  1  0  0  0  0
 24 58  1  0  0  0  0
 25 26  1  0  0  0  0
 25 32  2  0  0  0  0
 26 27  1  0  0  0  0
 26 31  2  0  0  0  0
 27 28  2  0  0  0  0
 27 59  1  0  0  0  0
 28 29  1  0  0  0  0
 29 30  1  0  0  0  0
 29 31  1  0  0  0  0
 30 60  1  0  0  0  0
 30 61  1  0  0  0  0
 30 62  1  0  0  0  0
 31 63  1  0  0  0  0
 32 33  1  0  0  0  0
 33 34  1  0  0  0  0
 34 64  1  0  0  0  0
 35 65  1  0  0  0  0
M  END
$$$$
