CHEMBL3612840
 OpenBabel04072215363D

 62 67  0  0  0  0  0  0  0  0999 V2000
    1.1224    0.2020    0.1249 N   0  0  0  0  0  0  0  0  0  0  0  0
    2.5059    0.0870    0.1205 C   0  0  0  0  0  0  0  0  0  0  0  0
    3.1375    1.2756    0.1768 N   0  0  0  0  0  0  0  0  0  0  0  0
    4.4786    1.3222    0.2001 C   0  0  0  0  0  0  0  0  0  0  0  0
    5.3064    0.2144    0.1743 C   0  0  0  0  0  0  0  0  0  0  0  0
    6.7474    0.3437    0.1471 C   0  0  0  0  0  0  0  0  0  0  0  0
    7.7935   -0.4124    0.7258 C   0  0  0  0  0  0  0  0  0  0  0  0
    9.0063    0.0384    0.3911 N   0  0  0  0  0  0  0  0  0  0  0  0
    8.7410    1.1230   -0.3660 N   0  0  0  0  0  0  0  0  0  0  0  0
    9.8258    1.8418   -1.0042 C   0  0  0  0  0  0  0  0  0  0  0  0
    9.8999    3.2948   -0.5760 C   0  0  0  0  0  0  0  0  0  0  0  0
    9.0558    3.8160    0.1551 O   0  0  0  0  0  0  0  0  0  0  0  0
   10.9742    4.0271   -1.0640 N   0  0  0  0  0  0  0  0  0  0  0  0
   12.0143    3.5484   -1.9858 C   0  0  0  0  0  0  0  0  0  0  0  0
   13.4044    3.8450   -1.4096 C   0  0  0  0  0  0  0  0  0  0  0  0
   13.5452    5.2356   -1.0827 O   0  0  0  0  0  0  0  0  0  0  0  0
   12.5572    5.6379   -0.1177 C   0  0  0  0  0  0  0  0  0  0  0  0
   11.1433    5.4233   -0.6654 C   0  0  0  0  0  0  0  0  0  0  0  0
    7.4045    1.3278   -0.5592 C   0  0  0  0  0  0  0  0  0  0  0  0
    4.6533   -1.0332    0.1096 C   0  0  0  0  0  0  0  0  0  0  0  0
    5.3965   -2.5909    0.0343 S   0  0  0  0  0  0  0  0  0  0  0  0
    3.9190   -3.3885   -0.0541 C   0  0  0  0  0  0  0  0  0  0  0  0
    2.8300   -2.5397   -0.0253 C   0  0  0  0  0  0  0  0  0  0  0  0
    1.4913   -3.1403   -0.0869 C   0  0  0  0  0  0  0  0  0  0  0  0
    1.2439   -4.3515    0.5772 C   0  0  0  0  0  0  0  0  0  0  0  0
   -0.0136   -4.9457    0.5377 C   0  0  0  0  0  0  0  0  0  0  0  0
   -1.0844   -4.2749   -0.0531 C   0  0  0  0  0  0  0  0  0  0  0  0
   -2.3942   -4.7031    0.0186 O   0  0  0  0  0  0  0  0  0  0  0  0
   -2.7584   -5.4934    1.0892 C   0  0  0  0  0  0  0  0  0  0  0  0
   -2.3308   -5.2519    2.4007 C   0  0  0  0  0  0  0  0  0  0  0  0
   -2.6034   -6.1795    3.4037 C   0  0  0  0  0  0  0  0  0  0  0  0
   -3.3736   -7.3043    3.1154 C   0  0  0  0  0  0  0  0  0  0  0  0
   -3.8884   -7.4905    1.8309 C   0  0  0  0  0  0  0  0  0  0  0  0
   -3.5817   -6.5839    0.8155 C   0  0  0  0  0  0  0  0  0  0  0  0
   -0.8433   -3.1061   -0.7707 C   0  0  0  0  0  0  0  0  0  0  0  0
    0.4484   -2.5676   -0.8221 C   0  0  0  0  0  0  0  0  0  0  0  0
    3.2444   -1.1330    0.0707 C   0  0  0  0  0  0  0  0  0  0  0  0
    0.8754    1.1624    0.3420 H   0  0  0  0  0  0  0  0  0  0  0  0
    0.6548   -0.4981    0.6848 H   0  0  0  0  0  0  0  0  0  0  0  0
    4.8874    2.3293    0.2424 H   0  0  0  0  0  0  0  0  0  0  0  0
    7.7309   -1.2824    1.3666 H   0  0  0  0  0  0  0  0  0  0  0  0
    9.6557    1.7790   -2.0834 H   0  0  0  0  0  0  0  0  0  0  0  0
   10.7565    1.3284   -0.7395 H   0  0  0  0  0  0  0  0  0  0  0  0
   11.8760    4.0995   -2.9236 H   0  0  0  0  0  0  0  0  0  0  0  0
   11.9165    2.4851   -2.2076 H   0  0  0  0  0  0  0  0  0  0  0  0
   14.1750    3.5945   -2.1473 H   0  0  0  0  0  0  0  0  0  0  0  0
   13.5920    3.2472   -0.5102 H   0  0  0  0  0  0  0  0  0  0  0  0
   12.7183    6.6964    0.1067 H   0  0  0  0  0  0  0  0  0  0  0  0
   12.7109    5.0678    0.8064 H   0  0  0  0  0  0  0  0  0  0  0  0
   10.9911    6.0315   -1.5655 H   0  0  0  0  0  0  0  0  0  0  0  0
   10.4015    5.7257    0.0795 H   0  0  0  0  0  0  0  0  0  0  0  0
    7.0474    2.1486   -1.1667 H   0  0  0  0  0  0  0  0  0  0  0  0
    3.9231   -4.4676   -0.1289 H   0  0  0  0  0  0  0  0  0  0  0  0
    2.0222   -4.8563    1.1449 H   0  0  0  0  0  0  0  0  0  0  0  0
   -0.1458   -5.9094    1.0221 H   0  0  0  0  0  0  0  0  0  0  0  0
   -1.7324   -4.3757    2.6367 H   0  0  0  0  0  0  0  0  0  0  0  0
   -2.2007   -6.0316    4.4022 H   0  0  0  0  0  0  0  0  0  0  0  0
   -3.5766   -8.0345    3.8941 H   0  0  0  0  0  0  0  0  0  0  0  0
   -4.5127   -8.3536    1.6164 H   0  0  0  0  0  0  0  0  0  0  0  0
   -3.9595   -6.7426   -0.1907 H   0  0  0  0  0  0  0  0  0  0  0  0
   -1.6583   -2.6028   -1.2843 H   0  0  0  0  0  0  0  0  0  0  0  0
    0.6151   -1.6789   -1.4266 H   0  0  0  0  0  0  0  0  0  0  0  0
  1  2  1  0  0  0  0
  1 38  1  0  0  0  0
  1 39  1  0  0  0  0
  2  3  1  0  0  0  0
  2 37  2  0  0  0  0
  3  4  2  0  0  0  0
  4  5  1  0  0  0  0
  4 40  1  0  0  0  0
  5  6  1  0  0  0  0
  5 20  2  0  0  0  0
  6  7  1  0  0  0  0
  6 19  2  0  0  0  0
  7  8  2  0  0  0  0
  7 41  1  0  0  0  0
  8  9  1  0  0  0  0
  9 10  1  0  0  0  0
  9 19  1  0  0  0  0
 10 11  1  0  0  0  0
 10 42  1  0  0  0  0
 10 43  1  0  0  0  0
 11 12  2  0  0  0  0
 11 13  1  0  0  0  0
 13 14  1  0  0  0  0
 13 18  1  0  0  0  0
 14 15  1  0  0  0  0
 14 44  1  0  0  0  0
 14 45  1  0  0  0  0
 15 16  1  0  0  0  0
 15 46  1  0  0  0  0
 15 47  1  0  0  0  0
 16 17  1  0  0  0  0
 17 18  1  0  0  0  0
 17 48  1  0  0  0  0
 17 49  1  0  0  0  0
 18 50  1  0  0  0  0
 18 51  1  0  0  0  0
 19 52  1  0  0  0  0
 20 21  1  0  0  0  0
 20 37  1  0  0  0  0
 21 22  1  0  0  0  0
 22 23  2  0  0  0  0
 22 53  1  0  0  0  0
 23 24  1  0  0  0  0
 23 37  1  0  0  0  0
 24 25  1  0  0  0  0
 24 36  2  0  0  0  0
 25 26  2  0  0  0  0
 25 54  1  0  0  0  0
 26 27  1  0  0  0  0
 26 55  1  0  0  0  0
 27 28  1  0  0  0  0
 27 35  2  0  0  0  0
 28 29  1  0  0  0  0
 29 30  1  0  0  0  0
 29 34  2  0  0  0  0
 30 31  2  0  0  0  0
 30 56  1  0  0  0  0
 31 32  1  0  0  0  0
 31 57  1  0  0  0  0
 32 33  2  0  0  0  0
 32 58  1  0  0  0  0
 33 34  1  0  0  0  0
 33 59  1  0  0  0  0
 34 60  1  0  0  0  0
 35 36  1  0  0  0  0
 35 61  1  0  0  0  0
 36 62  1  0  0  0  0
M  END
$$$$
