CHEMBL1981183
 OpenBabel04072215363D

 27 29  0  0  0  0  0  0  0  0999 V2000
    1.0591   -0.1457   -0.0316 C   0  0  0  0  0  0  0  0  0  0  0  0
    2.5267    0.0704   -0.0326 C   0  0  0  0  0  0  0  0  0  0  0  0
    3.3860   -0.9622   -0.0321 N   0  0  0  0  0  0  0  0  0  0  0  0
    4.6013   -0.3763   -0.0313 N   0  0  0  0  0  0  0  0  0  0  0  0
    4.5435    0.9841   -0.0326 C   0  0  0  0  0  0  0  0  0  0  0  0
    3.2082    1.3054   -0.0327 C   0  0  0  0  0  0  0  0  0  0  0  0
    2.7449    2.6748   -0.0315 C   0  0  0  0  0  0  0  0  0  0  0  0
    1.5457    2.9380   -0.0318 O   0  0  0  0  0  0  0  0  0  0  0  0
    3.7600    3.6574   -0.0284 N   0  0  0  0  0  0  0  0  0  0  0  0
    3.3428    5.0480   -0.0248 C   0  0  0  0  0  0  0  0  0  0  0  0
    5.1722    3.3320   -0.0302 C   0  0  0  0  0  0  0  0  0  0  0  0
    6.1541    4.3326   -0.0295 C   0  0  0  0  0  0  0  0  0  0  0  0
    7.5122    4.0011   -0.0311 C   0  0  0  0  0  0  0  0  0  0  0  0
    7.9112    2.6667   -0.0332 C   0  0  0  0  0  0  0  0  0  0  0  0
    6.9553    1.6509   -0.0337 C   0  0  0  0  0  0  0  0  0  0  0  0
    5.5945    1.9764   -0.0319 C   0  0  0  0  0  0  0  0  0  0  0  0
    0.8038   -1.2095   -0.0321 H   0  0  0  0  0  0  0  0  0  0  0  0
    0.6084    0.3121   -0.9184 H   0  0  0  0  0  0  0  0  0  0  0  0
    0.6095    0.3111    0.8562 H   0  0  0  0  0  0  0  0  0  0  0  0
    5.4189   -0.9750   -0.0311 H   0  0  0  0  0  0  0  0  0  0  0  0
    2.2541    5.1511   -0.0212 H   0  0  0  0  0  0  0  0  0  0  0  0
    3.7210    5.5432   -0.9243 H   0  0  0  0  0  0  0  0  0  0  0  0
    3.7260    5.5393    0.8748 H   0  0  0  0  0  0  0  0  0  0  0  0
    5.8947    5.3863   -0.0282 H   0  0  0  0  0  0  0  0  0  0  0  0
    8.2599    4.7912   -0.0309 H   0  0  0  0  0  0  0  0  0  0  0  0
    8.9702    2.4192   -0.0347 H   0  0  0  0  0  0  0  0  0  0  0  0
    7.2910    0.6185   -0.0354 H   0  0  0  0  0  0  0  0  0  0  0  0
  1  2  1  0  0  0  0
  1 17  1  0  0  0  0
  1 18  1  0  0  0  0
  1 19  1  0  0  0  0
  2  3  2  0  0  0  0
  2  6  1  0  0  0  0
  3  4  1  0  0  0  0
  4  5  1  0  0  0  0
  4 20  1  0  0  0  0
  5  6  2  0  0  0  0
  5 16  1  0  0  0  0
  6  7  1  0  0  0  0
  7  8  2  0  0  0  0
  7  9  1  0  0  0  0
  9 10  1  0  0  0  0
  9 11  1  0  0  0  0
 10 21  1  0  0  0  0
 10 22  1  0  0  0  0
 10 23  1  0  0  0  0
 11 12  1  0  0  0  0
 11 16  2  0  0  0  0
 12 13  2  0  0  0  0
 12 24  1  0  0  0  0
 13 14  1  0  0  0  0
 13 25  1  0  0  0  0
 14 15  2  0  0  0  0
 14 26  1  0  0  0  0
 15 16  1  0  0  0  0
 15 27  1  0  0  0  0
M  END
$$$$
