CHEMBL2113184
 OpenBabel04072215363D

 76 80  0  0  0  0  0  0  0  0999 V2000
    2.9100   -1.1178   -0.6342 C   0  0  0  0  0  0  0  0  0  0  0  0
    2.6014    0.0467    0.1352 O   0  0  0  0  0  0  0  0  0  0  0  0
    3.1921    1.2337   -0.1996 C   0  0  0  0  0  0  0  0  0  0  0  0
    4.3620    1.2491   -0.9523 C   0  0  0  0  0  0  0  0  0  0  0  0
    4.9345    2.4363   -1.4192 C   0  0  0  0  0  0  0  0  0  0  0  0
    6.0307    2.4551   -2.2907 C   0  0  0  0  0  0  0  0  0  0  0  0
    6.4460    1.2362   -2.9261 N   0  0  0  0  0  0  0  0  0  0  0  0
    7.7483    1.1519   -3.4092 C   0  0  0  0  0  0  0  0  0  0  0  0
    8.8046    1.0519   -2.5885 C   0  0  0  0  0  0  0  0  0  0  0  0
   10.1925    1.0786   -3.0627 C   0  0  0  0  0  0  0  0  0  0  0  0
   11.0808    1.0648   -2.2316 O   0  0  0  0  0  0  0  0  0  0  0  0
   10.4319    1.1373   -4.5432 C   0  0  0  0  0  0  0  0  0  0  0  0
   11.7131    1.1548   -5.0951 O   0  0  0  0  0  0  0  0  0  0  0  0
   12.7613    0.5981   -4.2831 C   0  0  0  0  0  0  0  0  0  0  0  0
   13.9243    0.1490   -5.1746 C   0  0  0  0  0  0  0  0  0  0  0  0
   15.0370   -0.4782   -4.4434 N   0  0  0  0  0  0  0  0  0  0  0  0
   14.7627   -1.6753   -3.6473 C   0  0  0  0  0  0  0  0  0  0  0  0
   16.1373    0.2737   -4.0287 C   0  0  0  0  0  0  0  0  0  0  0  0
   16.0749    1.6519   -3.7846 C   0  0  0  0  0  0  0  0  0  0  0  0
   17.1943    2.3706   -3.3470 C   0  0  0  0  0  0  0  0  0  0  0  0
   18.4139    1.7274   -3.1692 C   0  0  0  0  0  0  0  0  0  0  0  0
   18.5122    0.3659   -3.4248 C   0  0  0  0  0  0  0  0  0  0  0  0
   17.3848   -0.3480   -3.8424 C   0  0  0  0  0  0  0  0  0  0  0  0
    9.3744    1.1831   -5.3660 C   0  0  0  0  0  0  0  0  0  0  0  0
    7.9760    1.1520   -4.8836 C   0  0  0  0  0  0  0  0  0  0  0  0
    7.0335    1.0974   -5.6661 O   0  0  0  0  0  0  0  0  0  0  0  0
    6.6567    3.5980   -2.6102 N   0  0  0  0  0  0  0  0  0  0  0  0
    6.1358    4.7178   -2.0895 C   0  0  0  0  0  0  0  0  0  0  0  0
    5.0449    4.8091   -1.3124 N   0  0  0  0  0  0  0  0  0  0  0  0
    4.4411    3.6624   -0.9762 C   0  0  0  0  0  0  0  0  0  0  0  0
    3.3110    3.6541   -0.1531 C   0  0  0  0  0  0  0  0  0  0  0  0
    2.6552    2.4669    0.2335 C   0  0  0  0  0  0  0  0  0  0  0  0
    1.5427    2.6932    1.0240 O   0  0  0  0  0  0  0  0  0  0  0  0
    0.8590    1.5321    1.4903 C   0  0  0  0  0  0  0  0  0  0  0  0
   -0.3324    1.8247    2.4273 C   0  0  0  0  0  0  0  0  0  0  0  0
    0.0534    2.5798    3.7045 C   0  0  0  0  0  0  0  0  0  0  0  0
    0.9490    1.7351    4.6115 C   0  0  0  0  0  0  0  0  0  0  0  0
    0.3010    0.4664    4.9749 N   0  0  0  0  0  0  0  0  0  0  0  0
    1.1910   -0.3193    5.8327 C   0  0  0  0  0  0  0  0  0  0  0  0
   -0.1012   -0.3195    3.8008 C   0  0  0  0  0  0  0  0  0  0  0  0
   -0.9816    0.4867    2.8338 C   0  0  0  0  0  0  0  0  0  0  0  0
    3.4449   -1.8297    0.0015 H   0  0  0  0  0  0  0  0  0  0  0  0
    3.4876   -0.9501   -1.5474 H   0  0  0  0  0  0  0  0  0  0  0  0
    1.9703   -1.5699   -0.9601 H   0  0  0  0  0  0  0  0  0  0  0  0
    4.8971    0.3279   -1.1613 H   0  0  0  0  0  0  0  0  0  0  0  0
    5.7730    1.0574   -3.6781 H   0  0  0  0  0  0  0  0  0  0  0  0
    8.6717    0.9921   -1.5176 H   0  0  0  0  0  0  0  0  0  0  0  0
   12.3892   -0.2772   -3.7417 H   0  0  0  0  0  0  0  0  0  0  0  0
   13.1009    1.3568   -3.5706 H   0  0  0  0  0  0  0  0  0  0  0  0
   14.2773    0.9833   -5.7948 H   0  0  0  0  0  0  0  0  0  0  0  0
   13.5384   -0.5795   -5.9001 H   0  0  0  0  0  0  0  0  0  0  0  0
   13.8036   -2.1285   -3.9190 H   0  0  0  0  0  0  0  0  0  0  0  0
   14.7254   -1.4348   -2.5774 H   0  0  0  0  0  0  0  0  0  0  0  0
   15.5258   -2.4442   -3.8072 H   0  0  0  0  0  0  0  0  0  0  0  0
   15.1448    2.1984   -3.8953 H   0  0  0  0  0  0  0  0  0  0  0  0
   17.1042    3.4337   -3.1421 H   0  0  0  0  0  0  0  0  0  0  0  0
   19.2839    2.2858   -2.8359 H   0  0  0  0  0  0  0  0  0  0  0  0
   19.4627   -0.1468   -3.3067 H   0  0  0  0  0  0  0  0  0  0  0  0
   17.5024   -1.4070   -4.0569 H   0  0  0  0  0  0  0  0  0  0  0  0
    9.5068    1.2328   -6.4397 H   0  0  0  0  0  0  0  0  0  0  0  0
    6.6491    5.6436   -2.3257 H   0  0  0  0  0  0  0  0  0  0  0  0
    2.9246    4.6099    0.2010 H   0  0  0  0  0  0  0  0  0  0  0  0
    1.5757    0.9082    2.0278 H   0  0  0  0  0  0  0  0  0  0  0  0
    0.4569    0.9981    0.6219 H   0  0  0  0  0  0  0  0  0  0  0  0
   -1.0644    2.4346    1.8824 H   0  0  0  0  0  0  0  0  0  0  0  0
   -0.8616    2.8402    4.2570 H   0  0  0  0  0  0  0  0  0  0  0  0
    0.5477    3.5267    3.4632 H   0  0  0  0  0  0  0  0  0  0  0  0
    1.1542    2.3122    5.5214 H   0  0  0  0  0  0  0  0  0  0  0  0
    1.9158    1.5593    4.1246 H   0  0  0  0  0  0  0  0  0  0  0  0
    1.4657    0.2499    6.7278 H   0  0  0  0  0  0  0  0  0  0  0  0
    2.1135   -0.6071    5.3143 H   0  0  0  0  0  0  0  0  0  0  0  0
    0.6911   -1.2303    6.1787 H   0  0  0  0  0  0  0  0  0  0  0  0
   -0.6737   -1.1964    4.1282 H   0  0  0  0  0  0  0  0  0  0  0  0
    0.7779   -0.7065    3.2698 H   0  0  0  0  0  0  0  0  0  0  0  0
   -1.9538    0.6775    3.3054 H   0  0  0  0  0  0  0  0  0  0  0  0
   -1.1829   -0.1190    1.9411 H   0  0  0  0  0  0  0  0  0  0  0  0
  1  2  1  0  0  0  0
  1 42  1  0  0  0  0
  1 43  1  0  0  0  0
  1 44  1  0  0  0  0
  2  3  1  0  0  0  0
  3  4  1  0  0  0  0
  3 32  2  0  0  0  0
  4  5  2  0  0  0  0
  4 45  1  0  0  0  0
  5  6  1  0  0  0  0
  5 30  1  0  0  0  0
  6  7  1  0  0  0  0
  6 27  2  0  0  0  0
  7  8  1  0  0  0  0
  7 46  1  0  0  0  0
  8  9  2  0  0  0  0
  8 25  1  0  0  0  0
  9 10  1  0  0  0  0
  9 47  1  0  0  0  0
 10 11  2  0  0  0  0
 10 12  1  0  0  0  0
 12 13  1  0  0  0  0
 12 24  2  0  0  0  0
 13 14  1  0  0  0  0
 14 15  1  0  0  0  0
 14 48  1  0  0  0  0
 14 49  1  0  0  0  0
 15 16  1  0  0  0  0
 15 50  1  0  0  0  0
 15 51  1  0  0  0  0
 16 17  1  0  0  0  0
 16 18  1  0  0  0  0
 17 52  1  0  0  0  0
 17 53  1  0  0  0  0
 17 54  1  0  0  0  0
 18 19  1  0  0  0  0
 18 23  2  0  0  0  0
 19 20  2  0  0  0  0
 19 55  1  0  0  0  0
 20 21  1  0  0  0  0
 20 56  1  0  0  0  0
 21 22  2  0  0  0  0
 21 57  1  0  0  0  0
 22 23  1  0  0  0  0
 22 58  1  0  0  0  0
 23 59  1  0  0  0  0
 24 25  1  0  0  0  0
 24 60  1  0  0  0  0
 25 26  2  0  0  0  0
 27 28  1  0  0  0  0
 28 29  2  0  0  0  0
 28 61  1  0  0  0  0
 29 30  1  0  0  0  0
 30 31  2  0  0  0  0
 31 32  1  0  0  0  0
 31 62  1  0  0  0  0
 32 33  1  0  0  0  0
 33 34  1  0  0  0  0
 34 35  1  0  0  0  0
 34 63  1  0  0  0  0
 34 64  1  0  0  0  0
 35 36  1  0  0  0  0
 35 41  1  0  0  0  0
 35 65  1  0  0  0  0
 36 37  1  0  0  0  0
 36 66  1  0  0  0  0
 36 67  1  0  0  0  0
 37 38  1  0  0  0  0
 37 68  1  0  0  0  0
 37 69  1  0  0  0  0
 38 39  1  0  0  0  0
 38 40  1  0  0  0  0
 39 70  1  0  0  0  0
 39 71  1  0  0  0  0
 39 72  1  0  0  0  0
 40 41  1  0  0  0  0
 40 73  1  0  0  0  0
 40 74  1  0  0  0  0
 41 75  1  0  0  0  0
 41 76  1  0  0  0  0
M  END
$$$$
