CHEMBL3956594
 OpenBabel04072215373D

 54 57  0  0  0  0  0  0  0  0999 V2000
    7.2928    5.8312   -7.7350 C   0  0  0  0  0  0  0  0  0  0  0  0
    5.8097    5.6421   -8.0147 C   0  0  0  0  0  0  0  0  0  0  0  0
    5.6007    5.9358   -9.3320 F   0  0  0  0  0  0  0  0  0  0  0  0
    5.5322    4.3107   -7.8957 F   0  0  0  0  0  0  0  0  0  0  0  0
    4.9541    6.4807   -7.1070 C   0  0  0  0  0  0  0  0  0  0  0  0
    4.6474    7.7830   -7.4694 C   0  0  0  0  0  0  0  0  0  0  0  0
    3.8968    8.6126   -6.7207 N   0  0  0  0  0  0  0  0  0  0  0  0
    3.4219    8.1194   -5.5502 C   0  0  0  0  0  0  0  0  0  0  0  0
    3.6656    6.8308   -5.0752 C   0  0  0  0  0  0  0  0  0  0  0  0
    3.1877    6.3319   -3.8375 N   0  0  0  0  0  0  0  0  0  0  0  0
    2.5424    7.0887   -2.8755 C   0  0  0  0  0  0  0  0  0  0  0  0
    2.2893    8.2831   -2.9831 O   0  0  0  0  0  0  0  0  0  0  0  0
    2.2481    6.3600   -1.7356 N   0  0  0  0  0  0  0  0  0  0  0  0
    1.5873    6.9609   -0.6321 C   0  0  0  0  0  0  0  0  0  0  0  0
    0.5308    7.8646   -0.7850 C   0  0  0  0  0  0  0  0  0  0  0  0
   -0.0346    8.4864    0.3354 C   0  0  0  0  0  0  0  0  0  0  0  0
    0.4544    8.2139    1.6157 C   0  0  0  0  0  0  0  0  0  0  0  0
   -0.1463    8.8905    2.6598 O   0  0  0  0  0  0  0  0  0  0  0  0
    0.6114    9.2517    3.7556 C   0  0  0  0  0  0  0  0  0  0  0  0
    1.9491    9.6203    3.6680 C   0  0  0  0  0  0  0  0  0  0  0  0
    2.6154    9.8874    4.8421 C   0  0  0  0  0  0  0  0  0  0  0  0
    2.0215    9.8715    6.0464 N   0  0  0  0  0  0  0  0  0  0  0  0
    0.7057    9.6017    6.1254 C   0  0  0  0  0  0  0  0  0  0  0  0
    0.0755    9.6378    7.3824 N   0  0  0  0  0  0  0  0  0  0  0  0
    0.7421    9.9175    8.5597 C   0  0  0  0  0  0  0  0  0  0  0  0
    1.9335   10.1522    8.6979 O   0  0  0  0  0  0  0  0  0  0  0  0
   -0.1240    9.9136    9.7841 C   0  0  0  0  0  0  0  0  0  0  0  0
    0.2067   10.8586   10.9221 C   0  0  0  0  0  0  0  0  0  0  0  0
    0.4496    9.3870   11.0843 C   0  0  0  0  0  0  0  0  0  0  0  0
   -0.0352    9.2848    4.9950 C   0  0  0  0  0  0  0  0  0  0  0  0
    1.4636    7.2599    1.7771 C   0  0  0  0  0  0  0  0  0  0  0  0
    2.0241    6.6518    0.6561 C   0  0  0  0  0  0  0  0  0  0  0  0
    3.0539    5.8060    0.8189 F   0  0  0  0  0  0  0  0  0  0  0  0
    4.4452    6.0008   -5.8867 C   0  0  0  0  0  0  0  0  0  0  0  0
    7.8807    5.2079   -8.4175 H   0  0  0  0  0  0  0  0  0  0  0  0
    7.5489    5.5348   -6.7129 H   0  0  0  0  0  0  0  0  0  0  0  0
    7.6036    6.8698   -7.8902 H   0  0  0  0  0  0  0  0  0  0  0  0
    5.0028    8.2184   -8.4020 H   0  0  0  0  0  0  0  0  0  0  0  0
    2.8065    8.8362   -5.0185 H   0  0  0  0  0  0  0  0  0  0  0  0
    3.3317    5.3511   -3.6419 H   0  0  0  0  0  0  0  0  0  0  0  0
    2.9166    5.6409   -1.4897 H   0  0  0  0  0  0  0  0  0  0  0  0
    0.1420    8.1047   -1.7725 H   0  0  0  0  0  0  0  0  0  0  0  0
   -0.8447    9.1992    0.1981 H   0  0  0  0  0  0  0  0  0  0  0  0
    2.4805    9.6779    2.7261 H   0  0  0  0  0  0  0  0  0  0  0  0
    3.6744   10.1227    4.8564 H   0  0  0  0  0  0  0  0  0  0  0  0
   -0.9195    9.4526    7.4147 H   0  0  0  0  0  0  0  0  0  0  0  0
   -1.1795    9.7244    9.6188 H   0  0  0  0  0  0  0  0  0  0  0  0
   -0.6059   11.3030   11.4827 H   0  0  0  0  0  0  0  0  0  0  0  0
    1.0755   11.5026   10.8189 H   0  0  0  0  0  0  0  0  0  0  0  0
   -0.1994    8.8351   11.7522 H   0  0  0  0  0  0  0  0  0  0  0  0
    1.4814    9.0470   11.0897 H   0  0  0  0  0  0  0  0  0  0  0  0
   -1.0951    9.0581    5.0553 H   0  0  0  0  0  0  0  0  0  0  0  0
    1.8527    7.0004    2.7553 H   0  0  0  0  0  0  0  0  0  0  0  0
    4.6753    4.9824   -5.5808 H   0  0  0  0  0  0  0  0  0  0  0  0
  1  2  1  0  0  0  0
  1 35  1  0  0  0  0
  1 36  1  0  0  0  0
  1 37  1  0  0  0  0
  2  3  1  0  0  0  0
  2  4  1  0  0  0  0
  2  5  1  0  0  0  0
  5  6  1  0  0  0  0
  5 34  2  0  0  0  0
  6  7  2  0  0  0  0
  6 38  1  0  0  0  0
  7  8  1  0  0  0  0
  8  9  2  0  0  0  0
  8 39  1  0  0  0  0
  9 10  1  0  0  0  0
  9 34  1  0  0  0  0
 10 11  1  0  0  0  0
 10 40  1  0  0  0  0
 11 12  2  0  0  0  0
 11 13  1  0  0  0  0
 13 14  1  0  0  0  0
 13 41  1  0  0  0  0
 14 15  1  0  0  0  0
 14 32  2  0  0  0  0
 15 16  2  0  0  0  0
 15 42  1  0  0  0  0
 16 17  1  0  0  0  0
 16 43  1  0  0  0  0
 17 18  1  0  0  0  0
 17 31  2  0  0  0  0
 18 19  1  0  0  0  0
 19 20  1  0  0  0  0
 19 30  2  0  0  0  0
 20 21  2  0  0  0  0
 20 44  1  0  0  0  0
 21 22  1  0  0  0  0
 21 45  1  0  0  0  0
 22 23  2  0  0  0  0
 23 24  1  0  0  0  0
 23 30  1  0  0  0  0
 24 25  1  0  0  0  0
 24 46  1  0  0  0  0
 25 26  2  0  0  0  0
 25 27  1  0  0  0  0
 27 28  1  0  0  0  0
 27 29  1  0  0  0  0
 27 47  1  0  0  0  0
 28 29  1  0  0  0  0
 28 48  1  0  0  0  0
 28 49  1  0  0  0  0
 29 50  1  0  0  0  0
 29 51  1  0  0  0  0
 30 52  1  0  0  0  0
 31 32  1  0  0  0  0
 31 53  1  0  0  0  0
 32 33  1  0  0  0  0
 34 54  1  0  0  0  0
M  END
$$$$
