CHEMBL3939438
 OpenBabel04072215373D

 66 70  0  0  0  0  0  0  0  0999 V2000
    0.9996    0.2853    0.1124 O   0  0  0  0  0  0  0  0  0  0  0  0
    2.2055    0.0695    0.0835 C   0  0  0  0  0  0  0  0  0  0  0  0
    2.8294   -0.6211   -0.9404 N   0  0  0  0  0  0  0  0  0  0  0  0
    2.1373   -1.1891   -2.0451 C   0  0  0  0  0  0  0  0  0  0  0  0
    0.8199   -0.8683   -2.3838 C   0  0  0  0  0  0  0  0  0  0  0  0
    0.1582   -1.5537   -3.4006 C   0  0  0  0  0  0  0  0  0  0  0  0
    0.8520   -2.5351   -4.0798 C   0  0  0  0  0  0  0  0  0  0  0  0
    0.1397   -3.2256   -5.0534 O   0  0  0  0  0  0  0  0  0  0  0  0
    0.5043   -4.5240   -5.3295 C   0  0  0  0  0  0  0  0  0  0  0  0
    0.9804   -5.4135   -4.3710 C   0  0  0  0  0  0  0  0  0  0  0  0
    1.3261   -6.6766   -4.7910 C   0  0  0  0  0  0  0  0  0  0  0  0
    1.1797   -7.1048   -6.0591 N   0  0  0  0  0  0  0  0  0  0  0  0
    0.6630   -6.2625   -6.9695 C   0  0  0  0  0  0  0  0  0  0  0  0
    0.4718   -6.6932   -8.2937 N   0  0  0  0  0  0  0  0  0  0  0  0
    0.8097   -7.9473   -8.7597 C   0  0  0  0  0  0  0  0  0  0  0  0
    1.3409   -8.8542   -8.1377 O   0  0  0  0  0  0  0  0  0  0  0  0
    0.4855   -8.2242  -10.1960 C   0  0  0  0  0  0  0  0  0  0  0  0
    0.3408   -7.1802  -11.2720 C   0  0  0  0  0  0  0  0  0  0  0  0
   -0.8746   -7.9069  -10.7656 C   0  0  0  0  0  0  0  0  0  0  0  0
    0.3093   -4.9599   -6.6414 C   0  0  0  0  0  0  0  0  0  0  0  0
    2.1542   -2.8145   -3.8538 N   0  0  0  0  0  0  0  0  0  0  0  0
    2.7606   -2.1482   -2.8377 C   0  0  0  0  0  0  0  0  0  0  0  0
    3.0813    0.4705    1.0802 N   0  0  0  0  0  0  0  0  0  0  0  0
    2.6665    1.0322    2.3179 C   0  0  0  0  0  0  0  0  0  0  0  0
    1.3530    0.9094    2.7959 C   0  0  0  0  0  0  0  0  0  0  0  0
    0.9058    1.4760    3.9967 C   0  0  0  0  0  0  0  0  0  0  0  0
   -0.4036    1.3303    4.4088 N   0  0  0  0  0  0  0  0  0  0  0  0
   -1.1648    0.1025    4.1477 C   0  0  0  0  0  0  0  0  0  0  0  0
   -2.4247    0.4401    3.3607 C   0  0  0  0  0  0  0  0  0  0  0  0
   -3.2222    1.5139    4.0857 C   0  0  0  0  0  0  0  0  0  0  0  0
   -3.6804    0.9966    5.2621 F   0  0  0  0  0  0  0  0  0  0  0  0
   -2.3814    2.7447    4.3928 C   0  0  0  0  0  0  0  0  0  0  0  0
   -1.1156    2.3631    5.1593 C   0  0  0  0  0  0  0  0  0  0  0  0
    1.8565    2.1718    4.7449 C   0  0  0  0  0  0  0  0  0  0  0  0
    3.2022    2.2619    4.3375 C   0  0  0  0  0  0  0  0  0  0  0  0
    4.2245    2.9062    5.2376 C   0  0  0  0  0  0  0  0  0  0  0  0
    3.7220    3.3220    6.4337 F   0  0  0  0  0  0  0  0  0  0  0  0
    5.2452    2.0556    5.5413 F   0  0  0  0  0  0  0  0  0  0  0  0
    4.8074    4.0003    4.6756 F   0  0  0  0  0  0  0  0  0  0  0  0
    3.5963    1.7021    3.1084 C   0  0  0  0  0  0  0  0  0  0  0  0
    3.7715   -0.9440   -0.7710 H   0  0  0  0  0  0  0  0  0  0  0  0
    0.2599   -0.0953   -1.8689 H   0  0  0  0  0  0  0  0  0  0  0  0
   -0.8793   -1.3360   -3.6242 H   0  0  0  0  0  0  0  0  0  0  0  0
    1.1050   -5.1348   -3.3326 H   0  0  0  0  0  0  0  0  0  0  0  0
    1.7445   -7.4041   -4.1026 H   0  0  0  0  0  0  0  0  0  0  0  0
    0.0484   -6.0404   -8.9336 H   0  0  0  0  0  0  0  0  0  0  0  0
    0.9273   -9.1640  -10.5216 H   0  0  0  0  0  0  0  0  0  0  0  0
    0.7060   -7.4393  -12.2614 H   0  0  0  0  0  0  0  0  0  0  0  0
    0.4604   -6.1323  -11.0351 H   0  0  0  0  0  0  0  0  0  0  0  0
   -1.3275   -8.6597  -11.4034 H   0  0  0  0  0  0  0  0  0  0  0  0
   -1.5895   -7.3665  -10.1580 H   0  0  0  0  0  0  0  0  0  0  0  0
   -0.1036   -4.2802   -7.3765 H   0  0  0  0  0  0  0  0  0  0  0  0
    3.7895   -2.4500   -2.6657 H   0  0  0  0  0  0  0  0  0  0  0  0
    4.0563    0.5603    0.8355 H   0  0  0  0  0  0  0  0  0  0  0  0
    0.6219    0.3638    2.2124 H   0  0  0  0  0  0  0  0  0  0  0  0
   -1.4356   -0.3536    5.1081 H   0  0  0  0  0  0  0  0  0  0  0  0
   -0.5900   -0.6624    3.6143 H   0  0  0  0  0  0  0  0  0  0  0  0
   -3.0330   -0.4639    3.2473 H   0  0  0  0  0  0  0  0  0  0  0  0
   -2.1576    0.7937    2.3574 H   0  0  0  0  0  0  0  0  0  0  0  0
   -4.1019    1.7929    3.4972 H   0  0  0  0  0  0  0  0  0  0  0  0
   -2.9636    3.4563    4.9878 H   0  0  0  0  0  0  0  0  0  0  0  0
   -2.1070    3.2387    3.4523 H   0  0  0  0  0  0  0  0  0  0  0  0
   -1.3711    1.9803    6.1545 H   0  0  0  0  0  0  0  0  0  0  0  0
   -0.5202    3.2711    5.3021 H   0  0  0  0  0  0  0  0  0  0  0  0
    1.5696    2.6051    5.7013 H   0  0  0  0  0  0  0  0  0  0  0  0
    4.6315    1.7985    2.7888 H   0  0  0  0  0  0  0  0  0  0  0  0
  1  2  2  0  0  0  0
  2  3  1  0  0  0  0
  2 23  1  0  0  0  0
  3  4  1  0  0  0  0
  3 41  1  0  0  0  0
  4  5  1  0  0  0  0
  4 22  2  0  0  0  0
  5  6  2  0  0  0  0
  5 42  1  0  0  0  0
  6  7  1  0  0  0  0
  6 43  1  0  0  0  0
  7  8  1  0  0  0  0
  7 21  2  0  0  0  0
  8  9  1  0  0  0  0
  9 10  1  0  0  0  0
  9 20  2  0  0  0  0
 10 11  2  0  0  0  0
 10 44  1  0  0  0  0
 11 12  1  0  0  0  0
 11 45  1  0  0  0  0
 12 13  2  0  0  0  0
 13 14  1  0  0  0  0
 13 20  1  0  0  0  0
 14 15  1  0  0  0  0
 14 46  1  0  0  0  0
 15 16  2  0  0  0  0
 15 17  1  0  0  0  0
 17 18  1  0  0  0  0
 17 19  1  0  0  0  0
 17 47  1  0  0  0  0
 18 19  1  0  0  0  0
 18 48  1  0  0  0  0
 18 49  1  0  0  0  0
 19 50  1  0  0  0  0
 19 51  1  0  0  0  0
 20 52  1  0  0  0  0
 21 22  1  0  0  0  0
 22 53  1  0  0  0  0
 23 24  1  0  0  0  0
 23 54  1  0  0  0  0
 24 25  1  0  0  0  0
 24 40  2  0  0  0  0
 25 26  2  0  0  0  0
 25 55  1  0  0  0  0
 26 27  1  0  0  0  0
 26 34  1  0  0  0  0
 27 28  1  0  0  0  0
 27 33  1  0  0  0  0
 28 29  1  0  0  0  0
 28 56  1  0  0  0  0
 28 57  1  0  0  0  0
 29 30  1  0  0  0  0
 29 58  1  0  0  0  0
 29 59  1  0  0  0  0
 30 31  1  0  0  0  0
 30 32  1  0  0  0  0
 30 60  1  0  0  0  0
 32 33  1  0  0  0  0
 32 61  1  0  0  0  0
 32 62  1  0  0  0  0
 33 63  1  0  0  0  0
 33 64  1  0  0  0  0
 34 35  2  0  0  0  0
 34 65  1  0  0  0  0
 35 36  1  0  0  0  0
 35 40  1  0  0  0  0
 36 37  1  0  0  0  0
 36 38  1  0  0  0  0
 36 39  1  0  0  0  0
 40 66  1  0  0  0  0
M  END
$$$$
