CHEMBL1940846
 OpenBabel04072215363D

 33 35  0  0  0  0  0  0  0  0999 V2000
    4.5878    0.2583   -0.0129 C   0  0  0  0  0  0  0  0  0  0  0  0
    3.1171   -0.0363   -0.0031 C   0  0  0  0  0  0  0  0  0  0  0  0
    2.6413   -1.3468   -0.0051 C   0  0  0  0  0  0  0  0  0  0  0  0
    1.2641   -1.5972    0.0005 C   0  0  0  0  0  0  0  0  0  0  0  0
    0.3324   -0.5658    0.0049 C   0  0  0  0  0  0  0  0  0  0  0  0
   -0.9775   -0.8488   -0.0025 N   0  0  0  0  0  0  0  0  0  0  0  0
   -1.8525    0.1859   -0.0148 C   0  0  0  0  0  0  0  0  0  0  0  0
   -3.4890   -0.3606   -0.0106 Cl  0  0  0  0  0  0  0  0  0  0  0  0
   -1.5033    1.5411   -0.0045 C   0  0  0  0  0  0  0  0  0  0  0  0
   -2.4953    2.6378   -0.0548 C   0  0  0  0  0  0  0  0  0  0  0  0
   -2.3359    3.8538    0.4939 C   0  0  0  0  0  0  0  0  0  0  0  0
   -3.4381    4.8594    0.3980 C   0  0  0  0  0  0  0  0  0  0  0  0
   -4.3292    4.7640   -0.4336 O   0  0  0  0  0  0  0  0  0  0  0  0
   -3.3320    5.9462    1.3705 C   0  0  0  0  0  0  0  0  0  0  0  0
   -2.7674    5.8739    2.7017 C   0  0  0  0  0  0  0  0  0  0  0  0
   -2.8258    7.0802    3.3524 C   0  0  0  0  0  0  0  0  0  0  0  0
   -2.2489    7.4233    4.9316 Cl  0  0  0  0  0  0  0  0  0  0  0  0
   -3.5461    8.3011    2.4365 S   0  0  0  0  0  0  0  0  0  0  0  0
   -3.8099    7.2248    1.1472 C   0  0  0  0  0  0  0  0  0  0  0  0
   -4.5757    7.8525   -0.2630 Cl  0  0  0  0  0  0  0  0  0  0  0  0
   -0.1295    1.8041    0.0023 C   0  0  0  0  0  0  0  0  0  0  0  0
    0.8098    0.7584    0.0076 C   0  0  0  0  0  0  0  0  0  0  0  0
    2.1919    1.0141    0.0070 C   0  0  0  0  0  0  0  0  0  0  0  0
    5.1812   -0.6616   -0.0293 H   0  0  0  0  0  0  0  0  0  0  0  0
    4.8660    0.8225    0.8830 H   0  0  0  0  0  0  0  0  0  0  0  0
    4.8492    0.8421   -0.9014 H   0  0  0  0  0  0  0  0  0  0  0  0
    3.3324   -2.1877   -0.0145 H   0  0  0  0  0  0  0  0  0  0  0  0
    0.9102   -2.6261   -0.0028 H   0  0  0  0  0  0  0  0  0  0  0  0
   -3.4326    2.4055   -0.5618 H   0  0  0  0  0  0  0  0  0  0  0  0
   -1.4361    4.1455    1.0169 H   0  0  0  0  0  0  0  0  0  0  0  0
   -2.3531    4.9816    3.1562 H   0  0  0  0  0  0  0  0  0  0  0  0
    0.2347    2.8291   -0.0143 H   0  0  0  0  0  0  0  0  0  0  0  0
    2.5559    2.0402    0.0079 H   0  0  0  0  0  0  0  0  0  0  0  0
  1  2  1  0  0  0  0
  1 24  1  0  0  0  0
  1 25  1  0  0  0  0
  1 26  1  0  0  0  0
  2  3  1  0  0  0  0
  2 23  2  0  0  0  0
  3  4  2  0  0  0  0
  3 27  1  0  0  0  0
  4  5  1  0  0  0  0
  4 28  1  0  0  0  0
  5  6  1  0  0  0  0
  5 22  2  0  0  0  0
  6  7  2  0  0  0  0
  7  8  1  0  0  0  0
  7  9  1  0  0  0  0
  9 10  1  0  0  0  0
  9 21  2  0  0  0  0
 10 11  2  0  0  0  0
 10 29  1  0  0  0  0
 11 12  1  0  0  0  0
 11 30  1  0  0  0  0
 12 13  2  0  0  0  0
 12 14  1  0  0  0  0
 14 15  1  0  0  0  0
 14 19  2  0  0  0  0
 15 16  2  0  0  0  0
 15 31  1  0  0  0  0
 16 17  1  0  0  0  0
 16 18  1  0  0  0  0
 18 19  1  0  0  0  0
 19 20  1  0  0  0  0
 21 22  1  0  0  0  0
 21 32  1  0  0  0  0
 22 23  1  0  0  0  0
 23 33  1  0  0  0  0
M  END
$$$$
