CHEMBL3288522
 OpenBabel04072215363D

 43 46  0  0  0  0  0  0  0  0999 V2000
    2.0363   -0.4490    1.0442 C   0  0  0  0  0  0  0  0  0  0  0  0
    2.4928    0.0823   -0.3014 C   0  0  0  0  0  0  0  0  0  0  0  0
    3.0596   -0.9680   -1.1241 N   0  0  0  0  0  0  0  0  0  0  0  0
    4.4198   -1.2233   -1.1256 C   0  0  0  0  0  0  0  0  0  0  0  0
    5.2013   -0.5750   -0.4401 O   0  0  0  0  0  0  0  0  0  0  0  0
    4.8934   -2.3262   -2.0283 C   0  0  0  0  0  0  0  0  0  0  0  0
    4.2173   -2.5160   -3.2470 C   0  0  0  0  0  0  0  0  0  0  0  0
    4.6434   -3.4847   -4.1496 C   0  0  0  0  0  0  0  0  0  0  0  0
    5.7428   -4.2806   -3.8421 C   0  0  0  0  0  0  0  0  0  0  0  0
    6.4472   -4.1122   -2.6390 C   0  0  0  0  0  0  0  0  0  0  0  0
    7.5650   -4.9295   -2.3584 C   0  0  0  0  0  0  0  0  0  0  0  0
    8.3655   -4.7605   -1.2121 C   0  0  0  0  0  0  0  0  0  0  0  0
    9.5494   -5.6118   -0.9523 C   0  0  0  0  0  0  0  0  0  0  0  0
   10.3820   -6.0178   -2.0298 C   0  0  0  0  0  0  0  0  0  0  0  0
   11.5149   -6.8091   -1.8537 C   0  0  0  0  0  0  0  0  0  0  0  0
   11.8924   -7.2227   -0.5837 C   0  0  0  0  0  0  0  0  0  0  0  0
   11.0937   -6.8207    0.4877 C   0  0  0  0  0  0  0  0  0  0  0  0
   11.2344   -7.0581    1.8256 N   0  0  0  0  0  0  0  0  0  0  0  0
   10.2657   -6.5456    2.5855 N   0  0  0  0  0  0  0  0  0  0  0  0
    9.4604   -5.9471    1.7146 C   0  0  0  0  0  0  0  0  0  0  0  0
    8.3474   -5.3383    2.1454 N   0  0  0  0  0  0  0  0  0  0  0  0
    9.9287   -6.0482    0.3600 C   0  0  0  0  0  0  0  0  0  0  0  0
    8.0062   -3.7156   -0.3623 C   0  0  0  0  0  0  0  0  0  0  0  0
    6.8456   -2.9612   -0.5680 C   0  0  0  0  0  0  0  0  0  0  0  0
    6.0446   -3.1130   -1.7199 C   0  0  0  0  0  0  0  0  0  0  0  0
    1.6181    0.3599    1.6511 H   0  0  0  0  0  0  0  0  0  0  0  0
    2.8682   -0.8987    1.5959 H   0  0  0  0  0  0  0  0  0  0  0  0
    1.2655   -1.2163    0.9175 H   0  0  0  0  0  0  0  0  0  0  0  0
    3.2316    0.8780   -0.1567 H   0  0  0  0  0  0  0  0  0  0  0  0
    1.6452    0.5042   -0.8501 H   0  0  0  0  0  0  0  0  0  0  0  0
    2.4251   -1.6041   -1.5864 H   0  0  0  0  0  0  0  0  0  0  0  0
    3.3827   -1.8802   -3.5299 H   0  0  0  0  0  0  0  0  0  0  0  0
    4.1325   -3.6074   -5.1014 H   0  0  0  0  0  0  0  0  0  0  0  0
    6.0671   -5.0228   -4.5698 H   0  0  0  0  0  0  0  0  0  0  0  0
    7.8228   -5.7135   -3.0698 H   0  0  0  0  0  0  0  0  0  0  0  0
   10.1505   -5.6962   -3.0451 H   0  0  0  0  0  0  0  0  0  0  0  0
   12.1157   -7.0936   -2.7147 H   0  0  0  0  0  0  0  0  0  0  0  0
   12.7851   -7.8241   -0.4333 H   0  0  0  0  0  0  0  0  0  0  0  0
   11.9770   -7.5711    2.2806 H   0  0  0  0  0  0  0  0  0  0  0  0
    8.1195   -5.4607    3.1238 H   0  0  0  0  0  0  0  0  0  0  0  0
    7.5385   -5.2547    1.5421 H   0  0  0  0  0  0  0  0  0  0  0  0
    8.6250   -3.4631    0.4976 H   0  0  0  0  0  0  0  0  0  0  0  0
    6.6049   -2.2222    0.1929 H   0  0  0  0  0  0  0  0  0  0  0  0
  1  2  1  0  0  0  0
  1 26  1  0  0  0  0
  1 27  1  0  0  0  0
  1 28  1  0  0  0  0
  2  3  1  0  0  0  0
  2 29  1  0  0  0  0
  2 30  1  0  0  0  0
  3  4  1  0  0  0  0
  3 31  1  0  0  0  0
  4  5  2  0  0  0  0
  4  6  1  0  0  0  0
  6  7  1  0  0  0  0
  6 25  2  0  0  0  0
  7  8  2  0  0  0  0
  7 32  1  0  0  0  0
  8  9  1  0  0  0  0
  8 33  1  0  0  0  0
  9 10  2  0  0  0  0
  9 34  1  0  0  0  0
 10 11  1  0  0  0  0
 10 25  1  0  0  0  0
 11 12  2  0  0  0  0
 11 35  1  0  0  0  0
 12 13  1  0  0  0  0
 12 23  1  0  0  0  0
 13 14  1  0  0  0  0
 13 22  2  0  0  0  0
 14 15  2  0  0  0  0
 14 36  1  0  0  0  0
 15 16  1  0  0  0  0
 15 37  1  0  0  0  0
 16 17  2  0  0  0  0
 16 38  1  0  0  0  0
 17 18  1  0  0  0  0
 17 22  1  0  0  0  0
 18 19  1  0  0  0  0
 18 39  1  0  0  0  0
 19 20  2  0  0  0  0
 20 21  1  0  0  0  0
 20 22  1  0  0  0  0
 21 40  1  0  0  0  0
 21 41  1  0  0  0  0
 23 24  2  0  0  0  0
 23 42  1  0  0  0  0
 24 25  1  0  0  0  0
 24 43  1  0  0  0  0
M  END
$$$$
