CHEMBL3907491
 OpenBabel04072215373D

 58 61  0  0  1  0  0  0  0  0999 V2000
    1.3387   -3.0733   -0.8729 C   0  0  0  0  0  0  0  0  0  0  0  0
    1.7462   -1.6121   -0.6401 C   0  0  1  0  0  0  0  0  0  0  0  0
    2.8925   -1.5252    0.2801 N   0  0  0  0  0  0  0  0  0  0  0  0
    2.6244   -1.9515    1.5901 C   0  0  0  0  0  0  0  0  0  0  0  0
    1.3709   -1.8920    2.1019 N   0  0  0  0  0  0  0  0  0  0  0  0
    1.1565   -2.3506    3.3525 C   0  0  0  0  0  0  0  0  0  0  0  0
    2.0493   -2.8673    4.2129 N   0  0  0  0  0  0  0  0  0  0  0  0
    3.2758   -2.8979    3.6734 C   0  0  0  0  0  0  0  0  0  0  0  0
    4.3899   -3.3855    4.2986 N   0  0  0  0  0  0  0  0  0  0  0  0
    5.4819   -3.3271    3.4572 C   0  0  0  0  0  0  0  0  0  0  0  0
    6.8077   -3.8338    3.8207 C   0  0  0  0  0  0  0  0  0  0  0  0
    6.9630   -4.9089    4.7046 C   0  0  0  0  0  0  0  0  0  0  0  0
    8.2345   -5.4050    5.0119 C   0  0  0  0  0  0  0  0  0  0  0  0
    9.3808   -4.8386    4.4385 C   0  0  0  0  0  0  0  0  0  0  0  0
   10.7552   -5.3675    4.7745 C   0  0  0  0  0  0  0  0  0  0  0  0
   10.8974   -6.7744    4.3870 N   0  0  0  0  0  0  0  0  0  0  0  0
   12.2512   -7.2514    4.6889 C   0  0  0  0  0  0  0  0  0  0  0  0
   12.3956   -8.7190    4.2978 C   0  0  0  0  0  0  0  0  0  0  0  0
   13.7883   -9.2247    4.5971 C   0  0  0  0  0  0  0  0  0  0  0  0
   14.6836   -8.5495    5.0993 O   0  0  0  0  0  0  0  0  0  0  0  0
   13.9847  -10.5355    4.2383 N   0  0  0  0  0  0  0  0  0  0  0  0
   15.2489  -11.0859    4.5433 O   0  0  0  0  0  0  0  0  0  0  0  0
    9.2279   -3.7577    3.5624 C   0  0  0  0  0  0  0  0  0  0  0  0
    7.9564   -3.2630    3.2572 C   0  0  0  0  0  0  0  0  0  0  0  0
    5.0331   -2.7310    2.2859 C   0  0  0  0  0  0  0  0  0  0  0  0
    3.6415   -2.4694    2.4103 C   0  0  0  0  0  0  0  0  0  0  0  0
    2.0969   -0.9833   -1.9875 C   0  0  0  0  0  0  0  0  0  0  0  0
    1.0841   -0.3586   -2.7367 C   0  0  0  0  0  0  0  0  0  0  0  0
    1.3479    0.1652   -4.0042 C   0  0  0  0  0  0  0  0  0  0  0  0
    2.6291    0.0760   -4.5423 C   0  0  0  0  0  0  0  0  0  0  0  0
    3.6450   -0.5432   -3.8153 C   0  0  0  0  0  0  0  0  0  0  0  0
    3.3805   -1.0748   -2.5507 C   0  0  0  0  0  0  0  0  0  0  0  0
    0.9470   -3.5331    0.0404 H   0  0  0  0  0  0  0  0  0  0  0  0
    2.1910   -3.6786   -1.2030 H   0  0  0  0  0  0  0  0  0  0  0  0
    0.5551   -3.1505   -1.6339 H   0  0  0  0  0  0  0  0  0  0  0  0
    0.9009   -1.0475   -0.2262 H   0  0  0  0  0  0  0  0  0  0  0  0
    3.1823   -0.5502    0.3537 H   0  0  0  0  0  0  0  0  0  0  0  0
    0.1307   -2.3010    3.7050 H   0  0  0  0  0  0  0  0  0  0  0  0
    4.3845   -3.7498    5.2382 H   0  0  0  0  0  0  0  0  0  0  0  0
    6.0998   -5.3985    5.1495 H   0  0  0  0  0  0  0  0  0  0  0  0
    8.3311   -6.2502    5.6916 H   0  0  0  0  0  0  0  0  0  0  0  0
   10.9154   -5.2452    5.8525 H   0  0  0  0  0  0  0  0  0  0  0  0
   11.5141   -4.7643    4.2606 H   0  0  0  0  0  0  0  0  0  0  0  0
   10.7163   -6.8479    3.3857 H   0  0  0  0  0  0  0  0  0  0  0  0
   12.4530   -7.1403    5.7616 H   0  0  0  0  0  0  0  0  0  0  0  0
   12.9931   -6.6508    4.1478 H   0  0  0  0  0  0  0  0  0  0  0  0
   12.2062   -8.8484    3.2255 H   0  0  0  0  0  0  0  0  0  0  0  0
   11.6773   -9.3338    4.8531 H   0  0  0  0  0  0  0  0  0  0  0  0
   13.2509  -11.1798    3.9651 H   0  0  0  0  0  0  0  0  0  0  0  0
   15.7195  -10.3215    4.9437 H   0  0  0  0  0  0  0  0  0  0  0  0
   10.0977   -3.2903    3.1055 H   0  0  0  0  0  0  0  0  0  0  0  0
    7.8757   -2.4195    2.5763 H   0  0  0  0  0  0  0  0  0  0  0  0
    5.6315   -2.5404    1.4027 H   0  0  0  0  0  0  0  0  0  0  0  0
    0.0721   -0.2931   -2.3416 H   0  0  0  0  0  0  0  0  0  0  0  0
    0.5499    0.6330   -4.5750 H   0  0  0  0  0  0  0  0  0  0  0  0
    2.8333    0.4795   -5.5304 H   0  0  0  0  0  0  0  0  0  0  0  0
    4.6433   -0.6223   -4.2393 H   0  0  0  0  0  0  0  0  0  0  0  0
    4.1804   -1.5767   -2.0107 H   0  0  0  0  0  0  0  0  0  0  0  0
  1  2  1  0  0  0  0
  1 33  1  0  0  0  0
  1 34  1  0  0  0  0
  1 35  1  0  0  0  0
  2  3  1  0  0  0  0
  2 27  1  0  0  0  0
  2 36  1  1  0  0  0
  3  4  1  0  0  0  0
  3 37  1  0  0  0  0
  4  5  1  0  0  0  0
  4 26  2  0  0  0  0
  5  6  2  0  0  0  0
  6  7  1  0  0  0  0
  6 38  1  0  0  0  0
  7  8  2  0  0  0  0
  8  9  1  0  0  0  0
  8 26  1  0  0  0  0
  9 10  1  0  0  0  0
  9 39  1  0  0  0  0
 10 11  1  0  0  0  0
 10 25  2  0  0  0  0
 11 12  1  0  0  0  0
 11 24  2  0  0  0  0
 12 13  2  0  0  0  0
 12 40  1  0  0  0  0
 13 14  1  0  0  0  0
 13 41  1  0  0  0  0
 14 15  1  0  0  0  0
 14 23  2  0  0  0  0
 15 16  1  0  0  0  0
 15 42  1  0  0  0  0
 15 43  1  0  0  0  0
 16 17  1  0  0  0  0
 16 44  1  0  0  0  0
 17 18  1  0  0  0  0
 17 45  1  0  0  0  0
 17 46  1  0  0  0  0
 18 19  1  0  0  0  0
 18 47  1  0  0  0  0
 18 48  1  0  0  0  0
 19 20  2  0  0  0  0
 19 21  1  0  0  0  0
 21 22  1  0  0  0  0
 21 49  1  0  0  0  0
 22 50  1  0  0  0  0
 23 24  1  0  0  0  0
 23 51  1  0  0  0  0
 24 52  1  0  0  0  0
 25 26  1  0  0  0  0
 25 53  1  0  0  0  0
 27 28  1  0  0  0  0
 27 32  2  0  0  0  0
 28 29  2  0  0  0  0
 28 54  1  0  0  0  0
 29 30  1  0  0  0  0
 29 55  1  0  0  0  0
 30 31  2  0  0  0  0
 30 56  1  0  0  0  0
 31 32  1  0  0  0  0
 31 57  1  0  0  0  0
 32 58  1  0  0  0  0
M  END
$$$$
