CHEMBL2377479
 OpenBabel04072215363D

 22 24  0  0  0  0  0  0  0  0999 V2000
   -2.1995   -0.0824   -0.1197 Cl  0  0  0  0  0  0  0  0  0  0  0  0
   -0.4463   -0.0398   -0.0813 C   0  0  0  0  0  0  0  0  0  0  0  0
    0.2223    1.1795    0.0378 C   0  0  0  0  0  0  0  0  0  0  0  0
    1.6198    1.2168    0.0727 C   0  0  0  0  0  0  0  0  0  0  0  0
    2.3755    0.0270   -0.0153 C   0  0  0  0  0  0  0  0  0  0  0  0
    3.8699    0.0427    0.0201 C   0  0  0  0  0  0  0  0  0  0  0  0
    4.6432    1.1872    0.2160 C   0  0  0  0  0  0  0  0  0  0  0  0
    5.9906    0.9254    0.2017 C   0  0  0  0  0  0  0  0  0  0  0  0
    6.9579    1.8587    0.3681 N   0  0  0  0  0  0  0  0  0  0  0  0
    8.2422    1.4937    0.3318 N   0  0  0  0  0  0  0  0  0  0  0  0
    8.5964    0.2194    0.1308 N   0  0  0  0  0  0  0  0  0  0  0  0
    7.6598   -0.7517   -0.0398 C   0  0  0  0  0  0  0  0  0  0  0  0
    8.1624   -2.4124   -0.3033 Cl  0  0  0  0  0  0  0  0  0  0  0  0
    6.3166   -0.3886   -0.0013 C   0  0  0  0  0  0  0  0  0  0  0  0
    4.8844   -1.4792   -0.1943 Se  0  0  0  0  0  0  0  0  0  0  0  0
    1.6805   -1.1949   -0.1389 C   0  0  0  0  0  0  0  0  0  0  0  0
    0.2838   -1.2255   -0.1694 C   0  0  0  0  0  0  0  0  0  0  0  0
   -0.3402    2.1023    0.1040 H   0  0  0  0  0  0  0  0  0  0  0  0
    2.0908    2.1831    0.1636 H   0  0  0  0  0  0  0  0  0  0  0  0
    4.2573    2.1844    0.3678 H   0  0  0  0  0  0  0  0  0  0  0  0
    2.2064   -2.1366   -0.2085 H   0  0  0  0  0  0  0  0  0  0  0  0
   -0.2294   -2.1745   -0.2611 H   0  0  0  0  0  0  0  0  0  0  0  0
  1  2  1  0  0  0  0
  2  3  1  0  0  0  0
  2 17  2  0  0  0  0
  3  4  2  0  0  0  0
  3 18  1  0  0  0  0
  4  5  1  0  0  0  0
  4 19  1  0  0  0  0
  5  6  1  0  0  0  0
  5 16  2  0  0  0  0
  6  7  2  0  0  0  0
  6 15  1  0  0  0  0
  7  8  1  0  0  0  0
  7 20  1  0  0  0  0
  8  9  1  0  0  0  0
  8 14  2  0  0  0  0
  9 10  2  0  0  0  0
 10 11  1  0  0  0  0
 11 12  2  0  0  0  0
 12 13  1  0  0  0  0
 12 14  1  0  0  0  0
 14 15  1  0  0  0  0
 16 17  1  0  0  0  0
 16 21  1  0  0  0  0
 17 22  1  0  0  0  0
M  END
$$$$
