CHEMBL243912
 OpenBabel04072215363D

 53 56  0  0  0  0  0  0  0  0999 V2000
    5.2782   -0.6727   -2.7735 C   0  0  0  0  0  0  0  0  0  0  0  0
    6.3911   -1.5051   -2.4457 O   0  0  0  0  0  0  0  0  0  0  0  0
    6.2039   -2.3168   -1.3744 C   0  0  0  0  0  0  0  0  0  0  0  0
    5.1420   -2.4704   -0.7824 O   0  0  0  0  0  0  0  0  0  0  0  0
    7.4161   -2.8332   -1.0137 N   0  0  0  0  0  0  0  0  0  0  0  0
    7.6087   -3.3436    0.2409 C   0  0  0  0  0  0  0  0  0  0  0  0
    8.6839   -3.1281    0.9601 N   0  0  0  0  0  0  0  0  0  0  0  0
    8.4241   -3.7113    2.1729 C   0  0  0  0  0  0  0  0  0  0  0  0
    9.1664   -3.6736    3.3621 C   0  0  0  0  0  0  0  0  0  0  0  0
    8.7166   -4.4175    4.4662 C   0  0  0  0  0  0  0  0  0  0  0  0
    7.5621   -5.2095    4.3909 C   0  0  0  0  0  0  0  0  0  0  0  0
    6.9960   -6.2968    5.7022 S   0  0  0  0  0  0  0  0  0  0  0  0
    8.1286   -6.0508    7.0477 C   0  0  0  0  0  0  0  0  0  0  0  0
    7.8786   -5.0522    7.9846 C   0  0  0  0  0  0  0  0  0  0  0  0
    8.7485   -4.8539    9.0627 C   0  0  0  0  0  0  0  0  0  0  0  0
    9.8789   -5.6570    9.2358 C   0  0  0  0  0  0  0  0  0  0  0  0
   10.8101   -5.4724   10.2906 N   0  0  0  0  0  0  0  0  0  0  0  0
   10.6809   -4.5728   11.3347 C   0  0  0  0  0  0  0  0  0  0  0  0
    9.6863   -3.8914   11.5550 O   0  0  0  0  0  0  0  0  0  0  0  0
   11.8260   -4.5022   12.1161 N   0  0  0  0  0  0  0  0  0  0  0  0
   11.8426   -3.6188   13.2259 C   0  0  0  0  0  0  0  0  0  0  0  0
   10.7740   -3.5723   14.1307 C   0  0  0  0  0  0  0  0  0  0  0  0
   10.7365   -2.6140   15.1547 C   0  0  0  0  0  0  0  0  0  0  0  0
    9.5745   -2.5596   16.1182 C   0  0  0  0  0  0  0  0  0  0  0  0
    8.6455   -3.5357   15.9201 F   0  0  0  0  0  0  0  0  0  0  0  0
    9.9768   -2.6920   17.4136 F   0  0  0  0  0  0  0  0  0  0  0  0
    8.8987   -1.3793   16.0581 F   0  0  0  0  0  0  0  0  0  0  0  0
   11.7906   -1.6918   15.2550 C   0  0  0  0  0  0  0  0  0  0  0  0
   12.8753   -1.7552   14.3763 C   0  0  0  0  0  0  0  0  0  0  0  0
   12.9069   -2.7336   13.3863 C   0  0  0  0  0  0  0  0  0  0  0  0
   13.9381   -2.7692   12.5294 F   0  0  0  0  0  0  0  0  0  0  0  0
   10.1143   -6.6788    8.3093 C   0  0  0  0  0  0  0  0  0  0  0  0
    9.2438   -6.8755    7.2245 C   0  0  0  0  0  0  0  0  0  0  0  0
    6.7806   -5.1948    3.2176 C   0  0  0  0  0  0  0  0  0  0  0  0
    7.2334   -4.4168    2.1464 C   0  0  0  0  0  0  0  0  0  0  0  0
    6.7020   -4.1280    0.9083 N   0  0  0  0  0  0  0  0  0  0  0  0
    5.4686   -0.2253   -3.7531 H   0  0  0  0  0  0  0  0  0  0  0  0
    5.1988    0.1331   -2.0369 H   0  0  0  0  0  0  0  0  0  0  0  0
    4.3460   -1.2424   -2.8275 H   0  0  0  0  0  0  0  0  0  0  0  0
    8.2172   -2.3877   -1.4378 H   0  0  0  0  0  0  0  0  0  0  0  0
   10.0674   -3.0720    3.4202 H   0  0  0  0  0  0  0  0  0  0  0  0
    9.3077   -4.3653    5.3755 H   0  0  0  0  0  0  0  0  0  0  0  0
    7.0040   -4.4117    7.8935 H   0  0  0  0  0  0  0  0  0  0  0  0
    8.4935   -4.0550    9.7502 H   0  0  0  0  0  0  0  0  0  0  0  0
   11.5817   -6.1236   10.3457 H   0  0  0  0  0  0  0  0  0  0  0  0
   12.6904   -4.5449   11.5897 H   0  0  0  0  0  0  0  0  0  0  0  0
    9.9506   -4.2778   14.0286 H   0  0  0  0  0  0  0  0  0  0  0  0
   11.7618   -0.9146   16.0179 H   0  0  0  0  0  0  0  0  0  0  0  0
   13.6831   -1.0329   14.4427 H   0  0  0  0  0  0  0  0  0  0  0  0
   10.9708   -7.3420    8.4116 H   0  0  0  0  0  0  0  0  0  0  0  0
    9.4424   -7.6807    6.5192 H   0  0  0  0  0  0  0  0  0  0  0  0
    5.8653   -5.7745    3.1408 H   0  0  0  0  0  0  0  0  0  0  0  0
    5.8104   -4.4287    0.5445 H   0  0  0  0  0  0  0  0  0  0  0  0
  1  2  1  0  0  0  0
  1 37  1  0  0  0  0
  1 38  1  0  0  0  0
  1 39  1  0  0  0  0
  2  3  1  0  0  0  0
  3  4  2  0  0  0  0
  3  5  1  0  0  0  0
  5  6  1  0  0  0  0
  5 40  1  0  0  0  0
  6  7  2  0  0  0  0
  6 36  1  0  0  0  0
  7  8  1  0  0  0  0
  8  9  1  0  0  0  0
  8 35  2  0  0  0  0
  9 10  2  0  0  0  0
  9 41  1  0  0  0  0
 10 11  1  0  0  0  0
 10 42  1  0  0  0  0
 11 12  1  0  0  0  0
 11 34  2  0  0  0  0
 12 13  1  0  0  0  0
 13 14  1  0  0  0  0
 13 33  2  0  0  0  0
 14 15  2  0  0  0  0
 14 43  1  0  0  0  0
 15 16  1  0  0  0  0
 15 44  1  0  0  0  0
 16 17  1  0  0  0  0
 16 32  2  0  0  0  0
 17 18  1  0  0  0  0
 17 45  1  0  0  0  0
 18 19  2  0  0  0  0
 18 20  1  0  0  0  0
 20 21  1  0  0  0  0
 20 46  1  0  0  0  0
 21 22  1  0  0  0  0
 21 30  2  0  0  0  0
 22 23  2  0  0  0  0
 22 47  1  0  0  0  0
 23 24  1  0  0  0  0
 23 28  1  0  0  0  0
 24 25  1  0  0  0  0
 24 26  1  0  0  0  0
 24 27  1  0  0  0  0
 28 29  2  0  0  0  0
 28 48  1  0  0  0  0
 29 30  1  0  0  0  0
 29 49  1  0  0  0  0
 30 31  1  0  0  0  0
 32 33  1  0  0  0  0
 32 50  1  0  0  0  0
 33 51  1  0  0  0  0
 34 35  1  0  0  0  0
 34 52  1  0  0  0  0
 35 36  1  0  0  0  0
 36 53  1  0  0  0  0
M  END
$$$$
