CHEMBL1241946
 OpenBabel04072215363D

 39 41  0  0  0  0  0  0  0  0999 V2000
    0.7172    0.7335    0.3367 C   0  0  0  0  0  0  0  0  0  0  0  0
    2.0879    1.3099    0.1167 C   0  0  0  0  0  0  0  0  0  0  0  0
    2.3585    1.9225   -0.9124 O   0  0  0  0  0  0  0  0  0  0  0  0
    3.1193    1.1625    1.1889 C   0  0  0  0  0  0  0  0  0  0  0  0
    2.8303    0.6186    2.4440 C   0  0  0  0  0  0  0  0  0  0  0  0
    3.8295    0.5403    3.4156 C   0  0  0  0  0  0  0  0  0  0  0  0
    5.1093    1.0338    3.1487 C   0  0  0  0  0  0  0  0  0  0  0  0
    5.4109    1.5982    1.9011 C   0  0  0  0  0  0  0  0  0  0  0  0
    6.7475    2.1351    1.6334 C   0  0  0  0  0  0  0  0  0  0  0  0
    7.8257    1.5202    2.1528 N   0  0  0  0  0  0  0  0  0  0  0  0
    8.8768    2.2175    1.6717 N   0  0  0  0  0  0  0  0  0  0  0  0
   10.2366    1.8021    1.9995 C   0  0  0  0  0  0  0  0  0  0  0  0
   10.4954    1.8749    3.5050 C   0  0  0  0  0  0  0  0  0  0  0  0
   10.5417    0.4040    1.4604 C   0  0  0  0  0  0  0  0  0  0  0  0
    8.5123    3.2843    0.8978 C   0  0  0  0  0  0  0  0  0  0  0  0
    9.3339    4.1593    0.2905 N   0  0  0  0  0  0  0  0  0  0  0  0
    8.6459    5.0861   -0.3931 C   0  0  0  0  0  0  0  0  0  0  0  0
    7.3107    5.2150   -0.4953 N   0  0  0  0  0  0  0  0  0  0  0  0
    6.5216    4.3207    0.1355 C   0  0  0  0  0  0  0  0  0  0  0  0
    5.1605    4.5243    0.0040 N   0  0  0  0  0  0  0  0  0  0  0  0
    7.1258    3.2826    0.8642 C   0  0  0  0  0  0  0  0  0  0  0  0
    4.4164    1.6201    0.9176 C   0  0  0  0  0  0  0  0  0  0  0  0
    0.1537    0.7902   -0.6000 H   0  0  0  0  0  0  0  0  0  0  0  0
    0.1861    1.3102    1.0972 H   0  0  0  0  0  0  0  0  0  0  0  0
    0.7843   -0.3214    0.6198 H   0  0  0  0  0  0  0  0  0  0  0  0
    1.8387    0.2484    2.6915 H   0  0  0  0  0  0  0  0  0  0  0  0
    3.6148    0.1005    4.3873 H   0  0  0  0  0  0  0  0  0  0  0  0
    5.8758    0.9736    3.9193 H   0  0  0  0  0  0  0  0  0  0  0  0
   10.9158    2.5076    1.5062 H   0  0  0  0  0  0  0  0  0  0  0  0
    9.8209    1.2167    4.0640 H   0  0  0  0  0  0  0  0  0  0  0  0
   10.3480    2.8947    3.8764 H   0  0  0  0  0  0  0  0  0  0  0  0
   11.5232    1.5762    3.7369 H   0  0  0  0  0  0  0  0  0  0  0  0
    9.8963   -0.3552    1.9161 H   0  0  0  0  0  0  0  0  0  0  0  0
   11.5811    0.1281    1.6681 H   0  0  0  0  0  0  0  0  0  0  0  0
   10.3919    0.3614    0.3761 H   0  0  0  0  0  0  0  0  0  0  0  0
    9.2334    5.8261   -0.9269 H   0  0  0  0  0  0  0  0  0  0  0  0
    4.9425    5.4192   -0.4169 H   0  0  0  0  0  0  0  0  0  0  0  0
    4.5672    4.2261    0.7636 H   0  0  0  0  0  0  0  0  0  0  0  0
    4.6429    1.9961   -0.0797 H   0  0  0  0  0  0  0  0  0  0  0  0
  1  2  1  0  0  0  0
  1 23  1  0  0  0  0
  1 24  1  0  0  0  0
  1 25  1  0  0  0  0
  2  3  2  0  0  0  0
  2  4  1  0  0  0  0
  4  5  1  0  0  0  0
  4 22  2  0  0  0  0
  5  6  2  0  0  0  0
  5 26  1  0  0  0  0
  6  7  1  0  0  0  0
  6 27  1  0  0  0  0
  7  8  2  0  0  0  0
  7 28  1  0  0  0  0
  8  9  1  0  0  0  0
  8 22  1  0  0  0  0
  9 10  2  0  0  0  0
  9 21  1  0  0  0  0
 10 11  1  0  0  0  0
 11 12  1  0  0  0  0
 11 15  1  0  0  0  0
 12 13  1  0  0  0  0
 12 14  1  0  0  0  0
 12 29  1  0  0  0  0
 13 30  1  0  0  0  0
 13 31  1  0  0  0  0
 13 32  1  0  0  0  0
 14 33  1  0  0  0  0
 14 34  1  0  0  0  0
 14 35  1  0  0  0  0
 15 16  1  0  0  0  0
 15 21  2  0  0  0  0
 16 17  2  0  0  0  0
 17 18  1  0  0  0  0
 17 36  1  0  0  0  0
 18 19  2  0  0  0  0
 19 20  1  0  0  0  0
 19 21  1  0  0  0  0
 20 37  1  0  0  0  0
 20 38  1  0  0  0  0
 22 39  1  0  0  0  0
M  END
$$$$
