CHEMBL3937879
 OpenBabel04072215373D

 46 50  0  0  0  0  0  0  0  0999 V2000
    6.2108    2.2439   -4.2790 C   0  0  0  0  0  0  0  0  0  0  0  0
    5.5383    1.2756   -3.4889 O   0  0  0  0  0  0  0  0  0  0  0  0
    4.8611    1.7229   -2.3860 C   0  0  0  0  0  0  0  0  0  0  0  0
    4.4457    3.0430   -2.1763 C   0  0  0  0  0  0  0  0  0  0  0  0
    3.6701    3.4368   -1.0516 C   0  0  0  0  0  0  0  0  0  0  0  0
    3.2712    4.8715   -0.9289 C   0  0  0  0  0  0  0  0  0  0  0  0
    2.9001    5.6151   -2.0702 C   0  0  0  0  0  0  0  0  0  0  0  0
    2.5529    6.9742   -2.0110 C   0  0  0  0  0  0  0  0  0  0  0  0
    2.5183    7.6099   -0.7611 C   0  0  0  0  0  0  0  0  0  0  0  0
    2.2256    8.9086   -0.2730 C   0  0  0  0  0  0  0  0  0  0  0  0
    1.8489   10.0961   -1.0962 C   0  0  0  0  0  0  0  0  0  0  0  0
    1.6634   10.1069   -2.3995 N   0  0  0  0  0  0  0  0  0  0  0  0
    1.3797   11.4165   -2.7106 C   0  0  0  0  0  0  0  0  0  0  0  0
    1.1021   12.0019   -3.9531 C   0  0  0  0  0  0  0  0  0  0  0  0
    0.8684   13.3824   -4.0078 C   0  0  0  0  0  0  0  0  0  0  0  0
    0.9106   14.1627   -2.8493 C   0  0  0  0  0  0  0  0  0  0  0  0
    1.1748   13.5942   -1.5980 C   0  0  0  0  0  0  0  0  0  0  0  0
    1.3983   12.2165   -1.5735 C   0  0  0  0  0  0  0  0  0  0  0  0
    1.6774   11.3438   -0.5571 N   0  0  0  0  0  0  0  0  0  0  0  0
    2.3434    8.9905    1.0623 N   0  0  0  0  0  0  0  0  0  0  0  0
    2.7142    7.7452    1.4161 N   0  0  0  0  0  0  0  0  0  0  0  0
    2.8730    6.8815    0.3654 C   0  0  0  0  0  0  0  0  0  0  0  0
    3.2916    5.5444    0.3108 C   0  0  0  0  0  0  0  0  0  0  0  0
    3.3120    2.4234   -0.1265 C   0  0  0  0  0  0  0  0  0  0  0  0
    2.4322    2.6292    1.0804 C   0  0  0  0  0  0  0  0  0  0  0  0
    3.7886    1.1078   -0.3091 C   0  0  0  0  0  0  0  0  0  0  0  0
    4.5408    0.7657   -1.4279 C   0  0  0  0  0  0  0  0  0  0  0  0
    4.9771   -0.5214   -1.5902 O   0  0  0  0  0  0  0  0  0  0  0  0
    6.7338    1.7127   -5.0804 H   0  0  0  0  0  0  0  0  0  0  0  0
    6.9588    2.7770   -3.6837 H   0  0  0  0  0  0  0  0  0  0  0  0
    5.5111    2.9390   -4.7536 H   0  0  0  0  0  0  0  0  0  0  0  0
    4.7146    3.8008   -2.9060 H   0  0  0  0  0  0  0  0  0  0  0  0
    2.8782    5.1438   -3.0516 H   0  0  0  0  0  0  0  0  0  0  0  0
    2.3023    7.5212   -2.9168 H   0  0  0  0  0  0  0  0  0  0  0  0
    1.0739   11.3913   -4.8474 H   0  0  0  0  0  0  0  0  0  0  0  0
    0.6556   13.8494   -4.9667 H   0  0  0  0  0  0  0  0  0  0  0  0
    0.7337   15.2340   -2.9210 H   0  0  0  0  0  0  0  0  0  0  0  0
    1.2078   14.1993   -0.6986 H   0  0  0  0  0  0  0  0  0  0  0  0
    1.7758   11.5501    0.4251 H   0  0  0  0  0  0  0  0  0  0  0  0
    2.8394    7.5418    2.4011 H   0  0  0  0  0  0  0  0  0  0  0  0
    3.6131    5.0409    1.2165 H   0  0  0  0  0  0  0  0  0  0  0  0
    1.8286    3.5367    1.0284 H   0  0  0  0  0  0  0  0  0  0  0  0
    3.0448    2.6523    1.9880 H   0  0  0  0  0  0  0  0  0  0  0  0
    1.7151    1.8046    1.1647 H   0  0  0  0  0  0  0  0  0  0  0  0
    3.5410    0.3481    0.4280 H   0  0  0  0  0  0  0  0  0  0  0  0
    4.7265   -1.0426   -0.8127 H   0  0  0  0  0  0  0  0  0  0  0  0
  1  2  1  0  0  0  0
  1 29  1  0  0  0  0
  1 30  1  0  0  0  0
  1 31  1  0  0  0  0
  2  3  1  0  0  0  0
  3  4  1  0  0  0  0
  3 27  2  0  0  0  0
  4  5  2  0  0  0  0
  4 32  1  0  0  0  0
  5  6  1  0  0  0  0
  5 24  1  0  0  0  0
  6  7  1  0  0  0  0
  6 23  2  0  0  0  0
  7  8  2  0  0  0  0
  7 33  1  0  0  0  0
  8  9  1  0  0  0  0
  8 34  1  0  0  0  0
  9 10  1  0  0  0  0
  9 22  2  0  0  0  0
 10 11  1  0  0  0  0
 10 20  2  0  0  0  0
 11 12  2  0  0  0  0
 11 19  1  0  0  0  0
 12 13  1  0  0  0  0
 13 14  1  0  0  0  0
 13 18  2  0  0  0  0
 14 15  2  0  0  0  0
 14 35  1  0  0  0  0
 15 16  1  0  0  0  0
 15 36  1  0  0  0  0
 16 17  2  0  0  0  0
 16 37  1  0  0  0  0
 17 18  1  0  0  0  0
 17 38  1  0  0  0  0
 18 19  1  0  0  0  0
 19 39  1  0  0  0  0
 20 21  1  0  0  0  0
 21 22  1  0  0  0  0
 21 40  1  0  0  0  0
 22 23  1  0  0  0  0
 23 41  1  0  0  0  0
 24 25  1  0  0  0  0
 24 26  2  0  0  0  0
 25 42  1  0  0  0  0
 25 43  1  0  0  0  0
 25 44  1  0  0  0  0
 26 27  1  0  0  0  0
 26 45  1  0  0  0  0
 27 28  1  0  0  0  0
 28 46  1  0  0  0  0
M  END
$$$$
