CHEMBL3891979
 OpenBabel04072215373D

 51 54  0  0  0  0  0  0  0  0999 V2000
    0.5706    2.3104   -2.3101 C   0  0  0  0  0  0  0  0  0  0  0  0
    2.0317    1.9989   -2.2515 C   0  0  0  0  0  0  0  0  0  0  0  0
    2.9900    2.8549   -1.8689 C   0  0  0  0  0  0  0  0  0  0  0  0
    4.4044    2.3786   -1.9056 C   0  0  0  0  0  0  0  0  0  0  0  0
    4.6445    1.2294   -2.2666 O   0  0  0  0  0  0  0  0  0  0  0  0
    5.3172    3.3154   -1.4669 N   0  0  0  0  0  0  0  0  0  0  0  0
    6.7204    3.0887   -1.4211 C   0  0  0  0  0  0  0  0  0  0  0  0
    7.3295    2.0243   -2.0880 C   0  0  0  0  0  0  0  0  0  0  0  0
    8.6807    1.7368   -1.9247 C   0  0  0  0  0  0  0  0  0  0  0  0
    9.4555    2.5517   -1.1090 C   0  0  0  0  0  0  0  0  0  0  0  0
    8.9004    3.7017   -0.5473 C   0  0  0  0  0  0  0  0  0  0  0  0
    9.7453    4.6700    0.1928 C   0  0  0  0  0  0  0  0  0  0  0  0
    9.2354    5.3128    1.1031 O   0  0  0  0  0  0  0  0  0  0  0  0
   11.1848    4.8927   -0.1562 C   0  0  0  0  0  0  0  0  0  0  0  0
   11.7349    4.5792   -1.4161 C   0  0  0  0  0  0  0  0  0  0  0  0
   13.1109    4.7426   -1.6898 C   0  0  0  0  0  0  0  0  0  0  0  0
   13.8908    5.4088   -0.7307 C   0  0  0  0  0  0  0  0  0  0  0  0
   15.2262    5.9211   -0.5679 C   0  0  0  0  0  0  0  0  0  0  0  0
   16.3405    5.3036    0.1358 C   0  0  0  0  0  0  0  0  0  0  0  0
   16.2334    4.2712    0.9967 C   0  0  0  0  0  0  0  0  0  0  0  0
   16.9755    4.2370    2.2797 C   0  0  0  0  0  0  0  0  0  0  0  0
   16.7960    3.1838    3.1681 C   0  0  0  0  0  0  0  0  0  0  0  0
   17.2951    3.2883    4.4717 C   0  0  0  0  0  0  0  0  0  0  0  0
   17.9574    4.4484    4.8551 C   0  0  0  0  0  0  0  0  0  0  0  0
   18.1111    5.4462    3.9082 C   0  0  0  0  0  0  0  0  0  0  0  0
   17.6406    5.3663    2.6440 N   0  0  0  0  0  0  0  0  0  0  0  0
   15.0419    7.1966   -0.1649 N   0  0  0  0  0  0  0  0  0  0  0  0
   14.0219    7.0249    0.7015 N   0  0  0  0  0  0  0  0  0  0  0  0
   13.2199    5.9785    0.3526 C   0  0  0  0  0  0  0  0  0  0  0  0
   11.9568    5.5842    0.7832 C   0  0  0  0  0  0  0  0  0  0  0  0
    7.5213    3.9600   -0.6753 C   0  0  0  0  0  0  0  0  0  0  0  0
    0.0242    1.4225   -2.6385 H   0  0  0  0  0  0  0  0  0  0  0  0
    0.3739    3.1075   -3.0306 H   0  0  0  0  0  0  0  0  0  0  0  0
    0.1902    2.5928   -1.3256 H   0  0  0  0  0  0  0  0  0  0  0  0
    2.2986    0.9828   -2.5495 H   0  0  0  0  0  0  0  0  0  0  0  0
    2.7756    3.8749   -1.5807 H   0  0  0  0  0  0  0  0  0  0  0  0
    4.9752    4.1645   -1.0398 H   0  0  0  0  0  0  0  0  0  0  0  0
    6.7714    1.3715   -2.7584 H   0  0  0  0  0  0  0  0  0  0  0  0
    9.1187    0.8794   -2.4268 H   0  0  0  0  0  0  0  0  0  0  0  0
   10.4958    2.2803   -0.9520 H   0  0  0  0  0  0  0  0  0  0  0  0
   11.0992    4.2323   -2.2284 H   0  0  0  0  0  0  0  0  0  0  0  0
   13.5105    4.4891   -2.6687 H   0  0  0  0  0  0  0  0  0  0  0  0
   17.1758    5.9969    0.2884 H   0  0  0  0  0  0  0  0  0  0  0  0
   15.3906    3.5855    0.9376 H   0  0  0  0  0  0  0  0  0  0  0  0
   16.2303    2.3014    2.8789 H   0  0  0  0  0  0  0  0  0  0  0  0
   17.1384    2.4866    5.1831 H   0  0  0  0  0  0  0  0  0  0  0  0
   18.3369    4.5703    5.8603 H   0  0  0  0  0  0  0  0  0  0  0  0
   18.6071    6.3811    4.1631 H   0  0  0  0  0  0  0  0  0  0  0  0
   13.8359    7.7511    1.3819 H   0  0  0  0  0  0  0  0  0  0  0  0
   11.5359    5.9366    1.7197 H   0  0  0  0  0  0  0  0  0  0  0  0
    7.0951    4.8234   -0.1783 H   0  0  0  0  0  0  0  0  0  0  0  0
  1  2  1  0  0  0  0
  1 32  1  0  0  0  0
  1 33  1  0  0  0  0
  1 34  1  0  0  0  0
  2  3  2  0  0  0  0
  2 35  1  0  0  0  0
  3  4  1  0  0  0  0
  3 36  1  0  0  0  0
  4  5  2  0  0  0  0
  4  6  1  0  0  0  0
  6  7  1  0  0  0  0
  6 37  1  0  0  0  0
  7  8  1  0  0  0  0
  7 31  2  0  0  0  0
  8  9  2  0  0  0  0
  8 38  1  0  0  0  0
  9 10  1  0  0  0  0
  9 39  1  0  0  0  0
 10 11  2  0  0  0  0
 10 40  1  0  0  0  0
 11 12  1  0  0  0  0
 11 31  1  0  0  0  0
 12 13  2  0  0  0  0
 12 14  1  0  0  0  0
 14 15  1  0  0  0  0
 14 30  2  0  0  0  0
 15 16  2  0  0  0  0
 15 41  1  0  0  0  0
 16 17  1  0  0  0  0
 16 42  1  0  0  0  0
 17 18  1  0  0  0  0
 17 29  2  0  0  0  0
 18 19  1  0  0  0  0
 18 27  2  0  0  0  0
 19 20  2  0  0  0  0
 19 43  1  0  0  0  0
 20 21  1  0  0  0  0
 20 44  1  0  0  0  0
 21 22  1  0  0  0  0
 21 26  2  0  0  0  0
 22 23  2  0  0  0  0
 22 45  1  0  0  0  0
 23 24  1  0  0  0  0
 23 46  1  0  0  0  0
 24 25  2  0  0  0  0
 24 47  1  0  0  0  0
 25 26  1  0  0  0  0
 25 48  1  0  0  0  0
 27 28  1  0  0  0  0
 28 29  1  0  0  0  0
 28 49  1  0  0  0  0
 29 30  1  0  0  0  0
 30 50  1  0  0  0  0
 31 51  1  0  0  0  0
M  END
$$$$
