CHEMBL358038
 OpenBabel04072215363D

 55 60  0  0  0  0  0  0  0  0999 V2000
    0.5536    0.1256    1.5666 C   0  0  0  0  0  0  0  0  0  0  0  0
    1.9672    0.0348    1.5525 O   0  0  0  0  0  0  0  0  0  0  0  0
    2.4196   -1.1320    0.8620 C   0  0  0  0  0  0  0  0  0  0  0  0
    3.9187   -1.0617    0.8479 C   0  0  0  0  0  0  0  0  0  0  0  0
    4.5820   -0.8240   -0.3515 C   0  0  0  0  0  0  0  0  0  0  0  0
    5.9605   -0.5857   -0.3690 C   0  0  0  0  0  0  0  0  0  0  0  0
    6.6396   -0.5337    0.8540 C   0  0  0  0  0  0  0  0  0  0  0  0
    5.9763   -0.8093    2.0680 C   0  0  0  0  0  0  0  0  0  0  0  0
    4.6175   -1.1221    2.0532 C   0  0  0  0  0  0  0  0  0  0  0  0
    6.9982   -0.7409    2.9817 C   0  0  0  0  0  0  0  0  0  0  0  0
    7.1079   -1.4809    4.1907 C   0  0  0  0  0  0  0  0  0  0  0  0
    8.4692   -1.8451    4.5817 C   0  0  0  0  0  0  0  0  0  0  0  0
    9.5333   -1.3815    3.7988 C   0  0  0  0  0  0  0  0  0  0  0  0
    9.1873   -0.1013    3.3620 C   0  0  0  0  0  0  0  0  0  0  0  0
    8.1182   -0.1135    2.5205 C   0  0  0  0  0  0  0  0  0  0  0  0
    8.0061   -0.3415    1.1388 N   0  0  0  0  0  0  0  0  0  0  0  0
    9.0890   -0.9531    0.3400 C   0  0  0  0  0  0  0  0  0  0  0  0
    9.1368   -0.7118   -1.1622 C   0  0  0  0  0  0  0  0  0  0  0  0
   10.2731   -1.4554   -1.8555 C   0  0  0  0  0  0  0  0  0  0  0  0
   10.2493   -1.1550   -3.2494 O   0  0  0  0  0  0  0  0  0  0  0  0
   10.2798    0.8342    3.6430 C   0  0  0  0  0  0  0  0  0  0  0  0
   11.3797   -0.0745    3.1800 C   0  0  0  0  0  0  0  0  0  0  0  0
   12.2291    0.3797    2.1685 C   0  0  0  0  0  0  0  0  0  0  0  0
   12.6617   -0.5430    1.2383 C   0  0  0  0  0  0  0  0  0  0  0  0
   12.3094   -1.8963    1.3907 C   0  0  0  0  0  0  0  0  0  0  0  0
   11.4784   -2.3539    2.4601 C   0  0  0  0  0  0  0  0  0  0  0  0
   10.9519   -1.4388    3.3884 C   0  0  0  0  0  0  0  0  0  0  0  0
    8.4035   -2.1601    5.9940 C   0  0  0  0  0  0  0  0  0  0  0  0
    9.2578   -2.3686    6.8472 O   0  0  0  0  0  0  0  0  0  0  0  0
    7.0457   -1.9815    6.3379 N   0  0  0  0  0  0  0  0  0  0  0  0
    6.1385   -1.5962    5.2659 C   0  0  0  0  0  0  0  0  0  0  0  0
    0.2735    1.0496    2.0787 H   0  0  0  0  0  0  0  0  0  0  0  0
    0.1300   -0.7212    2.1115 H   0  0  0  0  0  0  0  0  0  0  0  0
    0.1643    0.1594    0.5451 H   0  0  0  0  0  0  0  0  0  0  0  0
    2.0174   -1.1380   -0.1572 H   0  0  0  0  0  0  0  0  0  0  0  0
    2.0886   -2.0353    1.3844 H   0  0  0  0  0  0  0  0  0  0  0  0
    4.0715   -0.8241   -1.2961 H   0  0  0  0  0  0  0  0  0  0  0  0
    6.4503   -0.3814   -1.3087 H   0  0  0  0  0  0  0  0  0  0  0  0
    4.0802   -1.2953    2.9873 H   0  0  0  0  0  0  0  0  0  0  0  0
    9.0389   -2.0334    0.5496 H   0  0  0  0  0  0  0  0  0  0  0  0
   10.0147   -0.5670    0.7554 H   0  0  0  0  0  0  0  0  0  0  0  0
    9.2098    0.3635   -1.3657 H   0  0  0  0  0  0  0  0  0  0  0  0
    8.2271   -1.0633   -1.6464 H   0  0  0  0  0  0  0  0  0  0  0  0
   10.1720   -2.5423   -1.7493 H   0  0  0  0  0  0  0  0  0  0  0  0
   11.2517   -1.1612   -1.4729 H   0  0  0  0  0  0  0  0  0  0  0  0
    9.4116   -1.5061   -3.6172 H   0  0  0  0  0  0  0  0  0  0  0  0
   10.3956    0.9600    4.7337 H   0  0  0  0  0  0  0  0  0  0  0  0
   10.1838    1.8068    3.1700 H   0  0  0  0  0  0  0  0  0  0  0  0
   12.3213    1.4482    1.9791 H   0  0  0  0  0  0  0  0  0  0  0  0
   13.1516   -0.1858    0.3324 H   0  0  0  0  0  0  0  0  0  0  0  0
   12.5830   -2.5759    0.5828 H   0  0  0  0  0  0  0  0  0  0  0  0
   11.0895   -3.3680    2.3861 H   0  0  0  0  0  0  0  0  0  0  0  0
    6.8306   -1.7644    7.3029 H   0  0  0  0  0  0  0  0  0  0  0  0
    5.6954   -0.6199    5.4815 H   0  0  0  0  0  0  0  0  0  0  0  0
    5.3740   -2.3625    5.1245 H   0  0  0  0  0  0  0  0  0  0  0  0
  1  2  1  0  0  0  0
  1 32  1  0  0  0  0
  1 33  1  0  0  0  0
  1 34  1  0  0  0  0
  2  3  1  0  0  0  0
  3  4  1  0  0  0  0
  3 35  1  0  0  0  0
  3 36  1  0  0  0  0
  4  5  1  0  0  0  0
  4  9  2  0  0  0  0
  5  6  2  0  0  0  0
  5 37  1  0  0  0  0
  6  7  1  0  0  0  0
  6 38  1  0  0  0  0
  7  8  2  0  0  0  0
  7 16  1  0  0  0  0
  8  9  1  0  0  0  0
  8 10  1  0  0  0  0
  9 39  1  0  0  0  0
 10 11  1  0  0  0  0
 10 15  2  0  0  0  0
 11 12  2  0  0  0  0
 11 31  1  0  0  0  0
 12 13  1  0  0  0  0
 12 28  1  0  0  0  0
 13 14  2  0  0  0  0
 13 27  1  0  0  0  0
 14 15  1  0  0  0  0
 14 21  1  0  0  0  0
 15 16  1  0  0  0  0
 16 17  1  0  0  0  0
 17 18  1  0  0  0  0
 17 40  1  0  0  0  0
 17 41  1  0  0  0  0
 18 19  1  0  0  0  0
 18 42  1  0  0  0  0
 18 43  1  0  0  0  0
 19 20  1  0  0  0  0
 19 44  1  0  0  0  0
 19 45  1  0  0  0  0
 20 46  1  0  0  0  0
 21 22  1  0  0  0  0
 21 47  1  0  0  0  0
 21 48  1  0  0  0  0
 22 23  1  0  0  0  0
 22 27  2  0  0  0  0
 23 24  2  0  0  0  0
 23 49  1  0  0  0  0
 24 25  1  0  0  0  0
 24 50  1  0  0  0  0
 25 26  2  0  0  0  0
 25 51  1  0  0  0  0
 26 27  1  0  0  0  0
 26 52  1  0  0  0  0
 28 29  2  0  0  0  0
 28 30  1  0  0  0  0
 30 31  1  0  0  0  0
 30 53  1  0  0  0  0
 31 54  1  0  0  0  0
 31 55  1  0  0  0  0
M  END
$$$$
