CHEMBL2011294
 OpenBabel04072215363D

 44 47  0  0  0  0  0  0  0  0999 V2000
    1.6184   -0.8673    0.0862 C   0  0  0  0  0  0  0  0  0  0  0  0
    2.5266    0.2279    0.1159 O   0  0  0  0  0  0  0  0  0  0  0  0
    3.1632    0.4744    1.3008 C   0  0  0  0  0  0  0  0  0  0  0  0
    3.0055   -0.2478    2.4817 C   0  0  0  0  0  0  0  0  0  0  0  0
    3.7406    0.0982    3.6224 C   0  0  0  0  0  0  0  0  0  0  0  0
    4.6108    1.1991    3.6034 C   0  0  0  0  0  0  0  0  0  0  0  0
    5.3274    1.5375    4.7889 N   0  0  0  0  0  0  0  0  0  0  0  0
    5.6246    0.5632    5.6801 N   0  0  0  0  0  0  0  0  0  0  0  0
    6.4354    1.1345    6.5811 C   0  0  0  0  0  0  0  0  0  0  0  0
    7.0897    0.2951    7.5939 C   0  0  0  0  0  0  0  0  0  0  0  0
    8.3509    0.6123    8.1020 C   0  0  0  0  0  0  0  0  0  0  0  0
    8.8736   -0.1651    9.1223 C   0  0  0  0  0  0  0  0  0  0  0  0
    8.2587   -1.2565    9.6272 N   0  0  0  0  0  0  0  0  0  0  0  0
    7.0708   -1.5868    9.0856 C   0  0  0  0  0  0  0  0  0  0  0  0
    6.4586   -0.8547    8.0795 C   0  0  0  0  0  0  0  0  0  0  0  0
    6.4780    2.5620    6.4036 C   0  0  0  0  0  0  0  0  0  0  0  0
    7.0745    3.6047    7.2505 C   0  0  0  0  0  0  0  0  0  0  0  0
    7.6696    4.7505    6.6981 C   0  0  0  0  0  0  0  0  0  0  0  0
    8.2795    5.7081    7.5164 C   0  0  0  0  0  0  0  0  0  0  0  0
    8.3417    5.5032    8.8883 C   0  0  0  0  0  0  0  0  0  0  0  0
    8.9731    6.3938    9.6636 F   0  0  0  0  0  0  0  0  0  0  0  0
    7.7639    4.3824    9.4631 C   0  0  0  0  0  0  0  0  0  0  0  0
    7.0995    3.4584    8.6502 C   0  0  0  0  0  0  0  0  0  0  0  0
    5.7569    2.7933    5.2361 C   0  0  0  0  0  0  0  0  0  0  0  0
    5.4087    3.9666    4.6294 N   0  0  0  0  0  0  0  0  0  0  0  0
    4.7738    1.9214    2.4177 C   0  0  0  0  0  0  0  0  0  0  0  0
    4.0537    1.5537    1.2735 C   0  0  0  0  0  0  0  0  0  0  0  0
    1.2527   -0.9716   -0.9402 H   0  0  0  0  0  0  0  0  0  0  0  0
    0.7548   -0.6752    0.7314 H   0  0  0  0  0  0  0  0  0  0  0  0
    2.1136   -1.8059    0.3561 H   0  0  0  0  0  0  0  0  0  0  0  0
    2.3209   -1.0869    2.5543 H   0  0  0  0  0  0  0  0  0  0  0  0
    3.5987   -0.4804    4.5337 H   0  0  0  0  0  0  0  0  0  0  0  0
    8.9200    1.4598    7.7364 H   0  0  0  0  0  0  0  0  0  0  0  0
    9.8270    0.0838    9.5802 H   0  0  0  0  0  0  0  0  0  0  0  0
    6.6083   -2.4884    9.4798 H   0  0  0  0  0  0  0  0  0  0  0  0
    5.4937   -1.1696    7.6872 H   0  0  0  0  0  0  0  0  0  0  0  0
    7.6828    4.9077    5.6223 H   0  0  0  0  0  0  0  0  0  0  0  0
    8.7231    6.6012    7.0884 H   0  0  0  0  0  0  0  0  0  0  0  0
    7.8358    4.2268   10.5353 H   0  0  0  0  0  0  0  0  0  0  0  0
    6.6286    2.6044    9.1333 H   0  0  0  0  0  0  0  0  0  0  0  0
    5.4482    4.8246    5.1765 H   0  0  0  0  0  0  0  0  0  0  0  0
    4.6148    3.9854    3.9903 H   0  0  0  0  0  0  0  0  0  0  0  0
    5.4964    2.7298    2.3369 H   0  0  0  0  0  0  0  0  0  0  0  0
    4.2017    2.1011    0.3461 H   0  0  0  0  0  0  0  0  0  0  0  0
  1  2  1  0  0  0  0
  1 28  1  0  0  0  0
  1 29  1  0  0  0  0
  1 30  1  0  0  0  0
  2  3  1  0  0  0  0
  3  4  1  0  0  0  0
  3 27  2  0  0  0  0
  4  5  2  0  0  0  0
  4 31  1  0  0  0  0
  5  6  1  0  0  0  0
  5 32  1  0  0  0  0
  6  7  1  0  0  0  0
  6 26  2  0  0  0  0
  7  8  1  0  0  0  0
  7 24  1  0  0  0  0
  8  9  2  0  0  0  0
  9 10  1  0  0  0  0
  9 16  1  0  0  0  0
 10 11  1  0  0  0  0
 10 15  2  0  0  0  0
 11 12  2  0  0  0  0
 11 33  1  0  0  0  0
 12 13  1  0  0  0  0
 12 34  1  0  0  0  0
 13 14  2  0  0  0  0
 14 15  1  0  0  0  0
 14 35  1  0  0  0  0
 15 36  1  0  0  0  0
 16 17  1  0  0  0  0
 16 24  2  0  0  0  0
 17 18  1  0  0  0  0
 17 23  2  0  0  0  0
 18 19  2  0  0  0  0
 18 37  1  0  0  0  0
 19 20  1  0  0  0  0
 19 38  1  0  0  0  0
 20 21  1  0  0  0  0
 20 22  2  0  0  0  0
 22 23  1  0  0  0  0
 22 39  1  0  0  0  0
 23 40  1  0  0  0  0
 24 25  1  0  0  0  0
 25 41  1  0  0  0  0
 25 42  1  0  0  0  0
 26 27  1  0  0  0  0
 26 43  1  0  0  0  0
 27 44  1  0  0  0  0
M  END
$$$$
