CHEMBL3690540
 OpenBabel04072215373D

 51 54  0  0  0  0  0  0  0  0999 V2000
   -2.4260    1.4268    0.7091 C   0  0  0  0  0  0  0  0  0  0  0  0
   -1.2487    0.6387    0.4248 N   0  0  0  0  0  0  0  0  0  0  0  0
   -1.2446   -0.7278    0.3334 C   0  0  0  0  0  0  0  0  0  0  0  0
    0.0590   -1.0624    0.0663 C   0  0  0  0  0  0  0  0  0  0  0  0
    0.8391    0.0595   -0.0077 N   0  0  0  0  0  0  0  0  0  0  0  0
    0.0394    1.0895    0.2092 C   0  0  0  0  0  0  0  0  0  0  0  0
    0.3501    2.4756    0.2473 C   0  0  0  0  0  0  0  0  0  0  0  0
    1.6074    2.8985    0.0311 C   0  0  0  0  0  0  0  0  0  0  0  0
    2.0184    4.3006    0.0620 C   0  0  0  0  0  0  0  0  0  0  0  0
    1.4427    5.2871    0.9878 C   0  0  0  0  0  0  0  0  0  0  0  0
    1.8711    6.5598    0.9872 C   0  0  0  0  0  0  0  0  0  0  0  0
    2.8687    6.9543    0.0969 N   0  0  0  0  0  0  0  0  0  0  0  0
    3.4564    8.1944   -0.1366 C   0  0  0  0  0  0  0  0  0  0  0  0
    3.1544    9.4885    0.4999 C   0  0  0  0  0  0  0  0  0  0  0  0
    4.2125   10.3863    0.7118 C   0  0  0  0  0  0  0  0  0  0  0  0
    3.9861   11.6478    1.2531 C   0  0  0  0  0  0  0  0  0  0  0  0
    2.6941   12.0397    1.5903 C   0  0  0  0  0  0  0  0  0  0  0  0
    1.6107   11.1875    1.3749 C   0  0  0  0  0  0  0  0  0  0  0  0
    0.2733   11.5610    1.6676 N   0  0  0  0  0  0  0  0  0  0  0  0
   -0.1557   12.8086    2.0724 C   0  0  0  0  0  0  0  0  0  0  0  0
    0.5307   13.8132    2.2253 O   0  0  0  0  0  0  0  0  0  0  0  0
   -1.5043   12.8380    2.3508 N   0  0  0  0  0  0  0  0  0  0  0  0
   -2.0966   14.1262    2.7450 C   0  0  0  0  0  0  0  0  0  0  0  0
   -2.3531   15.1311    1.6105 C   0  0  0  0  0  0  0  0  0  0  0  0
   -2.1613   14.5801    0.3894 F   0  0  0  0  0  0  0  0  0  0  0  0
   -3.6446   15.5468    1.6507 F   0  0  0  0  0  0  0  0  0  0  0  0
   -1.5770   16.2293    1.7069 F   0  0  0  0  0  0  0  0  0  0  0  0
    1.8516    9.9083    0.8348 C   0  0  0  0  0  0  0  0  0  0  0  0
    4.4256    7.9193   -1.0948 C   0  0  0  0  0  0  0  0  0  0  0  0
    4.4380    6.6068   -1.4697 N   0  0  0  0  0  0  0  0  0  0  0  0
    3.4913    6.0420   -0.7564 C   0  0  0  0  0  0  0  0  0  0  0  0
    3.0424    4.6891   -0.7364 C   0  0  0  0  0  0  0  0  0  0  0  0
   -3.2910    0.7666    0.8188 H   0  0  0  0  0  0  0  0  0  0  0  0
   -2.5974    2.1159   -0.1248 H   0  0  0  0  0  0  0  0  0  0  0  0
   -2.2649    1.9729    1.6420 H   0  0  0  0  0  0  0  0  0  0  0  0
   -2.1335   -1.3276    0.4642 H   0  0  0  0  0  0  0  0  0  0  0  0
    0.4761   -2.0502   -0.0755 H   0  0  0  0  0  0  0  0  0  0  0  0
   -0.4360    3.1951    0.4416 H   0  0  0  0  0  0  0  0  0  0  0  0
    2.3860    2.1675   -0.1936 H   0  0  0  0  0  0  0  0  0  0  0  0
    0.6841    4.9607    1.6909 H   0  0  0  0  0  0  0  0  0  0  0  0
    1.4809    7.2942    1.6763 H   0  0  0  0  0  0  0  0  0  0  0  0
    5.2341   10.1189    0.4499 H   0  0  0  0  0  0  0  0  0  0  0  0
    4.8140   12.3361    1.4049 H   0  0  0  0  0  0  0  0  0  0  0  0
    2.5752   13.0284    2.0197 H   0  0  0  0  0  0  0  0  0  0  0  0
   -0.4366   10.8569    1.5367 H   0  0  0  0  0  0  0  0  0  0  0  0
   -2.0948   12.2043    1.8315 H   0  0  0  0  0  0  0  0  0  0  0  0
   -1.4423   14.5923    3.4909 H   0  0  0  0  0  0  0  0  0  0  0  0
   -3.0403   13.8874    3.2485 H   0  0  0  0  0  0  0  0  0  0  0  0
    1.0091    9.2545    0.6310 H   0  0  0  0  0  0  0  0  0  0  0  0
    5.1184    8.6217   -1.5426 H   0  0  0  0  0  0  0  0  0  0  0  0
    3.5427    3.9979   -1.4081 H   0  0  0  0  0  0  0  0  0  0  0  0
  1  2  1  0  0  0  0
  1 33  1  0  0  0  0
  1 34  1  0  0  0  0
  1 35  1  0  0  0  0
  2  3  1  0  0  0  0
  2  6  1  0  0  0  0
  3  4  2  0  0  0  0
  3 36  1  0  0  0  0
  4  5  1  0  0  0  0
  4 37  1  0  0  0  0
  5  6  2  0  0  0  0
  6  7  1  0  0  0  0
  7  8  2  0  0  0  0
  7 38  1  0  0  0  0
  8  9  1  0  0  0  0
  8 39  1  0  0  0  0
  9 10  1  0  0  0  0
  9 32  2  0  0  0  0
 10 11  2  0  0  0  0
 10 40  1  0  0  0  0
 11 12  1  0  0  0  0
 11 41  1  0  0  0  0
 12 13  1  0  0  0  0
 12 31  1  0  0  0  0
 13 14  1  0  0  0  0
 13 29  2  0  0  0  0
 14 15  1  0  0  0  0
 14 28  2  0  0  0  0
 15 16  2  0  0  0  0
 15 42  1  0  0  0  0
 16 17  1  0  0  0  0
 16 43  1  0  0  0  0
 17 18  2  0  0  0  0
 17 44  1  0  0  0  0
 18 19  1  0  0  0  0
 18 28  1  0  0  0  0
 19 20  1  0  0  0  0
 19 45  1  0  0  0  0
 20 21  2  0  0  0  0
 20 22  1  0  0  0  0
 22 23  1  0  0  0  0
 22 46  1  0  0  0  0
 23 24  1  0  0  0  0
 23 47  1  0  0  0  0
 23 48  1  0  0  0  0
 24 25  1  0  0  0  0
 24 26  1  0  0  0  0
 24 27  1  0  0  0  0
 28 49  1  0  0  0  0
 29 30  1  0  0  0  0
 29 50  1  0  0  0  0
 30 31  2  0  0  0  0
 31 32  1  0  0  0  0
 32 51  1  0  0  0  0
M  END
$$$$
