CHEMBL3128221
 OpenBabel04072215363D

 59 63  0  0  0  0  0  0  0  0999 V2000
    1.3834   -0.4278   -2.3135 O   0  0  0  0  0  0  0  0  0  0  0  0
    2.1921   -0.9578   -1.2359 S   0  0  0  0  0  0  0  0  0  0  0  0
    2.4707   -0.1749   -0.0520 O   0  0  0  0  0  0  0  0  0  0  0  0
    1.4769   -2.4112   -0.7863 N   0  0  0  0  0  0  0  0  0  0  0  0
    1.9511   -3.1183    0.3460 C   0  0  0  0  0  0  0  0  0  0  0  0
    1.5511   -2.7666    1.6333 C   0  0  0  0  0  0  0  0  0  0  0  0
    1.9858   -3.5249    2.7214 C   0  0  0  0  0  0  0  0  0  0  0  0
    2.8033   -4.6371    2.5144 C   0  0  0  0  0  0  0  0  0  0  0  0
    3.1938   -5.0106    1.2194 C   0  0  0  0  0  0  0  0  0  0  0  0
    4.0184   -6.2591    0.9941 C   0  0  0  0  0  0  0  0  0  0  0  0
    3.2229   -7.4047    1.3995 N   0  0  0  0  0  0  0  0  0  0  0  0
    3.8118   -8.6571    1.2780 C   0  0  0  0  0  0  0  0  0  0  0  0
    5.1601   -8.7873    1.2943 N   0  0  0  0  0  0  0  0  0  0  0  0
    5.6951  -10.0217    1.2146 C   0  0  0  0  0  0  0  0  0  0  0  0
    5.0550  -11.1965    1.1006 N   0  0  0  0  0  0  0  0  0  0  0  0
    3.7185  -11.0363    1.0915 C   0  0  0  0  0  0  0  0  0  0  0  0
    3.0480   -9.8300    1.1724 C   0  0  0  0  0  0  0  0  0  0  0  0
    1.6856  -10.1835    1.1202 C   0  0  0  0  0  0  0  0  0  0  0  0
    1.4912  -11.5015    1.0166 N   0  0  0  0  0  0  0  0  0  0  0  0
    2.7510  -12.0090    1.0312 N   0  0  0  0  0  0  0  0  0  0  0  0
    2.9139  -13.4555    0.9380 C   0  0  0  0  0  0  0  0  0  0  0  0
    4.1226  -14.0165    1.6877 C   0  0  0  0  0  0  0  0  0  0  0  0
    4.2728  -15.5195    1.6234 C   0  0  0  0  0  0  0  0  0  0  0  0
    5.4035  -16.0762    1.0050 C   0  0  0  0  0  0  0  0  0  0  0  0
    5.6193  -17.4544    1.0186 C   0  0  0  0  0  0  0  0  0  0  0  0
    4.7042  -18.2947    1.6458 C   0  0  0  0  0  0  0  0  0  0  0  0
    3.5682  -17.7566    2.2491 C   0  0  0  0  0  0  0  0  0  0  0  0
    3.3512  -16.3756    2.2392 C   0  0  0  0  0  0  0  0  0  0  0  0
    2.7651   -4.2318    0.1367 C   0  0  0  0  0  0  0  0  0  0  0  0
    3.7298   -1.4785   -1.9586 C   0  0  0  0  0  0  0  0  0  0  0  0
    3.7088   -2.3398   -3.0616 C   0  0  0  0  0  0  0  0  0  0  0  0
    4.9129   -2.7653   -3.6253 C   0  0  0  0  0  0  0  0  0  0  0  0
    6.1229   -2.3166   -3.0931 C   0  0  0  0  0  0  0  0  0  0  0  0
    7.7520   -2.8983   -3.8563 Br  0  0  0  0  0  0  0  0  0  0  0  0
    6.1427   -1.4428   -2.0045 C   0  0  0  0  0  0  0  0  0  0  0  0
    4.9410   -1.0212   -1.4309 C   0  0  0  0  0  0  0  0  0  0  0  0
    0.4882   -2.4700   -1.0224 H   0  0  0  0  0  0  0  0  0  0  0  0
    0.9026   -1.9111    1.8007 H   0  0  0  0  0  0  0  0  0  0  0  0
    1.6754   -3.2582    3.7296 H   0  0  0  0  0  0  0  0  0  0  0  0
    3.1189   -5.2347    3.3672 H   0  0  0  0  0  0  0  0  0  0  0  0
    4.9496   -6.1761    1.5671 H   0  0  0  0  0  0  0  0  0  0  0  0
    4.2820   -6.3435   -0.0679 H   0  0  0  0  0  0  0  0  0  0  0  0
    2.2621   -7.3761    1.0832 H   0  0  0  0  0  0  0  0  0  0  0  0
    6.7794  -10.0734    1.2510 H   0  0  0  0  0  0  0  0  0  0  0  0
    0.8239   -9.5295    1.1473 H   0  0  0  0  0  0  0  0  0  0  0  0
    2.9564  -13.6978   -0.1302 H   0  0  0  0  0  0  0  0  0  0  0  0
    1.9926  -13.8980    1.3395 H   0  0  0  0  0  0  0  0  0  0  0  0
    4.0894  -13.7151    2.7422 H   0  0  0  0  0  0  0  0  0  0  0  0
    5.0383  -13.5812    1.2767 H   0  0  0  0  0  0  0  0  0  0  0  0
    6.1414  -15.4353    0.5263 H   0  0  0  0  0  0  0  0  0  0  0  0
    6.5102  -17.8681    0.5533 H   0  0  0  0  0  0  0  0  0  0  0  0
    4.8810  -19.3668    1.6720 H   0  0  0  0  0  0  0  0  0  0  0  0
    2.8583  -18.4149    2.7442 H   0  0  0  0  0  0  0  0  0  0  0  0
    2.4713  -15.9778    2.7393 H   0  0  0  0  0  0  0  0  0  0  0  0
    3.0493   -4.5060   -0.8759 H   0  0  0  0  0  0  0  0  0  0  0  0
    2.7643   -2.6793   -3.4803 H   0  0  0  0  0  0  0  0  0  0  0  0
    4.8993   -3.4398   -4.4780 H   0  0  0  0  0  0  0  0  0  0  0  0
    7.0856   -1.0844   -1.5984 H   0  0  0  0  0  0  0  0  0  0  0  0
    4.9587   -0.3385   -0.5837 H   0  0  0  0  0  0  0  0  0  0  0  0
  1  2  2  0  0  0  0
  2  3  2  0  0  0  0
  2  4  1  0  0  0  0
  2 30  1  0  0  0  0
  4  5  1  0  0  0  0
  4 37  1  0  0  0  0
  5  6  1  0  0  0  0
  5 29  2  0  0  0  0
  6  7  2  0  0  0  0
  6 38  1  0  0  0  0
  7  8  1  0  0  0  0
  7 39  1  0  0  0  0
  8  9  2  0  0  0  0
  8 40  1  0  0  0  0
  9 10  1  0  0  0  0
  9 29  1  0  0  0  0
 10 11  1  0  0  0  0
 10 41  1  0  0  0  0
 10 42  1  0  0  0  0
 11 12  1  0  0  0  0
 11 43  1  0  0  0  0
 12 13  1  0  0  0  0
 12 17  2  0  0  0  0
 13 14  2  0  0  0  0
 14 15  1  0  0  0  0
 14 44  1  0  0  0  0
 15 16  2  0  0  0  0
 16 17  1  0  0  0  0
 16 20  1  0  0  0  0
 17 18  1  0  0  0  0
 18 19  2  0  0  0  0
 18 45  1  0  0  0  0
 19 20  1  0  0  0  0
 20 21  1  0  0  0  0
 21 22  1  0  0  0  0
 21 46  1  0  0  0  0
 21 47  1  0  0  0  0
 22 23  1  0  0  0  0
 22 48  1  0  0  0  0
 22 49  1  0  0  0  0
 23 24  1  0  0  0  0
 23 28  2  0  0  0  0
 24 25  2  0  0  0  0
 24 50  1  0  0  0  0
 25 26  1  0  0  0  0
 25 51  1  0  0  0  0
 26 27  2  0  0  0  0
 26 52  1  0  0  0  0
 27 28  1  0  0  0  0
 27 53  1  0  0  0  0
 28 54  1  0  0  0  0
 29 55  1  0  0  0  0
 30 31  1  0  0  0  0
 30 36  2  0  0  0  0
 31 32  2  0  0  0  0
 31 56  1  0  0  0  0
 32 33  1  0  0  0  0
 32 57  1  0  0  0  0
 33 34  1  0  0  0  0
 33 35  2  0  0  0  0
 35 36  1  0  0  0  0
 35 58  1  0  0  0  0
 36 59  1  0  0  0  0
M  END
$$$$
