CHEMBL3905048
 OpenBabel04072215373D

 69 73  0  0  0  0  0  0  0  0999 V2000
    0.5375    0.4737    4.6651 C   0  0  0  0  0  0  0  0  0  0  0  0
    1.9535    0.5655    4.8290 O   0  0  0  0  0  0  0  0  0  0  0  0
    2.7746    0.2618    3.7700 C   0  0  0  0  0  0  0  0  0  0  0  0
    2.3400   -0.2268    2.5380 C   0  0  0  0  0  0  0  0  0  0  0  0
    3.2667   -0.4111    1.5154 C   0  0  0  0  0  0  0  0  0  0  0  0
    2.9643   -0.8157    0.2423 O   0  0  0  0  0  0  0  0  0  0  0  0
    1.8138   -1.6396    0.1133 C   0  0  0  0  0  0  0  0  0  0  0  0
    4.6100   -0.0883    1.7161 C   0  0  0  0  0  0  0  0  0  0  0  0
    5.0951    0.4147    2.9318 C   0  0  0  0  0  0  0  0  0  0  0  0
    6.4184    0.9057    3.0659 N   0  0  0  0  0  0  0  0  0  0  0  0
    7.0228    1.5528    1.8202 C   0  0  0  0  0  0  0  0  0  0  0  0
    6.2729    2.7848    1.1885 C   0  0  0  0  0  0  0  0  0  0  0  0
    6.9788    3.3821    0.0045 N   0  0  0  0  0  0  0  0  0  0  0  0
    7.1286    2.4360   -1.1196 C   0  0  0  0  0  0  0  0  0  0  0  0
    7.8669    3.0501   -2.3389 C   0  0  0  0  0  0  0  0  0  0  0  0
    7.2952    4.2982   -2.8700 N   0  0  0  0  0  0  0  0  0  0  0  0
    6.1221    4.0606   -3.7012 C   0  0  0  0  0  0  0  0  0  0  0  0
    7.0232    5.2244   -1.7525 C   0  0  0  0  0  0  0  0  0  0  0  0
    6.3092    4.6039   -0.5100 C   0  0  0  0  0  0  0  0  0  0  0  0
    7.5172    0.4318    3.8794 C   0  0  0  0  0  0  0  0  0  0  0  0
    8.3002    1.4488    4.4324 C   0  0  0  0  0  0  0  0  0  0  0  0
    9.6302    1.2277    4.7260 C   0  0  0  0  0  0  0  0  0  0  0  0
   10.2008   -0.0159    4.6310 C   0  0  0  0  0  0  0  0  0  0  0  0
   11.5326   -0.0120    4.7561 N   0  0  0  0  0  0  0  0  0  0  0  0
   12.1369   -1.2019    4.8367 C   0  0  0  0  0  0  0  0  0  0  0  0
   11.4268   -2.3823    4.8876 C   0  0  0  0  0  0  0  0  0  0  0  0
   12.1751   -3.5464    5.3746 C   0  0  0  0  0  0  0  0  0  0  0  0
   12.2557   -4.0737    6.6930 C   0  0  0  0  0  0  0  0  0  0  0  0
   13.2350   -4.9756    6.8431 N   0  0  0  0  0  0  0  0  0  0  0  0
   13.8011   -5.0267    5.6265 N   0  0  0  0  0  0  0  0  0  0  0  0
   14.7333   -6.0815    5.2980 C   0  0  0  0  0  0  0  0  0  0  0  0
   13.3118   -4.0712    4.7734 C   0  0  0  0  0  0  0  0  0  0  0  0
   10.0652   -2.4010    4.6363 N   0  0  0  0  0  0  0  0  0  0  0  0
    9.4124   -1.1755    4.4254 C   0  0  0  0  0  0  0  0  0  0  0  0
    8.0493   -0.9000    3.9779 C   0  0  0  0  0  0  0  0  0  0  0  0
    4.1448    0.5353    3.9784 C   0  0  0  0  0  0  0  0  0  0  0  0
    0.0713    1.1890    5.3509 H   0  0  0  0  0  0  0  0  0  0  0  0
    0.1925   -0.5267    4.9429 H   0  0  0  0  0  0  0  0  0  0  0  0
    0.1804    0.7372    3.6645 H   0  0  0  0  0  0  0  0  0  0  0  0
    1.2943   -0.4309    2.3553 H   0  0  0  0  0  0  0  0  0  0  0  0
    1.8428   -2.0918   -0.8824 H   0  0  0  0  0  0  0  0  0  0  0  0
    0.8962   -1.0459    0.1834 H   0  0  0  0  0  0  0  0  0  0  0  0
    1.8178   -2.4499    0.8494 H   0  0  0  0  0  0  0  0  0  0  0  0
    5.2832   -0.2228    0.8732 H   0  0  0  0  0  0  0  0  0  0  0  0
    7.1839    0.7677    1.0739 H   0  0  0  0  0  0  0  0  0  0  0  0
    8.0238    1.9439    2.0439 H   0  0  0  0  0  0  0  0  0  0  0  0
    6.2096    3.5607    1.9629 H   0  0  0  0  0  0  0  0  0  0  0  0
    5.2442    2.5263    0.9162 H   0  0  0  0  0  0  0  0  0  0  0  0
    6.1463    2.0632   -1.4349 H   0  0  0  0  0  0  0  0  0  0  0  0
    7.7245    1.5752   -0.8042 H   0  0  0  0  0  0  0  0  0  0  0  0
    7.9401    2.2984   -3.1353 H   0  0  0  0  0  0  0  0  0  0  0  0
    8.9030    3.2615   -2.0455 H   0  0  0  0  0  0  0  0  0  0  0  0
    6.3707    3.3901   -4.5329 H   0  0  0  0  0  0  0  0  0  0  0  0
    5.7851    4.9972   -4.1624 H   0  0  0  0  0  0  0  0  0  0  0  0
    5.2829    3.6259   -3.1493 H   0  0  0  0  0  0  0  0  0  0  0  0
    6.4536    6.0901   -2.1166 H   0  0  0  0  0  0  0  0  0  0  0  0
    7.9894    5.6321   -1.4284 H   0  0  0  0  0  0  0  0  0  0  0  0
    5.2688    4.3833   -0.7811 H   0  0  0  0  0  0  0  0  0  0  0  0
    6.2887    5.3718    0.2723 H   0  0  0  0  0  0  0  0  0  0  0  0
    7.9088    2.4593    4.4706 H   0  0  0  0  0  0  0  0  0  0  0  0
   10.2552    2.0769    4.9901 H   0  0  0  0  0  0  0  0  0  0  0  0
   13.2160   -1.1665    4.9292 H   0  0  0  0  0  0  0  0  0  0  0  0
   11.6731   -3.8080    7.5660 H   0  0  0  0  0  0  0  0  0  0  0  0
   14.8563   -6.7527    6.1537 H   0  0  0  0  0  0  0  0  0  0  0  0
   15.6968   -5.6493    5.0175 H   0  0  0  0  0  0  0  0  0  0  0  0
   14.3080   -6.6406    4.4600 H   0  0  0  0  0  0  0  0  0  0  0  0
   13.7984   -3.8748    3.8281 H   0  0  0  0  0  0  0  0  0  0  0  0
    7.4432   -1.7444    3.6381 H   0  0  0  0  0  0  0  0  0  0  0  0
    4.4664    0.9353    4.9298 H   0  0  0  0  0  0  0  0  0  0  0  0
  1  2  1  0  0  0  0
  1 37  1  0  0  0  0
  1 38  1  0  0  0  0
  1 39  1  0  0  0  0
  2  3  1  0  0  0  0
  3  4  1  0  0  0  0
  3 36  2  0  0  0  0
  4  5  2  0  0  0  0
  4 40  1  0  0  0  0
  5  6  1  0  0  0  0
  5  8  1  0  0  0  0
  6  7  1  0  0  0  0
  7 41  1  0  0  0  0
  7 42  1  0  0  0  0
  7 43  1  0  0  0  0
  8  9  2  0  0  0  0
  8 44  1  0  0  0  0
  9 10  1  0  0  0  0
  9 36  1  0  0  0  0
 10 11  1  0  0  0  0
 10 20  1  0  0  0  0
 11 12  1  0  0  0  0
 11 45  1  0  0  0  0
 11 46  1  0  0  0  0
 12 13  1  0  0  0  0
 12 47  1  0  0  0  0
 12 48  1  0  0  0  0
 13 14  1  0  0  0  0
 13 19  1  0  0  0  0
 14 15  1  0  0  0  0
 14 49  1  0  0  0  0
 14 50  1  0  0  0  0
 15 16  1  0  0  0  0
 15 51  1  0  0  0  0
 15 52  1  0  0  0  0
 16 17  1  0  0  0  0
 16 18  1  0  0  0  0
 17 53  1  0  0  0  0
 17 54  1  0  0  0  0
 17 55  1  0  0  0  0
 18 19  1  0  0  0  0
 18 56  1  0  0  0  0
 18 57  1  0  0  0  0
 19 58  1  0  0  0  0
 19 59  1  0  0  0  0
 20 21  1  0  0  0  0
 20 35  2  0  0  0  0
 21 22  2  0  0  0  0
 21 60  1  0  0  0  0
 22 23  1  0  0  0  0
 22 61  1  0  0  0  0
 23 24  1  0  0  0  0
 23 34  2  0  0  0  0
 24 25  2  0  0  0  0
 25 26  1  0  0  0  0
 25 62  1  0  0  0  0
 26 27  1  0  0  0  0
 26 33  2  0  0  0  0
 27 28  1  0  0  0  0
 27 32  2  0  0  0  0
 28 29  2  0  0  0  0
 28 63  1  0  0  0  0
 29 30  1  0  0  0  0
 30 31  1  0  0  0  0
 30 32  1  0  0  0  0
 31 64  1  0  0  0  0
 31 65  1  0  0  0  0
 31 66  1  0  0  0  0
 32 67  1  0  0  0  0
 33 34  1  0  0  0  0
 34 35  1  0  0  0  0
 35 68  1  0  0  0  0
 36 69  1  0  0  0  0
M  END
$$$$
