CHEMBL4440653
 OpenBabel04072215383D

 55 57  0  0  0  0  0  0  0  0999 V2000
    0.8352   -0.0431   -0.4026 C   0  0  0  0  0  0  0  0  0  0  0  0
    2.3430    0.0863   -0.2166 C   0  0  0  0  0  0  0  0  0  0  0  0
    2.9497    1.1941   -0.9705 N   0  0  0  0  0  0  0  0  0  0  0  0
    4.4175    1.2149   -0.7772 C   0  0  0  0  0  0  0  0  0  0  0  0
    4.8826    1.7096    0.6120 C   0  0  0  0  0  0  0  0  0  0  0  0
    4.2862    3.0236    0.9732 N   0  0  0  0  0  0  0  0  0  0  0  0
    4.9815    4.0818    1.6021 C   0  0  0  0  0  0  0  0  0  0  0  0
    4.2824    5.5444    2.0545 S   0  0  0  0  0  0  0  0  0  0  0  0
    6.6819    3.7459    1.8803 S   0  0  0  0  0  0  0  0  0  0  0  0
    7.4682    5.2064    2.6368 C   0  0  0  0  0  0  0  0  0  0  0  0
    8.9406    4.8639    2.9110 C   0  0  0  0  0  0  0  0  0  0  0  0
    9.3952    3.7478    2.6595 O   0  0  0  0  0  0  0  0  0  0  0  0
    9.7017    5.8939    3.4731 N   0  0  0  0  0  0  0  0  0  0  0  0
   11.1061    5.7982    3.7049 C   0  0  0  0  0  0  0  0  0  0  0  0
   11.8853    4.8440    3.0406 C   0  0  0  0  0  0  0  0  0  0  0  0
   13.2321    4.6855    3.3293 C   0  0  0  0  0  0  0  0  0  0  0  0
   13.8391    5.5230    4.2513 C   0  0  0  0  0  0  0  0  0  0  0  0
   13.1255    6.5561    4.8652 C   0  0  0  0  0  0  0  0  0  0  0  0
   13.7671    7.4736    5.7354 N   0  0  0  0  0  0  0  0  0  0  0  0
   15.1444    7.6302    5.8696 C   0  0  0  0  0  0  0  0  0  0  0  0
   16.0155    7.0121    5.2637 O   0  0  0  0  0  0  0  0  0  0  0  0
   15.5843    8.6966    6.8212 C   0  0  0  0  0  0  0  0  0  0  0  0
   16.9509    8.9358    6.9709 C   0  0  0  0  0  0  0  0  0  0  0  0
   17.3559    9.9455    7.8329 C   0  0  0  0  0  0  0  0  0  0  0  0
   16.3905   10.6744    8.5160 C   0  0  0  0  0  0  0  0  0  0  0  0
   15.0516   10.3628    8.3101 C   0  0  0  0  0  0  0  0  0  0  0  0
   14.6138    9.3908    7.4747 N   0  0  0  0  0  0  0  0  0  0  0  0
   11.7440    6.6770    4.6043 C   0  0  0  0  0  0  0  0  0  0  0  0
    2.8205    3.0352    0.7807 C   0  0  0  0  0  0  0  0  0  0  0  0
    2.4248    2.5303   -0.6217 C   0  0  0  0  0  0  0  0  0  0  0  0
    0.4777   -0.9456    0.1046 H   0  0  0  0  0  0  0  0  0  0  0  0
    0.5695   -0.1244   -1.4612 H   0  0  0  0  0  0  0  0  0  0  0  0
    0.2965    0.8041    0.0318 H   0  0  0  0  0  0  0  0  0  0  0  0
    2.7885   -0.8529   -0.5697 H   0  0  0  0  0  0  0  0  0  0  0  0
    2.5575    0.1508    0.8553 H   0  0  0  0  0  0  0  0  0  0  0  0
    4.8478    1.8785   -1.5394 H   0  0  0  0  0  0  0  0  0  0  0  0
    4.8414    0.2231   -0.9786 H   0  0  0  0  0  0  0  0  0  0  0  0
    5.9723    1.7208    0.5975 H   0  0  0  0  0  0  0  0  0  0  0  0
    4.5857    1.0007    1.3945 H   0  0  0  0  0  0  0  0  0  0  0  0
    6.9909    5.4481    3.5941 H   0  0  0  0  0  0  0  0  0  0  0  0
    7.4227    6.0585    1.9540 H   0  0  0  0  0  0  0  0  0  0  0  0
    9.2153    6.6808    3.8830 H   0  0  0  0  0  0  0  0  0  0  0  0
   11.4768    4.1928    2.2750 H   0  0  0  0  0  0  0  0  0  0  0  0
   13.8077    3.9081    2.8354 H   0  0  0  0  0  0  0  0  0  0  0  0
   14.8839    5.3315    4.4683 H   0  0  0  0  0  0  0  0  0  0  0  0
   13.2046    8.1458    6.2492 H   0  0  0  0  0  0  0  0  0  0  0  0
   17.6841    8.3528    6.4223 H   0  0  0  0  0  0  0  0  0  0  0  0
   18.4127   10.1639    7.9636 H   0  0  0  0  0  0  0  0  0  0  0  0
   16.6760   11.4739    9.1935 H   0  0  0  0  0  0  0  0  0  0  0  0
   14.2727   10.9092    8.8346 H   0  0  0  0  0  0  0  0  0  0  0  0
   11.1698    7.4519    5.1033 H   0  0  0  0  0  0  0  0  0  0  0  0
    2.3902    4.0274    0.9205 H   0  0  0  0  0  0  0  0  0  0  0  0
    2.3892    2.3899    1.5565 H   0  0  0  0  0  0  0  0  0  0  0  0
    2.8163    3.2423   -1.3616 H   0  0  0  0  0  0  0  0  0  0  0  0
    1.3377    2.5693   -0.7431 H   0  0  0  0  0  0  0  0  0  0  0  0
  1  2  1  0  0  0  0
  1 31  1  0  0  0  0
  1 32  1  0  0  0  0
  1 33  1  0  0  0  0
  2  3  1  0  0  0  0
  2 34  1  0  0  0  0
  2 35  1  0  0  0  0
  3  4  1  0  0  0  0
  3 30  1  0  0  0  0
  4  5  1  0  0  0  0
  4 36  1  0  0  0  0
  4 37  1  0  0  0  0
  5  6  1  0  0  0  0
  5 38  1  0  0  0  0
  5 39  1  0  0  0  0
  6  7  1  0  0  0  0
  6 29  1  0  0  0  0
  7  8  2  0  0  0  0
  7  9  1  0  0  0  0
  9 10  1  0  0  0  0
 10 11  1  0  0  0  0
 10 40  1  0  0  0  0
 10 41  1  0  0  0  0
 11 12  2  0  0  0  0
 11 13  1  0  0  0  0
 13 14  1  0  0  0  0
 13 42  1  0  0  0  0
 14 15  1  0  0  0  0
 14 28  2  0  0  0  0
 15 16  2  0  0  0  0
 15 43  1  0  0  0  0
 16 17  1  0  0  0  0
 16 44  1  0  0  0  0
 17 18  2  0  0  0  0
 17 45  1  0  0  0  0
 18 19  1  0  0  0  0
 18 28  1  0  0  0  0
 19 20  1  0  0  0  0
 19 46  1  0  0  0  0
 20 21  2  0  0  0  0
 20 22  1  0  0  0  0
 22 23  1  0  0  0  0
 22 27  2  0  0  0  0
 23 24  2  0  0  0  0
 23 47  1  0  0  0  0
 24 25  1  0  0  0  0
 24 48  1  0  0  0  0
 25 26  2  0  0  0  0
 25 49  1  0  0  0  0
 26 27  1  0  0  0  0
 26 50  1  0  0  0  0
 28 51  1  0  0  0  0
 29 30  1  0  0  0  0
 29 52  1  0  0  0  0
 29 53  1  0  0  0  0
 30 54  1  0  0  0  0
 30 55  1  0  0  0  0
M  END
$$$$
