CHEMBL2216906
 OpenBabel04072215363D

 73 75  0  0  1  0  0  0  0  0999 V2000
    1.5927    0.7402   -0.2084 C   0  0  0  0  0  0  0  0  0  0  0  0
    2.8498    0.3693    0.5007 N   0  0  0  0  0  0  0  0  0  0  0  0
    3.8885   -0.6269    0.0849 C   0  0  0  0  0  0  0  0  0  0  0  0
    4.8544   -0.8613    1.2815 C   0  0  3  0  0  0  0  0  0  0  0  0
    4.1051   -1.0435    2.6205 C   0  0  0  0  0  0  0  0  0  0  0  0
    5.6421   -2.2060    1.0058 C   0  0  0  0  0  0  0  0  0  0  0  0
    6.5006   -2.6239    2.0863 O   0  0  0  0  0  0  0  0  0  0  0  0
    6.9955   -3.9118    2.0587 C   0  0  0  0  0  0  0  0  0  0  0  0
    6.7908   -4.8583    1.0505 C   0  0  0  0  0  0  0  0  0  0  0  0
    7.3482   -6.1491    1.1467 C   0  0  0  0  0  0  0  0  0  0  0  0
    8.1252   -6.5128    2.2522 C   0  0  0  0  0  0  0  0  0  0  0  0
    8.6966   -7.8916    2.3634 C   0  0  0  0  0  0  0  0  0  0  0  0
    9.0463   -8.5946    1.3314 N   0  0  0  0  0  0  0  0  0  0  0  0
    8.8623   -8.4885    3.5789 N   0  0  0  0  0  0  0  0  0  0  0  0
    8.3392   -5.5725    3.2626 C   0  0  0  0  0  0  0  0  0  0  0  0
    7.7768   -4.2854    3.1622 C   0  0  0  0  0  0  0  0  0  0  0  0
    5.6969    0.3233    1.3432 O   0  0  0  0  0  0  0  0  0  0  0  0
    5.0151    1.5054    1.0535 C   0  0  0  0  0  0  0  0  0  0  0  0
    5.7401    2.6973    1.0409 C   0  0  0  0  0  0  0  0  0  0  0  0
    5.1281    3.9328    0.6772 C   0  0  0  0  0  0  0  0  0  0  0  0
    3.7701    4.0284    0.3414 C   0  0  0  0  0  0  0  0  0  0  0  0
    3.1134    5.2016   -0.1608 N   0  0  0  0  0  0  0  0  0  0  0  0
    1.7234    4.9568   -0.7115 C   0  0  0  0  0  0  0  0  0  0  0  0
    0.8678    6.1389   -1.1846 C   0  0  0  0  0  0  0  0  0  0  0  0
   -0.3605    6.1025   -1.1401 O   0  0  0  0  0  0  0  0  0  0  0  0
    1.5312    7.1554   -1.7186 O   0  0  0  0  0  0  0  0  0  0  0  0
    3.2843    6.3685    0.7172 C   0  0  0  0  0  0  0  0  0  0  0  0
    4.1396    7.4297    0.0501 C   0  0  0  0  0  0  0  0  0  0  0  0
    3.8936    8.7817    0.3271 C   0  0  0  0  0  0  0  0  0  0  0  0
    4.7144    9.7720   -0.2114 C   0  0  0  0  0  0  0  0  0  0  0  0
    4.4561   11.0554    0.0676 F   0  0  0  0  0  0  0  0  0  0  0  0
    5.7951    9.4545   -1.0195 C   0  0  0  0  0  0  0  0  0  0  0  0
    6.0359    8.1228   -1.3077 C   0  0  0  0  0  0  0  0  0  0  0  0
    7.0771    7.7889   -2.0808 F   0  0  0  0  0  0  0  0  0  0  0  0
    5.2162    7.1187   -0.7988 C   0  0  0  0  0  0  0  0  0  0  0  0
    3.0750    2.8360    0.4827 C   0  0  0  0  0  0  0  0  0  0  0  0
    3.6521    1.5696    0.7133 C   0  0  0  0  0  0  0  0  0  0  0  0
    0.5682   -3.5875   -1.1653 O   0  0  0  0  0  0  0  0  0  0  0  0
    1.2079   -2.5509   -1.0040 C   0  0  0  0  0  0  0  0  0  0  0  0
    1.3635   -2.1336    0.2882 O   0  0  0  0  0  0  0  0  0  0  0  0
    1.8206   -1.8030   -2.2293 C   0  0  0  0  0  0  0  0  0  0  0  0
    2.4954   -0.6547   -1.9915 F   0  0  0  0  0  0  0  0  0  0  0  0
    2.7260   -2.5822   -2.8873 F   0  0  0  0  0  0  0  0  0  0  0  0
    0.8700   -1.4540   -3.1404 F   0  0  0  0  0  0  0  0  0  0  0  0
    0.9352   -0.0683   -0.5148 H   0  0  0  0  0  0  0  0  0  0  0  0
    1.7622    1.3373   -1.1138 H   0  0  0  0  0  0  0  0  0  0  0  0
    0.9371    1.2766    0.4926 H   0  0  0  0  0  0  0  0  0  0  0  0
    4.4424   -0.2760   -0.8017 H   0  0  0  0  0  0  0  0  0  0  0  0
    3.4900   -1.5953   -0.2037 H   0  0  0  0  0  0  0  0  0  0  0  0
    3.3783   -1.8617    2.5561 H   0  0  0  0  0  0  0  0  0  0  0  0
    3.5706   -0.1403    2.9303 H   0  0  0  0  0  0  0  0  0  0  0  0
    4.8023   -1.2637    3.4344 H   0  0  0  0  0  0  0  0  0  0  0  0
    6.2425   -2.1191    0.0946 H   0  0  0  0  0  0  0  0  0  0  0  0
    4.8824   -2.9901    0.8661 H   0  0  0  0  0  0  0  0  0  0  0  0
    6.1971   -4.6388    0.1701 H   0  0  0  0  0  0  0  0  0  0  0  0
    7.1441   -6.8714    0.3596 H   0  0  0  0  0  0  0  0  0  0  0  0
    8.9410   -8.0700    0.4599 H   0  0  0  0  0  0  0  0  0  0  0  0
    8.1592   -8.2832    4.2771 H   0  0  0  0  0  0  0  0  0  0  0  0
    9.0210   -9.4892    3.4667 H   0  0  0  0  0  0  0  0  0  0  0  0
    8.9588   -5.8221    4.1215 H   0  0  0  0  0  0  0  0  0  0  0  0
    7.9583   -3.5679    3.9597 H   0  0  0  0  0  0  0  0  0  0  0  0
    6.8026    2.6747    1.2708 H   0  0  0  0  0  0  0  0  0  0  0  0
    5.7713    4.8056    0.6566 H   0  0  0  0  0  0  0  0  0  0  0  0
    1.0928    4.5032    0.0610 H   0  0  0  0  0  0  0  0  0  0  0  0
    1.8058    4.2830   -1.5770 H   0  0  0  0  0  0  0  0  0  0  0  0
    2.4913    6.9862   -1.7493 H   0  0  0  0  0  0  0  0  0  0  0  0
    3.7278    6.1088    1.6863 H   0  0  0  0  0  0  0  0  0  0  0  0
    2.2996    6.7940    0.9493 H   0  0  0  0  0  0  0  0  0  0  0  0
    3.0637    9.0831    0.9619 H   0  0  0  0  0  0  0  0  0  0  0  0
    6.4373   10.2301   -1.4172 H   0  0  0  0  0  0  0  0  0  0  0  0
    5.4432    6.0949   -1.0811 H   0  0  0  0  0  0  0  0  0  0  0  0
    2.0090    2.8816    0.3750 H   0  0  0  0  0  0  0  0  0  0  0  0
    1.8084   -1.3116    0.5432 H   0  0  0  0  0  0  0  0  0  0  0  0
  1  2  1  0  0  0  0
  1 45  1  0  0  0  0
  1 46  1  0  0  0  0
  1 47  1  0  0  0  0
  2  3  1  0  0  0  0
  2 37  1  0  0  0  0
  3  4  1  0  0  0  0
  3 48  1  0  0  0  0
  3 49  1  0  0  0  0
  4  5  1  0  0  0  0
  4  6  1  0  0  0  0
  4 17  1  0  0  0  0
  5 50  1  0  0  0  0
  5 51  1  0  0  0  0
  5 52  1  0  0  0  0
  6  7  1  0  0  0  0
  6 53  1  0  0  0  0
  6 54  1  0  0  0  0
  7  8  1  0  0  0  0
  8  9  1  0  0  0  0
  8 16  2  0  0  0  0
  9 10  2  0  0  0  0
  9 55  1  0  0  0  0
 10 11  1  0  0  0  0
 10 56  1  0  0  0  0
 11 12  1  0  0  0  0
 11 15  2  0  0  0  0
 12 13  2  0  0  0  0
 12 14  1  0  0  0  0
 13 57  1  0  0  0  0
 14 58  1  0  0  0  0
 14 59  1  0  0  0  0
 15 16  1  0  0  0  0
 15 60  1  0  0  0  0
 16 61  1  0  0  0  0
 17 18  1  0  0  0  0
 18 19  1  0  0  0  0
 18 37  2  0  0  0  0
 19 20  2  0  0  0  0
 19 62  1  0  0  0  0
 20 21  1  0  0  0  0
 20 63  1  0  0  0  0
 21 22  1  0  0  0  0
 21 36  2  0  0  0  0
 22 23  1  0  0  0  0
 22 27  1  0  0  0  0
 23 24  1  0  0  0  0
 23 64  1  0  0  0  0
 23 65  1  0  0  0  0
 24 25  2  0  0  0  0
 24 26  1  0  0  0  0
 26 66  1  0  0  0  0
 27 28  1  0  0  0  0
 27 67  1  0  0  0  0
 27 68  1  0  0  0  0
 28 29  1  0  0  0  0
 28 35  2  0  0  0  0
 29 30  2  0  0  0  0
 29 69  1  0  0  0  0
 30 31  1  0  0  0  0
 30 32  1  0  0  0  0
 32 33  2  0  0  0  0
 32 70  1  0  0  0  0
 33 34  1  0  0  0  0
 33 35  1  0  0  0  0
 35 71  1  0  0  0  0
 36 37  1  0  0  0  0
 36 72  1  0  0  0  0
 38 39  2  0  0  0  0
 39 40  1  0  0  0  0
 39 41  1  0  0  0  0
 40 73  1  0  0  0  0
 41 42  1  0  0  0  0
 41 43  1  0  0  0  0
 41 44  1  0  0  0  0
M  END
$$$$
