CHEMBL2016903
 OpenBabel04072215363D

 45 49  0  0  0  0  0  0  0  0999 V2000
    2.6779    1.0544    0.2191 O   0  0  0  0  0  0  0  0  0  0  0  0
    2.2464   -0.0655   -0.0788 C   0  0  0  0  0  0  0  0  0  0  0  0
    0.8368   -0.1467   -0.6081 C   0  0  0  0  0  0  0  0  0  0  0  0
    0.4042   -1.0404   -1.5886 C   0  0  0  0  0  0  0  0  0  0  0  0
   -0.9550   -1.2183   -1.7890 C   0  0  0  0  0  0  0  0  0  0  0  0
   -1.8961   -0.4595   -1.2008 N   0  0  0  0  0  0  0  0  0  0  0  0
   -1.4563    0.5198   -0.3871 C   0  0  0  0  0  0  0  0  0  0  0  0
   -0.1191    0.7034   -0.0497 C   0  0  0  0  0  0  0  0  0  0  0  0
    3.0002   -1.2332    0.1898 N   0  0  0  0  0  0  0  0  0  0  0  0
    2.4220   -2.5721   -0.0272 C   0  0  0  0  0  0  0  0  0  0  0  0
    3.2808   -3.8164    0.1100 C   0  0  0  0  0  0  0  0  0  0  0  0
    4.4682   -3.5534    0.9031 C   0  0  0  0  0  0  0  0  0  0  0  0
    5.3522   -4.5298    1.2331 N   0  0  0  0  0  0  0  0  0  0  0  0
    6.2720   -3.9313    1.9675 C   0  0  0  0  0  0  0  0  0  0  0  0
    7.3035   -4.5668    2.7056 C   0  0  0  0  0  0  0  0  0  0  0  0
    7.3402   -5.9140    2.6670 C   0  0  0  0  0  0  0  0  0  0  0  0
    8.0544   -6.6733    3.6892 C   0  0  0  0  0  0  0  0  0  0  0  0
    7.8836   -8.0498    3.7790 C   0  0  0  0  0  0  0  0  0  0  0  0
    7.9875   -8.6305    5.0322 C   0  0  0  0  0  0  0  0  0  0  0  0
    7.4665   -9.8484    5.2308 F   0  0  0  0  0  0  0  0  0  0  0  0
    8.5268   -7.9269    6.1074 C   0  0  0  0  0  0  0  0  0  0  0  0
    8.9760   -6.6173    5.9255 C   0  0  0  0  0  0  0  0  0  0  0  0
    8.6619   -5.9674    4.7324 C   0  0  0  0  0  0  0  0  0  0  0  0
    8.8376   -4.5830    4.6060 N   0  0  0  0  0  0  0  0  0  0  0  0
    8.1870   -3.8317    3.6493 C   0  0  0  0  0  0  0  0  0  0  0  0
    8.3008   -2.6049    3.6311 O   0  0  0  0  0  0  0  0  0  0  0  0
    6.0045   -2.5672    2.0685 N   0  0  0  0  0  0  0  0  0  0  0  0
    4.8367   -2.3231    1.3754 C   0  0  0  0  0  0  0  0  0  0  0  0
    4.0944   -1.0679    1.1984 C   0  0  0  0  0  0  0  0  0  0  0  0
    1.0789   -1.6218   -2.1982 H   0  0  0  0  0  0  0  0  0  0  0  0
   -1.3275   -2.0095   -2.4348 H   0  0  0  0  0  0  0  0  0  0  0  0
   -2.2307    1.1612    0.0232 H   0  0  0  0  0  0  0  0  0  0  0  0
    0.1628    1.4949    0.6423 H   0  0  0  0  0  0  0  0  0  0  0  0
    2.1428   -2.6129   -1.0725 H   0  0  0  0  0  0  0  0  0  0  0  0
    1.5119   -2.6490    0.5757 H   0  0  0  0  0  0  0  0  0  0  0  0
    3.5937   -4.1604   -0.8823 H   0  0  0  0  0  0  0  0  0  0  0  0
    2.6830   -4.6225    0.5475 H   0  0  0  0  0  0  0  0  0  0  0  0
    6.6342   -6.4749    2.0536 H   0  0  0  0  0  0  0  0  0  0  0  0
    7.5531   -8.6466    2.9339 H   0  0  0  0  0  0  0  0  0  0  0  0
    8.5684   -8.4005    7.0836 H   0  0  0  0  0  0  0  0  0  0  0  0
    9.4469   -6.0906    6.7489 H   0  0  0  0  0  0  0  0  0  0  0  0
    9.3681   -4.0716    5.3025 H   0  0  0  0  0  0  0  0  0  0  0  0
    6.5609   -1.9077    2.6003 H   0  0  0  0  0  0  0  0  0  0  0  0
    4.7486   -0.2431    0.8696 H   0  0  0  0  0  0  0  0  0  0  0  0
    3.6199   -0.7594    2.1392 H   0  0  0  0  0  0  0  0  0  0  0  0
  1  2  2  0  0  0  0
  2  3  1  0  0  0  0
  2  9  1  0  0  0  0
  3  4  1  0  0  0  0
  3  8  2  0  0  0  0
  4  5  2  0  0  0  0
  4 30  1  0  0  0  0
  5  6  1  0  0  0  0
  5 31  1  0  0  0  0
  6  7  2  0  0  0  0
  7  8  1  0  0  0  0
  7 32  1  0  0  0  0
  8 33  1  0  0  0  0
  9 10  1  0  0  0  0
  9 29  1  0  0  0  0
 10 11  1  0  0  0  0
 10 34  1  0  0  0  0
 10 35  1  0  0  0  0
 11 12  1  0  0  0  0
 11 36  1  0  0  0  0
 11 37  1  0  0  0  0
 12 13  1  0  0  0  0
 12 28  2  0  0  0  0
 13 14  2  0  0  0  0
 14 15  1  0  0  0  0
 14 27  1  0  0  0  0
 15 16  2  0  0  0  0
 15 25  1  0  0  0  0
 16 17  1  0  0  0  0
 16 38  1  0  0  0  0
 17 18  1  0  0  0  0
 17 23  2  0  0  0  0
 18 19  2  0  0  0  0
 18 39  1  0  0  0  0
 19 20  1  0  0  0  0
 19 21  1  0  0  0  0
 21 22  2  0  0  0  0
 21 40  1  0  0  0  0
 22 23  1  0  0  0  0
 22 41  1  0  0  0  0
 23 24  1  0  0  0  0
 24 25  1  0  0  0  0
 24 42  1  0  0  0  0
 25 26  2  0  0  0  0
 27 28  1  0  0  0  0
 27 43  1  0  0  0  0
 28 29  1  0  0  0  0
 29 44  1  0  0  0  0
 29 45  1  0  0  0  0
M  END
$$$$
