CHEMBL224035
 OpenBabel04072215363D

 52 55  0  0  0  0  0  0  0  0999 V2000
    3.1150    0.0353   -1.6544 C   0  0  0  0  0  0  0  0  0  0  0  0
    1.8298   -0.0631   -0.4244 S   0  0  0  0  0  0  0  0  0  0  0  0
    1.4810    1.2880   -0.0507 O   0  0  0  0  0  0  0  0  0  0  0  0
    0.8212   -0.9896   -0.8982 O   0  0  0  0  0  0  0  0  0  0  0  0
    2.6452   -0.7670    0.8873 N   0  0  0  0  0  0  0  0  0  0  0  0
    3.0832   -2.1827    0.7219 C   0  0  0  0  0  0  0  0  0  0  0  0
    1.9403   -3.1647    1.0321 C   0  0  0  0  0  0  0  0  0  0  0  0
    1.4244   -3.0379    2.4083 N   0  0  0  0  0  0  0  0  0  0  0  0
    2.3946   -3.4541    3.4329 C   0  0  0  0  0  0  0  0  0  0  0  0
    2.8199   -4.9001    3.3103 C   0  0  0  0  0  0  0  0  0  0  0  0
    3.9338   -5.3107    2.5819 C   0  0  0  0  0  0  0  0  0  0  0  0
    4.2101   -6.6677    2.5087 C   0  0  0  0  0  0  0  0  0  0  0  0
    3.5008   -7.6256    3.1492 N   0  0  0  0  0  0  0  0  0  0  0  0
    2.4538   -7.2228    3.8983 C   0  0  0  0  0  0  0  0  0  0  0  0
    1.7994   -8.2047    4.6493 N   0  0  0  0  0  0  0  0  0  0  0  0
    1.2554   -7.9770    5.8701 C   0  0  0  0  0  0  0  0  0  0  0  0
    1.1709   -6.7987    6.4523 N   0  0  0  0  0  0  0  0  0  0  0  0
    0.5810   -6.8990    7.6842 C   0  0  0  0  0  0  0  0  0  0  0  0
    0.2044   -8.1674    8.0691 C   0  0  0  0  0  0  0  0  0  0  0  0
   -0.4616   -8.5772    9.3067 C   0  0  0  0  0  0  0  0  0  0  0  0
   -1.3561   -7.6948    9.9345 C   0  0  0  0  0  0  0  0  0  0  0  0
   -1.9801   -8.0402   11.1341 C   0  0  0  0  0  0  0  0  0  0  0  0
   -1.7163   -9.2732   11.7211 C   0  0  0  0  0  0  0  0  0  0  0  0
   -0.8280  -10.1580   11.1143 C   0  0  0  0  0  0  0  0  0  0  0  0
   -0.2015   -9.8115    9.9145 C   0  0  0  0  0  0  0  0  0  0  0  0
    0.6264   -9.2709    6.8184 S   0  0  0  0  0  0  0  0  0  0  0  0
    2.0615   -5.8850    3.9376 C   0  0  0  0  0  0  0  0  0  0  0  0
    0.9885   -1.6333    2.6091 C   0  0  0  0  0  0  0  0  0  0  0  0
    2.0289   -0.5496    2.2391 C   0  0  0  0  0  0  0  0  0  0  0  0
    2.6857    0.4892   -2.5498 H   0  0  0  0  0  0  0  0  0  0  0  0
    3.4728   -0.9641   -1.9040 H   0  0  0  0  0  0  0  0  0  0  0  0
    3.9236    0.6584   -1.2702 H   0  0  0  0  0  0  0  0  0  0  0  0
    3.9351   -2.3425    1.3934 H   0  0  0  0  0  0  0  0  0  0  0  0
    3.4744   -2.3642   -0.2813 H   0  0  0  0  0  0  0  0  0  0  0  0
    2.2605   -4.1886    0.8186 H   0  0  0  0  0  0  0  0  0  0  0  0
    1.1027   -3.0083    0.3456 H   0  0  0  0  0  0  0  0  0  0  0  0
    1.9232   -3.3366    4.4194 H   0  0  0  0  0  0  0  0  0  0  0  0
    3.2852   -2.8170    3.4668 H   0  0  0  0  0  0  0  0  0  0  0  0
    4.5627   -4.6023    2.0569 H   0  0  0  0  0  0  0  0  0  0  0  0
    5.0453   -7.0325    1.9171 H   0  0  0  0  0  0  0  0  0  0  0  0
    2.1954   -9.1150    4.4606 H   0  0  0  0  0  0  0  0  0  0  0  0
    0.4521   -5.9972    8.2694 H   0  0  0  0  0  0  0  0  0  0  0  0
   -1.5843   -6.7260    9.4945 H   0  0  0  0  0  0  0  0  0  0  0  0
   -2.6688   -7.3443   11.6056 H   0  0  0  0  0  0  0  0  0  0  0  0
   -2.2016   -9.5449   12.6549 H   0  0  0  0  0  0  0  0  0  0  0  0
   -0.6147  -11.1180   11.5760 H   0  0  0  0  0  0  0  0  0  0  0  0
    0.5037  -10.5131    9.4755 H   0  0  0  0  0  0  0  0  0  0  0  0
    1.1693   -5.5894    4.4808 H   0  0  0  0  0  0  0  0  0  0  0  0
    0.6714   -1.4879    3.6500 H   0  0  0  0  0  0  0  0  0  0  0  0
    0.0853   -1.4714    2.0065 H   0  0  0  0  0  0  0  0  0  0  0  0
    2.8430   -0.5477    2.9745 H   0  0  0  0  0  0  0  0  0  0  0  0
    1.5711    0.4427    2.3042 H   0  0  0  0  0  0  0  0  0  0  0  0
  1  2  1  0  0  0  0
  1 30  1  0  0  0  0
  1 31  1  0  0  0  0
  1 32  1  0  0  0  0
  2  3  2  0  0  0  0
  2  4  2  0  0  0  0
  2  5  1  0  0  0  0
  5  6  1  0  0  0  0
  5 29  1  0  0  0  0
  6  7  1  0  0  0  0
  6 33  1  0  0  0  0
  6 34  1  0  0  0  0
  7  8  1  0  0  0  0
  7 35  1  0  0  0  0
  7 36  1  0  0  0  0
  8  9  1  0  0  0  0
  8 28  1  0  0  0  0
  9 10  1  0  0  0  0
  9 37  1  0  0  0  0
  9 38  1  0  0  0  0
 10 11  1  0  0  0  0
 10 27  2  0  0  0  0
 11 12  2  0  0  0  0
 11 39  1  0  0  0  0
 12 13  1  0  0  0  0
 12 40  1  0  0  0  0
 13 14  2  0  0  0  0
 14 15  1  0  0  0  0
 14 27  1  0  0  0  0
 15 16  1  0  0  0  0
 15 41  1  0  0  0  0
 16 17  2  0  0  0  0
 16 26  1  0  0  0  0
 17 18  1  0  0  0  0
 18 19  2  0  0  0  0
 18 42  1  0  0  0  0
 19 20  1  0  0  0  0
 19 26  1  0  0  0  0
 20 21  1  0  0  0  0
 20 25  2  0  0  0  0
 21 22  2  0  0  0  0
 21 43  1  0  0  0  0
 22 23  1  0  0  0  0
 22 44  1  0  0  0  0
 23 24  2  0  0  0  0
 23 45  1  0  0  0  0
 24 25  1  0  0  0  0
 24 46  1  0  0  0  0
 25 47  1  0  0  0  0
 27 48  1  0  0  0  0
 28 29  1  0  0  0  0
 28 49  1  0  0  0  0
 28 50  1  0  0  0  0
 29 51  1  0  0  0  0
 29 52  1  0  0  0  0
M  END
$$$$
