CHEMBL426047
 OpenBabel04072215383D

 56 59  0  0  0  0  0  0  0  0999 V2000
    6.3220   -5.0781    4.1694 C   0  0  0  0  0  0  0  0  0  0  0  0
    6.1680   -4.6332    2.8077 O   0  0  0  0  0  0  0  0  0  0  0  0
    6.4974   -3.3068    2.6136 C   0  0  0  0  0  0  0  0  0  0  0  0
    7.2563   -2.6246    3.5857 C   0  0  0  0  0  0  0  0  0  0  0  0
    7.6685   -1.3136    3.4127 C   0  0  0  0  0  0  0  0  0  0  0  0
    7.3699   -0.6633    2.2384 C   0  0  0  0  0  0  0  0  0  0  0  0
    6.6348   -1.3205    1.2490 C   0  0  0  0  0  0  0  0  0  0  0  0
    6.1471   -2.6310    1.4162 C   0  0  0  0  0  0  0  0  0  0  0  0
    5.2889   -3.2134    0.4271 N   0  0  0  0  0  0  0  0  0  0  0  0
    5.0911   -2.7658   -0.8662 C   0  0  0  0  0  0  0  0  0  0  0  0
    5.6912   -1.8353   -1.4084 O   0  0  0  0  0  0  0  0  0  0  0  0
    4.0947   -3.3755   -1.6051 N   0  0  0  0  0  0  0  0  0  0  0  0
    3.1905   -4.3967   -1.2236 C   0  0  0  0  0  0  0  0  0  0  0  0
    1.8229   -4.1818   -1.3050 C   0  0  0  0  0  0  0  0  0  0  0  0
    0.9097   -5.2156   -0.9415 C   0  0  0  0  0  0  0  0  0  0  0  0
    1.2899   -6.5435   -0.5767 C   0  0  0  0  0  0  0  0  0  0  0  0
    0.2168   -7.4241   -0.6034 O   0  0  0  0  0  0  0  0  0  0  0  0
   -0.3427   -8.5897   -0.0278 C   0  0  0  0  0  0  0  0  0  0  0  0
   -0.1111  -10.1912   -0.4153 C   0  0  0  0  0  0  0  0  0  0  0  0
   -1.0252  -11.2289   -0.3525 C   0  0  0  0  0  0  0  0  0  0  0  0
   -1.7412  -10.2605    0.0227 N   0  0  0  0  0  0  0  0  0  0  0  0
   -2.5298   -9.3267    0.3959 C   0  0  0  0  0  0  0  0  0  0  0  0
   -3.8349   -9.5910    0.5336 C   0  0  0  0  0  0  0  0  0  0  0  0
   -4.5971   -8.5875    1.0065 C   0  0  0  0  0  0  0  0  0  0  0  0
   -5.8838   -8.8997    1.3383 O   0  0  0  0  0  0  0  0  0  0  0  0
   -6.0747  -10.2549    1.7666 C   0  0  0  0  0  0  0  0  0  0  0  0
   -4.0156   -7.2993    1.0967 C   0  0  0  0  0  0  0  0  0  0  0  0
   -4.7309   -6.1835    1.4561 O   0  0  0  0  0  0  0  0  0  0  0  0
   -6.1013   -6.2252    1.0104 C   0  0  0  0  0  0  0  0  0  0  0  0
   -2.6067   -7.1049    0.8405 C   0  0  0  0  0  0  0  0  0  0  0  0
   -1.7645   -8.2198    0.4669 C   0  0  0  0  0  0  0  0  0  0  0  0
    2.6680   -6.7353   -0.5005 C   0  0  0  0  0  0  0  0  0  0  0  0
    3.6046   -5.6662   -0.7976 C   0  0  0  0  0  0  0  0  0  0  0  0
    5.9365   -6.0935    4.2513 H   0  0  0  0  0  0  0  0  0  0  0  0
    5.7398   -4.4370    4.8444 H   0  0  0  0  0  0  0  0  0  0  0  0
    7.3733   -5.1124    4.4995 H   0  0  0  0  0  0  0  0  0  0  0  0
    7.5835   -3.0900    4.5106 H   0  0  0  0  0  0  0  0  0  0  0  0
    8.2496   -0.8314    4.1894 H   0  0  0  0  0  0  0  0  0  0  0  0
    7.7022    0.3562    2.0882 H   0  0  0  0  0  0  0  0  0  0  0  0
    6.4481   -0.7514    0.3447 H   0  0  0  0  0  0  0  0  0  0  0  0
    4.7686   -4.0266    0.7185 H   0  0  0  0  0  0  0  0  0  0  0  0
    3.8768   -2.8103   -2.4260 H   0  0  0  0  0  0  0  0  0  0  0  0
    1.4361   -3.2042   -1.5951 H   0  0  0  0  0  0  0  0  0  0  0  0
   -0.1487   -4.9511   -0.9649 H   0  0  0  0  0  0  0  0  0  0  0  0
    0.8182  -10.6077   -0.7928 H   0  0  0  0  0  0  0  0  0  0  0  0
   -1.8740  -11.8997   -0.2452 H   0  0  0  0  0  0  0  0  0  0  0  0
   -4.1250  -10.6074    0.3352 H   0  0  0  0  0  0  0  0  0  0  0  0
   -7.1245  -10.3786    2.0171 H   0  0  0  0  0  0  0  0  0  0  0  0
   -5.4603  -10.4656    2.6504 H   0  0  0  0  0  0  0  0  0  0  0  0
   -5.8734  -10.9891    0.9756 H   0  0  0  0  0  0  0  0  0  0  0  0
   -6.5850   -5.2798    1.2601 H   0  0  0  0  0  0  0  0  0  0  0  0
   -6.6909   -6.9728    1.5478 H   0  0  0  0  0  0  0  0  0  0  0  0
   -6.1781   -6.3794   -0.0770 H   0  0  0  0  0  0  0  0  0  0  0  0
   -2.1582   -6.1160    0.9644 H   0  0  0  0  0  0  0  0  0  0  0  0
    3.0841   -7.7027   -0.2532 H   0  0  0  0  0  0  0  0  0  0  0  0
    4.6772   -5.8631   -0.7508 H   0  0  0  0  0  0  0  0  0  0  0  0
  1  2  1  0  0  0  0
  1 34  1  0  0  0  0
  1 35  1  0  0  0  0
  1 36  1  0  0  0  0
  2  3  1  0  0  0  0
  3  4  1  0  0  0  0
  3  8  2  0  0  0  0
  4  5  2  0  0  0  0
  4 37  1  0  0  0  0
  5  6  1  0  0  0  0
  5 38  1  0  0  0  0
  6  7  2  0  0  0  0
  6 39  1  0  0  0  0
  7  8  1  0  0  0  0
  7 40  1  0  0  0  0
  8  9  1  0  0  0  0
  9 10  1  0  0  0  0
  9 41  1  0  0  0  0
 10 11  2  0  0  0  0
 10 12  1  0  0  0  0
 12 13  1  0  0  0  0
 12 42  1  0  0  0  0
 13 14  1  0  0  0  0
 13 33  2  0  0  0  0
 14 15  2  0  0  0  0
 14 43  1  0  0  0  0
 15 16  1  0  0  0  0
 15 44  1  0  0  0  0
 16 17  1  0  0  0  0
 16 32  2  0  0  0  0
 17 18  1  0  0  0  0
 18 19  1  0  0  0  0
 18 31  2  0  0  0  0
 19 20  2  0  0  0  0
 19 45  1  0  0  0  0
 20 21  1  0  0  0  0
 20 46  1  0  0  0  0
 21 22  2  0  0  0  0
 22 23  1  0  0  0  0
 22 31  1  0  0  0  0
 23 24  2  0  0  0  0
 23 47  1  0  0  0  0
 24 25  1  0  0  0  0
 24 27  1  0  0  0  0
 25 26  1  0  0  0  0
 26 48  1  0  0  0  0
 26 49  1  0  0  0  0
 26 50  1  0  0  0  0
 27 28  1  0  0  0  0
 27 30  2  0  0  0  0
 28 29  1  0  0  0  0
 29 51  1  0  0  0  0
 29 52  1  0  0  0  0
 29 53  1  0  0  0  0
 30 31  1  0  0  0  0
 30 54  1  0  0  0  0
 32 33  1  0  0  0  0
 32 55  1  0  0  0  0
 33 56  1  0  0  0  0
M  END
$$$$
