CHEMBL3818017
 OpenBabel04072215373D

 41 44  0  0  0  0  0  0  0  0999 V2000
    2.1827    0.7965    1.4232 C   0  0  0  0  0  0  0  0  0  0  0  0
    3.0690    0.0933    0.5579 O   0  0  0  0  0  0  0  0  0  0  0  0
    3.7127    0.8399   -0.3941 C   0  0  0  0  0  0  0  0  0  0  0  0
    3.5524    2.2112   -0.5827 C   0  0  0  0  0  0  0  0  0  0  0  0
    4.2819    2.8633   -1.5705 C   0  0  0  0  0  0  0  0  0  0  0  0
    5.1626    2.1443   -2.3780 C   0  0  0  0  0  0  0  0  0  0  0  0
    5.3227    0.7600   -2.2395 C   0  0  0  0  0  0  0  0  0  0  0  0
    6.2258    0.0142   -3.0172 N   0  0  0  0  0  0  0  0  0  0  0  0
    7.1639    0.4409   -3.9586 C   0  0  0  0  0  0  0  0  0  0  0  0
    7.5234   -0.4296   -4.9077 N   0  0  0  0  0  0  0  0  0  0  0  0
    8.4043    0.0151   -5.8246 C   0  0  0  0  0  0  0  0  0  0  0  0
    8.9582    1.2752   -5.8125 C   0  0  0  0  0  0  0  0  0  0  0  0
    8.5800    2.0927   -4.7731 C   0  0  0  0  0  0  0  0  0  0  0  0
    9.1906    3.3643   -4.6335 N   0  0  0  0  0  0  0  0  0  0  0  0
    9.1056    4.2409   -3.5185 C   0  0  0  0  0  0  0  0  0  0  0  0
    8.8069    3.7830   -2.2228 C   0  0  0  0  0  0  0  0  0  0  0  0
    8.6864    4.6411   -1.1239 C   0  0  0  0  0  0  0  0  0  0  0  0
    8.9535    5.9883   -1.3488 C   0  0  0  0  0  0  0  0  0  0  0  0
    8.8972    7.0749   -0.5198 N   0  0  0  0  0  0  0  0  0  0  0  0
    9.3236    8.2191   -1.0850 N   0  0  0  0  0  0  0  0  0  0  0  0
    9.6187    7.8476   -2.3372 C   0  0  0  0  0  0  0  0  0  0  0  0
    9.3660    6.4781   -2.5809 C   0  0  0  0  0  0  0  0  0  0  0  0
    9.4476    5.5978   -3.6809 C   0  0  0  0  0  0  0  0  0  0  0  0
    7.6813    1.6719   -3.8740 N   0  0  0  0  0  0  0  0  0  0  0  0
    4.5965    0.1253   -1.2189 C   0  0  0  0  0  0  0  0  0  0  0  0
    1.7819    0.0840    2.1496 H   0  0  0  0  0  0  0  0  0  0  0  0
    1.3387    1.2140    0.8632 H   0  0  0  0  0  0  0  0  0  0  0  0
    2.7094    1.5779    1.9824 H   0  0  0  0  0  0  0  0  0  0  0  0
    2.8755    2.8055    0.0211 H   0  0  0  0  0  0  0  0  0  0  0  0
    4.1713    3.9338   -1.7205 H   0  0  0  0  0  0  0  0  0  0  0  0
    5.7030    2.6970   -3.1405 H   0  0  0  0  0  0  0  0  0  0  0  0
    5.9875   -0.9532   -3.1768 H   0  0  0  0  0  0  0  0  0  0  0  0
    8.6680   -0.7028   -6.5960 H   0  0  0  0  0  0  0  0  0  0  0  0
    9.6740    1.5836   -6.5609 H   0  0  0  0  0  0  0  0  0  0  0  0
    9.1612    3.8682   -5.5129 H   0  0  0  0  0  0  0  0  0  0  0  0
    8.6420    2.7256   -2.0399 H   0  0  0  0  0  0  0  0  0  0  0  0
    8.4080    4.2560   -0.1510 H   0  0  0  0  0  0  0  0  0  0  0  0
    8.5773    7.0998    0.4417 H   0  0  0  0  0  0  0  0  0  0  0  0
   10.0033    8.5921   -3.0214 H   0  0  0  0  0  0  0  0  0  0  0  0
    9.7594    5.9817   -4.6465 H   0  0  0  0  0  0  0  0  0  0  0  0
    4.7183   -0.9418   -1.0475 H   0  0  0  0  0  0  0  0  0  0  0  0
  1  2  1  0  0  0  0
  1 26  1  0  0  0  0
  1 27  1  0  0  0  0
  1 28  1  0  0  0  0
  2  3  1  0  0  0  0
  3  4  1  0  0  0  0
  3 25  2  0  0  0  0
  4  5  2  0  0  0  0
  4 29  1  0  0  0  0
  5  6  1  0  0  0  0
  5 30  1  0  0  0  0
  6  7  2  0  0  0  0
  6 31  1  0  0  0  0
  7  8  1  0  0  0  0
  7 25  1  0  0  0  0
  8  9  1  0  0  0  0
  8 32  1  0  0  0  0
  9 10  1  0  0  0  0
  9 24  2  0  0  0  0
 10 11  2  0  0  0  0
 11 12  1  0  0  0  0
 11 33  1  0  0  0  0
 12 13  2  0  0  0  0
 12 34  1  0  0  0  0
 13 14  1  0  0  0  0
 13 24  1  0  0  0  0
 14 15  1  0  0  0  0
 14 35  1  0  0  0  0
 15 16  1  0  0  0  0
 15 23  2  0  0  0  0
 16 17  2  0  0  0  0
 16 36  1  0  0  0  0
 17 18  1  0  0  0  0
 17 37  1  0  0  0  0
 18 19  1  0  0  0  0
 18 22  2  0  0  0  0
 19 20  1  0  0  0  0
 19 38  1  0  0  0  0
 20 21  2  0  0  0  0
 21 22  1  0  0  0  0
 21 39  1  0  0  0  0
 22 23  1  0  0  0  0
 23 40  1  0  0  0  0
 25 41  1  0  0  0  0
M  END
$$$$
