CHEMBL3690577
 OpenBabel04072215373D

 49 52  0  0  0  0  0  0  0  0999 V2000
    3.9248    6.9877   -0.3394 C   0  0  0  0  0  0  0  0  0  0  0  0
    4.4064    5.5590   -0.2126 C   0  0  0  0  0  0  0  0  0  0  0  0
    5.2462    5.3453    0.9504 N   0  0  0  0  0  0  0  0  0  0  0  0
    5.6826    4.0505    1.1684 C   0  0  0  0  0  0  0  0  0  0  0  0
    5.3534    3.1246    0.4393 O   0  0  0  0  0  0  0  0  0  0  0  0
    6.4687    3.9556    2.2936 N   0  0  0  0  0  0  0  0  0  0  0  0
    7.1107    2.7781    2.7394 C   0  0  0  0  0  0  0  0  0  0  0  0
    7.3670    1.6870    1.9084 C   0  0  0  0  0  0  0  0  0  0  0  0
    7.9888    0.5447    2.4107 C   0  0  0  0  0  0  0  0  0  0  0  0
    8.4075    0.5039    3.7391 C   0  0  0  0  0  0  0  0  0  0  0  0
    8.2077    1.6035    4.5844 C   0  0  0  0  0  0  0  0  0  0  0  0
    8.6973    1.5567    5.9671 C   0  0  0  0  0  0  0  0  0  0  0  0
    8.8053    0.4713    6.8272 C   0  0  0  0  0  0  0  0  0  0  0  0
    9.3108    0.8240    8.0480 N   0  0  0  0  0  0  0  0  0  0  0  0
    9.5429    2.1139    7.9582 C   0  0  0  0  0  0  0  0  0  0  0  0
   10.0859    3.0149    8.9164 C   0  0  0  0  0  0  0  0  0  0  0  0
   10.2594    4.3275    8.6269 C   0  0  0  0  0  0  0  0  0  0  0  0
   10.8928    5.2235    9.6276 C   0  0  0  0  0  0  0  0  0  0  0  0
   10.7351    5.0462   11.0018 C   0  0  0  0  0  0  0  0  0  0  0  0
   11.4412    5.8697   11.8735 C   0  0  0  0  0  0  0  0  0  0  0  0
   12.2558    6.8621   11.3518 C   0  0  0  0  0  0  0  0  0  0  0  0
   12.9567    7.6432   12.1837 F   0  0  0  0  0  0  0  0  0  0  0  0
   12.3289    7.0286    9.9755 C   0  0  0  0  0  0  0  0  0  0  0  0
   13.1589    8.1182    9.3710 C   0  0  0  0  0  0  0  0  0  0  0  0
   11.6565    6.2228    9.1124 N   0  0  0  0  0  0  0  0  0  0  0  0
    9.9233    4.8028    7.2780 C   0  0  0  0  0  0  0  0  0  0  0  0
    9.4452    3.9501    6.3591 C   0  0  0  0  0  0  0  0  0  0  0  0
    9.2212    2.6155    6.7011 N   0  0  0  0  0  0  0  0  0  0  0  0
    7.5201    2.7190    4.0763 C   0  0  0  0  0  0  0  0  0  0  0  0
    3.2359    7.0736   -1.1862 H   0  0  0  0  0  0  0  0  0  0  0  0
    4.7639    7.6688   -0.5126 H   0  0  0  0  0  0  0  0  0  0  0  0
    3.4019    7.3133    0.5648 H   0  0  0  0  0  0  0  0  0  0  0  0
    4.9754    5.2709   -1.1043 H   0  0  0  0  0  0  0  0  0  0  0  0
    3.5468    4.8834   -0.1337 H   0  0  0  0  0  0  0  0  0  0  0  0
    5.9223    6.0610    1.1710 H   0  0  0  0  0  0  0  0  0  0  0  0
    6.3644    4.7096    2.9565 H   0  0  0  0  0  0  0  0  0  0  0  0
    7.0931    1.6962    0.8575 H   0  0  0  0  0  0  0  0  0  0  0  0
    8.1528   -0.3098    1.7589 H   0  0  0  0  0  0  0  0  0  0  0  0
    8.9018   -0.3958    4.0986 H   0  0  0  0  0  0  0  0  0  0  0  0
    8.5301   -0.5569    6.6242 H   0  0  0  0  0  0  0  0  0  0  0  0
   10.3759    2.5771    9.8647 H   0  0  0  0  0  0  0  0  0  0  0  0
   10.0841    4.2768   11.4037 H   0  0  0  0  0  0  0  0  0  0  0  0
   11.3656    5.7378   12.9472 H   0  0  0  0  0  0  0  0  0  0  0  0
   13.6717    8.7131   10.1327 H   0  0  0  0  0  0  0  0  0  0  0  0
   12.5194    8.7903    8.7898 H   0  0  0  0  0  0  0  0  0  0  0  0
   13.9154    7.6874    8.7078 H   0  0  0  0  0  0  0  0  0  0  0  0
   10.0995    5.8468    7.0365 H   0  0  0  0  0  0  0  0  0  0  0  0
    9.2403    4.2702    5.3489 H   0  0  0  0  0  0  0  0  0  0  0  0
    7.2698    3.5442    4.7358 H   0  0  0  0  0  0  0  0  0  0  0  0
  1  2  1  0  0  0  0
  1 30  1  0  0  0  0
  1 31  1  0  0  0  0
  1 32  1  0  0  0  0
  2  3  1  0  0  0  0
  2 33  1  0  0  0  0
  2 34  1  0  0  0  0
  3  4  1  0  0  0  0
  3 35  1  0  0  0  0
  4  5  2  0  0  0  0
  4  6  1  0  0  0  0
  6  7  1  0  0  0  0
  6 36  1  0  0  0  0
  7  8  1  0  0  0  0
  7 29  2  0  0  0  0
  8  9  2  0  0  0  0
  8 37  1  0  0  0  0
  9 10  1  0  0  0  0
  9 38  1  0  0  0  0
 10 11  2  0  0  0  0
 10 39  1  0  0  0  0
 11 12  1  0  0  0  0
 11 29  1  0  0  0  0
 12 13  2  0  0  0  0
 12 28  1  0  0  0  0
 13 14  1  0  0  0  0
 13 40  1  0  0  0  0
 14 15  2  0  0  0  0
 15 16  1  0  0  0  0
 15 28  1  0  0  0  0
 16 17  2  0  0  0  0
 16 41  1  0  0  0  0
 17 18  1  0  0  0  0
 17 26  1  0  0  0  0
 18 19  1  0  0  0  0
 18 25  2  0  0  0  0
 19 20  2  0  0  0  0
 19 42  1  0  0  0  0
 20 21  1  0  0  0  0
 20 43  1  0  0  0  0
 21 22  1  0  0  0  0
 21 23  2  0  0  0  0
 23 24  1  0  0  0  0
 23 25  1  0  0  0  0
 24 44  1  0  0  0  0
 24 45  1  0  0  0  0
 24 46  1  0  0  0  0
 26 27  2  0  0  0  0
 26 47  1  0  0  0  0
 27 28  1  0  0  0  0
 27 48  1  0  0  0  0
 29 49  1  0  0  0  0
M  END
$$$$
