CHEMBL3921787
 OpenBabel04072215373D

 70 74  0  0  0  0  0  0  0  0999 V2000
    1.4369   -0.7139   -0.3281 C   0  0  0  0  0  0  0  0  0  0  0  0
    2.3650   -0.0854    0.5572 O   0  0  0  0  0  0  0  0  0  0  0  0
    3.1289   -0.9309    1.3204 C   0  0  0  0  0  0  0  0  0  0  0  0
    2.7905   -2.2300    1.6475 C   0  0  0  0  0  0  0  0  0  0  0  0
    3.6523   -2.9907    2.4425 C   0  0  0  0  0  0  0  0  0  0  0  0
    3.3766   -4.2625    2.8774 O   0  0  0  0  0  0  0  0  0  0  0  0
    2.1571   -4.8312    2.4099 C   0  0  0  0  0  0  0  0  0  0  0  0
    4.9078   -2.4823    2.8305 C   0  0  0  0  0  0  0  0  0  0  0  0
    5.3313   -1.2161    2.4288 C   0  0  0  0  0  0  0  0  0  0  0  0
    6.6575   -0.7484    2.6637 N   0  0  0  0  0  0  0  0  0  0  0  0
    7.0397    0.4715    1.8868 C   0  0  0  0  0  0  0  0  0  0  0  0
    7.2665    0.1453    0.4739 C   0  0  0  0  0  0  0  0  0  0  0  0
    7.3971   -0.1194   -0.6869 C   0  0  0  0  0  0  0  0  0  0  0  0
    7.4836   -0.4389   -2.0743 C   0  0  0  0  0  0  0  0  0  0  0  0
    8.0237   -1.6614   -2.2988 N   0  0  0  0  0  0  0  0  0  0  0  0
    8.0220   -2.1041   -3.5614 C   0  0  0  0  0  0  0  0  0  0  0  0
    7.4907   -1.3922   -4.6304 C   0  0  0  0  0  0  0  0  0  0  0  0
    6.9590   -0.1296   -4.3774 C   0  0  0  0  0  0  0  0  0  0  0  0
    6.9751    0.3864   -3.0811 C   0  0  0  0  0  0  0  0  0  0  0  0
    6.4178    1.6293   -2.9504 O   0  0  0  0  0  0  0  0  0  0  0  0
    7.1004    2.5153   -2.0666 C   0  0  0  0  0  0  0  0  0  0  0  0
    7.8498   -1.3366    3.2382 C   0  0  0  0  0  0  0  0  0  0  0  0
    8.5096   -0.4844    4.1223 C   0  0  0  0  0  0  0  0  0  0  0  0
    9.8722   -0.6076    4.2964 C   0  0  0  0  0  0  0  0  0  0  0  0
   10.5915   -1.6506    3.7757 C   0  0  0  0  0  0  0  0  0  0  0  0
   11.9126   -1.4803    3.8831 N   0  0  0  0  0  0  0  0  0  0  0  0
   12.6819   -2.5441    3.6401 C   0  0  0  0  0  0  0  0  0  0  0  0
   12.1529   -3.7915    3.3920 C   0  0  0  0  0  0  0  0  0  0  0  0
   13.0511   -4.9085    3.7617 C   0  0  0  0  0  0  0  0  0  0  0  0
   13.8074   -5.8435    3.0135 C   0  0  0  0  0  0  0  0  0  0  0  0
   14.6822   -6.5468    3.7556 N   0  0  0  0  0  0  0  0  0  0  0  0
   14.5192   -6.0634    5.0037 N   0  0  0  0  0  0  0  0  0  0  0  0
   15.0797   -6.7513    6.1752 C   0  0  0  0  0  0  0  0  0  0  0  0
   14.2819   -8.0259    6.4637 C   0  0  0  0  0  0  0  0  0  0  0  0
   16.5765   -7.0915    6.1153 C   0  0  0  0  0  0  0  0  0  0  0  0
   13.6432   -5.0024    5.0231 C   0  0  0  0  0  0  0  0  0  0  0  0
   10.8003   -3.9233    3.0941 N   0  0  0  0  0  0  0  0  0  0  0  0
    9.9584   -2.7806    3.2208 C   0  0  0  0  0  0  0  0  0  0  0  0
    8.5462   -2.5297    2.8710 C   0  0  0  0  0  0  0  0  0  0  0  0
    4.3464   -0.4179    1.7785 C   0  0  0  0  0  0  0  0  0  0  0  0
    1.1514    0.0094   -1.0990 H   0  0  0  0  0  0  0  0  0  0  0  0
    0.5303   -1.0028    0.2136 H   0  0  0  0  0  0  0  0  0  0  0  0
    1.8748   -1.5782   -0.8416 H   0  0  0  0  0  0  0  0  0  0  0  0
    1.8510   -2.6339    1.2970 H   0  0  0  0  0  0  0  0  0  0  0  0
    2.0696   -5.8368    2.8273 H   0  0  0  0  0  0  0  0  0  0  0  0
    2.1611   -4.9207    1.3173 H   0  0  0  0  0  0  0  0  0  0  0  0
    1.2914   -4.2524    2.7525 H   0  0  0  0  0  0  0  0  0  0  0  0
    5.5568   -3.1025    3.4400 H   0  0  0  0  0  0  0  0  0  0  0  0
    7.9461    0.9597    2.2634 H   0  0  0  0  0  0  0  0  0  0  0  0
    6.2982    1.2719    1.9938 H   0  0  0  0  0  0  0  0  0  0  0  0
    8.4566   -3.0922   -3.7173 H   0  0  0  0  0  0  0  0  0  0  0  0
    7.4911   -1.8055   -5.6319 H   0  0  0  0  0  0  0  0  0  0  0  0
    6.5322    0.4535   -5.1885 H   0  0  0  0  0  0  0  0  0  0  0  0
    6.8871    3.5394   -2.3878 H   0  0  0  0  0  0  0  0  0  0  0  0
    8.1877    2.3792   -2.0900 H   0  0  0  0  0  0  0  0  0  0  0  0
    6.7098    2.4162   -1.0506 H   0  0  0  0  0  0  0  0  0  0  0  0
    8.0044    0.3759    4.5413 H   0  0  0  0  0  0  0  0  0  0  0  0
   10.3947    0.1726    4.8391 H   0  0  0  0  0  0  0  0  0  0  0  0
   13.7463   -2.3831    3.7711 H   0  0  0  0  0  0  0  0  0  0  0  0
   13.7934   -6.0265    1.9473 H   0  0  0  0  0  0  0  0  0  0  0  0
   14.9439   -6.0676    7.0244 H   0  0  0  0  0  0  0  0  0  0  0  0
   14.2948   -8.7048    5.6041 H   0  0  0  0  0  0  0  0  0  0  0  0
   13.2379   -7.7856    6.6882 H   0  0  0  0  0  0  0  0  0  0  0  0
   14.6921   -8.5668    7.3241 H   0  0  0  0  0  0  0  0  0  0  0  0
   16.8315   -7.6951    5.2390 H   0  0  0  0  0  0  0  0  0  0  0  0
   16.8705   -7.6709    7.0031 H   0  0  0  0  0  0  0  0  0  0  0  0
   17.1968   -6.1900    6.1073 H   0  0  0  0  0  0  0  0  0  0  0  0
   13.5058   -4.4217    5.9256 H   0  0  0  0  0  0  0  0  0  0  0  0
    8.0352   -3.2652    2.2477 H   0  0  0  0  0  0  0  0  0  0  0  0
    4.4996    0.6358    1.5662 H   0  0  0  0  0  0  0  0  0  0  0  0
  1  2  1  0  0  0  0
  1 41  1  0  0  0  0
  1 42  1  0  0  0  0
  1 43  1  0  0  0  0
  2  3  1  0  0  0  0
  3  4  1  0  0  0  0
  3 40  2  0  0  0  0
  4  5  2  0  0  0  0
  4 44  1  0  0  0  0
  5  6  1  0  0  0  0
  5  8  1  0  0  0  0
  6  7  1  0  0  0  0
  7 45  1  0  0  0  0
  7 46  1  0  0  0  0
  7 47  1  0  0  0  0
  8  9  2  0  0  0  0
  8 48  1  0  0  0  0
  9 10  1  0  0  0  0
  9 40  1  0  0  0  0
 10 11  1  0  0  0  0
 10 22  1  0  0  0  0
 11 12  1  0  0  0  0
 11 49  1  0  0  0  0
 11 50  1  0  0  0  0
 12 13  3  0  0  0  0
 13 14  1  0  0  0  0
 14 15  1  0  0  0  0
 14 19  2  0  0  0  0
 15 16  2  0  0  0  0
 16 17  1  0  0  0  0
 16 51  1  0  0  0  0
 17 18  2  0  0  0  0
 17 52  1  0  0  0  0
 18 19  1  0  0  0  0
 18 53  1  0  0  0  0
 19 20  1  0  0  0  0
 20 21  1  0  0  0  0
 21 54  1  0  0  0  0
 21 55  1  0  0  0  0
 21 56  1  0  0  0  0
 22 23  1  0  0  0  0
 22 39  2  0  0  0  0
 23 24  2  0  0  0  0
 23 57  1  0  0  0  0
 24 25  1  0  0  0  0
 24 58  1  0  0  0  0
 25 26  1  0  0  0  0
 25 38  2  0  0  0  0
 26 27  2  0  0  0  0
 27 28  1  0  0  0  0
 27 59  1  0  0  0  0
 28 29  1  0  0  0  0
 28 37  2  0  0  0  0
 29 30  1  0  0  0  0
 29 36  2  0  0  0  0
 30 31  2  0  0  0  0
 30 60  1  0  0  0  0
 31 32  1  0  0  0  0
 32 33  1  0  0  0  0
 32 36  1  0  0  0  0
 33 34  1  0  0  0  0
 33 35  1  0  0  0  0
 33 61  1  0  0  0  0
 34 62  1  0  0  0  0
 34 63  1  0  0  0  0
 34 64  1  0  0  0  0
 35 65  1  0  0  0  0
 35 66  1  0  0  0  0
 35 67  1  0  0  0  0
 36 68  1  0  0  0  0
 37 38  1  0  0  0  0
 38 39  1  0  0  0  0
 39 69  1  0  0  0  0
 40 70  1  0  0  0  0
M  END
$$$$
