CHEMBL3690463
 OpenBabel04072215373D

 48 51  0  0  0  0  0  0  0  0999 V2000
    2.2079    0.2909    1.2026 C   0  0  0  0  0  0  0  0  0  0  0  0
    0.8603    0.1160    0.5781 C   0  0  0  0  0  0  0  0  0  0  0  0
    0.1914    1.1919    0.0038 C   0  0  0  0  0  0  0  0  0  0  0  0
   -1.0253    1.0777   -0.5665 N   0  0  0  0  0  0  0  0  0  0  0  0
   -1.5497   -0.1702   -0.5423 C   0  0  0  0  0  0  0  0  0  0  0  0
   -0.8965   -1.2711    0.0117 C   0  0  0  0  0  0  0  0  0  0  0  0
   -1.5061   -2.6239   -0.0241 C   0  0  0  0  0  0  0  0  0  0  0  0
   -2.4056   -3.0339   -1.1084 C   0  0  0  0  0  0  0  0  0  0  0  0
   -3.0044   -4.2316   -1.0742 C   0  0  0  0  0  0  0  0  0  0  0  0
   -2.7129   -5.1259   -0.0470 N   0  0  0  0  0  0  0  0  0  0  0  0
   -3.1542   -6.4258    0.1783 C   0  0  0  0  0  0  0  0  0  0  0  0
   -4.0890   -7.2070   -0.6492 C   0  0  0  0  0  0  0  0  0  0  0  0
   -4.9752   -8.0900   -0.0117 C   0  0  0  0  0  0  0  0  0  0  0  0
   -5.8680   -8.8578   -0.7479 C   0  0  0  0  0  0  0  0  0  0  0  0
   -5.9375   -8.7140   -2.1317 C   0  0  0  0  0  0  0  0  0  0  0  0
   -5.1192   -7.8008   -2.7934 C   0  0  0  0  0  0  0  0  0  0  0  0
   -5.2601   -7.5330   -4.1842 N   0  0  0  0  0  0  0  0  0  0  0  0
   -6.4079   -7.7890   -4.9002 C   0  0  0  0  0  0  0  0  0  0  0  0
   -7.4661   -8.2295   -4.4537 O   0  0  0  0  0  0  0  0  0  0  0  0
   -6.2895   -7.5414   -6.2484 N   0  0  0  0  0  0  0  0  0  0  0  0
   -7.4606   -7.7755   -7.1058 C   0  0  0  0  0  0  0  0  0  0  0  0
   -8.5374   -6.6772   -7.1238 C   0  0  0  0  0  0  0  0  0  0  0  0
   -8.1685   -5.5813   -6.4222 F   0  0  0  0  0  0  0  0  0  0  0  0
   -8.7517   -6.2690   -8.4011 F   0  0  0  0  0  0  0  0  0  0  0  0
   -9.7220   -7.1081   -6.6417 F   0  0  0  0  0  0  0  0  0  0  0  0
   -4.1403   -7.1150   -2.0561 C   0  0  0  0  0  0  0  0  0  0  0  0
   -2.5581   -6.7643    1.3865 C   0  0  0  0  0  0  0  0  0  0  0  0
   -1.7557   -5.7677    1.8750 N   0  0  0  0  0  0  0  0  0  0  0  0
   -1.8480   -4.7944    0.9956 C   0  0  0  0  0  0  0  0  0  0  0  0
   -1.2419   -3.5017    0.9751 C   0  0  0  0  0  0  0  0  0  0  0  0
    0.3234   -1.1322    0.5893 N   0  0  0  0  0  0  0  0  0  0  0  0
    2.5469    1.3302    1.1442 H   0  0  0  0  0  0  0  0  0  0  0  0
    2.9404   -0.3365    0.6865 H   0  0  0  0  0  0  0  0  0  0  0  0
    2.1694    0.0032    2.2573 H   0  0  0  0  0  0  0  0  0  0  0  0
    0.6181    2.1892   -0.0130 H   0  0  0  0  0  0  0  0  0  0  0  0
   -2.5351   -0.2511   -0.9885 H   0  0  0  0  0  0  0  0  0  0  0  0
   -2.5863   -2.3639   -1.9418 H   0  0  0  0  0  0  0  0  0  0  0  0
   -3.7068   -4.5253   -1.8379 H   0  0  0  0  0  0  0  0  0  0  0  0
   -4.9825   -8.1883    1.0712 H   0  0  0  0  0  0  0  0  0  0  0  0
   -6.5319   -9.5602   -0.2485 H   0  0  0  0  0  0  0  0  0  0  0  0
   -6.6436   -9.3379   -2.6677 H   0  0  0  0  0  0  0  0  0  0  0  0
   -4.5816   -6.9168   -4.6064 H   0  0  0  0  0  0  0  0  0  0  0  0
   -5.5733   -6.9083   -6.5711 H   0  0  0  0  0  0  0  0  0  0  0  0
   -7.9330   -8.7160   -6.7912 H   0  0  0  0  0  0  0  0  0  0  0  0
   -7.0787   -7.9375   -8.1166 H   0  0  0  0  0  0  0  0  0  0  0  0
   -3.4306   -6.4891   -2.5852 H   0  0  0  0  0  0  0  0  0  0  0  0
   -2.6644   -7.6935    1.9326 H   0  0  0  0  0  0  0  0  0  0  0  0
   -0.5852   -3.2493    1.8037 H   0  0  0  0  0  0  0  0  0  0  0  0
  1  2  1  0  0  0  0
  1 32  1  0  0  0  0
  1 33  1  0  0  0  0
  1 34  1  0  0  0  0
  2  3  1  0  0  0  0
  2 31  2  0  0  0  0
  3  4  2  0  0  0  0
  3 35  1  0  0  0  0
  4  5  1  0  0  0  0
  5  6  2  0  0  0  0
  5 36  1  0  0  0  0
  6  7  1  0  0  0  0
  6 31  1  0  0  0  0
  7  8  1  0  0  0  0
  7 30  2  0  0  0  0
  8  9  2  0  0  0  0
  8 37  1  0  0  0  0
  9 10  1  0  0  0  0
  9 38  1  0  0  0  0
 10 11  1  0  0  0  0
 10 29  1  0  0  0  0
 11 12  1  0  0  0  0
 11 27  2  0  0  0  0
 12 13  1  0  0  0  0
 12 26  2  0  0  0  0
 13 14  2  0  0  0  0
 13 39  1  0  0  0  0
 14 15  1  0  0  0  0
 14 40  1  0  0  0  0
 15 16  2  0  0  0  0
 15 41  1  0  0  0  0
 16 17  1  0  0  0  0
 16 26  1  0  0  0  0
 17 18  1  0  0  0  0
 17 42  1  0  0  0  0
 18 19  2  0  0  0  0
 18 20  1  0  0  0  0
 20 21  1  0  0  0  0
 20 43  1  0  0  0  0
 21 22  1  0  0  0  0
 21 44  1  0  0  0  0
 21 45  1  0  0  0  0
 22 23  1  0  0  0  0
 22 24  1  0  0  0  0
 22 25  1  0  0  0  0
 26 46  1  0  0  0  0
 27 28  1  0  0  0  0
 27 47  1  0  0  0  0
 28 29  2  0  0  0  0
 29 30  1  0  0  0  0
 30 48  1  0  0  0  0
M  END
$$$$
