CHEMBL3984621
 OpenBabel04072215373D

 54 58  0  0  0  0  0  0  0  0999 V2000
    0.1385    1.8904    1.7480 N   0  0  0  0  0  0  0  0  0  0  0  0
    0.4389    3.0318    1.0525 C   0  0  0  0  0  0  0  0  0  0  0  0
    1.6858    3.4417    0.6047 C   0  0  0  0  0  0  0  0  0  0  0  0
    2.9413    2.7235    0.7798 C   0  0  0  0  0  0  0  0  0  0  0  0
    2.9567    1.5148    0.9992 O   0  0  0  0  0  0  0  0  0  0  0  0
    4.1546    3.4975    0.5952 C   0  0  0  0  0  0  0  0  0  0  0  0
    5.3764    3.0106    0.1597 C   0  0  0  0  0  0  0  0  0  0  0  0
    6.1959    4.1183   -0.1525 C   0  0  0  0  0  0  0  0  0  0  0  0
    7.3859    4.2618   -0.8853 C   0  0  0  0  0  0  0  0  0  0  0  0
    7.0821    5.0971   -1.9681 C   0  0  0  0  0  0  0  0  0  0  0  0
    6.6040    4.4023   -3.2492 C   0  0  0  0  0  0  0  0  0  0  0  0
    7.6935    3.7580   -3.9819 N   0  0  0  0  0  0  0  0  0  0  0  0
    8.4618    4.7336   -4.7785 C   0  0  0  0  0  0  0  0  0  0  0  0
    7.7644    5.1838   -6.0749 C   0  0  0  0  0  0  0  0  0  0  0  0
    7.3739    4.0686   -6.8845 O   0  0  0  0  0  0  0  0  0  0  0  0
    6.5097    3.1936   -6.1515 C   0  0  0  0  0  0  0  0  0  0  0  0
    7.1947    2.6875   -4.8726 C   0  0  0  0  0  0  0  0  0  0  0  0
    6.5450    6.3565   -1.6667 C   0  0  0  0  0  0  0  0  0  0  0  0
    5.7568    6.4967   -0.5137 C   0  0  0  0  0  0  0  0  0  0  0  0
    5.4311    5.2662    0.0731 C   0  0  0  0  0  0  0  0  0  0  0  0
    4.3355    4.8582    0.7994 N   0  0  0  0  0  0  0  0  0  0  0  0
    1.4080    4.5910   -0.1561 C   0  0  0  0  0  0  0  0  0  0  0  0
    0.1329    4.9513   -0.1120 N   0  0  0  0  0  0  0  0  0  0  0  0
   -0.4999    3.9618    0.5683 N   0  0  0  0  0  0  0  0  0  0  0  0
   -1.9188    3.9880    0.7182 C   0  0  0  0  0  0  0  0  0  0  0  0
   -2.5013    3.4184    1.8676 C   0  0  0  0  0  0  0  0  0  0  0  0
   -3.8855    3.4230    2.0225 C   0  0  0  0  0  0  0  0  0  0  0  0
   -4.4856    2.8696    3.1131 O   0  0  0  0  0  0  0  0  0  0  0  0
   -4.7092    3.9960    1.0688 C   0  0  0  0  0  0  0  0  0  0  0  0
   -4.1469    4.5803   -0.0604 C   0  0  0  0  0  0  0  0  0  0  0  0
   -2.7572    4.5835   -0.2477 C   0  0  0  0  0  0  0  0  0  0  0  0
   -2.2339    5.2378   -1.7655 Cl  0  0  0  0  0  0  0  0  0  0  0  0
    0.8909    1.1926    1.8158 H   0  0  0  0  0  0  0  0  0  0  0  0
   -0.7520    1.4248    1.5876 H   0  0  0  0  0  0  0  0  0  0  0  0
    5.5922    1.9770   -0.0830 H   0  0  0  0  0  0  0  0  0  0  0  0
    8.1866    4.6883   -0.2554 H   0  0  0  0  0  0  0  0  0  0  0  0
    6.0249    5.0944   -3.8706 H   0  0  0  0  0  0  0  0  0  0  0  0
    5.8798    3.6400   -2.9238 H   0  0  0  0  0  0  0  0  0  0  0  0
    9.4111    4.2537   -5.0441 H   0  0  0  0  0  0  0  0  0  0  0  0
    8.7222    5.6112   -4.1751 H   0  0  0  0  0  0  0  0  0  0  0  0
    8.4550    5.7921   -6.6660 H   0  0  0  0  0  0  0  0  0  0  0  0
    6.8806    5.7992   -5.8695 H   0  0  0  0  0  0  0  0  0  0  0  0
    6.2731    2.3456   -6.8021 H   0  0  0  0  0  0  0  0  0  0  0  0
    5.5688    3.7121   -5.9326 H   0  0  0  0  0  0  0  0  0  0  0  0
    8.0612    2.0810   -5.1641 H   0  0  0  0  0  0  0  0  0  0  0  0
    6.5226    2.0099   -4.3313 H   0  0  0  0  0  0  0  0  0  0  0  0
    6.4988    7.1335   -2.4268 H   0  0  0  0  0  0  0  0  0  0  0  0
    5.1875    7.4019   -0.3319 H   0  0  0  0  0  0  0  0  0  0  0  0
    3.6246    5.4891    1.1445 H   0  0  0  0  0  0  0  0  0  0  0  0
    2.0791    5.1936   -0.7567 H   0  0  0  0  0  0  0  0  0  0  0  0
   -1.8820    3.0153    2.6635 H   0  0  0  0  0  0  0  0  0  0  0  0
   -3.8056    2.5250    3.7150 H   0  0  0  0  0  0  0  0  0  0  0  0
   -5.7886    3.9865    1.1963 H   0  0  0  0  0  0  0  0  0  0  0  0
   -4.8005    5.0203   -0.8090 H   0  0  0  0  0  0  0  0  0  0  0  0
  1  2  1  0  0  0  0
  1 33  1  0  0  0  0
  1 34  1  0  0  0  0
  2  3  2  0  0  0  0
  2 24  1  0  0  0  0
  3  4  1  0  0  0  0
  3 22  1  0  0  0  0
  4  5  2  0  0  0  0
  4  6  1  0  0  0  0
  6  7  2  0  0  0  0
  6 21  1  0  0  0  0
  7  8  1  0  0  0  0
  7 35  1  0  0  0  0
  8  9  1  0  0  0  0
  8 20  2  0  0  0  0
  9 10  2  0  0  0  0
  9 36  1  0  0  0  0
 10 11  1  0  0  0  0
 10 18  1  0  0  0  0
 11 12  1  0  0  0  0
 11 37  1  0  0  0  0
 11 38  1  0  0  0  0
 12 13  1  0  0  0  0
 12 17  1  0  0  0  0
 13 14  1  0  0  0  0
 13 39  1  0  0  0  0
 13 40  1  0  0  0  0
 14 15  1  0  0  0  0
 14 41  1  0  0  0  0
 14 42  1  0  0  0  0
 15 16  1  0  0  0  0
 16 17  1  0  0  0  0
 16 43  1  0  0  0  0
 16 44  1  0  0  0  0
 17 45  1  0  0  0  0
 17 46  1  0  0  0  0
 18 19  2  0  0  0  0
 18 47  1  0  0  0  0
 19 20  1  0  0  0  0
 19 48  1  0  0  0  0
 20 21  1  0  0  0  0
 21 49  1  0  0  0  0
 22 23  2  0  0  0  0
 22 50  1  0  0  0  0
 23 24  1  0  0  0  0
 24 25  1  0  0  0  0
 25 26  1  0  0  0  0
 25 31  2  0  0  0  0
 26 27  2  0  0  0  0
 26 51  1  0  0  0  0
 27 28  1  0  0  0  0
 27 29  1  0  0  0  0
 28 52  1  0  0  0  0
 29 30  2  0  0  0  0
 29 53  1  0  0  0  0
 30 31  1  0  0  0  0
 30 54  1  0  0  0  0
 31 32  1  0  0  0  0
M  END
$$$$
