CHEMBL3903969
 OpenBabel04072215373D

 57 60  0  0  0  0  0  0  0  0999 V2000
    2.6049    0.2446    0.1015 C   0  0  0  0  0  0  0  0  0  0  0  0
    1.1079    0.1012    0.1506 C   0  0  0  0  0  0  0  0  0  0  0  0
    0.3557    1.2949    0.2257 C   0  0  0  0  0  0  0  0  0  0  0  0
   -1.0378    1.2921    0.1820 C   0  0  0  0  0  0  0  0  0  0  0  0
   -1.8075    2.4309    0.2682 O   0  0  0  0  0  0  0  0  0  0  0  0
   -1.3736    3.5615   -0.4202 C   0  0  0  0  0  0  0  0  0  0  0  0
   -1.8230    4.7826    0.0377 C   0  0  0  0  0  0  0  0  0  0  0  0
   -1.3809    5.8813   -0.6705 C   0  0  0  0  0  0  0  0  0  0  0  0
   -1.8220    7.1608   -0.2823 N   0  0  0  0  0  0  0  0  0  0  0  0
   -1.5212    8.3183   -0.9730 C   0  0  0  0  0  0  0  0  0  0  0  0
   -0.8561    8.4269   -1.9943 O   0  0  0  0  0  0  0  0  0  0  0  0
   -2.0901    9.5537   -0.3512 C   0  0  0  0  0  0  0  0  0  0  0  0
   -1.9826   10.8854   -1.0624 C   0  0  0  0  0  0  0  0  0  0  0  0
   -1.1407   10.6205    0.1474 C   0  0  0  0  0  0  0  0  0  0  0  0
   -0.5550    5.7650   -1.7162 N   0  0  0  0  0  0  0  0  0  0  0  0
   -0.1995    4.5389   -2.0907 C   0  0  0  0  0  0  0  0  0  0  0  0
   -0.5846    3.4109   -1.4972 N   0  0  0  0  0  0  0  0  0  0  0  0
   -1.7054    0.0768    0.1012 C   0  0  0  0  0  0  0  0  0  0  0  0
   -0.9747   -1.1162    0.0590 C   0  0  0  0  0  0  0  0  0  0  0  0
    0.4308   -1.1370    0.1036 C   0  0  0  0  0  0  0  0  0  0  0  0
    1.1547   -2.3678    0.1288 N   0  0  0  0  0  0  0  0  0  0  0  0
    0.6109   -3.6237    0.3575 C   0  0  0  0  0  0  0  0  0  0  0  0
   -0.5838   -3.8647    0.5052 O   0  0  0  0  0  0  0  0  0  0  0  0
    1.5831   -4.6122    0.4814 N   0  0  0  0  0  0  0  0  0  0  0  0
    1.2118   -5.9543    0.7680 C   0  0  0  0  0  0  0  0  0  0  0  0
    1.8802   -6.6302    1.7911 C   0  0  0  0  0  0  0  0  0  0  0  0
    1.4814   -7.9178    2.1582 C   0  0  0  0  0  0  0  0  0  0  0  0
    0.4556   -8.5613    1.4656 C   0  0  0  0  0  0  0  0  0  0  0  0
   -0.1929   -7.9232    0.3985 C   0  0  0  0  0  0  0  0  0  0  0  0
   -1.2687   -8.6549   -0.3807 C   0  0  0  0  0  0  0  0  0  0  0  0
   -2.6535   -8.4640    0.2170 C   0  0  0  0  0  0  0  0  0  0  0  0
   -1.3213   -8.2579   -1.6875 F   0  0  0  0  0  0  0  0  0  0  0  0
   -1.0297  -10.0004   -0.4318 F   0  0  0  0  0  0  0  0  0  0  0  0
    0.1844   -6.6077    0.0693 C   0  0  0  0  0  0  0  0  0  0  0  0
    2.9092    1.2829    0.2923 H   0  0  0  0  0  0  0  0  0  0  0  0
    2.9727   -0.0198   -0.8938 H   0  0  0  0  0  0  0  0  0  0  0  0
    3.0896   -0.3724    0.8602 H   0  0  0  0  0  0  0  0  0  0  0  0
    0.8799    2.2462    0.3032 H   0  0  0  0  0  0  0  0  0  0  0  0
   -2.4761    4.8515    0.8956 H   0  0  0  0  0  0  0  0  0  0  0  0
   -2.4069    7.2305    0.5365 H   0  0  0  0  0  0  0  0  0  0  0  0
   -3.0058    9.4074    0.2126 H   0  0  0  0  0  0  0  0  0  0  0  0
   -2.8036   11.5875   -0.9730 H   0  0  0  0  0  0  0  0  0  0  0  0
   -1.4862   10.9184   -2.0306 H   0  0  0  0  0  0  0  0  0  0  0  0
   -1.3888   11.1433    1.0622 H   0  0  0  0  0  0  0  0  0  0  0  0
   -0.0762   10.4752   -0.0100 H   0  0  0  0  0  0  0  0  0  0  0  0
    0.4754    4.4570   -2.9352 H   0  0  0  0  0  0  0  0  0  0  0  0
   -2.7890    0.0374    0.0588 H   0  0  0  0  0  0  0  0  0  0  0  0
   -1.5550   -2.0277   -0.0348 H   0  0  0  0  0  0  0  0  0  0  0  0
    2.1601   -2.3062    0.0340 H   0  0  0  0  0  0  0  0  0  0  0  0
    2.4472   -4.2981    0.8975 H   0  0  0  0  0  0  0  0  0  0  0  0
    2.6701   -6.1452    2.3566 H   0  0  0  0  0  0  0  0  0  0  0  0
    1.9662   -8.4201    2.9916 H   0  0  0  0  0  0  0  0  0  0  0  0
    0.1642   -9.5696    1.7566 H   0  0  0  0  0  0  0  0  0  0  0  0
   -2.9660   -7.4173    0.1810 H   0  0  0  0  0  0  0  0  0  0  0  0
   -2.6931   -8.8141    1.2538 H   0  0  0  0  0  0  0  0  0  0  0  0
   -3.3839   -9.0429   -0.3553 H   0  0  0  0  0  0  0  0  0  0  0  0
   -0.3210   -6.0997   -0.7511 H   0  0  0  0  0  0  0  0  0  0  0  0
  1  2  1  0  0  0  0
  1 35  1  0  0  0  0
  1 36  1  0  0  0  0
  1 37  1  0  0  0  0
  2  3  1  0  0  0  0
  2 20  2  0  0  0  0
  3  4  2  0  0  0  0
  3 38  1  0  0  0  0
  4  5  1  0  0  0  0
  4 18  1  0  0  0  0
  5  6  1  0  0  0  0
  6  7  1  0  0  0  0
  6 17  2  0  0  0  0
  7  8  2  0  0  0  0
  7 39  1  0  0  0  0
  8  9  1  0  0  0  0
  8 15  1  0  0  0  0
  9 10  1  0  0  0  0
  9 40  1  0  0  0  0
 10 11  2  0  0  0  0
 10 12  1  0  0  0  0
 12 13  1  0  0  0  0
 12 14  1  0  0  0  0
 12 41  1  0  0  0  0
 13 14  1  0  0  0  0
 13 42  1  0  0  0  0
 13 43  1  0  0  0  0
 14 44  1  0  0  0  0
 14 45  1  0  0  0  0
 15 16  2  0  0  0  0
 16 17  1  0  0  0  0
 16 46  1  0  0  0  0
 18 19  2  0  0  0  0
 18 47  1  0  0  0  0
 19 20  1  0  0  0  0
 19 48  1  0  0  0  0
 20 21  1  0  0  0  0
 21 22  1  0  0  0  0
 21 49  1  0  0  0  0
 22 23  2  0  0  0  0
 22 24  1  0  0  0  0
 24 25  1  0  0  0  0
 24 50  1  0  0  0  0
 25 26  1  0  0  0  0
 25 34  2  0  0  0  0
 26 27  2  0  0  0  0
 26 51  1  0  0  0  0
 27 28  1  0  0  0  0
 27 52  1  0  0  0  0
 28 29  2  0  0  0  0
 28 53  1  0  0  0  0
 29 30  1  0  0  0  0
 29 34  1  0  0  0  0
 30 31  1  0  0  0  0
 30 32  1  0  0  0  0
 30 33  1  0  0  0  0
 31 54  1  0  0  0  0
 31 55  1  0  0  0  0
 31 56  1  0  0  0  0
 34 57  1  0  0  0  0
M  END
$$$$
