CHEMBL3941337
 OpenBabel04072215373D

 65 69  0  0  0  0  0  0  0  0999 V2000
    0.2839   -6.5634    0.8265 C   0  0  0  0  0  0  0  0  0  0  0  0
    1.3982   -5.6972    0.6101 O   0  0  0  0  0  0  0  0  0  0  0  0
    2.1988   -6.0518   -0.4460 C   0  0  0  0  0  0  0  0  0  0  0  0
    1.7418   -6.7427   -1.5717 C   0  0  0  0  0  0  0  0  0  0  0  0
    2.6267   -7.0944   -2.5931 C   0  0  0  0  0  0  0  0  0  0  0  0
    3.9639   -6.7160   -2.5000 C   0  0  0  0  0  0  0  0  0  0  0  0
    4.4264   -5.9935   -1.3940 C   0  0  0  0  0  0  0  0  0  0  0  0
    5.7861   -5.5636   -1.4104 C   0  0  0  0  0  0  0  0  0  0  0  0
    6.8829   -5.1612   -1.6782 C   0  0  0  0  0  0  0  0  0  0  0  0
    8.1392   -4.5502   -2.1658 C   0  0  0  0  0  0  0  0  0  0  0  0
    8.5771   -5.0924   -3.5078 N   0  0  0  0  0  0  0  0  0  0  0  0
    7.8458   -4.4560   -4.5886 C   0  0  0  0  0  0  0  0  0  0  0  0
    6.6570   -3.7050   -4.3354 C   0  0  0  0  0  0  0  0  0  0  0  0
    5.8307   -3.1615   -5.3182 C   0  0  0  0  0  0  0  0  0  0  0  0
    4.6457   -2.5123   -5.0881 O   0  0  0  0  0  0  0  0  0  0  0  0
    4.1992   -2.4270   -3.7333 C   0  0  0  0  0  0  0  0  0  0  0  0
    6.2240   -3.2786   -6.6369 C   0  0  0  0  0  0  0  0  0  0  0  0
    7.4493   -3.8808   -6.9411 C   0  0  0  0  0  0  0  0  0  0  0  0
    7.9592   -3.9519   -8.2150 O   0  0  0  0  0  0  0  0  0  0  0  0
    7.4882   -2.9501   -9.1173 C   0  0  0  0  0  0  0  0  0  0  0  0
    8.2388   -4.4830   -5.9294 C   0  0  0  0  0  0  0  0  0  0  0  0
    9.7537   -5.9314   -3.4927 C   0  0  0  0  0  0  0  0  0  0  0  0
   10.5943   -5.8643   -2.3825 C   0  0  0  0  0  0  0  0  0  0  0  0
   11.8577   -6.4046   -2.3511 C   0  0  0  0  0  0  0  0  0  0  0  0
   12.3208   -7.1924   -3.3479 C   0  0  0  0  0  0  0  0  0  0  0  0
   13.5888   -7.5076   -3.1421 N   0  0  0  0  0  0  0  0  0  0  0  0
   14.0529   -8.5195   -3.8594 C   0  0  0  0  0  0  0  0  0  0  0  0
   13.2557   -9.2068   -4.7494 C   0  0  0  0  0  0  0  0  0  0  0  0
   13.8013  -10.5082   -5.1423 C   0  0  0  0  0  0  0  0  0  0  0  0
   13.4648  -11.8149   -4.6968 C   0  0  0  0  0  0  0  0  0  0  0  0
   14.3785  -12.7371   -5.0342 N   0  0  0  0  0  0  0  0  0  0  0  0
   15.3180  -12.0259   -5.6786 N   0  0  0  0  0  0  0  0  0  0  0  0
   16.3678  -12.6821   -6.4230 C   0  0  0  0  0  0  0  0  0  0  0  0
   15.0933  -10.6793   -5.6244 C   0  0  0  0  0  0  0  0  0  0  0  0
   11.9816   -8.7537   -5.0785 N   0  0  0  0  0  0  0  0  0  0  0  0
   11.4759   -7.6394   -4.3718 C   0  0  0  0  0  0  0  0  0  0  0  0
   10.1968   -6.8815   -4.4772 C   0  0  0  0  0  0  0  0  0  0  0  0
    3.5389   -5.6501   -0.3799 C   0  0  0  0  0  0  0  0  0  0  0  0
   -0.1715   -6.3022    1.7858 H   0  0  0  0  0  0  0  0  0  0  0  0
    0.6037   -7.6106    0.8809 H   0  0  0  0  0  0  0  0  0  0  0  0
   -0.4804   -6.4285    0.0540 H   0  0  0  0  0  0  0  0  0  0  0  0
    0.6974   -7.0104   -1.6930 H   0  0  0  0  0  0  0  0  0  0  0  0
    2.2697   -7.6360   -3.4623 H   0  0  0  0  0  0  0  0  0  0  0  0
    4.6472   -6.9922   -3.3036 H   0  0  0  0  0  0  0  0  0  0  0  0
    8.8196   -4.6606   -1.3286 H   0  0  0  0  0  0  0  0  0  0  0  0
    8.0716   -3.4513   -2.2142 H   0  0  0  0  0  0  0  0  0  0  0  0
    6.3316   -3.5161   -3.3257 H   0  0  0  0  0  0  0  0  0  0  0  0
    3.2018   -1.9769   -3.7252 H   0  0  0  0  0  0  0  0  0  0  0  0
    4.8601   -1.7781   -3.1473 H   0  0  0  0  0  0  0  0  0  0  0  0
    4.1119   -3.4166   -3.2722 H   0  0  0  0  0  0  0  0  0  0  0  0
    5.5647   -2.8860   -7.4039 H   0  0  0  0  0  0  0  0  0  0  0  0
    8.1471   -2.9480   -9.9903 H   0  0  0  0  0  0  0  0  0  0  0  0
    7.5289   -1.9493   -8.6706 H   0  0  0  0  0  0  0  0  0  0  0  0
    6.4751   -3.1795   -9.4651 H   0  0  0  0  0  0  0  0  0  0  0  0
    9.1826   -4.9280   -6.2238 H   0  0  0  0  0  0  0  0  0  0  0  0
   10.3870   -5.3421   -1.4653 H   0  0  0  0  0  0  0  0  0  0  0  0
   12.4811   -6.2352   -1.4809 H   0  0  0  0  0  0  0  0  0  0  0  0
   15.0655   -8.8151   -3.6123 H   0  0  0  0  0  0  0  0  0  0  0  0
   12.6210  -12.1308   -4.0960 H   0  0  0  0  0  0  0  0  0  0  0  0
   16.2751  -13.7668   -6.3273 H   0  0  0  0  0  0  0  0  0  0  0  0
   17.3419  -12.3501   -6.0545 H   0  0  0  0  0  0  0  0  0  0  0  0
   16.2438  -12.3949   -7.4711 H   0  0  0  0  0  0  0  0  0  0  0  0
   15.8553   -9.9764   -5.9334 H   0  0  0  0  0  0  0  0  0  0  0  0
    9.5585   -7.1088   -5.3311 H   0  0  0  0  0  0  0  0  0  0  0  0
    3.8784   -5.0706    0.4821 H   0  0  0  0  0  0  0  0  0  0  0  0
  1  2  1  0  0  0  0
  1 39  1  0  0  0  0
  1 40  1  0  0  0  0
  1 41  1  0  0  0  0
  2  3  1  0  0  0  0
  3  4  1  0  0  0  0
  3 38  2  0  0  0  0
  4  5  2  0  0  0  0
  4 42  1  0  0  0  0
  5  6  1  0  0  0  0
  5 43  1  0  0  0  0
  6  7  2  0  0  0  0
  6 44  1  0  0  0  0
  7  8  1  0  0  0  0
  7 38  1  0  0  0  0
  8  9  3  0  0  0  0
  9 10  1  0  0  0  0
 10 11  1  0  0  0  0
 10 45  1  0  0  0  0
 10 46  1  0  0  0  0
 11 12  1  0  0  0  0
 11 22  1  0  0  0  0
 12 13  1  0  0  0  0
 12 21  2  0  0  0  0
 13 14  2  0  0  0  0
 13 47  1  0  0  0  0
 14 15  1  0  0  0  0
 14 17  1  0  0  0  0
 15 16  1  0  0  0  0
 16 48  1  0  0  0  0
 16 49  1  0  0  0  0
 16 50  1  0  0  0  0
 17 18  2  0  0  0  0
 17 51  1  0  0  0  0
 18 19  1  0  0  0  0
 18 21  1  0  0  0  0
 19 20  1  0  0  0  0
 20 52  1  0  0  0  0
 20 53  1  0  0  0  0
 20 54  1  0  0  0  0
 21 55  1  0  0  0  0
 22 23  1  0  0  0  0
 22 37  2  0  0  0  0
 23 24  2  0  0  0  0
 23 56  1  0  0  0  0
 24 25  1  0  0  0  0
 24 57  1  0  0  0  0
 25 26  1  0  0  0  0
 25 36  2  0  0  0  0
 26 27  2  0  0  0  0
 27 28  1  0  0  0  0
 27 58  1  0  0  0  0
 28 29  1  0  0  0  0
 28 35  2  0  0  0  0
 29 30  1  0  0  0  0
 29 34  2  0  0  0  0
 30 31  2  0  0  0  0
 30 59  1  0  0  0  0
 31 32  1  0  0  0  0
 32 33  1  0  0  0  0
 32 34  1  0  0  0  0
 33 60  1  0  0  0  0
 33 61  1  0  0  0  0
 33 62  1  0  0  0  0
 34 63  1  0  0  0  0
 35 36  1  0  0  0  0
 36 37  1  0  0  0  0
 37 64  1  0  0  0  0
 38 65  1  0  0  0  0
M  END
$$$$
