CHEMBL441369
 OpenBabel04072215383D

 50 54  0  0  0  0  0  0  0  0999 V2000
    1.8591    0.0622   -1.1557 C   0  0  0  0  0  0  0  0  0  0  0  0
    0.4112    0.2454   -1.1426 N   0  0  0  0  0  0  0  0  0  0  0  0
   -0.2759   -1.0045   -0.7795 C   0  0  0  0  0  0  0  0  0  0  0  0
   -1.8077   -0.8071   -0.7257 C   0  0  0  0  0  0  0  0  0  0  0  0
   -2.2549    0.2243    0.2364 N   0  0  0  0  0  0  0  0  0  0  0  0
   -2.0377   -0.1414    1.6488 C   0  0  0  0  0  0  0  0  0  0  0  0
   -2.7545   -1.4066    2.0923 C   0  0  0  0  0  0  0  0  0  0  0  0
   -2.1032   -2.6648    1.9791 C   0  0  0  0  0  0  0  0  0  0  0  0
   -2.7395   -3.8626    2.3083 C   0  0  0  0  0  0  0  0  0  0  0  0
   -4.0190   -3.7704    2.7958 C   0  0  0  0  0  0  0  0  0  0  0  0
   -4.6815   -2.5257    2.9783 C   0  0  0  0  0  0  0  0  0  0  0  0
   -4.0615   -1.3429    2.6050 C   0  0  0  0  0  0  0  0  0  0  0  0
   -6.0772   -2.6756    3.6102 C   0  0  0  0  0  0  0  0  0  0  0  0
   -6.0918   -4.1650    3.6935 C   0  0  0  0  0  0  0  0  0  0  0  0
   -6.8904   -5.2243    4.1616 C   0  0  0  0  0  0  0  0  0  0  0  0
   -8.1833   -5.1351    4.8354 C   0  0  0  0  0  0  0  0  0  0  0  0
   -9.0684   -4.0852    4.5514 C   0  0  0  0  0  0  0  0  0  0  0  0
  -10.2568   -3.9419    5.2685 C   0  0  0  0  0  0  0  0  0  0  0  0
  -10.5794   -4.8550    6.2703 C   0  0  0  0  0  0  0  0  0  0  0  0
   -9.7248   -5.9232    6.5390 C   0  0  0  0  0  0  0  0  0  0  0  0
   -8.5346   -6.0654    5.8229 C   0  0  0  0  0  0  0  0  0  0  0  0
   -6.2566   -6.4055    3.9574 N   0  0  0  0  0  0  0  0  0  0  0  0
   -5.0754   -6.0766    3.3751 N   0  0  0  0  0  0  0  0  0  0  0  0
   -4.9457   -4.7472    3.2352 C   0  0  0  0  0  0  0  0  0  0  0  0
   -1.5299    1.4761   -0.0976 C   0  0  0  0  0  0  0  0  0  0  0  0
    0.0120    1.3322   -0.2286 C   0  0  0  0  0  0  0  0  0  0  0  0
    2.1387   -0.7423   -1.8455 H   0  0  0  0  0  0  0  0  0  0  0  0
    2.2569   -0.1842   -0.1647 H   0  0  0  0  0  0  0  0  0  0  0  0
    2.3563    0.9701   -1.5134 H   0  0  0  0  0  0  0  0  0  0  0  0
    0.0944   -1.3752    0.1837 H   0  0  0  0  0  0  0  0  0  0  0  0
   -0.0553   -1.7781   -1.5244 H   0  0  0  0  0  0  0  0  0  0  0  0
   -2.3071   -1.7639   -0.5450 H   0  0  0  0  0  0  0  0  0  0  0  0
   -2.1530   -0.5094   -1.7259 H   0  0  0  0  0  0  0  0  0  0  0  0
   -2.4104    0.6795    2.2780 H   0  0  0  0  0  0  0  0  0  0  0  0
   -0.9749   -0.2363    1.8993 H   0  0  0  0  0  0  0  0  0  0  0  0
   -1.0841   -2.7104    1.6051 H   0  0  0  0  0  0  0  0  0  0  0  0
   -2.2371   -4.8136    2.1860 H   0  0  0  0  0  0  0  0  0  0  0  0
   -4.5738   -0.3911    2.7103 H   0  0  0  0  0  0  0  0  0  0  0  0
   -6.8494   -2.2857    2.9444 H   0  0  0  0  0  0  0  0  0  0  0  0
   -6.1075   -2.2128    4.6001 H   0  0  0  0  0  0  0  0  0  0  0  0
   -8.8459   -3.3688    3.7660 H   0  0  0  0  0  0  0  0  0  0  0  0
  -10.9251   -3.1137    5.0490 H   0  0  0  0  0  0  0  0  0  0  0  0
  -11.4964   -4.7341    6.8394 H   0  0  0  0  0  0  0  0  0  0  0  0
   -9.9780   -6.6405    7.3154 H   0  0  0  0  0  0  0  0  0  0  0  0
   -7.8685   -6.8955    6.0505 H   0  0  0  0  0  0  0  0  0  0  0  0
   -4.4310   -6.8183    3.1241 H   0  0  0  0  0  0  0  0  0  0  0  0
   -1.7651    2.2580    0.6350 H   0  0  0  0  0  0  0  0  0  0  0  0
   -1.9230    1.8458   -1.0548 H   0  0  0  0  0  0  0  0  0  0  0  0
    0.4436    1.1734    0.7679 H   0  0  0  0  0  0  0  0  0  0  0  0
    0.4128    2.2814   -0.6044 H   0  0  0  0  0  0  0  0  0  0  0  0
  1  2  1  0  0  0  0
  1 27  1  0  0  0  0
  1 28  1  0  0  0  0
  1 29  1  0  0  0  0
  2  3  1  0  0  0  0
  2 26  1  0  0  0  0
  3  4  1  0  0  0  0
  3 30  1  0  0  0  0
  3 31  1  0  0  0  0
  4  5  1  0  0  0  0
  4 32  1  0  0  0  0
  4 33  1  0  0  0  0
  5  6  1  0  0  0  0
  5 25  1  0  0  0  0
  6  7  1  0  0  0  0
  6 34  1  0  0  0  0
  6 35  1  0  0  0  0
  7  8  1  0  0  0  0
  7 12  2  0  0  0  0
  8  9  2  0  0  0  0
  8 36  1  0  0  0  0
  9 10  1  0  0  0  0
  9 37  1  0  0  0  0
 10 11  2  0  0  0  0
 10 24  1  0  0  0  0
 11 12  1  0  0  0  0
 11 13  1  0  0  0  0
 12 38  1  0  0  0  0
 13 14  1  0  0  0  0
 13 39  1  0  0  0  0
 13 40  1  0  0  0  0
 14 15  1  0  0  0  0
 14 24  2  0  0  0  0
 15 16  1  0  0  0  0
 15 22  2  0  0  0  0
 16 17  1  0  0  0  0
 16 21  2  0  0  0  0
 17 18  2  0  0  0  0
 17 41  1  0  0  0  0
 18 19  1  0  0  0  0
 18 42  1  0  0  0  0
 19 20  2  0  0  0  0
 19 43  1  0  0  0  0
 20 21  1  0  0  0  0
 20 44  1  0  0  0  0
 21 45  1  0  0  0  0
 22 23  1  0  0  0  0
 23 24  1  0  0  0  0
 23 46  1  0  0  0  0
 25 26  1  0  0  0  0
 25 47  1  0  0  0  0
 25 48  1  0  0  0  0
 26 49  1  0  0  0  0
 26 50  1  0  0  0  0
M  END
$$$$
