CHEMBL4764656
 OpenBabel04072215383D

 41 41  0  0  1  0  0  0  0  0999 V2000
    0.8116   -1.2187    2.0611 C   0  0  0  0  0  0  0  0  0  0  0  0
    2.2642   -1.5176    2.4498 C   0  0  2  0  0  0  0  0  0  0  0  0
    2.4273   -1.5204    3.9817 C   0  0  0  0  0  0  0  0  0  0  0  0
    2.1479   -0.2450    4.5011 O   0  0  0  0  0  0  0  0  0  0  0  0
    3.1578   -0.5292    1.8639 N   0  0  0  0  0  0  0  0  0  0  0  0
    4.5671   -0.7274    1.8651 C   0  0  0  0  0  0  0  0  0  0  0  0
    5.0683   -1.9915    1.9830 N   0  0  0  0  0  0  0  0  0  0  0  0
    6.4024   -2.2124    2.0887 C   0  0  0  0  0  0  0  0  0  0  0  0
    6.9072   -3.5303    2.2289 N   0  0  0  0  0  0  0  0  0  0  0  0
    8.1237   -3.7793    2.9299 C   0  0  0  0  0  0  0  0  0  0  0  0
    8.5281   -2.9230    3.9729 C   0  0  0  0  0  0  0  0  0  0  0  0
    9.7031   -3.1610    4.6741 C   0  0  0  0  0  0  0  0  0  0  0  0
   10.5058   -4.2517    4.3412 C   0  0  0  0  0  0  0  0  0  0  0  0
   12.0319   -4.5323    5.2311 S   0  0  0  0  0  0  0  0  0  0  0  0
   12.2201   -6.0831    6.0473 N   0  0  0  0  0  0  0  0  0  0  0  0
   13.2762   -4.3857    4.3434 O   0  0  0  0  0  0  0  0  0  0  0  0
   12.2960   -3.4813    6.3209 O   0  0  0  0  0  0  0  0  0  0  0  0
   10.1112   -5.1215    3.3147 C   0  0  0  0  0  0  0  0  0  0  0  0
    8.9155   -4.8960    2.6194 C   0  0  0  0  0  0  0  0  0  0  0  0
    7.2598   -1.1593    2.0444 N   0  0  0  0  0  0  0  0  0  0  0  0
    6.8192    0.1087    1.8883 C   0  0  0  0  0  0  0  0  0  0  0  0
    5.4558    0.3644    1.7950 C   0  0  0  0  0  0  0  0  0  0  0  0
    4.8811    2.1845    1.6290 Br  0  0  0  0  0  0  0  0  0  0  0  0
    0.4811    1.2371   -2.6236 Cl  0  0  0  0  0  0  0  0  0  0  0  0
    0.6954   -1.2924    0.9596 H   0  0  0  0  0  0  0  0  0  0  0  0
    0.5166   -0.1976    2.3852 H   0  0  0  0  0  0  0  0  0  0  0  0
    0.1291   -1.9544    2.5379 H   0  0  0  0  0  0  0  0  0  0  0  0
    2.5109   -2.5308    2.0619 H   0  0  0  0  0  0  0  0  0  0  0  0
    1.7458   -2.2898    4.4148 H   0  0  0  0  0  0  0  0  0  0  0  0
    3.4675   -1.7987    4.2568 H   0  0  0  0  0  0  0  0  0  0  0  0
    1.6548   -0.3758    5.3520 H   0  0  0  0  0  0  0  0  0  0  0  0
    2.8038    0.4359    1.8001 H   0  0  0  0  0  0  0  0  0  0  0  0
    6.3883   -4.3173    1.8114 H   0  0  0  0  0  0  0  0  0  0  0  0
    7.9218   -2.0773    4.2691 H   0  0  0  0  0  0  0  0  0  0  0  0
    9.9820   -2.4903    5.4760 H   0  0  0  0  0  0  0  0  0  0  0  0
   12.1261   -6.8301    5.3239 H   0  0  0  0  0  0  0  0  0  0  0  0
   11.4288   -6.1826    6.7220 H   0  0  0  0  0  0  0  0  0  0  0  0
   10.7309   -5.9699    3.0550 H   0  0  0  0  0  0  0  0  0  0  0  0
    8.6215   -5.5719    1.8262 H   0  0  0  0  0  0  0  0  0  0  0  0
    7.5345    0.9193    1.8524 H   0  0  0  0  0  0  0  0  0  0  0  0
    1.5022    0.3844   -2.2736 H   0  0  0  0  0  0  0  0  0  0  0  0
  1 25  1  0  0  0  0
  1 26  1  0  0  0  0
  1 27  1  0  0  0  0
  2  5  1  0  0  0  0
  2  3  1  0  0  0  0
  2  1  1  0  0  0  0
  2 28  1  6  0  0  0
  3  4  1  0  0  0  0
  3 29  1  0  0  0  0
  3 30  1  0  0  0  0
  4 31  1  0  0  0  0
  5  6  1  0  0  0  0
  5 32  1  0  0  0  0
  6  7  1  0  0  0  0
  6 22  2  0  0  0  0
  7  8  2  0  0  0  0
  8  9  1  0  0  0  0
  8 20  1  0  0  0  0
  9 10  1  0  0  0  0
  9 33  1  0  0  0  0
 10 11  1  0  0  0  0
 10 19  2  0  0  0  0
 11 12  2  0  0  0  0
 11 34  1  0  0  0  0
 12 13  1  0  0  0  0
 12 35  1  0  0  0  0
 13 14  1  0  0  0  0
 13 18  2  0  0  0  0
 14 15  1  0  0  0  0
 14 16  2  0  0  0  0
 14 17  2  0  0  0  0
 15 36  1  0  0  0  0
 15 37  1  0  0  0  0
 18 19  1  0  0  0  0
 18 38  1  0  0  0  0
 19 39  1  0  0  0  0
 20 21  2  0  0  0  0
 21 22  1  0  0  0  0
 21 40  1  0  0  0  0
 22 23  1  0  0  0  0
 24 41  1  0  0  0  0
M  END
$$$$
