CHEMBL3656037
 OpenBabel04072215373D

 54 57  0  0  0  0  0  0  0  0999 V2000
    0.4568   -1.6947    1.0310 C   0  0  0  0  0  0  0  0  0  0  0  0
    1.8033   -1.3958    0.3987 C   0  0  0  0  0  0  0  0  0  0  0  0
    2.8900   -1.6881    1.3032 N   0  0  0  0  0  0  0  0  0  0  0  0
    3.3727   -0.7462    2.1813 C   0  0  0  0  0  0  0  0  0  0  0  0
    2.9354    0.4005    2.2273 O   0  0  0  0  0  0  0  0  0  0  0  0
    4.4314   -1.1961    3.0751 C   0  0  0  0  0  0  0  0  0  0  0  0
    5.0572   -2.4333    3.1799 C   0  0  0  0  0  0  0  0  0  0  0  0
    5.9889   -2.3673    4.1883 N   0  0  0  0  0  0  0  0  0  0  0  0
    5.9804   -1.1194    4.7641 C   0  0  0  0  0  0  0  0  0  0  0  0
    6.8035   -0.7634    5.9127 C   0  0  0  0  0  0  0  0  0  0  0  0
    6.7324    0.5059    6.4672 C   0  0  0  0  0  0  0  0  0  0  0  0
    7.3887    0.7487    7.6651 C   0  0  0  0  0  0  0  0  0  0  0  0
    7.3164    1.9366    8.3548 O   0  0  0  0  0  0  0  0  0  0  0  0
    6.1659    2.6973    8.3168 C   0  0  0  0  0  0  0  0  0  0  0  0
    4.8676    2.1933    8.1898 C   0  0  0  0  0  0  0  0  0  0  0  0
    3.7733    3.0634    8.1257 C   0  0  0  0  0  0  0  0  0  0  0  0
    3.9576    4.4395    8.2769 C   0  0  0  0  0  0  0  0  0  0  0  0
    5.2451    4.9388    8.4938 C   0  0  0  0  0  0  0  0  0  0  0  0
    5.5160    6.3850    8.6961 C   0  0  0  0  0  0  0  0  0  0  0  0
    6.5436    6.8287    8.1955 O   0  0  0  0  0  0  0  0  0  0  0  0
    4.6185    7.0601    9.5085 N   0  0  0  0  0  0  0  0  0  0  0  0
    4.7927    8.3927    9.8112 C   0  0  0  0  0  0  0  0  0  0  0  0
    5.6670    9.1181    9.0650 O   0  0  0  0  0  0  0  0  0  0  0  0
    5.6730   10.3822    9.5413 C   0  0  0  0  0  0  0  0  0  0  0  0
    4.7934   10.4958   10.5877 C   0  0  0  0  0  0  0  0  0  0  0  0
    4.2167    9.2025   10.7782 C   0  0  0  0  0  0  0  0  0  0  0  0
    3.2469    8.8379   11.8383 C   0  0  0  0  0  0  0  0  0  0  0  0
    6.3464    4.0691    8.4864 C   0  0  0  0  0  0  0  0  0  0  0  0
    8.2104   -0.2376    8.1957 C   0  0  0  0  0  0  0  0  0  0  0  0
    8.2647   -1.4613    7.5457 C   0  0  0  0  0  0  0  0  0  0  0  0
    7.5586   -1.7603    6.4301 N   0  0  0  0  0  0  0  0  0  0  0  0
    5.0404   -0.3785    4.0688 C   0  0  0  0  0  0  0  0  0  0  0  0
   -0.3507   -1.4869    0.3227 H   0  0  0  0  0  0  0  0  0  0  0  0
    0.2935   -1.0836    1.9255 H   0  0  0  0  0  0  0  0  0  0  0  0
    0.3908   -2.7459    1.3300 H   0  0  0  0  0  0  0  0  0  0  0  0
    1.8492   -0.3429    0.1017 H   0  0  0  0  0  0  0  0  0  0  0  0
    1.9489   -2.0098   -0.4956 H   0  0  0  0  0  0  0  0  0  0  0  0
    3.2262   -2.6402    1.3760 H   0  0  0  0  0  0  0  0  0  0  0  0
    4.9223   -3.3557    2.6345 H   0  0  0  0  0  0  0  0  0  0  0  0
    6.5914   -3.1192    4.4994 H   0  0  0  0  0  0  0  0  0  0  0  0
    6.1404    1.2782    5.9930 H   0  0  0  0  0  0  0  0  0  0  0  0
    4.6858    1.1244    8.1130 H   0  0  0  0  0  0  0  0  0  0  0  0
    2.7778    2.6608    7.9497 H   0  0  0  0  0  0  0  0  0  0  0  0
    3.1026    5.1050    8.1954 H   0  0  0  0  0  0  0  0  0  0  0  0
    3.9079    6.5515   10.0141 H   0  0  0  0  0  0  0  0  0  0  0  0
    6.3474   11.0628    9.0414 H   0  0  0  0  0  0  0  0  0  0  0  0
    4.6045   11.3947   11.1576 H   0  0  0  0  0  0  0  0  0  0  0  0
    3.1124    9.6659   12.5444 H   0  0  0  0  0  0  0  0  0  0  0  0
    3.6040    7.9746   12.4087 H   0  0  0  0  0  0  0  0  0  0  0  0
    2.2700    8.5987   11.4093 H   0  0  0  0  0  0  0  0  0  0  0  0
    7.3512    4.4690    8.6128 H   0  0  0  0  0  0  0  0  0  0  0  0
    8.7885   -0.0589    9.0952 H   0  0  0  0  0  0  0  0  0  0  0  0
    8.8911   -2.2633    7.9279 H   0  0  0  0  0  0  0  0  0  0  0  0
    4.7760    0.6542    4.2593 H   0  0  0  0  0  0  0  0  0  0  0  0
  1  2  1  0  0  0  0
  1 33  1  0  0  0  0
  1 34  1  0  0  0  0
  1 35  1  0  0  0  0
  2  3  1  0  0  0  0
  2 36  1  0  0  0  0
  2 37  1  0  0  0  0
  3  4  1  0  0  0  0
  3 38  1  0  0  0  0
  4  5  2  0  0  0  0
  4  6  1  0  0  0  0
  6  7  2  0  0  0  0
  6 32  1  0  0  0  0
  7  8  1  0  0  0  0
  7 39  1  0  0  0  0
  8  9  1  0  0  0  0
  8 40  1  0  0  0  0
  9 10  1  0  0  0  0
  9 32  2  0  0  0  0
 10 11  1  0  0  0  0
 10 31  2  0  0  0  0
 11 12  2  0  0  0  0
 11 41  1  0  0  0  0
 12 13  1  0  0  0  0
 12 29  1  0  0  0  0
 13 14  1  0  0  0  0
 14 15  1  0  0  0  0
 14 28  2  0  0  0  0
 15 16  2  0  0  0  0
 15 42  1  0  0  0  0
 16 17  1  0  0  0  0
 16 43  1  0  0  0  0
 17 18  2  0  0  0  0
 17 44  1  0  0  0  0
 18 19  1  0  0  0  0
 18 28  1  0  0  0  0
 19 20  2  0  0  0  0
 19 21  1  0  0  0  0
 21 22  1  0  0  0  0
 21 45  1  0  0  0  0
 22 23  1  0  0  0  0
 22 26  2  0  0  0  0
 23 24  1  0  0  0  0
 24 25  2  0  0  0  0
 24 46  1  0  0  0  0
 25 26  1  0  0  0  0
 25 47  1  0  0  0  0
 26 27  1  0  0  0  0
 27 48  1  0  0  0  0
 27 49  1  0  0  0  0
 27 50  1  0  0  0  0
 28 51  1  0  0  0  0
 29 30  2  0  0  0  0
 29 52  1  0  0  0  0
 30 31  1  0  0  0  0
 30 53  1  0  0  0  0
 32 54  1  0  0  0  0
M  END
$$$$
