CHEMBL3633290
 OpenBabel04072215373D

 43 46  0  0  0  0  0  0  0  0999 V2000
   -0.5359    2.2902    3.3632 N   0  0  0  0  0  0  0  0  0  0  0  0
   -0.8252    1.1144    2.7816 C   0  0  0  0  0  0  0  0  0  0  0  0
   -1.0145    0.0311    3.5286 N   0  0  0  0  0  0  0  0  0  0  0  0
   -1.2466   -0.9358    2.6405 N   0  0  0  0  0  0  0  0  0  0  0  0
   -1.2258   -0.5216    1.3382 C   0  0  0  0  0  0  0  0  0  0  0  0
   -1.4125   -1.2570    0.1668 C   0  0  0  0  0  0  0  0  0  0  0  0
   -1.3477   -0.5646   -1.0346 C   0  0  0  0  0  0  0  0  0  0  0  0
   -1.0940    0.8037   -1.0452 C   0  0  0  0  0  0  0  0  0  0  0  0
   -0.8704    1.5529    0.1394 C   0  0  0  0  0  0  0  0  0  0  0  0
   -0.5069    2.9885    0.0406 C   0  0  0  0  0  0  0  0  0  0  0  0
    0.3933    3.4100   -0.9608 C   0  0  0  0  0  0  0  0  0  0  0  0
    0.7566    4.7454   -1.1024 C   0  0  0  0  0  0  0  0  0  0  0  0
    0.2377    5.6947   -0.2313 C   0  0  0  0  0  0  0  0  0  0  0  0
   -0.6889    5.3279    0.7487 C   0  0  0  0  0  0  0  0  0  0  0  0
   -1.2552    6.2784    1.6313 N   0  0  0  0  0  0  0  0  0  0  0  0
   -1.4418    7.6029    1.2827 C   0  0  0  0  0  0  0  0  0  0  0  0
   -1.2649    8.0506    0.1527 O   0  0  0  0  0  0  0  0  0  0  0  0
   -1.8444    8.3822    2.3562 N   0  0  0  0  0  0  0  0  0  0  0  0
   -2.0910    9.7665    2.1545 C   0  0  0  0  0  0  0  0  0  0  0  0
   -2.8340   10.2232    1.0611 C   0  0  0  0  0  0  0  0  0  0  0  0
   -2.9653   11.5918    0.8167 C   0  0  0  0  0  0  0  0  0  0  0  0
   -2.3477   12.5117    1.6638 C   0  0  0  0  0  0  0  0  0  0  0  0
   -1.6348   12.0647    2.7778 C   0  0  0  0  0  0  0  0  0  0  0  0
   -1.5307   10.6985    3.0288 C   0  0  0  0  0  0  0  0  0  0  0  0
   -0.8134   10.2776    4.0824 F   0  0  0  0  0  0  0  0  0  0  0  0
   -1.0600    3.9829    0.8714 C   0  0  0  0  0  0  0  0  0  0  0  0
   -0.9574    0.8523    1.3772 C   0  0  0  0  0  0  0  0  0  0  0  0
   -0.3130    2.2224    4.3516 H   0  0  0  0  0  0  0  0  0  0  0  0
    0.0664    2.9404    2.8725 H   0  0  0  0  0  0  0  0  0  0  0  0
   -1.4056   -1.8747    2.9857 H   0  0  0  0  0  0  0  0  0  0  0  0
   -1.6055   -2.3250    0.1852 H   0  0  0  0  0  0  0  0  0  0  0  0
   -1.4912   -1.0938   -1.9744 H   0  0  0  0  0  0  0  0  0  0  0  0
   -1.0629    1.3030   -2.0136 H   0  0  0  0  0  0  0  0  0  0  0  0
    0.8263    2.6904   -1.6541 H   0  0  0  0  0  0  0  0  0  0  0  0
    1.4428    5.0476   -1.8888 H   0  0  0  0  0  0  0  0  0  0  0  0
    0.5731    6.7230   -0.3402 H   0  0  0  0  0  0  0  0  0  0  0  0
   -1.8476    5.9337    2.3743 H   0  0  0  0  0  0  0  0  0  0  0  0
   -1.3935    8.1485    3.2331 H   0  0  0  0  0  0  0  0  0  0  0  0
   -3.2988    9.5175    0.3742 H   0  0  0  0  0  0  0  0  0  0  0  0
   -3.5189   11.9332   -0.0544 H   0  0  0  0  0  0  0  0  0  0  0  0
   -2.4159   13.5751    1.4477 H   0  0  0  0  0  0  0  0  0  0  0  0
   -1.1380   12.7716    3.4338 H   0  0  0  0  0  0  0  0  0  0  0  0
   -1.8104    3.7015    1.6058 H   0  0  0  0  0  0  0  0  0  0  0  0
  1  2  1  0  0  0  0
  1 28  1  0  0  0  0
  1 29  1  0  0  0  0
  2  3  2  0  0  0  0
  2 27  1  0  0  0  0
  3  4  1  0  0  0  0
  4  5  1  0  0  0  0
  4 30  1  0  0  0  0
  5  6  1  0  0  0  0
  5 27  2  0  0  0  0
  6  7  2  0  0  0  0
  6 31  1  0  0  0  0
  7  8  1  0  0  0  0
  7 32  1  0  0  0  0
  8  9  2  0  0  0  0
  8 33  1  0  0  0  0
  9 10  1  0  0  0  0
  9 27  1  0  0  0  0
 10 11  1  0  0  0  0
 10 26  2  0  0  0  0
 11 12  2  0  0  0  0
 11 34  1  0  0  0  0
 12 13  1  0  0  0  0
 12 35  1  0  0  0  0
 13 14  2  0  0  0  0
 13 36  1  0  0  0  0
 14 15  1  0  0  0  0
 14 26  1  0  0  0  0
 15 16  1  0  0  0  0
 15 37  1  0  0  0  0
 16 17  2  0  0  0  0
 16 18  1  0  0  0  0
 18 19  1  0  0  0  0
 18 38  1  0  0  0  0
 19 20  1  0  0  0  0
 19 24  2  0  0  0  0
 20 21  2  0  0  0  0
 20 39  1  0  0  0  0
 21 22  1  0  0  0  0
 21 40  1  0  0  0  0
 22 23  2  0  0  0  0
 22 41  1  0  0  0  0
 23 24  1  0  0  0  0
 23 42  1  0  0  0  0
 24 25  1  0  0  0  0
 26 43  1  0  0  0  0
M  END
$$$$
