CHEMBL396586
 OpenBabel04072215373D

 38 41  0  0  0  0  0  0  0  0999 V2000
    2.1493    2.5886   -0.7843 C   0  0  0  0  0  0  0  0  0  0  0  0
    2.4110    1.1814   -0.2764 C   0  0  0  0  0  0  0  0  0  0  0  0
    3.1246    1.2727    0.9684 O   0  0  0  0  0  0  0  0  0  0  0  0
    4.4750    1.3700    0.8242 C   0  0  0  0  0  0  0  0  0  0  0  0
    5.0559    1.1673   -0.2305 O   0  0  0  0  0  0  0  0  0  0  0  0
    5.0260    1.7462    2.0205 N   0  0  0  0  0  0  0  0  0  0  0  0
    6.3750    2.0782    2.2459 C   0  0  0  0  0  0  0  0  0  0  0  0
    7.2890    2.2730    1.1939 C   0  0  0  0  0  0  0  0  0  0  0  0
    8.6487    2.5601    1.4205 C   0  0  0  0  0  0  0  0  0  0  0  0
    9.1431    2.6674    2.7129 C   0  0  0  0  0  0  0  0  0  0  0  0
    8.2380    2.5066    3.7407 C   0  0  0  0  0  0  0  0  0  0  0  0
    6.8561    2.2298    3.5410 C   0  0  0  0  0  0  0  0  0  0  0  0
    6.0842    2.0994    4.8681 C   0  0  0  0  0  0  0  0  0  0  0  0
    7.2282    2.3128    5.7997 C   0  0  0  0  0  0  0  0  0  0  0  0
    8.4432    2.5502    5.1420 C   0  0  0  0  0  0  0  0  0  0  0  0
    9.4747    2.7419    5.9471 N   0  0  0  0  0  0  0  0  0  0  0  0
    8.8971    2.6230    7.1681 N   0  0  0  0  0  0  0  0  0  0  0  0
    7.5372    2.3696    7.1340 C   0  0  0  0  0  0  0  0  0  0  0  0
    6.6477    2.2044    8.3129 C   0  0  0  0  0  0  0  0  0  0  0  0
    5.2581    1.8885    8.2619 C   0  0  0  0  0  0  0  0  0  0  0  0
    4.6947    1.8062    9.5176 C   0  0  0  0  0  0  0  0  0  0  0  0
    5.8358    2.1046   10.7555 S   0  0  0  0  0  0  0  0  0  0  0  0
    7.0902    2.3426    9.6118 C   0  0  0  0  0  0  0  0  0  0  0  0
    1.6155    2.5731   -1.7375 H   0  0  0  0  0  0  0  0  0  0  0  0
    3.0870    3.1399   -0.9159 H   0  0  0  0  0  0  0  0  0  0  0  0
    1.5575    3.1484   -0.0526 H   0  0  0  0  0  0  0  0  0  0  0  0
    2.9552    0.5864   -1.0210 H   0  0  0  0  0  0  0  0  0  0  0  0
    1.4670    0.6638   -0.0854 H   0  0  0  0  0  0  0  0  0  0  0  0
    4.3750    1.7591    2.7921 H   0  0  0  0  0  0  0  0  0  0  0  0
    6.9742    2.2228    0.1547 H   0  0  0  0  0  0  0  0  0  0  0  0
    9.3127    2.6902    0.5700 H   0  0  0  0  0  0  0  0  0  0  0  0
   10.1902    2.8670    2.9101 H   0  0  0  0  0  0  0  0  0  0  0  0
    5.6498    1.1031    4.9739 H   0  0  0  0  0  0  0  0  0  0  0  0
    5.3334    2.8888    4.9617 H   0  0  0  0  0  0  0  0  0  0  0  0
    9.4882    2.7181    7.9846 H   0  0  0  0  0  0  0  0  0  0  0  0
    4.6860    1.7239    7.3591 H   0  0  0  0  0  0  0  0  0  0  0  0
    3.6677    1.5840    9.7685 H   0  0  0  0  0  0  0  0  0  0  0  0
    8.0807    2.5788    9.9714 H   0  0  0  0  0  0  0  0  0  0  0  0
  1  2  1  0  0  0  0
  1 24  1  0  0  0  0
  1 25  1  0  0  0  0
  1 26  1  0  0  0  0
  2  3  1  0  0  0  0
  2 27  1  0  0  0  0
  2 28  1  0  0  0  0
  3  4  1  0  0  0  0
  4  5  2  0  0  0  0
  4  6  1  0  0  0  0
  6  7  1  0  0  0  0
  6 29  1  0  0  0  0
  7  8  1  0  0  0  0
  7 12  2  0  0  0  0
  8  9  2  0  0  0  0
  8 30  1  0  0  0  0
  9 10  1  0  0  0  0
  9 31  1  0  0  0  0
 10 11  2  0  0  0  0
 10 32  1  0  0  0  0
 11 12  1  0  0  0  0
 11 15  1  0  0  0  0
 12 13  1  0  0  0  0
 13 14  1  0  0  0  0
 13 33  1  0  0  0  0
 13 34  1  0  0  0  0
 14 15  1  0  0  0  0
 14 18  2  0  0  0  0
 15 16  2  0  0  0  0
 16 17  1  0  0  0  0
 17 18  1  0  0  0  0
 17 35  1  0  0  0  0
 18 19  1  0  0  0  0
 19 20  1  0  0  0  0
 19 23  2  0  0  0  0
 20 21  2  0  0  0  0
 20 36  1  0  0  0  0
 21 22  1  0  0  0  0
 21 37  1  0  0  0  0
 22 23  1  0  0  0  0
 23 38  1  0  0  0  0
M  END
$$$$
