CHEMBL3671572
 OpenBabel04072215373D

 63 66  0  0  0  0  0  0  0  0999 V2000
    1.4573   -1.1466   -0.7566 C   0  0  0  0  0  0  0  0  0  0  0  0
    2.5439   -0.4475   -0.4064 C   0  0  0  0  0  0  0  0  0  0  0  0
    3.0670    0.6213   -1.2956 C   0  0  0  0  0  0  0  0  0  0  0  0
    2.3814    1.1250   -2.1749 O   0  0  0  0  0  0  0  0  0  0  0  0
    4.3935    0.9123   -1.0233 N   0  0  0  0  0  0  0  0  0  0  0  0
    5.0603    1.9010   -1.7772 C   0  0  0  0  0  0  0  0  0  0  0  0
    6.1564    1.4738   -2.5301 C   0  0  0  0  0  0  0  0  0  0  0  0
    6.7439    2.3224   -3.4977 C   0  0  0  0  0  0  0  0  0  0  0  0
    7.7861    1.9371   -4.3623 C   0  0  0  0  0  0  0  0  0  0  0  0
    8.2265    0.5941   -4.3468 N   0  0  0  0  0  0  0  0  0  0  0  0
    9.5137    0.0932   -4.6384 C   0  0  0  0  0  0  0  0  0  0  0  0
   10.6700    0.8505   -4.4195 C   0  0  0  0  0  0  0  0  0  0  0  0
   11.9348    0.2569   -4.4787 C   0  0  0  0  0  0  0  0  0  0  0  0
   12.0518   -1.1020   -4.7665 C   0  0  0  0  0  0  0  0  0  0  0  0
   13.7508   -1.9273   -4.7049 Br  0  0  0  0  0  0  0  0  0  0  0  0
   10.9231   -1.8635   -5.0484 C   0  0  0  0  0  0  0  0  0  0  0  0
    9.6704   -1.2614   -4.9741 C   0  0  0  0  0  0  0  0  0  0  0  0
    8.5787   -2.0118   -5.1969 F   0  0  0  0  0  0  0  0  0  0  0  0
    8.3413    2.7857   -5.2445 N   0  0  0  0  0  0  0  0  0  0  0  0
    7.8173    4.0113   -5.2907 C   0  0  0  0  0  0  0  0  0  0  0  0
    6.8158    4.4798   -4.5282 N   0  0  0  0  0  0  0  0  0  0  0  0
    6.2851    3.6389   -3.6346 C   0  0  0  0  0  0  0  0  0  0  0  0
    5.2530    4.0713   -2.8054 C   0  0  0  0  0  0  0  0  0  0  0  0
    4.6492    3.2389   -1.8549 C   0  0  0  0  0  0  0  0  0  0  0  0
    3.7251    3.8686   -1.0444 O   0  0  0  0  0  0  0  0  0  0  0  0
    3.6612    3.3870    0.3042 C   0  0  0  0  0  0  0  0  0  0  0  0
    3.2472    4.4886    1.2885 C   0  0  0  0  0  0  0  0  0  0  0  0
    3.2898    4.0158    2.6709 N   0  0  0  0  0  0  0  0  0  0  0  0
    4.4803    3.9211    3.3621 C   0  0  0  0  0  0  0  0  0  0  0  0
    5.5508    4.3057    2.8941 O   0  0  0  0  0  0  0  0  0  0  0  0
    4.4018    3.2447    4.7360 C   0  0  0  0  0  0  0  0  0  0  0  0
    3.9985    4.1736    5.8134 N   0  0  0  0  0  0  0  0  0  0  0  0
    4.9591    5.2929    5.9863 C   0  0  0  0  0  0  0  0  0  0  0  0
    6.3200    4.8778    6.5753 C   0  0  0  0  0  0  0  0  0  0  0  0
    6.1651    4.1846    7.8216 O   0  0  0  0  0  0  0  0  0  0  0  0
    5.3047    3.0497    7.6793 C   0  0  0  0  0  0  0  0  0  0  0  0
    3.9304    3.4588    7.1141 C   0  0  0  0  0  0  0  0  0  0  0  0
    1.0362   -1.8940   -0.0939 H   0  0  0  0  0  0  0  0  0  0  0  0
    0.9595   -0.9804   -1.7091 H   0  0  0  0  0  0  0  0  0  0  0  0
    3.0287   -0.6002    0.5489 H   0  0  0  0  0  0  0  0  0  0  0  0
    4.9424    0.1229   -0.7065 H   0  0  0  0  0  0  0  0  0  0  0  0
    6.5263    0.4583   -2.4159 H   0  0  0  0  0  0  0  0  0  0  0  0
    7.4887   -0.0275   -4.6658 H   0  0  0  0  0  0  0  0  0  0  0  0
   10.5955    1.9023   -4.1543 H   0  0  0  0  0  0  0  0  0  0  0  0
   12.8135    0.8594   -4.2625 H   0  0  0  0  0  0  0  0  0  0  0  0
   10.9952   -2.9192   -5.2873 H   0  0  0  0  0  0  0  0  0  0  0  0
    8.2363    4.7001   -6.0194 H   0  0  0  0  0  0  0  0  0  0  0  0
    4.9165    5.1040   -2.8950 H   0  0  0  0  0  0  0  0  0  0  0  0
    4.6260    2.9847    0.6299 H   0  0  0  0  0  0  0  0  0  0  0  0
    2.9016    2.6031    0.3616 H   0  0  0  0  0  0  0  0  0  0  0  0
    2.2270    4.8244    1.0785 H   0  0  0  0  0  0  0  0  0  0  0  0
    3.9074    5.3561    1.1834 H   0  0  0  0  0  0  0  0  0  0  0  0
    2.4306    3.7379    3.1304 H   0  0  0  0  0  0  0  0  0  0  0  0
    5.3750    2.7690    4.9170 H   0  0  0  0  0  0  0  0  0  0  0  0
    3.6685    2.4336    4.6606 H   0  0  0  0  0  0  0  0  0  0  0  0
    4.4939    6.0072    6.6791 H   0  0  0  0  0  0  0  0  0  0  0  0
    5.1015    5.8434    5.0511 H   0  0  0  0  0  0  0  0  0  0  0  0
    6.9189    5.7721    6.7760 H   0  0  0  0  0  0  0  0  0  0  0  0
    6.8903    4.2505    5.8814 H   0  0  0  0  0  0  0  0  0  0  0  0
    5.1782    2.6067    8.6726 H   0  0  0  0  0  0  0  0  0  0  0  0
    5.7985    2.2978    7.0535 H   0  0  0  0  0  0  0  0  0  0  0  0
    3.4527    4.1349    7.8357 H   0  0  0  0  0  0  0  0  0  0  0  0
    3.2759    2.5830    7.0374 H   0  0  0  0  0  0  0  0  0  0  0  0
  1  2  2  0  0  0  0
  1 38  1  0  0  0  0
  1 39  1  0  0  0  0
  2  3  1  0  0  0  0
  2 40  1  0  0  0  0
  3  4  2  0  0  0  0
  3  5  1  0  0  0  0
  5  6  1  0  0  0  0
  5 41  1  0  0  0  0
  6  7  1  0  0  0  0
  6 24  2  0  0  0  0
  7  8  2  0  0  0  0
  7 42  1  0  0  0  0
  8  9  1  0  0  0  0
  8 22  1  0  0  0  0
  9 10  1  0  0  0  0
  9 19  2  0  0  0  0
 10 11  1  0  0  0  0
 10 43  1  0  0  0  0
 11 12  1  0  0  0  0
 11 17  2  0  0  0  0
 12 13  2  0  0  0  0
 12 44  1  0  0  0  0
 13 14  1  0  0  0  0
 13 45  1  0  0  0  0
 14 15  1  0  0  0  0
 14 16  2  0  0  0  0
 16 17  1  0  0  0  0
 16 46  1  0  0  0  0
 17 18  1  0  0  0  0
 19 20  1  0  0  0  0
 20 21  2  0  0  0  0
 20 47  1  0  0  0  0
 21 22  1  0  0  0  0
 22 23  2  0  0  0  0
 23 24  1  0  0  0  0
 23 48  1  0  0  0  0
 24 25  1  0  0  0  0
 25 26  1  0  0  0  0
 26 27  1  0  0  0  0
 26 49  1  0  0  0  0
 26 50  1  0  0  0  0
 27 28  1  0  0  0  0
 27 51  1  0  0  0  0
 27 52  1  0  0  0  0
 28 29  1  0  0  0  0
 28 53  1  0  0  0  0
 29 30  2  0  0  0  0
 29 31  1  0  0  0  0
 31 32  1  0  0  0  0
 31 54  1  0  0  0  0
 31 55  1  0  0  0  0
 32 33  1  0  0  0  0
 32 37  1  0  0  0  0
 33 34  1  0  0  0  0
 33 56  1  0  0  0  0
 33 57  1  0  0  0  0
 34 35  1  0  0  0  0
 34 58  1  0  0  0  0
 34 59  1  0  0  0  0
 35 36  1  0  0  0  0
 36 37  1  0  0  0  0
 36 60  1  0  0  0  0
 36 61  1  0  0  0  0
 37 62  1  0  0  0  0
 37 63  1  0  0  0  0
M  END
$$$$
