CHEMBL2063332
 OpenBabel04072215363D

 72 76  0  0  0  0  0  0  0  0999 V2000
   -2.8864   -8.7267   -6.9582 C   0  0  0  0  0  0  0  0  0  0  0  0
   -2.9491   -7.4033   -6.3171 C   0  0  0  0  0  0  0  0  0  0  0  0
   -3.8479   -6.7889   -5.4841 C   0  0  0  0  0  0  0  0  0  0  0  0
   -3.2754   -5.5220   -5.2243 C   0  0  0  0  0  0  0  0  0  0  0  0
   -3.8059   -4.4449   -4.3431 C   0  0  0  0  0  0  0  0  0  0  0  0
   -3.3315   -4.5698   -2.9905 O   0  0  0  0  0  0  0  0  0  0  0  0
   -4.0280   -5.4374   -2.2209 C   0  0  0  0  0  0  0  0  0  0  0  0
   -5.0212   -6.0564   -2.5711 O   0  0  0  0  0  0  0  0  0  0  0  0
   -3.4526   -5.5023   -0.9918 N   0  0  0  0  0  0  0  0  0  0  0  0
   -3.9698   -6.3287    0.0665 C   0  0  0  0  0  0  0  0  0  0  0  0
   -3.3100   -7.6837    0.1123 C   0  0  0  0  0  0  0  0  0  0  0  0
   -2.1441   -7.8836    0.8590 C   0  0  0  0  0  0  0  0  0  0  0  0
   -1.5510   -9.1489    0.9207 C   0  0  0  0  0  0  0  0  0  0  0  0
   -2.1020  -10.2391    0.2301 C   0  0  0  0  0  0  0  0  0  0  0  0
   -1.4802  -11.5606    0.3350 C   0  0  0  0  0  0  0  0  0  0  0  0
   -0.7956  -12.0843    1.4650 C   0  0  0  0  0  0  0  0  0  0  0  0
   -0.3531  -13.3347    1.1085 C   0  0  0  0  0  0  0  0  0  0  0  0
    0.3678  -14.2512    1.8784 N   0  0  0  0  0  0  0  0  0  0  0  0
    0.4535  -14.1255    3.3083 C   0  0  0  0  0  0  0  0  0  0  0  0
   -0.1751  -13.2608    3.9024 O   0  0  0  0  0  0  0  0  0  0  0  0
    1.2653  -15.1031    4.0677 C   0  0  0  0  0  0  0  0  0  0  0  0
    2.3886  -15.7440    3.5332 C   0  0  0  0  0  0  0  0  0  0  0  0
    3.1509  -16.5923    4.3507 C   0  0  0  0  0  0  0  0  0  0  0  0
    2.8023  -16.7873    5.6924 C   0  0  0  0  0  0  0  0  0  0  0  0
    3.4874  -17.5628    6.5858 O   0  0  0  0  0  0  0  0  0  0  0  0
    4.8989  -17.6499    6.3655 C   0  0  0  0  0  0  0  0  0  0  0  0
    5.6140  -17.7757    7.7229 C   0  0  0  0  0  0  0  0  0  0  0  0
    7.0799  -17.8736    7.5895 N   0  0  0  0  0  0  0  0  0  0  0  0
    7.7280  -18.0807    8.8974 C   0  0  0  0  0  0  0  0  0  0  0  0
    7.9195  -16.6853    9.4599 C   0  0  0  0  0  0  0  0  0  0  0  0
    8.2708  -15.8657    8.2346 C   0  0  0  0  0  0  0  0  0  0  0  0
    7.6946  -16.6434    7.0585 C   0  0  0  0  0  0  0  0  0  0  0  0
    1.6663  -16.1701    6.2074 C   0  0  0  0  0  0  0  0  0  0  0  0
    0.9064  -15.3247    5.4041 C   0  0  0  0  0  0  0  0  0  0  0  0
   -0.7643  -13.4916   -0.1885 N   0  0  0  0  0  0  0  0  0  0  0  0
   -1.4791  -12.4567   -0.6653 N   0  0  0  0  0  0  0  0  0  0  0  0
   -3.2549  -10.0343   -0.5358 C   0  0  0  0  0  0  0  0  0  0  0  0
   -3.8513   -8.7676   -0.5953 C   0  0  0  0  0  0  0  0  0  0  0  0
   -2.1113   -5.3738   -5.8713 N   0  0  0  0  0  0  0  0  0  0  0  0
   -1.9100   -6.5599   -6.5574 O   0  0  0  0  0  0  0  0  0  0  0  0
   -3.7651   -9.3265   -6.7014 H   0  0  0  0  0  0  0  0  0  0  0  0
   -1.9960   -9.2707   -6.6291 H   0  0  0  0  0  0  0  0  0  0  0  0
   -2.8495   -8.6248   -8.0467 H   0  0  0  0  0  0  0  0  0  0  0  0
   -4.7707   -7.1939   -5.0957 H   0  0  0  0  0  0  0  0  0  0  0  0
   -4.9029   -4.4143   -4.3714 H   0  0  0  0  0  0  0  0  0  0  0  0
   -3.4710   -3.4660   -4.7074 H   0  0  0  0  0  0  0  0  0  0  0  0
   -2.5917   -4.9895   -0.8696 H   0  0  0  0  0  0  0  0  0  0  0  0
   -5.0546   -6.4409   -0.0433 H   0  0  0  0  0  0  0  0  0  0  0  0
   -3.7985   -5.7961    1.0087 H   0  0  0  0  0  0  0  0  0  0  0  0
   -1.6911   -7.0602    1.4063 H   0  0  0  0  0  0  0  0  0  0  0  0
   -0.6455   -9.2649    1.5116 H   0  0  0  0  0  0  0  0  0  0  0  0
   -0.6597  -11.5752    2.4078 H   0  0  0  0  0  0  0  0  0  0  0  0
    0.7601  -15.0626    1.4205 H   0  0  0  0  0  0  0  0  0  0  0  0
    2.7195  -15.5714    2.5133 H   0  0  0  0  0  0  0  0  0  0  0  0
    4.0240  -17.0834    3.9272 H   0  0  0  0  0  0  0  0  0  0  0  0
    5.2557  -16.7533    5.8517 H   0  0  0  0  0  0  0  0  0  0  0  0
    5.1056  -18.5269    5.7427 H   0  0  0  0  0  0  0  0  0  0  0  0
    5.2321  -18.6821    8.2131 H   0  0  0  0  0  0  0  0  0  0  0  0
    5.3146  -16.9412    8.3703 H   0  0  0  0  0  0  0  0  0  0  0  0
    8.7069  -18.5488    8.7312 H   0  0  0  0  0  0  0  0  0  0  0  0
    7.1679  -18.7374    9.5712 H   0  0  0  0  0  0  0  0  0  0  0  0
    8.7009  -16.6386   10.2236 H   0  0  0  0  0  0  0  0  0  0  0  0
    6.9885  -16.3155    9.9059 H   0  0  0  0  0  0  0  0  0  0  0  0
    9.3580  -15.7820    8.1271 H   0  0  0  0  0  0  0  0  0  0  0  0
    7.8549  -14.8553    8.2999 H   0  0  0  0  0  0  0  0  0  0  0  0
    8.4994  -16.9281    6.3707 H   0  0  0  0  0  0  0  0  0  0  0  0
    7.0179  -16.0056    6.4846 H   0  0  0  0  0  0  0  0  0  0  0  0
    1.3899  -16.3242    7.2487 H   0  0  0  0  0  0  0  0  0  0  0  0
    0.0397  -14.8273    5.8388 H   0  0  0  0  0  0  0  0  0  0  0  0
   -0.6284  -14.2865   -0.8010 H   0  0  0  0  0  0  0  0  0  0  0  0
   -3.7064  -10.8601   -1.0819 H   0  0  0  0  0  0  0  0  0  0  0  0
   -4.7502   -8.6302   -1.1955 H   0  0  0  0  0  0  0  0  0  0  0  0
  1  2  1  0  0  0  0
  1 41  1  0  0  0  0
  1 42  1  0  0  0  0
  1 43  1  0  0  0  0
  2  3  2  0  0  0  0
  2 40  1  0  0  0  0
  3  4  1  0  0  0  0
  3 44  1  0  0  0  0
  4  5  1  0  0  0  0
  4 39  2  0  0  0  0
  5  6  1  0  0  0  0
  5 45  1  0  0  0  0
  5 46  1  0  0  0  0
  6  7  1  0  0  0  0
  7  8  2  0  0  0  0
  7  9  1  0  0  0  0
  9 10  1  0  0  0  0
  9 47  1  0  0  0  0
 10 11  1  0  0  0  0
 10 48  1  0  0  0  0
 10 49  1  0  0  0  0
 11 12  1  0  0  0  0
 11 38  2  0  0  0  0
 12 13  2  0  0  0  0
 12 50  1  0  0  0  0
 13 14  1  0  0  0  0
 13 51  1  0  0  0  0
 14 15  1  0  0  0  0
 14 37  2  0  0  0  0
 15 16  1  0  0  0  0
 15 36  2  0  0  0  0
 16 17  2  0  0  0  0
 16 52  1  0  0  0  0
 17 18  1  0  0  0  0
 17 35  1  0  0  0  0
 18 19  1  0  0  0  0
 18 53  1  0  0  0  0
 19 20  2  0  0  0  0
 19 21  1  0  0  0  0
 21 22  1  0  0  0  0
 21 34  2  0  0  0  0
 22 23  2  0  0  0  0
 22 54  1  0  0  0  0
 23 24  1  0  0  0  0
 23 55  1  0  0  0  0
 24 25  1  0  0  0  0
 24 33  2  0  0  0  0
 25 26  1  0  0  0  0
 26 27  1  0  0  0  0
 26 56  1  0  0  0  0
 26 57  1  0  0  0  0
 27 28  1  0  0  0  0
 27 58  1  0  0  0  0
 27 59  1  0  0  0  0
 28 29  1  0  0  0  0
 28 32  1  0  0  0  0
 29 30  1  0  0  0  0
 29 60  1  0  0  0  0
 29 61  1  0  0  0  0
 30 31  1  0  0  0  0
 30 62  1  0  0  0  0
 30 63  1  0  0  0  0
 31 32  1  0  0  0  0
 31 64  1  0  0  0  0
 31 65  1  0  0  0  0
 32 66  1  0  0  0  0
 32 67  1  0  0  0  0
 33 34  1  0  0  0  0
 33 68  1  0  0  0  0
 34 69  1  0  0  0  0
 35 36  1  0  0  0  0
 35 70  1  0  0  0  0
 37 38  1  0  0  0  0
 37 71  1  0  0  0  0
 38 72  1  0  0  0  0
 39 40  1  0  0  0  0
M  END
$$$$
