CHEMBL407279
 OpenBabel04072215383D

 81 87  0  0  0  0  0  0  0  0999 V2000
    3.6284    0.4858   -4.8047 C   0  0  0  0  0  0  0  0  0  0  0  0
    4.6028    0.6495   -3.7616 O   0  0  0  0  0  0  0  0  0  0  0  0
    4.1454    1.3972   -2.6812 C   0  0  0  0  0  0  0  0  0  0  0  0
    3.2042    2.4369   -2.8917 C   0  0  0  0  0  0  0  0  0  0  0  0
    2.6471    3.1794   -1.8444 C   0  0  0  0  0  0  0  0  0  0  0  0
    1.8566    4.3158   -2.0874 N   0  0  0  0  0  0  0  0  0  0  0  0
    0.8052    4.8367   -1.2673 C   0  0  0  0  0  0  0  0  0  0  0  0
    0.7723    6.1721   -1.3842 N   0  0  0  0  0  0  0  0  0  0  0  0
    0.1184    6.8157   -0.4188 C   0  0  0  0  0  0  0  0  0  0  0  0
   -0.4936    6.1515    0.6222 C   0  0  0  0  0  0  0  0  0  0  0  0
   -1.2081    6.9985    1.5594 C   0  0  0  0  0  0  0  0  0  0  0  0
   -0.7695    8.0833    1.8867 O   0  0  0  0  0  0  0  0  0  0  0  0
   -2.4058    6.4776    1.8929 N   0  0  0  0  0  0  0  0  0  0  0  0
   -3.2726    7.0060    2.8330 C   0  0  0  0  0  0  0  0  0  0  0  0
   -4.3038    7.8596    2.4208 C   0  0  0  0  0  0  0  0  0  0  0  0
   -4.3852    8.3966    1.0187 C   0  0  0  0  0  0  0  0  0  0  0  0
   -5.2814    8.1959    3.3482 C   0  0  0  0  0  0  0  0  0  0  0  0
   -5.2464    7.6788    4.6512 C   0  0  0  0  0  0  0  0  0  0  0  0
   -4.1965    6.8633    5.0671 C   0  0  0  0  0  0  0  0  0  0  0  0
   -3.1718    6.5339    4.1744 C   0  0  0  0  0  0  0  0  0  0  0  0
   -2.0333    5.6592    4.6535 C   0  0  0  0  0  0  0  0  0  0  0  0
   -2.8506    5.5391    0.9471 C   0  0  0  0  0  0  0  0  0  0  0  0
   -3.9450    5.2950    0.3510 N   0  0  0  0  0  0  0  0  0  0  0  0
   -4.4494    4.4339    1.2807 C   0  0  0  0  0  0  0  0  0  0  0  0
   -5.7521    4.6060    1.7134 C   0  0  0  0  0  0  0  0  0  0  0  0
   -6.0295    4.4111    3.0654 C   0  0  0  0  0  0  0  0  0  0  0  0
   -5.0365    3.8290    3.8517 C   0  0  0  0  0  0  0  0  0  0  0  0
   -3.7078    3.4631    3.3496 C   0  0  0  0  0  0  0  0  0  0  0  0
   -3.3260    3.8505    1.9471 C   0  0  0  0  0  0  0  0  0  0  0  0
   -2.1746    4.3236    1.0234 N   0  0  0  0  0  0  0  0  0  0  0  0
   -0.7084    4.7366    0.6115 C   0  0  0  0  0  0  0  0  0  0  0  0
   -0.0039    4.0878   -0.3967 N   0  0  0  0  0  0  0  0  0  0  0  0
    3.0588    2.8518   -0.5680 C   0  0  0  0  0  0  0  0  0  0  0  0
    4.0209    1.8530   -0.3555 C   0  0  0  0  0  0  0  0  0  0  0  0
    4.6272    1.1347   -1.3965 C   0  0  0  0  0  0  0  0  0  0  0  0
    5.6158    0.2065   -1.1140 O   0  0  0  0  0  0  0  0  0  0  0  0
    5.9794    0.0971    0.2982 C   0  0  0  0  0  0  0  0  0  0  0  0
    7.1030   -0.9148    0.6038 C   0  0  0  0  0  0  0  0  0  0  0  0
    7.4187   -1.0549    2.0493 N   0  0  0  0  0  0  0  0  0  0  0  0
    6.2632   -1.5048    2.8499 C   0  0  0  0  0  0  0  0  0  0  0  0
    6.6059   -1.6951    4.3454 C   0  0  0  0  0  0  0  0  0  0  0  0
    7.7274   -2.6154    4.6013 N   0  0  0  0  0  0  0  0  0  0  0  0
    7.3379   -4.0021    4.3524 C   0  0  0  0  0  0  0  0  0  0  0  0
    8.8756   -2.2115    3.7630 C   0  0  0  0  0  0  0  0  0  0  0  0
    8.5519   -1.9892    2.2600 C   0  0  0  0  0  0  0  0  0  0  0  0
    4.1132    0.0529   -5.6869 H   0  0  0  0  0  0  0  0  0  0  0  0
    3.2055    1.4196   -5.1708 H   0  0  0  0  0  0  0  0  0  0  0  0
    2.8278   -0.1802   -4.4669 H   0  0  0  0  0  0  0  0  0  0  0  0
    2.8200    2.6829   -3.8731 H   0  0  0  0  0  0  0  0  0  0  0  0
    2.4716    5.1256   -2.1716 H   0  0  0  0  0  0  0  0  0  0  0  0
    0.0597    7.8989   -0.5267 H   0  0  0  0  0  0  0  0  0  0  0  0
   -3.6019    8.0130    0.3544 H   0  0  0  0  0  0  0  0  0  0  0  0
   -4.2700    9.4822    1.0274 H   0  0  0  0  0  0  0  0  0  0  0  0
   -5.3414    8.1208    0.5677 H   0  0  0  0  0  0  0  0  0  0  0  0
   -6.1041    8.8409    3.0571 H   0  0  0  0  0  0  0  0  0  0  0  0
   -6.0524    7.9079    5.3429 H   0  0  0  0  0  0  0  0  0  0  0  0
   -4.2087    6.4447    6.0721 H   0  0  0  0  0  0  0  0  0  0  0  0
   -2.2825    5.1538    5.5977 H   0  0  0  0  0  0  0  0  0  0  0  0
   -1.1234    6.2428    4.7924 H   0  0  0  0  0  0  0  0  0  0  0  0
   -1.7794    4.8679    3.9484 H   0  0  0  0  0  0  0  0  0  0  0  0
   -6.4257    5.2317    1.1190 H   0  0  0  0  0  0  0  0  0  0  0  0
   -6.9486    4.8353    3.4772 H   0  0  0  0  0  0  0  0  0  0  0  0
   -5.2726    3.7683    4.9184 H   0  0  0  0  0  0  0  0  0  0  0  0
   -3.0057    3.1164    4.1130 H   0  0  0  0  0  0  0  0  0  0  0  0
    2.6689    3.3861    0.2792 H   0  0  0  0  0  0  0  0  0  0  0  0
    4.2576    1.6740    0.6737 H   0  0  0  0  0  0  0  0  0  0  0  0
    5.0816   -0.2188    0.8415 H   0  0  0  0  0  0  0  0  0  0  0  0
    6.3234    1.0747    0.6644 H   0  0  0  0  0  0  0  0  0  0  0  0
    8.0021   -0.5550    0.0938 H   0  0  0  0  0  0  0  0  0  0  0  0
    6.8511   -1.8880    0.1666 H   0  0  0  0  0  0  0  0  0  0  0  0
    5.8555   -2.4362    2.4355 H   0  0  0  0  0  0  0  0  0  0  0  0
    5.4706   -0.7529    2.8153 H   0  0  0  0  0  0  0  0  0  0  0  0
    5.7135   -2.0252    4.8930 H   0  0  0  0  0  0  0  0  0  0  0  0
    6.8586   -0.7143    4.7707 H   0  0  0  0  0  0  0  0  0  0  0  0
    6.4697   -4.2706    4.9647 H   0  0  0  0  0  0  0  0  0  0  0  0
    8.1486   -4.6780    4.6456 H   0  0  0  0  0  0  0  0  0  0  0  0
    7.0868   -4.2062    3.3070 H   0  0  0  0  0  0  0  0  0  0  0  0
    9.6858   -2.9440    3.8645 H   0  0  0  0  0  0  0  0  0  0  0  0
    9.2754   -1.2739    4.1718 H   0  0  0  0  0  0  0  0  0  0  0  0
    8.3407   -2.9594    1.7917 H   0  0  0  0  0  0  0  0  0  0  0  0
    9.4528   -1.5915    1.7764 H   0  0  0  0  0  0  0  0  0  0  0  0
  1  2  1  0  0  0  0
  1 46  1  0  0  0  0
  1 47  1  0  0  0  0
  1 48  1  0  0  0  0
  2  3  1  0  0  0  0
  3  4  1  0  0  0  0
  3 35  2  0  0  0  0
  4  5  2  0  0  0  0
  4 49  1  0  0  0  0
  5  6  1  0  0  0  0
  5 33  1  0  0  0  0
  6  7  1  0  0  0  0
  6 50  1  0  0  0  0
  7  8  1  0  0  0  0
  7 32  2  0  0  0  0
  8  9  2  0  0  0  0
  9 10  1  0  0  0  0
  9 51  1  0  0  0  0
 10 11  1  0  0  0  0
 10 31  2  0  0  0  0
 11 12  2  0  0  0  0
 11 13  1  0  0  0  0
 13 14  1  0  0  0  0
 13 22  1  0  0  0  0
 14 15  1  0  0  0  0
 14 20  2  0  0  0  0
 15 16  1  0  0  0  0
 15 17  2  0  0  0  0
 16 52  1  0  0  0  0
 16 53  1  0  0  0  0
 16 54  1  0  0  0  0
 17 18  1  0  0  0  0
 17 55  1  0  0  0  0
 18 19  2  0  0  0  0
 18 56  1  0  0  0  0
 19 20  1  0  0  0  0
 19 57  1  0  0  0  0
 20 21  1  0  0  0  0
 21 58  1  0  0  0  0
 21 59  1  0  0  0  0
 21 60  1  0  0  0  0
 22 23  2  0  0  0  0
 22 30  1  0  0  0  0
 23 24  1  0  0  0  0
 24 25  1  0  0  0  0
 24 29  2  0  0  0  0
 25 26  2  0  0  0  0
 25 61  1  0  0  0  0
 26 27  1  0  0  0  0
 26 62  1  0  0  0  0
 27 28  2  0  0  0  0
 27 63  1  0  0  0  0
 28 29  1  0  0  0  0
 28 64  1  0  0  0  0
 29 30  1  0  0  0  0
 30 31  1  0  0  0  0
 31 32  1  0  0  0  0
 33 34  2  0  0  0  0
 33 65  1  0  0  0  0
 34 35  1  0  0  0  0
 34 66  1  0  0  0  0
 35 36  1  0  0  0  0
 36 37  1  0  0  0  0
 37 38  1  0  0  0  0
 37 67  1  0  0  0  0
 37 68  1  0  0  0  0
 38 39  1  0  0  0  0
 38 69  1  0  0  0  0
 38 70  1  0  0  0  0
 39 40  1  0  0  0  0
 39 45  1  0  0  0  0
 40 41  1  0  0  0  0
 40 71  1  0  0  0  0
 40 72  1  0  0  0  0
 41 42  1  0  0  0  0
 41 73  1  0  0  0  0
 41 74  1  0  0  0  0
 42 43  1  0  0  0  0
 42 44  1  0  0  0  0
 43 75  1  0  0  0  0
 43 76  1  0  0  0  0
 43 77  1  0  0  0  0
 44 45  1  0  0  0  0
 44 78  1  0  0  0  0
 44 79  1  0  0  0  0
 45 80  1  0  0  0  0
 45 81  1  0  0  0  0
M  END
$$$$
