CHEMBL4168811
 OpenBabel04072215383D

 70 75  0  0  0  0  0  0  0  0999 V2000
    0.9767    1.2048   -1.1745 C   0  0  0  0  0  0  0  0  0  0  0  0
    2.3890    1.0245   -1.0487 O   0  0  0  0  0  0  0  0  0  0  0  0
    2.9712    1.9242   -0.2209 C   0  0  0  0  0  0  0  0  0  0  0  0
    2.3931    2.8076    0.3941 O   0  0  0  0  0  0  0  0  0  0  0  0
    4.4458    1.7398   -0.1741 C   0  0  0  0  0  0  0  0  0  0  0  0
    5.1340    0.7417   -0.9014 C   0  0  0  0  0  0  0  0  0  0  0  0
    6.5424    0.6642   -0.8848 C   0  0  0  0  0  0  0  0  0  0  0  0
    7.2508    1.6038   -0.1550 C   0  0  0  0  0  0  0  0  0  0  0  0
    6.5378    2.5678    0.5735 C   0  0  0  0  0  0  0  0  0  0  0  0
    5.1628    2.6541    0.5986 C   0  0  0  0  0  0  0  0  0  0  0  0
    7.3908    3.4696    1.1874 N   0  0  0  0  0  0  0  0  0  0  0  0
    8.6985    3.2356    0.8183 C   0  0  0  0  0  0  0  0  0  0  0  0
    9.5966    4.0489    0.9240 O   0  0  0  0  0  0  0  0  0  0  0  0
    8.6802    1.8939    0.1032 C   0  0  0  0  0  0  0  0  0  0  0  0
    9.8173    1.2088   -0.1622 C   0  0  0  0  0  0  0  0  0  0  0  0
   11.0825    1.4168    0.3768 N   0  0  0  0  0  0  0  0  0  0  0  0
   11.4101    1.9335    1.6531 C   0  0  0  0  0  0  0  0  0  0  0  0
   10.5817    1.7287    2.7734 C   0  0  0  0  0  0  0  0  0  0  0  0
   10.7599    2.4644    3.9449 C   0  0  0  0  0  0  0  0  0  0  0  0
   11.7774    3.4063    3.9806 C   0  0  0  0  0  0  0  0  0  0  0  0
   12.6630    3.5802    2.9101 C   0  0  0  0  0  0  0  0  0  0  0  0
   12.4934    2.8275    1.7596 C   0  0  0  0  0  0  0  0  0  0  0  0
   13.6063    4.5749    3.2387 N   0  0  0  0  0  0  0  0  0  0  0  0
   14.7117    5.0817    2.5820 C   0  0  0  0  0  0  0  0  0  0  0  0
   15.4594    5.8943    3.1465 O   0  0  0  0  0  0  0  0  0  0  0  0
   14.9999    4.7360    1.1227 C   0  0  0  0  0  0  0  0  0  0  0  0
   15.6836    3.4355    0.9327 N   0  0  0  0  0  0  0  0  0  0  0  0
   17.1070    3.4604    1.3543 C   0  0  0  0  0  0  0  0  0  0  0  0
   18.0664    4.2073    0.4007 C   0  0  0  0  0  0  0  0  0  0  0  0
   17.9182    3.7890   -0.9640 O   0  0  0  0  0  0  0  0  0  0  0  0
   16.5569    3.9065   -1.3854 C   0  0  0  0  0  0  0  0  0  0  0  0
   15.6492    3.0448   -0.4963 C   0  0  0  0  0  0  0  0  0  0  0  0
   13.2014    5.1854    4.5156 C   0  0  0  0  0  0  0  0  0  0  0  0
   12.0918    4.3281    5.1152 C   0  0  0  0  0  0  0  0  0  0  0  0
    9.8186    0.1581   -1.2097 C   0  0  0  0  0  0  0  0  0  0  0  0
   10.0404    0.5332   -2.5457 C   0  0  0  0  0  0  0  0  0  0  0  0
   10.0973   -0.4293   -3.5558 C   0  0  0  0  0  0  0  0  0  0  0  0
    9.9325   -1.7760   -3.2413 C   0  0  0  0  0  0  0  0  0  0  0  0
    9.7205   -2.1612   -1.9165 C   0  0  0  0  0  0  0  0  0  0  0  0
    9.6723   -1.1994   -0.9008 C   0  0  0  0  0  0  0  0  0  0  0  0
    0.5731    0.3536   -1.7284 H   0  0  0  0  0  0  0  0  0  0  0  0
    0.7651    2.1198   -1.7371 H   0  0  0  0  0  0  0  0  0  0  0  0
    0.4936    1.2370   -0.1921 H   0  0  0  0  0  0  0  0  0  0  0  0
    4.5793    0.0242   -1.5039 H   0  0  0  0  0  0  0  0  0  0  0  0
    7.0392   -0.1087   -1.4617 H   0  0  0  0  0  0  0  0  0  0  0  0
    4.6624    3.4312    1.1678 H   0  0  0  0  0  0  0  0  0  0  0  0
    7.1144    4.3243    1.6439 H   0  0  0  0  0  0  0  0  0  0  0  0
   11.8620    1.2781   -0.2559 H   0  0  0  0  0  0  0  0  0  0  0  0
    9.7588    1.0212    2.7190 H   0  0  0  0  0  0  0  0  0  0  0  0
   10.0922    2.3263    4.7885 H   0  0  0  0  0  0  0  0  0  0  0  0
   13.1133    2.9608    0.8926 H   0  0  0  0  0  0  0  0  0  0  0  0
   15.5901    5.5606    0.7105 H   0  0  0  0  0  0  0  0  0  0  0  0
   14.0504    4.7807    0.5791 H   0  0  0  0  0  0  0  0  0  0  0  0
   17.4389    2.4137    1.3982 H   0  0  0  0  0  0  0  0  0  0  0  0
   17.2157    3.8468    2.3734 H   0  0  0  0  0  0  0  0  0  0  0  0
   19.1027    3.9940    0.6848 H   0  0  0  0  0  0  0  0  0  0  0  0
   17.9267    5.2918    0.4571 H   0  0  0  0  0  0  0  0  0  0  0  0
   16.4935    3.5635   -2.4223 H   0  0  0  0  0  0  0  0  0  0  0  0
   16.2607    4.9617   -1.3762 H   0  0  0  0  0  0  0  0  0  0  0  0
   15.9789    1.9994   -0.5640 H   0  0  0  0  0  0  0  0  0  0  0  0
   14.6219    3.0654   -0.8760 H   0  0  0  0  0  0  0  0  0  0  0  0
   12.8304    6.1952    4.2906 H   0  0  0  0  0  0  0  0  0  0  0  0
   14.0536    5.2907    5.1945 H   0  0  0  0  0  0  0  0  0  0  0  0
   11.2266    4.9353    5.4026 H   0  0  0  0  0  0  0  0  0  0  0  0
   12.4463    3.7661    5.9823 H   0  0  0  0  0  0  0  0  0  0  0  0
   10.1851    1.5809   -2.8029 H   0  0  0  0  0  0  0  0  0  0  0  0
   10.2789   -0.1283   -4.5849 H   0  0  0  0  0  0  0  0  0  0  0  0
    9.9788   -2.5264   -4.0273 H   0  0  0  0  0  0  0  0  0  0  0  0
    9.6025   -3.2142   -1.6747 H   0  0  0  0  0  0  0  0  0  0  0  0
    9.5256   -1.5144    0.1290 H   0  0  0  0  0  0  0  0  0  0  0  0
  1  2  1  0  0  0  0
  1 41  1  0  0  0  0
  1 42  1  0  0  0  0
  1 43  1  0  0  0  0
  2  3  1  0  0  0  0
  3  4  2  0  0  0  0
  3  5  1  0  0  0  0
  5  6  1  0  0  0  0
  5 10  2  0  0  0  0
  6  7  2  0  0  0  0
  6 44  1  0  0  0  0
  7  8  1  0  0  0  0
  7 45  1  0  0  0  0
  8  9  2  0  0  0  0
  8 14  1  0  0  0  0
  9 10  1  0  0  0  0
  9 11  1  0  0  0  0
 10 46  1  0  0  0  0
 11 12  1  0  0  0  0
 11 47  1  0  0  0  0
 12 13  2  0  0  0  0
 12 14  1  0  0  0  0
 14 15  2  0  0  0  0
 15 16  1  0  0  0  0
 15 35  1  0  0  0  0
 16 17  1  0  0  0  0
 16 48  1  0  0  0  0
 17 18  1  0  0  0  0
 17 22  2  0  0  0  0
 18 19  2  0  0  0  0
 18 49  1  0  0  0  0
 19 20  1  0  0  0  0
 19 50  1  0  0  0  0
 20 21  2  0  0  0  0
 20 34  1  0  0  0  0
 21 22  1  0  0  0  0
 21 23  1  0  0  0  0
 22 51  1  0  0  0  0
 23 24  1  0  0  0  0
 23 33  1  0  0  0  0
 24 25  2  0  0  0  0
 24 26  1  0  0  0  0
 26 27  1  0  0  0  0
 26 52  1  0  0  0  0
 26 53  1  0  0  0  0
 27 28  1  0  0  0  0
 27 32  1  0  0  0  0
 28 29  1  0  0  0  0
 28 54  1  0  0  0  0
 28 55  1  0  0  0  0
 29 30  1  0  0  0  0
 29 56  1  0  0  0  0
 29 57  1  0  0  0  0
 30 31  1  0  0  0  0
 31 32  1  0  0  0  0
 31 58  1  0  0  0  0
 31 59  1  0  0  0  0
 32 60  1  0  0  0  0
 32 61  1  0  0  0  0
 33 34  1  0  0  0  0
 33 62  1  0  0  0  0
 33 63  1  0  0  0  0
 34 64  1  0  0  0  0
 34 65  1  0  0  0  0
 35 36  1  0  0  0  0
 35 40  2  0  0  0  0
 36 37  2  0  0  0  0
 36 66  1  0  0  0  0
 37 38  1  0  0  0  0
 37 67  1  0  0  0  0
 38 39  2  0  0  0  0
 38 68  1  0  0  0  0
 39 40  1  0  0  0  0
 39 69  1  0  0  0  0
 40 70  1  0  0  0  0
M  END
$$$$
