CHEMBL4777407
 OpenBabel04072215383D

 50 53  0  0  0  0  0  0  0  0999 V2000
    4.4133    6.4161   -3.3356 C   0  0  0  0  0  0  0  0  0  0  0  0
    4.7289    7.1932   -2.1771 O   0  0  0  0  0  0  0  0  0  0  0  0
    4.8308    6.4863   -1.0065 C   0  0  0  0  0  0  0  0  0  0  0  0
    5.2514    5.1437   -1.0019 C   0  0  0  0  0  0  0  0  0  0  0  0
    5.2816    4.3716    0.1478 C   0  0  0  0  0  0  0  0  0  0  0  0
    5.6034    3.0792    0.0362 N   0  0  0  0  0  0  0  0  0  0  0  0
    5.5438    2.3513    1.1526 C   0  0  0  0  0  0  0  0  0  0  0  0
    5.2036    2.7989    2.3608 N   0  0  0  0  0  0  0  0  0  0  0  0
    4.9016    4.1076    2.4674 C   0  0  0  0  0  0  0  0  0  0  0  0
    4.4949    4.6130    3.7313 N   0  0  0  0  0  0  0  0  0  0  0  0
    4.0557    3.8220    4.8124 C   0  0  0  0  0  0  0  0  0  0  0  0
    4.3857    4.1736    6.1187 C   0  0  0  0  0  0  0  0  0  0  0  0
    4.0311    3.3440    7.1896 C   0  0  0  0  0  0  0  0  0  0  0  0
    3.3164    2.1596    6.9792 C   0  0  0  0  0  0  0  0  0  0  0  0
    3.0327    1.2181    7.9995 N   0  0  0  0  0  0  0  0  0  0  0  0
    3.4492    1.3052    9.3147 C   0  0  0  0  0  0  0  0  0  0  0  0
    4.0346    2.2566    9.8210 O   0  0  0  0  0  0  0  0  0  0  0  0
    3.1609    0.1484   10.2124 C   0  0  0  0  0  0  0  0  0  0  0  0
    3.0217   -1.1696    9.7698 C   0  0  0  0  0  0  0  0  0  0  0  0
    2.8440   -2.2046   10.7018 C   0  0  0  0  0  0  0  0  0  0  0  0
    2.8123   -1.9193   12.0698 C   0  0  0  0  0  0  0  0  0  0  0  0
    2.5973   -3.4546   13.4530 I   0  0  0  0  0  0  0  0  0  0  0  0
    2.9469   -0.6095   12.5187 C   0  0  0  0  0  0  0  0  0  0  0  0
    3.1225    0.4181   11.5921 C   0  0  0  0  0  0  0  0  0  0  0  0
    2.8885    1.8652    5.6860 C   0  0  0  0  0  0  0  0  0  0  0  0
    3.2472    2.6946    4.6180 C   0  0  0  0  0  0  0  0  0  0  0  0
    4.9366    4.9685    1.3607 C   0  0  0  0  0  0  0  0  0  0  0  0
    4.6049    6.3420    1.3835 C   0  0  0  0  0  0  0  0  0  0  0  0
    4.5311    7.1043    0.2112 C   0  0  0  0  0  0  0  0  0  0  0  0
    4.1275    8.3817    0.4727 O   0  0  0  0  0  0  0  0  0  0  0  0
    3.7868    9.2602   -0.5852 C   0  0  0  0  0  0  0  0  0  0  0  0
    3.9427    7.0743   -4.0713 H   0  0  0  0  0  0  0  0  0  0  0  0
    3.7010    5.6098   -3.1192 H   0  0  0  0  0  0  0  0  0  0  0  0
    5.3297    6.0121   -3.7782 H   0  0  0  0  0  0  0  0  0  0  0  0
    5.5456    4.6506   -1.9247 H   0  0  0  0  0  0  0  0  0  0  0  0
    5.7803    1.2965    1.0701 H   0  0  0  0  0  0  0  0  0  0  0  0
    5.1290    5.3517    4.0178 H   0  0  0  0  0  0  0  0  0  0  0  0
    4.9594    5.0725    6.3287 H   0  0  0  0  0  0  0  0  0  0  0  0
    4.3520    3.6558    8.1759 H   0  0  0  0  0  0  0  0  0  0  0  0
    2.5020    0.4049    7.7170 H   0  0  0  0  0  0  0  0  0  0  0  0
    3.0933   -1.4281    8.7167 H   0  0  0  0  0  0  0  0  0  0  0  0
    2.7513   -3.2297   10.3505 H   0  0  0  0  0  0  0  0  0  0  0  0
    2.9373   -0.3664   13.5785 H   0  0  0  0  0  0  0  0  0  0  0  0
    3.2529    1.4376   11.9518 H   0  0  0  0  0  0  0  0  0  0  0  0
    2.2981    0.9791    5.4721 H   0  0  0  0  0  0  0  0  0  0  0  0
    2.9127    2.4365    3.6160 H   0  0  0  0  0  0  0  0  0  0  0  0
    4.3476    6.8243    2.3252 H   0  0  0  0  0  0  0  0  0  0  0  0
    3.1394   10.0349   -0.1590 H   0  0  0  0  0  0  0  0  0  0  0  0
    3.2085    8.7816   -1.3784 H   0  0  0  0  0  0  0  0  0  0  0  0
    4.6838    9.7529   -0.9705 H   0  0  0  0  0  0  0  0  0  0  0  0
  1  2  1  0  0  0  0
  1 32  1  0  0  0  0
  1 33  1  0  0  0  0
  1 34  1  0  0  0  0
  2  3  1  0  0  0  0
  3  4  1  0  0  0  0
  3 29  2  0  0  0  0
  4  5  2  0  0  0  0
  4 35  1  0  0  0  0
  5  6  1  0  0  0  0
  5 27  1  0  0  0  0
  6  7  2  0  0  0  0
  7  8  1  0  0  0  0
  7 36  1  0  0  0  0
  8  9  2  0  0  0  0
  9 10  1  0  0  0  0
  9 27  1  0  0  0  0
 10 11  1  0  0  0  0
 10 37  1  0  0  0  0
 11 12  1  0  0  0  0
 11 26  2  0  0  0  0
 12 13  2  0  0  0  0
 12 38  1  0  0  0  0
 13 14  1  0  0  0  0
 13 39  1  0  0  0  0
 14 15  1  0  0  0  0
 14 25  2  0  0  0  0
 15 16  1  0  0  0  0
 15 40  1  0  0  0  0
 16 17  2  0  0  0  0
 16 18  1  0  0  0  0
 18 19  1  0  0  0  0
 18 24  2  0  0  0  0
 19 20  2  0  0  0  0
 19 41  1  0  0  0  0
 20 21  1  0  0  0  0
 20 42  1  0  0  0  0
 21 22  1  0  0  0  0
 21 23  2  0  0  0  0
 23 24  1  0  0  0  0
 23 43  1  0  0  0  0
 24 44  1  0  0  0  0
 25 26  1  0  0  0  0
 25 45  1  0  0  0  0
 26 46  1  0  0  0  0
 27 28  2  0  0  0  0
 28 29  1  0  0  0  0
 28 47  1  0  0  0  0
 29 30  1  0  0  0  0
 30 31  1  0  0  0  0
 31 48  1  0  0  0  0
 31 49  1  0  0  0  0
 31 50  1  0  0  0  0
M  END
$$$$
