CHEMBL3656042
 OpenBabel04072215373D

 50 53  0  0  0  0  0  0  0  0999 V2000
    2.9691    0.1899    0.1625 C   0  0  0  0  0  0  0  0  0  0  0  0
    1.4774    0.0603    0.0483 C   0  0  0  0  0  0  0  0  0  0  0  0
    0.8840   -1.2044    0.0085 C   0  0  0  0  0  0  0  0  0  0  0  0
   -0.4964   -1.3205   -0.1189 C   0  0  0  0  0  0  0  0  0  0  0  0
   -1.2940   -0.1796   -0.1945 C   0  0  0  0  0  0  0  0  0  0  0  0
   -2.5953   -0.3779   -0.4372 F   0  0  0  0  0  0  0  0  0  0  0  0
   -0.7377    1.1044   -0.1128 C   0  0  0  0  0  0  0  0  0  0  0  0
   -1.4801    2.3174   -0.1462 N   0  0  0  0  0  0  0  0  0  0  0  0
   -2.8302    2.4450    0.1452 C   0  0  0  0  0  0  0  0  0  0  0  0
   -3.5464    1.5676    0.6116 O   0  0  0  0  0  0  0  0  0  0  0  0
   -3.4418    3.7997   -0.0348 C   0  0  0  0  0  0  0  0  0  0  0  0
   -2.8996    4.7912   -0.8619 C   0  0  0  0  0  0  0  0  0  0  0  0
   -3.5343    6.0346   -0.9713 C   0  0  0  0  0  0  0  0  0  0  0  0
   -4.7238    6.2838   -0.2836 C   0  0  0  0  0  0  0  0  0  0  0  0
   -5.3172    5.2706    0.4692 C   0  0  0  0  0  0  0  0  0  0  0  0
   -6.5142    5.3941    1.1360 O   0  0  0  0  0  0  0  0  0  0  0  0
   -7.5404    6.1269    0.5836 C   0  0  0  0  0  0  0  0  0  0  0  0
   -7.7687    6.2760   -0.7803 C   0  0  0  0  0  0  0  0  0  0  0  0
   -8.8136    7.0908   -1.1780 C   0  0  0  0  0  0  0  0  0  0  0  0
   -9.6513    7.7133   -0.3213 N   0  0  0  0  0  0  0  0  0  0  0  0
   -9.4516    7.4933    1.0004 C   0  0  0  0  0  0  0  0  0  0  0  0
  -10.3943    8.1853    1.8725 C   0  0  0  0  0  0  0  0  0  0  0  0
  -10.5557    8.1943    3.2490 C   0  0  0  0  0  0  0  0  0  0  0  0
  -11.6169    9.0911    3.5860 C   0  0  0  0  0  0  0  0  0  0  0  0
  -12.1669    9.4704    4.8866 C   0  0  0  0  0  0  0  0  0  0  0  0
  -13.0926   10.2562    5.0243 O   0  0  0  0  0  0  0  0  0  0  0  0
  -11.5703    8.8882    5.9586 O   0  0  0  0  0  0  0  0  0  0  0  0
  -12.0804    9.5866    2.3784 C   0  0  0  0  0  0  0  0  0  0  0  0
  -11.3516    9.0332    1.3635 N   0  0  0  0  0  0  0  0  0  0  0  0
   -8.4212    6.7063    1.4915 C   0  0  0  0  0  0  0  0  0  0  0  0
   -4.6559    4.0524    0.6259 C   0  0  0  0  0  0  0  0  0  0  0  0
    0.6618    1.2072   -0.0175 C   0  0  0  0  0  0  0  0  0  0  0  0
    3.4531   -0.7925    0.2040 H   0  0  0  0  0  0  0  0  0  0  0  0
    3.2348    0.7304    1.0761 H   0  0  0  0  0  0  0  0  0  0  0  0
    3.3708    0.7211   -0.7060 H   0  0  0  0  0  0  0  0  0  0  0  0
    1.4898   -2.1063    0.0614 H   0  0  0  0  0  0  0  0  0  0  0  0
   -0.9669   -2.2973   -0.1782 H   0  0  0  0  0  0  0  0  0  0  0  0
   -0.9390    3.1682   -0.2097 H   0  0  0  0  0  0  0  0  0  0  0  0
   -2.0028    4.6149   -1.4482 H   0  0  0  0  0  0  0  0  0  0  0  0
   -3.1126    6.8093   -1.6079 H   0  0  0  0  0  0  0  0  0  0  0  0
   -5.1885    7.2631   -0.3650 H   0  0  0  0  0  0  0  0  0  0  0  0
   -7.1503    5.7907   -1.5259 H   0  0  0  0  0  0  0  0  0  0  0  0
   -9.0054    7.2754   -2.2314 H   0  0  0  0  0  0  0  0  0  0  0  0
   -9.9513    7.6135    3.9319 H   0  0  0  0  0  0  0  0  0  0  0  0
  -10.8497    8.2862    5.7128 H   0  0  0  0  0  0  0  0  0  0  0  0
  -12.8735   10.2934    2.1675 H   0  0  0  0  0  0  0  0  0  0  0  0
  -11.4631    9.2116    0.3719 H   0  0  0  0  0  0  0  0  0  0  0  0
   -8.2839    6.5491    2.5542 H   0  0  0  0  0  0  0  0  0  0  0  0
   -5.1014    3.2849    1.2572 H   0  0  0  0  0  0  0  0  0  0  0  0
    1.1365    2.1853    0.0276 H   0  0  0  0  0  0  0  0  0  0  0  0
  1  2  1  0  0  0  0
  1 33  1  0  0  0  0
  1 34  1  0  0  0  0
  1 35  1  0  0  0  0
  2  3  1  0  0  0  0
  2 32  2  0  0  0  0
  3  4  2  0  0  0  0
  3 36  1  0  0  0  0
  4  5  1  0  0  0  0
  4 37  1  0  0  0  0
  5  6  1  0  0  0  0
  5  7  2  0  0  0  0
  7  8  1  0  0  0  0
  7 32  1  0  0  0  0
  8  9  1  0  0  0  0
  8 38  1  0  0  0  0
  9 10  2  0  0  0  0
  9 11  1  0  0  0  0
 11 12  1  0  0  0  0
 11 31  2  0  0  0  0
 12 13  2  0  0  0  0
 12 39  1  0  0  0  0
 13 14  1  0  0  0  0
 13 40  1  0  0  0  0
 14 15  2  0  0  0  0
 14 41  1  0  0  0  0
 15 16  1  0  0  0  0
 15 31  1  0  0  0  0
 16 17  1  0  0  0  0
 17 18  1  0  0  0  0
 17 30  2  0  0  0  0
 18 19  2  0  0  0  0
 18 42  1  0  0  0  0
 19 20  1  0  0  0  0
 19 43  1  0  0  0  0
 20 21  2  0  0  0  0
 21 22  1  0  0  0  0
 21 30  1  0  0  0  0
 22 23  2  0  0  0  0
 22 29  1  0  0  0  0
 23 24  1  0  0  0  0
 23 44  1  0  0  0  0
 24 25  1  0  0  0  0
 24 28  2  0  0  0  0
 25 26  2  0  0  0  0
 25 27  1  0  0  0  0
 27 45  1  0  0  0  0
 28 29  1  0  0  0  0
 28 46  1  0  0  0  0
 29 47  1  0  0  0  0
 30 48  1  0  0  0  0
 31 49  1  0  0  0  0
 32 50  1  0  0  0  0
M  END
$$$$
