CHEMBL234626
 OpenBabel04072215363D

 50 53  0  0  0  0  0  0  0  0999 V2000
    3.0521    1.9628   -2.0621 C   0  0  0  0  0  0  0  0  0  0  0  0
    3.4424    1.0096   -1.0176 N   0  0  0  0  0  0  0  0  0  0  0  0
    2.3154    0.7894   -0.1106 C   0  0  0  0  0  0  0  0  0  0  0  0
    3.9053   -0.2445   -1.6421 C   0  0  0  0  0  0  0  0  0  0  0  0
    4.3946   -1.3205   -0.6496 C   0  0  0  0  0  0  0  0  0  0  0  0
    4.8774   -2.5702   -1.3452 C   0  0  0  0  0  0  0  0  0  0  0  0
    5.9469   -2.5067   -2.2437 C   0  0  0  0  0  0  0  0  0  0  0  0
    6.3934   -3.6560   -2.8942 C   0  0  0  0  0  0  0  0  0  0  0  0
    5.8085   -4.9000   -2.6418 C   0  0  0  0  0  0  0  0  0  0  0  0
    6.2243   -6.0671   -3.3135 N   0  0  0  0  0  0  0  0  0  0  0  0
    7.5244   -6.3237   -3.7483 C   0  0  0  0  0  0  0  0  0  0  0  0
    7.6634   -7.1113   -4.8205 N   0  0  0  0  0  0  0  0  0  0  0  0
    8.9327   -7.3847   -5.1915 C   0  0  0  0  0  0  0  0  0  0  0  0
   10.0641   -6.9018   -4.5652 C   0  0  0  0  0  0  0  0  0  0  0  0
   11.6018   -7.4378   -5.0811 Cl  0  0  0  0  0  0  0  0  0  0  0  0
    9.8274   -6.0329   -3.5029 C   0  0  0  0  0  0  0  0  0  0  0  0
   10.8361   -5.3137   -2.7194 C   0  0  0  0  0  0  0  0  0  0  0  0
   10.6994   -5.0678   -1.3290 C   0  0  0  0  0  0  0  0  0  0  0  0
   11.6600   -4.3750   -0.5818 C   0  0  0  0  0  0  0  0  0  0  0  0
   12.8723   -4.0009   -1.1589 C   0  0  0  0  0  0  0  0  0  0  0  0
   13.0331   -4.1979   -2.5346 C   0  0  0  0  0  0  0  0  0  0  0  0
   14.0918   -3.9884   -3.4695 C   0  0  0  0  0  0  0  0  0  0  0  0
   13.3571   -3.4659   -4.5310 C   0  0  0  0  0  0  0  0  0  0  0  0
   12.2473   -4.3050   -4.5917 N   0  0  0  0  0  0  0  0  0  0  0  0
   11.9700   -4.7053   -3.2864 C   0  0  0  0  0  0  0  0  0  0  0  0
    8.5514   -5.7736   -3.0856 N   0  0  0  0  0  0  0  0  0  0  0  0
    4.7319   -4.9648   -1.7520 C   0  0  0  0  0  0  0  0  0  0  0  0
    4.2834   -3.8144   -1.0943 C   0  0  0  0  0  0  0  0  0  0  0  0
    2.7453    2.9179   -1.6203 H   0  0  0  0  0  0  0  0  0  0  0  0
    2.2243    1.5863   -2.6749 H   0  0  0  0  0  0  0  0  0  0  0  0
    3.8980    2.1827   -2.7239 H   0  0  0  0  0  0  0  0  0  0  0  0
    1.9455    1.7428    0.2865 H   0  0  0  0  0  0  0  0  0  0  0  0
    2.6204    0.2055    0.7622 H   0  0  0  0  0  0  0  0  0  0  0  0
    1.4830    0.2761   -0.6048 H   0  0  0  0  0  0  0  0  0  0  0  0
    4.7386    0.0065   -2.3116 H   0  0  0  0  0  0  0  0  0  0  0  0
    3.1154   -0.6711   -2.2780 H   0  0  0  0  0  0  0  0  0  0  0  0
    3.5841   -1.5930    0.0355 H   0  0  0  0  0  0  0  0  0  0  0  0
    5.2089   -0.9250   -0.0308 H   0  0  0  0  0  0  0  0  0  0  0  0
    6.4510   -1.5637   -2.4427 H   0  0  0  0  0  0  0  0  0  0  0  0
    7.2210   -3.5628   -3.5933 H   0  0  0  0  0  0  0  0  0  0  0  0
    5.5910   -6.3481   -4.0515 H   0  0  0  0  0  0  0  0  0  0  0  0
    9.0199   -8.0410   -6.0566 H   0  0  0  0  0  0  0  0  0  0  0  0
    9.7937   -5.3968   -0.8205 H   0  0  0  0  0  0  0  0  0  0  0  0
   11.4645   -4.1326    0.4593 H   0  0  0  0  0  0  0  0  0  0  0  0
   13.6363   -3.4893   -0.5838 H   0  0  0  0  0  0  0  0  0  0  0  0
   14.7425   -4.8400   -3.6882 H   0  0  0  0  0  0  0  0  0  0  0  0
   13.1724   -2.4205   -4.7675 H   0  0  0  0  0  0  0  0  0  0  0  0
   11.5202   -4.2099   -5.2840 H   0  0  0  0  0  0  0  0  0  0  0  0
    4.2678   -5.9217   -1.5326 H   0  0  0  0  0  0  0  0  0  0  0  0
    3.4703   -3.9037   -0.3771 H   0  0  0  0  0  0  0  0  0  0  0  0
  1  2  1  0  0  0  0
  1 29  1  0  0  0  0
  1 30  1  0  0  0  0
  1 31  1  0  0  0  0
  2  3  1  0  0  0  0
  2  4  1  0  0  0  0
  3 32  1  0  0  0  0
  3 33  1  0  0  0  0
  3 34  1  0  0  0  0
  4  5  1  0  0  0  0
  4 35  1  0  0  0  0
  4 36  1  0  0  0  0
  5  6  1  0  0  0  0
  5 37  1  0  0  0  0
  5 38  1  0  0  0  0
  6  7  1  0  0  0  0
  6 28  2  0  0  0  0
  7  8  2  0  0  0  0
  7 39  1  0  0  0  0
  8  9  1  0  0  0  0
  8 40  1  0  0  0  0
  9 10  1  0  0  0  0
  9 27  2  0  0  0  0
 10 11  1  0  0  0  0
 10 41  1  0  0  0  0
 11 12  1  0  0  0  0
 11 26  2  0  0  0  0
 12 13  2  0  0  0  0
 13 14  1  0  0  0  0
 13 42  1  0  0  0  0
 14 15  1  0  0  0  0
 14 16  2  0  0  0  0
 16 17  1  0  0  0  0
 16 26  1  0  0  0  0
 17 18  1  0  0  0  0
 17 25  2  0  0  0  0
 18 19  2  0  0  0  0
 18 43  1  0  0  0  0
 19 20  1  0  0  0  0
 19 44  1  0  0  0  0
 20 21  2  0  0  0  0
 20 45  1  0  0  0  0
 21 22  1  0  0  0  0
 21 25  1  0  0  0  0
 22 23  2  0  0  0  0
 22 46  1  0  0  0  0
 23 24  1  0  0  0  0
 23 47  1  0  0  0  0
 24 25  1  0  0  0  0
 24 48  1  0  0  0  0
 27 28  1  0  0  0  0
 27 49  1  0  0  0  0
 28 50  1  0  0  0  0
M  END
$$$$
