CHEMBL4447552
 OpenBabel04072215383D

 40 43  0  0  0  0  0  0  0  0999 V2000
    1.6666    2.4503    1.3474 Cl  0  0  0  0  0  0  0  0  0  0  0  0
    1.1549    1.0015    0.5722 C   0  0  0  0  0  0  0  0  0  0  0  0
   -0.0792    0.9598   -0.0723 C   0  0  0  0  0  0  0  0  0  0  0  0
   -0.4881   -0.2129   -0.7072 C   0  0  0  0  0  0  0  0  0  0  0  0
    0.3384   -1.3366   -0.6931 C   0  0  0  0  0  0  0  0  0  0  0  0
    1.5775   -1.3047   -0.0370 C   0  0  0  0  0  0  0  0  0  0  0  0
    2.4116   -2.4897   -0.0167 C   0  0  0  0  0  0  0  0  0  0  0  0
    3.2920   -2.8503    0.9762 C   0  0  0  0  0  0  0  0  0  0  0  0
    3.7882   -4.0516    0.5612 N   0  0  0  0  0  0  0  0  0  0  0  0
    4.7254   -4.9566    1.2098 C   0  0  0  0  0  0  0  0  0  0  0  0
    5.1657   -4.5008    2.5791 C   0  0  0  0  0  0  0  0  0  0  0  0
    4.4046   -4.8058    3.7128 C   0  0  0  0  0  0  0  0  0  0  0  0
    4.7919   -4.3419    4.9759 C   0  0  0  0  0  0  0  0  0  0  0  0
    5.9550   -3.5718    5.1549 C   0  0  0  0  0  0  0  0  0  0  0  0
    6.3754   -3.0982    6.4934 C   0  0  0  0  0  0  0  0  0  0  0  0
    6.1303   -3.8343    7.6628 C   0  0  0  0  0  0  0  0  0  0  0  0
    6.5604   -3.3684    8.9060 C   0  0  0  0  0  0  0  0  0  0  0  0
    7.2408   -2.1664    8.9579 C   0  0  0  0  0  0  0  0  0  0  0  0
    7.4985   -1.4126    7.8723 N   0  0  0  0  0  0  0  0  0  0  0  0
    7.0572   -1.8913    6.6812 C   0  0  0  0  0  0  0  0  0  0  0  0
    6.7079   -3.2781    4.0031 C   0  0  0  0  0  0  0  0  0  0  0  0
    6.3188   -3.7256    2.7352 C   0  0  0  0  0  0  0  0  0  0  0  0
    3.2645   -4.4019   -0.6310 N   0  0  0  0  0  0  0  0  0  0  0  0
    2.4054   -3.4553   -0.9862 N   0  0  0  0  0  0  0  0  0  0  0  0
    1.9825   -0.1222    0.5966 C   0  0  0  0  0  0  0  0  0  0  0  0
   -0.7228    1.8353   -0.0857 H   0  0  0  0  0  0  0  0  0  0  0  0
   -1.4511   -0.2525   -1.2098 H   0  0  0  0  0  0  0  0  0  0  0  0
    0.0062   -2.2483   -1.1894 H   0  0  0  0  0  0  0  0  0  0  0  0
    3.5671   -2.3881    1.9130 H   0  0  0  0  0  0  0  0  0  0  0  0
    5.5881   -5.0608    0.5411 H   0  0  0  0  0  0  0  0  0  0  0  0
    4.2353   -5.9354    1.2774 H   0  0  0  0  0  0  0  0  0  0  0  0
    3.4941   -5.3968    3.6251 H   0  0  0  0  0  0  0  0  0  0  0  0
    4.1537   -4.5850    5.8236 H   0  0  0  0  0  0  0  0  0  0  0  0
    5.6159   -4.7911    7.6221 H   0  0  0  0  0  0  0  0  0  0  0  0
    6.3742   -3.9373    9.8100 H   0  0  0  0  0  0  0  0  0  0  0  0
    7.6075   -1.7677    9.8992 H   0  0  0  0  0  0  0  0  0  0  0  0
    7.2784   -1.2315    5.8459 H   0  0  0  0  0  0  0  0  0  0  0  0
    7.6276   -2.7000    4.0742 H   0  0  0  0  0  0  0  0  0  0  0  0
    6.9284   -3.4587    1.8735 H   0  0  0  0  0  0  0  0  0  0  0  0
    2.9428   -0.0637    1.0999 H   0  0  0  0  0  0  0  0  0  0  0  0
  1  2  1  0  0  0  0
  2  3  1  0  0  0  0
  2 25  2  0  0  0  0
  3  4  2  0  0  0  0
  3 26  1  0  0  0  0
  4  5  1  0  0  0  0
  4 27  1  0  0  0  0
  5  6  2  0  0  0  0
  5 28  1  0  0  0  0
  6  7  1  0  0  0  0
  6 25  1  0  0  0  0
  7  8  2  0  0  0  0
  7 24  1  0  0  0  0
  8  9  1  0  0  0  0
  8 29  1  0  0  0  0
  9 10  1  0  0  0  0
  9 23  1  0  0  0  0
 10 11  1  0  0  0  0
 10 30  1  0  0  0  0
 10 31  1  0  0  0  0
 11 12  1  0  0  0  0
 11 22  2  0  0  0  0
 12 13  2  0  0  0  0
 12 32  1  0  0  0  0
 13 14  1  0  0  0  0
 13 33  1  0  0  0  0
 14 15  1  0  0  0  0
 14 21  2  0  0  0  0
 15 16  1  0  0  0  0
 15 20  2  0  0  0  0
 16 17  2  0  0  0  0
 16 34  1  0  0  0  0
 17 18  1  0  0  0  0
 17 35  1  0  0  0  0
 18 19  2  0  0  0  0
 18 36  1  0  0  0  0
 19 20  1  0  0  0  0
 20 37  1  0  0  0  0
 21 22  1  0  0  0  0
 21 38  1  0  0  0  0
 22 39  1  0  0  0  0
 23 24  2  0  0  0  0
 25 40  1  0  0  0  0
M  END
$$$$
