CHEMBL269871
 OpenBabel04072215363D

 52 55  0  0  0  0  0  0  0  0999 V2000
    2.0727    0.6672    0.4677 C   0  0  0  0  0  0  0  0  0  0  0  0
    2.6469   -0.3428   -0.5077 C   0  0  0  0  0  0  0  0  0  0  0  0
    3.1915   -1.4930    0.1846 N   0  0  0  0  0  0  0  0  0  0  0  0
    4.5314   -1.5638    0.5397 C   0  0  0  0  0  0  0  0  0  0  0  0
    5.3290   -0.6792    0.2641 O   0  0  0  0  0  0  0  0  0  0  0  0
    4.9477   -2.7894    1.2822 C   0  0  0  0  0  0  0  0  0  0  0  0
    4.3199   -4.0093    0.9399 C   0  0  0  0  0  0  0  0  0  0  0  0
    4.6535   -5.1890    1.5992 C   0  0  0  0  0  0  0  0  0  0  0  0
    5.6152   -5.1694    2.6021 C   0  0  0  0  0  0  0  0  0  0  0  0
    6.2740   -3.9846    2.9645 C   0  0  0  0  0  0  0  0  0  0  0  0
    7.2531   -4.0021    3.9849 C   0  0  0  0  0  0  0  0  0  0  0  0
    7.9424   -2.8468    4.3573 C   0  0  0  0  0  0  0  0  0  0  0  0
    8.8834   -2.9709    5.3625 O   0  0  0  0  0  0  0  0  0  0  0  0
   10.0256   -2.1829    5.3286 C   0  0  0  0  0  0  0  0  0  0  0  0
   10.6227   -1.8383    4.1177 C   0  0  0  0  0  0  0  0  0  0  0  0
   11.6978   -0.9756    4.1566 C   0  0  0  0  0  0  0  0  0  0  0  0
   12.2289   -0.4850    5.2963 N   0  0  0  0  0  0  0  0  0  0  0  0
   11.6997   -0.8832    6.4665 C   0  0  0  0  0  0  0  0  0  0  0  0
   12.2235   -0.3688    7.6551 C   0  0  0  0  0  0  0  0  0  0  0  0
   11.7521   -0.7026    8.9503 C   0  0  0  0  0  0  0  0  0  0  0  0
   12.2529    0.1485    9.8940 O   0  0  0  0  0  0  0  0  0  0  0  0
   12.8565   -0.3403   11.0797 C   0  0  0  0  0  0  0  0  0  0  0  0
   10.7175   -1.6329    9.0449 C   0  0  0  0  0  0  0  0  0  0  0  0
   10.0305   -2.1681   10.0908 O   0  0  0  0  0  0  0  0  0  0  0  0
   10.2861   -1.8633   11.4406 C   0  0  0  0  0  0  0  0  0  0  0  0
   10.1638   -2.1334    7.8403 C   0  0  0  0  0  0  0  0  0  0  0  0
   10.6016   -1.7536    6.5492 C   0  0  0  0  0  0  0  0  0  0  0  0
    7.6160   -1.6428    3.7330 C   0  0  0  0  0  0  0  0  0  0  0  0
    6.6576   -1.6131    2.7128 C   0  0  0  0  0  0  0  0  0  0  0  0
    5.9545   -2.7680    2.3006 C   0  0  0  0  0  0  0  0  0  0  0  0
    1.6586    1.5254   -0.0700 H   0  0  0  0  0  0  0  0  0  0  0  0
    2.8414    1.0307    1.1578 H   0  0  0  0  0  0  0  0  0  0  0  0
    1.2725    0.2188    1.0660 H   0  0  0  0  0  0  0  0  0  0  0  0
    3.4262    0.1259   -1.1179 H   0  0  0  0  0  0  0  0  0  0  0  0
    1.8629   -0.7077   -1.1789 H   0  0  0  0  0  0  0  0  0  0  0  0
    2.5387   -2.1710    0.5541 H   0  0  0  0  0  0  0  0  0  0  0  0
    3.5878   -4.0527    0.1350 H   0  0  0  0  0  0  0  0  0  0  0  0
    4.1675   -6.1229    1.3209 H   0  0  0  0  0  0  0  0  0  0  0  0
    5.8607   -6.1067    3.1006 H   0  0  0  0  0  0  0  0  0  0  0  0
    7.4882   -4.9334    4.4976 H   0  0  0  0  0  0  0  0  0  0  0  0
   10.2591   -2.1932    3.1642 H   0  0  0  0  0  0  0  0  0  0  0  0
   12.1696   -0.6305    3.2407 H   0  0  0  0  0  0  0  0  0  0  0  0
   13.0313    0.3640    7.5665 H   0  0  0  0  0  0  0  0  0  0  0  0
   13.7212    0.2927   11.3187 H   0  0  0  0  0  0  0  0  0  0  0  0
   13.1986   -1.3773   11.0130 H   0  0  0  0  0  0  0  0  0  0  0  0
   12.1655   -0.1951   11.9143 H   0  0  0  0  0  0  0  0  0  0  0  0
    9.5056   -2.3507   12.0359 H   0  0  0  0  0  0  0  0  0  0  0  0
   10.1982   -0.7912   11.6314 H   0  0  0  0  0  0  0  0  0  0  0  0
   11.2348   -2.2915   11.7704 H   0  0  0  0  0  0  0  0  0  0  0  0
    9.3294   -2.8322    7.9171 H   0  0  0  0  0  0  0  0  0  0  0  0
    8.1050   -0.7133    4.0095 H   0  0  0  0  0  0  0  0  0  0  0  0
    6.4777   -0.6490    2.2370 H   0  0  0  0  0  0  0  0  0  0  0  0
  1  2  1  0  0  0  0
  1 31  1  0  0  0  0
  1 32  1  0  0  0  0
  1 33  1  0  0  0  0
  2  3  1  0  0  0  0
  2 34  1  0  0  0  0
  2 35  1  0  0  0  0
  3  4  1  0  0  0  0
  3 36  1  0  0  0  0
  4  5  2  0  0  0  0
  4  6  1  0  0  0  0
  6  7  1  0  0  0  0
  6 30  2  0  0  0  0
  7  8  2  0  0  0  0
  7 37  1  0  0  0  0
  8  9  1  0  0  0  0
  8 38  1  0  0  0  0
  9 10  2  0  0  0  0
  9 39  1  0  0  0  0
 10 11  1  0  0  0  0
 10 30  1  0  0  0  0
 11 12  2  0  0  0  0
 11 40  1  0  0  0  0
 12 13  1  0  0  0  0
 12 28  1  0  0  0  0
 13 14  1  0  0  0  0
 14 15  1  0  0  0  0
 14 27  2  0  0  0  0
 15 16  2  0  0  0  0
 15 41  1  0  0  0  0
 16 17  1  0  0  0  0
 16 42  1  0  0  0  0
 17 18  2  0  0  0  0
 18 19  1  0  0  0  0
 18 27  1  0  0  0  0
 19 20  2  0  0  0  0
 19 43  1  0  0  0  0
 20 21  1  0  0  0  0
 20 23  1  0  0  0  0
 21 22  1  0  0  0  0
 22 44  1  0  0  0  0
 22 45  1  0  0  0  0
 22 46  1  0  0  0  0
 23 24  1  0  0  0  0
 23 26  2  0  0  0  0
 24 25  1  0  0  0  0
 25 47  1  0  0  0  0
 25 48  1  0  0  0  0
 25 49  1  0  0  0  0
 26 27  1  0  0  0  0
 26 50  1  0  0  0  0
 28 29  2  0  0  0  0
 28 51  1  0  0  0  0
 29 30  1  0  0  0  0
 29 52  1  0  0  0  0
M  END
$$$$
