CHEMBL3671551
 OpenBabel04072215373D

 53 55  0  0  1  0  0  0  0  0999 V2000
    3.3524   -3.6166    1.3941 C   0  0  0  0  0  0  0  0  0  0  0  0
    3.4797   -3.0339    0.1951 C   0  0  0  0  0  0  0  0  0  0  0  0
    3.6857   -1.5581    0.1295 C   0  0  0  0  0  0  0  0  0  0  0  0
    3.1997   -0.7911    0.9581 O   0  0  0  0  0  0  0  0  0  0  0  0
    4.5063   -1.0822   -0.8671 N   0  0  0  0  0  0  0  0  0  0  0  0
    5.3571   -1.9045   -1.6192 C   0  0  0  0  0  0  0  0  0  0  0  0
    6.4467   -2.4694   -0.9624 C   0  0  0  0  0  0  0  0  0  0  0  0
    7.1194   -3.5670   -1.5316 C   0  0  0  0  0  0  0  0  0  0  0  0
    8.0820   -4.3296   -0.8562 C   0  0  0  0  0  0  0  0  0  0  0  0
    8.3735   -4.0502    0.5054 N   0  0  0  0  0  0  0  0  0  0  0  0
    8.9883   -4.9797    1.3758 C   0  0  0  0  0  0  0  0  0  0  0  0
    8.5798   -6.3209    1.3972 C   0  0  0  0  0  0  0  0  0  0  0  0
    9.2855   -7.2702    2.1352 C   0  0  0  0  0  0  0  0  0  0  0  0
   10.3905   -6.8738    2.8851 C   0  0  0  0  0  0  0  0  0  0  0  0
   11.4196   -8.1795    3.7829 Br  0  0  0  0  0  0  0  0  0  0  0  0
   10.7602   -5.5322    2.9507 C   0  0  0  0  0  0  0  0  0  0  0  0
   10.0501   -4.5973    2.2028 C   0  0  0  0  0  0  0  0  0  0  0  0
   10.4249   -3.3085    2.2409 F   0  0  0  0  0  0  0  0  0  0  0  0
    8.6739   -5.3904   -1.4343 N   0  0  0  0  0  0  0  0  0  0  0  0
    8.2864   -5.7066   -2.6707 C   0  0  0  0  0  0  0  0  0  0  0  0
    7.3456   -5.0798   -3.3824 N   0  0  0  0  0  0  0  0  0  0  0  0
    6.7574   -4.0272   -2.8077 C   0  0  0  0  0  0  0  0  0  0  0  0
    5.7117   -3.3967   -3.4744 C   0  0  0  0  0  0  0  0  0  0  0  0
    5.0039   -2.3352   -2.9033 C   0  0  0  0  0  0  0  0  0  0  0  0
    3.9398   -1.8632   -3.6359 O   0  0  0  0  0  0  0  0  0  0  0  0
    3.8070   -0.4344   -3.6045 C   0  0  0  0  0  0  0  0  0  0  0  0
    2.7998    0.0758   -4.6558 C   0  0  3  0  0  0  0  0  0  0  0  0
    1.4379   -0.5960   -4.4587 C   0  0  0  0  0  0  0  0  0  0  0  0
    2.6368    1.5328   -4.5649 N   0  0  0  0  0  0  0  0  0  0  0  0
    3.6737    2.4126   -4.7767 C   0  0  0  0  0  0  0  0  0  0  0  0
    3.3328    3.8551   -4.5078 C   0  0  0  0  0  0  0  0  0  0  0  0
    4.8027    2.0652   -5.1064 O   0  0  0  0  0  0  0  0  0  0  0  0
    3.2665   -4.6938    1.4818 H   0  0  0  0  0  0  0  0  0  0  0  0
    3.3572   -3.0347    2.3116 H   0  0  0  0  0  0  0  0  0  0  0  0
    3.4968   -3.6141   -0.7134 H   0  0  0  0  0  0  0  0  0  0  0  0
    4.8640   -0.1691   -0.6032 H   0  0  0  0  0  0  0  0  0  0  0  0
    6.6929   -2.1347    0.0428 H   0  0  0  0  0  0  0  0  0  0  0  0
    8.7552   -3.1141    0.6141 H   0  0  0  0  0  0  0  0  0  0  0  0
    7.7299   -6.6392    0.7971 H   0  0  0  0  0  0  0  0  0  0  0  0
    8.9817   -8.3122    2.0876 H   0  0  0  0  0  0  0  0  0  0  0  0
   11.6076   -5.2068    3.5434 H   0  0  0  0  0  0  0  0  0  0  0  0
    8.7679   -6.5638   -3.1274 H   0  0  0  0  0  0  0  0  0  0  0  0
    5.4122   -3.7744   -4.4500 H   0  0  0  0  0  0  0  0  0  0  0  0
    4.7899    0.0233   -3.7613 H   0  0  0  0  0  0  0  0  0  0  0  0
    3.4166   -0.1107   -2.6368 H   0  0  0  0  0  0  0  0  0  0  0  0
    3.1695   -0.1609   -5.6604 H   0  0  0  0  0  0  0  0  0  0  0  0
    1.0474   -0.3983   -3.4528 H   0  0  0  0  0  0  0  0  0  0  0  0
    1.5009   -1.6805   -4.5901 H   0  0  0  0  0  0  0  0  0  0  0  0
    0.7037   -0.2098   -5.1739 H   0  0  0  0  0  0  0  0  0  0  0  0
    1.7208    1.9005   -4.3400 H   0  0  0  0  0  0  0  0  0  0  0  0
    2.2571    4.0006   -4.3811 H   0  0  0  0  0  0  0  0  0  0  0  0
    3.6704    4.4709   -5.3454 H   0  0  0  0  0  0  0  0  0  0  0  0
    3.8399    4.1746   -3.5924 H   0  0  0  0  0  0  0  0  0  0  0  0
  1  2  2  0  0  0  0
  1 33  1  0  0  0  0
  1 34  1  0  0  0  0
  2  3  1  0  0  0  0
  2 35  1  0  0  0  0
  3  4  2  0  0  0  0
  3  5  1  0  0  0  0
  5  6  1  0  0  0  0
  5 36  1  0  0  0  0
  6  7  1  0  0  0  0
  6 24  2  0  0  0  0
  7  8  2  0  0  0  0
  7 37  1  0  0  0  0
  8  9  1  0  0  0  0
  8 22  1  0  0  0  0
  9 10  1  0  0  0  0
  9 19  2  0  0  0  0
 10 11  1  0  0  0  0
 10 38  1  0  0  0  0
 11 12  1  0  0  0  0
 11 17  2  0  0  0  0
 12 13  2  0  0  0  0
 12 39  1  0  0  0  0
 13 14  1  0  0  0  0
 13 40  1  0  0  0  0
 14 15  1  0  0  0  0
 14 16  2  0  0  0  0
 16 17  1  0  0  0  0
 16 41  1  0  0  0  0
 17 18  1  0  0  0  0
 19 20  1  0  0  0  0
 20 21  2  0  0  0  0
 20 42  1  0  0  0  0
 21 22  1  0  0  0  0
 22 23  2  0  0  0  0
 23 24  1  0  0  0  0
 23 43  1  0  0  0  0
 24 25  1  0  0  0  0
 25 26  1  0  0  0  0
 26 27  1  0  0  0  0
 26 44  1  0  0  0  0
 26 45  1  0  0  0  0
 27 28  1  0  0  0  0
 27 29  1  0  0  0  0
 27 46  1  0  0  0  0
 28 47  1  0  0  0  0
 28 48  1  0  0  0  0
 28 49  1  0  0  0  0
 29 30  1  0  0  0  0
 29 50  1  0  0  0  0
 30 31  1  0  0  0  0
 30 32  2  0  0  0  0
 31 51  1  0  0  0  0
 31 52  1  0  0  0  0
 31 53  1  0  0  0  0
M  END
$$$$
