CHEMBL1098119
 OpenBabel04072215363D

 69 71  0  0  0  0  0  0  0  0999 V2000
    0.9615    0.3313    2.7820 Cl  0  0  0  0  0  0  0  0  0  0  0  0
    0.8723    2.7791    0.2823 N   0  0  0  0  0  0  0  0  0  0  0  0
    2.3318    2.7346    0.4263 C   0  0  0  0  0  0  0  0  0  0  0  0
    2.9329    1.4493   -0.1638 C   0  0  0  0  0  0  0  0  0  0  0  0
    4.4319    1.4438   -0.0659 C   0  0  0  0  0  0  0  0  0  0  0  0
    5.2828    1.4078   -1.1600 C   0  0  0  0  0  0  0  0  0  0  0  0
    6.5734    1.4303   -0.7530 N   0  0  0  0  0  0  0  0  0  0  0  0
    7.7452    1.4031   -1.6368 C   0  0  0  0  0  0  0  0  0  0  0  0
    7.6991    2.5455   -2.6489 C   0  0  0  0  0  0  0  0  0  0  0  0
    7.7088    3.9399   -1.9956 C   0  0  0  0  0  0  0  0  0  0  0  0
    7.6243    5.0576   -3.0483 C   0  0  0  0  0  0  0  0  0  0  0  0
    6.3043    5.0102   -3.8430 C   0  0  0  0  0  0  0  0  0  0  0  0
    6.2360    6.0855   -4.8892 C   0  0  0  0  0  0  0  0  0  0  0  0
    7.1719    6.1137   -5.9368 C   0  0  0  0  0  0  0  0  0  0  0  0
    7.0917    7.0981   -6.9230 C   0  0  0  0  0  0  0  0  0  0  0  0
    6.0723    8.0544   -6.8757 C   0  0  0  0  0  0  0  0  0  0  0  0
    5.1338    8.0266   -5.8405 C   0  0  0  0  0  0  0  0  0  0  0  0
    5.2124    7.0461   -4.8481 C   0  0  0  0  0  0  0  0  0  0  0  0
    6.5468    1.4643    0.5947 C   0  0  0  0  0  0  0  0  0  0  0  0
    7.6318    1.4853    1.4658 C   0  0  0  0  0  0  0  0  0  0  0  0
    7.3781    1.4954    2.8369 C   0  0  0  0  0  0  0  0  0  0  0  0
    6.0467    1.4857    3.3475 C   0  0  0  0  0  0  0  0  0  0  0  0
    5.8057    1.4872    4.6931 O   0  0  0  0  0  0  0  0  0  0  0  0
    6.8308    1.4871    5.6251 C   0  0  0  0  0  0  0  0  0  0  0  0
    6.3447    1.5019    7.0763 C   0  0  0  0  0  0  0  0  0  0  0  0
    7.5600    1.4796    7.9832 C   0  0  0  0  0  0  0  0  0  0  0  0
    8.4921    2.5352    7.9453 C   0  0  0  0  0  0  0  0  0  0  0  0
    9.6467    2.4933    8.7293 C   0  0  0  0  0  0  0  0  0  0  0  0
    9.8859    1.4005    9.5720 C   0  0  0  0  0  0  0  0  0  0  0  0
   11.0059    1.3411   10.3208 O   0  0  0  0  0  0  0  0  0  0  0  0
    8.9553    0.3568    9.6324 C   0  0  0  0  0  0  0  0  0  0  0  0
    7.7985    0.3935    8.8436 C   0  0  0  0  0  0  0  0  0  0  0  0
    4.9636    1.4739    2.4363 C   0  0  0  0  0  0  0  0  0  0  0  0
    5.2505    1.4639    1.0596 C   0  0  0  0  0  0  0  0  0  0  0  0
    1.0844   -0.5826    1.7603 H   0  0  0  0  0  0  0  0  0  0  0  0
    0.6045    3.5035   -0.4216 H   0  0  0  0  0  0  0  0  0  0  0  0
    0.4797    1.8589   -0.0256 H   0  0  0  0  0  0  0  0  0  0  0  0
    2.5771    2.8017    1.5038 H   0  0  0  0  0  0  0  0  0  0  0  0
    2.7812    3.6196   -0.0788 H   0  0  0  0  0  0  0  0  0  0  0  0
    2.6418    1.3894   -1.2360 H   0  0  0  0  0  0  0  0  0  0  0  0
    2.5366    0.5537    0.3500 H   0  0  0  0  0  0  0  0  0  0  0  0
    4.9671    1.3744   -2.1947 H   0  0  0  0  0  0  0  0  0  0  0  0
    7.7418    0.4456   -2.1993 H   0  0  0  0  0  0  0  0  0  0  0  0
    8.6929    1.4573   -1.0667 H   0  0  0  0  0  0  0  0  0  0  0  0
    6.7791    2.3970   -3.2409 H   0  0  0  0  0  0  0  0  0  0  0  0
    8.5679    2.4590   -3.3358 H   0  0  0  0  0  0  0  0  0  0  0  0
    8.6551    4.0621   -1.4233 H   0  0  0  0  0  0  0  0  0  0  0  0
    6.8601    4.0477   -1.2854 H   0  0  0  0  0  0  0  0  0  0  0  0
    8.4956    4.9680   -3.7318 H   0  0  0  0  0  0  0  0  0  0  0  0
    7.6924    6.0398   -2.5302 H   0  0  0  0  0  0  0  0  0  0  0  0
    5.4575    5.0984   -3.1269 H   0  0  0  0  0  0  0  0  0  0  0  0
    6.1946    4.0557   -4.3908 H   0  0  0  0  0  0  0  0  0  0  0  0
    7.9594    5.3733   -5.9906 H   0  0  0  0  0  0  0  0  0  0  0  0
    7.8151    7.1136   -7.7256 H   0  0  0  0  0  0  0  0  0  0  0  0
    6.0089    8.8116   -7.6446 H   0  0  0  0  0  0  0  0  0  0  0  0
    4.3417    8.7625   -5.8074 H   0  0  0  0  0  0  0  0  0  0  0  0
    4.4738    7.0324   -4.0556 H   0  0  0  0  0  0  0  0  0  0  0  0
    8.6522    1.4874    1.1158 H   0  0  0  0  0  0  0  0  0  0  0  0
    8.2390    1.5047    3.4892 H   0  0  0  0  0  0  0  0  0  0  0  0
    7.4567    2.3883    5.4517 H   0  0  0  0  0  0  0  0  0  0  0  0
    7.4479    0.5716    5.4810 H   0  0  0  0  0  0  0  0  0  0  0  0
    5.7077    0.6070    7.2502 H   0  0  0  0  0  0  0  0  0  0  0  0
    5.7374    2.4102    7.2784 H   0  0  0  0  0  0  0  0  0  0  0  0
    8.3357    3.3872    7.2965 H   0  0  0  0  0  0  0  0  0  0  0  0
   10.3587    3.3075    8.6730 H   0  0  0  0  0  0  0  0  0  0  0  0
   11.6814    2.0342   10.2899 H   0  0  0  0  0  0  0  0  0  0  0  0
    9.1358   -0.4898   10.2826 H   0  0  0  0  0  0  0  0  0  0  0  0
    7.1011   -0.4330    8.8935 H   0  0  0  0  0  0  0  0  0  0  0  0
    3.9437    1.4614    2.7972 H   0  0  0  0  0  0  0  0  0  0  0  0
  1 35  1  0  0  0  0
  2  3  1  0  0  0  0
  2 36  1  0  0  0  0
  2 37  1  0  0  0  0
  3  4  1  0  0  0  0
  3 38  1  0  0  0  0
  3 39  1  0  0  0  0
  4  5  1  0  0  0  0
  4 40  1  0  0  0  0
  4 41  1  0  0  0  0
  5  6  2  0  0  0  0
  5 34  1  0  0  0  0
  6  7  1  0  0  0  0
  6 42  1  0  0  0  0
  7  8  1  0  0  0  0
  7 19  1  0  0  0  0
  8  9  1  0  0  0  0
  8 43  1  0  0  0  0
  8 44  1  0  0  0  0
  9 10  1  0  0  0  0
  9 45  1  0  0  0  0
  9 46  1  0  0  0  0
 10 11  1  0  0  0  0
 10 47  1  0  0  0  0
 10 48  1  0  0  0  0
 11 12  1  0  0  0  0
 11 49  1  0  0  0  0
 11 50  1  0  0  0  0
 12 13  1  0  0  0  0
 12 51  1  0  0  0  0
 12 52  1  0  0  0  0
 13 14  1  0  0  0  0
 13 18  2  0  0  0  0
 14 15  2  0  0  0  0
 14 53  1  0  0  0  0
 15 16  1  0  0  0  0
 15 54  1  0  0  0  0
 16 17  2  0  0  0  0
 16 55  1  0  0  0  0
 17 18  1  0  0  0  0
 17 56  1  0  0  0  0
 18 57  1  0  0  0  0
 19 20  1  0  0  0  0
 19 34  2  0  0  0  0
 20 21  2  0  0  0  0
 20 58  1  0  0  0  0
 21 22  1  0  0  0  0
 21 59  1  0  0  0  0
 22 23  1  0  0  0  0
 22 33  2  0  0  0  0
 23 24  1  0  0  0  0
 24 25  1  0  0  0  0
 24 60  1  0  0  0  0
 24 61  1  0  0  0  0
 25 26  1  0  0  0  0
 25 62  1  0  0  0  0
 25 63  1  0  0  0  0
 26 27  1  0  0  0  0
 26 32  2  0  0  0  0
 27 28  2  0  0  0  0
 27 64  1  0  0  0  0
 28 29  1  0  0  0  0
 28 65  1  0  0  0  0
 29 30  1  0  0  0  0
 29 31  2  0  0  0  0
 30 66  1  0  0  0  0
 31 32  1  0  0  0  0
 31 67  1  0  0  0  0
 32 68  1  0  0  0  0
 33 34  1  0  0  0  0
 33 69  1  0  0  0  0
M  END
$$$$
