CHEMBL426211
 OpenBabel04072215383D

 54 57  0  0  0  0  0  0  0  0999 V2000
   14.3014   -3.7917   -2.1231 C   0  0  0  0  0  0  0  0  0  0  0  0
   13.1191   -3.7247   -1.2958 N   0  0  0  0  0  0  0  0  0  0  0  0
   12.2550   -2.6725   -1.5653 C   0  0  0  0  0  0  0  0  0  0  0  0
   12.7082   -1.5126   -2.0164 N   0  0  0  0  0  0  0  0  0  0  0  0
   11.7751   -0.5798   -2.1990 C   0  0  0  0  0  0  0  0  0  0  0  0
   10.4675   -0.7097   -1.9767 N   0  0  0  0  0  0  0  0  0  0  0  0
   10.1134   -1.9116   -1.5323 C   0  0  0  0  0  0  0  0  0  0  0  0
    8.7215   -2.1672   -1.1331 C   0  0  0  0  0  0  0  0  0  0  0  0
    8.4706   -3.1299   -0.1263 C   0  0  0  0  0  0  0  0  0  0  0  0
    7.1831   -3.4280    0.3080 C   0  0  0  0  0  0  0  0  0  0  0  0
    6.1395   -2.7710   -0.2953 C   0  0  0  0  0  0  0  0  0  0  0  0
    6.3109   -1.8543   -1.2626 N   0  0  0  0  0  0  0  0  0  0  0  0
    7.5856   -1.5358   -1.6496 C   0  0  0  0  0  0  0  0  0  0  0  0
    7.7168   -0.5393   -2.6195 O   0  0  0  0  0  0  0  0  0  0  0  0
    6.6584    0.3480   -2.7736 C   0  0  0  0  0  0  0  0  0  0  0  0
    5.9755    0.8747   -1.6607 C   0  0  0  0  0  0  0  0  0  0  0  0
    4.8497    1.6798   -1.8359 C   0  0  0  0  0  0  0  0  0  0  0  0
    3.9888    2.1367   -0.7091 C   0  0  0  0  0  0  0  0  0  0  0  0
    3.4293    3.2235   -0.8336 O   0  0  0  0  0  0  0  0  0  0  0  0
    3.8721    1.2823    0.3810 N   0  0  0  0  0  0  0  0  0  0  0  0
    3.0050    1.4714    1.4859 C   0  0  0  0  0  0  0  0  0  0  0  0
    1.9373    2.3740    1.4763 C   0  0  0  0  0  0  0  0  0  0  0  0
    1.0993    2.5123    2.5864 C   0  0  0  0  0  0  0  0  0  0  0  0
    1.3467    1.7805    3.7427 C   0  0  0  0  0  0  0  0  0  0  0  0
    2.4328    0.8969    3.7947 C   0  0  0  0  0  0  0  0  0  0  0  0
    2.7923    0.1994    5.0827 C   0  0  0  0  0  0  0  0  0  0  0  0
    1.9975    0.5453    6.1345 F   0  0  0  0  0  0  0  0  0  0  0  0
    2.7203   -1.1563    4.9883 F   0  0  0  0  0  0  0  0  0  0  0  0
    4.0669    0.4781    5.4774 F   0  0  0  0  0  0  0  0  0  0  0  0
    3.2269    0.7129    2.6425 C   0  0  0  0  0  0  0  0  0  0  0  0
    4.4861    2.0726   -3.1281 C   0  0  0  0  0  0  0  0  0  0  0  0
    5.2062    1.6203   -4.2352 C   0  0  0  0  0  0  0  0  0  0  0  0
    6.2876    0.7378   -4.0727 C   0  0  0  0  0  0  0  0  0  0  0  0
    6.9946    0.2268   -5.2982 C   0  0  0  0  0  0  0  0  0  0  0  0
   10.9753   -2.9180   -1.3212 N   0  0  0  0  0  0  0  0  0  0  0  0
   14.8150   -4.7415   -1.9385 H   0  0  0  0  0  0  0  0  0  0  0  0
   15.0040   -2.9879   -1.8796 H   0  0  0  0  0  0  0  0  0  0  0  0
   14.0545   -3.7520   -3.1894 H   0  0  0  0  0  0  0  0  0  0  0  0
   12.5591   -4.5686   -1.2630 H   0  0  0  0  0  0  0  0  0  0  0  0
   12.1183    0.3850   -2.5589 H   0  0  0  0  0  0  0  0  0  0  0  0
    9.3026   -3.6570    0.3444 H   0  0  0  0  0  0  0  0  0  0  0  0
    7.0096   -4.1561    1.0922 H   0  0  0  0  0  0  0  0  0  0  0  0
    5.1093   -2.9560   -0.0061 H   0  0  0  0  0  0  0  0  0  0  0  0
    6.3166    0.6231   -0.6621 H   0  0  0  0  0  0  0  0  0  0  0  0
    4.4535    0.4541    0.3992 H   0  0  0  0  0  0  0  0  0  0  0  0
    1.7114    2.9782    0.6025 H   0  0  0  0  0  0  0  0  0  0  0  0
    0.2650    3.2090    2.5473 H   0  0  0  0  0  0  0  0  0  0  0  0
    0.7020    1.9213    4.6093 H   0  0  0  0  0  0  0  0  0  0  0  0
    4.0560    0.0093    2.6841 H   0  0  0  0  0  0  0  0  0  0  0  0
    3.6317    2.7303   -3.2778 H   0  0  0  0  0  0  0  0  0  0  0  0
    4.8978    1.9474   -5.2271 H   0  0  0  0  0  0  0  0  0  0  0  0
    6.5694    0.6584   -6.2125 H   0  0  0  0  0  0  0  0  0  0  0  0
    6.8876   -0.8596   -5.3716 H   0  0  0  0  0  0  0  0  0  0  0  0
    8.0547    0.4952   -5.2738 H   0  0  0  0  0  0  0  0  0  0  0  0
  1  2  1  0  0  0  0
  1 36  1  0  0  0  0
  1 37  1  0  0  0  0
  1 38  1  0  0  0  0
  2  3  1  0  0  0  0
  2 39  1  0  0  0  0
  3  4  1  0  0  0  0
  3 35  2  0  0  0  0
  4  5  2  0  0  0  0
  5  6  1  0  0  0  0
  5 40  1  0  0  0  0
  6  7  2  0  0  0  0
  7  8  1  0  0  0  0
  7 35  1  0  0  0  0
  8  9  1  0  0  0  0
  8 13  2  0  0  0  0
  9 10  2  0  0  0  0
  9 41  1  0  0  0  0
 10 11  1  0  0  0  0
 10 42  1  0  0  0  0
 11 12  2  0  0  0  0
 11 43  1  0  0  0  0
 12 13  1  0  0  0  0
 13 14  1  0  0  0  0
 14 15  1  0  0  0  0
 15 16  1  0  0  0  0
 15 33  2  0  0  0  0
 16 17  2  0  0  0  0
 16 44  1  0  0  0  0
 17 18  1  0  0  0  0
 17 31  1  0  0  0  0
 18 19  2  0  0  0  0
 18 20  1  0  0  0  0
 20 21  1  0  0  0  0
 20 45  1  0  0  0  0
 21 22  1  0  0  0  0
 21 30  2  0  0  0  0
 22 23  2  0  0  0  0
 22 46  1  0  0  0  0
 23 24  1  0  0  0  0
 23 47  1  0  0  0  0
 24 25  2  0  0  0  0
 24 48  1  0  0  0  0
 25 26  1  0  0  0  0
 25 30  1  0  0  0  0
 26 27  1  0  0  0  0
 26 28  1  0  0  0  0
 26 29  1  0  0  0  0
 30 49  1  0  0  0  0
 31 32  2  0  0  0  0
 31 50  1  0  0  0  0
 32 33  1  0  0  0  0
 32 51  1  0  0  0  0
 33 34  1  0  0  0  0
 34 52  1  0  0  0  0
 34 53  1  0  0  0  0
 34 54  1  0  0  0  0
M  END
$$$$
