CHEMBL3979610
 OpenBabel04072215373D

 28 30  0  0  0  0  0  0  0  0999 V2000
   -3.3939   -3.5731    4.2153 F   0  0  0  0  0  0  0  0  0  0  0  0
   -3.4173   -2.7352    3.1710 C   0  0  0  0  0  0  0  0  0  0  0  0
   -4.6162   -2.1524    2.7875 C   0  0  0  0  0  0  0  0  0  0  0  0
   -4.6332   -1.2553    1.7170 C   0  0  0  0  0  0  0  0  0  0  0  0
   -3.4488   -0.9012    1.0563 C   0  0  0  0  0  0  0  0  0  0  0  0
   -3.4046    0.0353   -0.0056 N   0  0  0  0  0  0  0  0  0  0  0  0
   -4.1879    1.2239   -0.0903 C   0  0  0  0  0  0  0  0  0  0  0  0
   -5.0562    1.5232    0.9067 N   0  0  0  0  0  0  0  0  0  0  0  0
   -5.7812    2.6750    0.9093 N   0  0  0  0  0  0  0  0  0  0  0  0
   -5.5848    3.5616   -0.0762 C   0  0  0  0  0  0  0  0  0  0  0  0
   -4.6921    3.3536   -1.1160 C   0  0  0  0  0  0  0  0  0  0  0  0
   -4.4970    4.3346   -2.1031 C   0  0  0  0  0  0  0  0  0  0  0  0
   -3.5904    4.1272   -3.1389 C   0  0  0  0  0  0  0  0  0  0  0  0
   -2.8794    2.9342   -3.2030 C   0  0  0  0  0  0  0  0  0  0  0  0
   -3.0617    1.9544   -2.2210 C   0  0  0  0  0  0  0  0  0  0  0  0
   -3.9702    2.1413   -1.1479 C   0  0  0  0  0  0  0  0  0  0  0  0
   -2.2640   -1.5606    1.4144 C   0  0  0  0  0  0  0  0  0  0  0  0
   -2.2424   -2.4617    2.4835 C   0  0  0  0  0  0  0  0  0  0  0  0
   -5.5287   -2.3817    3.3281 H   0  0  0  0  0  0  0  0  0  0  0  0
   -5.5852   -0.8166    1.4291 H   0  0  0  0  0  0  0  0  0  0  0  0
   -3.4380   -0.4527   -0.8961 H   0  0  0  0  0  0  0  0  0  0  0  0
   -6.1792    4.4658    0.0082 H   0  0  0  0  0  0  0  0  0  0  0  0
   -5.0404    5.2773   -2.0608 H   0  0  0  0  0  0  0  0  0  0  0  0
   -3.4361    4.8981   -3.8894 H   0  0  0  0  0  0  0  0  0  0  0  0
   -2.1701    2.7707   -4.0110 H   0  0  0  0  0  0  0  0  0  0  0  0
   -2.4713    1.0445   -2.2953 H   0  0  0  0  0  0  0  0  0  0  0  0
   -1.3351   -1.3288    0.8975 H   0  0  0  0  0  0  0  0  0  0  0  0
   -1.3166   -2.9347    2.7934 H   0  0  0  0  0  0  0  0  0  0  0  0
  1  2  1  0  0  0  0
  2  3  1  0  0  0  0
  2 18  2  0  0  0  0
  3  4  2  0  0  0  0
  3 19  1  0  0  0  0
  4  5  1  0  0  0  0
  4 20  1  0  0  0  0
  5  6  1  0  0  0  0
  5 17  2  0  0  0  0
  6  7  1  0  0  0  0
  6 21  1  0  0  0  0
  7  8  1  0  0  0  0
  7 16  2  0  0  0  0
  8  9  2  0  0  0  0
  9 10  1  0  0  0  0
 10 11  2  0  0  0  0
 10 22  1  0  0  0  0
 11 12  1  0  0  0  0
 11 16  1  0  0  0  0
 12 13  2  0  0  0  0
 12 23  1  0  0  0  0
 13 14  1  0  0  0  0
 13 24  1  0  0  0  0
 14 15  2  0  0  0  0
 14 25  1  0  0  0  0
 15 16  1  0  0  0  0
 15 26  1  0  0  0  0
 17 18  1  0  0  0  0
 17 27  1  0  0  0  0
 18 28  1  0  0  0  0
M  END
$$$$
