CHEMBL3929401
 OpenBabel04072215373D

 72 76  0  0  0  0  0  0  0  0999 V2000
    1.0052   -0.0819    0.4221 O   0  0  0  0  0  0  0  0  0  0  0  0
    2.1802   -0.0746    0.0752 C   0  0  0  0  0  0  0  0  0  0  0  0
    2.8052    1.0061   -0.5311 N   0  0  0  0  0  0  0  0  0  0  0  0
    2.2016    2.2505   -0.8426 C   0  0  0  0  0  0  0  0  0  0  0  0
    0.9454    2.6440   -0.3672 C   0  0  0  0  0  0  0  0  0  0  0  0
    0.3433    3.8594   -0.7262 C   0  0  0  0  0  0  0  0  0  0  0  0
   -0.8858    4.2313   -0.2231 N   0  0  0  0  0  0  0  0  0  0  0  0
   -1.2685    3.9350    1.1640 C   0  0  0  0  0  0  0  0  0  0  0  0
   -2.6002    3.1583    1.2046 C   0  0  0  0  0  0  0  0  0  0  0  0
   -3.7164    3.8193    0.4833 N   0  0  0  0  0  0  0  0  0  0  0  0
   -4.1310    5.0976    1.0953 C   0  0  0  0  0  0  0  0  0  0  0  0
   -4.6335    5.0023    2.5368 C   0  0  0  0  0  0  0  0  0  0  0  0
   -5.0146    6.2464    2.9440 F   0  0  0  0  0  0  0  0  0  0  0  0
   -3.2685    4.0387   -0.9191 C   0  0  0  0  0  0  0  0  0  0  0  0
   -1.9269    4.8058   -1.0867 C   0  0  0  0  0  0  0  0  0  0  0  0
    1.0463    4.6893   -1.6023 C   0  0  0  0  0  0  0  0  0  0  0  0
    2.3296    4.3528   -2.0606 C   0  0  0  0  0  0  0  0  0  0  0  0
    3.0987    5.3016   -2.9427 C   0  0  0  0  0  0  0  0  0  0  0  0
    2.4259    6.4482   -3.2388 F   0  0  0  0  0  0  0  0  0  0  0  0
    4.2726    5.6942   -2.3744 F   0  0  0  0  0  0  0  0  0  0  0  0
    3.4329    4.7448   -4.1394 F   0  0  0  0  0  0  0  0  0  0  0  0
    2.9009    3.1313   -1.6730 C   0  0  0  0  0  0  0  0  0  0  0  0
    3.0360   -1.1590    0.2101 N   0  0  0  0  0  0  0  0  0  0  0  0
    2.6829   -2.4516    0.6738 C   0  0  0  0  0  0  0  0  0  0  0  0
    1.3864   -2.8052    1.0596 C   0  0  0  0  0  0  0  0  0  0  0  0
    1.0845   -4.0987    1.4939 C   0  0  0  0  0  0  0  0  0  0  0  0
    2.0575   -5.0944    1.4729 C   0  0  0  0  0  0  0  0  0  0  0  0
    1.8030   -6.4097    1.8006 O   0  0  0  0  0  0  0  0  0  0  0  0
    0.5851   -6.9592    1.4382 C   0  0  0  0  0  0  0  0  0  0  0  0
   -0.1042   -6.5967    0.2849 C   0  0  0  0  0  0  0  0  0  0  0  0
   -1.3454   -7.1529    0.0771 C   0  0  0  0  0  0  0  0  0  0  0  0
   -1.8856   -8.0749    0.8909 N   0  0  0  0  0  0  0  0  0  0  0  0
   -1.1865   -8.4871    1.9613 C   0  0  0  0  0  0  0  0  0  0  0  0
   -1.7286   -9.4798    2.7937 N   0  0  0  0  0  0  0  0  0  0  0  0
   -2.9495  -10.0858    2.5764 C   0  0  0  0  0  0  0  0  0  0  0  0
   -3.7346   -9.8931    1.6607 O   0  0  0  0  0  0  0  0  0  0  0  0
   -3.3241  -11.0650    3.6449 C   0  0  0  0  0  0  0  0  0  0  0  0
   -4.5771  -11.9072    3.5026 C   0  0  0  0  0  0  0  0  0  0  0  0
   -4.5441  -10.7814    4.4930 C   0  0  0  0  0  0  0  0  0  0  0  0
    0.0578   -7.9472    2.2752 C   0  0  0  0  0  0  0  0  0  0  0  0
    3.3628   -4.7369    1.1287 C   0  0  0  0  0  0  0  0  0  0  0  0
    4.3409   -5.6560    1.1522 F   0  0  0  0  0  0  0  0  0  0  0  0
    3.6806   -3.4308    0.7355 C   0  0  0  0  0  0  0  0  0  0  0  0
    3.7216    0.8448   -0.9185 H   0  0  0  0  0  0  0  0  0  0  0  0
    0.3841    1.9881    0.2875 H   0  0  0  0  0  0  0  0  0  0  0  0
   -1.3702    4.8838    1.7043 H   0  0  0  0  0  0  0  0  0  0  0  0
   -0.5036    3.3726    1.7104 H   0  0  0  0  0  0  0  0  0  0  0  0
   -2.8799    2.9503    2.2426 H   0  0  0  0  0  0  0  0  0  0  0  0
   -2.4430    2.1699    0.7509 H   0  0  0  0  0  0  0  0  0  0  0  0
   -4.9511    5.5186    0.4997 H   0  0  0  0  0  0  0  0  0  0  0  0
   -3.3346    5.8498    1.0636 H   0  0  0  0  0  0  0  0  0  0  0  0
   -3.8554    4.6653    3.2245 H   0  0  0  0  0  0  0  0  0  0  0  0
   -5.5010    4.3393    2.6183 H   0  0  0  0  0  0  0  0  0  0  0  0
   -4.0562    4.5471   -1.4882 H   0  0  0  0  0  0  0  0  0  0  0  0
   -3.1596    3.0514   -1.3891 H   0  0  0  0  0  0  0  0  0  0  0  0
   -2.0598    5.8628   -0.8315 H   0  0  0  0  0  0  0  0  0  0  0  0
   -1.6472    4.7623   -2.1464 H   0  0  0  0  0  0  0  0  0  0  0  0
    0.6086    5.6426   -1.8955 H   0  0  0  0  0  0  0  0  0  0  0  0
    3.8922    2.8720   -2.0383 H   0  0  0  0  0  0  0  0  0  0  0  0
    4.0077   -1.0079   -0.0094 H   0  0  0  0  0  0  0  0  0  0  0  0
    0.5608   -2.1015    1.0328 H   0  0  0  0  0  0  0  0  0  0  0  0
    0.0654   -4.3113    1.8075 H   0  0  0  0  0  0  0  0  0  0  0  0
    0.2809   -5.8754   -0.4253 H   0  0  0  0  0  0  0  0  0  0  0  0
   -1.9652   -6.8628   -0.7657 H   0  0  0  0  0  0  0  0  0  0  0  0
   -1.1912   -9.7575    3.6008 H   0  0  0  0  0  0  0  0  0  0  0  0
   -2.4900  -11.5580    4.1333 H   0  0  0  0  0  0  0  0  0  0  0  0
   -4.5591  -12.9216    3.8800 H   0  0  0  0  0  0  0  0  0  0  0  0
   -5.1856  -11.7814    2.6116 H   0  0  0  0  0  0  0  0  0  0  0  0
   -4.5084  -11.0322    5.5464 H   0  0  0  0  0  0  0  0  0  0  0  0
   -5.1358   -9.8998    4.2636 H   0  0  0  0  0  0  0  0  0  0  0  0
    0.6135   -8.2690    3.1471 H   0  0  0  0  0  0  0  0  0  0  0  0
    4.7095   -3.2127    0.4671 H   0  0  0  0  0  0  0  0  0  0  0  0
  1  2  2  0  0  0  0
  2  3  1  0  0  0  0
  2 23  1  0  0  0  0
  3  4  1  0  0  0  0
  3 44  1  0  0  0  0
  4  5  1  0  0  0  0
  4 22  2  0  0  0  0
  5  6  2  0  0  0  0
  5 45  1  0  0  0  0
  6  7  1  0  0  0  0
  6 16  1  0  0  0  0
  7  8  1  0  0  0  0
  7 15  1  0  0  0  0
  8  9  1  0  0  0  0
  8 46  1  0  0  0  0
  8 47  1  0  0  0  0
  9 10  1  0  0  0  0
  9 48  1  0  0  0  0
  9 49  1  0  0  0  0
 10 11  1  0  0  0  0
 10 14  1  0  0  0  0
 11 12  1  0  0  0  0
 11 50  1  0  0  0  0
 11 51  1  0  0  0  0
 12 13  1  0  0  0  0
 12 52  1  0  0  0  0
 12 53  1  0  0  0  0
 14 15  1  0  0  0  0
 14 54  1  0  0  0  0
 14 55  1  0  0  0  0
 15 56  1  0  0  0  0
 15 57  1  0  0  0  0
 16 17  2  0  0  0  0
 16 58  1  0  0  0  0
 17 18  1  0  0  0  0
 17 22  1  0  0  0  0
 18 19  1  0  0  0  0
 18 20  1  0  0  0  0
 18 21  1  0  0  0  0
 22 59  1  0  0  0  0
 23 24  1  0  0  0  0
 23 60  1  0  0  0  0
 24 25  1  0  0  0  0
 24 43  2  0  0  0  0
 25 26  2  0  0  0  0
 25 61  1  0  0  0  0
 26 27  1  0  0  0  0
 26 62  1  0  0  0  0
 27 28  1  0  0  0  0
 27 41  2  0  0  0  0
 28 29  1  0  0  0  0
 29 30  1  0  0  0  0
 29 40  2  0  0  0  0
 30 31  2  0  0  0  0
 30 63  1  0  0  0  0
 31 32  1  0  0  0  0
 31 64  1  0  0  0  0
 32 33  2  0  0  0  0
 33 34  1  0  0  0  0
 33 40  1  0  0  0  0
 34 35  1  0  0  0  0
 34 65  1  0  0  0  0
 35 36  2  0  0  0  0
 35 37  1  0  0  0  0
 37 38  1  0  0  0  0
 37 39  1  0  0  0  0
 37 66  1  0  0  0  0
 38 39  1  0  0  0  0
 38 67  1  0  0  0  0
 38 68  1  0  0  0  0
 39 69  1  0  0  0  0
 39 70  1  0  0  0  0
 40 71  1  0  0  0  0
 41 42  1  0  0  0  0
 41 43  1  0  0  0  0
 43 72  1  0  0  0  0
M  END
$$$$
