CHEMBL1095130
 OpenBabel04072215363D

 41 44  0  0  0  0  0  0  0  0999 V2000
    1.1777    0.1988   -0.1345 N   0  0  0  0  0  0  0  0  0  0  0  0
    2.5575    0.1471   -0.1040 C   0  0  0  0  0  0  0  0  0  0  0  0
    3.0955   -1.0766   -0.0263 N   0  0  0  0  0  0  0  0  0  0  0  0
    4.4423   -1.2337   -0.0315 C   0  0  0  0  0  0  0  0  0  0  0  0
    5.0380   -2.5006    0.0427 N   0  0  0  0  0  0  0  0  0  0  0  0
    4.5013   -3.7363    0.4499 C   0  0  0  0  0  0  0  0  0  0  0  0
    3.1378   -4.0414    0.4251 C   0  0  0  0  0  0  0  0  0  0  0  0
    2.6665   -5.2561    0.9398 C   0  0  0  0  0  0  0  0  0  0  0  0
    3.5591   -6.1815    1.4692 C   0  0  0  0  0  0  0  0  0  0  0  0
    2.9690   -7.6497    2.1407 Cl  0  0  0  0  0  0  0  0  0  0  0  0
    4.9257   -5.9214    1.4695 C   0  0  0  0  0  0  0  0  0  0  0  0
    5.3783   -4.7106    0.9558 C   0  0  0  0  0  0  0  0  0  0  0  0
    6.6961   -4.4534    0.9780 F   0  0  0  0  0  0  0  0  0  0  0  0
    5.2249   -0.0705   -0.1148 C   0  0  0  0  0  0  0  0  0  0  0  0
    6.6117    0.2393   -0.1995 C   0  0  0  0  0  0  0  0  0  0  0  0
    6.7285    1.6052   -0.3881 C   0  0  0  0  0  0  0  0  0  0  0  0
    7.9101    2.4340   -0.7727 C   0  0  0  0  0  0  0  0  0  0  0  0
    8.7143    2.9346    0.4018 C   0  0  0  0  0  0  0  0  0  0  0  0
    9.7615    2.1339    0.8951 C   0  0  0  0  0  0  0  0  0  0  0  0
   10.5384    2.5585    1.9741 C   0  0  0  0  0  0  0  0  0  0  0  0
   10.2739    3.7861    2.5733 C   0  0  0  0  0  0  0  0  0  0  0  0
   11.2264    4.3058    3.9083 Cl  0  0  0  0  0  0  0  0  0  0  0  0
    9.2428    4.5946    2.1035 C   0  0  0  0  0  0  0  0  0  0  0  0
    8.4637    4.1686    1.0245 C   0  0  0  0  0  0  0  0  0  0  0  0
    7.1975    5.2181    0.4915 Cl  0  0  0  0  0  0  0  0  0  0  0  0
    5.4673    2.1413   -0.2404 N   0  0  0  0  0  0  0  0  0  0  0  0
    4.5447    1.1341   -0.1468 C   0  0  0  0  0  0  0  0  0  0  0  0
    3.2175    1.3076   -0.1243 N   0  0  0  0  0  0  0  0  0  0  0  0
    0.8008   -0.6542    0.2501 H   0  0  0  0  0  0  0  0  0  0  0  0
    0.8560    1.0718    0.2599 H   0  0  0  0  0  0  0  0  0  0  0  0
    6.0500   -2.4689    0.1004 H   0  0  0  0  0  0  0  0  0  0  0  0
    2.4180   -3.3440    0.0093 H   0  0  0  0  0  0  0  0  0  0  0  0
    1.5977   -5.4580    0.9272 H   0  0  0  0  0  0  0  0  0  0  0  0
    5.6365   -6.6316    1.8750 H   0  0  0  0  0  0  0  0  0  0  0  0
    7.4302   -0.4685   -0.2232 H   0  0  0  0  0  0  0  0  0  0  0  0
    7.5988    3.2635   -1.4175 H   0  0  0  0  0  0  0  0  0  0  0  0
    8.5624    1.8265   -1.4151 H   0  0  0  0  0  0  0  0  0  0  0  0
    9.9797    1.1712    0.4354 H   0  0  0  0  0  0  0  0  0  0  0  0
   11.3451    1.9278    2.3398 H   0  0  0  0  0  0  0  0  0  0  0  0
    9.0462    5.5533    2.5758 H   0  0  0  0  0  0  0  0  0  0  0  0
    5.2234    3.1217   -0.2868 H   0  0  0  0  0  0  0  0  0  0  0  0
  1  2  1  0  0  0  0
  1 29  1  0  0  0  0
  1 30  1  0  0  0  0
  2  3  1  0  0  0  0
  2 28  2  0  0  0  0
  3  4  2  0  0  0  0
  4  5  1  0  0  0  0
  4 14  1  0  0  0  0
  5  6  1  0  0  0  0
  5 31  1  0  0  0  0
  6  7  1  0  0  0  0
  6 12  2  0  0  0  0
  7  8  2  0  0  0  0
  7 32  1  0  0  0  0
  8  9  1  0  0  0  0
  8 33  1  0  0  0  0
  9 10  1  0  0  0  0
  9 11  2  0  0  0  0
 11 12  1  0  0  0  0
 11 34  1  0  0  0  0
 12 13  1  0  0  0  0
 14 15  1  0  0  0  0
 14 27  2  0  0  0  0
 15 16  2  0  0  0  0
 15 35  1  0  0  0  0
 16 17  1  0  0  0  0
 16 26  1  0  0  0  0
 17 18  1  0  0  0  0
 17 36  1  0  0  0  0
 17 37  1  0  0  0  0
 18 19  1  0  0  0  0
 18 24  2  0  0  0  0
 19 20  2  0  0  0  0
 19 38  1  0  0  0  0
 20 21  1  0  0  0  0
 20 39  1  0  0  0  0
 21 22  1  0  0  0  0
 21 23  2  0  0  0  0
 23 24  1  0  0  0  0
 23 40  1  0  0  0  0
 24 25  1  0  0  0  0
 26 27  1  0  0  0  0
 26 41  1  0  0  0  0
 27 28  1  0  0  0  0
M  END
$$$$
