CHEMBL1980904
 OpenBabel04072215363D

 46 49  0  0  0  0  0  0  0  0999 V2000
    2.1897    1.4568   -1.5554 N   0  0  0  0  0  0  0  0  0  0  0  0
    1.3435    0.4478   -1.2993 C   0  0  0  0  0  0  0  0  0  0  0  0
    1.6693   -0.7908   -1.6554 N   0  0  0  0  0  0  0  0  0  0  0  0
    0.6461   -1.5263   -1.2215 N   0  0  0  0  0  0  0  0  0  0  0  0
   -0.3455   -0.8105   -0.6085 C   0  0  0  0  0  0  0  0  0  0  0  0
   -1.5384   -1.2532   -0.0318 C   0  0  0  0  0  0  0  0  0  0  0  0
   -2.3776   -0.2890    0.5103 C   0  0  0  0  0  0  0  0  0  0  0  0
   -2.0238    1.0580    0.4776 C   0  0  0  0  0  0  0  0  0  0  0  0
   -0.8003    1.5181   -0.0762 C   0  0  0  0  0  0  0  0  0  0  0  0
   -0.4605    2.9585   -0.0165 C   0  0  0  0  0  0  0  0  0  0  0  0
    0.1462    3.6262   -1.0855 C   0  0  0  0  0  0  0  0  0  0  0  0
    0.5647    4.9594   -0.9824 C   0  0  0  0  0  0  0  0  0  0  0  0
    0.3019    5.7082    0.1631 C   0  0  0  0  0  0  0  0  0  0  0  0
    0.7120    7.0560    0.3234 N   0  0  0  0  0  0  0  0  0  0  0  0
    1.6695    7.6857   -0.4409 C   0  0  0  0  0  0  0  0  0  0  0  0
    2.2890    7.1564   -1.3612 O   0  0  0  0  0  0  0  0  0  0  0  0
    1.9137    8.9878   -0.0328 N   0  0  0  0  0  0  0  0  0  0  0  0
    2.9036    9.7578   -0.6805 C   0  0  0  0  0  0  0  0  0  0  0  0
    3.8479   10.4304    0.0988 C   0  0  0  0  0  0  0  0  0  0  0  0
    4.8992   11.1133   -0.5127 C   0  0  0  0  0  0  0  0  0  0  0  0
    4.9885   11.1699   -1.9047 C   0  0  0  0  0  0  0  0  0  0  0  0
    4.0293   10.5369   -2.7012 C   0  0  0  0  0  0  0  0  0  0  0  0
    4.1003   10.5959   -4.2101 C   0  0  0  0  0  0  0  0  0  0  0  0
    5.1719   11.3063   -4.6724 F   0  0  0  0  0  0  0  0  0  0  0  0
    4.1969    9.3685   -4.7899 F   0  0  0  0  0  0  0  0  0  0  0  0
    3.0049   11.1882   -4.7643 F   0  0  0  0  0  0  0  0  0  0  0  0
    2.9902    9.8298   -2.0808 C   0  0  0  0  0  0  0  0  0  0  0  0
   -0.4052    5.0876    1.1928 C   0  0  0  0  0  0  0  0  0  0  0  0
   -0.7165    5.7811    2.2994 F   0  0  0  0  0  0  0  0  0  0  0  0
   -0.7582    3.7346    1.1205 C   0  0  0  0  0  0  0  0  0  0  0  0
    0.0631    0.5283   -0.6480 C   0  0  0  0  0  0  0  0  0  0  0  0
    3.1043    1.1835   -1.8973 H   0  0  0  0  0  0  0  0  0  0  0  0
    2.2231    2.2597   -0.9404 H   0  0  0  0  0  0  0  0  0  0  0  0
    0.6817   -2.5281   -1.3675 H   0  0  0  0  0  0  0  0  0  0  0  0
   -1.8060   -2.3048   -0.0082 H   0  0  0  0  0  0  0  0  0  0  0  0
   -3.3193   -0.5877    0.9651 H   0  0  0  0  0  0  0  0  0  0  0  0
   -2.7295    1.7736    0.8982 H   0  0  0  0  0  0  0  0  0  0  0  0
    0.3345    3.1120   -2.0269 H   0  0  0  0  0  0  0  0  0  0  0  0
    1.0817    5.3808   -1.8388 H   0  0  0  0  0  0  0  0  0  0  0  0
    0.3403    7.5388    1.1308 H   0  0  0  0  0  0  0  0  0  0  0  0
    1.8007    9.1475    0.9578 H   0  0  0  0  0  0  0  0  0  0  0  0
    3.8191   10.3675    1.1820 H   0  0  0  0  0  0  0  0  0  0  0  0
    5.6650   11.5853    0.0985 H   0  0  0  0  0  0  0  0  0  0  0  0
    5.8189   11.7034   -2.3631 H   0  0  0  0  0  0  0  0  0  0  0  0
    2.2454    9.3207   -2.6929 H   0  0  0  0  0  0  0  0  0  0  0  0
   -1.2593    3.2974    1.9794 H   0  0  0  0  0  0  0  0  0  0  0  0
  1  2  1  0  0  0  0
  1 32  1  0  0  0  0
  1 33  1  0  0  0  0
  2  3  2  0  0  0  0
  2 31  1  0  0  0  0
  3  4  1  0  0  0  0
  4  5  1  0  0  0  0
  4 34  1  0  0  0  0
  5  6  1  0  0  0  0
  5 31  2  0  0  0  0
  6  7  2  0  0  0  0
  6 35  1  0  0  0  0
  7  8  1  0  0  0  0
  7 36  1  0  0  0  0
  8  9  2  0  0  0  0
  8 37  1  0  0  0  0
  9 10  1  0  0  0  0
  9 31  1  0  0  0  0
 10 11  1  0  0  0  0
 10 30  2  0  0  0  0
 11 12  2  0  0  0  0
 11 38  1  0  0  0  0
 12 13  1  0  0  0  0
 12 39  1  0  0  0  0
 13 14  1  0  0  0  0
 13 28  2  0  0  0  0
 14 15  1  0  0  0  0
 14 40  1  0  0  0  0
 15 16  2  0  0  0  0
 15 17  1  0  0  0  0
 17 18  1  0  0  0  0
 17 41  1  0  0  0  0
 18 19  1  0  0  0  0
 18 27  2  0  0  0  0
 19 20  2  0  0  0  0
 19 42  1  0  0  0  0
 20 21  1  0  0  0  0
 20 43  1  0  0  0  0
 21 22  2  0  0  0  0
 21 44  1  0  0  0  0
 22 23  1  0  0  0  0
 22 27  1  0  0  0  0
 23 24  1  0  0  0  0
 23 25  1  0  0  0  0
 23 26  1  0  0  0  0
 27 45  1  0  0  0  0
 28 29  1  0  0  0  0
 28 30  1  0  0  0  0
 30 46  1  0  0  0  0
M  END
$$$$
