CHEMBL3918309
 OpenBabel04072215373D

 49 52  0  0  0  0  0  0  0  0999 V2000
    8.3918   -0.1893   -2.0563 C   0  0  0  0  0  0  0  0  0  0  0  0
    7.2941   -1.0534   -1.6964 N   0  0  0  0  0  0  0  0  0  0  0  0
    5.9618   -0.7769   -1.8016 C   0  0  0  0  0  0  0  0  0  0  0  0
    5.3177   -1.9132   -1.3793 C   0  0  0  0  0  0  0  0  0  0  0  0
    3.9839   -2.1016   -1.3659 N   0  0  0  0  0  0  0  0  0  0  0  0
    3.2524   -3.1435   -0.7934 C   0  0  0  0  0  0  0  0  0  0  0  0
    1.9819   -3.2622   -1.2017 N   0  0  0  0  0  0  0  0  0  0  0  0
    1.2464   -4.2252   -0.6036 C   0  0  0  0  0  0  0  0  0  0  0  0
    1.7010   -5.0294    0.4209 C   0  0  0  0  0  0  0  0  0  0  0  0
    0.6057   -6.0975    1.1954 Cl  0  0  0  0  0  0  0  0  0  0  0  0
    3.0240   -4.8577    0.7790 C   0  0  0  0  0  0  0  0  0  0  0  0
    3.6971   -5.5927    1.9244 C   0  0  0  0  0  0  0  0  0  0  0  0
    3.8527   -7.1054    1.7080 C   0  0  0  0  0  0  0  0  0  0  0  0
    4.5812   -7.8339    2.8287 C   0  0  0  0  0  0  0  0  0  0  0  0
    3.8218   -8.2192    3.9537 C   0  0  0  0  0  0  0  0  0  0  0  0
    4.3713   -8.9835    4.9837 C   0  0  0  0  0  0  0  0  0  0  0  0
    5.7029   -9.3727    4.9101 C   0  0  0  0  0  0  0  0  0  0  0  0
    6.4676   -8.9862    3.8167 C   0  0  0  0  0  0  0  0  0  0  0  0
    5.9395   -8.2223    2.7415 C   0  0  0  0  0  0  0  0  0  0  0  0
    6.8540   -7.9738    1.5308 C   0  0  0  0  0  0  0  0  0  0  0  0
    6.7608   -9.0054    0.4359 C   0  0  0  0  0  0  0  0  0  0  0  0
    7.6750  -10.0159    0.4962 N   0  0  0  0  0  0  0  0  0  0  0  0
    5.9235   -8.9356   -0.4537 O   0  0  0  0  0  0  0  0  0  0  0  0
    8.2366   -7.3770    1.8467 C   0  0  0  0  0  0  0  0  0  0  0  0
    7.2372   -6.5648    1.0950 C   0  0  0  0  0  0  0  0  0  0  0  0
    3.7985   -3.9257    0.1584 N   0  0  0  0  0  0  0  0  0  0  0  0
    6.3457   -2.8118   -1.0357 C   0  0  0  0  0  0  0  0  0  0  0  0
    7.5560   -2.2830   -1.2273 N   0  0  0  0  0  0  0  0  0  0  0  0
    8.0143    0.8005   -2.3104 H   0  0  0  0  0  0  0  0  0  0  0  0
    8.9020   -0.6315   -2.9192 H   0  0  0  0  0  0  0  0  0  0  0  0
    9.0757   -0.1247   -1.2055 H   0  0  0  0  0  0  0  0  0  0  0  0
    5.6011    0.1771   -2.1556 H   0  0  0  0  0  0  0  0  0  0  0  0
    3.3473   -1.4769   -1.8431 H   0  0  0  0  0  0  0  0  0  0  0  0
    0.2319   -4.3136   -0.9820 H   0  0  0  0  0  0  0  0  0  0  0  0
    3.1506   -5.3771    2.8510 H   0  0  0  0  0  0  0  0  0  0  0  0
    4.6925   -5.1547    2.0703 H   0  0  0  0  0  0  0  0  0  0  0  0
    4.3341   -7.2982    0.7469 H   0  0  0  0  0  0  0  0  0  0  0  0
    2.8663   -7.5747    1.6181 H   0  0  0  0  0  0  0  0  0  0  0  0
    2.7696   -7.9391    4.0311 H   0  0  0  0  0  0  0  0  0  0  0  0
    3.7578   -9.3042    5.8247 H   0  0  0  0  0  0  0  0  0  0  0  0
    6.1395   -9.9905    5.6923 H   0  0  0  0  0  0  0  0  0  0  0  0
    7.5000   -9.3204    3.7730 H   0  0  0  0  0  0  0  0  0  0  0  0
    8.3726  -10.0724    1.2219 H   0  0  0  0  0  0  0  0  0  0  0  0
    7.6623  -10.7060   -0.2411 H   0  0  0  0  0  0  0  0  0  0  0  0
    9.1016   -7.7486    1.3104 H   0  0  0  0  0  0  0  0  0  0  0  0
    8.4598   -7.0554    2.8590 H   0  0  0  0  0  0  0  0  0  0  0  0
    7.4287   -6.3950    0.0389 H   0  0  0  0  0  0  0  0  0  0  0  0
    6.8180   -5.7048    1.5985 H   0  0  0  0  0  0  0  0  0  0  0  0
    6.2653   -3.8270   -0.6739 H   0  0  0  0  0  0  0  0  0  0  0  0
  1  2  1  0  0  0  0
  1 29  1  0  0  0  0
  1 30  1  0  0  0  0
  1 31  1  0  0  0  0
  2  3  1  0  0  0  0
  2 28  1  0  0  0  0
  3  4  2  0  0  0  0
  3 32  1  0  0  0  0
  4  5  1  0  0  0  0
  4 27  1  0  0  0  0
  5  6  1  0  0  0  0
  5 33  1  0  0  0  0
  6  7  1  0  0  0  0
  6 26  2  0  0  0  0
  7  8  2  0  0  0  0
  8  9  1  0  0  0  0
  8 34  1  0  0  0  0
  9 10  1  0  0  0  0
  9 11  2  0  0  0  0
 11 12  1  0  0  0  0
 11 26  1  0  0  0  0
 12 13  1  0  0  0  0
 12 35  1  0  0  0  0
 12 36  1  0  0  0  0
 13 14  1  0  0  0  0
 13 37  1  0  0  0  0
 13 38  1  0  0  0  0
 14 15  1  0  0  0  0
 14 19  2  0  0  0  0
 15 16  2  0  0  0  0
 15 39  1  0  0  0  0
 16 17  1  0  0  0  0
 16 40  1  0  0  0  0
 17 18  2  0  0  0  0
 17 41  1  0  0  0  0
 18 19  1  0  0  0  0
 18 42  1  0  0  0  0
 19 20  1  0  0  0  0
 20 21  1  0  0  0  0
 20 24  1  0  0  0  0
 20 25  1  0  0  0  0
 21 22  1  0  0  0  0
 21 23  2  0  0  0  0
 22 43  1  0  0  0  0
 22 44  1  0  0  0  0
 24 25  1  0  0  0  0
 24 45  1  0  0  0  0
 24 46  1  0  0  0  0
 25 47  1  0  0  0  0
 25 48  1  0  0  0  0
 27 28  2  0  0  0  0
 27 49  1  0  0  0  0
M  END
$$$$
