CHEMBL1084062
 OpenBabel04072215363D

 64 70  0  0  1  0  0  0  0  0999 V2000
    2.8564   -0.7459   -1.0090 C   0  0  0  0  0  0  0  0  0  0  0  0
    1.9703   -0.6553    0.2383 C   0  0  0  0  0  0  0  0  0  0  0  0
    0.5170   -0.3737   -0.1413 C   0  0  0  0  0  0  0  0  0  0  0  0
    2.1883   -1.7988    1.1358 N   0  0  0  0  0  0  0  0  0  0  0  0
    3.1801   -1.7767    2.1578 C   0  0  0  0  0  0  0  0  0  0  0  0
    3.9976   -0.7419    2.6630 C   0  0  0  0  0  0  0  0  0  0  0  0
    4.9569   -1.0467    3.6558 C   0  0  0  0  0  0  0  0  0  0  0  0
    5.1204   -2.3389    4.1653 C   0  0  0  0  0  0  0  0  0  0  0  0
    6.0475   -2.7253    5.3135 C   0  0  3  0  0  0  0  0  0  0  0  0
    6.9488   -1.6474    5.9179 C   0  0  0  0  0  0  0  0  0  0  0  0
    8.1737   -1.3758    5.0555 C   0  0  0  0  0  0  0  0  0  0  0  0
    8.9041   -2.6753    4.7540 C   0  0  0  0  0  0  0  0  0  0  0  0
    7.9507   -3.7266    4.2030 C   0  0  0  0  0  0  0  0  0  0  0  0
    6.8082   -3.9163    5.0359 O   0  0  0  0  0  0  0  0  0  0  0  0
    4.3092   -3.3500    3.6339 C   0  0  0  0  0  0  0  0  0  0  0  0
    3.3728   -3.0871    2.6192 C   0  0  0  0  0  0  0  0  0  0  0  0
    2.5729   -3.8110    1.7719 C   0  0  0  0  0  0  0  0  0  0  0  0
    2.8008   -5.1826    1.5492 C   0  0  0  0  0  0  0  0  0  0  0  0
    2.3706   -5.6570    0.3044 C   0  0  0  0  0  0  0  0  0  0  0  0
    1.5912   -4.9144   -0.6020 C   0  0  0  0  0  0  0  0  0  0  0  0
    0.9211   -3.8088    0.0244 C   0  0  0  0  0  0  0  0  0  0  0  0
    1.7442   -3.1139    0.9398 C   0  0  0  0  0  0  0  0  0  0  0  0
   -0.5988   -4.1513    0.3435 C   0  0  0  0  0  0  0  0  0  0  0  0
   -1.0001   -5.6657    0.1060 C   0  0  0  0  0  0  0  0  0  0  0  0
   -0.4911   -6.0344   -1.2416 C   0  0  0  0  0  0  0  0  0  0  0  0
   -1.1860   -6.4480   -2.2999 N   0  0  0  0  0  0  0  0  0  0  0  0
   -0.3116   -6.2479   -3.3201 N   0  0  0  0  0  0  0  0  0  0  0  0
   -0.7394   -6.4596   -4.6810 C   0  0  0  0  0  0  0  0  0  0  0  0
    0.8617   -5.6462   -2.9350 C   0  0  0  0  0  0  0  0  0  0  0  0
    0.8146   -5.6420   -1.5682 C   0  0  0  0  0  0  0  0  0  0  0  0
    2.7311   -7.0571    0.2494 C   0  0  0  0  0  0  0  0  0  0  0  0
    2.5927   -7.9263   -0.6013 O   0  0  0  0  0  0  0  0  0  0  0  0
    3.2895   -7.3247    1.4844 N   0  0  0  0  0  0  0  0  0  0  0  0
    3.4688   -6.1954    2.3568 C   0  0  0  0  0  0  0  0  0  0  0  0
    2.7044    0.1225   -1.6609 H   0  0  0  0  0  0  0  0  0  0  0  0
    2.6454   -1.6471   -1.5928 H   0  0  0  0  0  0  0  0  0  0  0  0
    3.9173   -0.7641   -0.7346 H   0  0  0  0  0  0  0  0  0  0  0  0
    2.2959    0.2326    0.7940 H   0  0  0  0  0  0  0  0  0  0  0  0
    0.0413   -1.2179   -0.6443 H   0  0  0  0  0  0  0  0  0  0  0  0
    0.4658    0.4843   -0.8248 H   0  0  0  0  0  0  0  0  0  0  0  0
   -0.0738   -0.1172    0.7437 H   0  0  0  0  0  0  0  0  0  0  0  0
    3.9234    0.2770    2.2944 H   0  0  0  0  0  0  0  0  0  0  0  0
    5.5714   -0.2276    4.0229 H   0  0  0  0  0  0  0  0  0  0  0  0
    5.3610   -3.0211    6.1192 H   0  0  0  0  0  0  0  0  0  0  0  0
    7.3058   -2.0150    6.8900 H   0  0  0  0  0  0  0  0  0  0  0  0
    6.3949   -0.7248    6.1169 H   0  0  0  0  0  0  0  0  0  0  0  0
    8.8435   -0.6813    5.5739 H   0  0  0  0  0  0  0  0  0  0  0  0
    7.8799   -0.8963    4.1158 H   0  0  0  0  0  0  0  0  0  0  0  0
    9.3552   -3.0471    5.6825 H   0  0  0  0  0  0  0  0  0  0  0  0
    9.7206   -2.4958    4.0460 H   0  0  0  0  0  0  0  0  0  0  0  0
    8.4764   -4.6875    4.1512 H   0  0  0  0  0  0  0  0  0  0  0  0
    7.6293   -3.4815    3.1855 H   0  0  0  0  0  0  0  0  0  0  0  0
    4.4242   -4.3569    4.0225 H   0  0  0  0  0  0  0  0  0  0  0  0
   -1.2206   -3.5244   -0.3042 H   0  0  0  0  0  0  0  0  0  0  0  0
   -0.8154   -3.9024    1.3884 H   0  0  0  0  0  0  0  0  0  0  0  0
   -2.0751   -5.8326    0.2059 H   0  0  0  0  0  0  0  0  0  0  0  0
   -0.5022   -6.3016    0.8557 H   0  0  0  0  0  0  0  0  0  0  0  0
   -1.6380   -7.0810   -4.6869 H   0  0  0  0  0  0  0  0  0  0  0  0
    0.0651   -6.9596   -5.2252 H   0  0  0  0  0  0  0  0  0  0  0  0
   -0.9522   -5.4829   -5.1233 H   0  0  0  0  0  0  0  0  0  0  0  0
    1.5679   -5.2490   -3.6502 H   0  0  0  0  0  0  0  0  0  0  0  0
    3.5504   -8.2723    1.7104 H   0  0  0  0  0  0  0  0  0  0  0  0
    4.5366   -6.0179    2.4782 H   0  0  0  0  0  0  0  0  0  0  0  0
    2.9584   -6.3720    3.3068 H   0  0  0  0  0  0  0  0  0  0  0  0
  1  2  1  0  0  0  0
  1 35  1  0  0  0  0
  1 36  1  0  0  0  0
  1 37  1  0  0  0  0
  2  3  1  0  0  0  0
  2  4  1  0  0  0  0
  2 38  1  0  0  0  0
  3 39  1  0  0  0  0
  3 40  1  0  0  0  0
  3 41  1  0  0  0  0
  4  5  1  0  0  0  0
  4 22  1  0  0  0  0
  5  6  1  0  0  0  0
  5 16  2  0  0  0  0
  6  7  2  0  0  0  0
  6 42  1  0  0  0  0
  7  8  1  0  0  0  0
  7 43  1  0  0  0  0
  8  9  1  0  0  0  0
  8 15  2  0  0  0  0
  9 10  1  0  0  0  0
  9 14  1  0  0  0  0
  9 44  1  0  0  0  0
 10 11  1  0  0  0  0
 10 45  1  0  0  0  0
 10 46  1  0  0  0  0
 11 12  1  0  0  0  0
 11 47  1  0  0  0  0
 11 48  1  0  0  0  0
 12 13  1  0  0  0  0
 12 49  1  0  0  0  0
 12 50  1  0  0  0  0
 13 14  1  0  0  0  0
 13 51  1  0  0  0  0
 13 52  1  0  0  0  0
 15 16  1  0  0  0  0
 15 53  1  0  0  0  0
 16 17  1  0  0  0  0
 17 18  1  0  0  0  0
 17 22  2  0  0  0  0
 18 19  2  0  0  0  0
 18 34  1  0  0  0  0
 19 20  1  0  0  0  0
 19 31  1  0  0  0  0
 20 21  2  0  0  0  0
 20 30  1  0  0  0  0
 21 22  1  0  0  0  0
 21 23  1  0  0  0  0
 23 24  1  0  0  0  0
 23 54  1  0  0  0  0
 23 55  1  0  0  0  0
 24 25  1  0  0  0  0
 24 56  1  0  0  0  0
 24 57  1  0  0  0  0
 25 26  2  0  0  0  0
 25 30  1  0  0  0  0
 26 27  1  0  0  0  0
 27 28  1  0  0  0  0
 27 29  1  0  0  0  0
 28 58  1  0  0  0  0
 28 59  1  0  0  0  0
 28 60  1  0  0  0  0
 29 30  2  0  0  0  0
 29 61  1  0  0  0  0
 31 32  2  0  0  0  0
 31 33  1  0  0  0  0
 33 34  1  0  0  0  0
 33 62  1  0  0  0  0
 34 63  1  0  0  0  0
 34 64  1  0  0  0  0
M  END
$$$$
