CHEMBL452569
 OpenBabel04072215383D

 62 66  0  0  0  0  0  0  0  0999 V2000
    2.0552   -5.4603   -5.0160 C   0  0  0  0  0  0  0  0  0  0  0  0
    3.1713   -4.6953   -4.5714 O   0  0  0  0  0  0  0  0  0  0  0  0
    3.6714   -5.0015   -3.3354 C   0  0  0  0  0  0  0  0  0  0  0  0
    3.1654   -5.9638   -2.4640 C   0  0  0  0  0  0  0  0  0  0  0  0
    3.7892   -6.2132   -1.2319 C   0  0  0  0  0  0  0  0  0  0  0  0
    4.9255   -5.5018   -0.8468 C   0  0  0  0  0  0  0  0  0  0  0  0
    5.6004   -5.7215    0.3739 N   0  0  0  0  0  0  0  0  0  0  0  0
    5.4468   -6.7821    1.2742 C   0  0  0  0  0  0  0  0  0  0  0  0
    4.7375   -7.7662    1.1201 O   0  0  0  0  0  0  0  0  0  0  0  0
    6.2040   -6.5311    2.4005 N   0  0  0  0  0  0  0  0  0  0  0  0
    6.3896   -7.3778    3.4762 C   0  0  0  0  0  0  0  0  0  0  0  0
    6.3069   -6.7894    4.6737 N   0  0  0  0  0  0  0  0  0  0  0  0
    6.7343   -7.7224    5.5323 N   0  0  0  0  0  0  0  0  0  0  0  0
    6.8702   -7.3882    6.9295 C   0  0  0  0  0  0  0  0  0  0  0  0
    7.2462   -8.8394    4.9308 C   0  0  0  0  0  0  0  0  0  0  0  0
    8.0059   -9.8945    5.4655 C   0  0  0  0  0  0  0  0  0  0  0  0
    8.5278  -10.8286    4.5788 C   0  0  0  0  0  0  0  0  0  0  0  0
    9.3817  -11.8437    4.9596 O   0  0  0  0  0  0  0  0  0  0  0  0
   10.3655  -11.6797    5.9287 C   0  0  0  0  0  0  0  0  0  0  0  0
   10.9462  -10.4575    6.2702 C   0  0  0  0  0  0  0  0  0  0  0  0
   11.9553  -10.4599    7.2296 C   0  0  0  0  0  0  0  0  0  0  0  0
   12.4491  -11.5677    7.8001 N   0  0  0  0  0  0  0  0  0  0  0  0
   11.9493  -12.7550    7.4153 C   0  0  0  0  0  0  0  0  0  0  0  0
   12.5345  -13.9026    7.9260 C   0  0  0  0  0  0  0  0  0  0  0  0
   12.1184  -15.1927    7.5571 C   0  0  0  0  0  0  0  0  0  0  0  0
   12.7603  -16.3234    7.9853 O   0  0  0  0  0  0  0  0  0  0  0  0
   13.5678  -16.2272    9.1521 C   0  0  0  0  0  0  0  0  0  0  0  0
   11.0387  -15.3198    6.6744 C   0  0  0  0  0  0  0  0  0  0  0  0
   10.4513  -16.4612    6.1972 O   0  0  0  0  0  0  0  0  0  0  0  0
   11.0360  -17.7142    6.5142 C   0  0  0  0  0  0  0  0  0  0  0  0
   10.4248  -14.1623    6.1740 C   0  0  0  0  0  0  0  0  0  0  0  0
   10.8872  -12.8688    6.4988 C   0  0  0  0  0  0  0  0  0  0  0  0
    8.1112  -10.8103    3.2409 C   0  0  0  0  0  0  0  0  0  0  0  0
    7.3028   -9.7669    2.7231 C   0  0  0  0  0  0  0  0  0  0  0  0
    6.9207   -8.7100    3.5772 C   0  0  0  0  0  0  0  0  0  0  0  0
    5.4114   -4.5069   -1.7079 C   0  0  0  0  0  0  0  0  0  0  0  0
    4.7914   -4.2668   -2.9434 C   0  0  0  0  0  0  0  0  0  0  0  0
    1.8402   -5.1787   -6.0519 H   0  0  0  0  0  0  0  0  0  0  0  0
    1.1677   -5.2332   -4.4157 H   0  0  0  0  0  0  0  0  0  0  0  0
    2.2734   -6.5336   -5.0080 H   0  0  0  0  0  0  0  0  0  0  0  0
    2.2852   -6.5506   -2.7070 H   0  0  0  0  0  0  0  0  0  0  0  0
    3.3535   -6.9685   -0.5856 H   0  0  0  0  0  0  0  0  0  0  0  0
    6.4025   -5.1320    0.5493 H   0  0  0  0  0  0  0  0  0  0  0  0
    6.1058   -5.5853    2.7392 H   0  0  0  0  0  0  0  0  0  0  0  0
    6.2271   -6.5381    7.1650 H   0  0  0  0  0  0  0  0  0  0  0  0
    7.9191   -7.1353    7.1046 H   0  0  0  0  0  0  0  0  0  0  0  0
    6.5777   -8.2539    7.5287 H   0  0  0  0  0  0  0  0  0  0  0  0
    8.2364   -9.9307    6.5240 H   0  0  0  0  0  0  0  0  0  0  0  0
   10.6519   -9.5219    5.8229 H   0  0  0  0  0  0  0  0  0  0  0  0
   12.4174   -9.5339    7.5554 H   0  0  0  0  0  0  0  0  0  0  0  0
   13.3756  -13.7662    8.6002 H   0  0  0  0  0  0  0  0  0  0  0  0
   13.9222  -17.2340    9.3940 H   0  0  0  0  0  0  0  0  0  0  0  0
   12.9807  -15.8632   10.0011 H   0  0  0  0  0  0  0  0  0  0  0  0
   14.4522  -15.6055    8.9815 H   0  0  0  0  0  0  0  0  0  0  0  0
   10.4489  -18.4902    6.0127 H   0  0  0  0  0  0  0  0  0  0  0  0
   10.9839  -17.9178    7.5883 H   0  0  0  0  0  0  0  0  0  0  0  0
   12.0584  -17.7840    6.1288 H   0  0  0  0  0  0  0  0  0  0  0  0
    9.5821  -14.2767    5.4947 H   0  0  0  0  0  0  0  0  0  0  0  0
    8.4395  -11.6050    2.5727 H   0  0  0  0  0  0  0  0  0  0  0  0
    7.0283   -9.7616    1.6710 H   0  0  0  0  0  0  0  0  0  0  0  0
    6.2799   -3.9097   -1.4437 H   0  0  0  0  0  0  0  0  0  0  0  0
    5.1902   -3.5020   -3.6108 H   0  0  0  0  0  0  0  0  0  0  0  0
  1  2  1  0  0  0  0
  1 38  1  0  0  0  0
  1 39  1  0  0  0  0
  1 40  1  0  0  0  0
  2  3  1  0  0  0  0
  3  4  1  0  0  0  0
  3 37  2  0  0  0  0
  4  5  2  0  0  0  0
  4 41  1  0  0  0  0
  5  6  1  0  0  0  0
  5 42  1  0  0  0  0
  6  7  1  0  0  0  0
  6 36  2  0  0  0  0
  7  8  1  0  0  0  0
  7 43  1  0  0  0  0
  8  9  2  0  0  0  0
  8 10  1  0  0  0  0
 10 11  1  0  0  0  0
 10 44  1  0  0  0  0
 11 12  2  0  0  0  0
 11 35  1  0  0  0  0
 12 13  1  0  0  0  0
 13 14  1  0  0  0  0
 13 15  1  0  0  0  0
 14 45  1  0  0  0  0
 14 46  1  0  0  0  0
 14 47  1  0  0  0  0
 15 16  1  0  0  0  0
 15 35  2  0  0  0  0
 16 17  2  0  0  0  0
 16 48  1  0  0  0  0
 17 18  1  0  0  0  0
 17 33  1  0  0  0  0
 18 19  1  0  0  0  0
 19 20  1  0  0  0  0
 19 32  2  0  0  0  0
 20 21  2  0  0  0  0
 20 49  1  0  0  0  0
 21 22  1  0  0  0  0
 21 50  1  0  0  0  0
 22 23  2  0  0  0  0
 23 24  1  0  0  0  0
 23 32  1  0  0  0  0
 24 25  2  0  0  0  0
 24 51  1  0  0  0  0
 25 26  1  0  0  0  0
 25 28  1  0  0  0  0
 26 27  1  0  0  0  0
 27 52  1  0  0  0  0
 27 53  1  0  0  0  0
 27 54  1  0  0  0  0
 28 29  1  0  0  0  0
 28 31  2  0  0  0  0
 29 30  1  0  0  0  0
 30 55  1  0  0  0  0
 30 56  1  0  0  0  0
 30 57  1  0  0  0  0
 31 32  1  0  0  0  0
 31 58  1  0  0  0  0
 33 34  2  0  0  0  0
 33 59  1  0  0  0  0
 34 35  1  0  0  0  0
 34 60  1  0  0  0  0
 36 37  1  0  0  0  0
 36 61  1  0  0  0  0
 37 62  1  0  0  0  0
M  END
$$$$
