CHEMBL3897945
 OpenBabel04072215373D

 60 63  0  0  0  0  0  0  0  0999 V2000
    2.8090    0.7499   -2.4294 C   0  0  0  0  0  0  0  0  0  0  0  0
    1.4003    0.4991   -1.9716 C   0  0  0  0  0  0  0  0  0  0  0  0
    0.8720   -0.7934   -2.0499 C   0  0  0  0  0  0  0  0  0  0  0  0
   -0.4177   -1.0429   -1.6016 C   0  0  0  0  0  0  0  0  0  0  0  0
   -1.1938   -0.0063   -1.0879 C   0  0  0  0  0  0  0  0  0  0  0  0
   -2.3650   -0.3690   -0.5522 F   0  0  0  0  0  0  0  0  0  0  0  0
   -0.7238    1.3169   -1.0483 C   0  0  0  0  0  0  0  0  0  0  0  0
   -1.4945    2.4349   -0.6161 N   0  0  0  0  0  0  0  0  0  0  0  0
   -2.8749    2.4702   -0.5513 C   0  0  0  0  0  0  0  0  0  0  0  0
   -3.6177    1.5627   -0.8890 O   0  0  0  0  0  0  0  0  0  0  0  0
   -3.3709    3.7027   -0.1259 N   0  0  0  0  0  0  0  0  0  0  0  0
   -4.7746    3.8247    0.0542 C   0  0  0  0  0  0  0  0  0  0  0  0
   -5.4616    2.9050    0.8532 C   0  0  0  0  0  0  0  0  0  0  0  0
   -6.8525    2.9465    0.9475 C   0  0  0  0  0  0  0  0  0  0  0  0
   -7.5695    3.9553    0.3006 C   0  0  0  0  0  0  0  0  0  0  0  0
   -8.9408    4.0944    0.3885 O   0  0  0  0  0  0  0  0  0  0  0  0
   -9.5723    3.7873    1.5829 C   0  0  0  0  0  0  0  0  0  0  0  0
   -8.9722    3.9701    2.8317 C   0  0  0  0  0  0  0  0  0  0  0  0
   -9.6396    3.5625    3.9687 C   0  0  0  0  0  0  0  0  0  0  0  0
  -10.8823    3.0579    3.9940 N   0  0  0  0  0  0  0  0  0  0  0  0
  -11.5099    2.9740    2.7911 C   0  0  0  0  0  0  0  0  0  0  0  0
  -12.8482    2.5256    2.6145 C   0  0  0  0  0  0  0  0  0  0  0  0
  -13.2611    2.5595    1.2991 C   0  0  0  0  0  0  0  0  0  0  0  0
  -14.5841    2.2051    0.8027 C   0  0  0  0  0  0  0  0  0  0  0  0
  -15.5016    1.8566    1.5430 O   0  0  0  0  0  0  0  0  0  0  0  0
  -14.7564    2.2997   -0.5628 N   0  0  0  0  0  0  0  0  0  0  0  0
  -16.0119    2.0115   -1.2188 C   0  0  0  0  0  0  0  0  0  0  0  0
  -16.9221    3.2393   -1.2971 C   0  0  0  0  0  0  0  0  0  0  0  0
  -16.3087    4.4201   -2.0447 C   0  0  0  0  0  0  0  0  0  0  0  0
  -15.9832    4.0680   -3.4723 C   0  0  0  0  0  0  0  0  0  0  0  0
  -14.9110    3.6005   -3.8243 O   0  0  0  0  0  0  0  0  0  0  0  0
  -17.0082    4.2672   -4.3276 O   0  0  0  0  0  0  0  0  0  0  0  0
  -11.9948    3.0933    0.2734 S   0  0  0  0  0  0  0  0  0  0  0  0
  -10.9020    3.3240    1.5845 C   0  0  0  0  0  0  0  0  0  0  0  0
   -6.8891    4.8631   -0.5165 C   0  0  0  0  0  0  0  0  0  0  0  0
   -5.4896    4.8153   -0.6227 C   0  0  0  0  0  0  0  0  0  0  0  0
    0.6000    1.5480   -1.4685 C   0  0  0  0  0  0  0  0  0  0  0  0
    3.2841   -0.1777   -2.7765 H   0  0  0  0  0  0  0  0  0  0  0  0
    3.4132    1.1380   -1.6057 H   0  0  0  0  0  0  0  0  0  0  0  0
    2.8206    1.4584   -3.2626 H   0  0  0  0  0  0  0  0  0  0  0  0
    1.4638   -1.6175   -2.4418 H   0  0  0  0  0  0  0  0  0  0  0  0
   -0.8316   -2.0461   -1.6267 H   0  0  0  0  0  0  0  0  0  0  0  0
   -1.0055    3.3037   -0.4741 H   0  0  0  0  0  0  0  0  0  0  0  0
   -2.9056    4.4956   -0.5332 H   0  0  0  0  0  0  0  0  0  0  0  0
   -4.9198    2.1299    1.3904 H   0  0  0  0  0  0  0  0  0  0  0  0
   -7.3548    2.1838    1.5351 H   0  0  0  0  0  0  0  0  0  0  0  0
   -7.9774    4.3900    2.9273 H   0  0  0  0  0  0  0  0  0  0  0  0
   -9.1542    3.6312    4.9389 H   0  0  0  0  0  0  0  0  0  0  0  0
  -13.4880    2.2068    3.4291 H   0  0  0  0  0  0  0  0  0  0  0  0
  -13.9746    2.6099   -1.1296 H   0  0  0  0  0  0  0  0  0  0  0  0
  -16.5272    1.2138   -0.6715 H   0  0  0  0  0  0  0  0  0  0  0  0
  -15.7795    1.6240   -2.2154 H   0  0  0  0  0  0  0  0  0  0  0  0
  -17.1769    3.5683   -0.2819 H   0  0  0  0  0  0  0  0  0  0  0  0
  -17.8607    2.9464   -1.7828 H   0  0  0  0  0  0  0  0  0  0  0  0
  -15.3876    4.7663   -1.5622 H   0  0  0  0  0  0  0  0  0  0  0  0
  -16.9903    5.2782   -2.0311 H   0  0  0  0  0  0  0  0  0  0  0  0
  -17.8109    4.6377   -3.9148 H   0  0  0  0  0  0  0  0  0  0  0  0
   -7.4489    5.5993   -1.0879 H   0  0  0  0  0  0  0  0  0  0  0  0
   -4.9877    5.5069   -1.2926 H   0  0  0  0  0  0  0  0  0  0  0  0
    1.0176    2.5513   -1.4344 H   0  0  0  0  0  0  0  0  0  0  0  0
  1  2  1  0  0  0  0
  1 38  1  0  0  0  0
  1 39  1  0  0  0  0
  1 40  1  0  0  0  0
  2  3  1  0  0  0  0
  2 37  2  0  0  0  0
  3  4  2  0  0  0  0
  3 41  1  0  0  0  0
  4  5  1  0  0  0  0
  4 42  1  0  0  0  0
  5  6  1  0  0  0  0
  5  7  2  0  0  0  0
  7  8  1  0  0  0  0
  7 37  1  0  0  0  0
  8  9  1  0  0  0  0
  8 43  1  0  0  0  0
  9 10  2  0  0  0  0
  9 11  1  0  0  0  0
 11 12  1  0  0  0  0
 11 44  1  0  0  0  0
 12 13  1  0  0  0  0
 12 36  2  0  0  0  0
 13 14  2  0  0  0  0
 13 45  1  0  0  0  0
 14 15  1  0  0  0  0
 14 46  1  0  0  0  0
 15 16  1  0  0  0  0
 15 35  2  0  0  0  0
 16 17  1  0  0  0  0
 17 18  1  0  0  0  0
 17 34  2  0  0  0  0
 18 19  2  0  0  0  0
 18 47  1  0  0  0  0
 19 20  1  0  0  0  0
 19 48  1  0  0  0  0
 20 21  2  0  0  0  0
 21 22  1  0  0  0  0
 21 34  1  0  0  0  0
 22 23  2  0  0  0  0
 22 49  1  0  0  0  0
 23 24  1  0  0  0  0
 23 33  1  0  0  0  0
 24 25  2  0  0  0  0
 24 26  1  0  0  0  0
 26 27  1  0  0  0  0
 26 50  1  0  0  0  0
 27 28  1  0  0  0  0
 27 51  1  0  0  0  0
 27 52  1  0  0  0  0
 28 29  1  0  0  0  0
 28 53  1  0  0  0  0
 28 54  1  0  0  0  0
 29 30  1  0  0  0  0
 29 55  1  0  0  0  0
 29 56  1  0  0  0  0
 30 31  2  0  0  0  0
 30 32  1  0  0  0  0
 32 57  1  0  0  0  0
 33 34  1  0  0  0  0
 35 36  1  0  0  0  0
 35 58  1  0  0  0  0
 36 59  1  0  0  0  0
 37 60  1  0  0  0  0
M  END
$$$$
