CHEMBL3933130
 OpenBabel04072215373D

 52 55  0  0  1  0  0  0  0  0999 V2000
    2.8039    0.5347    0.8493 C   0  0  0  0  0  0  0  0  0  0  0  0
    2.3955    0.2692   -0.4958 O   0  0  0  0  0  0  0  0  0  0  0  0
    3.0278   -0.7382   -1.1825 C   0  0  0  0  0  0  0  0  0  0  0  0
    4.0062   -1.5583   -0.6111 C   0  0  0  0  0  0  0  0  0  0  0  0
    4.6954   -2.5363   -1.3709 C   0  0  0  0  0  0  0  0  0  0  0  0
    5.6936   -3.3873   -0.8749 C   0  0  0  0  0  0  0  0  0  0  0  0
    5.9996   -3.3429    0.4989 N   0  0  0  0  0  0  0  0  0  0  0  0
    7.2599   -3.4778    1.1162 C   0  0  0  0  0  0  0  0  0  0  0  0
    8.4469   -3.1781    0.4427 C   0  0  0  0  0  0  0  0  0  0  0  0
    9.6642   -3.1294    1.1249 C   0  0  0  0  0  0  0  0  0  0  0  0
    9.7024   -3.3886    2.4973 C   0  0  0  0  0  0  0  0  0  0  0  0
   11.2301   -3.2079    3.2930 Cl  0  0  0  0  0  0  0  0  0  0  0  0
    8.5392   -3.7415    3.1810 C   0  0  0  0  0  0  0  0  0  0  0  0
    8.5388   -4.1173    4.8682 Cl  0  0  0  0  0  0  0  0  0  0  0  0
    7.3273   -3.7732    2.4842 C   0  0  0  0  0  0  0  0  0  0  0  0
    6.1817   -4.0673    3.1358 F   0  0  0  0  0  0  0  0  0  0  0  0
    6.3689   -4.2535   -1.6618 N   0  0  0  0  0  0  0  0  0  0  0  0
    6.0076   -4.2827   -2.9470 C   0  0  0  0  0  0  0  0  0  0  0  0
    5.0685   -3.5297   -3.5211 N   0  0  0  0  0  0  0  0  0  0  0  0
    4.4316   -2.6623   -2.7301 C   0  0  0  0  0  0  0  0  0  0  0  0
    3.4501   -1.8638   -3.2840 C   0  0  0  0  0  0  0  0  0  0  0  0
    2.6893   -0.9494   -2.5322 C   0  0  0  0  0  0  0  0  0  0  0  0
    1.6056   -0.2768   -3.0848 O   0  0  0  0  0  0  0  0  0  0  0  0
    1.1487   -0.8551   -4.3310 C   0  0  0  0  0  0  0  0  0  0  0  0
   -0.2393   -0.3576   -4.7795 C   0  0  2  0  0  0  0  0  0  0  0  0
   -0.7664   -1.2537   -5.9362 C   0  0  0  0  0  0  0  0  0  0  0  0
    0.0169   -1.0427   -7.1694 N   0  0  0  0  0  0  0  0  0  0  0  0
   -0.4509   -1.9134   -8.2505 C   0  0  0  0  0  0  0  0  0  0  0  0
   -0.0886    0.3751   -7.5963 C   0  0  0  0  0  0  0  0  0  0  0  0
    0.2192    1.3746   -6.4720 C   0  0  0  0  0  0  0  0  0  0  0  0
    0.6885    2.4891   -6.6935 O   0  0  0  0  0  0  0  0  0  0  0  0
   -0.1770    1.0377   -5.1986 N   0  0  0  0  0  0  0  0  0  0  0  0
    2.5774    1.5799    1.0810 H   0  0  0  0  0  0  0  0  0  0  0  0
    3.8798    0.4209    1.0264 H   0  0  0  0  0  0  0  0  0  0  0  0
    2.2371   -0.0997    1.5389 H   0  0  0  0  0  0  0  0  0  0  0  0
    4.2819   -1.4595    0.4329 H   0  0  0  0  0  0  0  0  0  0  0  0
    5.2171   -3.6115    1.0813 H   0  0  0  0  0  0  0  0  0  0  0  0
    8.4334   -2.9415   -0.6182 H   0  0  0  0  0  0  0  0  0  0  0  0
   10.5652   -2.8594    0.5825 H   0  0  0  0  0  0  0  0  0  0  0  0
    6.5256   -4.9901   -3.5854 H   0  0  0  0  0  0  0  0  0  0  0  0
    3.2933   -1.9932   -4.3503 H   0  0  0  0  0  0  0  0  0  0  0  0
    1.0691   -1.9425   -4.2041 H   0  0  0  0  0  0  0  0  0  0  0  0
    1.8818   -0.6105   -5.1096 H   0  0  0  0  0  0  0  0  0  0  0  0
   -0.9344   -0.3986   -3.9338 H   0  0  0  0  0  0  0  0  0  0  0  0
   -1.8267   -1.0374   -6.1182 H   0  0  0  0  0  0  0  0  0  0  0  0
   -0.6986   -2.3075   -5.6355 H   0  0  0  0  0  0  0  0  0  0  0  0
   -0.3210   -2.9679   -7.9840 H   0  0  0  0  0  0  0  0  0  0  0  0
    0.1353   -1.7465   -9.1626 H   0  0  0  0  0  0  0  0  0  0  0  0
   -1.5075   -1.7469   -8.4915 H   0  0  0  0  0  0  0  0  0  0  0  0
   -1.0953    0.6047   -7.9672 H   0  0  0  0  0  0  0  0  0  0  0  0
    0.6325    0.5558   -8.4024 H   0  0  0  0  0  0  0  0  0  0  0  0
    0.0850    1.7233   -4.5004 H   0  0  0  0  0  0  0  0  0  0  0  0
  1  2  1  0  0  0  0
  1 33  1  0  0  0  0
  1 34  1  0  0  0  0
  1 35  1  0  0  0  0
  2  3  1  0  0  0  0
  3  4  1  0  0  0  0
  3 22  2  0  0  0  0
  4  5  2  0  0  0  0
  4 36  1  0  0  0  0
  5  6  1  0  0  0  0
  5 20  1  0  0  0  0
  6  7  1  0  0  0  0
  6 17  2  0  0  0  0
  7  8  1  0  0  0  0
  7 37  1  0  0  0  0
  8  9  1  0  0  0  0
  8 15  2  0  0  0  0
  9 10  2  0  0  0  0
  9 38  1  0  0  0  0
 10 11  1  0  0  0  0
 10 39  1  0  0  0  0
 11 12  1  0  0  0  0
 11 13  2  0  0  0  0
 13 14  1  0  0  0  0
 13 15  1  0  0  0  0
 15 16  1  0  0  0  0
 17 18  1  0  0  0  0
 18 19  2  0  0  0  0
 18 40  1  0  0  0  0
 19 20  1  0  0  0  0
 20 21  2  0  0  0  0
 21 22  1  0  0  0  0
 21 41  1  0  0  0  0
 22 23  1  0  0  0  0
 23 24  1  0  0  0  0
 24 25  1  0  0  0  0
 24 42  1  0  0  0  0
 24 43  1  0  0  0  0
 25 26  1  0  0  0  0
 25 32  1  0  0  0  0
 25 44  1  1  0  0  0
 26 27  1  0  0  0  0
 26 45  1  0  0  0  0
 26 46  1  0  0  0  0
 27 28  1  0  0  0  0
 27 29  1  0  0  0  0
 28 47  1  0  0  0  0
 28 48  1  0  0  0  0
 28 49  1  0  0  0  0
 29 30  1  0  0  0  0
 29 50  1  0  0  0  0
 29 51  1  0  0  0  0
 30 31  2  0  0  0  0
 30 32  1  0  0  0  0
 32 52  1  0  0  0  0
M  END
$$$$
