CHEMBL1940849
 OpenBabel04072215363D

 33 35  0  0  0  0  0  0  0  0999 V2000
    4.5745    0.2554   -0.0109 C   0  0  0  0  0  0  0  0  0  0  0  0
    3.1029   -0.0345   -0.0056 C   0  0  0  0  0  0  0  0  0  0  0  0
    2.6237   -1.3440   -0.0062 C   0  0  0  0  0  0  0  0  0  0  0  0
    1.2464   -1.5900   -0.0057 C   0  0  0  0  0  0  0  0  0  0  0  0
    0.3171   -0.5567   -0.0060 C   0  0  0  0  0  0  0  0  0  0  0  0
   -0.9934   -0.8420   -0.0084 N   0  0  0  0  0  0  0  0  0  0  0  0
   -1.8669    0.1919   -0.0145 C   0  0  0  0  0  0  0  0  0  0  0  0
   -3.5056   -0.3506   -0.0305 Cl  0  0  0  0  0  0  0  0  0  0  0  0
   -1.5153    1.5439   -0.0331 C   0  0  0  0  0  0  0  0  0  0  0  0
   -2.5059    2.6404   -0.0203 C   0  0  0  0  0  0  0  0  0  0  0  0
   -2.3189    3.8328   -0.6103 C   0  0  0  0  0  0  0  0  0  0  0  0
   -3.3646    4.9039   -0.5431 C   0  0  0  0  0  0  0  0  0  0  0  0
   -4.2435    4.8374    0.3147 O   0  0  0  0  0  0  0  0  0  0  0  0
   -3.2385    5.9896   -1.5059 C   0  0  0  0  0  0  0  0  0  0  0  0
   -2.6925    5.9792   -2.7801 C   0  0  0  0  0  0  0  0  0  0  0  0
   -2.7430    7.2604   -3.4093 C   0  0  0  0  0  0  0  0  0  0  0  0
   -3.3252    8.1903   -2.5868 C   0  0  0  0  0  0  0  0  0  0  0  0
   -3.5719   10.1644   -3.0976 I   0  0  0  0  0  0  0  0  0  0  0  0
   -3.8321    7.5499   -1.1031 S   0  0  0  0  0  0  0  0  0  0  0  0
   -0.1429    1.8113   -0.0070 C   0  0  0  0  0  0  0  0  0  0  0  0
    0.7969    0.7660   -0.0049 C   0  0  0  0  0  0  0  0  0  0  0  0
    2.1812    1.0199   -0.0000 C   0  0  0  0  0  0  0  0  0  0  0  0
    5.1660   -0.6661   -0.0269 H   0  0  0  0  0  0  0  0  0  0  0  0
    4.8518    0.8180    0.8861 H   0  0  0  0  0  0  0  0  0  0  0  0
    4.8397    0.8389   -0.8982 H   0  0  0  0  0  0  0  0  0  0  0  0
    3.3111   -2.1869   -0.0074 H   0  0  0  0  0  0  0  0  0  0  0  0
    0.8881   -2.6174   -0.0043 H   0  0  0  0  0  0  0  0  0  0  0  0
   -3.4473    2.4367    0.4917 H   0  0  0  0  0  0  0  0  0  0  0  0
   -1.4121    4.0776   -1.1490 H   0  0  0  0  0  0  0  0  0  0  0  0
   -2.2871    5.0941   -3.2566 H   0  0  0  0  0  0  0  0  0  0  0  0
   -2.3721    7.4673   -4.4062 H   0  0  0  0  0  0  0  0  0  0  0  0
    0.2166    2.8369    0.0218 H   0  0  0  0  0  0  0  0  0  0  0  0
    2.5473    2.0436    0.0038 H   0  0  0  0  0  0  0  0  0  0  0  0
  1  2  1  0  0  0  0
  1 23  1  0  0  0  0
  1 24  1  0  0  0  0
  1 25  1  0  0  0  0
  2  3  1  0  0  0  0
  2 22  2  0  0  0  0
  3  4  2  0  0  0  0
  3 26  1  0  0  0  0
  4  5  1  0  0  0  0
  4 27  1  0  0  0  0
  5  6  1  0  0  0  0
  5 21  2  0  0  0  0
  6  7  2  0  0  0  0
  7  8  1  0  0  0  0
  7  9  1  0  0  0  0
  9 10  1  0  0  0  0
  9 20  2  0  0  0  0
 10 11  2  0  0  0  0
 10 28  1  0  0  0  0
 11 12  1  0  0  0  0
 11 29  1  0  0  0  0
 12 13  2  0  0  0  0
 12 14  1  0  0  0  0
 14 15  2  0  0  0  0
 14 19  1  0  0  0  0
 15 16  1  0  0  0  0
 15 30  1  0  0  0  0
 16 17  2  0  0  0  0
 16 31  1  0  0  0  0
 17 18  1  0  0  0  0
 17 19  1  0  0  0  0
 20 21  1  0  0  0  0
 20 32  1  0  0  0  0
 21 22  1  0  0  0  0
 22 33  1  0  0  0  0
M  END
$$$$
