CHEMBL2385590
 OpenBabel04072215363D

 48 52  0  0  0  0  0  0  0  0999 V2000
   -0.7293    3.3873   -1.9500 C   0  0  0  0  0  0  0  0  0  0  0  0
   -2.0539    3.0697   -2.2461 C   0  0  0  0  0  0  0  0  0  0  0  0
   -2.6764    1.9994   -1.6043 C   0  0  0  0  0  0  0  0  0  0  0  0
   -1.9864    1.2453   -0.6500 C   0  0  0  0  0  0  0  0  0  0  0  0
   -2.6460    0.1900    0.1000 C   0  0  0  0  0  0  0  0  0  0  0  0
   -2.1046   -0.9978    0.6270 C   0  0  0  0  0  0  0  0  0  0  0  0
   -2.9866   -1.7185    1.3232 N   0  0  0  0  0  0  0  0  0  0  0  0
   -4.1284   -0.9938    1.2617 N   0  0  0  0  0  0  0  0  0  0  0  0
   -5.3481   -1.3100    1.8480 C   0  0  0  0  0  0  0  0  0  0  0  0
   -6.4114   -0.5077    1.7063 C   0  0  0  0  0  0  0  0  0  0  0  0
   -7.7188   -0.8051    2.2977 C   0  0  0  0  0  0  0  0  0  0  0  0
   -8.0456   -0.3684    3.5844 C   0  0  0  0  0  0  0  0  0  0  0  0
   -9.3140   -0.6346    4.1273 C   0  0  0  0  0  0  0  0  0  0  0  0
  -10.2787   -1.3603    3.4181 C   0  0  0  0  0  0  0  0  0  0  0  0
  -11.5318   -1.6346    3.9266 N   0  0  0  0  0  0  0  0  0  0  0  0
  -12.2246   -0.7512    4.8719 C   0  0  0  0  0  0  0  0  0  0  0  0
  -12.5338   -1.4782    6.1983 C   0  0  0  0  0  0  0  0  0  0  0  0
  -13.2184   -2.7778    6.0228 N   0  0  0  0  0  0  0  0  0  0  0  0
  -12.4010   -3.6220    5.1264 C   0  0  0  0  0  0  0  0  0  0  0  0
  -12.1137   -2.9740    3.7526 C   0  0  0  0  0  0  0  0  0  0  0  0
   -9.9219   -1.8053    2.1373 C   0  0  0  0  0  0  0  0  0  0  0  0
   -8.6644   -1.5347    1.5784 C   0  0  0  0  0  0  0  0  0  0  0  0
   -6.1539    0.7105    0.8748 C   0  0  0  0  0  0  0  0  0  0  0  0
   -5.0231    1.0444    0.3187 N   0  0  0  0  0  0  0  0  0  0  0  0
   -3.9744    0.1795    0.5087 C   0  0  0  0  0  0  0  0  0  0  0  0
   -0.6390    1.5458   -0.3918 C   0  0  0  0  0  0  0  0  0  0  0  0
   -0.0173    2.6193   -1.0317 C   0  0  0  0  0  0  0  0  0  0  0  0
   -0.2542    4.2365   -2.4331 H   0  0  0  0  0  0  0  0  0  0  0  0
   -2.6125    3.6684   -2.9606 H   0  0  0  0  0  0  0  0  0  0  0  0
   -3.7143    1.7722   -1.8383 H   0  0  0  0  0  0  0  0  0  0  0  0
   -1.0927   -1.3692    0.5293 H   0  0  0  0  0  0  0  0  0  0  0  0
   -5.3623   -2.2347    2.4106 H   0  0  0  0  0  0  0  0  0  0  0  0
   -7.3256    0.1838    4.1842 H   0  0  0  0  0  0  0  0  0  0  0  0
   -9.5243   -0.2838    5.1342 H   0  0  0  0  0  0  0  0  0  0  0  0
  -13.1700   -0.4396    4.4103 H   0  0  0  0  0  0  0  0  0  0  0  0
  -11.6704    0.1714    5.0737 H   0  0  0  0  0  0  0  0  0  0  0  0
  -13.1700   -0.8348    6.8164 H   0  0  0  0  0  0  0  0  0  0  0  0
  -11.6054   -1.6370    6.7602 H   0  0  0  0  0  0  0  0  0  0  0  0
  -14.1107   -2.6035    5.5601 H   0  0  0  0  0  0  0  0  0  0  0  0
  -12.9225   -4.5731    4.9698 H   0  0  0  0  0  0  0  0  0  0  0  0
  -11.4545   -3.8614    5.6277 H   0  0  0  0  0  0  0  0  0  0  0  0
  -13.0453   -2.8823    3.1825 H   0  0  0  0  0  0  0  0  0  0  0  0
  -11.4551   -3.6478    3.1914 H   0  0  0  0  0  0  0  0  0  0  0  0
  -10.6491   -2.3458    1.5348 H   0  0  0  0  0  0  0  0  0  0  0  0
   -8.4530   -1.8950    0.5767 H   0  0  0  0  0  0  0  0  0  0  0  0
   -7.0239    1.3725    0.7231 H   0  0  0  0  0  0  0  0  0  0  0  0
   -0.0702    0.9732    0.3374 H   0  0  0  0  0  0  0  0  0  0  0  0
    1.0145    2.8675   -0.7978 H   0  0  0  0  0  0  0  0  0  0  0  0
  1  2  1  0  0  0  0
  1 27  2  0  0  0  0
  1 28  1  0  0  0  0
  2  3  2  0  0  0  0
  2 29  1  0  0  0  0
  3  4  1  0  0  0  0
  3 30  1  0  0  0  0
  4  5  1  0  0  0  0
  4 26  2  0  0  0  0
  5  6  1  0  0  0  0
  5 25  2  0  0  0  0
  6  7  2  0  0  0  0
  6 31  1  0  0  0  0
  7  8  1  0  0  0  0
  8  9  1  0  0  0  0
  8 25  1  0  0  0  0
  9 10  2  0  0  0  0
  9 32  1  0  0  0  0
 10 11  1  0  0  0  0
 10 23  1  0  0  0  0
 11 12  1  0  0  0  0
 11 22  2  0  0  0  0
 12 13  2  0  0  0  0
 12 33  1  0  0  0  0
 13 14  1  0  0  0  0
 13 34  1  0  0  0  0
 14 15  1  0  0  0  0
 14 21  2  0  0  0  0
 15 16  1  0  0  0  0
 15 20  1  0  0  0  0
 16 17  1  0  0  0  0
 16 35  1  0  0  0  0
 16 36  1  0  0  0  0
 17 18  1  0  0  0  0
 17 37  1  0  0  0  0
 17 38  1  0  0  0  0
 18 19  1  0  0  0  0
 18 39  1  0  0  0  0
 19 20  1  0  0  0  0
 19 40  1  0  0  0  0
 19 41  1  0  0  0  0
 20 42  1  0  0  0  0
 20 43  1  0  0  0  0
 21 22  1  0  0  0  0
 21 44  1  0  0  0  0
 22 45  1  0  0  0  0
 23 24  2  0  0  0  0
 23 46  1  0  0  0  0
 24 25  1  0  0  0  0
 26 27  1  0  0  0  0
 26 47  1  0  0  0  0
 27 48  1  0  0  0  0
M  END
$$$$
