CHEMBL3917105
 OpenBabel04072215373D

 76 80  0  0  0  0  0  0  0  0999 V2000
    4.4544   -3.7773   -8.0083 O   0  0  0  0  0  0  0  0  0  0  0  0
    4.8129   -4.9139   -8.2671 C   0  0  0  0  0  0  0  0  0  0  0  0
    4.8859   -6.0578   -7.2703 C   0  0  0  0  0  0  0  0  0  0  0  0
    4.5376   -5.6257   -5.8493 C   0  0  0  0  0  0  0  0  0  0  0  0
    4.5986   -6.8070   -4.8756 C   0  0  0  0  0  0  0  0  0  0  0  0
    4.2831   -6.4081   -3.4366 C   0  0  0  0  0  0  0  0  0  0  0  0
    2.8949   -5.8093   -3.2094 C   0  0  0  0  0  0  0  0  0  0  0  0
    1.7390   -6.6571   -3.5596 N   0  0  0  0  0  0  0  0  0  0  0  0
    0.4997   -5.8648   -3.3852 C   0  0  0  0  0  0  0  0  0  0  0  0
    0.2245   -5.5454   -1.8941 C   0  0  0  0  0  0  0  0  0  0  0  0
   -0.1006   -6.7592   -1.1234 N   0  0  0  0  0  0  0  0  0  0  0  0
   -1.3990   -7.3413   -1.5290 C   0  0  0  0  0  0  0  0  0  0  0  0
   -2.5688   -6.3740   -1.3723 C   0  0  0  0  0  0  0  0  0  0  0  0
   -2.9311   -5.4757   -2.3921 C   0  0  0  0  0  0  0  0  0  0  0  0
   -3.9221   -4.5103   -2.1814 C   0  0  0  0  0  0  0  0  0  0  0  0
   -4.6169   -4.4510   -0.9682 C   0  0  0  0  0  0  0  0  0  0  0  0
   -5.6397   -3.4274   -0.7583 C   0  0  0  0  0  0  0  0  0  0  0  0
   -6.4464   -2.7650   -1.6700 C   0  0  0  0  0  0  0  0  0  0  0  0
   -7.2584   -1.8372   -0.9648 C   0  0  0  0  0  0  0  0  0  0  0  0
   -8.2862   -0.9450   -1.2964 C   0  0  0  0  0  0  0  0  0  0  0  0
   -8.7330   -0.8559   -2.6007 N   0  0  0  0  0  0  0  0  0  0  0  0
  -10.0628   -0.3518   -2.8429 C   0  0  0  0  0  0  0  0  0  0  0  0
  -10.5640   -0.9005   -4.1626 C   0  0  0  0  0  0  0  0  0  0  0  0
  -10.5944   -2.2885   -4.3883 C   0  0  0  0  0  0  0  0  0  0  0  0
  -11.1356   -2.8094   -5.5643 C   0  0  0  0  0  0  0  0  0  0  0  0
  -11.6532   -1.9499   -6.5298 C   0  0  0  0  0  0  0  0  0  0  0  0
  -11.6145   -0.5709   -6.3267 C   0  0  0  0  0  0  0  0  0  0  0  0
  -11.0714   -0.0473   -5.1506 C   0  0  0  0  0  0  0  0  0  0  0  0
   -8.8744   -0.2521   -0.2931 N   0  0  0  0  0  0  0  0  0  0  0  0
   -8.4314   -0.4460    0.9684 C   0  0  0  0  0  0  0  0  0  0  0  0
   -7.4721   -1.2856    1.3974 N   0  0  0  0  0  0  0  0  0  0  0  0
   -6.9330   -1.9605    0.3724 C   0  0  0  0  0  0  0  0  0  0  0  0
   -5.9623   -2.9148    0.4839 N   0  0  0  0  0  0  0  0  0  0  0  0
   -4.2963   -5.3815    0.0281 C   0  0  0  0  0  0  0  0  0  0  0  0
   -3.2696   -6.3116   -0.1657 C   0  0  0  0  0  0  0  0  0  0  0  0
    1.0364   -7.7032   -1.2897 C   0  0  0  0  0  0  0  0  0  0  0  0
    1.6001   -7.8838   -2.7361 C   0  0  0  0  0  0  0  0  0  0  0  0
    5.1810   -5.3022   -9.5357 N   0  0  0  0  0  0  0  0  0  0  0  0
    5.1063   -4.3588  -10.5714 O   0  0  0  0  0  0  0  0  0  0  0  0
    5.8967   -6.4772   -7.2951 H   0  0  0  0  0  0  0  0  0  0  0  0
    4.1829   -6.8332   -7.5972 H   0  0  0  0  0  0  0  0  0  0  0  0
    3.5352   -5.1862   -5.8519 H   0  0  0  0  0  0  0  0  0  0  0  0
    5.2293   -4.8401   -5.5196 H   0  0  0  0  0  0  0  0  0  0  0  0
    5.6090   -7.2327   -4.8915 H   0  0  0  0  0  0  0  0  0  0  0  0
    3.9162   -7.6011   -5.1986 H   0  0  0  0  0  0  0  0  0  0  0  0
    5.0212   -5.6646   -3.1075 H   0  0  0  0  0  0  0  0  0  0  0  0
    4.4225   -7.2735   -2.7801 H   0  0  0  0  0  0  0  0  0  0  0  0
    2.8251   -4.8821   -3.7943 H   0  0  0  0  0  0  0  0  0  0  0  0
    2.8713   -5.4986   -2.1624 H   0  0  0  0  0  0  0  0  0  0  0  0
   -0.3252   -6.4417   -3.8219 H   0  0  0  0  0  0  0  0  0  0  0  0
    0.5295   -4.9449   -3.9759 H   0  0  0  0  0  0  0  0  0  0  0  0
   -0.5342   -4.7685   -1.7891 H   0  0  0  0  0  0  0  0  0  0  0  0
    1.0952   -5.0796   -1.4197 H   0  0  0  0  0  0  0  0  0  0  0  0
   -1.6047   -8.2109   -0.8924 H   0  0  0  0  0  0  0  0  0  0  0  0
   -1.3931   -7.7325   -2.5518 H   0  0  0  0  0  0  0  0  0  0  0  0
   -2.4130   -5.4774   -3.3461 H   0  0  0  0  0  0  0  0  0  0  0  0
   -4.1258   -3.7880   -2.9695 H   0  0  0  0  0  0  0  0  0  0  0  0
   -6.4757   -2.9426   -2.7377 H   0  0  0  0  0  0  0  0  0  0  0  0
   -8.0225   -0.6591   -3.2923 H   0  0  0  0  0  0  0  0  0  0  0  0
  -10.0710    0.7438   -2.8389 H   0  0  0  0  0  0  0  0  0  0  0  0
  -10.7632   -0.6972   -2.0716 H   0  0  0  0  0  0  0  0  0  0  0  0
  -10.2025   -2.9691   -3.6337 H   0  0  0  0  0  0  0  0  0  0  0  0
  -11.1644   -3.8850   -5.7188 H   0  0  0  0  0  0  0  0  0  0  0  0
  -12.0921   -2.3547   -7.4379 H   0  0  0  0  0  0  0  0  0  0  0  0
  -12.0207    0.0981   -7.0808 H   0  0  0  0  0  0  0  0  0  0  0  0
  -11.0624    1.0300   -5.0048 H   0  0  0  0  0  0  0  0  0  0  0  0
   -8.9157    0.1499    1.7366 H   0  0  0  0  0  0  0  0  0  0  0  0
   -5.5486   -3.1880    1.3617 H   0  0  0  0  0  0  0  0  0  0  0  0
   -4.8368   -5.3976    0.9694 H   0  0  0  0  0  0  0  0  0  0  0  0
   -3.0140   -6.9870    0.6453 H   0  0  0  0  0  0  0  0  0  0  0  0
    0.7866   -8.6852   -0.8679 H   0  0  0  0  0  0  0  0  0  0  0  0
    1.8603   -7.3251   -0.6685 H   0  0  0  0  0  0  0  0  0  0  0  0
    0.9150   -8.5535   -3.2739 H   0  0  0  0  0  0  0  0  0  0  0  0
    2.5479   -8.4324   -2.6960 H   0  0  0  0  0  0  0  0  0  0  0  0
    5.4471   -6.2534   -9.7982 H   0  0  0  0  0  0  0  0  0  0  0  0
    4.5584   -3.6439  -10.1715 H   0  0  0  0  0  0  0  0  0  0  0  0
  1  2  2  0  0  0  0
  2  3  1  0  0  0  0
  2 38  1  0  0  0  0
  3  4  1  0  0  0  0
  3 40  1  0  0  0  0
  3 41  1  0  0  0  0
  4  5  1  0  0  0  0
  4 42  1  0  0  0  0
  4 43  1  0  0  0  0
  5  6  1  0  0  0  0
  5 44  1  0  0  0  0
  5 45  1  0  0  0  0
  6  7  1  0  0  0  0
  6 46  1  0  0  0  0
  6 47  1  0  0  0  0
  7  8  1  0  0  0  0
  7 48  1  0  0  0  0
  7 49  1  0  0  0  0
  8  9  1  0  0  0  0
  8 37  1  0  0  0  0
  9 10  1  0  0  0  0
  9 50  1  0  0  0  0
  9 51  1  0  0  0  0
 10 11  1  0  0  0  0
 10 52  1  0  0  0  0
 10 53  1  0  0  0  0
 11 12  1  0  0  0  0
 11 36  1  0  0  0  0
 12 13  1  0  0  0  0
 12 54  1  0  0  0  0
 12 55  1  0  0  0  0
 13 14  1  0  0  0  0
 13 35  2  0  0  0  0
 14 15  2  0  0  0  0
 14 56  1  0  0  0  0
 15 16  1  0  0  0  0
 15 57  1  0  0  0  0
 16 17  1  0  0  0  0
 16 34  2  0  0  0  0
 17 18  2  0  0  0  0
 17 33  1  0  0  0  0
 18 19  1  0  0  0  0
 18 58  1  0  0  0  0
 19 20  1  0  0  0  0
 19 32  2  0  0  0  0
 20 21  1  0  0  0  0
 20 29  2  0  0  0  0
 21 22  1  0  0  0  0
 21 59  1  0  0  0  0
 22 23  1  0  0  0  0
 22 60  1  0  0  0  0
 22 61  1  0  0  0  0
 23 24  1  0  0  0  0
 23 28  2  0  0  0  0
 24 25  2  0  0  0  0
 24 62  1  0  0  0  0
 25 26  1  0  0  0  0
 25 63  1  0  0  0  0
 26 27  2  0  0  0  0
 26 64  1  0  0  0  0
 27 28  1  0  0  0  0
 27 65  1  0  0  0  0
 28 66  1  0  0  0  0
 29 30  1  0  0  0  0
 30 31  2  0  0  0  0
 30 67  1  0  0  0  0
 31 32  1  0  0  0  0
 32 33  1  0  0  0  0
 33 68  1  0  0  0  0
 34 35  1  0  0  0  0
 34 69  1  0  0  0  0
 35 70  1  0  0  0  0
 36 37  1  0  0  0  0
 36 71  1  0  0  0  0
 36 72  1  0  0  0  0
 37 73  1  0  0  0  0
 37 74  1  0  0  0  0
 38 39  1  0  0  0  0
 38 75  1  0  0  0  0
 39 76  1  0  0  0  0
M  END
$$$$
