CHEMBL278472
 OpenBabel04072215363D

 64 66  0  0  0  0  0  0  0  0999 V2000
    1.4135    4.3386   -2.2661 C   0  0  0  0  0  0  0  0  0  0  0  0
    2.6151    3.8950   -2.8848 O   0  0  0  0  0  0  0  0  0  0  0  0
    2.8961    2.5610   -2.7580 C   0  0  0  0  0  0  0  0  0  0  0  0
    1.9514    1.5558   -2.5555 C   0  0  0  0  0  0  0  0  0  0  0  0
    2.3642    0.2289   -2.4931 C   0  0  0  0  0  0  0  0  0  0  0  0
    1.5247   -0.8460   -2.3710 O   0  0  0  0  0  0  0  0  0  0  0  0
    0.2260   -0.6734   -2.9359 C   0  0  0  0  0  0  0  0  0  0  0  0
    3.7258   -0.0797   -2.5700 C   0  0  0  0  0  0  0  0  0  0  0  0
    4.7028    0.9056   -2.8301 C   0  0  0  0  0  0  0  0  0  0  0  0
    6.1105    0.5256   -3.1294 C   0  0  0  0  0  0  0  0  0  0  0  0
    6.3360   -0.6656   -3.8510 C   0  0  0  0  0  0  0  0  0  0  0  0
    7.6187   -1.0727   -4.2363 C   0  0  0  0  0  0  0  0  0  0  0  0
    7.8638   -2.2647   -4.9212 C   0  0  0  0  0  0  0  0  0  0  0  0
    9.0871   -2.6907   -5.3065 N   0  0  0  0  0  0  0  0  0  0  0  0
   10.1333   -1.9033   -4.9966 C   0  0  0  0  0  0  0  0  0  0  0  0
   11.4151   -2.2499   -5.4174 N   0  0  0  0  0  0  0  0  0  0  0  0
   11.5973   -3.3089   -6.4071 C   0  0  0  0  0  0  0  0  0  0  0  0
   12.1117   -4.6267   -5.8258 C   0  0  0  0  0  0  0  0  0  0  0  0
   11.1300   -5.3521   -4.9209 C   0  0  0  0  0  0  0  0  0  0  0  0
    9.9065   -5.5978   -5.5928 O   0  0  0  0  0  0  0  0  0  0  0  0
    9.9576   -0.6908   -4.3162 C   0  0  0  0  0  0  0  0  0  0  0  0
    8.6951   -0.2442   -3.9321 C   0  0  0  0  0  0  0  0  0  0  0  0
    8.5126    0.9445   -3.3008 N   0  0  0  0  0  0  0  0  0  0  0  0
    7.2635    1.2899   -2.8652 C   0  0  0  0  0  0  0  0  0  0  0  0
    7.2011    2.5434   -2.1952 N   0  0  0  0  0  0  0  0  0  0  0  0
    7.2307    2.5435   -0.8112 C   0  0  0  0  0  0  0  0  0  0  0  0
    7.2765    1.5337   -0.1249 O   0  0  0  0  0  0  0  0  0  0  0  0
    7.2527    3.8313   -0.2923 N   0  0  0  0  0  0  0  0  0  0  0  0
    7.4486    4.1339    1.1497 C   0  0  0  0  0  0  0  0  0  0  0  0
    8.8695    3.7322    1.5830 C   0  0  0  0  0  0  0  0  0  0  0  0
    7.3040    5.6524    1.3959 C   0  0  0  0  0  0  0  0  0  0  0  0
    6.4124    3.4267    2.0400 C   0  0  0  0  0  0  0  0  0  0  0  0
    4.2464    2.2285   -2.9253 C   0  0  0  0  0  0  0  0  0  0  0  0
    1.3549    5.4228   -2.3956 H   0  0  0  0  0  0  0  0  0  0  0  0
    1.4281    4.1252   -1.1921 H   0  0  0  0  0  0  0  0  0  0  0  0
    0.5291    3.9065   -2.7435 H   0  0  0  0  0  0  0  0  0  0  0  0
    0.9001    1.7939   -2.4694 H   0  0  0  0  0  0  0  0  0  0  0  0
   -0.1861   -1.6657   -3.1434 H   0  0  0  0  0  0  0  0  0  0  0  0
    0.2539   -0.1267   -3.8860 H   0  0  0  0  0  0  0  0  0  0  0  0
   -0.4332   -0.1740   -2.2197 H   0  0  0  0  0  0  0  0  0  0  0  0
    4.0076   -1.1267   -2.4747 H   0  0  0  0  0  0  0  0  0  0  0  0
    5.4935   -1.2882   -4.1496 H   0  0  0  0  0  0  0  0  0  0  0  0
    7.0495   -2.9341   -5.1915 H   0  0  0  0  0  0  0  0  0  0  0  0
   12.1061   -2.2112   -4.6764 H   0  0  0  0  0  0  0  0  0  0  0  0
   12.3610   -2.9474   -7.1041 H   0  0  0  0  0  0  0  0  0  0  0  0
   10.7052   -3.4718   -7.0226 H   0  0  0  0  0  0  0  0  0  0  0  0
   13.0520   -4.4599   -5.2807 H   0  0  0  0  0  0  0  0  0  0  0  0
   12.3439   -5.2867   -6.6697 H   0  0  0  0  0  0  0  0  0  0  0  0
   10.9234   -4.7912   -4.0047 H   0  0  0  0  0  0  0  0  0  0  0  0
   11.5489   -6.3220   -4.6256 H   0  0  0  0  0  0  0  0  0  0  0  0
    9.4400   -4.7381   -5.6185 H   0  0  0  0  0  0  0  0  0  0  0  0
   10.8174   -0.0638   -4.1044 H   0  0  0  0  0  0  0  0  0  0  0  0
    7.9518    3.1397   -2.5144 H   0  0  0  0  0  0  0  0  0  0  0  0
    6.7237    4.4925   -0.8318 H   0  0  0  0  0  0  0  0  0  0  0  0
    9.6241    4.2709    0.9975 H   0  0  0  0  0  0  0  0  0  0  0  0
    9.0521    2.6619    1.4450 H   0  0  0  0  0  0  0  0  0  0  0  0
    9.0425    3.9630    2.6405 H   0  0  0  0  0  0  0  0  0  0  0  0
    8.0457    6.2290    0.8334 H   0  0  0  0  0  0  0  0  0  0  0  0
    7.4406    5.8915    2.4589 H   0  0  0  0  0  0  0  0  0  0  0  0
    6.3110    6.0139    1.1058 H   0  0  0  0  0  0  0  0  0  0  0  0
    6.5154    2.3386    2.0133 H   0  0  0  0  0  0  0  0  0  0  0  0
    5.3912    3.6736    1.7296 H   0  0  0  0  0  0  0  0  0  0  0  0
    6.5262    3.7268    3.0893 H   0  0  0  0  0  0  0  0  0  0  0  0
    4.9342    3.0358   -3.1604 H   0  0  0  0  0  0  0  0  0  0  0  0
  1  2  1  0  0  0  0
  1 34  1  0  0  0  0
  1 35  1  0  0  0  0
  1 36  1  0  0  0  0
  2  3  1  0  0  0  0
  3  4  1  0  0  0  0
  3 33  2  0  0  0  0
  4  5  2  0  0  0  0
  4 37  1  0  0  0  0
  5  6  1  0  0  0  0
  5  8  1  0  0  0  0
  6  7  1  0  0  0  0
  7 38  1  0  0  0  0
  7 39  1  0  0  0  0
  7 40  1  0  0  0  0
  8  9  2  0  0  0  0
  8 41  1  0  0  0  0
  9 10  1  0  0  0  0
  9 33  1  0  0  0  0
 10 11  1  0  0  0  0
 10 24  2  0  0  0  0
 11 12  2  0  0  0  0
 11 42  1  0  0  0  0
 12 13  1  0  0  0  0
 12 22  1  0  0  0  0
 13 14  2  0  0  0  0
 13 43  1  0  0  0  0
 14 15  1  0  0  0  0
 15 16  1  0  0  0  0
 15 21  2  0  0  0  0
 16 17  1  0  0  0  0
 16 44  1  0  0  0  0
 17 18  1  0  0  0  0
 17 45  1  0  0  0  0
 17 46  1  0  0  0  0
 18 19  1  0  0  0  0
 18 47  1  0  0  0  0
 18 48  1  0  0  0  0
 19 20  1  0  0  0  0
 19 49  1  0  0  0  0
 19 50  1  0  0  0  0
 20 51  1  0  0  0  0
 21 22  1  0  0  0  0
 21 52  1  0  0  0  0
 22 23  2  0  0  0  0
 23 24  1  0  0  0  0
 24 25  1  0  0  0  0
 25 26  1  0  0  0  0
 25 53  1  0  0  0  0
 26 27  2  0  0  0  0
 26 28  1  0  0  0  0
 28 29  1  0  0  0  0
 28 54  1  0  0  0  0
 29 30  1  0  0  0  0
 29 31  1  0  0  0  0
 29 32  1  0  0  0  0
 30 55  1  0  0  0  0
 30 56  1  0  0  0  0
 30 57  1  0  0  0  0
 31 58  1  0  0  0  0
 31 59  1  0  0  0  0
 31 60  1  0  0  0  0
 32 61  1  0  0  0  0
 32 62  1  0  0  0  0
 32 63  1  0  0  0  0
 33 64  1  0  0  0  0
M  END
$$$$
