CHEMBL1981492
 OpenBabel04072215363D

 23 24  0  0  0  0  0  0  0  0999 V2000
    1.2482   -2.3255    0.9681 C   0  0  0  0  0  0  0  0  0  0  0  0
    2.6694   -2.2467    0.8628 O   0  0  0  0  0  0  0  0  0  0  0  0
    3.1806   -0.9795    0.8632 C   0  0  0  0  0  0  0  0  0  0  0  0
    2.4941    0.0326    0.9369 O   0  0  0  0  0  0  0  0  0  0  0  0
    4.6160   -1.0244    0.7929 C   0  0  0  0  0  0  0  0  0  0  0  0
    5.4762   -2.0900    0.6230 C   0  0  0  0  0  0  0  0  0  0  0  0
    5.1647   -3.3755    0.4539 N   0  0  0  0  0  0  0  0  0  0  0  0
    6.7833   -1.7397    0.6501 N   0  0  0  0  0  0  0  0  0  0  0  0
    6.7721   -0.4373    0.8186 C   0  0  0  0  0  0  0  0  0  0  0  0
    7.8478    0.4890    0.9286 C   0  0  0  0  0  0  0  0  0  0  0  0
    7.5913    1.7999    1.0942 C   0  0  0  0  0  0  0  0  0  0  0  0
    6.2283    2.2981    1.1602 C   0  0  0  0  0  0  0  0  0  0  0  0
    5.2072    1.4293    1.0632 C   0  0  0  0  0  0  0  0  0  0  0  0
    5.4705    0.0639    0.8969 N   0  0  0  0  0  0  0  0  0  0  0  0
    0.9802   -3.3807    1.0765 H   0  0  0  0  0  0  0  0  0  0  0  0
    0.7792   -1.9396    0.0587 H   0  0  0  0  0  0  0  0  0  0  0  0
    0.8921   -1.7888    1.8525 H   0  0  0  0  0  0  0  0  0  0  0  0
    4.2284   -3.7158    0.6499 H   0  0  0  0  0  0  0  0  0  0  0  0
    5.9019   -4.0648    0.5463 H   0  0  0  0  0  0  0  0  0  0  0  0
    8.8620    0.1088    0.8789 H   0  0  0  0  0  0  0  0  0  0  0  0
    8.4028    2.5157    1.1833 H   0  0  0  0  0  0  0  0  0  0  0  0
    6.0647    3.3632    1.2884 H   0  0  0  0  0  0  0  0  0  0  0  0
    4.1743    1.7501    1.1081 H   0  0  0  0  0  0  0  0  0  0  0  0
  1  2  1  0  0  0  0
  1 15  1  0  0  0  0
  1 16  1  0  0  0  0
  1 17  1  0  0  0  0
  2  3  1  0  0  0  0
  3  4  2  0  0  0  0
  3  5  1  0  0  0  0
  5  6  2  0  0  0  0
  5 14  1  0  0  0  0
  6  7  1  0  0  0  0
  6  8  1  0  0  0  0
  7 18  1  0  0  0  0
  7 19  1  0  0  0  0
  8  9  2  0  0  0  0
  9 10  1  0  0  0  0
  9 14  1  0  0  0  0
 10 11  2  0  0  0  0
 10 20  1  0  0  0  0
 11 12  1  0  0  0  0
 11 21  1  0  0  0  0
 12 13  2  0  0  0  0
 12 22  1  0  0  0  0
 13 14  1  0  0  0  0
 13 23  1  0  0  0  0
M  END
$$$$
