CHEMBL597592
 OpenBabel04072215383D

 62 66  0  0  0  0  0  0  0  0999 V2000
    4.4124   -0.3480   -1.5581 C   0  0  0  0  0  0  0  0  0  0  0  0
    3.1168   -0.9690   -0.9956 C   0  0  0  0  0  0  0  0  0  0  0  0
    2.2008    0.1954   -0.5501 C   0  0  0  0  0  0  0  0  0  0  0  0
    2.4126   -1.7120   -2.1525 C   0  0  0  0  0  0  0  0  0  0  0  0
    3.3995   -1.9260    0.1734 C   0  0  0  0  0  0  0  0  0  0  0  0
    4.6103   -2.1828    0.8735 C   0  0  0  0  0  0  0  0  0  0  0  0
    4.3182   -3.1143    1.8374 C   0  0  0  0  0  0  0  0  0  0  0  0
    5.2221   -3.7496    2.7268 N   0  0  0  0  0  0  0  0  0  0  0  0
    6.3072   -3.0087    3.3200 C   0  0  0  0  0  0  0  0  0  0  0  0
    6.4255   -1.8236    3.0541 O   0  0  0  0  0  0  0  0  0  0  0  0
    7.0734   -3.7613    4.2069 N   0  0  0  0  0  0  0  0  0  0  0  0
    8.0129   -3.1795    5.1170 C   0  0  0  0  0  0  0  0  0  0  0  0
    7.9189   -1.8270    5.4735 C   0  0  0  0  0  0  0  0  0  0  0  0
    8.8317   -1.2271    6.3389 C   0  0  0  0  0  0  0  0  0  0  0  0
    9.8644   -1.9744    6.8833 C   0  0  0  0  0  0  0  0  0  0  0  0
    9.9769   -3.3319    6.5745 C   0  0  0  0  0  0  0  0  0  0  0  0
   10.9680   -3.9420    7.3087 O   0  0  0  0  0  0  0  0  0  0  0  0
   11.8215   -4.8717    6.7973 C   0  0  0  0  0  0  0  0  0  0  0  0
   11.9876   -5.2279    5.4614 C   0  0  0  0  0  0  0  0  0  0  0  0
   12.8283   -6.3081    5.0959 C   0  0  0  0  0  0  0  0  0  0  0  0
   13.5604   -7.0188    6.0488 C   0  0  0  0  0  0  0  0  0  0  0  0
   13.5826   -6.4674    7.3019 C   0  0  0  0  0  0  0  0  0  0  0  0
   14.5712   -6.5946    8.2733 N   0  0  0  0  0  0  0  0  0  0  0  0
   14.4067   -5.5513    9.1965 C   0  0  0  0  0  0  0  0  0  0  0  0
   15.2298   -5.1726   10.0105 O   0  0  0  0  0  0  0  0  0  0  0  0
   13.1741   -4.9446    8.9090 N   0  0  0  0  0  0  0  0  0  0  0  0
   12.7284   -5.4340    7.6762 C   0  0  0  0  0  0  0  0  0  0  0  0
    9.0343   -3.9509    5.7131 C   0  0  0  0  0  0  0  0  0  0  0  0
    2.9383   -3.3025    1.7572 N   0  0  0  0  0  0  0  0  0  0  0  0
    2.0632   -3.9096    2.6980 C   0  0  0  0  0  0  0  0  0  0  0  0
    2.4225   -4.0149    4.0489 C   0  0  0  0  0  0  0  0  0  0  0  0
    1.5197   -4.5559    4.9670 C   0  0  0  0  0  0  0  0  0  0  0  0
    0.2693   -5.0016    4.5419 C   0  0  0  0  0  0  0  0  0  0  0  0
   -0.0984   -4.8846    3.2012 C   0  0  0  0  0  0  0  0  0  0  0  0
    0.7890   -4.3239    2.2821 C   0  0  0  0  0  0  0  0  0  0  0  0
    2.4186   -2.6976    0.6539 N   0  0  0  0  0  0  0  0  0  0  0  0
    4.2000    0.3069   -2.4129 H   0  0  0  0  0  0  0  0  0  0  0  0
    5.1106   -1.1192   -1.9004 H   0  0  0  0  0  0  0  0  0  0  0  0
    4.9250    0.2610   -0.8045 H   0  0  0  0  0  0  0  0  0  0  0  0
    1.9917    0.8734   -1.3861 H   0  0  0  0  0  0  0  0  0  0  0  0
    2.6667    0.7891    0.2454 H   0  0  0  0  0  0  0  0  0  0  0  0
    1.2376   -0.1659   -0.1740 H   0  0  0  0  0  0  0  0  0  0  0  0
    2.2468   -1.0467   -3.0095 H   0  0  0  0  0  0  0  0  0  0  0  0
    1.4317   -2.0955   -1.8488 H   0  0  0  0  0  0  0  0  0  0  0  0
    3.0098   -2.5615   -2.4999 H   0  0  0  0  0  0  0  0  0  0  0  0
    5.5825   -1.7569    0.6548 H   0  0  0  0  0  0  0  0  0  0  0  0
    4.9930   -4.6704    3.0587 H   0  0  0  0  0  0  0  0  0  0  0  0
    7.0907   -4.7660    4.1046 H   0  0  0  0  0  0  0  0  0  0  0  0
    7.1119   -1.1929    5.1190 H   0  0  0  0  0  0  0  0  0  0  0  0
    8.7228   -0.1793    6.6060 H   0  0  0  0  0  0  0  0  0  0  0  0
   10.5528   -1.4978    7.5789 H   0  0  0  0  0  0  0  0  0  0  0  0
   11.5231   -4.6446    4.6726 H   0  0  0  0  0  0  0  0  0  0  0  0
   12.9614   -6.5496    4.0439 H   0  0  0  0  0  0  0  0  0  0  0  0
   14.1796   -7.8655    5.7815 H   0  0  0  0  0  0  0  0  0  0  0  0
   15.4574   -7.0570    8.1440 H   0  0  0  0  0  0  0  0  0  0  0  0
   12.8944   -4.0684    9.3211 H   0  0  0  0  0  0  0  0  0  0  0  0
    9.1068   -5.0194    5.5255 H   0  0  0  0  0  0  0  0  0  0  0  0
    3.3483   -3.6036    4.4367 H   0  0  0  0  0  0  0  0  0  0  0  0
    1.7740   -4.6001    6.0232 H   0  0  0  0  0  0  0  0  0  0  0  0
   -0.4362   -5.4150    5.2590 H   0  0  0  0  0  0  0  0  0  0  0  0
   -1.0797   -5.2158    2.8755 H   0  0  0  0  0  0  0  0  0  0  0  0
    0.4713   -4.2177    1.2450 H   0  0  0  0  0  0  0  0  0  0  0  0
  1  2  1  0  0  0  0
  1 37  1  0  0  0  0
  1 38  1  0  0  0  0
  1 39  1  0  0  0  0
  2  3  1  0  0  0  0
  2  4  1  0  0  0  0
  2  5  1  0  0  0  0
  3 40  1  0  0  0  0
  3 41  1  0  0  0  0
  3 42  1  0  0  0  0
  4 43  1  0  0  0  0
  4 44  1  0  0  0  0
  4 45  1  0  0  0  0
  5  6  1  0  0  0  0
  5 36  2  0  0  0  0
  6  7  2  0  0  0  0
  6 46  1  0  0  0  0
  7  8  1  0  0  0  0
  7 29  1  0  0  0  0
  8  9  1  0  0  0  0
  8 47  1  0  0  0  0
  9 10  2  0  0  0  0
  9 11  1  0  0  0  0
 11 12  1  0  0  0  0
 11 48  1  0  0  0  0
 12 13  1  0  0  0  0
 12 28  2  0  0  0  0
 13 14  2  0  0  0  0
 13 49  1  0  0  0  0
 14 15  1  0  0  0  0
 14 50  1  0  0  0  0
 15 16  2  0  0  0  0
 15 51  1  0  0  0  0
 16 17  1  0  0  0  0
 16 28  1  0  0  0  0
 17 18  1  0  0  0  0
 18 19  1  0  0  0  0
 18 27  2  0  0  0  0
 19 20  2  0  0  0  0
 19 52  1  0  0  0  0
 20 21  1  0  0  0  0
 20 53  1  0  0  0  0
 21 22  2  0  0  0  0
 21 54  1  0  0  0  0
 22 23  1  0  0  0  0
 22 27  1  0  0  0  0
 23 24  1  0  0  0  0
 23 55  1  0  0  0  0
 24 25  2  0  0  0  0
 24 26  1  0  0  0  0
 26 27  1  0  0  0  0
 26 56  1  0  0  0  0
 28 57  1  0  0  0  0
 29 30  1  0  0  0  0
 29 36  1  0  0  0  0
 30 31  1  0  0  0  0
 30 35  2  0  0  0  0
 31 32  2  0  0  0  0
 31 58  1  0  0  0  0
 32 33  1  0  0  0  0
 32 59  1  0  0  0  0
 33 34  2  0  0  0  0
 33 60  1  0  0  0  0
 34 35  1  0  0  0  0
 34 61  1  0  0  0  0
 35 62  1  0  0  0  0
M  END
$$$$
