CHEMBL416056
 OpenBabel04072215383D

 56 63  0  0  1  0  0  0  0  0999 V2000
    1.3797    0.1386   -0.4761 C   0  0  0  0  0  0  0  0  0  0  0  0
    2.8067    0.1891   -0.6466 O   0  0  0  0  0  0  0  0  0  0  0  0
    3.4092   -0.9525   -0.2250 C   0  0  0  0  0  0  0  0  0  0  0  0
    2.7864   -1.9145    0.2379 O   0  0  0  0  0  0  0  0  0  0  0  0
    4.9369   -0.9105   -0.1976 C   0  0  2  0  0  0  0  0  0  0  0  0
    5.1147   -1.1498    1.2106 O   0  0  0  0  0  0  0  0  0  0  0  0
    5.8591    0.2143   -0.9217 C   0  0  0  0  0  0  0  0  0  0  0  0
    6.2988   -0.3751   -2.4458 C   0  0  2  0  0  0  0  0  0  0  0  0
    5.2570   -1.2742   -2.3514 O   0  0  0  0  0  0  0  0  0  0  0  0
    5.5036   -2.0032   -1.0346 C   0  0  2  0  0  0  0  0  0  0  0  0
    4.7436   -3.2360   -1.5617 C   0  0  0  0  0  0  0  0  0  0  0  0
    6.9729   -2.1516   -0.5355 N   0  0  0  0  0  0  0  0  0  0  0  0
    7.8879   -1.7130    0.5310 C   0  0  0  0  0  0  0  0  0  0  0  0
    7.8064   -0.7637    1.5875 C   0  0  0  0  0  0  0  0  0  0  0  0
    8.9440   -0.3326    2.2979 C   0  0  0  0  0  0  0  0  0  0  0  0
   10.1989   -0.8490    2.0443 C   0  0  0  0  0  0  0  0  0  0  0  0
   10.3479   -1.8458    1.0914 C   0  0  0  0  0  0  0  0  0  0  0  0
    9.2472   -2.2955    0.3234 C   0  0  0  0  0  0  0  0  0  0  0  0
    9.1770   -3.1064   -0.8207 C   0  0  0  0  0  0  0  0  0  0  0  0
   10.2320   -3.6405   -1.5982 C   0  0  0  0  0  0  0  0  0  0  0  0
    9.8106   -4.0077   -2.8911 C   0  0  0  0  0  0  0  0  0  0  0  0
    8.7376   -3.1931   -3.3001 C   0  0  0  0  0  0  0  0  0  0  0  0
    7.7561   -3.4019   -4.2334 C   0  0  0  0  0  0  0  0  0  0  0  0
    7.2590   -4.5277   -4.9115 C   0  0  0  0  0  0  0  0  0  0  0  0
    6.4575   -4.3100   -6.0140 C   0  0  0  0  0  0  0  0  0  0  0  0
    6.2188   -2.9989   -6.4260 C   0  0  0  0  0  0  0  0  0  0  0  0
    6.4659   -1.8775   -5.5936 C   0  0  0  0  0  0  0  0  0  0  0  0
    7.0776   -2.0969   -4.3543 C   0  0  0  0  0  0  0  0  0  0  0  0
    7.2262   -1.3182   -3.1213 N   0  0  0  0  0  0  0  0  0  0  0  0
    8.0590   -2.2332   -2.5677 C   0  0  0  0  0  0  0  0  0  0  0  0
    7.9482   -2.6605   -1.2759 C   0  0  0  0  0  0  0  0  0  0  0  0
   10.8705   -4.6710   -3.6148 C   0  0  0  0  0  0  0  0  0  0  0  0
   10.9149   -5.1422   -4.7444 O   0  0  0  0  0  0  0  0  0  0  0  0
   11.9264   -4.5760   -2.6990 N   0  0  0  0  0  0  0  0  0  0  0  0
   11.6658   -3.8444   -1.4531 C   0  0  0  0  0  0  0  0  0  0  0  0
    0.9547    1.0700   -0.8551 H   0  0  0  0  0  0  0  0  0  0  0  0
    1.1116    0.0462    0.5854 H   0  0  0  0  0  0  0  0  0  0  0  0
    0.9449   -0.6959   -1.0426 H   0  0  0  0  0  0  0  0  0  0  0  0
    4.9044   -2.0969    1.3789 H   0  0  0  0  0  0  0  0  0  0  0  0
    6.7134    0.5591   -0.3359 H   0  0  0  0  0  0  0  0  0  0  0  0
    5.2185    1.0913   -1.0732 H   0  0  0  0  0  0  0  0  0  0  0  0
    6.1869    0.4563   -3.1474 H   0  0  0  0  0  0  0  0  0  0  0  0
    3.6716   -3.0123   -1.6901 H   0  0  0  0  0  0  0  0  0  0  0  0
    4.8698   -4.1638   -1.0233 H   0  0  0  0  0  0  0  0  0  0  0  0
    5.0225   -3.4272   -2.6185 H   0  0  0  0  0  0  0  0  0  0  0  0
    6.8935   -0.2343    1.8368 H   0  0  0  0  0  0  0  0  0  0  0  0
    8.8406    0.4576    3.0407 H   0  0  0  0  0  0  0  0  0  0  0  0
   11.0720   -0.4611    2.5653 H   0  0  0  0  0  0  0  0  0  0  0  0
   11.3488   -2.2052    0.8714 H   0  0  0  0  0  0  0  0  0  0  0  0
    7.5088   -5.5379   -4.5866 H   0  0  0  0  0  0  0  0  0  0  0  0
    6.1049   -5.1632   -6.5900 H   0  0  0  0  0  0  0  0  0  0  0  0
    5.8172   -2.8515   -7.4245 H   0  0  0  0  0  0  0  0  0  0  0  0
    6.2447   -0.8774   -5.9409 H   0  0  0  0  0  0  0  0  0  0  0  0
   12.8514   -4.8034   -3.0296 H   0  0  0  0  0  0  0  0  0  0  0  0
   12.1860   -2.8813   -1.5075 H   0  0  0  0  0  0  0  0  0  0  0  0
   11.9751   -4.4289   -0.5887 H   0  0  0  0  0  0  0  0  0  0  0  0
  1  2  1  0  0  0  0
  1 36  1  0  0  0  0
  1 37  1  0  0  0  0
  1 38  1  0  0  0  0
  2  3  1  0  0  0  0
  3  4  2  0  0  0  0
  5  7  1  0  0  0  0
  5 10  1  0  0  0  0
  5  3  1  6  0  0  0
  5  6  1  0  0  0  0
  6 39  1  0  0  0  0
  7  8  1  0  0  0  0
  7 40  1  0  0  0  0
  7 41  1  0  0  0  0
  8  9  1  0  0  0  0
  8 29  1  0  0  0  0
  8 42  1  6  0  0  0
  9 10  1  0  0  0  0
 10 12  1  0  0  0  0
 10 11  1  1  0  0  0
 11 43  1  0  0  0  0
 11 44  1  0  0  0  0
 11 45  1  0  0  0  0
 12 13  1  0  0  0  0
 12 31  1  0  0  0  0
 13 14  1  0  0  0  0
 13 18  2  0  0  0  0
 14 15  2  0  0  0  0
 14 46  1  0  0  0  0
 15 16  1  0  0  0  0
 15 47  1  0  0  0  0
 16 17  2  0  0  0  0
 16 48  1  0  0  0  0
 17 18  1  0  0  0  0
 17 49  1  0  0  0  0
 18 19  1  0  0  0  0
 19 20  1  0  0  0  0
 19 31  2  0  0  0  0
 20 21  2  0  0  0  0
 20 35  1  0  0  0  0
 21 22  1  0  0  0  0
 21 32  1  0  0  0  0
 22 23  1  0  0  0  0
 22 30  2  0  0  0  0
 23 24  1  0  0  0  0
 23 28  2  0  0  0  0
 24 25  2  0  0  0  0
 24 50  1  0  0  0  0
 25 26  1  0  0  0  0
 25 51  1  0  0  0  0
 26 27  2  0  0  0  0
 26 52  1  0  0  0  0
 27 28  1  0  0  0  0
 27 53  1  0  0  0  0
 28 29  1  0  0  0  0
 29 30  1  0  0  0  0
 30 31  1  0  0  0  0
 32 34  1  0  0  0  0
 32 33  2  0  0  0  0
 34 35  1  0  0  0  0
 34 54  1  0  0  0  0
 35 55  1  0  0  0  0
 35 56  1  0  0  0  0
M  END
$$$$
