CHEMBL241682
 OpenBabel04072215363D

 60 64  0  0  0  0  0  0  0  0999 V2000
    1.1093    0.2438   -0.0517 N   0  0  0  0  0  0  0  0  0  0  0  0
    2.4893    0.0951   -0.0736 C   0  0  0  0  0  0  0  0  0  0  0  0
    3.1946    1.2421   -0.0078 N   0  0  0  0  0  0  0  0  0  0  0  0
    4.5482    1.2036    0.0218 C   0  0  0  0  0  0  0  0  0  0  0  0
    5.3463    0.0600   -0.0096 C   0  0  0  0  0  0  0  0  0  0  0  0
    6.8155    0.0710   -0.0002 C   0  0  0  0  0  0  0  0  0  0  0  0
    7.5772   -0.9525    0.5983 C   0  0  0  0  0  0  0  0  0  0  0  0
    8.9770   -0.9627    0.5470 C   0  0  0  0  0  0  0  0  0  0  0  0
    9.6554    0.0704   -0.0849 C   0  0  0  0  0  0  0  0  0  0  0  0
    8.9196    1.1040   -0.6588 C   0  0  0  0  0  0  0  0  0  0  0  0
    9.7550    2.3941   -1.5210 S   0  0  0  0  0  0  0  0  0  0  0  0
    9.7550    1.7324   -3.0592 N   0  0  0  0  0  0  0  0  0  0  0  0
    8.9053    3.5611   -1.5704 O   0  0  0  0  0  0  0  0  0  0  0  0
   11.1311    2.4483   -1.0888 O   0  0  0  0  0  0  0  0  0  0  0  0
    7.5214    1.1108   -0.6221 C   0  0  0  0  0  0  0  0  0  0  0  0
    4.5704   -1.0989   -0.0890 C   0  0  0  0  0  0  0  0  0  0  0  0
    5.0695   -2.3679   -0.1409 O   0  0  0  0  0  0  0  0  0  0  0  0
    4.0207   -3.2123   -0.1799 C   0  0  0  0  0  0  0  0  0  0  0  0
    2.8243   -2.5275   -0.1887 C   0  0  0  0  0  0  0  0  0  0  0  0
    1.5363   -3.2022   -0.1745 C   0  0  0  0  0  0  0  0  0  0  0  0
    1.3849   -4.3755    0.5571 C   0  0  0  0  0  0  0  0  0  0  0  0
    0.1444   -5.0092    0.6414 C   0  0  0  0  0  0  0  0  0  0  0  0
   -0.9895   -4.4710    0.0275 C   0  0  0  0  0  0  0  0  0  0  0  0
   -2.2784   -5.0441    0.1454 N   0  0  0  0  0  0  0  0  0  0  0  0
   -2.5876   -6.1167    0.9551 C   0  0  0  0  0  0  0  0  0  0  0  0
   -1.8026   -6.6693    1.7186 O   0  0  0  0  0  0  0  0  0  0  0  0
   -3.8984   -6.5514    0.8043 N   0  0  0  0  0  0  0  0  0  0  0  0
   -4.2879   -7.6851    1.5680 C   0  0  0  0  0  0  0  0  0  0  0  0
   -4.0240   -7.7429    2.9441 C   0  0  0  0  0  0  0  0  0  0  0  0
   -4.1797   -8.9393    3.6558 C   0  0  0  0  0  0  0  0  0  0  0  0
   -3.8223   -9.0133    5.1206 C   0  0  0  0  0  0  0  0  0  0  0  0
   -3.4310   -7.8227    5.6545 F   0  0  0  0  0  0  0  0  0  0  0  0
   -4.8712   -9.4323    5.8826 F   0  0  0  0  0  0  0  0  0  0  0  0
   -2.8089   -9.8876    5.3689 F   0  0  0  0  0  0  0  0  0  0  0  0
   -4.6306  -10.0775    2.9664 C   0  0  0  0  0  0  0  0  0  0  0  0
   -4.9579  -10.0052    1.6074 C   0  0  0  0  0  0  0  0  0  0  0  0
   -4.8047   -8.8046    0.9212 C   0  0  0  0  0  0  0  0  0  0  0  0
   -5.0606   -8.7573   -0.3947 F   0  0  0  0  0  0  0  0  0  0  0  0
   -0.8364   -3.3119   -0.7357 C   0  0  0  0  0  0  0  0  0  0  0  0
    0.4227   -2.7001   -0.8550 C   0  0  0  0  0  0  0  0  0  0  0  0
    3.1746   -1.1333   -0.1269 C   0  0  0  0  0  0  0  0  0  0  0  0
    0.8901    1.2006    0.2068 H   0  0  0  0  0  0  0  0  0  0  0  0
    0.6425   -0.4628    0.5033 H   0  0  0  0  0  0  0  0  0  0  0  0
    4.9998    2.1906    0.0845 H   0  0  0  0  0  0  0  0  0  0  0  0
    7.0866   -1.7753    1.1157 H   0  0  0  0  0  0  0  0  0  0  0  0
    9.5307   -1.7858    0.9921 H   0  0  0  0  0  0  0  0  0  0  0  0
   10.7408    0.0549   -0.1469 H   0  0  0  0  0  0  0  0  0  0  0  0
    9.2144    2.2971   -3.7119 H   0  0  0  0  0  0  0  0  0  0  0  0
   10.6914    1.4701   -3.3584 H   0  0  0  0  0  0  0  0  0  0  0  0
    6.9895    1.9177   -1.1236 H   0  0  0  0  0  0  0  0  0  0  0  0
    4.2795   -4.2675   -0.1872 H   0  0  0  0  0  0  0  0  0  0  0  0
    2.2137   -4.8239    1.1045 H   0  0  0  0  0  0  0  0  0  0  0  0
    0.1181   -5.9276    1.2171 H   0  0  0  0  0  0  0  0  0  0  0  0
   -3.0506   -4.5540   -0.2824 H   0  0  0  0  0  0  0  0  0  0  0  0
   -4.2197   -6.5540   -0.1567 H   0  0  0  0  0  0  0  0  0  0  0  0
   -3.6293   -6.8634    3.4539 H   0  0  0  0  0  0  0  0  0  0  0  0
   -4.7125  -11.0306    3.4874 H   0  0  0  0  0  0  0  0  0  0  0  0
   -5.2912  -10.8890    1.0722 H   0  0  0  0  0  0  0  0  0  0  0  0
   -1.6856   -2.8568   -1.2396 H   0  0  0  0  0  0  0  0  0  0  0  0
    0.5118   -1.8161   -1.4829 H   0  0  0  0  0  0  0  0  0  0  0  0
  1  2  1  0  0  0  0
  1 42  1  0  0  0  0
  1 43  1  0  0  0  0
  2  3  1  0  0  0  0
  2 41  2  0  0  0  0
  3  4  2  0  0  0  0
  4  5  1  0  0  0  0
  4 44  1  0  0  0  0
  5  6  1  0  0  0  0
  5 16  2  0  0  0  0
  6  7  1  0  0  0  0
  6 15  2  0  0  0  0
  7  8  2  0  0  0  0
  7 45  1  0  0  0  0
  8  9  1  0  0  0  0
  8 46  1  0  0  0  0
  9 10  2  0  0  0  0
  9 47  1  0  0  0  0
 10 11  1  0  0  0  0
 10 15  1  0  0  0  0
 11 12  1  0  0  0  0
 11 13  2  0  0  0  0
 11 14  2  0  0  0  0
 12 48  1  0  0  0  0
 12 49  1  0  0  0  0
 15 50  1  0  0  0  0
 16 17  1  0  0  0  0
 16 41  1  0  0  0  0
 17 18  1  0  0  0  0
 18 19  2  0  0  0  0
 18 51  1  0  0  0  0
 19 20  1  0  0  0  0
 19 41  1  0  0  0  0
 20 21  1  0  0  0  0
 20 40  2  0  0  0  0
 21 22  2  0  0  0  0
 21 52  1  0  0  0  0
 22 23  1  0  0  0  0
 22 53  1  0  0  0  0
 23 24  1  0  0  0  0
 23 39  2  0  0  0  0
 24 25  1  0  0  0  0
 24 54  1  0  0  0  0
 25 26  2  0  0  0  0
 25 27  1  0  0  0  0
 27 28  1  0  0  0  0
 27 55  1  0  0  0  0
 28 29  1  0  0  0  0
 28 37  2  0  0  0  0
 29 30  2  0  0  0  0
 29 56  1  0  0  0  0
 30 31  1  0  0  0  0
 30 35  1  0  0  0  0
 31 32  1  0  0  0  0
 31 33  1  0  0  0  0
 31 34  1  0  0  0  0
 35 36  2  0  0  0  0
 35 57  1  0  0  0  0
 36 37  1  0  0  0  0
 36 58  1  0  0  0  0
 37 38  1  0  0  0  0
 39 40  1  0  0  0  0
 39 59  1  0  0  0  0
 40 60  1  0  0  0  0
M  END
$$$$
