CHEMBL3892005
 OpenBabel04072215373D

 65 69  0  0  0  0  0  0  0  0999 V2000
    1.5706    0.6531   -0.4955 C   0  0  0  0  0  0  0  0  0  0  0  0
    2.2934   -0.4627    0.0200 O   0  0  0  0  0  0  0  0  0  0  0  0
    2.9532   -1.2294   -0.9026 C   0  0  0  0  0  0  0  0  0  0  0  0
    2.6763   -1.2743   -2.2595 C   0  0  0  0  0  0  0  0  0  0  0  0
    3.4439   -2.0855   -3.0993 C   0  0  0  0  0  0  0  0  0  0  0  0
    3.2390   -2.2441   -4.4442 O   0  0  0  0  0  0  0  0  0  0  0  0
    2.2473   -1.4115   -5.0347 C   0  0  0  0  0  0  0  0  0  0  0  0
    4.5389   -2.7965   -2.5881 C   0  0  0  0  0  0  0  0  0  0  0  0
    4.9028   -2.6941   -1.2465 C   0  0  0  0  0  0  0  0  0  0  0  0
    6.1432   -3.1869   -0.7757 N   0  0  0  0  0  0  0  0  0  0  0  0
    6.5402   -2.8158    0.6243 C   0  0  0  0  0  0  0  0  0  0  0  0
    7.0538   -1.3804    0.7824 C   0  0  0  0  0  0  0  0  0  0  0  0
    7.6574   -1.0873    1.8171 O   0  0  0  0  0  0  0  0  0  0  0  0
    6.7367   -0.5069   -0.2274 N   0  0  0  0  0  0  0  0  0  0  0  0
    7.1160    0.8165   -0.2840 C   0  0  0  0  0  0  0  0  0  0  0  0
    6.4733    1.5694   -1.1884 N   0  0  0  0  0  0  0  0  0  0  0  0
    6.8108    2.8725   -1.2274 C   0  0  0  0  0  0  0  0  0  0  0  0
    7.7744    3.4268   -0.4308 C   0  0  0  0  0  0  0  0  0  0  0  0
    8.3890    2.5533    0.4304 C   0  0  0  0  0  0  0  0  0  0  0  0
    9.3966    3.0344    1.2440 O   0  0  0  0  0  0  0  0  0  0  0  0
    9.9826    2.0005    2.0440 C   0  0  0  0  0  0  0  0  0  0  0  0
    8.0707    1.2610    0.5194 N   0  0  0  0  0  0  0  0  0  0  0  0
    7.2792   -3.7396   -1.4535 C   0  0  0  0  0  0  0  0  0  0  0  0
    7.8310   -4.8790   -0.8661 C   0  0  0  0  0  0  0  0  0  0  0  0
    9.1520   -5.2095   -1.0893 C   0  0  0  0  0  0  0  0  0  0  0  0
    9.9257   -4.5106   -1.9827 C   0  0  0  0  0  0  0  0  0  0  0  0
   11.2297   -4.8110   -1.9564 N   0  0  0  0  0  0  0  0  0  0  0  0
   11.9949   -4.2229   -2.8841 C   0  0  0  0  0  0  0  0  0  0  0  0
   11.4607   -3.4315   -3.8807 C   0  0  0  0  0  0  0  0  0  0  0  0
   12.3222   -3.1424   -5.0131 C   0  0  0  0  0  0  0  0  0  0  0  0
   12.4484   -3.8262   -6.2493 C   0  0  0  0  0  0  0  0  0  0  0  0
   13.4852   -3.3923   -6.9766 N   0  0  0  0  0  0  0  0  0  0  0  0
   14.0185   -2.4274   -6.2079 N   0  0  0  0  0  0  0  0  0  0  0  0
   14.9363   -1.4664   -6.7715 C   0  0  0  0  0  0  0  0  0  0  0  0
   13.4725   -2.3767   -4.9549 C   0  0  0  0  0  0  0  0  0  0  0  0
   10.1428   -3.0435   -3.8613 N   0  0  0  0  0  0  0  0  0  0  0  0
    9.3524   -3.5376   -2.8360 C   0  0  0  0  0  0  0  0  0  0  0  0
    8.0046   -3.1522   -2.5220 C   0  0  0  0  0  0  0  0  0  0  0  0
    4.0056   -1.9963   -0.4008 C   0  0  0  0  0  0  0  0  0  0  0  0
    1.2925    1.3000    0.3429 H   0  0  0  0  0  0  0  0  0  0  0  0
    0.6476    0.3209   -0.9811 H   0  0  0  0  0  0  0  0  0  0  0  0
    2.1814    1.2516   -1.1820 H   0  0  0  0  0  0  0  0  0  0  0  0
    1.8690   -0.6754   -2.6570 H   0  0  0  0  0  0  0  0  0  0  0  0
    2.1855   -1.6647   -6.0964 H   0  0  0  0  0  0  0  0  0  0  0  0
    2.5287   -0.3566   -4.9527 H   0  0  0  0  0  0  0  0  0  0  0  0
    1.2619   -1.5913   -4.5897 H   0  0  0  0  0  0  0  0  0  0  0  0
    5.1275   -3.4046   -3.2689 H   0  0  0  0  0  0  0  0  0  0  0  0
    7.3573   -3.4442    1.0035 H   0  0  0  0  0  0  0  0  0  0  0  0
    5.7285   -3.0005    1.3358 H   0  0  0  0  0  0  0  0  0  0  0  0
    6.1038   -0.7713   -0.9630 H   0  0  0  0  0  0  0  0  0  0  0  0
    6.2566    3.4783   -1.9375 H   0  0  0  0  0  0  0  0  0  0  0  0
    8.0416    4.4707   -0.4630 H   0  0  0  0  0  0  0  0  0  0  0  0
   10.7488    2.4581    2.6753 H   0  0  0  0  0  0  0  0  0  0  0  0
   10.4735    1.2459    1.4172 H   0  0  0  0  0  0  0  0  0  0  0  0
    9.2421    1.5352    2.7059 H   0  0  0  0  0  0  0  0  0  0  0  0
    7.2739   -5.4450   -0.1235 H   0  0  0  0  0  0  0  0  0  0  0  0
    9.6092   -6.0102   -0.5168 H   0  0  0  0  0  0  0  0  0  0  0  0
   13.0535   -4.4473   -2.8282 H   0  0  0  0  0  0  0  0  0  0  0  0
   11.8506   -4.6408   -6.6387 H   0  0  0  0  0  0  0  0  0  0  0  0
   15.0935   -1.6805   -7.8319 H   0  0  0  0  0  0  0  0  0  0  0  0
   15.8819   -1.5036   -6.2273 H   0  0  0  0  0  0  0  0  0  0  0  0
   14.4721   -0.4817   -6.6651 H   0  0  0  0  0  0  0  0  0  0  0  0
   13.9120   -1.7727   -4.1732 H   0  0  0  0  0  0  0  0  0  0  0  0
    7.5795   -2.3086   -3.0654 H   0  0  0  0  0  0  0  0  0  0  0  0
    4.1434   -1.9439    0.6765 H   0  0  0  0  0  0  0  0  0  0  0  0
  1  2  1  0  0  0  0
  1 40  1  0  0  0  0
  1 41  1  0  0  0  0
  1 42  1  0  0  0  0
  2  3  1  0  0  0  0
  3  4  1  0  0  0  0
  3 39  2  0  0  0  0
  4  5  2  0  0  0  0
  4 43  1  0  0  0  0
  5  6  1  0  0  0  0
  5  8  1  0  0  0  0
  6  7  1  0  0  0  0
  7 44  1  0  0  0  0
  7 45  1  0  0  0  0
  7 46  1  0  0  0  0
  8  9  2  0  0  0  0
  8 47  1  0  0  0  0
  9 10  1  0  0  0  0
  9 39  1  0  0  0  0
 10 11  1  0  0  0  0
 10 23  1  0  0  0  0
 11 12  1  0  0  0  0
 11 48  1  0  0  0  0
 11 49  1  0  0  0  0
 12 13  2  0  0  0  0
 12 14  1  0  0  0  0
 14 15  1  0  0  0  0
 14 50  1  0  0  0  0
 15 16  1  0  0  0  0
 15 22  2  0  0  0  0
 16 17  2  0  0  0  0
 17 18  1  0  0  0  0
 17 51  1  0  0  0  0
 18 19  2  0  0  0  0
 18 52  1  0  0  0  0
 19 20  1  0  0  0  0
 19 22  1  0  0  0  0
 20 21  1  0  0  0  0
 21 53  1  0  0  0  0
 21 54  1  0  0  0  0
 21 55  1  0  0  0  0
 23 24  1  0  0  0  0
 23 38  2  0  0  0  0
 24 25  2  0  0  0  0
 24 56  1  0  0  0  0
 25 26  1  0  0  0  0
 25 57  1  0  0  0  0
 26 27  1  0  0  0  0
 26 37  2  0  0  0  0
 27 28  2  0  0  0  0
 28 29  1  0  0  0  0
 28 58  1  0  0  0  0
 29 30  1  0  0  0  0
 29 36  2  0  0  0  0
 30 31  1  0  0  0  0
 30 35  2  0  0  0  0
 31 32  2  0  0  0  0
 31 59  1  0  0  0  0
 32 33  1  0  0  0  0
 33 34  1  0  0  0  0
 33 35  1  0  0  0  0
 34 60  1  0  0  0  0
 34 61  1  0  0  0  0
 34 62  1  0  0  0  0
 35 63  1  0  0  0  0
 36 37  1  0  0  0  0
 37 38  1  0  0  0  0
 38 64  1  0  0  0  0
 39 65  1  0  0  0  0
M  END
$$$$
