CHEMBL505896
 OpenBabel04072215383D

 80 85  0  0  0  0  0  0  0  0999 V2000
    2.4240   -0.6732   -1.0190 C   0  0  0  0  0  0  0  0  0  0  0  0
    2.4124   -0.2169    0.3268 O   0  0  0  0  0  0  0  0  0  0  0  0
    3.0988    0.9225    0.6349 C   0  0  0  0  0  0  0  0  0  0  0  0
    4.2194    1.3479   -0.0757 C   0  0  0  0  0  0  0  0  0  0  0  0
    4.7970    2.6247    0.1259 C   0  0  0  0  0  0  0  0  0  0  0  0
    5.7682    3.2200   -0.7193 C   0  0  0  0  0  0  0  0  0  0  0  0
    6.2514    2.7217   -1.9143 O   0  0  0  0  0  0  0  0  0  0  0  0
    5.4272    2.1018   -2.8224 C   0  0  0  0  0  0  0  0  0  0  0  0
    6.0472    1.1243   -3.5983 C   0  0  0  0  0  0  0  0  0  0  0  0
    5.2884    0.2852   -4.4210 C   0  0  0  0  0  0  0  0  0  0  0  0
    3.8886    0.3830   -4.4739 C   0  0  0  0  0  0  0  0  0  0  0  0
    3.0812   -0.6613   -5.1589 C   0  0  0  0  0  0  0  0  0  0  0  0
    1.8470   -0.4394   -5.6342 C   0  0  0  0  0  0  0  0  0  0  0  0
    1.0392   -1.3601   -6.2383 N   0  0  0  0  0  0  0  0  0  0  0  0
    1.5475   -2.5160   -6.5363 C   0  0  0  0  0  0  0  0  0  0  0  0
    0.6331   -3.5202   -7.2357 C   0  0  0  0  0  0  0  0  0  0  0  0
    0.6780   -3.4260   -8.7444 C   0  0  0  0  0  0  0  0  0  0  0  0
    0.9538   -4.5622   -9.5182 C   0  0  0  0  0  0  0  0  0  0  0  0
    1.0251   -4.4740  -10.9096 C   0  0  0  0  0  0  0  0  0  0  0  0
    0.8007   -3.2547  -11.5449 C   0  0  0  0  0  0  0  0  0  0  0  0
    0.4802   -2.1282  -10.7914 C   0  0  0  0  0  0  0  0  0  0  0  0
    0.4119   -2.2143   -9.3997 C   0  0  0  0  0  0  0  0  0  0  0  0
    2.8413   -2.8579   -6.2218 N   0  0  0  0  0  0  0  0  0  0  0  0
    3.4719   -4.1092   -6.6092 C   0  0  0  0  0  0  0  0  0  0  0  0
    3.5633   -2.0680   -5.3415 C   0  0  0  0  0  0  0  0  0  0  0  0
    4.5348   -2.4951   -4.7170 O   0  0  0  0  0  0  0  0  0  0  0  0
    3.2960    1.4571   -3.7887 C   0  0  0  0  0  0  0  0  0  0  0  0
    4.0636    2.3234   -3.0019 C   0  0  0  0  0  0  0  0  0  0  0  0
    3.4229    3.2968   -2.3393 F   0  0  0  0  0  0  0  0  0  0  0  0
    6.3664    4.4160   -0.3404 C   0  0  0  0  0  0  0  0  0  0  0  0
    5.9272    5.0338    0.8080 C   0  0  0  0  0  0  0  0  0  0  0  0
    4.9301    4.5515    1.5749 N   0  0  0  0  0  0  0  0  0  0  0  0
    4.3662    3.3821    1.2307 C   0  0  0  0  0  0  0  0  0  0  0  0
    3.3259    2.8963    2.0085 C   0  0  0  0  0  0  0  0  0  0  0  0
    2.6904    1.6769    1.7352 C   0  0  0  0  0  0  0  0  0  0  0  0
    1.7116    1.3455    2.6379 O   0  0  0  0  0  0  0  0  0  0  0  0
    1.5127   -0.0429    2.9391 C   0  0  0  0  0  0  0  0  0  0  0  0
    2.7792   -0.7743    3.4031 C   0  0  0  0  0  0  0  0  0  0  0  0
    3.3429   -0.1506    4.6832 C   0  0  0  0  0  0  0  0  0  0  0  0
    4.5998   -0.7724    5.1414 N   0  0  0  0  0  0  0  0  0  0  0  0
    5.0230   -0.1796    6.4350 C   0  0  0  0  0  0  0  0  0  0  0  0
    5.5820    1.2529    6.3199 C   0  0  0  0  0  0  0  0  0  0  0  0
    6.6542    1.3312    5.3717 O   0  0  0  0  0  0  0  0  0  0  0  0
    6.2345    0.8469    4.0894 C   0  0  0  0  0  0  0  0  0  0  0  0
    5.7284   -0.6002    4.1946 C   0  0  0  0  0  0  0  0  0  0  0  0
    2.8980   -1.6625   -1.0503 H   0  0  0  0  0  0  0  0  0  0  0  0
    2.9287   -0.0199   -1.7156 H   0  0  0  0  0  0  0  0  0  0  0  0
    1.3901   -0.7710   -1.3659 H   0  0  0  0  0  0  0  0  0  0  0  0
    4.6558    0.6885   -0.8175 H   0  0  0  0  0  0  0  0  0  0  0  0
    7.1218    0.9711   -3.5268 H   0  0  0  0  0  0  0  0  0  0  0  0
    5.8171   -0.4884   -4.9759 H   0  0  0  0  0  0  0  0  0  0  0  0
    1.3888    0.5427   -5.5573 H   0  0  0  0  0  0  0  0  0  0  0  0
   -0.3997   -3.3355   -6.9120 H   0  0  0  0  0  0  0  0  0  0  0  0
    0.8737   -4.5340   -6.8970 H   0  0  0  0  0  0  0  0  0  0  0  0
    1.1190   -5.5271   -9.0444 H   0  0  0  0  0  0  0  0  0  0  0  0
    1.2553   -5.3579  -11.4988 H   0  0  0  0  0  0  0  0  0  0  0  0
    0.8665   -3.1841  -12.6273 H   0  0  0  0  0  0  0  0  0  0  0  0
    0.2830   -1.1805  -11.2862 H   0  0  0  0  0  0  0  0  0  0  0  0
    0.1494   -1.3242   -8.8300 H   0  0  0  0  0  0  0  0  0  0  0  0
    3.0444   -4.5157   -7.5249 H   0  0  0  0  0  0  0  0  0  0  0  0
    3.3585   -4.8321   -5.7961 H   0  0  0  0  0  0  0  0  0  0  0  0
    4.5418   -3.9430   -6.7813 H   0  0  0  0  0  0  0  0  0  0  0  0
    2.2182    1.5977   -3.7648 H   0  0  0  0  0  0  0  0  0  0  0  0
    7.1552    4.8625   -0.9404 H   0  0  0  0  0  0  0  0  0  0  0  0
    6.3724    5.9629    1.1515 H   0  0  0  0  0  0  0  0  0  0  0  0
    3.0036    3.4808    2.8682 H   0  0  0  0  0  0  0  0  0  0  0  0
    1.0222   -0.5525    2.1037 H   0  0  0  0  0  0  0  0  0  0  0  0
    0.7785   -0.0713    3.7531 H   0  0  0  0  0  0  0  0  0  0  0  0
    3.5304   -0.7411    2.6127 H   0  0  0  0  0  0  0  0  0  0  0  0
    2.5498   -1.8326    3.5684 H   0  0  0  0  0  0  0  0  0  0  0  0
    2.5857   -0.2926    5.4655 H   0  0  0  0  0  0  0  0  0  0  0  0
    3.4547    0.9305    4.5561 H   0  0  0  0  0  0  0  0  0  0  0  0
    5.8087   -0.8255    6.8477 H   0  0  0  0  0  0  0  0  0  0  0  0
    4.1983   -0.2057    7.1570 H   0  0  0  0  0  0  0  0  0  0  0  0
    5.9813    1.5670    7.2894 H   0  0  0  0  0  0  0  0  0  0  0  0
    4.8035    1.9720    6.0413 H   0  0  0  0  0  0  0  0  0  0  0  0
    7.1005    0.8872    3.4211 H   0  0  0  0  0  0  0  0  0  0  0  0
    5.4749    1.5185    3.6771 H   0  0  0  0  0  0  0  0  0  0  0  0
    6.5540   -1.2255    4.5604 H   0  0  0  0  0  0  0  0  0  0  0  0
    5.4912   -0.9953    3.2027 H   0  0  0  0  0  0  0  0  0  0  0  0
  1  2  1  0  0  0  0
  1 46  1  0  0  0  0
  1 47  1  0  0  0  0
  1 48  1  0  0  0  0
  2  3  1  0  0  0  0
  3  4  1  0  0  0  0
  3 35  2  0  0  0  0
  4  5  2  0  0  0  0
  4 49  1  0  0  0  0
  5  6  1  0  0  0  0
  5 33  1  0  0  0  0
  6  7  1  0  0  0  0
  6 30  2  0  0  0  0
  7  8  1  0  0  0  0
  8  9  1  0  0  0  0
  8 28  2  0  0  0  0
  9 10  2  0  0  0  0
  9 50  1  0  0  0  0
 10 11  1  0  0  0  0
 10 51  1  0  0  0  0
 11 12  1  0  0  0  0
 11 27  2  0  0  0  0
 12 13  2  0  0  0  0
 12 25  1  0  0  0  0
 13 14  1  0  0  0  0
 13 52  1  0  0  0  0
 14 15  2  0  0  0  0
 15 16  1  0  0  0  0
 15 23  1  0  0  0  0
 16 17  1  0  0  0  0
 16 53  1  0  0  0  0
 16 54  1  0  0  0  0
 17 18  1  0  0  0  0
 17 22  2  0  0  0  0
 18 19  2  0  0  0  0
 18 55  1  0  0  0  0
 19 20  1  0  0  0  0
 19 56  1  0  0  0  0
 20 21  2  0  0  0  0
 20 57  1  0  0  0  0
 21 22  1  0  0  0  0
 21 58  1  0  0  0  0
 22 59  1  0  0  0  0
 23 24  1  0  0  0  0
 23 25  1  0  0  0  0
 24 60  1  0  0  0  0
 24 61  1  0  0  0  0
 24 62  1  0  0  0  0
 25 26  2  0  0  0  0
 27 28  1  0  0  0  0
 27 63  1  0  0  0  0
 28 29  1  0  0  0  0
 30 31  1  0  0  0  0
 30 64  1  0  0  0  0
 31 32  2  0  0  0  0
 31 65  1  0  0  0  0
 32 33  1  0  0  0  0
 33 34  2  0  0  0  0
 34 35  1  0  0  0  0
 34 66  1  0  0  0  0
 35 36  1  0  0  0  0
 36 37  1  0  0  0  0
 37 38  1  0  0  0  0
 37 67  1  0  0  0  0
 37 68  1  0  0  0  0
 38 39  1  0  0  0  0
 38 69  1  0  0  0  0
 38 70  1  0  0  0  0
 39 40  1  0  0  0  0
 39 71  1  0  0  0  0
 39 72  1  0  0  0  0
 40 41  1  0  0  0  0
 40 45  1  0  0  0  0
 41 42  1  0  0  0  0
 41 73  1  0  0  0  0
 41 74  1  0  0  0  0
 42 43  1  0  0  0  0
 42 75  1  0  0  0  0
 42 76  1  0  0  0  0
 43 44  1  0  0  0  0
 44 45  1  0  0  0  0
 44 77  1  0  0  0  0
 44 78  1  0  0  0  0
 45 79  1  0  0  0  0
 45 80  1  0  0  0  0
M  END
$$$$
