CHEMBL3827178
 OpenBabel04072215373D

 61 66  0  0  1  0  0  0  0  0999 V2000
    2.0129   -5.7880    7.8554 C   0  0  0  0  0  0  0  0  0  0  0  0
    2.1949   -4.9191    9.1044 C   0  0  1  0  0  0  0  0  0  0  0  0
    1.3357   -3.7680    9.0747 O   0  0  0  0  0  0  0  0  0  0  0  0
    1.5756   -2.8094    8.1264 C   0  0  0  0  0  0  0  0  0  0  0  0
    0.4548   -2.0829    7.7102 C   0  0  0  0  0  0  0  0  0  0  0  0
    0.5454   -1.0713    6.7444 C   0  0  0  0  0  0  0  0  0  0  0  0
    1.8175   -0.7981    6.2350 C   0  0  0  0  0  0  0  0  0  0  0  0
    2.2603    0.1103    5.3110 N   0  0  0  0  0  0  0  0  0  0  0  0
    3.5963    0.1139    5.1305 N   0  0  0  0  0  0  0  0  0  0  0  0
    4.0187   -0.8698    5.9422 C   0  0  0  0  0  0  0  0  0  0  0  0
    5.4626   -1.2107    6.0746 C   0  0  0  0  0  0  0  0  0  0  0  0
    5.9735   -2.2008    6.7808 N   0  0  0  0  0  0  0  0  0  0  0  0
    7.3363   -2.0963    6.6224 C   0  0  0  0  0  0  0  0  0  0  0  0
    8.3710   -2.8883    7.1501 C   0  0  0  0  0  0  0  0  0  0  0  0
    9.7104   -2.5796    6.8565 C   0  0  0  0  0  0  0  0  0  0  0  0
   10.7857   -3.2872    7.3754 N   0  0  0  0  0  0  0  0  0  0  0  0
   10.6489   -4.1313    8.5718 C   0  0  0  0  0  0  0  0  0  0  0  0
   12.0296   -4.2285    9.2706 C   0  0  0  0  0  0  0  0  0  0  0  0
   13.1010   -4.7388    8.3797 N   0  0  0  0  0  0  0  0  0  0  0  0
   14.3908   -4.7138    9.0667 C   0  0  0  0  0  0  0  0  0  0  0  0
   13.1584   -3.9104    7.1515 C   0  0  0  0  0  0  0  0  0  0  0  0
   11.7944   -3.8072    6.4309 C   0  0  0  0  0  0  0  0  0  0  0  0
    9.9662   -1.4520    6.0495 C   0  0  0  0  0  0  0  0  0  0  0  0
    8.9589   -0.6452    5.5091 C   0  0  0  0  0  0  0  0  0  0  0  0
    7.6557   -1.0107    5.8123 C   0  0  0  0  0  0  0  0  0  0  0  0
    6.4455   -0.4799    5.4646 N   0  0  0  0  0  0  0  0  0  0  0  0
    2.9546   -1.4797    6.6488 C   0  0  0  0  0  0  0  0  0  0  0  0
    2.8357   -2.5032    7.6090 C   0  0  0  0  0  0  0  0  0  0  0  0
    1.9182   -5.7743   10.3386 C   0  0  0  0  0  0  0  0  0  0  0  0
    2.9809   -6.4465   10.9812 C   0  0  0  0  0  0  0  0  0  0  0  0
    4.6308   -6.3179   10.4769 Cl  0  0  0  0  0  0  0  0  0  0  0  0
    2.7139   -7.2928   12.0549 C   0  0  0  0  0  0  0  0  0  0  0  0
    1.4793   -7.5254   12.5462 N   0  0  0  0  0  0  0  0  0  0  0  0
    0.4669   -6.8829   11.9224 C   0  0  0  0  0  0  0  0  0  0  0  0
    0.6238   -6.0241   10.8342 C   0  0  0  0  0  0  0  0  0  0  0  0
   -0.8227   -5.3784   10.1471 Cl  0  0  0  0  0  0  0  0  0  0  0  0
    2.4106   -5.2877    6.9671 H   0  0  0  0  0  0  0  0  0  0  0  0
    0.9532   -5.9818    7.6571 H   0  0  0  0  0  0  0  0  0  0  0  0
    2.5283   -6.7501    7.9497 H   0  0  0  0  0  0  0  0  0  0  0  0
    3.2248   -4.5643    9.1731 H   0  0  0  0  0  0  0  0  0  0  0  0
   -0.5169   -2.3150    8.1434 H   0  0  0  0  0  0  0  0  0  0  0  0
   -0.3352   -0.5228    6.4238 H   0  0  0  0  0  0  0  0  0  0  0  0
    1.7024    0.7694    4.7802 H   0  0  0  0  0  0  0  0  0  0  0  0
    8.1029   -3.7365    7.7687 H   0  0  0  0  0  0  0  0  0  0  0  0
   10.2907   -5.1315    8.2967 H   0  0  0  0  0  0  0  0  0  0  0  0
    9.9401   -3.6972    9.2866 H   0  0  0  0  0  0  0  0  0  0  0  0
   11.9330   -4.8867   10.1416 H   0  0  0  0  0  0  0  0  0  0  0  0
   12.2981   -3.2289    9.6412 H   0  0  0  0  0  0  0  0  0  0  0  0
   14.3593   -5.3466    9.9618 H   0  0  0  0  0  0  0  0  0  0  0  0
   14.6818   -3.7012    9.3698 H   0  0  0  0  0  0  0  0  0  0  0  0
   15.1769   -5.1193    8.4211 H   0  0  0  0  0  0  0  0  0  0  0  0
   13.8866   -4.3404    6.4541 H   0  0  0  0  0  0  0  0  0  0  0  0
   13.4971   -2.8941    7.3972 H   0  0  0  0  0  0  0  0  0  0  0  0
   11.4847   -4.7968    6.0692 H   0  0  0  0  0  0  0  0  0  0  0  0
   11.9182   -3.1698    5.5488 H   0  0  0  0  0  0  0  0  0  0  0  0
   10.9979   -1.1587    5.8639 H   0  0  0  0  0  0  0  0  0  0  0  0
    9.1942    0.2231    4.9060 H   0  0  0  0  0  0  0  0  0  0  0  0
    6.2716    0.3295    4.8872 H   0  0  0  0  0  0  0  0  0  0  0  0
    3.7398   -3.0048    7.9328 H   0  0  0  0  0  0  0  0  0  0  0  0
    3.5120   -7.8360   12.5550 H   0  0  0  0  0  0  0  0  0  0  0  0
   -0.5194   -7.0990   12.3260 H   0  0  0  0  0  0  0  0  0  0  0  0
  1  2  1  0  0  0  0
  1 37  1  0  0  0  0
  1 38  1  0  0  0  0
  1 39  1  0  0  0  0
  2  3  1  0  0  0  0
  2 29  1  0  0  0  0
  2 40  1  1  0  0  0
  3  4  1  0  0  0  0
  4  5  1  0  0  0  0
  4 28  2  0  0  0  0
  5  6  2  0  0  0  0
  5 41  1  0  0  0  0
  6  7  1  0  0  0  0
  6 42  1  0  0  0  0
  7  8  1  0  0  0  0
  7 27  2  0  0  0  0
  8  9  1  0  0  0  0
  8 43  1  0  0  0  0
  9 10  2  0  0  0  0
 10 11  1  0  0  0  0
 10 27  1  0  0  0  0
 11 12  2  0  0  0  0
 11 26  1  0  0  0  0
 12 13  1  0  0  0  0
 13 14  1  0  0  0  0
 13 25  2  0  0  0  0
 14 15  2  0  0  0  0
 14 44  1  0  0  0  0
 15 16  1  0  0  0  0
 15 23  1  0  0  0  0
 16 17  1  0  0  0  0
 16 22  1  0  0  0  0
 17 18  1  0  0  0  0
 17 45  1  0  0  0  0
 17 46  1  0  0  0  0
 18 19  1  0  0  0  0
 18 47  1  0  0  0  0
 18 48  1  0  0  0  0
 19 20  1  0  0  0  0
 19 21  1  0  0  0  0
 20 49  1  0  0  0  0
 20 50  1  0  0  0  0
 20 51  1  0  0  0  0
 21 22  1  0  0  0  0
 21 52  1  0  0  0  0
 21 53  1  0  0  0  0
 22 54  1  0  0  0  0
 22 55  1  0  0  0  0
 23 24  2  0  0  0  0
 23 56  1  0  0  0  0
 24 25  1  0  0  0  0
 24 57  1  0  0  0  0
 25 26  1  0  0  0  0
 26 58  1  0  0  0  0
 27 28  1  0  0  0  0
 28 59  1  0  0  0  0
 29 30  1  0  0  0  0
 29 35  2  0  0  0  0
 30 31  1  0  0  0  0
 30 32  2  0  0  0  0
 32 33  1  0  0  0  0
 32 60  1  0  0  0  0
 33 34  2  0  0  0  0
 34 35  1  0  0  0  0
 34 61  1  0  0  0  0
 35 36  1  0  0  0  0
M  END
$$$$
