CHEMBL1242661
 OpenBabel04072215363D

 41 44  0  0  0  0  0  0  0  0999 V2000
    0.9282   -0.5893    0.3543 C   0  0  0  0  0  0  0  0  0  0  0  0
    2.4332   -0.6905    0.5174 C   0  0  0  0  0  0  0  0  0  0  0  0
    2.9981   -1.1324   -0.7168 O   0  0  0  0  0  0  0  0  0  0  0  0
    4.3546   -1.3215   -0.7314 C   0  0  0  0  0  0  0  0  0  0  0  0
    5.2244   -1.0528    0.3254 C   0  0  0  0  0  0  0  0  0  0  0  0
    6.5947   -1.3001    0.1886 C   0  0  0  0  0  0  0  0  0  0  0  0
    7.1157   -1.8335   -0.9972 C   0  0  0  0  0  0  0  0  0  0  0  0
    8.4851   -2.1085   -1.1354 C   0  0  0  0  0  0  0  0  0  0  0  0
    8.9977   -2.6830   -2.3077 C   0  0  0  0  0  0  0  0  0  0  0  0
   10.4297   -2.9805   -2.4139 C   0  0  0  0  0  0  0  0  0  0  0  0
   11.1116   -3.3819   -1.3216 N   0  0  0  0  0  0  0  0  0  0  0  0
   12.3555   -3.6215   -1.7753 N   0  0  0  0  0  0  0  0  0  0  0  0
   13.3676   -4.1331   -0.8857 C   0  0  0  0  0  0  0  0  0  0  0  0
   12.5211   -3.3457   -3.0999 C   0  0  0  0  0  0  0  0  0  0  0  0
   13.6529   -3.4798   -3.8128 N   0  0  0  0  0  0  0  0  0  0  0  0
   13.4667   -3.1232   -5.0927 C   0  0  0  0  0  0  0  0  0  0  0  0
   12.3398   -2.6653   -5.6682 N   0  0  0  0  0  0  0  0  0  0  0  0
   11.2286   -2.5417   -4.9119 C   0  0  0  0  0  0  0  0  0  0  0  0
   10.1094   -2.0350   -5.5587 N   0  0  0  0  0  0  0  0  0  0  0  0
   11.2879   -2.9074   -3.5578 C   0  0  0  0  0  0  0  0  0  0  0  0
    8.1105   -2.9960   -3.3418 C   0  0  0  0  0  0  0  0  0  0  0  0
    6.7517   -2.6855   -3.2379 C   0  0  0  0  0  0  0  0  0  0  0  0
    6.2374   -2.1120   -2.0672 C   0  0  0  0  0  0  0  0  0  0  0  0
    4.8671   -1.8361   -1.9258 C   0  0  0  0  0  0  0  0  0  0  0  0
    0.4651   -0.2277    1.2770 H   0  0  0  0  0  0  0  0  0  0  0  0
    0.5000   -1.5654    0.1043 H   0  0  0  0  0  0  0  0  0  0  0  0
    0.6718    0.0935   -0.4620 H   0  0  0  0  0  0  0  0  0  0  0  0
    2.6546   -1.4086    1.3157 H   0  0  0  0  0  0  0  0  0  0  0  0
    2.8283    0.2980    0.7779 H   0  0  0  0  0  0  0  0  0  0  0  0
    4.8746   -0.6565    1.2705 H   0  0  0  0  0  0  0  0  0  0  0  0
    7.2505   -1.0867    1.0290 H   0  0  0  0  0  0  0  0  0  0  0  0
    9.1633   -1.8898   -0.3120 H   0  0  0  0  0  0  0  0  0  0  0  0
   12.9451   -4.2656    0.1137 H   0  0  0  0  0  0  0  0  0  0  0  0
   14.1924   -3.4170   -0.8479 H   0  0  0  0  0  0  0  0  0  0  0  0
   13.7115   -5.0960   -1.2722 H   0  0  0  0  0  0  0  0  0  0  0  0
   14.3306   -3.2093   -5.7448 H   0  0  0  0  0  0  0  0  0  0  0  0
   10.3712   -1.6348   -6.4531 H   0  0  0  0  0  0  0  0  0  0  0  0
    9.5125   -1.4549   -4.9819 H   0  0  0  0  0  0  0  0  0  0  0  0
    8.4564   -3.5019   -4.2407 H   0  0  0  0  0  0  0  0  0  0  0  0
    6.0946   -2.9189   -4.0732 H   0  0  0  0  0  0  0  0  0  0  0  0
    4.1809   -2.0413   -2.7446 H   0  0  0  0  0  0  0  0  0  0  0  0
  1  2  1  0  0  0  0
  1 25  1  0  0  0  0
  1 26  1  0  0  0  0
  1 27  1  0  0  0  0
  2  3  1  0  0  0  0
  2 28  1  0  0  0  0
  2 29  1  0  0  0  0
  3  4  1  0  0  0  0
  4  5  1  0  0  0  0
  4 24  2  0  0  0  0
  5  6  2  0  0  0  0
  5 30  1  0  0  0  0
  6  7  1  0  0  0  0
  6 31  1  0  0  0  0
  7  8  1  0  0  0  0
  7 23  2  0  0  0  0
  8  9  2  0  0  0  0
  8 32  1  0  0  0  0
  9 10  1  0  0  0  0
  9 21  1  0  0  0  0
 10 11  2  0  0  0  0
 10 20  1  0  0  0  0
 11 12  1  0  0  0  0
 12 13  1  0  0  0  0
 12 14  1  0  0  0  0
 13 33  1  0  0  0  0
 13 34  1  0  0  0  0
 13 35  1  0  0  0  0
 14 15  1  0  0  0  0
 14 20  2  0  0  0  0
 15 16  2  0  0  0  0
 16 17  1  0  0  0  0
 16 36  1  0  0  0  0
 17 18  2  0  0  0  0
 18 19  1  0  0  0  0
 18 20  1  0  0  0  0
 19 37  1  0  0  0  0
 19 38  1  0  0  0  0
 21 22  2  0  0  0  0
 21 39  1  0  0  0  0
 22 23  1  0  0  0  0
 22 40  1  0  0  0  0
 23 24  1  0  0  0  0
 24 41  1  0  0  0  0
M  END
$$$$
