CHEMBL3660271
 OpenBabel04072215373D

 69 72  0  0  0  0  0  0  0  0999 V2000
    3.8671    0.2939   -3.6112 C   0  0  0  0  0  0  0  0  0  0  0  0
    4.0195    0.7318   -2.2678 O   0  0  0  0  0  0  0  0  0  0  0  0
    5.3925    0.7759   -1.8808 C   0  0  0  0  0  0  0  0  0  0  0  0
    5.4912    1.2459   -0.4319 C   0  0  0  0  0  0  0  0  0  0  0  0
    6.8610    1.2942   -0.0471 O   0  0  0  0  0  0  0  0  0  0  0  0
    7.0321    1.7264    1.3044 C   0  0  0  0  0  0  0  0  0  0  0  0
    8.5269    1.7548    1.5817 C   0  0  0  0  0  0  0  0  0  0  0  0
    8.8556    2.2993    2.8605 O   0  0  0  0  0  0  0  0  0  0  0  0
    9.3063    1.3648    3.7433 C   0  0  0  0  0  0  0  0  0  0  0  0
    8.8399    0.2359    3.8427 O   0  0  0  0  0  0  0  0  0  0  0  0
   10.5131    1.8015    4.4365 C   0  0  0  0  0  0  0  0  0  0  0  0
   11.1350    3.0349    4.3482 C   0  0  0  0  0  0  0  0  0  0  0  0
   12.3026    2.9859    5.0675 N   0  0  0  0  0  0  0  0  0  0  0  0
   12.4593    1.7434    5.6393 C   0  0  0  0  0  0  0  0  0  0  0  0
   13.6474    1.3722    6.4031 C   0  0  0  0  0  0  0  0  0  0  0  0
   13.7890    0.1014    6.9410 C   0  0  0  0  0  0  0  0  0  0  0  0
   14.9965   -0.2468    7.5421 C   0  0  0  0  0  0  0  0  0  0  0  0
   15.2701   -1.5071    8.0417 O   0  0  0  0  0  0  0  0  0  0  0  0
   14.7091   -2.6035    7.4172 C   0  0  0  0  0  0  0  0  0  0  0  0
   14.5330   -2.6843    6.0400 C   0  0  0  0  0  0  0  0  0  0  0  0
   13.8500   -3.7643    5.4833 C   0  0  0  0  0  0  0  0  0  0  0  0
   13.3973   -4.8270    6.2713 C   0  0  0  0  0  0  0  0  0  0  0  0
   12.6523   -5.9127    5.7445 N   0  0  0  0  0  0  0  0  0  0  0  0
   12.3414   -6.0967    4.4114 C   0  0  0  0  0  0  0  0  0  0  0  0
   12.7703   -5.4049    3.4918 O   0  0  0  0  0  0  0  0  0  0  0  0
   11.4456   -7.1366    4.2007 N   0  0  0  0  0  0  0  0  0  0  0  0
   11.0157   -7.4090    2.8723 C   0  0  0  0  0  0  0  0  0  0  0  0
   11.9199   -7.4670    1.8090 C   0  0  0  0  0  0  0  0  0  0  0  0
   11.4720   -7.5923    0.4851 C   0  0  0  0  0  0  0  0  0  0  0  0
   12.4509   -7.6118   -0.6555 C   0  0  0  0  0  0  0  0  0  0  0  0
   10.0948   -7.6662    0.2405 C   0  0  0  0  0  0  0  0  0  0  0  0
    9.1874   -7.6504    1.3031 C   0  0  0  0  0  0  0  0  0  0  0  0
    9.6540   -7.5449    2.6106 C   0  0  0  0  0  0  0  0  0  0  0  0
    8.7721   -7.4930    3.6211 F   0  0  0  0  0  0  0  0  0  0  0  0
   13.6732   -4.7920    7.6438 C   0  0  0  0  0  0  0  0  0  0  0  0
   14.3237   -3.6825    8.2146 C   0  0  0  0  0  0  0  0  0  0  0  0
   15.9813    0.7217    7.6827 C   0  0  0  0  0  0  0  0  0  0  0  0
   15.7386    1.9806    7.1522 C   0  0  0  0  0  0  0  0  0  0  0  0
   14.6041    2.3252    6.4970 N   0  0  0  0  0  0  0  0  0  0  0  0
   11.3423    1.0062    5.2766 C   0  0  0  0  0  0  0  0  0  0  0  0
    2.7995    0.2777   -3.8467 H   0  0  0  0  0  0  0  0  0  0  0  0
    4.2669   -0.7173   -3.7338 H   0  0  0  0  0  0  0  0  0  0  0  0
    4.3658    0.9836   -4.2991 H   0  0  0  0  0  0  0  0  0  0  0  0
    5.9461    1.4614   -2.5344 H   0  0  0  0  0  0  0  0  0  0  0  0
    5.8458   -0.2178   -1.9826 H   0  0  0  0  0  0  0  0  0  0  0  0
    4.9419    0.5575    0.2206 H   0  0  0  0  0  0  0  0  0  0  0  0
    5.0386    2.2394   -0.3329 H   0  0  0  0  0  0  0  0  0  0  0  0
    6.5245    1.0408    1.9923 H   0  0  0  0  0  0  0  0  0  0  0  0
    6.6026    2.7267    1.4394 H   0  0  0  0  0  0  0  0  0  0  0  0
    9.0178    2.3960    0.8405 H   0  0  0  0  0  0  0  0  0  0  0  0
    8.9613    0.7574    1.4318 H   0  0  0  0  0  0  0  0  0  0  0  0
   10.8623    3.9290    3.8033 H   0  0  0  0  0  0  0  0  0  0  0  0
   12.9914    3.7239    5.1458 H   0  0  0  0  0  0  0  0  0  0  0  0
   12.9838   -0.6173    6.8545 H   0  0  0  0  0  0  0  0  0  0  0  0
   14.8736   -1.8951    5.3753 H   0  0  0  0  0  0  0  0  0  0  0  0
   13.6789   -3.7171    4.4142 H   0  0  0  0  0  0  0  0  0  0  0  0
   12.3715   -6.6449    6.3796 H   0  0  0  0  0  0  0  0  0  0  0  0
   10.7213   -7.2162    4.9045 H   0  0  0  0  0  0  0  0  0  0  0  0
   12.9907   -7.3777    1.9996 H   0  0  0  0  0  0  0  0  0  0  0  0
   13.4821   -7.5520   -0.3014 H   0  0  0  0  0  0  0  0  0  0  0  0
   12.2712   -6.7655   -1.3236 H   0  0  0  0  0  0  0  0  0  0  0  0
   12.3448   -8.5466   -1.2199 H   0  0  0  0  0  0  0  0  0  0  0  0
    9.7246   -7.7246   -0.7808 H   0  0  0  0  0  0  0  0  0  0  0  0
    8.1195   -7.6901    1.1153 H   0  0  0  0  0  0  0  0  0  0  0  0
   13.3748   -5.6106    8.2934 H   0  0  0  0  0  0  0  0  0  0  0  0
   14.5098   -3.6572    9.2852 H   0  0  0  0  0  0  0  0  0  0  0  0
   16.9175    0.5007    8.1837 H   0  0  0  0  0  0  0  0  0  0  0  0
   16.4823    2.7693    7.2355 H   0  0  0  0  0  0  0  0  0  0  0  0
   11.1575   -0.0319    5.5259 H   0  0  0  0  0  0  0  0  0  0  0  0
  1  2  1  0  0  0  0
  1 41  1  0  0  0  0
  1 42  1  0  0  0  0
  1 43  1  0  0  0  0
  2  3  1  0  0  0  0
  3  4  1  0  0  0  0
  3 44  1  0  0  0  0
  3 45  1  0  0  0  0
  4  5  1  0  0  0  0
  4 46  1  0  0  0  0
  4 47  1  0  0  0  0
  5  6  1  0  0  0  0
  6  7  1  0  0  0  0
  6 48  1  0  0  0  0
  6 49  1  0  0  0  0
  7  8  1  0  0  0  0
  7 50  1  0  0  0  0
  7 51  1  0  0  0  0
  8  9  1  0  0  0  0
  9 10  2  0  0  0  0
  9 11  1  0  0  0  0
 11 12  2  0  0  0  0
 11 40  1  0  0  0  0
 12 13  1  0  0  0  0
 12 52  1  0  0  0  0
 13 14  1  0  0  0  0
 13 53  1  0  0  0  0
 14 15  1  0  0  0  0
 14 40  2  0  0  0  0
 15 16  1  0  0  0  0
 15 39  2  0  0  0  0
 16 17  2  0  0  0  0
 16 54  1  0  0  0  0
 17 18  1  0  0  0  0
 17 37  1  0  0  0  0
 18 19  1  0  0  0  0
 19 20  1  0  0  0  0
 19 36  2  0  0  0  0
 20 21  2  0  0  0  0
 20 55  1  0  0  0  0
 21 22  1  0  0  0  0
 21 56  1  0  0  0  0
 22 23  1  0  0  0  0
 22 35  2  0  0  0  0
 23 24  1  0  0  0  0
 23 57  1  0  0  0  0
 24 25  2  0  0  0  0
 24 26  1  0  0  0  0
 26 27  1  0  0  0  0
 26 58  1  0  0  0  0
 27 28  1  0  0  0  0
 27 33  2  0  0  0  0
 28 29  2  0  0  0  0
 28 59  1  0  0  0  0
 29 30  1  0  0  0  0
 29 31  1  0  0  0  0
 30 60  1  0  0  0  0
 30 61  1  0  0  0  0
 30 62  1  0  0  0  0
 31 32  2  0  0  0  0
 31 63  1  0  0  0  0
 32 33  1  0  0  0  0
 32 64  1  0  0  0  0
 33 34  1  0  0  0  0
 35 36  1  0  0  0  0
 35 65  1  0  0  0  0
 36 66  1  0  0  0  0
 37 38  2  0  0  0  0
 37 67  1  0  0  0  0
 38 39  1  0  0  0  0
 38 68  1  0  0  0  0
 40 69  1  0  0  0  0
M  END
$$$$
