CHEMBL83279
 OpenBabel04072215383D

 57 61  0  0  0  0  0  0  0  0999 V2000
    1.3496    0.1242    0.5111 C   0  0  0  0  0  0  0  0  0  0  0  0
    0.8681   -0.8601    1.3701 C   0  0  0  0  0  0  0  0  0  0  0  0
   -0.5016   -1.0356    1.5040 C   0  0  0  0  0  0  0  0  0  0  0  0
   -1.3825   -0.2314    0.7657 C   0  0  0  0  0  0  0  0  0  0  0  0
   -2.7612   -0.4028    1.0178 N   0  0  0  0  0  0  0  0  0  0  0  0
   -3.2603   -0.5092    2.2980 C   0  0  0  0  0  0  0  0  0  0  0  0
   -4.3078   -1.2886    2.3613 N   0  0  0  0  0  0  0  0  0  0  0  0
   -4.5240   -1.6509    1.0639 C   0  0  0  0  0  0  0  0  0  0  0  0
   -5.3968   -2.6223    0.5868 C   0  0  0  0  0  0  0  0  0  0  0  0
   -5.5060   -2.8912   -0.7913 C   0  0  0  0  0  0  0  0  0  0  0  0
   -6.3497   -4.0339   -1.2018 C   0  0  0  0  0  0  0  0  0  0  0  0
   -7.4722   -4.3615   -0.4271 C   0  0  0  0  0  0  0  0  0  0  0  0
   -8.1572   -5.5562   -0.5979 C   0  0  0  0  0  0  0  0  0  0  0  0
   -7.7885   -6.4455   -1.6042 C   0  0  0  0  0  0  0  0  0  0  0  0
   -8.3953   -7.6595   -1.8269 O   0  0  0  0  0  0  0  0  0  0  0  0
   -9.4733   -7.9300   -0.9216 C   0  0  0  0  0  0  0  0  0  0  0  0
  -10.1920   -9.2361   -1.2612 C   0  0  0  0  0  0  0  0  0  0  0  0
  -11.2680   -9.5562   -0.2949 N   0  0  0  0  0  0  0  0  0  0  0  0
  -12.3263   -8.5320   -0.2665 C   0  0  0  0  0  0  0  0  0  0  0  0
  -13.4072   -8.8648    0.7605 C   0  0  0  0  0  0  0  0  0  0  0  0
  -14.0023  -10.2414    0.5126 C   0  0  0  0  0  0  0  0  0  0  0  0
  -12.8951  -11.2836    0.4238 C   0  0  0  0  0  0  0  0  0  0  0  0
  -11.8311  -10.8806   -0.5982 C   0  0  0  0  0  0  0  0  0  0  0  0
   -6.7291   -6.1072   -2.4433 C   0  0  0  0  0  0  0  0  0  0  0  0
   -6.0087   -4.9143   -2.2424 C   0  0  0  0  0  0  0  0  0  0  0  0
   -4.7522   -2.1010   -1.6755 C   0  0  0  0  0  0  0  0  0  0  0  0
   -3.8159   -1.1459   -1.2185 C   0  0  0  0  0  0  0  0  0  0  0  0
   -3.6894   -0.9840    0.1707 C   0  0  0  0  0  0  0  0  0  0  0  0
   -0.9178    0.7158   -0.1427 C   0  0  0  0  0  0  0  0  0  0  0  0
    0.4640    0.9018   -0.2475 C   0  0  0  0  0  0  0  0  0  0  0  0
    2.4221    0.2842    0.4337 H   0  0  0  0  0  0  0  0  0  0  0  0
    1.5500   -1.4860    1.9389 H   0  0  0  0  0  0  0  0  0  0  0  0
   -0.8732   -1.8226    2.1608 H   0  0  0  0  0  0  0  0  0  0  0  0
   -2.7562   -0.0645    3.1450 H   0  0  0  0  0  0  0  0  0  0  0  0
   -5.9175   -3.2108    1.3340 H   0  0  0  0  0  0  0  0  0  0  0  0
   -7.8046   -3.7098    0.3787 H   0  0  0  0  0  0  0  0  0  0  0  0
   -8.9563   -5.7570    0.1070 H   0  0  0  0  0  0  0  0  0  0  0  0
  -10.1945   -7.1107   -1.0024 H   0  0  0  0  0  0  0  0  0  0  0  0
   -9.0832   -8.0029    0.1026 H   0  0  0  0  0  0  0  0  0  0  0  0
   -9.4411  -10.0368   -1.2518 H   0  0  0  0  0  0  0  0  0  0  0  0
  -10.5771   -9.1878   -2.2875 H   0  0  0  0  0  0  0  0  0  0  0  0
  -12.7775   -8.4119   -1.2595 H   0  0  0  0  0  0  0  0  0  0  0  0
  -11.9196   -7.5589    0.0286 H   0  0  0  0  0  0  0  0  0  0  0  0
  -14.1994   -8.1067    0.7221 H   0  0  0  0  0  0  0  0  0  0  0  0
  -12.9794   -8.8235    1.7708 H   0  0  0  0  0  0  0  0  0  0  0  0
  -14.5736  -10.2292   -0.4230 H   0  0  0  0  0  0  0  0  0  0  0  0
  -14.7011  -10.4995    1.3156 H   0  0  0  0  0  0  0  0  0  0  0  0
  -13.3233  -12.2535    0.1487 H   0  0  0  0  0  0  0  0  0  0  0  0
  -12.4291  -11.4069    1.4097 H   0  0  0  0  0  0  0  0  0  0  0  0
  -12.2639  -10.8936   -1.6069 H   0  0  0  0  0  0  0  0  0  0  0  0
  -11.0356  -11.6350   -0.5736 H   0  0  0  0  0  0  0  0  0  0  0  0
   -6.4308   -6.7869   -3.2388 H   0  0  0  0  0  0  0  0  0  0  0  0
   -5.1448   -4.7185   -2.8735 H   0  0  0  0  0  0  0  0  0  0  0  0
   -4.8519   -2.2489   -2.7506 H   0  0  0  0  0  0  0  0  0  0  0  0
   -3.1944   -0.5988   -1.9197 H   0  0  0  0  0  0  0  0  0  0  0  0
   -1.5947    1.3430   -0.7142 H   0  0  0  0  0  0  0  0  0  0  0  0
    0.8615    1.6692   -0.9067 H   0  0  0  0  0  0  0  0  0  0  0  0
  1  2  1  0  0  0  0
  1 30  2  0  0  0  0
  1 31  1  0  0  0  0
  2  3  2  0  0  0  0
  2 32  1  0  0  0  0
  3  4  1  0  0  0  0
  3 33  1  0  0  0  0
  4  5  1  0  0  0  0
  4 29  2  0  0  0  0
  5  6  1  0  0  0  0
  5 28  1  0  0  0  0
  6  7  2  0  0  0  0
  6 34  1  0  0  0  0
  7  8  1  0  0  0  0
  8  9  1  0  0  0  0
  8 28  2  0  0  0  0
  9 10  2  0  0  0  0
  9 35  1  0  0  0  0
 10 11  1  0  0  0  0
 10 26  1  0  0  0  0
 11 12  1  0  0  0  0
 11 25  2  0  0  0  0
 12 13  2  0  0  0  0
 12 36  1  0  0  0  0
 13 14  1  0  0  0  0
 13 37  1  0  0  0  0
 14 15  1  0  0  0  0
 14 24  2  0  0  0  0
 15 16  1  0  0  0  0
 16 17  1  0  0  0  0
 16 38  1  0  0  0  0
 16 39  1  0  0  0  0
 17 18  1  0  0  0  0
 17 40  1  0  0  0  0
 17 41  1  0  0  0  0
 18 19  1  0  0  0  0
 18 23  1  0  0  0  0
 19 20  1  0  0  0  0
 19 42  1  0  0  0  0
 19 43  1  0  0  0  0
 20 21  1  0  0  0  0
 20 44  1  0  0  0  0
 20 45  1  0  0  0  0
 21 22  1  0  0  0  0
 21 46  1  0  0  0  0
 21 47  1  0  0  0  0
 22 23  1  0  0  0  0
 22 48  1  0  0  0  0
 22 49  1  0  0  0  0
 23 50  1  0  0  0  0
 23 51  1  0  0  0  0
 24 25  1  0  0  0  0
 24 52  1  0  0  0  0
 25 53  1  0  0  0  0
 26 27  2  0  0  0  0
 26 54  1  0  0  0  0
 27 28  1  0  0  0  0
 27 55  1  0  0  0  0
 29 30  1  0  0  0  0
 29 56  1  0  0  0  0
 30 57  1  0  0  0  0
M  END
$$$$
