CHEMBL3973929
 OpenBabel04072215373D

 74 78  0  0  0  0  0  0  0  0999 V2000
    0.6270   -1.3338    4.1133 C   0  0  0  0  0  0  0  0  0  0  0  0
    1.9780   -1.0022    4.3886 O   0  0  0  0  0  0  0  0  0  0  0  0
    2.7758   -0.9109    3.2874 C   0  0  0  0  0  0  0  0  0  0  0  0
    2.4262   -1.0997    2.0007 C   0  0  0  0  0  0  0  0  0  0  0  0
    3.3139   -0.8189    0.9639 C   0  0  0  0  0  0  0  0  0  0  0  0
    2.9695   -0.9418   -0.3516 O   0  0  0  0  0  0  0  0  0  0  0  0
    1.6294   -1.3782   -0.5683 C   0  0  0  0  0  0  0  0  0  0  0  0
    4.5980   -0.3450    1.2320 C   0  0  0  0  0  0  0  0  0  0  0  0
    4.9900   -0.0544    2.5314 C   0  0  0  0  0  0  0  0  0  0  0  0
    6.2555    0.5685    2.7839 N   0  0  0  0  0  0  0  0  0  0  0  0
    6.8666    1.4881    1.7820 C   0  0  0  0  0  0  0  0  0  0  0  0
    6.0080    2.6828    1.4834 C   0  0  0  0  0  0  0  0  0  0  0  0
    6.4460    3.6717    0.5387 N   0  0  0  0  0  0  0  0  0  0  0  0
    6.6239    2.9846   -0.7499 C   0  0  0  0  0  0  0  0  0  0  0  0
    7.0894    4.0185   -1.7453 C   0  0  0  0  0  0  0  0  0  0  0  0
    6.0551    5.1404   -1.8819 C   0  0  0  0  0  0  0  0  0  0  0  0
    4.7737    4.6098   -2.5366 C   0  0  0  0  0  0  0  0  0  0  0  0
    3.7419    5.7103   -2.6795 C   0  0  0  0  0  0  0  0  0  0  0  0
    2.5680    5.2035   -3.2840 O   0  0  0  0  0  0  0  0  0  0  0  0
    5.7352    5.7278   -0.5069 C   0  0  0  0  0  0  0  0  0  0  0  0
    5.3454    4.6426    0.4569 C   0  0  0  0  0  0  0  0  0  0  0  0
    7.2724   -0.0049    3.6475 C   0  0  0  0  0  0  0  0  0  0  0  0
    7.2996   -1.3778    3.7184 C   0  0  0  0  0  0  0  0  0  0  0  0
    8.2172   -1.9560    4.5432 C   0  0  0  0  0  0  0  0  0  0  0  0
    9.0343   -1.2930    5.4163 C   0  0  0  0  0  0  0  0  0  0  0  0
    9.0748   -2.0305    6.4102 N   0  0  0  0  0  0  0  0  0  0  0  0
   10.0827   -2.8415    6.4050 C   0  0  0  0  0  0  0  0  0  0  0  0
   11.1691   -2.4085    7.0683 C   0  0  0  0  0  0  0  0  0  0  0  0
   11.2799   -4.1515    7.6528 C   0  0  0  0  0  0  0  0  0  0  0  0
   10.2835   -5.3521    7.9526 C   0  0  0  0  0  0  0  0  0  0  0  0
   10.7755   -6.5775    8.3256 N   0  0  0  0  0  0  0  0  0  0  0  0
   12.1063   -6.4433    8.3035 N   0  0  0  0  0  0  0  0  0  0  0  0
   12.9984   -7.6304    8.5709 C   0  0  0  0  0  0  0  0  0  0  0  0
   12.4185   -5.0533    7.9215 C   0  0  0  0  0  0  0  0  0  0  0  0
   10.8444   -0.8846    6.4799 N   0  0  0  0  0  0  0  0  0  0  0  0
    9.5571   -0.1056    5.5441 C   0  0  0  0  0  0  0  0  0  0  0  0
    8.2529    0.7172    4.6016 C   0  0  0  0  0  0  0  0  0  0  0  0
    4.0603   -0.5015    3.4943 C   0  0  0  0  0  0  0  0  0  0  0  0
    0.0592   -1.2794    5.0463 H   0  0  0  0  0  0  0  0  0  0  0  0
    0.5800   -2.3588    3.7387 H   0  0  0  0  0  0  0  0  0  0  0  0
    0.1590   -0.6430    3.4087 H   0  0  0  0  0  0  0  0  0  0  0  0
    1.4486   -1.4840    1.8219 H   0  0  0  0  0  0  0  0  0  0  0  0
    1.4634   -1.4335   -1.6421 H   0  0  0  0  0  0  0  0  0  0  0  0
    0.8982   -0.6732   -0.1483 H   0  0  0  0  0  0  0  0  0  0  0  0
    1.4760   -2.3801   -0.1483 H   0  0  0  0  0  0  0  0  0  0  0  0
    5.3004   -0.2056    0.4163 H   0  0  0  0  0  0  0  0  0  0  0  0
    7.0976    1.0309    0.8109 H   0  0  0  0  0  0  0  0  0  0  0  0
    7.7762    1.8597    2.2445 H   0  0  0  0  0  0  0  0  0  0  0  0
    5.9709    3.2160    2.4481 H   0  0  0  0  0  0  0  0  0  0  0  0
    5.0446    2.2974    1.1058 H   0  0  0  0  0  0  0  0  0  0  0  0
    5.6993    2.4868   -1.0838 H   0  0  0  0  0  0  0  0  0  0  0  0
    7.3864    2.1995   -0.6704 H   0  0  0  0  0  0  0  0  0  0  0  0
    7.2791    3.5273   -2.6984 H   0  0  0  0  0  0  0  0  0  0  0  0
    8.0473    4.4307   -1.4172 H   0  0  0  0  0  0  0  0  0  0  0  0
    6.4756    5.9342   -2.5051 H   0  0  0  0  0  0  0  0  0  0  0  0
    4.3666    3.7821   -1.9466 H   0  0  0  0  0  0  0  0  0  0  0  0
    4.9736    4.1901   -3.5286 H   0  0  0  0  0  0  0  0  0  0  0  0
    4.1050    6.5219   -3.3126 H   0  0  0  0  0  0  0  0  0  0  0  0
    3.5046    6.1182   -1.6943 H   0  0  0  0  0  0  0  0  0  0  0  0
    2.8159    4.8764   -4.1661 H   0  0  0  0  0  0  0  0  0  0  0  0
    4.9146    6.4449   -0.5753 H   0  0  0  0  0  0  0  0  0  0  0  0
    6.6155    6.2414   -0.1083 H   0  0  0  0  0  0  0  0  0  0  0  0
    4.4071    4.1629    0.1337 H   0  0  0  0  0  0  0  0  0  0  0  0
    5.1527    5.0663    1.4477 H   0  0  0  0  0  0  0  0  0  0  0  0
    6.5618   -2.0757    3.3430 H   0  0  0  0  0  0  0  0  0  0  0  0
    8.2283   -3.0264    4.7329 H   0  0  0  0  0  0  0  0  0  0  0  0
    9.6072   -3.8077    6.2780 H   0  0  0  0  0  0  0  0  0  0  0  0
    9.1976   -5.4281    7.9110 H   0  0  0  0  0  0  0  0  0  0  0  0
   12.4629   -8.5515    8.9026 H   0  0  0  0  0  0  0  0  0  0  0  0
   13.7373   -7.4124    9.3566 H   0  0  0  0  0  0  0  0  0  0  0  0
   13.5399   -7.9134    7.6563 H   0  0  0  0  0  0  0  0  0  0  0  0
   13.4802   -4.9307    7.8931 H   0  0  0  0  0  0  0  0  0  0  0  0
    8.0780    1.7747    4.4805 H   0  0  0  0  0  0  0  0  0  0  0  0
    4.1972   -0.6394    4.5416 H   0  0  0  0  0  0  0  0  0  0  0  0
  1  2  1  0  0  0  0
  1 39  1  0  0  0  0
  1 40  1  0  0  0  0
  1 41  1  0  0  0  0
  2  3  1  0  0  0  0
  3  4  1  0  0  0  0
  3 38  2  0  0  0  0
  4  5  2  0  0  0  0
  4 42  1  0  0  0  0
  5  6  1  0  0  0  0
  5  8  1  0  0  0  0
  6  7  1  0  0  0  0
  7 43  1  0  0  0  0
  7 44  1  0  0  0  0
  7 45  1  0  0  0  0
  8  9  2  0  0  0  0
  8 46  1  0  0  0  0
  9 10  1  0  0  0  0
  9 38  1  0  0  0  0
 10 11  1  0  0  0  0
 10 22  1  0  0  0  0
 11 12  1  0  0  0  0
 11 47  1  0  0  0  0
 11 48  1  0  0  0  0
 12 13  1  0  0  0  0
 12 49  1  0  0  0  0
 12 50  1  0  0  0  0
 13 14  1  0  0  0  0
 13 21  1  0  0  0  0
 14 15  1  0  0  0  0
 14 51  1  0  0  0  0
 14 52  1  0  0  0  0
 15 16  1  0  0  0  0
 15 53  1  0  0  0  0
 15 54  1  0  0  0  0
 16 17  1  0  0  0  0
 16 20  1  0  0  0  0
 16 55  1  0  0  0  0
 17 18  1  0  0  0  0
 17 56  1  0  0  0  0
 17 57  1  0  0  0  0
 18 19  1  0  0  0  0
 18 58  1  0  0  0  0
 18 59  1  0  0  0  0
 19 60  1  0  0  0  0
 20 21  1  0  0  0  0
 20 61  1  0  0  0  0
 20 62  1  0  0  0  0
 21 63  1  0  0  0  0
 21 64  1  0  0  0  0
 22 23  1  0  0  0  0
 22 37  2  0  0  0  0
 23 24  2  0  0  0  0
 23 65  1  0  0  0  0
 24 25  1  0  0  0  0
 24 66  1  0  0  0  0
 25 26  1  0  0  0  0
 25 36  2  0  0  0  0
 26 27  2  0  0  0  0
 27 28  1  0  0  0  0
 27 67  1  0  0  0  0
 28 29  1  0  0  0  0
 28 35  2  0  0  0  0
 29 30  1  0  0  0  0
 29 34  2  0  0  0  0
 30 31  2  0  0  0  0
 30 68  1  0  0  0  0
 31 32  1  0  0  0  0
 32 33  1  0  0  0  0
 32 34  1  0  0  0  0
 33 69  1  0  0  0  0
 33 70  1  0  0  0  0
 33 71  1  0  0  0  0
 34 72  1  0  0  0  0
 35 36  1  0  0  0  0
 36 37  1  0  0  0  0
 37 73  1  0  0  0  0
 38 74  1  0  0  0  0
M  END
$$$$
