CHEMBL3622952
 OpenBabel04072215363D

 52 56  0  0  0  0  0  0  0  0999 V2000
    2.2536   -0.9507   -1.5522 C   0  0  0  0  0  0  0  0  0  0  0  0
    2.8120    0.1558   -0.7248 C   0  0  0  0  0  0  0  0  0  0  0  0
    4.1034    0.4838   -0.8264 N   0  0  0  0  0  0  0  0  0  0  0  0
    4.3061    1.3995    0.1594 N   0  0  0  0  0  0  0  0  0  0  0  0
    5.5643    2.0589    0.3509 C   0  0  0  0  0  0  0  0  0  0  0  0
    6.4996    1.9545   -0.6570 C   0  0  0  0  0  0  0  0  0  0  0  0
    7.6607    2.6460   -0.4544 C   0  0  0  0  0  0  0  0  0  0  0  0
    7.9126    3.3597    0.6550 N   0  0  0  0  0  0  0  0  0  0  0  0
    6.9699    3.4045    1.6055 C   0  0  0  0  0  0  0  0  0  0  0  0
    7.1783    4.1183    2.7911 N   0  0  0  0  0  0  0  0  0  0  0  0
    8.1181    5.1022    3.1578 C   0  0  0  0  0  0  0  0  0  0  0  0
    9.2996    5.3601    2.4562 C   0  0  0  0  0  0  0  0  0  0  0  0
   10.1631    6.4200    2.7898 C   0  0  0  0  0  0  0  0  0  0  0  0
    9.7950    7.2598    3.8489 C   0  0  0  0  0  0  0  0  0  0  0  0
    8.6542    7.0062    4.6120 C   0  0  0  0  0  0  0  0  0  0  0  0
    8.5571    8.0412    5.5817 C   0  0  0  0  0  0  0  0  0  0  0  0
    9.5990    8.9158    5.3675 C   0  0  0  0  0  0  0  0  0  0  0  0
   10.3697    8.4071    4.3561 N   0  0  0  0  0  0  0  0  0  0  0  0
   11.5926    9.0208    3.8854 C   0  0  0  0  0  0  0  0  0  0  0  0
    7.8487    5.8899    4.2935 C   0  0  0  0  0  0  0  0  0  0  0  0
    5.7755    2.7895    1.4847 N   0  0  0  0  0  0  0  0  0  0  0  0
    3.1627    1.5908    0.8997 C   0  0  0  0  0  0  0  0  0  0  0  0
    2.1308    0.9318    0.2548 C   0  0  0  0  0  0  0  0  0  0  0  0
    0.6719    0.8749    0.5795 C   0  0  0  0  0  0  0  0  0  0  0  0
   -0.0153    2.1766    0.4465 N   0  0  0  0  0  0  0  0  0  0  0  0
    0.3648    3.2202    1.4361 C   0  0  0  0  0  0  0  0  0  0  0  0
   -0.6514    2.6412    2.4401 C   0  0  0  0  0  0  0  0  0  0  0  0
   -0.1601    1.6869    3.4139 O   0  0  0  0  0  0  0  0  0  0  0  0
   -1.3325    2.0830    1.1618 C   0  0  0  0  0  0  0  0  0  0  0  0
    3.0434   -1.5124   -2.0620 H   0  0  0  0  0  0  0  0  0  0  0  0
    1.5564   -0.5681   -2.3026 H   0  0  0  0  0  0  0  0  0  0  0  0
    1.7146   -1.6595   -0.9141 H   0  0  0  0  0  0  0  0  0  0  0  0
    6.3265    1.3997   -1.5699 H   0  0  0  0  0  0  0  0  0  0  0  0
    8.4464    2.6569   -1.2033 H   0  0  0  0  0  0  0  0  0  0  0  0
    6.3297    4.0983    3.3365 H   0  0  0  0  0  0  0  0  0  0  0  0
    9.5810    4.7447    1.6066 H   0  0  0  0  0  0  0  0  0  0  0  0
   11.0611    6.5973    2.2074 H   0  0  0  0  0  0  0  0  0  0  0  0
    7.7763    8.1617    6.3196 H   0  0  0  0  0  0  0  0  0  0  0  0
    9.8443    9.8498    5.8528 H   0  0  0  0  0  0  0  0  0  0  0  0
   11.6644   10.0310    4.2869 H   0  0  0  0  0  0  0  0  0  0  0  0
   11.5740    9.0670    2.7930 H   0  0  0  0  0  0  0  0  0  0  0  0
   12.4341    8.4210    4.2378 H   0  0  0  0  0  0  0  0  0  0  0  0
    6.9776    5.6896    4.9089 H   0  0  0  0  0  0  0  0  0  0  0  0
    3.1947    2.2277    1.7709 H   0  0  0  0  0  0  0  0  0  0  0  0
    0.5432    0.3811    1.5460 H   0  0  0  0  0  0  0  0  0  0  0  0
    0.1824    0.2119   -0.1469 H   0  0  0  0  0  0  0  0  0  0  0  0
    0.0984    4.2336    1.1027 H   0  0  0  0  0  0  0  0  0  0  0  0
    1.3976    3.2733    1.7711 H   0  0  0  0  0  0  0  0  0  0  0  0
   -1.2400    3.3998    2.9650 H   0  0  0  0  0  0  0  0  0  0  0  0
    0.8110    1.6808    3.3006 H   0  0  0  0  0  0  0  0  0  0  0  0
   -2.0942    2.7598    0.7519 H   0  0  0  0  0  0  0  0  0  0  0  0
   -1.7792    1.0864    1.2395 H   0  0  0  0  0  0  0  0  0  0  0  0
  1  2  1  0  0  0  0
  1 30  1  0  0  0  0
  1 31  1  0  0  0  0
  1 32  1  0  0  0  0
  2  3  2  0  0  0  0
  2 23  1  0  0  0  0
  3  4  1  0  0  0  0
  4  5  1  0  0  0  0
  4 22  1  0  0  0  0
  5  6  1  0  0  0  0
  5 21  2  0  0  0  0
  6  7  2  0  0  0  0
  6 33  1  0  0  0  0
  7  8  1  0  0  0  0
  7 34  1  0  0  0  0
  8  9  2  0  0  0  0
  9 10  1  0  0  0  0
  9 21  1  0  0  0  0
 10 11  1  0  0  0  0
 10 35  1  0  0  0  0
 11 12  1  0  0  0  0
 11 20  2  0  0  0  0
 12 13  2  0  0  0  0
 12 36  1  0  0  0  0
 13 14  1  0  0  0  0
 13 37  1  0  0  0  0
 14 15  2  0  0  0  0
 14 18  1  0  0  0  0
 15 16  1  0  0  0  0
 15 20  1  0  0  0  0
 16 17  2  0  0  0  0
 16 38  1  0  0  0  0
 17 18  1  0  0  0  0
 17 39  1  0  0  0  0
 18 19  1  0  0  0  0
 19 40  1  0  0  0  0
 19 41  1  0  0  0  0
 19 42  1  0  0  0  0
 20 43  1  0  0  0  0
 22 23  2  0  0  0  0
 22 44  1  0  0  0  0
 23 24  1  0  0  0  0
 24 25  1  0  0  0  0
 24 45  1  0  0  0  0
 24 46  1  0  0  0  0
 25 26  1  0  0  0  0
 25 29  1  0  0  0  0
 26 27  1  0  0  0  0
 26 47  1  0  0  0  0
 26 48  1  0  0  0  0
 27 28  1  0  0  0  0
 27 29  1  0  0  0  0
 27 49  1  0  0  0  0
 28 50  1  0  0  0  0
 29 51  1  0  0  0  0
 29 52  1  0  0  0  0
M  END
$$$$
