CHEMBL1999811
 OpenBabel04072215363D

 34 36  0  0  0  0  0  0  0  0999 V2000
    3.0548    0.5152    0.8601 O   0  0  0  0  0  0  0  0  0  0  0  0
    2.3706    0.1417   -0.0863 C   0  0  0  0  0  0  0  0  0  0  0  0
    2.9589   -0.4985   -1.1627 N   0  0  0  0  0  0  0  0  0  0  0  0
    2.2222   -0.9723   -2.2093 N   0  0  0  0  0  0  0  0  0  0  0  0
    2.9143   -1.5138   -3.1643 C   0  0  0  0  0  0  0  0  0  0  0  0
    2.2499   -2.1213   -4.3343 C   0  0  0  0  0  0  0  0  0  0  0  0
    0.8503   -2.1229   -4.4120 C   0  0  0  0  0  0  0  0  0  0  0  0
    0.2082   -2.7412   -5.4839 C   0  0  0  0  0  0  0  0  0  0  0  0
    0.9707   -3.3503   -6.4760 C   0  0  0  0  0  0  0  0  0  0  0  0
    0.3814   -3.9848   -7.5292 O   0  0  0  0  0  0  0  0  0  0  0  0
    2.3621   -3.3401   -6.4235 C   0  0  0  0  0  0  0  0  0  0  0  0
    3.0029   -2.7242   -5.3483 C   0  0  0  0  0  0  0  0  0  0  0  0
    4.3689   -2.7198   -5.2835 O   0  0  0  0  0  0  0  0  0  0  0  0
    1.0143    0.2839   -0.2342 N   0  0  0  0  0  0  0  0  0  0  0  0
    0.0913    0.8789    0.6385 C   0  0  0  0  0  0  0  0  0  0  0  0
    0.4261    1.4901    1.8626 C   0  0  0  0  0  0  0  0  0  0  0  0
   -0.5274    2.0720    2.7354 C   0  0  0  0  0  0  0  0  0  0  0  0
   -1.9049    2.0994    2.4644 C   0  0  0  0  0  0  0  0  0  0  0  0
   -2.3058    1.5125    1.2419 C   0  0  0  0  0  0  0  0  0  0  0  0
   -3.5662    1.4393    0.7865 N   0  0  0  0  0  0  0  0  0  0  0  0
   -3.4900    0.6683   -0.6815 S   0  0  0  0  0  0  0  0  0  0  0  0
   -1.8582    0.3822   -0.8068 N   0  0  0  0  0  0  0  0  0  0  0  0
   -1.2960    0.8908    0.3069 C   0  0  0  0  0  0  0  0  0  0  0  0
    3.9601   -0.6491   -1.1142 H   0  0  0  0  0  0  0  0  0  0  0  0
    4.0181   -1.5494   -3.1317 H   0  0  0  0  0  0  0  0  0  0  0  0
    0.2535   -1.6553   -3.6309 H   0  0  0  0  0  0  0  0  0  0  0  0
   -0.8769   -2.7428   -5.5218 H   0  0  0  0  0  0  0  0  0  0  0  0
   -0.5833   -3.9561   -7.4115 H   0  0  0  0  0  0  0  0  0  0  0  0
    2.9214   -3.8226   -7.2190 H   0  0  0  0  0  0  0  0  0  0  0  0
    4.7223   -3.1816   -6.0641 H   0  0  0  0  0  0  0  0  0  0  0  0
    0.6647   -0.1249   -1.0965 H   0  0  0  0  0  0  0  0  0  0  0  0
    1.4675    1.5325    2.1789 H   0  0  0  0  0  0  0  0  0  0  0  0
   -0.1683    2.5192    3.6629 H   0  0  0  0  0  0  0  0  0  0  0  0
   -2.6198    2.5445    3.1455 H   0  0  0  0  0  0  0  0  0  0  0  0
  1  2  2  0  0  0  0
  2  3  1  0  0  0  0
  2 14  1  0  0  0  0
  3  4  1  0  0  0  0
  3 24  1  0  0  0  0
  4  5  2  3  0  0  0
  5  6  1  0  0  0  0
  5 25  1  0  0  0  0
  6  7  1  0  0  0  0
  6 12  2  0  0  0  0
  7  8  2  0  0  0  0
  7 26  1  0  0  0  0
  8  9  1  0  0  0  0
  8 27  1  0  0  0  0
  9 10  1  0  0  0  0
  9 11  2  0  0  0  0
 10 28  1  0  0  0  0
 11 12  1  0  0  0  0
 11 29  1  0  0  0  0
 12 13  1  0  0  0  0
 13 30  1  0  0  0  0
 14 15  1  0  0  0  0
 14 31  1  0  0  0  0
 15 16  2  0  0  0  0
 15 23  1  0  0  0  0
 16 17  1  0  0  0  0
 16 32  1  0  0  0  0
 17 18  2  0  0  0  0
 17 33  1  0  0  0  0
 18 19  1  0  0  0  0
 18 34  1  0  0  0  0
 19 20  2  0  0  0  0
 19 23  1  0  0  0  0
 20 21  1  0  0  0  0
 21 22  1  0  0  0  0
 22 23  2  0  0  0  0
M  END
$$$$
