CHEMBL47173
 OpenBabel04072215383D

 32 35  0  0  0  0  0  0  0  0999 V2000
   -2.9743    0.9794    0.0642 O   0  0  0  0  0  0  0  0  0  0  0  0
   -1.8043    0.6488    0.0591 C   0  0  0  0  0  0  0  0  0  0  0  0
   -0.7207    1.5085    0.0666 N   0  0  0  0  0  0  0  0  0  0  0  0
    0.4828    0.8114    0.0605 C   0  0  0  0  0  0  0  0  0  0  0  0
    1.7433    1.3761    0.0443 C   0  0  0  0  0  0  0  0  0  0  0  0
    2.8310    0.5030    0.0091 C   0  0  0  0  0  0  0  0  0  0  0  0
    2.6296   -0.8879   -0.0101 C   0  0  0  0  0  0  0  0  0  0  0  0
    1.3360   -1.4372    0.0143 C   0  0  0  0  0  0  0  0  0  0  0  0
    0.2578   -0.5716    0.0555 C   0  0  0  0  0  0  0  0  0  0  0  0
   -1.2075   -0.7391    0.0627 C   0  0  0  0  0  0  0  0  0  0  0  0
   -1.8882   -1.8956    0.0641 C   0  0  0  0  0  0  0  0  0  0  0  0
   -3.3095   -1.9527    0.0133 C   0  0  0  0  0  0  0  0  0  0  0  0
   -4.2265   -1.8911    1.0440 C   0  0  0  0  0  0  0  0  0  0  0  0
   -5.5730   -2.0154    0.5912 C   0  0  0  0  0  0  0  0  0  0  0  0
   -5.6722   -2.1397   -0.7827 C   0  0  0  0  0  0  0  0  0  0  0  0
   -6.8854   -2.2448   -1.5664 C   0  0  0  0  0  0  0  0  0  0  0  0
   -7.0931   -1.8613   -2.8809 C   0  0  0  0  0  0  0  0  0  0  0  0
   -8.4421   -2.0503   -3.3091 C   0  0  0  0  0  0  0  0  0  0  0  0
   -9.2247   -2.5951   -2.3181 C   0  0  0  0  0  0  0  0  0  0  0  0
   -8.3341   -2.8880   -0.8917 S   0  0  0  0  0  0  0  0  0  0  0  0
   -4.1105   -2.1435   -1.4977 S   0  0  0  0  0  0  0  0  0  0  0  0
   -0.8267    2.5077    0.0607 H   0  0  0  0  0  0  0  0  0  0  0  0
    1.8868    2.4495    0.0500 H   0  0  0  0  0  0  0  0  0  0  0  0
    3.8421    0.9067   -0.0109 H   0  0  0  0  0  0  0  0  0  0  0  0
    3.4960   -1.5465   -0.0508 H   0  0  0  0  0  0  0  0  0  0  0  0
    1.2040   -2.5127   -0.0113 H   0  0  0  0  0  0  0  0  0  0  0  0
   -1.3635   -2.8454    0.0961 H   0  0  0  0  0  0  0  0  0  0  0  0
   -3.9523   -1.7511    2.0822 H   0  0  0  0  0  0  0  0  0  0  0  0
   -6.4318   -1.9848    1.2509 H   0  0  0  0  0  0  0  0  0  0  0  0
   -6.3222   -1.4279   -3.5066 H   0  0  0  0  0  0  0  0  0  0  0  0
   -8.8190   -1.7882   -4.2903 H   0  0  0  0  0  0  0  0  0  0  0  0
  -10.2783   -2.8349   -2.3600 H   0  0  0  0  0  0  0  0  0  0  0  0
  1  2  2  0  0  0  0
  2  3  1  0  0  0  0
  2 10  1  0  0  0  0
  3  4  1  0  0  0  0
  3 22  1  0  0  0  0
  4  5  1  0  0  0  0
  4  9  2  0  0  0  0
  5  6  2  0  0  0  0
  5 23  1  0  0  0  0
  6  7  1  0  0  0  0
  6 24  1  0  0  0  0
  7  8  2  0  0  0  0
  7 25  1  0  0  0  0
  8  9  1  0  0  0  0
  8 26  1  0  0  0  0
  9 10  1  0  0  0  0
 10 11  2  0  0  0  0
 11 12  1  0  0  0  0
 11 27  1  0  0  0  0
 12 13  2  0  0  0  0
 12 21  1  0  0  0  0
 13 14  1  0  0  0  0
 13 28  1  0  0  0  0
 14 15  2  0  0  0  0
 14 29  1  0  0  0  0
 15 16  1  0  0  0  0
 15 21  1  0  0  0  0
 16 17  2  0  0  0  0
 16 20  1  0  0  0  0
 17 18  1  0  0  0  0
 17 30  1  0  0  0  0
 18 19  2  0  0  0  0
 18 31  1  0  0  0  0
 19 20  1  0  0  0  0
 19 32  1  0  0  0  0
M  END
$$$$
