CHEMBL3965770
 OpenBabel04072215373D

 57 60  0  0  0  0  0  0  0  0999 V2000
   -2.6252   -0.2541    0.1022 C   0  0  0  0  0  0  0  0  0  0  0  0
   -1.1288   -0.0906    0.0578 C   0  0  0  0  0  0  0  0  0  0  0  0
   -0.3397   -1.2664    0.0107 C   0  0  0  0  0  0  0  0  0  0  0  0
    1.0425   -1.1626   -0.0726 C   0  0  0  0  0  0  0  0  0  0  0  0
    1.8028   -2.3302   -0.0590 O   0  0  0  0  0  0  0  0  0  0  0  0
    3.1063   -2.2321    0.3974 C   0  0  0  0  0  0  0  0  0  0  0  0
    3.4574   -1.4488    1.4957 C   0  0  0  0  0  0  0  0  0  0  0  0
    4.7844   -1.4000    1.8537 C   0  0  0  0  0  0  0  0  0  0  0  0
    5.7456   -2.1078    1.2377 N   0  0  0  0  0  0  0  0  0  0  0  0
    5.4086   -2.8975    0.2031 C   0  0  0  0  0  0  0  0  0  0  0  0
    6.4150   -3.6472   -0.4393 N   0  0  0  0  0  0  0  0  0  0  0  0
    7.7477   -3.6007   -0.0866 C   0  0  0  0  0  0  0  0  0  0  0  0
    8.2649   -2.9293    0.7955 O   0  0  0  0  0  0  0  0  0  0  0  0
    8.6846   -4.4597   -0.8774 C   0  0  0  0  0  0  0  0  0  0  0  0
    8.8587   -4.2045   -2.3571 C   0  0  0  0  0  0  0  0  0  0  0  0
    8.3213   -5.5236   -1.8787 C   0  0  0  0  0  0  0  0  0  0  0  0
    4.0921   -2.9918   -0.2455 C   0  0  0  0  0  0  0  0  0  0  0  0
    1.6698    0.0167   -0.1832 N   0  0  0  0  0  0  0  0  0  0  0  0
    0.9069    1.1313   -0.1052 C   0  0  0  0  0  0  0  0  0  0  0  0
   -0.4818    1.1599    0.0430 C   0  0  0  0  0  0  0  0  0  0  0  0
   -1.2002    2.3892    0.1826 N   0  0  0  0  0  0  0  0  0  0  0  0
   -0.5971    3.6107    0.4663 C   0  0  0  0  0  0  0  0  0  0  0  0
    0.6112    3.7737    0.6185 O   0  0  0  0  0  0  0  0  0  0  0  0
   -1.4969    4.6517    0.6184 N   0  0  0  0  0  0  0  0  0  0  0  0
   -1.0230    5.9603    0.9253 C   0  0  0  0  0  0  0  0  0  0  0  0
    0.0753    6.5368    0.2653 C   0  0  0  0  0  0  0  0  0  0  0  0
    0.5629    7.8064    0.6391 C   0  0  0  0  0  0  0  0  0  0  0  0
    1.7398    8.4329   -0.0830 C   0  0  0  0  0  0  0  0  0  0  0  0
    3.0733    8.0677    0.5518 C   0  0  0  0  0  0  0  0  0  0  0  0
    1.7913    8.0707   -1.3986 F   0  0  0  0  0  0  0  0  0  0  0  0
    1.6562    9.7979   -0.0956 F   0  0  0  0  0  0  0  0  0  0  0  0
   -0.0617    8.4852    1.6987 C   0  0  0  0  0  0  0  0  0  0  0  0
   -1.1638    7.9252    2.3474 C   0  0  0  0  0  0  0  0  0  0  0  0
   -1.6472    6.6839    1.9418 C   0  0  0  0  0  0  0  0  0  0  0  0
   -2.6925    6.1463    2.5902 F   0  0  0  0  0  0  0  0  0  0  0  0
   -2.9048   -1.2903    0.3256 H   0  0  0  0  0  0  0  0  0  0  0  0
   -3.0580    0.0034   -0.8691 H   0  0  0  0  0  0  0  0  0  0  0  0
   -3.0726    0.3704    0.8827 H   0  0  0  0  0  0  0  0  0  0  0  0
   -0.7943   -2.2505    0.0576 H   0  0  0  0  0  0  0  0  0  0  0  0
    2.7332   -0.8556    2.0388 H   0  0  0  0  0  0  0  0  0  0  0  0
    5.1268   -0.7662    2.6675 H   0  0  0  0  0  0  0  0  0  0  0  0
    6.1357   -4.2255   -1.2141 H   0  0  0  0  0  0  0  0  0  0  0  0
    9.6007   -4.6546   -0.3208 H   0  0  0  0  0  0  0  0  0  0  0  0
    9.8762   -4.1590   -2.7303 H   0  0  0  0  0  0  0  0  0  0  0  0
    8.1800   -3.5181   -2.8488 H   0  0  0  0  0  0  0  0  0  0  0  0
    8.9812   -6.3842   -1.9437 H   0  0  0  0  0  0  0  0  0  0  0  0
    7.2870   -5.7656   -2.0768 H   0  0  0  0  0  0  0  0  0  0  0  0
    3.8227   -3.6231   -1.0833 H   0  0  0  0  0  0  0  0  0  0  0  0
    1.5080    2.0286   -0.1919 H   0  0  0  0  0  0  0  0  0  0  0  0
   -2.2069    2.3573    0.1515 H   0  0  0  0  0  0  0  0  0  0  0  0
   -2.3701    4.4068    1.0696 H   0  0  0  0  0  0  0  0  0  0  0  0
    0.5637    6.0033   -0.5494 H   0  0  0  0  0  0  0  0  0  0  0  0
    3.2653    6.9923    0.4934 H   0  0  0  0  0  0  0  0  0  0  0  0
    3.1188    8.3810    1.5999 H   0  0  0  0  0  0  0  0  0  0  0  0
    3.8871    8.5781    0.0236 H   0  0  0  0  0  0  0  0  0  0  0  0
    0.3094    9.4600    2.0150 H   0  0  0  0  0  0  0  0  0  0  0  0
   -1.6390    8.4456    3.1724 H   0  0  0  0  0  0  0  0  0  0  0  0
  1  2  1  0  0  0  0
  1 36  1  0  0  0  0
  1 37  1  0  0  0  0
  1 38  1  0  0  0  0
  2  3  1  0  0  0  0
  2 20  2  0  0  0  0
  3  4  2  0  0  0  0
  3 39  1  0  0  0  0
  4  5  1  0  0  0  0
  4 18  1  0  0  0  0
  5  6  1  0  0  0  0
  6  7  1  0  0  0  0
  6 17  2  0  0  0  0
  7  8  2  0  0  0  0
  7 40  1  0  0  0  0
  8  9  1  0  0  0  0
  8 41  1  0  0  0  0
  9 10  2  0  0  0  0
 10 11  1  0  0  0  0
 10 17  1  0  0  0  0
 11 12  1  0  0  0  0
 11 42  1  0  0  0  0
 12 13  2  0  0  0  0
 12 14  1  0  0  0  0
 14 15  1  0  0  0  0
 14 16  1  0  0  0  0
 14 43  1  0  0  0  0
 15 16  1  0  0  0  0
 15 44  1  0  0  0  0
 15 45  1  0  0  0  0
 16 46  1  0  0  0  0
 16 47  1  0  0  0  0
 17 48  1  0  0  0  0
 18 19  2  0  0  0  0
 19 20  1  0  0  0  0
 19 49  1  0  0  0  0
 20 21  1  0  0  0  0
 21 22  1  0  0  0  0
 21 50  1  0  0  0  0
 22 23  2  0  0  0  0
 22 24  1  0  0  0  0
 24 25  1  0  0  0  0
 24 51  1  0  0  0  0
 25 26  1  0  0  0  0
 25 34  2  0  0  0  0
 26 27  2  0  0  0  0
 26 52  1  0  0  0  0
 27 28  1  0  0  0  0
 27 32  1  0  0  0  0
 28 29  1  0  0  0  0
 28 30  1  0  0  0  0
 28 31  1  0  0  0  0
 29 53  1  0  0  0  0
 29 54  1  0  0  0  0
 29 55  1  0  0  0  0
 32 33  2  0  0  0  0
 32 56  1  0  0  0  0
 33 34  1  0  0  0  0
 33 57  1  0  0  0  0
 34 35  1  0  0  0  0
M  END
$$$$
