CHEMBL3676377
 OpenBabel04072215373D

 61 63  0  0  1  0  0  0  0  0999 V2000
    3.4757   -3.7060   -1.2913 C   0  0  0  0  0  0  0  0  0  0  0  0
    3.5454   -2.4487   -1.7440 C   0  0  0  0  0  0  0  0  0  0  0  0
    3.7572   -1.3361   -0.7779 C   0  0  0  0  0  0  0  0  0  0  0  0
    3.3338   -1.3797    0.3720 O   0  0  0  0  0  0  0  0  0  0  0  0
    4.4964   -0.2609   -1.2054 N   0  0  0  0  0  0  0  0  0  0  0  0
    5.2987   -0.2944   -2.3653 C   0  0  0  0  0  0  0  0  0  0  0  0
    6.4138   -1.1366   -2.3467 C   0  0  0  0  0  0  0  0  0  0  0  0
    7.0739   -1.4733   -3.5458 C   0  0  0  0  0  0  0  0  0  0  0  0
    8.1416   -2.3834   -3.6263 C   0  0  0  0  0  0  0  0  0  0  0  0
    8.5431   -3.0807   -2.4647 N   0  0  0  0  0  0  0  0  0  0  0  0
    9.8380   -3.5124   -2.1099 C   0  0  0  0  0  0  0  0  0  0  0  0
   10.9800   -2.8389   -2.5531 C   0  0  0  0  0  0  0  0  0  0  0  0
   12.2344   -3.1266   -2.0102 C   0  0  0  0  0  0  0  0  0  0  0  0
   12.3670   -4.1055   -1.0215 C   0  0  0  0  0  0  0  0  0  0  0  0
   14.0860   -4.3250   -0.2442 Br  0  0  0  0  0  0  0  0  0  0  0  0
   11.2500   -4.8392   -0.6120 C   0  0  0  0  0  0  0  0  0  0  0  0
   11.3499   -6.0951    0.5721 Cl  0  0  0  0  0  0  0  0  0  0  0  0
    9.9990   -4.5292   -1.1548 C   0  0  0  0  0  0  0  0  0  0  0  0
    8.9033   -5.1938   -0.7442 F   0  0  0  0  0  0  0  0  0  0  0  0
    8.7658   -2.6494   -4.7851 N   0  0  0  0  0  0  0  0  0  0  0  0
    8.2840   -2.0397   -5.8722 C   0  0  0  0  0  0  0  0  0  0  0  0
    7.2552   -1.1818   -5.9116 N   0  0  0  0  0  0  0  0  0  0  0  0
    6.6587   -0.8943   -4.7513 C   0  0  0  0  0  0  0  0  0  0  0  0
    5.5757   -0.0123   -4.7304 C   0  0  0  0  0  0  0  0  0  0  0  0
    4.8905    0.3123   -3.5504 C   0  0  0  0  0  0  0  0  0  0  0  0
    3.7991    1.1381   -3.7042 O   0  0  0  0  0  0  0  0  0  0  0  0
    3.6008    2.1024   -2.6575 C   0  0  0  0  0  0  0  0  0  0  0  0
    2.5107    3.1354   -3.0293 C   0  0  1  0  0  0  0  0  0  0  0  0
    1.1713    2.4500   -3.2942 C   0  0  0  0  0  0  0  0  0  0  0  0
    2.3392    4.1249   -1.9626 N   0  0  0  0  0  0  0  0  0  0  0  0
    3.2368    5.1532   -1.7612 C   0  0  0  0  0  0  0  0  0  0  0  0
    4.1285    5.4345   -2.5557 O   0  0  0  0  0  0  0  0  0  0  0  0
    3.0116    5.9433   -0.4615 C   0  0  0  0  0  0  0  0  0  0  0  0
    2.6000    5.0577    0.6624 N   0  0  0  0  0  0  0  0  0  0  0  0
    3.6782    4.1272    1.0234 C   0  0  0  0  0  0  0  0  0  0  0  0
    2.2863    5.8871    1.8354 C   0  0  0  0  0  0  0  0  0  0  0  0
    3.3877   -4.5408   -1.9782 H   0  0  0  0  0  0  0  0  0  0  0  0
    3.5214   -3.9269   -0.2283 H   0  0  0  0  0  0  0  0  0  0  0  0
    3.5158   -2.2316   -2.8048 H   0  0  0  0  0  0  0  0  0  0  0  0
    4.8762    0.2328   -0.4071 H   0  0  0  0  0  0  0  0  0  0  0  0
    6.7314   -1.5838   -1.4067 H   0  0  0  0  0  0  0  0  0  0  0  0
    7.8092   -3.7001   -2.1285 H   0  0  0  0  0  0  0  0  0  0  0  0
   10.8980   -2.0470   -3.2945 H   0  0  0  0  0  0  0  0  0  0  0  0
   13.0951   -2.5522   -2.3461 H   0  0  0  0  0  0  0  0  0  0  0  0
    8.7691   -2.2695   -6.8149 H   0  0  0  0  0  0  0  0  0  0  0  0
    5.2391    0.4184   -5.6726 H   0  0  0  0  0  0  0  0  0  0  0  0
    4.5459    2.6173   -2.4443 H   0  0  0  0  0  0  0  0  0  0  0  0
    3.2521    1.6098   -1.7462 H   0  0  0  0  0  0  0  0  0  0  0  0
    2.8180    3.6613   -3.9412 H   0  0  0  0  0  0  0  0  0  0  0  0
    0.8433    1.8776   -2.4174 H   0  0  0  0  0  0  0  0  0  0  0  0
    1.2341    1.7651   -4.1446 H   0  0  0  0  0  0  0  0  0  0  0  0
    0.3922    3.1894   -3.5090 H   0  0  0  0  0  0  0  0  0  0  0  0
    1.7976    3.8787   -1.1360 H   0  0  0  0  0  0  0  0  0  0  0  0
    2.2196    6.6727   -0.6735 H   0  0  0  0  0  0  0  0  0  0  0  0
    3.9303    6.4902   -0.2177 H   0  0  0  0  0  0  0  0  0  0  0  0
    3.9404    3.4713    0.1877 H   0  0  0  0  0  0  0  0  0  0  0  0
    3.3490    3.4672    1.8340 H   0  0  0  0  0  0  0  0  0  0  0  0
    4.5864    4.6481    1.3464 H   0  0  0  0  0  0  0  0  0  0  0  0
    1.4877    6.6019    1.6093 H   0  0  0  0  0  0  0  0  0  0  0  0
    3.1595    6.4495    2.1892 H   0  0  0  0  0  0  0  0  0  0  0  0
    1.9261    5.2622    2.6607 H   0  0  0  0  0  0  0  0  0  0  0  0
  1  2  2  0  0  0  0
  1 37  1  0  0  0  0
  1 38  1  0  0  0  0
  2  3  1  0  0  0  0
  2 39  1  0  0  0  0
  3  4  2  0  0  0  0
  3  5  1  0  0  0  0
  5  6  1  0  0  0  0
  5 40  1  0  0  0  0
  6  7  1  0  0  0  0
  6 25  2  0  0  0  0
  7  8  2  0  0  0  0
  7 41  1  0  0  0  0
  8  9  1  0  0  0  0
  8 23  1  0  0  0  0
  9 10  1  0  0  0  0
  9 20  2  0  0  0  0
 10 11  1  0  0  0  0
 10 42  1  0  0  0  0
 11 12  1  0  0  0  0
 11 18  2  0  0  0  0
 12 13  2  0  0  0  0
 12 43  1  0  0  0  0
 13 14  1  0  0  0  0
 13 44  1  0  0  0  0
 14 15  1  0  0  0  0
 14 16  2  0  0  0  0
 16 17  1  0  0  0  0
 16 18  1  0  0  0  0
 18 19  1  0  0  0  0
 20 21  1  0  0  0  0
 21 22  2  0  0  0  0
 21 45  1  0  0  0  0
 22 23  1  0  0  0  0
 23 24  2  0  0  0  0
 24 25  1  0  0  0  0
 24 46  1  0  0  0  0
 25 26  1  0  0  0  0
 26 27  1  0  0  0  0
 27 28  1  0  0  0  0
 27 47  1  0  0  0  0
 27 48  1  0  0  0  0
 28 29  1  0  0  0  0
 28 30  1  0  0  0  0
 28 49  1  6  0  0  0
 29 50  1  0  0  0  0
 29 51  1  0  0  0  0
 29 52  1  0  0  0  0
 30 31  1  0  0  0  0
 30 53  1  0  0  0  0
 31 32  2  0  0  0  0
 31 33  1  0  0  0  0
 33 34  1  0  0  0  0
 33 54  1  0  0  0  0
 33 55  1  0  0  0  0
 34 35  1  0  0  0  0
 34 36  1  0  0  0  0
 35 56  1  0  0  0  0
 35 57  1  0  0  0  0
 35 58  1  0  0  0  0
 36 59  1  0  0  0  0
 36 60  1  0  0  0  0
 36 61  1  0  0  0  0
M  END
$$$$
