CHEMBL272609
 OpenBabel04072215363D

 50 53  0  0  0  0  0  0  0  0999 V2000
    1.0372    1.0020    0.0806 C   0  0  0  0  0  0  0  0  0  0  0  0
    2.4753    0.8818    0.0897 N   0  0  0  0  0  0  0  0  0  0  0  0
    3.1289    0.5848    1.2719 C   0  0  0  0  0  0  0  0  0  0  0  0
    2.4880    0.3955    2.2984 O   0  0  0  0  0  0  0  0  0  0  0  0
    4.5227    0.5812    1.1752 N   0  0  0  0  0  0  0  0  0  0  0  0
    5.2479    1.0681   -0.0085 C   0  0  0  0  0  0  0  0  0  0  0  0
    6.3590    2.0042    0.4212 C   0  0  0  0  0  0  0  0  0  0  0  0
    7.3303    1.2929    1.1872 O   0  0  0  0  0  0  0  0  0  0  0  0
    6.7629    0.5471    2.1949 C   0  0  0  0  0  0  0  0  0  0  0  0
    7.6616    0.1611    3.1903 C   0  0  0  0  0  0  0  0  0  0  0  0
    7.2026   -0.4913    4.3303 C   0  0  0  0  0  0  0  0  0  0  0  0
    8.0238   -0.8481    5.3781 O   0  0  0  0  0  0  0  0  0  0  0  0
    9.0075    0.0325    5.8057 C   0  0  0  0  0  0  0  0  0  0  0  0
    8.8591    1.4149    5.7191 C   0  0  0  0  0  0  0  0  0  0  0  0
    9.9010    2.2024    6.1573 C   0  0  0  0  0  0  0  0  0  0  0  0
   11.0226    1.7169    6.7321 N   0  0  0  0  0  0  0  0  0  0  0  0
   11.1314    0.3849    6.9040 C   0  0  0  0  0  0  0  0  0  0  0  0
   12.2128   -0.1285    7.6208 C   0  0  0  0  0  0  0  0  0  0  0  0
   12.3659   -1.5022    7.9109 C   0  0  0  0  0  0  0  0  0  0  0  0
   13.2699   -1.7585    8.9093 O   0  0  0  0  0  0  0  0  0  0  0  0
   14.4332   -2.5004    8.5681 C   0  0  0  0  0  0  0  0  0  0  0  0
   11.4333   -2.4038    7.3950 C   0  0  0  0  0  0  0  0  0  0  0  0
   11.2934   -3.7526    7.5220 O   0  0  0  0  0  0  0  0  0  0  0  0
   12.2184   -4.5402    8.2330 C   0  0  0  0  0  0  0  0  0  0  0  0
   10.3523   -1.8880    6.6544 C   0  0  0  0  0  0  0  0  0  0  0  0
   10.1554   -0.5088    6.4362 C   0  0  0  0  0  0  0  0  0  0  0  0
    5.8607   -0.8598    4.4115 C   0  0  0  0  0  0  0  0  0  0  0  0
    4.9659   -0.5195    3.3829 C   0  0  0  0  0  0  0  0  0  0  0  0
    5.3937    0.2055    2.2600 C   0  0  0  0  0  0  0  0  0  0  0  0
    0.7118    1.2135   -0.9407 H   0  0  0  0  0  0  0  0  0  0  0  0
    0.7387    1.8211    0.7412 H   0  0  0  0  0  0  0  0  0  0  0  0
    0.5890    0.0682    0.4299 H   0  0  0  0  0  0  0  0  0  0  0  0
    2.8863    0.4836   -0.7403 H   0  0  0  0  0  0  0  0  0  0  0  0
    4.5937    1.5963   -0.7087 H   0  0  0  0  0  0  0  0  0  0  0  0
    5.6553    0.1865   -0.5147 H   0  0  0  0  0  0  0  0  0  0  0  0
    5.9765    2.8526    1.0027 H   0  0  0  0  0  0  0  0  0  0  0  0
    6.8701    2.4081   -0.4585 H   0  0  0  0  0  0  0  0  0  0  0  0
    8.7129    0.4128    3.0799 H   0  0  0  0  0  0  0  0  0  0  0  0
    7.9679    1.8798    5.3141 H   0  0  0  0  0  0  0  0  0  0  0  0
    9.8552    3.2843    6.0632 H   0  0  0  0  0  0  0  0  0  0  0  0
   12.9254    0.5853    8.0338 H   0  0  0  0  0  0  0  0  0  0  0  0
   15.3225   -1.9454    8.8831 H   0  0  0  0  0  0  0  0  0  0  0  0
   14.5167   -2.7418    7.5050 H   0  0  0  0  0  0  0  0  0  0  0  0
   14.4301   -3.4174    9.1667 H   0  0  0  0  0  0  0  0  0  0  0  0
   11.8151   -5.5570    8.2793 H   0  0  0  0  0  0  0  0  0  0  0  0
   12.3397   -4.1974    9.2623 H   0  0  0  0  0  0  0  0  0  0  0  0
   13.1651   -4.6124    7.6925 H   0  0  0  0  0  0  0  0  0  0  0  0
    9.6074   -2.5930    6.2867 H   0  0  0  0  0  0  0  0  0  0  0  0
    5.4976   -1.4128    5.2745 H   0  0  0  0  0  0  0  0  0  0  0  0
    3.9376   -0.8510    3.4881 H   0  0  0  0  0  0  0  0  0  0  0  0
  1  2  1  0  0  0  0
  1 30  1  0  0  0  0
  1 31  1  0  0  0  0
  1 32  1  0  0  0  0
  2  3  1  0  0  0  0
  2 33  1  0  0  0  0
  3  4  2  0  0  0  0
  3  5  1  0  0  0  0
  5  6  1  0  0  0  0
  5 29  1  0  0  0  0
  6  7  1  0  0  0  0
  6 34  1  0  0  0  0
  6 35  1  0  0  0  0
  7  8  1  0  0  0  0
  7 36  1  0  0  0  0
  7 37  1  0  0  0  0
  8  9  1  0  0  0  0
  9 10  1  0  0  0  0
  9 29  2  0  0  0  0
 10 11  2  0  0  0  0
 10 38  1  0  0  0  0
 11 12  1  0  0  0  0
 11 27  1  0  0  0  0
 12 13  1  0  0  0  0
 13 14  1  0  0  0  0
 13 26  2  0  0  0  0
 14 15  2  0  0  0  0
 14 39  1  0  0  0  0
 15 16  1  0  0  0  0
 15 40  1  0  0  0  0
 16 17  2  0  0  0  0
 17 18  1  0  0  0  0
 17 26  1  0  0  0  0
 18 19  2  0  0  0  0
 18 41  1  0  0  0  0
 19 20  1  0  0  0  0
 19 22  1  0  0  0  0
 20 21  1  0  0  0  0
 21 42  1  0  0  0  0
 21 43  1  0  0  0  0
 21 44  1  0  0  0  0
 22 23  1  0  0  0  0
 22 25  2  0  0  0  0
 23 24  1  0  0  0  0
 24 45  1  0  0  0  0
 24 46  1  0  0  0  0
 24 47  1  0  0  0  0
 25 26  1  0  0  0  0
 25 48  1  0  0  0  0
 27 28  2  0  0  0  0
 27 49  1  0  0  0  0
 28 29  1  0  0  0  0
 28 50  1  0  0  0  0
M  END
$$$$
