CHEMBL3923645
 OpenBabel04072215373D

 61 66  0  0  1  0  0  0  0  0999 V2000
   -3.0868    5.2523    0.7960 C   0  0  0  0  0  0  0  0  0  0  0  0
   -1.9781    4.3631    0.6829 O   0  0  0  0  0  0  0  0  0  0  0  0
   -0.7271    4.9239    0.7533 C   0  0  0  0  0  0  0  0  0  0  0  0
   -0.5042    6.2790    1.0047 C   0  0  0  0  0  0  0  0  0  0  0  0
    0.8043    6.8062    1.0601 C   0  0  0  0  0  0  0  0  0  0  0  0
    1.1132    8.1449    1.3341 C   0  0  0  0  0  0  0  0  0  0  0  0
    0.0647    9.0629    1.6235 N   0  0  0  0  0  0  0  0  0  0  0  0
    0.2357   10.4628    1.6074 C   0  0  0  0  0  0  0  0  0  0  0  0
    0.8790   11.0790    0.5242 C   0  0  0  0  0  0  0  0  0  0  0  0
    1.1584   12.4432    0.5437 C   0  0  0  0  0  0  0  0  0  0  0  0
    0.7829   13.2153    1.6411 C   0  0  0  0  0  0  0  0  0  0  0  0
    1.2854   15.0456    1.6304 Br  0  0  0  0  0  0  0  0  0  0  0  0
    0.0863   12.6221    2.6997 C   0  0  0  0  0  0  0  0  0  0  0  0
   -0.4276   13.5158    4.0890 Cl  0  0  0  0  0  0  0  0  0  0  0  0
   -0.1963   11.2511    2.6770 C   0  0  0  0  0  0  0  0  0  0  0  0
    2.3832    8.5943    1.3470 N   0  0  0  0  0  0  0  0  0  0  0  0
    3.3434    7.7026    1.1003 C   0  0  0  0  0  0  0  0  0  0  0  0
    3.1592    6.4069    0.8337 N   0  0  0  0  0  0  0  0  0  0  0  0
    1.8964    5.9726    0.8148 C   0  0  0  0  0  0  0  0  0  0  0  0
    1.6657    4.6330    0.5512 C   0  0  0  0  0  0  0  0  0  0  0  0
    0.3772    4.0825    0.5405 C   0  0  0  0  0  0  0  0  0  0  0  0
    0.1333    2.7371    0.3981 O   0  0  0  0  0  0  0  0  0  0  0  0
    1.0875    1.9615   -0.3493 C   0  0  1  0  0  0  0  0  0  0  0  0
    2.2122    1.4229    0.5333 C   0  0  0  0  0  0  0  0  0  0  0  0
    1.7203    0.2330    1.1666 O   0  0  0  0  0  0  0  0  0  0  0  0
    0.7963   -0.3749    0.2489 C   0  0  1  0  0  0  0  0  0  0  0  0
    0.4044    0.6743   -0.7898 C   0  0  2  0  0  0  0  0  0  0  0  0
    0.8981    0.2083   -2.0585 O   0  0  0  0  0  0  0  0  0  0  0  0
    0.9706   -1.2229   -1.9485 C   0  0  0  0  0  0  0  0  0  0  0  0
    1.5094   -1.4885   -0.5415 C   0  0  2  0  0  0  0  0  0  0  0  0
    1.2846   -2.8839   -0.1061 N   0  0  0  0  0  0  0  0  0  0  0  0
    1.3654   -3.0897    1.3483 C   0  0  0  0  0  0  0  0  0  0  0  0
    2.8232   -3.3551    1.6480 C   0  0  0  0  0  0  0  0  0  0  0  0
    3.3045   -4.1183    0.4312 C   0  0  0  0  0  0  0  0  0  0  0  0
    2.3040   -3.7906   -0.6759 C   0  0  0  0  0  0  0  0  0  0  0  0
   -4.0057    4.6828    0.6344 H   0  0  0  0  0  0  0  0  0  0  0  0
   -3.0507    6.0387    0.0320 H   0  0  0  0  0  0  0  0  0  0  0  0
   -3.1350    5.6873    1.8011 H   0  0  0  0  0  0  0  0  0  0  0  0
   -1.3338    6.9615    1.1523 H   0  0  0  0  0  0  0  0  0  0  0  0
   -0.4449    8.7361    2.4375 H   0  0  0  0  0  0  0  0  0  0  0  0
    1.1943   10.4832   -0.3268 H   0  0  0  0  0  0  0  0  0  0  0  0
    1.6923   12.8810   -0.2970 H   0  0  0  0  0  0  0  0  0  0  0  0
   -0.7153   10.7985    3.5174 H   0  0  0  0  0  0  0  0  0  0  0  0
    4.3668    8.0618    1.1227 H   0  0  0  0  0  0  0  0  0  0  0  0
    2.5450    4.0257    0.3729 H   0  0  0  0  0  0  0  0  0  0  0  0
    1.4591    2.5355   -1.2065 H   0  0  0  0  0  0  0  0  0  0  0  0
    2.5401    2.0993    1.3237 H   0  0  0  0  0  0  0  0  0  0  0  0
    3.0803    1.1478   -0.0784 H   0  0  0  0  0  0  0  0  0  0  0  0
   -0.0790   -0.7177    0.8086 H   0  0  0  0  0  0  0  0  0  0  0  0
   -0.6848    0.7706   -0.8664 H   0  0  0  0  0  0  0  0  0  0  0  0
    1.6173   -1.6125   -2.7393 H   0  0  0  0  0  0  0  0  0  0  0  0
   -0.0394   -1.6299   -2.0886 H   0  0  0  0  0  0  0  0  0  0  0  0
    2.5872   -1.2701   -0.5288 H   0  0  0  0  0  0  0  0  0  0  0  0
    0.7726   -3.9791    1.5959 H   0  0  0  0  0  0  0  0  0  0  0  0
    0.9635   -2.2793    1.9599 H   0  0  0  0  0  0  0  0  0  0  0  0
    2.9560   -3.9331    2.5715 H   0  0  0  0  0  0  0  0  0  0  0  0
    3.3776   -2.4175    1.7525 H   0  0  0  0  0  0  0  0  0  0  0  0
    3.3049   -5.1961    0.6315 H   0  0  0  0  0  0  0  0  0  0  0  0
    4.3260   -3.8253    0.1665 H   0  0  0  0  0  0  0  0  0  0  0  0
    1.8123   -4.7125   -1.0072 H   0  0  0  0  0  0  0  0  0  0  0  0
    2.8158   -3.3802   -1.5540 H   0  0  0  0  0  0  0  0  0  0  0  0
  1  2  1  0  0  0  0
  1 36  1  0  0  0  0
  1 37  1  0  0  0  0
  1 38  1  0  0  0  0
  2  3  1  0  0  0  0
  3  4  1  0  0  0  0
  3 21  2  0  0  0  0
  4  5  2  0  0  0  0
  4 39  1  0  0  0  0
  5  6  1  0  0  0  0
  5 19  1  0  0  0  0
  6  7  1  0  0  0  0
  6 16  2  0  0  0  0
  7  8  1  0  0  0  0
  7 40  1  0  0  0  0
  8  9  1  0  0  0  0
  8 15  2  0  0  0  0
  9 10  2  0  0  0  0
  9 41  1  0  0  0  0
 10 11  1  0  0  0  0
 10 42  1  0  0  0  0
 11 12  1  0  0  0  0
 11 13  2  0  0  0  0
 13 14  1  0  0  0  0
 13 15  1  0  0  0  0
 15 43  1  0  0  0  0
 16 17  1  0  0  0  0
 17 18  2  0  0  0  0
 17 44  1  0  0  0  0
 18 19  1  0  0  0  0
 19 20  2  0  0  0  0
 20 21  1  0  0  0  0
 20 45  1  0  0  0  0
 21 22  1  0  0  0  0
 23 24  1  0  0  0  0
 23 27  1  0  0  0  0
 23 22  1  0  0  0  0
 23 46  1  6  0  0  0
 24 25  1  0  0  0  0
 24 47  1  0  0  0  0
 24 48  1  0  0  0  0
 25 26  1  0  0  0  0
 26 27  1  0  0  0  0
 26 30  1  0  0  0  0
 26 49  1  1  0  0  0
 27 28  1  0  0  0  0
 27 50  1  6  0  0  0
 28 29  1  0  0  0  0
 29 30  1  0  0  0  0
 29 51  1  0  0  0  0
 29 52  1  0  0  0  0
 30 31  1  0  0  0  0
 30 53  1  1  0  0  0
 31 32  1  0  0  0  0
 31 35  1  0  0  0  0
 32 33  1  0  0  0  0
 32 54  1  0  0  0  0
 32 55  1  0  0  0  0
 33 34  1  0  0  0  0
 33 56  1  0  0  0  0
 33 57  1  0  0  0  0
 34 35  1  0  0  0  0
 34 58  1  0  0  0  0
 34 59  1  0  0  0  0
 35 60  1  0  0  0  0
 35 61  1  0  0  0  0
M  END
$$$$
