CHEMBL3976229
 OpenBabel04072215373D

 58 61  0  0  0  0  0  0  0  0999 V2000
    3.7847    8.7667    4.5132 C   0  0  0  0  0  0  0  0  0  0  0  0
    3.9097    9.0019    3.1152 O   0  0  0  0  0  0  0  0  0  0  0  0
    3.9971    7.9013    2.3013 C   0  0  0  0  0  0  0  0  0  0  0  0
    3.4797    6.6553    2.6756 C   0  0  0  0  0  0  0  0  0  0  0  0
    3.4703    5.5601    1.8009 C   0  0  0  0  0  0  0  0  0  0  0  0
    2.9533    4.3065    2.1895 N   0  0  0  0  0  0  0  0  0  0  0  0
    1.8410    4.1206    3.0180 C   0  0  0  0  0  0  0  0  0  0  0  0
    1.8185    3.0396    3.8121 N   0  0  0  0  0  0  0  0  0  0  0  0
    0.7297    2.8781    4.5973 C   0  0  0  0  0  0  0  0  0  0  0  0
   -0.3372    3.7526    4.6240 C   0  0  0  0  0  0  0  0  0  0  0  0
   -0.2308    4.8166    3.7473 C   0  0  0  0  0  0  0  0  0  0  0  0
    0.8460    5.0191    2.9712 N   0  0  0  0  0  0  0  0  0  0  0  0
   -1.3070    5.8628    3.6516 C   0  0  0  0  0  0  0  0  0  0  0  0
   -2.6262    5.3208    4.1955 C   0  0  0  0  0  0  0  0  0  0  0  0
   -2.3877    4.7358    5.5125 N   0  0  0  0  0  0  0  0  0  0  0  0
   -2.7676    5.2644    6.7471 C   0  0  0  0  0  0  0  0  0  0  0  0
   -2.6499    4.5948    7.7712 O   0  0  0  0  0  0  0  0  0  0  0  0
   -3.3073    6.6205    6.8004 C   0  0  0  0  0  0  0  0  0  0  0  0
   -3.0383    7.7554    6.0572 C   0  0  0  0  0  0  0  0  0  0  0  0
   -3.8613    8.7765    6.5647 C   0  0  0  0  0  0  0  0  0  0  0  0
   -3.9723   10.1684    6.0721 C   0  0  0  0  0  0  0  0  0  0  0  0
   -4.5759    8.3448    7.6038 N   0  0  0  0  0  0  0  0  0  0  0  0
   -4.1952    7.0608    7.7583 N   0  0  0  0  0  0  0  0  0  0  0  0
   -4.7800    6.2813    8.8273 C   0  0  0  0  0  0  0  0  0  0  0  0
   -1.5544    3.5362    5.4789 C   0  0  0  0  0  0  0  0  0  0  0  0
    4.0446    5.7098    0.5400 C   0  0  0  0  0  0  0  0  0  0  0  0
    4.5371    6.9552    0.1249 C   0  0  0  0  0  0  0  0  0  0  0  0
    5.0718    7.1634   -1.1260 O   0  0  0  0  0  0  0  0  0  0  0  0
    4.4846    6.4060   -2.1787 C   0  0  0  0  0  0  0  0  0  0  0  0
    4.5439    8.0532    1.0133 C   0  0  0  0  0  0  0  0  0  0  0  0
    5.0402    9.2269    0.4906 O   0  0  0  0  0  0  0  0  0  0  0  0
    5.7103   10.0993    1.3909 C   0  0  0  0  0  0  0  0  0  0  0  0
    3.8075    9.7354    5.0200 H   0  0  0  0  0  0  0  0  0  0  0  0
    4.6253    8.1703    4.8842 H   0  0  0  0  0  0  0  0  0  0  0  0
    2.8260    8.2991    4.7632 H   0  0  0  0  0  0  0  0  0  0  0  0
    3.0287    6.5190    3.6528 H   0  0  0  0  0  0  0  0  0  0  0  0
    3.6609    3.6370    2.4666 H   0  0  0  0  0  0  0  0  0  0  0  0
    0.7452    1.9867    5.2198 H   0  0  0  0  0  0  0  0  0  0  0  0
   -1.4348    6.1881    2.6139 H   0  0  0  0  0  0  0  0  0  0  0  0
   -0.9606    6.7216    4.2328 H   0  0  0  0  0  0  0  0  0  0  0  0
   -3.0032    4.5208    3.5454 H   0  0  0  0  0  0  0  0  0  0  0  0
   -3.4078    6.0817    4.2114 H   0  0  0  0  0  0  0  0  0  0  0  0
   -2.3551    7.8723    5.2350 H   0  0  0  0  0  0  0  0  0  0  0  0
   -3.3532   10.3142    5.1785 H   0  0  0  0  0  0  0  0  0  0  0  0
   -3.6348   10.8780    6.8327 H   0  0  0  0  0  0  0  0  0  0  0  0
   -5.0072   10.4024    5.7994 H   0  0  0  0  0  0  0  0  0  0  0  0
   -5.4712    6.9114    9.3971 H   0  0  0  0  0  0  0  0  0  0  0  0
   -3.9811    5.9343    9.4875 H   0  0  0  0  0  0  0  0  0  0  0  0
   -5.3244    5.4431    8.3867 H   0  0  0  0  0  0  0  0  0  0  0  0
   -2.1597    2.7328    5.0395 H   0  0  0  0  0  0  0  0  0  0  0  0
   -1.2556    3.2278    6.4856 H   0  0  0  0  0  0  0  0  0  0  0  0
    4.0667    4.8527   -0.1247 H   0  0  0  0  0  0  0  0  0  0  0  0
    4.7696    6.8729   -3.1267 H   0  0  0  0  0  0  0  0  0  0  0  0
    3.3900    6.4066   -2.1240 H   0  0  0  0  0  0  0  0  0  0  0  0
    4.8757    5.3839   -2.1824 H   0  0  0  0  0  0  0  0  0  0  0  0
    6.3392   10.7698    0.7963 H   0  0  0  0  0  0  0  0  0  0  0  0
    6.3661    9.5596    2.0830 H   0  0  0  0  0  0  0  0  0  0  0  0
    4.9960   10.7325    1.9250 H   0  0  0  0  0  0  0  0  0  0  0  0
  1  2  1  0  0  0  0
  1 33  1  0  0  0  0
  1 34  1  0  0  0  0
  1 35  1  0  0  0  0
  2  3  1  0  0  0  0
  3  4  1  0  0  0  0
  3 30  2  0  0  0  0
  4  5  2  0  0  0  0
  4 36  1  0  0  0  0
  5  6  1  0  0  0  0
  5 26  1  0  0  0  0
  6  7  1  0  0  0  0
  6 37  1  0  0  0  0
  7  8  1  0  0  0  0
  7 12  2  0  0  0  0
  8  9  2  0  0  0  0
  9 10  1  0  0  0  0
  9 38  1  0  0  0  0
 10 11  2  0  0  0  0
 10 25  1  0  0  0  0
 11 12  1  0  0  0  0
 11 13  1  0  0  0  0
 13 14  1  0  0  0  0
 13 39  1  0  0  0  0
 13 40  1  0  0  0  0
 14 15  1  0  0  0  0
 14 41  1  0  0  0  0
 14 42  1  0  0  0  0
 15 16  1  0  0  0  0
 15 25  1  0  0  0  0
 16 17  2  0  0  0  0
 16 18  1  0  0  0  0
 18 19  2  0  0  0  0
 18 23  1  0  0  0  0
 19 20  1  0  0  0  0
 19 43  1  0  0  0  0
 20 21  1  0  0  0  0
 20 22  2  0  0  0  0
 21 44  1  0  0  0  0
 21 45  1  0  0  0  0
 21 46  1  0  0  0  0
 22 23  1  0  0  0  0
 23 24  1  0  0  0  0
 24 47  1  0  0  0  0
 24 48  1  0  0  0  0
 24 49  1  0  0  0  0
 25 50  1  0  0  0  0
 25 51  1  0  0  0  0
 26 27  2  0  0  0  0
 26 52  1  0  0  0  0
 27 28  1  0  0  0  0
 27 30  1  0  0  0  0
 28 29  1  0  0  0  0
 29 53  1  0  0  0  0
 29 54  1  0  0  0  0
 29 55  1  0  0  0  0
 30 31  1  0  0  0  0
 31 32  1  0  0  0  0
 32 56  1  0  0  0  0
 32 57  1  0  0  0  0
 32 58  1  0  0  0  0
M  END
$$$$
