CHEMBL3950089
 OpenBabel04072215373D

 57 60  0  0  0  0  0  0  0  0999 V2000
    4.0423   -6.7189   -1.3976 C   0  0  0  0  0  0  0  0  0  0  0  0
    3.3225   -5.3878   -1.2765 C   0  0  0  0  0  0  0  0  0  0  0  0
    4.0691   -4.3096   -1.8942 N   0  0  0  0  0  0  0  0  0  0  0  0
    3.9510   -3.8735   -3.1800 C   0  0  0  0  0  0  0  0  0  0  0  0
    4.8642   -2.8479   -3.3351 C   0  0  0  0  0  0  0  0  0  0  0  0
    5.0656   -2.1166   -4.5716 C   0  0  0  0  0  0  0  0  0  0  0  0
    5.9984   -1.1003   -4.7000 C   0  0  0  0  0  0  0  0  0  0  0  0
    6.1902   -0.4202   -5.8592 N   0  0  0  0  0  0  0  0  0  0  0  0
    5.4160   -0.7825   -6.9009 C   0  0  0  0  0  0  0  0  0  0  0  0
    5.5464   -0.1461   -8.1262 C   0  0  0  0  0  0  0  0  0  0  0  0
    4.7670   -0.5243   -9.2269 C   0  0  0  0  0  0  0  0  0  0  0  0
    3.8226   -1.5591   -9.1376 C   0  0  0  0  0  0  0  0  0  0  0  0
    3.0817   -1.9634  -10.2758 N   0  0  0  0  0  0  0  0  0  0  0  0
    1.6967   -2.4589  -10.0597 C   0  0  0  0  0  0  0  0  0  0  0  0
    1.5457   -3.9875  -10.2614 C   0  0  0  0  0  0  0  0  0  0  0  0
    2.1440   -4.8116   -9.2059 N   0  0  0  0  0  0  0  0  0  0  0  0
    3.5610   -1.9685  -11.6150 C   0  0  0  0  0  0  0  0  0  0  0  0
    4.9034   -2.2990  -11.8764 C   0  0  0  0  0  0  0  0  0  0  0  0
    5.4162   -2.3179  -13.1755 C   0  0  0  0  0  0  0  0  0  0  0  0
    6.7036   -2.6270  -13.5238 O   0  0  0  0  0  0  0  0  0  0  0  0
    7.5973   -2.9376  -12.4607 C   0  0  0  0  0  0  0  0  0  0  0  0
    4.5811   -2.0140  -14.2528 C   0  0  0  0  0  0  0  0  0  0  0  0
    3.2434   -1.6984  -14.0322 C   0  0  0  0  0  0  0  0  0  0  0  0
    2.3180   -1.4122  -15.0001 O   0  0  0  0  0  0  0  0  0  0  0  0
    2.7569   -1.4795  -16.3525 C   0  0  0  0  0  0  0  0  0  0  0  0
    2.7501   -1.6643  -12.7202 C   0  0  0  0  0  0  0  0  0  0  0  0
    3.6841   -2.1632   -7.8799 C   0  0  0  0  0  0  0  0  0  0  0  0
    4.4593   -1.8135   -6.7799 C   0  0  0  0  0  0  0  0  0  0  0  0
    4.2877   -2.4780   -5.6201 N   0  0  0  0  0  0  0  0  0  0  0  0
    5.4741   -2.7484   -2.0642 C   0  0  0  0  0  0  0  0  0  0  0  0
    4.9947   -3.6349   -1.1865 N   0  0  0  0  0  0  0  0  0  0  0  0
    3.4557   -7.5135   -0.9267 H   0  0  0  0  0  0  0  0  0  0  0  0
    5.0230   -6.6829   -0.9121 H   0  0  0  0  0  0  0  0  0  0  0  0
    4.2000   -6.9869   -2.4479 H   0  0  0  0  0  0  0  0  0  0  0  0
    3.1624   -5.1246   -0.2252 H   0  0  0  0  0  0  0  0  0  0  0  0
    2.3426   -5.4355   -1.7638 H   0  0  0  0  0  0  0  0  0  0  0  0
    3.2504   -4.3175   -3.8735 H   0  0  0  0  0  0  0  0  0  0  0  0
    6.6325   -0.7877   -3.8786 H   0  0  0  0  0  0  0  0  0  0  0  0
    6.2695    0.6580   -8.2298 H   0  0  0  0  0  0  0  0  0  0  0  0
    4.8979    0.0183  -10.1625 H   0  0  0  0  0  0  0  0  0  0  0  0
    1.0047   -1.9590  -10.7456 H   0  0  0  0  0  0  0  0  0  0  0  0
    1.3152   -2.1750   -9.0701 H   0  0  0  0  0  0  0  0  0  0  0  0
    1.9629   -4.2969  -11.2253 H   0  0  0  0  0  0  0  0  0  0  0  0
    0.4751   -4.2187  -10.2869 H   0  0  0  0  0  0  0  0  0  0  0  0
    3.1600   -4.7241   -9.2684 H   0  0  0  0  0  0  0  0  0  0  0  0
    1.9344   -5.7933   -9.3801 H   0  0  0  0  0  0  0  0  0  0  0  0
    5.5365   -2.5630  -11.0359 H   0  0  0  0  0  0  0  0  0  0  0  0
    8.5711   -3.1736  -12.9002 H   0  0  0  0  0  0  0  0  0  0  0  0
    7.2609   -3.8208  -11.9068 H   0  0  0  0  0  0  0  0  0  0  0  0
    7.7300   -2.0784  -11.7951 H   0  0  0  0  0  0  0  0  0  0  0  0
    5.0077   -2.0351  -15.2481 H   0  0  0  0  0  0  0  0  0  0  0  0
    1.8760   -1.3877  -16.9952 H   0  0  0  0  0  0  0  0  0  0  0  0
    3.2273   -2.4413  -16.5831 H   0  0  0  0  0  0  0  0  0  0  0  0
    3.4295   -0.6458  -16.5793 H   0  0  0  0  0  0  0  0  0  0  0  0
    1.7163   -1.3599  -12.5902 H   0  0  0  0  0  0  0  0  0  0  0  0
    2.9704   -2.9650   -7.7245 H   0  0  0  0  0  0  0  0  0  0  0  0
    6.2503   -2.0715   -1.7328 H   0  0  0  0  0  0  0  0  0  0  0  0
  1  2  1  0  0  0  0
  1 32  1  0  0  0  0
  1 33  1  0  0  0  0
  1 34  1  0  0  0  0
  2  3  1  0  0  0  0
  2 35  1  0  0  0  0
  2 36  1  0  0  0  0
  3  4  1  0  0  0  0
  3 31  1  0  0  0  0
  4  5  2  0  0  0  0
  4 37  1  0  0  0  0
  5  6  1  0  0  0  0
  5 30  1  0  0  0  0
  6  7  1  0  0  0  0
  6 29  2  0  0  0  0
  7  8  2  0  0  0  0
  7 38  1  0  0  0  0
  8  9  1  0  0  0  0
  9 10  1  0  0  0  0
  9 28  2  0  0  0  0
 10 11  2  0  0  0  0
 10 39  1  0  0  0  0
 11 12  1  0  0  0  0
 11 40  1  0  0  0  0
 12 13  1  0  0  0  0
 12 27  2  0  0  0  0
 13 14  1  0  0  0  0
 13 17  1  0  0  0  0
 14 15  1  0  0  0  0
 14 41  1  0  0  0  0
 14 42  1  0  0  0  0
 15 16  1  0  0  0  0
 15 43  1  0  0  0  0
 15 44  1  0  0  0  0
 16 45  1  0  0  0  0
 16 46  1  0  0  0  0
 17 18  1  0  0  0  0
 17 26  2  0  0  0  0
 18 19  2  0  0  0  0
 18 47  1  0  0  0  0
 19 20  1  0  0  0  0
 19 22  1  0  0  0  0
 20 21  1  0  0  0  0
 21 48  1  0  0  0  0
 21 49  1  0  0  0  0
 21 50  1  0  0  0  0
 22 23  2  0  0  0  0
 22 51  1  0  0  0  0
 23 24  1  0  0  0  0
 23 26  1  0  0  0  0
 24 25  1  0  0  0  0
 25 52  1  0  0  0  0
 25 53  1  0  0  0  0
 25 54  1  0  0  0  0
 26 55  1  0  0  0  0
 27 28  1  0  0  0  0
 27 56  1  0  0  0  0
 28 29  1  0  0  0  0
 30 31  2  0  0  0  0
 30 57  1  0  0  0  0
M  END
$$$$
