CHEMBL3676381
 OpenBabel04072215373D

 51 53  0  0  0  0  0  0  0  0999 V2000
    3.6350    3.8965   -1.1127 C   0  0  0  0  0  0  0  0  0  0  0  0
    3.5752    3.1148   -0.0284 C   0  0  0  0  0  0  0  0  0  0  0  0
    3.7173    1.6440   -0.1889 C   0  0  0  0  0  0  0  0  0  0  0  0
    3.3421    1.0557   -1.1974 O   0  0  0  0  0  0  0  0  0  0  0  0
    4.3269    0.9570    0.8331 N   0  0  0  0  0  0  0  0  0  0  0  0
    5.1370    1.5746    1.8027 C   0  0  0  0  0  0  0  0  0  0  0  0
    6.3135    2.1981    1.3806 C   0  0  0  0  0  0  0  0  0  0  0  0
    7.0407    3.0289    2.2623 C   0  0  0  0  0  0  0  0  0  0  0  0
    8.1599    3.7949    1.9066 C   0  0  0  0  0  0  0  0  0  0  0  0
    8.6006    3.8380    0.5557 N   0  0  0  0  0  0  0  0  0  0  0  0
    9.4686    4.8394    0.0506 C   0  0  0  0  0  0  0  0  0  0  0  0
    9.2616    6.1900    0.3617 C   0  0  0  0  0  0  0  0  0  0  0  0
   10.1712    7.1669   -0.0423 C   0  0  0  0  0  0  0  0  0  0  0  0
   11.2959    6.8083   -0.7891 C   0  0  0  0  0  0  0  0  0  0  0  0
   12.5180    8.1944   -1.2284 Br  0  0  0  0  0  0  0  0  0  0  0  0
   11.4893    5.4738   -1.1648 C   0  0  0  0  0  0  0  0  0  0  0  0
   12.8470    4.9703   -2.1099 Cl  0  0  0  0  0  0  0  0  0  0  0  0
   10.5682    4.5050   -0.7494 C   0  0  0  0  0  0  0  0  0  0  0  0
   10.7445    3.2145   -1.0848 F   0  0  0  0  0  0  0  0  0  0  0  0
    8.7996    4.5715    2.8025 N   0  0  0  0  0  0  0  0  0  0  0  0
    8.3132    4.6015    4.0428 C   0  0  0  0  0  0  0  0  0  0  0  0
    7.2303    3.9518    4.4718 N   0  0  0  0  0  0  0  0  0  0  0  0
    6.5975    3.1787    3.5858 C   0  0  0  0  0  0  0  0  0  0  0  0
    5.4433    2.5212    3.9913 C   0  0  0  0  0  0  0  0  0  0  0  0
    4.7143    1.6956    3.1312 C   0  0  0  0  0  0  0  0  0  0  0  0
    3.5985    1.1265    3.6933 O   0  0  0  0  0  0  0  0  0  0  0  0
    3.2572   -0.1712    3.1956 C   0  0  0  0  0  0  0  0  0  0  0  0
    2.6217   -1.0184    4.2992 C   0  0  0  0  0  0  0  0  0  0  0  0
    2.3483   -2.3684    3.8458 N   0  0  0  0  0  0  0  0  0  0  0  0
    3.3267   -3.3143    3.7667 C   0  0  0  0  0  0  0  0  0  0  0  0
    4.4784   -3.1656    4.1458 O   0  0  0  0  0  0  0  0  0  0  0  0
    2.8315   -4.4279    3.1759 O   0  0  0  0  0  0  0  0  0  0  0  0
    3.7810   -5.4902    3.0636 C   0  0  0  0  0  0  0  0  0  0  0  0
    3.5975    4.9762   -1.0236 H   0  0  0  0  0  0  0  0  0  0  0  0
    3.7436    3.4733   -2.1077 H   0  0  0  0  0  0  0  0  0  0  0  0
    3.4851    3.5321    0.9669 H   0  0  0  0  0  0  0  0  0  0  0  0
    4.6423    0.0543    0.4922 H   0  0  0  0  0  0  0  0  0  0  0  0
    6.6314    2.0917    0.3458 H   0  0  0  0  0  0  0  0  0  0  0  0
    8.8627    2.9090    0.2330 H   0  0  0  0  0  0  0  0  0  0  0  0
    8.3986    6.4851    0.9560 H   0  0  0  0  0  0  0  0  0  0  0  0
    9.9999    8.1996    0.2537 H   0  0  0  0  0  0  0  0  0  0  0  0
    8.8403    5.2187    4.7618 H   0  0  0  0  0  0  0  0  0  0  0  0
    5.0900    2.6700    5.0106 H   0  0  0  0  0  0  0  0  0  0  0  0
    4.1410   -0.7030    2.8239 H   0  0  0  0  0  0  0  0  0  0  0  0
    2.5317   -0.0563    2.3818 H   0  0  0  0  0  0  0  0  0  0  0  0
    1.6785   -0.5752    4.6351 H   0  0  0  0  0  0  0  0  0  0  0  0
    3.2892   -1.0602    5.1677 H   0  0  0  0  0  0  0  0  0  0  0  0
    1.4759   -2.5931    3.3871 H   0  0  0  0  0  0  0  0  0  0  0  0
    3.3062   -6.3170    2.5281 H   0  0  0  0  0  0  0  0  0  0  0  0
    4.0717   -5.8431    4.0580 H   0  0  0  0  0  0  0  0  0  0  0  0
    4.6601   -5.1712    2.4938 H   0  0  0  0  0  0  0  0  0  0  0  0
  1  2  2  0  0  0  0
  1 34  1  0  0  0  0
  1 35  1  0  0  0  0
  2  3  1  0  0  0  0
  2 36  1  0  0  0  0
  3  4  2  0  0  0  0
  3  5  1  0  0  0  0
  5  6  1  0  0  0  0
  5 37  1  0  0  0  0
  6  7  1  0  0  0  0
  6 25  2  0  0  0  0
  7  8  2  0  0  0  0
  7 38  1  0  0  0  0
  8  9  1  0  0  0  0
  8 23  1  0  0  0  0
  9 10  1  0  0  0  0
  9 20  2  0  0  0  0
 10 11  1  0  0  0  0
 10 39  1  0  0  0  0
 11 12  1  0  0  0  0
 11 18  2  0  0  0  0
 12 13  2  0  0  0  0
 12 40  1  0  0  0  0
 13 14  1  0  0  0  0
 13 41  1  0  0  0  0
 14 15  1  0  0  0  0
 14 16  2  0  0  0  0
 16 17  1  0  0  0  0
 16 18  1  0  0  0  0
 18 19  1  0  0  0  0
 20 21  1  0  0  0  0
 21 22  2  0  0  0  0
 21 42  1  0  0  0  0
 22 23  1  0  0  0  0
 23 24  2  0  0  0  0
 24 25  1  0  0  0  0
 24 43  1  0  0  0  0
 25 26  1  0  0  0  0
 26 27  1  0  0  0  0
 27 28  1  0  0  0  0
 27 44  1  0  0  0  0
 27 45  1  0  0  0  0
 28 29  1  0  0  0  0
 28 46  1  0  0  0  0
 28 47  1  0  0  0  0
 29 30  1  0  0  0  0
 29 48  1  0  0  0  0
 30 31  2  0  0  0  0
 30 32  1  0  0  0  0
 32 33  1  0  0  0  0
 33 49  1  0  0  0  0
 33 50  1  0  0  0  0
 33 51  1  0  0  0  0
M  END
$$$$
