CHEMBL3908272
 OpenBabel04072215373D

 41 44  0  0  0  0  0  0  0  0999 V2000
    3.2623    0.6686    0.9157 O   0  0  0  0  0  0  0  0  0  0  0  0
    2.4887   -0.0711   -0.0570 S   0  0  0  0  0  0  0  0  0  0  0  0
    2.4941   -1.5228   -0.0647 O   0  0  0  0  0  0  0  0  0  0  0  0
    0.8647    0.3553   -0.0364 N   0  0  0  0  0  0  0  0  0  0  0  0
    0.5830    1.4103    0.8296 C   0  0  0  0  0  0  0  0  0  0  0  0
    0.7095    2.6525    0.3548 N   0  0  0  0  0  0  0  0  0  0  0  0
    0.4889    3.6324    1.2498 C   0  0  0  0  0  0  0  0  0  0  0  0
    0.1725    3.3956    2.5683 C   0  0  0  0  0  0  0  0  0  0  0  0
    0.0734    2.0709    2.9299 C   0  0  0  0  0  0  0  0  0  0  0  0
    0.2546    1.0492    2.0724 N   0  0  0  0  0  0  0  0  0  0  0  0
    3.0254    0.4489   -1.6680 C   0  0  0  0  0  0  0  0  0  0  0  0
    2.9775    1.7989   -1.9880 C   0  0  0  0  0  0  0  0  0  0  0  0
    3.4351    2.2312   -3.2332 C   0  0  0  0  0  0  0  0  0  0  0  0
    3.9205    1.3359   -4.1960 C   0  0  0  0  0  0  0  0  0  0  0  0
    4.4759    1.7556   -5.4264 N   0  0  0  0  0  0  0  0  0  0  0  0
    4.4784    3.0460   -6.0141 C   0  0  0  0  0  0  0  0  0  0  0  0
    3.6587    4.0086   -5.5299 N   0  0  0  0  0  0  0  0  0  0  0  0
    3.7410    5.3032   -5.9358 N   0  0  0  0  0  0  0  0  0  0  0  0
    4.6405    5.6269   -6.8746 C   0  0  0  0  0  0  0  0  0  0  0  0
    5.4617    4.6933   -7.4849 C   0  0  0  0  0  0  0  0  0  0  0  0
    6.3392    5.0700   -8.5145 C   0  0  0  0  0  0  0  0  0  0  0  0
    7.1685    4.1288   -9.1195 C   0  0  0  0  0  0  0  0  0  0  0  0
    7.1512    2.8105   -8.6802 C   0  0  0  0  0  0  0  0  0  0  0  0
    6.2878    2.4263   -7.6494 C   0  0  0  0  0  0  0  0  0  0  0  0
    5.4020    3.3532   -7.0435 C   0  0  0  0  0  0  0  0  0  0  0  0
    4.0004   -0.0194   -3.8335 C   0  0  0  0  0  0  0  0  0  0  0  0
    3.5529   -0.4666   -2.5804 C   0  0  0  0  0  0  0  0  0  0  0  0
    0.3308   -0.4654    0.2322 H   0  0  0  0  0  0  0  0  0  0  0  0
    0.5782    4.6444    0.8649 H   0  0  0  0  0  0  0  0  0  0  0  0
    0.0218    4.1999    3.2760 H   0  0  0  0  0  0  0  0  0  0  0  0
   -0.1550    1.7853    3.9533 H   0  0  0  0  0  0  0  0  0  0  0  0
    2.6110    2.5366   -1.2809 H   0  0  0  0  0  0  0  0  0  0  0  0
    3.3970    3.2999   -3.4138 H   0  0  0  0  0  0  0  0  0  0  0  0
    4.4563    1.0271   -6.1324 H   0  0  0  0  0  0  0  0  0  0  0  0
    4.6797    6.6828   -7.1156 H   0  0  0  0  0  0  0  0  0  0  0  0
    6.3763    6.1025   -8.8571 H   0  0  0  0  0  0  0  0  0  0  0  0
    7.8306    4.4287   -9.9275 H   0  0  0  0  0  0  0  0  0  0  0  0
    7.8129    2.0783   -9.1372 H   0  0  0  0  0  0  0  0  0  0  0  0
    6.3170    1.3904   -7.3205 H   0  0  0  0  0  0  0  0  0  0  0  0
    4.4401   -0.7438   -4.5151 H   0  0  0  0  0  0  0  0  0  0  0  0
    3.6473   -1.5188   -2.3209 H   0  0  0  0  0  0  0  0  0  0  0  0
  1  2  2  0  0  0  0
  2  3  2  0  0  0  0
  2  4  1  0  0  0  0
  2 11  1  0  0  0  0
  4  5  1  0  0  0  0
  4 28  1  0  0  0  0
  5  6  1  0  0  0  0
  5 10  2  0  0  0  0
  6  7  2  0  0  0  0
  7  8  1  0  0  0  0
  7 29  1  0  0  0  0
  8  9  2  0  0  0  0
  8 30  1  0  0  0  0
  9 10  1  0  0  0  0
  9 31  1  0  0  0  0
 11 12  1  0  0  0  0
 11 27  2  0  0  0  0
 12 13  2  0  0  0  0
 12 32  1  0  0  0  0
 13 14  1  0  0  0  0
 13 33  1  0  0  0  0
 14 15  1  0  0  0  0
 14 26  2  0  0  0  0
 15 16  1  0  0  0  0
 15 34  1  0  0  0  0
 16 17  1  0  0  0  0
 16 25  2  0  0  0  0
 17 18  2  0  0  0  0
 18 19  1  0  0  0  0
 19 20  2  0  0  0  0
 19 35  1  0  0  0  0
 20 21  1  0  0  0  0
 20 25  1  0  0  0  0
 21 22  2  0  0  0  0
 21 36  1  0  0  0  0
 22 23  1  0  0  0  0
 22 37  1  0  0  0  0
 23 24  2  0  0  0  0
 23 38  1  0  0  0  0
 24 25  1  0  0  0  0
 24 39  1  0  0  0  0
 26 27  1  0  0  0  0
 26 40  1  0  0  0  0
 27 41  1  0  0  0  0
M  END
$$$$
