CHEMBL3125892
 OpenBabel04072215363D

 62 66  0  0  0  0  0  0  0  0999 V2000
   -1.2607    1.4763    0.2214 C   0  0  0  0  0  0  0  0  0  0  0  0
   -1.1372    0.0485   -0.3599 C   0  0  0  0  0  0  0  0  0  0  0  0
   -2.3329   -0.7648    0.1842 C   0  0  0  0  0  0  0  0  0  0  0  0
    0.1226   -0.5393    0.1704 C   0  0  0  0  0  0  0  0  0  0  0  0
    1.0929   -1.0097    0.6021 N   0  0  0  0  0  0  0  0  0  0  0  0
   -1.1594   -0.0033   -1.9009 C   0  0  0  0  0  0  0  0  0  0  0  0
   -1.0227   -1.2300   -2.5807 C   0  0  0  0  0  0  0  0  0  0  0  0
   -1.0785   -1.3020   -3.9792 C   0  0  0  0  0  0  0  0  0  0  0  0
   -1.2904   -0.1526   -4.7406 C   0  0  0  0  0  0  0  0  0  0  0  0
   -1.4329    1.0729   -4.0938 C   0  0  0  0  0  0  0  0  0  0  0  0
   -1.6495    2.3468   -4.8281 C   0  0  0  0  0  0  0  0  0  0  0  0
   -1.1134    3.3472   -4.3617 O   0  0  0  0  0  0  0  0  0  0  0  0
   -2.5145    2.2990   -5.9174 N   0  0  0  0  0  0  0  0  0  0  0  0
   -2.9542    3.4353   -6.6497 C   0  0  0  0  0  0  0  0  0  0  0  0
   -2.2991    4.6673   -6.5604 C   0  0  0  0  0  0  0  0  0  0  0  0
   -2.8333    5.8071   -7.1520 C   0  0  0  0  0  0  0  0  0  0  0  0
   -4.0179    5.7207   -7.8700 C   0  0  0  0  0  0  0  0  0  0  0  0
   -4.6023    4.4710   -8.1169 C   0  0  0  0  0  0  0  0  0  0  0  0
   -5.6764    4.3113   -8.9914 O   0  0  0  0  0  0  0  0  0  0  0  0
   -5.7249    5.1450  -10.1096 C   0  0  0  0  0  0  0  0  0  0  0  0
   -4.5445    5.5405  -10.7352 C   0  0  0  0  0  0  0  0  0  0  0  0
   -4.5423    6.5712  -11.6664 C   0  0  0  0  0  0  0  0  0  0  0  0
   -5.7532    7.1290  -12.0989 C   0  0  0  0  0  0  0  0  0  0  0  0
   -5.8350    8.1415  -13.0239 N   0  0  0  0  0  0  0  0  0  0  0  0
   -7.0889    8.3980  -13.2950 C   0  0  0  0  0  0  0  0  0  0  0  0
   -7.3629    9.3489  -14.2480 N   0  0  0  0  0  0  0  0  0  0  0  0
   -8.5822    9.7767  -14.6857 C   0  0  0  0  0  0  0  0  0  0  0  0
   -9.6716    9.4140  -14.2676 O   0  0  0  0  0  0  0  0  0  0  0  0
   -8.5482   10.7986  -15.7822 C   0  0  0  0  0  0  0  0  0  0  0  0
   -7.4167   10.9698  -16.7741 C   0  0  0  0  0  0  0  0  0  0  0  0
   -7.6405   12.0085  -15.7134 C   0  0  0  0  0  0  0  0  0  0  0  0
   -8.2356    7.4721  -12.4495 S   0  0  0  0  0  0  0  0  0  0  0  0
   -6.9656    6.6337  -11.6005 C   0  0  0  0  0  0  0  0  0  0  0  0
   -6.9595    5.6296  -10.6018 C   0  0  0  0  0  0  0  0  0  0  0  0
   -8.1784    5.0544  -10.0755 N   0  3  0  0  0  0  0  0  0  0  0  0
   -8.3375    3.8320  -10.2187 O   0  0  0  0  0  0  0  0  0  0  0  0
   -8.9835    5.8270   -9.5404 O   0  5  0  0  0  0  0  0  0  0  0  0
   -4.0900    3.3321   -7.4741 C   0  0  0  0  0  0  0  0  0  0  0  0
   -1.3416    1.1444   -2.6905 C   0  0  0  0  0  0  0  0  0  0  0  0
   -1.2802    1.4607    1.3186 H   0  0  0  0  0  0  0  0  0  0  0  0
   -2.1841    1.9686   -0.1066 H   0  0  0  0  0  0  0  0  0  0  0  0
   -0.4134    2.1084   -0.0718 H   0  0  0  0  0  0  0  0  0  0  0  0
   -2.3980   -0.6950    1.2773 H   0  0  0  0  0  0  0  0  0  0  0  0
   -2.2537   -1.8312   -0.0582 H   0  0  0  0  0  0  0  0  0  0  0  0
   -3.2808   -0.4002   -0.2294 H   0  0  0  0  0  0  0  0  0  0  0  0
   -0.8601   -2.1549   -2.0267 H   0  0  0  0  0  0  0  0  0  0  0  0
   -0.9482   -2.2635   -4.4719 H   0  0  0  0  0  0  0  0  0  0  0  0
   -1.3040   -0.2225   -5.8242 H   0  0  0  0  0  0  0  0  0  0  0  0
   -3.0199    1.4363   -6.0744 H   0  0  0  0  0  0  0  0  0  0  0  0
   -1.3638    4.7803   -6.0207 H   0  0  0  0  0  0  0  0  0  0  0  0
   -2.3194    6.7588   -7.0492 H   0  0  0  0  0  0  0  0  0  0  0  0
   -4.4307    6.6344   -8.2883 H   0  0  0  0  0  0  0  0  0  0  0  0
   -3.5858    5.1112  -10.4480 H   0  0  0  0  0  0  0  0  0  0  0  0
   -3.6061    6.9572  -12.0578 H   0  0  0  0  0  0  0  0  0  0  0  0
   -6.5285    9.7556  -14.6411 H   0  0  0  0  0  0  0  0  0  0  0  0
   -9.5405   10.9739  -16.1946 H   0  0  0  0  0  0  0  0  0  0  0  0
   -7.6761   11.2373  -17.7953 H   0  0  0  0  0  0  0  0  0  0  0  0
   -6.5282   10.3546  -16.7156 H   0  0  0  0  0  0  0  0  0  0  0  0
   -8.0578   12.9642  -16.0157 H   0  0  0  0  0  0  0  0  0  0  0  0
   -6.9111   12.0902  -14.9164 H   0  0  0  0  0  0  0  0  0  0  0  0
   -4.5927    2.3795   -7.6111 H   0  0  0  0  0  0  0  0  0  0  0  0
   -1.4252    2.1299   -2.2352 H   0  0  0  0  0  0  0  0  0  0  0  0
  1  2  1  0  0  0  0
  1 40  1  0  0  0  0
  1 41  1  0  0  0  0
  1 42  1  0  0  0  0
  2  3  1  0  0  0  0
  2  4  1  0  0  0  0
  2  6  1  0  0  0  0
  3 43  1  0  0  0  0
  3 44  1  0  0  0  0
  3 45  1  0  0  0  0
  4  5  3  0  0  0  0
  6  7  1  0  0  0  0
  6 39  2  0  0  0  0
  7  8  2  0  0  0  0
  7 46  1  0  0  0  0
  8  9  1  0  0  0  0
  8 47  1  0  0  0  0
  9 10  2  0  0  0  0
  9 48  1  0  0  0  0
 10 11  1  0  0  0  0
 10 39  1  0  0  0  0
 11 12  2  0  0  0  0
 11 13  1  0  0  0  0
 13 14  1  0  0  0  0
 13 49  1  0  0  0  0
 14 15  1  0  0  0  0
 14 38  2  0  0  0  0
 15 16  2  0  0  0  0
 15 50  1  0  0  0  0
 16 17  1  0  0  0  0
 16 51  1  0  0  0  0
 17 18  2  0  0  0  0
 17 52  1  0  0  0  0
 18 19  1  0  0  0  0
 18 38  1  0  0  0  0
 19 20  1  0  0  0  0
 20 21  1  0  0  0  0
 20 34  2  0  0  0  0
 21 22  2  0  0  0  0
 21 53  1  0  0  0  0
 22 23  1  0  0  0  0
 22 54  1  0  0  0  0
 23 24  1  0  0  0  0
 23 33  2  0  0  0  0
 24 25  2  0  0  0  0
 25 26  1  0  0  0  0
 25 32  1  0  0  0  0
 26 27  1  0  0  0  0
 26 55  1  0  0  0  0
 27 28  2  0  0  0  0
 27 29  1  0  0  0  0
 29 30  1  0  0  0  0
 29 31  1  0  0  0  0
 29 56  1  0  0  0  0
 30 31  1  0  0  0  0
 30 57  1  0  0  0  0
 30 58  1  0  0  0  0
 31 59  1  0  0  0  0
 31 60  1  0  0  0  0
 32 33  1  0  0  0  0
 33 34  1  0  0  0  0
 34 35  1  0  0  0  0
 35 36  2  0  0  0  0
 35 37  1  0  0  0  0
 38 61  1  0  0  0  0
 39 62  1  0  0  0  0
M  CHG  2  35   1  37  -1
M  END
$$$$
