CHEMBL1994321
 OpenBabel04072215363D

 58 61  0  0  0  0  0  0  0  0999 V2000
    2.3783   -0.4108    1.5504 C   0  0  0  0  0  0  0  0  0  0  0  0
    0.8806   -0.3091    1.5151 C   0  0  0  0  0  0  0  0  0  0  0  0
    0.2636    0.8810    1.9293 C   0  0  0  0  0  0  0  0  0  0  0  0
   -1.1150    0.9915    1.9071 C   0  0  0  0  0  0  0  0  0  0  0  0
   -1.8953   -0.0775    1.4751 C   0  0  0  0  0  0  0  0  0  0  0  0
   -1.3183   -1.2756    1.0349 C   0  0  0  0  0  0  0  0  0  0  0  0
   -2.0865   -2.3813    0.5783 N   0  0  0  0  0  0  0  0  0  0  0  0
   -3.4653   -2.3943    0.4228 C   0  0  0  0  0  0  0  0  0  0  0  0
   -4.2078   -1.4316    0.6085 O   0  0  0  0  0  0  0  0  0  0  0  0
   -3.9570   -3.6459    0.0643 N   0  0  0  0  0  0  0  0  0  0  0  0
   -5.3550   -3.8129   -0.1332 C   0  0  0  0  0  0  0  0  0  0  0  0
   -6.0887   -2.9073   -0.9012 C   0  0  0  0  0  0  0  0  0  0  0  0
   -7.4862   -2.9811   -0.9491 C   0  0  0  0  0  0  0  0  0  0  0  0
   -8.1858   -3.9835   -0.2572 C   0  0  0  0  0  0  0  0  0  0  0  0
   -9.6657   -3.9865   -0.2351 C   0  0  0  0  0  0  0  0  0  0  0  0
  -10.3463   -3.6070   -1.3777 C   0  0  0  0  0  0  0  0  0  0  0  0
  -12.0301   -3.6085   -1.2056 S   0  0  0  0  0  0  0  0  0  0  0  0
  -11.9462   -4.1408    0.4321 C   0  0  0  0  0  0  0  0  0  0  0  0
  -13.0319   -4.3881    1.2941 C   0  0  0  0  0  0  0  0  0  0  0  0
  -14.3896   -4.2123    0.8731 C   0  0  0  0  0  0  0  0  0  0  0  0
  -15.6290   -4.0747    0.4924 C   0  0  0  0  0  0  0  0  0  0  0  0
  -17.0739   -3.9144    0.0486 C   0  0  0  0  0  0  0  0  0  0  0  0
  -17.2261   -4.0978   -1.3902 N   0  0  0  0  0  0  0  0  0  0  0  0
  -18.8135   -4.0235   -1.9455 S   0  0  0  0  0  0  0  0  0  0  0  0
  -19.1707   -2.2769   -1.8193 C   0  0  0  0  0  0  0  0  0  0  0  0
  -18.7737   -4.3802   -3.3455 O   0  0  0  0  0  0  0  0  0  0  0  0
  -19.6433   -4.7346   -1.0029 O   0  0  0  0  0  0  0  0  0  0  0  0
  -12.7190   -4.8146    2.5644 C   0  0  0  0  0  0  0  0  0  0  0  0
  -11.4647   -4.9803    3.0148 N   0  0  0  0  0  0  0  0  0  0  0  0
  -10.4116   -4.7253    2.2071 C   0  0  0  0  0  0  0  0  0  0  0  0
   -9.1821   -4.8874    2.8325 N   0  0  0  0  0  0  0  0  0  0  0  0
  -10.6079   -4.3081    0.8560 C   0  0  0  0  0  0  0  0  0  0  0  0
   -7.4254   -4.9555    0.4070 C   0  0  0  0  0  0  0  0  0  0  0  0
   -6.0243   -4.8627    0.4911 C   0  0  0  0  0  0  0  0  0  0  0  0
    0.0839   -1.3838    1.0683 C   0  0  0  0  0  0  0  0  0  0  0  0
    2.8283    0.5075    1.9469 H   0  0  0  0  0  0  0  0  0  0  0  0
    2.7738   -0.5632    0.5424 H   0  0  0  0  0  0  0  0  0  0  0  0
    2.6887   -1.2346    2.1992 H   0  0  0  0  0  0  0  0  0  0  0  0
    0.8580    1.7191    2.2830 H   0  0  0  0  0  0  0  0  0  0  0  0
   -1.5978    1.9104    2.2323 H   0  0  0  0  0  0  0  0  0  0  0  0
   -2.9674    0.0778    1.4791 H   0  0  0  0  0  0  0  0  0  0  0  0
   -1.5772   -3.1828    0.2394 H   0  0  0  0  0  0  0  0  0  0  0  0
   -3.4696   -4.4224    0.4870 H   0  0  0  0  0  0  0  0  0  0  0  0
   -5.5857   -2.1071   -1.4410 H   0  0  0  0  0  0  0  0  0  0  0  0
   -8.0098   -2.2147   -1.5162 H   0  0  0  0  0  0  0  0  0  0  0  0
   -9.9334   -3.3142   -2.3338 H   0  0  0  0  0  0  0  0  0  0  0  0
  -17.3983   -2.9124    0.3436 H   0  0  0  0  0  0  0  0  0  0  0  0
  -17.6624   -4.6548    0.6004 H   0  0  0  0  0  0  0  0  0  0  0  0
  -16.7611   -4.9266   -1.7614 H   0  0  0  0  0  0  0  0  0  0  0  0
  -18.4562   -1.7195   -2.4246 H   0  0  0  0  0  0  0  0  0  0  0  0
  -19.1155   -1.9730   -0.7680 H   0  0  0  0  0  0  0  0  0  0  0  0
  -20.1867   -2.1146   -2.1808 H   0  0  0  0  0  0  0  0  0  0  0  0
  -13.4961   -5.0380    3.2905 H   0  0  0  0  0  0  0  0  0  0  0  0
   -9.3318   -4.9901    3.8309 H   0  0  0  0  0  0  0  0  0  0  0  0
   -8.5047   -4.1800    2.5758 H   0  0  0  0  0  0  0  0  0  0  0  0
   -7.9126   -5.7866    0.9121 H   0  0  0  0  0  0  0  0  0  0  0  0
   -5.4892   -5.5742    1.1131 H   0  0  0  0  0  0  0  0  0  0  0  0
    0.5726   -2.2968    0.7386 H   0  0  0  0  0  0  0  0  0  0  0  0
  1  2  1  0  0  0  0
  1 36  1  0  0  0  0
  1 37  1  0  0  0  0
  1 38  1  0  0  0  0
  2  3  1  0  0  0  0
  2 35  2  0  0  0  0
  3  4  2  0  0  0  0
  3 39  1  0  0  0  0
  4  5  1  0  0  0  0
  4 40  1  0  0  0  0
  5  6  2  0  0  0  0
  5 41  1  0  0  0  0
  6  7  1  0  0  0  0
  6 35  1  0  0  0  0
  7  8  1  0  0  0  0
  7 42  1  0  0  0  0
  8  9  2  0  0  0  0
  8 10  1  0  0  0  0
 10 11  1  0  0  0  0
 10 43  1  0  0  0  0
 11 12  1  0  0  0  0
 11 34  2  0  0  0  0
 12 13  2  0  0  0  0
 12 44  1  0  0  0  0
 13 14  1  0  0  0  0
 13 45  1  0  0  0  0
 14 15  1  0  0  0  0
 14 33  2  0  0  0  0
 15 16  2  0  0  0  0
 15 32  1  0  0  0  0
 16 17  1  0  0  0  0
 16 46  1  0  0  0  0
 17 18  1  0  0  0  0
 18 19  1  0  0  0  0
 18 32  2  0  0  0  0
 19 20  1  0  0  0  0
 19 28  2  0  0  0  0
 20 21  3  0  0  0  0
 21 22  1  0  0  0  0
 22 23  1  0  0  0  0
 22 47  1  0  0  0  0
 22 48  1  0  0  0  0
 23 24  1  0  0  0  0
 23 49  1  0  0  0  0
 24 25  1  0  0  0  0
 24 26  2  0  0  0  0
 24 27  2  0  0  0  0
 25 50  1  0  0  0  0
 25 51  1  0  0  0  0
 25 52  1  0  0  0  0
 28 29  1  0  0  0  0
 28 53  1  0  0  0  0
 29 30  2  0  0  0  0
 30 31  1  0  0  0  0
 30 32  1  0  0  0  0
 31 54  1  0  0  0  0
 31 55  1  0  0  0  0
 33 34  1  0  0  0  0
 33 56  1  0  0  0  0
 34 57  1  0  0  0  0
 35 58  1  0  0  0  0
M  END
$$$$
