CHEMBL3901682
 OpenBabel04072215373D

 63 66  0  0  0  0  0  0  0  0999 V2000
    2.1692   -0.5388    2.3614 C   0  0  0  0  0  0  0  0  0  0  0  0
    3.2728   -0.2082    1.5220 O   0  0  0  0  0  0  0  0  0  0  0  0
    3.5032    1.1246    1.3045 C   0  0  0  0  0  0  0  0  0  0  0  0
    2.6309    2.1517    1.6353 C   0  0  0  0  0  0  0  0  0  0  0  0
    2.9753    3.4694    1.3357 C   0  0  0  0  0  0  0  0  0  0  0  0
    4.1988    3.7801    0.7146 C   0  0  0  0  0  0  0  0  0  0  0  0
    4.5187    5.0607    0.3152 O   0  0  0  0  0  0  0  0  0  0  0  0
    3.4843    6.0388    0.3994 C   0  0  0  0  0  0  0  0  0  0  0  0
    5.1358    2.7536    0.4141 C   0  0  0  0  0  0  0  0  0  0  0  0
    6.3794    3.0520   -0.2090 N   0  0  0  0  0  0  0  0  0  0  0  0
    6.9400    2.0611   -1.2042 C   0  0  0  0  0  0  0  0  0  0  0  0
    6.1070    1.7566   -2.4809 C   0  0  0  0  0  0  0  0  0  0  0  0
    5.8410    2.8007   -3.4912 N   0  0  0  0  0  0  0  0  0  0  0  0
    6.9744    3.3979   -4.2057 C   0  0  0  0  0  0  0  0  0  0  0  0
    7.9359    2.4130   -4.8807 C   0  0  0  0  0  0  0  0  0  0  0  0
    6.4055    4.3242   -5.2942 C   0  0  0  0  0  0  0  0  0  0  0  0
    7.5137    3.7213    0.4001 C   0  0  0  0  0  0  0  0  0  0  0  0
    8.2604    4.4911   -0.4846 C   0  0  0  0  0  0  0  0  0  0  0  0
    9.6129    4.6612   -0.2769 C   0  0  0  0  0  0  0  0  0  0  0  0
   10.2242    4.2594    0.8832 C   0  0  0  0  0  0  0  0  0  0  0  0
   11.5566    4.3225    0.8554 N   0  0  0  0  0  0  0  0  0  0  0  0
   12.1796    4.1510    2.0275 C   0  0  0  0  0  0  0  0  0  0  0  0
   11.4959    4.0096    3.2133 C   0  0  0  0  0  0  0  0  0  0  0  0
   12.2549    4.3386    4.4133 C   0  0  0  0  0  0  0  0  0  0  0  0
   12.2700    5.5505    5.1512 C   0  0  0  0  0  0  0  0  0  0  0  0
   13.2824    5.6191    6.0248 N   0  0  0  0  0  0  0  0  0  0  0  0
   13.9269    4.4540    5.8507 N   0  0  0  0  0  0  0  0  0  0  0  0
   14.9633    4.0468    6.7700 C   0  0  0  0  0  0  0  0  0  0  0  0
   13.4365    3.7245    4.8018 C   0  0  0  0  0  0  0  0  0  0  0  0
   10.1341    3.7978    3.2238 N   0  0  0  0  0  0  0  0  0  0  0  0
    9.4603    3.8484    2.0017 C   0  0  0  0  0  0  0  0  0  0  0  0
    8.0818    3.5079    1.6845 C   0  0  0  0  0  0  0  0  0  0  0  0
    4.7296    1.4298    0.6921 C   0  0  0  0  0  0  0  0  0  0  0  0
    2.2080   -1.6139    2.5627 H   0  0  0  0  0  0  0  0  0  0  0  0
    1.2179   -0.3260    1.8622 H   0  0  0  0  0  0  0  0  0  0  0  0
    2.2318   -0.0191    3.3243 H   0  0  0  0  0  0  0  0  0  0  0  0
    1.6676    1.9675    2.1026 H   0  0  0  0  0  0  0  0  0  0  0  0
    2.2484    4.2333    1.5890 H   0  0  0  0  0  0  0  0  0  0  0  0
    3.8554    6.9684   -0.0405 H   0  0  0  0  0  0  0  0  0  0  0  0
    3.2303    6.2492    1.4438 H   0  0  0  0  0  0  0  0  0  0  0  0
    2.5937    5.7412   -0.1691 H   0  0  0  0  0  0  0  0  0  0  0  0
    7.1576    1.1187   -0.6854 H   0  0  0  0  0  0  0  0  0  0  0  0
    7.9167    2.3831   -1.5860 H   0  0  0  0  0  0  0  0  0  0  0  0
    5.1356    1.3518   -2.1835 H   0  0  0  0  0  0  0  0  0  0  0  0
    6.6086    0.9246   -2.9934 H   0  0  0  0  0  0  0  0  0  0  0  0
    5.2832    3.5334   -3.0511 H   0  0  0  0  0  0  0  0  0  0  0  0
    7.5500    4.0155   -3.5132 H   0  0  0  0  0  0  0  0  0  0  0  0
    7.4177    1.7587   -5.5899 H   0  0  0  0  0  0  0  0  0  0  0  0
    8.4597    1.7921   -4.1494 H   0  0  0  0  0  0  0  0  0  0  0  0
    8.7051    2.9581   -5.4445 H   0  0  0  0  0  0  0  0  0  0  0  0
    5.8614    3.7599   -6.0621 H   0  0  0  0  0  0  0  0  0  0  0  0
    7.2106    4.8718   -5.7991 H   0  0  0  0  0  0  0  0  0  0  0  0
    5.7213    5.0677   -4.8729 H   0  0  0  0  0  0  0  0  0  0  0  0
    7.8229    4.8071   -1.4247 H   0  0  0  0  0  0  0  0  0  0  0  0
   10.2196    5.0829   -1.0702 H   0  0  0  0  0  0  0  0  0  0  0  0
   13.2583    4.2252    1.9789 H   0  0  0  0  0  0  0  0  0  0  0  0
   11.6169    6.4085    5.0530 H   0  0  0  0  0  0  0  0  0  0  0  0
   15.0727    4.7942    7.5606 H   0  0  0  0  0  0  0  0  0  0  0  0
   15.9055    3.9280    6.2298 H   0  0  0  0  0  0  0  0  0  0  0  0
   14.6530    3.0952    7.2097 H   0  0  0  0  0  0  0  0  0  0  0  0
   13.9592    2.8504    4.4365 H   0  0  0  0  0  0  0  0  0  0  0  0
    7.4819    3.0141    2.4604 H   0  0  0  0  0  0  0  0  0  0  0  0
    5.3714    0.5929    0.4385 H   0  0  0  0  0  0  0  0  0  0  0  0
  1  2  1  0  0  0  0
  1 34  1  0  0  0  0
  1 35  1  0  0  0  0
  1 36  1  0  0  0  0
  2  3  1  0  0  0  0
  3  4  1  0  0  0  0
  3 33  2  0  0  0  0
  4  5  2  0  0  0  0
  4 37  1  0  0  0  0
  5  6  1  0  0  0  0
  5 38  1  0  0  0  0
  6  7  1  0  0  0  0
  6  9  2  0  0  0  0
  7  8  1  0  0  0  0
  8 39  1  0  0  0  0
  8 40  1  0  0  0  0
  8 41  1  0  0  0  0
  9 10  1  0  0  0  0
  9 33  1  0  0  0  0
 10 11  1  0  0  0  0
 10 17  1  0  0  0  0
 11 12  1  0  0  0  0
 11 42  1  0  0  0  0
 11 43  1  0  0  0  0
 12 13  1  0  0  0  0
 12 44  1  0  0  0  0
 12 45  1  0  0  0  0
 13 14  1  0  0  0  0
 13 46  1  0  0  0  0
 14 15  1  0  0  0  0
 14 16  1  0  0  0  0
 14 47  1  0  0  0  0
 15 48  1  0  0  0  0
 15 49  1  0  0  0  0
 15 50  1  0  0  0  0
 16 51  1  0  0  0  0
 16 52  1  0  0  0  0
 16 53  1  0  0  0  0
 17 18  1  0  0  0  0
 17 32  2  0  0  0  0
 18 19  2  0  0  0  0
 18 54  1  0  0  0  0
 19 20  1  0  0  0  0
 19 55  1  0  0  0  0
 20 21  1  0  0  0  0
 20 31  2  0  0  0  0
 21 22  2  0  0  0  0
 22 23  1  0  0  0  0
 22 56  1  0  0  0  0
 23 24  1  0  0  0  0
 23 30  2  0  0  0  0
 24 25  1  0  0  0  0
 24 29  2  0  0  0  0
 25 26  2  0  0  0  0
 25 57  1  0  0  0  0
 26 27  1  0  0  0  0
 27 28  1  0  0  0  0
 27 29  1  0  0  0  0
 28 58  1  0  0  0  0
 28 59  1  0  0  0  0
 28 60  1  0  0  0  0
 29 61  1  0  0  0  0
 30 31  1  0  0  0  0
 31 32  1  0  0  0  0
 32 62  1  0  0  0  0
 33 63  1  0  0  0  0
M  END
$$$$
