CHEMBL455655
 OpenBabel04072215383D

 62 67  0  0  0  0  0  0  0  0999 V2000
   -2.4328   -1.1755    7.5993 C   0  0  0  0  0  0  0  0  0  0  0  0
   -3.4259   -2.0159    6.8138 C   0  0  0  0  0  0  0  0  0  0  0  0
   -3.9539   -1.3034    5.6674 N   0  0  0  0  0  0  0  0  0  0  0  0
   -5.1282   -0.5918    5.6891 C   0  0  0  0  0  0  0  0  0  0  0  0
   -5.2889   -0.1211    4.4112 C   0  0  0  0  0  0  0  0  0  0  0  0
   -4.2655   -0.5487    3.6104 N   0  0  0  0  0  0  0  0  0  0  0  0
   -3.4798   -1.2941    4.3707 C   0  0  0  0  0  0  0  0  0  0  0  0
   -2.4414   -2.1199    3.8073 C   0  0  0  0  0  0  0  0  0  0  0  0
   -2.4992   -2.6693    2.5420 C   0  0  0  0  0  0  0  0  0  0  0  0
   -1.4945   -3.6490    2.3188 C   0  0  0  0  0  0  0  0  0  0  0  0
   -1.4144   -4.4376    1.2141 N   0  0  0  0  0  0  0  0  0  0  0  0
   -0.4116   -5.3332    1.2065 C   0  0  0  0  0  0  0  0  0  0  0  0
    0.5170   -5.5041    2.2135 C   0  0  0  0  0  0  0  0  0  0  0  0
    0.3966   -4.7315    3.3635 C   0  0  0  0  0  0  0  0  0  0  0  0
    1.3092   -4.8330    4.3849 O   0  0  0  0  0  0  0  0  0  0  0  0
    1.4664   -6.0211    5.0645 C   0  0  0  0  0  0  0  0  0  0  0  0
    2.6214   -6.0663    5.8390 C   0  0  0  0  0  0  0  0  0  0  0  0
    2.8708   -7.1500    6.6933 C   0  0  0  0  0  0  0  0  0  0  0  0
    1.9803   -8.2241    6.7951 C   0  0  0  0  0  0  0  0  0  0  0  0
    2.1666   -9.2812    7.7253 N   0  0  0  0  0  0  0  0  0  0  0  0
    3.2741   -9.4648    8.5297 C   0  0  0  0  0  0  0  0  0  0  0  0
    4.3315   -8.8390    8.4342 O   0  0  0  0  0  0  0  0  0  0  0  0
    3.1511  -10.4296    9.5149 N   0  0  0  0  0  0  0  0  0  0  0  0
    4.2315  -10.6114   10.4556 C   0  0  0  0  0  0  0  0  0  0  0  0
    3.7181  -11.6600   11.4119 C   0  0  0  0  0  0  0  0  0  0  0  0
    2.7657  -12.3968   10.6128 N   0  0  0  0  0  0  0  0  0  0  0  0
    2.2739  -13.6706   10.9719 C   0  0  0  0  0  0  0  0  0  0  0  0
    1.5542  -14.4475   10.0584 C   0  0  0  0  0  0  0  0  0  0  0  0
    1.0532  -15.7022   10.4181 C   0  0  0  0  0  0  0  0  0  0  0  0
    1.2619  -16.1978   11.7010 C   0  0  0  0  0  0  0  0  0  0  0  0
    1.9985  -15.4517   12.6151 C   0  0  0  0  0  0  0  0  0  0  0  0
    2.5126  -14.2031   12.2489 C   0  0  0  0  0  0  0  0  0  0  0  0
    2.3330  -11.5875    9.5254 C   0  0  0  0  0  0  0  0  0  0  0  0
    1.4073  -11.7745    8.7485 O   0  0  0  0  0  0  0  0  0  0  0  0
    0.8397   -8.1998    5.9867 C   0  0  0  0  0  0  0  0  0  0  0  0
    0.5895   -7.1063    5.1325 C   0  0  0  0  0  0  0  0  0  0  0  0
   -0.5371   -7.1343    4.4048 F   0  0  0  0  0  0  0  0  0  0  0  0
   -0.6119   -3.7513    3.3922 C   0  0  0  0  0  0  0  0  0  0  0  0
   -0.9864   -2.5708    4.5872 S   0  0  0  0  0  0  0  0  0  0  0  0
   -1.8342   -1.8112    8.2586 H   0  0  0  0  0  0  0  0  0  0  0  0
   -2.9591   -0.4445    8.2222 H   0  0  0  0  0  0  0  0  0  0  0  0
   -1.7525   -0.6182    6.9468 H   0  0  0  0  0  0  0  0  0  0  0  0
   -4.2688   -2.2987    7.4546 H   0  0  0  0  0  0  0  0  0  0  0  0
   -2.9833   -2.9530    6.4695 H   0  0  0  0  0  0  0  0  0  0  0  0
   -5.7385   -0.4996    6.5765 H   0  0  0  0  0  0  0  0  0  0  0  0
   -6.1005    0.4776    4.0180 H   0  0  0  0  0  0  0  0  0  0  0  0
   -3.3002   -2.4590    1.8446 H   0  0  0  0  0  0  0  0  0  0  0  0
   -0.3717   -5.9542    0.3151 H   0  0  0  0  0  0  0  0  0  0  0  0
    1.3120   -6.2324    2.1093 H   0  0  0  0  0  0  0  0  0  0  0  0
    3.3320   -5.2435    5.8080 H   0  0  0  0  0  0  0  0  0  0  0  0
    3.7773   -7.0877    7.2853 H   0  0  0  0  0  0  0  0  0  0  0  0
    1.4348   -9.9851    7.8055 H   0  0  0  0  0  0  0  0  0  0  0  0
    4.5053   -9.6709   10.9431 H   0  0  0  0  0  0  0  0  0  0  0  0
    5.1002  -10.9813    9.8970 H   0  0  0  0  0  0  0  0  0  0  0  0
    3.1788  -11.1965   12.2461 H   0  0  0  0  0  0  0  0  0  0  0  0
    4.5304  -12.2876   11.7894 H   0  0  0  0  0  0  0  0  0  0  0  0
    1.3870  -14.1090    9.0399 H   0  0  0  0  0  0  0  0  0  0  0  0
    0.4977  -16.2875    9.6900 H   0  0  0  0  0  0  0  0  0  0  0  0
    0.8531  -17.1639   11.9848 H   0  0  0  0  0  0  0  0  0  0  0  0
    2.1672  -15.8372   13.6176 H   0  0  0  0  0  0  0  0  0  0  0  0
    3.0739  -13.6535   12.9987 H   0  0  0  0  0  0  0  0  0  0  0  0
    0.1182   -9.0094    6.0064 H   0  0  0  0  0  0  0  0  0  0  0  0
  1  2  1  0  0  0  0
  1 40  1  0  0  0  0
  1 41  1  0  0  0  0
  1 42  1  0  0  0  0
  2  3  1  0  0  0  0
  2 43  1  0  0  0  0
  2 44  1  0  0  0  0
  3  4  1  0  0  0  0
  3  7  1  0  0  0  0
  4  5  2  0  0  0  0
  4 45  1  0  0  0  0
  5  6  1  0  0  0  0
  5 46  1  0  0  0  0
  6  7  2  0  0  0  0
  7  8  1  0  0  0  0
  8  9  2  0  0  0  0
  8 39  1  0  0  0  0
  9 10  1  0  0  0  0
  9 47  1  0  0  0  0
 10 11  1  0  0  0  0
 10 38  2  0  0  0  0
 11 12  2  0  0  0  0
 12 13  1  0  0  0  0
 12 48  1  0  0  0  0
 13 14  2  0  0  0  0
 13 49  1  0  0  0  0
 14 15  1  0  0  0  0
 14 38  1  0  0  0  0
 15 16  1  0  0  0  0
 16 17  1  0  0  0  0
 16 36  2  0  0  0  0
 17 18  2  0  0  0  0
 17 50  1  0  0  0  0
 18 19  1  0  0  0  0
 18 51  1  0  0  0  0
 19 20  1  0  0  0  0
 19 35  2  0  0  0  0
 20 21  1  0  0  0  0
 20 52  1  0  0  0  0
 21 22  2  0  0  0  0
 21 23  1  0  0  0  0
 23 24  1  0  0  0  0
 23 33  1  0  0  0  0
 24 25  1  0  0  0  0
 24 53  1  0  0  0  0
 24 54  1  0  0  0  0
 25 26  1  0  0  0  0
 25 55  1  0  0  0  0
 25 56  1  0  0  0  0
 26 27  1  0  0  0  0
 26 33  1  0  0  0  0
 27 28  1  0  0  0  0
 27 32  2  0  0  0  0
 28 29  2  0  0  0  0
 28 57  1  0  0  0  0
 29 30  1  0  0  0  0
 29 58  1  0  0  0  0
 30 31  2  0  0  0  0
 30 59  1  0  0  0  0
 31 32  1  0  0  0  0
 31 60  1  0  0  0  0
 32 61  1  0  0  0  0
 33 34  2  0  0  0  0
 35 36  1  0  0  0  0
 35 62  1  0  0  0  0
 36 37  1  0  0  0  0
 38 39  1  0  0  0  0
M  END
$$$$
