CHEMBL383333
 OpenBabel04072215373D

 55 58  0  0  0  0  0  0  0  0999 V2000
    0.9824   -0.0500   -1.0122 C   0  0  0  0  0  0  0  0  0  0  0  0
    1.8194   -0.0013    0.2869 C   0  0  0  0  0  0  0  0  0  0  0  0
    0.9084   -0.4976    1.4306 C   0  0  0  0  0  0  0  0  0  0  0  0
    2.9858   -0.9993    0.1161 C   0  0  0  0  0  0  0  0  0  0  0  0
    2.3621    1.4060    0.5971 C   0  0  0  0  0  0  0  0  0  0  0  0
    2.1217    2.4937   -0.2558 C   0  0  0  0  0  0  0  0  0  0  0  0
    2.6218    3.7738    0.0171 C   0  0  0  0  0  0  0  0  0  0  0  0
    3.4004    4.0272    1.1446 C   0  0  0  0  0  0  0  0  0  0  0  0
    3.9041    5.3076    1.4641 N   0  0  0  0  0  0  0  0  0  0  0  0
    3.6202    6.4766    0.8531 C   0  0  0  0  0  0  0  0  0  0  0  0
    4.3899    7.5290    0.6641 N   0  0  0  0  0  0  0  0  0  0  0  0
    3.6025    8.5031    0.0728 N   0  0  0  0  0  0  0  0  0  0  0  0
    2.3859    8.0048   -0.0145 C   0  0  0  0  0  0  0  0  0  0  0  0
    1.1128    8.5944   -0.4343 C   0  0  0  0  0  0  0  0  0  0  0  0
   -0.0037    7.7491   -0.5403 C   0  0  0  0  0  0  0  0  0  0  0  0
   -1.2614    8.1305   -0.8708 N   0  0  0  0  0  0  0  0  0  0  0  0
   -1.4342    9.4330   -1.1277 C   0  0  0  0  0  0  0  0  0  0  0  0
   -0.4073   10.3609   -1.0783 C   0  0  0  0  0  0  0  0  0  0  0  0
    0.8979    9.9680   -0.7076 C   0  0  0  0  0  0  0  0  0  0  0  0
    2.0079   11.0196   -0.6605 C   0  0  0  0  0  0  0  0  0  0  0  0
    1.5289   12.4484   -0.3156 C   0  0  0  0  0  0  0  0  0  0  0  0
    2.5507   13.5573   -0.2618 C   0  0  0  0  0  0  0  0  0  0  0  0
    2.1370   14.8633   -0.5738 C   0  0  0  0  0  0  0  0  0  0  0  0
    3.0425   15.9070   -0.4704 C   0  0  0  0  0  0  0  0  0  0  0  0
    4.3195   15.7475   -0.0707 N   0  0  0  0  0  0  0  0  0  0  0  0
    4.6990   14.4889    0.2407 C   0  0  0  0  0  0  0  0  0  0  0  0
    3.8660   13.3795    0.1673 C   0  0  0  0  0  0  0  0  0  0  0  0
    2.3361    6.7084    0.4402 O   0  0  0  0  0  0  0  0  0  0  0  0
    3.6296    2.9546    2.0178 C   0  0  0  0  0  0  0  0  0  0  0  0
    3.1244    1.6668    1.7485 C   0  0  0  0  0  0  0  0  0  0  0  0
    0.5925   -1.0561   -1.2043 H   0  0  0  0  0  0  0  0  0  0  0  0
    1.5818    0.2340   -1.8853 H   0  0  0  0  0  0  0  0  0  0  0  0
    0.1189    0.6241   -0.9562 H   0  0  0  0  0  0  0  0  0  0  0  0
    0.4713   -1.4743    1.1878 H   0  0  0  0  0  0  0  0  0  0  0  0
    0.0812    0.1994    1.6090 H   0  0  0  0  0  0  0  0  0  0  0  0
    1.4530   -0.6167    2.3734 H   0  0  0  0  0  0  0  0  0  0  0  0
    2.6134   -1.9968   -0.1491 H   0  0  0  0  0  0  0  0  0  0  0  0
    3.5741   -1.1096    1.0337 H   0  0  0  0  0  0  0  0  0  0  0  0
    3.6686   -0.6793   -0.6794 H   0  0  0  0  0  0  0  0  0  0  0  0
    1.5429    2.3884   -1.1679 H   0  0  0  0  0  0  0  0  0  0  0  0
    2.4072    4.5537   -0.7062 H   0  0  0  0  0  0  0  0  0  0  0  0
    4.8063    5.2677    1.9247 H   0  0  0  0  0  0  0  0  0  0  0  0
    0.0735    6.6803   -0.3476 H   0  0  0  0  0  0  0  0  0  0  0  0
   -2.4469    9.7332   -1.3830 H   0  0  0  0  0  0  0  0  0  0  0  0
   -0.6616   11.3847   -1.3266 H   0  0  0  0  0  0  0  0  0  0  0  0
    2.5139   11.0251   -1.6346 H   0  0  0  0  0  0  0  0  0  0  0  0
    2.7435   10.7350    0.0949 H   0  0  0  0  0  0  0  0  0  0  0  0
    1.0097   12.4282    0.6515 H   0  0  0  0  0  0  0  0  0  0  0  0
    0.7967   12.7588   -1.0690 H   0  0  0  0  0  0  0  0  0  0  0  0
    1.1181   15.0732   -0.8891 H   0  0  0  0  0  0  0  0  0  0  0  0
    2.7510   16.9258   -0.7056 H   0  0  0  0  0  0  0  0  0  0  0  0
    5.7291   14.3909    0.5726 H   0  0  0  0  0  0  0  0  0  0  0  0
    4.2524   12.4081    0.4557 H   0  0  0  0  0  0  0  0  0  0  0  0
    4.2026    3.1046    2.9312 H   0  0  0  0  0  0  0  0  0  0  0  0
    3.3422    0.8705    2.4594 H   0  0  0  0  0  0  0  0  0  0  0  0
  1  2  1  0  0  0  0
  1 31  1  0  0  0  0
  1 32  1  0  0  0  0
  1 33  1  0  0  0  0
  2  3  1  0  0  0  0
  2  4  1  0  0  0  0
  2  5  1  0  0  0  0
  3 34  1  0  0  0  0
  3 35  1  0  0  0  0
  3 36  1  0  0  0  0
  4 37  1  0  0  0  0
  4 38  1  0  0  0  0
  4 39  1  0  0  0  0
  5  6  1  0  0  0  0
  5 30  2  0  0  0  0
  6  7  2  0  0  0  0
  6 40  1  0  0  0  0
  7  8  1  0  0  0  0
  7 41  1  0  0  0  0
  8  9  1  0  0  0  0
  8 29  2  0  0  0  0
  9 10  1  0  0  0  0
  9 42  1  0  0  0  0
 10 11  2  0  0  0  0
 10 28  1  0  0  0  0
 11 12  1  0  0  0  0
 12 13  2  0  0  0  0
 13 14  1  0  0  0  0
 13 28  1  0  0  0  0
 14 15  1  0  0  0  0
 14 19  2  0  0  0  0
 15 16  2  0  0  0  0
 15 43  1  0  0  0  0
 16 17  1  0  0  0  0
 17 18  2  0  0  0  0
 17 44  1  0  0  0  0
 18 19  1  0  0  0  0
 18 45  1  0  0  0  0
 19 20  1  0  0  0  0
 20 21  1  0  0  0  0
 20 46  1  0  0  0  0
 20 47  1  0  0  0  0
 21 22  1  0  0  0  0
 21 48  1  0  0  0  0
 21 49  1  0  0  0  0
 22 23  1  0  0  0  0
 22 27  2  0  0  0  0
 23 24  2  0  0  0  0
 23 50  1  0  0  0  0
 24 25  1  0  0  0  0
 24 51  1  0  0  0  0
 25 26  2  0  0  0  0
 26 27  1  0  0  0  0
 26 52  1  0  0  0  0
 27 53  1  0  0  0  0
 29 30  1  0  0  0  0
 29 54  1  0  0  0  0
 30 55  1  0  0  0  0
M  END
$$$$
