CHEMBL4554056
 OpenBabel04072215383D

 67 71  0  0  0  0  0  0  0  0999 V2000
    1.5501    0.7741   -0.8363 C   0  0  0  0  0  0  0  0  0  0  0  0
    2.8441    0.9025   -0.2548 O   0  0  0  0  0  0  0  0  0  0  0  0
    2.9156    1.4554    0.9947 C   0  0  0  0  0  0  0  0  0  0  0  0
    1.8360    1.7357    1.8229 C   0  0  0  0  0  0  0  0  0  0  0  0
    2.0475    2.1629    3.1441 C   0  0  0  0  0  0  0  0  0  0  0  0
    3.3434    2.2223    3.7180 C   0  0  0  0  0  0  0  0  0  0  0  0
    3.4910    1.9922    5.2716 C   0  0  0  0  0  0  0  0  0  0  0  0
    2.5659    1.0206    5.6618 C   0  0  0  0  0  0  0  0  0  0  0  0
    2.8399   -0.2220    5.0929 C   0  0  0  0  0  0  0  0  0  0  0  0
    1.8483   -0.9569    4.4119 C   0  0  0  0  0  0  0  0  0  0  0  0
    2.2538   -1.8106    3.3876 C   0  0  0  0  0  0  0  0  0  0  0  0
    1.4538   -2.4071    2.4533 O   0  0  0  0  0  0  0  0  0  0  0  0
    0.0951   -2.0043    2.3814 C   0  0  0  0  0  0  0  0  0  0  0  0
    3.6166   -2.0514    3.1909 C   0  0  0  0  0  0  0  0  0  0  0  0
    4.5832   -1.4368    3.9862 C   0  0  0  0  0  0  0  0  0  0  0  0
    4.2119   -0.4796    4.9026 C   0  0  0  0  0  0  0  0  0  0  0  0
    5.1431    0.3354    5.4356 N   0  0  0  0  0  0  0  0  0  0  0  0
    4.7433    1.5893    5.7447 C   0  0  0  0  0  0  0  0  0  0  0  0
    5.4256    2.3651    6.7200 N   0  0  0  0  0  0  0  0  0  0  0  0
    6.6055    2.0756    7.4532 C   0  0  0  0  0  0  0  0  0  0  0  0
    7.2709    3.1132    8.1259 C   0  0  0  0  0  0  0  0  0  0  0  0
    8.4645    2.8906    8.8453 C   0  0  0  0  0  0  0  0  0  0  0  0
    9.0223    1.6157    8.9385 C   0  0  0  0  0  0  0  0  0  0  0  0
   10.2588    1.3315    9.5687 N   0  0  0  0  0  0  0  0  0  0  0  0
   11.0211    2.2042   10.3407 C   0  0  0  0  0  0  0  0  0  0  0  0
   10.6663    3.3047   10.7531 O   0  0  0  0  0  0  0  0  0  0  0  0
   12.4374    1.6762   10.6738 C   0  0  0  0  0  0  0  0  0  0  0  0
   12.4615    0.7300   11.8101 N   0  0  0  0  0  0  0  0  0  0  0  0
   12.0369    1.3469   13.0934 C   0  0  0  0  0  0  0  0  0  0  0  0
   13.0774    2.2533   13.7833 C   0  0  0  0  0  0  0  0  0  0  0  0
   14.3453    1.6010   13.9254 O   0  0  0  0  0  0  0  0  0  0  0  0
   14.8257    1.1581   12.6537 C   0  0  0  0  0  0  0  0  0  0  0  0
   13.8274    0.1791   12.0072 C   0  0  0  0  0  0  0  0  0  0  0  0
    8.3251    0.5634    8.3384 C   0  0  0  0  0  0  0  0  0  0  0  0
    7.1218    0.7889    7.6371 C   0  0  0  0  0  0  0  0  0  0  0  0
    4.4204    2.0867    2.8179 C   0  0  0  0  0  0  0  0  0  0  0  0
    4.2033    1.6939    1.4818 C   0  0  0  0  0  0  0  0  0  0  0  0
    1.6507    0.2313   -1.7840 H   0  0  0  0  0  0  0  0  0  0  0  0
    1.1378    1.7627   -1.0580 H   0  0  0  0  0  0  0  0  0  0  0  0
    0.8629    0.1927   -0.2120 H   0  0  0  0  0  0  0  0  0  0  0  0
    0.8152    1.5383    1.5139 H   0  0  0  0  0  0  0  0  0  0  0  0
    1.1679    2.2581    3.7801 H   0  0  0  0  0  0  0  0  0  0  0  0
    2.0834    1.0593    6.6368 H   0  0  0  0  0  0  0  0  0  0  0  0
    0.8020   -0.7004    4.5507 H   0  0  0  0  0  0  0  0  0  0  0  0
   -0.3242   -2.4313    1.4648 H   0  0  0  0  0  0  0  0  0  0  0  0
   -0.0190   -0.9173    2.3141 H   0  0  0  0  0  0  0  0  0  0  0  0
   -0.4650   -2.4096    3.2296 H   0  0  0  0  0  0  0  0  0  0  0  0
    3.9401   -2.6600    2.3500 H   0  0  0  0  0  0  0  0  0  0  0  0
    5.6369   -1.5800    3.7780 H   0  0  0  0  0  0  0  0  0  0  0  0
    5.3254    3.3538    6.5223 H   0  0  0  0  0  0  0  0  0  0  0  0
    6.8828    4.1280    8.0883 H   0  0  0  0  0  0  0  0  0  0  0  0
    8.9454    3.7506    9.3009 H   0  0  0  0  0  0  0  0  0  0  0  0
   10.6114    0.3850    9.4817 H   0  0  0  0  0  0  0  0  0  0  0  0
   13.0845    2.5462   10.8386 H   0  0  0  0  0  0  0  0  0  0  0  0
   12.8139    1.1725    9.7731 H   0  0  0  0  0  0  0  0  0  0  0  0
   11.8223    0.5154   13.7776 H   0  0  0  0  0  0  0  0  0  0  0  0
   11.0907    1.8872   12.9853 H   0  0  0  0  0  0  0  0  0  0  0  0
   12.7318    2.4990   14.7938 H   0  0  0  0  0  0  0  0  0  0  0  0
   13.2179    3.1961   13.2440 H   0  0  0  0  0  0  0  0  0  0  0  0
   15.7839    0.6549   12.8211 H   0  0  0  0  0  0  0  0  0  0  0  0
   15.0222    2.0281   12.0170 H   0  0  0  0  0  0  0  0  0  0  0  0
   13.7327   -0.6922   12.6683 H   0  0  0  0  0  0  0  0  0  0  0  0
   14.2321   -0.1972   11.0606 H   0  0  0  0  0  0  0  0  0  0  0  0
    8.6914   -0.4577    8.4045 H   0  0  0  0  0  0  0  0  0  0  0  0
    6.6061   -0.0758    7.2292 H   0  0  0  0  0  0  0  0  0  0  0  0
    5.4498    2.1220    3.1690 H   0  0  0  0  0  0  0  0  0  0  0  0
    5.0587    1.4873    0.8403 H   0  0  0  0  0  0  0  0  0  0  0  0
  1  2  1  0  0  0  0
  1 38  1  0  0  0  0
  1 39  1  0  0  0  0
  1 40  1  0  0  0  0
  2  3  1  0  0  0  0
  3  4  1  0  0  0  0
  3 37  2  0  0  0  0
  4  5  2  0  0  0  0
  4 41  1  0  0  0  0
  5  6  1  0  0  0  0
  5 42  1  0  0  0  0
  6  7  1  0  0  0  0
  6 36  2  0  0  0  0
  7  8  1  0  0  0  0
  7 18  2  0  0  0  0
  8  9  2  0  0  0  0
  8 43  1  0  0  0  0
  9 10  1  0  0  0  0
  9 16  1  0  0  0  0
 10 11  2  0  0  0  0
 10 44  1  0  0  0  0
 11 12  1  0  0  0  0
 11 14  1  0  0  0  0
 12 13  1  0  0  0  0
 13 45  1  0  0  0  0
 13 46  1  0  0  0  0
 13 47  1  0  0  0  0
 14 15  2  0  0  0  0
 14 48  1  0  0  0  0
 15 16  1  0  0  0  0
 15 49  1  0  0  0  0
 16 17  2  0  0  0  0
 17 18  1  0  0  0  0
 18 19  1  0  0  0  0
 19 20  1  0  0  0  0
 19 50  1  0  0  0  0
 20 21  1  0  0  0  0
 20 35  2  0  0  0  0
 21 22  2  0  0  0  0
 21 51  1  0  0  0  0
 22 23  1  0  0  0  0
 22 52  1  0  0  0  0
 23 24  1  0  0  0  0
 23 34  2  0  0  0  0
 24 25  1  0  0  0  0
 24 53  1  0  0  0  0
 25 26  2  0  0  0  0
 25 27  1  0  0  0  0
 27 28  1  0  0  0  0
 27 54  1  0  0  0  0
 27 55  1  0  0  0  0
 28 29  1  0  0  0  0
 28 33  1  0  0  0  0
 29 30  1  0  0  0  0
 29 56  1  0  0  0  0
 29 57  1  0  0  0  0
 30 31  1  0  0  0  0
 30 58  1  0  0  0  0
 30 59  1  0  0  0  0
 31 32  1  0  0  0  0
 32 33  1  0  0  0  0
 32 60  1  0  0  0  0
 32 61  1  0  0  0  0
 33 62  1  0  0  0  0
 33 63  1  0  0  0  0
 34 35  1  0  0  0  0
 34 64  1  0  0  0  0
 35 65  1  0  0  0  0
 36 37  1  0  0  0  0
 36 66  1  0  0  0  0
 37 67  1  0  0  0  0
M  END
$$$$
