CHEMBL3916297
 OpenBabel04072215373D

 65 69  0  0  1  0  0  0  0  0999 V2000
    4.0156   -4.7675   -1.2023 C   0  0  0  0  0  0  0  0  0  0  0  0
    4.2323   -4.2696    0.1114 O   0  0  0  0  0  0  0  0  0  0  0  0
    3.8970   -2.9711    0.3731 C   0  0  0  0  0  0  0  0  0  0  0  0
    4.7760   -2.3389    1.2665 C   0  0  0  0  0  0  0  0  0  0  0  0
    4.5458   -1.0114    1.7218 C   0  0  0  0  0  0  0  0  0  0  0  0
    5.3239   -0.2747    2.6247 C   0  0  0  0  0  0  0  0  0  0  0  0
    6.5392   -0.8257    3.1112 N   0  0  0  0  0  0  0  0  0  0  0  0
    7.1970   -0.3142    4.2493 C   0  0  0  0  0  0  0  0  0  0  0  0
    6.4784   -0.0962    5.4330 C   0  0  0  0  0  0  0  0  0  0  0  0
    7.0792    0.5042    6.5392 C   0  0  0  0  0  0  0  0  0  0  0  0
    8.4183    0.8837    6.4722 C   0  0  0  0  0  0  0  0  0  0  0  0
    9.0954    1.6635    7.8561 Cl  0  0  0  0  0  0  0  0  0  0  0  0
    9.1591    0.6336    5.3107 C   0  0  0  0  0  0  0  0  0  0  0  0
   10.8258    1.0706    5.1658 Cl  0  0  0  0  0  0  0  0  0  0  0  0
    8.5513    0.0274    4.2034 C   0  0  0  0  0  0  0  0  0  0  0  0
    4.9657    0.9563    3.0565 N   0  0  0  0  0  0  0  0  0  0  0  0
    3.8381    1.4724    2.5740 C   0  0  0  0  0  0  0  0  0  0  0  0
    3.0509    0.8859    1.6840 N   0  0  0  0  0  0  0  0  0  0  0  0
    3.4133   -0.3355    1.2850 C   0  0  0  0  0  0  0  0  0  0  0  0
    2.5747   -0.9576    0.4077 C   0  0  0  0  0  0  0  0  0  0  0  0
    2.7586   -2.2789   -0.0541 C   0  0  0  0  0  0  0  0  0  0  0  0
    1.8209   -2.8926   -0.8612 O   0  0  0  0  0  0  0  0  0  0  0  0
    0.6968   -2.0495   -1.1448 C   0  0  0  0  0  0  0  0  0  0  0  0
   -0.3733   -2.6889   -1.9997 C   0  0  3  0  0  0  0  0  0  0  0  0
    0.1878   -3.0800   -3.3796 C   0  0  0  0  0  0  0  0  0  0  0  0
   -0.8623   -3.5897   -4.2936 N   0  0  0  0  0  0  0  0  0  0  0  0
   -1.3428   -4.9052   -3.8217 C   0  0  0  0  0  0  0  0  0  0  0  0
   -2.3443   -5.5622   -4.7752 C   0  0  0  0  0  0  0  0  0  0  0  0
   -2.8608   -6.8722   -4.2345 C   0  0  0  0  0  0  0  0  0  0  0  0
   -3.9556   -6.8910   -3.3579 C   0  0  0  0  0  0  0  0  0  0  0  0
   -4.4732   -8.1027   -2.9017 C   0  0  0  0  0  0  0  0  0  0  0  0
   -3.8938   -9.3030   -3.3072 C   0  0  0  0  0  0  0  0  0  0  0  0
   -2.7849   -9.2921   -4.1524 C   0  0  0  0  0  0  0  0  0  0  0  0
   -2.2648   -8.0811   -4.6098 C   0  0  0  0  0  0  0  0  0  0  0  0
   -1.9266   -2.5588   -4.3548 C   0  0  0  0  0  0  0  0  0  0  0  0
   -2.4702   -2.1437   -2.9799 C   0  0  0  0  0  0  0  0  0  0  0  0
   -1.4165   -1.6974   -2.1260 O   0  0  0  0  0  0  0  0  0  0  0  0
    4.9596   -5.2036   -1.5501 H   0  0  0  0  0  0  0  0  0  0  0  0
    3.7193   -4.0122   -1.9352 H   0  0  0  0  0  0  0  0  0  0  0  0
    3.2769   -5.5718   -1.1609 H   0  0  0  0  0  0  0  0  0  0  0  0
    5.6337   -2.8982    1.6391 H   0  0  0  0  0  0  0  0  0  0  0  0
    7.1584   -0.9962    2.3260 H   0  0  0  0  0  0  0  0  0  0  0  0
    5.4246   -0.3661    5.4841 H   0  0  0  0  0  0  0  0  0  0  0  0
    6.4873    0.6862    7.4302 H   0  0  0  0  0  0  0  0  0  0  0  0
    9.1262   -0.1335    3.2971 H   0  0  0  0  0  0  0  0  0  0  0  0
    3.5341    2.4466    2.9367 H   0  0  0  0  0  0  0  0  0  0  0  0
    1.7148   -0.3592    0.1188 H   0  0  0  0  0  0  0  0  0  0  0  0
    1.0351   -1.1459   -1.6735 H   0  0  0  0  0  0  0  0  0  0  0  0
    0.2052   -1.7596   -0.2052 H   0  0  0  0  0  0  0  0  0  0  0  0
   -0.7696   -3.5597   -1.4659 H   0  0  0  0  0  0  0  0  0  0  0  0
    0.9979   -3.8121   -3.2809 H   0  0  0  0  0  0  0  0  0  0  0  0
    0.6365   -2.1951   -3.8527 H   0  0  0  0  0  0  0  0  0  0  0  0
   -1.7862   -4.8446   -2.8216 H   0  0  0  0  0  0  0  0  0  0  0  0
   -0.4765   -5.5744   -3.7260 H   0  0  0  0  0  0  0  0  0  0  0  0
   -1.8808   -5.7163   -5.7569 H   0  0  0  0  0  0  0  0  0  0  0  0
   -3.2117   -4.9155   -4.9445 H   0  0  0  0  0  0  0  0  0  0  0  0
   -4.4225   -5.9615   -3.0394 H   0  0  0  0  0  0  0  0  0  0  0  0
   -5.3357   -8.1106   -2.2404 H   0  0  0  0  0  0  0  0  0  0  0  0
   -4.3084  -10.2482   -2.9672 H   0  0  0  0  0  0  0  0  0  0  0  0
   -2.3319  -10.2286   -4.4658 H   0  0  0  0  0  0  0  0  0  0  0  0
   -1.4034   -8.0866   -5.2738 H   0  0  0  0  0  0  0  0  0  0  0  0
   -2.7474   -2.8646   -5.0090 H   0  0  0  0  0  0  0  0  0  0  0  0
   -1.4921   -1.6705   -4.8337 H   0  0  0  0  0  0  0  0  0  0  0  0
   -3.0111   -2.9567   -2.4851 H   0  0  0  0  0  0  0  0  0  0  0  0
   -3.1705   -1.3097   -3.0962 H   0  0  0  0  0  0  0  0  0  0  0  0
  1  2  1  0  0  0  0
  1 38  1  0  0  0  0
  1 39  1  0  0  0  0
  1 40  1  0  0  0  0
  2  3  1  0  0  0  0
  3  4  1  0  0  0  0
  3 21  2  0  0  0  0
  4  5  2  0  0  0  0
  4 41  1  0  0  0  0
  5  6  1  0  0  0  0
  5 19  1  0  0  0  0
  6  7  1  0  0  0  0
  6 16  2  0  0  0  0
  7  8  1  0  0  0  0
  7 42  1  0  0  0  0
  8  9  1  0  0  0  0
  8 15  2  0  0  0  0
  9 10  2  0  0  0  0
  9 43  1  0  0  0  0
 10 11  1  0  0  0  0
 10 44  1  0  0  0  0
 11 12  1  0  0  0  0
 11 13  2  0  0  0  0
 13 14  1  0  0  0  0
 13 15  1  0  0  0  0
 15 45  1  0  0  0  0
 16 17  1  0  0  0  0
 17 18  2  0  0  0  0
 17 46  1  0  0  0  0
 18 19  1  0  0  0  0
 19 20  2  0  0  0  0
 20 21  1  0  0  0  0
 20 47  1  0  0  0  0
 21 22  1  0  0  0  0
 22 23  1  0  0  0  0
 23 24  1  0  0  0  0
 23 48  1  0  0  0  0
 23 49  1  0  0  0  0
 24 25  1  0  0  0  0
 24 37  1  0  0  0  0
 24 50  1  0  0  0  0
 25 26  1  0  0  0  0
 25 51  1  0  0  0  0
 25 52  1  0  0  0  0
 26 27  1  0  0  0  0
 26 35  1  0  0  0  0
 27 28  1  0  0  0  0
 27 53  1  0  0  0  0
 27 54  1  0  0  0  0
 28 29  1  0  0  0  0
 28 55  1  0  0  0  0
 28 56  1  0  0  0  0
 29 30  1  0  0  0  0
 29 34  2  0  0  0  0
 30 31  2  0  0  0  0
 30 57  1  0  0  0  0
 31 32  1  0  0  0  0
 31 58  1  0  0  0  0
 32 33  2  0  0  0  0
 32 59  1  0  0  0  0
 33 34  1  0  0  0  0
 33 60  1  0  0  0  0
 34 61  1  0  0  0  0
 35 36  1  0  0  0  0
 35 62  1  0  0  0  0
 35 63  1  0  0  0  0
 36 37  1  0  0  0  0
 36 64  1  0  0  0  0
 36 65  1  0  0  0  0
M  END
$$$$
