CHEMBL3690455
 OpenBabel04072215373D

 50 53  0  0  0  0  0  0  0  0999 V2000
    3.8631    0.0033    3.3003 O   0  0  0  0  0  0  0  0  0  0  0  0
    4.0531   -1.2013    3.4307 C   0  0  0  0  0  0  0  0  0  0  0  0
    3.5728   -1.8833    4.5278 N   0  0  0  0  0  0  0  0  0  0  0  0
    2.9479   -1.1178    5.6161 C   0  0  0  0  0  0  0  0  0  0  0  0
    3.9296   -0.5622    6.6594 C   0  0  0  0  0  0  0  0  0  0  0  0
    5.2068   -0.9174    6.3844 F   0  0  0  0  0  0  0  0  0  0  0  0
    3.8770    0.7816    6.7519 F   0  0  0  0  0  0  0  0  0  0  0  0
    3.6420   -1.0664    7.8855 F   0  0  0  0  0  0  0  0  0  0  0  0
    4.7161   -2.0468    2.5532 N   0  0  0  0  0  0  0  0  0  0  0  0
    5.3144   -1.6738    1.3307 C   0  0  0  0  0  0  0  0  0  0  0  0
    5.3434   -0.3750    0.8384 C   0  0  0  0  0  0  0  0  0  0  0  0
    5.9218   -0.0929   -0.3975 C   0  0  0  0  0  0  0  0  0  0  0  0
    6.5356   -1.1026   -1.1333 C   0  0  0  0  0  0  0  0  0  0  0  0
    6.5818   -2.4105   -0.6380 C   0  0  0  0  0  0  0  0  0  0  0  0
    7.3209   -3.4383   -1.3778 C   0  0  0  0  0  0  0  0  0  0  0  0
    7.5372   -3.5632   -2.7438 C   0  0  0  0  0  0  0  0  0  0  0  0
    8.3146   -4.6448   -3.0501 N   0  0  0  0  0  0  0  0  0  0  0  0
    8.5945   -5.1969   -1.8925 C   0  0  0  0  0  0  0  0  0  0  0  0
    9.3564   -6.3580   -1.5932 C   0  0  0  0  0  0  0  0  0  0  0  0
    9.5335   -6.7764   -0.3162 C   0  0  0  0  0  0  0  0  0  0  0  0
   10.3046   -8.0171   -0.0598 C   0  0  0  0  0  0  0  0  0  0  0  0
   11.3550   -8.4080   -0.8853 C   0  0  0  0  0  0  0  0  0  0  0  0
   12.0203   -9.6002   -0.6235 C   0  0  0  0  0  0  0  0  0  0  0  0
   11.6278  -10.3874    0.4579 C   0  0  0  0  0  0  0  0  0  0  0  0
   12.3190  -11.6690    0.8109 C   0  0  0  0  0  0  0  0  0  0  0  0
   12.8177  -12.3326   -0.3438 O   0  0  0  0  0  0  0  0  0  0  0  0
   10.6015   -9.8960    1.2576 C   0  0  0  0  0  0  0  0  0  0  0  0
    9.9364   -8.7403    1.0256 N   0  0  0  0  0  0  0  0  0  0  0  0
    8.9301   -6.0029    0.7720 C   0  0  0  0  0  0  0  0  0  0  0  0
    8.2306   -4.8923    0.4969 C   0  0  0  0  0  0  0  0  0  0  0  0
    8.0345   -4.4989   -0.8285 N   0  0  0  0  0  0  0  0  0  0  0  0
    5.9154   -2.6898    0.5685 C   0  0  0  0  0  0  0  0  0  0  0  0
    4.1156   -2.6860    4.8135 H   0  0  0  0  0  0  0  0  0  0  0  0
    2.2373   -1.7936    6.1024 H   0  0  0  0  0  0  0  0  0  0  0  0
    2.3674   -0.2912    5.1914 H   0  0  0  0  0  0  0  0  0  0  0  0
    4.6992   -3.0279    2.7766 H   0  0  0  0  0  0  0  0  0  0  0  0
    4.9124    0.4510    1.3910 H   0  0  0  0  0  0  0  0  0  0  0  0
    5.9011    0.9244   -0.7780 H   0  0  0  0  0  0  0  0  0  0  0  0
    6.9913   -0.8466   -2.0873 H   0  0  0  0  0  0  0  0  0  0  0  0
    7.1624   -2.9205   -3.5312 H   0  0  0  0  0  0  0  0  0  0  0  0
    9.7652   -6.8844   -2.4467 H   0  0  0  0  0  0  0  0  0  0  0  0
   11.6678   -7.7998   -1.7273 H   0  0  0  0  0  0  0  0  0  0  0  0
   12.8431   -9.9022   -1.2677 H   0  0  0  0  0  0  0  0  0  0  0  0
   11.6263  -12.3541    1.3097 H   0  0  0  0  0  0  0  0  0  0  0  0
   13.1578  -11.4653    1.4831 H   0  0  0  0  0  0  0  0  0  0  0  0
   12.0548  -12.5113   -0.9203 H   0  0  0  0  0  0  0  0  0  0  0  0
   10.2698  -10.4354    2.1417 H   0  0  0  0  0  0  0  0  0  0  0  0
    9.0706   -6.3343    1.7967 H   0  0  0  0  0  0  0  0  0  0  0  0
    7.8142   -4.2934    1.2902 H   0  0  0  0  0  0  0  0  0  0  0  0
    5.8629   -3.7110    0.9317 H   0  0  0  0  0  0  0  0  0  0  0  0
  1  2  2  0  0  0  0
  2  3  1  0  0  0  0
  2  9  1  0  0  0  0
  3  4  1  0  0  0  0
  3 33  1  0  0  0  0
  4  5  1  0  0  0  0
  4 34  1  0  0  0  0
  4 35  1  0  0  0  0
  5  6  1  0  0  0  0
  5  7  1  0  0  0  0
  5  8  1  0  0  0  0
  9 10  1  0  0  0  0
  9 36  1  0  0  0  0
 10 11  1  0  0  0  0
 10 32  2  0  0  0  0
 11 12  2  0  0  0  0
 11 37  1  0  0  0  0
 12 13  1  0  0  0  0
 12 38  1  0  0  0  0
 13 14  2  0  0  0  0
 13 39  1  0  0  0  0
 14 15  1  0  0  0  0
 14 32  1  0  0  0  0
 15 16  2  0  0  0  0
 15 31  1  0  0  0  0
 16 17  1  0  0  0  0
 16 40  1  0  0  0  0
 17 18  2  0  0  0  0
 18 19  1  0  0  0  0
 18 31  1  0  0  0  0
 19 20  2  0  0  0  0
 19 41  1  0  0  0  0
 20 21  1  0  0  0  0
 20 29  1  0  0  0  0
 21 22  1  0  0  0  0
 21 28  2  0  0  0  0
 22 23  2  0  0  0  0
 22 42  1  0  0  0  0
 23 24  1  0  0  0  0
 23 43  1  0  0  0  0
 24 25  1  0  0  0  0
 24 27  2  0  0  0  0
 25 26  1  0  0  0  0
 25 44  1  0  0  0  0
 25 45  1  0  0  0  0
 26 46  1  0  0  0  0
 27 28  1  0  0  0  0
 27 47  1  0  0  0  0
 29 30  2  0  0  0  0
 29 48  1  0  0  0  0
 30 31  1  0  0  0  0
 30 49  1  0  0  0  0
 32 50  1  0  0  0  0
M  END
$$$$
