CHEMBL188386
 OpenBabel04072215363D

 46 48  0  0  0  0  0  0  0  0999 V2000
    3.6264    0.9719    0.4648 O   0  0  0  0  0  0  0  0  0  0  0  0
    4.1104   -0.2412    1.0270 C   0  0  0  0  0  0  0  0  0  0  0  0
    5.0127   -0.9465    0.0254 C   0  0  0  0  0  0  0  0  0  0  0  0
    6.2334   -0.0988   -0.3510 C   0  0  0  0  0  0  0  0  0  0  0  0
    7.1573   -0.8167   -1.3357 C   0  0  0  0  0  0  0  0  0  0  0  0
    6.4563   -1.0644   -2.5955 N   0  0  0  0  0  0  0  0  0  0  0  0
    7.1810   -1.6544   -3.6384 C   0  0  0  0  0  0  0  0  0  0  0  0
    8.1958   -2.5949   -3.4644 C   0  0  0  0  0  0  0  0  0  0  0  0
    8.8762   -3.1938   -4.4687 N   0  0  0  0  0  0  0  0  0  0  0  0
    8.5131   -2.8537   -5.7276 C   0  0  0  0  0  0  0  0  0  0  0  0
    7.4798   -1.9753   -6.0512 C   0  0  0  0  0  0  0  0  0  0  0  0
    7.1619   -1.6628   -7.4504 C   0  0  0  0  0  0  0  0  0  0  0  0
    5.8885   -1.3482   -7.9146 C   0  0  0  0  0  0  0  0  0  0  0  0
    5.6240   -1.0383   -9.2062 N   0  0  0  0  0  0  0  0  0  0  0  0
    6.7038   -1.0427  -10.0267 C   0  0  0  0  0  0  0  0  0  0  0  0
    7.9960   -1.3497   -9.6023 C   0  0  0  0  0  0  0  0  0  0  0  0
    9.0729   -1.2612  -10.5094 N   0  0  0  0  0  0  0  0  0  0  0  0
   10.4402   -1.1879  -10.1636 C   0  0  0  0  0  0  0  0  0  0  0  0
   11.4004   -1.8657  -10.9265 C   0  0  0  0  0  0  0  0  0  0  0  0
   12.7576   -1.7908  -10.5966 C   0  0  0  0  0  0  0  0  0  0  0  0
   13.1713   -1.0253   -9.5074 C   0  0  0  0  0  0  0  0  0  0  0  0
   12.2239   -0.3459   -8.7470 C   0  0  0  0  0  0  0  0  0  0  0  0
   12.7284    0.6102   -7.4078 Cl  0  0  0  0  0  0  0  0  0  0  0  0
   10.8712   -0.4274   -9.0683 C   0  0  0  0  0  0  0  0  0  0  0  0
    8.2161   -1.6708   -8.3074 N   0  0  0  0  0  0  0  0  0  0  0  0
    6.8015   -1.3943   -4.9628 C   0  0  0  0  0  0  0  0  0  0  0  0
    3.0332    1.3728    1.1233 H   0  0  0  0  0  0  0  0  0  0  0  0
    3.2535   -0.8762    1.2708 H   0  0  0  0  0  0  0  0  0  0  0  0
    4.6532   -0.0103    1.9486 H   0  0  0  0  0  0  0  0  0  0  0  0
    4.4305   -1.1630   -0.8786 H   0  0  0  0  0  0  0  0  0  0  0  0
    5.3409   -1.9047    0.4448 H   0  0  0  0  0  0  0  0  0  0  0  0
    6.8032    0.1371    0.5558 H   0  0  0  0  0  0  0  0  0  0  0  0
    5.9103    0.8559   -0.7830 H   0  0  0  0  0  0  0  0  0  0  0  0
    7.4986   -1.7531   -0.8820 H   0  0  0  0  0  0  0  0  0  0  0  0
    8.0337   -0.1831   -1.5210 H   0  0  0  0  0  0  0  0  0  0  0  0
    5.9362   -0.2455   -2.9058 H   0  0  0  0  0  0  0  0  0  0  0  0
    8.5101   -2.9158   -2.4767 H   0  0  0  0  0  0  0  0  0  0  0  0
    9.0997   -3.3384   -6.5066 H   0  0  0  0  0  0  0  0  0  0  0  0
    5.0249   -1.3353   -7.2582 H   0  0  0  0  0  0  0  0  0  0  0  0
    6.5038   -0.7588  -11.0536 H   0  0  0  0  0  0  0  0  0  0  0  0
    8.8883   -1.7672  -11.3668 H   0  0  0  0  0  0  0  0  0  0  0  0
   11.1025   -2.4762  -11.7748 H   0  0  0  0  0  0  0  0  0  0  0  0
   13.4925   -2.3323  -11.1872 H   0  0  0  0  0  0  0  0  0  0  0  0
   14.2261   -0.9617   -9.2567 H   0  0  0  0  0  0  0  0  0  0  0  0
   10.1476    0.1130   -8.4630 H   0  0  0  0  0  0  0  0  0  0  0  0
    5.9943   -0.6931   -5.1441 H   0  0  0  0  0  0  0  0  0  0  0  0
  1  2  1  0  0  0  0
  1 27  1  0  0  0  0
  2  3  1  0  0  0  0
  2 28  1  0  0  0  0
  2 29  1  0  0  0  0
  3  4  1  0  0  0  0
  3 30  1  0  0  0  0
  3 31  1  0  0  0  0
  4  5  1  0  0  0  0
  4 32  1  0  0  0  0
  4 33  1  0  0  0  0
  5  6  1  0  0  0  0
  5 34  1  0  0  0  0
  5 35  1  0  0  0  0
  6  7  1  0  0  0  0
  6 36  1  0  0  0  0
  7  8  1  0  0  0  0
  7 26  2  0  0  0  0
  8  9  2  0  0  0  0
  8 37  1  0  0  0  0
  9 10  1  0  0  0  0
 10 11  2  0  0  0  0
 10 38  1  0  0  0  0
 11 12  1  0  0  0  0
 11 26  1  0  0  0  0
 12 13  1  0  0  0  0
 12 25  2  0  0  0  0
 13 14  2  0  0  0  0
 13 39  1  0  0  0  0
 14 15  1  0  0  0  0
 15 16  2  0  0  0  0
 15 40  1  0  0  0  0
 16 17  1  0  0  0  0
 16 25  1  0  0  0  0
 17 18  1  0  0  0  0
 17 41  1  0  0  0  0
 18 19  1  0  0  0  0
 18 24  2  0  0  0  0
 19 20  2  0  0  0  0
 19 42  1  0  0  0  0
 20 21  1  0  0  0  0
 20 43  1  0  0  0  0
 21 22  2  0  0  0  0
 21 44  1  0  0  0  0
 22 23  1  0  0  0  0
 22 24  1  0  0  0  0
 24 45  1  0  0  0  0
 26 46  1  0  0  0  0
M  END
$$$$
