CHEMBL1940180
 OpenBabel04072215363D

 64 69  0  0  0  0  0  0  0  0999 V2000
    1.0402    0.0222   -0.1580 C   0  0  0  0  0  0  0  0  0  0  0  0
    2.5839   -0.0009   -0.1095 C   0  0  0  0  0  0  0  0  0  0  0  0
    3.1571    0.0162   -1.5445 C   0  0  0  0  0  0  0  0  0  0  0  0
    3.0650   -1.2768    0.6137 C   0  0  0  0  0  0  0  0  0  0  0  0
    2.7155   -2.5446    0.1011 C   0  0  0  0  0  0  0  0  0  0  0  0
    3.1231   -3.7536    0.6876 C   0  0  0  0  0  0  0  0  0  0  0  0
    2.7672   -4.9690    0.1387 N   0  0  0  0  0  0  0  0  0  0  0  0
    2.5973   -6.1647    0.9578 C   0  0  0  0  0  0  0  0  0  0  0  0
    3.6058   -7.2169    0.5305 C   0  0  0  0  0  0  0  0  0  0  0  0
    3.5662   -7.5260   -0.9734 C   0  0  0  0  0  0  0  0  0  0  0  0
    2.6051   -8.5268   -1.4630 N   0  0  0  0  0  0  0  0  0  0  0  0
    1.1606   -8.3640   -1.2678 C   0  0  0  0  0  0  0  0  0  0  0  0
    0.5373   -9.1317   -0.0836 C   0  0  0  0  0  0  0  0  0  0  0  0
    0.9701  -10.4943   -0.0249 O   0  0  0  0  0  0  0  0  0  0  0  0
    2.3973  -10.5552    0.0294 C   0  0  0  0  0  0  0  0  0  0  0  0
    3.0095   -9.9243   -1.2267 C   0  0  0  0  0  0  0  0  0  0  0  0
    3.5526   -6.2264   -1.8042 C   0  0  0  0  0  0  0  0  0  0  0  0
    2.5987   -5.1484   -1.3038 C   0  0  0  0  0  0  0  0  0  0  0  0
    3.9009   -3.6628    1.8471 C   0  0  0  0  0  0  0  0  0  0  0  0
    4.2646   -2.4313    2.3907 C   0  0  0  0  0  0  0  0  0  0  0  0
    3.8586   -1.2422    1.7797 C   0  0  0  0  0  0  0  0  0  0  0  0
    4.3036    0.0332    2.4091 C   0  0  0  0  0  0  0  0  0  0  0  0
    5.0058    0.0349    3.4137 O   0  0  0  0  0  0  0  0  0  0  0  0
    3.8564    1.2441    1.7581 C   0  0  0  0  0  0  0  0  0  0  0  0
    3.0727    1.2243    0.6233 C   0  0  0  0  0  0  0  0  0  0  0  0
    2.8165    2.5250    0.2695 N   0  0  0  0  0  0  0  0  0  0  0  0
    3.4344    3.3834    1.1530 C   0  0  0  0  0  0  0  0  0  0  0  0
    3.4607    4.7828    1.1878 C   0  0  0  0  0  0  0  0  0  0  0  0
    4.1911    5.3939    2.2192 C   0  0  0  0  0  0  0  0  0  0  0  0
    4.2455    6.8234    2.2890 C   0  0  0  0  0  0  0  0  0  0  0  0
    4.2878    7.9838    2.3446 N   0  0  0  0  0  0  0  0  0  0  0  0
    4.8665    4.6299    3.1744 C   0  0  0  0  0  0  0  0  0  0  0  0
    4.8257    3.2334    3.1236 C   0  0  0  0  0  0  0  0  0  0  0  0
    4.0992    2.6010    2.0954 C   0  0  0  0  0  0  0  0  0  0  0  0
    0.6256   -0.8492   -0.6769 H   0  0  0  0  0  0  0  0  0  0  0  0
    0.6668    0.9091   -0.6834 H   0  0  0  0  0  0  0  0  0  0  0  0
    0.6117    0.0348    0.8519 H   0  0  0  0  0  0  0  0  0  0  0  0
    2.8367   -0.8524   -2.1306 H   0  0  0  0  0  0  0  0  0  0  0  0
    4.2545    0.0150   -1.5325 H   0  0  0  0  0  0  0  0  0  0  0  0
    2.8373    0.9085   -2.0958 H   0  0  0  0  0  0  0  0  0  0  0  0
    2.0765   -2.5873   -0.7773 H   0  0  0  0  0  0  0  0  0  0  0  0
    1.5734   -6.5268    0.8409 H   0  0  0  0  0  0  0  0  0  0  0  0
    2.7060   -5.9723    2.0308 H   0  0  0  0  0  0  0  0  0  0  0  0
    3.4862   -8.1184    1.1336 H   0  0  0  0  0  0  0  0  0  0  0  0
    4.6127   -6.8425    0.7663 H   0  0  0  0  0  0  0  0  0  0  0  0
    4.5534   -7.9521   -1.2052 H   0  0  0  0  0  0  0  0  0  0  0  0
    0.6912   -8.7589   -2.1789 H   0  0  0  0  0  0  0  0  0  0  0  0
    0.8503   -7.3198   -1.2252 H   0  0  0  0  0  0  0  0  0  0  0  0
   -0.5526   -9.1475   -0.1973 H   0  0  0  0  0  0  0  0  0  0  0  0
    0.7586   -8.6514    0.8743 H   0  0  0  0  0  0  0  0  0  0  0  0
    2.6852  -11.6090    0.0895 H   0  0  0  0  0  0  0  0  0  0  0  0
    2.7440  -10.0760    0.9497 H   0  0  0  0  0  0  0  0  0  0  0  0
    2.6655  -10.4999   -2.0954 H   0  0  0  0  0  0  0  0  0  0  0  0
    4.0995  -10.0340   -1.2068 H   0  0  0  0  0  0  0  0  0  0  0  0
    3.3571   -6.4384   -2.8627 H   0  0  0  0  0  0  0  0  0  0  0  0
    4.5692   -5.8063   -1.7727 H   0  0  0  0  0  0  0  0  0  0  0  0
    1.5568   -5.3931   -1.5245 H   0  0  0  0  0  0  0  0  0  0  0  0
    2.8231   -4.2402   -1.8742 H   0  0  0  0  0  0  0  0  0  0  0  0
    4.2753   -4.5551    2.3407 H   0  0  0  0  0  0  0  0  0  0  0  0
    4.8771   -2.4095    3.2903 H   0  0  0  0  0  0  0  0  0  0  0  0
    2.2626    2.8223   -0.5230 H   0  0  0  0  0  0  0  0  0  0  0  0
    2.9354    5.3745    0.4445 H   0  0  0  0  0  0  0  0  0  0  0  0
    5.4339    5.1086    3.9705 H   0  0  0  0  0  0  0  0  0  0  0  0
    5.3526    2.6398    3.8677 H   0  0  0  0  0  0  0  0  0  0  0  0
  1  2  1  0  0  0  0
  1 35  1  0  0  0  0
  1 36  1  0  0  0  0
  1 37  1  0  0  0  0
  2  3  1  0  0  0  0
  2  4  1  0  0  0  0
  2 25  1  0  0  0  0
  3 38  1  0  0  0  0
  3 39  1  0  0  0  0
  3 40  1  0  0  0  0
  4  5  1  0  0  0  0
  4 21  2  0  0  0  0
  5  6  2  0  0  0  0
  5 41  1  0  0  0  0
  6  7  1  0  0  0  0
  6 19  1  0  0  0  0
  7  8  1  0  0  0  0
  7 18  1  0  0  0  0
  8  9  1  0  0  0  0
  8 42  1  0  0  0  0
  8 43  1  0  0  0  0
  9 10  1  0  0  0  0
  9 44  1  0  0  0  0
  9 45  1  0  0  0  0
 10 11  1  0  0  0  0
 10 17  1  0  0  0  0
 10 46  1  0  0  0  0
 11 12  1  0  0  0  0
 11 16  1  0  0  0  0
 12 13  1  0  0  0  0
 12 47  1  0  0  0  0
 12 48  1  0  0  0  0
 13 14  1  0  0  0  0
 13 49  1  0  0  0  0
 13 50  1  0  0  0  0
 14 15  1  0  0  0  0
 15 16  1  0  0  0  0
 15 51  1  0  0  0  0
 15 52  1  0  0  0  0
 16 53  1  0  0  0  0
 16 54  1  0  0  0  0
 17 18  1  0  0  0  0
 17 55  1  0  0  0  0
 17 56  1  0  0  0  0
 18 57  1  0  0  0  0
 18 58  1  0  0  0  0
 19 20  2  0  0  0  0
 19 59  1  0  0  0  0
 20 21  1  0  0  0  0
 20 60  1  0  0  0  0
 21 22  1  0  0  0  0
 22 23  2  0  0  0  0
 22 24  1  0  0  0  0
 24 25  2  0  0  0  0
 24 34  1  0  0  0  0
 25 26  1  0  0  0  0
 26 27  1  0  0  0  0
 26 61  1  0  0  0  0
 27 28  1  0  0  0  0
 27 34  2  0  0  0  0
 28 29  2  0  0  0  0
 28 62  1  0  0  0  0
 29 30  1  0  0  0  0
 29 32  1  0  0  0  0
 30 31  3  0  0  0  0
 32 33  2  0  0  0  0
 32 63  1  0  0  0  0
 33 34  1  0  0  0  0
 33 64  1  0  0  0  0
M  END
$$$$
