CHEMBL1968791
 OpenBabel04072215363D

 68 73  0  0  1  0  0  0  0  0999 V2000
    0.7197    0.0472   -0.1748 C   0  0  0  0  0  0  0  0  0  0  0  0
    2.2114    0.0956   -0.1188 C   0  0  0  0  0  0  0  0  0  0  0  0
    3.0648    1.1931    0.0102 C   0  0  0  0  0  0  0  0  0  0  0  0
    2.5892    2.5745    0.0517 C   0  0  0  0  0  0  0  0  0  0  0  0
    1.4845    2.9921    0.8002 C   0  0  0  0  0  0  0  0  0  0  0  0
    1.0466    4.3180    0.7402 C   0  0  0  0  0  0  0  0  0  0  0  0
    1.7709    5.2593    0.0101 C   0  0  0  0  0  0  0  0  0  0  0  0
    2.8946    4.8655   -0.7091 C   0  0  0  0  0  0  0  0  0  0  0  0
    3.5692    5.8517   -1.3756 O   0  0  0  0  0  0  0  0  0  0  0  0
    4.6091    5.3861   -2.2415 C   0  0  0  0  0  0  0  0  0  0  0  0
    5.0365    6.4709   -3.1938 C   0  0  0  0  0  0  0  0  0  0  0  0
    5.1712    7.7981   -2.7737 C   0  0  0  0  0  0  0  0  0  0  0  0
    5.5664    8.7758   -3.6847 C   0  0  0  0  0  0  0  0  0  0  0  0
    5.8407    8.4282   -5.0073 C   0  0  0  0  0  0  0  0  0  0  0  0
    5.7290    7.1065   -5.4276 C   0  0  0  0  0  0  0  0  0  0  0  0
    5.3408    6.1260   -4.5191 C   0  0  0  0  0  0  0  0  0  0  0  0
    3.2598    3.5215   -0.7177 C   0  0  0  0  0  0  0  0  0  0  0  0
    4.4266    0.7094   -0.0134 C   0  0  0  0  0  0  0  0  0  0  0  0
    5.7321    1.2558    0.0297 C   0  0  0  0  0  0  0  0  0  0  0  0
    6.0448    2.6084    0.1052 N   0  0  0  0  0  0  0  0  0  0  0  0
    6.7927    0.4274   -0.0244 N   0  0  0  0  0  0  0  0  0  0  0  0
    6.5691   -0.8939   -0.1060 C   0  0  0  0  0  0  0  0  0  0  0  0
    5.3909   -1.5290   -0.1504 N   0  0  0  0  0  0  0  0  0  0  0  0
    4.3477   -0.6751   -0.1163 C   0  0  0  0  0  0  0  0  0  0  0  0
    3.0155   -1.0313   -0.1928 N   0  0  0  0  0  0  0  0  0  0  0  0
    2.5880   -2.4118   -0.0916 C   0  0  3  0  0  0  0  0  0  0  0  0
    3.1404   -3.3621   -1.1842 C   0  0  0  0  0  0  0  0  0  0  0  0
    1.8039   -4.1603   -1.0471 C   0  0  3  0  0  0  0  0  0  0  0  0
    1.7999   -5.3254   -0.0475 C   0  0  0  0  0  0  0  0  0  0  0  0
    0.4550   -5.8969    0.1635 N   0  0  0  0  0  0  0  0  0  0  0  0
    0.4996   -6.9584    1.1894 C   0  0  0  0  0  0  0  0  0  0  0  0
    0.8472   -8.2280    0.4342 C   0  0  0  0  0  0  0  0  0  0  0  0
    0.1270   -8.0593   -0.8877 C   0  0  0  0  0  0  0  0  0  0  0  0
   -0.0999   -6.5588   -1.0309 C   0  0  0  0  0  0  0  0  0  0  0  0
    1.1801   -2.8244   -0.5752 C   0  0  0  0  0  0  0  0  0  0  0  0
    0.2530    1.0312   -0.1971 H   0  0  0  0  0  0  0  0  0  0  0  0
    0.3236   -0.4824    0.6971 H   0  0  0  0  0  0  0  0  0  0  0  0
    0.3690   -0.4155   -1.0965 H   0  0  0  0  0  0  0  0  0  0  0  0
    0.9309    2.2915    1.4193 H   0  0  0  0  0  0  0  0  0  0  0  0
    0.1428    4.6154    1.2654 H   0  0  0  0  0  0  0  0  0  0  0  0
    1.4516    6.2976   -0.0082 H   0  0  0  0  0  0  0  0  0  0  0  0
    4.2298    4.5593   -2.8543 H   0  0  0  0  0  0  0  0  0  0  0  0
    5.4787    5.0571   -1.6577 H   0  0  0  0  0  0  0  0  0  0  0  0
    4.9584    8.0745   -1.7430 H   0  0  0  0  0  0  0  0  0  0  0  0
    5.6611    9.8086   -3.3627 H   0  0  0  0  0  0  0  0  0  0  0  0
    6.1423    9.1919   -5.7188 H   0  0  0  0  0  0  0  0  0  0  0  0
    5.9491    6.8281   -6.4511 H   0  0  0  0  0  0  0  0  0  0  0  0
    5.2584    5.0920   -4.8470 H   0  0  0  0  0  0  0  0  0  0  0  0
    4.0893    3.1757   -1.3239 H   0  0  0  0  0  0  0  0  0  0  0  0
    5.4010    3.1709    0.6466 H   0  0  0  0  0  0  0  0  0  0  0  0
    7.0289    2.7462    0.3061 H   0  0  0  0  0  0  0  0  0  0  0  0
    7.4573   -1.5186   -0.1425 H   0  0  0  0  0  0  0  0  0  0  0  0
    2.8531   -2.7958    0.9049 H   0  0  0  0  0  0  0  0  0  0  0  0
    4.0486   -3.9196   -0.9433 H   0  0  0  0  0  0  0  0  0  0  0  0
    3.2601   -2.9029   -2.1750 H   0  0  0  0  0  0  0  0  0  0  0  0
    1.4342   -4.4687   -2.0317 H   0  0  0  0  0  0  0  0  0  0  0  0
    2.1576   -4.9566    0.9225 H   0  0  0  0  0  0  0  0  0  0  0  0
    2.5121   -6.0881   -0.3792 H   0  0  0  0  0  0  0  0  0  0  0  0
   -0.4949   -7.0572    1.6421 H   0  0  0  0  0  0  0  0  0  0  0  0
    1.2032   -6.7542    2.0039 H   0  0  0  0  0  0  0  0  0  0  0  0
    0.5316   -9.1327    0.9621 H   0  0  0  0  0  0  0  0  0  0  0  0
    1.9284   -8.2968    0.2653 H   0  0  0  0  0  0  0  0  0  0  0  0
   -0.8346   -8.5850   -0.8694 H   0  0  0  0  0  0  0  0  0  0  0  0
    0.7189   -8.4643   -1.7147 H   0  0  0  0  0  0  0  0  0  0  0  0
   -1.1777   -6.3582   -1.0683 H   0  0  0  0  0  0  0  0  0  0  0  0
    0.3072   -6.1998   -1.9793 H   0  0  0  0  0  0  0  0  0  0  0  0
    0.4036   -2.8845    0.1906 H   0  0  0  0  0  0  0  0  0  0  0  0
    0.7861   -2.2959   -1.4494 H   0  0  0  0  0  0  0  0  0  0  0  0
  1  2  1  0  0  0  0
  1 36  1  0  0  0  0
  1 37  1  0  0  0  0
  1 38  1  0  0  0  0
  2  3  2  0  0  0  0
  2 25  1  0  0  0  0
  3  4  1  0  0  0  0
  3 18  1  0  0  0  0
  4  5  1  0  0  0  0
  4 17  2  0  0  0  0
  5  6  2  0  0  0  0
  5 39  1  0  0  0  0
  6  7  1  0  0  0  0
  6 40  1  0  0  0  0
  7  8  2  0  0  0  0
  7 41  1  0  0  0  0
  8  9  1  0  0  0  0
  8 17  1  0  0  0  0
  9 10  1  0  0  0  0
 10 11  1  0  0  0  0
 10 42  1  0  0  0  0
 10 43  1  0  0  0  0
 11 12  1  0  0  0  0
 11 16  2  0  0  0  0
 12 13  2  0  0  0  0
 12 44  1  0  0  0  0
 13 14  1  0  0  0  0
 13 45  1  0  0  0  0
 14 15  2  0  0  0  0
 14 46  1  0  0  0  0
 15 16  1  0  0  0  0
 15 47  1  0  0  0  0
 16 48  1  0  0  0  0
 17 49  1  0  0  0  0
 18 19  1  0  0  0  0
 18 24  2  0  0  0  0
 19 20  1  0  0  0  0
 19 21  2  0  0  0  0
 20 50  1  0  0  0  0
 20 51  1  0  0  0  0
 21 22  1  0  0  0  0
 22 23  2  0  0  0  0
 22 52  1  0  0  0  0
 23 24  1  0  0  0  0
 24 25  1  0  0  0  0
 25 26  1  0  0  0  0
 26 27  1  0  0  0  0
 26 35  1  0  0  0  0
 26 53  1  0  0  0  0
 27 28  1  0  0  0  0
 27 54  1  0  0  0  0
 27 55  1  0  0  0  0
 28 29  1  0  0  0  0
 28 35  1  0  0  0  0
 28 56  1  0  0  0  0
 29 30  1  0  0  0  0
 29 57  1  0  0  0  0
 29 58  1  0  0  0  0
 30 31  1  0  0  0  0
 30 34  1  0  0  0  0
 31 32  1  0  0  0  0
 31 59  1  0  0  0  0
 31 60  1  0  0  0  0
 32 33  1  0  0  0  0
 32 61  1  0  0  0  0
 32 62  1  0  0  0  0
 33 34  1  0  0  0  0
 33 63  1  0  0  0  0
 33 64  1  0  0  0  0
 34 65  1  0  0  0  0
 34 66  1  0  0  0  0
 35 67  1  0  0  0  0
 35 68  1  0  0  0  0
M  END
$$$$
