CHEMBL3690507
 OpenBabel04072215373D

 41 44  0  0  0  0  0  0  0  0999 V2000
    7.0684   -2.1838   -4.0155 N   0  0  0  0  0  0  0  0  0  0  0  0
    6.3364   -1.5961   -3.0287 C   0  0  0  0  0  0  0  0  0  0  0  0
    5.1952   -1.9837   -2.8139 O   0  0  0  0  0  0  0  0  0  0  0  0
    7.0209   -0.5843   -2.4119 N   0  0  0  0  0  0  0  0  0  0  0  0
    6.5570    0.2226   -1.3524 C   0  0  0  0  0  0  0  0  0  0  0  0
    5.4265   -0.0749   -0.5962 C   0  0  0  0  0  0  0  0  0  0  0  0
    4.9891    0.8084    0.3915 C   0  0  0  0  0  0  0  0  0  0  0  0
    5.6706    2.0058    0.6165 C   0  0  0  0  0  0  0  0  0  0  0  0
    6.8240    2.3194   -0.1141 C   0  0  0  0  0  0  0  0  0  0  0  0
    7.5312    3.5829    0.1384 C   0  0  0  0  0  0  0  0  0  0  0  0
    7.6851    4.2811    1.3278 C   0  0  0  0  0  0  0  0  0  0  0  0
    8.4217    5.4234    1.1718 N   0  0  0  0  0  0  0  0  0  0  0  0
    8.7226    5.4643   -0.1052 C   0  0  0  0  0  0  0  0  0  0  0  0
    9.4602    6.4305   -0.8516 C   0  0  0  0  0  0  0  0  0  0  0  0
    9.6366    6.2768   -2.1835 C   0  0  0  0  0  0  0  0  0  0  0  0
   10.3487    7.3278   -2.9242 C   0  0  0  0  0  0  0  0  0  0  0  0
   11.7397    7.2729   -3.0786 C   0  0  0  0  0  0  0  0  0  0  0  0
   12.3969    8.2615   -3.8115 C   0  0  0  0  0  0  0  0  0  0  0  0
   11.6630    9.2922   -4.3893 C   0  0  0  0  0  0  0  0  0  0  0  0
   12.2972   10.2390   -5.0926 F   0  0  0  0  0  0  0  0  0  0  0  0
   10.2809    9.3530   -4.2531 C   0  0  0  0  0  0  0  0  0  0  0  0
    9.6206    8.3676   -3.5215 C   0  0  0  0  0  0  0  0  0  0  0  0
    9.0703    5.1207   -2.8704 C   0  0  0  0  0  0  0  0  0  0  0  0
    8.3449    4.2293   -2.1798 C   0  0  0  0  0  0  0  0  0  0  0  0
    8.1869    4.3778   -0.7987 N   0  0  0  0  0  0  0  0  0  0  0  0
    7.2776    1.3886   -1.0635 C   0  0  0  0  0  0  0  0  0  0  0  0
    6.5921   -2.9861   -4.4128 H   0  0  0  0  0  0  0  0  0  0  0  0
    8.0480   -2.3448   -3.8238 H   0  0  0  0  0  0  0  0  0  0  0  0
    7.8373   -0.2638   -2.9120 H   0  0  0  0  0  0  0  0  0  0  0  0
    4.8668   -0.9932   -0.7484 H   0  0  0  0  0  0  0  0  0  0  0  0
    4.1054    0.5652    0.9761 H   0  0  0  0  0  0  0  0  0  0  0  0
    5.2830    2.6888    1.3694 H   0  0  0  0  0  0  0  0  0  0  0  0
    7.3051    4.0040    2.3039 H   0  0  0  0  0  0  0  0  0  0  0  0
    9.8463    7.2897   -0.3130 H   0  0  0  0  0  0  0  0  0  0  0  0
   12.3126    6.4617   -2.6350 H   0  0  0  0  0  0  0  0  0  0  0  0
   13.4755    8.2344   -3.9385 H   0  0  0  0  0  0  0  0  0  0  0  0
    9.7282   10.1634   -4.7177 H   0  0  0  0  0  0  0  0  0  0  0  0
    8.5373    8.4091   -3.4204 H   0  0  0  0  0  0  0  0  0  0  0  0
    9.2286    5.0148   -3.9392 H   0  0  0  0  0  0  0  0  0  0  0  0
    7.8712    3.3943   -2.6720 H   0  0  0  0  0  0  0  0  0  0  0  0
    8.2050    1.5716   -1.5964 H   0  0  0  0  0  0  0  0  0  0  0  0
  1  2  1  0  0  0  0
  1 27  1  0  0  0  0
  1 28  1  0  0  0  0
  2  3  2  0  0  0  0
  2  4  1  0  0  0  0
  4  5  1  0  0  0  0
  4 29  1  0  0  0  0
  5  6  1  0  0  0  0
  5 26  2  0  0  0  0
  6  7  2  0  0  0  0
  6 30  1  0  0  0  0
  7  8  1  0  0  0  0
  7 31  1  0  0  0  0
  8  9  2  0  0  0  0
  8 32  1  0  0  0  0
  9 10  1  0  0  0  0
  9 26  1  0  0  0  0
 10 11  2  0  0  0  0
 10 25  1  0  0  0  0
 11 12  1  0  0  0  0
 11 33  1  0  0  0  0
 12 13  2  0  0  0  0
 13 14  1  0  0  0  0
 13 25  1  0  0  0  0
 14 15  2  0  0  0  0
 14 34  1  0  0  0  0
 15 16  1  0  0  0  0
 15 23  1  0  0  0  0
 16 17  1  0  0  0  0
 16 22  2  0  0  0  0
 17 18  2  0  0  0  0
 17 35  1  0  0  0  0
 18 19  1  0  0  0  0
 18 36  1  0  0  0  0
 19 20  1  0  0  0  0
 19 21  2  0  0  0  0
 21 22  1  0  0  0  0
 21 37  1  0  0  0  0
 22 38  1  0  0  0  0
 23 24  2  0  0  0  0
 23 39  1  0  0  0  0
 24 25  1  0  0  0  0
 24 40  1  0  0  0  0
 26 41  1  0  0  0  0
M  END
$$$$
