CHEMBL3741311
 OpenBabel04072215373D

 61 65  0  0  0  0  0  0  0  0999 V2000
    7.7038   -1.5545    4.4556 C   0  0  0  0  0  0  0  0  0  0  0  0
    5.9453   -1.4507    4.6914 S   0  0  0  0  0  0  0  0  0  0  0  0
    5.5925   -2.2851    5.8172 O   0  0  0  0  0  0  0  0  0  0  0  0
    5.6007   -0.0360    4.7074 O   0  0  0  0  0  0  0  0  0  0  0  0
    5.2182   -2.1399    3.2041 C   0  0  0  0  0  0  0  0  0  0  0  0
    5.6203   -3.5731    2.9823 C   0  0  0  0  0  0  0  0  0  0  0  0
    4.8769   -4.6274    3.5267 C   0  0  0  0  0  0  0  0  0  0  0  0
    5.2326   -5.9518    3.2675 C   0  0  0  0  0  0  0  0  0  0  0  0
    6.3424   -6.2373    2.4714 C   0  0  0  0  0  0  0  0  0  0  0  0
    7.1300   -5.2055    1.9543 C   0  0  0  0  0  0  0  0  0  0  0  0
    8.2228   -5.5263    1.1268 N   0  0  0  0  0  0  0  0  0  0  0  0
    9.3696   -4.7466    0.9475 C   0  0  0  0  0  0  0  0  0  0  0  0
    9.8782   -4.7238   -0.2937 N   0  0  0  0  0  0  0  0  0  0  0  0
   10.9728   -3.9682   -0.4904 C   0  0  0  0  0  0  0  0  0  0  0  0
   11.5812   -3.2508    0.5077 C   0  0  0  0  0  0  0  0  0  0  0  0
   11.0177   -3.3712    1.7615 C   0  0  0  0  0  0  0  0  0  0  0  0
   11.4934   -2.7301    2.8855 O   0  0  0  0  0  0  0  0  0  0  0  0
   12.8216   -2.3885    2.9242 C   0  0  0  0  0  0  0  0  0  0  0  0
   13.1372   -1.0760    3.2669 C   0  0  0  0  0  0  0  0  0  0  0  0
   14.4588   -0.6385    3.1496 C   0  0  0  0  0  0  0  0  0  0  0  0
   15.4810   -1.5429    2.7986 C   0  0  0  0  0  0  0  0  0  0  0  0
   16.8400   -1.2051    2.7128 C   0  0  0  0  0  0  0  0  0  0  0  0
   17.5024   -1.6605    1.3543 C   0  0  0  0  0  0  0  0  0  0  0  0
   16.8097   -1.8299    0.3555 O   0  0  0  0  0  0  0  0  0  0  0  0
   18.8818   -1.8986    1.4154 N   0  0  0  0  0  0  0  0  0  0  0  0
   19.7280   -2.4814    0.4385 C   0  0  0  0  0  0  0  0  0  0  0  0
   19.3529   -2.7439   -0.8761 C   0  0  0  0  0  0  0  0  0  0  0  0
   20.2869   -3.3196   -1.7354 C   0  0  0  0  0  0  0  0  0  0  0  0
   21.5422   -3.6607   -1.3749 N   0  0  0  0  0  0  0  0  0  0  0  0
   21.8847   -3.4063   -0.0988 C   0  0  0  0  0  0  0  0  0  0  0  0
   21.0320   -2.8218    0.8271 C   0  0  0  0  0  0  0  0  0  0  0  0
   17.5286   -1.7318    3.7842 C   0  0  0  0  0  0  0  0  0  0  0  0
   17.2858   -3.0742    4.0639 C   0  0  0  0  0  0  0  0  0  0  0  0
   16.1768   -3.7097    3.4785 C   0  0  0  0  0  0  0  0  0  0  0  0
   15.1708   -2.9017    2.9299 C   0  0  0  0  0  0  0  0  0  0  0  0
   13.8425   -3.3310    2.7922 C   0  0  0  0  0  0  0  0  0  0  0  0
    9.9010   -4.0846    1.9860 N   0  0  0  0  0  0  0  0  0  0  0  0
    6.7381   -3.8803    2.1911 C   0  0  0  0  0  0  0  0  0  0  0  0
    8.1854   -1.0801    5.3141 H   0  0  0  0  0  0  0  0  0  0  0  0
    7.9659   -1.0166    3.5419 H   0  0  0  0  0  0  0  0  0  0  0  0
    8.0080   -2.5996    4.4003 H   0  0  0  0  0  0  0  0  0  0  0  0
    5.5228   -1.5089    2.3633 H   0  0  0  0  0  0  0  0  0  0  0  0
    4.1306   -2.0559    3.3027 H   0  0  0  0  0  0  0  0  0  0  0  0
    4.0102   -4.4275    4.1550 H   0  0  0  0  0  0  0  0  0  0  0  0
    4.6425   -6.7659    3.6863 H   0  0  0  0  0  0  0  0  0  0  0  0
    6.6079   -7.2732    2.2781 H   0  0  0  0  0  0  0  0  0  0  0  0
    7.9353   -5.8311    0.2032 H   0  0  0  0  0  0  0  0  0  0  0  0
   11.3551   -3.9563   -1.5088 H   0  0  0  0  0  0  0  0  0  0  0  0
   12.4507   -2.6430    0.3000 H   0  0  0  0  0  0  0  0  0  0  0  0
   12.3633   -0.4016    3.6249 H   0  0  0  0  0  0  0  0  0  0  0  0
   14.7038    0.3883    3.4131 H   0  0  0  0  0  0  0  0  0  0  0  0
   19.3311   -1.7426    2.3045 H   0  0  0  0  0  0  0  0  0  0  0  0
   18.3706   -2.5078   -1.2595 H   0  0  0  0  0  0  0  0  0  0  0  0
   20.0402   -3.5210   -2.7746 H   0  0  0  0  0  0  0  0  0  0  0  0
   22.8979   -3.6988    0.1704 H   0  0  0  0  0  0  0  0  0  0  0  0
   21.3895   -2.6626    1.8377 H   0  0  0  0  0  0  0  0  0  0  0  0
   18.2923   -1.1478    4.2822 H   0  0  0  0  0  0  0  0  0  0  0  0
   17.9179   -3.6067    4.7636 H   0  0  0  0  0  0  0  0  0  0  0  0
   15.9971   -4.7614    3.6766 H   0  0  0  0  0  0  0  0  0  0  0  0
   13.6012   -4.3881    2.7287 H   0  0  0  0  0  0  0  0  0  0  0  0
    7.3165   -3.0716    1.7466 H   0  0  0  0  0  0  0  0  0  0  0  0
  1  2  1  0  0  0  0
  1 39  1  0  0  0  0
  1 40  1  0  0  0  0
  1 41  1  0  0  0  0
  2  3  2  0  0  0  0
  2  4  2  0  0  0  0
  2  5  1  0  0  0  0
  5  6  1  0  0  0  0
  5 42  1  0  0  0  0
  5 43  1  0  0  0  0
  6  7  1  0  0  0  0
  6 38  2  0  0  0  0
  7  8  2  0  0  0  0
  7 44  1  0  0  0  0
  8  9  1  0  0  0  0
  8 45  1  0  0  0  0
  9 10  2  0  0  0  0
  9 46  1  0  0  0  0
 10 11  1  0  0  0  0
 10 38  1  0  0  0  0
 11 12  1  0  0  0  0
 11 47  1  0  0  0  0
 12 13  1  0  0  0  0
 12 37  2  0  0  0  0
 13 14  2  0  0  0  0
 14 15  1  0  0  0  0
 14 48  1  0  0  0  0
 15 16  2  0  0  0  0
 15 49  1  0  0  0  0
 16 17  1  0  0  0  0
 16 37  1  0  0  0  0
 17 18  1  0  0  0  0
 18 19  1  0  0  0  0
 18 36  2  0  0  0  0
 19 20  2  0  0  0  0
 19 50  1  0  0  0  0
 20 21  1  0  0  0  0
 20 51  1  0  0  0  0
 21 22  1  0  0  0  0
 21 35  2  0  0  0  0
 22 23  1  0  0  0  0
 22 32  2  0  0  0  0
 23 24  2  0  0  0  0
 23 25  1  0  0  0  0
 25 26  1  0  0  0  0
 25 52  1  0  0  0  0
 26 27  1  0  0  0  0
 26 31  2  0  0  0  0
 27 28  2  0  0  0  0
 27 53  1  0  0  0  0
 28 29  1  0  0  0  0
 28 54  1  0  0  0  0
 29 30  2  0  0  0  0
 30 31  1  0  0  0  0
 30 55  1  0  0  0  0
 31 56  1  0  0  0  0
 32 33  1  0  0  0  0
 32 57  1  0  0  0  0
 33 34  2  0  0  0  0
 33 58  1  0  0  0  0
 34 35  1  0  0  0  0
 34 59  1  0  0  0  0
 35 36  1  0  0  0  0
 36 60  1  0  0  0  0
 38 61  1  0  0  0  0
M  END
$$$$
