CHEMBL3690454
 OpenBabel04072215373D

 49 52  0  0  0  0  0  0  0  0999 V2000
    2.5227    0.1780    0.2896 C   0  0  0  0  0  0  0  0  0  0  0  0
    1.0331    0.0904    0.2027 C   0  0  0  0  0  0  0  0  0  0  0  0
    0.3344   -0.9968    0.7193 C   0  0  0  0  0  0  0  0  0  0  0  0
   -1.0553   -1.0261    0.6307 C   0  0  0  0  0  0  0  0  0  0  0  0
   -1.7253    0.0446    0.0387 C   0  0  0  0  0  0  0  0  0  0  0  0
   -3.2089    0.1089   -0.0411 C   0  0  0  0  0  0  0  0  0  0  0  0
   -3.9057    0.7590   -1.1610 C   0  0  0  0  0  0  0  0  0  0  0  0
   -5.2477    0.8470   -1.1702 C   0  0  0  0  0  0  0  0  0  0  0  0
   -5.9814    0.3369   -0.0972 N   0  0  0  0  0  0  0  0  0  0  0  0
   -7.3472    0.3267    0.1696 C   0  0  0  0  0  0  0  0  0  0  0  0
   -8.4438    0.8915   -0.6325 C   0  0  0  0  0  0  0  0  0  0  0  0
   -9.6668    0.2046   -0.6477 C   0  0  0  0  0  0  0  0  0  0  0  0
  -10.7574    0.6987   -1.3521 C   0  0  0  0  0  0  0  0  0  0  0  0
  -10.6483    1.8949   -2.0502 C   0  0  0  0  0  0  0  0  0  0  0  0
   -9.4591    2.6300   -2.0347 C   0  0  0  0  0  0  0  0  0  0  0  0
   -9.3259    3.8750   -2.7051 N   0  0  0  0  0  0  0  0  0  0  0  0
  -10.3321    4.5652   -3.3382 C   0  0  0  0  0  0  0  0  0  0  0  0
  -11.5152    4.2529   -3.4036 O   0  0  0  0  0  0  0  0  0  0  0  0
   -9.8872    5.6982   -3.9805 N   0  0  0  0  0  0  0  0  0  0  0  0
  -10.8863    6.5382   -4.6610 C   0  0  0  0  0  0  0  0  0  0  0  0
  -11.7605    7.4190   -3.7514 C   0  0  0  0  0  0  0  0  0  0  0  0
  -11.3240    7.4210   -2.4720 F   0  0  0  0  0  0  0  0  0  0  0  0
  -11.7127    8.7065   -4.1812 F   0  0  0  0  0  0  0  0  0  0  0  0
  -13.0550    7.0446   -3.7580 F   0  0  0  0  0  0  0  0  0  0  0  0
   -8.3563    2.1161   -1.3247 C   0  0  0  0  0  0  0  0  0  0  0  0
   -7.4443   -0.3921    1.3567 C   0  0  0  0  0  0  0  0  0  0  0  0
   -6.2298   -0.7784    1.8380 N   0  0  0  0  0  0  0  0  0  0  0  0
   -5.3634   -0.3163    0.9681 C   0  0  0  0  0  0  0  0  0  0  0  0
   -3.9448   -0.3978    0.9757 C   0  0  0  0  0  0  0  0  0  0  0  0
   -1.0602    1.0963   -0.4982 N   0  0  0  0  0  0  0  0  0  0  0  0
    0.2901    1.0973   -0.4015 C   0  0  0  0  0  0  0  0  0  0  0  0
    2.9430   -0.6850    0.8159 H   0  0  0  0  0  0  0  0  0  0  0  0
    2.8167    1.0785    0.8389 H   0  0  0  0  0  0  0  0  0  0  0  0
    2.9604    0.2068   -0.7133 H   0  0  0  0  0  0  0  0  0  0  0  0
    0.8575   -1.8213    1.1967 H   0  0  0  0  0  0  0  0  0  0  0  0
   -1.5925   -1.8820    1.0264 H   0  0  0  0  0  0  0  0  0  0  0  0
   -3.3053    1.1612   -1.9724 H   0  0  0  0  0  0  0  0  0  0  0  0
   -5.7848    1.3004   -1.9906 H   0  0  0  0  0  0  0  0  0  0  0  0
   -9.7908   -0.7311   -0.1057 H   0  0  0  0  0  0  0  0  0  0  0  0
  -11.7013    0.1565   -1.3554 H   0  0  0  0  0  0  0  0  0  0  0  0
  -11.5234    2.2240   -2.5972 H   0  0  0  0  0  0  0  0  0  0  0  0
   -8.4112    4.3033   -2.6903 H   0  0  0  0  0  0  0  0  0  0  0  0
   -9.0838    6.1657   -3.5866 H   0  0  0  0  0  0  0  0  0  0  0  0
  -11.5385    5.8853   -5.2526 H   0  0  0  0  0  0  0  0  0  0  0  0
  -10.3348    7.1637   -5.3648 H   0  0  0  0  0  0  0  0  0  0  0  0
   -7.4397    2.6947   -1.2788 H   0  0  0  0  0  0  0  0  0  0  0  0
   -8.3489   -0.6429    1.8964 H   0  0  0  0  0  0  0  0  0  0  0  0
   -3.5019   -0.8627    1.8488 H   0  0  0  0  0  0  0  0  0  0  0  0
    0.7743    1.9687   -0.8350 H   0  0  0  0  0  0  0  0  0  0  0  0
  1  2  1  0  0  0  0
  1 32  1  0  0  0  0
  1 33  1  0  0  0  0
  1 34  1  0  0  0  0
  2  3  1  0  0  0  0
  2 31  2  0  0  0  0
  3  4  2  0  0  0  0
  3 35  1  0  0  0  0
  4  5  1  0  0  0  0
  4 36  1  0  0  0  0
  5  6  1  0  0  0  0
  5 30  2  0  0  0  0
  6  7  1  0  0  0  0
  6 29  2  0  0  0  0
  7  8  2  0  0  0  0
  7 37  1  0  0  0  0
  8  9  1  0  0  0  0
  8 38  1  0  0  0  0
  9 10  1  0  0  0  0
  9 28  1  0  0  0  0
 10 11  1  0  0  0  0
 10 26  2  0  0  0  0
 11 12  1  0  0  0  0
 11 25  2  0  0  0  0
 12 13  2  0  0  0  0
 12 39  1  0  0  0  0
 13 14  1  0  0  0  0
 13 40  1  0  0  0  0
 14 15  2  0  0  0  0
 14 41  1  0  0  0  0
 15 16  1  0  0  0  0
 15 25  1  0  0  0  0
 16 17  1  0  0  0  0
 16 42  1  0  0  0  0
 17 18  2  0  0  0  0
 17 19  1  0  0  0  0
 19 20  1  0  0  0  0
 19 43  1  0  0  0  0
 20 21  1  0  0  0  0
 20 44  1  0  0  0  0
 20 45  1  0  0  0  0
 21 22  1  0  0  0  0
 21 23  1  0  0  0  0
 21 24  1  0  0  0  0
 25 46  1  0  0  0  0
 26 27  1  0  0  0  0
 26 47  1  0  0  0  0
 27 28  2  0  0  0  0
 28 29  1  0  0  0  0
 29 48  1  0  0  0  0
 30 31  1  0  0  0  0
 31 49  1  0  0  0  0
M  END
$$$$
