CHEMBL255955
 OpenBabel04072215363D

 45 48  0  0  0  0  0  0  0  0999 V2000
    1.3533   -0.1887   -1.7107 N   0  0  0  0  0  0  0  0  0  0  0  0
    2.6687   -0.2405   -1.4277 C   0  0  0  0  0  0  0  0  0  0  0  0
    3.4734    0.7508   -1.8002 N   0  0  0  0  0  0  0  0  0  0  0  0
    4.6645    0.3900   -1.3015 N   0  0  0  0  0  0  0  0  0  0  0  0
    4.6484   -0.7986   -0.6358 C   0  0  0  0  0  0  0  0  0  0  0  0
    5.7135   -1.3495   -0.0223 N   0  0  0  0  0  0  0  0  0  0  0  0
    5.4225   -2.5260    0.5605 C   0  0  0  0  0  0  0  0  0  0  0  0
    4.1799   -3.1419    0.5416 C   0  0  0  0  0  0  0  0  0  0  0  0
    3.0776   -2.5316   -0.0991 C   0  0  0  0  0  0  0  0  0  0  0  0
    1.7398   -3.1537   -0.0551 C   0  0  0  0  0  0  0  0  0  0  0  0
    1.3042   -3.7864    1.1202 C   0  0  0  0  0  0  0  0  0  0  0  0
    0.0334   -4.3541    1.2226 C   0  0  0  0  0  0  0  0  0  0  0  0
   -0.8720   -4.2678    0.1701 C   0  0  0  0  0  0  0  0  0  0  0  0
   -2.1955   -4.7530    0.2764 N   0  0  0  0  0  0  0  0  0  0  0  0
   -2.8531   -4.9526    1.4783 C   0  0  0  0  0  0  0  0  0  0  0  0
   -2.4400   -4.5846    2.5730 O   0  0  0  0  0  0  0  0  0  0  0  0
   -4.0368   -5.6552    1.3013 N   0  0  0  0  0  0  0  0  0  0  0  0
   -4.9054   -5.9173    2.3850 C   0  0  0  0  0  0  0  0  0  0  0  0
   -5.1631   -4.9535    3.3668 C   0  0  0  0  0  0  0  0  0  0  0  0
   -5.9932   -5.2471    4.4458 C   0  0  0  0  0  0  0  0  0  0  0  0
   -6.5611   -6.5144    4.5598 C   0  0  0  0  0  0  0  0  0  0  0  0
   -6.3119   -7.4950    3.5875 C   0  0  0  0  0  0  0  0  0  0  0  0
   -6.8580   -8.8924    3.7353 C   0  0  0  0  0  0  0  0  0  0  0  0
   -7.6837   -9.0483    4.8067 F   0  0  0  0  0  0  0  0  0  0  0  0
   -7.5750   -9.2886    2.6482 F   0  0  0  0  0  0  0  0  0  0  0  0
   -5.8705   -9.8187    3.8874 F   0  0  0  0  0  0  0  0  0  0  0  0
   -5.5040   -7.1747    2.4808 C   0  0  0  0  0  0  0  0  0  0  0  0
   -0.4455   -3.7005   -1.0309 C   0  0  0  0  0  0  0  0  0  0  0  0
    0.8543   -3.1746   -1.1445 C   0  0  0  0  0  0  0  0  0  0  0  0
    3.3439   -1.2802   -0.7145 C   0  0  0  0  0  0  0  0  0  0  0  0
    1.0304    0.7075   -2.0654 H   0  0  0  0  0  0  0  0  0  0  0  0
    0.6982   -0.6052   -1.0587 H   0  0  0  0  0  0  0  0  0  0  0  0
    5.4652    0.9958   -1.4315 H   0  0  0  0  0  0  0  0  0  0  0  0
    6.2553   -2.9945    1.0795 H   0  0  0  0  0  0  0  0  0  0  0  0
    4.0731   -4.1016    1.0403 H   0  0  0  0  0  0  0  0  0  0  0  0
    1.9444   -3.8388    1.9988 H   0  0  0  0  0  0  0  0  0  0  0  0
   -0.2212   -4.8516    2.1543 H   0  0  0  0  0  0  0  0  0  0  0  0
   -2.7871   -4.6709   -0.5377 H   0  0  0  0  0  0  0  0  0  0  0  0
   -3.9993   -6.3458    0.5652 H   0  0  0  0  0  0  0  0  0  0  0  0
   -4.7154   -3.9637    3.3052 H   0  0  0  0  0  0  0  0  0  0  0  0
   -6.1809   -4.4913    5.2046 H   0  0  0  0  0  0  0  0  0  0  0  0
   -7.1871   -6.7387    5.4209 H   0  0  0  0  0  0  0  0  0  0  0  0
   -5.2949   -7.9409    1.7373 H   0  0  0  0  0  0  0  0  0  0  0  0
   -1.1109   -3.6319   -1.8875 H   0  0  0  0  0  0  0  0  0  0  0  0
    1.1586   -2.7572   -2.1034 H   0  0  0  0  0  0  0  0  0  0  0  0
  1  2  1  0  0  0  0
  1 31  1  0  0  0  0
  1 32  1  0  0  0  0
  2  3  2  0  0  0  0
  2 30  1  0  0  0  0
  3  4  1  0  0  0  0
  4  5  1  0  0  0  0
  4 33  1  0  0  0  0
  5  6  1  0  0  0  0
  5 30  2  0  0  0  0
  6  7  2  0  0  0  0
  7  8  1  0  0  0  0
  7 34  1  0  0  0  0
  8  9  2  0  0  0  0
  8 35  1  0  0  0  0
  9 10  1  0  0  0  0
  9 30  1  0  0  0  0
 10 11  1  0  0  0  0
 10 29  2  0  0  0  0
 11 12  2  0  0  0  0
 11 36  1  0  0  0  0
 12 13  1  0  0  0  0
 12 37  1  0  0  0  0
 13 14  1  0  0  0  0
 13 28  2  0  0  0  0
 14 15  1  0  0  0  0
 14 38  1  0  0  0  0
 15 16  2  0  0  0  0
 15 17  1  0  0  0  0
 17 18  1  0  0  0  0
 17 39  1  0  0  0  0
 18 19  1  0  0  0  0
 18 27  2  0  0  0  0
 19 20  2  0  0  0  0
 19 40  1  0  0  0  0
 20 21  1  0  0  0  0
 20 41  1  0  0  0  0
 21 22  2  0  0  0  0
 21 42  1  0  0  0  0
 22 23  1  0  0  0  0
 22 27  1  0  0  0  0
 23 24  1  0  0  0  0
 23 25  1  0  0  0  0
 23 26  1  0  0  0  0
 27 43  1  0  0  0  0
 28 29  1  0  0  0  0
 28 44  1  0  0  0  0
 29 45  1  0  0  0  0
M  END
$$$$
