CHEMBL3928457
 OpenBabel04072215373D

 45 48  0  0  0  0  0  0  0  0999 V2000
    1.0512    0.0772    0.1637 N   0  0  0  0  0  0  0  0  0  0  0  0
    2.3854    0.0036    0.1283 C   0  0  0  0  0  0  0  0  0  0  0  0
    3.1463    1.0942    0.0881 N   0  0  0  0  0  0  0  0  0  0  0  0
    4.3960    0.6103    0.0736 N   0  0  0  0  0  0  0  0  0  0  0  0
    4.4730   -0.7551    0.0917 C   0  0  0  0  0  0  0  0  0  0  0  0
    5.5760   -1.6129    0.0809 C   0  0  0  0  0  0  0  0  0  0  0  0
    5.3191   -2.9869    0.0992 C   0  0  0  0  0  0  0  0  0  0  0  0
    4.0099   -3.4729    0.1319 C   0  0  0  0  0  0  0  0  0  0  0  0
    2.9170   -2.5936    0.1497 C   0  0  0  0  0  0  0  0  0  0  0  0
    1.5722   -3.0917    0.1678 C   0  0  0  0  0  0  0  0  0  0  0  0
    0.4395   -3.4833    0.1501 C   0  0  0  0  0  0  0  0  0  0  0  0
   -0.9232   -3.9290    0.0706 C   0  0  0  0  0  0  0  0  0  0  0  0
   -1.2114   -5.2941    0.0842 C   0  0  0  0  0  0  0  0  0  0  0  0
   -2.5266   -5.7245   -0.0504 C   0  0  0  0  0  0  0  0  0  0  0  0
   -3.5524   -4.7895   -0.2045 C   0  0  0  0  0  0  0  0  0  0  0  0
   -3.2917   -3.4132   -0.1989 C   0  0  0  0  0  0  0  0  0  0  0  0
   -4.3176   -2.4431   -0.3615 N   0  0  0  0  0  0  0  0  0  0  0  0
   -5.6656   -2.6945   -0.1636 C   0  0  0  0  0  0  0  0  0  0  0  0
   -6.1137   -3.7472    0.2809 O   0  0  0  0  0  0  0  0  0  0  0  0
   -6.4793   -1.6287   -0.5474 N   0  0  0  0  0  0  0  0  0  0  0  0
   -7.8847   -1.8072   -0.4317 C   0  0  0  0  0  0  0  0  0  0  0  0
   -8.4500   -2.2078    0.7858 C   0  0  0  0  0  0  0  0  0  0  0  0
   -9.7921   -2.5805    0.8548 C   0  0  0  0  0  0  0  0  0  0  0  0
  -10.5785   -2.5466   -0.2934 C   0  0  0  0  0  0  0  0  0  0  0  0
  -10.0343   -2.0933   -1.4969 C   0  0  0  0  0  0  0  0  0  0  0  0
   -8.6932   -1.6980   -1.5642 C   0  0  0  0  0  0  0  0  0  0  0  0
   -1.9633   -2.9902   -0.0599 C   0  0  0  0  0  0  0  0  0  0  0  0
    3.1498   -1.2005    0.1265 C   0  0  0  0  0  0  0  0  0  0  0  0
    0.6118    0.9828    0.0612 H   0  0  0  0  0  0  0  0  0  0  0  0
    0.4561   -0.7317    0.0643 H   0  0  0  0  0  0  0  0  0  0  0  0
    5.1639    1.2720    0.0502 H   0  0  0  0  0  0  0  0  0  0  0  0
    6.5950   -1.2360    0.0543 H   0  0  0  0  0  0  0  0  0  0  0  0
    6.1508   -3.6870    0.0842 H   0  0  0  0  0  0  0  0  0  0  0  0
    3.8447   -4.5473    0.1395 H   0  0  0  0  0  0  0  0  0  0  0  0
   -0.4189   -6.0333    0.1871 H   0  0  0  0  0  0  0  0  0  0  0  0
   -2.7676   -6.7851   -0.0470 H   0  0  0  0  0  0  0  0  0  0  0  0
   -4.5565   -5.1795   -0.3432 H   0  0  0  0  0  0  0  0  0  0  0  0
   -4.0417   -1.4717   -0.4131 H   0  0  0  0  0  0  0  0  0  0  0  0
   -6.1621   -1.1575   -1.3828 H   0  0  0  0  0  0  0  0  0  0  0  0
   -7.8341   -2.2778    1.6793 H   0  0  0  0  0  0  0  0  0  0  0  0
  -10.2067   -2.9342    1.7950 H   0  0  0  0  0  0  0  0  0  0  0  0
  -11.6093   -2.8893   -0.2527 H   0  0  0  0  0  0  0  0  0  0  0  0
  -10.6489   -2.0876   -2.3936 H   0  0  0  0  0  0  0  0  0  0  0  0
   -8.2797   -1.4030   -2.5234 H   0  0  0  0  0  0  0  0  0  0  0  0
   -1.7254   -1.9314   -0.0374 H   0  0  0  0  0  0  0  0  0  0  0  0
  1  2  1  0  0  0  0
  1 29  1  0  0  0  0
  1 30  1  0  0  0  0
  2  3  2  0  0  0  0
  2 28  1  0  0  0  0
  3  4  1  0  0  0  0
  4  5  1  0  0  0  0
  4 31  1  0  0  0  0
  5  6  1  0  0  0  0
  5 28  2  0  0  0  0
  6  7  2  0  0  0  0
  6 32  1  0  0  0  0
  7  8  1  0  0  0  0
  7 33  1  0  0  0  0
  8  9  2  0  0  0  0
  8 34  1  0  0  0  0
  9 10  1  0  0  0  0
  9 28  1  0  0  0  0
 10 11  3  0  0  0  0
 11 12  1  0  0  0  0
 12 13  1  0  0  0  0
 12 27  2  0  0  0  0
 13 14  2  0  0  0  0
 13 35  1  0  0  0  0
 14 15  1  0  0  0  0
 14 36  1  0  0  0  0
 15 16  2  0  0  0  0
 15 37  1  0  0  0  0
 16 17  1  0  0  0  0
 16 27  1  0  0  0  0
 17 18  1  0  0  0  0
 17 38  1  0  0  0  0
 18 19  2  0  0  0  0
 18 20  1  0  0  0  0
 20 21  1  0  0  0  0
 20 39  1  0  0  0  0
 21 22  1  0  0  0  0
 21 26  2  0  0  0  0
 22 23  2  0  0  0  0
 22 40  1  0  0  0  0
 23 24  1  0  0  0  0
 23 41  1  0  0  0  0
 24 25  2  0  0  0  0
 24 42  1  0  0  0  0
 25 26  1  0  0  0  0
 25 43  1  0  0  0  0
 26 44  1  0  0  0  0
 27 45  1  0  0  0  0
M  END
$$$$
