CHEMBL101325
 OpenBabel04072215353D

 44 47  0  0  0  0  0  0  0  0999 V2000
    1.1999   -1.1035    1.9501 C   0  0  0  0  0  0  0  0  0  0  0  0
    2.7046   -1.1149    2.0052 C   0  0  0  0  0  0  0  0  0  0  0  0
    3.3042   -1.9866    2.6244 O   0  0  0  0  0  0  0  0  0  0  0  0
    3.2576   -0.0795    1.2764 N   0  0  0  0  0  0  0  0  0  0  0  0
    4.6163    0.0974    1.1649 C   0  0  0  0  0  0  0  0  0  0  0  0
    5.4405   -0.5758    2.0119 O   0  0  0  0  0  0  0  0  0  0  0  0
    6.6948   -0.1248    1.7216 C   0  0  0  0  0  0  0  0  0  0  0  0
    7.7621   -0.6479    2.5540 C   0  0  0  0  0  0  0  0  0  0  0  0
    9.0907   -0.4009    2.2405 C   0  0  0  0  0  0  0  0  0  0  0  0
   10.1369   -0.8407    2.9783 N   0  0  0  0  0  0  0  0  0  0  0  0
    9.8380   -1.5599    4.0897 C   0  0  0  0  0  0  0  0  0  0  0  0
    8.5479   -1.8704    4.5270 C   0  0  0  0  0  0  0  0  0  0  0  0
    8.2847   -2.6374    5.7635 C   0  0  0  0  0  0  0  0  0  0  0  0
    7.1820   -3.5073    5.8709 C   0  0  0  0  0  0  0  0  0  0  0  0
    6.9201   -4.2232    7.0447 C   0  0  0  0  0  0  0  0  0  0  0  0
    7.7661   -4.0961    8.1414 C   0  0  0  0  0  0  0  0  0  0  0  0
    8.8645   -3.2476    8.0601 C   0  0  0  0  0  0  0  0  0  0  0  0
    9.9189   -3.0878    9.4120 Cl  0  0  0  0  0  0  0  0  0  0  0  0
    9.1212   -2.5227    6.8919 C   0  0  0  0  0  0  0  0  0  0  0  0
    7.5067   -1.3908    3.7179 C   0  0  0  0  0  0  0  0  0  0  0  0
    6.7379    0.7539    0.7393 N   0  0  0  0  0  0  0  0  0  0  0  0
    5.4143    0.9016    0.3702 C   0  0  0  0  0  0  0  0  0  0  0  0
    4.9844    1.8146   -0.6728 C   0  0  0  0  0  0  0  0  0  0  0  0
    3.8803    1.5394   -1.4921 C   0  0  0  0  0  0  0  0  0  0  0  0
    3.4579    2.4663   -2.4482 C   0  0  0  0  0  0  0  0  0  0  0  0
    4.1504    3.6639   -2.6125 C   0  0  0  0  0  0  0  0  0  0  0  0
    5.2773    3.9277   -1.8370 C   0  0  0  0  0  0  0  0  0  0  0  0
    5.6948    3.0056   -0.8749 C   0  0  0  0  0  0  0  0  0  0  0  0
    0.8078   -1.9653    2.4978 H   0  0  0  0  0  0  0  0  0  0  0  0
    0.8654   -1.1698    0.9109 H   0  0  0  0  0  0  0  0  0  0  0  0
    0.8147   -0.1881    2.4085 H   0  0  0  0  0  0  0  0  0  0  0  0
    2.6572    0.5483    0.7606 H   0  0  0  0  0  0  0  0  0  0  0  0
    9.3641    0.1763    1.3600 H   0  0  0  0  0  0  0  0  0  0  0  0
   10.7167   -1.8968    4.6353 H   0  0  0  0  0  0  0  0  0  0  0  0
    6.5034   -3.6471    5.0304 H   0  0  0  0  0  0  0  0  0  0  0  0
    6.0544   -4.8794    7.0964 H   0  0  0  0  0  0  0  0  0  0  0  0
    7.5632   -4.6548    9.0508 H   0  0  0  0  0  0  0  0  0  0  0  0
    9.9774   -1.8515    6.8797 H   0  0  0  0  0  0  0  0  0  0  0  0
    6.4717   -1.5758    4.0024 H   0  0  0  0  0  0  0  0  0  0  0  0
    3.3486    0.5946   -1.4196 H   0  0  0  0  0  0  0  0  0  0  0  0
    2.5940    2.2501   -3.0719 H   0  0  0  0  0  0  0  0  0  0  0  0
    3.8212    4.3861   -3.3555 H   0  0  0  0  0  0  0  0  0  0  0  0
    5.8334    4.8509   -1.9790 H   0  0  0  0  0  0  0  0  0  0  0  0
    6.5788    3.2238   -0.2776 H   0  0  0  0  0  0  0  0  0  0  0  0
  1  2  1  0  0  0  0
  1 29  1  0  0  0  0
  1 30  1  0  0  0  0
  1 31  1  0  0  0  0
  2  3  2  0  0  0  0
  2  4  1  0  0  0  0
  4  5  1  0  0  0  0
  4 32  1  0  0  0  0
  5  6  1  0  0  0  0
  5 22  2  0  0  0  0
  6  7  1  0  0  0  0
  7  8  1  0  0  0  0
  7 21  2  0  0  0  0
  8  9  1  0  0  0  0
  8 20  2  0  0  0  0
  9 10  2  0  0  0  0
  9 33  1  0  0  0  0
 10 11  1  0  0  0  0
 11 12  2  0  0  0  0
 11 34  1  0  0  0  0
 12 13  1  0  0  0  0
 12 20  1  0  0  0  0
 13 14  1  0  0  0  0
 13 19  2  0  0  0  0
 14 15  2  0  0  0  0
 14 35  1  0  0  0  0
 15 16  1  0  0  0  0
 15 36  1  0  0  0  0
 16 17  2  0  0  0  0
 16 37  1  0  0  0  0
 17 18  1  0  0  0  0
 17 19  1  0  0  0  0
 19 38  1  0  0  0  0
 20 39  1  0  0  0  0
 21 22  1  0  0  0  0
 22 23  1  0  0  0  0
 23 24  1  0  0  0  0
 23 28  2  0  0  0  0
 24 25  2  0  0  0  0
 24 40  1  0  0  0  0
 25 26  1  0  0  0  0
 25 41  1  0  0  0  0
 26 27  2  0  0  0  0
 26 42  1  0  0  0  0
 27 28  1  0  0  0  0
 27 43  1  0  0  0  0
 28 44  1  0  0  0  0
M  END
$$$$
