CHEMBL1269663
 OpenBabel04072215363D

 31 33  0  0  0  0  0  0  0  0999 V2000
    1.2654    0.7643    0.5885 O   0  0  0  0  0  0  0  0  0  0  0  0
    2.3739    0.3925    0.2173 C   0  0  0  0  0  0  0  0  0  0  0  0
    2.9025    0.5469   -1.0536 N   0  0  0  0  0  0  0  0  0  0  0  0
    2.2347    1.1734   -2.1266 C   0  0  0  0  0  0  0  0  0  0  0  0
    1.1364    2.0126   -1.9789 C   0  0  0  0  0  0  0  0  0  0  0  0
    0.4466    2.5593   -3.0081 N   0  0  0  0  0  0  0  0  0  0  0  0
    0.8294    2.2466   -4.2526 C   0  0  0  0  0  0  0  0  0  0  0  0
    0.0873    2.7264   -5.3190 C   0  0  0  0  0  0  0  0  0  0  0  0
    0.4115    2.4056   -6.6385 C   0  0  0  0  0  0  0  0  0  0  0  0
    1.5130    1.6001   -6.9030 C   0  0  0  0  0  0  0  0  0  0  0  0
    2.2877    1.1191   -5.8485 C   0  0  0  0  0  0  0  0  0  0  0  0
    1.9493    1.4290   -4.5187 C   0  0  0  0  0  0  0  0  0  0  0  0
    2.6709    0.9210   -3.4258 C   0  0  0  0  0  0  0  0  0  0  0  0
    3.2144   -0.3663    1.1739 C   0  0  0  0  0  0  0  0  0  0  0  0
    2.5739   -1.2189    2.0823 C   0  0  0  0  0  0  0  0  0  0  0  0
    3.3236   -1.9466    3.0053 C   0  0  0  0  0  0  0  0  0  0  0  0
    4.7126   -1.8124    3.0273 C   0  0  0  0  0  0  0  0  0  0  0  0
    5.3509   -0.9512    2.1349 C   0  0  0  0  0  0  0  0  0  0  0  0
    4.6052   -0.2232    1.2052 C   0  0  0  0  0  0  0  0  0  0  0  0
    3.7304    0.0086   -1.2811 H   0  0  0  0  0  0  0  0  0  0  0  0
    0.7539    2.3006   -1.0051 H   0  0  0  0  0  0  0  0  0  0  0  0
   -0.7793    3.3519   -5.1131 H   0  0  0  0  0  0  0  0  0  0  0  0
   -0.2045    2.7809   -7.4511 H   0  0  0  0  0  0  0  0  0  0  0  0
    1.7620    1.3386   -7.9289 H   0  0  0  0  0  0  0  0  0  0  0  0
    3.1418    0.4822   -6.0679 H   0  0  0  0  0  0  0  0  0  0  0  0
    3.5342    0.2856   -3.6031 H   0  0  0  0  0  0  0  0  0  0  0  0
    1.4897   -1.3156    2.0723 H   0  0  0  0  0  0  0  0  0  0  0  0
    2.8249   -2.6076    3.7090 H   0  0  0  0  0  0  0  0  0  0  0  0
    5.2965   -2.3746    3.7545 H   0  0  0  0  0  0  0  0  0  0  0  0
    6.4314   -0.8359    2.1740 H   0  0  0  0  0  0  0  0  0  0  0  0
    5.1137    0.4708    0.5432 H   0  0  0  0  0  0  0  0  0  0  0  0
  1  2  2  0  0  0  0
  2  3  1  0  0  0  0
  2 14  1  0  0  0  0
  3  4  1  0  0  0  0
  3 20  1  0  0  0  0
  4  5  1  0  0  0  0
  4 13  2  0  0  0  0
  5  6  2  0  0  0  0
  5 21  1  0  0  0  0
  6  7  1  0  0  0  0
  7  8  1  0  0  0  0
  7 12  2  0  0  0  0
  8  9  2  0  0  0  0
  8 22  1  0  0  0  0
  9 10  1  0  0  0  0
  9 23  1  0  0  0  0
 10 11  2  0  0  0  0
 10 24  1  0  0  0  0
 11 12  1  0  0  0  0
 11 25  1  0  0  0  0
 12 13  1  0  0  0  0
 13 26  1  0  0  0  0
 14 15  1  0  0  0  0
 14 19  2  0  0  0  0
 15 16  2  0  0  0  0
 15 27  1  0  0  0  0
 16 17  1  0  0  0  0
 16 28  1  0  0  0  0
 17 18  2  0  0  0  0
 17 29  1  0  0  0  0
 18 19  1  0  0  0  0
 18 30  1  0  0  0  0
 19 31  1  0  0  0  0
M  END
$$$$
