CHEMBL4066145
 OpenBabel04072215383D

 45 47  0  0  0  0  0  0  0  0999 V2000
   -1.0925    2.2136   -3.3620 C   0  0  0  0  0  0  0  0  0  0  0  0
   -1.3510    1.0383   -2.4831 C   0  0  0  0  0  0  0  0  0  0  0  0
   -1.7527   -0.0897   -3.0914 N   0  0  0  0  0  0  0  0  0  0  0  0
   -1.9246   -0.9583   -2.0819 N   0  0  0  0  0  0  0  0  0  0  0  0
   -1.6421   -0.4420   -0.8545 C   0  0  0  0  0  0  0  0  0  0  0  0
   -1.7381   -1.1312    0.2978 N   0  0  0  0  0  0  0  0  0  0  0  0
   -1.3966   -0.3979    1.3731 C   0  0  0  0  0  0  0  0  0  0  0  0
   -0.9810    0.9241    1.3422 C   0  0  0  0  0  0  0  0  0  0  0  0
   -0.8914    1.6169    0.1185 C   0  0  0  0  0  0  0  0  0  0  0  0
   -0.4162    3.0081    0.0709 C   0  0  0  0  0  0  0  0  0  0  0  0
    0.5002    3.3963   -0.8983 C   0  0  0  0  0  0  0  0  0  0  0  0
    0.8885    4.7233   -1.0480 C   0  0  0  0  0  0  0  0  0  0  0  0
    0.4714    5.7130   -0.1588 C   0  0  0  0  0  0  0  0  0  0  0  0
    0.8819    7.0655   -0.2793 N   0  0  0  0  0  0  0  0  0  0  0  0
    1.5789    7.5654   -1.3608 C   0  0  0  0  0  0  0  0  0  0  0  0
    1.8659    6.9301   -2.3661 O   0  0  0  0  0  0  0  0  0  0  0  0
    1.9580    8.8803   -1.2318 N   0  0  0  0  0  0  0  0  0  0  0  0
    2.7918    9.5400   -2.2617 C   0  0  0  0  0  0  0  0  0  0  0  0
    2.0771    9.5475   -3.6286 C   0  0  0  0  0  0  0  0  0  0  0  0
    3.0435   11.0017   -1.8566 C   0  0  0  0  0  0  0  0  0  0  0  0
    4.1635    8.8441   -2.3846 C   0  0  0  0  0  0  0  0  0  0  0  0
   -0.3540    5.3269    0.8982 C   0  0  0  0  0  0  0  0  0  0  0  0
   -0.8049    3.9931    0.9994 C   0  0  0  0  0  0  0  0  0  0  0  0
   -1.2484    0.8785   -1.0513 C   0  0  0  0  0  0  0  0  0  0  0  0
   -1.3979    2.0086   -4.3952 H   0  0  0  0  0  0  0  0  0  0  0  0
   -0.0266    2.4480   -3.4144 H   0  0  0  0  0  0  0  0  0  0  0  0
   -1.6479    3.0915   -3.0220 H   0  0  0  0  0  0  0  0  0  0  0  0
   -2.2381   -1.8931   -2.2862 H   0  0  0  0  0  0  0  0  0  0  0  0
   -1.4486   -0.9311    2.3180 H   0  0  0  0  0  0  0  0  0  0  0  0
   -0.7026    1.4069    2.2749 H   0  0  0  0  0  0  0  0  0  0  0  0
    0.9383    2.6665   -1.5724 H   0  0  0  0  0  0  0  0  0  0  0  0
    1.5424    4.9229   -1.8880 H   0  0  0  0  0  0  0  0  0  0  0  0
    0.5771    7.7143    0.4289 H   0  0  0  0  0  0  0  0  0  0  0  0
    1.7163    9.3909   -0.3968 H   0  0  0  0  0  0  0  0  0  0  0  0
    1.1027   10.0441   -3.5568 H   0  0  0  0  0  0  0  0  0  0  0  0
    1.8942    8.5423   -4.0200 H   0  0  0  0  0  0  0  0  0  0  0  0
    2.6729   10.0697   -4.3845 H   0  0  0  0  0  0  0  0  0  0  0  0
    2.1033   11.5544   -1.7591 H   0  0  0  0  0  0  0  0  0  0  0  0
    3.6583   11.5145   -2.6069 H   0  0  0  0  0  0  0  0  0  0  0  0
    3.5673   11.0640   -0.8967 H   0  0  0  0  0  0  0  0  0  0  0  0
    4.0803    7.7991   -2.6994 H   0  0  0  0  0  0  0  0  0  0  0  0
    4.6923    8.8479   -1.4245 H   0  0  0  0  0  0  0  0  0  0  0  0
    4.7976    9.3476   -3.1224 H   0  0  0  0  0  0  0  0  0  0  0  0
   -0.6757    6.0447    1.6478 H   0  0  0  0  0  0  0  0  0  0  0  0
   -1.4718    3.7363    1.8208 H   0  0  0  0  0  0  0  0  0  0  0  0
  1  2  1  0  0  0  0
  1 25  1  0  0  0  0
  1 26  1  0  0  0  0
  1 27  1  0  0  0  0
  2  3  2  0  0  0  0
  2 24  1  0  0  0  0
  3  4  1  0  0  0  0
  4  5  1  0  0  0  0
  4 28  1  0  0  0  0
  5  6  1  0  0  0  0
  5 24  2  0  0  0  0
  6  7  2  0  0  0  0
  7  8  1  0  0  0  0
  7 29  1  0  0  0  0
  8  9  2  0  0  0  0
  8 30  1  0  0  0  0
  9 10  1  0  0  0  0
  9 24  1  0  0  0  0
 10 11  1  0  0  0  0
 10 23  2  0  0  0  0
 11 12  2  0  0  0  0
 11 31  1  0  0  0  0
 12 13  1  0  0  0  0
 12 32  1  0  0  0  0
 13 14  1  0  0  0  0
 13 22  2  0  0  0  0
 14 15  1  0  0  0  0
 14 33  1  0  0  0  0
 15 16  2  0  0  0  0
 15 17  1  0  0  0  0
 17 18  1  0  0  0  0
 17 34  1  0  0  0  0
 18 19  1  0  0  0  0
 18 20  1  0  0  0  0
 18 21  1  0  0  0  0
 19 35  1  0  0  0  0
 19 36  1  0  0  0  0
 19 37  1  0  0  0  0
 20 38  1  0  0  0  0
 20 39  1  0  0  0  0
 20 40  1  0  0  0  0
 21 41  1  0  0  0  0
 21 42  1  0  0  0  0
 21 43  1  0  0  0  0
 22 23  1  0  0  0  0
 22 44  1  0  0  0  0
 23 45  1  0  0  0  0
M  END
$$$$
