CHEMBL355282
 OpenBabel04072215363D

 62 66  0  0  0  0  0  0  0  0999 V2000
    3.0290   -0.4478   -1.1623 C   0  0  0  0  0  0  0  0  0  0  0  0
    2.4324   -0.3102    0.1244 O   0  0  0  0  0  0  0  0  0  0  0  0
    3.1161    0.2577    1.1565 C   0  0  0  0  0  0  0  0  0  0  0  0
    4.2451    1.0524    0.9781 C   0  0  0  0  0  0  0  0  0  0  0  0
    4.9307    1.6273    2.0712 C   0  0  0  0  0  0  0  0  0  0  0  0
    6.0544    2.4546    1.9378 C   0  0  0  0  0  0  0  0  0  0  0  0
    6.5067    2.8112    0.6377 N   0  0  0  0  0  0  0  0  0  0  0  0
    7.3086    3.9420    0.3594 C   0  0  0  0  0  0  0  0  0  0  0  0
    7.0323    5.1658    1.0065 C   0  0  0  0  0  0  0  0  0  0  0  0
    7.8427    6.2825    0.8509 C   0  0  0  0  0  0  0  0  0  0  0  0
    8.9599    6.2326    0.0240 C   0  0  0  0  0  0  0  0  0  0  0  0
    9.2074    5.0438   -0.6794 C   0  0  0  0  0  0  0  0  0  0  0  0
    8.3933    3.9122   -0.5531 C   0  0  0  0  0  0  0  0  0  0  0  0
    8.9318    2.9214   -1.4300 C   0  0  0  0  0  0  0  0  0  0  0  0
   10.0575    3.4450   -2.0253 C   0  0  0  0  0  0  0  0  0  0  0  0
   10.2239    4.7172   -1.5521 N   0  0  0  0  0  0  0  0  0  0  0  0
   11.3241    5.5928   -1.8909 C   0  0  0  0  0  0  0  0  0  0  0  0
    6.6971    2.9519    3.0093 N   0  0  0  0  0  0  0  0  0  0  0  0
    6.1926    2.6514    4.2108 C   0  0  0  0  0  0  0  0  0  0  0  0
    5.0993    1.9240    4.4429 N   0  0  0  0  0  0  0  0  0  0  0  0
    4.4713    1.4259    3.3728 C   0  0  0  0  0  0  0  0  0  0  0  0
    3.3083    0.6919    3.5406 C   0  0  0  0  0  0  0  0  0  0  0  0
    2.6319    0.0939    2.4623 C   0  0  0  0  0  0  0  0  0  0  0  0
    1.5090   -0.5881    2.8574 O   0  0  0  0  0  0  0  0  0  0  0  0
    1.1315   -1.7773    2.1587 C   0  0  0  0  0  0  0  0  0  0  0  0
    2.2123   -2.8617    2.1797 C   0  0  0  0  0  0  0  0  0  0  0  0
    2.5631   -3.2638    3.6179 C   0  0  0  0  0  0  0  0  0  0  0  0
    3.6410   -4.2657    3.7121 N   0  0  0  0  0  0  0  0  0  0  0  0
    3.8439   -4.6690    5.1275 C   0  0  0  0  0  0  0  0  0  0  0  0
    4.5222   -3.5900    5.9945 C   0  0  0  0  0  0  0  0  0  0  0  0
    5.7741   -3.1758    5.4333 O   0  0  0  0  0  0  0  0  0  0  0  0
    5.5999   -2.7042    4.0909 C   0  0  0  0  0  0  0  0  0  0  0  0
    4.9478   -3.7807    3.2077 C   0  0  0  0  0  0  0  0  0  0  0  0
    3.1444   -1.5136   -1.3794 H   0  0  0  0  0  0  0  0  0  0  0  0
    4.0057    0.0156   -1.3060 H   0  0  0  0  0  0  0  0  0  0  0  0
    2.3417   -0.0199   -1.8973 H   0  0  0  0  0  0  0  0  0  0  0  0
    4.6144    1.2837   -0.0131 H   0  0  0  0  0  0  0  0  0  0  0  0
    6.8030    1.9927    0.1209 H   0  0  0  0  0  0  0  0  0  0  0  0
    6.1744    5.2343    1.6716 H   0  0  0  0  0  0  0  0  0  0  0  0
    7.6139    7.1878    1.4056 H   0  0  0  0  0  0  0  0  0  0  0  0
    9.6117    7.0948   -0.0668 H   0  0  0  0  0  0  0  0  0  0  0  0
    8.5471    1.9256   -1.6014 H   0  0  0  0  0  0  0  0  0  0  0  0
   10.7532    3.0092   -2.7304 H   0  0  0  0  0  0  0  0  0  0  0  0
   12.0082    5.0783   -2.5696 H   0  0  0  0  0  0  0  0  0  0  0  0
   11.8487    5.8570   -0.9686 H   0  0  0  0  0  0  0  0  0  0  0  0
   10.9189    6.4854   -2.3738 H   0  0  0  0  0  0  0  0  0  0  0  0
    6.7289    3.0445    5.0685 H   0  0  0  0  0  0  0  0  0  0  0  0
    2.9165    0.5655    4.5485 H   0  0  0  0  0  0  0  0  0  0  0  0
    0.7860   -1.5485    1.1474 H   0  0  0  0  0  0  0  0  0  0  0  0
    0.2467   -2.1630    2.6807 H   0  0  0  0  0  0  0  0  0  0  0  0
    3.0990   -2.4875    1.6640 H   0  0  0  0  0  0  0  0  0  0  0  0
    1.8613   -3.7368    1.6212 H   0  0  0  0  0  0  0  0  0  0  0  0
    1.6555   -3.6957    4.0609 H   0  0  0  0  0  0  0  0  0  0  0  0
    2.7968   -2.3726    4.2080 H   0  0  0  0  0  0  0  0  0  0  0  0
    4.4819   -5.5623    5.1252 H   0  0  0  0  0  0  0  0  0  0  0  0
    2.8933   -4.9750    5.5797 H   0  0  0  0  0  0  0  0  0  0  0  0
    4.7282   -3.9957    6.9901 H   0  0  0  0  0  0  0  0  0  0  0  0
    3.8808   -2.7119    6.1303 H   0  0  0  0  0  0  0  0  0  0  0  0
    6.5915   -2.4589    3.6975 H   0  0  0  0  0  0  0  0  0  0  0  0
    5.0169   -1.7781    4.1036 H   0  0  0  0  0  0  0  0  0  0  0  0
    5.6205   -4.6478    3.1720 H   0  0  0  0  0  0  0  0  0  0  0  0
    4.8779   -3.4320    2.1732 H   0  0  0  0  0  0  0  0  0  0  0  0
  1  2  1  0  0  0  0
  1 34  1  0  0  0  0
  1 35  1  0  0  0  0
  1 36  1  0  0  0  0
  2  3  1  0  0  0  0
  3  4  1  0  0  0  0
  3 23  2  0  0  0  0
  4  5  2  0  0  0  0
  4 37  1  0  0  0  0
  5  6  1  0  0  0  0
  5 21  1  0  0  0  0
  6  7  1  0  0  0  0
  6 18  2  0  0  0  0
  7  8  1  0  0  0  0
  7 38  1  0  0  0  0
  8  9  1  0  0  0  0
  8 13  2  0  0  0  0
  9 10  2  0  0  0  0
  9 39  1  0  0  0  0
 10 11  1  0  0  0  0
 10 40  1  0  0  0  0
 11 12  2  0  0  0  0
 11 41  1  0  0  0  0
 12 13  1  0  0  0  0
 12 16  1  0  0  0  0
 13 14  1  0  0  0  0
 14 15  2  0  0  0  0
 14 42  1  0  0  0  0
 15 16  1  0  0  0  0
 15 43  1  0  0  0  0
 16 17  1  0  0  0  0
 17 44  1  0  0  0  0
 17 45  1  0  0  0  0
 17 46  1  0  0  0  0
 18 19  1  0  0  0  0
 19 20  2  0  0  0  0
 19 47  1  0  0  0  0
 20 21  1  0  0  0  0
 21 22  2  0  0  0  0
 22 23  1  0  0  0  0
 22 48  1  0  0  0  0
 23 24  1  0  0  0  0
 24 25  1  0  0  0  0
 25 26  1  0  0  0  0
 25 49  1  0  0  0  0
 25 50  1  0  0  0  0
 26 27  1  0  0  0  0
 26 51  1  0  0  0  0
 26 52  1  0  0  0  0
 27 28  1  0  0  0  0
 27 53  1  0  0  0  0
 27 54  1  0  0  0  0
 28 29  1  0  0  0  0
 28 33  1  0  0  0  0
 29 30  1  0  0  0  0
 29 55  1  0  0  0  0
 29 56  1  0  0  0  0
 30 31  1  0  0  0  0
 30 57  1  0  0  0  0
 30 58  1  0  0  0  0
 31 32  1  0  0  0  0
 32 33  1  0  0  0  0
 32 59  1  0  0  0  0
 32 60  1  0  0  0  0
 33 61  1  0  0  0  0
 33 62  1  0  0  0  0
M  END
$$$$
