CHEMBL1940843
 OpenBabel04072215363D

 39 41  0  0  0  0  0  0  0  0999 V2000
    4.2538   -0.0044    1.7779 C   0  0  0  0  0  0  0  0  0  0  0  0
    2.9040   -0.2081    1.1560 C   0  0  0  0  0  0  0  0  0  0  0  0
    2.5566   -1.4180    0.5573 C   0  0  0  0  0  0  0  0  0  0  0  0
    1.2912   -1.5826   -0.0196 C   0  0  0  0  0  0  0  0  0  0  0  0
    0.3515   -0.5597   -0.0210 C   0  0  0  0  0  0  0  0  0  0  0  0
   -0.8472   -0.7577   -0.5894 N   0  0  0  0  0  0  0  0  0  0  0  0
   -1.7327    0.2696   -0.5791 C   0  0  0  0  0  0  0  0  0  0  0  0
   -3.2111   -0.1609   -1.3585 Cl  0  0  0  0  0  0  0  0  0  0  0  0
   -1.4963    1.5371   -0.0375 C   0  0  0  0  0  0  0  0  0  0  0  0
   -2.4962    2.6303   -0.0481 C   0  0  0  0  0  0  0  0  0  0  0  0
   -2.2189    3.9407   -0.0779 C   0  0  0  0  0  0  0  0  0  0  0  0
   -3.3225    4.9430   -0.0620 C   0  0  0  0  0  0  0  0  0  0  0  0
   -4.4499    4.6601    0.3269 O   0  0  0  0  0  0  0  0  0  0  0  0
   -2.9141    6.2890   -0.4761 C   0  0  0  0  0  0  0  0  0  0  0  0
   -1.8683    6.6304   -1.4081 C   0  0  0  0  0  0  0  0  0  0  0  0
   -1.7182    7.9891   -1.5816 C   0  0  0  0  0  0  0  0  0  0  0  0
   -0.7487    8.7183   -2.4474 C   0  0  0  0  0  0  0  0  0  0  0  0
   -2.8413    8.8650   -0.6446 S   0  0  0  0  0  0  0  0  0  0  0  0
   -3.5355    7.4385   -0.0043 C   0  0  0  0  0  0  0  0  0  0  0  0
   -4.6628    7.5441    0.9732 C   0  0  0  0  0  0  0  0  0  0  0  0
   -0.2451    1.7030    0.5679 C   0  0  0  0  0  0  0  0  0  0  0  0
    0.6988    0.6619    0.5805 C   0  0  0  0  0  0  0  0  0  0  0  0
    1.9665    0.8297    1.1681 C   0  0  0  0  0  0  0  0  0  0  0  0
    4.8796   -0.8973    1.6803 H   0  0  0  0  0  0  0  0  0  0  0  0
    4.1478    0.2187    2.8444 H   0  0  0  0  0  0  0  0  0  0  0  0
    4.7725    0.8250    1.2868 H   0  0  0  0  0  0  0  0  0  0  0  0
    3.2613   -2.2463    0.5296 H   0  0  0  0  0  0  0  0  0  0  0  0
    1.0353   -2.5327   -0.4825 H   0  0  0  0  0  0  0  0  0  0  0  0
   -3.5442    2.3159   -0.0445 H   0  0  0  0  0  0  0  0  0  0  0  0
   -1.2081    4.3293   -0.0858 H   0  0  0  0  0  0  0  0  0  0  0  0
   -1.2589    5.9067   -1.9377 H   0  0  0  0  0  0  0  0  0  0  0  0
   -0.1222    8.0187   -3.0110 H   0  0  0  0  0  0  0  0  0  0  0  0
   -0.0873    9.3471   -1.8424 H   0  0  0  0  0  0  0  0  0  0  0  0
   -1.2719    9.3546   -3.1685 H   0  0  0  0  0  0  0  0  0  0  0  0
   -4.9293    8.5833    1.1938 H   0  0  0  0  0  0  0  0  0  0  0  0
   -4.3855    7.0650    1.9180 H   0  0  0  0  0  0  0  0  0  0  0  0
   -5.5570    7.0493    0.5810 H   0  0  0  0  0  0  0  0  0  0  0  0
    0.0208    2.6443    1.0437 H   0  0  0  0  0  0  0  0  0  0  0  0
    2.2288    1.7768    1.6345 H   0  0  0  0  0  0  0  0  0  0  0  0
  1  2  1  0  0  0  0
  1 24  1  0  0  0  0
  1 25  1  0  0  0  0
  1 26  1  0  0  0  0
  2  3  1  0  0  0  0
  2 23  2  0  0  0  0
  3  4  2  0  0  0  0
  3 27  1  0  0  0  0
  4  5  1  0  0  0  0
  4 28  1  0  0  0  0
  5  6  1  0  0  0  0
  5 22  2  0  0  0  0
  6  7  2  0  0  0  0
  7  8  1  0  0  0  0
  7  9  1  0  0  0  0
  9 10  1  0  0  0  0
  9 21  2  0  0  0  0
 10 11  2  0  0  0  0
 10 29  1  0  0  0  0
 11 12  1  0  0  0  0
 11 30  1  0  0  0  0
 12 13  2  0  0  0  0
 12 14  1  0  0  0  0
 14 15  1  0  0  0  0
 14 19  2  0  0  0  0
 15 16  2  0  0  0  0
 15 31  1  0  0  0  0
 16 17  1  0  0  0  0
 16 18  1  0  0  0  0
 17 32  1  0  0  0  0
 17 33  1  0  0  0  0
 17 34  1  0  0  0  0
 18 19  1  0  0  0  0
 19 20  1  0  0  0  0
 20 35  1  0  0  0  0
 20 36  1  0  0  0  0
 20 37  1  0  0  0  0
 21 22  1  0  0  0  0
 21 38  1  0  0  0  0
 22 23  1  0  0  0  0
 23 39  1  0  0  0  0
M  END
$$$$
