CHEMBL4576032
 OpenBabel04072215383D

 61 64  0  0  0  0  0  0  0  0999 V2000
    3.4137   -0.7823   -0.9114 C   0  0  0  0  0  0  0  0  0  0  0  0
    2.5549   -0.3091    0.1258 O   0  0  0  0  0  0  0  0  0  0  0  0
    3.1759    0.2145    1.2215 C   0  0  0  0  0  0  0  0  0  0  0  0
    4.2773    1.0583    1.0574 C   0  0  0  0  0  0  0  0  0  0  0  0
    4.9730    1.5808    2.1625 C   0  0  0  0  0  0  0  0  0  0  0  0
    6.1371    2.3566    2.0558 C   0  0  0  0  0  0  0  0  0  0  0  0
    6.6233    2.7063    0.7640 N   0  0  0  0  0  0  0  0  0  0  0  0
    7.9252    3.1767    0.4970 C   0  0  0  0  0  0  0  0  0  0  0  0
    9.0464    2.5197    1.0314 C   0  0  0  0  0  0  0  0  0  0  0  0
   10.3358    3.0111    0.8217 C   0  0  0  0  0  0  0  0  0  0  0  0
   10.5084    4.1632    0.0678 C   0  0  0  0  0  0  0  0  0  0  0  0
   11.7421    4.6552   -0.1078 F   0  0  0  0  0  0  0  0  0  0  0  0
    9.4110    4.8028   -0.4955 C   0  0  0  0  0  0  0  0  0  0  0  0
    9.5816    5.9138   -1.2259 F   0  0  0  0  0  0  0  0  0  0  0  0
    8.1224    4.3110   -0.2984 C   0  0  0  0  0  0  0  0  0  0  0  0
    6.8111    2.7726    3.1411 N   0  0  0  0  0  0  0  0  0  0  0  0
    6.2986    2.4424    4.3295 C   0  0  0  0  0  0  0  0  0  0  0  0
    5.1815    1.7362    4.5405 N   0  0  0  0  0  0  0  0  0  0  0  0
    4.5308    1.2957    3.4573 C   0  0  0  0  0  0  0  0  0  0  0  0
    3.3841    0.5170    3.6084 C   0  0  0  0  0  0  0  0  0  0  0  0
    2.6898   -0.0322    2.5167 C   0  0  0  0  0  0  0  0  0  0  0  0
    1.5983   -0.7912    2.8847 O   0  0  0  0  0  0  0  0  0  0  0  0
    0.8578   -1.3858    1.8234 C   0  0  0  0  0  0  0  0  0  0  0  0
   -0.3145   -2.2309    2.3092 C   0  0  0  0  0  0  0  0  0  0  0  0
   -0.9416   -2.7560    1.1337 O   0  0  0  0  0  0  0  0  0  0  0  0
   -2.0196   -3.6382    1.4137 C   0  0  0  0  0  0  0  0  0  0  0  0
   -2.5816   -4.1522    0.0849 C   0  0  0  0  0  0  0  0  0  0  0  0
   -3.7237   -5.0303    0.2690 N   0  0  0  0  0  0  0  0  0  0  0  0
   -3.5624   -6.3723    0.5370 C   0  0  0  0  0  0  0  0  0  0  0  0
   -2.4618   -6.9163    0.5852 O   0  0  0  0  0  0  0  0  0  0  0  0
   -4.8373   -7.1373    0.7957 C   0  0  0  0  0  0  0  0  0  0  0  0
   -5.0738   -8.1271   -0.2299 N   0  0  0  0  0  0  0  0  0  0  0  0
   -4.3201   -9.2224   -0.5321 C   0  0  0  0  0  0  0  0  0  0  0  0
   -4.8863   -9.8979   -1.5074 N   0  0  0  0  0  0  0  0  0  0  0  0
   -6.0149   -9.1566   -1.7683 C   0  0  0  0  0  0  0  0  0  0  0  0
   -6.9646   -9.4997   -2.8180 N   0  3  0  0  0  0  0  0  0  0  0  0
   -6.6909  -10.4770   -3.5318 O   0  0  0  0  0  0  0  0  0  0  0  0
   -7.9809   -8.7952   -2.9355 O   0  5  0  0  0  0  0  0  0  0  0  0
   -6.1841   -8.0676   -0.9958 N   0  0  0  0  0  0  0  0  0  0  0  0
    3.0290   -1.7470   -1.2553 H   0  0  0  0  0  0  0  0  0  0  0  0
    4.4511   -0.9396   -0.5943 H   0  0  0  0  0  0  0  0  0  0  0  0
    3.3778   -0.0773   -1.7469 H   0  0  0  0  0  0  0  0  0  0  0  0
    4.6194    1.2884    0.0528 H   0  0  0  0  0  0  0  0  0  0  0  0
    5.9051    3.2247    0.2685 H   0  0  0  0  0  0  0  0  0  0  0  0
    8.9121    1.6201    1.6289 H   0  0  0  0  0  0  0  0  0  0  0  0
   11.1950    2.5095    1.2540 H   0  0  0  0  0  0  0  0  0  0  0  0
    7.2890    4.8448   -0.7426 H   0  0  0  0  0  0  0  0  0  0  0  0
    6.8464    2.7775    5.2041 H   0  0  0  0  0  0  0  0  0  0  0  0
    3.0304    0.3128    4.6176 H   0  0  0  0  0  0  0  0  0  0  0  0
    1.5067   -2.0569    1.2484 H   0  0  0  0  0  0  0  0  0  0  0  0
    0.4480   -0.6053    1.1706 H   0  0  0  0  0  0  0  0  0  0  0  0
   -1.0264   -1.6225    2.8782 H   0  0  0  0  0  0  0  0  0  0  0  0
    0.0395   -3.0441    2.9533 H   0  0  0  0  0  0  0  0  0  0  0  0
   -2.7988   -3.0989    1.9643 H   0  0  0  0  0  0  0  0  0  0  0  0
   -1.6685   -4.4738    2.0290 H   0  0  0  0  0  0  0  0  0  0  0  0
   -1.7992   -4.6800   -0.4741 H   0  0  0  0  0  0  0  0  0  0  0  0
   -2.9042   -3.3133   -0.5423 H   0  0  0  0  0  0  0  0  0  0  0  0
   -4.6488   -4.6195    0.2177 H   0  0  0  0  0  0  0  0  0  0  0  0
   -5.7011   -6.4662    0.8420 H   0  0  0  0  0  0  0  0  0  0  0  0
   -4.7554   -7.6546    1.7569 H   0  0  0  0  0  0  0  0  0  0  0  0
   -3.3899   -9.4654   -0.0332 H   0  0  0  0  0  0  0  0  0  0  0  0
  1  2  1  0  0  0  0
  1 40  1  0  0  0  0
  1 41  1  0  0  0  0
  1 42  1  0  0  0  0
  2  3  1  0  0  0  0
  3  4  1  0  0  0  0
  3 21  2  0  0  0  0
  4  5  2  0  0  0  0
  4 43  1  0  0  0  0
  5  6  1  0  0  0  0
  5 19  1  0  0  0  0
  6  7  1  0  0  0  0
  6 16  2  0  0  0  0
  7  8  1  0  0  0  0
  7 44  1  0  0  0  0
  8  9  1  0  0  0  0
  8 15  2  0  0  0  0
  9 10  2  0  0  0  0
  9 45  1  0  0  0  0
 10 11  1  0  0  0  0
 10 46  1  0  0  0  0
 11 12  1  0  0  0  0
 11 13  2  0  0  0  0
 13 14  1  0  0  0  0
 13 15  1  0  0  0  0
 15 47  1  0  0  0  0
 16 17  1  0  0  0  0
 17 18  2  0  0  0  0
 17 48  1  0  0  0  0
 18 19  1  0  0  0  0
 19 20  2  0  0  0  0
 20 21  1  0  0  0  0
 20 49  1  0  0  0  0
 21 22  1  0  0  0  0
 22 23  1  0  0  0  0
 23 24  1  0  0  0  0
 23 50  1  0  0  0  0
 23 51  1  0  0  0  0
 24 25  1  0  0  0  0
 24 52  1  0  0  0  0
 24 53  1  0  0  0  0
 25 26  1  0  0  0  0
 26 27  1  0  0  0  0
 26 54  1  0  0  0  0
 26 55  1  0  0  0  0
 27 28  1  0  0  0  0
 27 56  1  0  0  0  0
 27 57  1  0  0  0  0
 28 29  1  0  0  0  0
 28 58  1  0  0  0  0
 29 30  2  0  0  0  0
 29 31  1  0  0  0  0
 31 32  1  0  0  0  0
 31 59  1  0  0  0  0
 31 60  1  0  0  0  0
 32 33  1  0  0  0  0
 32 39  1  0  0  0  0
 33 34  2  0  0  0  0
 33 61  1  0  0  0  0
 34 35  1  0  0  0  0
 35 36  1  0  0  0  0
 35 39  2  0  0  0  0
 36 37  2  0  0  0  0
 36 38  1  0  0  0  0
M  CHG  2  36   1  38  -1
M  END
$$$$
