CHEMBL3943975
 OpenBabel04072215373D

 51 54  0  0  0  0  0  0  0  0999 V2000
    1.2757    0.8585   -0.1178 O   0  0  0  0  0  0  0  0  0  0  0  0
    2.3648    0.2988   -0.0584 C   0  0  0  0  0  0  0  0  0  0  0  0
    2.9215   -0.4210   -1.1038 N   0  0  0  0  0  0  0  0  0  0  0  0
    2.3013   -0.6670   -2.3553 C   0  0  0  0  0  0  0  0  0  0  0  0
    1.1716    0.0119   -2.8144 C   0  0  0  0  0  0  0  0  0  0  0  0
    0.5616   -0.3726   -4.0054 C   0  0  0  0  0  0  0  0  0  0  0  0
   -0.5292    0.2833   -4.4245 F   0  0  0  0  0  0  0  0  0  0  0  0
    1.0535   -1.4285   -4.7618 C   0  0  0  0  0  0  0  0  0  0  0  0
    2.1953   -2.0968   -4.3288 C   0  0  0  0  0  0  0  0  0  0  0  0
    2.6669   -3.1133   -5.1352 O   0  0  0  0  0  0  0  0  0  0  0  0
    3.1718   -4.2595   -4.5242 C   0  0  0  0  0  0  0  0  0  0  0  0
    3.9919   -5.0628   -5.2911 C   0  0  0  0  0  0  0  0  0  0  0  0
    4.4865   -6.1863   -4.6616 C   0  0  0  0  0  0  0  0  0  0  0  0
    5.3086   -7.0683   -5.3874 N   0  0  0  0  0  0  0  0  0  0  0  0
    5.8004   -8.2531   -4.8750 C   0  0  0  0  0  0  0  0  0  0  0  0
    5.6359   -8.6930   -3.7463 O   0  0  0  0  0  0  0  0  0  0  0  0
    6.6025   -9.1019   -5.8059 C   0  0  0  0  0  0  0  0  0  0  0  0
    7.0576   -8.7537   -7.1979 C   0  0  0  0  0  0  0  0  0  0  0  0
    5.9227   -9.7184   -7.0079 C   0  0  0  0  0  0  0  0  0  0  0  0
    4.1981   -6.4614   -3.3839 N   0  0  0  0  0  0  0  0  0  0  0  0
    3.3738   -5.6365   -2.7399 C   0  0  0  0  0  0  0  0  0  0  0  0
    2.8261   -4.5382   -3.2551 N   0  0  0  0  0  0  0  0  0  0  0  0
    2.8426   -1.6819   -3.1538 C   0  0  0  0  0  0  0  0  0  0  0  0
    3.1775    0.2862    1.0672 N   0  0  0  0  0  0  0  0  0  0  0  0
    2.8533    0.8271    2.3351 C   0  0  0  0  0  0  0  0  0  0  0  0
    1.6135    1.3831    2.6420 C   0  0  0  0  0  0  0  0  0  0  0  0
    1.3606    1.9198    3.9070 C   0  0  0  0  0  0  0  0  0  0  0  0
    2.3432    1.8991    4.8978 C   0  0  0  0  0  0  0  0  0  0  0  0
    1.9119    2.6096    6.4092 Cl  0  0  0  0  0  0  0  0  0  0  0  0
    3.5885    1.3244    4.6358 C   0  0  0  0  0  0  0  0  0  0  0  0
    4.6989    1.2179    5.6488 C   0  0  0  0  0  0  0  0  0  0  0  0
    4.4912    1.8121    6.8510 F   0  0  0  0  0  0  0  0  0  0  0  0
    4.9968   -0.0837    5.9308 F   0  0  0  0  0  0  0  0  0  0  0  0
    5.8609    1.7566    5.1760 F   0  0  0  0  0  0  0  0  0  0  0  0
    3.8273    0.7898    3.3425 C   0  0  0  0  0  0  0  0  0  0  0  0
    3.7104   -1.0091   -0.8789 H   0  0  0  0  0  0  0  0  0  0  0  0
    0.7298    0.8425   -2.2751 H   0  0  0  0  0  0  0  0  0  0  0  0
    0.5370   -1.7185   -5.6702 H   0  0  0  0  0  0  0  0  0  0  0  0
    4.2187   -4.8095   -6.3161 H   0  0  0  0  0  0  0  0  0  0  0  0
    5.5023   -6.8435   -6.3495 H   0  0  0  0  0  0  0  0  0  0  0  0
    7.2742   -9.7594   -5.2551 H   0  0  0  0  0  0  0  0  0  0  0  0
    8.0116   -9.1636   -7.5205 H   0  0  0  0  0  0  0  0  0  0  0  0
    6.8463   -7.7868   -7.6295 H   0  0  0  0  0  0  0  0  0  0  0  0
    6.0985  -10.7739   -7.1867 H   0  0  0  0  0  0  0  0  0  0  0  0
    4.9209   -9.3921   -7.2631 H   0  0  0  0  0  0  0  0  0  0  0  0
    3.1407   -5.8798   -1.7099 H   0  0  0  0  0  0  0  0  0  0  0  0
    3.7463   -2.1930   -2.8361 H   0  0  0  0  0  0  0  0  0  0  0  0
    4.1160   -0.0647    0.9487 H   0  0  0  0  0  0  0  0  0  0  0  0
    0.8001    1.4246    1.9244 H   0  0  0  0  0  0  0  0  0  0  0  0
    0.3851    2.3563    4.1009 H   0  0  0  0  0  0  0  0  0  0  0  0
    4.7982    0.3377    3.1411 H   0  0  0  0  0  0  0  0  0  0  0  0
  1  2  2  0  0  0  0
  2  3  1  0  0  0  0
  2 24  1  0  0  0  0
  3  4  1  0  0  0  0
  3 36  1  0  0  0  0
  4  5  1  0  0  0  0
  4 23  2  0  0  0  0
  5  6  2  0  0  0  0
  5 37  1  0  0  0  0
  6  7  1  0  0  0  0
  6  8  1  0  0  0  0
  8  9  2  0  0  0  0
  8 38  1  0  0  0  0
  9 10  1  0  0  0  0
  9 23  1  0  0  0  0
 10 11  1  0  0  0  0
 11 12  1  0  0  0  0
 11 22  2  0  0  0  0
 12 13  2  0  0  0  0
 12 39  1  0  0  0  0
 13 14  1  0  0  0  0
 13 20  1  0  0  0  0
 14 15  1  0  0  0  0
 14 40  1  0  0  0  0
 15 16  2  0  0  0  0
 15 17  1  0  0  0  0
 17 18  1  0  0  0  0
 17 19  1  0  0  0  0
 17 41  1  0  0  0  0
 18 19  1  0  0  0  0
 18 42  1  0  0  0  0
 18 43  1  0  0  0  0
 19 44  1  0  0  0  0
 19 45  1  0  0  0  0
 20 21  2  0  0  0  0
 21 22  1  0  0  0  0
 21 46  1  0  0  0  0
 23 47  1  0  0  0  0
 24 25  1  0  0  0  0
 24 48  1  0  0  0  0
 25 26  1  0  0  0  0
 25 35  2  0  0  0  0
 26 27  2  0  0  0  0
 26 49  1  0  0  0  0
 27 28  1  0  0  0  0
 27 50  1  0  0  0  0
 28 29  1  0  0  0  0
 28 30  2  0  0  0  0
 30 31  1  0  0  0  0
 30 35  1  0  0  0  0
 31 32  1  0  0  0  0
 31 33  1  0  0  0  0
 31 34  1  0  0  0  0
 35 51  1  0  0  0  0
M  END
$$$$
