CHEMBL271796
 OpenBabel04072215363D

 45 48  0  0  0  0  0  0  0  0999 V2000
    1.2025    2.0516    3.2092 N   0  0  0  0  0  0  0  0  0  0  0  0
    1.4777    0.9570    2.4794 C   0  0  0  0  0  0  0  0  0  0  0  0
    1.8686   -0.1789    3.0564 N   0  0  0  0  0  0  0  0  0  0  0  0
    2.0592   -1.0819    2.0323 O   0  0  0  0  0  0  0  0  0  0  0  0
    1.7753   -0.4918    0.8497 C   0  0  0  0  0  0  0  0  0  0  0  0
    1.8544   -1.1316   -0.3850 C   0  0  0  0  0  0  0  0  0  0  0  0
    1.5027   -0.3787   -1.4996 C   0  0  0  0  0  0  0  0  0  0  0  0
    1.0980    0.9538   -1.3602 C   0  0  0  0  0  0  0  0  0  0  0  0
    1.0223    1.6033   -0.1013 C   0  0  0  0  0  0  0  0  0  0  0  0
    0.5624    3.0057   -0.0058 C   0  0  0  0  0  0  0  0  0  0  0  0
   -0.3317    3.4010    0.9894 C   0  0  0  0  0  0  0  0  0  0  0  0
   -0.6975    4.7366    1.1633 C   0  0  0  0  0  0  0  0  0  0  0  0
   -0.2655    5.7262    0.2812 C   0  0  0  0  0  0  0  0  0  0  0  0
   -0.6525    7.0815    0.4073 N   0  0  0  0  0  0  0  0  0  0  0  0
   -1.2772    7.6321    1.5124 C   0  0  0  0  0  0  0  0  0  0  0  0
   -1.4352    7.0580    2.5883 O   0  0  0  0  0  0  0  0  0  0  0  0
   -1.7576    8.9098    1.2643 N   0  0  0  0  0  0  0  0  0  0  0  0
   -2.4795    9.6088    2.2617 C   0  0  0  0  0  0  0  0  0  0  0  0
   -3.6661   10.2506    1.9071 C   0  0  0  0  0  0  0  0  0  0  0  0
   -4.4492   10.8609    2.8892 C   0  0  0  0  0  0  0  0  0  0  0  0
   -4.0292   10.8710    4.2210 C   0  0  0  0  0  0  0  0  0  0  0  0
   -2.8200   10.2658    4.5889 C   0  0  0  0  0  0  0  0  0  0  0  0
   -2.3424   10.2715    6.0201 C   0  0  0  0  0  0  0  0  0  0  0  0
   -3.1905   10.9176    6.8706 F   0  0  0  0  0  0  0  0  0  0  0  0
   -2.1856    9.0213    6.5342 F   0  0  0  0  0  0  0  0  0  0  0  0
   -1.1370   10.8908    6.1641 F   0  0  0  0  0  0  0  0  0  0  0  0
   -2.0529    9.6349    3.5960 C   0  0  0  0  0  0  0  0  0  0  0  0
    0.5422    5.3382   -0.7897 C   0  0  0  0  0  0  0  0  0  0  0  0
    0.9626    3.9980   -0.9197 C   0  0  0  0  0  0  0  0  0  0  0  0
    1.3840    0.8316    1.0490 C   0  0  0  0  0  0  0  0  0  0  0  0
    1.4099    2.0165    4.2016 H   0  0  0  0  0  0  0  0  0  0  0  0
    1.2602    2.9838    2.8175 H   0  0  0  0  0  0  0  0  0  0  0  0
    2.1639   -2.1677   -0.4613 H   0  0  0  0  0  0  0  0  0  0  0  0
    1.5373   -0.8320   -2.4869 H   0  0  0  0  0  0  0  0  0  0  0  0
    0.8052    1.4888   -2.2609 H   0  0  0  0  0  0  0  0  0  0  0  0
   -0.7529    2.6713    1.6815 H   0  0  0  0  0  0  0  0  0  0  0  0
   -1.3367    4.9554    2.0122 H   0  0  0  0  0  0  0  0  0  0  0  0
   -0.3082    7.7302   -0.2875 H   0  0  0  0  0  0  0  0  0  0  0  0
   -2.0492    9.0622    0.3091 H   0  0  0  0  0  0  0  0  0  0  0  0
   -4.0310   10.2245    0.8845 H   0  0  0  0  0  0  0  0  0  0  0  0
   -5.4016   11.3119    2.6204 H   0  0  0  0  0  0  0  0  0  0  0  0
   -4.6556   11.3471    4.9741 H   0  0  0  0  0  0  0  0  0  0  0  0
   -1.1180    9.1504    3.8799 H   0  0  0  0  0  0  0  0  0  0  0  0
    0.8730    6.0609   -1.5311 H   0  0  0  0  0  0  0  0  0  0  0  0
    1.6190    3.7455   -1.7496 H   0  0  0  0  0  0  0  0  0  0  0  0
  1  2  1  0  0  0  0
  1 31  1  0  0  0  0
  1 32  1  0  0  0  0
  2  3  2  0  0  0  0
  2 30  1  0  0  0  0
  3  4  1  0  0  0  0
  4  5  1  0  0  0  0
  5  6  1  0  0  0  0
  5 30  2  0  0  0  0
  6  7  2  0  0  0  0
  6 33  1  0  0  0  0
  7  8  1  0  0  0  0
  7 34  1  0  0  0  0
  8  9  2  0  0  0  0
  8 35  1  0  0  0  0
  9 10  1  0  0  0  0
  9 30  1  0  0  0  0
 10 11  1  0  0  0  0
 10 29  2  0  0  0  0
 11 12  2  0  0  0  0
 11 36  1  0  0  0  0
 12 13  1  0  0  0  0
 12 37  1  0  0  0  0
 13 14  1  0  0  0  0
 13 28  2  0  0  0  0
 14 15  1  0  0  0  0
 14 38  1  0  0  0  0
 15 16  2  0  0  0  0
 15 17  1  0  0  0  0
 17 18  1  0  0  0  0
 17 39  1  0  0  0  0
 18 19  1  0  0  0  0
 18 27  2  0  0  0  0
 19 20  2  0  0  0  0
 19 40  1  0  0  0  0
 20 21  1  0  0  0  0
 20 41  1  0  0  0  0
 21 22  2  0  0  0  0
 21 42  1  0  0  0  0
 22 23  1  0  0  0  0
 22 27  1  0  0  0  0
 23 24  1  0  0  0  0
 23 25  1  0  0  0  0
 23 26  1  0  0  0  0
 27 43  1  0  0  0  0
 28 29  1  0  0  0  0
 28 44  1  0  0  0  0
 29 45  1  0  0  0  0
M  END
$$$$
