CHEMBL206348
 OpenBabel04072215363D

 45 48  0  0  0  0  0  0  0  0999 V2000
    2.0196    1.2024   -2.4632 C   0  0  0  0  0  0  0  0  0  0  0  0
    0.9054    0.2477   -2.1532 C   0  0  0  0  0  0  0  0  0  0  0  0
    1.1856   -1.0320   -1.6661 C   0  0  0  0  0  0  0  0  0  0  0  0
    0.1534   -1.9004   -1.2948 C   0  0  0  0  0  0  0  0  0  0  0  0
   -1.1801   -1.4992   -1.3754 C   0  0  0  0  0  0  0  0  0  0  0  0
   -2.2685   -2.2708   -0.8893 N   0  0  0  0  0  0  0  0  0  0  0  0
   -2.1898   -3.5148   -0.2834 C   0  0  0  0  0  0  0  0  0  0  0  0
   -1.1484   -4.1398   -0.0918 O   0  0  0  0  0  0  0  0  0  0  0  0
   -3.4722   -4.1789    0.1124 C   0  0  0  0  0  0  0  0  0  0  0  0
   -4.6047   -3.9529   -0.6952 C   0  0  0  0  0  0  0  0  0  0  0  0
   -5.7454   -4.7436   -0.5661 C   0  0  0  0  0  0  0  0  0  0  0  0
   -5.7634   -5.7848    0.3512 C   0  0  0  0  0  0  0  0  0  0  0  0
   -4.6737   -5.9845    1.1979 C   0  0  0  0  0  0  0  0  0  0  0  0
   -3.5223   -5.1704    1.1264 C   0  0  0  0  0  0  0  0  0  0  0  0
   -2.4278   -5.4430    2.1431 C   0  0  0  0  0  0  0  0  0  0  0  0
   -2.6174   -4.7324    3.4163 N   0  0  0  0  0  0  0  0  0  0  0  0
   -3.2926   -5.2585    4.4990 C   0  0  0  0  0  0  0  0  0  0  0  0
   -3.0897   -4.4316    5.5847 C   0  0  0  0  0  0  0  0  0  0  0  0
   -2.2415   -3.3747    5.1616 C   0  0  0  0  0  0  0  0  0  0  0  0
   -1.6602   -2.2793    5.8195 C   0  0  0  0  0  0  0  0  0  0  0  0
   -0.8437   -1.4266    5.1516 N   0  0  0  0  0  0  0  0  0  0  0  0
   -0.6090   -1.6486    3.8415 C   0  0  0  0  0  0  0  0  0  0  0  0
   -1.1448   -2.6913    3.1013 C   0  0  0  0  0  0  0  0  0  0  0  0
   -1.9736   -3.5711    3.8001 C   0  0  0  0  0  0  0  0  0  0  0  0
   -1.4535   -0.2431   -1.9321 C   0  0  0  0  0  0  0  0  0  0  0  0
   -2.7288    0.1523   -2.0804 F   0  0  0  0  0  0  0  0  0  0  0  0
   -0.4308    0.6263   -2.3189 C   0  0  0  0  0  0  0  0  0  0  0  0
    2.9963    0.7615   -2.2338 H   0  0  0  0  0  0  0  0  0  0  0  0
    1.9174    2.1057   -1.8527 H   0  0  0  0  0  0  0  0  0  0  0  0
    2.0119    1.4746   -3.5222 H   0  0  0  0  0  0  0  0  0  0  0  0
    2.2146   -1.3646   -1.5422 H   0  0  0  0  0  0  0  0  0  0  0  0
    0.4398   -2.8769   -0.9207 H   0  0  0  0  0  0  0  0  0  0  0  0
   -3.1695   -1.8082   -0.9569 H   0  0  0  0  0  0  0  0  0  0  0  0
   -4.6038   -3.2068   -1.4848 H   0  0  0  0  0  0  0  0  0  0  0  0
   -6.6004   -4.5753   -1.2165 H   0  0  0  0  0  0  0  0  0  0  0  0
   -6.6238   -6.4473    0.4064 H   0  0  0  0  0  0  0  0  0  0  0  0
   -4.7175   -6.8095    1.9082 H   0  0  0  0  0  0  0  0  0  0  0  0
   -1.4132   -5.2434    1.8025 H   0  0  0  0  0  0  0  0  0  0  0  0
   -2.4267   -6.5132    2.3940 H   0  0  0  0  0  0  0  0  0  0  0  0
   -3.8402   -6.1862    4.4194 H   0  0  0  0  0  0  0  0  0  0  0  0
   -3.4783   -4.5892    6.5824 H   0  0  0  0  0  0  0  0  0  0  0  0
   -1.8104   -2.0777    6.8702 H   0  0  0  0  0  0  0  0  0  0  0  0
    0.0684   -0.9394    3.3728 H   0  0  0  0  0  0  0  0  0  0  0  0
   -0.9006   -2.8128    2.0560 H   0  0  0  0  0  0  0  0  0  0  0  0
   -0.6874    1.6033   -2.7186 H   0  0  0  0  0  0  0  0  0  0  0  0
  1  2  1  0  0  0  0
  1 28  1  0  0  0  0
  1 29  1  0  0  0  0
  1 30  1  0  0  0  0
  2  3  1  0  0  0  0
  2 27  2  0  0  0  0
  3  4  2  0  0  0  0
  3 31  1  0  0  0  0
  4  5  1  0  0  0  0
  4 32  1  0  0  0  0
  5  6  1  0  0  0  0
  5 25  2  0  0  0  0
  6  7  1  0  0  0  0
  6 33  1  0  0  0  0
  7  8  2  0  0  0  0
  7  9  1  0  0  0  0
  9 10  1  0  0  0  0
  9 14  2  0  0  0  0
 10 11  2  0  0  0  0
 10 34  1  0  0  0  0
 11 12  1  0  0  0  0
 11 35  1  0  0  0  0
 12 13  2  0  0  0  0
 12 36  1  0  0  0  0
 13 14  1  0  0  0  0
 13 37  1  0  0  0  0
 14 15  1  0  0  0  0
 15 16  1  0  0  0  0
 15 38  1  0  0  0  0
 15 39  1  0  0  0  0
 16 17  1  0  0  0  0
 16 24  1  0  0  0  0
 17 18  2  0  0  0  0
 17 40  1  0  0  0  0
 18 19  1  0  0  0  0
 18 41  1  0  0  0  0
 19 20  1  0  0  0  0
 19 24  2  0  0  0  0
 20 21  2  0  0  0  0
 20 42  1  0  0  0  0
 21 22  1  0  0  0  0
 22 23  2  0  0  0  0
 22 43  1  0  0  0  0
 23 24  1  0  0  0  0
 23 44  1  0  0  0  0
 25 26  1  0  0  0  0
 25 27  1  0  0  0  0
 27 45  1  0  0  0  0
M  END
$$$$
