CHEMBL566215
 OpenBabel04072215383D

 59 63  0  0  0  0  0  0  0  0999 V2000
    5.3359    6.7945    3.6372 C   0  0  0  0  0  0  0  0  0  0  0  0
    4.4390    7.6698    2.7805 C   0  0  0  0  0  0  0  0  0  0  0  0
    4.1314    7.0411    1.5156 N   0  0  0  0  0  0  0  0  0  0  0  0
    3.0582    6.2412    1.2477 C   0  0  0  0  0  0  0  0  0  0  0  0
    3.1093    5.7730    0.0208 N   0  0  0  0  0  0  0  0  0  0  0  0
    4.2799    6.2686   -0.5062 C   0  0  0  0  0  0  0  0  0  0  0  0
    4.8229    5.8637   -1.8273 C   0  0  0  0  0  0  0  0  0  0  0  0
    4.1674    5.0103   -2.6803 C   0  0  0  0  0  0  0  0  0  0  0  0
    5.0006    4.6105   -3.7616 C   0  0  0  0  0  0  0  0  0  0  0  0
    4.6300    3.6860   -4.6922 N   0  0  0  0  0  0  0  0  0  0  0  0
    5.5864    3.3044   -5.5489 C   0  0  0  0  0  0  0  0  0  0  0  0
    6.8780    3.7907   -5.5493 C   0  0  0  0  0  0  0  0  0  0  0  0
    7.2489    4.7716   -4.6229 C   0  0  0  0  0  0  0  0  0  0  0  0
    8.6239    4.9676   -4.5692 O   0  0  0  0  0  0  0  0  0  0  0  0
    9.2154    6.1302   -4.1502 C   0  0  0  0  0  0  0  0  0  0  0  0
   10.2533    5.9586   -3.2359 C   0  0  0  0  0  0  0  0  0  0  0  0
   11.2531    6.9286   -3.1119 C   0  0  0  0  0  0  0  0  0  0  0  0
   11.2303    8.0837   -3.8960 C   0  0  0  0  0  0  0  0  0  0  0  0
   12.3393    8.9665   -3.9883 N   0  0  0  0  0  0  0  0  0  0  0  0
   13.6548    8.6375   -3.6895 C   0  0  0  0  0  0  0  0  0  0  0  0
   14.0220    7.5427   -3.2549 O   0  0  0  0  0  0  0  0  0  0  0  0
   14.7355    9.6590   -3.9952 C   0  0  0  0  0  0  0  0  0  0  0  0
   14.3030   11.0046   -4.4968 C   0  0  0  0  0  0  0  0  0  0  0  0
   13.3258   11.5725   -4.0123 O   0  0  0  0  0  0  0  0  0  0  0  0
   15.0542   11.4977   -5.5529 N   0  0  0  0  0  0  0  0  0  0  0  0
   14.7531   12.7341   -6.1690 C   0  0  0  0  0  0  0  0  0  0  0  0
   14.4027   13.8659   -5.4286 C   0  0  0  0  0  0  0  0  0  0  0  0
   14.0519   15.0501   -6.0827 C   0  0  0  0  0  0  0  0  0  0  0  0
   14.0319   15.1022   -7.4773 C   0  0  0  0  0  0  0  0  0  0  0  0
   14.3997   13.9809   -8.2209 C   0  0  0  0  0  0  0  0  0  0  0  0
   14.7848   12.8165   -7.5626 C   0  0  0  0  0  0  0  0  0  0  0  0
   15.1125   11.7331   -8.2843 F   0  0  0  0  0  0  0  0  0  0  0  0
   10.0943    8.3316   -4.6804 C   0  0  0  0  0  0  0  0  0  0  0  0
    9.1039    7.3441   -4.8219 C   0  0  0  0  0  0  0  0  0  0  0  0
    8.1151    7.5454   -5.7048 F   0  0  0  0  0  0  0  0  0  0  0  0
    6.2761    5.1952   -3.7100 C   0  0  0  0  0  0  0  0  0  0  0  0
    6.3535    6.3174   -2.4138 S   0  0  0  0  0  0  0  0  0  0  0  0
    4.9049    7.0980    0.3928 C   0  0  0  0  0  0  0  0  0  0  0  0
    5.5458    7.2903    4.5880 H   0  0  0  0  0  0  0  0  0  0  0  0
    6.2930    6.6013    3.1444 H   0  0  0  0  0  0  0  0  0  0  0  0
    4.8613    5.8318    3.8548 H   0  0  0  0  0  0  0  0  0  0  0  0
    4.9279    8.6261    2.5626 H   0  0  0  0  0  0  0  0  0  0  0  0
    3.4935    7.8818    3.2908 H   0  0  0  0  0  0  0  0  0  0  0  0
    2.2920    6.0137    1.9768 H   0  0  0  0  0  0  0  0  0  0  0  0
    3.1792    4.6072   -2.4915 H   0  0  0  0  0  0  0  0  0  0  0  0
    5.2920    2.5221   -6.2439 H   0  0  0  0  0  0  0  0  0  0  0  0
    7.6090    3.3759   -6.2365 H   0  0  0  0  0  0  0  0  0  0  0  0
   10.3470    5.0264   -2.6845 H   0  0  0  0  0  0  0  0  0  0  0  0
   12.0693    6.7289   -2.4238 H   0  0  0  0  0  0  0  0  0  0  0  0
   12.1657    9.8696   -4.4228 H   0  0  0  0  0  0  0  0  0  0  0  0
   15.4250    9.1943   -4.7099 H   0  0  0  0  0  0  0  0  0  0  0  0
   15.2909    9.8336   -3.0658 H   0  0  0  0  0  0  0  0  0  0  0  0
   15.5386   10.8259   -6.1430 H   0  0  0  0  0  0  0  0  0  0  0  0
   14.4069   13.8443   -4.3414 H   0  0  0  0  0  0  0  0  0  0  0  0
   13.7793   15.9271   -5.4997 H   0  0  0  0  0  0  0  0  0  0  0  0
   13.7246   16.0154   -7.9812 H   0  0  0  0  0  0  0  0  0  0  0  0
   14.3685   14.0021   -9.3055 H   0  0  0  0  0  0  0  0  0  0  0  0
   10.0090    9.2326   -5.2811 H   0  0  0  0  0  0  0  0  0  0  0  0
    5.8302    7.6536    0.3495 H   0  0  0  0  0  0  0  0  0  0  0  0
  1  2  1  0  0  0  0
  1 39  1  0  0  0  0
  1 40  1  0  0  0  0
  1 41  1  0  0  0  0
  2  3  1  0  0  0  0
  2 42  1  0  0  0  0
  2 43  1  0  0  0  0
  3  4  1  0  0  0  0
  3 38  1  0  0  0  0
  4  5  2  0  0  0  0
  4 44  1  0  0  0  0
  5  6  1  0  0  0  0
  6  7  1  0  0  0  0
  6 38  2  0  0  0  0
  7  8  2  0  0  0  0
  7 37  1  0  0  0  0
  8  9  1  0  0  0  0
  8 45  1  0  0  0  0
  9 10  1  0  0  0  0
  9 36  2  0  0  0  0
 10 11  2  0  0  0  0
 11 12  1  0  0  0  0
 11 46  1  0  0  0  0
 12 13  2  0  0  0  0
 12 47  1  0  0  0  0
 13 14  1  0  0  0  0
 13 36  1  0  0  0  0
 14 15  1  0  0  0  0
 15 16  1  0  0  0  0
 15 34  2  0  0  0  0
 16 17  2  0  0  0  0
 16 48  1  0  0  0  0
 17 18  1  0  0  0  0
 17 49  1  0  0  0  0
 18 19  1  0  0  0  0
 18 33  2  0  0  0  0
 19 20  1  0  0  0  0
 19 50  1  0  0  0  0
 20 21  2  0  0  0  0
 20 22  1  0  0  0  0
 22 23  1  0  0  0  0
 22 51  1  0  0  0  0
 22 52  1  0  0  0  0
 23 24  2  0  0  0  0
 23 25  1  0  0  0  0
 25 26  1  0  0  0  0
 25 53  1  0  0  0  0
 26 27  1  0  0  0  0
 26 31  2  0  0  0  0
 27 28  2  0  0  0  0
 27 54  1  0  0  0  0
 28 29  1  0  0  0  0
 28 55  1  0  0  0  0
 29 30  2  0  0  0  0
 29 56  1  0  0  0  0
 30 31  1  0  0  0  0
 30 57  1  0  0  0  0
 31 32  1  0  0  0  0
 33 34  1  0  0  0  0
 33 58  1  0  0  0  0
 34 35  1  0  0  0  0
 36 37  1  0  0  0  0
 38 59  1  0  0  0  0
M  END
$$$$
