CHEMBL375692
 OpenBabel04072215373D

 66 71  0  0  0  0  0  0  0  0999 V2000
    1.8879    0.0433   -1.1042 C   0  0  0  0  0  0  0  0  0  0  0  0
    0.4392    0.2220   -1.1120 N   0  0  0  0  0  0  0  0  0  0  0  0
   -0.2494   -1.0305   -0.7610 C   0  0  0  0  0  0  0  0  0  0  0  0
   -1.7826   -0.8387   -0.7277 C   0  0  0  0  0  0  0  0  0  0  0  0
   -2.2466    0.1886    0.2300 N   0  0  0  0  0  0  0  0  0  0  0  0
   -2.0484   -0.1788    1.6444 C   0  0  0  0  0  0  0  0  0  0  0  0
   -2.7723   -1.4425    2.0813 C   0  0  0  0  0  0  0  0  0  0  0  0
   -2.1215   -2.7018    1.9789 C   0  0  0  0  0  0  0  0  0  0  0  0
   -2.7534   -3.8958    2.3329 C   0  0  0  0  0  0  0  0  0  0  0  0
   -4.0267   -3.7981    2.8341 C   0  0  0  0  0  0  0  0  0  0  0  0
   -4.6921   -2.5536    2.9923 C   0  0  0  0  0  0  0  0  0  0  0  0
   -4.0800   -1.3758    2.5937 C   0  0  0  0  0  0  0  0  0  0  0  0
   -6.0776   -2.6928    3.6531 C   0  0  0  0  0  0  0  0  0  0  0  0
   -6.0724   -4.1783    3.8036 C   0  0  0  0  0  0  0  0  0  0  0  0
   -6.8706   -5.2359    4.2844 C   0  0  0  0  0  0  0  0  0  0  0  0
   -8.1824   -5.1570    4.9258 C   0  0  0  0  0  0  0  0  0  0  0  0
   -9.0810   -6.2305    4.8550 C   0  0  0  0  0  0  0  0  0  0  0  0
  -10.3547   -6.1291    5.4215 C   0  0  0  0  0  0  0  0  0  0  0  0
  -10.7435   -4.9513    6.0616 C   0  0  0  0  0  0  0  0  0  0  0  0
   -9.8526   -3.8828    6.1509 C   0  0  0  0  0  0  0  0  0  0  0  0
  -10.2459   -2.6520    6.7619 C   0  0  0  0  0  0  0  0  0  0  0  0
  -10.6157   -1.5073    7.2648 C   0  0  0  0  0  0  0  0  0  0  0  0
  -11.0469   -0.1728    7.8511 C   0  0  0  0  0  0  0  0  0  0  0  0
   -9.9058    0.5333    8.3242 O   0  0  0  0  0  0  0  0  0  0  0  0
  -10.1489    1.7554    8.8933 C   0  0  0  0  0  0  0  0  0  0  0  0
  -11.3976    2.3701    9.0200 C   0  0  0  0  0  0  0  0  0  0  0  0
  -11.5066    3.6271    9.6224 C   0  0  0  0  0  0  0  0  0  0  0  0
  -10.3709    4.2748   10.1021 C   0  0  0  0  0  0  0  0  0  0  0  0
   -9.1243    3.6661    9.9804 C   0  0  0  0  0  0  0  0  0  0  0  0
   -9.0152    2.4116    9.3774 C   0  0  0  0  0  0  0  0  0  0  0  0
   -8.5741   -3.9933    5.6023 C   0  0  0  0  0  0  0  0  0  0  0  0
   -6.2524   -6.4197    4.0512 N   0  0  0  0  0  0  0  0  0  0  0  0
   -5.0726   -6.0952    3.4646 N   0  0  0  0  0  0  0  0  0  0  0  0
   -4.9361   -4.7669    3.3292 C   0  0  0  0  0  0  0  0  0  0  0  0
   -1.5206    1.4446   -0.0912 C   0  0  0  0  0  0  0  0  0  0  0  0
    0.0237    1.3064   -0.2025 C   0  0  0  0  0  0  0  0  0  0  0  0
    2.1797   -0.7614   -1.7888 H   0  0  0  0  0  0  0  0  0  0  0  0
    2.2724   -0.2006   -0.1073 H   0  0  0  0  0  0  0  0  0  0  0  0
    2.3874    0.9522   -1.4560 H   0  0  0  0  0  0  0  0  0  0  0  0
    0.1086   -1.4025    0.2065 H   0  0  0  0  0  0  0  0  0  0  0  0
   -0.0162   -1.8014   -1.5048 H   0  0  0  0  0  0  0  0  0  0  0  0
   -2.2806   -1.7976   -0.5545 H   0  0  0  0  0  0  0  0  0  0  0  0
   -2.1156   -0.5406   -1.7320 H   0  0  0  0  0  0  0  0  0  0  0  0
   -2.4271    0.6420    2.2694 H   0  0  0  0  0  0  0  0  0  0  0  0
   -0.9891   -0.2759    1.9075 H   0  0  0  0  0  0  0  0  0  0  0  0
   -1.1030   -2.7512    1.6034 H   0  0  0  0  0  0  0  0  0  0  0  0
   -2.2460   -4.8466    2.2309 H   0  0  0  0  0  0  0  0  0  0  0  0
   -4.5927   -0.4219    2.6881 H   0  0  0  0  0  0  0  0  0  0  0  0
   -6.8722   -2.3464    2.9886 H   0  0  0  0  0  0  0  0  0  0  0  0
   -6.0870   -2.1800    4.6179 H   0  0  0  0  0  0  0  0  0  0  0  0
   -8.7938   -7.1475    4.3436 H   0  0  0  0  0  0  0  0  0  0  0  0
  -11.0453   -6.9651    5.3502 H   0  0  0  0  0  0  0  0  0  0  0  0
  -11.7436   -4.8727    6.4814 H   0  0  0  0  0  0  0  0  0  0  0  0
  -11.7428   -0.3762    8.6737 H   0  0  0  0  0  0  0  0  0  0  0  0
  -11.5493    0.3951    7.0589 H   0  0  0  0  0  0  0  0  0  0  0  0
  -12.3099    1.9048    8.6626 H   0  0  0  0  0  0  0  0  0  0  0  0
  -12.4806    4.0999    9.7179 H   0  0  0  0  0  0  0  0  0  0  0  0
  -10.4561    5.2519   10.5709 H   0  0  0  0  0  0  0  0  0  0  0  0
   -8.2351    4.1667   10.3531 H   0  0  0  0  0  0  0  0  0  0  0  0
   -8.0389    1.9428    9.2840 H   0  0  0  0  0  0  0  0  0  0  0  0
   -7.8887   -3.1589    5.7113 H   0  0  0  0  0  0  0  0  0  0  0  0
   -4.4440   -6.8408    3.1870 H   0  0  0  0  0  0  0  0  0  0  0  0
   -1.7665    2.2227    0.6427 H   0  0  0  0  0  0  0  0  0  0  0  0
   -1.9023    1.8168   -1.0505 H   0  0  0  0  0  0  0  0  0  0  0  0
    0.4438    1.1490    0.7992 H   0  0  0  0  0  0  0  0  0  0  0  0
    0.4253    2.2574   -0.5729 H   0  0  0  0  0  0  0  0  0  0  0  0
  1  2  1  0  0  0  0
  1 37  1  0  0  0  0
  1 38  1  0  0  0  0
  1 39  1  0  0  0  0
  2  3  1  0  0  0  0
  2 36  1  0  0  0  0
  3  4  1  0  0  0  0
  3 40  1  0  0  0  0
  3 41  1  0  0  0  0
  4  5  1  0  0  0  0
  4 42  1  0  0  0  0
  4 43  1  0  0  0  0
  5  6  1  0  0  0  0
  5 35  1  0  0  0  0
  6  7  1  0  0  0  0
  6 44  1  0  0  0  0
  6 45  1  0  0  0  0
  7  8  1  0  0  0  0
  7 12  2  0  0  0  0
  8  9  2  0  0  0  0
  8 46  1  0  0  0  0
  9 10  1  0  0  0  0
  9 47  1  0  0  0  0
 10 11  2  0  0  0  0
 10 34  1  0  0  0  0
 11 12  1  0  0  0  0
 11 13  1  0  0  0  0
 12 48  1  0  0  0  0
 13 14  1  0  0  0  0
 13 49  1  0  0  0  0
 13 50  1  0  0  0  0
 14 15  1  0  0  0  0
 14 34  2  0  0  0  0
 15 16  1  0  0  0  0
 15 32  2  0  0  0  0
 16 17  1  0  0  0  0
 16 31  2  0  0  0  0
 17 18  2  0  0  0  0
 17 51  1  0  0  0  0
 18 19  1  0  0  0  0
 18 52  1  0  0  0  0
 19 20  2  0  0  0  0
 19 53  1  0  0  0  0
 20 21  1  0  0  0  0
 20 31  1  0  0  0  0
 21 22  3  0  0  0  0
 22 23  1  0  0  0  0
 23 24  1  0  0  0  0
 23 54  1  0  0  0  0
 23 55  1  0  0  0  0
 24 25  1  0  0  0  0
 25 26  1  0  0  0  0
 25 30  2  0  0  0  0
 26 27  2  0  0  0  0
 26 56  1  0  0  0  0
 27 28  1  0  0  0  0
 27 57  1  0  0  0  0
 28 29  2  0  0  0  0
 28 58  1  0  0  0  0
 29 30  1  0  0  0  0
 29 59  1  0  0  0  0
 30 60  1  0  0  0  0
 31 61  1  0  0  0  0
 32 33  1  0  0  0  0
 33 34  1  0  0  0  0
 33 62  1  0  0  0  0
 35 36  1  0  0  0  0
 35 63  1  0  0  0  0
 35 64  1  0  0  0  0
 36 65  1  0  0  0  0
 36 66  1  0  0  0  0
M  END
$$$$
