CHEMBL4466350
 OpenBabel04072215383D

 70 74  0  0  1  0  0  0  0  0999 V2000
    1.8067   -0.7101   -3.4985 C   0  0  0  0  0  0  0  0  0  0  0  0
    2.3368   -0.8003   -2.1792 O   0  0  0  0  0  0  0  0  0  0  0  0
    2.8525    0.3537   -1.6415 C   0  0  0  0  0  0  0  0  0  0  0  0
    2.4214    1.6242   -2.0570 C   0  0  0  0  0  0  0  0  0  0  0  0
    2.9192    2.7901   -1.4684 C   0  0  0  0  0  0  0  0  0  0  0  0
    2.5659    4.1293   -1.9151 C   0  0  0  0  0  0  0  0  0  0  0  0
    1.3517    4.4875   -2.3655 C   0  0  0  0  0  0  0  0  0  0  0  0
    1.2229    5.8945   -2.8117 C   0  0  0  0  0  0  0  0  0  0  0  0
    1.5459    6.1932   -3.9544 O   0  0  0  0  0  0  0  0  0  0  0  0
    0.7130    6.7074   -1.8244 N   0  0  0  0  0  0  0  0  0  0  0  0
    0.2452    8.0297   -2.0014 C   0  0  0  0  0  0  0  0  0  0  0  0
    0.4039    8.7416   -3.1890 C   0  0  0  0  0  0  0  0  0  0  0  0
   -0.5167    9.7533   -3.4979 C   0  0  0  0  0  0  0  0  0  0  0  0
   -0.5847   10.4386   -4.7071 C   0  0  0  0  0  0  0  0  0  0  0  0
   -0.3055   11.8455   -4.6506 N   0  0  0  0  0  0  0  0  0  0  0  0
    0.0117   12.7055   -5.7198 C   0  0  0  0  0  0  0  0  0  0  0  0
   -0.2328   14.0836   -5.5850 C   0  0  0  0  0  0  0  0  0  0  0  0
    0.1810   14.9831   -6.5709 C   0  0  0  0  0  0  0  0  0  0  0  0
    0.8495   14.5062   -7.6921 C   0  0  0  0  0  0  0  0  0  0  0  0
    1.2915   15.3870   -8.6019 F   0  0  0  0  0  0  0  0  0  0  0  0
    1.0620   13.1400   -7.8594 C   0  0  0  0  0  0  0  0  0  0  0  0
    1.9065   12.5470   -9.2376 Cl  0  0  0  0  0  0  0  0  0  0  0  0
    0.6233   12.2390   -6.8872 C   0  0  0  0  0  0  0  0  0  0  0  0
   -1.6186   10.1360   -5.4878 N   0  0  0  0  0  0  0  0  0  0  0  0
   -2.7357    9.8828   -4.7950 C   0  0  0  0  0  0  0  0  0  0  0  0
   -2.8462    9.8910   -3.4456 N   0  0  0  0  0  0  0  0  0  0  0  0
   -1.6907    9.7550   -2.7794 C   0  0  0  0  0  0  0  0  0  0  0  0
   -1.6249    9.3912   -1.4380 C   0  0  0  0  0  0  0  0  0  0  0  0
   -0.5893    8.5621   -1.0099 C   0  0  0  0  0  0  0  0  0  0  0  0
   -0.4393    8.0790    0.2663 O   0  0  0  0  0  0  0  0  0  0  0  0
   -0.7706    8.9786    1.3437 C   0  0  2  0  0  0  0  0  0  0  0  0
    0.2652   10.0672    1.5661 C   0  0  0  0  0  0  0  0  0  0  0  0
    1.2407    9.4875    2.5737 C   0  0  0  0  0  0  0  0  0  0  0  0
    0.6376    8.3363    3.1664 O   0  0  0  0  0  0  0  0  0  0  0  0
   -0.7003    8.2166    2.6645 C   0  0  0  0  0  0  0  0  0  0  0  0
    3.8547    2.6779   -0.4306 C   0  0  0  0  0  0  0  0  0  0  0  0
    4.2635    1.4219    0.0285 C   0  0  0  0  0  0  0  0  0  0  0  0
    5.1769    1.2740    1.0524 O   0  0  0  0  0  0  0  0  0  0  0  0
    5.1191    2.2827    2.0559 C   0  0  0  0  0  0  0  0  0  0  0  0
    3.7954    0.2506   -0.6000 C   0  0  0  0  0  0  0  0  0  0  0  0
    4.2751   -0.9284   -0.0815 O   0  0  0  0  0  0  0  0  0  0  0  0
    4.5274   -1.9694   -1.0190 C   0  0  0  0  0  0  0  0  0  0  0  0
    1.6178   -1.7266   -3.8562 H   0  0  0  0  0  0  0  0  0  0  0  0
    2.5215   -0.2409   -4.1843 H   0  0  0  0  0  0  0  0  0  0  0  0
    0.8499   -0.1783   -3.5008 H   0  0  0  0  0  0  0  0  0  0  0  0
    1.6901    1.7259   -2.8524 H   0  0  0  0  0  0  0  0  0  0  0  0
    3.3579    4.8703   -1.8895 H   0  0  0  0  0  0  0  0  0  0  0  0
    0.4812    3.8463   -2.4503 H   0  0  0  0  0  0  0  0  0  0  0  0
    0.4098    6.2616   -0.9628 H   0  0  0  0  0  0  0  0  0  0  0  0
    1.1097    8.4313   -3.9552 H   0  0  0  0  0  0  0  0  0  0  0  0
    0.1628   12.1223   -3.7957 H   0  0  0  0  0  0  0  0  0  0  0  0
   -0.7614   14.4649   -4.7131 H   0  0  0  0  0  0  0  0  0  0  0  0
   -0.0015   16.0485   -6.4675 H   0  0  0  0  0  0  0  0  0  0  0  0
    0.7982   11.1754   -7.0212 H   0  0  0  0  0  0  0  0  0  0  0  0
   -3.6138    9.6228   -5.3733 H   0  0  0  0  0  0  0  0  0  0  0  0
   -2.4813    9.5964   -0.8066 H   0  0  0  0  0  0  0  0  0  0  0  0
   -1.7826    9.3707    1.2114 H   0  0  0  0  0  0  0  0  0  0  0  0
   -0.2165   10.9425    2.0217 H   0  0  0  0  0  0  0  0  0  0  0  0
    0.7835   10.4090    0.6656 H   0  0  0  0  0  0  0  0  0  0  0  0
    1.4808   10.2084    3.3649 H   0  0  0  0  0  0  0  0  0  0  0  0
    2.1819    9.1799    2.1073 H   0  0  0  0  0  0  0  0  0  0  0  0
   -1.3616    8.6709    3.4106 H   0  0  0  0  0  0  0  0  0  0  0  0
   -0.9429    7.1554    2.5670 H   0  0  0  0  0  0  0  0  0  0  0  0
    4.2599    3.5848    0.0082 H   0  0  0  0  0  0  0  0  0  0  0  0
    5.6837    1.9175    2.9260 H   0  0  0  0  0  0  0  0  0  0  0  0
    4.0942    2.4748    2.3806 H   0  0  0  0  0  0  0  0  0  0  0  0
    5.6048    3.2018    1.7160 H   0  0  0  0  0  0  0  0  0  0  0  0
    5.2809   -2.6347   -0.5849 H   0  0  0  0  0  0  0  0  0  0  0  0
    4.9276   -1.5959   -1.9689 H   0  0  0  0  0  0  0  0  0  0  0  0
    3.6259   -2.5687   -1.1750 H   0  0  0  0  0  0  0  0  0  0  0  0
  1  2  1  0  0  0  0
  1 43  1  0  0  0  0
  1 44  1  0  0  0  0
  1 45  1  0  0  0  0
  2  3  1  0  0  0  0
  3  4  1  0  0  0  0
  3 40  2  0  0  0  0
  4  5  2  0  0  0  0
  4 46  1  0  0  0  0
  5  6  1  0  0  0  0
  5 36  1  0  0  0  0
  6  7  2  0  0  0  0
  6 47  1  0  0  0  0
  7  8  1  0  0  0  0
  7 48  1  0  0  0  0
  8  9  2  0  0  0  0
  8 10  1  0  0  0  0
 10 11  1  0  0  0  0
 10 49  1  0  0  0  0
 11 12  1  0  0  0  0
 11 29  2  0  0  0  0
 12 13  2  0  0  0  0
 12 50  1  0  0  0  0
 13 14  1  0  0  0  0
 13 27  1  0  0  0  0
 14 15  1  0  0  0  0
 14 24  2  0  0  0  0
 15 16  1  0  0  0  0
 15 51  1  0  0  0  0
 16 17  1  0  0  0  0
 16 23  2  0  0  0  0
 17 18  2  0  0  0  0
 17 52  1  0  0  0  0
 18 19  1  0  0  0  0
 18 53  1  0  0  0  0
 19 20  1  0  0  0  0
 19 21  2  0  0  0  0
 21 22  1  0  0  0  0
 21 23  1  0  0  0  0
 23 54  1  0  0  0  0
 24 25  1  0  0  0  0
 25 26  2  0  0  0  0
 25 55  1  0  0  0  0
 26 27  1  0  0  0  0
 27 28  2  0  0  0  0
 28 29  1  0  0  0  0
 28 56  1  0  0  0  0
 29 30  1  0  0  0  0
 30 31  1  0  0  0  0
 31 32  1  0  0  0  0
 31 35  1  0  0  0  0
 31 57  1  6  0  0  0
 32 33  1  0  0  0  0
 32 58  1  0  0  0  0
 32 59  1  0  0  0  0
 33 34  1  0  0  0  0
 33 60  1  0  0  0  0
 33 61  1  0  0  0  0
 34 35  1  0  0  0  0
 35 62  1  0  0  0  0
 35 63  1  0  0  0  0
 36 37  2  0  0  0  0
 36 64  1  0  0  0  0
 37 38  1  0  0  0  0
 37 40  1  0  0  0  0
 38 39  1  0  0  0  0
 39 65  1  0  0  0  0
 39 66  1  0  0  0  0
 39 67  1  0  0  0  0
 40 41  1  0  0  0  0
 41 42  1  0  0  0  0
 42 68  1  0  0  0  0
 42 69  1  0  0  0  0
 42 70  1  0  0  0  0
M  END
$$$$
