CHEMBL1242117
 OpenBabel04072215363D

 33 36  0  0  0  0  0  0  0  0999 V2000
    1.2975   -0.0937   -0.1839 C   0  0  0  0  0  0  0  0  0  0  0  0
    2.7323   -0.1022   -0.3231 N   0  0  0  0  0  0  0  0  0  0  0  0
    3.3984    1.0586   -0.3907 N   0  0  0  0  0  0  0  0  0  0  0  0
    4.6997    0.7127   -0.2946 C   0  0  0  0  0  0  0  0  0  0  0  0
    5.6661    1.7964   -0.0709 C   0  0  0  0  0  0  0  0  0  0  0  0
    5.2296    2.8738    0.7273 C   0  0  0  0  0  0  0  0  0  0  0  0
    6.0479    3.9563    1.0183 C   0  0  0  0  0  0  0  0  0  0  0  0
    7.3546    3.9647    0.5422 C   0  0  0  0  0  0  0  0  0  0  0  0
    8.1192    5.0506    0.8860 O   0  0  0  0  0  0  0  0  0  0  0  0
    9.4462    5.0239    0.5428 C   0  0  0  0  0  0  0  0  0  0  0  0
   10.0529    4.0529   -0.1454 C   0  0  0  0  0  0  0  0  0  0  0  0
    9.2479    2.9085   -0.6157 C   0  0  0  0  0  0  0  0  0  0  0  0
    9.7575    2.0011   -1.2580 O   0  0  0  0  0  0  0  0  0  0  0  0
    7.8228    2.8974   -0.2274 C   0  0  0  0  0  0  0  0  0  0  0  0
    6.9732    1.8253   -0.5694 C   0  0  0  0  0  0  0  0  0  0  0  0
    4.8476   -0.7127   -0.2842 C   0  0  0  0  0  0  0  0  0  0  0  0
    5.8533   -1.6863   -0.2054 C   0  0  0  0  0  0  0  0  0  0  0  0
    7.2152   -1.4374   -0.1786 N   0  0  0  0  0  0  0  0  0  0  0  0
    5.4966   -2.9888   -0.1295 N   0  0  0  0  0  0  0  0  0  0  0  0
    4.1898   -3.3079   -0.1214 C   0  0  0  0  0  0  0  0  0  0  0  0
    3.1434   -2.4746   -0.1911 N   0  0  0  0  0  0  0  0  0  0  0  0
    3.5427   -1.1940   -0.2781 C   0  0  0  0  0  0  0  0  0  0  0  0
    0.9421    0.9406   -0.1451 H   0  0  0  0  0  0  0  0  0  0  0  0
    1.0378   -0.6009    0.7502 H   0  0  0  0  0  0  0  0  0  0  0  0
    0.8583   -0.6077   -1.0408 H   0  0  0  0  0  0  0  0  0  0  0  0
    4.2186    2.8723    1.1347 H   0  0  0  0  0  0  0  0  0  0  0  0
    5.6790    4.7765    1.6210 H   0  0  0  0  0  0  0  0  0  0  0  0
    9.9511    5.9039    0.9201 H   0  0  0  0  0  0  0  0  0  0  0  0
   11.1104    4.0642   -0.3693 H   0  0  0  0  0  0  0  0  0  0  0  0
    7.3474    1.0385   -1.2215 H   0  0  0  0  0  0  0  0  0  0  0  0
    7.5003   -0.5943    0.2975 H   0  0  0  0  0  0  0  0  0  0  0  0
    7.7239   -2.2747    0.0849 H   0  0  0  0  0  0  0  0  0  0  0  0
    3.9563   -4.3653   -0.0376 H   0  0  0  0  0  0  0  0  0  0  0  0
  1  2  1  0  0  0  0
  1 23  1  0  0  0  0
  1 24  1  0  0  0  0
  1 25  1  0  0  0  0
  2  3  1  0  0  0  0
  2 22  1  0  0  0  0
  3  4  2  0  0  0  0
  4  5  1  0  0  0  0
  4 16  1  0  0  0  0
  5  6  1  0  0  0  0
  5 15  2  0  0  0  0
  6  7  2  0  0  0  0
  6 26  1  0  0  0  0
  7  8  1  0  0  0  0
  7 27  1  0  0  0  0
  8  9  1  0  0  0  0
  8 14  2  0  0  0  0
  9 10  1  0  0  0  0
 10 11  2  0  0  0  0
 10 28  1  0  0  0  0
 11 12  1  0  0  0  0
 11 29  1  0  0  0  0
 12 13  2  0  0  0  0
 12 14  1  0  0  0  0
 14 15  1  0  0  0  0
 15 30  1  0  0  0  0
 16 17  1  0  0  0  0
 16 22  2  0  0  0  0
 17 18  1  0  0  0  0
 17 19  2  0  0  0  0
 18 31  1  0  0  0  0
 18 32  1  0  0  0  0
 19 20  1  0  0  0  0
 20 21  2  0  0  0  0
 20 33  1  0  0  0  0
 21 22  1  0  0  0  0
M  END
$$$$
