CHEMBL475924
 OpenBabel04072215383D

 34 36  0  0  0  0  0  0  0  0999 V2000
   -2.2779    0.0804    0.0197 F   0  0  0  0  0  0  0  0  0  0  0  0
   -0.9386    0.0837    0.0345 C   0  0  0  0  0  0  0  0  0  0  0  0
   -0.2347    1.2537    0.0499 C   0  0  0  0  0  0  0  0  0  0  0  0
    1.1063    1.2938    0.0457 N   0  0  0  0  0  0  0  0  0  0  0  0
    1.7713    0.1237    0.0399 C   0  0  0  0  0  0  0  0  0  0  0  0
    3.1645    0.1351   -0.0023 N   0  0  0  0  0  0  0  0  0  0  0  0
    3.9835    1.1467   -0.5366 C   0  0  0  0  0  0  0  0  0  0  0  0
    5.2651    1.3568   -0.0140 C   0  0  0  0  0  0  0  0  0  0  0  0
    6.0421    2.4402   -0.4432 C   0  0  0  0  0  0  0  0  0  0  0  0
    5.5543    3.3148   -1.4149 C   0  0  0  0  0  0  0  0  0  0  0  0
    4.2976    3.0935   -1.9627 C   0  0  0  0  0  0  0  0  0  0  0  0
    3.6133    4.2645   -3.2806 Br  0  0  0  0  0  0  0  0  0  0  0  0
    3.5215    2.0200   -1.5315 C   0  0  0  0  0  0  0  0  0  0  0  0
    1.1581   -1.0658    0.0815 N   0  0  0  0  0  0  0  0  0  0  0  0
   -0.1976   -1.0838    0.0563 C   0  0  0  0  0  0  0  0  0  0  0  0
   -0.8907   -2.3185    0.1021 N   0  0  0  0  0  0  0  0  0  0  0  0
   -0.3478   -3.5482    0.5126 C   0  0  0  0  0  0  0  0  0  0  0  0
    0.5132   -3.6125    1.6175 C   0  0  0  0  0  0  0  0  0  0  0  0
    1.0992   -4.8146    2.0099 C   0  0  0  0  0  0  0  0  0  0  0  0
    0.8292   -5.9766    1.2948 C   0  0  0  0  0  0  0  0  0  0  0  0
   -0.0397   -5.9282    0.2056 C   0  0  0  0  0  0  0  0  0  0  0  0
   -0.3953   -7.5095   -0.7700 Br  0  0  0  0  0  0  0  0  0  0  0  0
   -0.6357   -4.7260   -0.1837 C   0  0  0  0  0  0  0  0  0  0  0  0
   -0.7340    2.2148    0.0657 H   0  0  0  0  0  0  0  0  0  0  0  0
    3.5494   -0.7934    0.0546 H   0  0  0  0  0  0  0  0  0  0  0  0
    5.6493    0.7109    0.7721 H   0  0  0  0  0  0  0  0  0  0  0  0
    7.0192    2.6174   -0.0008 H   0  0  0  0  0  0  0  0  0  0  0  0
    6.1521    4.1653   -1.7295 H   0  0  0  0  0  0  0  0  0  0  0  0
    2.5410    1.8663   -1.9745 H   0  0  0  0  0  0  0  0  0  0  0  0
   -1.6016   -2.3747   -0.6189 H   0  0  0  0  0  0  0  0  0  0  0  0
    0.7320   -2.7113    2.1874 H   0  0  0  0  0  0  0  0  0  0  0  0
    1.7696   -4.8336    2.8639 H   0  0  0  0  0  0  0  0  0  0  0  0
    1.3022   -6.9084    1.5909 H   0  0  0  0  0  0  0  0  0  0  0  0
   -1.3002   -4.7066   -1.0422 H   0  0  0  0  0  0  0  0  0  0  0  0
  1  2  1  0  0  0  0
  2  3  1  0  0  0  0
  2 15  2  0  0  0  0
  3  4  2  0  0  0  0
  3 24  1  0  0  0  0
  4  5  1  0  0  0  0
  5  6  1  0  0  0  0
  5 14  2  0  0  0  0
  6  7  1  0  0  0  0
  6 25  1  0  0  0  0
  7  8  1  0  0  0  0
  7 13  2  0  0  0  0
  8  9  2  0  0  0  0
  8 26  1  0  0  0  0
  9 10  1  0  0  0  0
  9 27  1  0  0  0  0
 10 11  2  0  0  0  0
 10 28  1  0  0  0  0
 11 12  1  0  0  0  0
 11 13  1  0  0  0  0
 13 29  1  0  0  0  0
 14 15  1  0  0  0  0
 15 16  1  0  0  0  0
 16 17  1  0  0  0  0
 16 30  1  0  0  0  0
 17 18  1  0  0  0  0
 17 23  2  0  0  0  0
 18 19  2  0  0  0  0
 18 31  1  0  0  0  0
 19 20  1  0  0  0  0
 19 32  1  0  0  0  0
 20 21  2  0  0  0  0
 20 33  1  0  0  0  0
 21 22  1  0  0  0  0
 21 23  1  0  0  0  0
 23 34  1  0  0  0  0
M  END
$$$$
