CHEMBL1971947
 OpenBabel04072215363D

 56 60  0  0  0  0  0  0  0  0999 V2000
    2.4005   -0.3721    1.3443 C   0  0  0  0  0  0  0  0  0  0  0  0
    0.9008   -0.2864    1.3361 C   0  0  0  0  0  0  0  0  0  0  0  0
    0.2880    0.9041    1.7382 C   0  0  0  0  0  0  0  0  0  0  0  0
   -1.0944    1.0096    1.7341 C   0  0  0  0  0  0  0  0  0  0  0  0
   -1.8745   -0.0749    1.3311 C   0  0  0  0  0  0  0  0  0  0  0  0
   -1.3010   -1.2808    0.9182 C   0  0  0  0  0  0  0  0  0  0  0  0
   -2.0811   -2.4003    0.5046 N   0  0  0  0  0  0  0  0  0  0  0  0
   -3.4641   -2.4087    0.3763 C   0  0  0  0  0  0  0  0  0  0  0  0
   -4.1958   -1.4389    0.5566 O   0  0  0  0  0  0  0  0  0  0  0  0
   -3.9739   -3.6633    0.0491 N   0  0  0  0  0  0  0  0  0  0  0  0
   -5.3767   -3.8174   -0.1324 C   0  0  0  0  0  0  0  0  0  0  0  0
   -6.1117   -2.9086   -0.8977 C   0  0  0  0  0  0  0  0  0  0  0  0
   -7.5112   -2.9745   -0.9402 C   0  0  0  0  0  0  0  0  0  0  0  0
   -8.2149   -3.9720   -0.2457 C   0  0  0  0  0  0  0  0  0  0  0  0
   -9.6965   -3.9709   -0.2214 C   0  0  0  0  0  0  0  0  0  0  0  0
  -10.3786   -3.5852   -1.3612 C   0  0  0  0  0  0  0  0  0  0  0  0
  -12.0625   -3.5918   -1.1900 S   0  0  0  0  0  0  0  0  0  0  0  0
  -11.9796   -4.1324    0.4452 C   0  0  0  0  0  0  0  0  0  0  0  0
  -13.0694   -4.3891    1.3030 C   0  0  0  0  0  0  0  0  0  0  0  0
  -14.4275   -4.2191    0.8784 C   0  0  0  0  0  0  0  0  0  0  0  0
  -15.5663   -4.0691    0.5100 C   0  0  0  0  0  0  0  0  0  0  0  0
  -16.9077   -3.8896    0.0630 C   0  0  0  0  0  0  0  0  0  0  0  0
  -17.5133   -4.8131   -0.7880 C   0  0  0  0  0  0  0  0  0  0  0  0
  -18.8124   -4.5850   -1.2388 C   0  0  0  0  0  0  0  0  0  0  0  0
  -19.4657   -3.4371   -0.8182 C   0  0  0  0  0  0  0  0  0  0  0  0
  -18.9196   -2.5282    0.0185 N   0  0  0  0  0  0  0  0  0  0  0  0
  -17.6536   -2.7745    0.4378 C   0  0  0  0  0  0  0  0  0  0  0  0
  -12.7551   -4.8044    2.5757 C   0  0  0  0  0  0  0  0  0  0  0  0
  -11.4976   -4.9660    3.0273 N   0  0  0  0  0  0  0  0  0  0  0  0
  -10.4433   -4.7135    2.2199 C   0  0  0  0  0  0  0  0  0  0  0  0
   -9.2126   -4.8822    2.8406 N   0  0  0  0  0  0  0  0  0  0  0  0
  -10.6403   -4.2945    0.8702 C   0  0  0  0  0  0  0  0  0  0  0  0
   -7.4551   -4.9459    0.4168 C   0  0  0  0  0  0  0  0  0  0  0  0
   -6.0516   -4.8593    0.4971 C   0  0  0  0  0  0  0  0  0  0  0  0
    0.1013   -1.3782    0.9257 C   0  0  0  0  0  0  0  0  0  0  0  0
    2.8472    0.5613    1.7096 H   0  0  0  0  0  0  0  0  0  0  0  0
    2.7792   -0.5419    0.3324 H   0  0  0  0  0  0  0  0  0  0  0  0
    2.7360   -1.1754    2.0064 H   0  0  0  0  0  0  0  0  0  0  0  0
    0.8786    1.7587    2.0583 H   0  0  0  0  0  0  0  0  0  0  0  0
   -1.5797    1.9314    2.0419 H   0  0  0  0  0  0  0  0  0  0  0  0
   -2.9466    0.0801    1.3576 H   0  0  0  0  0  0  0  0  0  0  0  0
   -1.5817   -3.2098    0.1759 H   0  0  0  0  0  0  0  0  0  0  0  0
   -3.4879   -4.4394    0.4742 H   0  0  0  0  0  0  0  0  0  0  0  0
   -5.6079   -2.1122   -1.4423 H   0  0  0  0  0  0  0  0  0  0  0  0
   -8.0318   -2.2060   -1.5074 H   0  0  0  0  0  0  0  0  0  0  0  0
   -9.9681   -3.2869   -2.3164 H   0  0  0  0  0  0  0  0  0  0  0  0
  -16.9779   -5.7033   -1.1069 H   0  0  0  0  0  0  0  0  0  0  0  0
  -19.3008   -5.2835   -1.9091 H   0  0  0  0  0  0  0  0  0  0  0  0
  -20.4731   -3.2098   -1.1563 H   0  0  0  0  0  0  0  0  0  0  0  0
  -17.2424   -2.0209    1.1039 H   0  0  0  0  0  0  0  0  0  0  0  0
  -13.5291   -5.0224    3.3075 H   0  0  0  0  0  0  0  0  0  0  0  0
   -9.3563   -4.9912    3.8390 H   0  0  0  0  0  0  0  0  0  0  0  0
   -8.5327   -4.1770    2.5842 H   0  0  0  0  0  0  0  0  0  0  0  0
   -7.9443   -5.7759    0.9219 H   0  0  0  0  0  0  0  0  0  0  0  0
   -5.5197   -5.5727    1.1203 H   0  0  0  0  0  0  0  0  0  0  0  0
    0.5921   -2.2969    0.6152 H   0  0  0  0  0  0  0  0  0  0  0  0
  1  2  1  0  0  0  0
  1 36  1  0  0  0  0
  1 37  1  0  0  0  0
  1 38  1  0  0  0  0
  2  3  1  0  0  0  0
  2 35  2  0  0  0  0
  3  4  2  0  0  0  0
  3 39  1  0  0  0  0
  4  5  1  0  0  0  0
  4 40  1  0  0  0  0
  5  6  2  0  0  0  0
  5 41  1  0  0  0  0
  6  7  1  0  0  0  0
  6 35  1  0  0  0  0
  7  8  1  0  0  0  0
  7 42  1  0  0  0  0
  8  9  2  0  0  0  0
  8 10  1  0  0  0  0
 10 11  1  0  0  0  0
 10 43  1  0  0  0  0
 11 12  1  0  0  0  0
 11 34  2  0  0  0  0
 12 13  2  0  0  0  0
 12 44  1  0  0  0  0
 13 14  1  0  0  0  0
 13 45  1  0  0  0  0
 14 15  1  0  0  0  0
 14 33  2  0  0  0  0
 15 16  2  0  0  0  0
 15 32  1  0  0  0  0
 16 17  1  0  0  0  0
 16 46  1  0  0  0  0
 17 18  1  0  0  0  0
 18 19  1  0  0  0  0
 18 32  2  0  0  0  0
 19 20  1  0  0  0  0
 19 28  2  0  0  0  0
 20 21  3  0  0  0  0
 21 22  1  0  0  0  0
 22 23  1  0  0  0  0
 22 27  2  0  0  0  0
 23 24  2  0  0  0  0
 23 47  1  0  0  0  0
 24 25  1  0  0  0  0
 24 48  1  0  0  0  0
 25 26  2  0  0  0  0
 25 49  1  0  0  0  0
 26 27  1  0  0  0  0
 27 50  1  0  0  0  0
 28 29  1  0  0  0  0
 28 51  1  0  0  0  0
 29 30  2  0  0  0  0
 30 31  1  0  0  0  0
 30 32  1  0  0  0  0
 31 52  1  0  0  0  0
 31 53  1  0  0  0  0
 33 34  1  0  0  0  0
 33 54  1  0  0  0  0
 34 55  1  0  0  0  0
 35 56  1  0  0  0  0
M  END
$$$$
