CHEMBL3690566
 OpenBabel04072215373D

 60 64  0  0  0  0  0  0  0  0999 V2000
    5.3984    1.9089   -2.8726 O   0  0  0  0  0  0  0  0  0  0  0  0
    6.3426    2.4867   -2.3462 C   0  0  0  0  0  0  0  0  0  0  0  0
    7.0663    3.4536   -3.0184 N   0  0  0  0  0  0  0  0  0  0  0  0
    6.7983    3.6485   -4.4480 C   0  0  0  0  0  0  0  0  0  0  0  0
    7.5205    2.6641   -5.3781 C   0  0  0  0  0  0  0  0  0  0  0  0
    8.3403    1.8347   -4.6915 F   0  0  0  0  0  0  0  0  0  0  0  0
    6.6667    1.9107   -6.0992 F   0  0  0  0  0  0  0  0  0  0  0  0
    8.3017    3.3457   -6.2524 F   0  0  0  0  0  0  0  0  0  0  0  0
    6.8139    2.3193   -1.0621 N   0  0  0  0  0  0  0  0  0  0  0  0
    6.3031    1.4401   -0.0789 C   0  0  0  0  0  0  0  0  0  0  0  0
    5.1923    0.6267   -0.2551 C   0  0  0  0  0  0  0  0  0  0  0  0
    4.7328   -0.1687    0.7949 C   0  0  0  0  0  0  0  0  0  0  0  0
    5.3690   -0.1449    2.0335 C   0  0  0  0  0  0  0  0  0  0  0  0
    6.5037    0.6474    2.2330 C   0  0  0  0  0  0  0  0  0  0  0  0
    7.1927    0.6254    3.5282 C   0  0  0  0  0  0  0  0  0  0  0  0
    7.3473   -0.4244    4.4228 C   0  0  0  0  0  0  0  0  0  0  0  0
    8.0827   -0.0690    5.5194 N   0  0  0  0  0  0  0  0  0  0  0  0
    8.3774    1.1975    5.3358 C   0  0  0  0  0  0  0  0  0  0  0  0
    9.1199    2.0982    6.1527 C   0  0  0  0  0  0  0  0  0  0  0  0
    9.2915    3.3936    5.7945 C   0  0  0  0  0  0  0  0  0  0  0  0
   10.0134    4.3242    6.6063 C   0  0  0  0  0  0  0  0  0  0  0  0
   11.0681    4.0944    7.5187 C   0  0  0  0  0  0  0  0  0  0  0  0
   11.5257    5.2254    8.0568 N   0  0  0  0  0  0  0  0  0  0  0  0
   10.7610    6.1871    7.5021 N   0  0  0  0  0  0  0  0  0  0  0  0
   11.0183    7.5702    7.7919 C   0  0  0  0  0  0  0  0  0  0  0  0
    9.8024    8.3121    8.3817 C   0  0  0  0  0  0  0  0  0  0  0  0
   10.0557    9.4525    7.4609 N   0  0  0  0  0  0  0  0  0  0  0  0
   10.9426   10.4493    8.1048 C   0  0  0  0  0  0  0  0  0  0  0  0
   11.1838   11.6457    7.1725 C   0  0  0  0  0  0  0  0  0  0  0  0
    9.9535   12.2731    6.8237 O   0  0  0  0  0  0  0  0  0  0  0  0
   10.8375    8.5359    6.5949 C   0  0  0  0  0  0  0  0  0  0  0  0
    9.8088    5.6833    6.6577 C   0  0  0  0  0  0  0  0  0  0  0  0
    8.7011    3.8571    4.5295 C   0  0  0  0  0  0  0  0  0  0  0  0
    7.9793    3.0227    3.7705 C   0  0  0  0  0  0  0  0  0  0  0  0
    7.8345    1.6887    4.1521 N   0  0  0  0  0  0  0  0  0  0  0  0
    6.9743    1.4144    1.1523 C   0  0  0  0  0  0  0  0  0  0  0  0
    8.0345    3.5478   -2.7395 H   0  0  0  0  0  0  0  0  0  0  0  0
    7.1041    4.6714   -4.6792 H   0  0  0  0  0  0  0  0  0  0  0  0
    5.7149    3.5866   -4.6209 H   0  0  0  0  0  0  0  0  0  0  0  0
    7.5585    2.9312   -0.7795 H   0  0  0  0  0  0  0  0  0  0  0  0
    4.6519    0.5852   -1.1973 H   0  0  0  0  0  0  0  0  0  0  0  0
    3.8553   -0.7988    0.6461 H   0  0  0  0  0  0  0  0  0  0  0  0
    4.9690   -0.7601    2.8364 H   0  0  0  0  0  0  0  0  0  0  0  0
    6.9757   -1.4353    4.3147 H   0  0  0  0  0  0  0  0  0  0  0  0
    9.5155    1.6987    7.0804 H   0  0  0  0  0  0  0  0  0  0  0  0
   11.5304    3.1570    7.7982 H   0  0  0  0  0  0  0  0  0  0  0  0
   11.9361    7.7236    8.3745 H   0  0  0  0  0  0  0  0  0  0  0  0
    9.8734    8.5295    9.4537 H   0  0  0  0  0  0  0  0  0  0  0  0
    8.8230    7.8469    8.2127 H   0  0  0  0  0  0  0  0  0  0  0  0
   11.9091   10.0300    8.4103 H   0  0  0  0  0  0  0  0  0  0  0  0
   10.4420   10.8188    9.0083 H   0  0  0  0  0  0  0  0  0  0  0  0
   11.6849   11.3421    6.2482 H   0  0  0  0  0  0  0  0  0  0  0  0
   11.8143   12.3880    7.6715 H   0  0  0  0  0  0  0  0  0  0  0  0
    9.3651   11.5471    6.5394 H   0  0  0  0  0  0  0  0  0  0  0  0
   11.7706    8.9346    6.1783 H   0  0  0  0  0  0  0  0  0  0  0  0
   10.2452    8.1798    5.7434 H   0  0  0  0  0  0  0  0  0  0  0  0
    9.0959    6.3226    6.1597 H   0  0  0  0  0  0  0  0  0  0  0  0
    8.8543    4.8844    4.2131 H   0  0  0  0  0  0  0  0  0  0  0  0
    7.5049    3.3613    2.8629 H   0  0  0  0  0  0  0  0  0  0  0  0
    7.8917    1.9824    1.2547 H   0  0  0  0  0  0  0  0  0  0  0  0
  1  2  2  0  0  0  0
  2  3  1  0  0  0  0
  2  9  1  0  0  0  0
  3  4  1  0  0  0  0
  3 37  1  0  0  0  0
  4  5  1  0  0  0  0
  4 38  1  0  0  0  0
  4 39  1  0  0  0  0
  5  6  1  0  0  0  0
  5  7  1  0  0  0  0
  5  8  1  0  0  0  0
  9 10  1  0  0  0  0
  9 40  1  0  0  0  0
 10 11  1  0  0  0  0
 10 36  2  0  0  0  0
 11 12  2  0  0  0  0
 11 41  1  0  0  0  0
 12 13  1  0  0  0  0
 12 42  1  0  0  0  0
 13 14  2  0  0  0  0
 13 43  1  0  0  0  0
 14 15  1  0  0  0  0
 14 36  1  0  0  0  0
 15 16  2  0  0  0  0
 15 35  1  0  0  0  0
 16 17  1  0  0  0  0
 16 44  1  0  0  0  0
 17 18  2  0  0  0  0
 18 19  1  0  0  0  0
 18 35  1  0  0  0  0
 19 20  2  0  0  0  0
 19 45  1  0  0  0  0
 20 21  1  0  0  0  0
 20 33  1  0  0  0  0
 21 22  1  0  0  0  0
 21 32  2  0  0  0  0
 22 23  2  0  0  0  0
 22 46  1  0  0  0  0
 23 24  1  0  0  0  0
 24 25  1  0  0  0  0
 24 32  1  0  0  0  0
 25 26  1  0  0  0  0
 25 31  1  0  0  0  0
 25 47  1  0  0  0  0
 26 27  1  0  0  0  0
 26 48  1  0  0  0  0
 26 49  1  0  0  0  0
 27 28  1  0  0  0  0
 27 31  1  0  0  0  0
 28 29  1  0  0  0  0
 28 50  1  0  0  0  0
 28 51  1  0  0  0  0
 29 30  1  0  0  0  0
 29 52  1  0  0  0  0
 29 53  1  0  0  0  0
 30 54  1  0  0  0  0
 31 55  1  0  0  0  0
 31 56  1  0  0  0  0
 32 57  1  0  0  0  0
 33 34  2  0  0  0  0
 33 58  1  0  0  0  0
 34 35  1  0  0  0  0
 34 59  1  0  0  0  0
 36 60  1  0  0  0  0
M  END
$$$$
