CHEMBL3696071
 OpenBabel04072215373D

 52 54  0  0  0  0  0  0  0  0999 V2000
    3.0621   -3.5930    3.7679 N   0  0  0  0  0  0  0  0  0  0  0  0
    3.5991   -2.3356    3.8782 C   0  0  0  0  0  0  0  0  0  0  0  0
    3.9484   -1.9328    4.9802 O   0  0  0  0  0  0  0  0  0  0  0  0
    3.7497   -1.5864    2.6386 C   0  0  0  0  0  0  0  0  0  0  0  0
    4.8141   -0.6222    2.3497 C   0  0  0  0  0  0  0  0  0  0  0  0
    5.9630   -0.2911    3.2067 C   0  0  0  0  0  0  0  0  0  0  0  0
    6.6534   -1.2954    3.8915 C   0  0  0  0  0  0  0  0  0  0  0  0
    7.6466   -0.9654    4.8132 C   0  0  0  0  0  0  0  0  0  0  0  0
    7.9707    0.3670    5.0628 C   0  0  0  0  0  0  0  0  0  0  0  0
    9.0028    0.6816    5.9564 N   0  0  0  0  0  0  0  0  0  0  0  0
    7.4046    1.3558    4.2560 C   0  0  0  0  0  0  0  0  0  0  0  0
    6.3890    1.0333    3.3479 C   0  0  0  0  0  0  0  0  0  0  0  0
    4.7100    0.0086    1.1781 N   0  0  0  0  0  0  0  0  0  0  0  0
    3.3994   -0.5498    0.3670 S   0  0  0  0  0  0  0  0  0  0  0  0
    2.8907   -1.6696    1.5465 C   0  0  0  0  0  0  0  0  0  0  0  0
    1.7370   -2.4265    1.3780 N   0  0  0  0  0  0  0  0  0  0  0  0
    1.1195   -2.6234    0.1605 C   0  0  0  0  0  0  0  0  0  0  0  0
    1.5366   -2.2626   -0.9337 O   0  0  0  0  0  0  0  0  0  0  0  0
   -0.0894   -3.2790    0.2779 N   0  0  0  0  0  0  0  0  0  0  0  0
   -0.8395   -3.5007   -0.9453 C   0  0  0  0  0  0  0  0  0  0  0  0
   -2.1591   -4.2300   -0.7467 C   0  0  0  0  0  0  0  0  0  0  0  0
   -3.1320   -3.4644    0.1609 C   0  0  0  0  0  0  0  0  0  0  0  0
   -4.3460   -4.2460    0.4291 N   0  0  0  0  0  0  0  0  0  0  0  0
   -5.2488   -4.3834   -0.7356 C   0  0  0  0  0  0  0  0  0  0  0  0
   -6.1235   -3.1516   -1.0194 C   0  0  0  0  0  0  0  0  0  0  0  0
   -6.8928   -2.7940    0.1329 O   0  0  0  0  0  0  0  0  0  0  0  0
   -6.0260   -2.5050    1.2343 C   0  0  0  0  0  0  0  0  0  0  0  0
   -5.1166   -3.7001    1.5692 C   0  0  0  0  0  0  0  0  0  0  0  0
    3.1598   -4.1508    4.6109 H   0  0  0  0  0  0  0  0  0  0  0  0
    3.1181   -4.0852    2.8886 H   0  0  0  0  0  0  0  0  0  0  0  0
    6.4132   -2.3430    3.7390 H   0  0  0  0  0  0  0  0  0  0  0  0
    8.1435   -1.7640    5.3583 H   0  0  0  0  0  0  0  0  0  0  0  0
    9.0771    0.0078    6.7143 H   0  0  0  0  0  0  0  0  0  0  0  0
    8.9431    1.6325    6.3076 H   0  0  0  0  0  0  0  0  0  0  0  0
    7.7268    2.3876    4.3437 H   0  0  0  0  0  0  0  0  0  0  0  0
    5.9296    1.8276    2.7633 H   0  0  0  0  0  0  0  0  0  0  0  0
    1.3570   -2.9019    2.1892 H   0  0  0  0  0  0  0  0  0  0  0  0
   -0.1789   -3.9613    1.0159 H   0  0  0  0  0  0  0  0  0  0  0  0
   -0.2031   -4.0811   -1.6251 H   0  0  0  0  0  0  0  0  0  0  0  0
   -1.0122   -2.5250   -1.4162 H   0  0  0  0  0  0  0  0  0  0  0  0
   -1.9641   -5.2268   -0.3314 H   0  0  0  0  0  0  0  0  0  0  0  0
   -2.5990   -4.3758   -1.7395 H   0  0  0  0  0  0  0  0  0  0  0  0
   -3.3579   -2.4771   -0.2564 H   0  0  0  0  0  0  0  0  0  0  0  0
   -2.6158   -3.2964    1.1147 H   0  0  0  0  0  0  0  0  0  0  0  0
   -5.9148   -5.2286   -0.5194 H   0  0  0  0  0  0  0  0  0  0  0  0
   -4.7044   -4.6635   -1.6423 H   0  0  0  0  0  0  0  0  0  0  0  0
   -6.8280   -3.3798   -1.8260 H   0  0  0  0  0  0  0  0  0  0  0  0
   -5.5252   -2.2903   -1.3375 H   0  0  0  0  0  0  0  0  0  0  0  0
   -6.6616   -2.2789    2.0970 H   0  0  0  0  0  0  0  0  0  0  0  0
   -5.4443   -1.6049    1.0060 H   0  0  0  0  0  0  0  0  0  0  0  0
   -5.7485   -4.5155    1.9424 H   0  0  0  0  0  0  0  0  0  0  0  0
   -4.4502   -3.4343    2.3988 H   0  0  0  0  0  0  0  0  0  0  0  0
  1  2  1  0  0  0  0
  1 29  1  0  0  0  0
  1 30  1  0  0  0  0
  2  3  2  0  0  0  0
  2  4  1  0  0  0  0
  4  5  1  0  0  0  0
  4 15  2  0  0  0  0
  5  6  1  0  0  0  0
  5 13  2  0  0  0  0
  6  7  1  0  0  0  0
  6 12  2  0  0  0  0
  7  8  2  0  0  0  0
  7 31  1  0  0  0  0
  8  9  1  0  0  0  0
  8 32  1  0  0  0  0
  9 10  1  0  0  0  0
  9 11  2  0  0  0  0
 10 33  1  0  0  0  0
 10 34  1  0  0  0  0
 11 12  1  0  0  0  0
 11 35  1  0  0  0  0
 12 36  1  0  0  0  0
 13 14  1  0  0  0  0
 14 15  1  0  0  0  0
 15 16  1  0  0  0  0
 16 17  1  0  0  0  0
 16 37  1  0  0  0  0
 17 18  2  0  0  0  0
 17 19  1  0  0  0  0
 19 20  1  0  0  0  0
 19 38  1  0  0  0  0
 20 21  1  0  0  0  0
 20 39  1  0  0  0  0
 20 40  1  0  0  0  0
 21 22  1  0  0  0  0
 21 41  1  0  0  0  0
 21 42  1  0  0  0  0
 22 23  1  0  0  0  0
 22 43  1  0  0  0  0
 22 44  1  0  0  0  0
 23 24  1  0  0  0  0
 23 28  1  0  0  0  0
 24 25  1  0  0  0  0
 24 45  1  0  0  0  0
 24 46  1  0  0  0  0
 25 26  1  0  0  0  0
 25 47  1  0  0  0  0
 25 48  1  0  0  0  0
 26 27  1  0  0  0  0
 27 28  1  0  0  0  0
 27 49  1  0  0  0  0
 27 50  1  0  0  0  0
 28 51  1  0  0  0  0
 28 52  1  0  0  0  0
M  END
$$$$
