CHEMBL1987658
 OpenBabel04072215363D

 39 42  0  0  0  0  0  0  0  0999 V2000
    3.3262    0.1305    2.5469 O   0  0  0  0  0  0  0  0  0  0  0  0
    2.9023    1.4680    2.1913 S   0  0  0  0  0  0  0  0  0  0  0  0
    3.5336    2.6388    2.7596 O   0  0  0  0  0  0  0  0  0  0  0  0
    2.9788    1.5615    0.5140 N   0  0  0  0  0  0  0  0  0  0  0  0
    2.5985    2.7526   -0.1507 C   0  0  0  0  0  0  0  0  0  0  0  0
    1.2853    2.8954   -0.6250 C   0  0  0  0  0  0  0  0  0  0  0  0
    0.8769    4.0823   -1.2382 C   0  0  0  0  0  0  0  0  0  0  0  0
    1.8057    5.1036   -1.3841 C   0  0  0  0  0  0  0  0  0  0  0  0
    3.1323    4.9345   -0.9381 C   0  0  0  0  0  0  0  0  0  0  0  0
    3.5419    3.7699   -0.3124 C   0  0  0  0  0  0  0  0  0  0  0  0
    3.8621    6.1921   -1.2599 C   0  0  0  0  0  0  0  0  0  0  0  0
    5.0983    6.5441   -1.0966 N   0  0  0  0  0  0  0  0  0  0  0  0
    5.8728    5.5389   -0.5212 O   0  0  0  0  0  0  0  0  0  0  0  0
    2.8704    7.1046   -1.8751 C   0  0  0  0  0  0  0  0  0  0  0  0
    3.0332    8.4042   -2.3181 C   0  0  0  0  0  0  0  0  0  0  0  0
    1.9109    9.0461   -2.8444 C   0  0  0  0  0  0  0  0  0  0  0  0
    0.6726    8.3819   -2.9182 C   0  0  0  0  0  0  0  0  0  0  0  0
    0.5340    7.0632   -2.4683 C   0  0  0  0  0  0  0  0  0  0  0  0
    1.6465    6.4262   -1.9432 C   0  0  0  0  0  0  0  0  0  0  0  0
    1.1614    1.5518    2.5473 C   0  0  0  0  0  0  0  0  0  0  0  0
    0.6455    2.5877    3.3350 C   0  0  0  0  0  0  0  0  0  0  0  0
   -0.7150    2.5982    3.6563 C   0  0  0  0  0  0  0  0  0  0  0  0
   -1.5499    1.5825    3.1875 C   0  0  0  0  0  0  0  0  0  0  0  0
   -1.0188    0.5589    2.4086 C   0  0  0  0  0  0  0  0  0  0  0  0
   -1.8237   -0.4143    1.9623 F   0  0  0  0  0  0  0  0  0  0  0  0
    0.3319    0.5244    2.0893 C   0  0  0  0  0  0  0  0  0  0  0  0
    2.9336    0.6711    0.0238 H   0  0  0  0  0  0  0  0  0  0  0  0
    0.5640    2.0914   -0.5080 H   0  0  0  0  0  0  0  0  0  0  0  0
   -0.1442    4.1972   -1.5839 H   0  0  0  0  0  0  0  0  0  0  0  0
    4.5553    3.6440    0.0493 H   0  0  0  0  0  0  0  0  0  0  0  0
    6.7448    5.9682   -0.4402 H   0  0  0  0  0  0  0  0  0  0  0  0
    3.9939    8.9034   -2.2503 H   0  0  0  0  0  0  0  0  0  0  0  0
    1.9921   10.0722   -3.1979 H   0  0  0  0  0  0  0  0  0  0  0  0
   -0.1909    8.9037   -3.3264 H   0  0  0  0  0  0  0  0  0  0  0  0
   -0.4290    6.5665   -2.5246 H   0  0  0  0  0  0  0  0  0  0  0  0
    1.2939    3.3740    3.7178 H   0  0  0  0  0  0  0  0  0  0  0  0
   -1.1222    3.3897    4.2819 H   0  0  0  0  0  0  0  0  0  0  0  0
   -2.6077    1.5754    3.4340 H   0  0  0  0  0  0  0  0  0  0  0  0
    0.7216   -0.3019    1.5037 H   0  0  0  0  0  0  0  0  0  0  0  0
  1  2  2  0  0  0  0
  2  3  2  0  0  0  0
  2  4  1  0  0  0  0
  2 20  1  0  0  0  0
  4  5  1  0  0  0  0
  4 27  1  0  0  0  0
  5  6  1  0  0  0  0
  5 10  2  0  0  0  0
  6  7  2  0  0  0  0
  6 28  1  0  0  0  0
  7  8  1  0  0  0  0
  7 29  1  0  0  0  0
  8  9  2  0  0  0  0
  8 19  1  0  0  0  0
  9 10  1  0  0  0  0
  9 11  1  0  0  0  0
 10 30  1  0  0  0  0
 11 12  2  3  0  0  0
 11 14  1  0  0  0  0
 12 13  1  0  0  0  0
 13 31  1  0  0  0  0
 14 15  1  0  0  0  0
 14 19  2  0  0  0  0
 15 16  2  0  0  0  0
 15 32  1  0  0  0  0
 16 17  1  0  0  0  0
 16 33  1  0  0  0  0
 17 18  2  0  0  0  0
 17 34  1  0  0  0  0
 18 19  1  0  0  0  0
 18 35  1  0  0  0  0
 20 21  1  0  0  0  0
 20 26  2  0  0  0  0
 21 22  2  0  0  0  0
 21 36  1  0  0  0  0
 22 23  1  0  0  0  0
 22 37  1  0  0  0  0
 23 24  2  0  0  0  0
 23 38  1  0  0  0  0
 24 25  1  0  0  0  0
 24 26  1  0  0  0  0
 26 39  1  0  0  0  0
M  END
$$$$
