CHEMBL205984
 OpenBabel04072215363D

 41 44  0  0  0  0  0  0  0  0999 V2000
    2.6764    0.4822   -0.8521 O   0  0  0  0  0  0  0  0  0  0  0  0
    2.1795   -0.0650    0.1234 C   0  0  0  0  0  0  0  0  0  0  0  0
    0.8366   -0.3730    0.2892 N   0  0  0  0  0  0  0  0  0  0  0  0
   -0.2163   -0.1403   -0.6222 C   0  0  0  0  0  0  0  0  0  0  0  0
   -0.0553    0.5081   -1.8472 C   0  0  0  0  0  0  0  0  0  0  0  0
   -1.1469    0.7011   -2.7012 C   0  0  0  0  0  0  0  0  0  0  0  0
   -2.4149    0.2459   -2.3401 C   0  0  0  0  0  0  0  0  0  0  0  0
   -3.7113    0.5026   -3.4510 Cl  0  0  0  0  0  0  0  0  0  0  0  0
   -2.5896   -0.3968   -1.1123 C   0  0  0  0  0  0  0  0  0  0  0  0
   -4.1308   -0.9735   -0.5819 Cl  0  0  0  0  0  0  0  0  0  0  0  0
   -1.4936   -0.5899   -0.2601 C   0  0  0  0  0  0  0  0  0  0  0  0
    3.0704   -0.4781    1.2538 C   0  0  0  0  0  0  0  0  0  0  0  0
    2.8110   -1.7154    1.8793 C   0  0  0  0  0  0  0  0  0  0  0  0
    3.6152   -2.1761    2.9202 C   0  0  0  0  0  0  0  0  0  0  0  0
    4.7162   -1.4316    3.3198 C   0  0  0  0  0  0  0  0  0  0  0  0
    5.0007   -0.2181    2.6935 C   0  0  0  0  0  0  0  0  0  0  0  0
    4.1821    0.2915    1.6623 C   0  0  0  0  0  0  0  0  0  0  0  0
    4.5398    1.6534    1.0966 C   0  0  0  0  0  0  0  0  0  0  0  0
    3.8901    2.7514    1.8464 N   0  0  0  0  0  0  0  0  0  0  0  0
    2.7032    3.3352    1.3846 C   0  0  0  0  0  0  0  0  0  0  0  0
    2.1099    4.4141    1.9215 C   0  0  0  0  0  0  0  0  0  0  0  0
    2.7954    5.0162    3.0719 C   0  0  0  0  0  0  0  0  0  0  0  0
    2.5157    6.0626    3.7805 N   0  0  0  0  0  0  0  0  0  0  0  0
    3.5622    6.1046    4.7001 C   0  0  0  0  0  0  0  0  0  0  0  0
    4.4626    5.1643    4.6281 N   0  0  0  0  0  0  0  0  0  0  0  0
    4.0288    4.4113    3.5767 C   0  0  0  0  0  0  0  0  0  0  0  0
    4.5134    3.3350    2.9596 C   0  0  0  0  0  0  0  0  0  0  0  0
    0.5691   -0.8045    1.1649 H   0  0  0  0  0  0  0  0  0  0  0  0
    0.9098    0.8840   -2.1735 H   0  0  0  0  0  0  0  0  0  0  0  0
   -0.9925    1.2103   -3.6499 H   0  0  0  0  0  0  0  0  0  0  0  0
   -1.6498   -1.1009    0.6869 H   0  0  0  0  0  0  0  0  0  0  0  0
    1.9963   -2.3548    1.5477 H   0  0  0  0  0  0  0  0  0  0  0  0
    3.3908   -3.1221    3.4068 H   0  0  0  0  0  0  0  0  0  0  0  0
    5.3591   -1.7945    4.1181 H   0  0  0  0  0  0  0  0  0  0  0  0
    5.8761    0.3405    3.0219 H   0  0  0  0  0  0  0  0  0  0  0  0
    4.3360    1.7383    0.0267 H   0  0  0  0  0  0  0  0  0  0  0  0
    5.6309    1.7812    1.1523 H   0  0  0  0  0  0  0  0  0  0  0  0
    2.2762    2.8512    0.5098 H   0  0  0  0  0  0  0  0  0  0  0  0
    1.2018    4.8621    1.5479 H   0  0  0  0  0  0  0  0  0  0  0  0
    3.6093    6.9126    5.4473 H   0  0  0  0  0  0  0  0  0  0  0  0
    5.4366    2.8712    3.2870 H   0  0  0  0  0  0  0  0  0  0  0  0
  1  2  2  0  0  0  0
  2  3  1  0  0  0  0
  2 12  1  0  0  0  0
  3  4  1  0  0  0  0
  3 28  1  0  0  0  0
  4  5  1  0  0  0  0
  4 11  2  0  0  0  0
  5  6  2  0  0  0  0
  5 29  1  0  0  0  0
  6  7  1  0  0  0  0
  6 30  1  0  0  0  0
  7  8  1  0  0  0  0
  7  9  2  0  0  0  0
  9 10  1  0  0  0  0
  9 11  1  0  0  0  0
 11 31  1  0  0  0  0
 12 13  1  0  0  0  0
 12 17  2  0  0  0  0
 13 14  2  0  0  0  0
 13 32  1  0  0  0  0
 14 15  1  0  0  0  0
 14 33  1  0  0  0  0
 15 16  2  0  0  0  0
 15 34  1  0  0  0  0
 16 17  1  0  0  0  0
 16 35  1  0  0  0  0
 17 18  1  0  0  0  0
 18 19  1  0  0  0  0
 18 36  1  0  0  0  0
 18 37  1  0  0  0  0
 19 20  1  0  0  0  0
 19 27  1  0  0  0  0
 20 21  2  0  0  0  0
 20 38  1  0  0  0  0
 21 22  1  0  0  0  0
 21 39  1  0  0  0  0
 22 23  2  0  0  0  0
 22 26  1  0  0  0  0
 23 24  1  0  0  0  0
 24 25  2  0  0  0  0
 24 40  1  0  0  0  0
 25 26  1  0  0  0  0
 26 27  2  0  0  0  0
 27 41  1  0  0  0  0
M  END
$$$$
