CHEMBL3098326
 OpenBabel04072215363D

 43 45  0  0  0  0  0  0  0  0999 V2000
    1.2279   -0.4348    0.4907 C   0  0  0  0  0  0  0  0  0  0  0  0
    2.5983   -0.1808    0.1908 O   0  0  0  0  0  0  0  0  0  0  0  0
    3.0810    1.0285    0.6200 C   0  0  0  0  0  0  0  0  0  0  0  0
    4.0212    1.6125   -0.2404 C   0  0  0  0  0  0  0  0  0  0  0  0
    4.5882    2.8524    0.0164 C   0  0  0  0  0  0  0  0  0  0  0  0
    5.4459    3.3682   -0.8664 N   0  0  0  0  0  0  0  0  0  0  0  0
    5.9197    4.5835   -0.5824 C   0  0  0  0  0  0  0  0  0  0  0  0
    7.0157    5.2566   -1.7044 Cl  0  0  0  0  0  0  0  0  0  0  0  0
    5.6289    5.3353    0.4785 N   0  0  0  0  0  0  0  0  0  0  0  0
    4.7683    4.8039    1.3610 C   0  0  0  0  0  0  0  0  0  0  0  0
    4.3965    5.5711    2.5007 N   0  0  0  0  0  0  0  0  0  0  0  0
    4.3706    6.9797    2.5532 C   0  0  0  0  0  0  0  0  0  0  0  0
    4.0318    7.7354    1.4269 C   0  0  0  0  0  0  0  0  0  0  0  0
    4.0357    9.1300    1.4586 C   0  0  0  0  0  0  0  0  0  0  0  0
    4.3561    9.8096    2.6306 C   0  0  0  0  0  0  0  0  0  0  0  0
    4.4895   11.2129    2.6904 N   0  0  0  0  0  0  0  0  0  0  0  0
    4.1661   12.1109    1.6873 C   0  0  0  0  0  0  0  0  0  0  0  0
    4.6270   13.5140    1.9787 C   0  0  0  0  0  0  0  0  0  0  0  0
    3.5434   11.8687    0.6573 O   0  0  0  0  0  0  0  0  0  0  0  0
    4.6068    9.0635    3.7887 C   0  0  0  0  0  0  0  0  0  0  0  0
    4.5918    7.6601    3.7548 C   0  0  0  0  0  0  0  0  0  0  0  0
    4.2137    3.5256    1.1873 C   0  0  0  0  0  0  0  0  0  0  0  0
    3.3047    2.9210    2.0855 C   0  0  0  0  0  0  0  0  0  0  0  0
    2.7367    1.6764    1.8102 C   0  0  0  0  0  0  0  0  0  0  0  0
    1.9206    1.0365    2.7007 O   0  0  0  0  0  0  0  0  0  0  0  0
    1.0517    1.8677    3.4628 C   0  0  0  0  0  0  0  0  0  0  0  0
    0.8689   -1.2009   -0.2028 H   0  0  0  0  0  0  0  0  0  0  0  0
    0.6026    0.4555    0.3524 H   0  0  0  0  0  0  0  0  0  0  0  0
    1.1213   -0.8429    1.4997 H   0  0  0  0  0  0  0  0  0  0  0  0
    4.2961    1.0876   -1.1548 H   0  0  0  0  0  0  0  0  0  0  0  0
    4.7785    5.1456    3.3386 H   0  0  0  0  0  0  0  0  0  0  0  0
    3.7816    7.2468    0.4883 H   0  0  0  0  0  0  0  0  0  0  0  0
    3.8163    9.6467    0.5306 H   0  0  0  0  0  0  0  0  0  0  0  0
    4.8639   11.5928    3.5509 H   0  0  0  0  0  0  0  0  0  0  0  0
    5.5836   13.5132    2.5079 H   0  0  0  0  0  0  0  0  0  0  0  0
    3.8698   14.0297    2.5734 H   0  0  0  0  0  0  0  0  0  0  0  0
    4.7671   14.0438    1.0308 H   0  0  0  0  0  0  0  0  0  0  0  0
    4.8195    9.5576    4.7335 H   0  0  0  0  0  0  0  0  0  0  0  0
    4.7849    7.1103    4.6721 H   0  0  0  0  0  0  0  0  0  0  0  0
    3.0530    3.4418    3.0050 H   0  0  0  0  0  0  0  0  0  0  0  0
    0.2686    1.2285    3.8829 H   0  0  0  0  0  0  0  0  0  0  0  0
    0.5663    2.6256    2.8382 H   0  0  0  0  0  0  0  0  0  0  0  0
    1.5884    2.3288    4.2973 H   0  0  0  0  0  0  0  0  0  0  0  0
  1  2  1  0  0  0  0
  1 27  1  0  0  0  0
  1 28  1  0  0  0  0
  1 29  1  0  0  0  0
  2  3  1  0  0  0  0
  3  4  1  0  0  0  0
  3 24  2  0  0  0  0
  4  5  2  0  0  0  0
  4 30  1  0  0  0  0
  5  6  1  0  0  0  0
  5 22  1  0  0  0  0
  6  7  2  0  0  0  0
  7  8  1  0  0  0  0
  7  9  1  0  0  0  0
  9 10  2  0  0  0  0
 10 11  1  0  0  0  0
 10 22  1  0  0  0  0
 11 12  1  0  0  0  0
 11 31  1  0  0  0  0
 12 13  1  0  0  0  0
 12 21  2  0  0  0  0
 13 14  2  0  0  0  0
 13 32  1  0  0  0  0
 14 15  1  0  0  0  0
 14 33  1  0  0  0  0
 15 16  1  0  0  0  0
 15 20  2  0  0  0  0
 16 17  1  0  0  0  0
 16 34  1  0  0  0  0
 17 18  1  0  0  0  0
 17 19  2  0  0  0  0
 18 35  1  0  0  0  0
 18 36  1  0  0  0  0
 18 37  1  0  0  0  0
 20 21  1  0  0  0  0
 20 38  1  0  0  0  0
 21 39  1  0  0  0  0
 22 23  2  0  0  0  0
 23 24  1  0  0  0  0
 23 40  1  0  0  0  0
 24 25  1  0  0  0  0
 25 26  1  0  0  0  0
 26 41  1  0  0  0  0
 26 42  1  0  0  0  0
 26 43  1  0  0  0  0
M  END
$$$$
