CHEMBL3890896
 OpenBabel04072215373D

 60 62  0  0  0  0  0  0  0  0999 V2000
    1.4831    4.7490   -2.5841 C   0  0  0  0  0  0  0  0  0  0  0  0
    1.6438    3.9533   -1.4750 O   0  0  0  0  0  0  0  0  0  0  0  0
    2.7146    3.1761   -1.1711 C   0  0  0  0  0  0  0  0  0  0  0  0
    2.5196    2.2475   -0.1414 C   0  0  0  0  0  0  0  0  0  0  0  0
    3.5274    1.3555    0.2173 C   0  0  0  0  0  0  0  0  0  0  0  0
    3.3720    0.4243    1.2018 O   0  0  0  0  0  0  0  0  0  0  0  0
    2.2434    0.2301    1.9753 C   0  0  0  0  0  0  0  0  0  0  0  0
    4.7452    1.4061   -0.4524 C   0  0  0  0  0  0  0  0  0  0  0  0
    5.0072    2.3608   -1.4869 C   0  0  0  0  0  0  0  0  0  0  0  0
    6.2602    2.2775   -2.2365 N   0  0  0  0  0  0  0  0  0  0  0  0
    6.8228    0.8939   -2.3987 C   0  0  0  0  0  0  0  0  0  0  0  0
    5.9131   -0.1944   -3.0742 C   0  0  0  0  0  0  0  0  0  0  0  0
    5.5320    0.0892   -4.4592 N   0  0  0  0  0  0  0  0  0  0  0  0
    7.0346    3.3552   -2.8940 C   0  0  0  0  0  0  0  0  0  0  0  0
    7.4150    2.9677   -4.1786 C   0  0  0  0  0  0  0  0  0  0  0  0
    8.3638    3.6011   -4.8726 C   0  0  0  0  0  0  0  0  0  0  0  0
    8.9943    4.6991   -4.3980 C   0  0  0  0  0  0  0  0  0  0  0  0
   10.0095    5.0816   -5.1557 N   0  0  0  0  0  0  0  0  0  0  0  0
   10.7217    6.1566   -4.9086 C   0  0  0  0  0  0  0  0  0  0  0  0
   10.3821    7.0325   -3.8957 C   0  0  0  0  0  0  0  0  0  0  0  0
   11.1937    8.3629   -4.0957 C   0  0  0  0  0  0  0  0  0  0  0  0
   11.4720    9.5144   -3.3398 C   0  0  0  0  0  0  0  0  0  0  0  0
   12.2319   10.3858   -4.0692 N   0  0  0  0  0  0  0  0  0  0  0  0
   12.4616    9.8693   -5.2721 N   0  0  0  0  0  0  0  0  0  0  0  0
   13.2633   10.4983   -6.3623 C   0  0  0  0  0  0  0  0  0  0  0  0
   12.4932   10.6807   -7.6916 C   0  0  0  0  0  0  0  0  0  0  0  0
   11.3271   11.4274   -7.4976 O   0  0  0  0  0  0  0  0  0  0  0  0
   11.8632    8.6740   -5.3280 C   0  0  0  0  0  0  0  0  0  0  0  0
    9.3658    6.5964   -2.9791 N   0  0  0  0  0  0  0  0  0  0  0  0
    8.6505    5.3730   -3.2066 C   0  0  0  0  0  0  0  0  0  0  0  0
    7.6229    4.6420   -2.3820 C   0  0  0  0  0  0  0  0  0  0  0  0
    3.9738    3.2472   -1.8394 C   0  0  0  0  0  0  0  0  0  0  0  0
   -0.2983    1.2955   -1.8227 Cl  0  0  0  0  0  0  0  0  0  0  0  0
    0.5033    5.2647   -2.5039 H   0  0  0  0  0  0  0  0  0  0  0  0
    1.4711    4.1234   -3.5017 H   0  0  0  0  0  0  0  0  0  0  0  0
    2.2862    5.5096   -2.6312 H   0  0  0  0  0  0  0  0  0  0  0  0
    1.5591    2.2097    0.3576 H   0  0  0  0  0  0  0  0  0  0  0  0
    2.4269   -0.5860    2.6985 H   0  0  0  0  0  0  0  0  0  0  0  0
    1.3755   -0.0468    1.3377 H   0  0  0  0  0  0  0  0  0  0  0  0
    2.0140    1.1596    2.5425 H   0  0  0  0  0  0  0  0  0  0  0  0
    5.4814    0.6848   -0.1546 H   0  0  0  0  0  0  0  0  0  0  0  0
    7.1466    0.4861   -1.4217 H   0  0  0  0  0  0  0  0  0  0  0  0
    7.7810    0.8929   -2.9700 H   0  0  0  0  0  0  0  0  0  0  0  0
    5.0034   -0.4176   -2.4797 H   0  0  0  0  0  0  0  0  0  0  0  0
    6.5114   -1.1350   -3.0954 H   0  0  0  0  0  0  0  0  0  0  0  0
    4.7771    0.8114   -4.4738 H   0  0  0  0  0  0  0  0  0  0  0  0
    5.1119   -0.7833   -4.8679 H   0  0  0  0  0  0  0  0  0  0  0  0
    7.0124    2.0949   -4.6375 H   0  0  0  0  0  0  0  0  0  0  0  0
    8.6654    3.1870   -5.8225 H   0  0  0  0  0  0  0  0  0  0  0  0
   11.5276    6.2800   -5.5904 H   0  0  0  0  0  0  0  0  0  0  0  0
   11.1664    9.7288   -2.3274 H   0  0  0  0  0  0  0  0  0  0  0  0
   14.1574    9.8746   -6.5972 H   0  0  0  0  0  0  0  0  0  0  0  0
   13.6257   11.4951   -6.0378 H   0  0  0  0  0  0  0  0  0  0  0  0
   12.2583    9.7086   -8.1866 H   0  0  0  0  0  0  0  0  0  0  0  0
   13.1346   11.2258   -8.4270 H   0  0  0  0  0  0  0  0  0  0  0  0
   10.6334   10.7783   -7.2114 H   0  0  0  0  0  0  0  0  0  0  0  0
   11.9226    8.1071   -6.2451 H   0  0  0  0  0  0  0  0  0  0  0  0
    7.3578    4.9998   -1.3888 H   0  0  0  0  0  0  0  0  0  0  0  0
    4.1128    3.9418   -2.6603 H   0  0  0  0  0  0  0  0  0  0  0  0
    0.9683    0.7749   -1.9643 H   0  0  0  0  0  0  0  0  0  0  0  0
  1  2  1  0  0  0  0
  1 34  1  0  0  0  0
  1 35  1  0  0  0  0
  1 36  1  0  0  0  0
  2  3  1  0  0  0  0
  3  4  1  0  0  0  0
  3 32  2  0  0  0  0
  4  5  2  0  0  0  0
  4 37  1  0  0  0  0
  5  6  1  0  0  0  0
  5  8  1  0  0  0  0
  6  7  1  0  0  0  0
  7 38  1  0  0  0  0
  7 39  1  0  0  0  0
  7 40  1  0  0  0  0
  8  9  2  0  0  0  0
  8 41  1  0  0  0  0
  9 10  1  0  0  0  0
  9 32  1  0  0  0  0
 10 11  1  0  0  0  0
 10 14  1  0  0  0  0
 11 12  1  0  0  0  0
 11 42  1  0  0  0  0
 11 43  1  0  0  0  0
 12 13  1  0  0  0  0
 12 44  1  0  0  0  0
 12 45  1  0  0  0  0
 13 46  1  0  0  0  0
 13 47  1  0  0  0  0
 14 15  1  0  0  0  0
 14 31  2  0  0  0  0
 15 16  2  0  0  0  0
 15 48  1  0  0  0  0
 16 17  1  0  0  0  0
 16 49  1  0  0  0  0
 17 18  1  0  0  0  0
 17 30  2  0  0  0  0
 18 19  2  0  0  0  0
 19 20  1  0  0  0  0
 19 50  1  0  0  0  0
 20 21  1  0  0  0  0
 20 29  2  0  0  0  0
 21 22  1  0  0  0  0
 21 28  2  0  0  0  0
 22 23  2  0  0  0  0
 22 51  1  0  0  0  0
 23 24  1  0  0  0  0
 24 25  1  0  0  0  0
 24 28  1  0  0  0  0
 25 26  1  0  0  0  0
 25 52  1  0  0  0  0
 25 53  1  0  0  0  0
 26 27  1  0  0  0  0
 26 54  1  0  0  0  0
 26 55  1  0  0  0  0
 27 56  1  0  0  0  0
 28 57  1  0  0  0  0
 29 30  1  0  0  0  0
 30 31  1  0  0  0  0
 31 58  1  0  0  0  0
 32 59  1  0  0  0  0
 33 60  1  0  0  0  0
M  END
$$$$
