CHEMBL1681944
 OpenBabel04072215363D

 48 50  0  0  0  0  0  0  0  0999 V2000
    9.8272   -4.8753    5.4866 C   0  0  0  0  0  0  0  0  0  0  0  0
    9.1087   -3.6899    5.1559 O   0  0  0  0  0  0  0  0  0  0  0  0
    8.0495   -4.0495    4.3138 N   0  0  0  0  0  0  0  0  0  0  0  0
    7.3513   -2.9992    4.0120 C   0  0  0  0  0  0  0  0  0  0  0  0
    6.1645   -3.1019    3.1510 C   0  0  0  0  0  0  0  0  0  0  0  0
    5.4358   -4.2783    3.0252 C   0  0  0  0  0  0  0  0  0  0  0  0
    5.7145   -5.4217    3.7699 N   0  0  0  0  0  0  0  0  0  0  0  0
    4.3295   -4.3727    2.2659 N   0  0  0  0  0  0  0  0  0  0  0  0
    3.9712   -3.2781    1.5899 C   0  0  0  0  0  0  0  0  0  0  0  0
    4.6267   -2.1172    1.5938 N   0  0  0  0  0  0  0  0  0  0  0  0
    5.7049   -2.0351    2.4077 C   0  0  0  0  0  0  0  0  0  0  0  0
    6.3876   -0.8168    2.4668 O   0  0  0  0  0  0  0  0  0  0  0  0
    5.6770    0.2989    2.0681 C   0  0  0  0  0  0  0  0  0  0  0  0
    4.3848    0.5425    2.5434 C   0  0  0  0  0  0  0  0  0  0  0  0
    3.6325    1.5977    2.0357 C   0  0  0  0  0  0  0  0  0  0  0  0
    4.1752    2.4570    1.0869 C   0  0  0  0  0  0  0  0  0  0  0  0
    3.4195    3.5167    0.5413 N   0  0  0  0  0  0  0  0  0  0  0  0
    2.0642    3.7360    0.6319 C   0  0  0  0  0  0  0  0  0  0  0  0
    1.2394    2.9502    1.0950 O   0  0  0  0  0  0  0  0  0  0  0  0
    1.6105    4.9559    0.2022 N   0  0  0  0  0  0  0  0  0  0  0  0
    2.4083    5.9061   -0.3498 C   0  0  0  0  0  0  0  0  0  0  0  0
    3.6546    5.7532   -0.7120 N   0  0  0  0  0  0  0  0  0  0  0  0
    4.1639    6.9434   -1.1794 C   0  0  0  0  0  0  0  0  0  0  0  0
    5.5763    6.9597   -1.6372 C   0  0  0  0  0  0  0  0  0  0  0  0
    3.2724    8.0027   -1.1372 C   0  0  0  0  0  0  0  0  0  0  0  0
    3.4864    9.4285   -1.4899 C   0  0  0  0  0  0  0  0  0  0  0  0
    1.7385    7.4505   -0.5761 S   0  0  0  0  0  0  0  0  0  0  0  0
    5.5175    2.2717    0.6991 C   0  0  0  0  0  0  0  0  0  0  0  0
    6.2922    3.3362   -0.4208 Cl  0  0  0  0  0  0  0  0  0  0  0  0
    6.2699    1.1929    1.1858 C   0  0  0  0  0  0  0  0  0  0  0  0
   10.7323   -4.5954    6.0311 H   0  0  0  0  0  0  0  0  0  0  0  0
   10.1155   -5.4125    4.5770 H   0  0  0  0  0  0  0  0  0  0  0  0
    9.2153   -5.5228    6.1231 H   0  0  0  0  0  0  0  0  0  0  0  0
    7.6329   -1.9989    4.3874 H   0  0  0  0  0  0  0  0  0  0  0  0
    6.7172   -5.6016    3.8206 H   0  0  0  0  0  0  0  0  0  0  0  0
    5.1609   -6.1976    3.4250 H   0  0  0  0  0  0  0  0  0  0  0  0
    3.0623   -3.3306    1.0010 H   0  0  0  0  0  0  0  0  0  0  0  0
    3.9219   -0.1228    3.2660 H   0  0  0  0  0  0  0  0  0  0  0  0
    2.6177    1.7164    2.4032 H   0  0  0  0  0  0  0  0  0  0  0  0
    3.9322    4.1658   -0.0559 H   0  0  0  0  0  0  0  0  0  0  0  0
    0.6373    5.1614    0.3660 H   0  0  0  0  0  0  0  0  0  0  0  0
    5.9936    5.9496   -1.6387 H   0  0  0  0  0  0  0  0  0  0  0  0
    6.1870    7.5766   -0.9727 H   0  0  0  0  0  0  0  0  0  0  0  0
    5.6466    7.3457   -2.6575 H   0  0  0  0  0  0  0  0  0  0  0  0
    4.5207    9.6017   -1.8057 H   0  0  0  0  0  0  0  0  0  0  0  0
    3.2946   10.0723   -0.6253 H   0  0  0  0  0  0  0  0  0  0  0  0
    2.8297    9.7305   -2.3106 H   0  0  0  0  0  0  0  0  0  0  0  0
    7.2882    1.0344    0.8512 H   0  0  0  0  0  0  0  0  0  0  0  0
  1  2  1  0  0  0  0
  1 31  1  0  0  0  0
  1 32  1  0  0  0  0
  1 33  1  0  0  0  0
  2  3  1  0  0  0  0
  3  4  2  0  0  0  0
  4  5  1  0  0  0  0
  4 34  1  0  0  0  0
  5  6  1  0  0  0  0
  5 11  2  0  0  0  0
  6  7  1  0  0  0  0
  6  8  2  0  0  0  0
  7 35  1  0  0  0  0
  7 36  1  0  0  0  0
  8  9  1  0  0  0  0
  9 10  2  0  0  0  0
  9 37  1  0  0  0  0
 10 11  1  0  0  0  0
 11 12  1  0  0  0  0
 12 13  1  0  0  0  0
 13 14  1  0  0  0  0
 13 30  2  0  0  0  0
 14 15  2  0  0  0  0
 14 38  1  0  0  0  0
 15 16  1  0  0  0  0
 15 39  1  0  0  0  0
 16 17  1  0  0  0  0
 16 28  2  0  0  0  0
 17 18  1  0  0  0  0
 17 40  1  0  0  0  0
 18 19  2  0  0  0  0
 18 20  1  0  0  0  0
 20 21  1  0  0  0  0
 20 41  1  0  0  0  0
 21 22  2  0  0  0  0
 21 27  1  0  0  0  0
 22 23  1  0  0  0  0
 23 24  1  0  0  0  0
 23 25  2  0  0  0  0
 24 42  1  0  0  0  0
 24 43  1  0  0  0  0
 24 44  1  0  0  0  0
 25 26  1  0  0  0  0
 25 27  1  0  0  0  0
 26 45  1  0  0  0  0
 26 46  1  0  0  0  0
 26 47  1  0  0  0  0
 28 29  1  0  0  0  0
 28 30  1  0  0  0  0
 30 48  1  0  0  0  0
M  END
$$$$
