CHEMBL199110
 OpenBabel04072215363D

 66 69  0  0  0  0  0  0  0  0999 V2000
    3.7162   -1.5440    2.5068 C   0  0  0  0  0  0  0  0  0  0  0  0
    3.2208   -1.5414    3.8383 O   0  0  0  0  0  0  0  0  0  0  0  0
    3.0190   -0.2817    4.3619 C   0  0  0  0  0  0  0  0  0  0  0  0
    2.5000   -0.2290    5.6478 C   0  0  0  0  0  0  0  0  0  0  0  0
    2.2043    0.9309    6.2703 N   0  0  0  0  0  0  0  0  0  0  0  0
    2.4785    2.0499    5.5496 C   0  0  0  0  0  0  0  0  0  0  0  0
    1.8625    3.4665    6.3168 Cl  0  0  0  0  0  0  0  0  0  0  0  0
    3.0400    2.0264    4.2551 C   0  0  0  0  0  0  0  0  0  0  0  0
    3.2820    3.1725    3.4820 N   0  0  0  0  0  0  0  0  0  0  0  0
    3.9116    4.3718    3.8902 C   0  0  0  0  0  0  0  0  0  0  0  0
    4.6001    4.3468    5.0482 N   0  0  0  0  0  0  0  0  0  0  0  0
    5.1847    5.4840    5.4257 C   0  0  0  0  0  0  0  0  0  0  0  0
    5.1872    6.6290    4.7417 N   0  0  0  0  0  0  0  0  0  0  0  0
    4.5077    6.6477    3.5937 C   0  0  0  0  0  0  0  0  0  0  0  0
    4.5047    7.8419    2.8880 C   0  0  0  0  0  0  0  0  0  0  0  0
    3.7789    8.0030    1.7135 C   0  0  0  0  0  0  0  0  0  0  0  0
    3.8545    9.2479    1.1348 O   0  0  0  0  0  0  0  0  0  0  0  0
    2.7752    9.5662    0.2498 C   0  0  0  0  0  0  0  0  0  0  0  0
    2.6903   11.0875    0.0419 C   0  0  0  0  0  0  0  0  0  0  0  0
    1.5861   11.5087   -0.8439 N   0  0  0  0  0  0  0  0  0  0  0  0
    1.5337   12.9863   -0.9673 C   0  0  0  0  0  0  0  0  0  0  0  0
    0.9628   13.7282    0.2625 C   0  0  0  0  0  0  0  0  0  0  0  0
   -0.3120   13.1564    0.7172 N   0  0  0  0  0  0  0  0  0  0  0  0
   -1.2537   14.0126    1.2608 C   0  0  0  0  0  0  0  0  0  0  0  0
   -2.5829   13.4713    1.7271 C   0  0  0  0  0  0  0  0  0  0  0  0
   -1.0613   15.2310    1.3245 O   0  0  0  0  0  0  0  0  0  0  0  0
   -0.3081   11.6981    0.8435 C   0  0  0  0  0  0  0  0  0  0  0  0
    0.2502   11.0338   -0.4263 C   0  0  0  0  0  0  0  0  0  0  0  0
    3.0653    6.9256    1.2040 C   0  0  0  0  0  0  0  0  0  0  0  0
    3.0873    5.6918    1.8646 C   0  0  0  0  0  0  0  0  0  0  0  0
    2.4128    4.5890    1.4009 O   0  0  0  0  0  0  0  0  0  0  0  0
    2.0764    4.4938    0.0113 C   0  0  0  0  0  0  0  0  0  0  0  0
    3.3392    4.3583   -0.8374 C   0  0  0  0  0  0  0  0  0  0  0  0
    1.2197    3.2385   -0.1463 C   0  0  0  0  0  0  0  0  0  0  0  0
    3.8099    5.5385    3.0900 C   0  0  0  0  0  0  0  0  0  0  0  0
    3.2972    0.8330    3.6408 N   0  0  0  0  0  0  0  0  0  0  0  0
    3.7806   -2.5873    2.1809 H   0  0  0  0  0  0  0  0  0  0  0  0
    4.7237   -1.1185    2.4646 H   0  0  0  0  0  0  0  0  0  0  0  0
    3.0359   -1.0261    1.8226 H   0  0  0  0  0  0  0  0  0  0  0  0
    2.2775   -1.1344    6.2013 H   0  0  0  0  0  0  0  0  0  0  0  0
    3.6113    2.8990    2.5624 H   0  0  0  0  0  0  0  0  0  0  0  0
    5.7040    5.4793    6.3777 H   0  0  0  0  0  0  0  0  0  0  0  0
    5.0637    8.6867    3.2842 H   0  0  0  0  0  0  0  0  0  0  0  0
    1.8427    9.2211    0.7059 H   0  0  0  0  0  0  0  0  0  0  0  0
    2.9317    9.0697   -0.7158 H   0  0  0  0  0  0  0  0  0  0  0  0
    3.6405   11.4130   -0.4039 H   0  0  0  0  0  0  0  0  0  0  0  0
    2.6435   11.5754    1.0226 H   0  0  0  0  0  0  0  0  0  0  0  0
    0.8939   13.2184   -1.8295 H   0  0  0  0  0  0  0  0  0  0  0  0
    2.5234   13.3857   -1.2192 H   0  0  0  0  0  0  0  0  0  0  0  0
    0.8352   14.7861    0.0099 H   0  0  0  0  0  0  0  0  0  0  0  0
    1.6612   13.6773    1.1070 H   0  0  0  0  0  0  0  0  0  0  0  0
   -2.6137   12.3983    1.8931 H   0  0  0  0  0  0  0  0  0  0  0  0
   -3.3433   13.7334    0.9851 H   0  0  0  0  0  0  0  0  0  0  0  0
   -2.8364   13.9464    2.6798 H   0  0  0  0  0  0  0  0  0  0  0  0
   -1.3052   11.3009    1.0236 H   0  0  0  0  0  0  0  0  0  0  0  0
    0.3032   11.4483    1.7201 H   0  0  0  0  0  0  0  0  0  0  0  0
   -0.4453   11.2413   -1.2511 H   0  0  0  0  0  0  0  0  0  0  0  0
    0.2242    9.9456   -0.3195 H   0  0  0  0  0  0  0  0  0  0  0  0
    2.4981    7.0436    0.2905 H   0  0  0  0  0  0  0  0  0  0  0  0
    1.4632    5.3452   -0.3040 H   0  0  0  0  0  0  0  0  0  0  0  0
    3.9635    3.5367   -0.4689 H   0  0  0  0  0  0  0  0  0  0  0  0
    3.9566    5.2605   -0.7874 H   0  0  0  0  0  0  0  0  0  0  0  0
    3.0949    4.1780   -1.8874 H   0  0  0  0  0  0  0  0  0  0  0  0
    1.7863    2.3408    0.1253 H   0  0  0  0  0  0  0  0  0  0  0  0
    0.8664    3.1297   -1.1765 H   0  0  0  0  0  0  0  0  0  0  0  0
    0.3507    3.2762    0.5194 H   0  0  0  0  0  0  0  0  0  0  0  0
  1  2  1  0  0  0  0
  1 37  1  0  0  0  0
  1 38  1  0  0  0  0
  1 39  1  0  0  0  0
  2  3  1  0  0  0  0
  3  4  1  0  0  0  0
  3 36  2  0  0  0  0
  4  5  2  0  0  0  0
  4 40  1  0  0  0  0
  5  6  1  0  0  0  0
  6  7  1  0  0  0  0
  6  8  2  0  0  0  0
  8  9  1  0  0  0  0
  8 36  1  0  0  0  0
  9 10  1  0  0  0  0
  9 41  1  0  0  0  0
 10 11  1  0  0  0  0
 10 35  2  0  0  0  0
 11 12  2  0  0  0  0
 12 13  1  0  0  0  0
 12 42  1  0  0  0  0
 13 14  2  0  0  0  0
 14 15  1  0  0  0  0
 14 35  1  0  0  0  0
 15 16  2  0  0  0  0
 15 43  1  0  0  0  0
 16 17  1  0  0  0  0
 16 29  1  0  0  0  0
 17 18  1  0  0  0  0
 18 19  1  0  0  0  0
 18 44  1  0  0  0  0
 18 45  1  0  0  0  0
 19 20  1  0  0  0  0
 19 46  1  0  0  0  0
 19 47  1  0  0  0  0
 20 21  1  0  0  0  0
 20 28  1  0  0  0  0
 21 22  1  0  0  0  0
 21 48  1  0  0  0  0
 21 49  1  0  0  0  0
 22 23  1  0  0  0  0
 22 50  1  0  0  0  0
 22 51  1  0  0  0  0
 23 24  1  0  0  0  0
 23 27  1  0  0  0  0
 24 25  1  0  0  0  0
 24 26  2  0  0  0  0
 25 52  1  0  0  0  0
 25 53  1  0  0  0  0
 25 54  1  0  0  0  0
 27 28  1  0  0  0  0
 27 55  1  0  0  0  0
 27 56  1  0  0  0  0
 28 57  1  0  0  0  0
 28 58  1  0  0  0  0
 29 30  2  0  0  0  0
 29 59  1  0  0  0  0
 30 31  1  0  0  0  0
 30 35  1  0  0  0  0
 31 32  1  0  0  0  0
 32 33  1  0  0  0  0
 32 34  1  0  0  0  0
 32 60  1  0  0  0  0
 33 61  1  0  0  0  0
 33 62  1  0  0  0  0
 33 63  1  0  0  0  0
 34 64  1  0  0  0  0
 34 65  1  0  0  0  0
 34 66  1  0  0  0  0
M  END
$$$$
