CHEMBL2206666
 OpenBabel04072215363D

 42 45  0  0  0  0  0  0  0  0999 V2000
    1.2140    0.5313    0.5879 O   0  0  0  0  0  0  0  0  0  0  0  0
    2.3226    0.1972    0.1817 C   0  0  0  0  0  0  0  0  0  0  0  0
    2.8550    0.4440   -1.0752 N   0  0  0  0  0  0  0  0  0  0  0  0
    2.2011    1.1525   -2.1147 C   0  0  0  0  0  0  0  0  0  0  0  0
    1.0853    1.9633   -1.8829 C   0  0  0  0  0  0  0  0  0  0  0  0
    0.3986    2.5606   -2.9396 C   0  0  0  0  0  0  0  0  0  0  0  0
    0.8260    2.3639   -4.2451 C   0  0  0  0  0  0  0  0  0  0  0  0
    1.9817    1.6193   -4.4825 C   0  0  0  0  0  0  0  0  0  0  0  0
    2.4086    1.3320   -5.8009 O   0  0  0  0  0  0  0  0  0  0  0  0
    2.2938    2.2965   -6.7974 C   0  0  0  0  0  0  0  0  0  0  0  0
    2.2949    1.6144   -8.1123 C   0  0  0  0  0  0  0  0  0  0  0  0
    2.1439    2.3969   -9.1898 C   0  0  0  0  0  0  0  0  0  0  0  0
    2.0152    3.7942   -9.0191 C   0  0  0  0  0  0  0  0  0  0  0  0
    1.8553    4.7675   -9.8916 N   0  0  0  0  0  0  0  0  0  0  0  0
    1.7775    5.9141   -9.1392 C   0  0  0  0  0  0  0  0  0  0  0  0
    1.8895    5.6335   -7.7979 C   0  0  0  0  0  0  0  0  0  0  0  0
    2.0513    4.2786   -7.7207 N   0  0  0  0  0  0  0  0  0  0  0  0
    2.1934    3.5665   -6.5712 N   0  0  0  0  0  0  0  0  0  0  0  0
    2.6739    1.0103   -3.4280 C   0  0  0  0  0  0  0  0  0  0  0  0
    3.1554   -0.6306    1.0958 C   0  0  0  0  0  0  0  0  0  0  0  0
    2.5006   -1.5153    1.9634 C   0  0  0  0  0  0  0  0  0  0  0  0
    3.2329   -2.3042    2.8486 C   0  0  0  0  0  0  0  0  0  0  0  0
    4.6234   -2.2120    2.8736 C   0  0  0  0  0  0  0  0  0  0  0  0
    5.2957   -1.3223    2.0198 C   0  0  0  0  0  0  0  0  0  0  0  0
    6.8012   -1.2181    2.0343 C   0  0  0  0  0  0  0  0  0  0  0  0
    7.4026   -2.0770    2.9022 F   0  0  0  0  0  0  0  0  0  0  0  0
    7.3403   -1.4825    0.8116 F   0  0  0  0  0  0  0  0  0  0  0  0
    7.2345    0.0265    2.3722 F   0  0  0  0  0  0  0  0  0  0  0  0
    4.5494   -0.5219    1.1348 C   0  0  0  0  0  0  0  0  0  0  0  0
    3.6896   -0.0642   -1.3389 H   0  0  0  0  0  0  0  0  0  0  0  0
    0.7142    2.1479   -0.8792 H   0  0  0  0  0  0  0  0  0  0  0  0
   -0.4832    3.1634   -2.7381 H   0  0  0  0  0  0  0  0  0  0  0  0
    0.2513    2.7946   -5.0580 H   0  0  0  0  0  0  0  0  0  0  0  0
    2.3844    0.5385   -8.1650 H   0  0  0  0  0  0  0  0  0  0  0  0
    2.1101    1.9902  -10.1952 H   0  0  0  0  0  0  0  0  0  0  0  0
    1.6411    6.8825   -9.6036 H   0  0  0  0  0  0  0  0  0  0  0  0
    1.8680    6.2522   -6.9135 H   0  0  0  0  0  0  0  0  0  0  0  0
    3.5427    0.3990   -3.6484 H   0  0  0  0  0  0  0  0  0  0  0  0
    1.4139   -1.5883    1.9515 H   0  0  0  0  0  0  0  0  0  0  0  0
    2.7160   -2.9891    3.5191 H   0  0  0  0  0  0  0  0  0  0  0  0
    5.1823   -2.8362    3.5707 H   0  0  0  0  0  0  0  0  0  0  0  0
    5.0647    0.2009    0.5056 H   0  0  0  0  0  0  0  0  0  0  0  0
  1  2  2  0  0  0  0
  2  3  1  0  0  0  0
  2 20  1  0  0  0  0
  3  4  1  0  0  0  0
  3 30  1  0  0  0  0
  4  5  1  0  0  0  0
  4 19  2  0  0  0  0
  5  6  2  0  0  0  0
  5 31  1  0  0  0  0
  6  7  1  0  0  0  0
  6 32  1  0  0  0  0
  7  8  2  0  0  0  0
  7 33  1  0  0  0  0
  8  9  1  0  0  0  0
  8 19  1  0  0  0  0
  9 10  1  0  0  0  0
 10 11  1  0  0  0  0
 10 18  2  0  0  0  0
 11 12  2  0  0  0  0
 11 34  1  0  0  0  0
 12 13  1  0  0  0  0
 12 35  1  0  0  0  0
 13 14  2  0  0  0  0
 13 17  1  0  0  0  0
 14 15  1  0  0  0  0
 15 16  2  0  0  0  0
 15 36  1  0  0  0  0
 16 17  1  0  0  0  0
 16 37  1  0  0  0  0
 17 18  1  0  0  0  0
 19 38  1  0  0  0  0
 20 21  1  0  0  0  0
 20 29  2  0  0  0  0
 21 22  2  0  0  0  0
 21 39  1  0  0  0  0
 22 23  1  0  0  0  0
 22 40  1  0  0  0  0
 23 24  2  0  0  0  0
 23 41  1  0  0  0  0
 24 25  1  0  0  0  0
 24 29  1  0  0  0  0
 25 26  1  0  0  0  0
 25 27  1  0  0  0  0
 25 28  1  0  0  0  0
 29 42  1  0  0  0  0
M  END
$$$$
