CHEMBL3897675
 OpenBabel04072215373D

 49 52  0  0  0  0  0  0  0  0999 V2000
    2.3325   -4.3804   -3.2211 C   0  0  0  0  0  0  0  0  0  0  0  0
    3.4785   -3.5873   -2.9067 O   0  0  0  0  0  0  0  0  0  0  0  0
    3.7443   -3.4985   -1.5628 C   0  0  0  0  0  0  0  0  0  0  0  0
    3.0646   -4.0390   -0.7062 O   0  0  0  0  0  0  0  0  0  0  0  0
    4.9247   -2.6961   -1.3599 C   0  0  0  0  0  0  0  0  0  0  0  0
    5.7125   -2.0283   -2.2722 C   0  0  0  0  0  0  0  0  0  0  0  0
    6.8266   -1.3742   -1.6715 C   0  0  0  0  0  0  0  0  0  0  0  0
    7.7337   -0.6397   -2.3660 N   0  0  0  0  0  0  0  0  0  0  0  0
    8.7307   -0.1151   -1.6421 C   0  0  0  0  0  0  0  0  0  0  0  0
    8.9022   -0.3019   -0.2844 C   0  0  0  0  0  0  0  0  0  0  0  0
    7.9759   -1.0602    0.4596 C   0  0  0  0  0  0  0  0  0  0  0  0
    8.1194   -1.2243    1.9223 C   0  0  0  0  0  0  0  0  0  0  0  0
    8.6077   -0.1639    2.6929 C   0  0  0  0  0  0  0  0  0  0  0  0
    8.7478   -0.2670    4.0743 C   0  0  0  0  0  0  0  0  0  0  0  0
    8.3699   -1.4209    4.7602 C   0  0  0  0  0  0  0  0  0  0  0  0
    8.4509   -1.5481    6.1698 N   0  0  0  0  0  0  0  0  0  0  0  0
    8.8268   -0.5387    7.0268 C   0  0  0  0  0  0  0  0  0  0  0  0
    9.0864    0.6097    6.6826 O   0  0  0  0  0  0  0  0  0  0  0  0
    8.9049   -0.9462    8.3484 N   0  0  0  0  0  0  0  0  0  0  0  0
    9.3164    0.0337    9.2959 C   0  0  0  0  0  0  0  0  0  0  0  0
    8.6896    1.2869    9.3384 C   0  0  0  0  0  0  0  0  0  0  0  0
    9.2415    2.3347   10.0807 C   0  0  0  0  0  0  0  0  0  0  0  0
    8.6221    3.7031   10.0371 C   0  0  0  0  0  0  0  0  0  0  0  0
   10.4186    2.1068   10.8049 C   0  0  0  0  0  0  0  0  0  0  0  0
   11.0109    0.8369   10.8147 C   0  0  0  0  0  0  0  0  0  0  0  0
   10.4452   -0.1969   10.0766 C   0  0  0  0  0  0  0  0  0  0  0  0
   11.0532   -1.3927   10.0373 F   0  0  0  0  0  0  0  0  0  0  0  0
    7.8930   -2.4973    4.0168 C   0  0  0  0  0  0  0  0  0  0  0  0
    7.7977   -2.4053    2.6158 C   0  0  0  0  0  0  0  0  0  0  0  0
    6.8948   -1.5839   -0.2902 C   0  0  0  0  0  0  0  0  0  0  0  0
    5.5029   -2.4711    0.2247 S   0  0  0  0  0  0  0  0  0  0  0  0
    2.2963   -4.5047   -4.3078 H   0  0  0  0  0  0  0  0  0  0  0  0
    1.4243   -3.8654   -2.8982 H   0  0  0  0  0  0  0  0  0  0  0  0
    2.4034   -5.3735   -2.7644 H   0  0  0  0  0  0  0  0  0  0  0  0
    5.5182   -2.0054   -3.3378 H   0  0  0  0  0  0  0  0  0  0  0  0
    9.4343    0.4942   -2.2041 H   0  0  0  0  0  0  0  0  0  0  0  0
    9.7625    0.1581    0.1944 H   0  0  0  0  0  0  0  0  0  0  0  0
    8.8801    0.7862    2.2373 H   0  0  0  0  0  0  0  0  0  0  0  0
    9.1561    0.6034    4.5740 H   0  0  0  0  0  0  0  0  0  0  0  0
    8.0933   -2.3952    6.5871 H   0  0  0  0  0  0  0  0  0  0  0  0
    9.3403   -1.8545    8.4665 H   0  0  0  0  0  0  0  0  0  0  0  0
    7.8062    1.4655    8.7282 H   0  0  0  0  0  0  0  0  0  0  0  0
    7.6545    3.6841    9.5226 H   0  0  0  0  0  0  0  0  0  0  0  0
    9.2760    4.3943    9.5006 H   0  0  0  0  0  0  0  0  0  0  0  0
    8.4502    4.0724   11.0516 H   0  0  0  0  0  0  0  0  0  0  0  0
   10.8946    2.9215   11.3448 H   0  0  0  0  0  0  0  0  0  0  0  0
   11.9344    0.6643   11.3579 H   0  0  0  0  0  0  0  0  0  0  0  0
    7.5903   -3.4234    4.4984 H   0  0  0  0  0  0  0  0  0  0  0  0
    7.4610   -3.2889    2.0786 H   0  0  0  0  0  0  0  0  0  0  0  0
  1  2  1  0  0  0  0
  1 32  1  0  0  0  0
  1 33  1  0  0  0  0
  1 34  1  0  0  0  0
  2  3  1  0  0  0  0
  3  4  2  0  0  0  0
  3  5  1  0  0  0  0
  5  6  2  0  0  0  0
  5 31  1  0  0  0  0
  6  7  1  0  0  0  0
  6 35  1  0  0  0  0
  7  8  1  0  0  0  0
  7 30  2  0  0  0  0
  8  9  2  0  0  0  0
  9 10  1  0  0  0  0
  9 36  1  0  0  0  0
 10 11  2  0  0  0  0
 10 37  1  0  0  0  0
 11 12  1  0  0  0  0
 11 30  1  0  0  0  0
 12 13  1  0  0  0  0
 12 29  2  0  0  0  0
 13 14  2  0  0  0  0
 13 38  1  0  0  0  0
 14 15  1  0  0  0  0
 14 39  1  0  0  0  0
 15 16  1  0  0  0  0
 15 28  2  0  0  0  0
 16 17  1  0  0  0  0
 16 40  1  0  0  0  0
 17 18  2  0  0  0  0
 17 19  1  0  0  0  0
 19 20  1  0  0  0  0
 19 41  1  0  0  0  0
 20 21  1  0  0  0  0
 20 26  2  0  0  0  0
 21 22  2  0  0  0  0
 21 42  1  0  0  0  0
 22 23  1  0  0  0  0
 22 24  1  0  0  0  0
 23 43  1  0  0  0  0
 23 44  1  0  0  0  0
 23 45  1  0  0  0  0
 24 25  2  0  0  0  0
 24 46  1  0  0  0  0
 25 26  1  0  0  0  0
 25 47  1  0  0  0  0
 26 27  1  0  0  0  0
 28 29  1  0  0  0  0
 28 48  1  0  0  0  0
 29 49  1  0  0  0  0
 30 31  1  0  0  0  0
M  END
$$$$
