CHEMBL4475515
 OpenBabel04072215383D

 36 38  0  0  0  0  0  0  0  0999 V2000
    3.7224    0.0531    0.7524 C   0  0  0  0  0  0  0  0  0  0  0  0
    2.7626   -0.4441   -0.3184 C   0  0  0  0  0  0  0  0  0  0  0  0
    3.2856   -1.5770   -1.0591 N   0  0  0  0  0  0  0  0  0  0  0  0
    3.1550   -2.7792   -0.4757 N   0  0  0  0  0  0  0  0  0  0  0  0
    3.4705   -3.6803   -1.4226 C   0  0  0  0  0  0  0  0  0  0  0  0
    3.3108   -5.1071   -1.0797 C   0  0  0  0  0  0  0  0  0  0  0  0
    3.0807   -6.1005   -2.0365 C   0  0  0  0  0  0  0  0  0  0  0  0
    3.0091   -7.4584   -1.6928 C   0  0  0  0  0  0  0  0  0  0  0  0
    3.0231   -7.7973   -0.3341 C   0  0  0  0  0  0  0  0  0  0  0  0
    2.8581   -9.3455    0.4067 S   0  0  0  0  0  0  0  0  0  0  0  0
    2.8626   -8.5961    1.9459 C   0  0  0  0  0  0  0  0  0  0  0  0
    3.0728   -7.3004    1.9623 N   0  0  0  0  0  0  0  0  0  0  0  0
    3.1579   -6.8297    0.6613 C   0  0  0  0  0  0  0  0  0  0  0  0
    3.3375   -5.4860    0.2739 C   0  0  0  0  0  0  0  0  0  0  0  0
    3.9184   -3.0087   -2.6151 C   0  0  0  0  0  0  0  0  0  0  0  0
    4.3938   -3.5063   -3.8995 C   0  0  0  0  0  0  0  0  0  0  0  0
    4.9789   -4.7386   -3.9262 N   0  0  0  0  0  0  0  0  0  0  0  0
    4.3392   -2.8563   -4.9429 O   0  0  0  0  0  0  0  0  0  0  0  0
    3.7803   -1.6441   -2.3366 C   0  0  0  0  0  0  0  0  0  0  0  0
    3.9715   -0.5778   -3.1762 N   0  0  0  0  0  0  0  0  0  0  0  0
    4.6518    0.6498   -2.7965 C   0  0  0  0  0  0  0  0  0  0  0  0
    3.2556    0.8538    1.3345 H   0  0  0  0  0  0  0  0  0  0  0  0
    4.6482    0.4447    0.3208 H   0  0  0  0  0  0  0  0  0  0  0  0
    4.0021   -0.7504    1.4420 H   0  0  0  0  0  0  0  0  0  0  0  0
    2.4908    0.3484   -1.0200 H   0  0  0  0  0  0  0  0  0  0  0  0
    1.8290   -0.7746    0.1530 H   0  0  0  0  0  0  0  0  0  0  0  0
    2.9401   -5.8430   -3.0848 H   0  0  0  0  0  0  0  0  0  0  0  0
    2.8972   -8.2208   -2.4582 H   0  0  0  0  0  0  0  0  0  0  0  0
    2.7072   -9.1655    2.8530 H   0  0  0  0  0  0  0  0  0  0  0  0
    3.4648   -4.7444    1.0598 H   0  0  0  0  0  0  0  0  0  0  0  0
    5.2229   -5.2514   -3.0917 H   0  0  0  0  0  0  0  0  0  0  0  0
    5.3180   -5.0691   -4.8188 H   0  0  0  0  0  0  0  0  0  0  0  0
    4.2430   -0.8501   -4.1308 H   0  0  0  0  0  0  0  0  0  0  0  0
    4.4282    0.9816   -1.7792 H   0  0  0  0  0  0  0  0  0  0  0  0
    4.3194    1.4515   -3.4620 H   0  0  0  0  0  0  0  0  0  0  0  0
    5.7322    0.5447   -2.8947 H   0  0  0  0  0  0  0  0  0  0  0  0
  1  2  1  0  0  0  0
  1 22  1  0  0  0  0
  1 23  1  0  0  0  0
  1 24  1  0  0  0  0
  2  3  1  0  0  0  0
  2 25  1  0  0  0  0
  2 26  1  0  0  0  0
  3  4  1  0  0  0  0
  3 19  1  0  0  0  0
  4  5  2  0  0  0  0
  5  6  1  0  0  0  0
  5 15  1  0  0  0  0
  6  7  1  0  0  0  0
  6 14  2  0  0  0  0
  7  8  2  0  0  0  0
  7 27  1  0  0  0  0
  8  9  1  0  0  0  0
  8 28  1  0  0  0  0
  9 10  1  0  0  0  0
  9 13  2  0  0  0  0
 10 11  1  0  0  0  0
 11 12  2  0  0  0  0
 11 29  1  0  0  0  0
 12 13  1  0  0  0  0
 13 14  1  0  0  0  0
 14 30  1  0  0  0  0
 15 16  1  0  0  0  0
 15 19  2  0  0  0  0
 16 17  1  0  0  0  0
 16 18  2  0  0  0  0
 17 31  1  0  0  0  0
 17 32  1  0  0  0  0
 19 20  1  0  0  0  0
 20 21  1  0  0  0  0
 20 33  1  0  0  0  0
 21 34  1  0  0  0  0
 21 35  1  0  0  0  0
 21 36  1  0  0  0  0
M  END
$$$$
