CHEMBL4081711
 OpenBabel04072215383D

 46 48  0  0  1  0  0  0  0  0999 V2000
    2.9527    1.0969    1.1945 C   0  0  0  0  0  0  0  0  0  0  0  0
    2.0332    1.9469    0.3262 C   0  0  0  0  0  0  0  0  0  0  0  0
    0.5131    1.7423    0.5060 C   0  0  1  0  0  0  0  0  0  0  0  0
   -0.0485    0.3600    0.1208 C   0  0  1  0  0  0  0  0  0  0  0  0
    0.6042   -0.3592   -1.0653 C   0  0  0  0  0  0  0  0  0  0  0  0
   -0.1049   -1.5760   -1.3568 O   0  0  0  0  0  0  0  0  0  0  0  0
   -1.1812   -1.4347   -2.2148 C   0  0  0  0  0  0  0  0  0  0  0  0
   -1.4486   -0.2040   -2.7089 N   0  0  0  0  0  0  0  0  0  0  0  0
   -2.4712   -0.1047   -3.5731 C   0  0  0  0  0  0  0  0  0  0  0  0
   -3.2534   -1.1767   -3.9661 C   0  0  0  0  0  0  0  0  0  0  0  0
   -2.9791   -2.4440   -3.4387 C   0  0  0  0  0  0  0  0  0  0  0  0
   -3.7475   -3.5678   -3.7911 C   0  0  0  0  0  0  0  0  0  0  0  0
   -3.4918   -4.8617   -3.2738 C   0  0  0  0  0  0  0  0  0  0  0  0
   -4.4305   -5.9287   -3.7382 C   0  0  0  0  0  0  0  0  0  0  0  0
   -4.8594   -5.8678   -5.0414 N   0  0  0  0  0  0  0  0  0  0  0  0
   -4.8596   -6.8172   -3.0192 O   0  0  0  0  0  0  0  0  0  0  0  0
   -2.4487   -5.0162   -2.3474 C   0  0  0  0  0  0  0  0  0  0  0  0
   -1.9666   -6.1022   -1.6762 O   0  0  0  0  0  0  0  0  0  0  0  0
   -2.4386   -7.4153   -1.9057 C   0  0  0  0  0  0  0  0  0  0  0  0
   -1.6861   -3.8786   -1.9965 C   0  0  0  0  0  0  0  0  0  0  0  0
   -1.9225   -2.5943   -2.5311 C   0  0  0  0  0  0  0  0  0  0  0  0
    0.0686   -0.3891    1.3507 N   0  0  0  0  0  0  0  0  0  0  0  0
    0.1066    0.4328    2.4637 C   0  0  0  0  0  0  0  0  0  0  0  0
    0.1516    0.0381    3.6158 O   0  0  0  0  0  0  0  0  0  0  0  0
    0.0488    1.8651    1.9685 C   0  0  1  0  0  0  0  0  0  0  0  0
    0.8127    2.7525    2.6527 F   0  0  0  0  0  0  0  0  0  0  0  0
    3.9949    1.2596    0.9016 H   0  0  0  0  0  0  0  0  0  0  0  0
    2.7486    0.0284    1.0944 H   0  0  0  0  0  0  0  0  0  0  0  0
    2.8668    1.3678    2.2514 H   0  0  0  0  0  0  0  0  0  0  0  0
    2.2957    1.7907   -0.7260 H   0  0  0  0  0  0  0  0  0  0  0  0
    2.2625    3.0006    0.5355 H   0  0  0  0  0  0  0  0  0  0  0  0
    0.0212    2.5143   -0.0998 H   0  0  0  0  0  0  0  0  0  0  0  0
   -1.1280    0.4561   -0.0559 H   0  0  0  0  0  0  0  0  0  0  0  0
    1.6224   -0.6686   -0.8063 H   0  0  0  0  0  0  0  0  0  0  0  0
    0.7023    0.2895   -1.9456 H   0  0  0  0  0  0  0  0  0  0  0  0
   -2.6673    0.9002   -3.9543 H   0  0  0  0  0  0  0  0  0  0  0  0
   -4.0637   -1.0176   -4.6707 H   0  0  0  0  0  0  0  0  0  0  0  0
   -4.5900   -3.4156   -4.4638 H   0  0  0  0  0  0  0  0  0  0  0  0
   -4.5498   -5.1911   -5.7226 H   0  0  0  0  0  0  0  0  0  0  0  0
   -5.5017   -6.5903   -5.3447 H   0  0  0  0  0  0  0  0  0  0  0  0
   -1.7385   -8.1000   -1.4139 H   0  0  0  0  0  0  0  0  0  0  0  0
   -2.4434   -7.6722   -2.9680 H   0  0  0  0  0  0  0  0  0  0  0  0
   -3.4033   -7.5692   -1.4178 H   0  0  0  0  0  0  0  0  0  0  0  0
   -0.8805   -4.0049   -1.2717 H   0  0  0  0  0  0  0  0  0  0  0  0
   -0.0200   -1.3955    1.4365 H   0  0  0  0  0  0  0  0  0  0  0  0
   -0.9946    2.1955    2.0244 H   0  0  0  0  0  0  0  0  0  0  0  0
  1  2  1  0  0  0  0
  1 27  1  0  0  0  0
  1 28  1  0  0  0  0
  1 29  1  0  0  0  0
  2 30  1  0  0  0  0
  2 31  1  0  0  0  0
  3  4  1  0  0  0  0
  3 25  1  0  0  0  0
  3  2  1  0  0  0  0
  3 32  1  6  0  0  0
  4  5  1  0  0  0  0
  4 22  1  0  0  0  0
  4 33  1  6  0  0  0
  5  6  1  0  0  0  0
  5 34  1  0  0  0  0
  5 35  1  0  0  0  0
  6  7  1  0  0  0  0
  7  8  1  0  0  0  0
  7 21  2  0  0  0  0
  8  9  2  0  0  0  0
  9 10  1  0  0  0  0
  9 36  1  0  0  0  0
 10 11  2  0  0  0  0
 10 37  1  0  0  0  0
 11 12  1  0  0  0  0
 11 21  1  0  0  0  0
 12 13  2  0  0  0  0
 12 38  1  0  0  0  0
 13 14  1  0  0  0  0
 13 17  1  0  0  0  0
 14 15  1  0  0  0  0
 14 16  2  0  0  0  0
 15 39  1  0  0  0  0
 15 40  1  0  0  0  0
 17 18  1  0  0  0  0
 17 20  2  0  0  0  0
 18 19  1  0  0  0  0
 19 41  1  0  0  0  0
 19 42  1  0  0  0  0
 19 43  1  0  0  0  0
 20 21  1  0  0  0  0
 20 44  1  0  0  0  0
 22 23  1  0  0  0  0
 22 45  1  0  0  0  0
 23 24  2  0  0  0  0
 23 25  1  0  0  0  0
 25 26  1  0  0  0  0
 25 46  1  1  0  0  0
M  END
$$$$
