CHEMBL3921228
 OpenBabel04072215373D

 67 70  0  0  1  0  0  0  0  0999 V2000
    3.7752    5.3165   -4.9002 C   0  0  0  0  0  0  0  0  0  0  0  0
    5.1220    4.7104   -4.5423 C   0  0  0  0  0  0  0  0  0  0  0  0
    5.1517    3.2078   -4.1699 C   0  0  0  0  0  0  0  0  0  0  0  0
    4.6414    2.2114   -5.2372 C   0  0  0  0  0  0  0  0  0  0  0  0
    3.1872    2.3278   -5.6587 C   0  0  0  0  0  0  0  0  0  0  0  0
    6.6309    2.8013   -3.8573 C   0  0  0  0  0  0  0  0  0  0  0  0
    7.2517    3.4477   -2.6964 N   0  0  0  0  0  0  0  0  0  0  0  0
    8.6901    3.1164   -2.5791 C   0  0  0  0  0  0  0  0  0  0  0  0
    8.9776    1.7202   -1.9980 C   0  0  0  0  0  0  0  0  0  0  0  0
    8.3320    1.5013   -0.7427 O   0  0  0  0  0  0  0  0  0  0  0  0
    6.9163    1.7528   -0.7824 C   0  0  3  0  0  0  0  0  0  0  0  0
    6.1194    0.5802   -1.4315 C   0  0  0  0  0  0  0  0  0  0  0  0
    6.0451   -0.6344   -0.6445 O   0  0  0  0  0  0  0  0  0  0  0  0
    5.2536   -0.6401    0.4750 C   0  0  0  0  0  0  0  0  0  0  0  0
    4.5703    0.5189    0.8947 C   0  0  0  0  0  0  0  0  0  0  0  0
    3.9911    0.6487    2.1442 C   0  0  0  0  0  0  0  0  0  0  0  0
    3.4998    1.8367    2.5071 N   0  0  0  0  0  0  0  0  0  0  0  0
    3.0127    1.9225    3.7477 C   0  0  0  0  0  0  0  0  0  0  0  0
    2.9636    0.9283    4.6345 N   0  0  0  0  0  0  0  0  0  0  0  0
    3.4603   -0.2627    4.2456 C   0  0  0  0  0  0  0  0  0  0  0  0
    3.4687   -1.3431    5.1615 N   0  0  0  0  0  0  0  0  0  0  0  0
    2.7091   -1.3490    6.3496 C   0  0  0  0  0  0  0  0  0  0  0  0
    1.3512   -1.0129    6.3102 C   0  0  0  0  0  0  0  0  0  0  0  0
    0.6150   -0.8801    7.4863 C   0  0  0  0  0  0  0  0  0  0  0  0
    1.2316   -1.1087    8.7119 C   0  0  0  0  0  0  0  0  0  0  0  0
    0.2882   -0.8609   10.1377 Cl  0  0  0  0  0  0  0  0  0  0  0  0
    2.5755   -1.4941    8.7607 C   0  0  0  0  0  0  0  0  0  0  0  0
    3.4029   -1.7948   10.2490 Cl  0  0  0  0  0  0  0  0  0  0  0  0
    3.3109   -1.6186    7.5798 C   0  0  0  0  0  0  0  0  0  0  0  0
    3.9933   -0.4614    2.9737 C   0  0  0  0  0  0  0  0  0  0  0  0
    4.5170   -1.6811    2.5083 C   0  0  0  0  0  0  0  0  0  0  0  0
    5.1740   -1.7823    1.2798 C   0  0  0  0  0  0  0  0  0  0  0  0
    5.6602   -3.0451    1.1354 O   0  0  0  0  0  0  0  0  0  0  0  0
    6.3363   -3.4815   -0.0221 C   0  0  0  0  0  0  0  0  0  0  0  0
    6.6178    3.1484   -1.3991 C   0  0  0  0  0  0  0  0  0  0  0  0
    3.8419    6.4097   -4.8651 H   0  0  0  0  0  0  0  0  0  0  0  0
    2.9878    5.0058   -4.2081 H   0  0  0  0  0  0  0  0  0  0  0  0
    3.4828    5.0665   -5.9222 H   0  0  0  0  0  0  0  0  0  0  0  0
    5.4971    5.2776   -3.6803 H   0  0  0  0  0  0  0  0  0  0  0  0
    5.8204    4.9047   -5.3647 H   0  0  0  0  0  0  0  0  0  0  0  0
    4.5312    3.0637   -3.2803 H   0  0  0  0  0  0  0  0  0  0  0  0
    4.7571    1.2016   -4.8174 H   0  0  0  0  0  0  0  0  0  0  0  0
    5.2800    2.2470   -6.1270 H   0  0  0  0  0  0  0  0  0  0  0  0
    2.5290    2.5298   -4.8092 H   0  0  0  0  0  0  0  0  0  0  0  0
    2.8607    1.3897   -6.1216 H   0  0  0  0  0  0  0  0  0  0  0  0
    3.0535    3.1018   -6.4164 H   0  0  0  0  0  0  0  0  0  0  0  0
    7.2238    3.0605   -4.7460 H   0  0  0  0  0  0  0  0  0  0  0  0
    6.7019    1.7156   -3.7803 H   0  0  0  0  0  0  0  0  0  0  0  0
    9.1423    3.8648   -1.9148 H   0  0  0  0  0  0  0  0  0  0  0  0
    9.1967    3.2281   -3.5449 H   0  0  0  0  0  0  0  0  0  0  0  0
   10.0528    1.6205   -1.8174 H   0  0  0  0  0  0  0  0  0  0  0  0
    8.6946    0.9266   -2.6948 H   0  0  0  0  0  0  0  0  0  0  0  0
    6.6486    1.8326    0.2739 H   0  0  0  0  0  0  0  0  0  0  0  0
    6.6152    0.2584   -2.3491 H   0  0  0  0  0  0  0  0  0  0  0  0
    5.1080    0.8865   -1.7245 H   0  0  0  0  0  0  0  0  0  0  0  0
    4.5193    1.4119    0.2822 H   0  0  0  0  0  0  0  0  0  0  0  0
    2.6330    2.8862    4.0653 H   0  0  0  0  0  0  0  0  0  0  0  0
    4.4179   -1.6797    5.2901 H   0  0  0  0  0  0  0  0  0  0  0  0
    0.8666   -0.8185    5.3548 H   0  0  0  0  0  0  0  0  0  0  0  0
   -0.4312   -0.5915    7.4247 H   0  0  0  0  0  0  0  0  0  0  0  0
    4.3637   -1.8893    7.6311 H   0  0  0  0  0  0  0  0  0  0  0  0
    4.4435   -2.5762    3.1245 H   0  0  0  0  0  0  0  0  0  0  0  0
    6.7917   -4.4432    0.2375 H   0  0  0  0  0  0  0  0  0  0  0  0
    7.1465   -2.8019   -0.3165 H   0  0  0  0  0  0  0  0  0  0  0  0
    5.6356   -3.6711   -0.8395 H   0  0  0  0  0  0  0  0  0  0  0  0
    7.0148    3.9006   -0.7001 H   0  0  0  0  0  0  0  0  0  0  0  0
    5.5409    3.3483   -1.4207 H   0  0  0  0  0  0  0  0  0  0  0  0
  1  2  1  0  0  0  0
  1 36  1  0  0  0  0
  1 37  1  0  0  0  0
  1 38  1  0  0  0  0
  2  3  1  0  0  0  0
  2 39  1  0  0  0  0
  2 40  1  0  0  0  0
  3  4  1  0  0  0  0
  3  6  1  0  0  0  0
  3 41  1  0  0  0  0
  4  5  1  0  0  0  0
  4 42  1  0  0  0  0
  4 43  1  0  0  0  0
  5 44  1  0  0  0  0
  5 45  1  0  0  0  0
  5 46  1  0  0  0  0
  6  7  1  0  0  0  0
  6 47  1  0  0  0  0
  6 48  1  0  0  0  0
  7  8  1  0  0  0  0
  7 35  1  0  0  0  0
  8  9  1  0  0  0  0
  8 49  1  0  0  0  0
  8 50  1  0  0  0  0
  9 10  1  0  0  0  0
  9 51  1  0  0  0  0
  9 52  1  0  0  0  0
 10 11  1  0  0  0  0
 11 12  1  0  0  0  0
 11 35  1  0  0  0  0
 11 53  1  0  0  0  0
 12 13  1  0  0  0  0
 12 54  1  0  0  0  0
 12 55  1  0  0  0  0
 13 14  1  0  0  0  0
 14 15  1  0  0  0  0
 14 32  2  0  0  0  0
 15 16  2  0  0  0  0
 15 56  1  0  0  0  0
 16 17  1  0  0  0  0
 16 30  1  0  0  0  0
 17 18  2  0  0  0  0
 18 19  1  0  0  0  0
 18 57  1  0  0  0  0
 19 20  2  0  0  0  0
 20 21  1  0  0  0  0
 20 30  1  0  0  0  0
 21 22  1  0  0  0  0
 21 58  1  0  0  0  0
 22 23  1  0  0  0  0
 22 29  2  0  0  0  0
 23 24  2  0  0  0  0
 23 59  1  0  0  0  0
 24 25  1  0  0  0  0
 24 60  1  0  0  0  0
 25 26  1  0  0  0  0
 25 27  2  0  0  0  0
 27 28  1  0  0  0  0
 27 29  1  0  0  0  0
 29 61  1  0  0  0  0
 30 31  2  0  0  0  0
 31 32  1  0  0  0  0
 31 62  1  0  0  0  0
 32 33  1  0  0  0  0
 33 34  1  0  0  0  0
 34 63  1  0  0  0  0
 34 64  1  0  0  0  0
 34 65  1  0  0  0  0
 35 66  1  0  0  0  0
 35 67  1  0  0  0  0
M  END
$$$$
