CHEMBL1086932
 OpenBabel04072215363D

 59 64  0  0  0  0  0  0  0  0999 V2000
    1.0436    0.0885    1.1059 C   0  0  0  0  0  0  0  0  0  0  0  0
    2.4771    0.1865    0.7009 C   0  0  0  0  0  0  0  0  0  0  0  0
    3.2629    1.3148    0.4380 C   0  0  0  0  0  0  0  0  0  0  0  0
    2.8188    2.7176    0.4310 C   0  0  0  0  0  0  0  0  0  0  0  0
    1.6912    3.0183    0.8084 O   0  0  0  0  0  0  0  0  0  0  0  0
    3.7377    3.6434   -0.0564 N   0  0  0  0  0  0  0  0  0  0  0  0
    3.5212    5.0416   -0.1927 C   0  0  0  0  0  0  0  0  0  0  0  0
    2.4803    5.7375    0.4250 C   0  0  0  0  0  0  0  0  0  0  0  0
    2.2820    7.1075    0.1814 C   0  0  0  0  0  0  0  0  0  0  0  0
    3.1102    7.8226   -0.6912 C   0  0  0  0  0  0  0  0  0  0  0  0
    2.7414    9.1442   -0.8403 O   0  0  0  0  0  0  0  0  0  0  0  0
    3.3385    9.9637   -1.7719 C   0  0  0  0  0  0  0  0  0  0  0  0
    4.6840   10.3024   -1.6955 C   0  0  0  0  0  0  0  0  0  0  0  0
    5.2181   11.1582   -2.6380 C   0  0  0  0  0  0  0  0  0  0  0  0
    4.5276   11.7505   -3.6279 N   0  0  0  0  0  0  0  0  0  0  0  0
    3.1870   11.5163   -3.6331 C   0  0  0  0  0  0  0  0  0  0  0  0
    2.2658   12.0952   -4.5542 C   0  0  0  0  0  0  0  0  0  0  0  0
    0.9600   11.7807   -4.2551 C   0  0  0  0  0  0  0  0  0  0  0  0
   -0.2043   12.3282   -5.0127 C   0  0  0  0  0  0  0  0  0  0  0  0
   -1.5298   12.2245   -4.6489 C   0  0  0  0  0  0  0  0  0  0  0  0
   -2.2192   12.8808   -5.6272 N   0  0  0  0  0  0  0  0  0  0  0  0
   -3.6429   13.0908   -5.6813 C   0  0  0  0  0  0  0  0  0  0  0  0
   -1.3142   13.3341   -6.5453 C   0  0  0  0  0  0  0  0  0  0  0  0
   -0.0830   13.0391   -6.1870 N   0  0  0  0  0  0  0  0  0  0  0  0
    0.8524   10.7087   -2.9315 S   0  0  0  0  0  0  0  0  0  0  0  0
    2.5610   10.6705   -2.7107 C   0  0  0  0  0  0  0  0  0  0  0  0
    4.1659    7.1268   -1.2819 C   0  0  0  0  0  0  0  0  0  0  0  0
    5.0133    7.7116   -2.1385 F   0  0  0  0  0  0  0  0  0  0  0  0
    4.3893    5.7651   -1.0147 C   0  0  0  0  0  0  0  0  0  0  0  0
    4.5540    0.7764    0.2603 C   0  0  0  0  0  0  0  0  0  0  0  0
    4.6125   -0.5385    0.4547 N   0  0  0  0  0  0  0  0  0  0  0  0
    3.3239   -0.9199    0.6484 N   0  0  0  0  0  0  0  0  0  0  0  0
    3.0232   -2.3078    0.7921 C   0  0  0  0  0  0  0  0  0  0  0  0
    3.9662   -3.1518    1.3999 C   0  0  0  0  0  0  0  0  0  0  0  0
    3.6899   -4.5123    1.5694 C   0  0  0  0  0  0  0  0  0  0  0  0
    2.4902   -5.0469    1.1026 C   0  0  0  0  0  0  0  0  0  0  0  0
    1.5656   -4.2223    0.4660 C   0  0  0  0  0  0  0  0  0  0  0  0
    1.8264   -2.8562    0.3135 C   0  0  0  0  0  0  0  0  0  0  0  0
    0.5886    1.0610    1.2965 H   0  0  0  0  0  0  0  0  0  0  0  0
    0.9470   -0.4852    2.0339 H   0  0  0  0  0  0  0  0  0  0  0  0
    0.4382   -0.3793    0.3267 H   0  0  0  0  0  0  0  0  0  0  0  0
    4.5771    3.2814   -0.4857 H   0  0  0  0  0  0  0  0  0  0  0  0
    1.7956    5.2487    1.1130 H   0  0  0  0  0  0  0  0  0  0  0  0
    1.4503    7.6124    0.6702 H   0  0  0  0  0  0  0  0  0  0  0  0
    5.3229    9.8813   -0.9236 H   0  0  0  0  0  0  0  0  0  0  0  0
    6.2770   11.4042   -2.6156 H   0  0  0  0  0  0  0  0  0  0  0  0
    2.5535   12.7573   -5.3619 H   0  0  0  0  0  0  0  0  0  0  0  0
   -2.0160   11.7765   -3.7943 H   0  0  0  0  0  0  0  0  0  0  0  0
   -4.0959   12.7583   -4.7435 H   0  0  0  0  0  0  0  0  0  0  0  0
   -4.0459   12.5148   -6.5170 H   0  0  0  0  0  0  0  0  0  0  0  0
   -3.8344   14.1582   -5.8235 H   0  0  0  0  0  0  0  0  0  0  0  0
   -1.5992   13.8656   -7.4438 H   0  0  0  0  0  0  0  0  0  0  0  0
    5.2334    5.2870   -1.5029 H   0  0  0  0  0  0  0  0  0  0  0  0
    5.4812    1.2877    0.0374 H   0  0  0  0  0  0  0  0  0  0  0  0
    4.9055   -2.7537    1.7796 H   0  0  0  0  0  0  0  0  0  0  0  0
    4.4124   -5.1551    2.0665 H   0  0  0  0  0  0  0  0  0  0  0  0
    2.2845   -6.1078    1.2209 H   0  0  0  0  0  0  0  0  0  0  0  0
    0.6454   -4.6467    0.0713 H   0  0  0  0  0  0  0  0  0  0  0  0
    1.1082   -2.2659   -0.2436 H   0  0  0  0  0  0  0  0  0  0  0  0
  1  2  1  0  0  0  0
  1 39  1  0  0  0  0
  1 40  1  0  0  0  0
  1 41  1  0  0  0  0
  2  3  2  0  0  0  0
  2 32  1  0  0  0  0
  3  4  1  0  0  0  0
  3 30  1  0  0  0  0
  4  5  2  0  0  0  0
  4  6  1  0  0  0  0
  6  7  1  0  0  0  0
  6 42  1  0  0  0  0
  7  8  1  0  0  0  0
  7 29  2  0  0  0  0
  8  9  2  0  0  0  0
  8 43  1  0  0  0  0
  9 10  1  0  0  0  0
  9 44  1  0  0  0  0
 10 11  1  0  0  0  0
 10 27  2  0  0  0  0
 11 12  1  0  0  0  0
 12 13  1  0  0  0  0
 12 26  2  0  0  0  0
 13 14  2  0  0  0  0
 13 45  1  0  0  0  0
 14 15  1  0  0  0  0
 14 46  1  0  0  0  0
 15 16  2  0  0  0  0
 16 17  1  0  0  0  0
 16 26  1  0  0  0  0
 17 18  2  0  0  0  0
 17 47  1  0  0  0  0
 18 19  1  0  0  0  0
 18 25  1  0  0  0  0
 19 20  2  0  0  0  0
 19 24  1  0  0  0  0
 20 21  1  0  0  0  0
 20 48  1  0  0  0  0
 21 22  1  0  0  0  0
 21 23  1  0  0  0  0
 22 49  1  0  0  0  0
 22 50  1  0  0  0  0
 22 51  1  0  0  0  0
 23 24  2  0  0  0  0
 23 52  1  0  0  0  0
 25 26  1  0  0  0  0
 27 28  1  0  0  0  0
 27 29  1  0  0  0  0
 29 53  1  0  0  0  0
 30 31  2  0  0  0  0
 30 54  1  0  0  0  0
 31 32  1  0  0  0  0
 32 33  1  0  0  0  0
 33 34  1  0  0  0  0
 33 38  2  0  0  0  0
 34 35  2  0  0  0  0
 34 55  1  0  0  0  0
 35 36  1  0  0  0  0
 35 56  1  0  0  0  0
 36 37  2  0  0  0  0
 36 57  1  0  0  0  0
 37 38  1  0  0  0  0
 37 58  1  0  0  0  0
 38 59  1  0  0  0  0
M  END
$$$$
