CHEMBL3950169
 OpenBabel04072215373D

 59 61  0  0  0  0  0  0  0  0999 V2000
    1.6668   -3.3366   -0.8937 Br  0  0  0  0  0  0  0  0  0  0  0  0
    0.8656    0.5908    0.5657 C   0  0  0  0  0  0  0  0  0  0  0  0
    1.9512    0.4200   -0.2844 O   0  0  0  0  0  0  0  0  0  0  0  0
    2.7875    1.4077   -0.7241 C   0  0  0  0  0  0  0  0  0  0  0  0
    2.5297    2.7466   -0.4341 C   0  0  0  0  0  0  0  0  0  0  0  0
    3.3785    3.7455   -0.8908 C   0  0  0  0  0  0  0  0  0  0  0  0
    3.0689    5.0226   -0.5690 O   0  0  0  0  0  0  0  0  0  0  0  0
    3.8044    6.1192   -0.9474 C   0  0  0  0  0  0  0  0  0  0  0  0
    4.5278    3.4231   -1.6428 C   0  0  0  0  0  0  0  0  0  0  0  0
    4.8700    2.0964   -1.9282 C   0  0  0  0  0  0  0  0  0  0  0  0
    6.0844    1.7896   -2.6912 N   0  0  0  0  0  0  0  0  0  0  0  0
    6.5423    0.3664   -2.8045 C   0  0  0  0  0  0  0  0  0  0  0  0
    8.0351    0.2608   -2.3659 C   0  0  0  0  0  0  0  0  0  0  0  0
    8.7434   -1.4182   -2.1978 P   0  0  0  0  0  0  0  0  0  0  0  0
    9.0905   -1.4116   -3.7127 O   0  0  0  0  0  0  0  0  0  0  0  0
   10.2623   -0.7200   -1.7070 O   0  0  0  0  0  0  0  0  0  0  0  0
    9.4129   -3.0055   -2.0388 O   0  0  0  0  0  0  0  0  0  0  0  0
    7.0192    2.7489   -3.3211 C   0  0  0  0  0  0  0  0  0  0  0  0
    7.4912    2.2953   -4.5621 C   0  0  0  0  0  0  0  0  0  0  0  0
    8.6299    2.7491   -5.1066 C   0  0  0  0  0  0  0  0  0  0  0  0
    9.3287    3.7514   -4.5270 C   0  0  0  0  0  0  0  0  0  0  0  0
   10.5272    3.9635   -5.0522 N   0  0  0  0  0  0  0  0  0  0  0  0
   11.3022    4.9564   -4.6696 C   0  0  0  0  0  0  0  0  0  0  0  0
   10.8183    5.9401   -3.8016 C   0  0  0  0  0  0  0  0  0  0  0  0
   11.6080    7.2622   -3.9610 C   0  0  0  0  0  0  0  0  0  0  0  0
   12.6117    7.4168   -4.9506 C   0  0  0  0  0  0  0  0  0  0  0  0
   13.0121    8.6770   -5.0371 N   0  0  0  0  0  0  0  0  0  0  0  0
   12.3429    9.3719   -4.1493 N   0  0  0  0  0  0  0  0  0  0  0  0
   12.5057   10.8189   -4.1005 C   0  0  0  0  0  0  0  0  0  0  0  0
   11.4938    8.5643   -3.4438 C   0  0  0  0  0  0  0  0  0  0  0  0
    9.6151    5.6606   -3.1089 N   0  0  0  0  0  0  0  0  0  0  0  0
    8.8653    4.4877   -3.4196 C   0  0  0  0  0  0  0  0  0  0  0  0
    7.6727    3.9586   -2.7592 C   0  0  0  0  0  0  0  0  0  0  0  0
    3.9445    1.0847   -1.4721 C   0  0  0  0  0  0  0  0  0  0  0  0
    2.2666   -1.9953   -0.4956 H   0  0  0  0  0  0  0  0  0  0  0  0
    0.3758   -0.3854    0.7686 H   0  0  0  0  0  0  0  0  0  0  0  0
    0.1046    1.2674    0.1182 H   0  0  0  0  0  0  0  0  0  0  0  0
    1.2053    1.0091    1.5390 H   0  0  0  0  0  0  0  0  0  0  0  0
    1.6595    3.0292    0.1452 H   0  0  0  0  0  0  0  0  0  0  0  0
    3.3686    7.0235   -0.4851 H   0  0  0  0  0  0  0  0  0  0  0  0
    3.7799    6.2160   -2.0536 H   0  0  0  0  0  0  0  0  0  0  0  0
    4.8527    6.0054   -0.5957 H   0  0  0  0  0  0  0  0  0  0  0  0
    5.1588    4.2003   -2.0018 H   0  0  0  0  0  0  0  0  0  0  0  0
    6.4361   -0.0355   -3.8306 H   0  0  0  0  0  0  0  0  0  0  0  0
    5.9875   -0.3330   -2.1703 H   0  0  0  0  0  0  0  0  0  0  0  0
    8.0207    0.6628   -1.3294 H   0  0  0  0  0  0  0  0  0  0  0  0
    8.7479    0.8918   -2.9306 H   0  0  0  0  0  0  0  0  0  0  0  0
   10.0952   -0.3081   -0.8194 H   0  0  0  0  0  0  0  0  0  0  0  0
    8.7401   -3.6103   -2.4435 H   0  0  0  0  0  0  0  0  0  0  0  0
    7.0436    1.4683   -5.0763 H   0  0  0  0  0  0  0  0  0  0  0  0
    9.0145    2.2656   -5.9915 H   0  0  0  0  0  0  0  0  0  0  0  0
   12.2329    4.9823   -5.1797 H   0  0  0  0  0  0  0  0  0  0  0  0
   13.0129    6.7180   -5.6640 H   0  0  0  0  0  0  0  0  0  0  0  0
   13.1943   11.1453   -4.9221 H   0  0  0  0  0  0  0  0  0  0  0  0
   12.9413   11.1380   -3.1372 H   0  0  0  0  0  0  0  0  0  0  0  0
   11.5302   11.3043   -4.2918 H   0  0  0  0  0  0  0  0  0  0  0  0
   10.8149    8.9220   -2.6852 H   0  0  0  0  0  0  0  0  0  0  0  0
    7.3488    4.3884   -1.8185 H   0  0  0  0  0  0  0  0  0  0  0  0
    4.0635    0.0301   -1.6754 H   0  0  0  0  0  0  0  0  0  0  0  0
  1 35  1  0  0  0  0
  2  3  1  0  0  0  0
  2 36  1  0  0  0  0
  2 37  1  0  0  0  0
  2 38  1  0  0  0  0
  3  4  1  0  0  0  0
  4  5  1  0  0  0  0
  4 34  2  0  0  0  0
  5  6  2  0  0  0  0
  5 39  1  0  0  0  0
  6  7  1  0  0  0  0
  6  9  1  0  0  0  0
  7  8  1  0  0  0  0
  8 40  1  0  0  0  0
  8 41  1  0  0  0  0
  8 42  1  0  0  0  0
  9 10  2  0  0  0  0
  9 43  1  0  0  0  0
 10 11  1  0  0  0  0
 10 34  1  0  0  0  0
 11 12  1  0  0  0  0
 11 18  1  0  0  0  0
 12 13  1  0  0  0  0
 12 44  1  0  0  0  0
 12 45  1  0  0  0  0
 13 14  1  0  0  0  0
 13 46  1  0  0  0  0
 13 47  1  0  0  0  0
 14 15  2  0  0  0  0
 14 16  1  0  0  0  0
 14 17  1  0  0  0  0
 16 48  1  0  0  0  0
 17 49  1  0  0  0  0
 18 19  1  0  0  0  0
 18 33  2  0  0  0  0
 19 20  2  0  0  0  0
 19 50  1  0  0  0  0
 20 21  1  0  0  0  0
 20 51  1  0  0  0  0
 21 22  1  0  0  0  0
 21 32  2  0  0  0  0
 22 23  2  0  0  0  0
 23 24  1  0  0  0  0
 23 52  1  0  0  0  0
 24 25  1  0  0  0  0
 24 31  2  0  0  0  0
 25 26  1  0  0  0  0
 25 30  2  0  0  0  0
 26 27  2  0  0  0  0
 26 53  1  0  0  0  0
 27 28  1  0  0  0  0
 28 29  1  0  0  0  0
 28 30  1  0  0  0  0
 29 54  1  0  0  0  0
 29 55  1  0  0  0  0
 29 56  1  0  0  0  0
 30 57  1  0  0  0  0
 31 32  1  0  0  0  0
 32 33  1  0  0  0  0
 33 58  1  0  0  0  0
 34 59  1  0  0  0  0
M  END
$$$$
