CHEMBL3884319
 OpenBabel04072215373D

 51 55  0  0  1  0  0  0  0  0999 V2000
    0.9168    0.0111   -0.0583 C   0  0  0  0  0  0  0  0  0  0  0  0
    2.4209    0.1419    0.1192 C   0  0  0  0  0  0  0  0  0  0  0  0
    2.8494   -0.0688    1.5785 C   0  0  0  0  0  0  0  0  0  0  0  0
    3.2072   -0.8936   -0.7089 C   0  0  0  0  0  0  0  0  0  0  0  0
    2.9893   -2.0947   -0.7199 O   0  0  0  0  0  0  0  0  0  0  0  0
    4.2700   -0.2078   -1.2964 N   0  0  0  0  0  0  0  0  0  0  0  0
    5.4438   -0.8010   -1.9024 C   0  0  1  0  0  0  0  0  0  0  0  0
    5.9878   -2.0074   -1.0934 C   0  0  0  0  0  0  0  0  0  0  0  0
    5.6966   -3.2927   -1.8832 C   0  0  0  0  0  0  0  0  0  0  0  0
    5.3693   -2.7906   -3.2510 C   0  0  0  0  0  0  0  0  0  0  0  0
    5.1950   -3.5181   -4.4167 C   0  0  0  0  0  0  0  0  0  0  0  0
    5.2960   -4.8752   -4.4576 O   0  0  0  0  0  0  0  0  0  0  0  0
    4.9036   -2.8517   -5.6031 C   0  0  0  0  0  0  0  0  0  0  0  0
    4.7797   -1.4557   -5.6151 C   0  0  0  0  0  0  0  0  0  0  0  0
    4.9375   -0.7200   -4.4385 C   0  0  0  0  0  0  0  0  0  0  0  0
    5.2199   -1.3987   -3.2600 C   0  0  0  0  0  0  0  0  0  0  0  0
    4.0830    1.1754   -1.1855 C   0  0  0  0  0  0  0  0  0  0  0  0
    4.8266    2.1206   -1.7487 N   0  0  0  0  0  0  0  0  0  0  0  0
    4.4030    3.3862   -1.5621 C   0  0  0  0  0  0  0  0  0  0  0  0
    5.0616    4.4404   -2.1891 N   0  0  0  0  0  0  0  0  0  0  0  0
    6.3840    4.5134   -2.6406 C   0  0  0  0  0  0  0  0  0  0  0  0
    6.7088    5.3658   -3.7023 C   0  0  0  0  0  0  0  0  0  0  0  0
    8.0048    5.3896   -4.2315 C   0  0  0  0  0  0  0  0  0  0  0  0
    8.9935    4.5688   -3.6955 C   0  0  0  0  0  0  0  0  0  0  0  0
    8.6898    3.7247   -2.6316 C   0  0  0  0  0  0  0  0  0  0  0  0
    7.3929    3.6934   -2.1184 C   0  0  0  0  0  0  0  0  0  0  0  0
    3.3188    3.7212   -0.8284 N   0  0  0  0  0  0  0  0  0  0  0  0
    2.6331    2.7266   -0.2352 C   0  0  0  0  0  0  0  0  0  0  0  0
    2.9812    1.4217   -0.4061 C   0  0  0  0  0  0  0  0  0  0  0  0
    0.5649   -0.9769    0.2574 H   0  0  0  0  0  0  0  0  0  0  0  0
    0.6235    0.1445   -1.1058 H   0  0  0  0  0  0  0  0  0  0  0  0
    0.3823    0.7629    0.5342 H   0  0  0  0  0  0  0  0  0  0  0  0
    2.5033   -1.0403    1.9506 H   0  0  0  0  0  0  0  0  0  0  0  0
    2.4544    0.7127    2.2339 H   0  0  0  0  0  0  0  0  0  0  0  0
    3.9435   -0.0641    1.6821 H   0  0  0  0  0  0  0  0  0  0  0  0
    6.2410   -0.0490   -1.9587 H   0  0  0  0  0  0  0  0  0  0  0  0
    5.5838   -2.0693   -0.0755 H   0  0  0  0  0  0  0  0  0  0  0  0
    7.0737   -1.9010   -0.9741 H   0  0  0  0  0  0  0  0  0  0  0  0
    4.8496   -3.8432   -1.4632 H   0  0  0  0  0  0  0  0  0  0  0  0
    6.5794   -3.9406   -1.8923 H   0  0  0  0  0  0  0  0  0  0  0  0
    5.3696   -5.2034   -3.5467 H   0  0  0  0  0  0  0  0  0  0  0  0
    4.7668   -3.4187   -6.5200 H   0  0  0  0  0  0  0  0  0  0  0  0
    4.5603   -0.9450   -6.5489 H   0  0  0  0  0  0  0  0  0  0  0  0
    4.8519    0.3628   -4.4492 H   0  0  0  0  0  0  0  0  0  0  0  0
    4.5722    5.3104   -2.0777 H   0  0  0  0  0  0  0  0  0  0  0  0
    5.9449    5.9942   -4.1532 H   0  0  0  0  0  0  0  0  0  0  0  0
    8.2351    6.0354   -5.0732 H   0  0  0  0  0  0  0  0  0  0  0  0
    9.9984    4.5773   -4.1089 H   0  0  0  0  0  0  0  0  0  0  0  0
    9.4543    3.0839   -2.2026 H   0  0  0  0  0  0  0  0  0  0  0  0
    7.1819    3.0279   -1.2851 H   0  0  0  0  0  0  0  0  0  0  0  0
    1.7943    3.0326    0.3803 H   0  0  0  0  0  0  0  0  0  0  0  0
  1  2  1  0  0  0  0
  1 30  1  0  0  0  0
  1 31  1  0  0  0  0
  1 32  1  0  0  0  0
  2  3  1  0  0  0  0
  2  4  1  0  0  0  0
  2 29  1  0  0  0  0
  3 33  1  0  0  0  0
  3 34  1  0  0  0  0
  3 35  1  0  0  0  0
  4  5  2  0  0  0  0
  4  6  1  0  0  0  0
  6  7  1  0  0  0  0
  6 17  1  0  0  0  0
  7  8  1  0  0  0  0
  7 16  1  0  0  0  0
  7 36  1  6  0  0  0
  8  9  1  0  0  0  0
  8 37  1  0  0  0  0
  8 38  1  0  0  0  0
  9 10  1  0  0  0  0
  9 39  1  0  0  0  0
  9 40  1  0  0  0  0
 10 11  1  0  0  0  0
 10 16  2  0  0  0  0
 11 12  1  0  0  0  0
 11 13  2  0  0  0  0
 12 41  1  0  0  0  0
 13 14  1  0  0  0  0
 13 42  1  0  0  0  0
 14 15  2  0  0  0  0
 14 43  1  0  0  0  0
 15 16  1  0  0  0  0
 15 44  1  0  0  0  0
 17 18  1  0  0  0  0
 17 29  2  0  0  0  0
 18 19  2  0  0  0  0
 19 20  1  0  0  0  0
 19 27  1  0  0  0  0
 20 21  1  0  0  0  0
 20 45  1  0  0  0  0
 21 22  1  0  0  0  0
 21 26  2  0  0  0  0
 22 23  2  0  0  0  0
 22 46  1  0  0  0  0
 23 24  1  0  0  0  0
 23 47  1  0  0  0  0
 24 25  2  0  0  0  0
 24 48  1  0  0  0  0
 25 26  1  0  0  0  0
 25 49  1  0  0  0  0
 26 50  1  0  0  0  0
 27 28  2  0  0  0  0
 28 29  1  0  0  0  0
 28 51  1  0  0  0  0
M  END
$$$$
