CHEMBL370515
 OpenBabel04072215373D

 51 54  0  0  0  0  0  0  0  0999 V2000
   -1.0263    2.2441  -10.0554 C   0  0  0  0  0  0  0  0  0  0  0  0
   -1.4799    2.2293   -8.7033 O   0  0  0  0  0  0  0  0  0  0  0  0
   -0.3826    1.9007   -7.8716 N   0  0  0  0  0  0  0  0  0  0  0  0
    0.3057    2.9836   -7.3714 C   0  0  0  0  0  0  0  0  0  0  0  0
    0.1749    4.1404   -7.7603 O   0  0  0  0  0  0  0  0  0  0  0  0
    1.2972    2.7012   -6.3100 C   0  0  0  0  0  0  0  0  0  0  0  0
    2.3963    3.5642   -6.1963 C   0  0  0  0  0  0  0  0  0  0  0  0
    3.3204    3.4231   -5.1564 C   0  0  0  0  0  0  0  0  0  0  0  0
    4.4251    4.2821   -5.0113 N   0  0  0  0  0  0  0  0  0  0  0  0
    5.0353    5.0251   -5.9978 C   0  0  0  0  0  0  0  0  0  0  0  0
    5.0879    4.5318   -7.2012 N   0  0  0  0  0  0  0  0  0  0  0  0
    5.7492    5.1969   -8.1944 C   0  0  0  0  0  0  0  0  0  0  0  0
    6.3556    6.3285   -8.0850 N   0  0  0  0  0  0  0  0  0  0  0  0
    6.2952    6.8609   -6.8605 N   0  0  0  0  0  0  0  0  0  0  0  0
    6.8590    8.0522   -6.5308 C   0  0  0  0  0  0  0  0  0  0  0  0
    6.6187    8.2839   -5.1994 C   0  0  0  0  0  0  0  0  0  0  0  0
    7.1831    9.4779   -4.4956 C   0  0  0  0  0  0  0  0  0  0  0  0
    7.1031    9.6863   -3.1981 N   0  0  0  0  0  0  0  0  0  0  0  0
    7.8408   10.8244   -3.0251 C   0  0  0  0  0  0  0  0  0  0  0  0
    8.1062   11.3930   -1.6922 C   0  0  0  0  0  0  0  0  0  0  0  0
    8.3435   11.3493   -4.1468 N   0  0  0  0  0  0  0  0  0  0  0  0
    7.9119   10.4564   -5.1308 O   0  0  0  0  0  0  0  0  0  0  0  0
    5.7901    7.2108   -4.6999 C   0  0  0  0  0  0  0  0  0  0  0  0
    5.1859    7.1952   -3.3058 C   0  0  0  0  0  0  0  0  0  0  0  0
    3.6582    7.1561   -3.3104 C   0  0  0  0  0  0  0  0  0  0  0  0
    5.8130    6.1783   -2.3550 C   0  0  0  0  0  0  0  0  0  0  0  0
    5.6704    6.3074   -5.7681 C   0  0  0  0  0  0  0  0  0  0  0  0
    3.1385    2.3573   -4.2597 C   0  0  0  0  0  0  0  0  0  0  0  0
    4.0104    2.1881   -3.2540 F   0  0  0  0  0  0  0  0  0  0  0  0
    2.0731    1.4689   -4.3781 C   0  0  0  0  0  0  0  0  0  0  0  0
    1.1533    1.6505   -5.4041 C   0  0  0  0  0  0  0  0  0  0  0  0
    0.1165    0.8046   -5.4939 F   0  0  0  0  0  0  0  0  0  0  0  0
   -1.8708    2.5031  -10.6989 H   0  0  0  0  0  0  0  0  0  0  0  0
   -0.6538    1.2555  -10.3406 H   0  0  0  0  0  0  0  0  0  0  0  0
   -0.2420    2.9951  -10.1955 H   0  0  0  0  0  0  0  0  0  0  0  0
   -0.4971    1.0565   -7.3194 H   0  0  0  0  0  0  0  0  0  0  0  0
    2.5016    4.3779   -6.9131 H   0  0  0  0  0  0  0  0  0  0  0  0
    4.6866    4.4434   -4.0554 H   0  0  0  0  0  0  0  0  0  0  0  0
    5.7622    4.6951   -9.1781 H   0  0  0  0  0  0  0  0  0  0  0  0
    7.4022    8.6192   -7.2748 H   0  0  0  0  0  0  0  0  0  0  0  0
    7.5881   10.8196   -0.9168 H   0  0  0  0  0  0  0  0  0  0  0  0
    7.7664   12.4309   -1.6333 H   0  0  0  0  0  0  0  0  0  0  0  0
    9.1783   11.3620   -1.4727 H   0  0  0  0  0  0  0  0  0  0  0  0
    5.4046    8.1613   -2.8421 H   0  0  0  0  0  0  0  0  0  0  0  0
    3.2523    6.2723   -3.8036 H   0  0  0  0  0  0  0  0  0  0  0  0
    3.2588    8.0346   -3.8327 H   0  0  0  0  0  0  0  0  0  0  0  0
    3.2680    7.1798   -2.2870 H   0  0  0  0  0  0  0  0  0  0  0  0
    5.5785    5.1448   -2.5984 H   0  0  0  0  0  0  0  0  0  0  0  0
    5.4564    6.3499   -1.3325 H   0  0  0  0  0  0  0  0  0  0  0  0
    6.9042    6.2730   -2.3452 H   0  0  0  0  0  0  0  0  0  0  0  0
    1.9561    0.6555   -3.6711 H   0  0  0  0  0  0  0  0  0  0  0  0
  1  2  1  0  0  0  0
  1 33  1  0  0  0  0
  1 34  1  0  0  0  0
  1 35  1  0  0  0  0
  2  3  1  0  0  0  0
  3  4  1  0  0  0  0
  3 36  1  0  0  0  0
  4  5  2  0  0  0  0
  4  6  1  0  0  0  0
  6  7  1  0  0  0  0
  6 31  2  0  0  0  0
  7  8  2  0  0  0  0
  7 37  1  0  0  0  0
  8  9  1  0  0  0  0
  8 28  1  0  0  0  0
  9 10  1  0  0  0  0
  9 38  1  0  0  0  0
 10 11  2  0  0  0  0
 10 27  1  0  0  0  0
 11 12  1  0  0  0  0
 12 13  2  0  0  0  0
 12 39  1  0  0  0  0
 13 14  1  0  0  0  0
 14 15  1  0  0  0  0
 14 27  1  0  0  0  0
 15 16  2  0  0  0  0
 15 40  1  0  0  0  0
 16 17  1  0  0  0  0
 16 23  1  0  0  0  0
 17 18  2  0  0  0  0
 17 22  1  0  0  0  0
 18 19  1  0  0  0  0
 19 20  1  0  0  0  0
 19 21  2  0  0  0  0
 20 41  1  0  0  0  0
 20 42  1  0  0  0  0
 20 43  1  0  0  0  0
 21 22  1  0  0  0  0
 23 24  1  0  0  0  0
 23 27  2  0  0  0  0
 24 25  1  0  0  0  0
 24 26  1  0  0  0  0
 24 44  1  0  0  0  0
 25 45  1  0  0  0  0
 25 46  1  0  0  0  0
 25 47  1  0  0  0  0
 26 48  1  0  0  0  0
 26 49  1  0  0  0  0
 26 50  1  0  0  0  0
 28 29  1  0  0  0  0
 28 30  2  0  0  0  0
 30 31  1  0  0  0  0
 30 51  1  0  0  0  0
 31 32  1  0  0  0  0
M  END
$$$$
